5281722
  -OEChem-07051212593D

 50 52  0     1  0  0  0  0  0999 V2000
   -0.4570   -1.5598   -0.3006 O   0  0  0  0  0  0  0  0  0  0  0  0
   -3.5255    2.8579   -0.6268 O   0  0  0  0  0  0  0  0  0  0  0  0
    0.3654    1.2962   -0.0116 O   0  0  0  0  0  0  0  0  0  0  0  0
    0.4333   -2.0550    1.7722 O   0  0  0  0  0  0  0  0  0  0  0  0
    3.9088    1.3217   -0.5992 O   0  0  0  0  0  0  0  0  0  0  0  0
    1.6086    1.3711   -1.9496 O   0  0  0  0  0  0  0  0  0  0  0  0
   -3.7857   -0.4520    0.7879 N   0  0  1  0  0  0  0  0  0  0  0  0
   -2.2959   -0.2715    0.8129 C   0  0  2  0  0  0  0  0  0  0  0  0
   -2.0363    1.1060    0.1458 C   0  0  2  0  0  0  0  0  0  0  0  0
   -1.7805   -1.5856    0.2215 C   0  0  1  0  0  0  0  0  0  0  0  0
   -3.3576    1.4548   -0.5334 C   0  0  1  0  0  0  0  0  0  0  0  0
   -4.3674    0.8412    0.4129 C   0  0  0  0  0  0  0  0  0  0  0  0
   -4.0952   -1.4980   -0.2119 C   0  0  0  0  0  0  0  0  0  0  0  0
   -2.7840   -1.8846   -0.8698 C   0  0  0  0  0  0  0  0  0  0  0  0
   -0.8444    1.2954   -0.7870 C   0  0  0  0  0  0  0  0  0  0  0  0
    0.5494   -1.8174    0.5782 C   0  0  0  0  0  0  0  0  0  0  0  0
    1.5287    1.3623   -0.7265 C   0  0  0  0  0  0  0  0  0  0  0  0
    2.7369    1.4547    0.2075 C   0  0  1  0  0  0  0  0  0  0  0  0
    1.8677   -1.6824   -0.0958 C   0  0  0  0  0  0  0  0  0  0  0  0
    3.0026   -1.1036    0.7088 C   0  0  0  0  0  0  0  0  0  0  0  0
    2.7317    0.3085    1.2177 C   0  0  0  0  0  0  0  0  0  0  0  0
    2.7633    2.8735    0.7969 C   0  0  0  0  0  0  0  0  0  0  0  0
    2.0108   -2.1053   -1.3605 C   0  0  0  0  0  0  0  0  0  0  0  0
    2.5371    0.4892    2.5373 C   0  0  0  0  0  0  0  0  0  0  0  0
    3.2852   -2.0173   -2.1270 C   0  0  0  0  0  0  0  0  0  0  0  0
   -1.9564   -0.2044    1.8544 H   0  0  0  0  0  0  0  0  0  0  0  0
   -1.8933    1.8229    0.9706 H   0  0  0  0  0  0  0  0  0  0  0  0
   -1.8645   -2.3850    0.9732 H   0  0  0  0  0  0  0  0  0  0  0  0
   -3.4222    1.0215   -1.5381 H   0  0  0  0  0  0  0  0  0  0  0  0
   -4.4807    1.4629    1.3108 H   0  0  0  0  0  0  0  0  0  0  0  0
   -5.3685    0.7678   -0.0269 H   0  0  0  0  0  0  0  0  0  0  0  0
   -4.8439   -1.2072   -0.9574 H   0  0  0  0  0  0  0  0  0  0  0  0
   -4.5022   -2.3613    0.3281 H   0  0  0  0  0  0  0  0  0  0  0  0
   -2.7595   -2.9359   -1.1737 H   0  0  0  0  0  0  0  0  0  0  0  0
   -2.5860   -1.2822   -1.7638 H   0  0  0  0  0  0  0  0  0  0  0  0
   -0.8111    0.5261   -1.5649 H   0  0  0  0  0  0  0  0  0  0  0  0
   -0.9165    2.2715   -1.2822 H   0  0  0  0  0  0  0  0  0  0  0  0
   -4.4198    3.0215   -0.9718 H   0  0  0  0  0  0  0  0  0  0  0  0
    3.1726   -1.7808    1.5583 H   0  0  0  0  0  0  0  0  0  0  0  0
    3.9631   -1.0998    0.1894 H   0  0  0  0  0  0  0  0  0  0  0  0
    3.6464    3.0213    1.4294 H   0  0  0  0  0  0  0  0  0  0  0  0
    2.8319    3.6195   -0.0045 H   0  0  0  0  0  0  0  0  0  0  0  0
    1.8652    3.1024    1.3805 H   0  0  0  0  0  0  0  0  0  0  0  0
    1.1677   -2.5291   -1.9003 H   0  0  0  0  0  0  0  0  0  0  0  0
    3.8056    0.5507   -1.1798 H   0  0  0  0  0  0  0  0  0  0  0  0
    2.3489    1.4633    2.9724 H   0  0  0  0  0  0  0  0  0  0  0  0
    2.5536   -0.3472    3.2291 H   0  0  0  0  0  0  0  0  0  0  0  0
    3.2957   -2.8102   -2.8839 H   0  0  0  0  0  0  0  0  0  0  0  0
    4.1822   -2.1727   -1.5243 H   0  0  0  0  0  0  0  0  0  0  0  0
    3.3518   -1.0637   -2.6579 H   0  0  0  0  0  0  0  0  0  0  0  0
  1 10  1  0  0  0  0
  1 16  1  0  0  0  0
  2 11  1  0  0  0  0
  2 38  1  0  0  0  0
  3 15  1  0  0  0  0
  3 17  1  0  0  0  0
  4 16  2  0  0  0  0
  5 18  1  0  0  0  0
  5 45  1  0  0  0  0
  6 17  2  0  0  0  0
  7  8  1  0  0  0  0
  7 12  1  0  0  0  0
  7 13  1  0  0  0  0
  8  9  1  0  0  0  0
  8 10  1  0  0  0  0
  8 26  1  0  0  0  0
  9 11  1  0  0  0  0
  9 15  1  0  0  0  0
  9 27  1  0  0  0  0
 10 14  1  0  0  0  0
 10 28  1  0  0  0  0
 11 12  1  0  0  0  0
 11 29  1  0  0  0  0
 12 30  1  0  0  0  0
 12 31  1  0  0  0  0
 13 14  1  0  0  0  0
 13 32  1  0  0  0  0
 13 33  1  0  0  0  0
 14 34  1  0  0  0  0
 14 35  1  0  0  0  0
 15 36  1  0  0  0  0
 15 37  1  0  0  0  0
 16 19  1  0  0  0  0
 17 18  1  0  0  0  0
 18 21  1  0  0  0  0
 18 22  1  0  0  0  0
 19 20  1  0  0  0  0
 19 23  2  0  0  0  0
 20 21  1  0  0  0  0
 20 39  1  0  0  0  0
 20 40  1  0  0  0  0
 21 24  2  0  0  0  0
 22 41  1  0  0  0  0
 22 42  1  0  0  0  0
 22 43  1  0  0  0  0
 23 25  1  0  0  0  0
 23 44  1  0  0  0  0
 24 46  1  0  0  0  0
 24 47  1  0  0  0  0
 25 48  1  0  0  0  0
 25 49  1  0  0  0  0
 25 50  1  0  0  0  0
M  END
> <PUBCHEM_COMPOUND_CID>
5281722

> <PUBCHEM_CONFORMER_RMSD>
0.6

> <PUBCHEM_CONFORMER_DIVERSEORDER>
4
31
15
24
5
7
16
8
13
28
21
2
17
1
22
30
19
12
23
3
29
9
18
26
20
14
25
27
10
6
11

> <PUBCHEM_MMFF94_PARTIAL_CHARGES>
27
1 -0.43
10 0.28
11 0.28
12 0.27
13 0.27
15 0.28
16 0.71
17 0.66
18 0.48
19 -0.12
2 -0.68
20 0.28
21 -0.28
23 -0.29
24 -0.3
25 0.14
3 -0.43
38 0.4
4 -0.57
44 0.15
45 0.4
46 0.15
47 0.15
5 -0.68
6 -0.57
7 -0.81
8 0.27

> <PUBCHEM_EFFECTIVE_ROTOR_COUNT>
1.8

> <PUBCHEM_PHARMACOPHORE_FEATURES>
10
1 2 acceptor
1 2 donor
1 25 hydrophobe
1 4 acceptor
1 5 acceptor
1 5 donor
1 6 acceptor
1 7 cation
5 7 8 10 13 14 rings
5 7 8 9 11 12 rings

> <PUBCHEM_HEAVY_ATOM_COUNT>
25

> <PUBCHEM_ATOM_DEF_STEREO_COUNT>
5

> <PUBCHEM_ATOM_UDEF_STEREO_COUNT>
0

> <PUBCHEM_BOND_DEF_STEREO_COUNT>
1

> <PUBCHEM_BOND_UDEF_STEREO_COUNT>
0

> <PUBCHEM_ISOTOPIC_ATOM_COUNT>
0

> <PUBCHEM_COMPONENT_COUNT>
1

> <PUBCHEM_CACTVS_TAUTO_COUNT>
1

> <PUBCHEM_CONFORMER_ID>
005097BA00000004

> <PUBCHEM_MMFF94_ENERGY>
66.3437

> <PUBCHEM_FEATURE_SELFOVERLAP>
51.32

> <PUBCHEM_SHAPE_FINGERPRINT>
10616163 171 18339922589408210965
10675989 125 16107858327080826156
10863032 1 17749105578015735963
10948715 1 18191586342139591824
11370993 70 18337399218691379432
12422481 6 18265076746258411626
12553582 1 18197494026732038037
12596599 1 18189325934826577035
12633257 1 18056499432627868288
13134695 92 16878510171410022330
13140716 1 18342174518287245129
13224815 77 18342178847524549987
13533116 47 17748825259112935895
13583140 156 17313683580485688229
14223421 5 18409167675694139373
14713325 29 16978942608744032950
15196674 1 18413390933947114035
15238133 3 17558264594644343786
15338160 23 11520553514979438550
15536298 74 18335697256485676263
16945 1 18194414294219558362
17349148 13 18198357169034797967
1813 80 15983141633653863714
18981168 100 18334305283286294311
20691752 17 17704351078225161783
20715895 44 18128562486312807229
20905425 154 18409726223295714919
21756936 100 17537175657457311536
21864079 5 18202559588169437491
23227448 37 18410016559259345175
23419403 2 17826824682760051362
23557571 272 18260833678798862643
23559900 14 18187642535153263108
2748010 2 18412542145688912127
3052486 1 17988080131440736166
474 4 17988081084723217091
495365 180 17823151153670010377
6287921 2 18187080611702371798
6823239 73 18336823203647689102
7364860 26 18260540134879283958
7832392 63 18266181806313955379
84936 31 17313391174843797830
9709674 26 18410288090943809631

> <PUBCHEM_SHAPE_MULTIPOLES>
474.29
7.54
3.07
1.67
4.79
0.32
-0.19
1.29
0.15
-0.75
0.67
-1.6
-0.26
1.05

> <PUBCHEM_SHAPE_SELFOVERLAP>
1002.44

> <PUBCHEM_SHAPE_VOLUME>
264.3

> <PUBCHEM_COORDINATE_TYPE>
2
5
10

$$$$

