17396575
  -OEChem-06241222572D

 40 41  0     0  0  0  0  0  0999 V2000
    5.5211    2.8184    0.0000 S   0  0  0  0  0  0  0  0  0  0  0  0
    7.1962   -2.2694    0.0000 O   0  0  0  0  0  0  0  0  0  0  0  0
    5.4641   -3.2694    0.0000 O   0  0  0  0  0  0  0  0  0  0  0  0
    2.8660   -0.7694    0.0000 O   0  0  0  0  0  0  0  0  0  0  0  0
    7.1962    0.7306    0.0000 O   0  0  0  0  0  0  0  0  0  0  0  0
    3.7320    0.7306    0.0000 O   0  0  0  0  0  0  0  0  0  0  0  0
    5.4641    0.7306    0.0000 N   0  0  0  0  0  0  0  0  0  0  0  0
    5.4641   -0.2694    0.0000 C   0  0  0  0  0  0  0  0  0  0  0  0
    4.5981   -0.7694    0.0000 C   0  0  0  0  0  0  0  0  0  0  0  0
    6.3301   -0.7694    0.0000 C   0  0  0  0  0  0  0  0  0  0  0  0
    6.3301   -1.7694    0.0000 C   0  0  0  0  0  0  0  0  0  0  0  0
    5.4641   -2.2694    0.0000 C   0  0  0  0  0  0  0  0  0  0  0  0
    4.5981   -1.7694    0.0000 C   0  0  0  0  0  0  0  0  0  0  0  0
    6.3301    2.2306    0.0000 C   0  0  0  0  0  0  0  0  0  0  0  0
    6.3301    1.2306    0.0000 C   0  0  0  0  0  0  0  0  0  0  0  0
    7.1391    2.8184    0.0000 C   0  0  0  0  0  0  0  0  0  0  0  0
    3.7320   -0.2694    0.0000 C   0  0  0  0  0  0  0  0  0  0  0  0
    6.8301    3.7694    0.0000 C   0  0  0  0  0  0  0  0  0  0  0  0
    8.0902    2.5094    0.0000 C   0  0  0  0  0  0  0  0  0  0  0  0
    5.8301    3.7694    0.0000 C   0  0  0  0  0  0  0  0  0  0  0  0
    8.0622   -1.7694    0.0000 C   0  0  0  0  0  0  0  0  0  0  0  0
    4.5981   -3.7694    0.0000 C   0  0  0  0  0  0  0  0  0  0  0  0
    2.0000   -0.2694    0.0000 C   0  0  0  0  0  0  0  0  0  0  0  0
    6.8671   -0.4594    0.0000 H   0  0  0  0  0  0  0  0  0  0  0  0
    4.0611   -2.0794    0.0000 H   0  0  0  0  0  0  0  0  0  0  0  0
    4.9272    1.0406    0.0000 H   0  0  0  0  0  0  0  0  0  0  0  0
    7.1946    4.2710    0.0000 H   0  0  0  0  0  0  0  0  0  0  0  0
    7.8986    1.9197    0.0000 H   0  0  0  0  0  0  0  0  0  0  0  0
    8.6799    2.3178    0.0000 H   0  0  0  0  0  0  0  0  0  0  0  0
    8.2818    3.0990    0.0000 H   0  0  0  0  0  0  0  0  0  0  0  0
    5.4657    4.2710    0.0000 H   0  0  0  0  0  0  0  0  0  0  0  0
    8.3722   -2.3064    0.0000 H   0  0  0  0  0  0  0  0  0  0  0  0
    8.5991   -1.4594    0.0000 H   0  0  0  0  0  0  0  0  0  0  0  0
    7.7522   -1.2325    0.0000 H   0  0  0  0  0  0  0  0  0  0  0  0
    4.2881   -3.2325    0.0000 H   0  0  0  0  0  0  0  0  0  0  0  0
    4.0611   -4.0794    0.0000 H   0  0  0  0  0  0  0  0  0  0  0  0
    4.9081   -4.3064    0.0000 H   0  0  0  0  0  0  0  0  0  0  0  0
    2.3100    0.2675    0.0000 H   0  0  0  0  0  0  0  0  0  0  0  0
    1.4631    0.0406    0.0000 H   0  0  0  0  0  0  0  0  0  0  0  0
    1.6900   -0.8064    0.0000 H   0  0  0  0  0  0  0  0  0  0  0  0
  1 14  1  0  0  0  0
  1 20  1  0  0  0  0
  2 11  1  0  0  0  0
  2 21  1  0  0  0  0
  3 12  1  0  0  0  0
  3 22  1  0  0  0  0
  4 17  1  0  0  0  0
  4 23  1  0  0  0  0
  5 15  2  0  0  0  0
  6 17  2  0  0  0  0
  7  8  1  0  0  0  0
  7 15  1  0  0  0  0
  7 26  1  0  0  0  0
  8  9  1  0  0  0  0
  8 10  2  0  0  0  0
  9 13  2  0  0  0  0
  9 17  1  0  0  0  0
 10 11  1  0  0  0  0
 10 24  1  0  0  0  0
 11 12  2  0  0  0  0
 12 13  1  0  0  0  0
 13 25  1  0  0  0  0
 14 15  1  0  0  0  0
 14 16  2  0  0  0  0
 16 18  1  0  0  0  0
 16 19  1  0  0  0  0
 18 20  2  0  0  0  0
 18 27  1  0  0  0  0
 19 28  1  0  0  0  0
 19 29  1  0  0  0  0
 19 30  1  0  0  0  0
 20 31  1  0  0  0  0
 21 32  1  0  0  0  0
 21 33  1  0  0  0  0
 21 34  1  0  0  0  0
 22 35  1  0  0  0  0
 22 36  1  0  0  0  0
 22 37  1  0  0  0  0
 23 38  1  0  0  0  0
 23 39  1  0  0  0  0
 23 40  1  0  0  0  0
M  END
> <PUBCHEM_COMPOUND_CID>
17396575

> <PUBCHEM_COMPOUND_CANONICALIZED>
1

> <PUBCHEM_CACTVS_COMPLEXITY>
433

> <PUBCHEM_CACTVS_HBOND_ACCEPTOR>
6

> <PUBCHEM_CACTVS_HBOND_DONOR>
1

> <PUBCHEM_CACTVS_ROTATABLE_BOND>
6

> <PUBCHEM_CACTVS_SUBSKEYS>
AAADceB6OABAAAAAAAAAAAAAAAAAASAAAAAwAAAAAAAAAAABwAAAHgQQAAAADAyF2AKyz4LABAiMAiXSWACDCIAlKhBIiBkG7MgNJjrktZuEMapm1Bnq6cf6/D/OIEABAgACQABAgAIEAASAAAAAAAAAAA==

> <PUBCHEM_IUPAC_OPENEYE_NAME>
methyl 4,5-dimethoxy-2-[(3-methylthiophene-2-carbonyl)amino]benzoate

> <PUBCHEM_IUPAC_CAS_NAME>
4,5-dimethoxy-2-[[(3-methyl-2-thiophenyl)-oxomethyl]amino]benzoic acid methyl ester

> <PUBCHEM_IUPAC_NAME>
methyl 4,5-dimethoxy-2-[(3-methylthiophene-2-carbonyl)amino]benzoate

> <PUBCHEM_IUPAC_SYSTEMATIC_NAME>
methyl 4,5-dimethoxy-2-[(3-methylthiophen-2-yl)carbonylamino]benzoate

> <PUBCHEM_IUPAC_TRADITIONAL_NAME>
4,5-dimethoxy-2-[(3-methylthiophene-2-carbonyl)amino]benzoic acid methyl ester

> <PUBCHEM_IUPAC_INCHI>
InChI=1S/C16H17NO5S/c1-9-5-6-23-14(9)15(18)17-11-8-13(21-3)12(20-2)7-10(11)16(19)22-4/h5-8H,1-4H3,(H,17,18)

> <PUBCHEM_IUPAC_INCHIKEY>
QCSRMQIPCLGAJM-UHFFFAOYSA-N

> <PUBCHEM_XLOGP3_AA>
3.5

> <PUBCHEM_EXACT_MASS>
335.082744

> <PUBCHEM_MOLECULAR_FORMULA>
C16H17NO5S

> <PUBCHEM_MOLECULAR_WEIGHT>
335.37488

> <PUBCHEM_OPENEYE_CAN_SMILES>
CC1=C(SC=C1)C(=O)NC2=CC(=C(C=C2C(=O)OC)OC)OC

> <PUBCHEM_OPENEYE_ISO_SMILES>
CC1=C(SC=C1)C(=O)NC2=CC(=C(C=C2C(=O)OC)OC)OC

> <PUBCHEM_CACTVS_TPSA>
102

> <PUBCHEM_MONOISOTOPIC_WEIGHT>
335.082744

> <PUBCHEM_TOTAL_CHARGE>
0

> <PUBCHEM_HEAVY_ATOM_COUNT>
23

> <PUBCHEM_ATOM_DEF_STEREO_COUNT>
0

> <PUBCHEM_ATOM_UDEF_STEREO_COUNT>
0

> <PUBCHEM_BOND_DEF_STEREO_COUNT>
0

> <PUBCHEM_BOND_UDEF_STEREO_COUNT>
0

> <PUBCHEM_ISOTOPIC_ATOM_COUNT>
0

> <PUBCHEM_COMPONENT_COUNT>
1

> <PUBCHEM_CACTVS_TAUTO_COUNT>
5

> <PUBCHEM_COORDINATE_TYPE>
1
5
255

> <PUBCHEM_BONDANNOTATIONS>
1  14  8
1  20  8
10  11  8
11  12  8
12  13  8
14  16  8
16  18  8
18  20  8
8  10  8
8  9  8
9  13  8

$$$$

