586348
  -OEChem-06241222462D

 40 41  0     1  0  0  0  0  0999 V2000
    4.0000   -0.5000    0.0000 O   0  0  0  0  0  0  0  0  0  0  0  0
    4.0000    0.5000    0.0000 O   0  0  0  0  0  0  0  0  0  0  0  0
    3.8660   -3.0000    0.0000 N   0  0  0  0  0  0  0  0  0  0  0  0
    2.1340    3.0000    0.0000 N   0  0  0  0  0  0  0  0  0  0  0  0
    3.0000   -0.5000    0.0000 C   0  0  3  0  0  0  0  0  0  0  0  0
    3.0000    0.5000    0.0000 C   0  0  3  0  0  0  0  0  0  0  0  0
    3.0000    1.5000    0.0000 C   0  0  0  0  0  0  0  0  0  0  0  0
    3.0000   -1.5000    0.0000 C   0  0  0  0  0  0  0  0  0  0  0  0
    2.0000    0.5000    0.0000 C   0  0  0  0  0  0  0  0  0  0  0  0
    2.0000   -0.5000    0.0000 C   0  0  0  0  0  0  0  0  0  0  0  0
    2.1340   -2.0000    0.0000 C   0  0  0  0  0  0  0  0  0  0  0  0
    3.8660    2.0000    0.0000 C   0  0  0  0  0  0  0  0  0  0  0  0
    3.8660   -2.0000    0.0000 C   0  0  0  0  0  0  0  0  0  0  0  0
    2.1340    2.0000    0.0000 C   0  0  0  0  0  0  0  0  0  0  0  0
    2.1340   -3.0000    0.0000 C   0  0  0  0  0  0  0  0  0  0  0  0
    3.8660    3.0000    0.0000 C   0  0  0  0  0  0  0  0  0  0  0  0
    3.0000   -3.5000    0.0000 C   0  0  0  0  0  0  0  0  0  0  0  0
    3.0000    3.5000    0.0000 C   0  0  0  0  0  0  0  0  0  0  0  0
    3.0000    4.5000    0.0000 C   0  0  0  0  0  0  0  0  0  0  0  0
    3.0000   -4.5000    0.0000 C   0  0  0  0  0  0  0  0  0  0  0  0
    2.0000    0.1200    0.0000 H   0  0  0  0  0  0  0  0  0  0  0  0
    1.3800   -0.5000    0.0000 H   0  0  0  0  0  0  0  0  0  0  0  0
    2.0000    1.1200    0.0000 H   0  0  0  0  0  0  0  0  0  0  0  0
    1.3800    0.5000    0.0000 H   0  0  0  0  0  0  0  0  0  0  0  0
    2.0000   -0.1200    0.0000 H   0  0  0  0  0  0  0  0  0  0  0  0
    2.0000   -1.1200    0.0000 H   0  0  0  0  0  0  0  0  0  0  0  0
    4.3100   -1.0369    0.0000 H   0  0  0  0  0  0  0  0  0  0  0  0
    4.3100    1.0369    0.0000 H   0  0  0  0  0  0  0  0  0  0  0  0
    4.4030    1.6900    0.0000 H   0  0  0  0  0  0  0  0  0  0  0  0
    1.5970   -1.6900    0.0000 H   0  0  0  0  0  0  0  0  0  0  0  0
    1.5970    1.6900    0.0000 H   0  0  0  0  0  0  0  0  0  0  0  0
    4.4030   -1.6900    0.0000 H   0  0  0  0  0  0  0  0  0  0  0  0
    4.4030    3.3100    0.0000 H   0  0  0  0  0  0  0  0  0  0  0  0
    1.5970   -3.3100    0.0000 H   0  0  0  0  0  0  0  0  0  0  0  0
    3.6200    4.5000    0.0000 H   0  0  0  0  0  0  0  0  0  0  0  0
    3.0000    5.1200    0.0000 H   0  0  0  0  0  0  0  0  0  0  0  0
    2.3800   -4.5000    0.0000 H   0  0  0  0  0  0  0  0  0  0  0  0
    3.0000   -5.1200    0.0000 H   0  0  0  0  0  0  0  0  0  0  0  0
    3.6200   -4.5000    0.0000 H   0  0  0  0  0  0  0  0  0  0  0  0
    2.3800    4.5000    0.0000 H   0  0  0  0  0  0  0  0  0  0  0  0
  1  5  1  0  0  0  0
  1 27  1  0  0  0  0
  2  6  1  0  0  0  0
  2 28  1  0  0  0  0
  3 13  1  0  0  0  0
  3 17  2  0  0  0  0
  4 14  1  0  0  0  0
  4 18  2  0  0  0  0
  5  6  1  0  0  0  0
  5  8  1  0  0  0  0
  5 10  1  0  0  0  0
  6  7  1  0  0  0  0
  6  9  1  0  0  0  0
  7 12  1  0  0  0  0
  7 14  2  0  0  0  0
  8 11  1  0  0  0  0
  8 13  2  0  0  0  0
  9 23  1  0  0  0  0
  9 24  1  0  0  0  0
  9 25  1  0  0  0  0
 10 21  1  0  0  0  0
 10 22  1  0  0  0  0
 10 26  1  0  0  0  0
 11 15  2  0  0  0  0
 11 30  1  0  0  0  0
 12 16  2  0  0  0  0
 12 29  1  0  0  0  0
 13 32  1  0  0  0  0
 14 31  1  0  0  0  0
 15 17  1  0  0  0  0
 15 34  1  0  0  0  0
 16 18  1  0  0  0  0
 16 33  1  0  0  0  0
 17 20  1  0  0  0  0
 18 19  1  0  0  0  0
 19 35  1  0  0  0  0
 19 36  1  0  0  0  0
 19 40  1  0  0  0  0
 20 37  1  0  0  0  0
 20 38  1  0  0  0  0
 20 39  1  0  0  0  0
M  END
> <PUBCHEM_COMPOUND_CID>
586348

> <PUBCHEM_COMPOUND_CANONICALIZED>
1

> <PUBCHEM_CACTVS_COMPLEXITY>
306

> <PUBCHEM_CACTVS_HBOND_ACCEPTOR>
4

> <PUBCHEM_CACTVS_HBOND_DONOR>
2

> <PUBCHEM_CACTVS_ROTATABLE_BOND>
3

> <PUBCHEM_CACTVS_SUBSKEYS>
AAADceB7MAAAAAAAAAAAAAAAAAAAAAAAAAAsWAAAAAAAAAAB4AAAHgAACAAADEzBngQ+gJIIEgCgAzRnRACCgCAxAiAI2CA4bJgJJuLAkZGEcAhmwAHJ2Aew0OMOgAAAAAAAAAAAAAAAAAAAAAAAAAAAAA==

> <PUBCHEM_IUPAC_OPENEYE_NAME>
2,3-bis(6-methyl-3-pyridyl)butane-2,3-diol

> <PUBCHEM_IUPAC_CAS_NAME>
2,3-bis(6-methyl-3-pyridinyl)butane-2,3-diol

> <PUBCHEM_IUPAC_NAME>
2,3-bis(6-methylpyridin-3-yl)butane-2,3-diol

> <PUBCHEM_IUPAC_SYSTEMATIC_NAME>
2,3-bis(6-methylpyridin-3-yl)butane-2,3-diol

> <PUBCHEM_IUPAC_TRADITIONAL_NAME>
2,3-bis(6-methyl-3-pyridyl)butane-2,3-diol

> <PUBCHEM_IUPAC_INCHI>
InChI=1S/C16H20N2O2/c1-11-5-7-13(9-17-11)15(3,19)16(4,20)14-8-6-12(2)18-10-14/h5-10,19-20H,1-4H3

> <PUBCHEM_IUPAC_INCHIKEY>
HUPDANKDHJFDSR-UHFFFAOYSA-N

> <PUBCHEM_XLOGP3_AA>
1

> <PUBCHEM_EXACT_MASS>
272.152478

> <PUBCHEM_MOLECULAR_FORMULA>
C16H20N2O2

> <PUBCHEM_MOLECULAR_WEIGHT>
272.3422

> <PUBCHEM_OPENEYE_CAN_SMILES>
CC1=NC=C(C=C1)C(C)(C(C)(C2=CN=C(C=C2)C)O)O

> <PUBCHEM_OPENEYE_ISO_SMILES>
CC1=NC=C(C=C1)C(C)(C(C)(C2=CN=C(C=C2)C)O)O

> <PUBCHEM_CACTVS_TPSA>
66.2

> <PUBCHEM_MONOISOTOPIC_WEIGHT>
272.152478

> <PUBCHEM_TOTAL_CHARGE>
0

> <PUBCHEM_HEAVY_ATOM_COUNT>
20

> <PUBCHEM_ATOM_DEF_STEREO_COUNT>
0

> <PUBCHEM_ATOM_UDEF_STEREO_COUNT>
2

> <PUBCHEM_BOND_DEF_STEREO_COUNT>
0

> <PUBCHEM_BOND_UDEF_STEREO_COUNT>
0

> <PUBCHEM_ISOTOPIC_ATOM_COUNT>
0

> <PUBCHEM_COMPONENT_COUNT>
1

> <PUBCHEM_CACTVS_TAUTO_COUNT>
1

> <PUBCHEM_COORDINATE_TYPE>
1
5
255

> <PUBCHEM_BONDANNOTATIONS>
5  1  3
11  15  8
12  16  8
15  17  8
16  18  8
6  2  3
3  13  8
3  17  8
4  14  8
4  18  8
7  12  8
7  14  8
8  11  8
8  13  8

$$$$

