104987
  -OEChem-07051213132D

 32 36  0     0  0  0  0  0  0999 V2000
    3.7841   -1.8137    0.0000 C   0  0  0  0  0  0  0  0  0  0  0  0
    2.9180   -1.3137    0.0000 C   0  0  0  0  0  0  0  0  0  0  0  0
    2.9180   -0.3137    0.0000 C   0  0  0  0  0  0  0  0  0  0  0  0
    3.7841    0.1863    0.0000 C   0  0  0  0  0  0  0  0  0  0  0  0
    4.6501   -1.3137    0.0000 C   0  0  0  0  0  0  0  0  0  0  0  0
    3.7680   -2.8552    0.0000 C   0  0  0  0  0  0  0  0  0  0  0  0
    3.8001    1.2278    0.0000 C   0  0  0  0  0  0  0  0  0  0  0  0
    4.6501   -0.3137    0.0000 C   0  0  0  0  0  0  0  0  0  0  0  0
    2.3001   -2.0921    0.0000 C   0  0  0  0  0  0  0  0  0  0  0  0
    2.9021    1.7555    0.0000 C   0  0  0  0  0  0  0  0  0  0  0  0
    2.0080    0.1931    0.0000 C   0  0  0  0  0  0  0  0  0  0  0  0
    2.7800   -2.9624    0.0000 C   0  0  0  0  0  0  0  0  0  0  0  0
    5.5601   -1.8206    0.0000 C   0  0  0  0  0  0  0  0  0  0  0  0
    2.0000    1.2347    0.0000 C   0  0  0  0  0  0  0  0  0  0  0  0
    4.6660   -3.3830    0.0000 C   0  0  0  0  0  0  0  0  0  0  0  0
    4.7520    1.7484    0.0000 C   0  0  0  0  0  0  0  0  0  0  0  0
    5.5681   -2.8622    0.0000 C   0  0  0  0  0  0  0  0  0  0  0  0
    2.8937    2.8405    0.0000 C   0  0  0  0  0  0  0  0  0  0  0  0
    4.7688    2.8333    0.0000 C   0  0  0  0  0  0  0  0  0  0  0  0
    3.8334    3.3830    0.0000 C   0  0  0  0  0  0  0  0  0  0  0  0
    5.1870   -0.0037    0.0000 H   0  0  0  0  0  0  0  0  0  0  0  0
    1.6823   -2.0404    0.0000 H   0  0  0  0  0  0  0  0  0  0  0  0
    1.4747   -0.1231    0.0000 H   0  0  0  0  0  0  0  0  0  0  0  0
    2.4940   -3.5125    0.0000 H   0  0  0  0  0  0  0  0  0  0  0  0
    6.0934   -1.5044    0.0000 H   0  0  0  0  0  0  0  0  0  0  0  0
    1.4619    1.5426    0.0000 H   0  0  0  0  0  0  0  0  0  0  0  0
    4.6636   -4.0030    0.0000 H   0  0  0  0  0  0  0  0  0  0  0  0
    5.2829    1.4281    0.0000 H   0  0  0  0  0  0  0  0  0  0  0  0
    6.1062   -3.1701    0.0000 H   0  0  0  0  0  0  0  0  0  0  0  0
    2.3556    3.1484    0.0000 H   0  0  0  0  0  0  0  0  0  0  0  0
    5.3093    3.1370    0.0000 H   0  0  0  0  0  0  0  0  0  0  0  0
    3.8357    4.0030    0.0000 H   0  0  0  0  0  0  0  0  0  0  0  0
  1  2  2  0  0  0  0
  1  5  1  0  0  0  0
  1  6  1  0  0  0  0
  2  3  1  0  0  0  0
  2  9  1  0  0  0  0
  3  4  2  0  0  0  0
  3 11  1  0  0  0  0
  4  7  1  0  0  0  0
  4  8  1  0  0  0  0
  5  8  2  0  0  0  0
  5 13  1  0  0  0  0
  6 12  1  0  0  0  0
  6 15  2  0  0  0  0
  7 10  1  0  0  0  0
  7 16  2  0  0  0  0
  8 21  1  0  0  0  0
  9 12  2  0  0  0  0
  9 22  1  0  0  0  0
 10 14  1  0  0  0  0
 10 18  2  0  0  0  0
 11 14  2  0  0  0  0
 11 23  1  0  0  0  0
 12 24  1  0  0  0  0
 13 17  2  0  0  0  0
 13 25  1  0  0  0  0
 14 26  1  0  0  0  0
 15 17  1  0  0  0  0
 15 27  1  0  0  0  0
 16 19  1  0  0  0  0
 16 28  1  0  0  0  0
 17 29  1  0  0  0  0
 18 20  1  0  0  0  0
 18 30  1  0  0  0  0
 19 20  2  0  0  0  0
 19 31  1  0  0  0  0
 20 32  1  0  0  0  0
M  END
> <PUBCHEM_COMPOUND_CID>
104987

> <PUBCHEM_COMPOUND_CANONICALIZED>
1

> <PUBCHEM_CACTVS_COMPLEXITY>
408

> <PUBCHEM_CACTVS_HBOND_ACCEPTOR>
0

> <PUBCHEM_CACTVS_HBOND_DONOR>
0

> <PUBCHEM_CACTVS_ROTATABLE_BOND>
0

> <PUBCHEM_CACTVS_SUBSKEYS>
AAADccB4AAAAAAAAAAAAAAAAAAAAAQAAAAAwYMGAAAAAAEDBVAAAGAAAAAAADACAGAAwAMAAAACAAiBCAAACAAAgAAAIiAAAAIgIICKAERCAIAAggAAIiAcAgMAOwAACAAAQAACAAAQAACAAAAAAAAAAAA==

> <PUBCHEM_IUPAC_OPENEYE_NAME>
benzo[j]aceanthrylene

> <PUBCHEM_IUPAC_CAS_NAME>
benzo[j]aceanthrylene

> <PUBCHEM_IUPAC_NAME>
benzo[j]aceanthrylene

> <PUBCHEM_IUPAC_SYSTEMATIC_NAME>
benzo[j]aceanthrylene

> <PUBCHEM_IUPAC_TRADITIONAL_NAME>
benz[j]aceanthrylene

> <PUBCHEM_IUPAC_INCHI>
InChI=1S/C20H12/c1-2-7-16-13(4-1)8-10-17-18-11-9-14-5-3-6-15(20(14)18)12-19(16)17/h1-12H

> <PUBCHEM_IUPAC_INCHIKEY>
OSKRAISUPBTHCP-UHFFFAOYSA-N

> <PUBCHEM_XLOGP3_AA>
6.2

> <PUBCHEM_EXACT_MASS>
252.0939

> <PUBCHEM_MOLECULAR_FORMULA>
C20H12

> <PUBCHEM_MOLECULAR_WEIGHT>
252.30928

> <PUBCHEM_OPENEYE_CAN_SMILES>
C1=CC=C2C(=C1)C=CC3=C2C=C4C=CC=C5C4=C3C=C5

> <PUBCHEM_OPENEYE_ISO_SMILES>
C1=CC=C2C(=C1)C=CC3=C2C=C4C=CC=C5C4=C3C=C5

> <PUBCHEM_CACTVS_TPSA>
0

> <PUBCHEM_MONOISOTOPIC_WEIGHT>
252.0939

> <PUBCHEM_TOTAL_CHARGE>
0

> <PUBCHEM_HEAVY_ATOM_COUNT>
20

> <PUBCHEM_ATOM_DEF_STEREO_COUNT>
0

> <PUBCHEM_ATOM_UDEF_STEREO_COUNT>
0

> <PUBCHEM_BOND_DEF_STEREO_COUNT>
0

> <PUBCHEM_BOND_UDEF_STEREO_COUNT>
0

> <PUBCHEM_ISOTOPIC_ATOM_COUNT>
0

> <PUBCHEM_COMPONENT_COUNT>
1

> <PUBCHEM_CACTVS_TAUTO_COUNT>
1

> <PUBCHEM_COORDINATE_TYPE>
1
5
255

> <PUBCHEM_BONDANNOTATIONS>
1  2  8
1  5  8
1  6  8
10  14  8
10  18  8
11  14  8
13  17  8
15  17  8
16  19  8
18  20  8
19  20  8
2  3  8
3  11  8
3  4  8
4  7  8
4  8  8
5  13  8
5  8  8
6  15  8
7  10  8
7  16  8

$$$$

