6949
  -OEChem-06261201373D

 39 40  0     1  0  0  0  0  0999 V2000
    1.1483   -0.8261   -0.1377 C   0  0  0  0  0  0  0  0  0  0  0  0
    2.1315    1.3213   -0.0960 C   0  0  2  0  0  0  0  0  0  0  0  0
    0.9545    0.4460    0.2540 C   0  0  0  0  0  0  0  0  0  0  0  0
    0.2810   -2.0384    0.0899 C   0  0  1  0  0  0  0  0  0  0  0  0
    2.4817   -0.9869   -0.8107 C   0  0  0  0  0  0  0  0  0  0  0  0
    2.9005    0.4520   -1.0966 C   0  0  0  0  0  0  0  0  0  0  0  0
   -0.2350    1.0406    0.9470 C   0  0  0  0  0  0  0  0  0  0  0  0
   -0.6938   -1.9023    1.2771 C   0  0  0  0  0  0  0  0  0  0  0  0
   -1.8783   -0.9453    1.0928 C   0  0  0  0  0  0  0  0  0  0  0  0
   -1.5370    0.4092    0.5267 C   0  0  0  0  0  0  0  0  0  0  0  0
    2.9687    1.6710    1.1303 C   0  0  0  0  0  0  0  0  0  0  0  0
   -0.4341   -2.4614   -1.1958 C   0  0  0  0  0  0  0  0  0  0  0  0
   -2.3693    1.0299   -0.3256 C   0  0  0  0  0  0  0  0  0  0  0  0
   -3.6675    0.4145   -0.7527 C   0  0  0  0  0  0  0  0  0  0  0  0
   -2.0510    2.3761   -0.9028 C   0  0  0  0  0  0  0  0  0  0  0  0
    1.8036    2.2427   -0.5910 H   0  0  0  0  0  0  0  0  0  0  0  0
    0.9594   -2.8582    0.3662 H   0  0  0  0  0  0  0  0  0  0  0  0
    3.1891   -1.4813   -0.1361 H   0  0  0  0  0  0  0  0  0  0  0  0
    2.4177   -1.5607   -1.7398 H   0  0  0  0  0  0  0  0  0  0  0  0
    3.9865    0.5819   -1.0419 H   0  0  0  0  0  0  0  0  0  0  0  0
    2.5969    0.7192   -2.1180 H   0  0  0  0  0  0  0  0  0  0  0  0
   -0.1098    0.9180    2.0312 H   0  0  0  0  0  0  0  0  0  0  0  0
   -0.2390    2.1265    0.8077 H   0  0  0  0  0  0  0  0  0  0  0  0
   -0.1284   -1.6042    2.1709 H   0  0  0  0  0  0  0  0  0  0  0  0
   -1.0993   -2.8959    1.5126 H   0  0  0  0  0  0  0  0  0  0  0  0
   -2.3566   -0.8023    2.0701 H   0  0  0  0  0  0  0  0  0  0  0  0
   -2.6027   -1.4795    0.4696 H   0  0  0  0  0  0  0  0  0  0  0  0
    3.8468    2.2578    0.8406 H   0  0  0  0  0  0  0  0  0  0  0  0
    2.3887    2.2673    1.8430 H   0  0  0  0  0  0  0  0  0  0  0  0
    3.3214    0.7743    1.6523 H   0  0  0  0  0  0  0  0  0  0  0  0
    0.2866   -2.7357   -1.9739 H   0  0  0  0  0  0  0  0  0  0  0  0
   -1.0695   -3.3354   -1.0163 H   0  0  0  0  0  0  0  0  0  0  0  0
   -1.0632   -1.6618   -1.5998 H   0  0  0  0  0  0  0  0  0  0  0  0
   -4.3729    1.1920   -1.0687 H   0  0  0  0  0  0  0  0  0  0  0  0
   -3.5133   -0.2583   -1.6021 H   0  0  0  0  0  0  0  0  0  0  0  0
   -4.1748   -0.1221    0.0548 H   0  0  0  0  0  0  0  0  0  0  0  0
   -2.5810    2.5192   -1.8518 H   0  0  0  0  0  0  0  0  0  0  0  0
   -2.3698    3.1714   -0.2220 H   0  0  0  0  0  0  0  0  0  0  0  0
   -0.9916    2.5022   -1.1448 H   0  0  0  0  0  0  0  0  0  0  0  0
  1  3  2  0  0  0  0
  1  4  1  0  0  0  0
  1  5  1  0  0  0  0
  2  3  1  0  0  0  0
  2  6  1  0  0  0  0
  2 11  1  0  0  0  0
  2 16  1  0  0  0  0
  3  7  1  0  0  0  0
  4  8  1  0  0  0  0
  4 12  1  0  0  0  0
  4 17  1  0  0  0  0
  5  6  1  0  0  0  0
  5 18  1  0  0  0  0
  5 19  1  0  0  0  0
  6 20  1  0  0  0  0
  6 21  1  0  0  0  0
  7 10  1  0  0  0  0
  7 22  1  0  0  0  0
  7 23  1  0  0  0  0
  8  9  1  0  0  0  0
  8 24  1  0  0  0  0
  8 25  1  0  0  0  0
  9 10  1  0  0  0  0
  9 26  1  0  0  0  0
  9 27  1  0  0  0  0
 10 13  2  0  0  0  0
 11 28  1  0  0  0  0
 11 29  1  0  0  0  0
 11 30  1  0  0  0  0
 12 31  1  0  0  0  0
 12 32  1  0  0  0  0
 12 33  1  0  0  0  0
 13 14  1  0  0  0  0
 13 15  1  0  0  0  0
 14 34  1  0  0  0  0
 14 35  1  0  0  0  0
 14 36  1  0  0  0  0
 15 37  1  0  0  0  0
 15 38  1  0  0  0  0
 15 39  1  0  0  0  0
M  END
> <PUBCHEM_COMPOUND_CID>
6949

> <PUBCHEM_CONFORMER_RMSD>
0.6

> <PUBCHEM_CONFORMER_DIVERSEORDER>
6
8
11
4
1
2
9
7
3
5
10

> <PUBCHEM_MMFF94_PARTIAL_CHARGES>
11
1 -0.28
10 -0.28
13 -0.28
14 0.14
15 0.14
2 0.14
3 -0.28
4 0.14
5 0.14
7 0.28
9 0.14

> <PUBCHEM_EFFECTIVE_ROTOR_COUNT>
1.4

> <PUBCHEM_PHARMACOPHORE_FEATURES>
3
3 13 14 15 hydrophobe
5 1 2 3 5 6 rings
7 1 3 4 7 8 9 10 rings

> <PUBCHEM_HEAVY_ATOM_COUNT>
15

> <PUBCHEM_ATOM_DEF_STEREO_COUNT>
0

> <PUBCHEM_ATOM_UDEF_STEREO_COUNT>
2

> <PUBCHEM_BOND_DEF_STEREO_COUNT>
0

> <PUBCHEM_BOND_UDEF_STEREO_COUNT>
0

> <PUBCHEM_ISOTOPIC_ATOM_COUNT>
0

> <PUBCHEM_COMPONENT_COUNT>
1

> <PUBCHEM_CACTVS_TAUTO_COUNT>
1

> <PUBCHEM_CONFORMER_ID>
00001B2500000006

> <PUBCHEM_MMFF94_ENERGY>
26.8685

> <PUBCHEM_FEATURE_SELFOVERLAP>
15.244

> <PUBCHEM_SHAPE_FINGERPRINT>
1 1 18338238291986576991
12077114 3 18340211782768232864
12138202 97 18263649463589407048
12423570 1 7611130469020552152
13132413 78 16836020815379687282
13294875 104 17986120831642580738
13299463 15 18336263556545236917
13464514 151 17766272459186913132
13538477 17 17489307421754794976
14614273 12 17899416381233809038
14817 1 14932617264093327387
15490181 7 18409449163529631538
15775835 57 18409164432898866197
15852999 172 18342462546951376827
15881359 60 18121497951604079619
16945 1 18130216065031107059
17357779 13 17756717329943985615
17844478 74 18055328285145506251
18186145 218 18333730255816453025
18534176 82 17988627589357417547
20511035 2 18342738554746254714
20645476 183 17560795494428588370
21296965 12 18339630196514104511
21524375 3 18341614857893767331
21947302 44 18057606666701404381
220403 375 18341339945605999194
22802520 49 18411125944294150495
23402539 116 18128275427298421069
23493267 7 17845641582575080136
23559900 14 18262500590862594646
238 59 18053127260867886821
25 1 18123741221533691045
2748010 2 18265316353076262226
549884 4 17764027265396958413
5845 1 17177126237575477538
7364860 26 17976271440687584121
7832392 63 17393598512127865489
81228 2 17978223855410974283

> <PUBCHEM_SHAPE_MULTIPOLES>
308.69
4.62
2.58
1.29
0.27
0.65
0.07
-2.35
-0.99
0.33
-0.25
-0.03
0.16
0.95

> <PUBCHEM_SHAPE_SELFOVERLAP>
633.084

> <PUBCHEM_SHAPE_VOLUME>
175

> <PUBCHEM_COORDINATE_TYPE>
2
5
10

$$$$

