68231
  -OEChem-07051212583D

 24 25  0     1  0  0  0  0  0999 V2000
    1.5172   -1.8442   -0.1050 N   0  0  0  0  0  0  0  0  0  0  0  0
   -1.9932   -0.3483   -0.2994 C   0  0  1  0  0  0  0  0  0  0  0  0
   -2.0080    1.1653   -0.6075 C   0  0  0  0  0  0  0  0  0  0  0  0
   -0.7345    1.7655    0.0120 C   0  0  0  0  0  0  0  0  0  0  0  0
   -0.5199   -0.5961   -0.1996 C   0  0  0  0  0  0  0  0  0  0  0  0
    0.1912    0.5925   -0.0350 C   0  0  0  0  0  0  0  0  0  0  0  0
   -2.7203   -0.6862    0.9964 C   0  0  0  0  0  0  0  0  0  0  0  0
    1.5639    0.5804    0.1080 C   0  0  0  0  0  0  0  0  0  0  0  0
    0.1715   -1.7855   -0.2289 C   0  0  0  0  0  0  0  0  0  0  0  0
    2.1744   -0.6645    0.0606 C   0  0  0  0  0  0  0  0  0  0  0  0
    2.3578    1.8211    0.2983 C   0  0  0  0  0  0  0  0  0  0  0  0
   -2.4309   -0.9048   -1.1356 H   0  0  0  0  0  0  0  0  0  0  0  0
   -2.9154    1.6703   -0.2603 H   0  0  0  0  0  0  0  0  0  0  0  0
   -1.9646    1.3029   -1.6976 H   0  0  0  0  0  0  0  0  0  0  0  0
   -0.9058    2.0716    1.0491 H   0  0  0  0  0  0  0  0  0  0  0  0
   -0.3744    2.6146   -0.5756 H   0  0  0  0  0  0  0  0  0  0  0  0
   -2.3099   -0.1378    1.8517 H   0  0  0  0  0  0  0  0  0  0  0  0
   -3.7838   -0.4379    0.9158 H   0  0  0  0  0  0  0  0  0  0  0  0
   -2.6400   -1.7554    1.2215 H   0  0  0  0  0  0  0  0  0  0  0  0
   -0.3305   -2.7380   -0.3509 H   0  0  0  0  0  0  0  0  0  0  0  0
    3.2512   -0.7675    0.1589 H   0  0  0  0  0  0  0  0  0  0  0  0
    2.3118    2.4437   -0.6010 H   0  0  0  0  0  0  0  0  0  0  0  0
    1.9769    2.3942    1.1500 H   0  0  0  0  0  0  0  0  0  0  0  0
    3.4118    1.6008    0.4988 H   0  0  0  0  0  0  0  0  0  0  0  0
  1  9  2  0  0  0  0
  1 10  1  0  0  0  0
  2  3  1  0  0  0  0
  2  5  1  0  0  0  0
  2  7  1  0  0  0  0
  2 12  1  0  0  0  0
  3  4  1  0  0  0  0
  3 13  1  0  0  0  0
  3 14  1  0  0  0  0
  4  6  1  0  0  0  0
  4 15  1  0  0  0  0
  4 16  1  0  0  0  0
  5  6  2  0  0  0  0
  5  9  1  0  0  0  0
  6  8  1  0  0  0  0
  7 17  1  0  0  0  0
  7 18  1  0  0  0  0
  7 19  1  0  0  0  0
  8 10  2  0  0  0  0
  8 11  1  0  0  0  0
  9 20  1  0  0  0  0
 10 21  1  0  0  0  0
 11 22  1  0  0  0  0
 11 23  1  0  0  0  0
 11 24  1  0  0  0  0
M  END
> <PUBCHEM_COMPOUND_CID>
68231

> <PUBCHEM_CONFORMER_RMSD>
0.4

> <PUBCHEM_CONFORMER_DIVERSEORDER>
1

> <PUBCHEM_MMFF94_PARTIAL_CHARGES>
11
1 -0.62
10 0.16
11 0.14
2 0.14
20 0.15
21 0.15
4 0.14
5 -0.14
6 -0.14
8 -0.14
9 0.16

> <PUBCHEM_EFFECTIVE_ROTOR_COUNT>
0.6

> <PUBCHEM_PHARMACOPHORE_FEATURES>
3
1 1 acceptor
5 2 3 4 5 6 rings
6 1 5 6 8 9 10 rings

> <PUBCHEM_HEAVY_ATOM_COUNT>
11

> <PUBCHEM_ATOM_DEF_STEREO_COUNT>
1

> <PUBCHEM_ATOM_UDEF_STEREO_COUNT>
0

> <PUBCHEM_BOND_DEF_STEREO_COUNT>
0

> <PUBCHEM_BOND_UDEF_STEREO_COUNT>
0

> <PUBCHEM_ISOTOPIC_ATOM_COUNT>
0

> <PUBCHEM_COMPONENT_COUNT>
1

> <PUBCHEM_CACTVS_TAUTO_COUNT>
1

> <PUBCHEM_CONFORMER_ID>
00010A8700000001

> <PUBCHEM_MMFF94_ENERGY>
29.5937

> <PUBCHEM_FEATURE_SELFOVERLAP>
15.308

> <PUBCHEM_SHAPE_FINGERPRINT>
10857977 72 18059009480424647963
12423570 1 15590499639982941591
12524768 44 18411140212196600391
14648413 74 18267870655915951408
15219456 202 18342176682898047009
161256 15 18337659880150740671
16945 1 18336830899959999782
17844478 74 18272640225951500393
17990270 104 18266463285348321458
193761 8 18265897045460585372
19973954 147 18339081608852082733
21040471 1 18265620887927440452
21501502 16 18339360880805937133
23552423 10 18342176712582873662
241688 4 17039235882982457120
2748010 2 18411705399828203940
29004967 10 18342171146495136161
5084963 1 18040444295024420034
66348 1 18193842767179361172

> <PUBCHEM_SHAPE_MULTIPOLES>
221.39
3.47
2.06
0.76
0.33
0.03
0.07
-0.37
0.56
-0.66
-0.08
0.32
0
0.4

> <PUBCHEM_SHAPE_SELFOVERLAP>
472.887

> <PUBCHEM_SHAPE_VOLUME>
125.8

> <PUBCHEM_COORDINATE_TYPE>
2
5
10

$$$$

