53297380
  -OEChem-07051213112D

 21 18  0     0  0  0  0  0  0999 V2000
    5.4641    0.2500    0.0000 Mg  0  2  0  0  0  0  0  0  0  0  0  0
    6.3301    0.7500    0.0000 O   0  5  0  0  0  0  0  0  0  0  0  0
    4.5981    0.7500    0.0000 O   0  5  0  0  0  0  0  0  0  0  0  0
    3.7320   -0.7500    0.0000 O   0  0  0  0  0  0  0  0  0  0  0  0
    7.1962   -0.7500    0.0000 O   0  0  0  0  0  0  0  0  0  0  0  0
    8.0622    0.7500    0.0000 C   0  0  0  0  0  0  0  0  0  0  0  0
    2.8660    0.7500    0.0000 C   0  0  0  0  0  0  0  0  0  0  0  0
    8.9282    0.2500    0.0000 C   0  0  0  0  0  0  0  0  0  0  0  0
    2.0000    0.2500    0.0000 C   0  0  0  0  0  0  0  0  0  0  0  0
    3.7320    0.2500    0.0000 C   0  0  0  0  0  0  0  0  0  0  0  0
    7.1962    0.2500    0.0000 C   0  0  0  0  0  0  0  0  0  0  0  0
    8.4607    1.2250    0.0000 H   0  0  0  0  0  0  0  0  0  0  0  0
    7.6636    1.2250    0.0000 H   0  0  0  0  0  0  0  0  0  0  0  0
    3.2646    1.2250    0.0000 H   0  0  0  0  0  0  0  0  0  0  0  0
    2.4675    1.2250    0.0000 H   0  0  0  0  0  0  0  0  0  0  0  0
    8.6182   -0.2869    0.0000 H   0  0  0  0  0  0  0  0  0  0  0  0
    9.4651   -0.0600    0.0000 H   0  0  0  0  0  0  0  0  0  0  0  0
    9.2382    0.7869    0.0000 H   0  0  0  0  0  0  0  0  0  0  0  0
    1.6900    0.7869    0.0000 H   0  0  0  0  0  0  0  0  0  0  0  0
    1.4631   -0.0600    0.0000 H   0  0  0  0  0  0  0  0  0  0  0  0
    2.3100   -0.2869    0.0000 H   0  0  0  0  0  0  0  0  0  0  0  0
  2 11  1  0  0  0  0
  3 10  1  0  0  0  0
  4 10  2  0  0  0  0
  5 11  2  0  0  0  0
  6  8  1  0  0  0  0
  6 11  1  0  0  0  0
  6 12  1  0  0  0  0
  6 13  1  0  0  0  0
  7  9  1  0  0  0  0
  7 10  1  0  0  0  0
  7 14  1  0  0  0  0
  7 15  1  0  0  0  0
  8 16  1  0  0  0  0
  8 17  1  0  0  0  0
  8 18  1  0  0  0  0
  9 19  1  0  0  0  0
  9 20  1  0  0  0  0
  9 21  1  0  0  0  0
M  CHG  3   1   2   2  -1   3  -1
M  END
> <PUBCHEM_COMPOUND_CID>
53297380

> <PUBCHEM_COMPOUND_CANONICALIZED>
1

> <PUBCHEM_CACTVS_COMPLEXITY>
99.1

> <PUBCHEM_CACTVS_HBOND_ACCEPTOR>
4

> <PUBCHEM_CACTVS_HBOND_DONOR>
0

> <PUBCHEM_CACTVS_ROTATABLE_BOND>
4

> <PUBCHEM_CACTVS_SUBSKEYS>
AAADccBgOAAAACAAAAAAAAAAAAAAAAAAAAAAAAAAAAAAAAAAAAAAGgAAAAAACACAgAACCAAAAAAIAACQCAAAAAAAAAAAAAEAAAAAAAAAAAAAAAAAAAAAAAAAAAAAAAAAAAAAAAAAAAAAAAAAAAAAAAAAAA==

> <PUBCHEM_IUPAC_OPENEYE_NAME>
magnesium propanoate

> <PUBCHEM_IUPAC_CAS_NAME>
magnesium propanoate

> <PUBCHEM_IUPAC_NAME>
magnesium propanoate

> <PUBCHEM_IUPAC_SYSTEMATIC_NAME>
magnesium propanoate

> <PUBCHEM_IUPAC_TRADITIONAL_NAME>
magnesium propionate

> <PUBCHEM_IUPAC_INCHI>
InChI=1S/2C3H6O2.Mg/c2*1-2-3(4)5;/h2*2H2,1H3,(H,4,5);/q;;+2/p-2

> <PUBCHEM_IUPAC_INCHIKEY>
CQQJGTPWCKCEOQ-UHFFFAOYSA-L

> <PUBCHEM_EXACT_MASS>
170.04295

> <PUBCHEM_MOLECULAR_FORMULA>
C6H10MgO4

> <PUBCHEM_MOLECULAR_WEIGHT>
170.4462

> <PUBCHEM_OPENEYE_CAN_SMILES>
CCC(=O)[O-].CCC(=O)[O-].[Mg+2]

> <PUBCHEM_OPENEYE_ISO_SMILES>
CCC(=O)[O-].CCC(=O)[O-].[Mg+2]

> <PUBCHEM_CACTVS_TPSA>
80.3

> <PUBCHEM_MONOISOTOPIC_WEIGHT>
170.04295

> <PUBCHEM_TOTAL_CHARGE>
0

> <PUBCHEM_HEAVY_ATOM_COUNT>
11

> <PUBCHEM_ATOM_DEF_STEREO_COUNT>
0

> <PUBCHEM_ATOM_UDEF_STEREO_COUNT>
0

> <PUBCHEM_BOND_DEF_STEREO_COUNT>
0

> <PUBCHEM_BOND_UDEF_STEREO_COUNT>
0

> <PUBCHEM_ISOTOPIC_ATOM_COUNT>
0

> <PUBCHEM_COMPONENT_COUNT>
3

> <PUBCHEM_CACTVS_TAUTO_COUNT>
1

> <PUBCHEM_NONSTANDARDBOND>
1  2  7
1  3  7

> <PUBCHEM_COORDINATE_TYPE>
1
5
255

$$$$

