10520
  -OEChem-06261204382D

 57 58  0     0  0  0  0  0  0999 V2000
    2.3100    0.0000    0.0000 O   0  0  0  0  0  0  0  0  0  0  0  0
    4.8100    0.8660    0.0000 O   0  0  0  0  0  0  0  0  0  0  0  0
    7.7215    0.6015    0.0000 N   0  3  0  0  0  0  0  0  0  0  0  0
    5.2497   -0.3420    0.0000 N   0  0  0  0  0  0  0  0  0  0  0  0
    6.9554   -0.0413    0.0000 C   0  0  0  0  0  0  0  0  0  0  0  0
    8.4875    1.2443    0.0000 C   0  0  0  0  0  0  0  0  0  0  0  0
    8.3643   -0.1645    0.0000 C   0  0  0  0  0  0  0  0  0  0  0  0
    7.0787    1.3676    0.0000 C   0  0  0  0  0  0  0  0  0  0  0  0
    6.0157    0.3008    0.0000 C   0  0  0  0  0  0  0  0  0  0  0  0
    9.4272    0.9023    0.0000 C   0  0  0  0  0  0  0  0  0  0  0  0
    8.0222   -1.1042    0.0000 C   0  0  0  0  0  0  0  0  0  0  0  0
    3.3100    0.0000    0.0000 C   0  0  0  0  0  0  0  0  0  0  0  0
    4.3100    0.0000    0.0000 C   0  0  0  0  0  0  0  0  0  0  0  0
    5.4234   -1.3268    0.0000 C   0  0  0  0  0  0  0  0  0  0  0  0
    3.3100   -1.0000    0.0000 C   0  0  0  0  0  0  0  0  0  0  0  0
    3.3100    1.0000    0.0000 C   0  0  0  0  0  0  0  0  0  0  0  0
    2.4440   -1.5000    0.0000 C   0  0  0  0  0  0  0  0  0  0  0  0
    4.1760    1.5000    0.0000 C   0  0  0  0  0  0  0  0  0  0  0  0
    4.1760   -1.5000    0.0000 C   0  0  0  0  0  0  0  0  0  0  0  0
    2.4440    1.5000    0.0000 C   0  0  0  0  0  0  0  0  0  0  0  0
    2.4440   -2.5000    0.0000 C   0  0  0  0  0  0  0  0  0  0  0  0
    4.1760    2.5000    0.0000 C   0  0  0  0  0  0  0  0  0  0  0  0
    4.1760   -2.5000    0.0000 C   0  0  0  0  0  0  0  0  0  0  0  0
    2.4440    2.5000    0.0000 C   0  0  0  0  0  0  0  0  0  0  0  0
    3.3100   -3.0000    0.0000 C   0  0  0  0  0  0  0  0  0  0  0  0
    3.3100    3.0000    0.0000 C   0  0  0  0  0  0  0  0  0  0  0  0
    6.6454   -0.5782    0.0000 H   0  0  0  0  0  0  0  0  0  0  0  0
    7.4304   -0.4398    0.0000 H   0  0  0  0  0  0  0  0  0  0  0  0
    8.9012   -0.4745    0.0000 H   0  0  0  0  0  0  0  0  0  0  0  0
    8.7628    0.3104    0.0000 H   0  0  0  0  0  0  0  0  0  0  0  0
    8.7975    1.7813    0.0000 H   0  0  0  0  0  0  0  0  0  0  0  0
    8.0126    1.6428    0.0000 H   0  0  0  0  0  0  0  0  0  0  0  0
    7.5536    1.7661    0.0000 H   0  0  0  0  0  0  0  0  0  0  0  0
    6.6802    1.8425    0.0000 H   0  0  0  0  0  0  0  0  0  0  0  0
    6.6037    0.9691    0.0000 H   0  0  0  0  0  0  0  0  0  0  0  0
    6.3257    0.8377    0.0000 H   0  0  0  0  0  0  0  0  0  0  0  0
    5.5408    0.6993    0.0000 H   0  0  0  0  0  0  0  0  0  0  0  0
    9.2152    0.3197    0.0000 H   0  0  0  0  0  0  0  0  0  0  0  0
    7.4396   -0.8922    0.0000 H   0  0  0  0  0  0  0  0  0  0  0  0
    7.8102   -1.6868    0.0000 H   0  0  0  0  0  0  0  0  0  0  0  0
    8.6049   -1.3162    0.0000 H   0  0  0  0  0  0  0  0  0  0  0  0
   10.0098    0.6902    0.0000 H   0  0  0  0  0  0  0  0  0  0  0  0
    9.6393    1.4849    0.0000 H   0  0  0  0  0  0  0  0  0  0  0  0
    4.8128   -1.4345    0.0000 H   0  0  0  0  0  0  0  0  0  0  0  0
    5.5311   -1.9373    0.0000 H   0  0  0  0  0  0  0  0  0  0  0  0
    6.0340   -1.2190    0.0000 H   0  0  0  0  0  0  0  0  0  0  0  0
    2.0000    0.5369    0.0000 H   0  0  0  0  0  0  0  0  0  0  0  0
    4.7130    1.1900    0.0000 H   0  0  0  0  0  0  0  0  0  0  0  0
    1.9070   -1.1900    0.0000 H   0  0  0  0  0  0  0  0  0  0  0  0
    1.9070    1.1900    0.0000 H   0  0  0  0  0  0  0  0  0  0  0  0
    4.7130   -1.1900    0.0000 H   0  0  0  0  0  0  0  0  0  0  0  0
    1.9070   -2.8100    0.0000 H   0  0  0  0  0  0  0  0  0  0  0  0
    4.7130    2.8100    0.0000 H   0  0  0  0  0  0  0  0  0  0  0  0
    4.7130   -2.8100    0.0000 H   0  0  0  0  0  0  0  0  0  0  0  0
    1.9070    2.8100    0.0000 H   0  0  0  0  0  0  0  0  0  0  0  0
    3.3100   -3.6200    0.0000 H   0  0  0  0  0  0  0  0  0  0  0  0
    3.3100    3.6200    0.0000 H   0  0  0  0  0  0  0  0  0  0  0  0
  1 12  1  0  0  0  0
  1 47  1  0  0  0  0
  2 13  2  0  0  0  0
  3  5  1  0  0  0  0
  3  6  1  0  0  0  0
  3  7  1  0  0  0  0
  3  8  1  0  0  0  0
  4  9  1  0  0  0  0
  4 13  1  0  0  0  0
  4 14  1  0  0  0  0
  5  9  1  0  0  0  0
  5 27  1  0  0  0  0
  5 28  1  0  0  0  0
  6 10  1  0  0  0  0
  6 31  1  0  0  0  0
  6 32  1  0  0  0  0
  7 11  1  0  0  0  0
  7 29  1  0  0  0  0
  7 30  1  0  0  0  0
  8 33  1  0  0  0  0
  8 34  1  0  0  0  0
  8 35  1  0  0  0  0
  9 36  1  0  0  0  0
  9 37  1  0  0  0  0
 10 38  1  0  0  0  0
 10 42  1  0  0  0  0
 10 43  1  0  0  0  0
 11 39  1  0  0  0  0
 11 40  1  0  0  0  0
 11 41  1  0  0  0  0
 12 13  1  0  0  0  0
 12 15  1  0  0  0  0
 12 16  1  0  0  0  0
 14 44  1  0  0  0  0
 14 45  1  0  0  0  0
 14 46  1  0  0  0  0
 15 17  2  0  0  0  0
 15 19  1  0  0  0  0
 16 18  2  0  0  0  0
 16 20  1  0  0  0  0
 17 21  1  0  0  0  0
 17 49  1  0  0  0  0
 18 22  1  0  0  0  0
 18 48  1  0  0  0  0
 19 23  2  0  0  0  0
 19 51  1  0  0  0  0
 20 24  2  0  0  0  0
 20 50  1  0  0  0  0
 21 25  2  0  0  0  0
 21 52  1  0  0  0  0
 22 26  2  0  0  0  0
 22 53  1  0  0  0  0
 23 25  1  0  0  0  0
 23 54  1  0  0  0  0
 24 26  1  0  0  0  0
 24 55  1  0  0  0  0
 25 56  1  0  0  0  0
 26 57  1  0  0  0  0
M  CHG  1   3   1
M  END
> <PUBCHEM_COMPOUND_CID>
10520

> <PUBCHEM_COMPOUND_CANONICALIZED>
1

> <PUBCHEM_CACTVS_COMPLEXITY>
417

> <PUBCHEM_CACTVS_HBOND_ACCEPTOR>
2

> <PUBCHEM_CACTVS_HBOND_DONOR>
1

> <PUBCHEM_CACTVS_ROTATABLE_BOND>
8

> <PUBCHEM_CACTVS_SUBSKEYS>
AAADceB7MAAAAAAAAAAAAAAAAAAAAAAAAAAwYAAAAAAAAAABQAAAHgAACAAADETBmAQyAIMAAgCIAiFSEAICAAAgAAAIiAFICIgKZjKAlRGUcAAkxgGYmAeYyOCOgAAAAAAAAAAAAAAAAAAAAAAAAAAAAA==

> <PUBCHEM_IUPAC_OPENEYE_NAME>
diethyl-[2-[(2-hydroxy-2,2-diphenyl-acetyl)-methyl-amino]ethyl]-methyl-ammonium

> <PUBCHEM_IUPAC_CAS_NAME>
diethyl-[2-[(2-hydroxy-1-oxo-2,2-diphenylethyl)-methylamino]ethyl]-methylammonium

> <PUBCHEM_IUPAC_NAME>
diethyl-[2-[(2-hydroxy-2,2-diphenylacetyl)-methylamino]ethyl]-methylazanium

> <PUBCHEM_IUPAC_SYSTEMATIC_NAME>
diethyl-methyl-[2-[methyl-(2-oxidanyl-2,2-diphenyl-ethanoyl)amino]ethyl]azanium

> <PUBCHEM_IUPAC_TRADITIONAL_NAME>
2-[benziloyl(methyl)amino]ethyl-diethyl-methyl-ammonium

> <PUBCHEM_IUPAC_INCHI>
InChI=1S/C22H31N2O2/c1-5-24(4,6-2)18-17-23(3)21(25)22(26,19-13-9-7-10-14-19)20-15-11-8-12-16-20/h7-16,26H,5-6,17-18H2,1-4H3/q+1

> <PUBCHEM_IUPAC_INCHIKEY>
XCEPXSCPQIRLCL-UHFFFAOYSA-N

> <PUBCHEM_XLOGP3_AA>
3

> <PUBCHEM_EXACT_MASS>
355.238553

> <PUBCHEM_MOLECULAR_FORMULA>
C22H31N2O2+

> <PUBCHEM_MOLECULAR_WEIGHT>
355.49374

> <PUBCHEM_OPENEYE_CAN_SMILES>
CC[N+](C)(CC)CCN(C)C(=O)C(C1=CC=CC=C1)(C2=CC=CC=C2)O

> <PUBCHEM_OPENEYE_ISO_SMILES>
CC[N+](C)(CC)CCN(C)C(=O)C(C1=CC=CC=C1)(C2=CC=CC=C2)O

> <PUBCHEM_CACTVS_TPSA>
40.5

> <PUBCHEM_MONOISOTOPIC_WEIGHT>
355.238553

> <PUBCHEM_TOTAL_CHARGE>
1

> <PUBCHEM_HEAVY_ATOM_COUNT>
26

> <PUBCHEM_ATOM_DEF_STEREO_COUNT>
0

> <PUBCHEM_ATOM_UDEF_STEREO_COUNT>
0

> <PUBCHEM_BOND_DEF_STEREO_COUNT>
0

> <PUBCHEM_BOND_UDEF_STEREO_COUNT>
0

> <PUBCHEM_ISOTOPIC_ATOM_COUNT>
0

> <PUBCHEM_COMPONENT_COUNT>
1

> <PUBCHEM_CACTVS_TAUTO_COUNT>
1

> <PUBCHEM_COORDINATE_TYPE>
1
5
255

> <PUBCHEM_BONDANNOTATIONS>
15  17  8
15  19  8
16  18  8
16  20  8
17  21  8
18  22  8
19  23  8
20  24  8
21  25  8
22  26  8
23  25  8
24  26  8

$$$$

