585125
  -OEChem-06241222453D

 40 41  0     1  0  0  0  0  0999 V2000
   -4.5014   -2.0954    0.1159 O   0  0  0  0  0  0  0  0  0  0  0  0
    4.8840   -1.6329    0.2933 O   0  0  0  0  0  0  0  0  0  0  0  0
   -0.5372    1.8876    0.6174 C   0  0  1  0  0  0  0  0  0  0  0  0
   -1.6091    0.8111    0.4821 C   0  0  0  0  0  0  0  0  0  0  0  0
    0.5096    1.7782   -0.5100 C   0  0  0  0  0  0  0  0  0  0  0  0
   -1.2012    3.2632    0.8040 C   0  0  0  0  0  0  0  0  0  0  0  0
    1.6446    0.8931   -0.3010 C   0  0  0  0  0  0  0  0  0  0  0  0
   -1.7296   -0.1342    1.4775 C   0  0  0  0  0  0  0  0  0  0  0  0
   -2.4206    0.8198   -0.6319 C   0  0  0  0  0  0  0  0  0  0  0  0
    2.7994    1.3734    0.3165 C   0  0  0  0  0  0  0  0  0  0  0  0
    1.5783   -0.4361   -0.7188 C   0  0  0  0  0  0  0  0  0  0  0  0
    0.4336    2.4894   -1.6646 C   0  0  0  0  0  0  0  0  0  0  0  0
   -2.7095   -1.1191    1.3529 C   0  0  0  0  0  0  0  0  0  0  0  0
   -3.4004   -0.1650   -0.7564 C   0  0  0  0  0  0  0  0  0  0  0  0
   -3.5449   -1.1345    0.2360 C   0  0  0  0  0  0  0  0  0  0  0  0
    3.8880    0.5243    0.5162 C   0  0  0  0  0  0  0  0  0  0  0  0
    2.6669   -1.2851   -0.5189 C   0  0  0  0  0  0  0  0  0  0  0  0
    3.8218   -0.8049    0.0985 C   0  0  0  0  0  0  0  0  0  0  0  0
   -5.3214   -2.0530   -1.0510 C   0  0  0  0  0  0  0  0  0  0  0  0
    4.7490   -2.9799   -0.1578 C   0  0  0  0  0  0  0  0  0  0  0  0
    0.0067    1.7164    1.5589 H   0  0  0  0  0  0  0  0  0  0  0  0
   -1.8260    3.5524   -0.0477 H   0  0  0  0  0  0  0  0  0  0  0  0
   -0.4410    4.0405    0.9402 H   0  0  0  0  0  0  0  0  0  0  0  0
   -1.8426    3.2654    1.6931 H   0  0  0  0  0  0  0  0  0  0  0  0
   -1.0845   -0.1325    2.3507 H   0  0  0  0  0  0  0  0  0  0  0  0
   -2.3297    1.5687   -1.4116 H   0  0  0  0  0  0  0  0  0  0  0  0
    2.8664    2.4066    0.6489 H   0  0  0  0  0  0  0  0  0  0  0  0
    0.6860   -0.8258   -1.2031 H   0  0  0  0  0  0  0  0  0  0  0  0
   -0.3863    3.1698   -1.8639 H   0  0  0  0  0  0  0  0  0  0  0  0
    1.1932    2.3997   -2.4356 H   0  0  0  0  0  0  0  0  0  0  0  0
   -2.8172   -1.8718    2.1292 H   0  0  0  0  0  0  0  0  0  0  0  0
   -4.0161   -0.1177   -1.6481 H   0  0  0  0  0  0  0  0  0  0  0  0
    4.7849    0.9039    0.9981 H   0  0  0  0  0  0  0  0  0  0  0  0
    2.5482   -2.3052   -0.8678 H   0  0  0  0  0  0  0  0  0  0  0  0
   -5.9180   -1.1353   -1.0903 H   0  0  0  0  0  0  0  0  0  0  0  0
   -6.0250   -2.8891   -0.9823 H   0  0  0  0  0  0  0  0  0  0  0  0
   -4.7326   -2.2046   -1.9621 H   0  0  0  0  0  0  0  0  0  0  0  0
    4.6211   -3.0293   -1.2445 H   0  0  0  0  0  0  0  0  0  0  0  0
    3.9517   -3.5057    0.3783 H   0  0  0  0  0  0  0  0  0  0  0  0
    5.6861   -3.4949    0.0775 H   0  0  0  0  0  0  0  0  0  0  0  0
  1 15  1  0  0  0  0
  1 19  1  0  0  0  0
  2 18  1  0  0  0  0
  2 20  1  0  0  0  0
  3  4  1  0  0  0  0
  3  5  1  0  0  0  0
  3  6  1  0  0  0  0
  3 21  1  0  0  0  0
  4  8  2  0  0  0  0
  4  9  1  0  0  0  0
  5  7  1  0  0  0  0
  5 12  2  0  0  0  0
  6 22  1  0  0  0  0
  6 23  1  0  0  0  0
  6 24  1  0  0  0  0
  7 10  2  0  0  0  0
  7 11  1  0  0  0  0
  8 13  1  0  0  0  0
  8 25  1  0  0  0  0
  9 14  2  0  0  0  0
  9 26  1  0  0  0  0
 10 16  1  0  0  0  0
 10 27  1  0  0  0  0
 11 17  2  0  0  0  0
 11 28  1  0  0  0  0
 12 29  1  0  0  0  0
 12 30  1  0  0  0  0
 13 15  2  0  0  0  0
 13 31  1  0  0  0  0
 14 15  1  0  0  0  0
 14 32  1  0  0  0  0
 16 18  2  0  0  0  0
 16 33  1  0  0  0  0
 17 18  1  0  0  0  0
 17 34  1  0  0  0  0
 19 35  1  0  0  0  0
 19 36  1  0  0  0  0
 19 37  1  0  0  0  0
 20 38  1  0  0  0  0
 20 39  1  0  0  0  0
 20 40  1  0  0  0  0
M  END
> <PUBCHEM_COMPOUND_CID>
585125

> <PUBCHEM_CONFORMER_RMSD>
0.8

> <PUBCHEM_CONFORMER_DIVERSEORDER>
1
7
8
19
18
4
3
11
6
2
14
13
12
17
15
16
9
5
20
10

> <PUBCHEM_MMFF94_PARTIAL_CHARGES>
29
1 -0.36
10 -0.15
11 -0.15
12 -0.3
13 -0.15
14 -0.15
15 0.08
16 -0.15
17 -0.15
18 0.08
19 0.28
2 -0.36
20 0.28
25 0.15
26 0.15
27 0.15
28 0.15
29 0.15
3 0.28
30 0.15
31 0.15
32 0.15
33 0.15
34 0.15
4 -0.14
5 -0.17
7 0.03
8 -0.15
9 -0.15

> <PUBCHEM_EFFECTIVE_ROTOR_COUNT>
5

> <PUBCHEM_PHARMACOPHORE_FEATURES>
6
1 1 acceptor
1 12 hydrophobe
1 2 acceptor
1 6 hydrophobe
6 4 8 9 13 14 15 rings
6 7 10 11 16 17 18 rings

> <PUBCHEM_HEAVY_ATOM_COUNT>
20

> <PUBCHEM_ATOM_DEF_STEREO_COUNT>
0

> <PUBCHEM_ATOM_UDEF_STEREO_COUNT>
1

> <PUBCHEM_BOND_DEF_STEREO_COUNT>
0

> <PUBCHEM_BOND_UDEF_STEREO_COUNT>
0

> <PUBCHEM_ISOTOPIC_ATOM_COUNT>
0

> <PUBCHEM_COMPONENT_COUNT>
1

> <PUBCHEM_CACTVS_TAUTO_COUNT>
1

> <PUBCHEM_CONFORMER_ID>
0008EDA500000001

> <PUBCHEM_MMFF94_ENERGY>
79.5489

> <PUBCHEM_FEATURE_SELFOVERLAP>
30.446

> <PUBCHEM_SHAPE_FINGERPRINT>
10447042 23 18261963942080910559
11552529 35 18117277175900114074
11578080 2 17458639882462834209
11796584 16 17703239403677447267
12363563 72 18342166765444001166
12553582 1 18194375867204936425
12633257 1 17897150532640193008
13004483 165 18260556623279715151
13083527 12 18336831892409136148
13544653 18 18410571764658887209
13583140 156 16009609017216583170
13911987 19 17623551074178433484
13955234 65 17685212769122552737
14123255 52 9295291629324909227
14251764 38 9869449974891213366
14341114 328 15285640936956763203
14429115 67 18187641397134622711
14866123 147 18193273225057841337
15342168 16 9583527516368230275
15352361 1 18411419509609476895
15475509 35 17608089759381097219
17492 89 18408324414774504350
17834072 14 18343305842289532384
19141452 34 18194395825770794072
200 152 18335703815006121775
20028762 73 18113904849058164734
20261772 1 17894634721176402910
20281475 54 18269264820149820356
20645477 70 17986392179276018873
20681677 274 18262242217813602232
21069387 34 18343299245462202949
21250096 35 18335421219053412001
21452121 199 18340207388489707529
22620623 9 17417264254406773285
23403322 49 18341332270520592051
23526113 38 18129666279532652561
23559900 14 18338244855161212304
25 1 9367350323270357196
2637199 183 10231491721349020945
27216 239 7781501621179364661
3286 77 17967535675092416920
439807 62 17829059719670568767
46194498 28 17558841594010751975
463206 1 18338237038257689683
5104073 3 18114749347281113904
5161694 15 17131275649615268431
5207 123 18343024384898691199
5924683 9 18262520423892581874
6442390 28 6988320572937646141
76465 3 18408888442521734082
7970288 3 18408606941797176319
9709674 26 18272649004722248145

> <PUBCHEM_SHAPE_MULTIPOLES>
399.85
9.74
3.23
1.21
0.74
0.48
-0.02
-10.58
-0.62
0.38
-0.23
-0.74
0.27
-0.37

> <PUBCHEM_SHAPE_SELFOVERLAP>
846.784

> <PUBCHEM_SHAPE_VOLUME>
226

> <PUBCHEM_COORDINATE_TYPE>
2
5
10

$$$$

