711
  -OEChem-07051212463D

 54 56  0     1  0  0  0  0  0999 V2000
    5.6699   -0.0182    1.6183 P   0  0  0  0  0  0  0  0  0  0  0  0
    0.4897    1.9920    0.1433 O   0  0  0  0  0  0  0  0  0  0  0  0
    2.3800    0.5670   -2.6595 O   0  0  0  0  0  0  0  0  0  0  0  0
    4.3041    2.3414   -1.7194 O   0  0  0  0  0  0  0  0  0  0  0  0
    4.9284    1.0853    0.7003 O   0  0  0  0  0  0  0  0  0  0  0  0
   -5.3196    0.7641    1.9351 O   0  0  0  0  0  0  0  0  0  0  0  0
   -3.4263    4.4392   -0.0783 O   0  0  0  0  0  0  0  0  0  0  0  0
    5.9848   -1.2263    0.5905 O   0  0  0  0  0  0  0  0  0  0  0  0
    4.4601   -0.6019    2.5188 O   0  0  0  0  0  0  0  0  0  0  0  0
    6.8504    0.4881    2.3943 O   0  0  0  0  0  0  0  0  0  0  0  0
   -1.4529    0.1664   -0.7934 N   0  0  0  0  0  0  0  0  0  0  0  0
   -3.4308   -0.9134    0.8394 N   0  0  0  0  0  0  0  0  0  0  0  0
   -2.4935    2.3686   -0.4083 N   0  0  0  0  0  0  0  0  0  0  0  0
   -4.3872    2.6153    0.9370 N   0  0  0  0  0  0  0  0  0  0  0  0
    0.8552    1.0053   -0.8225 C   0  0  1  0  0  0  0  0  0  0  0  0
   -0.3817    0.6611   -1.6607 C   0  0  0  0  0  0  0  0  0  0  0  0
    2.0221    1.5384   -1.6775 C   0  0  1  0  0  0  0  0  0  0  0  0
   -1.4619   -1.2469   -0.5481 C   0  0  0  0  0  0  0  0  0  0  0  0
   -2.4456    0.9986   -0.2089 C   0  0  0  0  0  0  0  0  0  0  0  0
    3.2720    1.8809   -0.8448 C   0  0  1  0  0  0  0  0  0  0  0  0
   -2.4778   -1.7830    0.2877 C   0  0  0  0  0  0  0  0  0  0  0  0
   -3.3930    0.4353    0.5815 C   0  0  0  0  0  0  0  0  0  0  0  0
   -0.5215   -2.1428   -1.0871 C   0  0  0  0  0  0  0  0  0  0  0  0
    3.7990    0.6771   -0.0652 C   0  0  0  0  0  0  0  0  0  0  0  0
   -2.5327   -3.1564    0.5607 C   0  0  0  0  0  0  0  0  0  0  0  0
   -0.5852   -3.5119   -0.8087 C   0  0  0  0  0  0  0  0  0  0  0  0
   -1.5874   -4.0176    0.0126 C   0  0  0  0  0  0  0  0  0  0  0  0
   -4.4560    1.2640    1.2184 C   0  0  0  0  0  0  0  0  0  0  0  0
   -3.4340    3.2257    0.1341 C   0  0  0  0  0  0  0  0  0  0  0  0
    0.4400   -4.4186   -1.4096 C   0  0  0  0  0  0  0  0  0  0  0  0
   -1.6685   -5.4767    0.3202 C   0  0  0  0  0  0  0  0  0  0  0  0
    1.1663    0.1040   -0.2859 H   0  0  0  0  0  0  0  0  0  0  0  0
   -0.7206    1.5703   -2.1726 H   0  0  0  0  0  0  0  0  0  0  0  0
   -0.1580   -0.0148   -2.4922 H   0  0  0  0  0  0  0  0  0  0  0  0
    1.7060    2.4405   -2.2160 H   0  0  0  0  0  0  0  0  0  0  0  0
    3.0529    2.7037   -0.1545 H   0  0  0  0  0  0  0  0  0  0  0  0
   -4.1606   -1.2797    1.4361 H   0  0  0  0  0  0  0  0  0  0  0  0
    0.2936   -1.8031   -1.7176 H   0  0  0  0  0  0  0  0  0  0  0  0
    3.0484    0.2859    0.6238 H   0  0  0  0  0  0  0  0  0  0  0  0
    4.1151   -0.1157   -0.7503 H   0  0  0  0  0  0  0  0  0  0  0  0
   -3.3201   -3.5431    1.2041 H   0  0  0  0  0  0  0  0  0  0  0  0
   -1.7740    2.7840   -0.9895 H   0  0  0  0  0  0  0  0  0  0  0  0
   -0.0753    1.5577    0.8043 H   0  0  0  0  0  0  0  0  0  0  0  0
    3.1162    0.9340   -3.1783 H   0  0  0  0  0  0  0  0  0  0  0  0
    5.0829    2.5396   -1.1716 H   0  0  0  0  0  0  0  0  0  0  0  0
   -5.0951    3.2136    1.3532 H   0  0  0  0  0  0  0  0  0  0  0  0
    1.1573   -3.8704   -2.0304 H   0  0  0  0  0  0  0  0  0  0  0  0
    1.0137   -4.9241   -0.6261 H   0  0  0  0  0  0  0  0  0  0  0  0
   -0.0361   -5.1660   -2.0527 H   0  0  0  0  0  0  0  0  0  0  0  0
   -2.5128   -5.7064    0.9796 H   0  0  0  0  0  0  0  0  0  0  0  0
   -1.8092   -6.0574   -0.5973 H   0  0  0  0  0  0  0  0  0  0  0  0
   -0.7605   -5.8148    0.8299 H   0  0  0  0  0  0  0  0  0  0  0  0
    6.4951   -2.0006    0.9103 H   0  0  0  0  0  0  0  0  0  0  0  0
    4.6668   -1.2373    3.2369 H   0  0  0  0  0  0  0  0  0  0  0  0
  1  5  1  0  0  0  0
  1  8  1  0  0  0  0
  1  9  1  0  0  0  0
  1 10  2  0  0  0  0
  2 15  1  0  0  0  0
  2 43  1  0  0  0  0
  3 17  1  0  0  0  0
  3 44  1  0  0  0  0
  4 20  1  0  0  0  0
  4 45  1  0  0  0  0
  5 24  1  0  0  0  0
  6 28  2  0  0  0  0
  7 29  2  0  0  0  0
  8 53  1  0  0  0  0
  9 54  1  0  0  0  0
 11 16  1  0  0  0  0
 11 18  1  0  0  0  0
 11 19  1  0  0  0  0
 12 21  1  0  0  0  0
 12 22  1  0  0  0  0
 12 37  1  0  0  0  0
 13 19  1  0  0  0  0
 13 29  1  0  0  0  0
 13 42  1  0  0  0  0
 14 28  1  0  0  0  0
 14 29  1  0  0  0  0
 14 46  1  0  0  0  0
 15 16  1  0  0  0  0
 15 17  1  0  0  0  0
 15 32  1  0  0  0  0
 16 33  1  0  0  0  0
 16 34  1  0  0  0  0
 17 20  1  0  0  0  0
 17 35  1  0  0  0  0
 18 21  2  0  0  0  0
 18 23  1  0  0  0  0
 19 22  2  0  0  0  0
 20 24  1  0  0  0  0
 20 36  1  0  0  0  0
 21 25  1  0  0  0  0
 22 28  1  0  0  0  0
 23 26  2  0  0  0  0
 23 38  1  0  0  0  0
 24 39  1  0  0  0  0
 24 40  1  0  0  0  0
 25 27  2  0  0  0  0
 25 41  1  0  0  0  0
 26 27  1  0  0  0  0
 26 30  1  0  0  0  0
 27 31  1  0  0  0  0
 30 47  1  0  0  0  0
 30 48  1  0  0  0  0
 30 49  1  0  0  0  0
 31 50  1  0  0  0  0
 31 51  1  0  0  0  0
 31 52  1  0  0  0  0
M  END
> <PUBCHEM_COMPOUND_CID>
711

> <PUBCHEM_CONFORMER_RMSD>
1

> <PUBCHEM_CONFORMER_DIVERSEORDER>
1
48
44
50
74
80
61
68
23
59
60
14
62
83
66
20
55
65
37
5
13
69
38
84
42
81
35
47
71
76
9
26
73
11
27
19
15
10
79
29
17
40
64
43
28
72
75
39
77
78
25
6
32
56
49
8
33
82
57
46
41
2
45
52
70
18
63
34
54
7
31
53
58
12
21
4
24
3
51
22
67
36
16
30

> <PUBCHEM_MMFF94_PARTIAL_CHARGES>
41
1 1.51
10 -0.7
11 -0.57
12 -0.6
13 -0.54
14 -0.49
15 0.28
16 0.37
17 0.28
18 0.1
19 0.21
2 -0.68
20 0.28
21 0.1
22 0.11
23 -0.15
24 0.28
25 -0.15
26 -0.14
27 -0.14
28 0.62
29 0.69
3 -0.68
30 0.14
31 0.14
37 0.4
38 0.15
4 -0.68
41 0.15
42 0.37
43 0.4
44 0.4
45 0.4
46 0.37
5 -0.55
53 0.5
54 0.5
6 -0.57
7 -0.57
8 -0.77
9 -0.77

> <PUBCHEM_EFFECTIVE_ROTOR_COUNT>
7.4

> <PUBCHEM_PHARMACOPHORE_FEATURES>
20
1 10 acceptor
1 11 cation
1 12 cation
1 12 donor
1 13 donor
1 14 donor
1 2 acceptor
1 2 donor
1 3 acceptor
1 3 donor
1 4 acceptor
1 4 donor
1 6 acceptor
1 7 acceptor
1 8 acceptor
1 9 acceptor
4 1 8 9 10 anion
6 11 12 18 19 21 22 rings
6 13 14 19 22 28 29 rings
6 18 21 23 25 26 27 rings

> <PUBCHEM_HEAVY_ATOM_COUNT>
31

> <PUBCHEM_ATOM_DEF_STEREO_COUNT>
0

> <PUBCHEM_ATOM_UDEF_STEREO_COUNT>
3

> <PUBCHEM_BOND_DEF_STEREO_COUNT>
0

> <PUBCHEM_BOND_UDEF_STEREO_COUNT>
0

> <PUBCHEM_ISOTOPIC_ATOM_COUNT>
0

> <PUBCHEM_COMPONENT_COUNT>
1

> <PUBCHEM_CACTVS_TAUTO_COUNT>
13

> <PUBCHEM_CONFORMER_ID>
000002C700000001

> <PUBCHEM_MMFF94_ENERGY>
62.5317

> <PUBCHEM_FEATURE_SELFOVERLAP>
101.632

> <PUBCHEM_SHAPE_FINGERPRINT>
10074138 170 18336830767222371219
10305334 12 17489309741248073833
10319926 262 18261668199956052476
10928967 22 17560257898443004642
11049842 53 18053354842505212204
11582403 64 17531820163228163389
12422481 6 18129100198558205880
12633257 1 18335416833728870180
12788726 201 17836069092488766526
12925494 130 17834102423017575081
13004483 165 17831578678590446591
13140716 1 17760350107866772047
13726171 33 17828455022022917872
138480 1 17476338978774568159
15064986 96 18124038098384425619
15230672 131 18196910336904155294
15250474 111 18199752440942857254
15320294 125 18201164329673566936
15475509 8 11023830544623217595
15537594 2 17703517679388637082
15842332 3 17843672279945935044
16110190 28 18270971245322591634
16728300 4 17846222197839870553
16994733 274 15792003528850093315
17818456 19 18341330011694725092
19246450 95 18124895700749352048
19319366 153 16618679819567899911
20554085 129 18113901602346880873
21033648 29 18261949760236769832
212916 134 18259697908772044685
229767 44 18340773731846509696
23559900 14 17765135564865269853
255183 451 10446481399609941817
3117164 225 18411422826015092040
3886686 26 18338795723340377626
5171179 24 16971124445031056293
6371380 46 18118684555448036294
6679774 75 17915437571263373074
7064713 232 18408608041751110058
79837 15 18410284813968256315
9981440 41 18339918337955428609

> <PUBCHEM_SHAPE_MULTIPOLES>
569.07
11.61
6.06
1.93
19.07
6.48
-0.19
-6.62
-9.1
-7.36
0.87
2.6
-0.26
-1.55

> <PUBCHEM_SHAPE_SELFOVERLAP>
1194.697

> <PUBCHEM_SHAPE_VOLUME>
322

> <PUBCHEM_COORDINATE_TYPE>
2
5
10

$$$$

