11954074
  -OEChem-07051213063D

 42 41  0     1  0  0  0  0  0999 V2000
    1.6786    1.7219    0.0641 S   0  0  0  0  0  0  0  0  0  0  0  0
   -1.7445   -0.8730   -2.1457 O   0  0  0  0  0  0  0  0  0  0  0  0
    1.5934   -1.9207    1.0932 O   0  0  0  0  0  0  0  0  0  0  0  0
   -4.7346    0.4198    2.2625 O   0  0  0  0  0  0  0  0  0  0  0  0
   -5.9102    1.5858    0.7134 O   0  0  0  0  0  0  0  0  0  0  0  0
    4.6802   -0.1724    0.6792 O   0  0  0  0  0  0  0  0  0  0  0  0
    6.0883   -1.8297    1.3266 O   0  0  0  0  0  0  0  0  0  0  0  0
    3.5570    4.8502    0.1321 O   0  0  0  0  0  0  0  0  0  0  0  0
   -0.4084   -0.7313   -0.2510 N   0  0  0  0  0  0  0  0  0  0  0  0
    3.0822   -1.7321   -0.6761 N   0  0  0  0  0  0  0  0  0  0  0  0
   -6.5830   -0.7918   -0.5080 N   0  0  0  0  0  0  0  0  0  0  0  0
    0.8684   -0.7840   -0.9246 C   0  0  1  0  0  0  0  0  0  0  0  0
   -4.1421   -0.7502   -0.6983 C   0  0  0  0  0  0  0  0  0  0  0  0
   -2.7965   -0.6971    0.0280 C   0  0  0  0  0  0  0  0  0  0  0  0
   -5.3373   -0.7397    0.2612 C   0  0  1  0  0  0  0  0  0  0  0  0
    1.3656    0.6027   -1.3401 C   0  0  0  0  0  0  0  0  0  0  0  0
   -1.6184   -0.7809   -0.9277 C   0  0  0  0  0  0  0  0  0  0  0  0
    1.8597   -1.5450   -0.0467 C   0  0  0  0  0  0  0  0  0  0  0  0
   -5.3810    0.5417    1.0738 C   0  0  0  0  0  0  0  0  0  0  0  0
    4.1914   -2.4035   -0.0398 C   0  0  0  0  0  0  0  0  0  0  0  0
    2.1425    3.1911   -0.8789 C   0  0  0  0  0  0  0  0  0  0  0  0
    5.0876   -1.4623    0.7231 C   0  0  0  0  0  0  0  0  0  0  0  0
    2.4609    4.3004    0.0795 C   0  0  0  0  0  0  0  0  0  0  0  0
    0.7350   -1.3815   -1.8364 H   0  0  0  0  0  0  0  0  0  0  0  0
   -4.2043    0.1029   -1.3880 H   0  0  0  0  0  0  0  0  0  0  0  0
   -4.1807   -1.6552   -1.3192 H   0  0  0  0  0  0  0  0  0  0  0  0
   -2.6967    0.2410    0.5853 H   0  0  0  0  0  0  0  0  0  0  0  0
   -2.7212   -1.5281    0.7393 H   0  0  0  0  0  0  0  0  0  0  0  0
   -5.3069   -1.6003    0.9387 H   0  0  0  0  0  0  0  0  0  0  0  0
   -0.4127   -0.6300    0.7602 H   0  0  0  0  0  0  0  0  0  0  0  0
    2.2898    0.5260   -1.9213 H   0  0  0  0  0  0  0  0  0  0  0  0
    0.6136    1.0766   -1.9815 H   0  0  0  0  0  0  0  0  0  0  0  0
    3.2143   -1.4064   -1.6285 H   0  0  0  0  0  0  0  0  0  0  0  0
   -6.5969   -1.6369   -1.0779 H   0  0  0  0  0  0  0  0  0  0  0  0
   -7.3749   -0.8679    0.1296 H   0  0  0  0  0  0  0  0  0  0  0  0
    4.7780   -2.8796   -0.8304 H   0  0  0  0  0  0  0  0  0  0  0  0
    3.8084   -3.1587    0.6529 H   0  0  0  0  0  0  0  0  0  0  0  0
    1.3172    3.5161   -1.5183 H   0  0  0  0  0  0  0  0  0  0  0  0
    3.0229    2.9832   -1.4937 H   0  0  0  0  0  0  0  0  0  0  0  0
   -4.7547    1.2548    2.7768 H   0  0  0  0  0  0  0  0  0  0  0  0
    1.6347    4.6312    0.7331 H   0  0  0  0  0  0  0  0  0  0  0  0
    5.2785    0.4194    1.1833 H   0  0  0  0  0  0  0  0  0  0  0  0
  1 16  1  0  0  0  0
  1 21  1  0  0  0  0
  2 17  2  0  0  0  0
  3 18  2  0  0  0  0
  4 19  1  0  0  0  0
  4 40  1  0  0  0  0
  5 19  2  0  0  0  0
  6 22  1  0  0  0  0
  6 42  1  0  0  0  0
  7 22  2  0  0  0  0
  8 23  2  0  0  0  0
  9 12  1  0  0  0  0
  9 17  1  0  0  0  0
  9 30  1  0  0  0  0
 10 18  1  0  0  0  0
 10 20  1  0  0  0  0
 10 33  1  0  0  0  0
 11 15  1  0  0  0  0
 11 34  1  0  0  0  0
 11 35  1  0  0  0  0
 12 16  1  0  0  0  0
 12 18  1  0  0  0  0
 12 24  1  0  0  0  0
 13 14  1  0  0  0  0
 13 15  1  0  0  0  0
 13 25  1  0  0  0  0
 13 26  1  0  0  0  0
 14 17  1  0  0  0  0
 14 27  1  0  0  0  0
 14 28  1  0  0  0  0
 15 19  1  0  0  0  0
 15 29  1  0  0  0  0
 16 31  1  0  0  0  0
 16 32  1  0  0  0  0
 20 22  1  0  0  0  0
 20 36  1  0  0  0  0
 20 37  1  0  0  0  0
 21 23  1  0  0  0  0
 21 38  1  0  0  0  0
 21 39  1  0  0  0  0
 23 41  1  0  0  0  0
M  END
> <PUBCHEM_COMPOUND_CID>
11954074

> <PUBCHEM_CONFORMER_RMSD>
1.2

> <PUBCHEM_CONFORMER_DIVERSEORDER>
1
38
35
9
4
17
10
20
26
2
30
31
34
27
5
22
32
13
40
18
3
28
36
25
14
6
24
33
15
16
19
23
12
29
21
7
37
8
39
11

> <PUBCHEM_MMFF94_PARTIAL_CHARGES>
29
1 -0.46
10 -0.73
11 -0.99
12 0.36
14 0.06
15 0.33
16 0.23
17 0.57
18 0.57
19 0.66
2 -0.57
20 0.36
21 0.29
22 0.66
23 0.45
3 -0.57
30 0.37
33 0.37
34 0.36
35 0.36
4 -0.65
40 0.5
41 0.06
42 0.5
5 -0.57
6 -0.65
7 -0.57
8 -0.57
9 -0.73

> <PUBCHEM_EFFECTIVE_ROTOR_COUNT>
14

> <PUBCHEM_PHARMACOPHORE_FEATURES>
13
1 10 donor
1 11 cation
1 11 donor
1 2 acceptor
1 3 acceptor
1 4 acceptor
1 5 acceptor
1 6 acceptor
1 7 acceptor
1 8 acceptor
1 9 donor
3 4 5 19 anion
3 6 7 22 anion

> <PUBCHEM_HEAVY_ATOM_COUNT>
23

> <PUBCHEM_ATOM_DEF_STEREO_COUNT>
2

> <PUBCHEM_ATOM_UDEF_STEREO_COUNT>
0

> <PUBCHEM_BOND_DEF_STEREO_COUNT>
0

> <PUBCHEM_BOND_UDEF_STEREO_COUNT>
0

> <PUBCHEM_ISOTOPIC_ATOM_COUNT>
0

> <PUBCHEM_COMPONENT_COUNT>
1

> <PUBCHEM_CACTVS_TAUTO_COUNT>
8

> <PUBCHEM_CONFORMER_ID>
00B6679A00000001

> <PUBCHEM_MMFF94_ENERGY>
31.8126

> <PUBCHEM_FEATURE_SELFOVERLAP>
66.085

> <PUBCHEM_SHAPE_FINGERPRINT>
12403259 118 18186795912059309205
12507557 5 18334572495320004657
12596602 18 18187367674927738299
12616971 3 18261659438370318787
13257819 101 14201407118001462794
13590594 115 18339919436697078640
13899415 154 18413382138740334926
14466204 15 18195526115571634353
14739800 52 17678182589873381777
14849402 71 18341889641591408620
14955137 171 18337946908873833494
15048467 5 17240493519910903922
15475509 8 18041822005333589204
17980427 26 18120381956366836020
1813 80 18336539534090611150
18785283 64 18200031729507239196
21033648 29 17533522228839934067
21304253 13 18409171039080903968
249057 25 18113335293987229997
25147074 1 17969233235056901039
5104073 3 18269262496688675131
6898599 12 7850991929299019658
7495541 125 16128364987099229766
9841814 1 18341606027862935302

> <PUBCHEM_SHAPE_MULTIPOLES>
421.15
14.5
4.17
1.4
15.91
7.52
-0.07
-3.33
-5.91
-8.71
-0.22
0.83
-0.2
-1.83

> <PUBCHEM_SHAPE_SELFOVERLAP>
809.091

> <PUBCHEM_SHAPE_VOLUME>
255.3

> <PUBCHEM_COORDINATE_TYPE>
2
5
10

$$$$

