71463
  -OEChem-07051213032D

 73 75  0     1  0  0  0  0  0999 V2000
    0.0000    6.9859    0.0000 Cl  0  0  0  0  0  0  0  0  0  0  0  0
    7.7313    0.0000    0.0000 Cl  0  0  0  0  0  0  0  0  0  0  0  0
   12.6385    8.7859    0.0000 O   0  0  0  0  0  0  0  0  0  0  0  0
   10.4733    6.5234    0.0000 O   0  0  0  0  0  0  0  0  0  0  0  0
    9.1996    7.6972    0.0000 O   0  0  0  0  0  0  0  0  0  0  0  0
    4.5659   12.9429    0.0000 O   0  0  0  0  0  0  0  0  0  0  0  0
    3.9365   11.0002    0.0000 O   0  0  0  0  0  0  0  0  0  0  0  0
    9.8790   11.2134    0.0000 N   0  0  3  0  0  0  0  0  0  0  0  0
    7.4260   10.0959    0.0000 N   0  0  0  0  0  0  0  0  0  0  0  0
    9.4159    4.0982    0.0000 N   0  0  0  0  0  0  0  0  0  0  0  0
   11.2306   10.0244    0.0000 C   0  0  1  0  0  0  0  0  0  0  0  0
   10.5336    9.2503    0.0000 C   0  0  2  0  0  0  0  0  0  0  0  0
    9.2099   10.4702    0.0000 C   0  0  2  0  0  0  0  0  0  0  0  0
    9.5165    9.4747    0.0000 C   0  0  0  0  0  0  0  0  0  0  0  0
   10.9011   11.0125    0.0000 C   0  0  0  0  0  0  0  0  0  0  0  0
   12.2952    9.8152    0.0000 C   0  0  2  0  0  0  0  0  0  0  0  0
    8.2317   10.6781    0.0000 C   0  0  0  0  0  0  0  0  0  0  0  0
    9.5700   12.1644    0.0000 C   0  0  0  0  0  0  0  0  0  0  0  0
    7.9227   11.6292    0.0000 C   0  0  0  0  0  0  0  0  0  0  0  0
   10.8530    8.2134    0.0000 C   0  0  0  0  0  0  0  0  0  0  0  0
    8.5919   12.3723    0.0000 C   0  0  0  0  0  0  0  0  0  0  0  0
    6.9286   11.6266    0.0000 C   0  0  0  0  0  0  0  0  0  0  0  0
   12.9557   10.5660    0.0000 C   0  0  0  0  0  0  0  0  0  0  0  0
   11.9125    7.9796    0.0000 C   0  0  0  0  0  0  0  0  0  0  0  0
    6.6223   10.6809    0.0000 C   0  0  0  0  0  0  0  0  0  0  0  0
   10.1753    7.4780    0.0000 C   0  0  0  0  0  0  0  0  0  0  0  0
    6.2470   12.4061    0.0000 C   0  0  0  0  0  0  0  0  0  0  0  0
    5.6131   10.4492    0.0000 C   0  0  0  0  0  0  0  0  0  0  0  0
    5.2328   12.1978    0.0000 C   0  0  0  0  0  0  0  0  0  0  0  0
    4.9136   11.2127    0.0000 C   0  0  0  0  0  0  0  0  0  0  0  0
    9.7956    5.7881    0.0000 C   0  0  0  0  0  0  0  0  0  0  0  0
   10.0936    4.8335    0.0000 C   0  0  0  0  0  0  0  0  0  0  0  0
    4.8777   13.8930    0.0000 C   0  0  0  0  0  0  0  0  0  0  0  0
    3.6320   10.0477    0.0000 C   0  0  0  0  0  0  0  0  0  0  0  0
    9.7139    3.1436    0.0000 C   0  0  0  0  0  0  0  0  0  0  0  0
    8.4402    4.3174    0.0000 C   0  0  0  0  0  0  0  0  0  0  0  0
   11.7920   10.6626    0.0000 H   0  0  0  0  0  0  0  0  0  0  0  0
    9.9576    8.6252    0.0000 H   0  0  0  0  0  0  0  0  0  0  0  0
    8.6363    9.8429    0.0000 H   0  0  0  0  0  0  0  0  0  0  0  0
    8.9014    9.3963    0.0000 H   0  0  0  0  0  0  0  0  0  0  0  0
    9.4884    8.8554    0.0000 H   0  0  0  0  0  0  0  0  0  0  0  0
   11.5141   11.1051    0.0000 H   0  0  0  0  0  0  0  0  0  0  0  0
   10.9148   11.6324    0.0000 H   0  0  0  0  0  0  0  0  0  0  0  0
   12.9029    9.6921    0.0000 H   0  0  0  0  0  0  0  0  0  0  0  0
   10.1840   12.2507    0.0000 H   0  0  0  0  0  0  0  0  0  0  0  0
    9.5916   12.7840    0.0000 H   0  0  0  0  0  0  0  0  0  0  0  0
    8.8241   12.9472    0.0000 H   0  0  0  0  0  0  0  0  0  0  0  0
    8.0661   12.7009    0.0000 H   0  0  0  0  0  0  0  0  0  0  0  0
    7.4249    9.4759    0.0000 H   0  0  0  0  0  0  0  0  0  0  0  0
   13.4213   10.1565    0.0000 H   0  0  0  0  0  0  0  0  0  0  0  0
   13.3652   11.0315    0.0000 H   0  0  0  0  0  0  0  0  0  0  0  0
   12.4902   10.9755    0.0000 H   0  0  0  0  0  0  0  0  0  0  0  0
   12.1018    7.3892    0.0000 H   0  0  0  0  0  0  0  0  0  0  0  0
    6.4449   12.9937    0.0000 H   0  0  0  0  0  0  0  0  0  0  0  0
    5.4288    9.8572    0.0000 H   0  0  0  0  0  0  0  0  0  0  0  0
    9.4196    6.2810    0.0000 H   0  0  0  0  0  0  0  0  0  0  0  0
    9.2448    5.5034    0.0000 H   0  0  0  0  0  0  0  0  0  0  0  0
   10.4696    4.3406    0.0000 H   0  0  0  0  0  0  0  0  0  0  0  0
   10.6443    5.1182    0.0000 H   0  0  0  0  0  0  0  0  0  0  0  0
    5.4668   13.6997    0.0000 H   0  0  0  0  0  0  0  0  0  0  0  0
    5.0711   14.4821    0.0000 H   0  0  0  0  0  0  0  0  0  0  0  0
    4.2886   14.0864    0.0000 H   0  0  0  0  0  0  0  0  0  0  0  0
    3.0414   10.2365    0.0000 H   0  0  0  0  0  0  0  0  0  0  0  0
    3.4432    9.4571    0.0000 H   0  0  0  0  0  0  0  0  0  0  0  0
    4.2225    9.8589    0.0000 H   0  0  0  0  0  0  0  0  0  0  0  0
    8.5762    4.9223    0.0000 H   0  0  0  0  0  0  0  0  0  0  0  0
    7.8353    4.4533    0.0000 H   0  0  0  0  0  0  0  0  0  0  0  0
    8.3043    3.7124    0.0000 H   0  0  0  0  0  0  0  0  0  0  0  0
    9.1221    2.9588    0.0000 H   0  0  0  0  0  0  0  0  0  0  0  0
    9.8987    2.5518    0.0000 H   0  0  0  0  0  0  0  0  0  0  0  0
   10.3057    3.3284    0.0000 H   0  0  0  0  0  0  0  0  0  0  0  0
    1.0000    6.9859    0.0000 H   0  0  0  0  0  0  0  0  0  0  0  0
    8.7313    0.0000    0.0000 H   0  0  0  0  0  0  0  0  0  0  0  0
  1 72  1  0  0  0  0
  2 73  1  0  0  0  0
  3 16  1  0  0  0  0
  3 24  1  0  0  0  0
  4 26  1  0  0  0  0
  4 31  1  0  0  0  0
  5 26  2  0  0  0  0
  6 29  1  0  0  0  0
  6 33  1  0  0  0  0
  7 30  1  0  0  0  0
  7 34  1  0  0  0  0
  8 13  1  0  0  0  0
  8 15  1  0  0  0  0
  8 18  1  0  0  0  0
  9 17  1  0  0  0  0
  9 25  1  0  0  0  0
  9 49  1  0  0  0  0
 10 32  1  0  0  0  0
 10 35  1  0  0  0  0
 10 36  1  0  0  0  0
 11 12  1  0  0  0  0
 11 15  1  0  0  0  0
 11 16  1  0  0  0  0
 11 37  1  6  0  0  0
 12 14  1  0  0  0  0
 12 20  1  0  0  0  0
 12 38  1  6  0  0  0
 13 14  1  0  0  0  0
 13 17  1  0  0  0  0
 13 39  1  1  0  0  0
 14 40  1  0  0  0  0
 14 41  1  0  0  0  0
 15 42  1  0  0  0  0
 15 43  1  0  0  0  0
 16 23  1  6  0  0  0
 16 44  1  0  0  0  0
 17 19  2  0  0  0  0
 18 21  1  0  0  0  0
 18 45  1  0  0  0  0
 18 46  1  0  0  0  0
 19 21  1  0  0  0  0
 19 22  1  0  0  0  0
 20 24  2  0  0  0  0
 20 26  1  0  0  0  0
 21 47  1  0  0  0  0
 21 48  1  0  0  0  0
 22 25  1  0  0  0  0
 22 27  2  0  0  0  0
 23 50  1  0  0  0  0
 23 51  1  0  0  0  0
 23 52  1  0  0  0  0
 24 53  1  0  0  0  0
 25 28  2  0  0  0  0
 27 29  1  0  0  0  0
 27 54  1  0  0  0  0
 28 30  1  0  0  0  0
 28 55  1  0  0  0  0
 29 30  2  0  0  0  0
 31 32  1  0  0  0  0
 31 56  1  0  0  0  0
 31 57  1  0  0  0  0
 32 58  1  0  0  0  0
 32 59  1  0  0  0  0
 33 60  1  0  0  0  0
 33 61  1  0  0  0  0
 33 62  1  0  0  0  0
 34 63  1  0  0  0  0
 34 64  1  0  0  0  0
 34 65  1  0  0  0  0
 35 69  1  0  0  0  0
 35 70  1  0  0  0  0
 35 71  1  0  0  0  0
 36 66  1  0  0  0  0
 36 67  1  0  0  0  0
 36 68  1  0  0  0  0
M  END
> <PUBCHEM_COMPOUND_CID>
71463

> <PUBCHEM_COMPOUND_CANONICALIZED>
1

> <PUBCHEM_CACTVS_COMPLEXITY>
776

> <PUBCHEM_CACTVS_HBOND_ACCEPTOR>
7

> <PUBCHEM_CACTVS_HBOND_DONOR>
3

> <PUBCHEM_CACTVS_ROTATABLE_BOND>
7

> <PUBCHEM_CACTVS_SUBSKEYS>
AAADcfB7OAAGAAAAAAAAAAAAAAAAAWAAAAA8WIEAAAAAAFix8AAAHgAQAAAADTzhngYyzvPJlACoAyTyTACCiCAhIiAAmSE+7NgPZvLEsZuXMCpm0Bna6Ie4/f/eoEABAgACQABAgAIEAASAAAAAAAAAAA==

> <PUBCHEM_IUPAC_INCHI>
InChI=1S/C26H35N3O5.2ClH/c1-15-19-13-29-7-6-16-18-11-23(31-4)24(32-5)12-21(18)27-25(16)22(29)10-17(19)20(14-34-15)26(30)33-9-8-28(2)3;;/h11-12,14-15,17,19,22,27H,6-10,13H2,1-5H3;2*1H/t15-,17-,19-,22+;;/m0../s1

> <PUBCHEM_IUPAC_INCHIKEY>
RDKIYVYHCBJDMF-DGCKWTARSA-N

> <PUBCHEM_EXACT_MASS>
541.211027

> <PUBCHEM_MOLECULAR_FORMULA>
C26H37Cl2N3O5

> <PUBCHEM_MOLECULAR_WEIGHT>
542.49508

> <PUBCHEM_OPENEYE_CAN_SMILES>
CC1C2CN3CCC4=C(C3CC2C(=CO1)C(=O)OCCN(C)C)NC5=CC(=C(C=C45)OC)OC.Cl.Cl

> <PUBCHEM_OPENEYE_ISO_SMILES>
C[C@H]1[C@@H]2CN3CCC4=C([C@H]3C[C@@H]2C(=CO1)C(=O)OCCN(C)C)NC5=CC(=C(C=C45)OC)OC.Cl.Cl

> <PUBCHEM_CACTVS_TPSA>
76.3

> <PUBCHEM_MONOISOTOPIC_WEIGHT>
541.211027

> <PUBCHEM_TOTAL_CHARGE>
0

> <PUBCHEM_HEAVY_ATOM_COUNT>
36

> <PUBCHEM_ATOM_DEF_STEREO_COUNT>
4

> <PUBCHEM_ATOM_UDEF_STEREO_COUNT>
0

> <PUBCHEM_BOND_DEF_STEREO_COUNT>
0

> <PUBCHEM_BOND_UDEF_STEREO_COUNT>
0

> <PUBCHEM_ISOTOPIC_ATOM_COUNT>
0

> <PUBCHEM_COMPONENT_COUNT>
3

> <PUBCHEM_CACTVS_TAUTO_COUNT>
1

> <PUBCHEM_COORDINATE_TYPE>
1
5
255

> <PUBCHEM_BONDANNOTATIONS>
11  37  6
12  38  6
13  39  5
16  23  6
17  19  8
19  22  8
22  25  8
22  27  8
25  28  8
27  29  8
28  30  8
29  30  8
9  17  8
9  25  8

$$$$

