243760
  -OEChem-07051213063D

 40 42  0     0  0  0  0  0  0999 V2000
    0.2800    0.6279   -0.1764 O   0  0  0  0  0  0  0  0  0  0  0  0
   -3.8206   -1.9442   -0.0524 O   0  0  0  0  0  0  0  0  0  0  0  0
   -3.9241    2.8041   -0.4439 O   0  0  0  0  0  0  0  0  0  0  0  0
   -5.2376    0.3777   -0.2741 O   0  0  0  0  0  0  0  0  0  0  0  0
   -1.4586   -3.0476    0.0839 O   0  0  0  0  0  0  0  0  0  0  0  0
    6.5959    0.3702   -0.0374 O   0  0  0  0  0  0  0  0  0  0  0  0
   -1.7464   -0.7101   -0.1099 C   0  0  0  0  0  0  0  0  0  0  0  0
   -1.0872    0.5151   -0.1959 C   0  0  0  0  0  0  0  0  0  0  0  0
   -3.1419   -0.7649   -0.1354 C   0  0  0  0  0  0  0  0  0  0  0  0
    1.0363   -0.5281   -0.0574 C   0  0  0  0  0  0  0  0  0  0  0  0
   -0.9469   -1.9391    0.0069 C   0  0  0  0  0  0  0  0  0  0  0  0
   -1.8220    1.6956   -0.3085 C   0  0  0  0  0  0  0  0  0  0  0  0
    2.4942   -0.2933   -0.0521 C   0  0  0  0  0  0  0  0  0  0  0  0
    0.5194   -1.7644    0.0267 C   0  0  0  0  0  0  0  0  0  0  0  0
   -3.8742    0.4176   -0.2477 C   0  0  0  0  0  0  0  0  0  0  0  0
   -3.2160    1.6452   -0.3341 C   0  0  0  0  0  0  0  0  0  0  0  0
    3.3629   -1.2558   -0.5724 C   0  0  0  0  0  0  0  0  0  0  0  0
    3.0112    0.8936    0.4733 C   0  0  0  0  0  0  0  0  0  0  0  0
    4.7398   -1.0330   -0.5671 C   0  0  0  0  0  0  0  0  0  0  0  0
    4.3882    1.1166    0.4785 C   0  0  0  0  0  0  0  0  0  0  0  0
    5.2525    0.1532   -0.0418 C   0  0  0  0  0  0  0  0  0  0  0  0
   -4.1701   -2.3993    1.2529 C   0  0  0  0  0  0  0  0  0  0  0  0
   -4.2877    3.4588    0.7697 C   0  0  0  0  0  0  0  0  0  0  0  0
    7.0528    1.6042    0.5146 C   0  0  0  0  0  0  0  0  0  0  0  0
   -1.3105    2.6525   -0.3767 H   0  0  0  0  0  0  0  0  0  0  0  0
    1.1125   -2.6652    0.1320 H   0  0  0  0  0  0  0  0  0  0  0  0
    3.0021   -2.1825   -1.0104 H   0  0  0  0  0  0  0  0  0  0  0  0
    2.3604    1.6573    0.8926 H   0  0  0  0  0  0  0  0  0  0  0  0
    5.4082   -1.7848   -0.9780 H   0  0  0  0  0  0  0  0  0  0  0  0
    4.7190    2.0582    0.9032 H   0  0  0  0  0  0  0  0  0  0  0  0
   -5.5218   -0.5523   -0.2736 H   0  0  0  0  0  0  0  0  0  0  0  0
   -4.5151   -3.4338    1.1735 H   0  0  0  0  0  0  0  0  0  0  0  0
   -4.9837   -1.7913    1.6602 H   0  0  0  0  0  0  0  0  0  0  0  0
   -3.3124   -2.3677    1.9327 H   0  0  0  0  0  0  0  0  0  0  0  0
   -3.3938    3.7537    1.3286 H   0  0  0  0  0  0  0  0  0  0  0  0
   -4.9181    2.8090    1.3850 H   0  0  0  0  0  0  0  0  0  0  0  0
   -4.8549    4.3588    0.5170 H   0  0  0  0  0  0  0  0  0  0  0  0
    6.8084    1.6835    1.5793 H   0  0  0  0  0  0  0  0  0  0  0  0
    6.6875    2.4619   -0.0603 H   0  0  0  0  0  0  0  0  0  0  0  0
    8.1450    1.6086    0.4361 H   0  0  0  0  0  0  0  0  0  0  0  0
  1  8  1  0  0  0  0
  1 10  1  0  0  0  0
  2  9  1  0  0  0  0
  2 22  1  0  0  0  0
  3 16  1  0  0  0  0
  3 23  1  0  0  0  0
  4 15  1  0  0  0  0
  4 31  1  0  0  0  0
  5 11  2  0  0  0  0
  6 21  1  0  0  0  0
  6 24  1  0  0  0  0
  7  8  1  0  0  0  0
  7  9  2  0  0  0  0
  7 11  1  0  0  0  0
  8 12  2  0  0  0  0
  9 15  1  0  0  0  0
 10 13  1  0  0  0  0
 10 14  2  0  0  0  0
 11 14  1  0  0  0  0
 12 16  1  0  0  0  0
 12 25  1  0  0  0  0
 13 17  2  0  0  0  0
 13 18  1  0  0  0  0
 14 26  1  0  0  0  0
 15 16  2  0  0  0  0
 17 19  1  0  0  0  0
 17 27  1  0  0  0  0
 18 20  2  0  0  0  0
 18 28  1  0  0  0  0
 19 21  2  0  0  0  0
 19 29  1  0  0  0  0
 20 21  1  0  0  0  0
 20 30  1  0  0  0  0
 22 32  1  0  0  0  0
 22 33  1  0  0  0  0
 22 34  1  0  0  0  0
 23 35  1  0  0  0  0
 23 36  1  0  0  0  0
 23 37  1  0  0  0  0
 24 38  1  0  0  0  0
 24 39  1  0  0  0  0
 24 40  1  0  0  0  0
M  END
> <PUBCHEM_COMPOUND_CID>
243760

> <PUBCHEM_CONFORMER_RMSD>
0.8

> <PUBCHEM_CONFORMER_DIVERSEORDER>
1
2

> <PUBCHEM_MMFF94_PARTIAL_CHARGES>
31
1 -0.16
10 0.05
11 0.47
12 -0.15
13 0.03
14 -0.14
15 0.08
16 0.08
17 -0.15
18 -0.15
19 -0.15
2 -0.36
20 -0.15
21 0.08
22 0.28
23 0.28
24 0.28
25 0.15
26 0.15
27 0.15
28 0.15
29 0.15
3 -0.36
30 0.15
31 0.45
4 -0.53
5 -0.57
6 -0.36
7 0.09
8 0.08
9 0.08

> <PUBCHEM_EFFECTIVE_ROTOR_COUNT>
4

> <PUBCHEM_PHARMACOPHORE_FEATURES>
9
1 1 acceptor
1 2 acceptor
1 3 acceptor
1 4 donor
1 5 acceptor
1 6 acceptor
6 1 7 8 10 11 14 rings
6 13 17 18 19 20 21 rings
6 7 8 9 12 15 16 rings

> <PUBCHEM_HEAVY_ATOM_COUNT>
24

> <PUBCHEM_ATOM_DEF_STEREO_COUNT>
0

> <PUBCHEM_ATOM_UDEF_STEREO_COUNT>
0

> <PUBCHEM_BOND_DEF_STEREO_COUNT>
0

> <PUBCHEM_BOND_UDEF_STEREO_COUNT>
0

> <PUBCHEM_ISOTOPIC_ATOM_COUNT>
0

> <PUBCHEM_COMPONENT_COUNT>
1

> <PUBCHEM_CACTVS_TAUTO_COUNT>
3

> <PUBCHEM_CONFORMER_ID>
0003B83000000001

> <PUBCHEM_MMFF94_ENERGY>
103.4906

> <PUBCHEM_FEATURE_SELFOVERLAP>
45.708

> <PUBCHEM_SHAPE_FINGERPRINT>
10319926 262 18338814359698613738
10411042 1 17834958573198122191
10493431 412 18267015240913692649
11135609 187 18197792196801114309
11315181 36 17917431986903303948
12107183 9 18054237802230128682
12236239 1 17489592230143143710
12390115 104 18262507204062762089
12403259 415 18334005116891382262
12596602 18 17203329945139379880
13073987 5 18342460344303534834
13140716 1 17981036415124710843
13402501 40 18334579027643761752
14790565 3 17759515969136076129
15042514 8 18197212556182683179
15196674 1 18410293640315758766
15778101 99 18337387240159537344
17844677 252 18339355276032014328
200 152 17022621970651147446
20510252 161 18335419058642800771
20645477 56 18409169887665639290
20645477 70 17168417260213847686
21033648 29 18041011626324622736
21236236 1 18409730664412990661
21267235 1 18270112401232477619
21279426 13 18190457345545478814
21421861 104 17773046456902068914
21792961 116 18113606882323648340
22182313 1 18262218006661286447
23402539 116 18410299072943168246
23557571 272 18335414643653634798
23559900 14 18334864866201763280
283562 15 18411984646471599755
2916195 48 18335426759820011560
3004659 81 18341048623440591950
34797466 226 17749102284393037852
350125 39 18410852118717880809
3545911 37 18335139783032158764
4073 2 18272365365720590298
4214541 1 18410856564362135284
441001 317 18410857672120877676
445580 37 18339349796118020708
5104073 3 18342740758301822626
5283173 99 18408042922781182224
542803 24 14418127401435456538
6327066 14 18198913693875913661
633830 44 18189623923804542772
636775 72 18261961748250291792
7808743 9 18340209690639637928
9709674 26 18335697235127352342
9981440 41 18271804648601868347

> <PUBCHEM_SHAPE_MULTIPOLES>
458.69
14.05
3.05
0.78
18.52
0.69
0.1
6.12
1.3
-4.64
0.55
-0.2
-0.04
1.06

> <PUBCHEM_SHAPE_SELFOVERLAP>
1007.14

> <PUBCHEM_SHAPE_VOLUME>
248.3

> <PUBCHEM_COORDINATE_TYPE>
2
5
10

$$$$

