4388265
  -OEChem-07051213043D

 30 32  0     0  0  0  0  0  0999 V2000
    0.8195    2.3162    0.8119 O   0  0  0  0  0  0  0  0  0  0  0  0
    0.8232   -2.3171    0.8106 O   0  0  0  0  0  0  0  0  0  0  0  0
   -5.2292   -0.0008   -1.7565 O   0  0  0  0  0  0  0  0  0  0  0  0
    0.4509    0.0001    1.0287 N   0  0  0  0  0  0  0  0  0  0  0  0
   -0.8075    0.0001    1.7479 C   0  0  0  0  0  0  0  0  0  0  0  0
    2.3280    0.6938   -0.0317 C   0  0  0  0  0  0  0  0  0  0  0  0
    2.3281   -0.6934   -0.0315 C   0  0  0  0  0  0  0  0  0  0  0  0
    1.1156    1.1471    0.6486 C   0  0  0  0  0  0  0  0  0  0  0  0
    1.1157   -1.1469    0.6491 C   0  0  0  0  0  0  0  0  0  0  0  0
   -1.9878   -0.0001    0.8130 C   0  0  0  0  0  0  0  0  0  0  0  0
    3.3482    1.4238   -0.6062 C   0  0  0  0  0  0  0  0  0  0  0  0
    3.3483   -1.4235   -0.6059 C   0  0  0  0  0  0  0  0  0  0  0  0
   -2.5232   -1.2081    0.3890 C   0  0  0  0  0  0  0  0  0  0  0  0
   -2.5224    1.2079    0.3882 C   0  0  0  0  0  0  0  0  0  0  0  0
    4.3931    0.7051   -1.1937 C   0  0  0  0  0  0  0  0  0  0  0  0
    4.3931   -0.7048   -1.1937 C   0  0  0  0  0  0  0  0  0  0  0  0
   -3.6161   -1.2078   -0.4778 C   0  0  0  0  0  0  0  0  0  0  0  0
   -3.6153    1.2080   -0.4786 C   0  0  0  0  0  0  0  0  0  0  0  0
   -4.1622    0.0001   -0.9116 C   0  0  0  0  0  0  0  0  0  0  0  0
   -0.8462    0.8827    2.3980 H   0  0  0  0  0  0  0  0  0  0  0  0
   -0.8460   -0.8823    2.3980 H   0  0  0  0  0  0  0  0  0  0  0  0
    3.3482    2.5075   -0.6069 H   0  0  0  0  0  0  0  0  0  0  0  0
    3.3485   -2.5070   -0.6064 H   0  0  0  0  0  0  0  0  0  0  0  0
   -2.1072   -2.1549    0.7209 H   0  0  0  0  0  0  0  0  0  0  0  0
   -2.1057    2.1546    0.7196 H   0  0  0  0  0  0  0  0  0  0  0  0
    5.2184    1.2385   -1.6583 H   0  0  0  0  0  0  0  0  0  0  0  0
    5.2184   -1.2382   -1.6582 H   0  0  0  0  0  0  0  0  0  0  0  0
   -4.0380   -2.1520   -0.8114 H   0  0  0  0  0  0  0  0  0  0  0  0
   -4.0316    2.1559   -0.8090 H   0  0  0  0  0  0  0  0  0  0  0  0
   -5.4762    0.9194   -1.9528 H   0  0  0  0  0  0  0  0  0  0  0  0
  1  8  2  0  0  0  0
  2  9  2  0  0  0  0
  3 19  1  0  0  0  0
  3 30  1  0  0  0  0
  4  5  1  0  0  0  0
  4  8  1  0  0  0  0
  4  9  1  0  0  0  0
  5 10  1  0  0  0  0
  5 20  1  0  0  0  0
  5 21  1  0  0  0  0
  6  7  1  0  0  0  0
  6  8  1  0  0  0  0
  6 11  2  0  0  0  0
  7  9  1  0  0  0  0
  7 12  2  0  0  0  0
 10 13  2  0  0  0  0
 10 14  1  0  0  0  0
 11 15  1  0  0  0  0
 11 22  1  0  0  0  0
 12 16  1  0  0  0  0
 12 23  1  0  0  0  0
 13 17  1  0  0  0  0
 13 24  1  0  0  0  0
 14 18  2  0  0  0  0
 14 25  1  0  0  0  0
 15 16  2  0  0  0  0
 15 26  1  0  0  0  0
 16 27  1  0  0  0  0
 17 19  2  0  0  0  0
 17 28  1  0  0  0  0
 18 19  1  0  0  0  0
 18 29  1  0  0  0  0
M  END
> <PUBCHEM_COMPOUND_CID>
4388265

> <PUBCHEM_CONFORMER_RMSD>
0.6

> <PUBCHEM_CONFORMER_DIVERSEORDER>
1
2
3

> <PUBCHEM_MMFF94_PARTIAL_CHARGES>
28
1 -0.57
10 -0.14
11 -0.15
12 -0.15
13 -0.15
14 -0.15
15 -0.15
16 -0.15
17 -0.15
18 -0.15
19 0.08
2 -0.57
22 0.15
23 0.15
24 0.15
25 0.15
26 0.15
27 0.15
28 0.15
29 0.15
3 -0.53
30 0.45
4 -0.42
5 0.44
6 0.09
7 0.09
8 0.54
9 0.54

> <PUBCHEM_EFFECTIVE_ROTOR_COUNT>
2.2

> <PUBCHEM_PHARMACOPHORE_FEATURES>
6
1 1 acceptor
1 2 acceptor
1 3 donor
5 4 6 7 8 9 rings
6 10 13 14 17 18 19 rings
6 6 7 11 12 15 16 rings

> <PUBCHEM_HEAVY_ATOM_COUNT>
19

> <PUBCHEM_ATOM_DEF_STEREO_COUNT>
0

> <PUBCHEM_ATOM_UDEF_STEREO_COUNT>
0

> <PUBCHEM_BOND_DEF_STEREO_COUNT>
0

> <PUBCHEM_BOND_UDEF_STEREO_COUNT>
0

> <PUBCHEM_ISOTOPIC_ATOM_COUNT>
0

> <PUBCHEM_COMPONENT_COUNT>
1

> <PUBCHEM_CACTVS_TAUTO_COUNT>
2

> <PUBCHEM_CONFORMER_ID>
0042F5A900000001

> <PUBCHEM_MMFF94_ENERGY>
46.3712

> <PUBCHEM_FEATURE_SELFOVERLAP>
30.538

> <PUBCHEM_SHAPE_FINGERPRINT>
10498660 4 17489595554105004933
10764073 3 16544464322297165304
11046707 91 15647049382656957735
11471102 22 8358257034072361970
11543360 7 18409164394085898239
11578080 2 17241058720084259032
11796584 16 15574711430455226869
12363563 72 15285358405697406203
12390115 104 9725050022141487902
12507560 40 10519719894377591275
12670546 177 18409726270339680902
12730499 353 17846774139950413019
12788726 201 17679015143993962305
12892183 10 8502378818991358711
13675066 3 11600008721858060320
13705890 14 18040431088353263400
14252887 29 8286209335839771524
14576447 43 17967813847149703366
14787075 74 5184053830824106878
15209294 21 12103556464060883548
15210252 30 17632297890792752956
16752209 62 17531535381643527387
1798214 20 17822012025094805476
1813 80 14418126301438350728
18186145 218 18201424887990656538
193927 3 16443056184261875765
19784866 240 16298106467509293357
19862831 5 18334574646376017867
200 152 17822004315660157512
20361792 2 15791736282699263033
20645477 70 18339069475870502682
20671657 53 17458062664005108065
20871999 31 18334853935351420865
21634736 98 18042125375373137644
21637258 2 15936689354448823652
21713013 43 18261682471958407855
21731228 192 11600001046477670337
221357 26 18408606959429881661
221490 88 18190737531557461138
22182313 1 18124031222088881249
22393880 68 18410579482714988479
22646028 28 15864070962088370261
231179 274 16773798099543954156
23379529 103 17459464446815355927
23402539 116 18335690685670841228
23402655 69 18341891921886324108
23557571 272 16414896600816739219
23559900 14 18337379492892590432
25 1 18130499824919947843
2748010 2 17327726306977995496
2838139 119 16844435022102288100
2871803 45 18409732863162134637
3009799 131 18131071576168849450
3060560 45 18341058453565509302
3082319 5 18411138056360388145
3472631 163 15985106297538799495
4028521 119 17704074001616644373
4280585 95 17468184991822126886
4371632 12 5034886653307885664
465052 167 16443915934479319575
474 4 17060334115439769285
5924683 9 10159683678481999913

> <PUBCHEM_SHAPE_MULTIPOLES>
368.42
9.3
1.83
1.36
2.88
0
-0.04
0
-6.12
-0.59
0.25
0.52
0
0

> <PUBCHEM_SHAPE_SELFOVERLAP>
822.393

> <PUBCHEM_SHAPE_VOLUME>
198.1

> <PUBCHEM_COORDINATE_TYPE>
2
5
10

$$$$

