7405
  -OEChem-07051212463D

 16 16  0     1  0  0  0  0  0999 V2000
   -2.6950    0.7781   -0.1784 O   0  0  0  0  0  0  0  0  0  0  0  0
    2.6693   -0.3956   -0.1723 O   0  0  0  0  0  0  0  0  0  0  0  0
    1.4235    1.4791   -0.5324 O   0  0  0  0  0  0  0  0  0  0  0  0
   -0.6095    0.5377    0.8584 N   0  0  0  0  0  0  0  0  0  0  0  0
    0.5210   -0.3427    0.7694 C   0  0  1  0  0  0  0  0  0  0  0  0
   -0.0322   -1.5721    0.0739 C   0  0  0  0  0  0  0  0  0  0  0  0
   -1.1951   -1.0410   -0.7636 C   0  0  0  0  0  0  0  0  0  0  0  0
   -1.6378    0.1900   -0.0109 C   0  0  0  0  0  0  0  0  0  0  0  0
    1.5557    0.3666   -0.0442 C   0  0  0  0  0  0  0  0  0  0  0  0
    0.9058   -0.5405    1.7736 H   0  0  0  0  0  0  0  0  0  0  0  0
   -0.4259   -2.2694    0.8245 H   0  0  0  0  0  0  0  0  0  0  0  0
    0.6956   -2.1166   -0.5351 H   0  0  0  0  0  0  0  0  0  0  0  0
   -2.0073   -1.7681   -0.8383 H   0  0  0  0  0  0  0  0  0  0  0  0
   -0.8643   -0.7424   -1.7632 H   0  0  0  0  0  0  0  0  0  0  0  0
   -0.6441    1.3538    1.4615 H   0  0  0  0  0  0  0  0  0  0  0  0
    3.3604    0.0521   -0.7054 H   0  0  0  0  0  0  0  0  0  0  0  0
  1  8  2  0  0  0  0
  2  9  1  0  0  0  0
  2 16  1  0  0  0  0
  3  9  2  0  0  0  0
  4  5  1  0  0  0  0
  4  8  1  0  0  0  0
  4 15  1  0  0  0  0
  5  6  1  0  0  0  0
  5  9  1  0  0  0  0
  5 10  1  0  0  0  0
  6  7  1  0  0  0  0
  6 11  1  0  0  0  0
  6 12  1  0  0  0  0
  7  8  1  0  0  0  0
  7 13  1  0  0  0  0
  7 14  1  0  0  0  0
M  END
> <PUBCHEM_COMPOUND_CID>
7405

> <PUBCHEM_CONFORMER_RMSD>
0.4

> <PUBCHEM_CONFORMER_DIVERSEORDER>
1
6
2
4
3
5

> <PUBCHEM_MMFF94_PARTIAL_CHARGES>
10
1 -0.57
15 0.37
16 0.5
2 -0.65
3 -0.57
4 -0.73
5 0.36
7 0.06
8 0.57
9 0.66

> <PUBCHEM_EFFECTIVE_ROTOR_COUNT>
1.8

> <PUBCHEM_PHARMACOPHORE_FEATURES>
6
1 1 acceptor
1 2 acceptor
1 3 acceptor
1 4 donor
3 2 3 9 anion
5 4 5 6 7 8 rings

> <PUBCHEM_HEAVY_ATOM_COUNT>
9

> <PUBCHEM_ATOM_DEF_STEREO_COUNT>
1

> <PUBCHEM_ATOM_UDEF_STEREO_COUNT>
0

> <PUBCHEM_BOND_DEF_STEREO_COUNT>
0

> <PUBCHEM_BOND_UDEF_STEREO_COUNT>
0

> <PUBCHEM_ISOTOPIC_ATOM_COUNT>
0

> <PUBCHEM_COMPONENT_COUNT>
1

> <PUBCHEM_CACTVS_TAUTO_COUNT>
3

> <PUBCHEM_CONFORMER_ID>
00001CED00000001

> <PUBCHEM_MMFF94_ENERGY>
15.0555

> <PUBCHEM_FEATURE_SELFOVERLAP>
30.502

> <PUBCHEM_SHAPE_FINGERPRINT>
10857977 72 10159689162437338254
137420 1 5741745180316104386
18185500 45 18335990838716621034
20096714 4 18271808999181542825
20653085 51 18270951371690962444
21040471 1 18261966197091701987
23552423 10 18338803312288522582
24536 1 18054801589190157306
29004967 10 17988359385550089802
369184 2 7637134623291916158
5084963 1 18408604751399739123

> <PUBCHEM_SHAPE_MULTIPOLES>
162.63
2.96
1.35
0.82
0.14
0.2
-0.05
-0.67
0.47
-0.03
0.15
-0.03
0.01
-0.22

> <PUBCHEM_SHAPE_SELFOVERLAP>
332.292

> <PUBCHEM_SHAPE_VOLUME>
95.4

> <PUBCHEM_COORDINATE_TYPE>
2
5
10

$$$$

