177562
  -OEChem-07051213003D

 67 70  0     1  0  0  0  0  0999 V2000
    5.3822   -1.7225    0.6435 O   0  0  0  0  0  0  0  0  0  0  0  0
    6.6880    0.7700    0.3044 O   0  0  0  0  0  0  0  0  0  0  0  0
   -5.7984   -0.1120    0.3804 N   0  0  0  0  0  0  0  0  0  0  0  0
   -1.1355   -1.0106    0.1057 C   0  0  2  0  0  0  0  0  0  0  0  0
   -2.0138    0.1696   -0.3633 C   0  0  1  0  0  0  0  0  0  0  0  0
    0.3141   -0.9068   -0.3818 C   0  0  1  0  0  0  0  0  0  0  0  0
    0.9325    0.4166    0.1735 C   0  0  1  0  0  0  0  0  0  0  0  0
    2.4440    0.5783   -0.2379 C   0  0  2  0  0  0  0  0  0  0  0  0
   -3.3688   -0.2768    0.2385 C   0  0  2  0  0  0  0  0  0  0  0  0
    3.2089   -0.6911    0.2613 C   0  0  1  0  0  0  0  0  0  0  0  0
   -1.4334    1.4558    0.2410 C   0  0  0  0  0  0  0  0  0  0  0  0
    0.0447    1.6494   -0.1444 C   0  0  0  0  0  0  0  0  0  0  0  0
   -1.9580   -2.2403   -0.2672 C   0  0  0  0  0  0  0  0  0  0  0  0
    1.1389   -2.1272    0.0471 C   0  0  0  0  0  0  0  0  0  0  0  0
   -3.4166   -1.7951   -0.0527 C   0  0  0  0  0  0  0  0  0  0  0  0
    2.6167   -1.9887   -0.3116 C   0  0  0  0  0  0  0  0  0  0  0  0
    3.0691    1.8141    0.4684 C   0  0  0  0  0  0  0  0  0  0  0  0
    4.7316   -0.6008    0.0382 C   0  0  1  0  0  0  0  0  0  0  0  0
   -2.1091    0.3153   -1.9030 C   0  0  0  0  0  0  0  0  0  0  0  0
   -4.6079    0.4592   -0.2505 C   0  0  2  0  0  0  0  0  0  0  0  0
    2.5801    0.7681   -1.7704 C   0  0  0  0  0  0  0  0  0  0  0  0
    4.5813    1.9252    0.2785 C   0  0  0  0  0  0  0  0  0  0  0  0
    5.3181    0.6551    0.6892 C   0  0  2  0  0  0  0  0  0  0  0  0
   -4.5188    1.9532    0.0535 C   0  0  0  0  0  0  0  0  0  0  0  0
   -7.0011    0.5824   -0.0771 C   0  0  0  0  0  0  0  0  0  0  0  0
   -5.6886   -0.0401    1.8367 C   0  0  0  0  0  0  0  0  0  0  0  0
   -1.0947   -0.9979    1.2080 H   0  0  0  0  0  0  0  0  0  0  0  0
    0.3174   -0.8862   -1.4761 H   0  0  0  0  0  0  0  0  0  0  0  0
    0.9199    0.3271    1.2717 H   0  0  0  0  0  0  0  0  0  0  0  0
   -3.2537   -0.1484    1.3233 H   0  0  0  0  0  0  0  0  0  0  0  0
    3.0618   -0.7572    1.3515 H   0  0  0  0  0  0  0  0  0  0  0  0
   -1.5078    1.4286    1.3357 H   0  0  0  0  0  0  0  0  0  0  0  0
   -1.9602    2.3528   -0.0861 H   0  0  0  0  0  0  0  0  0  0  0  0
    0.1067    1.9000   -1.2079 H   0  0  0  0  0  0  0  0  0  0  0  0
    0.4152    2.5246    0.4007 H   0  0  0  0  0  0  0  0  0  0  0  0
   -1.7106   -3.1037    0.3588 H   0  0  0  0  0  0  0  0  0  0  0  0
   -1.7961   -2.5305   -1.3113 H   0  0  0  0  0  0  0  0  0  0  0  0
    0.7449   -3.0335   -0.4275 H   0  0  0  0  0  0  0  0  0  0  0  0
    1.0469   -2.2748    1.1309 H   0  0  0  0  0  0  0  0  0  0  0  0
   -4.0046   -2.0283   -0.9479 H   0  0  0  0  0  0  0  0  0  0  0  0
   -3.8653   -2.3408    0.7844 H   0  0  0  0  0  0  0  0  0  0  0  0
    3.1494   -2.8588    0.0899 H   0  0  0  0  0  0  0  0  0  0  0  0
    2.7437   -2.0246   -1.3995 H   0  0  0  0  0  0  0  0  0  0  0  0
    2.8556    1.7670    1.5444 H   0  0  0  0  0  0  0  0  0  0  0  0
    2.6135    2.7408    0.1006 H   0  0  0  0  0  0  0  0  0  0  0  0
    4.9839   -0.6406   -1.0265 H   0  0  0  0  0  0  0  0  0  0  0  0
   -1.1303    0.4315   -2.3758 H   0  0  0  0  0  0  0  0  0  0  0  0
   -2.5844   -0.5499   -2.3758 H   0  0  0  0  0  0  0  0  0  0  0  0
   -2.6906    1.1984   -2.1862 H   0  0  0  0  0  0  0  0  0  0  0  0
   -4.7119    0.3254   -1.3342 H   0  0  0  0  0  0  0  0  0  0  0  0
    3.6239    0.7860   -2.0963 H   0  0  0  0  0  0  0  0  0  0  0  0
    2.0927   -0.0269   -2.3397 H   0  0  0  0  0  0  0  0  0  0  0  0
    2.1391    1.7170   -2.0931 H   0  0  0  0  0  0  0  0  0  0  0  0
    4.8198    2.1758   -0.7624 H   0  0  0  0  0  0  0  0  0  0  0  0
    4.9640    2.7700    0.8651 H   0  0  0  0  0  0  0  0  0  0  0  0
    5.3014    0.5617    1.7823 H   0  0  0  0  0  0  0  0  0  0  0  0
   -5.4581    2.5016   -0.0459 H   0  0  0  0  0  0  0  0  0  0  0  0
   -4.1155    2.1684    1.0483 H   0  0  0  0  0  0  0  0  0  0  0  0
   -3.8800    2.4438   -0.6858 H   0  0  0  0  0  0  0  0  0  0  0  0
    5.1446   -1.7358    1.5864 H   0  0  0  0  0  0  0  0  0  0  0  0
    7.1356   -0.0503    0.5742 H   0  0  0  0  0  0  0  0  0  0  0  0
   -7.1808    1.5474    0.4085 H   0  0  0  0  0  0  0  0  0  0  0  0
   -7.8741   -0.0413    0.1514 H   0  0  0  0  0  0  0  0  0  0  0  0
   -7.0066    0.7174   -1.1648 H   0  0  0  0  0  0  0  0  0  0  0  0
   -5.4989    0.9621    2.2330 H   0  0  0  0  0  0  0  0  0  0  0  0
   -4.9563   -0.7405    2.2477 H   0  0  0  0  0  0  0  0  0  0  0  0
   -6.6379   -0.3680    2.2813 H   0  0  0  0  0  0  0  0  0  0  0  0
  1 18  1  0  0  0  0
  1 60  1  0  0  0  0
  2 23  1  0  0  0  0
  2 61  1  0  0  0  0
  3 20  1  0  0  0  0
  3 25  1  0  0  0  0
  3 26  1  0  0  0  0
  4  5  1  0  0  0  0
  4  6  1  0  0  0  0
  4 13  1  0  0  0  0
  4 27  1  0  0  0  0
  5  9  1  0  0  0  0
  5 11  1  0  0  0  0
  5 19  1  0  0  0  0
  6  7  1  0  0  0  0
  6 14  1  0  0  0  0
  6 28  1  0  0  0  0
  7  8  1  0  0  0  0
  7 12  1  0  0  0  0
  7 29  1  0  0  0  0
  8 10  1  0  0  0  0
  8 17  1  0  0  0  0
  8 21  1  0  0  0  0
  9 15  1  0  0  0  0
  9 20  1  0  0  0  0
  9 30  1  0  0  0  0
 10 16  1  0  0  0  0
 10 18  1  0  0  0  0
 10 31  1  0  0  0  0
 11 12  1  0  0  0  0
 11 32  1  0  0  0  0
 11 33  1  0  0  0  0
 12 34  1  0  0  0  0
 12 35  1  0  0  0  0
 13 15  1  0  0  0  0
 13 36  1  0  0  0  0
 13 37  1  0  0  0  0
 14 16  1  0  0  0  0
 14 38  1  0  0  0  0
 14 39  1  0  0  0  0
 15 40  1  0  0  0  0
 15 41  1  0  0  0  0
 16 42  1  0  0  0  0
 16 43  1  0  0  0  0
 17 22  1  0  0  0  0
 17 44  1  0  0  0  0
 17 45  1  0  0  0  0
 18 23  1  0  0  0  0
 18 46  1  0  0  0  0
 19 47  1  0  0  0  0
 19 48  1  0  0  0  0
 19 49  1  0  0  0  0
 20 24  1  0  0  0  0
 20 50  1  0  0  0  0
 21 51  1  0  0  0  0
 21 52  1  0  0  0  0
 21 53  1  0  0  0  0
 22 23  1  0  0  0  0
 22 54  1  0  0  0  0
 22 55  1  0  0  0  0
 23 56  1  0  0  0  0
 24 57  1  0  0  0  0
 24 58  1  0  0  0  0
 24 59  1  0  0  0  0
 25 62  1  0  0  0  0
 25 63  1  0  0  0  0
 25 64  1  0  0  0  0
 26 65  1  0  0  0  0
 26 66  1  0  0  0  0
 26 67  1  0  0  0  0
M  END
> <PUBCHEM_COMPOUND_CID>
177562

> <PUBCHEM_CONFORMER_RMSD>
0.8

> <PUBCHEM_CONFORMER_DIVERSEORDER>
1

> <PUBCHEM_MMFF94_PARTIAL_CHARGES>
10
1 -0.68
18 0.28
2 -0.68
20 0.27
23 0.28
25 0.27
26 0.27
3 -0.81
60 0.4
61 0.4

> <PUBCHEM_EFFECTIVE_ROTOR_COUNT>
4.2

> <PUBCHEM_PHARMACOPHORE_FEATURES>
9
1 1 acceptor
1 1 donor
1 2 acceptor
1 2 donor
1 3 cation
5 4 5 9 13 15 rings
6 4 5 6 7 11 12 rings
6 6 7 8 10 14 16 rings
6 8 10 17 18 22 23 rings

> <PUBCHEM_HEAVY_ATOM_COUNT>
26

> <PUBCHEM_ATOM_DEF_STEREO_COUNT>
10

> <PUBCHEM_ATOM_UDEF_STEREO_COUNT>
0

> <PUBCHEM_BOND_DEF_STEREO_COUNT>
0

> <PUBCHEM_BOND_UDEF_STEREO_COUNT>
0

> <PUBCHEM_ISOTOPIC_ATOM_COUNT>
0

> <PUBCHEM_COMPONENT_COUNT>
1

> <PUBCHEM_CACTVS_TAUTO_COUNT>
1

> <PUBCHEM_CONFORMER_ID>
0002B59A00000001

> <PUBCHEM_MMFF94_ENERGY>
102.0562

> <PUBCHEM_FEATURE_SELFOVERLAP>
45.765

> <PUBCHEM_SHAPE_FINGERPRINT>
10 15 18202004304949248960
10366900 7 6050450322724270126
10411042 1 17832140902969390086
10906281 52 18263064587532573062
11089746 13 17312825952789152401
11578080 2 16952272918539827346
12107183 9 17686333583307809249
12107698 1 15985103015629878204
12236239 1 17603587439241737967
12403259 415 18201166502863942812
12403814 3 17775571927261757245
12422481 6 18343587364573940116
12788726 201 17241040011085157713
12838862 33 18337691757398323321
13140716 1 18194399992173738873
13224815 77 18408605838221773822
13402501 40 18412826888819249832
13533116 47 17967813894426245178
14251764 18 18259984856185729003
14341114 176 18412824707461270506
14790565 3 18337106765788750944
15142383 8 17561371698682792245
15183329 4 18260546727421935721
15196674 1 18410013199988426894
15475509 35 16629699452262687250
15788980 27 18201719539584191793
1813 80 16917347051995211476
18222031 100 10663822936111782797
19141452 34 18411420570793310407
19784866 9 18409451396922993266
2026 5 13325479011694010408
21033648 29 18200614551894914165
21150785 3 16443069379145343853
21236236 1 18262521386677977695
21267235 1 18411130376811442582
21279426 13 18265052620546174092
21421861 104 18130235968416407602
21623969 137 18341324544201422475
21792934 111 18338811116127990297
21859007 373 17773610501502464621
22182313 1 18059300979839275223
23402539 116 18114751438640211532
23559900 14 18335425638944200136
3004659 81 18342455963299320300
335352 9 18409167714718259942
34797466 226 16950557761968107316
34934 24 18334579023074468503
350125 39 18412544314726732148
3545911 37 18410292514474989044
3633792 109 18335988679271380221
3680242 22 18410856598779961386
4073 2 18059009480609641490
4093350 32 17095237051697427598
4340502 62 18411696586850653007
5104073 3 18338238167517168978
542803 24 17167863066922944385
7226269 152 17967249827918568537
7495541 125 13542459848099468956
9996256 80 18335423431062192463

> <PUBCHEM_SHAPE_MULTIPOLES>
518.35
14.62
2.19
1.09
3.86
0.48
-0.23
-3.16
3.89
-0.84
0.06
0.52
-0.13
0.07

> <PUBCHEM_SHAPE_SELFOVERLAP>
1086.597

> <PUBCHEM_SHAPE_VOLUME>
293

> <PUBCHEM_COORDINATE_TYPE>
2
5
10

$$$$

