39765
  -OEChem-07051212532D

 97102  0     1  0  0  0  0  0999 V2000
   10.3658    2.0580    0.0000 O   0  0  0  0  0  0  0  0  0  0  0  0
    3.7158   -2.2495    0.0000 O   0  0  0  0  0  0  0  0  0  0  0  0
    8.7194    2.5961    0.0000 O   0  0  0  0  0  0  0  0  0  0  0  0
    4.5761   -3.7529    0.0000 O   0  0  0  0  0  0  0  0  0  0  0  0
   11.6387    0.3028    0.0000 N   0  3  0  0  0  0  0  0  0  0  0  0
    3.7319   -0.1579    0.0000 N   0  0  0  0  0  0  0  0  0  0  0  0
    9.1089   -0.1972    0.0000 C   0  0  2  0  0  0  0  0  0  0  0  0
    9.1089    0.8028    0.0000 C   0  0  1  0  0  0  0  0  0  0  0  0
    8.2429   -0.6972    0.0000 C   0  0  1  0  0  0  0  0  0  0  0  0
    7.3768   -0.1972    0.0000 C   0  0  1  0  0  0  0  0  0  0  0  0
    6.4668   -0.7041    0.0000 C   0  0  2  0  0  0  0  0  0  0  0  0
   10.6387    0.3028    0.0000 C   0  0  2  0  0  0  0  0  0  0  0  0
   10.0551    1.1075    0.0000 C   0  0  2  0  0  0  0  0  0  0  0  0
   10.0551   -0.5019    0.0000 C   0  0  0  0  0  0  0  0  0  0  0  0
    6.4588   -1.7456    0.0000 C   0  0  1  0  0  0  0  0  0  0  0  0
    8.2429    1.3028    0.0000 C   0  0  0  0  0  0  0  0  0  0  0  0
    7.3768    0.8028    0.0000 C   0  0  0  0  0  0  0  0  0  0  0  0
    8.2589   -1.7387    0.0000 C   0  0  0  0  0  0  0  0  0  0  0  0
    7.3609   -2.2665    0.0000 C   0  0  0  0  0  0  0  0  0  0  0  0
    5.5400   -0.1400    0.0000 C   0  0  0  0  0  0  0  0  0  0  0  0
    9.1089    1.8028    0.0000 C   0  0  0  0  0  0  0  0  0  0  0  0
    5.5234   -2.2954    0.0000 C   0  0  0  0  0  0  0  0  0  0  0  0
    4.5921   -0.6679    0.0000 C   0  0  1  0  0  0  0  0  0  0  0  0
    6.4746    0.2959    0.0000 C   0  0  0  0  0  0  0  0  0  0  0  0
    4.5838   -1.7529    0.0000 C   0  0  1  0  0  0  0  0  0  0  0  0
   12.5047   -0.1972    0.0000 C   0  0  0  0  0  0  0  0  0  0  0  0
   11.6387    1.3028    0.0000 C   0  0  0  0  0  0  0  0  0  0  0  0
   11.1387   -0.5632    0.0000 C   0  0  0  0  0  0  0  0  0  0  0  0
   12.5047    1.8028    0.0000 C   0  0  0  0  0  0  0  0  0  0  0  0
   13.3708    0.3028    0.0000 C   0  0  0  0  0  0  0  0  0  0  0  0
   13.3708    1.3028    0.0000 C   0  0  0  0  0  0  0  0  0  0  0  0
    3.7435    0.8420    0.0000 C   0  0  0  0  0  0  0  0  0  0  0  0
    2.8602   -0.6479    0.0000 C   0  0  0  0  0  0  0  0  0  0  0  0
    9.6979    2.8024    0.0000 C   0  0  0  0  0  0  0  0  0  0  0  0
    2.8833    1.3520    0.0000 C   0  0  0  0  0  0  0  0  0  0  0  0
    2.0000   -0.1379    0.0000 C   0  0  0  0  0  0  0  0  0  0  0  0
    2.0116    0.8620    0.0000 C   0  0  0  0  0  0  0  0  0  0  0  0
    3.7120   -3.2495    0.0000 C   0  0  0  0  0  0  0  0  0  0  0  0
   10.0086    3.7529    0.0000 C   0  0  0  0  0  0  0  0  0  0  0  0
    2.8440   -3.7462    0.0000 C   0  0  0  0  0  0  0  0  0  0  0  0
    9.1988   -1.0424    0.0000 H   0  0  0  0  0  0  0  0  0  0  0  0
    8.9822   -1.1165    0.0000 H   0  0  0  0  0  0  0  0  0  0  0  0
    8.1130    0.2278    0.0000 H   0  0  0  0  0  0  0  0  0  0  0  0
   11.0249   -0.4544    0.0000 H   0  0  0  0  0  0  0  0  0  0  0  0
   10.6676    1.2037    0.0000 H   0  0  0  0  0  0  0  0  0  0  0  0
    9.8041   -1.0688    0.0000 H   0  0  0  0  0  0  0  0  0  0  0  0
   10.5925   -0.8112    0.0000 H   0  0  0  0  0  0  0  0  0  0  0  0
    6.4621   -2.5956    0.0000 H   0  0  0  0  0  0  0  0  0  0  0  0
    8.6414    1.7777    0.0000 H   0  0  0  0  0  0  0  0  0  0  0  0
    7.8443    1.7777    0.0000 H   0  0  0  0  0  0  0  0  0  0  0  0
    7.1648    1.3854    0.0000 H   0  0  0  0  0  0  0  0  0  0  0  0
    6.7663    0.6951    0.0000 H   0  0  0  0  0  0  0  0  0  0  0  0
    8.4770   -2.3191    0.0000 H   0  0  0  0  0  0  0  0  0  0  0  0
    8.8681   -1.6232    0.0000 H   0  0  0  0  0  0  0  0  0  0  0  0
    6.9636   -2.7424    0.0000 H   0  0  0  0  0  0  0  0  0  0  0  0
    7.7619   -2.7394    0.0000 H   0  0  0  0  0  0  0  0  0  0  0  0
    5.9482    0.3267    0.0000 H   0  0  0  0  0  0  0  0  0  0  0  0
    5.1501    0.3421    0.0000 H   0  0  0  0  0  0  0  0  0  0  0  0
    9.7289    1.8028    0.0000 H   0  0  0  0  0  0  0  0  0  0  0  0
    9.1089    2.4228    0.0000 H   0  0  0  0  0  0  0  0  0  0  0  0
    8.4889    1.8028    0.0000 H   0  0  0  0  0  0  0  0  0  0  0  0
    5.1261   -2.7714    0.0000 H   0  0  0  0  0  0  0  0  0  0  0  0
    5.9243   -2.7683    0.0000 H   0  0  0  0  0  0  0  0  0  0  0  0
    4.0522   -0.9727    0.0000 H   0  0  0  0  0  0  0  0  0  0  0  0
    7.0945    0.2911    0.0000 H   0  0  0  0  0  0  0  0  0  0  0  0
    6.4793    0.9159    0.0000 H   0  0  0  0  0  0  0  0  0  0  0  0
    5.8546    0.3007    0.0000 H   0  0  0  0  0  0  0  0  0  0  0  0
    4.5826   -2.3729    0.0000 H   0  0  0  0  0  0  0  0  0  0  0  0
   11.4267    1.8854    0.0000 H   0  0  0  0  0  0  0  0  0  0  0  0
   11.0281    1.1951    0.0000 H   0  0  0  0  0  0  0  0  0  0  0  0
   12.1062   -0.6722    0.0000 H   0  0  0  0  0  0  0  0  0  0  0  0
   12.9033   -0.6722    0.0000 H   0  0  0  0  0  0  0  0  0  0  0  0
   10.6018   -0.2532    0.0000 H   0  0  0  0  0  0  0  0  0  0  0  0
   10.8287   -1.1002    0.0000 H   0  0  0  0  0  0  0  0  0  0  0  0
   11.6757   -0.8732    0.0000 H   0  0  0  0  0  0  0  0  0  0  0  0
   13.5828   -0.2798    0.0000 H   0  0  0  0  0  0  0  0  0  0  0  0
   13.9814    0.4105    0.0000 H   0  0  0  0  0  0  0  0  0  0  0  0
   12.9033    2.2777    0.0000 H   0  0  0  0  0  0  0  0  0  0  0  0
   12.1062    2.2777    0.0000 H   0  0  0  0  0  0  0  0  0  0  0  0
   13.9814    1.1951    0.0000 H   0  0  0  0  0  0  0  0  0  0  0  0
   13.5828    1.8854    0.0000 H   0  0  0  0  0  0  0  0  0  0  0  0
    2.4562   -1.1182    0.0000 H   0  0  0  0  0  0  0  0  0  0  0  0
    3.2532   -1.1274    0.0000 H   0  0  0  0  0  0  0  0  0  0  0  0
    4.3528    0.7273    0.0000 H   0  0  0  0  0  0  0  0  0  0  0  0
    3.9623    1.4221    0.0000 H   0  0  0  0  0  0  0  0  0  0  0  0
    3.2873    1.8223    0.0000 H   0  0  0  0  0  0  0  0  0  0  0  0
    2.4903    1.8315    0.0000 H   0  0  0  0  0  0  0  0  0  0  0  0
    1.3907   -0.0232    0.0000 H   0  0  0  0  0  0  0  0  0  0  0  0
    1.7812   -0.7180    0.0000 H   0  0  0  0  0  0  0  0  0  0  0  0
    1.8063    1.4470    0.0000 H   0  0  0  0  0  0  0  0  0  0  0  0
    1.3998    0.7614    0.0000 H   0  0  0  0  0  0  0  0  0  0  0  0
   10.5979    3.5603    0.0000 H   0  0  0  0  0  0  0  0  0  0  0  0
   10.2012    4.3422    0.0000 H   0  0  0  0  0  0  0  0  0  0  0  0
    9.4193    3.9455    0.0000 H   0  0  0  0  0  0  0  0  0  0  0  0
    2.5361   -3.2081    0.0000 H   0  0  0  0  0  0  0  0  0  0  0  0
    2.3059   -4.0541    0.0000 H   0  0  0  0  0  0  0  0  0  0  0  0
    3.1519   -4.2843    0.0000 H   0  0  0  0  0  0  0  0  0  0  0  0
 13  1  1  1  0  0  0
  1 34  1  0  0  0  0
 25  2  1  6  0  0  0
  2 38  1  0  0  0  0
  3 34  2  0  0  0  0
  4 38  2  0  0  0  0
  5 12  1  0  0  0  0
  5 26  1  0  0  0  0
  5 27  1  0  0  0  0
  5 28  1  0  0  0  0
 23  6  1  1  0  0  0
  6 32  1  0  0  0  0
  6 33  1  0  0  0  0
  7  8  1  0  0  0  0
  7  9  1  0  0  0  0
  7 14  1  0  0  0  0
  7 41  1  6  0  0  0
  8 13  1  0  0  0  0
  8 16  1  0  0  0  0
  8 21  1  1  0  0  0
  9 10  1  0  0  0  0
  9 18  1  0  0  0  0
  9 42  1  1  0  0  0
 10 11  1  0  0  0  0
 10 17  1  0  0  0  0
 10 43  1  6  0  0  0
 11 15  1  0  0  0  0
 11 20  1  0  0  0  0
 11 24  1  1  0  0  0
 12 13  1  0  0  0  0
 12 14  1  0  0  0  0
 12 44  1  6  0  0  0
 13 45  1  0  0  0  0
 14 46  1  0  0  0  0
 14 47  1  0  0  0  0
 15 19  1  0  0  0  0
 15 22  1  0  0  0  0
 15 48  1  6  0  0  0
 16 17  1  0  0  0  0
 16 49  1  0  0  0  0
 16 50  1  0  0  0  0
 17 51  1  0  0  0  0
 17 52  1  0  0  0  0
 18 19  1  0  0  0  0
 18 53  1  0  0  0  0
 18 54  1  0  0  0  0
 19 55  1  0  0  0  0
 19 56  1  0  0  0  0
 20 23  1  0  0  0  0
 20 57  1  0  0  0  0
 20 58  1  0  0  0  0
 21 59  1  0  0  0  0
 21 60  1  0  0  0  0
 21 61  1  0  0  0  0
 22 25  1  0  0  0  0
 22 62  1  0  0  0  0
 22 63  1  0  0  0  0
 23 25  1  0  0  0  0
 23 64  1  0  0  0  0
 24 65  1  0  0  0  0
 24 66  1  0  0  0  0
 24 67  1  0  0  0  0
 25 68  1  0  0  0  0
 26 30  1  0  0  0  0
 26 71  1  0  0  0  0
 26 72  1  0  0  0  0
 27 29  1  0  0  0  0
 27 69  1  0  0  0  0
 27 70  1  0  0  0  0
 28 73  1  0  0  0  0
 28 74  1  0  0  0  0
 28 75  1  0  0  0  0
 29 31  1  0  0  0  0
 29 78  1  0  0  0  0
 29 79  1  0  0  0  0
 30 31  1  0  0  0  0
 30 76  1  0  0  0  0
 30 77  1  0  0  0  0
 31 80  1  0  0  0  0
 31 81  1  0  0  0  0
 32 35  1  0  0  0  0
 32 84  1  0  0  0  0
 32 85  1  0  0  0  0
 33 36  1  0  0  0  0
 33 82  1  0  0  0  0
 33 83  1  0  0  0  0
 34 39  1  0  0  0  0
 35 37  1  0  0  0  0
 35 86  1  0  0  0  0
 35 87  1  0  0  0  0
 36 37  1  0  0  0  0
 36 88  1  0  0  0  0
 36 89  1  0  0  0  0
 37 90  1  0  0  0  0
 37 91  1  0  0  0  0
 38 40  1  0  0  0  0
 39 92  1  0  0  0  0
 39 93  1  0  0  0  0
 39 94  1  0  0  0  0
 40 95  1  0  0  0  0
 40 96  1  0  0  0  0
 40 97  1  0  0  0  0
M  CHG  1   5   1
M  END
> <PUBCHEM_COMPOUND_CID>
39765

> <PUBCHEM_COMPOUND_CANONICALIZED>
1

> <PUBCHEM_CACTVS_COMPLEXITY>
958

> <PUBCHEM_CACTVS_HBOND_ACCEPTOR>
5

> <PUBCHEM_CACTVS_HBOND_DONOR>
0

> <PUBCHEM_CACTVS_ROTATABLE_BOND>
6

> <PUBCHEM_CACTVS_SUBSKEYS>
AAADcfB/OAAAAAAAAAAAAAAAAAAAAYAAAAA8eMECAAAAAGDAAAAAHgAAAAAADzzhgAYCCAMABAAIAACQCAAAAAAAAAAAAAAIAAACAAIAgAAHAAAEAACQAAGQ0PIPgAAAAAAAAADQAAaAACAgAKAADAgAAA==

> <PUBCHEM_IUPAC_OPENEYE_NAME>
[(2S,3S,5S,8R,9S,10S,13S,14S,16S,17R)-17-acetoxy-10,13-dimethyl-16-(1-methylpiperidin-1-ium-1-yl)-2-(1-piperidyl)-2,3,4,5,6,7,8,9,11,12,14,15,16,17-tetradecahydro-1H-cyclopenta[a]phenanthren-3-yl] acetate

> <PUBCHEM_IUPAC_CAS_NAME>
acetic acid [(2S,3S,5S,8R,9S,10S,13S,14S,16S,17R)-17-acetyloxy-10,13-dimethyl-16-(1-methyl-1-piperidin-1-iumyl)-2-(1-piperidinyl)-2,3,4,5,6,7,8,9,11,12,14,15,16,17-tetradecahydro-1H-cyclopenta[a]phenanthren-3-yl] ester

> <PUBCHEM_IUPAC_NAME>
[(2S,3S,5S,8R,9S,10S,13S,14S,16S,17R)-17-acetyloxy-10,13-dimethyl-16-(1-methylpiperidin-1-ium-1-yl)-2-piperidin-1-yl-2,3,4,5,6,7,8,9,11,12,14,15,16,17-tetradecahydro-1H-cyclopenta[a]phenanthren-3-yl] acetate

> <PUBCHEM_IUPAC_SYSTEMATIC_NAME>
[(2S,3S,5S,8R,9S,10S,13S,14S,16S,17R)-17-acetyloxy-10,13-dimethyl-16-(1-methylpiperidin-1-ium-1-yl)-2-piperidin-1-yl-2,3,4,5,6,7,8,9,11,12,14,15,16,17-tetradecahydro-1H-cyclopenta[a]phenanthren-3-yl] ethanoate

> <PUBCHEM_IUPAC_TRADITIONAL_NAME>
acetic acid [(2S,3S,5S,8R,9S,10S,13S,14S,16S,17R)-17-acetoxy-10,13-dimethyl-16-(1-methylpiperidin-1-ium-1-yl)-2-piperidino-2,3,4,5,6,7,8,9,11,12,14,15,16,17-tetradecahydro-1H-cyclopenta[a]phenanthren-3-yl] ester

> <PUBCHEM_IUPAC_INCHI>
InChI=1S/C34H57N2O4/c1-23(37)39-31-20-25-12-13-26-27(34(25,4)22-29(31)35-16-8-6-9-17-35)14-15-33(3)28(26)21-30(32(33)40-24(2)38)36(5)18-10-7-11-19-36/h25-32H,6-22H2,1-5H3/q+1/t25-,26+,27-,28-,29-,30-,31-,32-,33-,34-/m0/s1

> <PUBCHEM_IUPAC_INCHIKEY>
BGSZAXLLHYERSY-XQIGCQGXSA-N

> <PUBCHEM_XLOGP3_AA>
6.5

> <PUBCHEM_EXACT_MASS>
557.431833

> <PUBCHEM_MOLECULAR_FORMULA>
C34H57N2O4+

> <PUBCHEM_MOLECULAR_WEIGHT>
557.82738

> <PUBCHEM_OPENEYE_CAN_SMILES>
CC(=O)OC1CC2CCC3C(C2(CC1N4CCCCC4)C)CCC5(C3CC(C5OC(=O)C)[N+]6(CCCCC6)C)C

> <PUBCHEM_OPENEYE_ISO_SMILES>
CC(=O)O[C@H]1C[C@@H]2CC[C@@H]3[C@@H]([C@]2(C[C@@H]1N4CCCCC4)C)CC[C@]5([C@H]3C[C@@H]([C@@H]5OC(=O)C)[N+]6(CCCCC6)C)C

> <PUBCHEM_CACTVS_TPSA>
55.8

> <PUBCHEM_MONOISOTOPIC_WEIGHT>
557.431833

> <PUBCHEM_TOTAL_CHARGE>
1

> <PUBCHEM_HEAVY_ATOM_COUNT>
40

> <PUBCHEM_ATOM_DEF_STEREO_COUNT>
10

> <PUBCHEM_ATOM_UDEF_STEREO_COUNT>
0

> <PUBCHEM_BOND_DEF_STEREO_COUNT>
0

> <PUBCHEM_BOND_UDEF_STEREO_COUNT>
0

> <PUBCHEM_ISOTOPIC_ATOM_COUNT>
0

> <PUBCHEM_COMPONENT_COUNT>
1

> <PUBCHEM_CACTVS_TAUTO_COUNT>
1

> <PUBCHEM_COORDINATE_TYPE>
1
5
255

> <PUBCHEM_BONDANNOTATIONS>
13  1  5
10  43  6
11  24  5
12  44  6
15  48  6
25  2  6
23  6  5
7  41  6
8  21  5
9  42  5

$$$$

