585167
  -OEChem-06241222453D

 36 38  0     0  0  0  0  0  0999 V2000
    0.8665   -1.2775   -1.7442 O   0  0  0  0  0  0  0  0  0  0  0  0
    4.8519    1.8357    0.3696 N   0  0  0  0  0  0  0  0  0  0  0  0
    3.1015   -2.0584    1.2422 N   0  0  0  0  0  0  0  0  0  0  0  0
   -0.7347   -0.1118   -0.4238 C   0  0  0  0  0  0  0  0  0  0  0  0
   -3.1279   -0.9146   -0.4297 C   0  0  0  0  0  0  0  0  0  0  0  0
   -2.6264    1.5506   -0.2496 C   0  0  0  0  0  0  0  0  0  0  0  0
   -2.1150    0.0148    1.6853 C   0  0  0  0  0  0  0  0  0  0  0  0
   -1.7165   -1.1556   -0.9928 C   0  0  0  0  0  0  0  0  0  0  0  0
   -1.2168    1.2999   -0.8134 C   0  0  0  0  0  0  0  0  0  0  0  0
   -0.7076   -0.2296    1.1128 C   0  0  0  0  0  0  0  0  0  0  0  0
   -3.5935    0.4988   -0.8201 C   0  0  0  0  0  0  0  0  0  0  0  0
   -3.0857   -1.0280    1.1041 C   0  0  0  0  0  0  0  0  0  0  0  0
   -2.5867    1.4232    1.2833 C   0  0  0  0  0  0  0  0  0  0  0  0
    0.6458   -0.3531   -0.9635 C   0  0  0  0  0  0  0  0  0  0  0  0
    1.7216    0.6249   -0.5100 C   0  0  0  0  0  0  0  0  0  0  0  0
    3.1225    0.0023   -0.4022 C   0  0  0  0  0  0  0  0  0  0  0  0
    4.0900    1.0281    0.0316 C   0  0  0  0  0  0  0  0  0  0  0  0
    3.1113   -1.1498    0.5202 C   0  0  0  0  0  0  0  0  0  0  0  0
   -3.8214   -1.6586   -0.8370 H   0  0  0  0  0  0  0  0  0  0  0  0
   -2.9645    2.5545   -0.5294 H   0  0  0  0  0  0  0  0  0  0  0  0
   -2.0914   -0.0709    2.7774 H   0  0  0  0  0  0  0  0  0  0  0  0
   -1.7455   -1.1021   -2.0893 H   0  0  0  0  0  0  0  0  0  0  0  0
   -1.3907   -2.1732   -0.7393 H   0  0  0  0  0  0  0  0  0  0  0  0
   -1.2249    1.4111   -1.9057 H   0  0  0  0  0  0  0  0  0  0  0  0
   -0.5402    2.0745   -0.4319 H   0  0  0  0  0  0  0  0  0  0  0  0
   -0.3516   -1.2248    1.4110 H   0  0  0  0  0  0  0  0  0  0  0  0
   -0.0315    0.4886    1.5855 H   0  0  0  0  0  0  0  0  0  0  0  0
   -3.6426    0.5887   -1.9122 H   0  0  0  0  0  0  0  0  0  0  0  0
   -4.6069    0.6773   -0.4400 H   0  0  0  0  0  0  0  0  0  0  0  0
   -4.0900   -0.8761    1.5184 H   0  0  0  0  0  0  0  0  0  0  0  0
   -2.7699   -2.0370    1.3964 H   0  0  0  0  0  0  0  0  0  0  0  0
   -1.9120    2.1786    1.7045 H   0  0  0  0  0  0  0  0  0  0  0  0
   -3.5824    1.6175    1.7006 H   0  0  0  0  0  0  0  0  0  0  0  0
    1.7376    1.4379   -1.2483 H   0  0  0  0  0  0  0  0  0  0  0  0
    1.4677    1.0889    0.4451 H   0  0  0  0  0  0  0  0  0  0  0  0
    3.4228   -0.3598   -1.3939 H   0  0  0  0  0  0  0  0  0  0  0  0
  1 14  2  0  0  0  0
  2 17  3  0  0  0  0
  3 18  3  0  0  0  0
  4  8  1  0  0  0  0
  4  9  1  0  0  0  0
  4 10  1  0  0  0  0
  4 14  1  0  0  0  0
  5  8  1  0  0  0  0
  5 11  1  0  0  0  0
  5 12  1  0  0  0  0
  5 19  1  0  0  0  0
  6  9  1  0  0  0  0
  6 11  1  0  0  0  0
  6 13  1  0  0  0  0
  6 20  1  0  0  0  0
  7 10  1  0  0  0  0
  7 12  1  0  0  0  0
  7 13  1  0  0  0  0
  7 21  1  0  0  0  0
  8 22  1  0  0  0  0
  8 23  1  0  0  0  0
  9 24  1  0  0  0  0
  9 25  1  0  0  0  0
 10 26  1  0  0  0  0
 10 27  1  0  0  0  0
 11 28  1  0  0  0  0
 11 29  1  0  0  0  0
 12 30  1  0  0  0  0
 12 31  1  0  0  0  0
 13 32  1  0  0  0  0
 13 33  1  0  0  0  0
 14 15  1  0  0  0  0
 15 16  1  0  0  0  0
 15 34  1  0  0  0  0
 15 35  1  0  0  0  0
 16 17  1  0  0  0  0
 16 18  1  0  0  0  0
 16 36  1  0  0  0  0
M  END
> <PUBCHEM_COMPOUND_CID>
585167

> <PUBCHEM_CONFORMER_RMSD>
0.6

> <PUBCHEM_CONFORMER_DIVERSEORDER>
1
12
6
9
13
2
7
10
14
3
11
5
8
4

> <PUBCHEM_MMFF94_PARTIAL_CHARGES>
9
1 -0.57
14 0.45
15 0.06
16 0.4
17 0.36
18 0.36
2 -0.56
3 -0.56
4 0.06

> <PUBCHEM_EFFECTIVE_ROTOR_COUNT>
4.2

> <PUBCHEM_PHARMACOPHORE_FEATURES>
7
1 1 acceptor
1 2 acceptor
1 3 acceptor
6 4 5 6 8 9 11 rings
6 4 5 7 8 10 12 rings
6 4 6 7 9 10 13 rings
6 5 6 7 11 12 13 rings

> <PUBCHEM_HEAVY_ATOM_COUNT>
18

> <PUBCHEM_ATOM_DEF_STEREO_COUNT>
0

> <PUBCHEM_ATOM_UDEF_STEREO_COUNT>
0

> <PUBCHEM_BOND_DEF_STEREO_COUNT>
0

> <PUBCHEM_BOND_UDEF_STEREO_COUNT>
0

> <PUBCHEM_ISOTOPIC_ATOM_COUNT>
0

> <PUBCHEM_COMPONENT_COUNT>
1

> <PUBCHEM_CACTVS_TAUTO_COUNT>
2

> <PUBCHEM_CONFORMER_ID>
0008EDCF00000001

> <PUBCHEM_MMFF94_ENERGY>
39.0033

> <PUBCHEM_FEATURE_SELFOVERLAP>
48.066

> <PUBCHEM_SHAPE_FINGERPRINT>
10366900 7 18059572452090659208
10498660 4 16588022437551294456
11370993 70 18060704966072999954
12186901 62 5328472479397556193
12403814 3 18334010567273433037
12553582 1 14117513277074725218
12633257 1 18198343068577790930
13024252 1 16271922706242953173
13224815 77 18186516609687223374
13296908 3 17203603817813155250
13533116 47 18059295486602853779
13583140 156 18342741788597977384
13675066 3 17131545141533119973
13693222 15 18413665811875189487
14144814 61 18334292084851585742
14178342 30 16845568729668505658
14289901 80 18059851749270803496
15309172 13 18113612378858621974
15375358 24 16988851561809526358
15775835 57 18334014973714712980
16945 1 17530960276811202847
200 152 18272375222185049327
20279233 1 16702024171069019194
20525323 117 18040710394382052117
21864079 5 17313096454330423280
23402539 116 18342462491808054511
23559900 14 17703511082018046846
27216 239 18261384542587589081
2838139 119 17910971450026990957
296302 2 18407759240053910389
4921388 177 6627746703754410261
5104073 3 18272652384740321352
5281201 14 6843920581553781234
633830 44 16733245924826559444
74978 22 13326558619366343839
81228 2 15768944617746495708
9709674 26 17703785912321908098
9882013 296 18335417933303236164

> <PUBCHEM_SHAPE_MULTIPOLES>
354.6
7.61
1.73
1.46
7.42
0.03
0.18
1.61
1.29
0.7
0.21
-0.65
-0.28
-0.2

> <PUBCHEM_SHAPE_SELFOVERLAP>
760.933

> <PUBCHEM_SHAPE_VOLUME>
186

> <PUBCHEM_COORDINATE_TYPE>
2
5
10

$$$$

