442162
  -OEChem-07051212573D

 59 62  0     1  0  0  0  0  0999 V2000
    0.1415    1.1105    0.4938 O   0  0  0  0  0  0  0  0  0  0  0  0
    1.9655    2.5075    0.8199 O   0  0  0  0  0  0  0  0  0  0  0  0
    4.3214    1.5581    0.4106 O   0  0  0  0  0  0  0  0  0  0  0  0
   -4.3578    2.2266   -1.1308 O   0  0  0  0  0  0  0  0  0  0  0  0
    5.7545   -0.1689   -1.1456 O   0  0  0  0  0  0  0  0  0  0  0  0
   -6.0193    0.0769   -0.5554 O   0  0  0  0  0  0  0  0  0  0  0  0
    0.1391   -2.6260    0.5190 N   0  0  2  0  0  0  0  0  0  0  0  0
    0.2697   -1.2747   -0.0706 C   0  0  1  0  0  0  0  0  0  0  0  0
   -0.4647   -0.1651    0.7404 C   0  0  2  0  0  0  0  0  0  0  0  0
    1.7328   -0.9441   -0.3728 C   0  0  0  0  0  0  0  0  0  0  0  0
   -1.9477   -0.1026    0.3855 C   0  0  0  0  0  0  0  0  0  0  0  0
   -1.2193   -3.1743    0.4676 C   0  0  0  0  0  0  0  0  0  0  0  0
    2.3256    0.2288    0.1268 C   0  0  0  0  0  0  0  0  0  0  0  0
   -2.2815   -2.4579    1.3096 C   0  0  0  0  0  0  0  0  0  0  0  0
   -2.7967   -1.1940    0.6653 C   0  0  0  0  0  0  0  0  0  0  0  0
    1.4900    1.1710    0.9522 C   0  0  2  0  0  0  0  0  0  0  0  0
    0.7663   -2.8010    1.8280 C   0  0  0  0  0  0  0  0  0  0  0  0
    2.4963   -1.8117   -1.1746 C   0  0  0  0  0  0  0  0  0  0  0  0
   -2.5030    1.0386   -0.2247 C   0  0  0  0  0  0  0  0  0  0  0  0
    3.6850    0.4730   -0.1214 C   0  0  0  0  0  0  0  0  0  0  0  0
   -4.1641   -1.1111    0.3452 C   0  0  0  0  0  0  0  0  0  0  0  0
   -3.8608    1.1031   -0.5417 C   0  0  0  0  0  0  0  0  0  0  0  0
    3.8392   -1.5444   -1.4351 C   0  0  0  0  0  0  0  0  0  0  0  0
    4.4355   -0.4075   -0.9004 C   0  0  0  0  0  0  0  0  0  0  0  0
   -4.6923    0.0292   -0.2547 C   0  0  0  0  0  0  0  0  0  0  0  0
    1.1899    3.4127    1.5916 C   0  0  0  0  0  0  0  0  0  0  0  0
    4.9317    1.3860    1.6863 C   0  0  0  0  0  0  0  0  0  0  0  0
   -4.8362    3.2545   -0.2655 C   0  0  0  0  0  0  0  0  0  0  0  0
    6.0692    0.6004   -2.3045 C   0  0  0  0  0  0  0  0  0  0  0  0
   -6.4098   -0.3938   -1.8441 C   0  0  0  0  0  0  0  0  0  0  0  0
   -0.1874   -1.3036   -1.0723 H   0  0  0  0  0  0  0  0  0  0  0  0
   -0.3999   -0.3262    1.8229 H   0  0  0  0  0  0  0  0  0  0  0  0
   -1.1722   -4.2204    0.7983 H   0  0  0  0  0  0  0  0  0  0  0  0
   -1.5451   -3.2271   -0.5798 H   0  0  0  0  0  0  0  0  0  0  0  0
   -1.9301   -2.2342    2.3229 H   0  0  0  0  0  0  0  0  0  0  0  0
   -3.1160   -3.1584    1.4470 H   0  0  0  0  0  0  0  0  0  0  0  0
    1.5507    0.8740    2.0080 H   0  0  0  0  0  0  0  0  0  0  0  0
    1.8281   -2.5351    1.8031 H   0  0  0  0  0  0  0  0  0  0  0  0
    0.7318   -3.8554    2.1260 H   0  0  0  0  0  0  0  0  0  0  0  0
    0.2937   -2.2170    2.6223 H   0  0  0  0  0  0  0  0  0  0  0  0
    2.0484   -2.7096   -1.5937 H   0  0  0  0  0  0  0  0  0  0  0  0
   -1.8815    1.8979   -0.4657 H   0  0  0  0  0  0  0  0  0  0  0  0
   -4.8253   -1.9474    0.5635 H   0  0  0  0  0  0  0  0  0  0  0  0
    4.4147   -2.2328   -2.0479 H   0  0  0  0  0  0  0  0  0  0  0  0
    1.6604    4.3982    1.5327 H   0  0  0  0  0  0  0  0  0  0  0  0
    1.1630    3.1067    2.6421 H   0  0  0  0  0  0  0  0  0  0  0  0
    0.1740    3.4985    1.1947 H   0  0  0  0  0  0  0  0  0  0  0  0
    5.3485    2.3475    1.9984 H   0  0  0  0  0  0  0  0  0  0  0  0
    5.7449    0.6558    1.6287 H   0  0  0  0  0  0  0  0  0  0  0  0
    4.1955    1.0675    2.4311 H   0  0  0  0  0  0  0  0  0  0  0  0
   -4.0269    3.6280    0.3700 H   0  0  0  0  0  0  0  0  0  0  0  0
   -5.6602    2.8852    0.3531 H   0  0  0  0  0  0  0  0  0  0  0  0
   -5.2045    4.0782   -0.8831 H   0  0  0  0  0  0  0  0  0  0  0  0
    5.6166    1.5950   -2.2420 H   0  0  0  0  0  0  0  0  0  0  0  0
    5.7272    0.0879   -3.2092 H   0  0  0  0  0  0  0  0  0  0  0  0
    7.1556    0.7134   -2.3560 H   0  0  0  0  0  0  0  0  0  0  0  0
   -5.9319    0.1974   -2.6315 H   0  0  0  0  0  0  0  0  0  0  0  0
   -7.4940   -0.2849   -1.9344 H   0  0  0  0  0  0  0  0  0  0  0  0
   -6.1532   -1.4516   -1.9598 H   0  0  0  0  0  0  0  0  0  0  0  0
  1  9  1  0  0  0  0
  1 16  1  0  0  0  0
  2 16  1  0  0  0  0
  2 26  1  0  0  0  0
  3 20  1  0  0  0  0
  3 27  1  0  0  0  0
  4 22  1  0  0  0  0
  4 28  1  0  0  0  0
  5 24  1  0  0  0  0
  5 29  1  0  0  0  0
  6 25  1  0  0  0  0
  6 30  1  0  0  0  0
  7  8  1  0  0  0  0
  7 12  1  0  0  0  0
  7 17  1  0  0  0  0
  8  9  1  0  0  0  0
  8 10  1  0  0  0  0
  8 31  1  0  0  0  0
  9 11  1  0  0  0  0
  9 32  1  0  0  0  0
 10 13  2  0  0  0  0
 10 18  1  0  0  0  0
 11 15  1  0  0  0  0
 11 19  2  0  0  0  0
 12 14  1  0  0  0  0
 12 33  1  0  0  0  0
 12 34  1  0  0  0  0
 13 16  1  0  0  0  0
 13 20  1  0  0  0  0
 14 15  1  0  0  0  0
 14 35  1  0  0  0  0
 14 36  1  0  0  0  0
 15 21  2  0  0  0  0
 16 37  1  0  0  0  0
 17 38  1  0  0  0  0
 17 39  1  0  0  0  0
 17 40  1  0  0  0  0
 18 23  2  0  0  0  0
 18 41  1  0  0  0  0
 19 22  1  0  0  0  0
 19 42  1  0  0  0  0
 20 24  2  0  0  0  0
 21 25  1  0  0  0  0
 21 43  1  0  0  0  0
 22 25  2  0  0  0  0
 23 24  1  0  0  0  0
 23 44  1  0  0  0  0
 26 45  1  0  0  0  0
 26 46  1  0  0  0  0
 26 47  1  0  0  0  0
 27 48  1  0  0  0  0
 27 49  1  0  0  0  0
 27 50  1  0  0  0  0
 28 51  1  0  0  0  0
 28 52  1  0  0  0  0
 28 53  1  0  0  0  0
 29 54  1  0  0  0  0
 29 55  1  0  0  0  0
 29 56  1  0  0  0  0
 30 57  1  0  0  0  0
 30 58  1  0  0  0  0
 30 59  1  0  0  0  0
M  END
> <PUBCHEM_COMPOUND_CID>
442162

> <PUBCHEM_CONFORMER_RMSD>
0.8

> <PUBCHEM_CONFORMER_DIVERSEORDER>
1
7
10
5
9
6
4
3
8
2

> <PUBCHEM_MMFF94_PARTIAL_CHARGES>
34
1 -0.56
10 -0.14
11 -0.14
12 0.27
13 -0.14
14 0.14
15 -0.14
16 0.7
17 0.27
18 -0.15
19 -0.15
2 -0.56
20 0.08
21 -0.15
22 0.08
23 -0.15
24 0.08
25 0.08
26 0.28
27 0.28
28 0.28
29 0.28
3 -0.36
30 0.28
4 -0.36
41 0.15
42 0.15
43 0.15
44 0.15
5 -0.36
6 -0.36
7 -0.81
8 0.41
9 0.42

> <PUBCHEM_EFFECTIVE_ROTOR_COUNT>
6

> <PUBCHEM_PHARMACOPHORE_FEATURES>
11
1 1 acceptor
1 2 acceptor
1 3 acceptor
1 4 acceptor
1 5 acceptor
1 6 acceptor
1 7 cation
6 1 8 9 10 13 16 rings
6 10 13 18 20 23 24 rings
6 11 15 19 21 22 25 rings
7 7 8 9 11 12 14 15 rings

> <PUBCHEM_HEAVY_ATOM_COUNT>
30

> <PUBCHEM_ATOM_DEF_STEREO_COUNT>
3

> <PUBCHEM_ATOM_UDEF_STEREO_COUNT>
0

> <PUBCHEM_BOND_DEF_STEREO_COUNT>
0

> <PUBCHEM_BOND_UDEF_STEREO_COUNT>
0

> <PUBCHEM_ISOTOPIC_ATOM_COUNT>
0

> <PUBCHEM_COMPONENT_COUNT>
1

> <PUBCHEM_CACTVS_TAUTO_COUNT>
1

> <PUBCHEM_CONFORMER_ID>
0006BF3200000001

> <PUBCHEM_MMFF94_ENERGY>
143.3878

> <PUBCHEM_FEATURE_SELFOVERLAP>
55.928

> <PUBCHEM_SHAPE_FINGERPRINT>
10165383 225 18201713011745884397
10366900 7 18342181068354990441
10693767 8 17968664920373439526
11112241 14 16951985946300344640
11763715 3 14996823482426884266
11961588 58 17989203741819078983
12011746 2 18409443674381936502
12107698 1 17967817167470912845
12236239 1 15647047153600599227
12403259 415 18408879625038206624
12422481 6 16772688778300759278
12788726 201 18118118297958489864
13402501 40 18410013212836353545
13540713 4 18048031870196482738
13617811 41 17989208140730741093
13668630 136 16660640756606899869
13911987 19 18116411718694540510
13944108 23 17186163609614685877
140371 6 18261381218615594912
14251757 17 18335697247737479946
14347329 18 18202559588175102100
14931854 50 18337950189964830957
17349148 13 14851603263194378533
173720 79 17560813125348745651
18608769 82 18200580424907544283
20645477 70 17530678823245992860
20775438 99 17245305962030739175
21033648 29 18412262835106985648
21279426 13 18337668749453515774
21521239 73 17749680601538990735
21792961 116 18339061758352225382
22122407 14 14764341665702132453
221357 26 18333454257366104573
22182313 1 18337375063784997474
22393880 68 18337114574376684551
23559900 14 18262230020264470616
23569914 152 16814599030620779476
3004659 81 18200870782019021430
3298306 158 18410858767279782234
350125 39 18341320150845374577
46194498 28 18187933837410792629
465052 167 6988318331064560950
508706 21 18340769239120982647
5104073 3 18058169604318557257
513532 50 18114477737718252826
5283173 99 18412259558099575716
9709674 26 18191023408938979675

> <PUBCHEM_SHAPE_MULTIPOLES>
577.19
13.11
3.43
1.65
3.03
0.6
0.24
4.78
7.7
1.32
-1.48
-1.36
-0.03
1.89

> <PUBCHEM_SHAPE_SELFOVERLAP>
1240.565

> <PUBCHEM_SHAPE_VOLUME>
318.1

> <PUBCHEM_COORDINATE_TYPE>
2
5
10

$$$$

