12749
  -OEChem-07051213133D

 12 12  0     0  0  0  0  0  0999 V2000
    0.0887    1.0945    0.0000 N   0  0  0  0  0  0  0  0  0  0  0  0
    0.0351   -1.1257   -0.0002 N   0  0  0  0  0  0  0  0  0  0  0  0
   -0.6900   -0.0293    0.0001 C   0  0  0  0  0  0  0  0  0  0  0  0
   -2.1622    0.0568    0.0000 C   0  0  0  0  0  0  0  0  0  0  0  0
    1.3935    0.6887   -0.0001 C   0  0  0  0  0  0  0  0  0  0  0  0
    1.3349   -0.6851    0.0002 C   0  0  0  0  0  0  0  0  0  0  0  0
   -0.2387    2.0516    0.0000 H   0  0  0  0  0  0  0  0  0  0  0  0
   -2.5198    0.5872    0.8880 H   0  0  0  0  0  0  0  0  0  0  0  0
   -2.5198    0.5862   -0.8887 H   0  0  0  0  0  0  0  0  0  0  0  0
   -2.6081   -0.9427    0.0006 H   0  0  0  0  0  0  0  0  0  0  0  0
    2.2144    1.3909   -0.0002 H   0  0  0  0  0  0  0  0  0  0  0  0
    2.1626   -1.3792    0.0003 H   0  0  0  0  0  0  0  0  0  0  0  0
  1  3  1  0  0  0  0
  1  5  1  0  0  0  0
  1  7  1  0  0  0  0
  2  3  2  0  0  0  0
  2  6  1  0  0  0  0
  3  4  1  0  0  0  0
  4  8  1  0  0  0  0
  4  9  1  0  0  0  0
  4 10  1  0  0  0  0
  5  6  2  0  0  0  0
  5 11  1  0  0  0  0
  6 12  1  0  0  0  0
M  END
> <PUBCHEM_COMPOUND_CID>
12749

> <PUBCHEM_CONFORMER_RMSD>
0.4

> <PUBCHEM_CONFORMER_DIVERSEORDER>
1

> <PUBCHEM_MMFF94_PARTIAL_CHARGES>
9
1 0.03
11 0.15
12 0.15
2 -0.57
3 0.01
4 0.18
5 -0.3
6 0.08
7 0.27

> <PUBCHEM_EFFECTIVE_ROTOR_COUNT>
0

> <PUBCHEM_PHARMACOPHORE_FEATURES>
3
1 1 donor
3 1 2 3 cation
5 1 2 3 5 6 rings

> <PUBCHEM_HEAVY_ATOM_COUNT>
6

> <PUBCHEM_ATOM_DEF_STEREO_COUNT>
0

> <PUBCHEM_ATOM_UDEF_STEREO_COUNT>
0

> <PUBCHEM_BOND_DEF_STEREO_COUNT>
0

> <PUBCHEM_BOND_UDEF_STEREO_COUNT>
0

> <PUBCHEM_ISOTOPIC_ATOM_COUNT>
0

> <PUBCHEM_COMPONENT_COUNT>
1

> <PUBCHEM_CACTVS_TAUTO_COUNT>
1

> <PUBCHEM_CONFORMER_ID>
000031CD00000001

> <PUBCHEM_MMFF94_ENERGY>
1.1184

> <PUBCHEM_FEATURE_SELFOVERLAP>
15.223

> <PUBCHEM_SHAPE_FINGERPRINT>
139733 1 9222931682479552003
20096714 4 18337953376762070153
21015797 1 9221785982921122410
21040471 1 18338516318141348644
29004967 10 18343577464742888153
5943 1 7400067194750402848

> <PUBCHEM_SHAPE_MULTIPOLES>
113.52
2.2
1.1
0.59
0.95
0.01
0
-0.06
0
-0.25
0
0
0
0

> <PUBCHEM_SHAPE_SELFOVERLAP>
230.072

> <PUBCHEM_SHAPE_VOLUME>
68.3

> <PUBCHEM_COORDINATE_TYPE>
2
5
10

$$$$

