5281422
  -OEChem-07051212572D

 79 81  0     1  0  0  0  0  0999 V2000
    4.3197   -2.0816    0.0000 O   0  0  0  0  0  0  0  0  0  0  0  0
    7.9806    0.0244    0.0000 O   0  0  0  0  0  0  0  0  0  0  0  0
    5.1414    1.0837    0.0000 O   0  0  0  0  0  0  0  0  0  0  0  0
    3.0413   -0.1211    0.0000 O   0  0  0  0  0  0  0  0  0  0  0  0
    8.6526   -2.1618    0.0000 O   0  0  0  0  0  0  0  0  0  0  0  0
    2.5967   -1.6495    0.0000 O   0  0  0  0  0  0  0  0  0  0  0  0
    9.0606   -1.3297    0.0000 O   0  0  0  0  0  0  0  0  0  0  0  0
    6.7020    1.8352    0.0000 O   0  0  0  0  0  0  0  0  0  0  0  0
    3.7193    1.4728    0.0000 O   0  0  0  0  0  0  0  0  0  0  0  0
    8.8821   -3.8785    0.0000 O   0  0  0  0  0  0  0  0  0  0  0  0
    6.9763   -1.5740    0.0000 C   0  0  1  0  0  0  0  0  0  0  0  0
    6.0753   -2.0079    0.0000 C   0  0  2  0  0  0  0  0  0  0  0  0
    4.9518   -0.5991    0.0000 C   0  0  1  0  0  0  0  0  0  0  0  0
    5.1743   -1.5740    0.0000 C   0  0  1  0  0  0  0  0  0  0  0  0
    7.1988   -0.5991    0.0000 C   0  0  2  0  0  0  0  0  0  0  0  0
    5.5753    0.1828    0.0000 C   0  0  2  0  0  0  0  0  0  0  0  0
    6.5753    0.1828    0.0000 C   0  0  0  0  0  0  0  0  0  0  0  0
    3.9615   -0.5125    0.0000 C   0  0  1  0  0  0  0  0  0  0  0  0
    7.6614   -2.2943    0.0000 C   0  0  1  0  0  0  0  0  0  0  0  0
    6.2113   -2.9926    0.0000 C   0  0  0  0  0  0  0  0  0  0  0  0
    7.1896   -3.1693    0.0000 C   0  0  0  0  0  0  0  0  0  0  0  0
    8.1737   -0.8216    0.0000 C   0  0  0  0  0  0  0  0  0  0  0  0
    3.5716   -1.4270    0.0000 C   0  0  0  0  0  0  0  0  0  0  0  0
    4.0494    0.4836    0.0000 C   0  0  0  0  0  0  0  0  0  0  0  0
    5.4897   -3.6849    0.0000 C   0  0  0  0  0  0  0  0  0  0  0  0
    8.9115   -0.3409    0.0000 C   0  0  0  0  0  0  0  0  0  0  0  0
    5.7048    1.9100    0.0000 C   0  0  0  0  0  0  0  0  0  0  0  0
    2.9202    0.8715    0.0000 C   0  0  0  0  0  0  0  0  0  0  0  0
    9.2629   -2.9539    0.0000 C   0  0  0  0  0  0  0  0  0  0  0  0
    5.2709    2.8110    0.0000 C   0  0  3  0  0  0  0  0  0  0  0  0
    9.6934    0.2826    0.0000 C   0  0  0  0  0  0  0  0  0  0  0  0
    2.0000    1.2630    0.0000 C   0  0  0  0  0  0  0  0  0  0  0  0
   10.2541   -2.8214    0.0000 C   0  0  0  0  0  0  0  0  0  0  0  0
    5.8342    3.6372    0.0000 C   0  0  0  0  0  0  0  0  0  0  0  0
    4.2737    2.8857    0.0000 C   0  0  0  0  0  0  0  0  0  0  0  0
   10.6349   -1.8967    0.0000 C   0  0  0  0  0  0  0  0  0  0  0  0
    5.4003    4.5382    0.0000 C   0  0  0  0  0  0  0  0  0  0  0  0
   10.8645   -3.6135    0.0000 C   0  0  0  0  0  0  0  0  0  0  0  0
   10.4836   -4.5382    0.0000 C   0  0  0  0  0  0  0  0  0  0  0  0
    7.7960   -1.3489    0.0000 H   0  0  0  0  0  0  0  0  0  0  0  0
    5.3883   -2.5084    0.0000 H   0  0  0  0  0  0  0  0  0  0  0  0
    4.6167    0.1821    0.0000 H   0  0  0  0  0  0  0  0  0  0  0  0
    5.2114   -2.4232    0.0000 H   0  0  0  0  0  0  0  0  0  0  0  0
    4.9592    0.2522    0.0000 H   0  0  0  0  0  0  0  0  0  0  0  0
    7.1339    0.4518    0.0000 H   0  0  0  0  0  0  0  0  0  0  0  0
    6.4374    0.7872    0.0000 H   0  0  0  0  0  0  0  0  0  0  0  0
    7.8674   -1.7095    0.0000 H   0  0  0  0  0  0  0  0  0  0  0  0
    7.4586   -3.7279    0.0000 H   0  0  0  0  0  0  0  0  0  0  0  0
    8.0358   -1.4260    0.0000 H   0  0  0  0  0  0  0  0  0  0  0  0
    8.7782   -0.9595    0.0000 H   0  0  0  0  0  0  0  0  0  0  0  0
    8.3117   -0.2171    0.0000 H   0  0  0  0  0  0  0  0  0  0  0  0
    4.6670    0.4291    0.0000 H   0  0  0  0  0  0  0  0  0  0  0  0
    4.1040    1.1012    0.0000 H   0  0  0  0  0  0  0  0  0  0  0  0
    3.4318    0.5381    0.0000 H   0  0  0  0  0  0  0  0  0  0  0  0
    5.0605   -3.2375    0.0000 H   0  0  0  0  0  0  0  0  0  0  0  0
    5.0423   -4.1142    0.0000 H   0  0  0  0  0  0  0  0  0  0  0  0
    5.9190   -4.1323    0.0000 H   0  0  0  0  0  0  0  0  0  0  0  0
    4.7920    2.1086    0.0000 H   0  0  0  0  0  0  0  0  0  0  0  0
   10.0799   -0.2022    0.0000 H   0  0  0  0  0  0  0  0  0  0  0  0
   10.1781    0.6691    0.0000 H   0  0  0  0  0  0  0  0  0  0  0  0
    9.3068    0.7673    0.0000 H   0  0  0  0  0  0  0  0  0  0  0  0
    2.2427    1.8335    0.0000 H   0  0  0  0  0  0  0  0  0  0  0  0
    1.4295    1.5057    0.0000 H   0  0  0  0  0  0  0  0  0  0  0  0
    1.7573    0.6925    0.0000 H   0  0  0  0  0  0  0  0  0  0  0  0
    6.2780    3.2043    0.0000 H   0  0  0  0  0  0  0  0  0  0  0  0
    6.3376    3.9991    0.0000 H   0  0  0  0  0  0  0  0  0  0  0  0
    4.3200    3.5039    0.0000 H   0  0  0  0  0  0  0  0  0  0  0  0
    3.6554    2.9320    0.0000 H   0  0  0  0  0  0  0  0  0  0  0  0
    4.2273    2.2674    0.0000 H   0  0  0  0  0  0  0  0  0  0  0  0
   11.2082   -2.1328    0.0000 H   0  0  0  0  0  0  0  0  0  0  0  0
   10.8710   -1.3234    0.0000 H   0  0  0  0  0  0  0  0  0  0  0  0
   10.0617   -1.6606    0.0000 H   0  0  0  0  0  0  0  0  0  0  0  0
    5.9589    4.8072    0.0000 H   0  0  0  0  0  0  0  0  0  0  0  0
    5.1313    5.0968    0.0000 H   0  0  0  0  0  0  0  0  0  0  0  0
    4.8417    4.2692    0.0000 H   0  0  0  0  0  0  0  0  0  0  0  0
   11.4790   -3.5314    0.0000 H   0  0  0  0  0  0  0  0  0  0  0  0
    9.9104   -4.3020    0.0000 H   0  0  0  0  0  0  0  0  0  0  0  0
   10.2475   -5.1114    0.0000 H   0  0  0  0  0  0  0  0  0  0  0  0
   11.0569   -4.7743    0.0000 H   0  0  0  0  0  0  0  0  0  0  0  0
  1 14  1  0  0  0  0
  1 23  1  0  0  0  0
 15  2  1  6  0  0  0
  2 26  1  0  0  0  0
 16  3  1  1  0  0  0
  3 27  1  0  0  0  0
 18  4  1  1  0  0  0
  4 28  1  0  0  0  0
 19  5  1  6  0  0  0
  5 29  1  0  0  0  0
  6 23  2  0  0  0  0
  7 26  2  0  0  0  0
  8 27  2  0  0  0  0
  9 28  2  0  0  0  0
 10 29  2  0  0  0  0
 11 12  1  0  0  0  0
 11 15  1  0  0  0  0
 11 19  1  0  0  0  0
 11 40  1  6  0  0  0
 12 14  1  0  0  0  0
 12 20  1  0  0  0  0
 12 41  1  6  0  0  0
 13 14  1  0  0  0  0
 13 16  1  0  0  0  0
 13 18  1  0  0  0  0
 13 42  1  1  0  0  0
 14 43  1  1  0  0  0
 15 17  1  0  0  0  0
 15 22  1  0  0  0  0
 16 17  1  0  0  0  0
 16 44  1  0  0  0  0
 17 45  1  0  0  0  0
 17 46  1  0  0  0  0
 18 23  1  0  0  0  0
 18 24  1  0  0  0  0
 19 21  1  0  0  0  0
 19 47  1  0  0  0  0
 20 21  2  0  0  0  0
 20 25  1  0  0  0  0
 21 48  1  0  0  0  0
 22 49  1  0  0  0  0
 22 50  1  0  0  0  0
 22 51  1  0  0  0  0
 24 52  1  0  0  0  0
 24 53  1  0  0  0  0
 24 54  1  0  0  0  0
 25 55  1  0  0  0  0
 25 56  1  0  0  0  0
 25 57  1  0  0  0  0
 26 31  1  0  0  0  0
 27 30  1  0  0  0  0
 28 32  1  0  0  0  0
 29 33  1  0  0  0  0
 30 34  1  0  0  0  0
 30 35  1  0  0  0  0
 30 58  1  0  0  0  0
 31 59  1  0  0  0  0
 31 60  1  0  0  0  0
 31 61  1  0  0  0  0
 32 62  1  0  0  0  0
 32 63  1  0  0  0  0
 32 64  1  0  0  0  0
 33 36  1  0  0  0  0
 33 38  2  0  0  0  0
 34 37  1  0  0  0  0
 34 65  1  0  0  0  0
 34 66  1  0  0  0  0
 35 67  1  0  0  0  0
 35 68  1  0  0  0  0
 35 69  1  0  0  0  0
 36 70  1  0  0  0  0
 36 71  1  0  0  0  0
 36 72  1  0  0  0  0
 37 73  1  0  0  0  0
 37 74  1  0  0  0  0
 37 75  1  0  0  0  0
 38 39  1  0  0  0  0
 38 76  1  0  0  0  0
 39 77  1  0  0  0  0
 39 78  1  0  0  0  0
 39 79  1  0  0  0  0
M  END
> <PUBCHEM_COMPOUND_CID>
5281422

> <PUBCHEM_COMPOUND_CANONICALIZED>
1

> <PUBCHEM_CACTVS_COMPLEXITY>
1110

> <PUBCHEM_CACTVS_HBOND_ACCEPTOR>
10

> <PUBCHEM_CACTVS_HBOND_DONOR>
0

> <PUBCHEM_CACTVS_ROTATABLE_BOND>
11

> <PUBCHEM_CACTVS_SUBSKEYS>
AAADcfB4PAAAAAAAAAAAAAAAAAAAASIAAAAAAAAABgAAAACQAAAAGgAAAAAADVSggAICCAAABACIAiDSCAIAAAAgAAAACAFAAEgBBBIAIQQCEAAFwAAKIYPK6PyOgAAAAAAAAAAAAAAAAAAAAAAAAAAAAA==

> <PUBCHEM_IUPAC_OPENEYE_NAME>
[(3S,3aR,4S,6S,6aR,7R,9aS,9bS)-3,6-diacetoxy-3,6,9-trimethyl-7-[(Z)-2-methylbut-2-enoyl]oxy-2-oxo-4,5,6a,7,9a,9b-hexahydro-3aH-azuleno[4,5-b]furan-4-yl] 2-methylbutanoate

> <PUBCHEM_IUPAC_CAS_NAME>
2-methylbutanoic acid [(3S,3aR,4S,6S,6aR,7R,9aS,9bS)-3,6-diacetyloxy-3,6,9-trimethyl-7-[(Z)-2-methyl-1-oxobut-2-enoxy]-2-oxo-4,5,6a,7,9a,9b-hexahydro-3aH-azuleno[4,5-b]furan-4-yl] ester

> <PUBCHEM_IUPAC_NAME>
[(3S,3aR,4S,6S,6aR,7R,9aS,9bS)-3,6-diacetyloxy-3,6,9-trimethyl-7-[(Z)-2-methylbut-2-enoyl]oxy-2-oxo-4,5,6a,7,9a,9b-hexahydro-3aH-azuleno[4,5-b]furan-4-yl] 2-methylbutanoate

> <PUBCHEM_IUPAC_SYSTEMATIC_NAME>
[(3S,3aR,4S,6S,6aR,7R,9aS,9bS)-3,6-diacetyloxy-3,6,9-trimethyl-7-[(Z)-2-methylbut-2-enoyl]oxy-2-oxidanylidene-4,5,6a,7,9a,9b-hexahydro-3aH-azuleno[4,5-b]furan-4-yl] 2-methylbutanoate

> <PUBCHEM_IUPAC_TRADITIONAL_NAME>
2-methylbutyric acid [(3S,3aR,4S,6S,6aR,7R,9aS,9bS)-3,6-diacetoxy-2-keto-3,6,9-trimethyl-7-[(Z)-2-methylbut-2-enoyl]oxy-4,5,6a,7,9a,9b-hexahydro-3aH-azuleno[4,5-b]furan-4-yl] ester

> <PUBCHEM_IUPAC_INCHI>
InChI=1S/C29H40O10/c1-10-14(3)25(32)35-19-12-16(5)21-22(19)28(8,38-17(6)30)13-20(36-26(33)15(4)11-2)23-24(21)37-27(34)29(23,9)39-18(7)31/h10,12,15,19-24H,11,13H2,1-9H3/b14-10-/t15?,19-,20+,21-,22+,23-,24+,28+,29+/m1/s1

> <PUBCHEM_IUPAC_INCHIKEY>
VIFTUZUHQDHAIL-RDSILWCTSA-N

> <PUBCHEM_XLOGP3_AA>
3.8

> <PUBCHEM_EXACT_MASS>
548.262147

> <PUBCHEM_MOLECULAR_FORMULA>
C29H40O10

> <PUBCHEM_MOLECULAR_WEIGHT>
548.6219

> <PUBCHEM_OPENEYE_CAN_SMILES>
CCC(C)C(=O)OC1CC(C2C(C=C(C2C3C1C(C(=O)O3)(C)OC(=O)C)C)OC(=O)C(=CC)C)(C)OC(=O)C

> <PUBCHEM_OPENEYE_ISO_SMILES>
CCC(C)C(=O)O[C@H]1C[C@]([C@H]2[C@@H](C=C([C@H]2[C@H]3[C@@H]1[C@](C(=O)O3)(C)OC(=O)C)C)OC(=O)/C(=C\C)/C)(C)OC(=O)C

> <PUBCHEM_CACTVS_TPSA>
132

> <PUBCHEM_MONOISOTOPIC_WEIGHT>
548.262147

> <PUBCHEM_TOTAL_CHARGE>
0

> <PUBCHEM_HEAVY_ATOM_COUNT>
39

> <PUBCHEM_ATOM_DEF_STEREO_COUNT>
8

> <PUBCHEM_ATOM_UDEF_STEREO_COUNT>
1

> <PUBCHEM_BOND_DEF_STEREO_COUNT>
1

> <PUBCHEM_BOND_UDEF_STEREO_COUNT>
0

> <PUBCHEM_ISOTOPIC_ATOM_COUNT>
0

> <PUBCHEM_COMPONENT_COUNT>
1

> <PUBCHEM_CACTVS_TAUTO_COUNT>
1

> <PUBCHEM_COORDINATE_TYPE>
1
5
255

> <PUBCHEM_BONDANNOTATIONS>
11  40  6
12  41  6
13  42  5
14  43  5
15  2  6
16  3  5
30  58  3
18  4  5
19  5  6

$$$$

