19236
  -OEChem-07051212453D

 32 34  0     1  0  0  0  0  0999 V2000
   -3.7914    0.6402    0.5289 P   0  0  2  0  0  0  0  0  0  0  0  0
   -0.2139   -0.5460   -1.5993 O   0  0  0  0  0  0  0  0  0  0  0  0
   -2.6538   -0.4257    1.0038 O   0  0  0  0  0  0  0  0  0  0  0  0
   -3.6460    0.7087   -1.0892 O   0  0  0  0  0  0  0  0  0  0  0  0
   -0.9559   -2.6559    0.6227 O   0  0  0  0  0  0  0  0  0  0  0  0
   -3.2134    2.0677    1.0297 O   0  0  0  0  0  0  0  0  0  0  0  0
   -5.1733    0.3304    1.0263 O   0  0  0  0  0  0  0  0  0  0  0  0
    3.0800   -2.1681    0.2312 O   0  0  0  0  0  0  0  0  0  0  0  0
    1.7034   -0.3845   -0.2682 N   0  0  0  0  0  0  0  0  0  0  0  0
    4.0078   -0.1023    0.3851 N   0  0  0  0  0  0  0  0  0  0  0  0
    4.9520    2.0170    0.5428 N   0  0  0  0  0  0  0  0  0  0  0  0
   -1.3971   -0.2892    0.3808 C   0  0  2  0  0  0  0  0  0  0  0  0
   -1.5507   -0.4297   -1.1181 C   0  0  1  0  0  0  0  0  0  0  0  0
   -0.3682   -1.3592    0.6599 C   0  0  2  0  0  0  0  0  0  0  0  0
    0.5544   -1.1991   -0.5569 C   0  0  1  0  0  0  0  0  0  0  0  0
   -2.3428    0.7355   -1.6749 C   0  0  0  0  0  0  0  0  0  0  0  0
    1.5862    0.9919   -0.3772 C   0  0  0  0  0  0  0  0  0  0  0  0
    2.9434   -0.9481    0.1233 C   0  0  0  0  0  0  0  0  0  0  0  0
    2.5974    1.8220   -0.1285 C   0  0  0  0  0  0  0  0  0  0  0  0
    3.8817    1.1944    0.2777 C   0  0  0  0  0  0  0  0  0  0  0  0
   -0.9833    0.6865    0.6581 H   0  0  0  0  0  0  0  0  0  0  0  0
   -2.0912   -1.3549   -1.3633 H   0  0  0  0  0  0  0  0  0  0  0  0
    0.1340   -1.2470    1.6254 H   0  0  0  0  0  0  0  0  0  0  0  0
    0.8799   -2.1715   -0.9436 H   0  0  0  0  0  0  0  0  0  0  0  0
   -1.8649    1.6986   -1.4672 H   0  0  0  0  0  0  0  0  0  0  0  0
   -2.4436    0.6509   -2.7613 H   0  0  0  0  0  0  0  0  0  0  0  0
   -1.6376   -2.6831    1.3158 H   0  0  0  0  0  0  0  0  0  0  0  0
    0.6377    1.4154   -0.6796 H   0  0  0  0  0  0  0  0  0  0  0  0
   -3.7939    2.8568    0.9815 H   0  0  0  0  0  0  0  0  0  0  0  0
    2.5146    2.8973   -0.2126 H   0  0  0  0  0  0  0  0  0  0  0  0
    4.8858    3.0267    0.4678 H   0  0  0  0  0  0  0  0  0  0  0  0
    5.8478    1.6320    0.8226 H   0  0  0  0  0  0  0  0  0  0  0  0
  1  3  1  0  0  0  0
  1  4  1  0  0  0  0
  1  6  1  0  0  0  0
  1  7  2  0  0  0  0
  2 13  1  0  0  0  0
  2 15  1  0  0  0  0
  3 12  1  0  0  0  0
  4 16  1  0  0  0  0
  5 14  1  0  0  0  0
  5 27  1  0  0  0  0
  6 29  1  0  0  0  0
  8 18  2  0  0  0  0
  9 15  1  0  0  0  0
  9 17  1  0  0  0  0
  9 18  1  0  0  0  0
 10 18  1  0  0  0  0
 10 20  2  0  0  0  0
 11 20  1  0  0  0  0
 11 31  1  0  0  0  0
 11 32  1  0  0  0  0
 12 13  1  0  0  0  0
 12 14  1  0  0  0  0
 12 21  1  0  0  0  0
 13 16  1  0  0  0  0
 13 22  1  0  0  0  0
 14 15  1  0  0  0  0
 14 23  1  0  0  0  0
 15 24  1  0  0  0  0
 16 25  1  0  0  0  0
 16 26  1  0  0  0  0
 17 19  2  0  0  0  0
 17 28  1  0  0  0  0
 19 20  1  0  0  0  0
 19 30  1  0  0  0  0
M  END
> <PUBCHEM_COMPOUND_CID>
19236

> <PUBCHEM_CONFORMER_RMSD>
0.6

> <PUBCHEM_CONFORMER_DIVERSEORDER>
1
5
7
3
4
6
2

> <PUBCHEM_MMFF94_PARTIAL_CHARGES>
26
1 1.51
10 -0.66
11 -0.85
12 0.28
13 0.28
14 0.28
15 0.58
16 0.28
17 -0.04
18 0.84
19 -0.14
2 -0.56
20 0.49
27 0.4
28 0.15
29 0.5
3 -0.55
30 0.15
31 0.4
32 0.4
4 -0.55
5 -0.68
6 -0.77
7 -0.7
8 -0.57
9 -0.47

> <PUBCHEM_EFFECTIVE_ROTOR_COUNT>
2.2

> <PUBCHEM_PHARMACOPHORE_FEATURES>
11
1 10 donor
1 11 donor
1 2 acceptor
1 5 acceptor
1 5 donor
1 6 acceptor
1 7 acceptor
1 8 acceptor
5 2 12 13 14 15 rings
6 1 3 4 12 13 16 rings
6 9 10 17 18 19 20 rings

> <PUBCHEM_HEAVY_ATOM_COUNT>
20

> <PUBCHEM_ATOM_DEF_STEREO_COUNT>
4

> <PUBCHEM_ATOM_UDEF_STEREO_COUNT>
0

> <PUBCHEM_BOND_DEF_STEREO_COUNT>
0

> <PUBCHEM_BOND_UDEF_STEREO_COUNT>
0

> <PUBCHEM_ISOTOPIC_ATOM_COUNT>
0

> <PUBCHEM_COMPONENT_COUNT>
1

> <PUBCHEM_CACTVS_TAUTO_COUNT>
3

> <PUBCHEM_CONFORMER_ID>
00004B2400000001

> <PUBCHEM_MMFF94_ENERGY>
43.9281

> <PUBCHEM_FEATURE_SELFOVERLAP>
55.963

> <PUBCHEM_SHAPE_FINGERPRINT>
11046707 91 11527955555604672192
11132069 177 17632574959585827263
11640471 11 17458343056744738818
12236239 1 17676209078054004935
12251169 10 18130501942354564174
12390115 104 18052811452313300324
12403259 415 18131068285727879437
12507560 40 17989490744333965772
12633257 1 17631737054379413384
12788726 201 17607831420728624510
12892183 10 18342167877998741201
13140716 1 18124597479494726104
13583140 156 15984564224883301028
13675066 3 17846780732092118254
14178342 30 18127695937732099458
14341114 328 18186792604865958889
14787075 74 18334012753612214579
15219456 202 18202568392683693350
15309172 13 18272655666274734767
15342168 16 18340198596670345813
15653759 3 17275386525063982845
15775835 57 17894349968849358096
16945 1 18262800799289437294
1813 80 17389931585558341038
18186145 218 18409730698482838774
18219364 16 18059586805480901221
19049666 15 17701552924417318038
19784866 170 18130790023719223316
19784866 240 11815905556243757160
19862831 5 13912317984350001414
20645477 56 18131359578910099460
20871999 31 15068630353211347573
21033648 29 17988374735795354557
21524375 3 18334294266716110047
22079108 93 18409164390387095035
22854114 59 18202844366034040509
23184049 59 18341050804249646278
23559900 14 16557630926573524098
465052 167 12463277103921376337
474 4 18334577966280138635
4921388 177 14707209868743858221
5104073 3 18269284478309892082
602551 16 16128650838805474472
633830 44 18187924053237687911
69090 78 18343868788243586859
81228 2 17630042646599645555
83771 10 10231758889773623479
90316 7 14836131008614355911

> <PUBCHEM_SHAPE_MULTIPOLES>
359.41
8.69
2.1
1.21
0.6
0.38
0.36
-4.48
-2.48
1.23
-0.44
-1.16
-0.12
0.1

> <PUBCHEM_SHAPE_SELFOVERLAP>
759.281

> <PUBCHEM_SHAPE_VOLUME>
202

> <PUBCHEM_COORDINATE_TYPE>
2
5
10

$$$$

