11953946
  -OEChem-07051212592D

 61 65  0     1  0  0  0  0  0999 V2000
    6.0843    2.2965    0.0000 O   0  0  0  0  0  0  0  0  0  0  0  0
    2.2910   -1.8859    0.0000 O   0  0  0  0  0  0  0  0  0  0  0  0
    7.5462    2.9549    0.0000 O   0  0  0  0  0  0  0  0  0  0  0  0
    3.6106   -3.3143    0.0000 O   0  0  0  0  0  0  0  0  0  0  0  0
    6.2565   -3.2469    0.0000 O   0  0  0  0  0  0  0  0  0  0  0  0
    3.3849    1.9837    0.0000 N   0  0  3  0  0  0  0  0  0  0  0  0
    4.2509    2.4837    0.0000 C   0  0  1  0  0  0  0  0  0  0  0  0
    5.1170    1.9837    0.0000 C   0  0  1  0  0  0  0  0  0  0  0  0
    4.2509    0.4837    0.0000 C   0  0  1  0  0  0  0  0  0  0  0  0
    3.3849    0.9837    0.0000 C   0  0  0  0  0  0  0  0  0  0  0  0
    5.1170    0.9837    0.0000 C   0  0  0  0  0  0  0  0  0  0  0  0
    4.2670    3.5252    0.0000 C   0  0  0  0  0  0  0  0  0  0  0  0
    2.4749    2.4906    0.0000 C   0  0  0  0  0  0  0  0  0  0  0  0
    3.3690    4.0530    0.0000 C   0  0  0  0  0  0  0  0  0  0  0  0
    2.4669    3.5322    0.0000 C   0  0  0  0  0  0  0  0  0  0  0  0
    4.4638   -0.5103    0.0000 C   0  0  0  0  0  0  0  0  0  0  0  0
    5.1536   -1.2571    0.0000 C   0  0  0  0  0  0  0  0  0  0  0  0
    3.5374   -0.7437    0.0000 C   0  0  0  0  0  0  0  0  0  0  0  0
    7.0759    2.0724    0.0000 C   0  0  0  0  0  0  0  0  0  0  0  0
    4.8477   -2.1621    0.0000 C   0  0  0  0  0  0  0  0  0  0  0  0
    6.1278   -1.5478    0.0000 C   0  0  0  0  0  0  0  0  0  0  0  0
    3.2650   -1.6595    0.0000 C   0  0  0  0  0  0  0  0  0  0  0  0
    3.9133   -2.3612    0.0000 C   0  0  0  0  0  0  0  0  0  0  0  0
    7.8148    1.3742    0.0000 C   0  0  0  0  0  0  0  0  0  0  0  0
    7.1140   -1.3014    0.0000 C   0  0  0  0  0  0  0  0  0  0  0  0
    6.7028   -2.3520    0.0000 C   0  0  0  0  0  0  0  0  0  0  0  0
    7.8370   -0.5866    0.0000 C   0  0  0  0  0  0  0  0  0  0  0  0
    8.0945    0.3968    0.0000 C   0  0  0  0  0  0  0  0  0  0  0  0
    7.6911   -2.3275    0.0000 C   0  0  0  0  0  0  0  0  0  0  0  0
    8.2254   -1.4957    0.0000 C   0  0  0  0  0  0  0  0  0  0  0  0
    2.0000   -2.8426    0.0000 C   0  0  0  0  0  0  0  0  0  0  0  0
    4.2846   -4.0530    0.0000 C   0  0  0  0  0  0  0  0  0  0  0  0
    4.7973    3.1349    0.0000 H   0  0  0  0  0  0  0  0  0  0  0  0
    5.4902    2.7474    0.0000 H   0  0  0  0  0  0  0  0  0  0  0  0
    3.5637   -0.0164    0.0000 H   0  0  0  0  0  0  0  0  0  0  0  0
    2.7743    1.0914    0.0000 H   0  0  0  0  0  0  0  0  0  0  0  0
    3.1729    0.4011    0.0000 H   0  0  0  0  0  0  0  0  0  0  0  0
    5.3290    0.4011    0.0000 H   0  0  0  0  0  0  0  0  0  0  0  0
    5.7276    1.0914    0.0000 H   0  0  0  0  0  0  0  0  0  0  0  0
    4.8762    3.4098    0.0000 H   0  0  0  0  0  0  0  0  0  0  0  0
    4.4850    4.1056    0.0000 H   0  0  0  0  0  0  0  0  0  0  0  0
    1.8633    2.5920    0.0000 H   0  0  0  0  0  0  0  0  0  0  0  0
    2.2704    1.9053    0.0000 H   0  0  0  0  0  0  0  0  0  0  0  0
    3.7699    4.5259    0.0000 H   0  0  0  0  0  0  0  0  0  0  0  0
    2.9717    4.5290    0.0000 H   0  0  0  0  0  0  0  0  0  0  0  0
    2.2534    4.1142    0.0000 H   0  0  0  0  0  0  0  0  0  0  0  0
    1.8569    3.4214    0.0000 H   0  0  0  0  0  0  0  0  0  0  0  0
    3.1083   -0.2962    0.0000 H   0  0  0  0  0  0  0  0  0  0  0  0
    5.2600   -2.6252    0.0000 H   0  0  0  0  0  0  0  0  0  0  0  0
    8.3446    1.6962    0.0000 H   0  0  0  0  0  0  0  0  0  0  0  0
    7.4180   -1.8418    0.0000 H   0  0  0  0  0  0  0  0  0  0  0  0
    8.7145    0.4038    0.0000 H   0  0  0  0  0  0  0  0  0  0  0  0
    7.9950   -2.8679    0.0000 H   0  0  0  0  0  0  0  0  0  0  0  0
    8.8433   -1.5475    0.0000 H   0  0  0  0  0  0  0  0  0  0  0  0
    1.4068   -2.6622    0.0000 H   0  0  0  0  0  0  0  0  0  0  0  0
    1.8196   -3.4358    0.0000 H   0  0  0  0  0  0  0  0  0  0  0  0
    2.5932   -3.0230    0.0000 H   0  0  0  0  0  0  0  0  0  0  0  0
    6.5986   -3.7640    0.0000 H   0  0  0  0  0  0  0  0  0  0  0  0
    3.8267   -4.4709    0.0000 H   0  0  0  0  0  0  0  0  0  0  0  0
    4.7025   -4.5110    0.0000 H   0  0  0  0  0  0  0  0  0  0  0  0
    4.7426   -3.6351    0.0000 H   0  0  0  0  0  0  0  0  0  0  0  0
  1  8  1  0  0  0  0
  1 19  1  0  0  0  0
  2 22  1  0  0  0  0
  2 31  1  0  0  0  0
  3 19  2  0  0  0  0
  4 23  1  0  0  0  0
  4 32  1  0  0  0  0
  5 26  1  0  0  0  0
  5 58  1  0  0  0  0
  6  7  1  0  0  0  0
  6 10  1  0  0  0  0
  6 13  1  0  0  0  0
  7  8  1  0  0  0  0
  7 12  1  0  0  0  0
  7 33  1  1  0  0  0
  8 11  1  0  0  0  0
  8 34  1  1  0  0  0
  9 10  1  0  0  0  0
  9 11  1  0  0  0  0
  9 16  1  0  0  0  0
  9 35  1  6  0  0  0
 10 36  1  0  0  0  0
 10 37  1  0  0  0  0
 11 38  1  0  0  0  0
 11 39  1  0  0  0  0
 12 14  1  0  0  0  0
 12 40  1  0  0  0  0
 12 41  1  0  0  0  0
 13 15  1  0  0  0  0
 13 42  1  0  0  0  0
 13 43  1  0  0  0  0
 14 15  1  0  0  0  0
 14 44  1  0  0  0  0
 14 45  1  0  0  0  0
 15 46  1  0  0  0  0
 15 47  1  0  0  0  0
 16 17  1  0  0  0  0
 16 18  2  0  0  0  0
 17 20  2  0  0  0  0
 17 21  1  0  0  0  0
 18 22  1  0  0  0  0
 18 48  1  0  0  0  0
 19 24  1  0  0  0  0
 20 23  1  0  0  0  0
 20 49  1  0  0  0  0
 21 25  1  0  0  0  0
 21 26  2  0  0  0  0
 22 23  2  0  0  0  0
 24 28  2  0  0  0  0
 24 50  1  0  0  0  0
 25 27  2  0  0  0  0
 25 51  1  0  0  0  0
 26 29  1  0  0  0  0
 27 28  1  0  0  0  0
 27 30  1  0  0  0  0
 28 52  1  0  0  0  0
 29 30  2  0  0  0  0
 29 53  1  0  0  0  0
 30 54  1  0  0  0  0
 31 55  1  0  0  0  0
 31 56  1  0  0  0  0
 31 57  1  0  0  0  0
 32 59  1  0  0  0  0
 32 60  1  0  0  0  0
 32 61  1  0  0  0  0
M  END
> <PUBCHEM_COMPOUND_CID>
11953946

> <PUBCHEM_COMPOUND_CANONICALIZED>
1

> <PUBCHEM_CACTVS_COMPLEXITY>
698

> <PUBCHEM_CACTVS_HBOND_ACCEPTOR>
6

> <PUBCHEM_CACTVS_HBOND_DONOR>
1

> <PUBCHEM_CACTVS_ROTATABLE_BOND>
2

> <PUBCHEM_CACTVS_SUBSKEYS>
AAADceB6OAAAAAAAAAAAAAAAAAAAAAAAAAA8eIEAAAAAAACxQAAAHgAACAAADTzhmAYyDoMABgCIAiDSCAACCAAgIAAIiAAOiMgPJiKGsRuHcCIkwBGauYew8P4OoAADAAAYQABAAAYAADCAAAAAAAAAAA==

> <PUBCHEM_IUPAC_INCHI>
InChI=1S/C26H29NO5/c1-30-24-13-18-17-12-23(21-5-3-4-10-27(21)15-17)32-26(29)9-7-16-6-8-22(28)20(11-16)19(18)14-25(24)31-2/h6-9,11,13-14,17,21,23,28H,3-5,10,12,15H2,1-2H3/b9-7-/t17-,21-,23-/m1/s1

> <PUBCHEM_IUPAC_INCHIKEY>
UBSAECZDGDZVCX-CZRXUGQMSA-N

> <PUBCHEM_XLOGP3_AA>
4.5

> <PUBCHEM_EXACT_MASS>
435.204573

> <PUBCHEM_MOLECULAR_FORMULA>
C26H29NO5

> <PUBCHEM_MOLECULAR_WEIGHT>
435.51216

> <PUBCHEM_OPENEYE_CAN_SMILES>
COC1=C(C=C2C(=C1)C3CC(C4CCCCN4C3)OC(=O)C=CC5=CC2=C(C=C5)O)OC

> <PUBCHEM_OPENEYE_ISO_SMILES>
COC1=C(C=C2C(=C1)[C@@H]3C[C@H]([C@H]4CCCCN4C3)OC(=O)/C=C\C5=CC2=C(C=C5)O)OC

> <PUBCHEM_CACTVS_TPSA>
68.2

> <PUBCHEM_MONOISOTOPIC_WEIGHT>
435.204573

> <PUBCHEM_TOTAL_CHARGE>
0

> <PUBCHEM_HEAVY_ATOM_COUNT>
32

> <PUBCHEM_ATOM_DEF_STEREO_COUNT>
3

> <PUBCHEM_ATOM_UDEF_STEREO_COUNT>
0

> <PUBCHEM_BOND_DEF_STEREO_COUNT>
1

> <PUBCHEM_BOND_UDEF_STEREO_COUNT>
0

> <PUBCHEM_ISOTOPIC_ATOM_COUNT>
0

> <PUBCHEM_COMPONENT_COUNT>
1

> <PUBCHEM_CACTVS_TAUTO_COUNT>
2

> <PUBCHEM_COORDINATE_TYPE>
1
5
255

> <PUBCHEM_BONDANNOTATIONS>
16  17  8
16  18  8
17  20  8
18  22  8
20  23  8
21  25  8
21  26  8
22  23  8
25  27  8
26  29  8
27  30  8
29  30  8
7  33  5
8  34  5
9  35  6

$$$$

