3721046
  -OEChem-07051213043D

 21 22  0     0  0  0  0  0  0999 V2000
    4.2551    1.3646    0.0004 O   0  0  0  0  0  0  0  0  0  0  0  0
    4.3332   -1.2825    0.0017 O   0  0  0  0  0  0  0  0  0  0  0  0
   -2.8802    2.5217    0.0005 O   0  5  0  0  0  0  0  0  0  0  0  0
   -3.9680    0.6149    0.0001 O   0  0  0  0  0  0  0  0  0  0  0  0
    1.9450    1.3583   -0.0001 N   0  0  0  0  0  0  0  0  0  0  0  0
    2.0269   -1.4124   -0.0008 N   0  0  0  0  0  0  0  0  0  0  0  0
   -2.8996    1.2691    0.0003 N   0  3  0  0  0  0  0  0  0  0  0  0
   -3.7925   -2.2458    0.0012 N   0  0  0  0  0  0  0  0  0  0  0  0
    0.7484    0.6324   -0.0007 C   0  0  0  0  0  0  0  0  0  0  0  0
    0.7894   -0.7586   -0.0012 C   0  0  0  0  0  0  0  0  0  0  0  0
   -0.4772    1.2999   -0.0003 C   0  0  0  0  0  0  0  0  0  0  0  0
   -0.3946   -1.4972   -0.0015 C   0  0  0  0  0  0  0  0  0  0  0  0
   -1.6625    0.5634    0.0000 C   0  0  0  0  0  0  0  0  0  0  0  0
   -1.6212   -0.8321   -0.0005 C   0  0  0  0  0  0  0  0  0  0  0  0
    3.1878    0.7637    0.0001 C   0  0  0  0  0  0  0  0  0  0  0  0
    3.2323   -0.7455    0.0003 C   0  0  0  0  0  0  0  0  0  0  0  0
   -2.8222   -1.6140    0.0005 C   0  0  0  0  0  0  0  0  0  0  0  0
   -0.4774    2.3875    0.0000 H   0  0  0  0  0  0  0  0  0  0  0  0
   -0.3569   -2.5847   -0.0018 H   0  0  0  0  0  0  0  0  0  0  0  0
    1.8906    2.3728    0.0001 H   0  0  0  0  0  0  0  0  0  0  0  0
    2.0323   -2.4284   -0.0008 H   0  0  0  0  0  0  0  0  0  0  0  0
  1 15  2  0  0  0  0
  2 16  2  0  0  0  0
  3  7  1  0  0  0  0
  4  7  2  0  0  0  0
  5  9  1  0  0  0  0
  5 15  1  0  0  0  0
  5 20  1  0  0  0  0
  6 10  1  0  0  0  0
  6 16  1  0  0  0  0
  6 21  1  0  0  0  0
  7 13  1  0  0  0  0
  8 17  3  0  0  0  0
  9 10  2  0  0  0  0
  9 11  1  0  0  0  0
 10 12  1  0  0  0  0
 11 13  2  0  0  0  0
 11 18  1  0  0  0  0
 12 14  2  0  0  0  0
 12 19  1  0  0  0  0
 13 14  1  0  0  0  0
 14 17  1  0  0  0  0
 15 16  1  0  0  0  0
M  CHG  2   3  -1   7   1
M  END
> <PUBCHEM_COMPOUND_CID>
3721046

> <PUBCHEM_CONFORMER_RMSD>
0.6

> <PUBCHEM_CONFORMER_DIVERSEORDER>
1

> <PUBCHEM_MMFF94_PARTIAL_CHARGES>
21
1 -0.57
10 0.12
11 -0.15
12 -0.15
13 0.13
14 0.07
15 0.63
16 0.63
17 0.48
18 0.15
19 0.15
2 -0.57
20 0.37
21 0.37
3 -0.52
4 -0.52
5 -0.55
6 -0.55
7 0.91
8 -0.56
9 0.12

> <PUBCHEM_EFFECTIVE_ROTOR_COUNT>
1

> <PUBCHEM_PHARMACOPHORE_FEATURES>
10
1 1 acceptor
1 2 acceptor
1 3 acceptor
1 3 anion
1 4 acceptor
1 5 donor
1 6 donor
1 8 acceptor
6 5 6 9 10 15 16 rings
6 9 10 11 12 13 14 rings

> <PUBCHEM_HEAVY_ATOM_COUNT>
17

> <PUBCHEM_ATOM_DEF_STEREO_COUNT>
0

> <PUBCHEM_ATOM_UDEF_STEREO_COUNT>
0

> <PUBCHEM_BOND_DEF_STEREO_COUNT>
0

> <PUBCHEM_BOND_UDEF_STEREO_COUNT>
0

> <PUBCHEM_ISOTOPIC_ATOM_COUNT>
0

> <PUBCHEM_COMPONENT_COUNT>
1

> <PUBCHEM_CACTVS_TAUTO_COUNT>
4

> <PUBCHEM_CONFORMER_ID>
0038C75600000001

> <PUBCHEM_MMFF94_ENERGY>
48.5134

> <PUBCHEM_FEATURE_SELFOVERLAP>
50.87

> <PUBCHEM_SHAPE_FINGERPRINT>
10062212 137 18409459097625651722
10608611 8 18409169908998278368
10616163 171 18409166631764483095
10967382 1 18338797947694618981
11132069 177 18410862078931325408
11806522 49 18268995280254417407
12032990 46 18410853222482199874
13140716 1 18338241560783600674
13296908 3 18409166606284361846
13380535 76 18336548334283265495
14144814 61 18410575067720645138
14325111 11 18410856555640390272
14790565 3 15533878455360883075
15196674 1 18410855447665337506
15219456 202 18407758131836335830
15442244 35 18339926042651704730
15536298 74 18407760331133800482
16945 1 18194682798320961031
17492 89 18410855456124312778
18186145 218 18060143158591356934
19422 9 18342455933023650094
200 152 18041567944948778447
20510252 161 18334292033190704641
21267235 1 18411129255740738194
21501502 16 18412262826437617734
221490 88 18411412882875677498
2334 1 18410293575331917639
23402539 116 18265060137034542535
23463225 33 18412825776660083964
23557571 272 18261099743390288566
23559900 14 18189901001521199502
2748010 2 18409449180492943655
2871803 45 18342183219690916287
3312278 4 18335417967357201521
335352 9 18194401319249750070
4214541 1 18410856589868285828
5104073 3 18410294705303995314
69090 78 18335987549177743799
77779 3 18410572885998551990
7832392 63 18339363071086335756
8809292 202 18342172284477171619
9709674 26 18411131403546237014

> <PUBCHEM_SHAPE_MULTIPOLES>
306.45
7.45
2.24
0.57
2.4
0.18
0
-0.37
0
-1.46
0
0
-0.02
0

> <PUBCHEM_SHAPE_SELFOVERLAP>
675.396

> <PUBCHEM_SHAPE_VOLUME>
160.8

> <PUBCHEM_COORDINATE_TYPE>
2
5
10

$$$$

