7243
  -OEChem-07051213053D

 16 16  0     0  0  0  0  0  0999 V2000
    1.8147    1.4238   -0.0007 N   0  0  0  0  0  0  0  0  0  0  0  0
    1.8153   -1.4234    0.0000 N   0  0  0  0  0  0  0  0  0  0  0  0
    0.6029    0.6975    0.0005 C   0  0  0  0  0  0  0  0  0  0  0  0
    0.6031   -0.6973    0.0004 C   0  0  0  0  0  0  0  0  0  0  0  0
   -0.6053    1.3948    0.0003 C   0  0  0  0  0  0  0  0  0  0  0  0
   -0.6047   -1.3949   -0.0002 C   0  0  0  0  0  0  0  0  0  0  0  0
   -1.8132    0.6972   -0.0001 C   0  0  0  0  0  0  0  0  0  0  0  0
   -1.8128   -0.6977   -0.0004 C   0  0  0  0  0  0  0  0  0  0  0  0
   -0.6202    2.4818    0.0002 H   0  0  0  0  0  0  0  0  0  0  0  0
   -0.6193   -2.4819   -0.0005 H   0  0  0  0  0  0  0  0  0  0  0  0
   -2.7540    1.2399   -0.0003 H   0  0  0  0  0  0  0  0  0  0  0  0
   -2.7534   -1.2407   -0.0008 H   0  0  0  0  0  0  0  0  0  0  0  0
    1.7906    2.4353    0.0012 H   0  0  0  0  0  0  0  0  0  0  0  0
    2.7065    0.9511    0.0018 H   0  0  0  0  0  0  0  0  0  0  0  0
    2.7070   -0.9502    0.0023 H   0  0  0  0  0  0  0  0  0  0  0  0
    1.7914   -2.4348    0.0011 H   0  0  0  0  0  0  0  0  0  0  0  0
  1  3  1  0  0  0  0
  1 13  1  0  0  0  0
  1 14  1  0  0  0  0
  2  4  1  0  0  0  0
  2 15  1  0  0  0  0
  2 16  1  0  0  0  0
  3  4  1  0  0  0  0
  3  5  2  0  0  0  0
  4  6  2  0  0  0  0
  5  7  1  0  0  0  0
  5  9  1  0  0  0  0
  6  8  1  0  0  0  0
  6 10  1  0  0  0  0
  7  8  2  0  0  0  0
  7 11  1  0  0  0  0
  8 12  1  0  0  0  0
M  END
> <PUBCHEM_COMPOUND_CID>
7243

> <PUBCHEM_CONFORMER_RMSD>
0.4

> <PUBCHEM_CONFORMER_DIVERSEORDER>
1

> <PUBCHEM_MMFF94_PARTIAL_CHARGES>
16
1 -0.9
10 0.15
11 0.15
12 0.15
13 0.4
14 0.4
15 0.4
16 0.4
2 -0.9
3 0.1
4 0.1
5 -0.15
6 -0.15
7 -0.15
8 -0.15
9 0.15

> <PUBCHEM_EFFECTIVE_ROTOR_COUNT>
0

> <PUBCHEM_PHARMACOPHORE_FEATURES>
5
1 1 cation
1 1 donor
1 2 cation
1 2 donor
6 3 4 5 6 7 8 rings

> <PUBCHEM_HEAVY_ATOM_COUNT>
8

> <PUBCHEM_ATOM_DEF_STEREO_COUNT>
0

> <PUBCHEM_ATOM_UDEF_STEREO_COUNT>
0

> <PUBCHEM_BOND_DEF_STEREO_COUNT>
0

> <PUBCHEM_BOND_UDEF_STEREO_COUNT>
0

> <PUBCHEM_ISOTOPIC_ATOM_COUNT>
0

> <PUBCHEM_COMPONENT_COUNT>
1

> <PUBCHEM_CACTVS_TAUTO_COUNT>
1

> <PUBCHEM_CONFORMER_ID>
00001C4B00000001

> <PUBCHEM_MMFF94_ENERGY>
40.3762

> <PUBCHEM_FEATURE_SELFOVERLAP>
25.377

> <PUBCHEM_SHAPE_FINGERPRINT>
16714656 1 17905603663659560590
18185500 45 18120657933289248759
21040471 1 18338798914189049509
23552423 10 18343861095851372430
2748010 2 18411418414635019909
29004967 10 18128247887936217353

> <PUBCHEM_SHAPE_MULTIPOLES>
154.67
2.32
1.78
0.6
0.1
0
0
0
0
0.37
0
-0.04
0
0

> <PUBCHEM_SHAPE_SELFOVERLAP>
320.644

> <PUBCHEM_SHAPE_VOLUME>
88.8

> <PUBCHEM_COORDINATE_TYPE>
2
5
10

$$$$

