23724747
  -OEChem-07051213083D

 73 76  0     1  0  0  0  0  0999 V2000
    4.2116   -0.4764   -0.4442 O   0  0  0  0  0  0  0  0  0  0  0  0
    1.0733   -2.0686    0.5389 O   0  0  0  0  0  0  0  0  0  0  0  0
    5.3264    0.7781    1.2334 O   0  0  0  0  0  0  0  0  0  0  0  0
    5.0071   -3.2197    0.2785 O   0  0  0  0  0  0  0  0  0  0  0  0
    1.6604    0.1891    0.5838 O   0  0  0  0  0  0  0  0  0  0  0  0
    2.9129   -5.0929   -0.4008 O   0  0  0  0  0  0  0  0  0  0  0  0
    7.7845    0.0671   -0.0750 O   0  0  0  0  0  0  0  0  0  0  0  0
    7.4203    1.8466   -2.1834 O   0  0  0  0  0  0  0  0  0  0  0  0
    5.7300    3.7560   -0.9016 O   0  0  0  0  0  0  0  0  0  0  0  0
   -1.0581   -3.7782    0.2386 O   0  0  0  0  0  0  0  0  0  0  0  0
   -1.9449    1.6053   -2.1895 O   0  0  0  0  0  0  0  0  0  0  0  0
   -2.4054    1.6530    2.5874 O   0  0  0  0  0  0  0  0  0  0  0  0
   -3.7901    3.3684    0.0522 O   0  0  0  0  0  0  0  0  0  0  0  0
  -10.4238   -1.7915   -0.4712 O   0  0  0  0  0  0  0  0  0  0  0  0
    3.3958   -1.4212    0.2482 C   0  0  2  0  0  0  0  0  0  0  0  0
    3.7318   -2.8321   -0.2351 C   0  0  2  0  0  0  0  0  0  0  0  0
    2.6971   -3.8456    0.2541 C   0  0  1  0  0  0  0  0  0  0  0  0
    5.4382   -0.2471    0.2404 C   0  0  2  0  0  0  0  0  0  0  0  0
    6.5348    0.0958   -0.7663 C   0  0  1  0  0  0  0  0  0  0  0  0
    1.9309   -1.0758   -0.0194 C   0  0  1  0  0  0  0  0  0  0  0  0
    1.2769   -3.3579   -0.0419 C   0  0  1  0  0  0  0  0  0  0  0  0
    6.3059    1.4814   -1.3725 C   0  0  1  0  0  0  0  0  0  0  0  0
    6.1132    2.5324   -0.2787 C   0  0  2  0  0  0  0  0  0  0  0  0
    5.0288    2.0752    0.7069 C   0  0  2  0  0  0  0  0  0  0  0  0
    0.2246   -4.2961    0.5408 C   0  0  0  0  0  0  0  0  0  0  0  0
    4.9025    3.0215    1.8976 C   0  0  0  0  0  0  0  0  0  0  0  0
    0.3856    0.6685    0.4556 C   0  0  0  0  0  0  0  0  0  0  0  0
   -0.3743    0.9216    1.5935 C   0  0  0  0  0  0  0  0  0  0  0  0
   -0.1419    0.8984   -0.8114 C   0  0  0  0  0  0  0  0  0  0  0  0
   -1.4421    1.3862   -0.9417 C   0  0  0  0  0  0  0  0  0  0  0  0
   -1.6746    1.4093    1.4630 C   0  0  0  0  0  0  0  0  0  0  0  0
   -2.2086    1.6415    0.1955 C   0  0  0  0  0  0  0  0  0  0  0  0
   -3.5685    2.1502    0.0591 C   0  0  0  0  0  0  0  0  0  0  0  0
   -4.6952    1.1635   -0.0408 C   0  0  0  0  0  0  0  0  0  0  0  0
   -5.9639    1.5870   -0.1396 C   0  0  0  0  0  0  0  0  0  0  0  0
   -7.1364    0.6991   -0.2277 C   0  0  0  0  0  0  0  0  0  0  0  0
   -6.9626   -0.6166   -0.6252 C   0  0  0  0  0  0  0  0  0  0  0  0
   -8.3896    1.1970    0.0900 C   0  0  0  0  0  0  0  0  0  0  0  0
   -8.0724   -1.4574   -0.7078 C   0  0  0  0  0  0  0  0  0  0  0  0
   -9.4993    0.3561    0.0077 C   0  0  0  0  0  0  0  0  0  0  0  0
   -9.3408   -0.9711   -0.3913 C   0  0  0  0  0  0  0  0  0  0  0  0
    3.5741   -1.3428    1.3308 H   0  0  0  0  0  0  0  0  0  0  0  0
    3.8185   -2.8506   -1.3285 H   0  0  0  0  0  0  0  0  0  0  0  0
    2.8311   -4.0126    1.3299 H   0  0  0  0  0  0  0  0  0  0  0  0
    5.7683   -1.1310    0.7917 H   0  0  0  0  0  0  0  0  0  0  0  0
    6.5893   -0.6515   -1.5653 H   0  0  0  0  0  0  0  0  0  0  0  0
    1.7674   -1.0041   -1.1027 H   0  0  0  0  0  0  0  0  0  0  0  0
    1.1027   -3.2837   -1.1240 H   0  0  0  0  0  0  0  0  0  0  0  0
    5.4278    1.4597   -2.0298 H   0  0  0  0  0  0  0  0  0  0  0  0
    7.0669    2.7095    0.2333 H   0  0  0  0  0  0  0  0  0  0  0  0
    4.0516    2.0444    0.2078 H   0  0  0  0  0  0  0  0  0  0  0  0
    0.3086   -4.3651    1.6304 H   0  0  0  0  0  0  0  0  0  0  0  0
    0.2990   -5.3016    0.1169 H   0  0  0  0  0  0  0  0  0  0  0  0
    4.1643    2.6375    2.6106 H   0  0  0  0  0  0  0  0  0  0  0  0
    4.5919    4.0240    1.5906 H   0  0  0  0  0  0  0  0  0  0  0  0
    5.8519    3.0967    2.4392 H   0  0  0  0  0  0  0  0  0  0  0  0
    5.1866   -4.1214   -0.0386 H   0  0  0  0  0  0  0  0  0  0  0  0
    2.7902   -4.9557   -1.3557 H   0  0  0  0  0  0  0  0  0  0  0  0
    7.7038    0.6095    0.7275 H   0  0  0  0  0  0  0  0  0  0  0  0
    7.2475    2.7382   -2.5312 H   0  0  0  0  0  0  0  0  0  0  0  0
    5.7673    4.4560   -0.2287 H   0  0  0  0  0  0  0  0  0  0  0  0
   -1.1097   -2.8821    0.6132 H   0  0  0  0  0  0  0  0  0  0  0  0
    0.0438    0.7393    2.5800 H   0  0  0  0  0  0  0  0  0  0  0  0
    0.4580    0.7184   -1.6993 H   0  0  0  0  0  0  0  0  0  0  0  0
   -1.2718    1.3692   -2.8505 H   0  0  0  0  0  0  0  0  0  0  0  0
   -3.2739    2.0210    2.3591 H   0  0  0  0  0  0  0  0  0  0  0  0
   -4.4131    0.1176   -0.0024 H   0  0  0  0  0  0  0  0  0  0  0  0
   -6.1858    2.6515   -0.1461 H   0  0  0  0  0  0  0  0  0  0  0  0
   -5.9986   -1.0317   -0.9016 H   0  0  0  0  0  0  0  0  0  0  0  0
   -8.5292    2.2280    0.4039 H   0  0  0  0  0  0  0  0  0  0  0  0
   -7.9367   -2.4882   -1.0243 H   0  0  0  0  0  0  0  0  0  0  0  0
  -10.4849    0.7404    0.2560 H   0  0  0  0  0  0  0  0  0  0  0  0
  -10.1311   -2.6723   -0.7620 H   0  0  0  0  0  0  0  0  0  0  0  0
  1 15  1  0  0  0  0
  1 18  1  0  0  0  0
  2 20  1  0  0  0  0
  2 21  1  0  0  0  0
  3 18  1  0  0  0  0
  3 24  1  0  0  0  0
  4 16  1  0  0  0  0
  4 57  1  0  0  0  0
  5 20  1  0  0  0  0
  5 27  1  0  0  0  0
  6 17  1  0  0  0  0
  6 58  1  0  0  0  0
  7 19  1  0  0  0  0
  7 59  1  0  0  0  0
  8 22  1  0  0  0  0
  8 60  1  0  0  0  0
  9 23  1  0  0  0  0
  9 61  1  0  0  0  0
 10 25  1  0  0  0  0
 10 62  1  0  0  0  0
 11 30  1  0  0  0  0
 11 65  1  0  0  0  0
 12 31  1  0  0  0  0
 12 66  1  0  0  0  0
 13 33  2  0  0  0  0
 14 41  1  0  0  0  0
 14 73  1  0  0  0  0
 15 16  1  0  0  0  0
 15 20  1  0  0  0  0
 15 42  1  0  0  0  0
 16 17  1  0  0  0  0
 16 43  1  0  0  0  0
 17 21  1  0  0  0  0
 17 44  1  0  0  0  0
 18 19  1  0  0  0  0
 18 45  1  0  0  0  0
 19 22  1  0  0  0  0
 19 46  1  0  0  0  0
 20 47  1  0  0  0  0
 21 25  1  0  0  0  0
 21 48  1  0  0  0  0
 22 23  1  0  0  0  0
 22 49  1  0  0  0  0
 23 24  1  0  0  0  0
 23 50  1  0  0  0  0
 24 26  1  0  0  0  0
 24 51  1  0  0  0  0
 25 52  1  0  0  0  0
 25 53  1  0  0  0  0
 26 54  1  0  0  0  0
 26 55  1  0  0  0  0
 26 56  1  0  0  0  0
 27 28  2  0  0  0  0
 27 29  1  0  0  0  0
 28 31  1  0  0  0  0
 28 63  1  0  0  0  0
 29 30  2  0  0  0  0
 29 64  1  0  0  0  0
 30 32  1  0  0  0  0
 31 32  2  0  0  0  0
 32 33  1  0  0  0  0
 33 34  1  0  0  0  0
 34 35  2  0  0  0  0
 34 67  1  0  0  0  0
 35 36  1  0  0  0  0
 35 68  1  0  0  0  0
 36 37  2  0  0  0  0
 36 38  1  0  0  0  0
 37 39  1  0  0  0  0
 37 69  1  0  0  0  0
 38 40  2  0  0  0  0
 38 70  1  0  0  0  0
 39 41  2  0  0  0  0
 39 71  1  0  0  0  0
 40 41  1  0  0  0  0
 40 72  1  0  0  0  0
M  END
> <PUBCHEM_COMPOUND_CID>
23724747

> <PUBCHEM_CONFORMER_RMSD>
1.2

> <PUBCHEM_CONFORMER_DIVERSEORDER>
1
77
200
59
65
54
192
183
170
35
115
37
68
151
34
50
92
134
83
139
74
182
69
194
57
197
79
96
86
196
165
22
149
112
114
85
187
101
177
121
63
98
87
36
178
171
173
14
204
169
174
144
131
185
46
184
202
39
25
154
210
91
78
107
118
126
172
105
140
209
146
67
127
111
141
201
155
48
104
158
117
29
137
47
56
75
167
42
162
199
207
93
53
90
168
123
23
130
70
31
80
129
206
159
45
27
211
188
40
152
71
191
32
143
181
164
94
109
198
103
195
156
52
120
88
135
124
76
147
97
95
60
205
190
106
193
180
51
160
119
99
28
66
26
102
203
100
58
55
73
7
49
179
61
145
21
44
16
15
84
6
163
132
153
5
19
148
122
150
43
116
38
72
157
136
20
113
142
13
4
128
8
125
17
24
64
41
82
30
89
133
166
110
161
186
108
208
175
176
81
189
138
3
10
9
33
62
12
2
18
11

> <PUBCHEM_MMFF94_PARTIAL_CHARGES>
57
1 -0.56
10 -0.68
11 -0.53
12 -0.53
13 -0.57
14 -0.53
15 0.28
16 0.28
17 0.28
18 0.56
19 0.28
2 -0.56
20 0.56
21 0.28
22 0.28
23 0.28
24 0.28
25 0.28
27 0.08
28 -0.15
29 -0.15
3 -0.56
30 0.08
31 0.08
32 0.09
33 0.47
34 -0.14
35 -0.18
36 0.03
37 -0.15
38 -0.15
39 -0.15
4 -0.68
40 -0.15
41 0.08
5 -0.36
57 0.4
58 0.4
59 0.4
6 -0.68
60 0.4
61 0.4
62 0.4
63 0.15
64 0.15
65 0.45
66 0.45
67 0.15
68 0.15
69 0.15
7 -0.68
70 0.15
71 0.15
72 0.15
73 0.45
8 -0.68
9 -0.68

> <PUBCHEM_EFFECTIVE_ROTOR_COUNT>
10.4

> <PUBCHEM_PHARMACOPHORE_FEATURES>
24
1 1 acceptor
1 10 acceptor
1 10 donor
1 11 donor
1 12 donor
1 13 acceptor
1 14 donor
1 2 acceptor
1 3 acceptor
1 4 acceptor
1 4 donor
1 5 acceptor
1 6 acceptor
1 6 donor
1 7 acceptor
1 7 donor
1 8 acceptor
1 8 donor
1 9 acceptor
1 9 donor
6 2 15 16 17 20 21 rings
6 27 28 29 30 31 32 rings
6 3 18 19 22 23 24 rings
6 36 37 38 39 40 41 rings

> <PUBCHEM_HEAVY_ATOM_COUNT>
41

> <PUBCHEM_ATOM_DEF_STEREO_COUNT>
10

> <PUBCHEM_ATOM_UDEF_STEREO_COUNT>
0

> <PUBCHEM_BOND_DEF_STEREO_COUNT>
1

> <PUBCHEM_BOND_UDEF_STEREO_COUNT>
0

> <PUBCHEM_ISOTOPIC_ATOM_COUNT>
0

> <PUBCHEM_COMPONENT_COUNT>
1

> <PUBCHEM_CACTVS_TAUTO_COUNT>
33

> <PUBCHEM_CONFORMER_ID>
016A02CB00000001

> <PUBCHEM_MMFF94_ENERGY>
138.1838

> <PUBCHEM_FEATURE_SELFOVERLAP>
121.9

> <PUBCHEM_SHAPE_FINGERPRINT>
10165383 225 18341890793528627116
10939801 23 18334016082286118543
11443803 9 18271530815136368144
11497681 19 18410294752801758117
12013929 94 18338233770514804623
12144603 126 18187074093134110817
12522641 33 18272368681234583627
1361 2 18342455958624798208
1361 4 18337111272048435343
13692114 37 18410299077776329010
13914758 101 10015586121167688725
14394314 77 18335699486528907385
1454969 45 18412825781182054045
15320295 44 18191020317037111297
15347591 1 18193559093675773797
15890870 6 18411978045439123156
18365409 1 18267862787741866935
20105231 36 16877941641945918069
21197605 99 18336549416747646471
21360443 126 18271242729371674986
21792938 703 18059287666385013691
22149856 69 18188490302174301529
23569917 315 18189614016128491150
23729417 116 17259616471186766862
24204213 62 17982165621782566093
3552219 110 17821720629699294265
437795 163 18337392648156515351
437795 51 18040723532539629657
44426699 60 18410297995771534016
44880568 143 17774163547588777789
45377200 153 16443633390045443639
4625314 4 18339361980528743629
6057620 51 18410288129456545489

> <PUBCHEM_SHAPE_MULTIPOLES>
761.59
27.34
5.1
1.37
52.19
5.94
0.15
-5.46
-7.08
-6.7
0.37
-1.2
-1.09
-1.15

> <PUBCHEM_SHAPE_SELFOVERLAP>
1629.506

> <PUBCHEM_SHAPE_VOLUME>
416.2

> <PUBCHEM_COORDINATE_TYPE>
2
5
10

$$$$

