121719
  -OEChem-07051212582D

 25 26  0     1  0  0  0  0  0999 V2000
    2.0000   -1.2000    0.0000 O   0  0  0  0  0  0  0  0  0  0  0  0
    7.1467   -0.1048    0.0000 C   0  0  0  0  0  0  0  0  0  0  0  0
    5.5736    1.1023    0.0000 C   0  0  3  0  0  0  0  0  0  0  0  0
    5.3147    0.1364    0.0000 C   0  0  3  0  0  0  0  0  0  0  0  0
    4.8369    2.0849    0.0000 C   0  0  0  0  0  0  0  0  0  0  0  0
    2.9705    0.2945    0.0000 C   0  0  0  0  0  0  0  0  0  0  0  0
    3.7796   -1.1068    0.0000 C   0  0  0  0  0  0  0  0  0  0  0  0
    7.6467   -0.9708    0.0000 C   0  0  0  0  0  0  0  0  0  0  0  0
    8.0127    0.3952    0.0000 C   0  0  0  0  0  0  0  0  0  0  0  0
    2.8660   -0.7000    0.0000 C   0  0  0  0  0  0  0  0  0  0  0  0
    3.9875   -2.0849    0.0000 C   0  0  0  0  0  0  0  0  0  0  0  0
    6.0144    1.5382    0.0000 H   0  0  0  0  0  0  0  0  0  0  0  0
    5.4830   -0.4603    0.0000 H   0  0  0  0  0  0  0  0  0  0  0  0
    5.1547    2.6173    0.0000 H   0  0  0  0  0  0  0  0  0  0  0  0
    4.2238    2.1769    0.0000 H   0  0  0  0  0  0  0  0  0  0  0  0
    2.8683    0.9060    0.0000 H   0  0  0  0  0  0  0  0  0  0  0  0
    2.3508    0.2756    0.0000 H   0  0  0  0  0  0  0  0  0  0  0  0
    8.3227   -0.1417    0.0000 H   0  0  0  0  0  0  0  0  0  0  0  0
    8.5496    0.7052    0.0000 H   0  0  0  0  0  0  0  0  0  0  0  0
    7.7027    0.9321    0.0000 H   0  0  0  0  0  0  0  0  0  0  0  0
    7.1097   -1.2808    0.0000 H   0  0  0  0  0  0  0  0  0  0  0  0
    7.9567   -1.5078    0.0000 H   0  0  0  0  0  0  0  0  0  0  0  0
    8.1836   -0.6608    0.0000 H   0  0  0  0  0  0  0  0  0  0  0  0
    3.5267   -2.4998    0.0000 H   0  0  0  0  0  0  0  0  0  0  0  0
    4.5771   -2.2765    0.0000 H   0  0  0  0  0  0  0  0  0  0  0  0
  1 10  2  0  0  0  0
  2  3  1  0  0  0  0
  2  4  1  0  0  0  0
  2  8  1  0  0  0  0
  2  9  1  0  0  0  0
  3  5  1  0  0  0  0
  3  6  1  0  0  0  0
  3 12  1  0  0  0  0
  4  5  1  0  0  0  0
  4  7  1  0  0  0  0
  4 13  1  0  0  0  0
  5 14  1  0  0  0  0
  5 15  1  0  0  0  0
  6 10  1  0  0  0  0
  6 16  1  0  0  0  0
  6 17  1  0  0  0  0
  7 10  1  0  0  0  0
  7 11  2  0  0  0  0
  8 21  1  0  0  0  0
  8 22  1  0  0  0  0
  8 23  1  0  0  0  0
  9 18  1  0  0  0  0
  9 19  1  0  0  0  0
  9 20  1  0  0  0  0
 11 24  1  0  0  0  0
 11 25  1  0  0  0  0
M  END
> <PUBCHEM_COMPOUND_CID>
121719

> <PUBCHEM_COMPOUND_CANONICALIZED>
1

> <PUBCHEM_CACTVS_COMPLEXITY>
237

> <PUBCHEM_CACTVS_HBOND_ACCEPTOR>
1

> <PUBCHEM_CACTVS_HBOND_DONOR>
0

> <PUBCHEM_CACTVS_ROTATABLE_BOND>
0

> <PUBCHEM_CACTVS_SUBSKEYS>
AAADccBwIAAAAAAAAAAAAAAAAABgAAAAAAAwYAAAAAAAAAAAAAAAGgAAAAAADwSAgAACAAAAAACIAoBSAAAAAAAgAAAAAAEAAEgAABIAAQAAAAAAgAAAAIEIiMCPgAAAAAAAAAAAAAAAACAAAAAAAAAAAA==

> <PUBCHEM_IUPAC_OPENEYE_NAME>
6,6-dimethyl-2-methylene-norpinan-3-one

> <PUBCHEM_IUPAC_CAS_NAME>
6,6-dimethyl-4-methylene-3-bicyclo[3.1.1]heptanone

> <PUBCHEM_IUPAC_NAME>
6,6-dimethyl-4-methylidenebicyclo[3.1.1]heptan-3-one

> <PUBCHEM_IUPAC_SYSTEMATIC_NAME>
6,6-dimethyl-4-methylidene-bicyclo[3.1.1]heptan-3-one

> <PUBCHEM_IUPAC_TRADITIONAL_NAME>
6,6-dimethyl-2-methylene-norpinan-3-one

> <PUBCHEM_IUPAC_INCHI>
InChI=1S/C10H14O/c1-6-8-4-7(5-9(6)11)10(8,2)3/h7-8H,1,4-5H2,2-3H3

> <PUBCHEM_IUPAC_INCHIKEY>
TZDMGBLPGZXHJI-UHFFFAOYSA-N

> <PUBCHEM_XLOGP3_AA>
2.2

> <PUBCHEM_EXACT_MASS>
150.104465

> <PUBCHEM_MOLECULAR_FORMULA>
C10H14O

> <PUBCHEM_MOLECULAR_WEIGHT>
150.21756

> <PUBCHEM_OPENEYE_CAN_SMILES>
CC1(C2CC1C(=C)C(=O)C2)C

> <PUBCHEM_OPENEYE_ISO_SMILES>
CC1(C2CC1C(=C)C(=O)C2)C

> <PUBCHEM_CACTVS_TPSA>
17.1

> <PUBCHEM_MONOISOTOPIC_WEIGHT>
150.104465

> <PUBCHEM_TOTAL_CHARGE>
0

> <PUBCHEM_HEAVY_ATOM_COUNT>
11

> <PUBCHEM_ATOM_DEF_STEREO_COUNT>
0

> <PUBCHEM_ATOM_UDEF_STEREO_COUNT>
2

> <PUBCHEM_BOND_DEF_STEREO_COUNT>
0

> <PUBCHEM_BOND_UDEF_STEREO_COUNT>
0

> <PUBCHEM_ISOTOPIC_ATOM_COUNT>
0

> <PUBCHEM_COMPONENT_COUNT>
1

> <PUBCHEM_CACTVS_TAUTO_COUNT>
2

> <PUBCHEM_COORDINATE_TYPE>
1
5
255

> <PUBCHEM_BONDANNOTATIONS>
3  2  3
4  2  3

$$$$

