14192
  -OEChem-06241222423D

 55 56  0     1  0  0  0  0  0999 V2000
    0.0992    0.1663   -2.1468 O   0  0  0  0  0  0  0  0  0  0  0  0
    0.8057    0.2459    2.0633 O   0  0  0  0  0  0  0  0  0  0  0  0
   -0.4859   -4.4027   -0.6045 O   0  0  0  0  0  0  0  0  0  0  0  0
   -3.2388    1.8176    0.1775 N   0  3  0  0  0  0  0  0  0  0  0  0
   -2.2719    0.8113   -0.3373 C   0  0  2  0  0  0  0  0  0  0  0  0
   -0.8354    1.3733   -0.2970 C   0  0  0  0  0  0  0  0  0  0  0  0
    0.3113    0.4087   -0.7454 C   0  0  1  0  0  0  0  0  0  0  0  0
   -2.6885    0.4572   -1.7607 C   0  0  0  0  0  0  0  0  0  0  0  0
   -4.6633    1.2490    0.1790 C   0  0  0  0  0  0  0  0  0  0  0  0
   -2.8833    2.2253    1.6127 C   0  0  0  0  0  0  0  0  0  0  0  0
   -3.2263    3.0778   -0.6965 C   0  0  0  0  0  0  0  0  0  0  0  0
    0.2321   -0.9075    0.0426 C   0  0  0  0  0  0  0  0  0  0  0  0
    1.7244    1.0095   -0.6369 C   0  0  0  0  0  0  0  0  0  0  0  0
    0.4851   -0.8959    1.3925 C   0  0  0  0  0  0  0  0  0  0  0  0
   -0.0918   -2.0491   -0.6506 C   0  0  0  0  0  0  0  0  0  0  0  0
    2.7822    0.2693   -1.0998 C   0  0  0  0  0  0  0  0  0  0  0  0
    1.8592    2.2570   -0.0830 C   0  0  0  0  0  0  0  0  0  0  0  0
   -0.1671   -3.2529    0.0501 C   0  0  0  0  0  0  0  0  0  0  0  0
    0.4095   -2.0997    2.0932 C   0  0  0  0  0  0  0  0  0  0  0  0
    4.0627    0.8136   -1.0018 C   0  0  0  0  0  0  0  0  0  0  0  0
    3.1398    2.8014    0.0149 C   0  0  0  0  0  0  0  0  0  0  0  0
    0.0835   -3.2781    1.4219 C   0  0  0  0  0  0  0  0  0  0  0  0
    4.2415    2.0796   -0.4446 C   0  0  0  0  0  0  0  0  0  0  0  0
    1.0425    0.1136    3.4596 C   0  0  0  0  0  0  0  0  0  0  0  0
   -0.7265   -4.2904   -2.0025 C   0  0  0  0  0  0  0  0  0  0  0  0
   -2.3611   -0.0726    0.3051 H   0  0  0  0  0  0  0  0  0  0  0  0
   -0.7727    2.2517   -0.9495 H   0  0  0  0  0  0  0  0  0  0  0  0
   -0.6246    1.6991    0.7221 H   0  0  0  0  0  0  0  0  0  0  0  0
   -2.4017    1.2152   -2.4968 H   0  0  0  0  0  0  0  0  0  0  0  0
   -2.1953   -0.4707   -2.0682 H   0  0  0  0  0  0  0  0  0  0  0  0
   -3.7466    0.2286   -1.8953 H   0  0  0  0  0  0  0  0  0  0  0  0
   -4.6393    0.2417    0.6045 H   0  0  0  0  0  0  0  0  0  0  0  0
   -5.2916    1.8975    0.7984 H   0  0  0  0  0  0  0  0  0  0  0  0
   -5.0760    1.2556   -0.8323 H   0  0  0  0  0  0  0  0  0  0  0  0
   -2.0056    2.8762    1.6100 H   0  0  0  0  0  0  0  0  0  0  0  0
   -3.7231    2.7912    2.0288 H   0  0  0  0  0  0  0  0  0  0  0  0
   -2.7147    1.3185    2.2006 H   0  0  0  0  0  0  0  0  0  0  0  0
   -3.9808    3.7591   -0.2862 H   0  0  0  0  0  0  0  0  0  0  0  0
   -2.2571    3.5759   -0.6379 H   0  0  0  0  0  0  0  0  0  0  0  0
   -3.5065    2.8395   -1.7239 H   0  0  0  0  0  0  0  0  0  0  0  0
    0.2778    0.9911   -2.6306 H   0  0  0  0  0  0  0  0  0  0  0  0
   -0.2787   -2.0000   -1.7136 H   0  0  0  0  0  0  0  0  0  0  0  0
    2.6574   -0.7143   -1.5411 H   0  0  0  0  0  0  0  0  0  0  0  0
    1.0446    2.8667    0.2847 H   0  0  0  0  0  0  0  0  0  0  0  0
    0.5901   -2.1999    3.1577 H   0  0  0  0  0  0  0  0  0  0  0  0
    4.9204    0.2522   -1.3606 H   0  0  0  0  0  0  0  0  0  0  0  0
    3.2800    3.7878    0.4476 H   0  0  0  0  0  0  0  0  0  0  0  0
    0.0258   -4.2135    1.9720 H   0  0  0  0  0  0  0  0  0  0  0  0
    5.2385    2.5036   -0.3689 H   0  0  0  0  0  0  0  0  0  0  0  0
    1.9124   -0.5193    3.6671 H   0  0  0  0  0  0  0  0  0  0  0  0
    0.1455   -0.2160    3.9952 H   0  0  0  0  0  0  0  0  0  0  0  0
    1.2844    1.1121    3.8394 H   0  0  0  0  0  0  0  0  0  0  0  0
   -1.5978   -3.6614   -2.2163 H   0  0  0  0  0  0  0  0  0  0  0  0
   -0.9674   -5.2940   -2.3687 H   0  0  0  0  0  0  0  0  0  0  0  0
    0.1685   -3.9656   -2.5446 H   0  0  0  0  0  0  0  0  0  0  0  0
  1  7  1  0  0  0  0
  1 41  1  0  0  0  0
  2 14  1  0  0  0  0
  2 24  1  0  0  0  0
  3 18  1  0  0  0  0
  3 25  1  0  0  0  0
  4  5  1  0  0  0  0
  4  9  1  0  0  0  0
  4 10  1  0  0  0  0
  4 11  1  0  0  0  0
  5  6  1  0  0  0  0
  5  8  1  0  0  0  0
  5 26  1  0  0  0  0
  6  7  1  0  0  0  0
  6 27  1  0  0  0  0
  6 28  1  0  0  0  0
  7 12  1  0  0  0  0
  7 13  1  0  0  0  0
  8 29  1  0  0  0  0
  8 30  1  0  0  0  0
  8 31  1  0  0  0  0
  9 32  1  0  0  0  0
  9 33  1  0  0  0  0
  9 34  1  0  0  0  0
 10 35  1  0  0  0  0
 10 36  1  0  0  0  0
 10 37  1  0  0  0  0
 11 38  1  0  0  0  0
 11 39  1  0  0  0  0
 11 40  1  0  0  0  0
 12 14  2  0  0  0  0
 12 15  1  0  0  0  0
 13 16  2  0  0  0  0
 13 17  1  0  0  0  0
 14 19  1  0  0  0  0
 15 18  2  0  0  0  0
 15 42  1  0  0  0  0
 16 20  1  0  0  0  0
 16 43  1  0  0  0  0
 17 21  2  0  0  0  0
 17 44  1  0  0  0  0
 18 22  1  0  0  0  0
 19 22  2  0  0  0  0
 19 45  1  0  0  0  0
 20 23  2  0  0  0  0
 20 46  1  0  0  0  0
 21 23  1  0  0  0  0
 21 47  1  0  0  0  0
 22 48  1  0  0  0  0
 23 49  1  0  0  0  0
 24 50  1  0  0  0  0
 24 51  1  0  0  0  0
 24 52  1  0  0  0  0
 25 53  1  0  0  0  0
 25 54  1  0  0  0  0
 25 55  1  0  0  0  0
M  CHG  1   4   1
M  END
> <PUBCHEM_COMPOUND_CID>
14192

> <PUBCHEM_CONFORMER_RMSD>
0.8

> <PUBCHEM_CONFORMER_DIVERSEORDER>
4
75
12
39
54
11
58
18
30
77
47
61
53
62
32
67
23
22
55
42
37
56
38
63
51
71
13
68
34
76
52
27
66
70
36
49
48
28
60
50
26
72
40
69
59
9
17
5
57
73
64
3
24
1
44
74
15
7
65
31
35
8
45
2
10
14
43
20
25
21
6
16
33
19
46
29
41

> <PUBCHEM_MMFF94_PARTIAL_CHARGES>
32
1 -0.68
10 0.5
11 0.5
12 -0.14
13 -0.14
14 0.08
15 -0.15
16 -0.15
17 -0.15
18 0.08
19 -0.15
2 -0.36
20 -0.15
21 -0.15
22 -0.15
23 -0.15
24 0.28
25 0.28
3 -0.36
4 -1.01
41 0.4
42 0.15
43 0.15
44 0.15
45 0.15
46 0.15
47 0.15
48 0.15
49 0.15
5 0.5
7 0.57
9 0.5

> <PUBCHEM_EFFECTIVE_ROTOR_COUNT>
7

> <PUBCHEM_PHARMACOPHORE_FEATURES>
7
1 1 acceptor
1 1 donor
1 2 acceptor
1 3 acceptor
1 4 cation
6 12 14 15 18 19 22 rings
6 13 16 17 20 21 23 rings

> <PUBCHEM_HEAVY_ATOM_COUNT>
25

> <PUBCHEM_ATOM_DEF_STEREO_COUNT>
0

> <PUBCHEM_ATOM_UDEF_STEREO_COUNT>
2

> <PUBCHEM_BOND_DEF_STEREO_COUNT>
0

> <PUBCHEM_BOND_UDEF_STEREO_COUNT>
0

> <PUBCHEM_ISOTOPIC_ATOM_COUNT>
0

> <PUBCHEM_COMPONENT_COUNT>
1

> <PUBCHEM_CACTVS_TAUTO_COUNT>
1

> <PUBCHEM_CONFORMER_ID>
0000377000000004

> <PUBCHEM_MMFF94_ENERGY>
123.7946

> <PUBCHEM_FEATURE_SELFOVERLAP>
35.52

> <PUBCHEM_SHAPE_FINGERPRINT>
11421498 54 17750781333043097625
11488393 25 18124571314337714139
11578080 2 16810663414331638800
12156800 1 17759835570436500217
12160290 23 17984407551733796927
12553582 1 16827828397744520171
12788726 201 17908710531495776738
13004483 165 17686901614397906566
13009979 54 16667673473744268963
13149001 5 5256101554410439589
13681431 1 17693380353013739797
14713325 29 17975128747854642956
14955137 171 17913505789852231266
16945 1 18334293120049532492
1813 80 17110718424203018999
20197701 30 18343018886976750033
20567600 347 18130495418610633937
20600515 1 17113033561841305373
21524375 3 18343577443199785140
229495 10 16738888382330040292
23419403 2 16473392972866771746
23558518 356 17838059199866361820
23559900 14 17834121114989060077
298252 57 18342731919005756952
3383291 50 18055625369004762850
38695281 34 18338521970466049030
394222 165 17844555320858342397
404807 78 17414734073037984471
4340502 62 18130209533325314497
5845 1 7853580067156985620
7364860 26 18053380182643348773
81228 2 17626383424594086428

> <PUBCHEM_SHAPE_MULTIPOLES>
491.9
5.74
4.97
2.32
0.21
5.77
-1.7
-7.65
1.42
-2
1.04
0.14
1.07
-0.85

> <PUBCHEM_SHAPE_SELFOVERLAP>
1033.118

> <PUBCHEM_SHAPE_VOLUME>
279.4

> <PUBCHEM_COORDINATE_TYPE>
2
5
10

$$$$

