11954124
  -OEChem-07051213072D

 22 24  0     0  0  0  0  0  0999 V2000
    2.0000   -1.4303    0.0000 Cl  0  0  0  0  0  0  0  0  0  0  0  0
    4.8717    1.4303    0.0000 O   0  0  0  0  0  0  0  0  0  0  0  0
    7.7435   -1.4303    0.0000 O   0  0  0  0  0  0  0  0  0  0  0  0
    5.3717   -0.1085    0.0000 C   0  0  0  0  0  0  0  0  0  0  0  0
    4.3717   -0.1085    0.0000 C   0  0  0  0  0  0  0  0  0  0  0  0
    5.6808    0.8425    0.0000 C   0  0  0  0  0  0  0  0  0  0  0  0
    4.0627    0.8425    0.0000 C   0  0  0  0  0  0  0  0  0  0  0  0
    6.0567   -0.8933    0.0000 C   0  0  0  0  0  0  0  0  0  0  0  0
    3.6868   -0.8933    0.0000 C   0  0  0  0  0  0  0  0  0  0  0  0
    6.6962    1.0748    0.0000 C   0  0  0  0  0  0  0  0  0  0  0  0
    3.0473    1.0748    0.0000 C   0  0  0  0  0  0  0  0  0  0  0  0
    7.0772   -0.6846    0.0000 C   0  0  0  0  0  0  0  0  0  0  0  0
    7.3991    0.3061    0.0000 C   0  0  0  0  0  0  0  0  0  0  0  0
    2.6663   -0.6846    0.0000 C   0  0  0  0  0  0  0  0  0  0  0  0
    2.3444    0.3061    0.0000 C   0  0  0  0  0  0  0  0  0  0  0  0
    5.8583   -1.4807    0.0000 H   0  0  0  0  0  0  0  0  0  0  0  0
    3.8852   -1.4807    0.0000 H   0  0  0  0  0  0  0  0  0  0  0  0
    6.8809    1.6666    0.0000 H   0  0  0  0  0  0  0  0  0  0  0  0
    2.8626    1.6666    0.0000 H   0  0  0  0  0  0  0  0  0  0  0  0
    8.0050    0.4373    0.0000 H   0  0  0  0  0  0  0  0  0  0  0  0
    1.7384    0.4373    0.0000 H   0  0  0  0  0  0  0  0  0  0  0  0
    8.3504   -1.3037    0.0000 H   0  0  0  0  0  0  0  0  0  0  0  0
  1 14  1  0  0  0  0
  2  6  1  0  0  0  0
  2  7  1  0  0  0  0
  3 12  1  0  0  0  0
  3 22  1  0  0  0  0
  4  5  1  0  0  0  0
  4  6  2  0  0  0  0
  4  8  1  0  0  0  0
  5  7  2  0  0  0  0
  5  9  1  0  0  0  0
  6 10  1  0  0  0  0
  7 11  1  0  0  0  0
  8 12  2  0  0  0  0
  8 16  1  0  0  0  0
  9 14  2  0  0  0  0
  9 17  1  0  0  0  0
 10 13  2  0  0  0  0
 10 18  1  0  0  0  0
 11 15  2  0  0  0  0
 11 19  1  0  0  0  0
 12 13  1  0  0  0  0
 13 20  1  0  0  0  0
 14 15  1  0  0  0  0
 15 21  1  0  0  0  0
M  END
> <PUBCHEM_COMPOUND_CID>
11954124

> <PUBCHEM_COMPOUND_CANONICALIZED>
1

> <PUBCHEM_CACTVS_COMPLEXITY>
246

> <PUBCHEM_CACTVS_HBOND_ACCEPTOR>
2

> <PUBCHEM_CACTVS_HBOND_DONOR>
1

> <PUBCHEM_CACTVS_ROTATABLE_BOND>
0

> <PUBCHEM_CACTVS_SUBSKEYS>
AAADcYBwMAAEAAAAAAAAAAAAAAAAASAAAAAwYAAAAAAAAEgB/AAAGgIACAAADAaAmCAwBsAABkCIAqBSAAACCAAkJQAIiAEGCsgMJjKHNxqCeSCkwBEIuYfK7PzOgSABIAAIAAACQAJAABAAAAAAAAAAAA==

> <PUBCHEM_IUPAC_OPENEYE_NAME>
8-chlorodibenzofuran-2-ol

> <PUBCHEM_IUPAC_CAS_NAME>
8-chloro-2-dibenzofuranol

> <PUBCHEM_IUPAC_NAME>
8-chlorodibenzofuran-2-ol

> <PUBCHEM_IUPAC_SYSTEMATIC_NAME>
8-chloranyldibenzofuran-2-ol

> <PUBCHEM_IUPAC_TRADITIONAL_NAME>
8-chlorodibenzofuran-2-ol

> <PUBCHEM_IUPAC_INCHI>
InChI=1S/C12H7ClO2/c13-7-1-3-11-9(5-7)10-6-8(14)2-4-12(10)15-11/h1-6,14H

> <PUBCHEM_IUPAC_INCHIKEY>
AQUURYCVTGVYBO-UHFFFAOYSA-N

> <PUBCHEM_XLOGP3>
4.7

> <PUBCHEM_EXACT_MASS>
218.013457

> <PUBCHEM_MOLECULAR_FORMULA>
C12H7ClO2

> <PUBCHEM_MOLECULAR_WEIGHT>
218.63578

> <PUBCHEM_OPENEYE_CAN_SMILES>
C1=CC2=C(C=C1O)C3=C(O2)C=CC(=C3)Cl

> <PUBCHEM_OPENEYE_ISO_SMILES>
C1=CC2=C(C=C1O)C3=C(O2)C=CC(=C3)Cl

> <PUBCHEM_CACTVS_TPSA>
33.4

> <PUBCHEM_MONOISOTOPIC_WEIGHT>
218.013457

> <PUBCHEM_TOTAL_CHARGE>
0

> <PUBCHEM_HEAVY_ATOM_COUNT>
15

> <PUBCHEM_ATOM_DEF_STEREO_COUNT>
0

> <PUBCHEM_ATOM_UDEF_STEREO_COUNT>
0

> <PUBCHEM_BOND_DEF_STEREO_COUNT>
0

> <PUBCHEM_BOND_UDEF_STEREO_COUNT>
0

> <PUBCHEM_ISOTOPIC_ATOM_COUNT>
0

> <PUBCHEM_COMPONENT_COUNT>
1

> <PUBCHEM_CACTVS_TAUTO_COUNT>
3

> <PUBCHEM_COORDINATE_TYPE>
1
5
255

> <PUBCHEM_BONDANNOTATIONS>
10  13  8
11  15  8
12  13  8
14  15  8
2  6  8
2  7  8
4  5  8
4  6  8
4  8  8
5  7  8
5  9  8
6  10  8
7  11  8
8  12  8
9  14  8

$$$$

