342737
  -OEChem-07051213003D

 57 61  0     1  0  0  0  0  0999 V2000
   -1.2333   -1.7251    0.6662 O   0  0  0  0  0  0  0  0  0  0  0  0
    0.8137    1.4912    0.9594 O   0  0  0  0  0  0  0  0  0  0  0  0
   -5.8374   -1.8978   -1.5478 O   0  0  0  0  0  0  0  0  0  0  0  0
   -7.1740   -0.1838   -0.5066 O   0  0  0  0  0  0  0  0  0  0  0  0
   -6.0719    1.7725    1.3102 O   0  0  0  0  0  0  0  0  0  0  0  0
    5.2786    2.1887   -1.1934 O   0  0  0  0  0  0  0  0  0  0  0  0
    5.6404   -2.0467    1.0127 O   0  0  0  0  0  0  0  0  0  0  0  0
    6.8252    0.0487   -0.3581 O   0  0  0  0  0  0  0  0  0  0  0  0
   -0.8304    0.4038   -0.3509 C   0  0  1  0  0  0  0  0  0  0  0  0
    0.4226   -0.4269   -0.4180 C   0  0  1  0  0  0  0  0  0  0  0  0
   -1.6845   -0.3551    0.6736 C   0  0  1  0  0  0  0  0  0  0  0  0
    1.2663    0.1408    0.7314 C   0  0  1  0  0  0  0  0  0  0  0  0
   -0.0858   -1.8327   -0.1876 C   0  0  0  0  0  0  0  0  0  0  0  0
   -0.3254    1.7473    0.1264 C   0  0  0  0  0  0  0  0  0  0  0  0
   -3.1634   -0.2788    0.3781 C   0  0  0  0  0  0  0  0  0  0  0  0
    2.7479    0.1160    0.4407 C   0  0  0  0  0  0  0  0  0  0  0  0
   -3.7476   -1.2018   -0.4949 C   0  0  0  0  0  0  0  0  0  0  0  0
   -3.9461    0.7214    0.9849 C   0  0  0  0  0  0  0  0  0  0  0  0
    3.5256   -0.9640    0.8622 C   0  0  0  0  0  0  0  0  0  0  0  0
    3.3429    1.1728   -0.2505 C   0  0  0  0  0  0  0  0  0  0  0  0
   -5.1024   -1.0929   -0.7329 C   0  0  0  0  0  0  0  0  0  0  0  0
   -5.3161    0.8096    0.7270 C   0  0  0  0  0  0  0  0  0  0  0  0
    4.7114    1.1497   -0.5196 C   0  0  0  0  0  0  0  0  0  0  0  0
    4.8942   -0.9870    0.5932 C   0  0  0  0  0  0  0  0  0  0  0  0
   -5.8656   -0.1142   -0.1383 C   0  0  0  0  0  0  0  0  0  0  0  0
    5.4870    0.0697   -0.0977 C   0  0  0  0  0  0  0  0  0  0  0  0
   -7.1488   -1.3159   -1.3998 C   0  0  0  0  0  0  0  0  0  0  0  0
   -6.2022    3.0137    0.6138 C   0  0  0  0  0  0  0  0  0  0  0  0
    5.3238    2.0915   -2.6156 C   0  0  0  0  0  0  0  0  0  0  0  0
    5.7712   -3.1445    0.1117 C   0  0  0  0  0  0  0  0  0  0  0  0
    7.6839    0.6299    0.6204 C   0  0  0  0  0  0  0  0  0  0  0  0
   -1.3357    0.4791   -1.3204 H   0  0  0  0  0  0  0  0  0  0  0  0
    0.9372   -0.3320   -1.3809 H   0  0  0  0  0  0  0  0  0  0  0  0
   -1.5081    0.0079    1.6943 H   0  0  0  0  0  0  0  0  0  0  0  0
    1.0809   -0.3952    1.6711 H   0  0  0  0  0  0  0  0  0  0  0  0
    0.6530   -2.4956    0.2713 H   0  0  0  0  0  0  0  0  0  0  0  0
   -0.4195   -2.2850   -1.1278 H   0  0  0  0  0  0  0  0  0  0  0  0
   -1.0691    2.3206    0.6868 H   0  0  0  0  0  0  0  0  0  0  0  0
    0.0172    2.3565   -0.7171 H   0  0  0  0  0  0  0  0  0  0  0  0
   -3.1688   -1.9775   -0.9841 H   0  0  0  0  0  0  0  0  0  0  0  0
   -3.4828    1.4356    1.6622 H   0  0  0  0  0  0  0  0  0  0  0  0
    3.0686   -1.7906    1.4009 H   0  0  0  0  0  0  0  0  0  0  0  0
    2.7517    2.0178   -0.5942 H   0  0  0  0  0  0  0  0  0  0  0  0
   -7.5028   -0.9930   -2.3855 H   0  0  0  0  0  0  0  0  0  0  0  0
   -7.8312   -2.0822   -1.0143 H   0  0  0  0  0  0  0  0  0  0  0  0
   -6.6747    2.8579   -0.3611 H   0  0  0  0  0  0  0  0  0  0  0  0
   -5.2226    3.4853    0.4873 H   0  0  0  0  0  0  0  0  0  0  0  0
   -6.8364    3.6754    1.2099 H   0  0  0  0  0  0  0  0  0  0  0  0
    5.8098    2.9902   -3.0051 H   0  0  0  0  0  0  0  0  0  0  0  0
    5.9059    1.2173   -2.9240 H   0  0  0  0  0  0  0  0  0  0  0  0
    4.3116    2.0339   -3.0282 H   0  0  0  0  0  0  0  0  0  0  0  0
    4.7915   -3.5831   -0.1027 H   0  0  0  0  0  0  0  0  0  0  0  0
    6.2517   -2.8248   -0.8184 H   0  0  0  0  0  0  0  0  0  0  0  0
    6.3984   -3.9041    0.5861 H   0  0  0  0  0  0  0  0  0  0  0  0
    7.4546    1.6920    0.7525 H   0  0  0  0  0  0  0  0  0  0  0  0
    7.5910    0.1042    1.5760 H   0  0  0  0  0  0  0  0  0  0  0  0
    8.7153    0.5365    0.2695 H   0  0  0  0  0  0  0  0  0  0  0  0
  1 11  1  0  0  0  0
  1 13  1  0  0  0  0
  2 12  1  0  0  0  0
  2 14  1  0  0  0  0
  3 21  1  0  0  0  0
  3 27  1  0  0  0  0
  4 25  1  0  0  0  0
  4 27  1  0  0  0  0
  5 22  1  0  0  0  0
  5 28  1  0  0  0  0
  6 23  1  0  0  0  0
  6 29  1  0  0  0  0
  7 24  1  0  0  0  0
  7 30  1  0  0  0  0
  8 26  1  0  0  0  0
  8 31  1  0  0  0  0
  9 10  1  0  0  0  0
  9 11  1  0  0  0  0
  9 14  1  0  0  0  0
  9 32  1  0  0  0  0
 10 12  1  0  0  0  0
 10 13  1  0  0  0  0
 10 33  1  0  0  0  0
 11 15  1  0  0  0  0
 11 34  1  0  0  0  0
 12 16  1  0  0  0  0
 12 35  1  0  0  0  0
 13 36  1  0  0  0  0
 13 37  1  0  0  0  0
 14 38  1  0  0  0  0
 14 39  1  0  0  0  0
 15 17  2  0  0  0  0
 15 18  1  0  0  0  0
 16 19  2  0  0  0  0
 16 20  1  0  0  0  0
 17 21  1  0  0  0  0
 17 40  1  0  0  0  0
 18 22  2  0  0  0  0
 18 41  1  0  0  0  0
 19 24  1  0  0  0  0
 19 42  1  0  0  0  0
 20 23  2  0  0  0  0
 20 43  1  0  0  0  0
 21 25  2  0  0  0  0
 22 25  1  0  0  0  0
 23 26  1  0  0  0  0
 24 26  2  0  0  0  0
 27 44  1  0  0  0  0
 27 45  1  0  0  0  0
 28 46  1  0  0  0  0
 28 47  1  0  0  0  0
 28 48  1  0  0  0  0
 29 49  1  0  0  0  0
 29 50  1  0  0  0  0
 29 51  1  0  0  0  0
 30 52  1  0  0  0  0
 30 53  1  0  0  0  0
 30 54  1  0  0  0  0
 31 55  1  0  0  0  0
 31 56  1  0  0  0  0
 31 57  1  0  0  0  0
M  END
> <PUBCHEM_COMPOUND_CID>
342737

> <PUBCHEM_CONFORMER_RMSD>
1

> <PUBCHEM_CONFORMER_DIVERSEORDER>
1
10
6
12
22
25
3
5
23
20
4
18
11
2
16
26
9
24
13
14
21
8
15
19
17
7

> <PUBCHEM_MMFF94_PARTIAL_CHARGES>
33
1 -0.56
11 0.42
12 0.42
13 0.28
14 0.28
15 -0.14
16 -0.14
17 -0.15
18 -0.15
19 -0.15
2 -0.56
20 -0.15
21 0.08
22 0.08
23 0.08
24 0.08
25 0.08
26 0.08
27 0.56
28 0.28
29 0.28
3 -0.36
30 0.28
31 0.28
4 -0.36
40 0.15
41 0.15
42 0.15
43 0.15
5 -0.36
6 -0.36
7 -0.36
8 -0.36

> <PUBCHEM_EFFECTIVE_ROTOR_COUNT>
7.8

> <PUBCHEM_PHARMACOPHORE_FEATURES>
13
1 1 acceptor
1 2 acceptor
1 3 acceptor
1 4 acceptor
1 5 acceptor
1 6 acceptor
1 7 acceptor
1 8 acceptor
5 1 9 10 11 13 rings
5 2 9 10 12 14 rings
5 3 4 21 25 27 rings
6 15 17 18 21 22 25 rings
6 16 19 20 23 24 26 rings

> <PUBCHEM_HEAVY_ATOM_COUNT>
31

> <PUBCHEM_ATOM_DEF_STEREO_COUNT>
4

> <PUBCHEM_ATOM_UDEF_STEREO_COUNT>
0

> <PUBCHEM_BOND_DEF_STEREO_COUNT>
0

> <PUBCHEM_BOND_UDEF_STEREO_COUNT>
0

> <PUBCHEM_ISOTOPIC_ATOM_COUNT>
0

> <PUBCHEM_COMPONENT_COUNT>
1

> <PUBCHEM_CACTVS_TAUTO_COUNT>
1

> <PUBCHEM_CONFORMER_ID>
00053AD100000001

> <PUBCHEM_MMFF94_ENERGY>
134.8752

> <PUBCHEM_FEATURE_SELFOVERLAP>
66.615

> <PUBCHEM_SHAPE_FINGERPRINT>
10299344 5 18408604764158209283
10554248 39 18272652346275636574
10638233 991 18341889650044238741
10835480 77 17987514815113698716
10906281 52 18339344327970381947
11315181 36 18334016073737900873
11719270 70 17458627851731806726
12166972 35 18114184095162463945
12236239 1 18334859437004249203
12516196 113 18187368718319363304
12788726 201 18114729534354988416
13533116 47 18411140264501449978
13782708 43 16660652800175570111
14068700 675 18040435477937259561
14251764 18 18408325484083840914
14856354 85 18260828160203503775
15119646 104 18335983146720714434
15183329 4 18343867705626569391
15276724 80 18131071540960227644
15419008 42 17315632069972928389
15419008 47 15769782350985621102
1577012 14 18335420192171230051
18681886 176 17822583715786891171
21130935 74 18187088390099531218
21150785 3 18260551082471268430
21236236 1 18409731785747991329
21267235 1 18187085006519272347
22956985 138 17388240506568008902
23081809 10 18410009935997729457
23522609 53 18265590195965484769
23559900 14 18271812263356694712
23569943 247 17986117541614042315
3004659 81 18412261753555903282
34797466 226 17203894037147946150
3633792 109 18131075947596048942
394071 54 17275100609644905004
397830 11 15768913663769869809
4073 2 18059570222912988386
44880568 143 17095511894627994401
6328613 192 18272086063417030397
9831232 110 17750508667213525510

> <PUBCHEM_SHAPE_MULTIPOLES>
591.01
22.06
2.54
1.32
3.14
0.02
0.64
0.62
3.12
-0.72
0.25
-0.28
0.43
-3.94

> <PUBCHEM_SHAPE_SELFOVERLAP>
1297.548

> <PUBCHEM_SHAPE_VOLUME>
324.6

> <PUBCHEM_COORDINATE_TYPE>
2
5
10

$$$$

