4915
  -OEChem-07051212533D

 35 35  0     0  0  0  0  0  0999 V2000
   -2.8043    1.7144   -0.5462 O   0  0  0  0  0  0  0  0  0  0  0  0
   -2.9616   -0.5438   -0.1107 N   0  0  0  0  0  0  0  0  0  0  0  0
    4.0426   -0.4853   -0.2273 N   0  0  0  0  0  0  0  0  0  0  0  0
    5.4537   -0.4935    0.0501 N   0  0  0  0  0  0  0  0  0  0  0  0
   -4.4090   -0.6322   -0.2979 C   0  0  0  0  0  0  0  0  0  0  0  0
    1.9249    0.4580    0.4715 C   0  0  0  0  0  0  0  0  0  0  0  0
   -0.8064    0.5863   -0.0025 C   0  0  0  0  0  0  0  0  0  0  0  0
   -2.2523    0.6543   -0.2530 C   0  0  0  0  0  0  0  0  0  0  0  0
    3.3931    0.3887    0.7253 C   0  0  0  0  0  0  0  0  0  0  0  0
   -5.1304   -0.3612    1.0194 C   0  0  0  0  0  0  0  0  0  0  0  0
   -4.7671   -2.0103   -0.8453 C   0  0  0  0  0  0  0  0  0  0  0  0
    1.4111    1.4279   -0.3895 C   0  0  0  0  0  0  0  0  0  0  0  0
    1.0657   -0.4475    1.0941 C   0  0  0  0  0  0  0  0  0  0  0  0
    0.0382    1.4924   -0.6276 C   0  0  0  0  0  0  0  0  0  0  0  0
   -0.3072   -0.3830    0.8558 C   0  0  0  0  0  0  0  0  0  0  0  0
    6.1091   -1.3652   -0.9161 C   0  0  0  0  0  0  0  0  0  0  0  0
   -4.7091    0.1282   -1.0281 H   0  0  0  0  0  0  0  0  0  0  0  0
   -2.4782   -1.4047    0.1213 H   0  0  0  0  0  0  0  0  0  0  0  0
    3.8121    1.4039    0.6831 H   0  0  0  0  0  0  0  0  0  0  0  0
    3.5632    0.0361    1.7519 H   0  0  0  0  0  0  0  0  0  0  0  0
   -6.2160   -0.4158    0.8888 H   0  0  0  0  0  0  0  0  0  0  0  0
   -4.8403   -1.0872    1.7871 H   0  0  0  0  0  0  0  0  0  0  0  0
   -4.8849    0.6359    1.4006 H   0  0  0  0  0  0  0  0  0  0  0  0
   -4.2513   -2.1965   -1.7937 H   0  0  0  0  0  0  0  0  0  0  0  0
   -5.8443   -2.0915   -1.0237 H   0  0  0  0  0  0  0  0  0  0  0  0
   -4.4754   -2.8048   -0.1494 H   0  0  0  0  0  0  0  0  0  0  0  0
    2.0700    2.1375   -0.8830 H   0  0  0  0  0  0  0  0  0  0  0  0
    1.4528   -1.2041    1.7717 H   0  0  0  0  0  0  0  0  0  0  0  0
   -0.3452    2.2510   -1.3042 H   0  0  0  0  0  0  0  0  0  0  0  0
   -0.9420   -1.0842    1.3882 H   0  0  0  0  0  0  0  0  0  0  0  0
    3.8940   -0.1277   -1.1717 H   0  0  0  0  0  0  0  0  0  0  0  0
    5.8247    0.4509   -0.0560 H   0  0  0  0  0  0  0  0  0  0  0  0
    7.1843   -1.3885   -0.7125 H   0  0  0  0  0  0  0  0  0  0  0  0
    5.9715   -1.0110   -1.9438 H   0  0  0  0  0  0  0  0  0  0  0  0
    5.7390   -2.3936   -0.8404 H   0  0  0  0  0  0  0  0  0  0  0  0
  1  8  2  0  0  0  0
  2  5  1  0  0  0  0
  2  8  1  0  0  0  0
  2 18  1  0  0  0  0
  3  4  1  0  0  0  0
  3  9  1  0  0  0  0
  3 31  1  0  0  0  0
  4 16  1  0  0  0  0
  4 32  1  0  0  0  0
  5 10  1  0  0  0  0
  5 11  1  0  0  0  0
  5 17  1  0  0  0  0
  6  9  1  0  0  0  0
  6 12  2  0  0  0  0
  6 13  1  0  0  0  0
  7  8  1  0  0  0  0
  7 14  2  0  0  0  0
  7 15  1  0  0  0  0
  9 19  1  0  0  0  0
  9 20  1  0  0  0  0
 10 21  1  0  0  0  0
 10 22  1  0  0  0  0
 10 23  1  0  0  0  0
 11 24  1  0  0  0  0
 11 25  1  0  0  0  0
 11 26  1  0  0  0  0
 12 14  1  0  0  0  0
 12 27  1  0  0  0  0
 13 15  2  0  0  0  0
 13 28  1  0  0  0  0
 14 29  1  0  0  0  0
 15 30  1  0  0  0  0
 16 33  1  0  0  0  0
 16 34  1  0  0  0  0
 16 35  1  0  0  0  0
M  END
> <PUBCHEM_COMPOUND_CID>
4915

> <PUBCHEM_CONFORMER_RMSD>
0.8

> <PUBCHEM_CONFORMER_DIVERSEORDER>
1
6
7
2
9
4
3
5
11
12
8
10

> <PUBCHEM_MMFF94_PARTIAL_CHARGES>
21
1 -0.57
12 -0.15
13 -0.15
14 -0.15
15 -0.15
16 0.27
18 0.37
2 -0.73
27 0.15
28 0.15
29 0.15
3 -0.63
30 0.15
31 0.36
32 0.36
4 -0.63
5 0.3
6 -0.14
7 0.09
8 0.54
9 0.41

> <PUBCHEM_EFFECTIVE_ROTOR_COUNT>
6

> <PUBCHEM_PHARMACOPHORE_FEATURES>
6
1 1 acceptor
1 2 donor
1 3 donor
1 4 donor
3 5 10 11 hydrophobe
6 6 7 12 13 14 15 rings

> <PUBCHEM_HEAVY_ATOM_COUNT>
16

> <PUBCHEM_ATOM_DEF_STEREO_COUNT>
0

> <PUBCHEM_ATOM_UDEF_STEREO_COUNT>
0

> <PUBCHEM_BOND_DEF_STEREO_COUNT>
0

> <PUBCHEM_BOND_UDEF_STEREO_COUNT>
0

> <PUBCHEM_ISOTOPIC_ATOM_COUNT>
0

> <PUBCHEM_COMPONENT_COUNT>
1

> <PUBCHEM_CACTVS_TAUTO_COUNT>
2

> <PUBCHEM_CONFORMER_ID>
0000133300000001

> <PUBCHEM_MMFF94_ENERGY>
31.6324

> <PUBCHEM_FEATURE_SELFOVERLAP>
31.729

> <PUBCHEM_SHAPE_FINGERPRINT>
11089746 13 10447929447326625394
11128504 68 17775278349025027862
117890 112 10375872978723233302
12032990 46 18412266129336332512
12596602 18 16370729210128986834
12670543 26 17560808770256987222
12715332 25 17458349615307974190
13288520 33 18407759252564278836
13675066 3 14201390569408191745
13760787 5 18130787798894340069
13862211 1 18201729448406391250
14178000 29 18410292493480460636
14251718 22 14189570823683325459
14350574 20 18131347492545061160
14455015 7 17822009830862512702
14576447 43 18130235886337118938
14911166 2 17561082497191661264
14993402 34 16702020876855470324
15501527 24 17561360682418679902
15880784 105 18040998380518900643
17834072 33 18413105039939952252
18186145 218 16486705662788812809
18222031 100 18201450150735265768
19026448 4 17968389999811766416
19784866 240 18187357727344967710
200 152 18130516249587030897
20871999 31 17346885575816674781
21150785 3 16200141076485662958
21267235 1 18272928298599429395
21637258 2 17894922827434795294
22713019 99 18343301457560446578
23379529 103 18124029031677548603
23402539 116 18412267246048753205
23402655 69 17631748169907645789
23557571 272 18410289258974447780
23559900 14 18336837385345143480
23590187 198 18186800266597211959
26918003 58 16877660166937512627
2767999 5 8718827570118571290
2838139 119 12319733644554176854
33382 64 17967810574569707590
42 15 17603584114678451577
441001 317 10735880577631870839
465052 167 17603300449922684566
4990 188 18412545448745583388
5104073 3 5544895997491795286
69474 34 6483345612912451642

> <PUBCHEM_SHAPE_MULTIPOLES>
308.46
12.41
1.59
1.01
6.49
0.07
-0.12
7.88
1.84
-0.57
0.56
-0.09
0.12
0.22

> <PUBCHEM_SHAPE_SELFOVERLAP>
618.344

> <PUBCHEM_SHAPE_VOLUME>
182.9

> <PUBCHEM_COORDINATE_TYPE>
2
5
10

$$$$

