16061233
  -OEChem-07051213082D

 96 97  0     1  0  0  0  0  0999 V2000
    3.8660   -9.5950    0.0000 O   0  0  0  0  0  0  0  0  0  0  0  0
   13.3923    9.9050    0.0000 O   0  0  0  0  0  0  0  0  0  0  0  0
    3.0000   -7.0950    0.0000 C   0  0  0  0  0  0  0  0  0  0  0  0
    3.0000   -8.0950    0.0000 C   0  0  0  0  0  0  0  0  0  0  0  0
    3.8660   -8.5950    0.0000 C   0  0  1  0  0  0  0  0  0  0  0  0
    3.8660   -6.5950    0.0000 C   0  0  0  0  0  0  0  0  0  0  0  0
    4.7320   -8.0950    0.0000 C   0  0  0  0  0  0  0  0  0  0  0  0
    4.7320   -7.0950    0.0000 C   0  0  0  0  0  0  0  0  0  0  0  0
    2.0000   -7.0950    0.0000 C   0  0  0  0  0  0  0  0  0  0  0  0
    2.5000   -6.2290    0.0000 C   0  0  0  0  0  0  0  0  0  0  0  0
   10.7942    8.4050    0.0000 C   0  0  0  0  0  0  0  0  0  0  0  0
   10.7942    9.4050    0.0000 C   0  0  0  0  0  0  0  0  0  0  0  0
    3.8660   -5.5950    0.0000 C   0  0  0  0  0  0  0  0  0  0  0  0
    5.5981   -6.5950    0.0000 C   0  0  0  0  0  0  0  0  0  0  0  0
   11.6603    7.9050    0.0000 C   0  0  0  0  0  0  0  0  0  0  0  0
   11.6603    9.9050    0.0000 C   0  0  0  0  0  0  0  0  0  0  0  0
    9.7942    8.4050    0.0000 C   0  0  0  0  0  0  0  0  0  0  0  0
   10.2942    7.5390    0.0000 C   0  0  0  0  0  0  0  0  0  0  0  0
   12.5263    8.4050    0.0000 C   0  0  0  0  0  0  0  0  0  0  0  0
   12.5263    9.4050    0.0000 C   0  0  0  0  0  0  0  0  0  0  0  0
    4.7320   -5.0950    0.0000 C   0  0  0  0  0  0  0  0  0  0  0  0
   11.6603    6.9050    0.0000 C   0  0  0  0  0  0  0  0  0  0  0  0
   13.3923    7.9050    0.0000 C   0  0  0  0  0  0  0  0  0  0  0  0
    4.7320   -4.0950    0.0000 C   0  0  0  0  0  0  0  0  0  0  0  0
   10.7942    6.4050    0.0000 C   0  0  0  0  0  0  0  0  0  0  0  0
    3.8660   -3.5950    0.0000 C   0  0  0  0  0  0  0  0  0  0  0  0
    5.5981   -3.5950    0.0000 C   0  0  0  0  0  0  0  0  0  0  0  0
   10.7942    5.4050    0.0000 C   0  0  0  0  0  0  0  0  0  0  0  0
   11.6603    4.9050    0.0000 C   0  0  0  0  0  0  0  0  0  0  0  0
    5.5981   -2.5950    0.0000 C   0  0  0  0  0  0  0  0  0  0  0  0
    9.9282    4.9050    0.0000 C   0  0  0  0  0  0  0  0  0  0  0  0
    6.4641   -2.0950    0.0000 C   0  0  0  0  0  0  0  0  0  0  0  0
    9.9282    3.9050    0.0000 C   0  0  0  0  0  0  0  0  0  0  0  0
    6.4641   -1.0950    0.0000 C   0  0  0  0  0  0  0  0  0  0  0  0
    9.0622    3.4050    0.0000 C   0  0  0  0  0  0  0  0  0  0  0  0
    9.0622    2.4050    0.0000 C   0  0  0  0  0  0  0  0  0  0  0  0
    5.5981   -0.5950    0.0000 C   0  0  0  0  0  0  0  0  0  0  0  0
    7.3301   -0.5950    0.0000 C   0  0  0  0  0  0  0  0  0  0  0  0
    8.1962    1.9050    0.0000 C   0  0  0  0  0  0  0  0  0  0  0  0
    9.9282    1.9050    0.0000 C   0  0  0  0  0  0  0  0  0  0  0  0
    7.3301    0.4050    0.0000 C   0  0  0  0  0  0  0  0  0  0  0  0
    8.1962    0.9050    0.0000 C   0  0  0  0  0  0  0  0  0  0  0  0
    2.3894   -7.9873    0.0000 H   0  0  0  0  0  0  0  0  0  0  0  0
    2.7880   -8.6776    0.0000 H   0  0  0  0  0  0  0  0  0  0  0  0
    4.4030   -8.9050    0.0000 H   0  0  0  0  0  0  0  0  0  0  0  0
    4.9441   -8.6776    0.0000 H   0  0  0  0  0  0  0  0  0  0  0  0
    5.3426   -7.9873    0.0000 H   0  0  0  0  0  0  0  0  0  0  0  0
    2.0000   -6.4750    0.0000 H   0  0  0  0  0  0  0  0  0  0  0  0
    1.3800   -7.0950    0.0000 H   0  0  0  0  0  0  0  0  0  0  0  0
    2.0000   -7.7150    0.0000 H   0  0  0  0  0  0  0  0  0  0  0  0
    3.0369   -5.9190    0.0000 H   0  0  0  0  0  0  0  0  0  0  0  0
    2.1900   -5.6920    0.0000 H   0  0  0  0  0  0  0  0  0  0  0  0
    1.9631   -6.5390    0.0000 H   0  0  0  0  0  0  0  0  0  0  0  0
   10.5822    9.9876    0.0000 H   0  0  0  0  0  0  0  0  0  0  0  0
   10.1836    9.2973    0.0000 H   0  0  0  0  0  0  0  0  0  0  0  0
    3.3291   -5.2850    0.0000 H   0  0  0  0  0  0  0  0  0  0  0  0
    5.9081   -7.1319    0.0000 H   0  0  0  0  0  0  0  0  0  0  0  0
    6.1350   -6.2850    0.0000 H   0  0  0  0  0  0  0  0  0  0  0  0
    5.2881   -6.0581    0.0000 H   0  0  0  0  0  0  0  0  0  0  0  0
   12.0588   10.3799    0.0000 H   0  0  0  0  0  0  0  0  0  0  0  0
   11.2617   10.3799    0.0000 H   0  0  0  0  0  0  0  0  0  0  0  0
    4.4030   -9.9050    0.0000 H   0  0  0  0  0  0  0  0  0  0  0  0
    9.7942    9.0250    0.0000 H   0  0  0  0  0  0  0  0  0  0  0  0
    9.1742    8.4050    0.0000 H   0  0  0  0  0  0  0  0  0  0  0  0
    9.7942    7.7850    0.0000 H   0  0  0  0  0  0  0  0  0  0  0  0
    9.7573    7.8490    0.0000 H   0  0  0  0  0  0  0  0  0  0  0  0
    9.9842    7.0020    0.0000 H   0  0  0  0  0  0  0  0  0  0  0  0
   10.8312    7.2290    0.0000 H   0  0  0  0  0  0  0  0  0  0  0  0
    5.2690   -5.4050    0.0000 H   0  0  0  0  0  0  0  0  0  0  0  0
   12.1972    6.5950    0.0000 H   0  0  0  0  0  0  0  0  0  0  0  0
   13.0823    7.3681    0.0000 H   0  0  0  0  0  0  0  0  0  0  0  0
   13.9292    7.5950    0.0000 H   0  0  0  0  0  0  0  0  0  0  0  0
   13.7023    8.4419    0.0000 H   0  0  0  0  0  0  0  0  0  0  0  0
   10.2573    6.7150    0.0000 H   0  0  0  0  0  0  0  0  0  0  0  0
    4.1760   -3.0581    0.0000 H   0  0  0  0  0  0  0  0  0  0  0  0
    3.3291   -3.2850    0.0000 H   0  0  0  0  0  0  0  0  0  0  0  0
    3.5560   -4.1319    0.0000 H   0  0  0  0  0  0  0  0  0  0  0  0
    6.1350   -3.9050    0.0000 H   0  0  0  0  0  0  0  0  0  0  0  0
   11.3503    4.3681    0.0000 H   0  0  0  0  0  0  0  0  0  0  0  0
   12.1972    4.5950    0.0000 H   0  0  0  0  0  0  0  0  0  0  0  0
   11.9703    5.4419    0.0000 H   0  0  0  0  0  0  0  0  0  0  0  0
    5.0611   -2.2850    0.0000 H   0  0  0  0  0  0  0  0  0  0  0  0
    9.3913    5.2150    0.0000 H   0  0  0  0  0  0  0  0  0  0  0  0
    7.0010   -2.4050    0.0000 H   0  0  0  0  0  0  0  0  0  0  0  0
   10.4651    3.5950    0.0000 H   0  0  0  0  0  0  0  0  0  0  0  0
    8.5252    3.7150    0.0000 H   0  0  0  0  0  0  0  0  0  0  0  0
    5.9081   -0.0581    0.0000 H   0  0  0  0  0  0  0  0  0  0  0  0
    5.0611   -0.2850    0.0000 H   0  0  0  0  0  0  0  0  0  0  0  0
    5.2881   -1.1319    0.0000 H   0  0  0  0  0  0  0  0  0  0  0  0
    7.8671   -0.9050    0.0000 H   0  0  0  0  0  0  0  0  0  0  0  0
    7.6592    2.2150    0.0000 H   0  0  0  0  0  0  0  0  0  0  0  0
    9.6182    1.3681    0.0000 H   0  0  0  0  0  0  0  0  0  0  0  0
   10.4651    1.5950    0.0000 H   0  0  0  0  0  0  0  0  0  0  0  0
   10.2382    2.4419    0.0000 H   0  0  0  0  0  0  0  0  0  0  0  0
    6.7932    0.7150    0.0000 H   0  0  0  0  0  0  0  0  0  0  0  0
    8.7331    0.5950    0.0000 H   0  0  0  0  0  0  0  0  0  0  0  0
  5  1  1  1  0  0  0
  1 62  1  0  0  0  0
  2 20  2  0  0  0  0
  3  4  1  0  0  0  0
  3  6  1  0  0  0  0
  3  9  1  0  0  0  0
  3 10  1  0  0  0  0
  4  5  1  0  0  0  0
  4 43  1  0  0  0  0
  4 44  1  0  0  0  0
  5  7  1  0  0  0  0
  5 45  1  0  0  0  0
  6  8  2  0  0  0  0
  6 13  1  0  0  0  0
  7  8  1  0  0  0  0
  7 46  1  0  0  0  0
  7 47  1  0  0  0  0
  8 14  1  0  0  0  0
  9 48  1  0  0  0  0
  9 49  1  0  0  0  0
  9 50  1  0  0  0  0
 10 51  1  0  0  0  0
 10 52  1  0  0  0  0
 10 53  1  0  0  0  0
 11 12  1  0  0  0  0
 11 15  1  0  0  0  0
 11 17  1  0  0  0  0
 11 18  1  0  0  0  0
 12 16  1  0  0  0  0
 12 54  1  0  0  0  0
 12 55  1  0  0  0  0
 13 21  2  0  0  0  0
 13 56  1  0  0  0  0
 14 57  1  0  0  0  0
 14 58  1  0  0  0  0
 14 59  1  0  0  0  0
 15 19  2  0  0  0  0
 15 22  1  0  0  0  0
 16 20  1  0  0  0  0
 16 60  1  0  0  0  0
 16 61  1  0  0  0  0
 17 63  1  0  0  0  0
 17 64  1  0  0  0  0
 17 65  1  0  0  0  0
 18 66  1  0  0  0  0
 18 67  1  0  0  0  0
 18 68  1  0  0  0  0
 19 20  1  0  0  0  0
 19 23  1  0  0  0  0
 21 24  1  0  0  0  0
 21 69  1  0  0  0  0
 22 25  2  0  0  0  0
 22 70  1  0  0  0  0
 23 71  1  0  0  0  0
 23 72  1  0  0  0  0
 23 73  1  0  0  0  0
 24 26  1  0  0  0  0
 24 27  2  0  0  0  0
 25 28  1  0  0  0  0
 25 74  1  0  0  0  0
 26 75  1  0  0  0  0
 26 76  1  0  0  0  0
 26 77  1  0  0  0  0
 27 30  1  0  0  0  0
 27 78  1  0  0  0  0
 28 29  1  0  0  0  0
 28 31  2  0  0  0  0
 29 79  1  0  0  0  0
 29 80  1  0  0  0  0
 29 81  1  0  0  0  0
 30 32  2  0  0  0  0
 30 82  1  0  0  0  0
 31 33  1  0  0  0  0
 31 83  1  0  0  0  0
 32 34  1  0  0  0  0
 32 84  1  0  0  0  0
 33 35  2  0  0  0  0
 33 85  1  0  0  0  0
 34 37  1  0  0  0  0
 34 38  2  0  0  0  0
 35 36  1  0  0  0  0
 35 86  1  0  0  0  0
 36 39  2  0  0  0  0
 36 40  1  0  0  0  0
 37 87  1  0  0  0  0
 37 88  1  0  0  0  0
 37 89  1  0  0  0  0
 38 41  1  0  0  0  0
 38 90  1  0  0  0  0
 39 42  1  0  0  0  0
 39 91  1  0  0  0  0
 40 92  1  0  0  0  0
 40 93  1  0  0  0  0
 40 94  1  0  0  0  0
 41 42  2  0  0  0  0
 41 95  1  0  0  0  0
 42 96  1  0  0  0  0
M  END
> <PUBCHEM_COMPOUND_CID>
16061233

> <PUBCHEM_COMPOUND_CANONICALIZED>
1

> <PUBCHEM_CACTVS_COMPLEXITY>
1330

> <PUBCHEM_CACTVS_HBOND_ACCEPTOR>
2

> <PUBCHEM_CACTVS_HBOND_DONOR>
1

> <PUBCHEM_CACTVS_ROTATABLE_BOND>
10

> <PUBCHEM_CACTVS_SUBSKEYS>
AAADcfB8MAAAAAAAAAAAAAAAAAAAAAAAAAAgQAAAAAAAAAAAAAAAGgAACAAADhSggAICAAAAAgCIAqBSAAAAAAAgAAAICAEAAEgIEBIAAQAAQAAEwAAIgQOIiMAPAAAAAAAAAAAAAAAAAAAAAAAAAAAAAA==

> <PUBCHEM_IUPAC_OPENEYE_NAME>
3-[(1E,3E,5E,7E,9E,11E,13E,15E,17E)-18-[(4R)-4-hydroxy-2,6,6-trimethyl-cyclohexen-1-yl]-3,7,12,16-tetramethyl-octadeca-1,3,5,7,9,11,13,15,17-nonaenyl]-2,4,4-trimethyl-cyclohex-2-en-1-one

> <PUBCHEM_IUPAC_CAS_NAME>
3-[(1E,3E,5E,7E,9E,11E,13E,15E,17E)-18-[(4R)-4-hydroxy-2,6,6-trimethyl-1-cyclohexenyl]-3,7,12,16-tetramethyloctadeca-1,3,5,7,9,11,13,15,17-nonaenyl]-2,4,4-trimethyl-1-cyclohex-2-enone

> <PUBCHEM_IUPAC_NAME>
3-[(1E,3E,5E,7E,9E,11E,13E,15E,17E)-18-[(4R)-4-hydroxy-2,6,6-trimethylcyclohexen-1-yl]-3,7,12,16-tetramethyloctadeca-1,3,5,7,9,11,13,15,17-nonaenyl]-2,4,4-trimethylcyclohex-2-en-1-one

> <PUBCHEM_IUPAC_SYSTEMATIC_NAME>
2,4,4-trimethyl-3-[(1E,3E,5E,7E,9E,11E,13E,15E,17E)-3,7,12,16-tetramethyl-18-[(4R)-2,6,6-trimethyl-4-oxidanyl-cyclohexen-1-yl]octadeca-1,3,5,7,9,11,13,15,17-nonaenyl]cyclohex-2-en-1-one

> <PUBCHEM_IUPAC_TRADITIONAL_NAME>
3-[(1E,3E,5E,7E,9E,11E,13E,15E,17E)-18-[(4R)-4-hydroxy-2,6,6-trimethyl-cyclohexen-1-yl]-3,7,12,16-tetramethyl-octadeca-1,3,5,7,9,11,13,15,17-nonaenyl]-2,4,4-trimethyl-cyclohex-2-en-1-one

> <PUBCHEM_IUPAC_INCHI>
InChI=1S/C40H54O2/c1-29(17-13-19-31(3)21-23-36-33(5)27-35(41)28-40(36,9)10)15-11-12-16-30(2)18-14-20-32(4)22-24-37-34(6)38(42)25-26-39(37,7)8/h11-24,35,41H,25-28H2,1-10H3/b12-11+,17-13+,18-14+,23-21+,24-22+,29-15+,30-16+,31-19+,32-20+/t35-/m1/s1

> <PUBCHEM_IUPAC_INCHIKEY>
ZRCXVNZZDQGBQT-BANQPSJHSA-N

> <PUBCHEM_XLOGP3_AA>
11.1

> <PUBCHEM_EXACT_MASS>
566.412381

> <PUBCHEM_MOLECULAR_FORMULA>
C40H54O2

> <PUBCHEM_MOLECULAR_WEIGHT>
566.85556

> <PUBCHEM_OPENEYE_CAN_SMILES>
CC1=C(C(CC(C1)O)(C)C)C=CC(=CC=CC(=CC=CC=C(C)C=CC=C(C)C=CC2=C(C(=O)CCC2(C)C)C)C)C

> <PUBCHEM_OPENEYE_ISO_SMILES>
CC1=C(C(C[C@@H](C1)O)(C)C)/C=C/C(=C/C=C/C(=C/C=C/C=C(\C)/C=C/C=C(\C)/C=C/C2=C(C(=O)CCC2(C)C)C)/C)/C

> <PUBCHEM_CACTVS_TPSA>
37.3

> <PUBCHEM_MONOISOTOPIC_WEIGHT>
566.412381

> <PUBCHEM_TOTAL_CHARGE>
0

> <PUBCHEM_HEAVY_ATOM_COUNT>
42

> <PUBCHEM_ATOM_DEF_STEREO_COUNT>
1

> <PUBCHEM_ATOM_UDEF_STEREO_COUNT>
0

> <PUBCHEM_BOND_DEF_STEREO_COUNT>
9

> <PUBCHEM_BOND_UDEF_STEREO_COUNT>
0

> <PUBCHEM_ISOTOPIC_ATOM_COUNT>
0

> <PUBCHEM_COMPONENT_COUNT>
1

> <PUBCHEM_CACTVS_TAUTO_COUNT>
2

> <PUBCHEM_COORDINATE_TYPE>
1
5
255

> <PUBCHEM_BONDANNOTATIONS>
5  1  5

$$$$

