185311
  -OEChem-07051212563D

 35 37  0     0  0  0  0  0  0999 V2000
    0.4912   -0.9950   -0.1742 O   0  0  0  0  0  0  0  0  0  0  0  0
   -2.1979   -2.0965   -0.1850 O   0  0  0  0  0  0  0  0  0  0  0  0
    3.2841   -1.7788   -0.3632 O   0  0  0  0  0  0  0  0  0  0  0  0
   -4.2732   -0.2652    0.0832 O   0  0  0  0  0  0  0  0  0  0  0  0
   -3.7342    2.4252    0.3423 O   0  0  0  0  0  0  0  0  0  0  0  0
    5.1478    0.2938   -0.2189 O   0  0  0  0  0  0  0  0  0  0  0  0
   -0.3362    1.0951    0.0733 C   0  0  0  0  0  0  0  0  0  0  0  0
    1.0864    1.1775    0.0274 C   0  0  0  0  0  0  0  0  0  0  0  0
   -0.6463   -0.2553   -0.0544 C   0  0  0  0  0  0  0  0  0  0  0  0
    1.5411   -0.1286   -0.1251 C   0  0  0  0  0  0  0  0  0  0  0  0
   -1.9447   -0.7624   -0.0570 C   0  0  0  0  0  0  0  0  0  0  0  0
   -1.3929    2.0142    0.2089 C   0  0  0  0  0  0  0  0  0  0  0  0
    2.8865   -0.4828   -0.2132 C   0  0  0  0  0  0  0  0  0  0  0  0
    2.0367    2.2127    0.0979 C   0  0  0  0  0  0  0  0  0  0  0  0
   -2.9778    0.1693    0.0790 C   0  0  0  0  0  0  0  0  0  0  0  0
   -2.7093    1.5336    0.2098 C   0  0  0  0  0  0  0  0  0  0  0  0
    3.8119    0.5623   -0.1404 C   0  0  0  0  0  0  0  0  0  0  0  0
    3.3971    1.8871    0.0124 C   0  0  0  0  0  0  0  0  0  0  0  0
   -1.6524   -2.9567    0.8121 C   0  0  0  0  0  0  0  0  0  0  0  0
    2.9069   -2.6937    0.6630 C   0  0  0  0  0  0  0  0  0  0  0  0
   -4.7247   -0.9557   -1.0779 C   0  0  0  0  0  0  0  0  0  0  0  0
   -1.1939    3.0771    0.3114 H   0  0  0  0  0  0  0  0  0  0  0  0
    1.7303    3.2477    0.2165 H   0  0  0  0  0  0  0  0  0  0  0  0
    4.1288    2.6900    0.0675 H   0  0  0  0  0  0  0  0  0  0  0  0
   -4.5729    1.9322    0.3227 H   0  0  0  0  0  0  0  0  0  0  0  0
   -0.6318   -3.2435    0.5449 H   0  0  0  0  0  0  0  0  0  0  0  0
   -2.2635   -3.8631    0.8487 H   0  0  0  0  0  0  0  0  0  0  0  0
   -1.6699   -2.4889    1.8024 H   0  0  0  0  0  0  0  0  0  0  0  0
    5.6441    1.1274   -0.1513 H   0  0  0  0  0  0  0  0  0  0  0  0
    3.6190   -3.5239    0.6555 H   0  0  0  0  0  0  0  0  0  0  0  0
    1.9108   -3.0964    0.4611 H   0  0  0  0  0  0  0  0  0  0  0  0
    2.9347   -2.2245    1.6524 H   0  0  0  0  0  0  0  0  0  0  0  0
   -4.1799   -0.6530   -1.9791 H   0  0  0  0  0  0  0  0  0  0  0  0
   -5.7820   -0.7148   -1.2231 H   0  0  0  0  0  0  0  0  0  0  0  0
   -4.6427   -2.0359   -0.9280 H   0  0  0  0  0  0  0  0  0  0  0  0
  1  9  1  0  0  0  0
  1 10  1  0  0  0  0
  2 11  1  0  0  0  0
  2 19  1  0  0  0  0
  3 13  1  0  0  0  0
  3 20  1  0  0  0  0
  4 15  1  0  0  0  0
  4 21  1  0  0  0  0
  5 16  1  0  0  0  0
  5 25  1  0  0  0  0
  6 17  1  0  0  0  0
  6 29  1  0  0  0  0
  7  8  1  0  0  0  0
  7  9  1  0  0  0  0
  7 12  2  0  0  0  0
  8 10  2  0  0  0  0
  8 14  1  0  0  0  0
  9 11  2  0  0  0  0
 10 13  1  0  0  0  0
 11 15  1  0  0  0  0
 12 16  1  0  0  0  0
 12 22  1  0  0  0  0
 13 17  2  0  0  0  0
 14 18  2  0  0  0  0
 14 23  1  0  0  0  0
 15 16  2  0  0  0  0
 17 18  1  0  0  0  0
 18 24  1  0  0  0  0
 19 26  1  0  0  0  0
 19 27  1  0  0  0  0
 19 28  1  0  0  0  0
 20 30  1  0  0  0  0
 20 31  1  0  0  0  0
 20 32  1  0  0  0  0
 21 33  1  0  0  0  0
 21 34  1  0  0  0  0
 21 35  1  0  0  0  0
M  END
> <PUBCHEM_COMPOUND_CID>
185311

> <PUBCHEM_CONFORMER_RMSD>
0.6

> <PUBCHEM_CONFORMER_DIVERSEORDER>
2
4
5
3
1

> <PUBCHEM_MMFF94_PARTIAL_CHARGES>
24
1 -0.28
10 0.14
11 0.08
12 -0.15
13 0.08
14 -0.15
15 0.08
16 0.08
17 0.08
18 -0.15
19 0.28
2 -0.36
20 0.28
21 0.28
22 0.15
23 0.15
24 0.15
25 0.45
29 0.45
3 -0.36
4 -0.36
5 -0.53
6 -0.53
9 0.14

> <PUBCHEM_EFFECTIVE_ROTOR_COUNT>
3

> <PUBCHEM_PHARMACOPHORE_FEATURES>
9
1 1 acceptor
1 2 acceptor
1 3 acceptor
1 4 acceptor
1 5 donor
1 6 donor
5 1 7 8 9 10 rings
6 7 9 11 12 15 16 rings
6 8 10 13 14 17 18 rings

> <PUBCHEM_HEAVY_ATOM_COUNT>
21

> <PUBCHEM_ATOM_DEF_STEREO_COUNT>
0

> <PUBCHEM_ATOM_UDEF_STEREO_COUNT>
0

> <PUBCHEM_BOND_DEF_STEREO_COUNT>
0

> <PUBCHEM_BOND_UDEF_STEREO_COUNT>
0

> <PUBCHEM_ISOTOPIC_ATOM_COUNT>
0

> <PUBCHEM_COMPONENT_COUNT>
1

> <PUBCHEM_CACTVS_TAUTO_COUNT>
13

> <PUBCHEM_CONFORMER_ID>
0002D3DF00000002

> <PUBCHEM_MMFF94_ENERGY>
76.2937

> <PUBCHEM_FEATURE_SELFOVERLAP>
45.879

> <PUBCHEM_SHAPE_FINGERPRINT>
10062212 137 18187936143892230015
10366900 7 18189056412696228992
10411042 1 16321182283367070139
10608611 8 18408604738504787880
10616163 171 18337106770173545038
10967382 1 18410854347921575184
1100329 8 17979355592310163003
11471102 20 18338238163538530236
11578080 2 16807306695848222299
12107183 9 17832423476802483873
13140716 1 17832981651290686297
13583140 156 16845296007946316617
14115302 16 18129658587182551629
14178342 30 18340498768172166688
14223421 5 18265330616752245112
14790565 3 17903910411590544753
15196674 1 18337389447535045356
15420108 30 16530035585798244433
15442244 35 18337953518722733872
15536298 74 18334575771973914964
16945 1 18339918225515865840
17492 89 18335138738923323527
19591789 44 18196652023672694699
200 152 17967251962021136621
20510252 161 18261388979510430065
20645477 70 18334012765853934710
21267235 1 18337100198741330070
21421861 104 17844534520822007650
21501502 16 18408603694700822549
221490 88 18267013960849440440
2334 1 17834109745455935080
23366157 5 18202561783367425516
23402539 116 18334582317699324725
23463225 33 18337952397794454284
23558518 356 18341603833229462451
23559900 14 18266182742690977888
2748010 2 17977383828511191001
2871803 45 18410857625145120046
335352 9 18121497118232718404
34934 24 18337397036847856398
350125 39 18410008879810723785
4214541 1 18408884057312769012
474 4 17702658844447958364
5104073 3 18337107968295010321
69090 78 18408605838221650271
7364860 26 18408041814784809322
8809292 202 18269552749802974515
9709674 26 18335413573753571726

> <PUBCHEM_SHAPE_MULTIPOLES>
396.95
8.44
2.97
0.73
0.18
1.04
0.02
0.12
1.15
-0.08
-0.65
-0.26
0.18
-0.4

> <PUBCHEM_SHAPE_SELFOVERLAP>
882.039

> <PUBCHEM_SHAPE_VOLUME>
215.8

> <PUBCHEM_COORDINATE_TYPE>
2
5
10

$$$$

