11285
  -OEChem-07051213143D

 37 40  0     0  0  0  0  0  0999 V2000
   -2.1091   -3.1992   -0.9986 O   0  0  0  0  0  0  0  0  0  0  0  0
    0.5811    0.2140    0.0372 C   0  0  0  0  0  0  0  0  0  0  0  0
    0.0333   -1.0877    0.1470 C   0  0  0  0  0  0  0  0  0  0  0  0
   -0.3420    1.2889   -0.0289 C   0  0  0  0  0  0  0  0  0  0  0  0
   -1.3590   -1.2786    0.1867 C   0  0  0  0  0  0  0  0  0  0  0  0
   -1.7372    1.1032    0.0105 C   0  0  0  0  0  0  0  0  0  0  0  0
   -2.2522   -0.2010    0.1198 C   0  0  0  0  0  0  0  0  0  0  0  0
    2.0128    0.3729   -0.0007 C   0  0  0  0  0  0  0  0  0  0  0  0
    2.8399   -0.7782    0.0729 C   0  0  0  0  0  0  0  0  0  0  0  0
    0.8802   -2.1971    0.2170 C   0  0  0  0  0  0  0  0  0  0  0  0
   -1.9164   -2.6737    0.3035 C   0  0  0  0  0  0  0  0  0  0  0  0
    2.2622   -2.0451    0.1805 C   0  0  0  0  0  0  0  0  0  0  0  0
    0.0725    2.7277   -0.1456 C   0  0  0  0  0  0  0  0  0  0  0  0
   -2.6282    2.1884   -0.0569 C   0  0  0  0  0  0  0  0  0  0  0  0
   -3.6439   -0.3934    0.1597 C   0  0  0  0  0  0  0  0  0  0  0  0
    2.6732    1.6228   -0.1085 C   0  0  0  0  0  0  0  0  0  0  0  0
    4.2397   -0.6579    0.0387 C   0  0  0  0  0  0  0  0  0  0  0  0
   -4.0077    1.9839   -0.0164 C   0  0  0  0  0  0  0  0  0  0  0  0
   -4.5153    0.6935    0.0918 C   0  0  0  0  0  0  0  0  0  0  0  0
    4.0665    1.7288   -0.1417 C   0  0  0  0  0  0  0  0  0  0  0  0
    4.8500    0.5878   -0.0681 C   0  0  0  0  0  0  0  0  0  0  0  0
    0.5367   -3.2240    0.2692 H   0  0  0  0  0  0  0  0  0  0  0  0
   -1.2922   -3.3569    0.8846 H   0  0  0  0  0  0  0  0  0  0  0  0
   -2.8596   -2.7258    0.8524 H   0  0  0  0  0  0  0  0  0  0  0  0
    2.8849   -2.9365    0.2309 H   0  0  0  0  0  0  0  0  0  0  0  0
    0.6355    3.0111    0.7509 H   0  0  0  0  0  0  0  0  0  0  0  0
    0.5982    2.8729   -1.0960 H   0  0  0  0  0  0  0  0  0  0  0  0
   -0.6586    3.5261   -0.1889 H   0  0  0  0  0  0  0  0  0  0  0  0
   -2.3772    3.2344   -0.1434 H   0  0  0  0  0  0  0  0  0  0  0  0
   -4.1157   -1.3682    0.2133 H   0  0  0  0  0  0  0  0  0  0  0  0
    2.2405    2.5983   -0.1773 H   0  0  0  0  0  0  0  0  0  0  0  0
    4.8725   -1.5419    0.0952 H   0  0  0  0  0  0  0  0  0  0  0  0
   -4.6867    2.8301   -0.0711 H   0  0  0  0  0  0  0  0  0  0  0  0
   -5.5891    0.5324    0.1166 H   0  0  0  0  0  0  0  0  0  0  0  0
    4.5372    2.7045   -0.2254 H   0  0  0  0  0  0  0  0  0  0  0  0
    5.9326    0.6647   -0.0935 H   0  0  0  0  0  0  0  0  0  0  0  0
   -1.3083   -3.0326   -1.5238 H   0  0  0  0  0  0  0  0  0  0  0  0
  1 11  1  0  0  0  0
  1 37  1  0  0  0  0
  2  3  1  0  0  0  0
  2  4  2  0  0  0  0
  2  8  1  0  0  0  0
  3  5  2  0  0  0  0
  3 10  1  0  0  0  0
  4  6  1  0  0  0  0
  4 13  1  0  0  0  0
  5  7  1  0  0  0  0
  5 11  1  0  0  0  0
  6  7  1  0  0  0  0
  6 14  2  0  0  0  0
  7 15  2  0  0  0  0
  8  9  1  0  0  0  0
  8 16  2  0  0  0  0
  9 12  1  0  0  0  0
  9 17  2  0  0  0  0
 10 12  2  0  0  0  0
 10 22  1  0  0  0  0
 11 23  1  0  0  0  0
 11 24  1  0  0  0  0
 12 25  1  0  0  0  0
 13 26  1  0  0  0  0
 13 27  1  0  0  0  0
 13 28  1  0  0  0  0
 14 18  1  0  0  0  0
 14 29  1  0  0  0  0
 15 19  1  0  0  0  0
 15 30  1  0  0  0  0
 16 20  1  0  0  0  0
 16 31  1  0  0  0  0
 17 21  1  0  0  0  0
 17 32  1  0  0  0  0
 18 19  2  0  0  0  0
 18 33  1  0  0  0  0
 19 34  1  0  0  0  0
 20 21  2  0  0  0  0
 20 35  1  0  0  0  0
 21 36  1  0  0  0  0
M  END
> <PUBCHEM_COMPOUND_CID>
11285

> <PUBCHEM_CONFORMER_RMSD>
0.6

> <PUBCHEM_CONFORMER_DIVERSEORDER>
1

> <PUBCHEM_MMFF94_PARTIAL_CHARGES>
26
1 -0.68
10 -0.15
11 0.42
12 -0.15
13 0.14
14 -0.15
15 -0.15
16 -0.15
17 -0.15
18 -0.15
19 -0.15
20 -0.15
21 -0.15
22 0.15
25 0.15
29 0.15
30 0.15
31 0.15
32 0.15
33 0.15
34 0.15
35 0.15
36 0.15
37 0.4
4 -0.14
5 -0.14

> <PUBCHEM_EFFECTIVE_ROTOR_COUNT>
1

> <PUBCHEM_PHARMACOPHORE_FEATURES>
6
1 1 acceptor
1 1 donor
6 2 3 4 5 6 7 rings
6 2 3 8 9 10 12 rings
6 6 7 14 15 18 19 rings
6 8 9 16 17 20 21 rings

> <PUBCHEM_HEAVY_ATOM_COUNT>
21

> <PUBCHEM_ATOM_DEF_STEREO_COUNT>
0

> <PUBCHEM_ATOM_UDEF_STEREO_COUNT>
0

> <PUBCHEM_BOND_DEF_STEREO_COUNT>
0

> <PUBCHEM_BOND_UDEF_STEREO_COUNT>
0

> <PUBCHEM_ISOTOPIC_ATOM_COUNT>
0

> <PUBCHEM_COMPONENT_COUNT>
1

> <PUBCHEM_CACTVS_TAUTO_COUNT>
1

> <PUBCHEM_CONFORMER_ID>
00002C1500000001

> <PUBCHEM_MMFF94_ENERGY>
109.7288

> <PUBCHEM_FEATURE_SELFOVERLAP>
30.519

> <PUBCHEM_SHAPE_FINGERPRINT>
10062212 137 18342464694741246266
10319926 262 18191045430328219920
10411042 1 17690841155485548658
10493431 412 18409443709158607601
10608611 8 18412263968999346664
10616163 171 18338232669985325142
10967382 1 18411699928150489008
1100329 8 18338513024039057049
11112241 14 16445902708582790944
11132069 177 18411422782717188152
11578080 2 13913976103878135857
12403814 3 17632580461264983829
12838862 33 18339943570139400740
13132413 78 18411134693174330597
13140716 1 18050838923793508489
13583140 156 16845303755877310393
138480 1 17474389557069169347
14178342 30 18266194837144355704
14790565 3 18337665442466562369
15042514 8 18340199671071546179
15196674 1 18411981390115697256
15442244 35 18268151053356894378
15536298 74 18336545027152990812
16087824 20 18337955594384727055
16945 1 18338522941365963073
17492 89 18412544288957792522
19591789 44 18339360872099893091
20510252 161 18261954171162499257
20715895 44 17767415938785938101
20739085 24 17908393069183811065
21267235 1 18411972585443393914
21421861 104 17916312821526346186
22182313 1 18264465399965022223
23227448 37 18409167688325931446
2334 1 18267583503324576938
23402539 116 18334866025441792309
23557571 272 18189324698102784134
23558518 356 17841430332502123312
23559900 14 18334294293203234510
238 59 17409126867781459645
2748010 2 18268142244347029325
335352 9 18339642360325522302
34934 24 18412548708114266106
350125 39 18267016155625175611
4214541 1 18411418410287551808
474 4 17703782592465064908
5104073 3 18341330084371455952
633830 44 17898851511635839117
69090 78 18411702110041250713
7364860 26 18265050421976670286
7832392 63 18410857642198531398
9709674 26 18408879655103257022

> <PUBCHEM_SHAPE_MULTIPOLES>
426.3
8.2
3.18
0.66
2.32
1.02
0.03
-2.74
0.03
-1.19
0.29
-0.08
0.13
-0.28

> <PUBCHEM_SHAPE_SELFOVERLAP>
974.294

> <PUBCHEM_SHAPE_VOLUME>
223.5

> <PUBCHEM_COORDINATE_TYPE>
2
5
10

$$$$

