95168
  -OEChem-07051212593D

 54 57  0     0  0  0  0  0  0999 V2000
   -3.6751   -0.7797   -0.3403 O   0  0  0  0  0  0  0  0  0  0  0  0
    0.9416   -1.9903    0.3817 O   0  0  0  0  0  0  0  0  0  0  0  0
   -0.3245    2.4497   -1.0483 O   0  0  0  0  0  0  0  0  0  0  0  0
    2.1502    1.7548   -0.6716 O   0  0  0  0  0  0  0  0  0  0  0  0
    8.2666    0.5655    0.2824 O   0  0  0  0  0  0  0  0  0  0  0  0
   -4.1404   -2.0993    0.0081 C   0  0  0  0  0  0  0  0  0  0  0  0
   -2.3348   -0.5119   -0.3172 C   0  0  0  0  0  0  0  0  0  0  0  0
   -1.3566   -1.4464    0.0394 C   0  0  0  0  0  0  0  0  0  0  0  0
   -1.9733    0.7894   -0.6790 C   0  0  0  0  0  0  0  0  0  0  0  0
   -0.0052   -1.0576    0.0286 C   0  0  0  0  0  0  0  0  0  0  0  0
   -3.0723   -3.0912    0.3947 C   0  0  0  0  0  0  0  0  0  0  0  0
    0.3491    0.2448   -0.3350 C   0  0  0  0  0  0  0  0  0  0  0  0
   -1.7719   -2.7929    0.4116 C   0  0  0  0  0  0  0  0  0  0  0  0
   -0.6334    1.1705   -0.6896 C   0  0  0  0  0  0  0  0  0  0  0  0
   -5.1137   -1.9201    1.1791 C   0  0  0  0  0  0  0  0  0  0  0  0
   -4.9015   -2.6246   -1.2148 C   0  0  0  0  0  0  0  0  0  0  0  0
   -3.0283    1.7823   -1.0597 C   0  0  0  0  0  0  0  0  0  0  0  0
    1.7715    0.6368   -0.3460 C   0  0  0  0  0  0  0  0  0  0  0  0
    2.7502   -0.4038    0.0665 C   0  0  0  0  0  0  0  0  0  0  0  0
   -3.5426    2.5662    0.1197 C   0  0  0  0  0  0  0  0  0  0  0  0
    2.2595   -1.6080    0.3911 C   0  0  0  0  0  0  0  0  0  0  0  0
    4.1786   -0.1532    0.1219 C   0  0  0  0  0  0  0  0  0  0  0  0
   -4.7985    2.6075    0.6043 C   0  0  0  0  0  0  0  0  0  0  0  0
    4.9755   -0.3855   -1.0010 C   0  0  0  0  0  0  0  0  0  0  0  0
    4.7606    0.3215    1.2993 C   0  0  0  0  0  0  0  0  0  0  0  0
   -5.2449    3.4147    1.7903 C   0  0  0  0  0  0  0  0  0  0  0  0
   -5.8951    1.8123   -0.0533 C   0  0  0  0  0  0  0  0  0  0  0  0
    6.3482   -0.1442   -0.9468 C   0  0  0  0  0  0  0  0  0  0  0  0
    6.1334    0.5628    1.3534 C   0  0  0  0  0  0  0  0  0  0  0  0
    6.9273    0.3301    0.2303 C   0  0  0  0  0  0  0  0  0  0  0  0
   -3.3822   -4.0963    0.6708 H   0  0  0  0  0  0  0  0  0  0  0  0
   -1.0365   -3.5359    0.6952 H   0  0  0  0  0  0  0  0  0  0  0  0
   -4.6047   -1.4814    2.0458 H   0  0  0  0  0  0  0  0  0  0  0  0
   -5.9216   -1.2288    0.9141 H   0  0  0  0  0  0  0  0  0  0  0  0
   -5.5641   -2.8697    1.4883 H   0  0  0  0  0  0  0  0  0  0  0  0
   -5.3606   -3.6011   -1.0252 H   0  0  0  0  0  0  0  0  0  0  0  0
   -5.6910   -1.9247   -1.5135 H   0  0  0  0  0  0  0  0  0  0  0  0
   -4.2331   -2.7205   -2.0790 H   0  0  0  0  0  0  0  0  0  0  0  0
   -2.6197    2.5073   -1.7768 H   0  0  0  0  0  0  0  0  0  0  0  0
   -3.8091    1.2928   -1.6466 H   0  0  0  0  0  0  0  0  0  0  0  0
   -2.7941    3.1743    0.6273 H   0  0  0  0  0  0  0  0  0  0  0  0
    2.8731   -2.4440    0.7043 H   0  0  0  0  0  0  0  0  0  0  0  0
    0.6300    2.6049   -0.9911 H   0  0  0  0  0  0  0  0  0  0  0  0
    4.5398   -0.7540   -1.9268 H   0  0  0  0  0  0  0  0  0  0  0  0
    4.1558    0.5092    2.1834 H   0  0  0  0  0  0  0  0  0  0  0  0
   -5.6403    2.7588    2.5724 H   0  0  0  0  0  0  0  0  0  0  0  0
   -6.0264    4.1231    1.4976 H   0  0  0  0  0  0  0  0  0  0  0  0
   -4.4176    3.9879    2.2212 H   0  0  0  0  0  0  0  0  0  0  0  0
   -6.5956    2.4923   -0.5501 H   0  0  0  0  0  0  0  0  0  0  0  0
   -6.4534    1.2577    0.7096 H   0  0  0  0  0  0  0  0  0  0  0  0
   -5.5749    1.0743   -0.7869 H   0  0  0  0  0  0  0  0  0  0  0  0
    6.9557   -0.3293   -1.8287 H   0  0  0  0  0  0  0  0  0  0  0  0
    6.5786    0.9325    2.2731 H   0  0  0  0  0  0  0  0  0  0  0  0
    8.6582    0.3507   -0.5816 H   0  0  0  0  0  0  0  0  0  0  0  0
  1  6  1  0  0  0  0
  1  7  1  0  0  0  0
  2 10  1  0  0  0  0
  2 21  1  0  0  0  0
  3 14  1  0  0  0  0
  3 43  1  0  0  0  0
  4 18  2  0  0  0  0
  5 30  1  0  0  0  0
  5 54  1  0  0  0  0
  6 11  1  0  0  0  0
  6 15  1  0  0  0  0
  6 16  1  0  0  0  0
  7  8  1  0  0  0  0
  7  9  2  0  0  0  0
  8 10  2  0  0  0  0
  8 13  1  0  0  0  0
  9 14  1  0  0  0  0
  9 17  1  0  0  0  0
 10 12  1  0  0  0  0
 11 13  2  0  0  0  0
 11 31  1  0  0  0  0
 12 14  2  0  0  0  0
 12 18  1  0  0  0  0
 13 32  1  0  0  0  0
 15 33  1  0  0  0  0
 15 34  1  0  0  0  0
 15 35  1  0  0  0  0
 16 36  1  0  0  0  0
 16 37  1  0  0  0  0
 16 38  1  0  0  0  0
 17 20  1  0  0  0  0
 17 39  1  0  0  0  0
 17 40  1  0  0  0  0
 18 19  1  0  0  0  0
 19 21  2  0  0  0  0
 19 22  1  0  0  0  0
 20 23  2  0  0  0  0
 20 41  1  0  0  0  0
 21 42  1  0  0  0  0
 22 24  2  0  0  0  0
 22 25  1  0  0  0  0
 23 26  1  0  0  0  0
 23 27  1  0  0  0  0
 24 28  1  0  0  0  0
 24 44  1  0  0  0  0
 25 29  2  0  0  0  0
 25 45  1  0  0  0  0
 26 46  1  0  0  0  0
 26 47  1  0  0  0  0
 26 48  1  0  0  0  0
 27 49  1  0  0  0  0
 27 50  1  0  0  0  0
 27 51  1  0  0  0  0
 28 30  2  0  0  0  0
 28 52  1  0  0  0  0
 29 30  1  0  0  0  0
 29 53  1  0  0  0  0
M  END
> <PUBCHEM_COMPOUND_CID>
95168

> <PUBCHEM_CONFORMER_RMSD>
0.8

> <PUBCHEM_CONFORMER_DIVERSEORDER>
1
3
6
4
2
7
5

> <PUBCHEM_MMFF94_PARTIAL_CHARGES>
38
1 -0.36
10 0.08
11 -0.29
12 0.09
13 -0.18
14 0.08
17 0.28
18 0.47
19 -0.01
2 -0.16
20 -0.29
21 -0.07
22 0.03
23 -0.28
24 -0.15
25 -0.15
26 0.14
27 0.14
28 -0.15
29 -0.15
3 -0.53
30 0.08
31 0.15
32 0.15
4 -0.57
41 0.15
42 0.15
43 0.45
44 0.15
45 0.15
5 -0.53
52 0.15
53 0.15
54 0.45
6 0.42
7 0.08
8 0.03
9 -0.14

> <PUBCHEM_EFFECTIVE_ROTOR_COUNT>
3.4

> <PUBCHEM_PHARMACOPHORE_FEATURES>
11
1 1 acceptor
1 2 acceptor
1 3 donor
1 4 acceptor
1 5 donor
3 23 26 27 hydrophobe
3 6 15 16 hydrophobe
6 1 6 7 8 11 13 rings
6 2 10 12 18 19 21 rings
6 22 24 25 28 29 30 rings
6 7 8 9 10 12 14 rings

> <PUBCHEM_HEAVY_ATOM_COUNT>
30

> <PUBCHEM_ATOM_DEF_STEREO_COUNT>
0

> <PUBCHEM_ATOM_UDEF_STEREO_COUNT>
0

> <PUBCHEM_BOND_DEF_STEREO_COUNT>
0

> <PUBCHEM_BOND_UDEF_STEREO_COUNT>
0

> <PUBCHEM_ISOTOPIC_ATOM_COUNT>
0

> <PUBCHEM_COMPONENT_COUNT>
1

> <PUBCHEM_CACTVS_TAUTO_COUNT>
10

> <PUBCHEM_CONFORMER_ID>
000173C000000001

> <PUBCHEM_MMFF94_ENERGY>
94.0398

> <PUBCHEM_FEATURE_SELFOVERLAP>
55.874

> <PUBCHEM_SHAPE_FINGERPRINT>
10 15 18059854012423585385
10411042 1 17979635633391061707
10493431 412 18339358699273949545
10906281 52 18058997446121820442
1100329 8 18411414020984553765
11135609 187 18198073676072571413
11315181 36 17917151606969271406
11445158 3 15214434292357769281
11963148 33 18129390306816250178
12236239 1 17275394192519628826
12390115 104 18335977662031250675
12403259 415 18113624448201871082
12616971 3 17203601597626183164
12788726 201 18059585675851846010
12838862 33 18270696358778279221
13140716 1 18341615884549687476
13540713 5 18058152939065370013
13782708 43 18040718044125787438
14068700 675 18266466404238318887
14294032 229 18130504257859571268
14765038 42 18263354966541367833
14790565 3 17762332917736319749
15021287 119 17203602688179007573
15131766 46 15623652771856026967
16087824 20 18271531983710623869
17844677 252 18337107865848901096
17980427 23 17989200430710264558
18603816 31 14836112231719419297
19377110 9 17703792535119098746
20642791 13 18409730660292590703
21033648 29 17749969794814246208
21130935 74 18409735071741137354
21236236 1 18411983554948077999
21267235 1 18200591380831201643
21424621 283 18043525221211397561
21756936 100 18187367679391217869
21792961 116 17603861231423873668
23522609 53 17916279733120020396
23557571 272 18335975415905974726
23559900 14 18055641607278193348
23569914 2 16809592735094316968
24771293 8 18202000977120293412
25147074 1 17988913432358443524
2747138 104 18268987583710206659
283562 15 18411706478693689867
335352 9 18272376322082072231
350125 39 18342174431997612901
4073 2 18408321103744752014
484985 159 16773789252539014515
5104073 3 18341620360137439826
5171179 24 17896894153294796249
5758199 1 18263359356214326041
5969126 39 18115319869383612887
7226269 152 17968375762037703265
9896288 288 18412819184181496355

> <PUBCHEM_SHAPE_MULTIPOLES>
588.04
16.96
3.51
1.17
25.3
0.12
0.18
4.78
3.1
-8.47
0.66
-0.19
0.35
-0.7

> <PUBCHEM_SHAPE_SELFOVERLAP>
1296.378

> <PUBCHEM_SHAPE_VOLUME>
318

> <PUBCHEM_COORDINATE_TYPE>
2
5
10

$$$$

