12136
  -OEChem-06261206343D

 20 20  0     0  0  0  0  0  0999 V2000
    1.5604   -0.0002   -0.3488 O   0  0  0  0  0  0  0  0  0  0  0  0
    3.4346    0.0006    0.9882 O   0  0  0  0  0  0  0  0  0  0  0  0
    3.6039   -0.0006   -1.3048 N   0  0  0  0  0  0  0  0  0  0  0  0
   -0.7010    0.0002    0.3877 C   0  0  0  0  0  0  0  0  0  0  0  0
    0.7307    0.0005    0.8064 C   0  0  0  0  0  0  0  0  0  0  0  0
   -1.3705    1.2080    0.1916 C   0  0  0  0  0  0  0  0  0  0  0  0
   -1.3703   -1.2078    0.1926 C   0  0  0  0  0  0  0  0  0  0  0  0
   -2.7095    1.2079   -0.1994 C   0  0  0  0  0  0  0  0  0  0  0  0
   -2.7092   -1.2081   -0.1986 C   0  0  0  0  0  0  0  0  0  0  0  0
   -3.3788   -0.0002   -0.3946 C   0  0  0  0  0  0  0  0  0  0  0  0
    2.9097   -0.0001   -0.1203 C   0  0  0  0  0  0  0  0  0  0  0  0
    0.9457    0.8861    1.4176 H   0  0  0  0  0  0  0  0  0  0  0  0
    0.9456   -0.8845    1.4187 H   0  0  0  0  0  0  0  0  0  0  0  0
   -0.8596    2.1560    0.3384 H   0  0  0  0  0  0  0  0  0  0  0  0
   -0.8593   -2.1556    0.3401 H   0  0  0  0  0  0  0  0  0  0  0  0
   -3.2308    2.1483   -0.3526 H   0  0  0  0  0  0  0  0  0  0  0  0
   -3.2304   -2.1488   -0.3512 H   0  0  0  0  0  0  0  0  0  0  0  0
   -4.4212   -0.0005   -0.6994 H   0  0  0  0  0  0  0  0  0  0  0  0
    3.1238   -0.0010   -2.1985 H   0  0  0  0  0  0  0  0  0  0  0  0
    4.6182   -0.0005   -1.3229 H   0  0  0  0  0  0  0  0  0  0  0  0
  1  5  1  0  0  0  0
  1 11  1  0  0  0  0
  2 11  2  0  0  0  0
  3 11  1  0  0  0  0
  3 19  1  0  0  0  0
  3 20  1  0  0  0  0
  4  5  1  0  0  0  0
  4  6  2  0  0  0  0
  4  7  1  0  0  0  0
  5 12  1  0  0  0  0
  5 13  1  0  0  0  0
  6  8  1  0  0  0  0
  6 14  1  0  0  0  0
  7  9  2  0  0  0  0
  7 15  1  0  0  0  0
  8 10  2  0  0  0  0
  8 16  1  0  0  0  0
  9 10  1  0  0  0  0
  9 17  1  0  0  0  0
 10 18  1  0  0  0  0
M  END
> <PUBCHEM_COMPOUND_CID>
12136

> <PUBCHEM_CONFORMER_RMSD>
0.6

> <PUBCHEM_CONFORMER_DIVERSEORDER>
1
6
2
4
5
3

> <PUBCHEM_MMFF94_PARTIAL_CHARGES>
18
1 -0.43
10 -0.15
11 0.78
14 0.15
15 0.15
16 0.15
17 0.15
18 0.15
19 0.37
2 -0.57
20 0.37
3 -0.8
4 -0.14
5 0.42
6 -0.15
7 -0.15
8 -0.15
9 -0.15

> <PUBCHEM_EFFECTIVE_ROTOR_COUNT>
3

> <PUBCHEM_PHARMACOPHORE_FEATURES>
3
1 2 acceptor
1 3 donor
6 4 6 7 8 9 10 rings

> <PUBCHEM_HEAVY_ATOM_COUNT>
11

> <PUBCHEM_ATOM_DEF_STEREO_COUNT>
0

> <PUBCHEM_ATOM_UDEF_STEREO_COUNT>
0

> <PUBCHEM_BOND_DEF_STEREO_COUNT>
0

> <PUBCHEM_BOND_UDEF_STEREO_COUNT>
0

> <PUBCHEM_ISOTOPIC_ATOM_COUNT>
0

> <PUBCHEM_COMPONENT_COUNT>
1

> <PUBCHEM_CACTVS_TAUTO_COUNT>
2

> <PUBCHEM_CONFORMER_ID>
00002F6800000001

> <PUBCHEM_MMFF94_ENERGY>
22.2179

> <PUBCHEM_FEATURE_SELFOVERLAP>
15.223

> <PUBCHEM_SHAPE_FINGERPRINT>
11062470 55 15936411134846261425
12897270 3 18407759235394926563
12932764 1 18410573985283326802
13024252 1 17561362877305132787
13296908 3 17458062668537146398
14144814 61 18131351916556541952
14325111 11 18412266163658881330
15775835 57 17632574971990739845
18186145 218 17968094256752978480
20201158 50 17821728342499792190
20279233 1 17748830713310062062
20281407 28 17894628128058542751
20645477 70 16081367509531564436
23402539 116 18336280006111718789
23559900 14 18259990405341497890
3248919 1 17561082505750070962
369184 2 13912322386971061107
528716 315 18341888576344066871

> <PUBCHEM_SHAPE_MULTIPOLES>
209.66
6.37
1.16
0.9
4.48
0
0.06
0
1.28
-1.12
0
0.67
0
0

> <PUBCHEM_SHAPE_SELFOVERLAP>
430.609

> <PUBCHEM_SHAPE_VOLUME>
120.5

> <PUBCHEM_COORDINATE_TYPE>
2
5
10

$$$$

