23611
  -OEChem-07051212532D

 29 29  0     0  0  0  0  0  0999 V2000
    4.3660    1.9400    0.0000 O   0  0  0  0  0  0  0  0  0  0  0  0
    5.0000   -0.4260    0.0000 O   0  0  0  0  0  0  0  0  0  0  0  0
    2.6340    1.9400    0.0000 N   0  0  0  0  0  0  0  0  0  0  0  0
    5.3660    0.9400    0.0000 N   0  0  0  0  0  0  0  0  0  0  0  0
    3.5000    0.4400    0.0000 C   0  0  0  0  0  0  0  0  0  0  0  0
    2.5000    0.4400    0.0000 C   0  0  0  0  0  0  0  0  0  0  0  0
    3.5000   -0.5600    0.0000 C   0  0  0  0  0  0  0  0  0  0  0  0
    3.5000    1.4400    0.0000 C   0  0  0  0  0  0  0  0  0  0  0  0
    4.5000    0.4400    0.0000 C   0  0  0  0  0  0  0  0  0  0  0  0
    2.0000   -0.4260    0.0000 C   0  0  0  0  0  0  0  0  0  0  0  0
    2.6340   -1.0600    0.0000 C   0  0  0  0  0  0  0  0  0  0  0  0
    4.3660   -1.0600    0.0000 C   0  0  0  0  0  0  0  0  0  0  0  0
    2.6340   -2.0600    0.0000 C   0  0  0  0  0  0  0  0  0  0  0  0
    4.3660   -2.0600    0.0000 C   0  0  0  0  0  0  0  0  0  0  0  0
    3.5000   -2.5600    0.0000 C   0  0  0  0  0  0  0  0  0  0  0  0
    2.6077    1.0506    0.0000 H   0  0  0  0  0  0  0  0  0  0  0  0
    1.9174    0.6521    0.0000 H   0  0  0  0  0  0  0  0  0  0  0  0
    1.4631   -0.1160    0.0000 H   0  0  0  0  0  0  0  0  0  0  0  0
    1.6900   -0.9630    0.0000 H   0  0  0  0  0  0  0  0  0  0  0  0
    2.5369   -0.7360    0.0000 H   0  0  0  0  0  0  0  0  0  0  0  0
    2.0970   -0.7500    0.0000 H   0  0  0  0  0  0  0  0  0  0  0  0
    4.9030   -0.7500    0.0000 H   0  0  0  0  0  0  0  0  0  0  0  0
    2.0970   -2.3700    0.0000 H   0  0  0  0  0  0  0  0  0  0  0  0
    4.9030   -2.3700    0.0000 H   0  0  0  0  0  0  0  0  0  0  0  0
    2.6340    2.5600    0.0000 H   0  0  0  0  0  0  0  0  0  0  0  0
    2.0970    1.6300    0.0000 H   0  0  0  0  0  0  0  0  0  0  0  0
    5.9030    0.6300    0.0000 H   0  0  0  0  0  0  0  0  0  0  0  0
    5.3660    1.5600    0.0000 H   0  0  0  0  0  0  0  0  0  0  0  0
    3.5000   -3.1800    0.0000 H   0  0  0  0  0  0  0  0  0  0  0  0
  1  8  2  0  0  0  0
  2  9  2  0  0  0  0
  3  8  1  0  0  0  0
  3 25  1  0  0  0  0
  3 26  1  0  0  0  0
  4  9  1  0  0  0  0
  4 27  1  0  0  0  0
  4 28  1  0  0  0  0
  5  6  1  0  0  0  0
  5  7  1  0  0  0  0
  5  8  1  0  0  0  0
  5  9  1  0  0  0  0
  6 10  1  0  0  0  0
  6 16  1  0  0  0  0
  6 17  1  0  0  0  0
  7 11  2  0  0  0  0
  7 12  1  0  0  0  0
 10 18  1  0  0  0  0
 10 19  1  0  0  0  0
 10 20  1  0  0  0  0
 11 13  1  0  0  0  0
 11 21  1  0  0  0  0
 12 14  2  0  0  0  0
 12 22  1  0  0  0  0
 13 15  2  0  0  0  0
 13 23  1  0  0  0  0
 14 15  1  0  0  0  0
 14 24  1  0  0  0  0
 15 29  1  0  0  0  0
M  END
> <PUBCHEM_COMPOUND_CID>
23611

> <PUBCHEM_COMPOUND_CANONICALIZED>
1

> <PUBCHEM_CACTVS_COMPLEXITY>
243

> <PUBCHEM_CACTVS_HBOND_ACCEPTOR>
2

> <PUBCHEM_CACTVS_HBOND_DONOR>
2

> <PUBCHEM_CACTVS_ROTATABLE_BOND>
4

> <PUBCHEM_CACTVS_SUBSKEYS>
AAADccBzMAAAAAAAAAAAAAAAAAAAAAAAAAAwAAAAAAAAAAABAAAAHgAQAAAADgCBmAAyAIBAAACIAiFSEAACAAAgAAAIiAEAAIgIIDqI1RGAIAAggAAIiAcYiMCPgAAAAAAAAAAAAAAAAAAAAAAAAAAAAA==

> <PUBCHEM_IUPAC_OPENEYE_NAME>
2-ethyl-2-phenyl-propanediamide

> <PUBCHEM_IUPAC_CAS_NAME>
2-ethyl-2-phenylpropanediamide

> <PUBCHEM_IUPAC_NAME>
2-ethyl-2-phenylpropanediamide

> <PUBCHEM_IUPAC_SYSTEMATIC_NAME>
2-ethyl-2-phenyl-propanediamide

> <PUBCHEM_IUPAC_TRADITIONAL_NAME>
2-ethyl-2-phenyl-malonamide

> <PUBCHEM_IUPAC_INCHI>
InChI=1S/C11H14N2O2/c1-2-11(9(12)14,10(13)15)8-6-4-3-5-7-8/h3-7H,2H2,1H3,(H2,12,14)(H2,13,15)

> <PUBCHEM_IUPAC_INCHIKEY>
JFZHPFOXAAIUMB-UHFFFAOYSA-N

> <PUBCHEM_XLOGP3>
0.1

> <PUBCHEM_EXACT_MASS>
206.105528

> <PUBCHEM_MOLECULAR_FORMULA>
C11H14N2O2

> <PUBCHEM_MOLECULAR_WEIGHT>
206.24106

> <PUBCHEM_OPENEYE_CAN_SMILES>
CCC(C1=CC=CC=C1)(C(=O)N)C(=O)N

> <PUBCHEM_OPENEYE_ISO_SMILES>
CCC(C1=CC=CC=C1)(C(=O)N)C(=O)N

> <PUBCHEM_CACTVS_TPSA>
86.2

> <PUBCHEM_MONOISOTOPIC_WEIGHT>
206.105528

> <PUBCHEM_TOTAL_CHARGE>
0

> <PUBCHEM_HEAVY_ATOM_COUNT>
15

> <PUBCHEM_ATOM_DEF_STEREO_COUNT>
0

> <PUBCHEM_ATOM_UDEF_STEREO_COUNT>
0

> <PUBCHEM_BOND_DEF_STEREO_COUNT>
0

> <PUBCHEM_BOND_UDEF_STEREO_COUNT>
0

> <PUBCHEM_ISOTOPIC_ATOM_COUNT>
0

> <PUBCHEM_COMPONENT_COUNT>
1

> <PUBCHEM_CACTVS_TAUTO_COUNT>
3

> <PUBCHEM_COORDINATE_TYPE>
1
5
255

> <PUBCHEM_BONDANNOTATIONS>
11  13  8
12  14  8
13  15  8
14  15  8
7  11  8
7  12  8

$$$$

