54691349
  -OEChem-07051213033D

 73 76  0     1  0  0  0  0  0999 V2000
    5.9548    1.5051   -0.2408 O   0  0  0  0  0  0  0  0  0  0  0  0
    9.2628    0.2226   -1.2721 O   0  0  0  0  0  0  0  0  0  0  0  0
    9.0251   -0.7498    1.4502 O   0  0  0  0  0  0  0  0  0  0  0  0
    4.8167   -0.5621    0.1042 O   0  0  0  0  0  0  0  0  0  0  0  0
    7.1600    1.0265    2.4058 O   0  0  0  0  0  0  0  0  0  0  0  0
    0.3005   -1.8830    0.9853 O   0  0  0  0  0  0  0  0  0  0  0  0
   -1.1645    1.3279   -1.2633 O   0  0  0  0  0  0  0  0  0  0  0  0
   -1.8290   -2.6037    1.3665 O   0  0  0  0  0  0  0  0  0  0  0  0
   -3.3329   -2.6129   -1.0334 O   0  0  0  0  0  0  0  0  0  0  0  0
   -9.2808   -0.5160   -0.5970 O   0  0  0  0  0  0  0  0  0  0  0  0
   -2.9421   -0.5456   -0.0428 N   0  0  0  0  0  0  0  0  0  0  0  0
    7.0351    1.1912   -1.1328 C   0  0  0  0  0  0  0  0  0  0  0  0
    8.2730    0.6866   -0.3558 C   0  0  1  0  0  0  0  0  0  0  0  0
    7.9076   -0.4319    0.6222 C   0  0  2  0  0  0  0  0  0  0  0  0
    6.7405   -0.0136    1.5176 C   0  0  2  0  0  0  0  0  0  0  0  0
    5.5568    0.4992    0.6964 C   0  0  1  0  0  0  0  0  0  0  0  0
    7.3838    2.5215   -1.8249 C   0  0  0  0  0  0  0  0  0  0  0  0
    6.5686    0.2167   -2.2278 C   0  0  0  0  0  0  0  0  0  0  0  0
    3.4699   -0.3635   -0.0501 C   0  0  0  0  0  0  0  0  0  0  0  0
    2.5473   -1.2107    0.5525 C   0  0  0  0  0  0  0  0  0  0  0  0
    3.0225    0.7002   -0.8309 C   0  0  0  0  0  0  0  0  0  0  0  0
    1.1835   -0.9749    0.3667 C   0  0  0  0  0  0  0  0  0  0  0  0
    0.7033    0.0893   -0.3981 C   0  0  0  0  0  0  0  0  0  0  0  0
    1.6511    0.9239   -1.0063 C   0  0  0  0  0  0  0  0  0  0  0  0
    3.0160   -2.3616    1.3822 C   0  0  0  0  0  0  0  0  0  0  0  0
   -0.7516    0.2429   -0.5208 C   0  0  0  0  0  0  0  0  0  0  0  0
   -1.5804   -0.6406    0.0547 C   0  0  0  0  0  0  0  0  0  0  0  0
   -1.0774   -1.7849    0.8474 C   0  0  0  0  0  0  0  0  0  0  0  0
   -3.7370   -1.5434   -0.5837 C   0  0  0  0  0  0  0  0  0  0  0  0
   -5.1977   -1.2694   -0.5831 C   0  0  0  0  0  0  0  0  0  0  0  0
   -7.1191   -0.1639    0.3775 C   0  0  0  0  0  0  0  0  0  0  0  0
   -5.7481   -0.4207    0.3772 C   0  0  0  0  0  0  0  0  0  0  0  0
   -7.6914    0.7474    1.4127 C   0  0  0  0  0  0  0  0  0  0  0  0
   -6.0184   -1.8616   -1.5431 C   0  0  0  0  0  0  0  0  0  0  0  0
   -7.9396   -0.7560   -0.5827 C   0  0  0  0  0  0  0  0  0  0  0  0
   -7.3893   -1.6049   -1.5429 C   0  0  0  0  0  0  0  0  0  0  0  0
   -8.0410    2.1096    0.8664 C   0  0  0  0  0  0  0  0  0  0  0  0
   -7.2493    3.1950    0.7734 C   0  0  0  0  0  0  0  0  0  0  0  0
   -5.8246    3.1423    1.2578 C   0  0  0  0  0  0  0  0  0  0  0  0
   -7.6647    4.5268    0.2159 C   0  0  0  0  0  0  0  0  0  0  0  0
    8.7262    1.5052    0.2185 H   0  0  0  0  0  0  0  0  0  0  0  0
    7.6575   -1.3431    0.0666 H   0  0  0  0  0  0  0  0  0  0  0  0
    6.4423   -0.8645    2.1413 H   0  0  0  0  0  0  0  0  0  0  0  0
    4.8922    1.0216    1.3988 H   0  0  0  0  0  0  0  0  0  0  0  0
    6.4999    2.9432   -2.3187 H   0  0  0  0  0  0  0  0  0  0  0  0
    8.1714    2.4097   -2.5763 H   0  0  0  0  0  0  0  0  0  0  0  0
    5.6335    0.5605   -2.6831 H   0  0  0  0  0  0  0  0  0  0  0  0
    6.3767   -0.7846   -1.8327 H   0  0  0  0  0  0  0  0  0  0  0  0
    7.3138    0.1148   -3.0241 H   0  0  0  0  0  0  0  0  0  0  0  0
    7.7073    3.2687   -1.0909 H   0  0  0  0  0  0  0  0  0  0  0  0
    9.6085    0.9923   -1.7539 H   0  0  0  0  0  0  0  0  0  0  0  0
    8.7523   -1.4662    2.0486 H   0  0  0  0  0  0  0  0  0  0  0  0
    6.4214    1.2125    3.0104 H   0  0  0  0  0  0  0  0  0  0  0  0
    3.7160    1.3673   -1.3326 H   0  0  0  0  0  0  0  0  0  0  0  0
    1.3393    1.7621   -1.6251 H   0  0  0  0  0  0  0  0  0  0  0  0
    2.8021   -3.3049    0.8689 H   0  0  0  0  0  0  0  0  0  0  0  0
    4.0900   -2.3317    1.5892 H   0  0  0  0  0  0  0  0  0  0  0  0
    2.5119   -2.3628    2.3548 H   0  0  0  0  0  0  0  0  0  0  0  0
   -3.3286    0.3952   -0.0384 H   0  0  0  0  0  0  0  0  0  0  0  0
   -2.1345    1.3074   -1.3190 H   0  0  0  0  0  0  0  0  0  0  0  0
   -5.1274    0.0238    1.1501 H   0  0  0  0  0  0  0  0  0  0  0  0
   -7.0296    0.8246    2.2828 H   0  0  0  0  0  0  0  0  0  0  0  0
   -8.6038    0.2980    1.8282 H   0  0  0  0  0  0  0  0  0  0  0  0
   -5.6074   -2.5221   -2.3021 H   0  0  0  0  0  0  0  0  0  0  0  0
   -8.0167   -2.0720   -2.2973 H   0  0  0  0  0  0  0  0  0  0  0  0
   -9.0649    2.2055    0.5064 H   0  0  0  0  0  0  0  0  0  0  0  0
   -5.5611    2.2486    1.8233 H   0  0  0  0  0  0  0  0  0  0  0  0
   -5.6273    3.9927    1.9204 H   0  0  0  0  0  0  0  0  0  0  0  0
   -5.1400    3.2123    0.4056 H   0  0  0  0  0  0  0  0  0  0  0  0
   -8.7032    4.5116   -0.1307 H   0  0  0  0  0  0  0  0  0  0  0  0
   -7.0319    4.7979   -0.6352 H   0  0  0  0  0  0  0  0  0  0  0  0
   -7.5782    5.3058    0.9801 H   0  0  0  0  0  0  0  0  0  0  0  0
   -9.6839   -1.0097   -1.3316 H   0  0  0  0  0  0  0  0  0  0  0  0
  1 12  1  0  0  0  0
  1 16  1  0  0  0  0
  2 13  1  0  0  0  0
  2 51  1  0  0  0  0
  3 14  1  0  0  0  0
  3 52  1  0  0  0  0
  4 16  1  0  0  0  0
  4 19  1  0  0  0  0
  5 15  1  0  0  0  0
  5 53  1  0  0  0  0
  6 22  1  0  0  0  0
  6 28  1  0  0  0  0
  7 26  1  0  0  0  0
  7 60  1  0  0  0  0
  8 28  2  0  0  0  0
  9 29  2  0  0  0  0
 10 35  1  0  0  0  0
 10 73  1  0  0  0  0
 11 27  1  0  0  0  0
 11 29  1  0  0  0  0
 11 59  1  0  0  0  0
 12 13  1  0  0  0  0
 12 17  1  0  0  0  0
 12 18  1  0  0  0  0
 13 14  1  0  0  0  0
 13 41  1  0  0  0  0
 14 15  1  0  0  0  0
 14 42  1  0  0  0  0
 15 16  1  0  0  0  0
 15 43  1  0  0  0  0
 16 44  1  0  0  0  0
 17 45  1  0  0  0  0
 17 46  1  0  0  0  0
 17 50  1  0  0  0  0
 18 47  1  0  0  0  0
 18 48  1  0  0  0  0
 18 49  1  0  0  0  0
 19 20  2  0  0  0  0
 19 21  1  0  0  0  0
 20 22  1  0  0  0  0
 20 25  1  0  0  0  0
 21 24  2  0  0  0  0
 21 54  1  0  0  0  0
 22 23  2  0  0  0  0
 23 24  1  0  0  0  0
 23 26  1  0  0  0  0
 24 55  1  0  0  0  0
 25 56  1  0  0  0  0
 25 57  1  0  0  0  0
 25 58  1  0  0  0  0
 26 27  2  0  0  0  0
 27 28  1  0  0  0  0
 29 30  1  0  0  0  0
 30 32  2  0  0  0  0
 30 34  1  0  0  0  0
 31 32  1  0  0  0  0
 31 33  1  0  0  0  0
 31 35  2  0  0  0  0
 32 61  1  0  0  0  0
 33 37  1  0  0  0  0
 33 62  1  0  0  0  0
 33 63  1  0  0  0  0
 34 36  2  0  0  0  0
 34 64  1  0  0  0  0
 35 36  1  0  0  0  0
 36 65  1  0  0  0  0
 37 38  2  0  0  0  0
 37 66  1  0  0  0  0
 38 39  1  0  0  0  0
 38 40  1  0  0  0  0
 39 67  1  0  0  0  0
 39 68  1  0  0  0  0
 39 69  1  0  0  0  0
 40 70  1  0  0  0  0
 40 71  1  0  0  0  0
 40 72  1  0  0  0  0
M  END
> <PUBCHEM_COMPOUND_CID>
54691349

> <PUBCHEM_CONFORMER_RMSD>
1.2

> <PUBCHEM_CONFORMER_DIVERSEORDER>
2
71
104
65
132
78
94
113
100
77
33
120
87
90
84
59
112
116
125
79
96
106
64
129
134
109
32
76
19
114
122
41
121
135
89
131
82
81
110
72
52
99
111
16
93
74
73
91
62
21
53
40
11
123
92
55
17
67
47
9
63
45
43
85
60
34
126
133
15
70
108
130
57
22
117
46
101
115
80
29
105
95
49
7
127
98
83
37
102
24
50
13
69
35
42
10
68
86
6
119
48
30
31
75
61
27
25
51
44
3
103
88
14
107
38
56
39
26
97
12
4
28
36
124
23
1
128
66
8
20
118
58
18
54
5

> <PUBCHEM_MMFF94_PARTIAL_CHARGES>
50
1 -0.56
10 -0.53
11 -0.54
12 0.28
13 0.28
14 0.28
15 0.28
16 0.56
19 0.08
2 -0.68
20 -0.14
21 -0.15
22 0.08
23 0.03
24 -0.15
25 0.14
26 0.05
27 0.12
28 0.71
29 0.54
3 -0.68
30 0.09
31 -0.14
32 -0.15
33 0.28
34 -0.15
35 0.08
36 -0.15
37 -0.29
38 -0.28
39 0.14
4 -0.36
40 0.14
5 -0.68
51 0.4
52 0.4
53 0.4
54 0.15
55 0.15
59 0.37
6 -0.23
60 0.45
61 0.15
64 0.15
65 0.15
66 0.15
7 -0.53
73 0.45
8 -0.57
9 -0.57

> <PUBCHEM_EFFECTIVE_ROTOR_COUNT>
8.2

> <PUBCHEM_PHARMACOPHORE_FEATURES>
19
1 1 acceptor
1 10 donor
1 11 donor
1 2 acceptor
1 2 donor
1 3 acceptor
1 3 donor
1 4 acceptor
1 5 acceptor
1 5 donor
1 7 donor
1 8 acceptor
1 9 acceptor
3 12 17 18 hydrophobe
3 38 39 40 hydrophobe
6 1 12 13 14 15 16 rings
6 19 20 21 22 23 24 rings
6 30 31 32 34 35 36 rings
6 6 22 23 26 27 28 rings

> <PUBCHEM_HEAVY_ATOM_COUNT>
40

> <PUBCHEM_ATOM_DEF_STEREO_COUNT>
4

> <PUBCHEM_ATOM_UDEF_STEREO_COUNT>
0

> <PUBCHEM_BOND_DEF_STEREO_COUNT>
0

> <PUBCHEM_BOND_UDEF_STEREO_COUNT>
0

> <PUBCHEM_ISOTOPIC_ATOM_COUNT>
0

> <PUBCHEM_COMPONENT_COUNT>
1

> <PUBCHEM_CACTVS_TAUTO_COUNT>
41

> <PUBCHEM_CONFORMER_ID>
0342861500000002

> <PUBCHEM_MMFF94_ENERGY>
147.9313

> <PUBCHEM_FEATURE_SELFOVERLAP>
96.496

> <PUBCHEM_SHAPE_FINGERPRINT>
10 15 16343708711760164923
10906281 52 18202274793146739922
11061554 47 18113342994637447424
11135926 11 18131361799234975375
11181472 205 18342170081997309540
11408170 132 18261663874691922718
11456790 92 18272369767714136816
12133447 93 18334285504888361900
12539765 74 18410285926407465166
12758862 11 17313389968433046619
13383665 225 18268973402371526932
13811026 1 16660360363961927680
13914758 101 18187362112453842498
14294032 229 18341335573603884485
14394314 77 18341891939932038521
14849402 71 18272929389141860173
150020 25 16877662357365416289
15183329 4 18202287969889756166
15301273 46 16660360372704875606
15328684 2 18340498871235610385
15419008 91 17168439181193910168
15439362 3 18261949765022581887
15461852 350 17967811622572934679
1577012 14 18408886269969960915
16728433 281 17750503156791642097
19841028 212 12390973262397805008
20105231 36 15554451794963465946
20982279 24 15194727973060118456
21223535 225 18259991474588316845
22149856 69 18341051908768553760
22164985 6 15719391716052509013
22311459 1 18131636660267303862
24204213 310 18342167903912457933
24771293 8 18343580763583915069
3178227 256 16845572006559863882
335352 9 17988928825310358966
3711267 37 18131347496866994093
4093350 32 18186519942951909318
4149490 64 12823029616813377976
4169191 19 18202567289573378471
44802255 64 17458628930854833359
4516262 110 18271248344122863671
4625314 4 16950566541202948654
4918590 53 14836402549695779077
5758199 1 18272931618113484963
6081469 158 15357691985643756890
6201320 215 18041844034058002121
6698420 124 17988921141914352314

> <PUBCHEM_SHAPE_MULTIPOLES>
759.51
33.77
3.17
1.68
7.82
2.86
-0.04
15.78
-0.49
-8.17
0.38
2.13
0.04
-4.59

> <PUBCHEM_SHAPE_SELFOVERLAP>
1638.144

> <PUBCHEM_SHAPE_VOLUME>
413.8

> <PUBCHEM_COORDINATE_TYPE>
2
5
10

$$$$

