13549
  -OEChem-06241222393D

 32 31  0     0  0  0  0  0  0999 V2000
   -2.9874    0.3484   -0.0073 O   0  0  0  0  0  0  0  0  0  0  0  0
    2.9878   -0.3483    0.0067 O   0  0  0  0  0  0  0  0  0  0  0  0
   -1.8958   -1.6831   -0.0687 O   0  0  0  0  0  0  0  0  0  0  0  0
    1.8938    1.6812   -0.0634 O   0  0  0  0  0  0  0  0  0  0  0  0
   -0.6454    0.4062   -0.0778 C   0  0  0  0  0  0  0  0  0  0  0  0
    0.6454   -0.4092   -0.0468 C   0  0  0  0  0  0  0  0  0  0  0  0
   -4.2478   -0.3293    0.0150 C   0  0  0  0  0  0  0  0  0  0  0  0
    4.2479    0.3302    0.0146 C   0  0  0  0  0  0  0  0  0  0  0  0
   -5.3617    0.7055    0.0610 C   0  0  0  0  0  0  0  0  0  0  0  0
    5.3628   -0.7034    0.0611 C   0  0  0  0  0  0  0  0  0  0  0  0
   -1.8864   -0.4599   -0.0493 C   0  0  0  0  0  0  0  0  0  0  0  0
    1.8857    0.4584   -0.0339 C   0  0  0  0  0  0  0  0  0  0  0  0
   -6.7337    0.0570    0.1019 C   0  0  0  0  0  0  0  0  0  0  0  0
    6.7346   -0.0537    0.0869 C   0  0  0  0  0  0  0  0  0  0  0  0
   -0.6760    1.0750    0.7905 H   0  0  0  0  0  0  0  0  0  0  0  0
   -0.6750    1.0175   -0.9872 H   0  0  0  0  0  0  0  0  0  0  0  0
    0.6909   -1.0596   -0.9280 H   0  0  0  0  0  0  0  0  0  0  0  0
    0.6604   -1.0392    0.8503 H   0  0  0  0  0  0  0  0  0  0  0  0
   -5.2286    1.3504    0.9380 H   0  0  0  0  0  0  0  0  0  0  0  0
   -5.2868    1.3652   -0.8117 H   0  0  0  0  0  0  0  0  0  0  0  0
    5.2364   -1.3412    0.9441 H   0  0  0  0  0  0  0  0  0  0  0  0
    5.2822   -1.3702   -0.8057 H   0  0  0  0  0  0  0  0  0  0  0  0
   -4.2953   -0.9739    0.9005 H   0  0  0  0  0  0  0  0  0  0  0  0
   -4.3431   -0.9459   -0.8865 H   0  0  0  0  0  0  0  0  0  0  0  0
    4.3012    0.9820    0.8946 H   0  0  0  0  0  0  0  0  0  0  0  0
    4.3364    0.9397   -0.8924 H   0  0  0  0  0  0  0  0  0  0  0  0
   -6.8422   -0.5759    0.9884 H   0  0  0  0  0  0  0  0  0  0  0  0
   -7.5146    0.8231    0.1339 H   0  0  0  0  0  0  0  0  0  0  0  0
   -6.9015   -0.5621   -0.7852 H   0  0  0  0  0  0  0  0  0  0  0  0
    6.8491    0.5864    0.9675 H   0  0  0  0  0  0  0  0  0  0  0  0
    7.5163   -0.8192    0.1197 H   0  0  0  0  0  0  0  0  0  0  0  0
    6.8957    0.5582   -0.8063 H   0  0  0  0  0  0  0  0  0  0  0  0
  1  7  1  0  0  0  0
  1 11  1  0  0  0  0
  2  8  1  0  0  0  0
  2 12  1  0  0  0  0
  3 11  2  0  0  0  0
  4 12  2  0  0  0  0
  5  6  1  0  0  0  0
  5 11  1  0  0  0  0
  5 15  1  0  0  0  0
  5 16  1  0  0  0  0
  6 12  1  0  0  0  0
  6 17  1  0  0  0  0
  6 18  1  0  0  0  0
  7  9  1  0  0  0  0
  7 23  1  0  0  0  0
  7 24  1  0  0  0  0
  8 10  1  0  0  0  0
  8 25  1  0  0  0  0
  8 26  1  0  0  0  0
  9 13  1  0  0  0  0
  9 19  1  0  0  0  0
  9 20  1  0  0  0  0
 10 14  1  0  0  0  0
 10 21  1  0  0  0  0
 10 22  1  0  0  0  0
 13 27  1  0  0  0  0
 13 28  1  0  0  0  0
 13 29  1  0  0  0  0
 14 30  1  0  0  0  0
 14 31  1  0  0  0  0
 14 32  1  0  0  0  0
M  END
> <PUBCHEM_COMPOUND_CID>
13549

> <PUBCHEM_CONFORMER_RMSD>
0.8

> <PUBCHEM_CONFORMER_DIVERSEORDER>
1
101
23
37
92
4
128
35
24
3
27
71
123
50
75
122
109
10
110
40
21
19
32
111
57
14
88
94
93
16
114
81
22
33
17
65
58
121
124
117
25
105
12
2
97
8
13
9
87
76
72
112
38
29
64
118
133
126
59
86
82
74
18
134
62
127
7
36
51
45
95
53
26
107
113
91
80
100
15
6
68
108
103
102
132
90
60
5
130
48
131
83
39
49
66
125
55
98
84
52
41
96
42
54
31
116
44
73
115
119
67
47
43
46
28
99
104
11
34
20
79
63
30
120
69
56
129
89
106
78
61
77
70
85

> <PUBCHEM_MMFF94_PARTIAL_CHARGES>
10
1 -0.43
11 0.66
12 0.66
2 -0.43
3 -0.57
4 -0.57
5 0.06
6 0.06
7 0.28
8 0.28

> <PUBCHEM_EFFECTIVE_ROTOR_COUNT>
9

> <PUBCHEM_PHARMACOPHORE_FEATURES>
4
1 13 hydrophobe
1 14 hydrophobe
1 3 acceptor
1 4 acceptor

> <PUBCHEM_HEAVY_ATOM_COUNT>
14

> <PUBCHEM_ATOM_DEF_STEREO_COUNT>
0

> <PUBCHEM_ATOM_UDEF_STEREO_COUNT>
0

> <PUBCHEM_BOND_DEF_STEREO_COUNT>
0

> <PUBCHEM_BOND_UDEF_STEREO_COUNT>
0

> <PUBCHEM_ISOTOPIC_ATOM_COUNT>
0

> <PUBCHEM_COMPONENT_COUNT>
1

> <PUBCHEM_CACTVS_TAUTO_COUNT>
1

> <PUBCHEM_CONFORMER_ID>
000034ED00000001

> <PUBCHEM_MMFF94_ENERGY>
5.8403

> <PUBCHEM_FEATURE_SELFOVERLAP>
20.297

> <PUBCHEM_SHAPE_FINGERPRINT>
12091667 2 18333732421228569245
12714333 28 4751156311368810659
12815109 37 18334858320708195922
13533116 47 13912596212858990238
1420 363 9439402449424455720
14251764 18 18410575067488491127
14251764 46 18410856563966457379
17834072 8 18410856563934756878
17834076 25 17749390372986082330
187816 3 5256403903476334247
20279233 1 15647046040966666972
20281389 69 18342740719093507560
20645477 70 16733537347137347734
20767249 213 5761647092640700010
22224240 67 16950290602929693302
23035841 295 13326854430864936280
23218964 4 18413671322370951821
23402539 116 18040440984137385069
23521765 1 18335421274471268369
23559900 14 18114471062890279208
3545911 37 18408041818684339091
366044 4 18409448085988809779
42788 4 18410855464739724645
4463277 17 18342738516265622388
8209 1 18410575093258294764

> <PUBCHEM_SHAPE_MULTIPOLES>
264.64
16.93
1.07
0.59
0.01
0
0
-0.01
-0.88
0
0.02
0
0
-0.06

> <PUBCHEM_SHAPE_SELFOVERLAP>
492.386

> <PUBCHEM_SHAPE_VOLUME>
165.7

> <PUBCHEM_COORDINATE_TYPE>
2
5
10

$$$$

