906525
  -OEChem-07051213103D

 44 46  0     1  0  0  0  0  0999 V2000
   -0.2105    1.1142    1.1858 O   0  0  0  0  0  0  0  0  0  0  0  0
   -2.6136    0.2732   -0.0328 O   0  0  0  0  0  0  0  0  0  0  0  0
    4.2574   -0.7189    1.2010 O   0  0  0  0  0  0  0  0  0  0  0  0
   -4.8759    0.6156    0.2238 O   0  0  0  0  0  0  0  0  0  0  0  0
    6.3797   -1.5756    1.1237 O   0  0  0  0  0  0  0  0  0  0  0  0
   -0.8716    1.9128    0.1693 C   0  0  2  0  0  0  0  0  0  0  0  0
   -2.3682    1.6565    0.2376 C   0  0  0  0  0  0  0  0  0  0  0  0
   -0.2756    1.5607   -1.2024 C   0  0  0  0  0  0  0  0  0  0  0  0
    1.0239    1.0067   -0.7603 C   0  0  0  0  0  0  0  0  0  0  0  0
    0.9781    0.7547    0.6039 C   0  0  0  0  0  0  0  0  0  0  0  0
   -3.1200    2.4895   -0.8037 C   0  0  0  0  0  0  0  0  0  0  0  0
   -2.9076    1.9472    1.6396 C   0  0  0  0  0  0  0  0  0  0  0  0
    2.1444    0.6887   -1.5111 C   0  0  0  0  0  0  0  0  0  0  0  0
    2.0350    0.1770    1.2772 C   0  0  0  0  0  0  0  0  0  0  0  0
    3.2388    0.1132   -0.8554 C   0  0  0  0  0  0  0  0  0  0  0  0
    3.1663   -0.1337    0.5229 C   0  0  0  0  0  0  0  0  0  0  0  0
   -3.9197   -0.1108   -0.0068 C   0  0  0  0  0  0  0  0  0  0  0  0
    4.4554   -0.2473   -1.5648 C   0  0  0  0  0  0  0  0  0  0  0  0
   -4.0144   -1.5733   -0.2999 C   0  0  0  0  0  0  0  0  0  0  0  0
    5.4796   -0.7999   -0.9104 C   0  0  0  0  0  0  0  0  0  0  0  0
    5.4293   -1.0683    0.5384 C   0  0  0  0  0  0  0  0  0  0  0  0
   -2.9967   -2.1825   -1.2181 C   0  0  0  0  0  0  0  0  0  0  0  0
   -5.0445   -2.2217    0.2743 C   0  0  0  0  0  0  0  0  0  0  0  0
   -5.3695   -3.6779    0.1684 C   0  0  0  0  0  0  0  0  0  0  0  0
   -0.6538    2.9648    0.4056 H   0  0  0  0  0  0  0  0  0  0  0  0
   -0.1705    2.4479   -1.8335 H   0  0  0  0  0  0  0  0  0  0  0  0
   -0.8368    0.7906   -1.7409 H   0  0  0  0  0  0  0  0  0  0  0  0
   -4.1877    2.6098   -0.6007 H   0  0  0  0  0  0  0  0  0  0  0  0
   -2.7173    3.5090   -0.8411 H   0  0  0  0  0  0  0  0  0  0  0  0
   -3.0324    2.0559   -1.8065 H   0  0  0  0  0  0  0  0  0  0  0  0
   -2.6516    1.1460    2.3429 H   0  0  0  0  0  0  0  0  0  0  0  0
   -3.9911    2.0834    1.6916 H   0  0  0  0  0  0  0  0  0  0  0  0
   -2.4821    2.8812    2.0265 H   0  0  0  0  0  0  0  0  0  0  0  0
    2.1613    0.8787   -2.5798 H   0  0  0  0  0  0  0  0  0  0  0  0
    1.9890   -0.0223    2.3415 H   0  0  0  0  0  0  0  0  0  0  0  0
    4.5168   -0.0603   -2.6311 H   0  0  0  0  0  0  0  0  0  0  0  0
    6.3890   -1.0701   -1.4360 H   0  0  0  0  0  0  0  0  0  0  0  0
   -3.3301   -3.1278   -1.6540 H   0  0  0  0  0  0  0  0  0  0  0  0
   -2.7900   -1.5103   -2.0584 H   0  0  0  0  0  0  0  0  0  0  0  0
   -2.0593   -2.3621   -0.6820 H   0  0  0  0  0  0  0  0  0  0  0  0
   -5.7322   -1.6680    0.9120 H   0  0  0  0  0  0  0  0  0  0  0  0
   -5.4915   -4.0980    1.1722 H   0  0  0  0  0  0  0  0  0  0  0  0
   -4.5970   -4.2618   -0.3363 H   0  0  0  0  0  0  0  0  0  0  0  0
   -6.3117   -3.8098   -0.3721 H   0  0  0  0  0  0  0  0  0  0  0  0
  1  6  1  0  0  0  0
  1 10  1  0  0  0  0
  2  7  1  0  0  0  0
  2 17  1  0  0  0  0
  3 16  1  0  0  0  0
  3 21  1  0  0  0  0
  4 17  2  0  0  0  0
  5 21  2  0  0  0  0
  6  7  1  0  0  0  0
  6  8  1  0  0  0  0
  6 25  1  0  0  0  0
  7 11  1  0  0  0  0
  7 12  1  0  0  0  0
  8  9  1  0  0  0  0
  8 26  1  0  0  0  0
  8 27  1  0  0  0  0
  9 10  2  0  0  0  0
  9 13  1  0  0  0  0
 10 14  1  0  0  0  0
 11 28  1  0  0  0  0
 11 29  1  0  0  0  0
 11 30  1  0  0  0  0
 12 31  1  0  0  0  0
 12 32  1  0  0  0  0
 12 33  1  0  0  0  0
 13 15  2  0  0  0  0
 13 34  1  0  0  0  0
 14 16  2  0  0  0  0
 14 35  1  0  0  0  0
 15 16  1  0  0  0  0
 15 18  1  0  0  0  0
 17 19  1  0  0  0  0
 18 20  2  0  0  0  0
 18 36  1  0  0  0  0
 19 22  1  0  0  0  0
 19 23  2  0  0  0  0
 20 21  1  0  0  0  0
 20 37  1  0  0  0  0
 22 38  1  0  0  0  0
 22 39  1  0  0  0  0
 22 40  1  0  0  0  0
 23 24  1  0  0  0  0
 23 41  1  0  0  0  0
 24 42  1  0  0  0  0
 24 43  1  0  0  0  0
 24 44  1  0  0  0  0
M  END
> <PUBCHEM_COMPOUND_CID>
906525

> <PUBCHEM_CONFORMER_RMSD>
0.8

> <PUBCHEM_CONFORMER_DIVERSEORDER>
1
36
9
49
44
51
3
45
47
42
27
21
43
24
37
40
12
29
23
11
41
14
48
46
5
31
25
38
20
7
15
28
19
26
18
17
35
39
33
10
16
32
6
34
50
2
13
4
8
30
22

> <PUBCHEM_MMFF94_PARTIAL_CHARGES>
27
1 -0.36
10 0.08
13 -0.15
14 -0.15
15 0.03
16 0.08
17 0.71
18 -0.18
19 -0.12
2 -0.43
20 -0.14
21 0.71
22 0.14
23 -0.29
24 0.14
3 -0.23
34 0.15
35 0.15
36 0.15
37 0.15
4 -0.57
41 0.15
5 -0.57
6 0.28
7 0.28
8 0.14
9 -0.14

> <PUBCHEM_EFFECTIVE_ROTOR_COUNT>
4.6

> <PUBCHEM_PHARMACOPHORE_FEATURES>
9
1 1 acceptor
1 22 hydrophobe
1 24 hydrophobe
1 4 acceptor
1 5 acceptor
3 7 11 12 hydrophobe
5 1 6 8 9 10 rings
6 3 15 16 18 20 21 rings
6 9 10 13 14 15 16 rings

> <PUBCHEM_HEAVY_ATOM_COUNT>
24

> <PUBCHEM_ATOM_DEF_STEREO_COUNT>
1

> <PUBCHEM_ATOM_UDEF_STEREO_COUNT>
0

> <PUBCHEM_BOND_DEF_STEREO_COUNT>
1

> <PUBCHEM_BOND_UDEF_STEREO_COUNT>
0

> <PUBCHEM_ISOTOPIC_ATOM_COUNT>
0

> <PUBCHEM_COMPONENT_COUNT>
1

> <PUBCHEM_CACTVS_TAUTO_COUNT>
1

> <PUBCHEM_CONFORMER_ID>
000DD51D00000001

> <PUBCHEM_MMFF94_ENERGY>
80.9839

> <PUBCHEM_FEATURE_SELFOVERLAP>
45.802

> <PUBCHEM_SHAPE_FINGERPRINT>
10 15 16878523305926409578
10042902 136 18265332816007960111
10622 236 17916886701634199730
11046707 91 18411138043470451845
11370993 144 16153694479401543311
117089 54 18125428723181484667
11796584 16 18337954596596092318
11809386 21 18343867727507815379
12236239 1 17988919007020232404
12390115 104 11095893691795533119
12523318 42 18260554449730974936
12616971 3 17845641664216739108
12633257 1 16081647756226788175
12760667 363 18334016060869200015
12969540 114 14908177547385292792
13583140 156 17969521461843675380
14178342 30 18042110102670165893
14251751 18 18408889538075965794
14251764 30 17771614669303547051
14576447 43 18060419093038916270
14950920 106 15574992819691411767
15188451 53 18335428966778970111
15209294 21 7276830173397183680
15238133 3 9007059033503612326
15510800 12 18186515493244387567
15537594 2 18272646879009069955
15788980 27 17774433997009482964
17138139 8 18059018276238791050
17349148 13 17774999120316336224
17857418 61 18202001053732572794
18186145 218 14476950212300975776
18785283 64 17169004287616890768
193927 3 18261388914827106719
200 152 17489302031708365156
20028762 73 18201442506474948194
20645477 70 15841267147121768816
20775438 99 17114958691081108171
21033648 29 15647912568067614296
21054139 6 18131915966560116250
21315759 148 17749385997121464826
23402539 116 17417809612538146228
23559900 14 18336275560937203169
238918 7 17603296055496635806
270888 7 9006797379621968499
3004659 81 18130510726085099463
316301 35 18192151495179510723
339767 52 18410579495853240959
351380 3 18273213088679112251
397830 11 18189070758757241256
4015057 19 16701725095601712068
439807 62 17988076674451797955
44062 13 18342178856546943127
5104073 3 18113896031209958169
559249 180 18200878499489456053
602551 16 18260829310901226294
7471813 234 17846211177096733588
7495541 125 18259987068078478248
76465 3 18343021073120365556
7970288 3 18269275664737359027

> <PUBCHEM_SHAPE_MULTIPOLES>
464.56
13.62
2.89
1.43
6.9
1.38
0.02
11.71
-1.07
-5.66
-0.04
1.09
-0.21
-0.89

> <PUBCHEM_SHAPE_SELFOVERLAP>
1006.347

> <PUBCHEM_SHAPE_VOLUME>
254.5

> <PUBCHEM_COORDINATE_TYPE>
2
5
10

$$$$

