17395494
  -OEChem-06241222502D

 40 42  0     1  0  0  0  0  0999 V2000
    5.4921    0.1466    0.0000 S   0  0  0  0  0  0  0  0  0  0  0  0
    9.1895   -0.0842    0.0000 S   0  0  0  0  0  0  0  0  0  0  0  0
    7.3942   -0.4714    0.0000 O   0  0  0  0  0  0  0  0  0  0  0  0
    3.7320   -0.1322    0.0000 N   0  0  0  0  0  0  0  0  0  0  0  0
    9.6895    1.4546    0.0000 N   0  0  0  0  0  0  0  0  0  0  0  0
    4.2320    1.4067    0.0000 N   0  0  0  0  0  0  0  0  0  0  0  0
    3.2320    1.4067    0.0000 N   0  0  0  0  0  0  0  0  0  0  0  0
    7.5136    3.1322    0.0000 N   0  0  0  0  0  0  0  0  0  0  0  0
    3.7320   -1.1322    0.0000 C   0  0  0  0  0  0  0  0  0  0  0  0
    2.8660   -1.6322    0.0000 C   0  0  0  0  0  0  0  0  0  0  0  0
    7.9295    1.1759    0.0000 C   0  0  3  0  0  0  0  0  0  0  0  0
    4.5411    0.4556    0.0000 C   0  0  0  0  0  0  0  0  0  0  0  0
    6.2353    0.8157    0.0000 C   0  0  0  0  0  0  0  0  0  0  0  0
    7.1863    0.5067    0.0000 C   0  0  0  0  0  0  0  0  0  0  0  0
    8.8805    0.8668    0.0000 C   0  0  0  0  0  0  0  0  0  0  0  0
    4.5981   -1.6322    0.0000 C   0  0  0  0  0  0  0  0  0  0  0  0
    2.8660   -2.6322    0.0000 C   0  0  0  0  0  0  0  0  0  0  0  0
    2.0000   -1.1322    0.0000 C   0  0  0  0  0  0  0  0  0  0  0  0
    2.9230    0.4556    0.0000 C   0  0  0  0  0  0  0  0  0  0  0  0
    4.5981   -2.6322    0.0000 C   0  0  0  0  0  0  0  0  0  0  0  0
    3.7320   -3.1322    0.0000 C   0  0  0  0  0  0  0  0  0  0  0  0
   10.4986    0.8668    0.0000 C   0  0  0  0  0  0  0  0  0  0  0  0
   10.1895   -0.0842    0.0000 C   0  0  0  0  0  0  0  0  0  0  0  0
    7.7216    2.1540    0.0000 C   0  0  0  0  0  0  0  0  0  0  0  0
   11.4496    1.1759    0.0000 C   0  0  0  0  0  0  0  0  0  0  0  0
    8.3902    1.5907    0.0000 H   0  0  0  0  0  0  0  0  0  0  0  0
    6.5263    1.3632    0.0000 H   0  0  0  0  0  0  0  0  0  0  0  0
    5.7467    1.1975    0.0000 H   0  0  0  0  0  0  0  0  0  0  0  0
    5.1350   -1.3222    0.0000 H   0  0  0  0  0  0  0  0  0  0  0  0
    2.3291   -2.9422    0.0000 H   0  0  0  0  0  0  0  0  0  0  0  0
    2.3100   -0.5952    0.0000 H   0  0  0  0  0  0  0  0  0  0  0  0
    1.4631   -0.8222    0.0000 H   0  0  0  0  0  0  0  0  0  0  0  0
    1.6900   -1.6691    0.0000 H   0  0  0  0  0  0  0  0  0  0  0  0
    2.3334    0.2640    0.0000 H   0  0  0  0  0  0  0  0  0  0  0  0
    5.1350   -2.9422    0.0000 H   0  0  0  0  0  0  0  0  0  0  0  0
    3.7320   -3.7522    0.0000 H   0  0  0  0  0  0  0  0  0  0  0  0
   10.5540   -0.5858    0.0000 H   0  0  0  0  0  0  0  0  0  0  0  0
   11.6412    0.5862    0.0000 H   0  0  0  0  0  0  0  0  0  0  0  0
   12.0393    1.3674    0.0000 H   0  0  0  0  0  0  0  0  0  0  0  0
   11.2580    1.7655    0.0000 H   0  0  0  0  0  0  0  0  0  0  0  0
  1 12  1  0  0  0  0
  1 13  1  0  0  0  0
  2 15  1  0  0  0  0
  2 23  1  0  0  0  0
  3 14  2  0  0  0  0
  4  9  1  0  0  0  0
  4 12  1  0  0  0  0
  4 19  1  0  0  0  0
  5 15  2  0  0  0  0
  5 22  1  0  0  0  0
  6  7  1  0  0  0  0
  6 12  2  0  0  0  0
  7 19  2  0  0  0  0
  8 24  3  0  0  0  0
  9 10  1  0  0  0  0
  9 16  2  0  0  0  0
 10 17  2  0  0  0  0
 10 18  1  0  0  0  0
 11 14  1  0  0  0  0
 11 15  1  0  0  0  0
 11 24  1  0  0  0  0
 11 26  1  0  0  0  0
 13 14  1  0  0  0  0
 13 27  1  0  0  0  0
 13 28  1  0  0  0  0
 16 20  1  0  0  0  0
 16 29  1  0  0  0  0
 17 21  1  0  0  0  0
 17 30  1  0  0  0  0
 18 31  1  0  0  0  0
 18 32  1  0  0  0  0
 18 33  1  0  0  0  0
 19 34  1  0  0  0  0
 20 21  2  0  0  0  0
 20 35  1  0  0  0  0
 21 36  1  0  0  0  0
 22 23  2  0  0  0  0
 22 25  1  0  0  0  0
 23 37  1  0  0  0  0
 25 38  1  0  0  0  0
 25 39  1  0  0  0  0
 25 40  1  0  0  0  0
M  END
> <PUBCHEM_COMPOUND_CID>
17395494

> <PUBCHEM_COMPOUND_CANONICALIZED>
1

> <PUBCHEM_CACTVS_COMPLEXITY>
524

> <PUBCHEM_CACTVS_HBOND_ACCEPTOR>
7

> <PUBCHEM_CACTVS_HBOND_DONOR>
0

> <PUBCHEM_CACTVS_ROTATABLE_BOND>
6

> <PUBCHEM_CACTVS_SUBSKEYS>
AAADccB7oABgAAAAAAAAAAAAAAAAAWLAAAAwAAAAAAAAAAAB8AAAHgQIAAAADQyF3gS30ZcMEAi+B6RzZACS8KtxirgNyBU4ZIiIqCrgmZGEIAhggALoyC8QgAAOAAAAAAACAAAAAAAAAAQAAAAAAAAAAA==

> <PUBCHEM_IUPAC_OPENEYE_NAME>
2-(4-methylthiazol-2-yl)-4-[[4-(o-tolyl)-1,2,4-triazol-3-yl]sulfanyl]-3-oxo-butanenitrile

> <PUBCHEM_IUPAC_CAS_NAME>
4-[[4-(2-methylphenyl)-1,2,4-triazol-3-yl]thio]-2-(4-methyl-2-thiazolyl)-3-oxobutanenitrile

> <PUBCHEM_IUPAC_NAME>
4-[[4-(2-methylphenyl)-1,2,4-triazol-3-yl]sulfanyl]-2-(4-methyl-1,3-thiazol-2-yl)-3-oxobutanenitrile

> <PUBCHEM_IUPAC_SYSTEMATIC_NAME>
4-[[4-(2-methylphenyl)-1,2,4-triazol-3-yl]sulfanyl]-2-(4-methyl-1,3-thiazol-2-yl)-3-oxidanylidene-butanenitrile

> <PUBCHEM_IUPAC_TRADITIONAL_NAME>
3-keto-2-(4-methylthiazol-2-yl)-4-[[4-(o-tolyl)-1,2,4-triazol-3-yl]thio]butyronitrile

> <PUBCHEM_IUPAC_INCHI>
InChI=1S/C17H15N5OS2/c1-11-5-3-4-6-14(11)22-10-19-21-17(22)25-9-15(23)13(7-18)16-20-12(2)8-24-16/h3-6,8,10,13H,9H2,1-2H3

> <PUBCHEM_IUPAC_INCHIKEY>
VZEWQUABGRJYPR-UHFFFAOYSA-N

> <PUBCHEM_XLOGP3_AA>
3.1

> <PUBCHEM_EXACT_MASS>
369.071802

> <PUBCHEM_MOLECULAR_FORMULA>
C17H15N5OS2

> <PUBCHEM_MOLECULAR_WEIGHT>
369.4639

> <PUBCHEM_OPENEYE_CAN_SMILES>
CC1=CC=CC=C1N2C=NN=C2SCC(=O)C(C#N)C3=NC(=CS3)C

> <PUBCHEM_OPENEYE_ISO_SMILES>
CC1=CC=CC=C1N2C=NN=C2SCC(=O)C(C#N)C3=NC(=CS3)C

> <PUBCHEM_CACTVS_TPSA>
138

> <PUBCHEM_MONOISOTOPIC_WEIGHT>
369.071802

> <PUBCHEM_TOTAL_CHARGE>
0

> <PUBCHEM_HEAVY_ATOM_COUNT>
25

> <PUBCHEM_ATOM_DEF_STEREO_COUNT>
0

> <PUBCHEM_ATOM_UDEF_STEREO_COUNT>
1

> <PUBCHEM_BOND_DEF_STEREO_COUNT>
0

> <PUBCHEM_BOND_UDEF_STEREO_COUNT>
0

> <PUBCHEM_ISOTOPIC_ATOM_COUNT>
0

> <PUBCHEM_COMPONENT_COUNT>
1

> <PUBCHEM_CACTVS_TAUTO_COUNT>
5

> <PUBCHEM_COORDINATE_TYPE>
1
5
255

> <PUBCHEM_BONDANNOTATIONS>
10  17  8
11  24  3
16  20  8
17  21  8
2  15  8
2  23  8
20  21  8
22  23  8
4  12  8
4  19  8
5  15  8
5  22  8
6  12  8
6  7  8
7  19  8
9  10  8
9  16  8

$$$$

