17395909
  -OEChem-06241222533D

 30 32  0     0  0  0  0  0  0999 V2000
   -0.4611    1.0950   -0.7416 S   0  0  0  0  0  0  0  0  0  0  0  0
    3.3623   -1.0199    0.5371 S   0  0  0  0  0  0  0  0  0  0  0  0
    6.0110   -2.5106    0.4445 S   0  0  0  0  0  0  0  0  0  0  0  0
    4.8195    2.0911   -1.1463 O   0  0  0  0  0  0  0  0  0  0  0  0
   -2.1017   -2.1052   -1.4801 O   0  5  0  0  0  0  0  0  0  0  0  0
   -2.5315   -2.6420    0.6046 O   0  0  0  0  0  0  0  0  0  0  0  0
   -2.6641   -1.8826   -0.3830 N   0  3  0  0  0  0  0  0  0  0  0  0
    5.5011   -0.0229   -0.4503 N   0  0  0  0  0  0  0  0  0  0  0  0
   -1.5561    0.6444    0.4954 C   0  0  0  0  0  0  0  0  0  0  0  0
   -2.9579    0.4966    0.1688 C   0  0  0  0  0  0  0  0  0  0  0  0
    0.8633    1.0597    0.3434 C   0  0  0  0  0  0  0  0  0  0  0  0
   -0.9244    0.4716    1.7072 C   0  0  0  0  0  0  0  0  0  0  0  0
   -3.4830   -0.7248   -0.2537 C   0  0  0  0  0  0  0  0  0  0  0  0
    0.4772    0.7121    1.6193 C   0  0  0  0  0  0  0  0  0  0  0  0
   -3.7893    1.6106    0.2845 C   0  0  0  0  0  0  0  0  0  0  0  0
    2.1549    1.3709   -0.1321 C   0  0  0  0  0  0  0  0  0  0  0  0
    3.2775    0.5774   -0.1034 C   0  0  0  0  0  0  0  0  0  0  0  0
   -4.8396   -0.8319   -0.5603 C   0  0  0  0  0  0  0  0  0  0  0  0
   -5.1458    1.5033   -0.0222 C   0  0  0  0  0  0  0  0  0  0  0  0
   -5.6710    0.2822   -0.4447 C   0  0  0  0  0  0  0  0  0  0  0  0
    4.5945    1.0048   -0.6340 C   0  0  0  0  0  0  0  0  0  0  0  0
    5.0642   -1.1800    0.1469 C   0  0  0  0  0  0  0  0  0  0  0  0
   -1.4368    0.1870    2.6179 H   0  0  0  0  0  0  0  0  0  0  0  0
    1.1569    0.6368    2.4592 H   0  0  0  0  0  0  0  0  0  0  0  0
   -3.3986    2.5710    0.6131 H   0  0  0  0  0  0  0  0  0  0  0  0
    2.2562    2.3457   -0.6086 H   0  0  0  0  0  0  0  0  0  0  0  0
   -5.2642   -1.7768   -0.8909 H   0  0  0  0  0  0  0  0  0  0  0  0
   -5.7933    2.3706    0.0680 H   0  0  0  0  0  0  0  0  0  0  0  0
   -6.7272    0.1990   -0.6833 H   0  0  0  0  0  0  0  0  0  0  0  0
    6.4654    0.0764   -0.7503 H   0  0  0  0  0  0  0  0  0  0  0  0
  1  9  1  0  0  0  0
  1 11  1  0  0  0  0
  2 17  1  0  0  0  0
  2 22  1  0  0  0  0
  3 22  2  0  0  0  0
  4 21  2  0  0  0  0
  5  7  1  0  0  0  0
  6  7  2  0  0  0  0
  7 13  1  0  0  0  0
  8 21  1  0  0  0  0
  8 22  1  0  0  0  0
  8 30  1  0  0  0  0
  9 10  1  0  0  0  0
  9 12  2  0  0  0  0
 10 13  1  0  0  0  0
 10 15  2  0  0  0  0
 11 14  2  0  0  0  0
 11 16  1  0  0  0  0
 12 14  1  0  0  0  0
 12 23  1  0  0  0  0
 13 18  2  0  0  0  0
 14 24  1  0  0  0  0
 15 19  1  0  0  0  0
 15 25  1  0  0  0  0
 16 17  2  0  0  0  0
 16 26  1  0  0  0  0
 17 21  1  0  0  0  0
 18 20  1  0  0  0  0
 18 27  1  0  0  0  0
 19 20  2  0  0  0  0
 19 28  1  0  0  0  0
 20 29  1  0  0  0  0
M  CHG  2   5  -1   7   1
M  END
> <PUBCHEM_COMPOUND_CID>
17395909

> <PUBCHEM_CONFORMER_RMSD>
0.6

> <PUBCHEM_CONFORMER_DIVERSEORDER>
2
26
17
8
42
36
25
10
29
13
24
12
30
37
21
16
39
22
35
27
9
40
3
5
7
38
11
18
23
15
28
14
34
4
41
6
33
32
31
1
19
20

> <PUBCHEM_MMFF94_PARTIAL_CHARGES>
30
1 -0.08
10 0.05
11 -0.01
12 -0.15
13 0.13
14 -0.15
15 -0.15
16 -0.11
17 0.12
18 -0.15
19 -0.15
2 -0.24
20 -0.15
21 0.62
22 0.58
23 0.15
24 0.15
25 0.15
26 0.15
27 0.15
28 0.15
29 0.15
3 -0.38
30 0.37
4 -0.57
5 -0.52
6 -0.52
7 0.91
8 -0.49
9 -0.01

> <PUBCHEM_EFFECTIVE_ROTOR_COUNT>
3.4

> <PUBCHEM_PHARMACOPHORE_FEATURES>
9
1 3 acceptor
1 4 acceptor
1 5 acceptor
1 5 anion
1 6 acceptor
1 8 donor
5 1 9 11 12 14 rings
5 2 8 17 21 22 rings
6 10 13 15 18 19 20 rings

> <PUBCHEM_HEAVY_ATOM_COUNT>
22

> <PUBCHEM_ATOM_DEF_STEREO_COUNT>
0

> <PUBCHEM_ATOM_UDEF_STEREO_COUNT>
0

> <PUBCHEM_BOND_DEF_STEREO_COUNT>
1

> <PUBCHEM_BOND_UDEF_STEREO_COUNT>
0

> <PUBCHEM_ISOTOPIC_ATOM_COUNT>
0

> <PUBCHEM_COMPONENT_COUNT>
1

> <PUBCHEM_CACTVS_TAUTO_COUNT>
3

> <PUBCHEM_CONFORMER_ID>
010970C500000002

> <PUBCHEM_MMFF94_ENERGY>
57.8958

> <PUBCHEM_FEATURE_SELFOVERLAP>
45.751

> <PUBCHEM_SHAPE_FINGERPRINT>
10366900 7 16153419554513793914
10595046 47 18411979122542244372
107951 10 18273214184291944427
10803635 8 18334861640617890429
11315181 36 17530961371669466152
11405975 8 18260547779641911985
11796584 16 18187079546882525486
12107183 9 17834393801740120456
12236239 1 18410292531713120936
12555020 224 18409739469333597423
12788726 201 17822567325785761369
13167823 11 18412262835386241976
13533116 47 18409167740677935240
15183329 4 18413108385276123669
15788980 27 18412260644710490440
17349148 13 17095235912993134161
17857418 61 18335423486901665306
18186145 218 16200432438340023472
18222031 100 15791726395653275696
19489759 90 17385723634009243265
19784866 240 18262797488433744954
200 152 18409165528374281736
20028762 73 18263085565076922342
20511986 3 18337686264715030242
20645477 70 18273494602858836360
21033648 29 14490473140022545032
21857420 4 12732440148502637196
23175994 123 16588022382001744497
23402539 116 18186804707952572845
23522609 53 18044627898657618033
23536379 177 18412544335837838081
23559900 14 18188219701575242945
23569943 247 17487343882697448626
29717793 49 18410290350397177364
300161 21 18411704261978537272
3004659 81 18410855495279346858
314173 85 15719108067479728201
34797466 226 11671776117524383624
4073 2 18201153235973469152
4214541 1 18409448085550979421
44062 13 18187930534491426927
463206 1 18272369793689649210
4921388 177 17346031161056545147
5104073 3 18114179709393797144
559249 180 18336269049629060451
633830 44 17274822428686817296
6437827 68 18408604785659783382
960060 61 18131061641777495340

> <PUBCHEM_SHAPE_MULTIPOLES>
436.73
14.43
2.35
1.14
7.58
1.24
-0.23
3.11
2.44
1.05
0.3
0.02
-0.07
-1.45

> <PUBCHEM_SHAPE_SELFOVERLAP>
919.494

> <PUBCHEM_SHAPE_VOLUME>
247.6

> <PUBCHEM_COORDINATE_TYPE>
2
5
10

$$$$

