442047
  -OEChem-07051212563D

 57 60  0     1  0  0  0  0  0999 V2000
   -0.3430   -1.0138   -2.3754 O   0  0  0  0  0  0  0  0  0  0  0  0
   -0.2081   -0.9109    2.8106 O   0  0  0  0  0  0  0  0  0  0  0  0
    1.0678    1.9656    0.1652 O   0  0  0  0  0  0  0  0  0  0  0  0
   -2.8708    1.8405   -0.6188 O   0  0  0  0  0  0  0  0  0  0  0  0
   -2.2426    0.0541   -2.9251 O   0  0  0  0  0  0  0  0  0  0  0  0
    3.3035    0.7638    1.9356 O   0  0  0  0  0  0  0  0  0  0  0  0
    1.4111    3.6847   -1.3398 O   0  0  0  0  0  0  0  0  0  0  0  0
    0.7177   -0.3613   -0.2401 C   0  0  1  0  0  0  0  0  0  0  0  0
   -0.7099   -0.2774    0.4689 C   0  0  1  0  0  0  0  0  0  0  0  0
   -1.8765   -0.4008   -0.5842 C   0  0  1  0  0  0  0  0  0  0  0  0
    1.9025   -0.7752    0.7144 C   0  0  1  0  0  0  0  0  0  0  0  0
    0.5667   -1.4414   -1.3425 C   0  0  2  0  0  0  0  0  0  0  0  0
   -0.9620   -1.2703    1.6547 C   0  0  2  0  0  0  0  0  0  0  0  0
   -2.7776   -1.6385   -0.3362 C   0  0  0  0  0  0  0  0  0  0  0  0
    3.2417   -1.2545    0.0481 C   0  0  0  0  0  0  0  0  0  0  0  0
   -3.4581   -1.3043    0.9870 C   0  0  1  0  0  0  0  0  0  0  0  0
   -2.4318   -1.3785    2.1196 C   0  0  0  0  0  0  0  0  0  0  0  0
    1.8753   -1.7987   -2.0459 C   0  0  0  0  0  0  0  0  0  0  0  0
    0.9698    1.0374   -0.8846 C   0  0  0  0  0  0  0  0  0  0  0  0
    2.9275   -2.2822   -1.0614 C   0  0  0  0  0  0  0  0  0  0  0  0
   -2.8828    0.6867   -0.2228 C   0  0  0  0  0  0  0  0  0  0  0  0
   -1.5087   -0.4080   -2.0553 C   0  0  0  0  0  0  0  0  0  0  0  0
   -3.8712    0.1218    0.7383 C   0  0  0  0  0  0  0  0  0  0  0  0
    4.1077   -1.9815    1.1121 C   0  0  0  0  0  0  0  0  0  0  0  0
    4.1201   -0.1226   -0.5245 C   0  0  0  0  0  0  0  0  0  0  0  0
    2.1976    0.2585    1.7737 C   0  0  0  0  0  0  0  0  0  0  0  0
   -4.9307    0.7873    1.1984 C   0  0  0  0  0  0  0  0  0  0  0  0
    1.2921    3.2740   -0.1933 C   0  0  0  0  0  0  0  0  0  0  0  0
    1.3726    4.1457    1.0230 C   0  0  0  0  0  0  0  0  0  0  0  0
   -0.7677    0.7138    0.9401 H   0  0  0  0  0  0  0  0  0  0  0  0
    1.5560   -1.6544    1.2712 H   0  0  0  0  0  0  0  0  0  0  0  0
    0.1640   -2.3691   -0.9155 H   0  0  0  0  0  0  0  0  0  0  0  0
   -0.6262   -2.2709    1.3586 H   0  0  0  0  0  0  0  0  0  0  0  0
   -2.2155   -2.5784   -0.3044 H   0  0  0  0  0  0  0  0  0  0  0  0
   -3.5277   -1.7522   -1.1329 H   0  0  0  0  0  0  0  0  0  0  0  0
   -4.3199   -1.9495    1.1841 H   0  0  0  0  0  0  0  0  0  0  0  0
   -2.6545   -0.6317    2.8936 H   0  0  0  0  0  0  0  0  0  0  0  0
   -2.5399   -2.3451    2.6309 H   0  0  0  0  0  0  0  0  0  0  0  0
    2.2463   -0.9484   -2.6295 H   0  0  0  0  0  0  0  0  0  0  0  0
    1.6817   -2.5860   -2.7861 H   0  0  0  0  0  0  0  0  0  0  0  0
    0.1383    1.3491   -1.5229 H   0  0  0  0  0  0  0  0  0  0  0  0
    1.8551    1.0665   -1.5135 H   0  0  0  0  0  0  0  0  0  0  0  0
    2.5664   -3.2145   -0.6057 H   0  0  0  0  0  0  0  0  0  0  0  0
    3.8399   -2.5480   -1.6101 H   0  0  0  0  0  0  0  0  0  0  0  0
    4.9892   -2.4388    0.6462 H   0  0  0  0  0  0  0  0  0  0  0  0
    4.4771   -1.3178    1.8983 H   0  0  0  0  0  0  0  0  0  0  0  0
    3.5458   -2.7885    1.5965 H   0  0  0  0  0  0  0  0  0  0  0  0
    4.5342    0.5786    0.1985 H   0  0  0  0  0  0  0  0  0  0  0  0
    5.0053   -0.5685   -1.0006 H   0  0  0  0  0  0  0  0  0  0  0  0
    3.6440    0.4474   -1.3169 H   0  0  0  0  0  0  0  0  0  0  0  0
    1.3713    0.6026    2.4046 H   0  0  0  0  0  0  0  0  0  0  0  0
   -0.5506   -0.0615    3.1378 H   0  0  0  0  0  0  0  0  0  0  0  0
   -5.6305    0.3107    1.8765 H   0  0  0  0  0  0  0  0  0  0  0  0
   -5.1250    1.8157    0.9147 H   0  0  0  0  0  0  0  0  0  0  0  0
    2.2127    3.8313    1.6472 H   0  0  0  0  0  0  0  0  0  0  0  0
    0.4351    4.0873    1.5815 H   0  0  0  0  0  0  0  0  0  0  0  0
    1.5325    5.1834    0.7168 H   0  0  0  0  0  0  0  0  0  0  0  0
  1 12  1  0  0  0  0
  1 22  1  0  0  0  0
  2 13  1  0  0  0  0
  2 52  1  0  0  0  0
  3 19  1  0  0  0  0
  3 28  1  0  0  0  0
  4 21  2  0  0  0  0
  5 22  2  0  0  0  0
  6 26  2  0  0  0  0
  7 28  2  0  0  0  0
  8  9  1  0  0  0  0
  8 11  1  0  0  0  0
  8 12  1  0  0  0  0
  8 19  1  0  0  0  0
  9 10  1  0  0  0  0
  9 13  1  0  0  0  0
  9 30  1  0  0  0  0
 10 14  1  0  0  0  0
 10 21  1  0  0  0  0
 10 22  1  0  0  0  0
 11 15  1  0  0  0  0
 11 26  1  0  0  0  0
 11 31  1  0  0  0  0
 12 18  1  0  0  0  0
 12 32  1  0  0  0  0
 13 17  1  0  0  0  0
 13 33  1  0  0  0  0
 14 16  1  0  0  0  0
 14 34  1  0  0  0  0
 14 35  1  0  0  0  0
 15 20  1  0  0  0  0
 15 24  1  0  0  0  0
 15 25  1  0  0  0  0
 16 17  1  0  0  0  0
 16 23  1  0  0  0  0
 16 36  1  0  0  0  0
 17 37  1  0  0  0  0
 17 38  1  0  0  0  0
 18 20  1  0  0  0  0
 18 39  1  0  0  0  0
 18 40  1  0  0  0  0
 19 41  1  0  0  0  0
 19 42  1  0  0  0  0
 20 43  1  0  0  0  0
 20 44  1  0  0  0  0
 21 23  1  0  0  0  0
 23 27  2  0  0  0  0
 24 45  1  0  0  0  0
 24 46  1  0  0  0  0
 24 47  1  0  0  0  0
 25 48  1  0  0  0  0
 25 49  1  0  0  0  0
 25 50  1  0  0  0  0
 26 51  1  0  0  0  0
 27 53  1  0  0  0  0
 27 54  1  0  0  0  0
 28 29  1  0  0  0  0
 29 55  1  0  0  0  0
 29 56  1  0  0  0  0
 29 57  1  0  0  0  0
M  END
> <PUBCHEM_COMPOUND_CID>
442047

> <PUBCHEM_CONFORMER_RMSD>
0.8

> <PUBCHEM_CONFORMER_DIVERSEORDER>
1
2
4
3
5

> <PUBCHEM_MMFF94_PARTIAL_CHARGES>
24
1 -0.43
10 0.12
11 0.06
12 0.28
13 0.28
16 0.14
19 0.28
2 -0.68
21 0.49
22 0.66
23 -0.12
26 0.45
27 -0.3
28 0.66
29 0.06
3 -0.43
4 -0.57
5 -0.57
51 0.06
52 0.4
53 0.15
54 0.15
6 -0.57
7 -0.57

> <PUBCHEM_EFFECTIVE_ROTOR_COUNT>
5.6

> <PUBCHEM_PHARMACOPHORE_FEATURES>
10
1 2 acceptor
1 2 donor
1 4 acceptor
1 5 acceptor
1 6 acceptor
1 7 acceptor
3 15 24 25 hydrophobe
6 1 8 9 10 12 22 rings
6 8 11 12 15 18 20 rings
8 9 10 13 14 16 17 21 23 rings

> <PUBCHEM_HEAVY_ATOM_COUNT>
29

> <PUBCHEM_ATOM_DEF_STEREO_COUNT>
7

> <PUBCHEM_ATOM_UDEF_STEREO_COUNT>
0

> <PUBCHEM_BOND_DEF_STEREO_COUNT>
0

> <PUBCHEM_BOND_UDEF_STEREO_COUNT>
0

> <PUBCHEM_ISOTOPIC_ATOM_COUNT>
0

> <PUBCHEM_COMPONENT_COUNT>
1

> <PUBCHEM_CACTVS_TAUTO_COUNT>
2

> <PUBCHEM_CONFORMER_ID>
0006BEBF00000001

> <PUBCHEM_MMFF94_ENERGY>
123.0564

> <PUBCHEM_FEATURE_SELFOVERLAP>
50.787

> <PUBCHEM_SHAPE_FINGERPRINT>
10863032 1 18192700164703880139
11244481 83 17988357049346434468
11640471 11 17240762818053365553
12293681 4 18268423714707220921
12422481 6 17391616054145189841
12633257 1 18059298669004561897
12714826 92 16988288684722933983
12788726 201 18125993013305912024
13134695 92 18410011039851862176
13224815 77 17458070343501786294
133893 2 18193859049574583980
13681431 1 18338779161998504044
14223421 5 17986388884804163045
14955137 171 18188192227096334772
15209289 33 17561074835044144371
15238133 3 18198887288041976349
1601671 61 18113610218732645516
16752209 62 15697733536267520735
16945 1 18268447770718740910
17349148 13 13984666987877352619
1813 80 17969479650563733854
20600515 1 17916587695101425364
20691752 17 18116172098026845214
20715895 44 16083888801816580219
20739085 24 18260267439169004674
21033648 29 17459196346577171131
23419403 2 18059028184775295676
23559900 14 17845080780047232455
3052486 1 17838877580141028697
3286 77 18130784538676798963
35225 105 17481713365403710740
3797600 57 16882699061430029563
5845 1 14905117464564508854
6086070 43 18129398141041247477
81228 2 17978780543729319572

> <PUBCHEM_SHAPE_MULTIPOLES>
555.72
6.9
3.25
2.41
2.24
4.65
0.19
-1.56
-2.09
-2.53
0.34
0.34
-0.71
0.47

> <PUBCHEM_SHAPE_SELFOVERLAP>
1203.849

> <PUBCHEM_SHAPE_VOLUME>
297.1

> <PUBCHEM_COORDINATE_TYPE>
2
5
10

$$$$

