9561686
  -OEChem-07051213062D

 23 23  0     0  0  0  0  0  0999 V2000
    4.5032   -0.4844    0.0000 O   0  0  0  0  0  0  0  0  0  0  0  0
   10.3948    1.1838    0.0000 O   0  0  0  0  0  0  0  0  0  0  0  0
    2.0000    0.4635    0.0000 O   0  5  0  0  0  0  0  0  0  0  0  0
    2.5352   -1.1838    0.0000 O   0  0  0  0  0  0  0  0  0  0  0  0
    7.9575    0.1545    0.0000 N   0  0  0  0  0  0  0  0  0  0  0  0
    7.0064    0.4635    0.0000 N   0  0  0  0  0  0  0  0  0  0  0  0
    2.7431   -0.2056    0.0000 N   0  3  0  0  0  0  0  0  0  0  0  0
    8.7006    0.8236    0.0000 C   0  0  0  0  0  0  0  0  0  0  0  0
    5.3122    0.1034    0.0000 C   0  0  0  0  0  0  0  0  0  0  0  0
    9.6517    0.5146    0.0000 C   0  0  0  0  0  0  0  0  0  0  0  0
    5.0032    1.0545    0.0000 C   0  0  0  0  0  0  0  0  0  0  0  0
    3.6942    0.1034    0.0000 C   0  0  0  0  0  0  0  0  0  0  0  0
    4.0032    1.0545    0.0000 C   0  0  0  0  0  0  0  0  0  0  0  0
    6.2633   -0.2056    0.0000 C   0  0  0  0  0  0  0  0  0  0  0  0
    8.9917    1.3711    0.0000 H   0  0  0  0  0  0  0  0  0  0  0  0
    8.2121    1.2054    0.0000 H   0  0  0  0  0  0  0  0  0  0  0  0
    9.3606   -0.0328    0.0000 H   0  0  0  0  0  0  0  0  0  0  0  0
   10.1403    0.1329    0.0000 H   0  0  0  0  0  0  0  0  0  0  0  0
    5.3676    1.5561    0.0000 H   0  0  0  0  0  0  0  0  0  0  0  0
    3.6388    1.5561    0.0000 H   0  0  0  0  0  0  0  0  0  0  0  0
    8.0864   -0.4519    0.0000 H   0  0  0  0  0  0  0  0  0  0  0  0
    6.3922   -0.8121    0.0000 H   0  0  0  0  0  0  0  0  0  0  0  0
   10.9845    0.9922    0.0000 H   0  0  0  0  0  0  0  0  0  0  0  0
  1  9  1  0  0  0  0
  1 12  1  0  0  0  0
  2 10  1  0  0  0  0
  2 23  1  0  0  0  0
  3  7  1  0  0  0  0
  4  7  2  0  0  0  0
  5  6  1  0  0  0  0
  5  8  1  0  0  0  0
  5 21  1  0  0  0  0
  6 14  2  0  0  0  0
  7 12  1  0  0  0  0
  8 10  1  0  0  0  0
  8 15  1  0  0  0  0
  8 16  1  0  0  0  0
  9 11  2  0  0  0  0
  9 14  1  0  0  0  0
 10 17  1  0  0  0  0
 10 18  1  0  0  0  0
 11 13  1  0  0  0  0
 11 19  1  0  0  0  0
 12 13  2  0  0  0  0
 13 20  1  0  0  0  0
 14 22  1  0  0  0  0
M  CHG  2   3  -1   7   1
M  END
> <PUBCHEM_COMPOUND_CID>
9561686

> <PUBCHEM_COMPOUND_CANONICALIZED>
1

> <PUBCHEM_CACTVS_COMPLEXITY>
216

> <PUBCHEM_CACTVS_HBOND_ACCEPTOR>
6

> <PUBCHEM_CACTVS_HBOND_DONOR>
2

> <PUBCHEM_CACTVS_ROTATABLE_BOND>
4

> <PUBCHEM_CACTVS_SUBSKEYS>
AAADccBjOAAAAAAAAAAAAAAAAAAAASAAAAAAAAAAAAAAAAABgAAAHgAcCAAACAThkAYwhIByRkCpALFzUwSSCAAsIgA4iIEmbNoONrKEtZuKGSDk2BEI6Ya8AAAAAAAAAAAAAAAAAAAAAAAAAAAAAAAAAA==

> <PUBCHEM_IUPAC_OPENEYE_NAME>
2-[(2E)-2-[(5-nitro-2-furyl)methylene]hydrazino]ethanol

> <PUBCHEM_IUPAC_CAS_NAME>
2-[(2E)-2-[(5-nitro-2-furanyl)methylidene]hydrazinyl]ethanol

> <PUBCHEM_IUPAC_NAME>
2-[(2E)-2-[(5-nitrofuran-2-yl)methylidene]hydrazinyl]ethanol

> <PUBCHEM_IUPAC_SYSTEMATIC_NAME>
2-[(2E)-2-[(5-nitrofuran-2-yl)methylidene]hydrazinyl]ethanol

> <PUBCHEM_IUPAC_TRADITIONAL_NAME>
2-[(N'E)-N'-[(5-nitro-2-furyl)methylene]hydrazino]ethanol

> <PUBCHEM_IUPAC_INCHI>
InChI=1S/C7H9N3O4/c11-4-3-8-9-5-6-1-2-7(14-6)10(12)13/h1-2,5,8,11H,3-4H2/b9-5+

> <PUBCHEM_IUPAC_INCHIKEY>
JILHVDOZTJSMFJ-WEVVVXLNSA-N

> <PUBCHEM_XLOGP3>
0

> <PUBCHEM_EXACT_MASS>
199.059306

> <PUBCHEM_MOLECULAR_FORMULA>
C7H9N3O4

> <PUBCHEM_MOLECULAR_WEIGHT>
199.16406

> <PUBCHEM_OPENEYE_CAN_SMILES>
C1=C(OC(=C1)[N+](=O)[O-])C=NNCCO

> <PUBCHEM_OPENEYE_ISO_SMILES>
C1=C(OC(=C1)[N+](=O)[O-])/C=N/NCCO

> <PUBCHEM_CACTVS_TPSA>
104

> <PUBCHEM_MONOISOTOPIC_WEIGHT>
199.059306

> <PUBCHEM_TOTAL_CHARGE>
0

> <PUBCHEM_HEAVY_ATOM_COUNT>
14

> <PUBCHEM_ATOM_DEF_STEREO_COUNT>
0

> <PUBCHEM_ATOM_UDEF_STEREO_COUNT>
0

> <PUBCHEM_BOND_DEF_STEREO_COUNT>
1

> <PUBCHEM_BOND_UDEF_STEREO_COUNT>
0

> <PUBCHEM_ISOTOPIC_ATOM_COUNT>
0

> <PUBCHEM_COMPONENT_COUNT>
1

> <PUBCHEM_CACTVS_TAUTO_COUNT>
1

> <PUBCHEM_COORDINATE_TYPE>
1
5
255

> <PUBCHEM_BONDANNOTATIONS>
1  12  8
1  9  8
11  13  8
12  13  8
9  11  8

$$$$

