441015
  -OEChem-07051212513D

 20 20  0     1  0  0  0  0  0999 V2000
   -0.0557   -1.0048    0.4134 O   0  0  0  0  0  0  0  0  0  0  0  0
    1.0452    2.3680    0.5159 O   0  0  0  0  0  0  0  0  0  0  0  0
    3.0038    0.2294   -0.7436 O   0  0  0  0  0  0  0  0  0  0  0  0
   -1.6006    0.4204   -1.4392 O   0  0  0  0  0  0  0  0  0  0  0  0
    1.8156   -2.2677   -0.0011 O   0  0  0  0  0  0  0  0  0  0  0  0
   -3.4959   -0.8648   -0.1110 O   0  0  0  0  0  0  0  0  0  0  0  0
   -0.3311    0.3936    0.5812 C   0  0  1  0  0  0  0  0  0  0  0  0
    0.8357    1.1009   -0.0803 C   0  0  2  0  0  0  0  0  0  0  0  0
    1.9754    0.1505    0.2124 C   0  0  1  0  0  0  0  0  0  0  0  0
   -1.6671    0.7308   -0.0580 C   0  0  2  0  0  0  0  0  0  0  0  0
    1.2832   -1.1854    0.1873 C   0  0  0  0  0  0  0  0  0  0  0  0
   -2.8085   -0.0709    0.5231 C   0  0  0  0  0  0  0  0  0  0  0  0
   -0.3789    0.6004    1.6583 H   0  0  0  0  0  0  0  0  0  0  0  0
    0.7155    1.2425   -1.1600 H   0  0  0  0  0  0  0  0  0  0  0  0
    2.4044    0.3149    1.2064 H   0  0  0  0  0  0  0  0  0  0  0  0
   -1.8977    1.7953    0.0541 H   0  0  0  0  0  0  0  0  0  0  0  0
    0.2536    2.9067    0.3469 H   0  0  0  0  0  0  0  0  0  0  0  0
   -3.0095    0.1094    1.5934 H   0  0  0  0  0  0  0  0  0  0  0  0
    2.6094    0.1383   -1.6276 H   0  0  0  0  0  0  0  0  0  0  0  0
   -2.4121    0.7570   -1.8562 H   0  0  0  0  0  0  0  0  0  0  0  0
  1  7  1  0  0  0  0
  1 11  1  0  0  0  0
  2  8  1  0  0  0  0
  2 17  1  0  0  0  0
  3  9  1  0  0  0  0
  3 19  1  0  0  0  0
  4 10  1  0  0  0  0
  4 20  1  0  0  0  0
  5 11  2  0  0  0  0
  6 12  2  0  0  0  0
  7  8  1  0  0  0  0
  7 10  1  0  0  0  0
  7 13  1  0  0  0  0
  8  9  1  0  0  0  0
  8 14  1  0  0  0  0
  9 11  1  0  0  0  0
  9 15  1  0  0  0  0
 10 12  1  0  0  0  0
 10 16  1  0  0  0  0
 12 18  1  0  0  0  0
M  END
> <PUBCHEM_COMPOUND_CID>
441015

> <PUBCHEM_CONFORMER_RMSD>
0.6

> <PUBCHEM_CONFORMER_DIVERSEORDER>
1
10
5
12
3
11
7
9
6
4
2
8

> <PUBCHEM_MMFF94_PARTIAL_CHARGES>
16
1 -0.43
10 0.34
11 0.66
12 0.45
17 0.4
18 0.06
19 0.4
2 -0.68
20 0.4
3 -0.68
4 -0.68
5 -0.57
6 -0.57
7 0.28
8 0.28
9 0.34

> <PUBCHEM_EFFECTIVE_ROTOR_COUNT>
2.8

> <PUBCHEM_PHARMACOPHORE_FEATURES>
9
1 2 acceptor
1 2 donor
1 3 acceptor
1 3 donor
1 4 acceptor
1 4 donor
1 5 acceptor
1 6 acceptor
5 1 7 8 9 11 rings

> <PUBCHEM_HEAVY_ATOM_COUNT>
12

> <PUBCHEM_ATOM_DEF_STEREO_COUNT>
3

> <PUBCHEM_ATOM_UDEF_STEREO_COUNT>
1

> <PUBCHEM_BOND_DEF_STEREO_COUNT>
0

> <PUBCHEM_BOND_UDEF_STEREO_COUNT>
0

> <PUBCHEM_ISOTOPIC_ATOM_COUNT>
0

> <PUBCHEM_COMPONENT_COUNT>
1

> <PUBCHEM_CACTVS_TAUTO_COUNT>
23

> <PUBCHEM_CONFORMER_ID>
0006BAB700000001

> <PUBCHEM_MMFF94_ENERGY>
14.3452

> <PUBCHEM_FEATURE_SELFOVERLAP>
45.682

> <PUBCHEM_SHAPE_FINGERPRINT>
12423570 1 10698579671097064256
12897270 3 18343023263854158893
12932764 1 17530976807750019385
14128692 85 18267297827701169122
16945 1 18409455760377579249
20201158 50 18343300357890615187
21040471 1 17907013976480157472
21293036 1 18340195315784550636
23552423 10 18056192716070200034
2748010 2 18194689382516349356
29004967 10 18337958985984051728
5084963 1 17775570818664588545

> <PUBCHEM_SHAPE_MULTIPOLES>
211.74
4.18
1.77
0.84
2.22
0.02
-0.18
0.94
-0.43
-1.03
0.2
0.18
-0.11
0.07

> <PUBCHEM_SHAPE_SELFOVERLAP>
433.846

> <PUBCHEM_SHAPE_VOLUME>
122.6

> <PUBCHEM_COORDINATE_TYPE>
2
5
10

$$$$

