442401
  -OEChem-07051212582D

 39 41  0     1  0  0  0  0  0999 V2000
    3.8000   -1.6123    0.0000 O   0  0  0  0  0  0  0  0  0  0  0  0
    6.4783   -0.9170    0.0000 O   0  0  0  0  0  0  0  0  0  0  0  0
    3.8000    0.3877    0.0000 C   0  0  1  0  0  0  0  0  0  0  0  0
    3.8000   -0.6123    0.0000 C   0  0  1  0  0  0  0  0  0  0  0  0
    2.9061    0.9224    0.0000 C   0  0  2  0  0  0  0  0  0  0  0  0
    4.6660    0.8877    0.0000 C   0  0  0  0  0  0  0  0  0  0  0  0
    2.9061   -1.1470    0.0000 C   0  0  0  0  0  0  0  0  0  0  0  0
    2.0000    0.4085    0.0000 C   0  0  0  0  0  0  0  0  0  0  0  0
    4.6660   -1.1123    0.0000 C   0  0  0  0  0  0  0  0  0  0  0  0
    2.0000   -0.6331    0.0000 C   0  0  0  0  0  0  0  0  0  0  0  0
    3.8000    1.3877    0.0000 C   0  0  0  0  0  0  0  0  0  0  0  0
    5.5321    0.3877    0.0000 C   0  0  0  0  0  0  0  0  0  0  0  0
    5.5321   -0.6123    0.0000 C   0  0  0  0  0  0  0  0  0  0  0  0
    2.9176    1.9223    0.0000 C   0  0  0  0  0  0  0  0  0  0  0  0
    6.4783    0.6924    0.0000 C   0  0  0  0  0  0  0  0  0  0  0  0
    7.0619   -0.1123    0.0000 C   0  0  0  0  0  0  0  0  0  0  0  0
    6.7889    1.6430    0.0000 C   0  0  0  0  0  0  0  0  0  0  0  0
    2.3721    1.2375    0.0000 H   0  0  0  0  0  0  0  0  0  0  0  0
    5.0646    1.3626    0.0000 H   0  0  0  0  0  0  0  0  0  0  0  0
    4.2675    1.3626    0.0000 H   0  0  0  0  0  0  0  0  0  0  0  0
    2.5124   -1.6260    0.0000 H   0  0  0  0  0  0  0  0  0  0  0  0
    3.3107   -1.6168    0.0000 H   0  0  0  0  0  0  0  0  0  0  0  0
    1.7909    0.9922    0.0000 H   0  0  0  0  0  0  0  0  0  0  0  0
    1.3891    0.3024    0.0000 H   0  0  0  0  0  0  0  0  0  0  0  0
    4.2675   -1.5872    0.0000 H   0  0  0  0  0  0  0  0  0  0  0  0
    5.0646   -1.5872    0.0000 H   0  0  0  0  0  0  0  0  0  0  0  0
    1.3891   -0.5270    0.0000 H   0  0  0  0  0  0  0  0  0  0  0  0
    1.7909   -1.2168    0.0000 H   0  0  0  0  0  0  0  0  0  0  0  0
    4.4200    1.3877    0.0000 H   0  0  0  0  0  0  0  0  0  0  0  0
    3.8000    2.0077    0.0000 H   0  0  0  0  0  0  0  0  0  0  0  0
    3.1800    1.3877    0.0000 H   0  0  0  0  0  0  0  0  0  0  0  0
    3.5376    1.9151    0.0000 H   0  0  0  0  0  0  0  0  0  0  0  0
    2.9248    2.5423    0.0000 H   0  0  0  0  0  0  0  0  0  0  0  0
    2.2977    1.9295    0.0000 H   0  0  0  0  0  0  0  0  0  0  0  0
    3.2631   -1.9223    0.0000 H   0  0  0  0  0  0  0  0  0  0  0  0
    7.6819   -0.1123    0.0000 H   0  0  0  0  0  0  0  0  0  0  0  0
    7.3783    1.4503    0.0000 H   0  0  0  0  0  0  0  0  0  0  0  0
    6.9816    2.2323    0.0000 H   0  0  0  0  0  0  0  0  0  0  0  0
    6.1996    1.8356    0.0000 H   0  0  0  0  0  0  0  0  0  0  0  0
  4  1  1  6  0  0  0
  1 35  1  0  0  0  0
  2 13  1  0  0  0  0
  2 16  1  0  0  0  0
  3  4  1  0  0  0  0
  3  5  1  0  0  0  0
  3  6  1  0  0  0  0
  3 11  1  6  0  0  0
  4  7  1  0  0  0  0
  4  9  1  0  0  0  0
  5  8  1  0  0  0  0
  5 14  1  6  0  0  0
  5 18  1  0  0  0  0
  6 12  1  0  0  0  0
  6 19  1  0  0  0  0
  6 20  1  0  0  0  0
  7 10  1  0  0  0  0
  7 21  1  0  0  0  0
  7 22  1  0  0  0  0
  8 10  1  0  0  0  0
  8 23  1  0  0  0  0
  8 24  1  0  0  0  0
  9 13  1  0  0  0  0
  9 25  1  0  0  0  0
  9 26  1  0  0  0  0
 10 27  1  0  0  0  0
 10 28  1  0  0  0  0
 11 29  1  0  0  0  0
 11 30  1  0  0  0  0
 11 31  1  0  0  0  0
 12 13  2  0  0  0  0
 12 15  1  0  0  0  0
 14 32  1  0  0  0  0
 14 33  1  0  0  0  0
 14 34  1  0  0  0  0
 15 16  2  0  0  0  0
 15 17  1  0  0  0  0
 16 36  1  0  0  0  0
 17 37  1  0  0  0  0
 17 38  1  0  0  0  0
 17 39  1  0  0  0  0
M  END
> <PUBCHEM_COMPOUND_CID>
442401

> <PUBCHEM_COMPOUND_CANONICALIZED>
1

> <PUBCHEM_CACTVS_COMPLEXITY>
316

> <PUBCHEM_CACTVS_HBOND_ACCEPTOR>
2

> <PUBCHEM_CACTVS_HBOND_DONOR>
1

> <PUBCHEM_CACTVS_ROTATABLE_BOND>
0

> <PUBCHEM_CACTVS_SUBSKEYS>
AAADceBwMAAAAAAAAAAAAAAAAAAAASAAAAAwYAAAAAAAAEjBgAAAGgAACAAAD0SgmAIiBIAABkCIAohSgAACCAAkIAAAiAEECMgMJjaENRqCWSCl4BEIqQeI7PzPgAAAAAAAAADAAAYQADAAAAAAAAAAAA==

> <PUBCHEM_IUPAC_OPENEYE_NAME>
(4aR,5S,8aS)-3,4a,5-trimethyl-4,5,6,7,8,9-hexahydrobenzo[f]benzofuran-8a-ol

> <PUBCHEM_IUPAC_CAS_NAME>
(4aR,5S,8aS)-3,4a,5-trimethyl-4,5,6,7,8,9-hexahydrobenzo[f]benzofuran-8a-ol

> <PUBCHEM_IUPAC_NAME>
(4aR,5S,8aS)-3,4a,5-trimethyl-4,5,6,7,8,9-hexahydrobenzo[f][1]benzofuran-8a-ol

> <PUBCHEM_IUPAC_SYSTEMATIC_NAME>
(4aR,5S,8aS)-3,4a,5-trimethyl-4,5,6,7,8,9-hexahydrobenzo[f][1]benzofuran-8a-ol

> <PUBCHEM_IUPAC_TRADITIONAL_NAME>
(4aR,5S,8aS)-3,4a,5-trimethyl-4,5,6,7,8,9-hexahydrobenzo[f]benzofuran-8a-ol

> <PUBCHEM_IUPAC_INCHI>
InChI=1S/C15H22O2/c1-10-9-17-13-8-15(16)6-4-5-11(2)14(15,3)7-12(10)13/h9,11,16H,4-8H2,1-3H3/t11-,14+,15-/m0/s1

> <PUBCHEM_IUPAC_INCHIKEY>
YGPYHQDJFQOKLN-GLQYFDAESA-N

> <PUBCHEM_XLOGP3_AA>
3.4

> <PUBCHEM_EXACT_MASS>
234.16198

> <PUBCHEM_MOLECULAR_FORMULA>
C15H22O2

> <PUBCHEM_MOLECULAR_WEIGHT>
234.33398

> <PUBCHEM_OPENEYE_CAN_SMILES>
CC1CCCC2(C1(CC3=C(C2)OC=C3C)C)O

> <PUBCHEM_OPENEYE_ISO_SMILES>
C[C@H]1CCC[C@]2([C@@]1(CC3=C(C2)OC=C3C)C)O

> <PUBCHEM_CACTVS_TPSA>
33.4

> <PUBCHEM_MONOISOTOPIC_WEIGHT>
234.16198

> <PUBCHEM_TOTAL_CHARGE>
0

> <PUBCHEM_HEAVY_ATOM_COUNT>
17

> <PUBCHEM_ATOM_DEF_STEREO_COUNT>
3

> <PUBCHEM_ATOM_UDEF_STEREO_COUNT>
0

> <PUBCHEM_BOND_DEF_STEREO_COUNT>
0

> <PUBCHEM_BOND_UDEF_STEREO_COUNT>
0

> <PUBCHEM_ISOTOPIC_ATOM_COUNT>
0

> <PUBCHEM_COMPONENT_COUNT>
1

> <PUBCHEM_CACTVS_TAUTO_COUNT>
1

> <PUBCHEM_COORDINATE_TYPE>
1
5
255

> <PUBCHEM_BONDANNOTATIONS>
4  1  6
12  13  8
12  15  8
15  16  8
2  13  8
2  16  8
3  11  6
5  14  6

$$$$

