11388558
  -OEChem-07051213122D

 44 45  0     1  0  0  0  0  0999 V2000
    6.0772    3.1934    0.0000 S   0  0  0  0  0  0  0  0  0  0  0  0
    2.0000   -0.8152    0.0000 F   0  0  0  0  0  0  0  0  0  0  0  0
    2.6420   -2.0753    0.0000 F   0  0  0  0  0  0  0  0  0  0  0  0
    3.2601   -0.1732    0.0000 F   0  0  0  0  0  0  0  0  0  0  0  0
    3.8451    0.6545    0.0000 O   0  0  0  0  0  0  0  0  0  0  0  0
    5.5772    0.6545    0.0000 N   0  0  0  0  0  0  0  0  0  0  0  0
    5.2111   -2.3843    0.0000 N   0  0  0  0  0  0  0  0  0  0  0  0
    4.2111   -2.3843    0.0000 N   0  0  0  0  0  0  0  0  0  0  0  0
    7.3372    1.9333    0.0000 C   0  0  3  0  0  0  0  0  0  0  0  0
    8.0804    2.6024    0.0000 C   0  0  0  0  0  0  0  0  0  0  0  0
    9.0314    2.2934    0.0000 C   0  0  0  0  0  0  0  0  0  0  0  0
    6.3862    2.2423    0.0000 C   0  0  0  0  0  0  0  0  0  0  0  0
    7.5451    0.9551    0.0000 C   0  0  0  0  0  0  0  0  0  0  0  0
    9.7746    2.9625    0.0000 C   0  0  0  0  0  0  0  0  0  0  0  0
    9.2393    1.3152    0.0000 C   0  0  0  0  0  0  0  0  0  0  0  0
    5.5772    1.6545    0.0000 C   0  0  0  0  0  0  0  0  0  0  0  0
    4.7681    2.2423    0.0000 C   0  0  0  0  0  0  0  0  0  0  0  0
    5.0772    3.1934    0.0000 C   0  0  0  0  0  0  0  0  0  0  0  0
    4.7111    0.1545    0.0000 C   0  0  0  0  0  0  0  0  0  0  0  0
    4.7111   -0.8455    0.0000 C   0  0  0  0  0  0  0  0  0  0  0  0
    3.9021   -1.4333    0.0000 C   0  0  0  0  0  0  0  0  0  0  0  0
    5.5202   -1.4333    0.0000 C   0  0  0  0  0  0  0  0  0  0  0  0
    2.9511   -1.1243    0.0000 C   0  0  0  0  0  0  0  0  0  0  0  0
    5.7989   -3.1934    0.0000 C   0  0  0  0  0  0  0  0  0  0  0  0
    6.8765    1.5184    0.0000 H   0  0  0  0  0  0  0  0  0  0  0  0
    8.3714    3.1498    0.0000 H   0  0  0  0  0  0  0  0  0  0  0  0
    7.5918    2.9841    0.0000 H   0  0  0  0  0  0  0  0  0  0  0  0
    9.6211    2.1018    0.0000 H   0  0  0  0  0  0  0  0  0  0  0  0
    6.9387    0.8262    0.0000 H   0  0  0  0  0  0  0  0  0  0  0  0
    7.6740    0.3487    0.0000 H   0  0  0  0  0  0  0  0  0  0  0  0
    8.1516    1.0840    0.0000 H   0  0  0  0  0  0  0  0  0  0  0  0
    8.6329    1.1863    0.0000 H   0  0  0  0  0  0  0  0  0  0  0  0
   10.1894    2.5018    0.0000 H   0  0  0  0  0  0  0  0  0  0  0  0
   10.2353    3.3774    0.0000 H   0  0  0  0  0  0  0  0  0  0  0  0
    9.3597    3.4233    0.0000 H   0  0  0  0  0  0  0  0  0  0  0  0
    9.3682    0.7088    0.0000 H   0  0  0  0  0  0  0  0  0  0  0  0
    9.8458    1.4442    0.0000 H   0  0  0  0  0  0  0  0  0  0  0  0
    4.1785    2.0507    0.0000 H   0  0  0  0  0  0  0  0  0  0  0  0
    6.1141    0.3445    0.0000 H   0  0  0  0  0  0  0  0  0  0  0  0
    4.7127    3.6949    0.0000 H   0  0  0  0  0  0  0  0  0  0  0  0
    6.1098   -1.2417    0.0000 H   0  0  0  0  0  0  0  0  0  0  0  0
    5.2973   -3.5578    0.0000 H   0  0  0  0  0  0  0  0  0  0  0  0
    6.1633   -3.6949    0.0000 H   0  0  0  0  0  0  0  0  0  0  0  0
    6.3005   -2.8289    0.0000 H   0  0  0  0  0  0  0  0  0  0  0  0
  1 12  1  0  0  0  0
  1 18  1  0  0  0  0
  2 23  1  0  0  0  0
  3 23  1  0  0  0  0
  4 23  1  0  0  0  0
  5 19  2  0  0  0  0
  6 16  1  0  0  0  0
  6 19  1  0  0  0  0
  6 39  1  0  0  0  0
  7  8  1  0  0  0  0
  7 22  1  0  0  0  0
  7 24  1  0  0  0  0
  8 21  2  0  0  0  0
  9 10  1  0  0  0  0
  9 12  1  0  0  0  0
  9 13  1  0  0  0  0
  9 25  1  0  0  0  0
 10 11  1  0  0  0  0
 10 26  1  0  0  0  0
 10 27  1  0  0  0  0
 11 14  1  0  0  0  0
 11 15  1  0  0  0  0
 11 28  1  0  0  0  0
 12 16  2  0  0  0  0
 13 29  1  0  0  0  0
 13 30  1  0  0  0  0
 13 31  1  0  0  0  0
 14 33  1  0  0  0  0
 14 34  1  0  0  0  0
 14 35  1  0  0  0  0
 15 32  1  0  0  0  0
 15 36  1  0  0  0  0
 15 37  1  0  0  0  0
 16 17  1  0  0  0  0
 17 18  2  0  0  0  0
 17 38  1  0  0  0  0
 18 40  1  0  0  0  0
 19 20  1  0  0  0  0
 20 21  1  0  0  0  0
 20 22  2  0  0  0  0
 21 23  1  0  0  0  0
 22 41  1  0  0  0  0
 24 42  1  0  0  0  0
 24 43  1  0  0  0  0
 24 44  1  0  0  0  0
M  END
> <PUBCHEM_COMPOUND_CID>
11388558

> <PUBCHEM_COMPOUND_CANONICALIZED>
1

> <PUBCHEM_CACTVS_COMPLEXITY>
447

> <PUBCHEM_CACTVS_HBOND_ACCEPTOR>
6

> <PUBCHEM_CACTVS_HBOND_DONOR>
1

> <PUBCHEM_CACTVS_ROTATABLE_BOND>
5

> <PUBCHEM_CACTVS_SUBSKEYS>
AAADceB7IYBAAAAAAAAAAAAAAAAAAWJAAAAAAAAAAAAAAAAB4AAAHwQYAAAADQjF3hS+wZLIAAiuAzV3VACTBIA1ihBY2D0oZNgIILrg0NCEhYxgnADoyccQgMAOAAAAAAAAAAAAAAAAAAAAAAAAAAAAAA==

> <PUBCHEM_IUPAC_OPENEYE_NAME>
N-[2-(1,3-dimethylbutyl)-3-thienyl]-1-methyl-3-(trifluoromethyl)pyrazole-4-carboxamide

> <PUBCHEM_IUPAC_CAS_NAME>
1-methyl-N-[2-(4-methylpentan-2-yl)-3-thiophenyl]-3-(trifluoromethyl)-4-pyrazolecarboxamide

> <PUBCHEM_IUPAC_NAME>
1-methyl-N-[2-(4-methylpentan-2-yl)thiophen-3-yl]-3-(trifluoromethyl)pyrazole-4-carboxamide

> <PUBCHEM_IUPAC_SYSTEMATIC_NAME>
1-methyl-N-[2-(4-methylpentan-2-yl)thiophen-3-yl]-3-(trifluoromethyl)pyrazole-4-carboxamide

> <PUBCHEM_IUPAC_TRADITIONAL_NAME>
N-[2-(1,3-dimethylbutyl)-3-thienyl]-1-methyl-3-(trifluoromethyl)pyrazole-4-carboxamide

> <PUBCHEM_IUPAC_INCHI>
InChI=1S/C16H20F3N3OS/c1-9(2)7-10(3)13-12(5-6-24-13)20-15(23)11-8-22(4)21-14(11)16(17,18)19/h5-6,8-10H,7H2,1-4H3,(H,20,23)

> <PUBCHEM_IUPAC_INCHIKEY>
PFFIDZXUXFLSSR-UHFFFAOYSA-N

> <PUBCHEM_XLOGP3_AA>
4

> <PUBCHEM_EXACT_MASS>
359.127918

> <PUBCHEM_MOLECULAR_FORMULA>
C16H20F3N3OS

> <PUBCHEM_MOLECULAR_WEIGHT>
359.40971

> <PUBCHEM_OPENEYE_CAN_SMILES>
CC(C)CC(C)C1=C(C=CS1)NC(=O)C2=CN(N=C2C(F)(F)F)C

> <PUBCHEM_OPENEYE_ISO_SMILES>
CC(C)CC(C)C1=C(C=CS1)NC(=O)C2=CN(N=C2C(F)(F)F)C

> <PUBCHEM_CACTVS_TPSA>
75.2

> <PUBCHEM_MONOISOTOPIC_WEIGHT>
359.127918

> <PUBCHEM_TOTAL_CHARGE>
0

> <PUBCHEM_HEAVY_ATOM_COUNT>
24

> <PUBCHEM_ATOM_DEF_STEREO_COUNT>
0

> <PUBCHEM_ATOM_UDEF_STEREO_COUNT>
1

> <PUBCHEM_BOND_DEF_STEREO_COUNT>
0

> <PUBCHEM_BOND_UDEF_STEREO_COUNT>
0

> <PUBCHEM_ISOTOPIC_ATOM_COUNT>
0

> <PUBCHEM_COMPONENT_COUNT>
1

> <PUBCHEM_CACTVS_TAUTO_COUNT>
2

> <PUBCHEM_COORDINATE_TYPE>
1
5
255

> <PUBCHEM_BONDANNOTATIONS>
1  12  8
1  18  8
12  16  8
16  17  8
17  18  8
20  21  8
20  22  8
7  22  8
7  8  8
8  21  8
9  13  3

$$$$

