25245055
  -OEChem-07051213113D

 22 22  0     1  0  0  0  0  0999 V2000
   -1.8688    1.2711   -1.0504 O   0  0  0  0  0  0  0  0  0  0  0  0
   -3.5791   -0.4057    0.1254 O   0  0  0  0  0  0  0  0  0  0  0  0
    0.2988    2.8362   -0.1346 O   0  0  0  0  0  0  0  0  0  0  0  0
    2.3524   -1.9666    0.6996 O   0  0  0  0  0  0  0  0  0  0  0  0
    2.0674    1.7074    0.7755 O   0  0  0  0  0  0  0  0  0  0  0  0
    2.7676   -0.5623   -1.0570 O   0  0  0  0  0  0  0  0  0  0  0  0
   -1.4337    0.7545    0.2106 C   0  0  1  0  0  0  0  0  0  0  0  0
   -2.2350   -0.5144    0.5816 C   0  0  2  0  0  0  0  0  0  0  0  0
    0.0586    0.5192    0.1224 C   0  0  0  0  0  0  0  0  0  0  0  0
    0.5506   -0.7080   -0.1010 C   0  0  0  0  0  0  0  0  0  0  0  0
   -1.6283   -1.7762    0.0353 C   0  0  0  0  0  0  0  0  0  0  0  0
   -0.3264   -1.8460   -0.2802 C   0  0  0  0  0  0  0  0  0  0  0  0
    0.9500    1.7424    0.3049 C   0  0  0  0  0  0  0  0  0  0  0  0
    2.0259   -1.0516   -0.2323 C   0  0  0  0  0  0  0  0  0  0  0  0
   -1.6615    1.5236    0.9581 H   0  0  0  0  0  0  0  0  0  0  0  0
   -2.2658   -0.6096    1.6746 H   0  0  0  0  0  0  0  0  0  0  0  0
   -2.2524   -2.6584   -0.0729 H   0  0  0  0  0  0  0  0  0  0  0  0
    0.0851   -2.7752   -0.6618 H   0  0  0  0  0  0  0  0  0  0  0  0
   -1.7975    0.5578   -1.7077 H   0  0  0  0  0  0  0  0  0  0  0  0
   -4.0662   -1.1860    0.4416 H   0  0  0  0  0  0  0  0  0  0  0  0
    0.8363    3.6508   -0.0360 H   0  0  0  0  0  0  0  0  0  0  0  0
    3.2988   -2.2203    0.6528 H   0  0  0  0  0  0  0  0  0  0  0  0
  1  7  1  0  0  0  0
  1 19  1  0  0  0  0
  2  8  1  0  0  0  0
  2 20  1  0  0  0  0
  3 13  1  0  0  0  0
  3 21  1  0  0  0  0
  4 14  1  0  0  0  0
  4 22  1  0  0  0  0
  5 13  2  0  0  0  0
  6 14  2  0  0  0  0
  7  8  1  0  0  0  0
  7  9  1  0  0  0  0
  7 15  1  0  0  0  0
  8 11  1  0  0  0  0
  8 16  1  0  0  0  0
  9 10  2  0  0  0  0
  9 13  1  0  0  0  0
 10 12  1  0  0  0  0
 10 14  1  0  0  0  0
 11 12  2  0  0  0  0
 11 17  1  0  0  0  0
 12 18  1  0  0  0  0
M  END
> <PUBCHEM_COMPOUND_CID>
25245055

> <PUBCHEM_CONFORMER_RMSD>
0.6

> <PUBCHEM_CONFORMER_DIVERSEORDER>
1
3
7
2
5
4
8
6

> <PUBCHEM_MMFF94_PARTIAL_CHARGES>
20
1 -0.68
10 0.01
11 -0.29
12 -0.15
13 0.71
14 0.71
17 0.15
18 0.15
19 0.4
2 -0.68
20 0.4
21 0.5
22 0.5
3 -0.65
4 -0.65
5 -0.57
6 -0.57
7 0.42
8 0.42
9 -0.12

> <PUBCHEM_EFFECTIVE_ROTOR_COUNT>
2.4

> <PUBCHEM_PHARMACOPHORE_FEATURES>
11
1 1 acceptor
1 1 donor
1 2 acceptor
1 2 donor
1 3 acceptor
1 4 acceptor
1 5 acceptor
1 6 acceptor
3 3 5 13 anion
3 4 6 14 anion
6 7 8 9 10 11 12 rings

> <PUBCHEM_HEAVY_ATOM_COUNT>
14

> <PUBCHEM_ATOM_DEF_STEREO_COUNT>
2

> <PUBCHEM_ATOM_UDEF_STEREO_COUNT>
0

> <PUBCHEM_BOND_DEF_STEREO_COUNT>
0

> <PUBCHEM_BOND_UDEF_STEREO_COUNT>
0

> <PUBCHEM_ISOTOPIC_ATOM_COUNT>
0

> <PUBCHEM_COMPONENT_COUNT>
1

> <PUBCHEM_CACTVS_TAUTO_COUNT>
1

> <PUBCHEM_CONFORMER_ID>
0181357F00000001

> <PUBCHEM_MMFF94_ENERGY>
38.3152

> <PUBCHEM_FEATURE_SELFOVERLAP>
55.947

> <PUBCHEM_SHAPE_FINGERPRINT>
11206711 2 18340486772207163727
12524768 44 18261108565000147142
12696612 119 18266464200402949160
13380535 21 18121202195871620171
13380535 76 18048605819582202235
15490181 8 17546160801410382338
161256 15 18339640044842160349
16945 1 18268149755981092403
193761 8 18048876299500839183
21130352 189 18410296925496118347
21501502 16 18191309281999053119
22344851 341 18192149291776671194
2334 1 18410013242985637633
23552423 10 18195243308828150631
23559900 14 18119815965977761006
241688 4 18410853308360265297
2748010 2 18410300232631726125
5084963 1 17917987321526314039
5255222 1 18338519612418382877
528862 383 18336267825499921771
53812653 166 18336544915568204816
66348 1 18337389443271616168
7364860 26 18042962082252345968
81228 2 17830450948811056760

> <PUBCHEM_SHAPE_MULTIPOLES>
252.9
3.77
2.55
0.82
1.02
0.86
0.06
-0.9
-0.03
-0.91
-0.06
-0.13
0.03
0.31

> <PUBCHEM_SHAPE_SELFOVERLAP>
529.733

> <PUBCHEM_SHAPE_VOLUME>
140.4

> <PUBCHEM_COORDINATE_TYPE>
2
5
10

$$$$

