443032
  -OEChem-07051213003D

 22 22  0     0  0  0  0  0  0999 V2000
   -1.3469   -2.1201    0.7815 S   0  0  0  0  0  0  0  0  0  0  0  0
   -0.4573    2.2929    0.6934 S   0  0  0  0  0  0  0  0  0  0  0  0
   -2.3821   -1.3557   -0.8170 S   0  0  0  0  0  0  0  0  0  0  0  0
   -1.6362    1.8257   -0.9230 S   0  0  0  0  0  0  0  0  0  0  0  0
   -3.0581    0.5077   -0.2592 S   0  0  0  0  0  0  0  0  0  0  0  0
    2.2063   -0.1253    0.0057 N   0  0  0  0  0  0  0  0  0  0  0  0
    0.7495   -0.2529    0.1475 C   0  0  0  0  0  0  0  0  0  0  0  0
    0.4170   -1.7234    0.4496 C   0  0  0  0  0  0  0  0  0  0  0  0
    0.2683    0.7067    1.2491 C   0  0  0  0  0  0  0  0  0  0  0  0
    2.5573    1.2595   -0.2819 C   0  0  0  0  0  0  0  0  0  0  0  0
    2.6822   -1.0151   -1.0456 C   0  0  0  0  0  0  0  0  0  0  0  0
    0.2969   -0.0192   -0.8195 H   0  0  0  0  0  0  0  0  0  0  0  0
    0.6793   -2.3849   -0.3809 H   0  0  0  0  0  0  0  0  0  0  0  0
    0.9778   -2.0657    1.3277 H   0  0  0  0  0  0  0  0  0  0  0  0
   -0.5132    0.2501    1.8628 H   0  0  0  0  0  0  0  0  0  0  0  0
    1.0584    0.9286    1.9774 H   0  0  0  0  0  0  0  0  0  0  0  0
    2.4339    1.9207    0.5801 H   0  0  0  0  0  0  0  0  0  0  0  0
    2.0148    1.6654   -1.1437 H   0  0  0  0  0  0  0  0  0  0  0  0
    3.6267    1.3329   -0.5181 H   0  0  0  0  0  0  0  0  0  0  0  0
    2.6919   -2.0627   -0.7291 H   0  0  0  0  0  0  0  0  0  0  0  0
    3.7314   -0.7982   -1.2830 H   0  0  0  0  0  0  0  0  0  0  0  0
    2.1142   -0.9186   -1.9784 H   0  0  0  0  0  0  0  0  0  0  0  0
  1  3  1  0  0  0  0
  1  8  1  0  0  0  0
  2  4  1  0  0  0  0
  2  9  1  0  0  0  0
  3  5  1  0  0  0  0
  4  5  1  0  0  0  0
  6  7  1  0  0  0  0
  6 10  1  0  0  0  0
  6 11  1  0  0  0  0
  7  8  1  0  0  0  0
  7  9  1  0  0  0  0
  7 12  1  0  0  0  0
  8 13  1  0  0  0  0
  8 14  1  0  0  0  0
  9 15  1  0  0  0  0
  9 16  1  0  0  0  0
 10 17  1  0  0  0  0
 10 18  1  0  0  0  0
 10 19  1  0  0  0  0
 11 20  1  0  0  0  0
 11 21  1  0  0  0  0
 11 22  1  0  0  0  0
M  END
> <PUBCHEM_COMPOUND_CID>
443032

> <PUBCHEM_CONFORMER_RMSD>
0.6

> <PUBCHEM_CONFORMER_DIVERSEORDER>
2
9
7
10
12
5
1
3
4
13
8
6
11

> <PUBCHEM_MMFF94_PARTIAL_CHARGES>
8
1 -0.23
10 0.27
11 0.27
2 -0.23
6 -0.81
7 0.27
8 0.23
9 0.23

> <PUBCHEM_EFFECTIVE_ROTOR_COUNT>
2.6

> <PUBCHEM_PHARMACOPHORE_FEATURES>
1
1 6 cation

> <PUBCHEM_HEAVY_ATOM_COUNT>
11

> <PUBCHEM_ATOM_DEF_STEREO_COUNT>
0

> <PUBCHEM_ATOM_UDEF_STEREO_COUNT>
0

> <PUBCHEM_BOND_DEF_STEREO_COUNT>
0

> <PUBCHEM_BOND_UDEF_STEREO_COUNT>
0

> <PUBCHEM_ISOTOPIC_ATOM_COUNT>
0

> <PUBCHEM_COMPONENT_COUNT>
1

> <PUBCHEM_CACTVS_TAUTO_COUNT>
1

> <PUBCHEM_CONFORMER_ID>
0006C29800000002

> <PUBCHEM_MMFF94_ENERGY>
-1.5199

> <PUBCHEM_FEATURE_SELFOVERLAP>
5.074

> <PUBCHEM_SHAPE_FINGERPRINT>
12423570 1 15960620916147844272
12897270 3 18270965777027246973
14251711 518 18194137419511491927
14251745 187 18192723249757535185
14817 1 15082760473270899001
15775835 57 17984413311448620301
16945 1 18340487888513577395
20201158 50 18261395511691151534
20653085 51 17489010596507030550
22802520 49 18409720747006807471
23402539 116 18339093626624166828
23526114 1 16896795766622646750
23552423 10 17692258851586223809
241688 4 18267033769180515993
2748010 2 18266176123845291683
2897 32 18051983811571281871
353137 74 18339643455067454825
528862 383 16967158502436833217
549884 4 18261969491553092535
66348 1 17112990015315174779

> <PUBCHEM_SHAPE_MULTIPOLES>
240.64
4.17
2.72
1.17
0.53
0.23
0.03
-0.2
-1.55
-0.91
0.31
-0.04
0.02
0.38

> <PUBCHEM_SHAPE_SELFOVERLAP>
397.973

> <PUBCHEM_SHAPE_VOLUME>
168.8

> <PUBCHEM_COORDINATE_TYPE>
2
5
10

$$$$

