6857440
  -OEChem-07051213152D

 82 86  0     1  0  0  0  0  0999 V2000
    6.5251   -0.4661    0.0000 C   0  0  1  0  0  0  0  0  0  0  0  0
    6.5251   -1.4661    0.0000 C   0  0  2  0  0  0  0  0  0  0  0  0
    7.4714   -0.1614    0.0000 C   0  0  1  0  0  0  0  0  0  0  0  0
    5.6591   -1.9661    0.0000 C   0  0  1  0  0  0  0  0  0  0  0  0
    8.7605    0.9954    0.0000 C   0  0  1  0  0  0  0  0  0  0  0  0
    4.7931   -1.4661    0.0000 C   0  0  1  0  0  0  0  0  0  0  0  0
    9.5048    1.6632    0.0000 C   0  0  2  0  0  0  0  0  0  0  0  0
    7.7820    0.7892    0.0000 C   0  0  1  0  0  0  0  0  0  0  0  0
    3.8831   -1.9729    0.0000 C   0  0  2  0  0  0  0  0  0  0  0  0
    9.7110    0.6847    0.0000 C   0  0  0  0  0  0  0  0  0  0  0  0
    5.6591    0.0339    0.0000 C   0  0  0  0  0  0  0  0  0  0  0  0
    7.4714   -1.7708    0.0000 C   0  0  0  0  0  0  0  0  0  0  0  0
    8.0550   -0.9661    0.0000 C   0  0  0  0  0  0  0  0  0  0  0  0
    4.7931   -0.4661    0.0000 C   0  0  0  0  0  0  0  0  0  0  0  0
    3.8751   -3.0145    0.0000 C   0  0  3  0  0  0  0  0  0  0  0  0
    5.6752   -3.0076    0.0000 C   0  0  0  0  0  0  0  0  0  0  0  0
   10.4833    1.8694    0.0000 C   0  0  1  0  0  0  0  0  0  0  0  0
    6.5251    0.5339    0.0000 C   0  0  0  0  0  0  0  0  0  0  0  0
    4.7771   -3.5354    0.0000 C   0  0  0  0  0  0  0  0  0  0  0  0
    2.9562   -1.4089    0.0000 C   0  0  0  0  0  0  0  0  0  0  0  0
    8.8370    2.4075    0.0000 C   0  0  0  0  0  0  0  0  0  0  0  0
    7.1142    1.5335    0.0000 C   0  0  0  0  0  0  0  0  0  0  0  0
    2.9396   -3.5643    0.0000 C   0  0  0  0  0  0  0  0  0  0  0  0
    3.8908   -0.9730    0.0000 C   0  0  0  0  0  0  0  0  0  0  0  0
    2.0084   -1.9368    0.0000 C   0  0  0  0  0  0  0  0  0  0  0  0
   10.7940    2.8200    0.0000 C   0  0  0  0  0  0  0  0  0  0  0  0
    2.0000   -3.0218    0.0000 C   0  0  0  0  0  0  0  0  0  0  0  0
   11.1512    1.1251    0.0000 C   0  0  0  0  0  0  0  0  0  0  0  0
   11.7725    3.0262    0.0000 C   0  0  0  0  0  0  0  0  0  0  0  0
   10.1262    3.5643    0.0000 C   0  0  0  0  0  0  0  0  0  0  0  0
    6.6151   -2.3113    0.0000 H   0  0  0  0  0  0  0  0  0  0  0  0
    8.3111   -0.0295    0.0000 H   0  0  0  0  0  0  0  0  0  0  0  0
    6.3985   -2.3854    0.0000 H   0  0  0  0  0  0  0  0  0  0  0  0
    8.7146    0.1466    0.0000 H   0  0  0  0  0  0  0  0  0  0  0  0
    5.5292   -1.0411    0.0000 H   0  0  0  0  0  0  0  0  0  0  0  0
    7.9746    1.3785    0.0000 H   0  0  0  0  0  0  0  0  0  0  0  0
    9.6237    0.0709    0.0000 H   0  0  0  0  0  0  0  0  0  0  0  0
   10.3307    0.7053    0.0000 H   0  0  0  0  0  0  0  0  0  0  0  0
    6.0576    0.5089    0.0000 H   0  0  0  0  0  0  0  0  0  0  0  0
    5.2606    0.5089    0.0000 H   0  0  0  0  0  0  0  0  0  0  0  0
    7.2203   -2.3377    0.0000 H   0  0  0  0  0  0  0  0  0  0  0  0
    8.0087   -2.0800    0.0000 H   0  0  0  0  0  0  0  0  0  0  0  0
    8.5158   -1.3808    0.0000 H   0  0  0  0  0  0  0  0  0  0  0  0
    8.5158   -0.5514    0.0000 H   0  0  0  0  0  0  0  0  0  0  0  0
    4.5810    0.1165    0.0000 H   0  0  0  0  0  0  0  0  0  0  0  0
    4.1825   -0.5738    0.0000 H   0  0  0  0  0  0  0  0  0  0  0  0
    3.8783   -3.8645    0.0000 H   0  0  0  0  0  0  0  0  0  0  0  0
    5.8932   -3.5880    0.0000 H   0  0  0  0  0  0  0  0  0  0  0  0
    6.2843   -2.8921    0.0000 H   0  0  0  0  0  0  0  0  0  0  0  0
   10.2907    1.2801    0.0000 H   0  0  0  0  0  0  0  0  0  0  0  0
    7.1451    0.5339    0.0000 H   0  0  0  0  0  0  0  0  0  0  0  0
    6.5251    1.1539    0.0000 H   0  0  0  0  0  0  0  0  0  0  0  0
    5.9051    0.5339    0.0000 H   0  0  0  0  0  0  0  0  0  0  0  0
    4.3798   -4.0113    0.0000 H   0  0  0  0  0  0  0  0  0  0  0  0
    5.1781   -4.0082    0.0000 H   0  0  0  0  0  0  0  0  0  0  0  0
    3.3645   -0.9422    0.0000 H   0  0  0  0  0  0  0  0  0  0  0  0
    2.5663   -0.9268    0.0000 H   0  0  0  0  0  0  0  0  0  0  0  0
    9.2985    2.8216    0.0000 H   0  0  0  0  0  0  0  0  0  0  0  0
    8.4229    2.8690    0.0000 H   0  0  0  0  0  0  0  0  0  0  0  0
    8.3755    1.9935    0.0000 H   0  0  0  0  0  0  0  0  0  0  0  0
    7.5756    1.9475    0.0000 H   0  0  0  0  0  0  0  0  0  0  0  0
    6.7001    1.9949    0.0000 H   0  0  0  0  0  0  0  0  0  0  0  0
    6.6527    1.1194    0.0000 H   0  0  0  0  0  0  0  0  0  0  0  0
    2.5423   -4.0402    0.0000 H   0  0  0  0  0  0  0  0  0  0  0  0
    3.3406   -4.0372    0.0000 H   0  0  0  0  0  0  0  0  0  0  0  0
    4.5108   -0.9777    0.0000 H   0  0  0  0  0  0  0  0  0  0  0  0
    3.8956   -0.3530    0.0000 H   0  0  0  0  0  0  0  0  0  0  0  0
    3.2708   -0.9682    0.0000 H   0  0  0  0  0  0  0  0  0  0  0  0
    1.8038   -1.3515    0.0000 H   0  0  0  0  0  0  0  0  0  0  0  0
    1.3967   -2.0382    0.0000 H   0  0  0  0  0  0  0  0  0  0  0  0
   10.9866    3.4093    0.0000 H   0  0  0  0  0  0  0  0  0  0  0  0
    1.3900   -2.9110    0.0000 H   0  0  0  0  0  0  0  0  0  0  0  0
    1.7864   -3.6038    0.0000 H   0  0  0  0  0  0  0  0  0  0  0  0
   10.6897    0.7111    0.0000 H   0  0  0  0  0  0  0  0  0  0  0  0
   11.5652    0.6637    0.0000 H   0  0  0  0  0  0  0  0  0  0  0  0
   11.6126    1.5392    0.0000 H   0  0  0  0  0  0  0  0  0  0  0  0
   11.9004    2.4195    0.0000 H   0  0  0  0  0  0  0  0  0  0  0  0
   12.3792    3.1540    0.0000 H   0  0  0  0  0  0  0  0  0  0  0  0
   11.6446    3.6328    0.0000 H   0  0  0  0  0  0  0  0  0  0  0  0
   10.5876    3.9783    0.0000 H   0  0  0  0  0  0  0  0  0  0  0  0
    9.7121    4.0257    0.0000 H   0  0  0  0  0  0  0  0  0  0  0  0
    9.6647    3.1502    0.0000 H   0  0  0  0  0  0  0  0  0  0  0  0
  1  2  1  0  0  0  0
  1  3  1  0  0  0  0
  1 11  1  0  0  0  0
  1 18  1  1  0  0  0
  2  4  1  0  0  0  0
  2 12  1  0  0  0  0
  2 31  1  6  0  0  0
  3  8  1  0  0  0  0
  3 13  1  0  0  0  0
  3 32  1  6  0  0  0
  4  6  1  0  0  0  0
  4 16  1  0  0  0  0
  4 33  1  1  0  0  0
  5  7  1  0  0  0  0
  5  8  1  0  0  0  0
  5 10  1  0  0  0  0
  5 34  1  1  0  0  0
  6  9  1  0  0  0  0
  6 14  1  0  0  0  0
  6 35  1  6  0  0  0
  7 10  1  0  0  0  0
  7 17  1  0  0  0  0
  7 21  1  6  0  0  0
  8 22  1  6  0  0  0
  8 36  1  0  0  0  0
  9 15  1  0  0  0  0
  9 20  1  0  0  0  0
  9 24  1  1  0  0  0
 10 37  1  0  0  0  0
 10 38  1  0  0  0  0
 11 14  1  0  0  0  0
 11 39  1  0  0  0  0
 11 40  1  0  0  0  0
 12 13  1  0  0  0  0
 12 41  1  0  0  0  0
 12 42  1  0  0  0  0
 13 43  1  0  0  0  0
 13 44  1  0  0  0  0
 14 45  1  0  0  0  0
 14 46  1  0  0  0  0
 15 19  1  0  0  0  0
 15 23  1  0  0  0  0
 15 47  1  0  0  0  0
 16 19  1  0  0  0  0
 16 48  1  0  0  0  0
 16 49  1  0  0  0  0
 17 26  1  0  0  0  0
 17 28  1  1  0  0  0
 17 50  1  0  0  0  0
 18 51  1  0  0  0  0
 18 52  1  0  0  0  0
 18 53  1  0  0  0  0
 19 54  1  0  0  0  0
 19 55  1  0  0  0  0
 20 25  1  0  0  0  0
 20 56  1  0  0  0  0
 20 57  1  0  0  0  0
 21 58  1  0  0  0  0
 21 59  1  0  0  0  0
 21 60  1  0  0  0  0
 22 61  1  0  0  0  0
 22 62  1  0  0  0  0
 22 63  1  0  0  0  0
 23 27  1  0  0  0  0
 23 64  1  0  0  0  0
 23 65  1  0  0  0  0
 24 66  1  0  0  0  0
 24 67  1  0  0  0  0
 24 68  1  0  0  0  0
 25 27  1  0  0  0  0
 25 69  1  0  0  0  0
 25 70  1  0  0  0  0
 26 29  1  0  0  0  0
 26 30  1  0  0  0  0
 26 71  1  0  0  0  0
 27 72  1  0  0  0  0
 27 73  1  0  0  0  0
 28 74  1  0  0  0  0
 28 75  1  0  0  0  0
 28 76  1  0  0  0  0
 29 77  1  0  0  0  0
 29 78  1  0  0  0  0
 29 79  1  0  0  0  0
 30 80  1  0  0  0  0
 30 81  1  0  0  0  0
 30 82  1  0  0  0  0
M  END
> <PUBCHEM_COMPOUND_CID>
6857440

> <PUBCHEM_COMPOUND_CANONICALIZED>
1

> <PUBCHEM_CACTVS_COMPLEXITY>
648

> <PUBCHEM_CACTVS_HBOND_ACCEPTOR>
0

> <PUBCHEM_CACTVS_HBOND_DONOR>
0

> <PUBCHEM_CACTVS_ROTATABLE_BOND>
4

> <PUBCHEM_CACTVS_SUBSKEYS>
AAADcfB4AAAAAAAAAAAAAAAAGAAAAYAAAAAwYMAAAAAAAGDAAAAAGAAAAAAADwCAAAACAAAAAAAAAAAAAAAAAAAAAAAAAAAAAAAAAAIAAAAAAAAAAAAAAAEAgMAPgAAAAAAAAACAAAQAACAAAQAACAAAAA==

> <PUBCHEM_IUPAC_OPENEYE_NAME>
(8R,9S,10S,13R,14S,17R)-17-[(1S)-1-[(1R,2R)-2-[(1R)-1,2-dimethylpropyl]-2-methyl-cyclopropyl]ethyl]-10,13-dimethyl-2,3,4,5,6,7,8,9,11,12,14,15,16,17-tetradecahydro-1H-cyclopenta[a]phenanthrene

> <PUBCHEM_IUPAC_CAS_NAME>
(8R,9S,10S,13R,14S,17R)-10,13-dimethyl-17-[(1S)-1-[(1R,2R)-2-methyl-2-[(2R)-3-methylbutan-2-yl]cyclopropyl]ethyl]-2,3,4,5,6,7,8,9,11,12,14,15,16,17-tetradecahydro-1H-cyclopenta[a]phenanthrene

> <PUBCHEM_IUPAC_NAME>
(8R,9S,10S,13R,14S,17R)-10,13-dimethyl-17-[(1S)-1-[(1R,2R)-2-methyl-2-[(2R)-3-methylbutan-2-yl]cyclopropyl]ethyl]-2,3,4,5,6,7,8,9,11,12,14,15,16,17-tetradecahydro-1H-cyclopenta[a]phenanthrene

> <PUBCHEM_IUPAC_SYSTEMATIC_NAME>
(8R,9S,10S,13R,14S,17R)-10,13-dimethyl-17-[(1S)-1-[(1R,2R)-2-methyl-2-[(2R)-3-methylbutan-2-yl]cyclopropyl]ethyl]-2,3,4,5,6,7,8,9,11,12,14,15,16,17-tetradecahydro-1H-cyclopenta[a]phenanthrene

> <PUBCHEM_IUPAC_TRADITIONAL_NAME>
(8R,9S,10S,13R,14S,17R)-17-[(1S)-1-[(1R,2R)-2-[(1R)-1,2-dimethylpropyl]-2-methyl-cyclopropyl]ethyl]-10,13-dimethyl-2,3,4,5,6,7,8,9,11,12,14,15,16,17-tetradecahydro-1H-cyclopenta[a]phenanthrene

> <PUBCHEM_IUPAC_INCHI>
InChI=1S/C30H52/c1-19(2)21(4)30(7)18-27(30)20(3)24-13-14-25-23-12-11-22-10-8-9-16-28(22,5)26(23)15-17-29(24,25)6/h19-27H,8-18H2,1-7H3/t20-,21+,22?,23-,24+,25-,26-,27+,28-,29+,30+/m0/s1

> <PUBCHEM_IUPAC_INCHIKEY>
HMDSENZCYXUARJ-YTJYYLLXSA-N

> <PUBCHEM_XLOGP3_AA>
11.5

> <PUBCHEM_EXACT_MASS>
412.406902

> <PUBCHEM_MOLECULAR_FORMULA>
C30H52

> <PUBCHEM_MOLECULAR_WEIGHT>
412.73388

> <PUBCHEM_OPENEYE_CAN_SMILES>
CC(C)C(C)C1(CC1C(C)C2CCC3C2(CCC4C3CCC5C4(CCCC5)C)C)C

> <PUBCHEM_OPENEYE_ISO_SMILES>
C[C@@H]([C@H]1CC[C@@H]2[C@@]1(CC[C@H]3[C@H]2CCC4[C@@]3(CCCC4)C)C)[C@H]5C[C@]5(C)[C@H](C)C(C)C

> <PUBCHEM_CACTVS_TPSA>
0

> <PUBCHEM_MONOISOTOPIC_WEIGHT>
412.406902

> <PUBCHEM_TOTAL_CHARGE>
0

> <PUBCHEM_HEAVY_ATOM_COUNT>
30

> <PUBCHEM_ATOM_DEF_STEREO_COUNT>
10

> <PUBCHEM_ATOM_UDEF_STEREO_COUNT>
1

> <PUBCHEM_BOND_DEF_STEREO_COUNT>
0

> <PUBCHEM_BOND_UDEF_STEREO_COUNT>
0

> <PUBCHEM_ISOTOPIC_ATOM_COUNT>
0

> <PUBCHEM_COMPONENT_COUNT>
1

> <PUBCHEM_CACTVS_TAUTO_COUNT>
1

> <PUBCHEM_COORDINATE_TYPE>
1
5
255

> <PUBCHEM_BONDANNOTATIONS>
1  18  5
15  47  3
17  28  5
2  31  6
3  32  6
4  33  5
5  34  5
6  35  6
7  21  6
8  22  6
9  24  5

$$$$

