24892774
  -OEChem-07051213023D

 58 60  0     1  0  0  0  0  0999 V2000
   -2.3526   -3.1514    0.5083 P   0  0  2  0  0  0  0  0  0  0  0  0
   -3.8588   -0.7433    1.2763 P   0  0  1  0  0  0  0  0  0  0  0  0
    1.7394   -1.0927   -1.4569 O   0  0  0  0  0  0  0  0  0  0  0  0
    2.6530   -3.9553   -2.0421 O   0  0  0  0  0  0  0  0  0  0  0  0
   -1.0619   -3.1520   -0.4671 O   0  0  0  0  0  0  0  0  0  0  0  0
   -2.4541    0.9345   -1.2520 O   0  0  0  0  0  0  0  0  0  0  0  0
   -3.9843    0.6669    0.5002 O   0  0  0  0  0  0  0  0  0  0  0  0
   -2.9668   -1.6710    0.2979 O   0  0  0  0  0  0  0  0  0  0  0  0
   -2.2343    4.9943   -0.5801 O   0  0  0  0  0  0  0  0  0  0  0  0
    5.5828   -0.0922   -0.3191 O   0  0  0  0  0  0  0  0  0  0  0  0
   -1.7173   -3.0737    1.9940 O   0  0  0  0  0  0  0  0  0  0  0  0
   -1.0792    3.7535   -2.6607 O   0  0  0  0  0  0  0  0  0  0  0  0
   -3.3307   -4.2694    0.2948 O   0  0  0  0  0  0  0  0  0  0  0  0
    3.7744    3.0367    2.5250 O   0  0  0  0  0  0  0  0  0  0  0  0
   -2.8597   -0.4403    2.5122 O   0  0  0  0  0  0  0  0  0  0  0  0
   -5.1709   -1.3537    1.6759 O   0  0  0  0  0  0  0  0  0  0  0  0
    3.2734   -0.1256    0.0219 N   0  0  0  0  0  0  0  0  0  0  0  0
    4.6677    1.4622    1.0977 N   0  0  0  0  0  0  0  0  0  0  0  0
    2.0272   -3.3786   -0.8978 C   0  0  2  0  0  0  0  0  0  0  0  0
    1.0131   -2.3309   -1.3350 C   0  0  1  0  0  0  0  0  0  0  0  0
    3.0385   -2.5713   -0.1171 C   0  0  0  0  0  0  0  0  0  0  0  0
    3.0304   -1.2387   -0.8482 C   0  0  1  0  0  0  0  0  0  0  0  0
   -0.1002   -2.1224   -0.3167 C   0  0  0  0  0  0  0  0  0  0  0  0
    2.1917    0.4567    0.6704 C   0  0  0  0  0  0  0  0  0  0  0  0
    4.5781    0.3739    0.2226 C   0  0  0  0  0  0  0  0  0  0  0  0
   -3.0997    2.8420    0.0761 C   0  0  0  0  0  0  0  0  0  0  0  0
   -2.8080    1.3443    0.0698 C   0  0  2  0  0  0  0  0  0  0  0  0
   -1.8901    3.6363   -0.3958 C   0  0  1  0  0  0  0  0  0  0  0  0
   -1.2460    1.5304   -1.7129 C   0  0  2  0  0  0  0  0  0  0  0  0
    2.2810    1.4980    1.5071 C   0  0  0  0  0  0  0  0  0  0  0  0
   -1.3974    3.0485   -1.7054 C   0  0  0  0  0  0  0  0  0  0  0  0
    3.6239    2.0807    1.7689 C   0  0  0  0  0  0  0  0  0  0  0  0
   -0.9656    0.9938   -3.1075 C   0  0  0  0  0  0  0  0  0  0  0  0
    1.1031    2.1097    2.1952 C   0  0  0  0  0  0  0  0  0  0  0  0
    1.5954   -4.1955   -0.3120 H   0  0  0  0  0  0  0  0  0  0  0  0
    0.5871   -2.5668   -2.3167 H   0  0  0  0  0  0  0  0  0  0  0  0
    2.7018   -2.4555    0.9201 H   0  0  0  0  0  0  0  0  0  0  0  0
    4.0398   -3.0129   -0.0993 H   0  0  0  0  0  0  0  0  0  0  0  0
    3.7723   -1.2466   -1.6557 H   0  0  0  0  0  0  0  0  0  0  0  0
   -0.5864   -1.1579   -0.4857 H   0  0  0  0  0  0  0  0  0  0  0  0
    0.2954   -2.1229    0.7026 H   0  0  0  0  0  0  0  0  0  0  0  0
    1.9657   -4.4286   -2.5413 H   0  0  0  0  0  0  0  0  0  0  0  0
    1.2158    0.0295    0.4934 H   0  0  0  0  0  0  0  0  0  0  0  0
   -3.4119    3.1744    1.0736 H   0  0  0  0  0  0  0  0  0  0  0  0
   -3.9556    3.0531   -0.5801 H   0  0  0  0  0  0  0  0  0  0  0  0
   -1.9825    1.1146    0.7528 H   0  0  0  0  0  0  0  0  0  0  0  0
   -1.0789    3.5760    0.3375 H   0  0  0  0  0  0  0  0  0  0  0  0
   -0.4189    1.2615   -1.0469 H   0  0  0  0  0  0  0  0  0  0  0  0
    5.5979    1.8390    1.2572 H   0  0  0  0  0  0  0  0  0  0  0  0
   -0.8997   -0.0994   -3.0916 H   0  0  0  0  0  0  0  0  0  0  0  0
   -0.0298    1.3946   -3.5092 H   0  0  0  0  0  0  0  0  0  0  0  0
   -1.7756    1.2531   -3.7986 H   0  0  0  0  0  0  0  0  0  0  0  0
    1.2231    2.0529    3.2820 H   0  0  0  0  0  0  0  0  0  0  0  0
    0.1687    1.6005    1.9382 H   0  0  0  0  0  0  0  0  0  0  0  0
    0.9986    3.1617    1.9113 H   0  0  0  0  0  0  0  0  0  0  0  0
   -1.4192    5.4761   -0.8019 H   0  0  0  0  0  0  0  0  0  0  0  0
   -1.1523   -2.3126    2.2440 H   0  0  0  0  0  0  0  0  0  0  0  0
   -2.7659   -1.1112    3.2215 H   0  0  0  0  0  0  0  0  0  0  0  0
  1  5  1  0  0  0  0
  1  8  1  0  0  0  0
  1 11  1  0  0  0  0
  1 13  2  0  0  0  0
  2  7  1  0  0  0  0
  2  8  1  0  0  0  0
  2 15  1  0  0  0  0
  2 16  2  0  0  0  0
  3 20  1  0  0  0  0
  3 22  1  0  0  0  0
  4 19  1  0  0  0  0
  4 42  1  0  0  0  0
  5 23  1  0  0  0  0
  6 27  1  0  0  0  0
  6 29  1  0  0  0  0
  7 27  1  0  0  0  0
  9 28  1  0  0  0  0
  9 56  1  0  0  0  0
 10 25  2  0  0  0  0
 11 57  1  0  0  0  0
 12 31  2  0  0  0  0
 14 32  2  0  0  0  0
 15 58  1  0  0  0  0
 17 22  1  0  0  0  0
 17 24  1  0  0  0  0
 17 25  1  0  0  0  0
 18 25  1  0  0  0  0
 18 32  1  0  0  0  0
 18 49  1  0  0  0  0
 19 20  1  0  0  0  0
 19 21  1  0  0  0  0
 19 35  1  0  0  0  0
 20 23  1  0  0  0  0
 20 36  1  0  0  0  0
 21 22  1  0  0  0  0
 21 37  1  0  0  0  0
 21 38  1  0  0  0  0
 22 39  1  0  0  0  0
 23 40  1  0  0  0  0
 23 41  1  0  0  0  0
 24 30  2  0  0  0  0
 24 43  1  0  0  0  0
 26 27  1  0  0  0  0
 26 28  1  0  0  0  0
 26 44  1  0  0  0  0
 26 45  1  0  0  0  0
 27 46  1  0  0  0  0
 28 31  1  0  0  0  0
 28 47  1  0  0  0  0
 29 31  1  0  0  0  0
 29 33  1  0  0  0  0
 29 48  1  0  0  0  0
 30 32  1  0  0  0  0
 30 34  1  0  0  0  0
 33 50  1  0  0  0  0
 33 51  1  0  0  0  0
 33 52  1  0  0  0  0
 34 53  1  0  0  0  0
 34 54  1  0  0  0  0
 34 55  1  0  0  0  0
M  END
> <PUBCHEM_COMPOUND_CID>
24892774

> <PUBCHEM_CONFORMER_RMSD>
1.6

> <PUBCHEM_CONFORMER_DIVERSEORDER>
2
104
47
102
15
67
77
116
44
78
75
43
117
31
87
118
32
20
27
88
39
64
58
13
66
41
90
81
60
25
37
22
70
74
57
71
82
89
72
91
6
100
17
107
34
115
10
29
42
21
84
35
96
61
51
98
111
119
85
105
23
63
33
26
4
83
120
108
56
36
93
68
86
65
12
54
38
109
50
24
110
79
112
55
103
11
62
19
3
73
106
46
14
92
69
16
18
95
53
76
1
7
59
101
97
52
5
45
49
94
99
48
28
30
114
8
9
113
40
80

> <PUBCHEM_MMFF94_PARTIAL_CHARGES>
37
1 1.51
10 -0.57
11 -0.77
12 -0.57
13 -0.7
14 -0.57
15 -0.77
16 -0.7
17 -0.47
18 -0.49
19 0.28
2 1.51
20 0.28
22 0.58
23 0.28
24 -0.04
25 0.69
27 0.56
28 0.34
29 0.34
3 -0.56
30 -0.12
31 0.45
32 0.62
34 0.14
4 -0.68
42 0.4
43 0.15
49 0.37
5 -0.55
56 0.4
57 0.5
58 0.5
6 -0.56
7 -0.55
8 -0.54
9 -0.68

> <PUBCHEM_EFFECTIVE_ROTOR_COUNT>
10

> <PUBCHEM_PHARMACOPHORE_FEATURES>
17
1 10 acceptor
1 11 acceptor
1 12 acceptor
1 13 acceptor
1 14 acceptor
1 15 acceptor
1 16 acceptor
1 18 donor
1 3 acceptor
1 4 acceptor
1 4 donor
1 6 acceptor
1 9 acceptor
1 9 donor
5 3 19 20 21 22 rings
6 17 18 24 25 30 32 rings
6 6 26 27 28 29 31 rings

> <PUBCHEM_HEAVY_ATOM_COUNT>
34

> <PUBCHEM_ATOM_DEF_STEREO_COUNT>
6

> <PUBCHEM_ATOM_UDEF_STEREO_COUNT>
0

> <PUBCHEM_BOND_DEF_STEREO_COUNT>
0

> <PUBCHEM_BOND_UDEF_STEREO_COUNT>
0

> <PUBCHEM_ISOTOPIC_ATOM_COUNT>
0

> <PUBCHEM_COMPONENT_COUNT>
1

> <PUBCHEM_CACTVS_TAUTO_COUNT>
15

> <PUBCHEM_CONFORMER_ID>
017BD56600000002

> <PUBCHEM_MMFF94_ENERGY>
29.3348

> <PUBCHEM_FEATURE_SELFOVERLAP>
86.297

> <PUBCHEM_SHAPE_FINGERPRINT>
10675989 125 16537366047253930592
11595378 159 17846788398862137930
13402501 40 18335134289151867563
140371 6 17979067190037266795
14279260 333 16820793722140169926
14725015 67 18199184182325858779
15351339 4 16467834035403005673
15840311 113 17751892909998834531
20600515 1 17487902203008082529
20764821 26 18190478068657323148
238 59 17900578775351178756
25019877 29 16737758105851881174
3187 122 18126578811889339975
35225 105 17629795411101575391
3524813 1 18335133176713373651
469060 322 17901696798324891053
474144 1 17045985222472616869
4742675 86 17971781898525006028
508706 21 18409172120916842502
7399639 24 18336555919148336664
9981440 41 17684983155527722728

> <PUBCHEM_SHAPE_MULTIPOLES>
615.27
8.78
6.2
2.53
4.18
0.4
0.38
-0.59
-3.51
-2.95
1
-0.37
-1.28
4.98

> <PUBCHEM_SHAPE_SELFOVERLAP>
1253.635

> <PUBCHEM_SHAPE_VOLUME>
358.1

> <PUBCHEM_COORDINATE_TYPE>
2
5
10

$$$$

