47205304
  -OEChem-06241222582D

 34 35  0     0  0  0  0  0  0999 V2000
    3.7320   -2.7047    0.0000 O   0  0  0  0  0  0  0  0  0  0  0  0
    2.8660    1.7953    0.0000 O   0  0  0  0  0  0  0  0  0  0  0  0
    4.5981    1.7953    0.0000 N   0  0  0  0  0  0  0  0  0  0  0  0
    5.5686    4.2898    0.0000 N   0  0  0  0  0  0  0  0  0  0  0  0
    6.5468    4.4977    0.0000 N   0  0  0  0  0  0  0  0  0  0  0  0
    4.5981    2.7953    0.0000 C   0  0  0  0  0  0  0  0  0  0  0  0
    5.4641    3.2953    0.0000 C   0  0  0  0  0  0  0  0  0  0  0  0
    3.7320    0.2953    0.0000 C   0  0  0  0  0  0  0  0  0  0  0  0
    3.7320    1.2953    0.0000 C   0  0  0  0  0  0  0  0  0  0  0  0
    2.8660   -0.2047    0.0000 C   0  0  0  0  0  0  0  0  0  0  0  0
    4.5981   -0.2047    0.0000 C   0  0  0  0  0  0  0  0  0  0  0  0
    3.7320   -1.7047    0.0000 C   0  0  0  0  0  0  0  0  0  0  0  0
    2.8660   -1.2047    0.0000 C   0  0  0  0  0  0  0  0  0  0  0  0
    4.5981   -1.2047    0.0000 C   0  0  0  0  0  0  0  0  0  0  0  0
    6.3776    2.8886    0.0000 C   0  0  0  0  0  0  0  0  0  0  0  0
    7.0468    3.6317    0.0000 C   0  0  0  0  0  0  0  0  0  0  0  0
    2.8660   -3.2047    0.0000 C   0  0  0  0  0  0  0  0  0  0  0  0
    2.8660   -4.2047    0.0000 C   0  0  0  0  0  0  0  0  0  0  0  0
    2.0000   -4.7047    0.0000 C   0  0  0  0  0  0  0  0  0  0  0  0
    4.3860    3.3779    0.0000 H   0  0  0  0  0  0  0  0  0  0  0  0
    3.9875    2.6876    0.0000 H   0  0  0  0  0  0  0  0  0  0  0  0
    5.1350    1.4853    0.0000 H   0  0  0  0  0  0  0  0  0  0  0  0
    2.3291    0.1053    0.0000 H   0  0  0  0  0  0  0  0  0  0  0  0
    5.1350    0.1053    0.0000 H   0  0  0  0  0  0  0  0  0  0  0  0
    2.3291   -1.5147    0.0000 H   0  0  0  0  0  0  0  0  0  0  0  0
    5.1350   -1.5147    0.0000 H   0  0  0  0  0  0  0  0  0  0  0  0
    6.5066    2.2821    0.0000 H   0  0  0  0  0  0  0  0  0  0  0  0
    5.1079    4.7047    0.0000 H   0  0  0  0  0  0  0  0  0  0  0  0
    7.6634    3.5669    0.0000 H   0  0  0  0  0  0  0  0  0  0  0  0
    2.6540   -2.6221    0.0000 H   0  0  0  0  0  0  0  0  0  0  0  0
    2.2554   -3.3124    0.0000 H   0  0  0  0  0  0  0  0  0  0  0  0
    3.4030   -4.5147    0.0000 H   0  0  0  0  0  0  0  0  0  0  0  0
    1.4631   -4.3947    0.0000 H   0  0  0  0  0  0  0  0  0  0  0  0
    2.0000   -5.3247    0.0000 H   0  0  0  0  0  0  0  0  0  0  0  0
  1 12  1  0  0  0  0
  1 17  1  0  0  0  0
  2  9  2  0  0  0  0
  3  6  1  0  0  0  0
  3  9  1  0  0  0  0
  3 22  1  0  0  0  0
  4  5  1  0  0  0  0
  4  7  1  0  0  0  0
  4 28  1  0  0  0  0
  5 16  2  0  0  0  0
  6  7  1  0  0  0  0
  6 20  1  0  0  0  0
  6 21  1  0  0  0  0
  7 15  2  0  0  0  0
  8  9  1  0  0  0  0
  8 10  2  0  0  0  0
  8 11  1  0  0  0  0
 10 13  1  0  0  0  0
 10 23  1  0  0  0  0
 11 14  2  0  0  0  0
 11 24  1  0  0  0  0
 12 13  2  0  0  0  0
 12 14  1  0  0  0  0
 13 25  1  0  0  0  0
 14 26  1  0  0  0  0
 15 16  1  0  0  0  0
 15 27  1  0  0  0  0
 16 29  1  0  0  0  0
 17 18  1  0  0  0  0
 17 30  1  0  0  0  0
 17 31  1  0  0  0  0
 18 19  2  0  0  0  0
 18 32  1  0  0  0  0
 19 33  1  0  0  0  0
 19 34  1  0  0  0  0
M  END
> <PUBCHEM_COMPOUND_CID>
47205304

> <PUBCHEM_COMPOUND_CANONICALIZED>
1

> <PUBCHEM_CACTVS_COMPLEXITY>
301

> <PUBCHEM_CACTVS_HBOND_ACCEPTOR>
3

> <PUBCHEM_CACTVS_HBOND_DONOR>
2

> <PUBCHEM_CACTVS_ROTATABLE_BOND>
6

> <PUBCHEM_CACTVS_SUBSKEYS>
AAADccBzMAAAAAAAAAAAAAAAAAAAAWAAAAAwAAAAAAAAAAABwAAAHgAYAAAADAzhngY8hpLjBACqAzV3UACSDAAkogAYuaE+bNgMZrKE9duWvSjk3hGI6YeY3ALOIAAAAAAAAABAAAAAAAAAAAAAAAAAAA==

> <PUBCHEM_IUPAC_OPENEYE_NAME>
4-allyloxy-N-(1H-pyrazol-5-ylmethyl)benzamide

> <PUBCHEM_IUPAC_CAS_NAME>
4-prop-2-enoxy-N-(1H-pyrazol-5-ylmethyl)benzamide

> <PUBCHEM_IUPAC_NAME>
4-prop-2-enoxy-N-(1H-pyrazol-5-ylmethyl)benzamide

> <PUBCHEM_IUPAC_SYSTEMATIC_NAME>
4-prop-2-enoxy-N-(1H-pyrazol-5-ylmethyl)benzamide

> <PUBCHEM_IUPAC_TRADITIONAL_NAME>
4-allyloxy-N-(1H-pyrazol-5-ylmethyl)benzamide

> <PUBCHEM_IUPAC_INCHI>
InChI=1S/C14H15N3O2/c1-2-9-19-13-5-3-11(4-6-13)14(18)15-10-12-7-8-16-17-12/h2-8H,1,9-10H2,(H,15,18)(H,16,17)

> <PUBCHEM_IUPAC_INCHIKEY>
VRUIUCNDWRVLHT-UHFFFAOYSA-N

> <PUBCHEM_XLOGP3_AA>
1.6

> <PUBCHEM_EXACT_MASS>
257.116427

> <PUBCHEM_MOLECULAR_FORMULA>
C14H15N3O2

> <PUBCHEM_MOLECULAR_WEIGHT>
257.2878

> <PUBCHEM_OPENEYE_CAN_SMILES>
C=CCOC1=CC=C(C=C1)C(=O)NCC2=CC=NN2

> <PUBCHEM_OPENEYE_ISO_SMILES>
C=CCOC1=CC=C(C=C1)C(=O)NCC2=CC=NN2

> <PUBCHEM_CACTVS_TPSA>
67

> <PUBCHEM_MONOISOTOPIC_WEIGHT>
257.116427

> <PUBCHEM_TOTAL_CHARGE>
0

> <PUBCHEM_HEAVY_ATOM_COUNT>
19

> <PUBCHEM_ATOM_DEF_STEREO_COUNT>
0

> <PUBCHEM_ATOM_UDEF_STEREO_COUNT>
0

> <PUBCHEM_BOND_DEF_STEREO_COUNT>
0

> <PUBCHEM_BOND_UDEF_STEREO_COUNT>
0

> <PUBCHEM_ISOTOPIC_ATOM_COUNT>
0

> <PUBCHEM_COMPONENT_COUNT>
1

> <PUBCHEM_CACTVS_TAUTO_COUNT>
4

> <PUBCHEM_COORDINATE_TYPE>
1
5
255

> <PUBCHEM_BONDANNOTATIONS>
10  13  8
11  14  8
12  13  8
12  14  8
15  16  8
4  5  8
4  7  8
5  16  8
7  15  8
8  10  8
8  11  8

$$$$

