12841
  -OEChem-06261207263D

 32 32  0     0  0  0  0  0  0999 V2000
    2.4903   -0.3357    0.2635 O   0  0  0  0  0  0  0  0  0  0  0  0
    5.2898   -0.3476    0.3598 O   0  0  0  0  0  0  0  0  0  0  0  0
   -3.1267    0.0788   -0.0636 C   0  0  0  0  0  0  0  0  0  0  0  0
   -1.5857   -0.0348    0.0259 C   0  0  0  0  0  0  0  0  0  0  0  0
   -3.7799   -0.7531    1.0615 C   0  0  0  0  0  0  0  0  0  0  0  0
   -3.6121   -0.4419   -1.4339 C   0  0  0  0  0  0  0  0  0  0  0  0
   -3.6423    1.5275    0.0823 C   0  0  0  0  0  0  0  0  0  0  0  0
   -1.0273   -1.2776   -0.0876 C   0  0  0  0  0  0  0  0  0  0  0  0
   -0.8684    1.1142    0.2137 C   0  0  0  0  0  0  0  0  0  0  0  0
    0.3615   -1.3800   -0.0066 C   0  0  0  0  0  0  0  0  0  0  0  0
    0.5204    1.0120    0.2946 C   0  0  0  0  0  0  0  0  0  0  0  0
    1.1354   -0.2353    0.1843 C   0  0  0  0  0  0  0  0  0  0  0  0
    3.2521    0.7818   -0.1910 C   0  0  0  0  0  0  0  0  0  0  0  0
    4.5929    0.2916   -0.7028 C   0  0  0  0  0  0  0  0  0  0  0  0
   -4.8711   -0.6488    1.0467 H   0  0  0  0  0  0  0  0  0  0  0  0
   -3.5611   -1.8224    0.9696 H   0  0  0  0  0  0  0  0  0  0  0  0
   -3.4275   -0.4282    2.0477 H   0  0  0  0  0  0  0  0  0  0  0  0
   -3.3881   -1.5043   -1.5786 H   0  0  0  0  0  0  0  0  0  0  0  0
   -4.6977   -0.3281   -1.5373 H   0  0  0  0  0  0  0  0  0  0  0  0
   -3.1393    0.1093   -2.2555 H   0  0  0  0  0  0  0  0  0  0  0  0
   -4.7370    1.5576    0.0127 H   0  0  0  0  0  0  0  0  0  0  0  0
   -3.3816    1.9619    1.0547 H   0  0  0  0  0  0  0  0  0  0  0  0
   -3.2633    2.1820   -0.7116 H   0  0  0  0  0  0  0  0  0  0  0  0
   -1.6107   -2.1792   -0.2367 H   0  0  0  0  0  0  0  0  0  0  0  0
   -1.2919    2.1050    0.3117 H   0  0  0  0  0  0  0  0  0  0  0  0
    0.8352   -2.3541   -0.0933 H   0  0  0  0  0  0  0  0  0  0  0  0
    1.0843    1.9232    0.4711 H   0  0  0  0  0  0  0  0  0  0  0  0
    2.7549    1.3058   -1.0167 H   0  0  0  0  0  0  0  0  0  0  0  0
    3.3988    1.4664    0.6522 H   0  0  0  0  0  0  0  0  0  0  0  0
    5.2037    1.1165   -1.0811 H   0  0  0  0  0  0  0  0  0  0  0  0
    4.4595   -0.4480   -1.4979 H   0  0  0  0  0  0  0  0  0  0  0  0
    5.4281    0.3135    1.0592 H   0  0  0  0  0  0  0  0  0  0  0  0
  1 12  1  0  0  0  0
  1 13  1  0  0  0  0
  2 14  1  0  0  0  0
  2 32  1  0  0  0  0
  3  4  1  0  0  0  0
  3  5  1  0  0  0  0
  3  6  1  0  0  0  0
  3  7  1  0  0  0  0
  4  8  2  0  0  0  0
  4  9  1  0  0  0  0
  5 15  1  0  0  0  0
  5 16  1  0  0  0  0
  5 17  1  0  0  0  0
  6 18  1  0  0  0  0
  6 19  1  0  0  0  0
  6 20  1  0  0  0  0
  7 21  1  0  0  0  0
  7 22  1  0  0  0  0
  7 23  1  0  0  0  0
  8 10  1  0  0  0  0
  8 24  1  0  0  0  0
  9 11  2  0  0  0  0
  9 25  1  0  0  0  0
 10 12  2  0  0  0  0
 10 26  1  0  0  0  0
 11 12  1  0  0  0  0
 11 27  1  0  0  0  0
 13 14  1  0  0  0  0
 13 28  1  0  0  0  0
 13 29  1  0  0  0  0
 14 30  1  0  0  0  0
 14 31  1  0  0  0  0
M  END
> <PUBCHEM_COMPOUND_CID>
12841

> <PUBCHEM_CONFORMER_RMSD>
0.6

> <PUBCHEM_CONFORMER_DIVERSEORDER>
1
8
11
10
6
5
12
3
2
4
7
9

> <PUBCHEM_MMFF94_PARTIAL_CHARGES>
16
1 -0.36
10 -0.15
11 -0.15
12 0.08
13 0.28
14 0.28
2 -0.68
24 0.15
25 0.15
26 0.15
27 0.15
3 0.14
32 0.4
4 -0.14
8 -0.15
9 -0.15

> <PUBCHEM_EFFECTIVE_ROTOR_COUNT>
4

> <PUBCHEM_PHARMACOPHORE_FEATURES>
5
1 1 acceptor
1 2 acceptor
1 2 donor
4 3 5 6 7 hydrophobe
6 4 8 9 10 11 12 rings

> <PUBCHEM_HEAVY_ATOM_COUNT>
14

> <PUBCHEM_ATOM_DEF_STEREO_COUNT>
0

> <PUBCHEM_ATOM_UDEF_STEREO_COUNT>
0

> <PUBCHEM_BOND_DEF_STEREO_COUNT>
0

> <PUBCHEM_BOND_UDEF_STEREO_COUNT>
0

> <PUBCHEM_ISOTOPIC_ATOM_COUNT>
0

> <PUBCHEM_COMPONENT_COUNT>
1

> <PUBCHEM_CACTVS_TAUTO_COUNT>
1

> <PUBCHEM_CONFORMER_ID>
0000322900000001

> <PUBCHEM_MMFF94_ENERGY>
51.6292

> <PUBCHEM_FEATURE_SELFOVERLAP>
25.375

> <PUBCHEM_SHAPE_FINGERPRINT>
10680689 15 18113334202348144561
11132069 177 18114187427692685328
11401426 45 18186525410022582196
12032990 46 18410005503296022435
12119455 92 14620801483246974178
12932764 1 17749116595049728171
13214271 11 18413103979235692413
13690532 89 18412825789808697400
13760787 5 18411419492492515076
14289901 80 15698004024116254449
14911166 2 18408328765396462165
14943859 89 18409729543400308626
14993402 34 18412269414964974749
16945 1 18335991887100091459
18186145 218 17167585981307897491
19026448 4 16056603187368799571
19026448 5 15841561764065285160
200 152 15285356224028099606
20300324 65 17967254186861707613
20645477 70 18042687380381494087
22485316 2 16153425060730355044
23402539 116 18186807993338336244
23402655 69 18187929533573876413
23493267 7 17988928881260575745
23559900 14 18260547789275941744
265663 24 17275103920932717162
366044 4 18409166610452884482
4990 188 17821726143850901300
69090 78 17967255273910433454

> <PUBCHEM_SHAPE_MULTIPOLES>
276.37
8.95
1.33
0.9
8.78
0.09
-0.16
0.54
-0.68
-0.68
0.06
-0.66
-0.11
-0.13

> <PUBCHEM_SHAPE_SELFOVERLAP>
561.144

> <PUBCHEM_SHAPE_VOLUME>
162.9

> <PUBCHEM_COORDINATE_TYPE>
2
5
10

$$$$

