442309
  -OEChem-07051212572D

 46 48  0     0  0  0  0  0  0999 V2000
    8.3282   -2.0270    0.0000 O   0  0  0  0  0  0  0  0  0  0  0  0
    6.4034   -2.7276    0.0000 O   0  0  0  0  0  0  0  0  0  0  0  0
    3.0000   -1.4889    0.0000 O   0  0  0  0  0  0  0  0  0  0  0  0
    6.4848    2.7907    0.0000 N   0  0  0  0  0  0  0  0  0  0  0  0
    6.9245    0.2971    0.0000 C   0  0  0  0  0  0  0  0  0  0  0  0
    7.4245    1.1631    0.0000 C   0  0  0  0  0  0  0  0  0  0  0  0
    5.9848   -0.0449    0.0000 C   0  0  0  0  0  0  0  0  0  0  0  0
    5.0451    0.2971    0.0000 C   0  0  0  0  0  0  0  0  0  0  0  0
    4.7187    2.1479    0.0000 C   0  0  0  0  0  0  0  0  0  0  0  0
    4.5451    1.1631    0.0000 C   0  0  0  0  0  0  0  0  0  0  0  0
    7.2508    2.1479    0.0000 C   0  0  0  0  0  0  0  0  0  0  0  0
    5.4848    2.7907    0.0000 C   0  0  0  0  0  0  0  0  0  0  0  0
    7.7326   -0.3600    0.0000 C   0  0  0  0  0  0  0  0  0  0  0  0
    5.7881   -1.0678    0.0000 C   0  0  0  0  0  0  0  0  0  0  0  0
    4.5382   -0.6129    0.0000 C   0  0  0  0  0  0  0  0  0  0  0  0
    3.5036    1.1792    0.0000 C   0  0  0  0  0  0  0  0  0  0  0  0
    7.5597   -1.3872    0.0000 C   0  0  0  0  0  0  0  0  0  0  0  0
    6.5809   -1.7435    0.0000 C   0  0  0  0  0  0  0  0  0  0  0  0
    3.4966   -0.6209    0.0000 C   0  0  0  0  0  0  0  0  0  0  0  0
    2.9758    0.2812    0.0000 C   0  0  0  0  0  0  0  0  0  0  0  0
    9.2666   -1.6814    0.0000 C   0  0  0  0  0  0  0  0  0  0  0  0
    7.1670   -3.3734    0.0000 C   0  0  0  0  0  0  0  0  0  0  0  0
    2.0000   -1.4927    0.0000 C   0  0  0  0  0  0  0  0  0  0  0  0
    7.8500    0.7122    0.0000 H   0  0  0  0  0  0  0  0  0  0  0  0
    7.9785    1.4414    0.0000 H   0  0  0  0  0  0  0  0  0  0  0  0
    4.4732    2.7172    0.0000 H   0  0  0  0  0  0  0  0  0  0  0  0
    4.1029    2.0760    0.0000 H   0  0  0  0  0  0  0  0  0  0  0  0
    7.8666    2.0760    0.0000 H   0  0  0  0  0  0  0  0  0  0  0  0
    7.4964    2.7172    0.0000 H   0  0  0  0  0  0  0  0  0  0  0  0
    5.6626    3.3847    0.0000 H   0  0  0  0  0  0  0  0  0  0  0  0
    4.9668    3.1314    0.0000 H   0  0  0  0  0  0  0  0  0  0  0  0
    6.6968    3.3734    0.0000 H   0  0  0  0  0  0  0  0  0  0  0  0
    8.3128   -0.1413    0.0000 H   0  0  0  0  0  0  0  0  0  0  0  0
    5.2031   -1.2731    0.0000 H   0  0  0  0  0  0  0  0  0  0  0  0
    4.8544   -1.1462    0.0000 H   0  0  0  0  0  0  0  0  0  0  0  0
    3.1998    1.7197    0.0000 H   0  0  0  0  0  0  0  0  0  0  0  0
    2.3558    0.2836    0.0000 H   0  0  0  0  0  0  0  0  0  0  0  0
    9.4809   -2.2632    0.0000 H   0  0  0  0  0  0  0  0  0  0  0  0
    9.8484   -1.4671    0.0000 H   0  0  0  0  0  0  0  0  0  0  0  0
    9.0523   -1.0996    0.0000 H   0  0  0  0  0  0  0  0  0  0  0  0
    6.7666   -3.8468    0.0000 H   0  0  0  0  0  0  0  0  0  0  0  0
    7.6404   -3.7737    0.0000 H   0  0  0  0  0  0  0  0  0  0  0  0
    7.5673   -2.8999    0.0000 H   0  0  0  0  0  0  0  0  0  0  0  0
    1.9976   -0.8727    0.0000 H   0  0  0  0  0  0  0  0  0  0  0  0
    1.3800   -1.4951    0.0000 H   0  0  0  0  0  0  0  0  0  0  0  0
    2.0024   -2.1127    0.0000 H   0  0  0  0  0  0  0  0  0  0  0  0
  1 17  1  0  0  0  0
  1 21  1  0  0  0  0
  2 18  1  0  0  0  0
  2 22  1  0  0  0  0
  3 19  1  0  0  0  0
  3 23  1  0  0  0  0
  4 11  1  0  0  0  0
  4 12  1  0  0  0  0
  4 32  1  0  0  0  0
  5  6  1  0  0  0  0
  5  7  1  0  0  0  0
  5 13  2  0  0  0  0
  6 11  1  0  0  0  0
  6 24  1  0  0  0  0
  6 25  1  0  0  0  0
  7  8  1  0  0  0  0
  7 14  2  0  0  0  0
  8 10  2  0  0  0  0
  8 15  1  0  0  0  0
  9 10  1  0  0  0  0
  9 12  1  0  0  0  0
  9 26  1  0  0  0  0
  9 27  1  0  0  0  0
 10 16  1  0  0  0  0
 11 28  1  0  0  0  0
 11 29  1  0  0  0  0
 12 30  1  0  0  0  0
 12 31  1  0  0  0  0
 13 17  1  0  0  0  0
 13 33  1  0  0  0  0
 14 18  1  0  0  0  0
 14 34  1  0  0  0  0
 15 19  2  0  0  0  0
 15 35  1  0  0  0  0
 16 20  2  0  0  0  0
 16 36  1  0  0  0  0
 17 18  2  0  0  0  0
 19 20  1  0  0  0  0
 20 37  1  0  0  0  0
 21 38  1  0  0  0  0
 21 39  1  0  0  0  0
 21 40  1  0  0  0  0
 22 41  1  0  0  0  0
 22 42  1  0  0  0  0
 22 43  1  0  0  0  0
 23 44  1  0  0  0  0
 23 45  1  0  0  0  0
 23 46  1  0  0  0  0
M  END
> <PUBCHEM_COMPOUND_CID>
442309

> <PUBCHEM_COMPOUND_CANONICALIZED>
1

> <PUBCHEM_CACTVS_COMPLEXITY>
365

> <PUBCHEM_CACTVS_HBOND_ACCEPTOR>
4

> <PUBCHEM_CACTVS_HBOND_DONOR>
1

> <PUBCHEM_CACTVS_ROTATABLE_BOND>
3

> <PUBCHEM_CACTVS_SUBSKEYS>
AAADceB6MAAAAAAAAAAAAAAAAAAAAAAAAAAwYAAAAAAAAFgBQAAAHgAQAAAADATBmAYyBoLABACAAiBCAAACCAAgIAAIiIAOiIgNJiKEsRuEMCIk0BGKqAeQ0PIOoAABAAAQQABAAAIAACCAAAAAAAAAAA==

> <PUBCHEM_IUPAC_INCHI>
InChI=1S/C19H23NO3/c1-21-15-5-4-13-6-8-20-9-7-14-10-18(22-2)19(23-3)12-17(14)16(13)11-15/h4-5,10-12,20H,6-9H2,1-3H3

> <PUBCHEM_IUPAC_INCHIKEY>
QTERLNHMRBRQSX-UHFFFAOYSA-N

> <PUBCHEM_XLOGP3_AA>
2.3

> <PUBCHEM_EXACT_MASS>
313.167794

> <PUBCHEM_MOLECULAR_FORMULA>
C19H23NO3

> <PUBCHEM_MOLECULAR_WEIGHT>
313.39082

> <PUBCHEM_OPENEYE_CAN_SMILES>
COC1=CC2=C(CCNCCC3=CC(=C(C=C32)OC)OC)C=C1

> <PUBCHEM_OPENEYE_ISO_SMILES>
COC1=CC2=C(CCNCCC3=CC(=C(C=C32)OC)OC)C=C1

> <PUBCHEM_CACTVS_TPSA>
39.7

> <PUBCHEM_MONOISOTOPIC_WEIGHT>
313.167794

> <PUBCHEM_TOTAL_CHARGE>
0

> <PUBCHEM_HEAVY_ATOM_COUNT>
23

> <PUBCHEM_ATOM_DEF_STEREO_COUNT>
0

> <PUBCHEM_ATOM_UDEF_STEREO_COUNT>
0

> <PUBCHEM_BOND_DEF_STEREO_COUNT>
0

> <PUBCHEM_BOND_UDEF_STEREO_COUNT>
0

> <PUBCHEM_ISOTOPIC_ATOM_COUNT>
0

> <PUBCHEM_COMPONENT_COUNT>
1

> <PUBCHEM_CACTVS_TAUTO_COUNT>
1

> <PUBCHEM_COORDINATE_TYPE>
1
5
255

> <PUBCHEM_BONDANNOTATIONS>
10  16  8
13  17  8
14  18  8
15  19  8
16  20  8
17  18  8
19  20  8
5  13  8
5  7  8
7  14  8
8  10  8
8  15  8

$$$$

