11953951
  -OEChem-07051213013D

 17 16  0     0  0  0  0  0  0999 V2000
    1.4047    2.0028    0.0384 O   0  0  0  0  0  0  0  0  0  0  0  0
    1.9218   -0.8456   -1.2116 O   0  0  0  0  0  0  0  0  0  0  0  0
    2.0355   -1.0412    1.0528 O   0  0  0  0  0  0  0  0  0  0  0  0
   -0.5363    0.6174    0.0210 C   0  0  0  0  0  0  0  0  0  0  0  0
   -1.2209   -0.6591    0.0195 C   0  0  0  0  0  0  0  0  0  0  0  0
    0.7987    0.7629    0.0373 C   0  0  0  0  0  0  0  0  0  0  0  0
   -2.5573   -0.7732    0.0031 C   0  0  0  0  0  0  0  0  0  0  0  0
   -3.4882    0.3946   -0.0156 C   0  0  0  0  0  0  0  0  0  0  0  0
    1.6419   -0.4584    0.0552 C   0  0  0  0  0  0  0  0  0  0  0  0
   -1.1412    1.5199    0.0134 H   0  0  0  0  0  0  0  0  0  0  0  0
   -0.6403   -1.5763    0.0363 H   0  0  0  0  0  0  0  0  0  0  0  0
   -2.9988   -1.7661    0.0137 H   0  0  0  0  0  0  0  0  0  0  0  0
   -3.4845    0.9162    0.9464 H   0  0  0  0  0  0  0  0  0  0  0  0
   -3.2534    1.0951   -0.8228 H   0  0  0  0  0  0  0  0  0  0  0  0
   -4.5095    0.0401   -0.1924 H   0  0  0  0  0  0  0  0  0  0  0  0
    0.7092    2.6827    0.0254 H   0  0  0  0  0  0  0  0  0  0  0  0
    2.4784   -1.6531   -1.2342 H   0  0  0  0  0  0  0  0  0  0  0  0
  1  6  1  0  0  0  0
  1 16  1  0  0  0  0
  2  9  1  0  0  0  0
  2 17  1  0  0  0  0
  3  9  2  0  0  0  0
  4  5  1  0  0  0  0
  4  6  2  0  0  0  0
  4 10  1  0  0  0  0
  5  7  2  0  0  0  0
  5 11  1  0  0  0  0
  6  9  1  0  0  0  0
  7  8  1  0  0  0  0
  7 12  1  0  0  0  0
  8 13  1  0  0  0  0
  8 14  1  0  0  0  0
  8 15  1  0  0  0  0
M  END
> <PUBCHEM_COMPOUND_CID>
11953951

> <PUBCHEM_CONFORMER_RMSD>
0.4

> <PUBCHEM_CONFORMER_DIVERSEORDER>
1
3
2

> <PUBCHEM_MMFF94_PARTIAL_CHARGES>
14
1 -0.53
10 0.15
11 0.15
12 0.15
16 0.45
17 0.5
2 -0.65
3 -0.57
4 -0.15
5 -0.15
6 0.09
7 -0.29
8 0.14
9 0.71

> <PUBCHEM_EFFECTIVE_ROTOR_COUNT>
2

> <PUBCHEM_PHARMACOPHORE_FEATURES>
5
1 1 donor
1 2 acceptor
1 3 acceptor
1 8 hydrophobe
3 2 3 9 anion

> <PUBCHEM_HEAVY_ATOM_COUNT>
9

> <PUBCHEM_ATOM_DEF_STEREO_COUNT>
0

> <PUBCHEM_ATOM_UDEF_STEREO_COUNT>
0

> <PUBCHEM_BOND_DEF_STEREO_COUNT>
2

> <PUBCHEM_BOND_UDEF_STEREO_COUNT>
0

> <PUBCHEM_ISOTOPIC_ATOM_COUNT>
0

> <PUBCHEM_COMPONENT_COUNT>
1

> <PUBCHEM_CACTVS_TAUTO_COUNT>
3

> <PUBCHEM_CONFORMER_ID>
00B6671F00000001

> <PUBCHEM_MMFF94_ENERGY>
20.4463

> <PUBCHEM_FEATURE_SELFOVERLAP>
25.428

> <PUBCHEM_SHAPE_FINGERPRINT>
12932764 1 18202562865546112375
14325111 11 18410856521734105201
20653091 64 18410853231045579184
20711985 344 17903622326621150772
21040471 1 17834677097835471200
23552333 60 18335416842081070920
23552423 10 18200029534731107661
23552449 11 18410863135261093627
29004967 10 18187365441095681866
3248919 1 17967814929692425731

> <PUBCHEM_SHAPE_MULTIPOLES>
167.61
4.33
1.38
0.81
3.38
0.52
0.05
-0.45
0
-0.67
-0.04
-0.42
-0.21
-0.01

> <PUBCHEM_SHAPE_SELFOVERLAP>
321.271

> <PUBCHEM_SHAPE_VOLUME>
102.8

> <PUBCHEM_COORDINATE_TYPE>
2
5
10

$$$$

