77981
  -OEChem-07051212553D

 21 21  0     0  0  0  0  0  0999 V2000
   -2.1916   -0.0001   -0.0001 C   0  0  0  0  0  0  0  0  0  0  0  0
   -2.8891    1.2080   -0.0001 C   0  0  0  0  0  0  0  0  0  0  0  0
   -2.8892   -1.2081    0.0000 C   0  0  0  0  0  0  0  0  0  0  0  0
   -4.2839    1.2082    0.0001 C   0  0  0  0  0  0  0  0  0  0  0  0
   -4.2841   -1.2079    0.0000 C   0  0  0  0  0  0  0  0  0  0  0  0
   -4.9814    0.0003    0.0001 C   0  0  0  0  0  0  0  0  0  0  0  0
   -0.7626   -0.0002   -0.0001 C   0  0  0  0  0  0  0  0  0  0  0  0
    0.4400   -0.0002    0.0000 C   0  0  0  0  0  0  0  0  0  0  0  0
    1.8122   -0.0002    0.0001 C   0  0  0  0  0  0  0  0  0  0  0  0
    7.0474    0.0003   -0.0001 C   0  0  0  0  0  0  0  0  0  0  0  0
    5.5851    0.0000    0.0000 C   0  0  0  0  0  0  0  0  0  0  0  0
    3.0124   -0.0001    0.0001 C   0  0  0  0  0  0  0  0  0  0  0  0
    4.3847   -0.0001    0.0001 C   0  0  0  0  0  0  0  0  0  0  0  0
   -2.3597    2.1578   -0.0002 H   0  0  0  0  0  0  0  0  0  0  0  0
   -2.3601   -2.1581    0.0000 H   0  0  0  0  0  0  0  0  0  0  0  0
   -4.8270    2.1488    0.0001 H   0  0  0  0  0  0  0  0  0  0  0  0
   -4.8275   -2.1483    0.0000 H   0  0  0  0  0  0  0  0  0  0  0  0
   -6.0674    0.0003    0.0002 H   0  0  0  0  0  0  0  0  0  0  0  0
    7.4368   -0.9967   -0.2273 H   0  0  0  0  0  0  0  0  0  0  0  0
    7.4366    0.3023    0.9769 H   0  0  0  0  0  0  0  0  0  0  0  0
    7.4364    0.6956   -0.7501 H   0  0  0  0  0  0  0  0  0  0  0  0
  1  2  2  0  0  0  0
  1  3  1  0  0  0  0
  1  7  1  0  0  0  0
  2  4  1  0  0  0  0
  2 14  1  0  0  0  0
  3  5  2  0  0  0  0
  3 15  1  0  0  0  0
  4  6  2  0  0  0  0
  4 16  1  0  0  0  0
  5  6  1  0  0  0  0
  5 17  1  0  0  0  0
  6 18  1  0  0  0  0
  7  8  3  0  0  0  0
  8  9  1  0  0  0  0
  9 12  3  0  0  0  0
 10 11  1  0  0  0  0
 10 19  1  0  0  0  0
 10 20  1  0  0  0  0
 10 21  1  0  0  0  0
 11 13  3  0  0  0  0
 12 13  1  0  0  0  0
M  END
> <PUBCHEM_COMPOUND_CID>
77981

> <PUBCHEM_CONFORMER_RMSD>
0.4

> <PUBCHEM_CONFORMER_DIVERSEORDER>
1

> <PUBCHEM_MMFF94_PARTIAL_CHARGES>
14
1 0.07
10 0.2
11 -0.2
14 0.15
15 0.15
16 0.15
17 0.15
18 0.15
2 -0.15
3 -0.15
4 -0.15
5 -0.15
6 -0.15
7 -0.07

> <PUBCHEM_EFFECTIVE_ROTOR_COUNT>
0

> <PUBCHEM_PHARMACOPHORE_FEATURES>
2
1 10 hydrophobe
6 1 2 3 4 5 6 rings

> <PUBCHEM_HEAVY_ATOM_COUNT>
13

> <PUBCHEM_ATOM_DEF_STEREO_COUNT>
0

> <PUBCHEM_ATOM_UDEF_STEREO_COUNT>
0

> <PUBCHEM_BOND_DEF_STEREO_COUNT>
0

> <PUBCHEM_BOND_UDEF_STEREO_COUNT>
0

> <PUBCHEM_ISOTOPIC_ATOM_COUNT>
0

> <PUBCHEM_COMPONENT_COUNT>
1

> <PUBCHEM_CACTVS_TAUTO_COUNT>
1

> <PUBCHEM_CONFORMER_ID>
0001309D00000001

> <PUBCHEM_MMFF94_ENERGY>
14.1043

> <PUBCHEM_FEATURE_SELFOVERLAP>
10.148

> <PUBCHEM_SHAPE_FINGERPRINT>
10680689 15 17530688697217563509
10968037 39 18341894082286347095
11287383 113 18260548896965930576
11315181 36 18343017774596012153
12091667 2 18341892987201587882
12107183 9 17550395476119135552
13288520 33 18410293588918485047
13533116 47 16415213295348327160
14123238 8 18060701693365610730
1420 363 17458339741573285886
14251718 22 18410292502096508890
15242439 84 18040156218967727760
17834072 33 18342173332981824884
17834076 25 17775566442567414282
19489759 90 18410856563950659241
20279233 1 17749101192996428487
20645477 56 18410293653337979505
20645477 70 17168418389515900990
21267235 1 18341608179847311155
220451 1 17775284976281125146
2297311 6 18261104179791045581
23402539 116 18343024388892932612
23536379 177 18413108381650972066
23559900 14 18335146362225971224
300161 21 18130795576626406378
3545911 37 18408603677520739001
4214541 1 18410573989515211077
42788 4 18410575080985322560
542803 24 17775001289195595356
6327066 14 17699861906200873021
8209 1 18411419513898760244

> <PUBCHEM_SHAPE_MULTIPOLES>
267.53
15.71
1.07
0.62
23.22
0
0
0
0
-1.61
0
0
0
0

> <PUBCHEM_SHAPE_SELFOVERLAP>
548.908

> <PUBCHEM_SHAPE_VOLUME>
145.2

> <PUBCHEM_COORDINATE_TYPE>
2
5
10

$$$$

