14234
  -OEChem-06241222423D

 43 42  0     1  0  0  0  0  0999 V2000
   -0.8084   -0.2425   -0.2240 O   0  0  0  0  0  0  0  0  0  0  0  0
   -1.8192   -0.3250    1.8475 O   0  0  0  0  0  0  0  0  0  0  0  0
    1.1905    0.9748   -0.8341 C   0  0  1  0  0  0  0  0  0  0  0  0
    0.1451    0.6993    0.2776 C   0  0  1  0  0  0  0  0  0  0  0  0
    1.9501   -0.2919   -1.2900 C   0  0  0  0  0  0  0  0  0  0  0  0
    0.5843    1.6760   -2.0604 C   0  0  0  0  0  0  0  0  0  0  0  0
   -3.9177   -1.0624   -0.5833 C   0  0  0  0  0  0  0  0  0  0  0  0
   -2.6433   -1.6863    0.0067 C   0  0  0  0  0  0  0  0  0  0  0  0
    2.6841   -0.9732   -0.1671 C   0  0  0  0  0  0  0  0  0  0  0  0
   -0.5979    1.9156    0.7577 C   0  0  0  0  0  0  0  0  0  0  0  0
   -1.7402   -0.6733    0.6773 C   0  0  0  0  0  0  0  0  0  0  0  0
   -3.5526   -0.0821   -1.6996 C   0  0  0  0  0  0  0  0  0  0  0  0
   -4.7369   -0.3420    0.4904 C   0  0  0  0  0  0  0  0  0  0  0  0
    3.9712   -0.8256    0.2004 C   0  0  0  0  0  0  0  0  0  0  0  0
   -0.2217    2.6525    1.8091 C   0  0  0  0  0  0  0  0  0  0  0  0
    4.8685    0.1266   -0.5456 C   0  0  0  0  0  0  0  0  0  0  0  0
    4.6441   -1.5405    1.3376 C   0  0  0  0  0  0  0  0  0  0  0  0
    1.9326    1.6707   -0.4162 H   0  0  0  0  0  0  0  0  0  0  0  0
    0.6588    0.2364    1.1307 H   0  0  0  0  0  0  0  0  0  0  0  0
    2.6336   -0.0485   -2.1109 H   0  0  0  0  0  0  0  0  0  0  0  0
    1.2443   -1.0149   -1.7197 H   0  0  0  0  0  0  0  0  0  0  0  0
    0.1387    2.6391   -1.7927 H   0  0  0  0  0  0  0  0  0  0  0  0
   -0.1895    1.0589   -2.5290 H   0  0  0  0  0  0  0  0  0  0  0  0
    1.3561    1.8751   -2.8120 H   0  0  0  0  0  0  0  0  0  0  0  0
   -4.5272   -1.8686   -1.0090 H   0  0  0  0  0  0  0  0  0  0  0  0
   -2.0770   -2.2221   -0.7651 H   0  0  0  0  0  0  0  0  0  0  0  0
   -2.9034   -2.4401    0.7601 H   0  0  0  0  0  0  0  0  0  0  0  0
    2.0788   -1.6708    0.4107 H   0  0  0  0  0  0  0  0  0  0  0  0
   -1.4692    2.2381    0.1924 H   0  0  0  0  0  0  0  0  0  0  0  0
   -3.0336    0.8043   -1.3221 H   0  0  0  0  0  0  0  0  0  0  0  0
   -2.9155   -0.5611   -2.4505 H   0  0  0  0  0  0  0  0  0  0  0  0
   -4.4587    0.2647   -2.2086 H   0  0  0  0  0  0  0  0  0  0  0  0
   -4.2202    0.5390    0.8849 H   0  0  0  0  0  0  0  0  0  0  0  0
   -5.6918   -0.0023    0.0744 H   0  0  0  0  0  0  0  0  0  0  0  0
   -4.9589   -1.0136    1.3263 H   0  0  0  0  0  0  0  0  0  0  0  0
   -0.7879    3.5320    2.0951 H   0  0  0  0  0  0  0  0  0  0  0  0
    0.6515    2.3933    2.3975 H   0  0  0  0  0  0  0  0  0  0  0  0
    5.6002   -0.4343   -1.1365 H   0  0  0  0  0  0  0  0  0  0  0  0
    4.3441    0.8123   -1.2145 H   0  0  0  0  0  0  0  0  0  0  0  0
    5.4166    0.7554    0.1653 H   0  0  0  0  0  0  0  0  0  0  0  0
    3.9579   -2.2303    1.8400 H   0  0  0  0  0  0  0  0  0  0  0  0
    5.0026   -0.8234    2.0828 H   0  0  0  0  0  0  0  0  0  0  0  0
    5.4958   -2.1229    0.9718 H   0  0  0  0  0  0  0  0  0  0  0  0
  1  4  1  0  0  0  0
  1 11  1  0  0  0  0
  2 11  2  0  0  0  0
  3  4  1  0  0  0  0
  3  5  1  0  0  0  0
  3  6  1  0  0  0  0
  3 18  1  0  0  0  0
  4 10  1  0  0  0  0
  4 19  1  0  0  0  0
  5  9  1  0  0  0  0
  5 20  1  0  0  0  0
  5 21  1  0  0  0  0
  6 22  1  0  0  0  0
  6 23  1  0  0  0  0
  6 24  1  0  0  0  0
  7  8  1  0  0  0  0
  7 12  1  0  0  0  0
  7 13  1  0  0  0  0
  7 25  1  0  0  0  0
  8 11  1  0  0  0  0
  8 26  1  0  0  0  0
  8 27  1  0  0  0  0
  9 14  2  0  0  0  0
  9 28  1  0  0  0  0
 10 15  2  0  0  0  0
 10 29  1  0  0  0  0
 12 30  1  0  0  0  0
 12 31  1  0  0  0  0
 12 32  1  0  0  0  0
 13 33  1  0  0  0  0
 13 34  1  0  0  0  0
 13 35  1  0  0  0  0
 14 16  1  0  0  0  0
 14 17  1  0  0  0  0
 15 36  1  0  0  0  0
 15 37  1  0  0  0  0
 16 38  1  0  0  0  0
 16 39  1  0  0  0  0
 16 40  1  0  0  0  0
 17 41  1  0  0  0  0
 17 42  1  0  0  0  0
 17 43  1  0  0  0  0
M  END
> <PUBCHEM_COMPOUND_CID>
14234

> <PUBCHEM_CONFORMER_RMSD>
1

> <PUBCHEM_CONFORMER_DIVERSEORDER>
1
10
216
285
339
555
401
513
378
204
288
332
271
16
101
65
44
156
114
48
105
55
519
292
363
250
190
84
74
413
26
527
116
242
448
21
397
30
70
558
554
15
258
88
205
179
6
17
392
244
330
345
275
92
334
34
529
273
186
264
2
287
304
158
7
367
47
142
121
355
124
118
23
43
169
52
407
388
32
227
380
51
133
107
371
230
62
138
327
85
69
289
207
38
446
231
490
5
282
99
320
31
353
475
294
103
27
147
8
254
326
46
449
82
135
482
503
108
29
222
12
276
404
20
500
18
243
45
405
36
463
77
11
175
75
63
9
41
131
381
149
359
369
191
225
89
197
68
14
493
560
202
218
120
496
4
256
127
50
122
416
263
72
193
553
556
241
340
347
518
60
170
486
280
37
126
393
455
162
479
53
94
535
187
96
87
506
210

> <PUBCHEM_MMFF94_PARTIAL_CHARGES>
16
1 -0.43
10 -0.29
11 0.66
14 -0.28
15 -0.3
16 0.14
17 0.14
2 -0.57
28 0.15
29 0.15
36 0.15
37 0.15
4 0.42
5 0.14
8 0.06
9 -0.29

> <PUBCHEM_EFFECTIVE_ROTOR_COUNT>
8

> <PUBCHEM_PHARMACOPHORE_FEATURES>
5
1 15 hydrophobe
1 2 acceptor
1 6 hydrophobe
3 14 16 17 hydrophobe
3 7 12 13 hydrophobe

> <PUBCHEM_HEAVY_ATOM_COUNT>
17

> <PUBCHEM_ATOM_DEF_STEREO_COUNT>
0

> <PUBCHEM_ATOM_UDEF_STEREO_COUNT>
2

> <PUBCHEM_BOND_DEF_STEREO_COUNT>
0

> <PUBCHEM_BOND_UDEF_STEREO_COUNT>
0

> <PUBCHEM_ISOTOPIC_ATOM_COUNT>
0

> <PUBCHEM_COMPONENT_COUNT>
1

> <PUBCHEM_CACTVS_TAUTO_COUNT>
1

> <PUBCHEM_CONFORMER_ID>
0000379A00000001

> <PUBCHEM_MMFF94_ENERGY>
24.9899

> <PUBCHEM_FEATURE_SELFOVERLAP>
25.372

> <PUBCHEM_SHAPE_FINGERPRINT>
10366900 7 18186516605920166778
10465860 250 18333736814241751747
10610426 29 18341058453655063124
10922049 32 9079119981267296436
11045977 3 14345798223113549758
11132069 177 14634869721444378279
11458722 120 18272646887883587249
12553582 1 18043786780265941951
12815109 37 18334012787201962366
12916748 109 12895070717105568558
13004483 165 18131362937722211286
13083527 12 16951140460513419689
13134695 92 18189343385468812509
13549 16 17060624399225735207
14251751 93 15553902116321923863
14251757 17 16773526524503726108
15342168 16 14057300653342022810
17834072 14 18187088351270030857
18186145 218 13901909977243265158
18222031 100 17603588500082699598
200 152 18412265047268214126
204376 136 5833987260882116982
20600515 1 18335697230525832004
20626108 58 18058179336066180938
20645477 70 16845291679088891170
20671657 53 17988922271210909596
20711985 327 17531240621815927617
21250096 35 18408606941780624306
21304303 282 17544502076282824157
21524375 3 8862947164851686062
22079108 93 5905752389306886926
22802520 49 17274250626974311709
22854114 59 14273736248419891870
23402539 116 17531249465227599199
23419403 2 18191897598077258756
23526113 38 17915179018716193665
23557571 272 17313650655129331600
23559900 14 17131835361669621038
25 1 13326581773513944080
2637199 183 14261359067658804125
3086196 2 18261394507064404288
3286 77 18190182291840372279
347723 3 17846222193476174969
3729539 64 11598342012781613872
4990 188 14836405817559255051
5283173 99 18271818967896271380
81228 2 17679834228247405497
9882013 296 16370443349974303310

> <PUBCHEM_SHAPE_MULTIPOLES>
338.11
8.97
2.05
1.77
3.01
1.27
-0.19
-5.45
0.29
0
0.76
-0.13
0.71
-0.86

> <PUBCHEM_SHAPE_SELFOVERLAP>
642.414

> <PUBCHEM_SHAPE_VOLUME>
208.7

> <PUBCHEM_COORDINATE_TYPE>
2
5
10

$$$$

