440915
  -OEChem-07051212512D

 54 57  0     1  0  0  0  0  0999 V2000
    6.0771    3.5692    0.0000 O   0  0  0  0  0  0  0  0  0  0  0  0
    2.2943    1.0264    0.0000 O   0  0  0  0  0  0  0  0  0  0  0  0
    6.9005   -0.9947    0.0000 O   0  0  0  0  0  0  0  0  0  0  0  0
    5.7014   -2.2445    0.0000 O   0  0  0  0  0  0  0  0  0  0  0  0
    2.8183   -3.1320    0.0000 O   0  0  0  0  0  0  0  0  0  0  0  0
    4.5500   -3.1623    0.0000 O   0  0  0  0  0  0  0  0  0  0  0  0
    5.3546    0.4036    0.0000 C   0  0  1  0  0  0  0  0  0  0  0  0
    4.4536    0.8375    0.0000 C   0  0  2  0  0  0  0  0  0  0  0  0
    3.7685    0.1172    0.0000 C   0  0  1  0  0  0  0  0  0  0  0  0
    4.2403   -0.7578    0.0000 C   0  0  2  0  0  0  0  0  0  0  0  0
    5.2186   -0.5811    0.0000 C   0  0  2  0  0  0  0  0  0  0  0  0
    5.2477    1.5804    0.0000 C   0  0  0  0  0  0  0  0  0  0  0  0
    5.8546    2.5942    0.0000 C   0  0  2  0  0  0  0  0  0  0  0  0
    6.2555    0.8375    0.0000 C   0  0  0  0  0  0  0  0  0  0  0  0
    3.7104   -1.6474    0.0000 C   0  0  2  0  0  0  0  0  0  0  0  0
    4.2311    1.8124    0.0000 C   0  0  0  0  0  0  0  0  0  0  0  0
    2.7340    0.1632    0.0000 C   0  0  0  0  0  0  0  0  0  0  0  0
    4.8546    2.5942    0.0000 C   0  0  0  0  0  0  0  0  0  0  0  0
    6.4780    1.8124    0.0000 C   0  0  0  0  0  0  0  0  0  0  0  0
    3.2938    0.9974    0.0000 C   0  0  0  0  0  0  0  0  0  0  0  0
    2.6752   -1.6253    0.0000 C   0  0  0  0  0  0  0  0  0  0  0  0
    2.1837   -0.7139    0.0000 C   0  0  0  0  0  0  0  0  0  0  0  0
    5.9402   -1.2734    0.0000 C   0  0  0  0  0  0  0  0  0  0  0  0
    4.5675   -2.1625    0.0000 C   0  0  0  0  0  0  0  0  0  0  0  0
    3.6929   -2.6472    0.0000 C   0  0  0  0  0  0  0  0  0  0  0  0
    7.4530    2.0349    0.0000 C   0  0  0  0  0  0  0  0  0  0  0  0
    3.6878    1.2063    0.0000 H   0  0  0  0  0  0  0  0  0  0  0  0
    4.7245   -1.4564    0.0000 H   0  0  0  0  0  0  0  0  0  0  0  0
    5.8042   -0.3776    0.0000 H   0  0  0  0  0  0  0  0  0  0  0  0
    4.8399    2.0474    0.0000 H   0  0  0  0  0  0  0  0  0  0  0  0
    4.6777    1.3365    0.0000 H   0  0  0  0  0  0  0  0  0  0  0  0
    6.3935    0.2330    0.0000 H   0  0  0  0  0  0  0  0  0  0  0  0
    6.8755    0.8375    0.0000 H   0  0  0  0  0  0  0  0  0  0  0  0
    3.8445    2.2971    0.0000 H   0  0  0  0  0  0  0  0  0  0  0  0
    3.6725    1.5434    0.0000 H   0  0  0  0  0  0  0  0  0  0  0  0
    2.8672    0.7688    0.0000 H   0  0  0  0  0  0  0  0  0  0  0  0
    2.1602    0.3980    0.0000 H   0  0  0  0  0  0  0  0  0  0  0  0
    4.9925    3.1987    0.0000 H   0  0  0  0  0  0  0  0  0  0  0  0
    4.2960    2.8632    0.0000 H   0  0  0  0  0  0  0  0  0  0  0  0
    3.8824    1.1924    0.0000 H   0  0  0  0  0  0  0  0  0  0  0  0
    3.2040    1.6108    0.0000 H   0  0  0  0  0  0  0  0  0  0  0  0
    2.0871   -1.8218    0.0000 H   0  0  0  0  0  0  0  0  0  0  0  0
    2.7682   -2.2383    0.0000 H   0  0  0  0  0  0  0  0  0  0  0  0
    1.7226   -0.2994    0.0000 H   0  0  0  0  0  0  0  0  0  0  0  0
    1.6964   -1.0972    0.0000 H   0  0  0  0  0  0  0  0  0  0  0  0
    4.2482   -2.6939    0.0000 H   0  0  0  0  0  0  0  0  0  0  0  0
    5.0990   -2.4818    0.0000 H   0  0  0  0  0  0  0  0  0  0  0  0
    4.8869   -1.6310    0.0000 H   0  0  0  0  0  0  0  0  0  0  0  0
    6.6695    3.7519    0.0000 H   0  0  0  0  0  0  0  0  0  0  0  0
    7.8747    1.5804    0.0000 H   0  0  0  0  0  0  0  0  0  0  0  0
    7.6357    2.6274    0.0000 H   0  0  0  0  0  0  0  0  0  0  0  0
    2.0000    1.5721    0.0000 H   0  0  0  0  0  0  0  0  0  0  0  0
    7.3479   -1.4239    0.0000 H   0  0  0  0  0  0  0  0  0  0  0  0
    2.8074   -3.7519    0.0000 H   0  0  0  0  0  0  0  0  0  0  0  0
 13  1  1  6  0  0  0
  1 49  1  0  0  0  0
  2 20  1  0  0  0  0
  2 52  1  0  0  0  0
  3 23  1  0  0  0  0
  3 53  1  0  0  0  0
  4 23  2  0  0  0  0
  5 25  1  0  0  0  0
  5 54  1  0  0  0  0
  6 25  2  0  0  0  0
  7  8  1  0  0  0  0
  7 11  1  0  0  0  0
  7 12  1  6  0  0  0
  7 14  1  0  0  0  0
  8  9  1  0  0  0  0
  8 16  1  0  0  0  0
  8 27  1  1  0  0  0
  9 10  1  0  0  0  0
  9 17  1  0  0  0  0
  9 20  1  6  0  0  0
 10 11  1  0  0  0  0
 10 15  1  0  0  0  0
 10 28  1  1  0  0  0
 11 23  1  1  0  0  0
 11 29  1  0  0  0  0
 12 13  1  0  0  0  0
 12 30  1  0  0  0  0
 12 31  1  0  0  0  0
 13 18  1  0  0  0  0
 13 19  1  0  0  0  0
 14 19  1  0  0  0  0
 14 32  1  0  0  0  0
 14 33  1  0  0  0  0
 15 21  1  0  0  0  0
 15 24  1  1  0  0  0
 15 25  1  0  0  0  0
 16 18  1  0  0  0  0
 16 34  1  0  0  0  0
 16 35  1  0  0  0  0
 17 22  1  0  0  0  0
 17 36  1  0  0  0  0
 17 37  1  0  0  0  0
 18 38  1  0  0  0  0
 18 39  1  0  0  0  0
 19 26  2  0  0  0  0
 20 40  1  0  0  0  0
 20 41  1  0  0  0  0
 21 22  1  0  0  0  0
 21 42  1  0  0  0  0
 21 43  1  0  0  0  0
 22 44  1  0  0  0  0
 22 45  1  0  0  0  0
 24 46  1  0  0  0  0
 24 47  1  0  0  0  0
 24 48  1  0  0  0  0
 26 50  1  0  0  0  0
 26 51  1  0  0  0  0
M  END
> <PUBCHEM_COMPOUND_CID>
440915

> <PUBCHEM_COMPOUND_CANONICALIZED>
1

> <PUBCHEM_CACTVS_COMPLEXITY>
702

> <PUBCHEM_CACTVS_HBOND_ACCEPTOR>
6

> <PUBCHEM_CACTVS_HBOND_DONOR>
4

> <PUBCHEM_CACTVS_ROTATABLE_BOND>
3

> <PUBCHEM_CACTVS_SUBSKEYS>
AAADceB4OAAAAAAAAAAAAAAAAAAAAYMAAAAwYAAABgAAAGDAAAAAGgAACAAAD0SggAICCAAAAgCIAgDSCAAAAAAgAAAAAAEAAAgAFBIAAQAAQAAEgAAAEAGI7vTPgAAAAAAAAADAAAYAACAAAYAACAAAAA==

> <PUBCHEM_IUPAC_INCHI>
InChI=1S/C20H28O6/c1-11-8-19-9-20(11,26)7-4-12(19)18(10-21)6-3-5-17(2,16(24)25)14(18)13(19)15(22)23/h12-14,21,26H,1,3-10H2,2H3,(H,22,23)(H,24,25)/t12-,13+,14+,17+,18+,19-,20-/m0/s1

> <PUBCHEM_IUPAC_INCHIKEY>
AXEUUXHMKSPQAI-YTJHIPEWSA-N

> <PUBCHEM_XLOGP3_AA>
0.8

> <PUBCHEM_EXACT_MASS>
364.188589

> <PUBCHEM_MOLECULAR_FORMULA>
C20H28O6

> <PUBCHEM_MOLECULAR_WEIGHT>
364.43272

> <PUBCHEM_OPENEYE_CAN_SMILES>
CC1(CCCC2(C1C(C34C2CCC(C3)(C(=C)C4)O)C(=O)O)CO)C(=O)O

> <PUBCHEM_OPENEYE_ISO_SMILES>
C[C@]1(CCC[C@@]2([C@@H]1[C@@H]([C@]34[C@H]2CC[C@](C3)(C(=C)C4)O)C(=O)O)CO)C(=O)O

> <PUBCHEM_CACTVS_TPSA>
115

> <PUBCHEM_MONOISOTOPIC_WEIGHT>
364.188589

> <PUBCHEM_TOTAL_CHARGE>
0

> <PUBCHEM_HEAVY_ATOM_COUNT>
26

> <PUBCHEM_ATOM_DEF_STEREO_COUNT>
7

> <PUBCHEM_ATOM_UDEF_STEREO_COUNT>
0

> <PUBCHEM_BOND_DEF_STEREO_COUNT>
0

> <PUBCHEM_BOND_UDEF_STEREO_COUNT>
0

> <PUBCHEM_ISOTOPIC_ATOM_COUNT>
0

> <PUBCHEM_COMPONENT_COUNT>
1

> <PUBCHEM_CACTVS_TAUTO_COUNT>
1

> <PUBCHEM_COORDINATE_TYPE>
1
5
255

> <PUBCHEM_BONDANNOTATIONS>
13  1  6
10  28  5
11  23  5
15  24  5
7  12  6
8  27  5
9  20  6

$$$$

