93541
  -OEChem-07051213133D

 41 42  0     1  0  0  0  0  0999 V2000
   -2.7433   -3.0825   -0.0687 Cl  0  0  0  0  0  0  0  0  0  0  0  0
   -4.6644    1.6389   -1.0951 F   0  0  0  0  0  0  0  0  0  0  0  0
   -4.0047    0.7534    0.8093 F   0  0  0  0  0  0  0  0  0  0  0  0
   -5.8837   -1.2175    0.5443 F   0  0  0  0  0  0  0  0  0  0  0  0
    5.4979   -1.8992   -0.4506 F   0  0  0  0  0  0  0  0  0  0  0  0
    7.2023    2.3407    0.8455 F   0  0  0  0  0  0  0  0  0  0  0  0
   -8.0459   -0.7315    1.5465 F   0  0  0  0  0  0  0  0  0  0  0  0
   -8.6859    0.2455   -0.3061 F   0  0  0  0  0  0  0  0  0  0  0  0
   -8.7318    1.3600    1.5785 F   0  0  0  0  0  0  0  0  0  0  0  0
   -3.8112   -0.4676   -1.1047 O   0  0  0  0  0  0  0  0  0  0  0  0
   -6.7263    0.8718    0.6138 O   0  0  0  0  0  0  0  0  0  0  0  0
    2.3412    1.6328   -0.9066 O   0  0  0  0  0  0  0  0  0  0  0  0
    5.0792    2.0439   -0.6445 O   0  0  0  0  0  0  0  0  0  0  0  0
    1.6786   -0.5347   -0.2734 N   0  0  0  0  0  0  0  0  0  0  0  0
    3.9090    0.0907   -0.1549 N   0  0  0  0  0  0  0  0  0  0  0  0
   -2.4600   -0.5061   -0.8931 C   0  0  0  0  0  0  0  0  0  0  0  0
    0.2987   -0.5255   -0.4798 C   0  0  0  0  0  0  0  0  0  0  0  0
   -4.5871    0.4870   -0.3845 C   0  0  0  0  0  0  0  0  0  0  0  0
   -1.8347   -1.6572   -0.4141 C   0  0  0  0  0  0  0  0  0  0  0  0
   -1.7059    0.6353   -1.1654 C   0  0  0  0  0  0  0  0  0  0  0  0
   -0.4553   -1.6670   -0.2075 C   0  0  0  0  0  0  0  0  0  0  0  0
   -0.3265    0.6257   -0.9588 C   0  0  0  0  0  0  0  0  0  0  0  0
   -5.9808   -0.0592   -0.1619 C   0  0  1  0  0  0  0  0  0  0  0  0
    6.3183    0.2368    0.1864 C   0  0  0  0  0  0  0  0  0  0  0  0
    2.6039    0.5085   -0.4875 C   0  0  0  0  0  0  0  0  0  0  0  0
    5.0541    0.8798   -0.2541 C   0  0  0  0  0  0  0  0  0  0  0  0
    6.4785   -1.1434    0.0640 C   0  0  0  0  0  0  0  0  0  0  0  0
    7.3453    1.0131    0.7231 C   0  0  0  0  0  0  0  0  0  0  0  0
    7.6656   -1.7472    0.4781 C   0  0  0  0  0  0  0  0  0  0  0  0
    8.5325    0.4093    1.1373 C   0  0  0  0  0  0  0  0  0  0  0  0
    8.6928   -0.9709    1.0148 C   0  0  0  0  0  0  0  0  0  0  0  0
   -8.0501    0.4361    0.8698 C   0  0  0  0  0  0  0  0  0  0  0  0
   -2.1773    1.5367   -1.5475 H   0  0  0  0  0  0  0  0  0  0  0  0
    0.0340   -2.5641    0.1662 H   0  0  0  0  0  0  0  0  0  0  0  0
    0.1882    1.5464   -1.1943 H   0  0  0  0  0  0  0  0  0  0  0  0
   -6.4798   -0.2682   -1.1143 H   0  0  0  0  0  0  0  0  0  0  0  0
    2.0639   -1.4083    0.0769 H   0  0  0  0  0  0  0  0  0  0  0  0
    3.9968   -0.8545    0.2067 H   0  0  0  0  0  0  0  0  0  0  0  0
    7.7900   -2.8217    0.3826 H   0  0  0  0  0  0  0  0  0  0  0  0
    9.3320    1.0139    1.5552 H   0  0  0  0  0  0  0  0  0  0  0  0
    9.6172   -1.4410    1.3373 H   0  0  0  0  0  0  0  0  0  0  0  0
  1 19  1  0  0  0  0
  2 18  1  0  0  0  0
  3 18  1  0  0  0  0
  4 23  1  0  0  0  0
  5 27  1  0  0  0  0
  6 28  1  0  0  0  0
  7 32  1  0  0  0  0
  8 32  1  0  0  0  0
  9 32  1  0  0  0  0
 10 16  1  0  0  0  0
 10 18  1  0  0  0  0
 11 23  1  0  0  0  0
 11 32  1  0  0  0  0
 12 25  2  0  0  0  0
 13 26  2  0  0  0  0
 14 17  1  0  0  0  0
 14 25  1  0  0  0  0
 14 37  1  0  0  0  0
 15 25  1  0  0  0  0
 15 26  1  0  0  0  0
 15 38  1  0  0  0  0
 16 19  2  0  0  0  0
 16 20  1  0  0  0  0
 17 21  2  0  0  0  0
 17 22  1  0  0  0  0
 18 23  1  0  0  0  0
 19 21  1  0  0  0  0
 20 22  2  0  0  0  0
 20 33  1  0  0  0  0
 21 34  1  0  0  0  0
 22 35  1  0  0  0  0
 23 36  1  0  0  0  0
 24 26  1  0  0  0  0
 24 27  2  0  0  0  0
 24 28  1  0  0  0  0
 27 29  1  0  0  0  0
 28 30  2  0  0  0  0
 29 31  2  0  0  0  0
 29 39  1  0  0  0  0
 30 31  1  0  0  0  0
 30 40  1  0  0  0  0
 31 41  1  0  0  0  0
M  END
> <PUBCHEM_COMPOUND_CID>
93541

> <PUBCHEM_CONFORMER_RMSD>
1

> <PUBCHEM_CONFORMER_DIVERSEORDER>
1
169
86
119
112
89
131
150
147
107
97
43
163
117
157
162
105
84
99
168
61
123
129
92
59
159
155
42
49
69
141
165
102
135
103
109
44
142
167
125
173
26
58
161
145
68
53
88
153
80
95
156
170
154
116
98
110
140
120
31
27
136
144
63
65
151
66
124
21
50
41
79
81
45
128
101
78
67
121
39
164
48
36
114
29
90
113
37
35
100
118
132
70
96
111
52
160
172
138
75
152
82
133
15
137
143
104
60
91
55
72
93
146
134
115
46
56
20
106
171
64
139
74
24
127
126
108
122
73
83
47
85
77
33
158
62
76
12
17
148
54
34
30
166
13
40
149
57
22
18
130
87
14
51
32
25
94
71
28
38
4
11
3
7
6
9
2
8
5
23
19
16
10

> <PUBCHEM_MMFF94_PARTIAL_CHARGES>
40
1 -0.18
10 -0.36
11 -0.56
12 -0.57
13 -0.57
14 -0.55
15 -0.49
16 0.08
17 0.12
18 0.96
19 0.18
2 -0.34
20 -0.15
21 -0.15
22 -0.15
23 0.62
24 0.09
25 0.69
26 0.54
27 0.19
28 0.19
29 -0.15
3 -0.34
30 -0.15
31 -0.15
32 1.3
33 0.15
34 0.15
35 0.15
37 0.37
38 0.37
39 0.15
4 -0.34
40 0.15
41 0.15
5 -0.19
6 -0.19
7 -0.34
8 -0.34
9 -0.34

> <PUBCHEM_EFFECTIVE_ROTOR_COUNT>
10

> <PUBCHEM_PHARMACOPHORE_FEATURES>
8
1 10 acceptor
1 11 acceptor
1 12 acceptor
1 13 acceptor
1 14 donor
1 15 donor
6 16 17 19 20 21 22 rings
6 24 27 28 29 30 31 rings

> <PUBCHEM_HEAVY_ATOM_COUNT>
32

> <PUBCHEM_ATOM_DEF_STEREO_COUNT>
0

> <PUBCHEM_ATOM_UDEF_STEREO_COUNT>
1

> <PUBCHEM_BOND_DEF_STEREO_COUNT>
0

> <PUBCHEM_BOND_UDEF_STEREO_COUNT>
0

> <PUBCHEM_ISOTOPIC_ATOM_COUNT>
0

> <PUBCHEM_COMPONENT_COUNT>
1

> <PUBCHEM_CACTVS_TAUTO_COUNT>
5

> <PUBCHEM_CONFORMER_ID>
00016D6500000001

> <PUBCHEM_MMFF94_ENERGY>
79.7472

> <PUBCHEM_FEATURE_SELFOVERLAP>
40.646

> <PUBCHEM_SHAPE_FINGERPRINT>
10 15 18272087180298275532
10076449 9 8358257043411668579
10299344 5 12607406602379654676
10429389 143 15068631465955900610
10533779 47 18341321288400343947
106641 1 18343862204548884395
10883706 142 17458063768191277279
11135609 187 5039678045549395149
11135926 11 18130516283794535623
11181472 205 16226033535916505946
11456790 92 18261108569242569065
11476731 38 8934998195994982308
11524674 6 16056880225665354378
11991303 11 13110955414878947672
12082328 90 10880002354382919523
12539745 222 15195569014341776813
13540713 5 17842267065541513167
13673619 4 16056882420457095508
14251764 18 18408045091839685710
14344974 204 17344894223295392307
14344974 52 14562822045435496001
14444916 359 17632859741429647226
1454969 45 10375871874510495312
150020 25 7853571318514377292
15183329 4 18411986858379205230
15247644 1 14979958082005532192
15301273 46 17346601889343023111
15352257 5 15195570113215237544
1577012 14 18339079277207100572
1754911 235 8790887376027506323
1818759 1 13973962117094889217
20105231 36 17703790349508701042
20281389 69 18411140234077937180
20554085 129 15502381144981511942
21033648 29 17823153241725431450
21095086 128 14333411168739450898
21130935 74 18337678508395113866
21150785 3 10015864284428708052
21267235 1 17917994997170864564
21403212 168 18411701006530366711
21591340 7 18260271832936697735
21756936 100 18113902654898646431
21781051 124 15554439704836184528
21792934 111 18272374182597599540
22224240 67 18341894087219871127
232437 2 12031783674485790977
23559900 14 18339375050472875812
23576562 1 6482767283097380985
246663 6 15985384494985762888
3009799 131 5039949641679428671
3178227 256 18273210898060973460
3383291 50 17704070681343486259
4073 2 18059014978748106754
4093350 32 17458344178375418654
4325135 7 9943805599706632826
5104073 3 18341052892162863026
6201320 215 16516524563619804665
9953998 17 18342455937920036763

> <PUBCHEM_SHAPE_MULTIPOLES>
568.79
30.73
2.07
1.11
2.1
0.81
0.17
-4.43
14.94
-1.09
-0.03
1.01
-0.22
-0.36

> <PUBCHEM_SHAPE_SELFOVERLAP>
1216.783

> <PUBCHEM_SHAPE_VOLUME>
312.8

> <PUBCHEM_COORDINATE_TYPE>
2
5
10

$$$$

