23724592
  -OEChem-07051213083D

 79 82  0     1  0  0  0  0  0999 V2000
    3.7448    0.8834    2.3698 O   0  0  0  0  0  0  0  0  0  0  0  0
   -8.2521   -0.6820    0.8417 O   0  0  0  0  0  0  0  0  0  0  0  0
    6.2965    0.6942    1.6308 O   0  0  0  0  0  0  0  0  0  0  0  0
    0.1926    0.0951   -0.0724 C   0  0  1  0  0  0  0  0  0  0  0  0
   -0.7919    1.2710    0.1062 C   0  0  2  0  0  0  0  0  0  0  0  0
   -2.1800    0.9816   -0.4759 C   0  0  1  0  0  0  0  0  0  0  0  0
   -2.7728   -0.2716    0.2460 C   0  0  1  0  0  0  0  0  0  0  0  0
   -4.2247   -0.6118   -0.2617 C   0  0  2  0  0  0  0  0  0  0  0  0
    1.4568    0.7344    0.5523 C   0  0  2  0  0  0  0  0  0  0  0  0
   -0.3687   -1.1076    0.6986 C   0  0  0  0  0  0  0  0  0  0  0  0
   -1.7891   -1.4720    0.2289 C   0  0  0  0  0  0  0  0  0  0  0  0
   -0.0089    2.4758   -0.4069 C   0  0  0  0  0  0  0  0  0  0  0  0
   -5.1037    0.6671   -0.0676 C   0  0  1  0  0  0  0  0  0  0  0  0
   -3.1107    2.1938   -0.3342 C   0  0  0  0  0  0  0  0  0  0  0  0
    1.4462    2.1796    0.0011 C   0  0  0  0  0  0  0  0  0  0  0  0
   -4.5327    1.8889   -0.7962 C   0  0  0  0  0  0  0  0  0  0  0  0
    2.7763    0.0169    0.3065 C   0  0  1  0  0  0  0  0  0  0  0  0
    0.4416   -0.3034   -1.5489 C   0  0  0  0  0  0  0  0  0  0  0  0
   -4.8533   -1.7376    0.6093 C   0  0  0  0  0  0  0  0  0  0  0  0
   -4.1984   -1.0823   -1.7372 C   0  0  0  0  0  0  0  0  0  0  0  0
   -6.5735    0.4497   -0.4374 C   0  0  0  0  0  0  0  0  0  0  0  0
   -6.3275   -2.0029    0.3125 C   0  0  0  0  0  0  0  0  0  0  0  0
    3.9965    0.7084    0.9684 C   0  0  2  0  0  0  0  0  0  0  0  0
   -7.1358   -0.7275    0.3251 C   0  0  0  0  0  0  0  0  0  0  0  0
    2.6646   -1.4395    0.7855 C   0  0  0  0  0  0  0  0  0  0  0  0
    5.3534   -0.0220    0.8273 C   0  0  1  0  0  0  0  0  0  0  0  0
    5.8852   -0.1872   -0.6246 C   0  0  2  0  0  0  0  0  0  0  0  0
    7.1868   -1.0518   -0.6590 C   0  0  0  0  0  0  0  0  0  0  0  0
    6.0351    1.1547   -1.3546 C   0  0  0  0  0  0  0  0  0  0  0  0
    7.1027   -2.3953    0.0705 C   0  0  0  0  0  0  0  0  0  0  0  0
    7.6445   -1.3001   -2.1039 C   0  0  0  0  0  0  0  0  0  0  0  0
   -0.9357    1.4423    1.1864 H   0  0  0  0  0  0  0  0  0  0  0  0
   -2.0794    0.7780   -1.5466 H   0  0  0  0  0  0  0  0  0  0  0  0
   -2.8738    0.0037    1.3081 H   0  0  0  0  0  0  0  0  0  0  0  0
    1.2887    0.7988    1.6375 H   0  0  0  0  0  0  0  0  0  0  0  0
   -0.4029   -0.8851    1.7730 H   0  0  0  0  0  0  0  0  0  0  0  0
    0.2206   -2.0162    0.5875 H   0  0  0  0  0  0  0  0  0  0  0  0
   -2.1608   -2.2655    0.8866 H   0  0  0  0  0  0  0  0  0  0  0  0
   -1.7323   -1.9051   -0.7745 H   0  0  0  0  0  0  0  0  0  0  0  0
   -0.0884    2.5728   -1.4954 H   0  0  0  0  0  0  0  0  0  0  0  0
   -0.3620    3.4127    0.0360 H   0  0  0  0  0  0  0  0  0  0  0  0
   -5.0898    0.9064    1.0077 H   0  0  0  0  0  0  0  0  0  0  0  0
   -2.7235    3.0368   -0.9182 H   0  0  0  0  0  0  0  0  0  0  0  0
   -3.1368    2.5219    0.7129 H   0  0  0  0  0  0  0  0  0  0  0  0
    1.7865    2.8858    0.7664 H   0  0  0  0  0  0  0  0  0  0  0  0
    2.1025    2.2970   -0.8688 H   0  0  0  0  0  0  0  0  0  0  0  0
   -4.5477    1.7354   -1.8815 H   0  0  0  0  0  0  0  0  0  0  0  0
   -5.1610    2.7662   -0.5991 H   0  0  0  0  0  0  0  0  0  0  0  0
    2.9812   -0.0071   -0.7704 H   0  0  0  0  0  0  0  0  0  0  0  0
   -0.4816   -0.5626   -2.0741 H   0  0  0  0  0  0  0  0  0  0  0  0
    0.9109    0.5013   -2.1238 H   0  0  0  0  0  0  0  0  0  0  0  0
    1.0916   -1.1788   -1.6332 H   0  0  0  0  0  0  0  0  0  0  0  0
   -4.3078   -2.6791    0.4780 H   0  0  0  0  0  0  0  0  0  0  0  0
   -4.7572   -1.4659    1.6692 H   0  0  0  0  0  0  0  0  0  0  0  0
   -5.2017   -1.2462   -2.1405 H   0  0  0  0  0  0  0  0  0  0  0  0
   -3.7113   -0.3625   -2.3996 H   0  0  0  0  0  0  0  0  0  0  0  0
   -3.6669   -2.0339   -1.8408 H   0  0  0  0  0  0  0  0  0  0  0  0
   -6.7130    0.2746   -1.5085 H   0  0  0  0  0  0  0  0  0  0  0  0
   -7.1571    1.3389   -0.1704 H   0  0  0  0  0  0  0  0  0  0  0  0
   -6.4585   -2.4819   -0.6629 H   0  0  0  0  0  0  0  0  0  0  0  0
   -6.7321   -2.6826    1.0705 H   0  0  0  0  0  0  0  0  0  0  0  0
    4.1070    1.7244    0.5752 H   0  0  0  0  0  0  0  0  0  0  0  0
    3.6269   -1.9530    0.8159 H   0  0  0  0  0  0  0  0  0  0  0  0
    2.2302   -1.5120    1.7875 H   0  0  0  0  0  0  0  0  0  0  0  0
    2.0978   -2.0483    0.0813 H   0  0  0  0  0  0  0  0  0  0  0  0
    5.2722   -0.9900    1.3233 H   0  0  0  0  0  0  0  0  0  0  0  0
    5.1251   -0.7572   -1.1759 H   0  0  0  0  0  0  0  0  0  0  0  0
    3.1074    1.6103    2.4694 H   0  0  0  0  0  0  0  0  0  0  0  0
    7.9898   -0.4780   -0.1775 H   0  0  0  0  0  0  0  0  0  0  0  0
    7.0929    0.1451    1.7212 H   0  0  0  0  0  0  0  0  0  0  0  0
    6.8171    1.7676   -0.8949 H   0  0  0  0  0  0  0  0  0  0  0  0
    5.1030    1.7263   -1.3454 H   0  0  0  0  0  0  0  0  0  0  0  0
    6.2877    1.0142   -2.4093 H   0  0  0  0  0  0  0  0  0  0  0  0
    7.0089   -2.2622    1.1520 H   0  0  0  0  0  0  0  0  0  0  0  0
    6.2462   -2.9796   -0.2820 H   0  0  0  0  0  0  0  0  0  0  0  0
    8.0079   -2.9904   -0.0930 H   0  0  0  0  0  0  0  0  0  0  0  0
    7.9485   -0.3726   -2.5976 H   0  0  0  0  0  0  0  0  0  0  0  0
    6.8497   -1.7657   -2.6962 H   0  0  0  0  0  0  0  0  0  0  0  0
    8.5155   -1.9645   -2.1298 H   0  0  0  0  0  0  0  0  0  0  0  0
  1 23  1  0  0  0  0
  1 68  1  0  0  0  0
  2 24  2  0  0  0  0
  3 26  1  0  0  0  0
  3 70  1  0  0  0  0
  4  5  1  0  0  0  0
  4  9  1  0  0  0  0
  4 10  1  0  0  0  0
  4 18  1  0  0  0  0
  5  6  1  0  0  0  0
  5 12  1  0  0  0  0
  5 32  1  0  0  0  0
  6  7  1  0  0  0  0
  6 14  1  0  0  0  0
  6 33  1  0  0  0  0
  7  8  1  0  0  0  0
  7 11  1  0  0  0  0
  7 34  1  0  0  0  0
  8 13  1  0  0  0  0
  8 19  1  0  0  0  0
  8 20  1  0  0  0  0
  9 15  1  0  0  0  0
  9 17  1  0  0  0  0
  9 35  1  0  0  0  0
 10 11  1  0  0  0  0
 10 36  1  0  0  0  0
 10 37  1  0  0  0  0
 11 38  1  0  0  0  0
 11 39  1  0  0  0  0
 12 15  1  0  0  0  0
 12 40  1  0  0  0  0
 12 41  1  0  0  0  0
 13 16  1  0  0  0  0
 13 21  1  0  0  0  0
 13 42  1  0  0  0  0
 14 16  1  0  0  0  0
 14 43  1  0  0  0  0
 14 44  1  0  0  0  0
 15 45  1  0  0  0  0
 15 46  1  0  0  0  0
 16 47  1  0  0  0  0
 16 48  1  0  0  0  0
 17 23  1  0  0  0  0
 17 25  1  0  0  0  0
 17 49  1  0  0  0  0
 18 50  1  0  0  0  0
 18 51  1  0  0  0  0
 18 52  1  0  0  0  0
 19 22  1  0  0  0  0
 19 53  1  0  0  0  0
 19 54  1  0  0  0  0
 20 55  1  0  0  0  0
 20 56  1  0  0  0  0
 20 57  1  0  0  0  0
 21 24  1  0  0  0  0
 21 58  1  0  0  0  0
 21 59  1  0  0  0  0
 22 24  1  0  0  0  0
 22 60  1  0  0  0  0
 22 61  1  0  0  0  0
 23 26  1  0  0  0  0
 23 62  1  0  0  0  0
 25 63  1  0  0  0  0
 25 64  1  0  0  0  0
 25 65  1  0  0  0  0
 26 27  1  0  0  0  0
 26 66  1  0  0  0  0
 27 28  1  0  0  0  0
 27 29  1  0  0  0  0
 27 67  1  0  0  0  0
 28 30  1  0  0  0  0
 28 31  1  0  0  0  0
 28 69  1  0  0  0  0
 29 71  1  0  0  0  0
 29 72  1  0  0  0  0
 29 73  1  0  0  0  0
 30 74  1  0  0  0  0
 30 75  1  0  0  0  0
 30 76  1  0  0  0  0
 31 77  1  0  0  0  0
 31 78  1  0  0  0  0
 31 79  1  0  0  0  0
M  END
> <PUBCHEM_COMPOUND_CID>
23724592

> <PUBCHEM_CONFORMER_RMSD>
0.8

> <PUBCHEM_CONFORMER_DIVERSEORDER>
1
14
5
11
6
15
2
12
4
8
10
9
7
3
16
13

> <PUBCHEM_MMFF94_PARTIAL_CHARGES>
10
1 -0.68
2 -0.57
21 0.06
22 0.06
23 0.28
24 0.45
26 0.28
3 -0.68
68 0.4
70 0.4

> <PUBCHEM_EFFECTIVE_ROTOR_COUNT>
7

> <PUBCHEM_PHARMACOPHORE_FEATURES>
12
1 1 acceptor
1 1 donor
1 2 acceptor
1 25 hydrophobe
1 29 hydrophobe
1 3 acceptor
1 3 donor
3 28 30 31 hydrophobe
5 4 5 9 12 15 rings
6 4 5 6 7 10 11 rings
6 6 7 8 13 14 16 rings
6 8 13 19 21 22 24 rings

> <PUBCHEM_HEAVY_ATOM_COUNT>
31

> <PUBCHEM_ATOM_DEF_STEREO_COUNT>
10

> <PUBCHEM_ATOM_UDEF_STEREO_COUNT>
1

> <PUBCHEM_BOND_DEF_STEREO_COUNT>
0

> <PUBCHEM_BOND_UDEF_STEREO_COUNT>
0

> <PUBCHEM_ISOTOPIC_ATOM_COUNT>
0

> <PUBCHEM_COMPONENT_COUNT>
1

> <PUBCHEM_CACTVS_TAUTO_COUNT>
3

> <PUBCHEM_CONFORMER_ID>
016A023000000001

> <PUBCHEM_MMFF94_ENERGY>
111.6431

> <PUBCHEM_FEATURE_SELFOVERLAP>
61

> <PUBCHEM_SHAPE_FINGERPRINT>
10076449 9 18260541234823519096
10299344 5 17846779611126766018
11181472 205 15768949011672054045
11331351 85 18040998427542670041
11524674 6 16805605854502909439
117089 54 17462835808245920878
11963148 33 18342465824039005851
12166972 35 18272930510022810028
12236239 1 17346884454814372984
12516196 113 18412547604328887032
13533116 47 15626234550234465152
13673619 4 18113336436316980496
13685833 64 17967531277188349570
13782708 43 17822298980972265566
13811026 1 18410017649637660863
13914758 101 16226039016094322243
14117953 113 18342184362964263165
14251764 18 17132116831850438275
14294032 229 17843964977746790325
14347424 109 16008751295442145554
14856354 85 18060133216180078871
14955137 171 18186803547715291208
15131766 46 15649049252648426632
15183329 4 17561362889968443254
15301273 46 18113899364035650121
15328829 1 17131827647017197431
15352257 5 18334575763310523862
15419008 47 18186805785451515536
15461852 350 18411990131603539351
15510800 12 17677604441106834230
15849732 13 18335702723694155847
16087824 20 18199474432760142405
16090146 7 17345735482780988810
16728433 281 15768118863941520687
18335252 98 18409730652145371304
18608769 82 18341611491077536691
18927931 339 18341616993252084439
20105231 36 18341887485660484915
2026 5 18043526334679202566
21033648 29 17750253450990960152
21130935 74 17677056720247412119
21150785 3 16128655240862057295
21267235 1 18341891883880399905
21521721 280 12895354399795721768
21781051 124 18335696161796952398
21781055 127 17896855778173371777
21859007 373 6915989114657920754
2303208 19 18113621183789517760
23522609 53 18195780003710652476
23559900 14 18340492153395484089
23569943 247 18193273229169108562
23576562 1 17488743355642822343
24771293 8 18046363950413985392
2747138 104 18342455911448749905
3004659 81 17988925552523965748
3178227 256 17458063772850345118
335352 9 18343869918769175165
3383291 50 18272092656245039355
34797466 226 18409163282554902268
350125 39 18272654528578010221
4258327 124 15266762348536803262
439807 62 18411416246220438902
49967989 163 17417517009074936419
504579 68 16988842791802870962
5104073 3 18337685220758487721
9831232 110 18337952415523274942
9896288 288 18042680775587014417

> <PUBCHEM_SHAPE_MULTIPOLES>
620.36
22.12
2.25
1.41
8.58
0.34
-0.11
-9.87
-2.56
-0.41
-0.11
2.13
-0.07
1.35

> <PUBCHEM_SHAPE_SELFOVERLAP>
1284.621

> <PUBCHEM_SHAPE_VOLUME>
354.2

> <PUBCHEM_COORDINATE_TYPE>
2
5
10

$$$$

