119301
  -OEChem-07051212553D

 55 56  0     1  0  0  0  0  0999 V2000
   -1.8245    0.2149    0.1769 O   0  0  0  0  0  0  0  0  0  0  0  0
    2.4964    0.4762    0.6447 O   0  0  0  0  0  0  0  0  0  0  0  0
    0.7090   -0.9357    0.1391 O   0  0  0  0  0  0  0  0  0  0  0  0
   -3.5513    1.2609   -0.9926 O   0  0  0  0  0  0  0  0  0  0  0  0
   -1.5475   -3.0627    1.7876 O   0  0  0  0  0  0  0  0  0  0  0  0
   -3.6363   -3.4543   -0.1719 O   0  0  0  0  0  0  0  0  0  0  0  0
   -5.2059   -0.9845   -0.5141 O   0  0  0  0  0  0  0  0  0  0  0  0
    2.4567   -2.5712   -1.3705 O   0  0  0  0  0  0  0  0  0  0  0  0
    4.7409   -1.0475   -2.4387 O   0  0  0  0  0  0  0  0  0  0  0  0
    6.0258    0.4594   -0.3330 O   0  0  0  0  0  0  0  0  0  0  0  0
    3.4704    2.1850    2.5650 O   0  0  0  0  0  0  0  0  0  0  0  0
   -0.4618    2.4204   -0.3341 N   0  0  0  0  0  0  0  0  0  0  0  0
   -1.4435   -0.7322    1.1764 C   0  0  1  0  0  0  0  0  0  0  0  0
   -1.8580   -2.1411    0.7457 C   0  0  2  0  0  0  0  0  0  0  0  0
   -3.3568   -2.1989    0.4497 C   0  0  1  0  0  0  0  0  0  0  0  0
   -3.7810   -1.0638   -0.4821 C   0  0  2  0  0  0  0  0  0  0  0  0
    2.7392   -1.1992   -1.0963 C   0  0  1  0  0  0  0  0  0  0  0  0
    2.1284   -0.8462    0.2598 C   0  0  1  0  0  0  0  0  0  0  0  0
    4.2526   -0.9827   -1.0979 C   0  0  2  0  0  0  0  0  0  0  0  0
    4.6159    0.3887   -0.5282 C   0  0  1  0  0  0  0  0  0  0  0  0
   -3.2372    0.2820   -0.0026 C   0  0  1  0  0  0  0  0  0  0  0  0
    3.9077    0.6268    0.8077 C   0  0  1  0  0  0  0  0  0  0  0  0
    0.0662   -0.6204    1.3642 C   0  0  0  0  0  0  0  0  0  0  0  0
    4.1618    2.0341    1.3386 C   0  0  0  0  0  0  0  0  0  0  0  0
   -3.0764    2.5445   -0.6178 C   0  0  0  0  0  0  0  0  0  0  0  0
   -3.7347    2.9362    0.7047 C   0  0  0  0  0  0  0  0  0  0  0  0
   -3.4418    3.5362   -1.7217 C   0  0  0  0  0  0  0  0  0  0  0  0
   -1.6143    2.4751   -0.4587 C   0  0  0  0  0  0  0  0  0  0  0  0
   -1.9186   -0.4631    2.1292 H   0  0  0  0  0  0  0  0  0  0  0  0
   -1.3085   -2.4611   -0.1476 H   0  0  0  0  0  0  0  0  0  0  0  0
   -3.9450   -2.1735    1.3754 H   0  0  0  0  0  0  0  0  0  0  0  0
   -3.4478   -1.2757   -1.5057 H   0  0  0  0  0  0  0  0  0  0  0  0
    2.2705   -0.6131   -1.8958 H   0  0  0  0  0  0  0  0  0  0  0  0
    2.4515   -1.5630    1.0271 H   0  0  0  0  0  0  0  0  0  0  0  0
    4.7576   -1.7845   -0.5453 H   0  0  0  0  0  0  0  0  0  0  0  0
    4.3455    1.1673   -1.2520 H   0  0  0  0  0  0  0  0  0  0  0  0
   -3.7373    0.5163    0.9441 H   0  0  0  0  0  0  0  0  0  0  0  0
    4.2486   -0.0892    1.5680 H   0  0  0  0  0  0  0  0  0  0  0  0
    0.4078   -1.2996    2.1537 H   0  0  0  0  0  0  0  0  0  0  0  0
    0.3075    0.4077    1.6570 H   0  0  0  0  0  0  0  0  0  0  0  0
    3.7870    2.7967    0.6479 H   0  0  0  0  0  0  0  0  0  0  0  0
    5.2257    2.2133    1.5184 H   0  0  0  0  0  0  0  0  0  0  0  0
   -2.0342   -2.7905    2.5843 H   0  0  0  0  0  0  0  0  0  0  0  0
   -3.3448   -4.1528    0.4389 H   0  0  0  0  0  0  0  0  0  0  0  0
   -5.4431   -0.2446   -1.0993 H   0  0  0  0  0  0  0  0  0  0  0  0
    2.8650   -3.1090   -0.6707 H   0  0  0  0  0  0  0  0  0  0  0  0
    5.7006   -0.8929   -2.4067 H   0  0  0  0  0  0  0  0  0  0  0  0
    6.2742   -0.2232    0.3136 H   0  0  0  0  0  0  0  0  0  0  0  0
   -4.8101    2.7240    0.6942 H   0  0  0  0  0  0  0  0  0  0  0  0
   -3.3000    2.4317    1.5754 H   0  0  0  0  0  0  0  0  0  0  0  0
   -3.6068    4.0089    0.8968 H   0  0  0  0  0  0  0  0  0  0  0  0
   -4.5277    3.5739   -1.8654 H   0  0  0  0  0  0  0  0  0  0  0  0
   -3.0117    3.2288   -2.6826 H   0  0  0  0  0  0  0  0  0  0  0  0
   -3.0848    4.5476   -1.4984 H   0  0  0  0  0  0  0  0  0  0  0  0
    2.5275    2.0194    2.3936 H   0  0  0  0  0  0  0  0  0  0  0  0
  1 13  1  0  0  0  0
  1 21  1  0  0  0  0
  2 18  1  0  0  0  0
  2 22  1  0  0  0  0
  3 18  1  0  0  0  0
  3 23  1  0  0  0  0
  4 21  1  0  0  0  0
  4 25  1  0  0  0  0
  5 14  1  0  0  0  0
  5 43  1  0  0  0  0
  6 15  1  0  0  0  0
  6 44  1  0  0  0  0
  7 16  1  0  0  0  0
  7 45  1  0  0  0  0
  8 17  1  0  0  0  0
  8 46  1  0  0  0  0
  9 19  1  0  0  0  0
  9 47  1  0  0  0  0
 10 20  1  0  0  0  0
 10 48  1  0  0  0  0
 11 24  1  0  0  0  0
 11 55  1  0  0  0  0
 12 28  3  0  0  0  0
 13 14  1  0  0  0  0
 13 23  1  0  0  0  0
 13 29  1  0  0  0  0
 14 15  1  0  0  0  0
 14 30  1  0  0  0  0
 15 16  1  0  0  0  0
 15 31  1  0  0  0  0
 16 21  1  0  0  0  0
 16 32  1  0  0  0  0
 17 18  1  0  0  0  0
 17 19  1  0  0  0  0
 17 33  1  0  0  0  0
 18 34  1  0  0  0  0
 19 20  1  0  0  0  0
 19 35  1  0  0  0  0
 20 22  1  0  0  0  0
 20 36  1  0  0  0  0
 21 37  1  0  0  0  0
 22 24  1  0  0  0  0
 22 38  1  0  0  0  0
 23 39  1  0  0  0  0
 23 40  1  0  0  0  0
 24 41  1  0  0  0  0
 24 42  1  0  0  0  0
 25 26  1  0  0  0  0
 25 27  1  0  0  0  0
 25 28  1  0  0  0  0
 26 49  1  0  0  0  0
 26 50  1  0  0  0  0
 26 51  1  0  0  0  0
 27 52  1  0  0  0  0
 27 53  1  0  0  0  0
 27 54  1  0  0  0  0
M  END
> <PUBCHEM_COMPOUND_CID>
119301

> <PUBCHEM_CONFORMER_RMSD>
1

> <PUBCHEM_CONFORMER_DIVERSEORDER>
1
30
25
34
23
7
28
11
37
22
39
42
14
45
40
6
38
27
44
46
15
36
31
43
12
20
17
33
16
32
26
35
29
9
21
41
4
24
10
13
19
2
3
8
5
18

> <PUBCHEM_MMFF94_PARTIAL_CHARGES>
33
1 -0.56
10 -0.68
11 -0.68
12 -0.56
13 0.28
14 0.28
15 0.28
16 0.28
17 0.28
18 0.56
19 0.28
2 -0.56
20 0.28
21 0.56
22 0.28
23 0.28
24 0.28
25 0.48
28 0.36
3 -0.56
4 -0.56
43 0.4
44 0.4
45 0.4
46 0.4
47 0.4
48 0.4
5 -0.68
55 0.4
6 -0.68
7 -0.68
8 -0.68
9 -0.68

> <PUBCHEM_EFFECTIVE_ROTOR_COUNT>
8.4

> <PUBCHEM_PHARMACOPHORE_FEATURES>
22
1 1 acceptor
1 10 acceptor
1 10 donor
1 11 acceptor
1 11 donor
1 12 acceptor
1 2 acceptor
1 3 acceptor
1 4 acceptor
1 5 acceptor
1 5 donor
1 6 acceptor
1 6 donor
1 7 acceptor
1 7 donor
1 8 acceptor
1 8 donor
1 9 acceptor
1 9 donor
3 25 26 27 hydrophobe
6 1 13 14 15 16 21 rings
6 2 17 18 19 20 22 rings

> <PUBCHEM_HEAVY_ATOM_COUNT>
28

> <PUBCHEM_ATOM_DEF_STEREO_COUNT>
10

> <PUBCHEM_ATOM_UDEF_STEREO_COUNT>
0

> <PUBCHEM_BOND_DEF_STEREO_COUNT>
0

> <PUBCHEM_BOND_UDEF_STEREO_COUNT>
0

> <PUBCHEM_ISOTOPIC_ATOM_COUNT>
0

> <PUBCHEM_COMPONENT_COUNT>
1

> <PUBCHEM_CACTVS_TAUTO_COUNT>
1

> <PUBCHEM_CONFORMER_ID>
0001D20500000001

> <PUBCHEM_MMFF94_ENERGY>
89.6137

> <PUBCHEM_FEATURE_SELFOVERLAP>
111.768

> <PUBCHEM_SHAPE_FINGERPRINT>
10498660 4 18199473331950282133
10670039 82 18060129973104847782
10937287 8 17911808173948326717
11595378 159 17560806549600691752
12173636 292 18272096053885487991
12596602 18 16271638980376273528
12788726 201 18272657844234617339
13034934 17 17971489407226453608
13402501 40 18335425617079155616
13583140 156 18186519912733703038
13911987 19 17171241707690256088
13944108 23 16684573044356990229
14251757 17 18334015025054029784
14251764 38 18342172224864880124
14790565 3 17761487389379803505
15463212 79 18059574749745136451
15961568 22 17983299231624826092
17349148 13 17346323656787260210
20600515 1 17415013352230384139
20645477 56 18410851101184769049
20645477 70 17458337564025198398
20693207 138 18187917383227297782
21033650 10 18058714906024511624
22393880 68 18335132146433179006
23557571 272 18411698755671896544
23559900 14 18118129301775764074
341906 21 18131360695738941192
46194498 28 18187642458455658108
469060 322 17274240821864869897
497634 4 17458054937875822499
508706 21 18413108355338089500
5252454 2 18056476385896719441
5281201 14 18114176445693431012
5283173 99 18411702114441765056
5895379 119 18059844074427957980
6913067 236 17898869958204007138
7399639 24 18116441331993009554
7808743 9 18130781296097959460
9709674 26 18408325475393796232

> <PUBCHEM_SHAPE_MULTIPOLES>
506.68
11.35
4
1.69
8.76
0.66
0.1
1.93
-2.78
-5.16
-0.03
1.66
0.26
3

> <PUBCHEM_SHAPE_SELFOVERLAP>
1040.798

> <PUBCHEM_SHAPE_VOLUME>
285.5

> <PUBCHEM_COORDINATE_TYPE>
2
5
10

$$$$

