51090929
  -OEChem-06241223003D

 42 43  0     1  0  0  0  0  0999 V2000
   -7.0993    0.6553    0.6071 F   0  0  0  0  0  0  0  0  0  0  0  0
   -5.3186    1.5844    1.4540 F   0  0  0  0  0  0  0  0  0  0  0  0
   -5.6081    1.5422   -0.7126 F   0  0  0  0  0  0  0  0  0  0  0  0
    1.7897   -1.6190    1.2519 O   0  0  0  0  0  0  0  0  0  0  0  0
    2.4391    1.9112   -1.8688 O   0  5  0  0  0  0  0  0  0  0  0  0
    1.4198    1.6095    0.0519 O   0  0  0  0  0  0  0  0  0  0  0  0
   -3.6321   -0.3128    0.1788 N   0  0  1  0  0  0  0  0  0  0  0  0
    0.6741   -1.9991   -0.7496 N   0  0  0  0  0  0  0  0  0  0  0  0
    2.4412    1.5389   -0.6716 N   0  3  0  0  0  0  0  0  0  0  0  0
   -1.4842   -1.1497    0.0048 C   0  0  1  0  0  0  0  0  0  0  0  0
   -1.7895   -0.4094   -1.2996 C   0  0  0  0  0  0  0  0  0  0  0  0
   -2.8608   -1.4965    0.5599 C   0  0  0  0  0  0  0  0  0  0  0  0
   -3.2712   -0.0483   -1.2156 C   0  0  0  0  0  0  0  0  0  0  0  0
   -0.5913   -2.3649   -0.1823 C   0  0  0  0  0  0  0  0  0  0  0  0
   -5.0641   -0.4990    0.3580 C   0  0  0  0  0  0  0  0  0  0  0  0
   -5.7715    0.8355    0.4261 C   0  0  0  0  0  0  0  0  0  0  0  0
    1.7789   -1.6505    0.0241 C   0  0  0  0  0  0  0  0  0  0  0  0
    2.9850   -1.3156   -0.8323 C   0  0  0  0  0  0  0  0  0  0  0  0
    3.9307   -0.3441   -0.1771 C   0  0  0  0  0  0  0  0  0  0  0  0
    3.6426    1.0193   -0.1157 C   0  0  0  0  0  0  0  0  0  0  0  0
    5.1152   -0.8321    0.3745 C   0  0  0  0  0  0  0  0  0  0  0  0
    4.5389    1.8947    0.4974 C   0  0  0  0  0  0  0  0  0  0  0  0
    6.0117    0.0433    0.9877 C   0  0  0  0  0  0  0  0  0  0  0  0
    5.7236    1.4067    1.0491 C   0  0  0  0  0  0  0  0  0  0  0  0
   -0.9924   -0.4429    0.6893 H   0  0  0  0  0  0  0  0  0  0  0  0
   -1.1669    0.4891   -1.3788 H   0  0  0  0  0  0  0  0  0  0  0  0
   -1.6042   -1.0254   -2.1868 H   0  0  0  0  0  0  0  0  0  0  0  0
   -2.8309   -1.6343    1.6456 H   0  0  0  0  0  0  0  0  0  0  0  0
   -3.2602   -2.4081    0.0965 H   0  0  0  0  0  0  0  0  0  0  0  0
   -3.4285    0.9988   -1.4910 H   0  0  0  0  0  0  0  0  0  0  0  0
   -3.8339   -0.6787   -1.9158 H   0  0  0  0  0  0  0  0  0  0  0  0
   -0.4267   -2.8645    0.7790 H   0  0  0  0  0  0  0  0  0  0  0  0
   -1.0524   -3.0910   -0.8610 H   0  0  0  0  0  0  0  0  0  0  0  0
   -5.2523   -1.0076    1.3121 H   0  0  0  0  0  0  0  0  0  0  0  0
   -5.5027   -1.1310   -0.4237 H   0  0  0  0  0  0  0  0  0  0  0  0
    0.7570   -2.0017   -1.7620 H   0  0  0  0  0  0  0  0  0  0  0  0
    2.6729   -0.9246   -1.8082 H   0  0  0  0  0  0  0  0  0  0  0  0
    3.4972   -2.2627   -1.0462 H   0  0  0  0  0  0  0  0  0  0  0  0
    5.3539   -1.8917    0.3373 H   0  0  0  0  0  0  0  0  0  0  0  0
    4.3281    2.9599    0.5530 H   0  0  0  0  0  0  0  0  0  0  0  0
    6.9338   -0.3366    1.4178 H   0  0  0  0  0  0  0  0  0  0  0  0
    6.4216    2.0882    1.5266 H   0  0  0  0  0  0  0  0  0  0  0  0
  1 16  1  0  0  0  0
  2 16  1  0  0  0  0
  3 16  1  0  0  0  0
  4 17  2  0  0  0  0
  5  9  1  0  0  0  0
  6  9  2  0  0  0  0
  7 12  1  0  0  0  0
  7 13  1  0  0  0  0
  7 15  1  0  0  0  0
  8 14  1  0  0  0  0
  8 17  1  0  0  0  0
  8 36  1  0  0  0  0
  9 20  1  0  0  0  0
 10 11  1  0  0  0  0
 10 12  1  0  0  0  0
 10 14  1  0  0  0  0
 10 25  1  0  0  0  0
 11 13  1  0  0  0  0
 11 26  1  0  0  0  0
 11 27  1  0  0  0  0
 12 28  1  0  0  0  0
 12 29  1  0  0  0  0
 13 30  1  0  0  0  0
 13 31  1  0  0  0  0
 14 32  1  0  0  0  0
 14 33  1  0  0  0  0
 15 16  1  0  0  0  0
 15 34  1  0  0  0  0
 15 35  1  0  0  0  0
 17 18  1  0  0  0  0
 18 19  1  0  0  0  0
 18 37  1  0  0  0  0
 18 38  1  0  0  0  0
 19 20  1  0  0  0  0
 19 21  2  0  0  0  0
 20 22  2  0  0  0  0
 21 23  1  0  0  0  0
 21 39  1  0  0  0  0
 22 24  1  0  0  0  0
 22 40  1  0  0  0  0
 23 24  2  0  0  0  0
 23 41  1  0  0  0  0
 24 42  1  0  0  0  0
M  CHG  2   5  -1   9   1
M  END
> <PUBCHEM_COMPOUND_CID>
51090929

> <PUBCHEM_CONFORMER_RMSD>
1.2

> <PUBCHEM_CONFORMER_DIVERSEORDER>
1
56
42
63
44
110
68
6
23
81
78
33
15
47
4
94
102
101
19
82
69
52
90
130
104
77
87
95
10
122
29
88
118
76
55
123
103
73
16
20
131
119
40
112
109
5
27
71
129
98
121
8
108
24
89
124
32
9
105
54
2
92
91
125
96
120
37
59
114
38
49
58
75
46
97
53
79
43
128
21
127
111
86
66
113
93
13
100
57
50
3
126
35
31
7
80
115
99
83
12
36
107
67
30
60
41
106
117
65
51
11
74
70
25
45
72
116
62
17
61
28
14
22
85
39
48
84
18
26
64
34

> <PUBCHEM_MMFF94_PARTIAL_CHARGES>
27
1 -0.34
12 0.27
13 0.27
14 0.3
15 0.27
16 1.02
17 0.57
18 0.2
19 -0.14
2 -0.34
20 0.13
21 -0.15
22 -0.15
23 -0.15
24 -0.15
3 -0.34
36 0.37
39 0.15
4 -0.57
40 0.15
41 0.15
42 0.15
5 -0.52
6 -0.52
7 -0.81
8 -0.73
9 0.91

> <PUBCHEM_EFFECTIVE_ROTOR_COUNT>
9

> <PUBCHEM_PHARMACOPHORE_FEATURES>
8
1 4 acceptor
1 5 acceptor
1 5 anion
1 6 acceptor
1 7 cation
1 8 donor
5 7 10 11 12 13 rings
6 19 20 21 22 23 24 rings

> <PUBCHEM_HEAVY_ATOM_COUNT>
24

> <PUBCHEM_ATOM_DEF_STEREO_COUNT>
0

> <PUBCHEM_ATOM_UDEF_STEREO_COUNT>
1

> <PUBCHEM_BOND_DEF_STEREO_COUNT>
0

> <PUBCHEM_BOND_UDEF_STEREO_COUNT>
0

> <PUBCHEM_ISOTOPIC_ATOM_COUNT>
0

> <PUBCHEM_COMPONENT_COUNT>
1

> <PUBCHEM_CACTVS_TAUTO_COUNT>
2

> <PUBCHEM_CONFORMER_ID>
030B95F100000001

> <PUBCHEM_MMFF94_ENERGY>
52.8035

> <PUBCHEM_FEATURE_SELFOVERLAP>
40.676

> <PUBCHEM_SHAPE_FINGERPRINT>
10319926 262 17704064093090546107
10688039 33 17561085842781781660
10906281 52 17986109618469329680
11069576 57 5977569143233637964
11646440 116 18410008840580979440
11724838 91 18411420584079216791
12236239 1 17749112188044322767
12403259 118 18270398270029225835
12633257 1 17418094273831749922
13167372 99 18260548956705141298
13402501 40 18412548725336547749
13668630 136 10952046762871008425
13955234 65 18268428125634301171
14123256 34 10591762116637915641
14251764 30 13398636047479049948
14341114 176 17846781810477004206
14464042 87 17894625993718338097
15238133 3 18060695079316714614
15419008 145 18269002053945448992
17810953 82 18410006628830811052
20511986 3 17822025181080974818
20715895 44 18334293171536405498
21033648 29 18189630362751894802
21150785 3 16877670054674791319
21298829 104 18187359956628634881
21304253 335 18337391539880418436
21421861 104 17988102053713704762
21774942 28 16878215480539491176
23559900 14 18116422825248723087
2838139 119 18334867107747072917
3472631 163 17385444284687708244
351380 3 11312056539132937939
3680242 22 18201722881432849322
465052 167 12535350108312492218
5104073 3 18200321996466459090
5385378 56 18412266172887801690
653340 110 18192712465000469592
7970288 3 11311791569837378584

> <PUBCHEM_SHAPE_MULTIPOLES>
439.54
16.18
2.29
1.2
12.95
0.09
-0.21
-8.38
5.16
-0.66
-0.04
0
-0.27
-0.29

> <PUBCHEM_SHAPE_SELFOVERLAP>
917.908

> <PUBCHEM_SHAPE_VOLUME>
251.4

> <PUBCHEM_COORDINATE_TYPE>
2
5
10

$$$$

