17396301
  -OEChem-06241222553D

 42 46  0     0  0  0  0  0  0999 V2000
   -7.4113   -1.5571   -0.0713 S   0  0  0  0  0  0  0  0  0  0  0  0
    8.6024   -1.0130   -0.0674 S   0  0  0  0  0  0  0  0  0  0  0  0
   -1.4425    1.4135   -0.8900 O   0  0  0  0  0  0  0  0  0  0  0  0
   -8.5628    2.0450    0.3565 O   0  0  0  0  0  0  0  0  0  0  0  0
    6.8721    0.8618    0.1932 N   0  0  0  0  0  0  0  0  0  0  0  0
   -6.4019    1.3558    0.0857 N   0  0  0  0  0  0  0  0  0  0  0  0
   -0.7072   -0.6381   -0.0206 N   0  0  0  0  0  0  0  0  0  0  0  0
    5.7889   -1.0732   -0.0771 N   0  0  0  0  0  0  0  0  0  0  0  0
   -5.4095    0.3649   -0.0434 C   0  0  0  0  0  0  0  0  0  0  0  0
    4.9006   -0.0236    0.0690 C   0  0  0  0  0  0  0  0  0  0  0  0
    3.4734   -0.1800    0.0469 C   0  0  0  0  0  0  0  0  0  0  0  0
   -5.7229   -0.9980   -0.1024 C   0  0  0  0  0  0  0  0  0  0  0  0
   -3.0605   -0.1596   -0.3255 C   0  0  0  0  0  0  0  0  0  0  0  0
   -4.0784    0.7806   -0.1700 C   0  0  0  0  0  0  0  0  0  0  0  0
    5.5513    1.1878    0.2382 C   0  0  0  0  0  0  0  0  0  0  0  0
    0.7006   -0.4834    0.0025 C   0  0  0  0  0  0  0  0  0  0  0  0
    6.9495   -0.4845    0.0054 C   0  0  0  0  0  0  0  0  0  0  0  0
   -4.6959   -1.9354   -0.2697 C   0  0  0  0  0  0  0  0  0  0  0  0
   -3.3687   -1.5166   -0.3723 C   0  0  0  0  0  0  0  0  0  0  0  0
    2.6657    0.8576   -0.4183 C   0  0  0  0  0  0  0  0  0  0  0  0
    2.8948   -1.3693    0.4901 C   0  0  0  0  0  0  0  0  0  0  0  0
   -1.6788    0.2777   -0.4476 C   0  0  0  0  0  0  0  0  0  0  0  0
   -8.1042   -0.2242    0.9154 C   0  0  0  0  0  0  0  0  0  0  0  0
    1.2794    0.7059   -0.4406 C   0  0  0  0  0  0  0  0  0  0  0  0
    1.5083   -1.5210    0.4680 C   0  0  0  0  0  0  0  0  0  0  0  0
   -7.7279    1.1379    0.3922 C   0  0  0  0  0  0  0  0  0  0  0  0
    8.0757    1.5193    0.2855 C   0  0  0  0  0  0  0  0  0  0  0  0
    9.1099    0.6694    0.1675 C   0  0  0  0  0  0  0  0  0  0  0  0
   -3.8437    1.8426   -0.1342 H   0  0  0  0  0  0  0  0  0  0  0  0
    5.2093    2.2034    0.3864 H   0  0  0  0  0  0  0  0  0  0  0  0
   -4.9165   -2.9983   -0.3378 H   0  0  0  0  0  0  0  0  0  0  0  0
   -2.6180   -2.2837   -0.5374 H   0  0  0  0  0  0  0  0  0  0  0  0
    3.0853    1.7921   -0.7826 H   0  0  0  0  0  0  0  0  0  0  0  0
    3.5046   -2.1899    0.8604 H   0  0  0  0  0  0  0  0  0  0  0  0
   -6.1162    2.3168   -0.0834 H   0  0  0  0  0  0  0  0  0  0  0  0
   -7.7617   -0.3084    1.9521 H   0  0  0  0  0  0  0  0  0  0  0  0
   -9.1944   -0.3192    0.9078 H   0  0  0  0  0  0  0  0  0  0  0  0
    0.7214    1.5513   -0.8171 H   0  0  0  0  0  0  0  0  0  0  0  0
    1.0704   -2.4528    0.8168 H   0  0  0  0  0  0  0  0  0  0  0  0
   -1.0180   -1.5239    0.3684 H   0  0  0  0  0  0  0  0  0  0  0  0
    8.1227    2.5873    0.4345 H   0  0  0  0  0  0  0  0  0  0  0  0
   10.1536    0.9475    0.2069 H   0  0  0  0  0  0  0  0  0  0  0  0
  1 12  1  0  0  0  0
  1 23  1  0  0  0  0
  2 17  1  0  0  0  0
  2 28  1  0  0  0  0
  3 22  2  0  0  0  0
  4 26  2  0  0  0  0
  5 15  1  0  0  0  0
  5 17  1  0  0  0  0
  5 27  1  0  0  0  0
  6  9  1  0  0  0  0
  6 26  1  0  0  0  0
  6 35  1  0  0  0  0
  7 16  1  0  0  0  0
  7 22  1  0  0  0  0
  7 40  1  0  0  0  0
  8 10  1  0  0  0  0
  8 17  2  0  0  0  0
  9 12  2  0  0  0  0
  9 14  1  0  0  0  0
 10 11  1  0  0  0  0
 10 15  2  0  0  0  0
 11 20  2  0  0  0  0
 11 21  1  0  0  0  0
 12 18  1  0  0  0  0
 13 14  2  0  0  0  0
 13 19  1  0  0  0  0
 13 22  1  0  0  0  0
 14 29  1  0  0  0  0
 15 30  1  0  0  0  0
 16 24  2  0  0  0  0
 16 25  1  0  0  0  0
 18 19  2  0  0  0  0
 18 31  1  0  0  0  0
 19 32  1  0  0  0  0
 20 24  1  0  0  0  0
 20 33  1  0  0  0  0
 21 25  2  0  0  0  0
 21 34  1  0  0  0  0
 23 26  1  0  0  0  0
 23 36  1  0  0  0  0
 23 37  1  0  0  0  0
 24 38  1  0  0  0  0
 25 39  1  0  0  0  0
 27 28  2  0  0  0  0
 27 41  1  0  0  0  0
 28 42  1  0  0  0  0
M  END
> <PUBCHEM_COMPOUND_CID>
17396301

> <PUBCHEM_CONFORMER_RMSD>
0.8

> <PUBCHEM_CONFORMER_DIVERSEORDER>
1
5
8
3
9
2
6
7
4
10

> <PUBCHEM_MMFF94_PARTIAL_CHARGES>
40
1 -0.33
10 0.17
11 0.05
12 0.1
13 0.09
14 -0.15
15 -0.3
16 0.12
17 0.24
18 -0.15
19 -0.15
2 -0.16
20 -0.15
21 -0.15
22 0.54
23 0.29
24 -0.15
25 -0.15
26 0.57
27 -0.18
28 -0.05
29 0.15
3 -0.57
30 0.15
31 0.15
32 0.15
33 0.15
34 0.15
35 0.37
38 0.15
39 0.15
4 -0.57
40 0.37
41 0.15
42 0.15
5 0.33
6 -0.55
7 -0.55
8 -0.57
9 0.12

> <PUBCHEM_EFFECTIVE_ROTOR_COUNT>
4.6

> <PUBCHEM_PHARMACOPHORE_FEATURES>
10
1 3 acceptor
1 4 acceptor
1 6 donor
1 7 donor
3 5 8 17 cation
5 2 5 17 27 28 rings
5 5 8 10 15 17 rings
6 1 6 9 12 23 26 rings
6 11 16 20 21 24 25 rings
6 9 12 13 14 18 19 rings

> <PUBCHEM_HEAVY_ATOM_COUNT>
28

> <PUBCHEM_ATOM_DEF_STEREO_COUNT>
0

> <PUBCHEM_ATOM_UDEF_STEREO_COUNT>
0

> <PUBCHEM_BOND_DEF_STEREO_COUNT>
0

> <PUBCHEM_BOND_UDEF_STEREO_COUNT>
0

> <PUBCHEM_ISOTOPIC_ATOM_COUNT>
0

> <PUBCHEM_COMPONENT_COUNT>
1

> <PUBCHEM_CACTVS_TAUTO_COUNT>
4

> <PUBCHEM_CONFORMER_ID>
0109724D00000001

> <PUBCHEM_MMFF94_ENERGY>
88.5825

> <PUBCHEM_FEATURE_SELFOVERLAP>
51.014

> <PUBCHEM_SHAPE_FINGERPRINT>
10 15 18272370888763306449
10050765 1 18124598849520046190
100830 39 18336546118523889065
10299344 5 18413671305185976750
106641 1 18343015589406971227
11135926 11 18131079229210299039
11181472 205 16805872008956286642
11315181 36 17894346675490176675
11524674 6 16950283979309817599
11638347 137 16343991325688680000
12089408 11 18409730651544062486
12236239 1 18408605855058797055
12539765 74 18335132069503316374
13885169 127 18408603673679562765
14118638 360 15913059753887039249
14150022 121 18335137643917964857
14251764 18 18342457032698769303
14251764 46 18335421265902608186
14394314 77 18343020026024239953
14428016 248 18060412496159450436
14849402 71 18269552750215256252
14933364 13 18408042905622177888
15247644 1 15339116832310056633
15461852 350 17095531673779794309
15510794 2 17967527982447748494
1577012 14 18341057384409088803
15840311 113 18201997704223007204
15849732 13 18408323264086779262
16087824 20 18339079410847705405
16989713 51 16951420815137072703
18608769 82 18412829074920712613
19315958 150 18113892788610110103
21267235 1 18272368663490309607
21362267 2 16733282162246930472
21362267 313 18336830909509972298
21792934 111 17676778634896333840
21792961 116 16443057339982650538
22224240 67 17846781801929436770
232437 2 18408885126759736151
23576562 1 15430620341520425345
249057 3 15285645365479261608
3178227 256 16128653050755744992
4073 2 18130221562705985850
4325135 7 18343022181364346294
4339292 15 16226621676649886159
44280117 145 18190182273948976775
44802255 64 14851888110744536893
45270241 37 18260824875154746540
5028188 123 18260825948263431582
5758199 1 18202565077132744162
636775 72 18114459072408030873
636775 8 7709445140651796677
6691757 9 17240760658824863911
67123 10 18410293596801472867
9663363 56 16128378169387108423
9953998 17 18272931618477130851

> <PUBCHEM_SHAPE_MULTIPOLES>
552.26
31.63
1.75
0.73
10.29
0.03
-0.01
-5.57
-4.34
-1.61
-0.03
-0.29
-0.01
-0.31

> <PUBCHEM_SHAPE_SELFOVERLAP>
1212.746

> <PUBCHEM_SHAPE_VOLUME>
299.3

> <PUBCHEM_COORDINATE_TYPE>
2
5
10

$$$$

