5288382
  -OEChem-07051213012D

 80 81  0     1  0  0  0  0  0999 V2000
    8.4382    2.9513    0.0000 O   0  0  0  0  0  0  0  0  0  0  0  0
    6.7061    3.9513    0.0000 O   0  0  0  0  0  0  0  0  0  0  0  0
    4.2091   -0.6385    0.0000 O   0  0  0  0  0  0  0  0  0  0  0  0
   10.1702    0.9513    0.0000 O   0  0  0  0  0  0  0  0  0  0  0  0
    5.5813   -1.9288    0.0000 O   0  0  0  0  0  0  0  0  0  0  0  0
    8.3042   -1.5487    0.0000 O   0  0  0  0  0  0  0  0  0  0  0  0
   11.9023   -0.0487    0.0000 O   0  0  0  0  0  0  0  0  0  0  0  0
    3.5463    0.9617    0.0000 O   0  0  0  0  0  0  0  0  0  0  0  0
    8.6564   -4.2613    0.0000 O   0  0  0  0  0  0  0  0  0  0  0  0
   10.1702   -3.0487    0.0000 N   0  0  0  0  0  0  0  0  0  0  0  0
    2.4919   -0.4124    0.0000 N   0  0  0  0  0  0  0  0  0  0  0  0
    7.5722    2.4513    0.0000 C   0  0  1  0  0  0  0  0  0  0  0  0
    7.5722    1.4513    0.0000 C   0  0  0  0  0  0  0  0  0  0  0  0
    8.4382    0.9513    0.0000 C   0  0  1  0  0  0  0  0  0  0  0  0
    6.7061    2.9513    0.0000 C   0  0  1  0  0  0  0  0  0  0  0  0
    5.8401    2.4513    0.0000 C   0  0  2  0  0  0  0  0  0  0  0  0
    8.4382   -0.0487    0.0000 C   0  0  0  0  0  0  0  0  0  0  0  0
    9.3042    1.4513    0.0000 C   0  0  0  0  0  0  0  0  0  0  0  0
    5.8401    1.4513    0.0000 C   0  0  0  0  0  0  0  0  0  0  0  0
    4.9741    2.9513    0.0000 C   0  0  0  0  0  0  0  0  0  0  0  0
    9.3042   -0.5487    0.0000 C   0  0  0  0  0  0  0  0  0  0  0  0
    5.1330    0.7442    0.0000 C   0  0  0  0  0  0  0  0  0  0  0  0
    5.1330   -0.2558    0.0000 C   0  0  1  0  0  0  0  0  0  0  0  0
   10.1702   -0.0487    0.0000 C   0  0  0  0  0  0  0  0  0  0  0  0
    9.3042   -1.5487    0.0000 C   0  0  0  0  0  0  0  0  0  0  0  0
    8.4382    3.9513    0.0000 C   0  0  0  0  0  0  0  0  0  0  0  0
    5.8401   -0.9629    0.0000 C   0  0  2  0  0  0  0  0  0  0  0  0
    4.2091    1.1269    0.0000 C   0  0  0  0  0  0  0  0  0  0  0  0
   10.1702   -2.0487    0.0000 C   0  0  0  0  0  0  0  0  0  0  0  0
   11.0363   -0.5487    0.0000 C   0  0  0  0  0  0  0  0  0  0  0  0
   11.0363   -1.5487    0.0000 C   0  0  0  0  0  0  0  0  0  0  0  0
    6.8060   -0.7041    0.0000 C   0  0  0  0  0  0  0  0  0  0  0  0
    7.6720   -1.2041    0.0000 C   0  0  0  0  0  0  0  0  0  0  0  0
    3.4158   -0.0297    0.0000 C   0  0  0  0  0  0  0  0  0  0  0  0
    9.1556   -3.3948    0.0000 C   0  0  0  0  0  0  0  0  0  0  0  0
   11.0363    1.4513    0.0000 C   0  0  0  0  0  0  0  0  0  0  0  0
    4.6154   -2.1877    0.0000 C   0  0  0  0  0  0  0  0  0  0  0  0
    8.8968   -2.4288    0.0000 C   0  0  0  0  0  0  0  0  0  0  0  0
    7.9309   -2.1700    0.0000 C   0  0  0  0  0  0  0  0  0  0  0  0
    9.8388   -1.7692    0.0000 C   0  0  0  0  0  0  0  0  0  0  0  0
    8.1091    2.1413    0.0000 H   0  0  0  0  0  0  0  0  0  0  0  0
    6.9616    1.5590    0.0000 H   0  0  0  0  0  0  0  0  0  0  0  0
    7.3601    0.8687    0.0000 H   0  0  0  0  0  0  0  0  0  0  0  0
    8.4382    1.5713    0.0000 H   0  0  0  0  0  0  0  0  0  0  0  0
    7.2431    3.2613    0.0000 H   0  0  0  0  0  0  0  0  0  0  0  0
    5.8401    3.0713    0.0000 H   0  0  0  0  0  0  0  0  0  0  0  0
    7.8276    0.0589    0.0000 H   0  0  0  0  0  0  0  0  0  0  0  0
    8.2261   -0.6313    0.0000 H   0  0  0  0  0  0  0  0  0  0  0  0
    9.6142    0.9144    0.0000 H   0  0  0  0  0  0  0  0  0  0  0  0
    9.8411    1.7613    0.0000 H   0  0  0  0  0  0  0  0  0  0  0  0
    8.9942    1.9882    0.0000 H   0  0  0  0  0  0  0  0  0  0  0  0
    6.4129    1.2140    0.0000 H   0  0  0  0  0  0  0  0  0  0  0  0
    5.2841    3.4882    0.0000 H   0  0  0  0  0  0  0  0  0  0  0  0
    4.4371    3.2613    0.0000 H   0  0  0  0  0  0  0  0  0  0  0  0
    4.6641    2.4144    0.0000 H   0  0  0  0  0  0  0  0  0  0  0  0
    6.1692    4.2613    0.0000 H   0  0  0  0  0  0  0  0  0  0  0  0
    4.6175    0.0886    0.0000 H   0  0  0  0  0  0  0  0  0  0  0  0
    9.0582    3.9513    0.0000 H   0  0  0  0  0  0  0  0  0  0  0  0
    8.4382    4.5713    0.0000 H   0  0  0  0  0  0  0  0  0  0  0  0
    7.8182    3.9513    0.0000 H   0  0  0  0  0  0  0  0  0  0  0  0
    6.2785   -1.4013    0.0000 H   0  0  0  0  0  0  0  0  0  0  0  0
    4.4464    1.6997    0.0000 H   0  0  0  0  0  0  0  0  0  0  0  0
    3.6363    1.3641    0.0000 H   0  0  0  0  0  0  0  0  0  0  0  0
    3.9718    0.5541    0.0000 H   0  0  0  0  0  0  0  0  0  0  0  0
   11.5732   -1.8587    0.0000 H   0  0  0  0  0  0  0  0  0  0  0  0
    6.8870   -0.0894    0.0000 H   0  0  0  0  0  0  0  0  0  0  0  0
   10.6914   -3.3846    0.0000 H   0  0  0  0  0  0  0  0  0  0  0  0
    8.1639   -0.8267    0.0000 H   0  0  0  0  0  0  0  0  0  0  0  0
   11.3463    0.9144    0.0000 H   0  0  0  0  0  0  0  0  0  0  0  0
   11.5732    1.7613    0.0000 H   0  0  0  0  0  0  0  0  0  0  0  0
   10.7263    1.9882    0.0000 H   0  0  0  0  0  0  0  0  0  0  0  0
    4.4549   -1.5888    0.0000 H   0  0  0  0  0  0  0  0  0  0  0  0
    4.0165   -2.3481    0.0000 H   0  0  0  0  0  0  0  0  0  0  0  0
    4.7758   -2.7866    0.0000 H   0  0  0  0  0  0  0  0  0  0  0  0
    7.4925   -2.6084    0.0000 H   0  0  0  0  0  0  0  0  0  0  0  0
   10.1944   -2.2771    0.0000 H   0  0  0  0  0  0  0  0  0  0  0  0
   10.3467   -1.4136    0.0000 H   0  0  0  0  0  0  0  0  0  0  0  0
    9.4832   -1.2614    0.0000 H   0  0  0  0  0  0  0  0  0  0  0  0
    2.0000   -0.0350    0.0000 H   0  0  0  0  0  0  0  0  0  0  0  0
    2.4110   -1.0271    0.0000 H   0  0  0  0  0  0  0  0  0  0  0  0
 12  1  1  1  0  0  0
  1 26  1  0  0  0  0
 15  2  1  1  0  0  0
  2 56  1  0  0  0  0
 23  3  1  1  0  0  0
  3 34  1  0  0  0  0
  4 24  1  0  0  0  0
  4 36  1  0  0  0  0
 27  5  1  6  0  0  0
  5 37  1  0  0  0  0
  6 25  2  0  0  0  0
  7 30  2  0  0  0  0
  8 34  2  0  0  0  0
  9 35  2  0  0  0  0
 10 29  1  0  0  0  0
 10 35  1  0  0  0  0
 10 67  1  0  0  0  0
 11 34  1  0  0  0  0
 11 79  1  0  0  0  0
 11 80  1  0  0  0  0
 12 13  1  0  0  0  0
 12 15  1  0  0  0  0
 12 41  1  0  0  0  0
 13 14  1  0  0  0  0
 13 42  1  0  0  0  0
 13 43  1  0  0  0  0
 14 17  1  0  0  0  0
 14 18  1  6  0  0  0
 14 44  1  0  0  0  0
 15 16  1  0  0  0  0
 15 45  1  0  0  0  0
 16 19  1  0  0  0  0
 16 20  1  6  0  0  0
 16 46  1  0  0  0  0
 17 21  1  0  0  0  0
 17 47  1  0  0  0  0
 17 48  1  0  0  0  0
 18 49  1  0  0  0  0
 18 50  1  0  0  0  0
 18 51  1  0  0  0  0
 19 22  2  0  0  0  0
 19 52  1  0  0  0  0
 20 53  1  0  0  0  0
 20 54  1  0  0  0  0
 20 55  1  0  0  0  0
 21 24  2  0  0  0  0
 21 25  1  0  0  0  0
 22 23  1  0  0  0  0
 22 28  1  0  0  0  0
 23 27  1  0  0  0  0
 23 57  1  0  0  0  0
 24 30  1  0  0  0  0
 25 29  1  0  0  0  0
 26 58  1  0  0  0  0
 26 59  1  0  0  0  0
 26 60  1  0  0  0  0
 27 32  1  0  0  0  0
 27 61  1  0  0  0  0
 28 62  1  0  0  0  0
 28 63  1  0  0  0  0
 28 64  1  0  0  0  0
 29 31  2  0  0  0  0
 30 31  1  0  0  0  0
 31 65  1  0  0  0  0
 32 33  2  0  0  0  0
 32 66  1  0  0  0  0
 33 39  1  0  0  0  0
 33 68  1  0  0  0  0
 35 38  1  0  0  0  0
 36 69  1  0  0  0  0
 36 70  1  0  0  0  0
 36 71  1  0  0  0  0
 37 72  1  0  0  0  0
 37 73  1  0  0  0  0
 37 74  1  0  0  0  0
 38 39  2  0  0  0  0
 38 40  1  0  0  0  0
 39 75  1  0  0  0  0
 40 76  1  0  0  0  0
 40 77  1  0  0  0  0
 40 78  1  0  0  0  0
M  END
> <PUBCHEM_COMPOUND_CID>
5288382

> <PUBCHEM_COMPOUND_CANONICALIZED>
1

> <PUBCHEM_CACTVS_COMPLEXITY>
1150

> <PUBCHEM_CACTVS_HBOND_ACCEPTOR>
9

> <PUBCHEM_CACTVS_HBOND_DONOR>
3

> <PUBCHEM_CACTVS_ROTATABLE_BOND>
5

> <PUBCHEM_CACTVS_SUBSKEYS>
AAADcfB7PAAAAAAAAAAAAAAAAAAAAAAAAAAgAAAAAAAAAAAAAAAAHgAQCAAADRyhgAICCALABgCIAqVSWAKACAAgIgAICAHAAEkJFBIAoSQMUAAExACLocOYyOCOAAAAAAAAAAAAAAAAAAAAAAAAAAAAAA==

> <PUBCHEM_IUPAC_OPENEYE_NAME>
[(3R,5S,6R,7S,8E,10S,11S,12Z,14E)-6-hydroxy-5,11,21-trimethoxy-3,7,9,15-tetramethyl-16,20,22-trioxo-17-azabicyclo[16.3.1]docosa-1(21),8,12,14,18-pentaen-10-yl] carbamate

> <PUBCHEM_IUPAC_CAS_NAME>
carbamic acid [(3R,5S,6R,7S,8E,10S,11S,12Z,14E)-6-hydroxy-5,11,21-trimethoxy-3,7,9,15-tetramethyl-16,20,22-trioxo-17-azabicyclo[16.3.1]docosa-1(21),8,12,14,18-pentaen-10-yl] ester

> <PUBCHEM_IUPAC_NAME>
[(3R,5S,6R,7S,8E,10S,11S,12Z,14E)-6-hydroxy-5,11,21-trimethoxy-3,7,9,15-tetramethyl-16,20,22-trioxo-17-azabicyclo[16.3.1]docosa-1(21),8,12,14,18-pentaen-10-yl] carbamate

> <PUBCHEM_IUPAC_SYSTEMATIC_NAME>
[(3R,5S,6R,7S,8E,10S,11S,12Z,14E)-5,11,21-trimethoxy-3,7,9,15-tetramethyl-6-oxidanyl-16,20,22-tris(oxidanylidene)-17-azabicyclo[16.3.1]docosa-1(21),8,12,14,18-pentaen-10-yl] carbamate

> <PUBCHEM_IUPAC_TRADITIONAL_NAME>
carbamic acid [(3R,5S,6R,7S,8E,10S,11S,12Z,14E)-6-hydroxy-16,20,22-triketo-5,11,21-trimethoxy-3,7,9,15-tetramethyl-17-azabicyclo[16.3.1]docosa-1(21),8,12,14,18-pentaen-10-yl] ester

> <PUBCHEM_IUPAC_INCHI>
InChI=1S/C29H40N2O9/c1-15-11-19-25(34)20(14-21(32)27(19)39-7)31-28(35)16(2)9-8-10-22(37-5)26(40-29(30)36)18(4)13-17(3)24(33)23(12-15)38-6/h8-10,13-15,17,22-24,26,33H,11-12H2,1-7H3,(H2,30,36)(H,31,35)/b10-8-,16-9+,18-13+/t15-,17+,22+,23+,24-,26+/m1/s1

> <PUBCHEM_IUPAC_INCHIKEY>
QTQAWLPCGQOSGP-KSRBKZBZSA-N

> <PUBCHEM_XLOGP3_AA>
2

> <PUBCHEM_EXACT_MASS>
560.273381

> <PUBCHEM_MOLECULAR_FORMULA>
C29H40N2O9

> <PUBCHEM_MOLECULAR_WEIGHT>
560.6359

> <PUBCHEM_OPENEYE_CAN_SMILES>
CC1CC(C(C(C=C(C(C(C=CC=C(C(=O)NC2=CC(=O)C(=C(C1)C2=O)OC)C)OC)OC(=O)N)C)C)O)OC

> <PUBCHEM_OPENEYE_ISO_SMILES>
C[C@H]1C[C@@H]([C@@H]([C@H](/C=C(/[C@@H]([C@H](/C=C\C=C(\C(=O)NC2=CC(=O)C(=C(C1)C2=O)OC)/C)OC)OC(=O)N)\C)C)O)OC

> <PUBCHEM_CACTVS_TPSA>
164

> <PUBCHEM_MONOISOTOPIC_WEIGHT>
560.273381

> <PUBCHEM_TOTAL_CHARGE>
0

> <PUBCHEM_HEAVY_ATOM_COUNT>
40

> <PUBCHEM_ATOM_DEF_STEREO_COUNT>
6

> <PUBCHEM_ATOM_UDEF_STEREO_COUNT>
0

> <PUBCHEM_BOND_DEF_STEREO_COUNT>
3

> <PUBCHEM_BOND_UDEF_STEREO_COUNT>
0

> <PUBCHEM_ISOTOPIC_ATOM_COUNT>
0

> <PUBCHEM_COMPONENT_COUNT>
1

> <PUBCHEM_CACTVS_TAUTO_COUNT>
470

> <PUBCHEM_COORDINATE_TYPE>
1
5
255

> <PUBCHEM_BONDANNOTATIONS>
12  1  5
14  18  6
16  20  6
15  2  5
23  3  5
27  5  6

$$$$

