11780
  -OEChem-06261206062D

 26 27  0     1  0  0  0  0  0999 V2000
    3.7601   -3.1739    0.0000 Br  0  0  0  0  0  0  0  0  0  0  0  0
    2.0000    1.1048    0.0000 O   0  0  0  0  0  0  0  0  0  0  0  0
    3.7601    0.8261    0.0000 N   0  0  0  0  0  0  0  0  0  0  0  0
    4.5691    1.4139    0.0000 N   0  0  3  0  0  0  0  0  0  0  0  0
    4.2601    2.3649    0.0000 C   0  0  0  0  0  0  0  0  0  0  0  0
    3.7601   -0.1739    0.0000 C   0  0  0  0  0  0  0  0  0  0  0  0
    2.9511    1.4139    0.0000 C   0  0  0  0  0  0  0  0  0  0  0  0
    3.2601    2.3649    0.0000 C   0  0  0  0  0  0  0  0  0  0  0  0
    5.5202    1.1048    0.0000 C   0  0  0  0  0  0  0  0  0  0  0  0
    4.8479    3.1739    0.0000 C   0  0  0  0  0  0  0  0  0  0  0  0
    2.8940   -0.6739    0.0000 C   0  0  0  0  0  0  0  0  0  0  0  0
    4.6261   -0.6739    0.0000 C   0  0  0  0  0  0  0  0  0  0  0  0
    2.8940   -1.6739    0.0000 C   0  0  0  0  0  0  0  0  0  0  0  0
    4.6261   -1.6739    0.0000 C   0  0  0  0  0  0  0  0  0  0  0  0
    3.7601   -2.1739    0.0000 C   0  0  0  0  0  0  0  0  0  0  0  0
    2.8956    2.8665    0.0000 H   0  0  0  0  0  0  0  0  0  0  0  0
    5.3286    0.5152    0.0000 H   0  0  0  0  0  0  0  0  0  0  0  0
    6.1098    0.9132    0.0000 H   0  0  0  0  0  0  0  0  0  0  0  0
    5.7117    1.6945    0.0000 H   0  0  0  0  0  0  0  0  0  0  0  0
    5.3494    2.8095    0.0000 H   0  0  0  0  0  0  0  0  0  0  0  0
    5.2123    3.6755    0.0000 H   0  0  0  0  0  0  0  0  0  0  0  0
    4.3463    3.5384    0.0000 H   0  0  0  0  0  0  0  0  0  0  0  0
    2.3571   -0.3639    0.0000 H   0  0  0  0  0  0  0  0  0  0  0  0
    5.1630   -0.3639    0.0000 H   0  0  0  0  0  0  0  0  0  0  0  0
    2.3571   -1.9839    0.0000 H   0  0  0  0  0  0  0  0  0  0  0  0
    5.1630   -1.9839    0.0000 H   0  0  0  0  0  0  0  0  0  0  0  0
  1 15  1  0  0  0  0
  2  7  2  0  0  0  0
  3  4  1  0  0  0  0
  3  6  1  0  0  0  0
  3  7  1  0  0  0  0
  4  5  1  0  0  0  0
  4  9  1  0  0  0  0
  5  8  2  0  0  0  0
  5 10  1  0  0  0  0
  6 11  2  0  0  0  0
  6 12  1  0  0  0  0
  7  8  1  0  0  0  0
  8 16  1  0  0  0  0
  9 17  1  0  0  0  0
  9 18  1  0  0  0  0
  9 19  1  0  0  0  0
 10 20  1  0  0  0  0
 10 21  1  0  0  0  0
 10 22  1  0  0  0  0
 11 13  1  0  0  0  0
 11 23  1  0  0  0  0
 12 14  2  0  0  0  0
 12 24  1  0  0  0  0
 13 15  2  0  0  0  0
 13 25  1  0  0  0  0
 14 15  1  0  0  0  0
 14 26  1  0  0  0  0
M  END
> <PUBCHEM_COMPOUND_CID>
11780

> <PUBCHEM_COMPOUND_CANONICALIZED>
1

> <PUBCHEM_CACTVS_COMPLEXITY>
295

> <PUBCHEM_CACTVS_HBOND_ACCEPTOR>
2

> <PUBCHEM_CACTVS_HBOND_DONOR>
0

> <PUBCHEM_CACTVS_ROTATABLE_BOND>
1

> <PUBCHEM_CACTVS_SUBSKEYS>
AAADccBzIAAAEAAAAAAAAAAAAAAAAQAAAAAwAAAAAAAAAAABAAAAHgBIAAABqAiBkAQywIIAAACIACVSUACCBAAhAgQaiAAIZOgIICLAkZGEIAhghADIy1cQAAAAAAAgAAAAAAAAAEAAAAAAAAAAAAAAAA==

> <PUBCHEM_IUPAC_OPENEYE_NAME>
2-(4-bromophenyl)-1,5-dimethyl-pyrazol-3-one

> <PUBCHEM_IUPAC_CAS_NAME>
2-(4-bromophenyl)-1,5-dimethyl-3-pyrazolone

> <PUBCHEM_IUPAC_NAME>
2-(4-bromophenyl)-1,5-dimethylpyrazol-3-one

> <PUBCHEM_IUPAC_SYSTEMATIC_NAME>
2-(4-bromophenyl)-1,5-dimethyl-pyrazol-3-one

> <PUBCHEM_IUPAC_TRADITIONAL_NAME>
2-(4-bromophenyl)-1,5-dimethyl-3-pyrazolin-3-one

> <PUBCHEM_IUPAC_INCHI>
InChI=1S/C11H11BrN2O/c1-8-7-11(15)14(13(8)2)10-5-3-9(12)4-6-10/h3-7H,1-2H3

> <PUBCHEM_IUPAC_INCHIKEY>
RYPXUXARNBYXCF-UHFFFAOYSA-N

> <PUBCHEM_XLOGP3>
1.1

> <PUBCHEM_EXACT_MASS>
266.005475

> <PUBCHEM_MOLECULAR_FORMULA>
C11H11BrN2O

> <PUBCHEM_MOLECULAR_WEIGHT>
267.12184

> <PUBCHEM_OPENEYE_CAN_SMILES>
CC1=CC(=O)N(N1C)C2=CC=C(C=C2)Br

> <PUBCHEM_OPENEYE_ISO_SMILES>
CC1=CC(=O)N(N1C)C2=CC=C(C=C2)Br

> <PUBCHEM_CACTVS_TPSA>
23.6

> <PUBCHEM_MONOISOTOPIC_WEIGHT>
266.005475

> <PUBCHEM_TOTAL_CHARGE>
0

> <PUBCHEM_HEAVY_ATOM_COUNT>
15

> <PUBCHEM_ATOM_DEF_STEREO_COUNT>
0

> <PUBCHEM_ATOM_UDEF_STEREO_COUNT>
0

> <PUBCHEM_BOND_DEF_STEREO_COUNT>
0

> <PUBCHEM_BOND_UDEF_STEREO_COUNT>
0

> <PUBCHEM_ISOTOPIC_ATOM_COUNT>
0

> <PUBCHEM_COMPONENT_COUNT>
1

> <PUBCHEM_CACTVS_TAUTO_COUNT>
1

> <PUBCHEM_COORDINATE_TYPE>
1
5
255

> <PUBCHEM_BONDANNOTATIONS>
11  13  8
12  14  8
13  15  8
14  15  8
3  4  8
3  7  8
4  5  8
5  8  8
6  11  8
6  12  8
7  8  8

$$$$

