100733
  -OEChem-07051213043D

 18 18  0     0  0  0  0  0  0999 V2000
    3.2707    0.2719    0.8014 O   0  0  0  0  0  0  0  0  0  0  0  0
   -1.8913    1.8930    0.0328 O   0  0  0  0  0  0  0  0  0  0  0  0
   -2.8905   -0.6918    0.2489 O   0  0  0  0  0  0  0  0  0  0  0  0
    1.1795   -0.0652   -0.2801 C   0  0  0  0  0  0  0  0  0  0  0  0
    0.3131    1.0257   -0.2104 C   0  0  0  0  0  0  0  0  0  0  0  0
    0.6778   -1.3623   -0.1720 C   0  0  0  0  0  0  0  0  0  0  0  0
    2.6423    0.1550   -0.4693 C   0  0  0  0  0  0  0  0  0  0  0  0
   -1.0549    0.8196   -0.0326 C   0  0  0  0  0  0  0  0  0  0  0  0
   -1.5565   -0.4774    0.0755 C   0  0  0  0  0  0  0  0  0  0  0  0
   -0.6901   -1.5684    0.0059 C   0  0  0  0  0  0  0  0  0  0  0  0
    0.6984    2.0392   -0.2923 H   0  0  0  0  0  0  0  0  0  0  0  0
    1.3429   -2.2203   -0.2229 H   0  0  0  0  0  0  0  0  0  0  0  0
    3.0987   -0.6788   -1.0144 H   0  0  0  0  0  0  0  0  0  0  0  0
    2.8320    1.0686   -1.0434 H   0  0  0  0  0  0  0  0  0  0  0  0
   -1.0675   -2.5841    0.0890 H   0  0  0  0  0  0  0  0  0  0  0  0
   -2.7993    1.5662    0.1573 H   0  0  0  0  0  0  0  0  0  0  0  0
    4.2187    0.4139    0.6384 H   0  0  0  0  0  0  0  0  0  0  0  0
   -3.0531   -1.6492    0.3027 H   0  0  0  0  0  0  0  0  0  0  0  0
  1  7  1  0  0  0  0
  1 17  1  0  0  0  0
  2  8  1  0  0  0  0
  2 16  1  0  0  0  0
  3  9  1  0  0  0  0
  3 18  1  0  0  0  0
  4  5  2  0  0  0  0
  4  6  1  0  0  0  0
  4  7  1  0  0  0  0
  5  8  1  0  0  0  0
  5 11  1  0  0  0  0
  6 10  2  0  0  0  0
  6 12  1  0  0  0  0
  7 13  1  0  0  0  0
  7 14  1  0  0  0  0
  8  9  2  0  0  0  0
  9 10  1  0  0  0  0
 10 15  1  0  0  0  0
M  END
> <PUBCHEM_COMPOUND_CID>
100733

> <PUBCHEM_CONFORMER_RMSD>
0.4

> <PUBCHEM_CONFORMER_DIVERSEORDER>
1
3
4
2

> <PUBCHEM_MMFF94_PARTIAL_CHARGES>
16
1 -0.68
10 -0.15
11 0.15
12 0.15
15 0.15
16 0.45
17 0.4
18 0.45
2 -0.53
3 -0.53
4 -0.14
5 -0.15
6 -0.15
7 0.42
8 0.08
9 0.08

> <PUBCHEM_EFFECTIVE_ROTOR_COUNT>
1

> <PUBCHEM_PHARMACOPHORE_FEATURES>
5
1 1 acceptor
1 1 donor
1 2 donor
1 3 donor
6 4 5 6 8 9 10 rings

> <PUBCHEM_HEAVY_ATOM_COUNT>
10

> <PUBCHEM_ATOM_DEF_STEREO_COUNT>
0

> <PUBCHEM_ATOM_UDEF_STEREO_COUNT>
0

> <PUBCHEM_BOND_DEF_STEREO_COUNT>
0

> <PUBCHEM_BOND_UDEF_STEREO_COUNT>
0

> <PUBCHEM_ISOTOPIC_ATOM_COUNT>
0

> <PUBCHEM_COMPONENT_COUNT>
1

> <PUBCHEM_CACTVS_TAUTO_COUNT>
10

> <PUBCHEM_CONFORMER_ID>
0001897D00000001

> <PUBCHEM_MMFF94_ENERGY>
21.3601

> <PUBCHEM_FEATURE_SELFOVERLAP>
25.376

> <PUBCHEM_SHAPE_FINGERPRINT>
10857977 72 18410014295136249458
14325111 11 18410572920442731916
15310529 11 14490459907075402606
16945 1 18411131403203001479
20645464 45 17967817141558294250
20871998 184 18116427051084578902
21040471 1 18339354296415214284
23402655 69 18265630943253288389
23552423 10 18128807715374996534
2748010 2 18267013054168391967
369184 2 18040157305573380434
5084963 1 18187915184145909270

> <PUBCHEM_SHAPE_MULTIPOLES>
188.19
3.77
1.6
0.68
1.56
0.09
0.01
0.34
0.57
-0.78
-0.03
0.25
0
0.08

> <PUBCHEM_SHAPE_SELFOVERLAP>
392.132

> <PUBCHEM_SHAPE_VOLUME>
107.5

> <PUBCHEM_COORDINATE_TYPE>
2
5
10

$$$$

