4933
  -OEChem-07051213043D

 22 22  0     0  0  0  0  0  0999 V2000
    3.5614   -1.9631    0.0049 Cl  0  0  0  0  0  0  0  0  0  0  0  0
    4.2149    1.2065    0.0053 Cl  0  0  0  0  0  0  0  0  0  0  0  0
   -2.6183    1.2837   -0.0072 O   0  0  0  0  0  0  0  0  0  0  0  0
   -1.3765   -0.7157   -0.0054 N   0  0  0  0  0  0  0  0  0  0  0  0
   -0.0520   -0.2775   -0.0034 C   0  0  0  0  0  0  0  0  0  0  0  0
   -3.7889   -0.8207   -0.0090 C   0  0  0  0  0  0  0  0  0  0  0  0
   -2.5477    0.0592   -0.0070 C   0  0  0  0  0  0  0  0  0  0  0  0
    0.9901   -1.2049   -0.0020 C   0  0  0  0  0  0  0  0  0  0  0  0
    0.2301    1.0886   -0.0022 C   0  0  0  0  0  0  0  0  0  0  0  0
   -5.0773   -0.0181    0.0238 C   0  0  0  0  0  0  0  0  0  0  0  0
    2.3142   -0.7659    0.0004 C   0  0  0  0  0  0  0  0  0  0  0  0
    1.5540    1.5275    0.0003 C   0  0  0  0  0  0  0  0  0  0  0  0
    2.5960    0.6003    0.0015 C   0  0  0  0  0  0  0  0  0  0  0  0
   -3.7680   -1.4455   -0.9091 H   0  0  0  0  0  0  0  0  0  0  0  0
   -3.7473   -1.4817    0.8642 H   0  0  0  0  0  0  0  0  0  0  0  0
   -1.4987   -1.7262   -0.0063 H   0  0  0  0  0  0  0  0  0  0  0  0
    0.7666   -2.2698   -0.0024 H   0  0  0  0  0  0  0  0  0  0  0  0
   -0.5208    1.8662   -0.0030 H   0  0  0  0  0  0  0  0  0  0  0  0
   -5.1280    0.6074    0.9213 H   0  0  0  0  0  0  0  0  0  0  0  0
   -5.9431   -0.6872    0.0238 H   0  0  0  0  0  0  0  0  0  0  0  0
   -5.1532    0.6396   -0.8484 H   0  0  0  0  0  0  0  0  0  0  0  0
    1.7568    2.5957    0.0012 H   0  0  0  0  0  0  0  0  0  0  0  0
  1 11  1  0  0  0  0
  2 13  1  0  0  0  0
  3  7  2  0  0  0  0
  4  5  1  0  0  0  0
  4  7  1  0  0  0  0
  4 16  1  0  0  0  0
  5  8  2  0  0  0  0
  5  9  1  0  0  0  0
  6  7  1  0  0  0  0
  6 10  1  0  0  0  0
  6 14  1  0  0  0  0
  6 15  1  0  0  0  0
  8 11  1  0  0  0  0
  8 17  1  0  0  0  0
  9 12  2  0  0  0  0
  9 18  1  0  0  0  0
 10 19  1  0  0  0  0
 10 20  1  0  0  0  0
 10 21  1  0  0  0  0
 11 13  2  0  0  0  0
 12 13  1  0  0  0  0
 12 22  1  0  0  0  0
M  END
> <PUBCHEM_COMPOUND_CID>
4933

> <PUBCHEM_CONFORMER_RMSD>
0.6

> <PUBCHEM_CONFORMER_DIVERSEORDER>
1
6
3
5
4
2

> <PUBCHEM_MMFF94_PARTIAL_CHARGES>
16
1 -0.18
11 0.18
12 -0.15
13 0.18
16 0.37
17 0.15
18 0.15
2 -0.18
22 0.15
3 -0.57
4 -0.55
5 0.12
6 0.06
7 0.57
8 -0.15
9 -0.15

> <PUBCHEM_EFFECTIVE_ROTOR_COUNT>
3

> <PUBCHEM_PHARMACOPHORE_FEATURES>
4
1 10 hydrophobe
1 3 acceptor
1 4 donor
6 5 8 9 11 12 13 rings

> <PUBCHEM_HEAVY_ATOM_COUNT>
13

> <PUBCHEM_ATOM_DEF_STEREO_COUNT>
0

> <PUBCHEM_ATOM_UDEF_STEREO_COUNT>
0

> <PUBCHEM_BOND_DEF_STEREO_COUNT>
0

> <PUBCHEM_BOND_UDEF_STEREO_COUNT>
0

> <PUBCHEM_ISOTOPIC_ATOM_COUNT>
0

> <PUBCHEM_COMPONENT_COUNT>
1

> <PUBCHEM_CACTVS_TAUTO_COUNT>
2

> <PUBCHEM_CONFORMER_ID>
0000134500000001

> <PUBCHEM_MMFF94_ENERGY>
29.3392

> <PUBCHEM_FEATURE_SELFOVERLAP>
20.297

> <PUBCHEM_SHAPE_FINGERPRINT>
10608611 8 18413112774949296309
10980938 120 18409448081371699330
11471102 20 18411140233660880879
12032990 46 18338514256741890310
12346645 6 18334857208311776902
12932764 1 17385735676822948517
13380535 76 18341612560423945698
14144814 61 18409446994502270033
14251717 144 18410857663599690262
14252887 29 18343861108699201904
14325111 11 18410856572567032389
14576447 43 18043825190464666111
15196674 1 18410856598611266181
15219456 202 18342746246747689556
15442244 35 18265330784161043616
15536298 74 18335701658557947338
15775835 57 18187926132001722637
16945 1 18338517418111918820
18186145 218 17846500373838617959
18522853 276 18335421266182280657
200 152 18186807967937557087
20279233 1 17703785903642062299
20645477 70 18409731789447061239
20871998 22 18116992402367849742
21267235 1 18337382833623305438
21501502 16 18337666546288448944
21501925 9 18410301340970581034
221490 88 18341886342903453571
22485316 2 18408887317583089975
22959321 4 18410575127739534362
23402539 116 18341340989720694135
23402655 69 18408046217084317333
23557571 272 17418382406007997389
2748010 2 18267877249313035284
3071541 37 18342170038915787284
449060 50 18271526403223811733
449060 62 18335981991590367432
5104073 3 18410572916084455505
522135 26 18411417319175863678
53812653 166 18261959531640185776
7364860 26 18334858316613669202
77779 3 18410854373955097067

> <PUBCHEM_SHAPE_MULTIPOLES>
260.42
8.63
1.72
0.61
7.28
0.21
0
0.4
0.04
-1.73
0
-0.05
0.01
0

> <PUBCHEM_SHAPE_SELFOVERLAP>
516.181

> <PUBCHEM_SHAPE_VOLUME>
157

> <PUBCHEM_COORDINATE_TYPE>
2
5
10

$$$$

