142752
  -OEChem-07051213032D

 34 33  0     0  0  0  0  0  0999 V2000
    9.7942   -1.0600    0.0000 O   0  0  0  0  0  0  0  0  0  0  0  0
   11.5263   -0.0600    0.0000 O   0  0  0  0  0  0  0  0  0  0  0  0
   10.6603    0.4400    0.0000 N   0  0  0  0  0  0  0  0  0  0  0  0
    5.4641    0.4400    0.0000 C   0  0  0  0  0  0  0  0  0  0  0  0
    6.3301   -0.0600    0.0000 C   0  0  0  0  0  0  0  0  0  0  0  0
    4.5981   -0.0600    0.0000 C   0  0  0  0  0  0  0  0  0  0  0  0
    7.1962    0.4400    0.0000 C   0  0  0  0  0  0  0  0  0  0  0  0
    3.7320    0.4400    0.0000 C   0  0  0  0  0  0  0  0  0  0  0  0
    8.0622   -0.0600    0.0000 C   0  0  0  0  0  0  0  0  0  0  0  0
    2.8660   -0.0600    0.0000 C   0  0  0  0  0  0  0  0  0  0  0  0
    8.9282    0.4400    0.0000 C   0  0  0  0  0  0  0  0  0  0  0  0
    2.0000    0.4400    0.0000 C   0  0  0  0  0  0  0  0  0  0  0  0
    9.7942   -0.0600    0.0000 C   0  0  0  0  0  0  0  0  0  0  0  0
    5.8626    0.9149    0.0000 H   0  0  0  0  0  0  0  0  0  0  0  0
    5.0656    0.9149    0.0000 H   0  0  0  0  0  0  0  0  0  0  0  0
    5.9316   -0.5349    0.0000 H   0  0  0  0  0  0  0  0  0  0  0  0
    6.7287   -0.5349    0.0000 H   0  0  0  0  0  0  0  0  0  0  0  0
    4.1996   -0.5349    0.0000 H   0  0  0  0  0  0  0  0  0  0  0  0
    4.9966   -0.5349    0.0000 H   0  0  0  0  0  0  0  0  0  0  0  0
    7.5947    0.9149    0.0000 H   0  0  0  0  0  0  0  0  0  0  0  0
    6.7976    0.9149    0.0000 H   0  0  0  0  0  0  0  0  0  0  0  0
    4.1306    0.9149    0.0000 H   0  0  0  0  0  0  0  0  0  0  0  0
    3.3335    0.9149    0.0000 H   0  0  0  0  0  0  0  0  0  0  0  0
    7.6636   -0.5349    0.0000 H   0  0  0  0  0  0  0  0  0  0  0  0
    8.4607   -0.5349    0.0000 H   0  0  0  0  0  0  0  0  0  0  0  0
    2.4675   -0.5349    0.0000 H   0  0  0  0  0  0  0  0  0  0  0  0
    3.2646   -0.5349    0.0000 H   0  0  0  0  0  0  0  0  0  0  0  0
    9.3267    0.9149    0.0000 H   0  0  0  0  0  0  0  0  0  0  0  0
    8.5297    0.9149    0.0000 H   0  0  0  0  0  0  0  0  0  0  0  0
    2.3100    0.9769    0.0000 H   0  0  0  0  0  0  0  0  0  0  0  0
    1.4631    0.7500    0.0000 H   0  0  0  0  0  0  0  0  0  0  0  0
    1.6900   -0.0969    0.0000 H   0  0  0  0  0  0  0  0  0  0  0  0
   10.6603    1.0600    0.0000 H   0  0  0  0  0  0  0  0  0  0  0  0
   12.0632    0.2500    0.0000 H   0  0  0  0  0  0  0  0  0  0  0  0
  1 13  2  0  0  0  0
  2  3  1  0  0  0  0
  2 34  1  0  0  0  0
  3 13  1  0  0  0  0
  3 33  1  0  0  0  0
  4  5  1  0  0  0  0
  4  6  1  0  0  0  0
  4 14  1  0  0  0  0
  4 15  1  0  0  0  0
  5  7  1  0  0  0  0
  5 16  1  0  0  0  0
  5 17  1  0  0  0  0
  6  8  1  0  0  0  0
  6 18  1  0  0  0  0
  6 19  1  0  0  0  0
  7  9  1  0  0  0  0
  7 20  1  0  0  0  0
  7 21  1  0  0  0  0
  8 10  1  0  0  0  0
  8 22  1  0  0  0  0
  8 23  1  0  0  0  0
  9 11  1  0  0  0  0
  9 24  1  0  0  0  0
  9 25  1  0  0  0  0
 10 12  1  0  0  0  0
 10 26  1  0  0  0  0
 10 27  1  0  0  0  0
 11 13  1  0  0  0  0
 11 28  1  0  0  0  0
 11 29  1  0  0  0  0
 12 30  1  0  0  0  0
 12 31  1  0  0  0  0
 12 32  1  0  0  0  0
M  END
> <PUBCHEM_COMPOUND_CID>
142752

> <PUBCHEM_COMPOUND_CANONICALIZED>
1

> <PUBCHEM_CACTVS_COMPLEXITY>
126

> <PUBCHEM_CACTVS_HBOND_ACCEPTOR>
2

> <PUBCHEM_CACTVS_HBOND_DONOR>
2

> <PUBCHEM_CACTVS_ROTATABLE_BOND>
8

> <PUBCHEM_CACTVS_SUBSKEYS>
AAADceByMAAAAAAAAAAAAAAAAAAAAAAAAAAAAAAAAAAAAAAAAAAAHgAUCAAACACBgAACAABQAAAIAAEQEAAAAAAAAAAgAAEAAAAAABIAgAAAAAAAEAAAAAEYiICAAAAAAAAAAAAAAAAAAAAAAAAAAAAAAA==

> <PUBCHEM_IUPAC_OPENEYE_NAME>
decanehydroxamic acid

> <PUBCHEM_IUPAC_CAS_NAME>
N-hydroxydecanamide

> <PUBCHEM_IUPAC_NAME>
N-hydroxydecanamide

> <PUBCHEM_IUPAC_SYSTEMATIC_NAME>
N-oxidanyldecanamide

> <PUBCHEM_IUPAC_TRADITIONAL_NAME>
decanehydroxamic acid

> <PUBCHEM_IUPAC_INCHI>
InChI=1S/C10H21NO2/c1-2-3-4-5-6-7-8-9-10(12)11-13/h13H,2-9H2,1H3,(H,11,12)

> <PUBCHEM_IUPAC_INCHIKEY>
QZXOLBPUAUOQFB-UHFFFAOYSA-N

> <PUBCHEM_XLOGP3>
3.4

> <PUBCHEM_EXACT_MASS>
187.157229

> <PUBCHEM_MOLECULAR_FORMULA>
C10H21NO2

> <PUBCHEM_MOLECULAR_WEIGHT>
187.27924

> <PUBCHEM_OPENEYE_CAN_SMILES>
CCCCCCCCCC(=O)NO

> <PUBCHEM_OPENEYE_ISO_SMILES>
CCCCCCCCCC(=O)NO

> <PUBCHEM_CACTVS_TPSA>
49.3

> <PUBCHEM_MONOISOTOPIC_WEIGHT>
187.157229

> <PUBCHEM_TOTAL_CHARGE>
0

> <PUBCHEM_HEAVY_ATOM_COUNT>
13

> <PUBCHEM_ATOM_DEF_STEREO_COUNT>
0

> <PUBCHEM_ATOM_UDEF_STEREO_COUNT>
0

> <PUBCHEM_BOND_DEF_STEREO_COUNT>
0

> <PUBCHEM_BOND_UDEF_STEREO_COUNT>
0

> <PUBCHEM_ISOTOPIC_ATOM_COUNT>
0

> <PUBCHEM_COMPONENT_COUNT>
1

> <PUBCHEM_CACTVS_TAUTO_COUNT>
4

> <PUBCHEM_COORDINATE_TYPE>
1
5
255

$$$$

