257426
  -OEChem-07051213063D

 37 39  0     0  0  0  0  0  0999 V2000
   -2.9679   -0.4246   -0.0011 O   0  0  0  0  0  0  0  0  0  0  0  0
    0.0092    2.6181    0.0119 O   0  0  0  0  0  0  0  0  0  0  0  0
    5.5557   -0.2005    0.0002 O   0  0  0  0  0  0  0  0  0  0  0  0
   -2.9799    1.9740   -0.0012 C   0  0  0  0  0  0  0  0  0  0  0  0
   -2.2239    0.7123   -0.0018 C   0  0  0  0  0  0  0  0  0  0  0  0
   -0.8805    0.4155   -0.0017 C   0  0  0  0  0  0  0  0  0  0  0  0
   -0.7836   -1.0010   -0.0005 C   0  0  0  0  0  0  0  0  0  0  0  0
   -2.0934   -1.4697   -0.0003 C   0  0  0  0  0  0  0  0  0  0  0  0
   -3.8589    2.1630    1.2607 C   0  0  0  0  0  0  0  0  0  0  0  0
   -3.8590    2.1644   -1.2629 C   0  0  0  0  0  0  0  0  0  0  0  0
    0.1788    1.3825   -0.0024 C   0  0  0  0  0  0  0  0  0  0  0  0
    0.2648   -1.9377    0.0001 C   0  0  0  0  0  0  0  0  0  0  0  0
   -2.4405   -2.8195    0.0011 C   0  0  0  0  0  0  0  0  0  0  0  0
    1.6150    0.9603   -0.0019 C   0  0  0  0  0  0  0  0  0  0  0  0
   -0.0531   -3.3028    0.0018 C   0  0  0  0  0  0  0  0  0  0  0  0
   -1.3824   -3.7332    0.0024 C   0  0  0  0  0  0  0  0  0  0  0  0
    2.2435    0.7744   -1.2094 C   0  0  0  0  0  0  0  0  0  0  0  0
    2.2428    0.7764    1.2065 C   0  0  0  0  0  0  0  0  0  0  0  0
    3.5816    0.3807   -1.2087 C   0  0  0  0  0  0  0  0  0  0  0  0
    3.5811    0.3827    1.2074 C   0  0  0  0  0  0  0  0  0  0  0  0
    4.2505    0.1849   -0.0004 C   0  0  0  0  0  0  0  0  0  0  0  0
   -2.2878    2.8207   -0.0011 H   0  0  0  0  0  0  0  0  0  0  0  0
   -4.6364    1.3934    1.3199 H   0  0  0  0  0  0  0  0  0  0  0  0
   -4.3472    3.1431    1.2515 H   0  0  0  0  0  0  0  0  0  0  0  0
   -3.2489    2.0944    2.1681 H   0  0  0  0  0  0  0  0  0  0  0  0
   -3.2491    2.0968   -2.1704 H   0  0  0  0  0  0  0  0  0  0  0  0
   -4.3473    3.1445   -1.2526 H   0  0  0  0  0  0  0  0  0  0  0  0
   -4.6365    1.3948   -1.3231 H   0  0  0  0  0  0  0  0  0  0  0  0
    1.3110   -1.6613   -0.0003 H   0  0  0  0  0  0  0  0  0  0  0  0
   -3.4737   -3.1456    0.0015 H   0  0  0  0  0  0  0  0  0  0  0  0
    0.7478   -4.0378    0.0026 H   0  0  0  0  0  0  0  0  0  0  0  0
   -1.5986   -4.7987    0.0037 H   0  0  0  0  0  0  0  0  0  0  0  0
    1.7258    0.9256   -2.1515 H   0  0  0  0  0  0  0  0  0  0  0  0
    1.7247    0.9291    2.1482 H   0  0  0  0  0  0  0  0  0  0  0  0
    4.0915    0.2292   -2.1564 H   0  0  0  0  0  0  0  0  0  0  0  0
    4.0964    0.2311    2.1519 H   0  0  0  0  0  0  0  0  0  0  0  0
    5.8580   -0.2908   -0.9198 H   0  0  0  0  0  0  0  0  0  0  0  0
  1  5  1  0  0  0  0
  1  8  1  0  0  0  0
  2 11  2  0  0  0  0
  3 21  1  0  0  0  0
  3 37  1  0  0  0  0
  4  5  1  0  0  0  0
  4  9  1  0  0  0  0
  4 10  1  0  0  0  0
  4 22  1  0  0  0  0
  5  6  2  0  0  0  0
  6  7  1  0  0  0  0
  6 11  1  0  0  0  0
  7  8  1  0  0  0  0
  7 12  2  0  0  0  0
  8 13  2  0  0  0  0
  9 23  1  0  0  0  0
  9 24  1  0  0  0  0
  9 25  1  0  0  0  0
 10 26  1  0  0  0  0
 10 27  1  0  0  0  0
 10 28  1  0  0  0  0
 11 14  1  0  0  0  0
 12 15  1  0  0  0  0
 12 29  1  0  0  0  0
 13 16  1  0  0  0  0
 13 30  1  0  0  0  0
 14 17  2  0  0  0  0
 14 18  1  0  0  0  0
 15 16  2  0  0  0  0
 15 31  1  0  0  0  0
 16 32  1  0  0  0  0
 17 19  1  0  0  0  0
 17 33  1  0  0  0  0
 18 20  2  0  0  0  0
 18 34  1  0  0  0  0
 19 21  2  0  0  0  0
 19 35  1  0  0  0  0
 20 21  1  0  0  0  0
 20 36  1  0  0  0  0
M  END
> <PUBCHEM_COMPOUND_CID>
257426

> <PUBCHEM_CONFORMER_RMSD>
0.6

> <PUBCHEM_CONFORMER_DIVERSEORDER>
1
10
8
2
6
7
11
4
12
5
9
3

> <PUBCHEM_MMFF94_PARTIAL_CHARGES>
27
1 -0.28
11 0.57
12 -0.15
13 -0.15
14 0.09
15 -0.15
16 -0.15
17 -0.15
18 -0.15
19 -0.15
2 -0.57
20 -0.15
21 0.08
29 0.15
3 -0.53
30 0.15
31 0.15
32 0.15
33 0.15
34 0.15
35 0.15
36 0.15
37 0.45
4 0.18
5 -0.04
6 -0.09
8 0.14

> <PUBCHEM_EFFECTIVE_ROTOR_COUNT>
3

> <PUBCHEM_PHARMACOPHORE_FEATURES>
7
1 1 acceptor
1 2 acceptor
1 3 donor
3 4 9 10 hydrophobe
5 1 5 6 7 8 rings
6 14 17 18 19 20 21 rings
6 7 8 12 13 15 16 rings

> <PUBCHEM_HEAVY_ATOM_COUNT>
21

> <PUBCHEM_ATOM_DEF_STEREO_COUNT>
0

> <PUBCHEM_ATOM_UDEF_STEREO_COUNT>
0

> <PUBCHEM_BOND_DEF_STEREO_COUNT>
0

> <PUBCHEM_BOND_UDEF_STEREO_COUNT>
0

> <PUBCHEM_ISOTOPIC_ATOM_COUNT>
0

> <PUBCHEM_COMPONENT_COUNT>
1

> <PUBCHEM_CACTVS_TAUTO_COUNT>
4

> <PUBCHEM_CONFORMER_ID>
0003ED9200000001

> <PUBCHEM_MMFF94_ENERGY>
52.0797

> <PUBCHEM_FEATURE_SELFOVERLAP>
35.622

> <PUBCHEM_SHAPE_FINGERPRINT>
10319926 262 18190765076306214552
10411042 1 17834113043970674318
10493431 412 18335974372202599945
10616163 171 18339359665641837982
10967382 1 18122343738112658279
11582403 64 16955964129503939616
12236239 1 17775847926208295752
12346177 29 18334020458055588877
12500047 106 18409735066780907772
12553582 1 17835232351128669126
12643181 29 18337388357806141502
12788726 201 18124305004747710595
13052359 8 18412827979994221943
13140716 1 17977942389504285107
13544592 145 18115857659291636628
138480 1 17113538675675337251
14022349 108 18124311876753335363
14178342 30 18268448849272432370
14223421 5 17830179004419679400
14790565 3 18120642789398795160
14866123 147 18409726236339450595
15042514 8 18196367023045571883
15309172 13 18340200890494189529
16752209 62 18340780234205754851
167882 2 17909840060813417399
16945 1 18266458707234989251
17804303 29 18263922142299067754
19591789 44 18121211245230484827
20028762 73 18115302273103281871
20510252 161 18190178988488171785
20600515 1 18261103089350069356
20645476 183 18202565081200526500
20739085 24 17764564896386742809
20905425 154 18335414699425698814
21524375 3 18272089426676817779
22182313 1 18338783628848985527
22907989 373 18128822936991873237
23184049 29 18050289167520723144
2334 1 18410855499300104975
23557571 272 18189048703915949072
23558518 356 18126561219666437320
23559900 14 18261107496544891948
23566358 2 18335421322433762783
23598291 2 17703222902402299764
23728640 28 18411980234790912203
266924 87 17907027526970718421
2748010 2 18267291200941151863
3084891 72 18336548329787941928
3091708 16 9197188817166018955
350125 39 18411413986856112049
352729 6 18338793391356946679
465052 167 17773011096103712755
5104073 3 18409733924752455944
5385378 56 18121491629945327401
559249 180 18272376408018191618
7226269 152 18041279975960599440
7364860 26 17903921402458470231
77492 1 17704076157811571916
81228 2 18122627141735303035
84936 182 17828207919431561281
90525 40 18272651242310479915
9709674 26 18117004273451389536
9862522 239 18059587948053108205

> <PUBCHEM_SHAPE_MULTIPOLES>
414.56
7.66
3.73
1.05
6.66
3.56
0
-3.73
0
-4.21
0
0.24
-0.51
0

> <PUBCHEM_SHAPE_SELFOVERLAP>
915.452

> <PUBCHEM_SHAPE_VOLUME>
225.1

> <PUBCHEM_COORDINATE_TYPE>
2
5
10

$$$$

