17396194
  -OEChem-06241222552D

 37 38  0     0  0  0  0  0  0999 V2000
    6.3301   -4.0000    0.0000 Cl  0  0  0  0  0  0  0  0  0  0  0  0
    2.8660   -2.0000    0.0000 O   0  0  0  0  0  0  0  0  0  0  0  0
    6.3301   -1.0000    0.0000 O   0  0  0  0  0  0  0  0  0  0  0  0
    4.5981    4.0000    0.0000 O   0  0  0  0  0  0  0  0  0  0  0  0
    4.5981   -1.0000    0.0000 N   0  0  0  0  0  0  0  0  0  0  0  0
    3.7320    2.5000    0.0000 N   0  0  0  0  0  0  0  0  0  0  0  0
    5.4641    0.5000    0.0000 C   0  0  0  0  0  0  0  0  0  0  0  0
    4.5981   -2.0000    0.0000 C   0  0  0  0  0  0  0  0  0  0  0  0
    4.5981    2.0000    0.0000 C   0  0  0  0  0  0  0  0  0  0  0  0
    4.5981    1.0000    0.0000 C   0  0  0  0  0  0  0  0  0  0  0  0
    5.4641   -0.5000    0.0000 C   0  0  0  0  0  0  0  0  0  0  0  0
    3.7320   -2.5000    0.0000 C   0  0  0  0  0  0  0  0  0  0  0  0
    6.3301    1.0000    0.0000 C   0  0  0  0  0  0  0  0  0  0  0  0
    5.4641    2.5000    0.0000 C   0  0  0  0  0  0  0  0  0  0  0  0
    5.4641   -2.5000    0.0000 C   0  0  0  0  0  0  0  0  0  0  0  0
    6.3301    2.0000    0.0000 C   0  0  0  0  0  0  0  0  0  0  0  0
    3.7320   -3.5000    0.0000 C   0  0  0  0  0  0  0  0  0  0  0  0
    5.4641   -3.5000    0.0000 C   0  0  0  0  0  0  0  0  0  0  0  0
    4.5981   -4.0000    0.0000 C   0  0  0  0  0  0  0  0  0  0  0  0
    3.7320    3.5000    0.0000 C   0  0  0  0  0  0  0  0  0  0  0  0
    2.0000   -2.5000    0.0000 C   0  0  0  0  0  0  0  0  0  0  0  0
    2.8660    4.0000    0.0000 C   0  0  0  0  0  0  0  0  0  0  0  0
    4.0611    0.6900    0.0000 H   0  0  0  0  0  0  0  0  0  0  0  0
    4.0611   -0.6900    0.0000 H   0  0  0  0  0  0  0  0  0  0  0  0
    6.8671    0.6900    0.0000 H   0  0  0  0  0  0  0  0  0  0  0  0
    5.4641    3.1200    0.0000 H   0  0  0  0  0  0  0  0  0  0  0  0
    6.0010   -2.1900    0.0000 H   0  0  0  0  0  0  0  0  0  0  0  0
    6.8671    2.3100    0.0000 H   0  0  0  0  0  0  0  0  0  0  0  0
    3.1951   -3.8100    0.0000 H   0  0  0  0  0  0  0  0  0  0  0  0
    3.1951    2.1900    0.0000 H   0  0  0  0  0  0  0  0  0  0  0  0
    4.5981   -4.6200    0.0000 H   0  0  0  0  0  0  0  0  0  0  0  0
    1.6900   -1.9631    0.0000 H   0  0  0  0  0  0  0  0  0  0  0  0
    1.4631   -2.8100    0.0000 H   0  0  0  0  0  0  0  0  0  0  0  0
    2.3100   -3.0369    0.0000 H   0  0  0  0  0  0  0  0  0  0  0  0
    3.1760    4.5369    0.0000 H   0  0  0  0  0  0  0  0  0  0  0  0
    2.3291    4.3100    0.0000 H   0  0  0  0  0  0  0  0  0  0  0  0
    2.5560    3.4631    0.0000 H   0  0  0  0  0  0  0  0  0  0  0  0
  1 18  1  0  0  0  0
  2 12  1  0  0  0  0
  2 21  1  0  0  0  0
  3 11  2  0  0  0  0
  4 20  2  0  0  0  0
  5  8  1  0  0  0  0
  5 11  1  0  0  0  0
  5 24  1  0  0  0  0
  6  9  1  0  0  0  0
  6 20  1  0  0  0  0
  6 30  1  0  0  0  0
  7 10  2  0  0  0  0
  7 11  1  0  0  0  0
  7 13  1  0  0  0  0
  8 12  2  0  0  0  0
  8 15  1  0  0  0  0
  9 10  1  0  0  0  0
  9 14  2  0  0  0  0
 10 23  1  0  0  0  0
 12 17  1  0  0  0  0
 13 16  2  0  0  0  0
 13 25  1  0  0  0  0
 14 16  1  0  0  0  0
 14 26  1  0  0  0  0
 15 18  2  0  0  0  0
 15 27  1  0  0  0  0
 16 28  1  0  0  0  0
 17 19  2  0  0  0  0
 17 29  1  0  0  0  0
 18 19  1  0  0  0  0
 19 31  1  0  0  0  0
 20 22  1  0  0  0  0
 21 32  1  0  0  0  0
 21 33  1  0  0  0  0
 21 34  1  0  0  0  0
 22 35  1  0  0  0  0
 22 36  1  0  0  0  0
 22 37  1  0  0  0  0
M  END
> <PUBCHEM_COMPOUND_CID>
17396194

> <PUBCHEM_COMPOUND_CANONICALIZED>
1

> <PUBCHEM_CACTVS_COMPLEXITY>
405

> <PUBCHEM_CACTVS_HBOND_ACCEPTOR>
3

> <PUBCHEM_CACTVS_HBOND_DONOR>
2

> <PUBCHEM_CACTVS_ROTATABLE_BOND>
4

> <PUBCHEM_CACTVS_SUBSKEYS>
AAADccB7MAAEAAAAAAAAAAAAAAAAAAAAAAAwYAAAAAAAAAABQAAAHgIQAAAADA6BmCIyxoLABACIAiVSUACCCAAlJwAIiAEHbsgOJjLFt5uFMShk1BHY6YecyACOACAAQAIAEAAAQACABAAgAAAAAAAAAA==

> <PUBCHEM_IUPAC_OPENEYE_NAME>
3-acetamido-N-(5-chloro-2-methoxy-phenyl)benzamide

> <PUBCHEM_IUPAC_CAS_NAME>
3-acetamido-N-(5-chloro-2-methoxyphenyl)benzamide

> <PUBCHEM_IUPAC_NAME>
3-acetamido-N-(5-chloro-2-methoxyphenyl)benzamide

> <PUBCHEM_IUPAC_SYSTEMATIC_NAME>
3-acetamido-N-(5-chloranyl-2-methoxy-phenyl)benzamide

> <PUBCHEM_IUPAC_TRADITIONAL_NAME>
3-acetamido-N-(5-chloro-2-methoxy-phenyl)benzamide

> <PUBCHEM_IUPAC_INCHI>
InChI=1S/C16H15ClN2O3/c1-10(20)18-13-5-3-4-11(8-13)16(21)19-14-9-12(17)6-7-15(14)22-2/h3-9H,1-2H3,(H,18,20)(H,19,21)

> <PUBCHEM_IUPAC_INCHIKEY>
XZPUREZJCWRWGD-UHFFFAOYSA-N

> <PUBCHEM_XLOGP3>
2.9

> <PUBCHEM_EXACT_MASS>
318.07712

> <PUBCHEM_MOLECULAR_FORMULA>
C16H15ClN2O3

> <PUBCHEM_MOLECULAR_WEIGHT>
318.7549

> <PUBCHEM_OPENEYE_CAN_SMILES>
CC(=O)NC1=CC=CC(=C1)C(=O)NC2=C(C=CC(=C2)Cl)OC

> <PUBCHEM_OPENEYE_ISO_SMILES>
CC(=O)NC1=CC=CC(=C1)C(=O)NC2=C(C=CC(=C2)Cl)OC

> <PUBCHEM_CACTVS_TPSA>
67.4

> <PUBCHEM_MONOISOTOPIC_WEIGHT>
318.07712

> <PUBCHEM_TOTAL_CHARGE>
0

> <PUBCHEM_HEAVY_ATOM_COUNT>
22

> <PUBCHEM_ATOM_DEF_STEREO_COUNT>
0

> <PUBCHEM_ATOM_UDEF_STEREO_COUNT>
0

> <PUBCHEM_BOND_DEF_STEREO_COUNT>
0

> <PUBCHEM_BOND_UDEF_STEREO_COUNT>
0

> <PUBCHEM_ISOTOPIC_ATOM_COUNT>
0

> <PUBCHEM_COMPONENT_COUNT>
1

> <PUBCHEM_CACTVS_TAUTO_COUNT>
6

> <PUBCHEM_COORDINATE_TYPE>
1
5
255

> <PUBCHEM_BONDANNOTATIONS>
12  17  8
13  16  8
14  16  8
15  18  8
17  19  8
18  19  8
7  10  8
7  13  8
8  12  8
8  15  8
9  10  8
9  14  8

$$$$

