9920413
  -OEChem-07051213153D

 18 18  0     1  0  0  0  0  0999 V2000
    0.8749   -1.0658    0.2648 O   0  0  0  0  0  0  0  0  0  0  0  0
    3.4403   -0.3515   -0.3623 O   0  0  0  0  0  0  0  0  0  0  0  0
   -2.1759    1.6173   -0.1795 O   0  0  0  0  0  0  0  0  0  0  0  0
   -2.7868   -1.0892   -0.1501 O   0  0  0  0  0  0  0  0  0  0  0  0
    1.1351    0.2598   -0.2200 C   0  0  1  0  0  0  0  0  0  0  0  0
    0.1414    1.2719    0.3419 C   0  0  0  0  0  0  0  0  0  0  0  0
    2.5616    0.6221    0.1734 C   0  0  0  0  0  0  0  0  0  0  0  0
   -1.2579    0.8223    0.0014 C   0  0  0  0  0  0  0  0  0  0  0  0
   -1.4949   -0.6413   -0.0207 C   0  0  0  0  0  0  0  0  0  0  0  0
   -0.4377   -1.4456    0.1510 C   0  0  0  0  0  0  0  0  0  0  0  0
    1.0686    0.2205   -1.3166 H   0  0  0  0  0  0  0  0  0  0  0  0
    0.3172    2.2604   -0.0948 H   0  0  0  0  0  0  0  0  0  0  0  0
    0.2103    1.3417    1.4334 H   0  0  0  0  0  0  0  0  0  0  0  0
    2.6898    0.6241    1.2610 H   0  0  0  0  0  0  0  0  0  0  0  0
    2.8467    1.6034   -0.2172 H   0  0  0  0  0  0  0  0  0  0  0  0
   -0.5192   -2.5208    0.2393 H   0  0  0  0  0  0  0  0  0  0  0  0
    3.1725   -1.2163   -0.0073 H   0  0  0  0  0  0  0  0  0  0  0  0
   -2.7710   -2.0616   -0.1247 H   0  0  0  0  0  0  0  0  0  0  0  0
  1  5  1  0  0  0  0
  1 10  1  0  0  0  0
  2  7  1  0  0  0  0
  2 17  1  0  0  0  0
  3  8  2  0  0  0  0
  4  9  1  0  0  0  0
  4 18  1  0  0  0  0
  5  6  1  0  0  0  0
  5  7  1  0  0  0  0
  5 11  1  0  0  0  0
  6  8  1  0  0  0  0
  6 12  1  0  0  0  0
  6 13  1  0  0  0  0
  7 14  1  0  0  0  0
  7 15  1  0  0  0  0
  8  9  1  0  0  0  0
  9 10  2  0  0  0  0
 10 16  1  0  0  0  0
M  END
> <PUBCHEM_COMPOUND_CID>
9920413

> <PUBCHEM_CONFORMER_RMSD>
0.4

> <PUBCHEM_CONFORMER_DIVERSEORDER>
1
4
2
6
5
3

> <PUBCHEM_MMFF94_PARTIAL_CHARGES>
13
1 -0.36
10 -0.07
16 0.15
17 0.4
18 0.45
2 -0.68
3 -0.57
4 -0.53
5 0.28
6 0.06
7 0.28
8 0.49
9 0.09

> <PUBCHEM_EFFECTIVE_ROTOR_COUNT>
1.6

> <PUBCHEM_PHARMACOPHORE_FEATURES>
6
1 1 acceptor
1 2 acceptor
1 2 donor
1 3 acceptor
1 4 donor
6 1 5 6 8 9 10 rings

> <PUBCHEM_HEAVY_ATOM_COUNT>
10

> <PUBCHEM_ATOM_DEF_STEREO_COUNT>
1

> <PUBCHEM_ATOM_UDEF_STEREO_COUNT>
0

> <PUBCHEM_BOND_DEF_STEREO_COUNT>
0

> <PUBCHEM_BOND_UDEF_STEREO_COUNT>
0

> <PUBCHEM_ISOTOPIC_ATOM_COUNT>
0

> <PUBCHEM_COMPONENT_COUNT>
1

> <PUBCHEM_CACTVS_TAUTO_COUNT>
4

> <PUBCHEM_CONFORMER_ID>
00975F9D00000001

> <PUBCHEM_MMFF94_ENERGY>
15.138

> <PUBCHEM_FEATURE_SELFOVERLAP>
30.451

> <PUBCHEM_SHAPE_FINGERPRINT>
11206711 2 18412551993938243261
12032990 46 18268143150459067451
12423570 1 8544727763407780865
12716758 59 18408605885387136864
12897270 3 18411423890528476663
14325111 11 18411136948438323148
16945 1 18341052908614907115
21040471 1 18267307705994009713
23235685 24 18338521961749760425
23402655 69 18265352766779871029
23552423 10 18343861139001537846
241688 4 17977670814168410531
2748010 2 18338233885408147071
29004967 10 16370998594729904784
369184 2 17967813821258476120
5084963 1 18261390009917134184

> <PUBCHEM_SHAPE_MULTIPOLES>
182.32
3.95
1.57
0.62
2
0.11
0.01
-0.23
-0.43
-0.74
0.06
0.05
0.01
0.09

> <PUBCHEM_SHAPE_SELFOVERLAP>
368.983

> <PUBCHEM_SHAPE_VOLUME>
105.3

> <PUBCHEM_COORDINATE_TYPE>
2
5
10

$$$$

