442403
  -OEChem-07051212582D

 45 48  0     1  0  0  0  0  0999 V2000
    1.2006   -1.2930    0.0000 O   0  0  0  0  0  0  0  0  0  0  0  0
    6.0838   -0.1866    0.0000 O   0  0  0  0  0  0  0  0  0  0  0  0
    5.6833    1.7287    0.0000 O   0  0  0  0  0  0  0  0  0  0  0  0
    5.2350    3.4017    0.0000 O   0  0  0  0  0  0  0  0  0  0  0  0
    3.7396   -0.3447    0.0000 C   0  0  1  0  0  0  0  0  0  0  0  0
    1.9077   -0.5859    0.0000 C   0  0  1  0  0  0  0  0  0  0  0  0
    5.2748   -1.5879    0.0000 C   0  0  2  0  0  0  0  0  0  0  0  0
    3.4808    0.6212    0.0000 C   0  0  1  0  0  0  0  0  0  0  0  0
    4.7174    1.4699    0.0000 C   0  0  1  0  0  0  0  0  0  0  0  0
    0.9417   -0.3271    0.0000 C   0  0  0  0  0  0  0  0  0  0  0  0
    3.8514    1.9698    0.0000 C   0  0  0  0  0  0  0  0  0  0  0  0
    6.1883   -1.1811    0.0000 C   0  0  1  0  0  0  0  0  0  0  0  0
    3.9984   -1.3106    0.0000 C   0  0  0  0  0  0  0  0  0  0  0  0
    5.1499   -2.6220    0.0000 C   0  0  0  0  0  0  0  0  0  0  0  0
    4.3612   -1.9946    0.0000 C   0  0  0  0  0  0  0  0  0  0  0  0
    7.0404   -1.7803    0.0000 C   0  0  0  0  0  0  0  0  0  0  0  0
    5.9879   -3.2407    0.0000 C   0  0  0  0  0  0  0  0  0  0  0  0
    6.9395   -2.8170    0.0000 C   0  0  0  0  0  0  0  0  0  0  0  0
    5.9422    2.6946    0.0000 C   0  0  0  0  0  0  0  0  0  0  0  0
    7.7507   -3.4017    0.0000 C   0  0  0  0  0  0  0  0  0  0  0  0
    6.9081    2.9534    0.0000 C   0  0  0  0  0  0  0  0  0  0  0  0
    3.2608    1.4422    0.0000 H   0  0  0  0  0  0  0  0  0  0  0  0
    4.7983    2.0846    0.0000 H   0  0  0  0  0  0  0  0  0  0  0  0
    0.3241   -0.3811    0.0000 H   0  0  0  0  0  0  0  0  0  0  0  0
    0.9958    0.2906    0.0000 H   0  0  0  0  0  0  0  0  0  0  0  0
    3.2697    2.1844    0.0000 H   0  0  0  0  0  0  0  0  0  0  0  0
    4.1146    2.5312    0.0000 H   0  0  0  0  0  0  0  0  0  0  0  0
    6.9648   -0.8354    0.0000 H   0  0  0  0  0  0  0  0  0  0  0  0
    4.5973   -1.1502    0.0000 H   0  0  0  0  0  0  0  0  0  0  0  0
    4.1589   -1.9095    0.0000 H   0  0  0  0  0  0  0  0  0  0  0  0
    3.3996   -1.4711    0.0000 H   0  0  0  0  0  0  0  0  0  0  0  0
    4.8724   -3.1764    0.0000 H   0  0  0  0  0  0  0  0  0  0  0  0
    4.5562   -2.4434    0.0000 H   0  0  0  0  0  0  0  0  0  0  0  0
    4.6134   -2.5610    0.0000 H   0  0  0  0  0  0  0  0  0  0  0  0
    3.7948   -2.2468    0.0000 H   0  0  0  0  0  0  0  0  0  0  0  0
    4.1090   -1.4282    0.0000 H   0  0  0  0  0  0  0  0  0  0  0  0
    7.6038   -1.5216    0.0000 H   0  0  0  0  0  0  0  0  0  0  0  0
    6.3333   -3.7556    0.0000 H   0  0  0  0  0  0  0  0  0  0  0  0
    5.5397   -3.6691    0.0000 H   0  0  0  0  0  0  0  0  0  0  0  0
    8.1132   -2.8987    0.0000 H   0  0  0  0  0  0  0  0  0  0  0  0
    8.2537   -3.7642    0.0000 H   0  0  0  0  0  0  0  0  0  0  0  0
    7.3882   -3.9047    0.0000 H   0  0  0  0  0  0  0  0  0  0  0  0
    6.7476    3.5523    0.0000 H   0  0  0  0  0  0  0  0  0  0  0  0
    7.5070    3.1139    0.0000 H   0  0  0  0  0  0  0  0  0  0  0  0
    7.0686    2.3545    0.0000 H   0  0  0  0  0  0  0  0  0  0  0  0
  6  1  1  6  0  0  0
  1 10  1  0  0  0  0
  2  8  1  0  0  0  0
  2 12  1  0  0  0  0
  9  3  1  1  0  0  0
  3 19  1  0  0  0  0
  4 19  2  0  0  0  0
  5  6  1  0  0  0  0
  5  7  1  0  0  0  0
  5  9  1  0  0  0  0
  5 13  1  1  0  0  0
  6  8  1  0  0  0  0
  6 10  1  0  0  0  0
  7 12  1  0  0  0  0
  7 14  1  0  0  0  0
  7 15  1  1  0  0  0
  8 11  1  0  0  0  0
  8 22  1  6  0  0  0
  9 11  1  0  0  0  0
  9 23  1  0  0  0  0
 10 24  1  0  0  0  0
 10 25  1  0  0  0  0
 11 26  1  0  0  0  0
 11 27  1  0  0  0  0
 12 16  1  0  0  0  0
 12 28  1  1  0  0  0
 13 29  1  0  0  0  0
 13 30  1  0  0  0  0
 13 31  1  0  0  0  0
 14 17  1  0  0  0  0
 14 32  1  0  0  0  0
 14 33  1  0  0  0  0
 15 34  1  0  0  0  0
 15 35  1  0  0  0  0
 15 36  1  0  0  0  0
 16 18  2  0  0  0  0
 16 37  1  0  0  0  0
 17 18  1  0  0  0  0
 17 38  1  0  0  0  0
 17 39  1  0  0  0  0
 18 20  1  0  0  0  0
 19 21  1  0  0  0  0
 20 40  1  0  0  0  0
 20 41  1  0  0  0  0
 20 42  1  0  0  0  0
 21 43  1  0  0  0  0
 21 44  1  0  0  0  0
 21 45  1  0  0  0  0
M  END
> <PUBCHEM_COMPOUND_CID>
442403

> <PUBCHEM_COMPOUND_CANONICALIZED>
1

> <PUBCHEM_CACTVS_COMPLEXITY>
541

> <PUBCHEM_CACTVS_HBOND_ACCEPTOR>
4

> <PUBCHEM_CACTVS_HBOND_DONOR>
0

> <PUBCHEM_CACTVS_ROTATABLE_BOND>
2

> <PUBCHEM_CACTVS_SUBSKEYS>
AAADceB4OAAAAAAAAAAAAAAAEgAAAYAAAAAkQAAABIAAAACAAAAAGgAAAAAADlSggAICCAAABACIAiDSCAAAAAAgAAAACAAAAAgBBAIAIQACEAAFgAAKIAPA4PwPgAAAAAAAAAAAAAAAAAAAAIQADCAAAA==

> <PUBCHEM_IUPAC_INCHI>
InChI=1S/C17H24O4/c1-10-5-6-15(3)12(7-10)21-14-8-13(20-11(2)18)16(15,4)17(14)9-19-17/h7,12-14H,5-6,8-9H2,1-4H3/t12-,13-,14-,15+,16-,17-/m1/s1

> <PUBCHEM_IUPAC_INCHIKEY>
HNEGCRMUYSKRRR-NWHWRWDZSA-N

> <PUBCHEM_XLOGP3_AA>
1.8

> <PUBCHEM_EXACT_MASS>
292.167459

> <PUBCHEM_MOLECULAR_FORMULA>
C17H24O4

> <PUBCHEM_MOLECULAR_WEIGHT>
292.37006

> <PUBCHEM_OPENEYE_CAN_SMILES>
CC1=CC2C(CC1)(C3(C(CC(C34CO4)O2)OC(=O)C)C)C

> <PUBCHEM_OPENEYE_ISO_SMILES>
CC1=C[C@@H]2[C@](CC1)([C@]3([C@@H](C[C@H]([C@]34CO4)O2)OC(=O)C)C)C

> <PUBCHEM_CACTVS_TPSA>
48.1

> <PUBCHEM_MONOISOTOPIC_WEIGHT>
292.167459

> <PUBCHEM_TOTAL_CHARGE>
0

> <PUBCHEM_HEAVY_ATOM_COUNT>
21

> <PUBCHEM_ATOM_DEF_STEREO_COUNT>
6

> <PUBCHEM_ATOM_UDEF_STEREO_COUNT>
0

> <PUBCHEM_BOND_DEF_STEREO_COUNT>
0

> <PUBCHEM_BOND_UDEF_STEREO_COUNT>
0

> <PUBCHEM_ISOTOPIC_ATOM_COUNT>
0

> <PUBCHEM_COMPONENT_COUNT>
1

> <PUBCHEM_CACTVS_TAUTO_COUNT>
1

> <PUBCHEM_COORDINATE_TYPE>
1
5
255

> <PUBCHEM_BONDANNOTATIONS>
6  1  6
12  28  5
9  3  5
5  13  5
7  15  5
8  22  6

$$$$

