227830
  -OEChem-07051212573D

 44 47  0     1  0  0  0  0  0999 V2000
    0.6918    1.5987   -0.6256 O   0  0  0  0  0  0  0  0  0  0  0  0
    1.9254   -2.0806   -0.2844 O   0  0  0  0  0  0  0  0  0  0  0  0
    2.6984    2.4518    0.2466 O   0  0  0  0  0  0  0  0  0  0  0  0
    4.0456   -1.3122    0.1136 O   0  0  0  0  0  0  0  0  0  0  0  0
   -2.3055    2.8791    0.2748 O   0  0  0  0  0  0  0  0  0  0  0  0
    0.6764   -0.3627    0.6461 C   0  0  2  0  0  0  0  0  0  0  0  0
   -0.1290    0.8745    0.3035 C   0  0  2  0  0  0  0  0  0  0  0  0
    2.1198    0.1059    0.6127 C   0  0  2  0  0  0  0  0  0  0  0  0
   -1.5412    0.6139   -0.2612 C   0  0  1  0  0  0  0  0  0  0  0  0
    0.6366   -1.4635   -0.3966 C   0  0  2  0  0  0  0  0  0  0  0  0
   -2.2092   -0.6516    0.3707 C   0  0  2  0  0  0  0  0  0  0  0  0
    2.0848    1.3132   -0.3622 C   0  0  1  0  0  0  0  0  0  0  0  0
   -1.9194   -1.9836   -0.3727 C   0  0  1  0  0  0  0  0  0  0  0  0
   -0.4687   -2.4871   -0.1514 C   0  0  0  0  0  0  0  0  0  0  0  0
    2.8354   -1.1419    0.1243 C   0  0  0  0  0  0  0  0  0  0  0  0
    2.6181    0.4417    2.0240 C   0  0  0  0  0  0  0  0  0  0  0  0
   -2.5263    1.6792    0.2044 C   0  0  0  0  0  0  0  0  0  0  0  0
   -1.6219    0.6878   -1.8043 C   0  0  0  0  0  0  0  0  0  0  0  0
   -3.6508   -0.2259    0.5105 C   0  0  0  0  0  0  0  0  0  0  0  0
    2.7572    1.0804   -1.7162 C   0  0  0  0  0  0  0  0  0  0  0  0
   -2.8718   -3.1115    0.0553 C   0  0  0  0  0  0  0  0  0  0  0  0
   -3.8457    1.0943    0.4882 C   0  0  0  0  0  0  0  0  0  0  0  0
    0.4045   -0.7611    1.6318 H   0  0  0  0  0  0  0  0  0  0  0  0
   -0.1982    1.5005    1.2036 H   0  0  0  0  0  0  0  0  0  0  0  0
    0.5702   -1.0959   -1.4227 H   0  0  0  0  0  0  0  0  0  0  0  0
   -1.8673   -0.7798    1.4090 H   0  0  0  0  0  0  0  0  0  0  0  0
   -2.0695   -1.8467   -1.4498 H   0  0  0  0  0  0  0  0  0  0  0  0
   -0.3650   -2.8851    0.8677 H   0  0  0  0  0  0  0  0  0  0  0  0
   -0.2898   -3.3513   -0.8057 H   0  0  0  0  0  0  0  0  0  0  0  0
    2.0142    1.2271    2.4911 H   0  0  0  0  0  0  0  0  0  0  0  0
    2.5806   -0.4378    2.6780 H   0  0  0  0  0  0  0  0  0  0  0  0
    3.6616    0.7761    2.0036 H   0  0  0  0  0  0  0  0  0  0  0  0
   -1.3771    1.6945   -2.1648 H   0  0  0  0  0  0  0  0  0  0  0  0
   -0.9441   -0.0071   -2.3020 H   0  0  0  0  0  0  0  0  0  0  0  0
   -2.6332    0.4692   -2.1681 H   0  0  0  0  0  0  0  0  0  0  0  0
   -4.4539   -0.9138    0.7380 H   0  0  0  0  0  0  0  0  0  0  0  0
    2.6342    1.9609   -2.3585 H   0  0  0  0  0  0  0  0  0  0  0  0
    3.8338    0.9164   -1.6045 H   0  0  0  0  0  0  0  0  0  0  0  0
    2.3138    0.2401   -2.2582 H   0  0  0  0  0  0  0  0  0  0  0  0
   -3.9001   -2.9043   -0.2565 H   0  0  0  0  0  0  0  0  0  0  0  0
   -2.5854   -4.0612   -0.4102 H   0  0  0  0  0  0  0  0  0  0  0  0
   -2.8601   -3.2509    1.1416 H   0  0  0  0  0  0  0  0  0  0  0  0
   -4.7585    1.6403    0.6448 H   0  0  0  0  0  0  0  0  0  0  0  0
    2.9537    3.0767   -0.4522 H   0  0  0  0  0  0  0  0  0  0  0  0
  1  7  1  0  0  0  0
  1 12  1  0  0  0  0
  2 10  1  0  0  0  0
  2 15  1  0  0  0  0
  3 12  1  0  0  0  0
  3 44  1  0  0  0  0
  4 15  2  0  0  0  0
  5 17  2  0  0  0  0
  6  7  1  0  0  0  0
  6  8  1  0  0  0  0
  6 10  1  0  0  0  0
  6 23  1  0  0  0  0
  7  9  1  0  0  0  0
  7 24  1  0  0  0  0
  8 12  1  0  0  0  0
  8 15  1  0  0  0  0
  8 16  1  0  0  0  0
  9 11  1  0  0  0  0
  9 17  1  0  0  0  0
  9 18  1  0  0  0  0
 10 14  1  0  0  0  0
 10 25  1  0  0  0  0
 11 13  1  0  0  0  0
 11 19  1  0  0  0  0
 11 26  1  0  0  0  0
 12 20  1  0  0  0  0
 13 14  1  0  0  0  0
 13 21  1  0  0  0  0
 13 27  1  0  0  0  0
 14 28  1  0  0  0  0
 14 29  1  0  0  0  0
 16 30  1  0  0  0  0
 16 31  1  0  0  0  0
 16 32  1  0  0  0  0
 17 22  1  0  0  0  0
 18 33  1  0  0  0  0
 18 34  1  0  0  0  0
 18 35  1  0  0  0  0
 19 22  2  0  0  0  0
 19 36  1  0  0  0  0
 20 37  1  0  0  0  0
 20 38  1  0  0  0  0
 20 39  1  0  0  0  0
 21 40  1  0  0  0  0
 21 41  1  0  0  0  0
 21 42  1  0  0  0  0
 22 43  1  0  0  0  0
M  END
> <PUBCHEM_COMPOUND_CID>
227830

> <PUBCHEM_CONFORMER_RMSD>
0.6

> <PUBCHEM_CONFORMER_DIVERSEORDER>
2
1

> <PUBCHEM_MMFF94_PARTIAL_CHARGES>
18
1 -0.56
10 0.28
11 0.14
12 0.56
15 0.66
17 0.49
19 -0.29
2 -0.43
22 -0.14
3 -0.68
36 0.15
4 -0.57
43 0.15
44 0.4
5 -0.57
7 0.28
8 0.06
9 0.06

> <PUBCHEM_EFFECTIVE_ROTOR_COUNT>
1

> <PUBCHEM_PHARMACOPHORE_FEATURES>
9
1 1 acceptor
1 3 acceptor
1 3 donor
1 4 acceptor
1 5 acceptor
5 1 6 7 8 12 rings
5 2 6 8 10 15 rings
5 9 11 17 19 22 rings
7 6 7 9 10 11 13 14 rings

> <PUBCHEM_HEAVY_ATOM_COUNT>
22

> <PUBCHEM_ATOM_DEF_STEREO_COUNT>
7

> <PUBCHEM_ATOM_UDEF_STEREO_COUNT>
1

> <PUBCHEM_BOND_DEF_STEREO_COUNT>
0

> <PUBCHEM_BOND_UDEF_STEREO_COUNT>
0

> <PUBCHEM_ISOTOPIC_ATOM_COUNT>
0

> <PUBCHEM_COMPONENT_COUNT>
1

> <PUBCHEM_CACTVS_TAUTO_COUNT>
3

> <PUBCHEM_CONFORMER_ID>
000379F600000002

> <PUBCHEM_MMFF94_ENERGY>
78.1231

> <PUBCHEM_FEATURE_SELFOVERLAP>
46.245

> <PUBCHEM_SHAPE_FINGERPRINT>
104564 63 18122053218014196983
10498660 4 18266175024618552501
10616163 171 18337946771229190407
10863032 1 18338230466640494679
10967382 1 18193837274016546251
11132069 177 18340214011576697603
11680611 10 17915767347467953650
12011746 2 18267583696603425791
12173636 292 18409167727434499533
12251169 10 18412545443997052491
12553582 1 17832987148738379763
12633257 1 18262225703542776507
13140716 1 18411420587688434035
13172582 1 18341905137542703506
13224815 77 18270402672459952851
13538477 17 18412262800789204837
14115302 16 18335413616739771408
14178342 30 18337967713494708506
14223421 5 18337115540332895433
14790565 3 17905312276410449420
15238133 3 17168968132038555889
15295992 7 17748834020276735571
15309172 13 18338507647135134761
15442244 35 18411702092951403162
16945 1 18409732846077074445
17349148 13 18266767760228395247
17804303 29 18335416915237932890
1813 80 17273988007342101402
18981168 100 18337684039431542436
19591789 44 17834111222920007779
20261772 1 18265597815727429003
20510252 161 18045211640235560233
20511035 2 18187093883325324702
20691752 17 17632016347069651670
20905425 154 18263634061604854678
21501502 16 18340484469709320142
2334 1 18266741277286020047
23388829 49 17907858405894991935
23419403 2 14878732526961407167
23558518 356 18271526398944941635
23559900 14 18333733498717156720
238 59 17482023385139058421
2748010 2 17692258846890278039
296302 2 5256105909654398410
335352 9 18338515360506235719
350125 39 18410852153019233107
352729 6 18409165532759010499
4409770 3 17195750182692430598
7097593 13 18057903496107727210
7364860 26 18409446973296881096
74978 22 18410577300950801084
81228 2 18268442230575166427
90525 40 18411412955789608959
9709674 26 18334011713687284143

> <PUBCHEM_SHAPE_MULTIPOLES>
423.4
6.05
2.97
1.22
0.04
0.77
-0.1
-0.24
0.78
1.29
-0.16
-0.65
-0.36
-0.29

> <PUBCHEM_SHAPE_SELFOVERLAP>
932.86

> <PUBCHEM_SHAPE_VOLUME>
230.8

> <PUBCHEM_COORDINATE_TYPE>
2
5
10

$$$$

