13092559
  -OEChem-07051213093D

 43 44  0     1  0  0  0  0  0999 V2000
   -0.9133   -0.4452    0.5681 O   0  0  0  0  0  0  0  0  0  0  0  0
   -2.4740    2.1265    0.3891 O   0  0  0  0  0  0  0  0  0  0  0  0
   -0.4813   -0.5327   -0.7944 C   0  0  2  0  0  0  0  0  0  0  0  0
    1.0386   -0.2950   -0.7398 C   0  0  1  0  0  0  0  0  0  0  0  0
   -1.1169    0.5541   -1.6747 C   0  0  0  0  0  0  0  0  0  0  0  0
   -2.3034   -0.2691    0.8769 C   0  0  0  0  0  0  0  0  0  0  0  0
   -2.6244    0.6577   -1.4721 C   0  0  0  0  0  0  0  0  0  0  0  0
   -2.9505    0.8326    0.0084 C   0  0  2  0  0  0  0  0  0  0  0  0
    1.3611    1.1079   -0.2156 C   0  0  0  0  0  0  0  0  0  0  0  0
    1.7259   -1.3586    0.1315 C   0  0  0  0  0  0  0  0  0  0  0  0
   -0.7011   -1.9384   -1.3689 C   0  0  0  0  0  0  0  0  0  0  0  0
    2.8714    1.3646   -0.2126 C   0  0  0  0  0  0  0  0  0  0  0  0
   -2.3168    0.1217    2.3674 C   0  0  0  0  0  0  0  0  0  0  0  0
   -3.0710   -1.5954    0.7587 C   0  0  0  0  0  0  0  0  0  0  0  0
    3.1496   -1.0205    0.4647 C   0  0  0  0  0  0  0  0  0  0  0  0
    3.6837    0.2019    0.2999 C   0  0  0  0  0  0  0  0  0  0  0  0
    5.1225    0.4878    0.6133 C   0  0  0  0  0  0  0  0  0  0  0  0
    1.4484   -0.3681   -1.7586 H   0  0  0  0  0  0  0  0  0  0  0  0
   -0.8973    0.3647   -2.7328 H   0  0  0  0  0  0  0  0  0  0  0  0
   -0.7522    1.5584   -1.4691 H   0  0  0  0  0  0  0  0  0  0  0  0
   -2.9979    1.5174   -2.0422 H   0  0  0  0  0  0  0  0  0  0  0  0
   -3.1240   -0.2296   -1.8741 H   0  0  0  0  0  0  0  0  0  0  0  0
   -4.0390    0.8418    0.1418 H   0  0  0  0  0  0  0  0  0  0  0  0
    0.9780    1.2343    0.8053 H   0  0  0  0  0  0  0  0  0  0  0  0
    0.9439    1.9172   -0.8149 H   0  0  0  0  0  0  0  0  0  0  0  0
    1.7365   -2.3183   -0.3983 H   0  0  0  0  0  0  0  0  0  0  0  0
    1.1987   -1.5204    1.0788 H   0  0  0  0  0  0  0  0  0  0  0  0
   -0.0564   -2.1296   -2.2344 H   0  0  0  0  0  0  0  0  0  0  0  0
   -0.5322   -2.7184   -0.6189 H   0  0  0  0  0  0  0  0  0  0  0  0
   -1.7249   -2.0747   -1.7263 H   0  0  0  0  0  0  0  0  0  0  0  0
    3.0700    2.2538    0.3980 H   0  0  0  0  0  0  0  0  0  0  0  0
    3.2042    1.5942   -1.2328 H   0  0  0  0  0  0  0  0  0  0  0  0
   -1.6679    0.9835    2.5610 H   0  0  0  0  0  0  0  0  0  0  0  0
   -3.3280    0.3569    2.7154 H   0  0  0  0  0  0  0  0  0  0  0  0
   -1.9204   -0.6930    2.9855 H   0  0  0  0  0  0  0  0  0  0  0  0
   -4.0544   -1.5266    1.2375 H   0  0  0  0  0  0  0  0  0  0  0  0
   -3.2494   -1.8872   -0.2776 H   0  0  0  0  0  0  0  0  0  0  0  0
   -2.5131   -2.4130    1.2286 H   0  0  0  0  0  0  0  0  0  0  0  0
    3.7613   -1.8294    0.8559 H   0  0  0  0  0  0  0  0  0  0  0  0
   -2.9093    2.3674    1.2243 H   0  0  0  0  0  0  0  0  0  0  0  0
    5.6390    0.8541   -0.2797 H   0  0  0  0  0  0  0  0  0  0  0  0
    5.6540   -0.4031    0.9640 H   0  0  0  0  0  0  0  0  0  0  0  0
    5.1968    1.2501    1.3956 H   0  0  0  0  0  0  0  0  0  0  0  0
  1  3  1  0  0  0  0
  1  6  1  0  0  0  0
  2  8  1  0  0  0  0
  2 40  1  0  0  0  0
  3  4  1  0  0  0  0
  3  5  1  0  0  0  0
  3 11  1  0  0  0  0
  4  9  1  0  0  0  0
  4 10  1  0  0  0  0
  4 18  1  0  0  0  0
  5  7  1  0  0  0  0
  5 19  1  0  0  0  0
  5 20  1  0  0  0  0
  6  8  1  0  0  0  0
  6 13  1  0  0  0  0
  6 14  1  0  0  0  0
  7  8  1  0  0  0  0
  7 21  1  0  0  0  0
  7 22  1  0  0  0  0
  8 23  1  0  0  0  0
  9 12  1  0  0  0  0
  9 24  1  0  0  0  0
  9 25  1  0  0  0  0
 10 15  1  0  0  0  0
 10 26  1  0  0  0  0
 10 27  1  0  0  0  0
 11 28  1  0  0  0  0
 11 29  1  0  0  0  0
 11 30  1  0  0  0  0
 12 16  1  0  0  0  0
 12 31  1  0  0  0  0
 12 32  1  0  0  0  0
 13 33  1  0  0  0  0
 13 34  1  0  0  0  0
 13 35  1  0  0  0  0
 14 36  1  0  0  0  0
 14 37  1  0  0  0  0
 14 38  1  0  0  0  0
 15 16  2  0  0  0  0
 15 39  1  0  0  0  0
 16 17  1  0  0  0  0
 17 41  1  0  0  0  0
 17 42  1  0  0  0  0
 17 43  1  0  0  0  0
M  END
> <PUBCHEM_COMPOUND_CID>
13092559

> <PUBCHEM_CONFORMER_RMSD>
0.6

> <PUBCHEM_CONFORMER_DIVERSEORDER>
1
10
5
7
6
9
2
4
8
3

> <PUBCHEM_MMFF94_PARTIAL_CHARGES>
12
1 -0.56
10 0.14
12 0.14
15 -0.29
16 -0.28
17 0.14
2 -0.68
3 0.28
39 0.15
40 0.4
6 0.28
8 0.28

> <PUBCHEM_EFFECTIVE_ROTOR_COUNT>
3

> <PUBCHEM_PHARMACOPHORE_FEATURES>
6
1 1 acceptor
1 2 acceptor
1 2 donor
3 6 13 14 hydrophobe
6 1 3 5 6 7 8 rings
6 4 9 10 12 15 16 rings

> <PUBCHEM_HEAVY_ATOM_COUNT>
17

> <PUBCHEM_ATOM_DEF_STEREO_COUNT>
3

> <PUBCHEM_ATOM_UDEF_STEREO_COUNT>
0

> <PUBCHEM_BOND_DEF_STEREO_COUNT>
0

> <PUBCHEM_BOND_UDEF_STEREO_COUNT>
0

> <PUBCHEM_ISOTOPIC_ATOM_COUNT>
0

> <PUBCHEM_COMPONENT_COUNT>
1

> <PUBCHEM_CACTVS_TAUTO_COUNT>
1

> <PUBCHEM_CONFORMER_ID>
00C7C6CF00000001

> <PUBCHEM_MMFF94_ENERGY>
51.1103

> <PUBCHEM_FEATURE_SELFOVERLAP>
30.447

> <PUBCHEM_SHAPE_FINGERPRINT>
10366900 7 17560799905581475954
10498660 4 15213298681218614985
11046707 91 14692572096123142752
11132069 177 17489588999641961030
11471102 22 18130783443480906266
11640471 11 17169270536322139067
12077114 3 18409451418181811564
12251169 10 18272363174638110707
124424 183 17989215862395934972
12500047 106 16558482979301750741
12507557 5 18339931428662208184
12507560 40 18411130376800776226
12633257 1 18129644344765309617
13024252 1 16128665154195066455
13214271 11 17988933257916581230
13296908 3 18271805757008975842
13299463 15 7132713894278179071
13675066 3 18408606946755696920
13693222 15 18130780110269864475
14142880 1 17313374678096064281
14144814 61 18260269655103123462
14289901 80 18201715128927092194
15219456 202 18059580225759652582
15309172 13 18333449850302313110
15375462 478 18342170017019068031
15534591 1 16226034622263741235
15653759 3 17632861931999376908
15775835 57 17240767327890488417
16945 1 18128231429648042511
17844478 74 17847061077856342612
18186145 218 5978112306092741162
18534176 82 13984675727835022525
18981168 100 17678154148567701317
19049666 15 17558277793216013886
19868273 293 15357694218863135714
200 152 18338246968242586263
20279233 1 17489594492989489694
20281475 54 15339114641771200450
20361792 2 12895064098492380367
20645477 56 14273729642596459034
20871999 31 5689593849589363569
21501502 16 17560790001086321700
21650355 55 16487252162389697781
21731516 1 13542170663318767203
2306618 200 18040438772023518593
232386 152 15554437505243268118
23402539 116 18272095985487563335
23419403 2 15980333115725378815
23559900 14 17130710659890452930
27216 239 18411704283200068785
305870 269 17313936558148707358
3286 77 17916866803366376680
4028521 119 15502378962626129921
568465 68 18060409206040019032
5706482 22 17967533475831927095
74978 22 17968669211498681604

> <PUBCHEM_SHAPE_MULTIPOLES>
338.11
7.09
1.69
1.58
7.38
0.05
-0.25
-0.95
-2.34
-0.58
0.16
-1.47
0.11
0.23

> <PUBCHEM_SHAPE_SELFOVERLAP>
690.681

> <PUBCHEM_SHAPE_VOLUME>
195.5

> <PUBCHEM_COORDINATE_TYPE>
2
5
10

$$$$

