5281440
  -OEChem-07051212572D

 57 60  0     1  0  0  0  0  0999 V2000
    7.5893   -0.0499    0.0000 O   0  0  0  0  0  0  0  0  0  0  0  0
    8.1772    2.7160    0.0000 O   0  0  0  0  0  0  0  0  0  0  0  0
    4.0342   -0.0142    0.0000 O   0  0  0  0  0  0  0  0  0  0  0  0
    3.7163    3.0415    0.0000 O   0  0  0  0  0  0  0  0  0  0  0  0
    7.4751    4.6075    0.0000 O   0  0  0  0  0  0  0  0  0  0  0  0
    2.0000    2.5836    0.0000 O   0  0  0  0  0  0  0  0  0  0  0  0
    5.1932   -1.3013    0.0000 O   0  0  0  0  0  0  0  0  0  0  0  0
    4.8658   -3.9268    0.0000 O   0  0  0  0  0  0  0  0  0  0  0  0
    6.5600   -3.5666    0.0000 O   0  0  0  0  0  0  0  0  0  0  0  0
    7.3810    0.9286    0.0000 C   0  0  1  0  0  0  0  0  0  0  0  0
    6.6379    0.2595    0.0000 C   0  0  1  0  0  0  0  0  0  0  0  0
    7.5889    1.9068    0.0000 C   0  0  2  0  0  0  0  0  0  0  0  0
    7.1822    2.8203    0.0000 C   0  0  2  0  0  0  0  0  0  0  0  0
    5.6434    0.1550    0.0000 C   0  0  0  0  0  0  0  0  0  0  0  0
    5.8947   -0.4096    0.0000 C   0  0  0  0  0  0  0  0  0  0  0  0
    4.7773    0.6550    0.0000 C   0  0  2  0  0  0  0  0  0  0  0  0
    4.3706    1.5685    0.0000 C   0  0  2  0  0  0  0  0  0  0  0  0
    6.3162    3.3203    0.0000 C   0  0  0  0  0  0  0  0  0  0  0  0
    4.5785    2.5466    0.0000 C   0  0  1  0  0  0  0  0  0  0  0  0
    5.3216    3.2158    0.0000 C   0  0  0  0  0  0  0  0  0  0  0  0
    3.3817    1.4672    0.0000 C   0  0  0  0  0  0  0  0  0  0  0  0
    6.5241    4.2985    0.0000 C   0  0  0  0  0  0  0  0  0  0  0  0
    2.9782    2.3756    0.0000 C   0  0  0  0  0  0  0  0  0  0  0  0
    2.8802    0.6020    0.0000 C   0  0  0  0  0  0  0  0  0  0  0  0
    4.2421   -0.9923    0.0000 C   0  0  0  0  0  0  0  0  0  0  0  0
    3.4990   -1.6614    0.0000 C   0  0  0  0  0  0  0  0  0  0  0  0
    2.5479   -1.3524    0.0000 C   0  0  0  0  0  0  0  0  0  0  0  0
    3.7069   -2.6396    0.0000 C   0  0  0  0  0  0  0  0  0  0  0  0
    4.6579   -2.9486    0.0000 C   0  0  0  0  0  0  0  0  0  0  0  0
    5.8169   -4.2358    0.0000 C   0  0  0  0  0  0  0  0  0  0  0  0
    6.0248   -5.2139    0.0000 C   0  0  0  0  0  0  0  0  0  0  0  0
    8.2310    0.9287    0.0000 H   0  0  0  0  0  0  0  0  0  0  0  0
    8.1553    1.6545    0.0000 H   0  0  0  0  0  0  0  0  0  0  0  0
    7.3737    3.4100    0.0000 H   0  0  0  0  0  0  0  0  0  0  0  0
    5.1826   -0.2599    0.0000 H   0  0  0  0  0  0  0  0  0  0  0  0
    5.8955   -0.4114    0.0000 H   0  0  0  0  0  0  0  0  0  0  0  0
    5.4799    0.0511    0.0000 H   0  0  0  0  0  0  0  0  0  0  0  0
    5.4340   -0.8245    0.0000 H   0  0  0  0  0  0  0  0  0  0  0  0
    6.3096   -0.8704    0.0000 H   0  0  0  0  0  0  0  0  0  0  0  0
    4.8421    0.0384    0.0000 H   0  0  0  0  0  0  0  0  0  0  0  0
    3.9446    0.8329    0.0000 H   0  0  0  0  0  0  0  0  0  0  0  0
    4.4886    3.3919    0.0000 H   0  0  0  0  0  0  0  0  0  0  0  0
    5.0695    3.7822    0.0000 H   0  0  0  0  0  0  0  0  0  0  0  0
    6.4378    4.9124    0.0000 H   0  0  0  0  0  0  0  0  0  0  0  0
    5.9045    4.3201    0.0000 H   0  0  0  0  0  0  0  0  0  0  0  0
    2.2602    0.6031    0.0000 H   0  0  0  0  0  0  0  0  0  0  0  0
    3.1893    0.0645    0.0000 H   0  0  0  0  0  0  0  0  0  0  0  0
    7.6040    5.2139    0.0000 H   0  0  0  0  0  0  0  0  0  0  0  0
    2.7395   -0.7628    0.0000 H   0  0  0  0  0  0  0  0  0  0  0  0
    1.9582   -1.1608    0.0000 H   0  0  0  0  0  0  0  0  0  0  0  0
    2.3563   -1.9421    0.0000 H   0  0  0  0  0  0  0  0  0  0  0  0
    3.2461   -3.0545    0.0000 H   0  0  0  0  0  0  0  0  0  0  0  0
    5.2775   -2.9270    0.0000 H   0  0  0  0  0  0  0  0  0  0  0  0
    4.7442   -2.3346    0.0000 H   0  0  0  0  0  0  0  0  0  0  0  0
    5.4184   -5.3428    0.0000 H   0  0  0  0  0  0  0  0  0  0  0  0
    6.1537   -5.8204    0.0000 H   0  0  0  0  0  0  0  0  0  0  0  0
    6.6312   -5.0850    0.0000 H   0  0  0  0  0  0  0  0  0  0  0  0
  1 10  1  0  0  0  0
  1 11  1  0  0  0  0
 12  2  1  6  0  0  0
 13  2  1  6  0  0  0
 16  3  1  1  0  0  0
  3 25  1  0  0  0  0
  4 19  1  0  0  0  0
  4 23  1  0  0  0  0
  5 22  1  0  0  0  0
  5 48  1  0  0  0  0
  6 23  2  0  0  0  0
  7 25  2  0  0  0  0
  8 29  1  0  0  0  0
  8 30  1  0  0  0  0
  9 30  2  0  0  0  0
 10 11  1  0  0  0  0
 10 12  1  0  0  0  0
 10 32  1  6  0  0  0
 11 14  1  0  0  0  0
 11 15  1  1  0  0  0
 12 13  1  0  0  0  0
 12 33  1  0  0  0  0
 13 18  1  0  0  0  0
 13 34  1  0  0  0  0
 14 16  1  0  0  0  0
 14 35  1  0  0  0  0
 14 36  1  0  0  0  0
 15 37  1  0  0  0  0
 15 38  1  0  0  0  0
 15 39  1  0  0  0  0
 16 17  1  0  0  0  0
 16 40  1  0  0  0  0
 17 19  1  0  0  0  0
 17 21  1  0  0  0  0
 17 41  1  6  0  0  0
 18 20  2  0  0  0  0
 18 22  1  0  0  0  0
 19 20  1  0  0  0  0
 19 42  1  1  0  0  0
 20 43  1  0  0  0  0
 21 23  1  0  0  0  0
 21 24  2  0  0  0  0
 22 44  1  0  0  0  0
 22 45  1  0  0  0  0
 24 46  1  0  0  0  0
 24 47  1  0  0  0  0
 25 26  1  0  0  0  0
 26 27  1  0  0  0  0
 26 28  2  0  0  0  0
 27 49  1  0  0  0  0
 27 50  1  0  0  0  0
 27 51  1  0  0  0  0
 28 29  1  0  0  0  0
 28 52  1  0  0  0  0
 29 53  1  0  0  0  0
 29 54  1  0  0  0  0
 30 31  1  0  0  0  0
 31 55  1  0  0  0  0
 31 56  1  0  0  0  0
 31 57  1  0  0  0  0
M  END
> <PUBCHEM_COMPOUND_CID>
5281440

> <PUBCHEM_COMPOUND_CANONICALIZED>
1

> <PUBCHEM_CACTVS_COMPLEXITY>
887

> <PUBCHEM_CACTVS_HBOND_ACCEPTOR>
9

> <PUBCHEM_CACTVS_HBOND_DONOR>
1

> <PUBCHEM_CACTVS_ROTATABLE_BOND>
7

> <PUBCHEM_CACTVS_SUBSKEYS>
AAADceB4PAAAAAAAAAAAAAAAEiQAASAAAAAAAAAAAAAAAACAAAAAGgAACAAADVSggAICCAAABgCIAiDSCAAAAAAgAAAACAEAAEgBFBIAIQACUAAFwAAKMYPK6PyOAAAAAAAAAAAAAAAAAAAAAAAAAAAAAA==

> <PUBCHEM_IUPAC_INCHI>
InChI=1S/C22H26O9/c1-10(5-6-27-12(3)24)20(25)29-15-8-22(4)19(31-22)18-17(30-18)13(9-23)7-14-16(15)11(2)21(26)28-14/h5,7,14-19,23H,2,6,8-9H2,1,3-4H3/b10-5-,13-7-/t14-,15-,16+,17+,18+,19-,22-/m1/s1

> <PUBCHEM_IUPAC_INCHIKEY>
RPCAPUZHOOCZMO-ALPYKIIRSA-N

> <PUBCHEM_XLOGP3_AA>
0

> <PUBCHEM_EXACT_MASS>
434.157682

> <PUBCHEM_MOLECULAR_FORMULA>
C22H26O9

> <PUBCHEM_MOLECULAR_WEIGHT>
434.43644

> <PUBCHEM_OPENEYE_CAN_SMILES>
CC(=CCOC(=O)C)C(=O)OC1CC2(C(O2)C3C(O3)C(=CC4C1C(=C)C(=O)O4)CO)C

> <PUBCHEM_OPENEYE_ISO_SMILES>
C/C(=C/COC(=O)C)/C(=O)O[C@@H]1C[C@@]2([C@H](O2)[C@@H]3[C@@H](O3)/C(=C\[C@@H]4[C@@H]1C(=C)C(=O)O4)/CO)C

> <PUBCHEM_CACTVS_TPSA>
124

> <PUBCHEM_MONOISOTOPIC_WEIGHT>
434.157682

> <PUBCHEM_TOTAL_CHARGE>
0

> <PUBCHEM_HEAVY_ATOM_COUNT>
31

> <PUBCHEM_ATOM_DEF_STEREO_COUNT>
7

> <PUBCHEM_ATOM_UDEF_STEREO_COUNT>
0

> <PUBCHEM_BOND_DEF_STEREO_COUNT>
2

> <PUBCHEM_BOND_UDEF_STEREO_COUNT>
0

> <PUBCHEM_ISOTOPIC_ATOM_COUNT>
0

> <PUBCHEM_COMPONENT_COUNT>
1

> <PUBCHEM_CACTVS_TAUTO_COUNT>
1

> <PUBCHEM_COORDINATE_TYPE>
1
5
255

> <PUBCHEM_BONDANNOTATIONS>
10  32  6
11  15  5
17  41  6
19  42  5
12  2  6
13  2  6
16  3  5

$$$$

