43365
  -OEChem-07051213102D

 26 27  0     0  0  0  0  0  0999 V2000
    2.8660   -1.1307    0.0000 O   0  0  0  0  0  0  0  0  0  0  0  0
    5.0981    1.4081    0.0000 O   0  0  0  0  0  0  0  0  0  0  0  0
    3.5103    2.2172    0.0000 O   0  0  0  0  0  0  0  0  0  0  0  0
    6.3582    0.1481    0.0000 O   0  0  0  0  0  0  0  0  0  0  0  0
    4.5981   -0.1307    0.0000 N   0  0  0  0  0  0  0  0  0  0  0  0
    3.7891    0.4571    0.0000 N   0  0  0  0  0  0  0  0  0  0  0  0
    4.5981   -1.1307    0.0000 C   0  0  0  0  0  0  0  0  0  0  0  0
    3.7320   -1.6307    0.0000 C   0  0  0  0  0  0  0  0  0  0  0  0
    5.4641   -1.6307    0.0000 C   0  0  0  0  0  0  0  0  0  0  0  0
    3.7320   -2.6307    0.0000 C   0  0  0  0  0  0  0  0  0  0  0  0
    5.4641   -2.6307    0.0000 C   0  0  0  0  0  0  0  0  0  0  0  0
    5.4071    0.4571    0.0000 C   0  0  0  0  0  0  0  0  0  0  0  0
    4.5981   -3.1307    0.0000 C   0  0  0  0  0  0  0  0  0  0  0  0
    4.0981    1.4081    0.0000 C   0  0  0  0  0  0  0  0  0  0  0  0
    2.0000   -1.6307    0.0000 C   0  0  0  0  0  0  0  0  0  0  0  0
    3.9170    3.1307    0.0000 C   0  0  0  0  0  0  0  0  0  0  0  0
    6.0010   -1.3207    0.0000 H   0  0  0  0  0  0  0  0  0  0  0  0
    3.1951   -2.9407    0.0000 H   0  0  0  0  0  0  0  0  0  0  0  0
    6.0010   -2.9407    0.0000 H   0  0  0  0  0  0  0  0  0  0  0  0
    4.5981   -3.7507    0.0000 H   0  0  0  0  0  0  0  0  0  0  0  0
    1.6900   -1.0938    0.0000 H   0  0  0  0  0  0  0  0  0  0  0  0
    1.4631   -1.9407    0.0000 H   0  0  0  0  0  0  0  0  0  0  0  0
    2.3100   -2.1676    0.0000 H   0  0  0  0  0  0  0  0  0  0  0  0
    4.4834    2.8785    0.0000 H   0  0  0  0  0  0  0  0  0  0  0  0
    4.1692    3.6971    0.0000 H   0  0  0  0  0  0  0  0  0  0  0  0
    3.3506    3.3829    0.0000 H   0  0  0  0  0  0  0  0  0  0  0  0
  1  8  1  0  0  0  0
  1 15  1  0  0  0  0
  2 12  1  0  0  0  0
  2 14  1  0  0  0  0
  3 14  1  0  0  0  0
  3 16  1  0  0  0  0
  4 12  2  0  0  0  0
  5  6  1  0  0  0  0
  5  7  1  0  0  0  0
  5 12  1  0  0  0  0
  6 14  2  0  0  0  0
  7  8  1  0  0  0  0
  7  9  2  0  0  0  0
  8 10  2  0  0  0  0
  9 11  1  0  0  0  0
  9 17  1  0  0  0  0
 10 13  1  0  0  0  0
 10 18  1  0  0  0  0
 11 13  2  0  0  0  0
 11 19  1  0  0  0  0
 13 20  1  0  0  0  0
 15 21  1  0  0  0  0
 15 22  1  0  0  0  0
 15 23  1  0  0  0  0
 16 24  1  0  0  0  0
 16 25  1  0  0  0  0
 16 26  1  0  0  0  0
M  END
> <PUBCHEM_COMPOUND_CID>
43365

> <PUBCHEM_COMPOUND_CANONICALIZED>
1

> <PUBCHEM_CACTVS_COMPLEXITY>
305

> <PUBCHEM_CACTVS_HBOND_ACCEPTOR>
5

> <PUBCHEM_CACTVS_HBOND_DONOR>
0

> <PUBCHEM_CACTVS_ROTATABLE_BOND>
3

> <PUBCHEM_CACTVS_SUBSKEYS>
AAADccBzOAAAAAAAAAAAAAAAAAAAAQAAAAAwAAAAAAAAAAABAAAAHgAIAAAACAyBkAIyzoIABACoACRCWACSDAAhIgAaiAAHbIgeJiLEsZulMChkxBFY6AeQQAAAAAAAAAAAEAAAAAAAAAAgAAAAAAAAAA==

> <PUBCHEM_IUPAC_OPENEYE_NAME>
5-methoxy-3-(2-methoxyphenyl)-1,3,4-oxadiazol-2-one

> <PUBCHEM_IUPAC_CAS_NAME>
5-methoxy-3-(2-methoxyphenyl)-1,3,4-oxadiazol-2-one

> <PUBCHEM_IUPAC_NAME>
5-methoxy-3-(2-methoxyphenyl)-1,3,4-oxadiazol-2-one

> <PUBCHEM_IUPAC_SYSTEMATIC_NAME>
5-methoxy-3-(2-methoxyphenyl)-1,3,4-oxadiazol-2-one

> <PUBCHEM_IUPAC_TRADITIONAL_NAME>
5-methoxy-3-(2-methoxyphenyl)-1,3,4-oxadiazol-2-one

> <PUBCHEM_IUPAC_INCHI>
InChI=1S/C10H10N2O4/c1-14-8-6-4-3-5-7(8)12-10(13)16-9(11-12)15-2/h3-6H,1-2H3

> <PUBCHEM_IUPAC_INCHIKEY>
LTMQQEMGRMBUSL-UHFFFAOYSA-N

> <PUBCHEM_XLOGP3_AA>
1.9

> <PUBCHEM_EXACT_MASS>
222.064057

> <PUBCHEM_MOLECULAR_FORMULA>
C10H10N2O4

> <PUBCHEM_MOLECULAR_WEIGHT>
222.1974

> <PUBCHEM_OPENEYE_CAN_SMILES>
COC1=CC=CC=C1N2C(=O)OC(=N2)OC

> <PUBCHEM_OPENEYE_ISO_SMILES>
COC1=CC=CC=C1N2C(=O)OC(=N2)OC

> <PUBCHEM_CACTVS_TPSA>
60.4

> <PUBCHEM_MONOISOTOPIC_WEIGHT>
222.064057

> <PUBCHEM_TOTAL_CHARGE>
0

> <PUBCHEM_HEAVY_ATOM_COUNT>
16

> <PUBCHEM_ATOM_DEF_STEREO_COUNT>
0

> <PUBCHEM_ATOM_UDEF_STEREO_COUNT>
0

> <PUBCHEM_BOND_DEF_STEREO_COUNT>
0

> <PUBCHEM_BOND_UDEF_STEREO_COUNT>
0

> <PUBCHEM_ISOTOPIC_ATOM_COUNT>
0

> <PUBCHEM_COMPONENT_COUNT>
1

> <PUBCHEM_CACTVS_TAUTO_COUNT>
1

> <PUBCHEM_COORDINATE_TYPE>
1
5
255

> <PUBCHEM_BONDANNOTATIONS>
10  13  8
11  13  8
2  12  8
2  14  8
5  12  8
5  6  8
6  14  8
7  8  8
7  9  8
8  10  8
9  11  8

$$$$

