442206
  -OEChem-07051212572D

 46 49  0     1  0  0  0  0  0999 V2000
    6.2621   -2.7320    0.0000 O   0  0  0  0  0  0  0  0  0  0  0  0
    3.5836   -2.0363    0.0000 O   0  0  0  0  0  0  0  0  0  0  0  0
    8.6152   -0.9495    0.0000 O   0  0  0  0  0  0  0  0  0  0  0  0
    5.3958    0.7685    0.0000 O   0  0  0  0  0  0  0  0  0  0  0  0
    2.0000   -1.2315    0.0000 O   0  0  0  0  0  0  0  0  0  0  0  0
    8.5505    0.8160    0.0000 O   0  0  0  0  0  0  0  0  0  0  0  0
    7.1279    0.7685    0.0000 O   0  0  0  0  0  0  0  0  0  0  0  0
    6.2619   -1.7315    0.0000 C   0  0  1  0  0  0  0  0  0  0  0  0
    5.3958   -2.2315    0.0000 C   0  0  1  0  0  0  0  0  0  0  0  0
    4.5298   -1.7315    0.0000 C   0  0  2  0  0  0  0  0  0  0  0  0
    7.1279   -2.2315    0.0000 C   0  0  0  0  0  0  0  0  0  0  0  0
    4.5298   -0.7315    0.0000 C   0  0  1  0  0  0  0  0  0  0  0  0
    7.1279   -1.2315    0.0000 C   0  0  0  0  0  0  0  0  0  0  0  0
    5.3958   -0.2315    0.0000 C   0  0  2  0  0  0  0  0  0  0  0  0
    7.9939   -1.7315    0.0000 C   0  0  2  0  0  0  0  0  0  0  0  0
    3.5836   -0.4268    0.0000 C   0  0  0  0  0  0  0  0  0  0  0  0
    6.2619   -0.7315    0.0000 C   0  0  0  0  0  0  0  0  0  0  0  0
    7.9939   -0.7315    0.0000 C   0  0  0  0  0  0  0  0  0  0  0  0
    7.1279   -0.2315    0.0000 C   0  0  0  0  0  0  0  0  0  0  0  0
    3.0000   -1.2315    0.0000 C   0  0  0  0  0  0  0  0  0  0  0  0
    8.1158   -0.0846    0.0000 C   0  0  0  0  0  0  0  0  0  0  0  0
    3.2729    0.5237    0.0000 C   0  0  0  0  0  0  0  0  0  0  0  0
    6.2619    1.2685    0.0000 C   0  0  0  0  0  0  0  0  0  0  0  0
    6.2619    2.2685    0.0000 C   0  0  0  0  0  0  0  0  0  0  0  0
    7.1279    2.7685    0.0000 C   0  0  0  0  0  0  0  0  0  0  0  0
    5.3958    2.7685    0.0000 C   0  0  0  0  0  0  0  0  0  0  0  0
    4.9708   -2.9676    0.0000 H   0  0  0  0  0  0  0  0  0  0  0  0
    4.1050   -2.4677    0.0000 H   0  0  0  0  0  0  0  0  0  0  0  0
    6.7294   -2.7065    0.0000 H   0  0  0  0  0  0  0  0  0  0  0  0
    7.5264   -2.7065    0.0000 H   0  0  0  0  0  0  0  0  0  0  0  0
    4.5298    0.1185    0.0000 H   0  0  0  0  0  0  0  0  0  0  0  0
    7.4379   -1.7685    0.0000 H   0  0  0  0  0  0  0  0  0  0  0  0
    7.6648   -0.9215    0.0000 H   0  0  0  0  0  0  0  0  0  0  0  0
    6.8179   -0.6946    0.0000 H   0  0  0  0  0  0  0  0  0  0  0  0
    5.9328    0.0785    0.0000 H   0  0  0  0  0  0  0  0  0  0  0  0
    8.5490   -2.3753    0.0000 H   0  0  0  0  0  0  0  0  0  0  0  0
    5.8633   -1.2065    0.0000 H   0  0  0  0  0  0  0  0  0  0  0  0
    6.6604   -1.2065    0.0000 H   0  0  0  0  0  0  0  0  0  0  0  0
    8.5309   -0.4215    0.0000 H   0  0  0  0  0  0  0  0  0  0  0  0
    3.6870    0.9852    0.0000 H   0  0  0  0  0  0  0  0  0  0  0  0
    2.6663    0.6516    0.0000 H   0  0  0  0  0  0  0  0  0  0  0  0
    7.4379    2.2315    0.0000 H   0  0  0  0  0  0  0  0  0  0  0  0
    7.6648    3.0785    0.0000 H   0  0  0  0  0  0  0  0  0  0  0  0
    6.8179    3.3054    0.0000 H   0  0  0  0  0  0  0  0  0  0  0  0
    5.3958    3.3885    0.0000 H   0  0  0  0  0  0  0  0  0  0  0  0
    4.8589    2.4585    0.0000 H   0  0  0  0  0  0  0  0  0  0  0  0
  1  8  1  0  0  0  0
  1  9  1  0  0  0  0
  2 10  1  0  0  0  0
  2 20  1  0  0  0  0
  3 15  1  0  0  0  0
  3 21  1  0  0  0  0
 14  4  1  1  0  0  0
  4 23  1  0  0  0  0
  5 20  2  0  0  0  0
  6 21  2  0  0  0  0
  7 23  2  0  0  0  0
  8  9  1  0  0  0  0
  8 11  1  0  0  0  0
  8 13  1  6  0  0  0
  9 10  1  0  0  0  0
  9 27  1  1  0  0  0
 10 12  1  0  0  0  0
 10 28  1  6  0  0  0
 11 15  1  0  0  0  0
 11 29  1  0  0  0  0
 11 30  1  0  0  0  0
 12 14  1  0  0  0  0
 12 16  1  0  0  0  0
 12 31  1  1  0  0  0
 13 32  1  0  0  0  0
 13 33  1  0  0  0  0
 13 34  1  0  0  0  0
 14 17  1  0  0  0  0
 14 35  1  0  0  0  0
 15 18  1  0  0  0  0
 15 36  1  1  0  0  0
 16 20  1  0  0  0  0
 16 22  2  0  0  0  0
 17 19  1  0  0  0  0
 17 37  1  0  0  0  0
 17 38  1  0  0  0  0
 18 19  2  0  0  0  0
 18 39  1  0  0  0  0
 19 21  1  0  0  0  0
 22 40  1  0  0  0  0
 22 41  1  0  0  0  0
 23 24  1  0  0  0  0
 24 25  1  0  0  0  0
 24 26  2  0  0  0  0
 25 42  1  0  0  0  0
 25 43  1  0  0  0  0
 25 44  1  0  0  0  0
 26 45  1  0  0  0  0
 26 46  1  0  0  0  0
M  END
> <PUBCHEM_COMPOUND_CID>
442206

> <PUBCHEM_COMPOUND_CANONICALIZED>
1

> <PUBCHEM_CACTVS_COMPLEXITY>
779

> <PUBCHEM_CACTVS_HBOND_ACCEPTOR>
7

> <PUBCHEM_CACTVS_HBOND_DONOR>
0

> <PUBCHEM_CACTVS_ROTATABLE_BOND>
3

> <PUBCHEM_CACTVS_SUBSKEYS>
AAADceB4OAAAAAAAAAAAAAAAEgAAASIAAAAAAAAAAAAAAACAAAAAGgAAAAAADVSggAICCAAABACIAiDSCAAAAAAgAAAACAEAAEgBBBIAIQACEAAFwAAKIYPK7PzOAAAAAAAAAAAAAAAAAAAAAAAAAAAAAA==

> <PUBCHEM_IUPAC_INCHI>
InChI=1S/C19H20O7/c1-8(2)16(20)24-12-6-10-5-11(23-18(10)22)7-19(4)15(26-19)14-13(12)9(3)17(21)25-14/h5,11-15H,1,3,6-7H2,2,4H3/t11-,12-,13+,14-,15+,19+/m0/s1

> <PUBCHEM_IUPAC_INCHIKEY>
WIQOUTANBFOBPB-KIVXNUBRSA-N

> <PUBCHEM_XLOGP3>
0.7

> <PUBCHEM_EXACT_MASS>
360.120903

> <PUBCHEM_MOLECULAR_FORMULA>
C19H20O7

> <PUBCHEM_MOLECULAR_WEIGHT>
360.3579

> <PUBCHEM_OPENEYE_CAN_SMILES>
CC(=C)C(=O)OC1CC2=CC(CC3(C(O3)C4C1C(=C)C(=O)O4)C)OC2=O

> <PUBCHEM_OPENEYE_ISO_SMILES>
CC(=C)C(=O)O[C@H]1CC2=C[C@@H](C[C@@]3([C@H](O3)[C@@H]4[C@@H]1C(=C)C(=O)O4)C)OC2=O

> <PUBCHEM_CACTVS_TPSA>
91.4

> <PUBCHEM_MONOISOTOPIC_WEIGHT>
360.120903

> <PUBCHEM_TOTAL_CHARGE>
0

> <PUBCHEM_HEAVY_ATOM_COUNT>
26

> <PUBCHEM_ATOM_DEF_STEREO_COUNT>
6

> <PUBCHEM_ATOM_UDEF_STEREO_COUNT>
0

> <PUBCHEM_BOND_DEF_STEREO_COUNT>
0

> <PUBCHEM_BOND_UDEF_STEREO_COUNT>
0

> <PUBCHEM_ISOTOPIC_ATOM_COUNT>
0

> <PUBCHEM_COMPONENT_COUNT>
1

> <PUBCHEM_CACTVS_TAUTO_COUNT>
1

> <PUBCHEM_COORDINATE_TYPE>
1
5
255

> <PUBCHEM_BONDANNOTATIONS>
10  28  6
12  31  5
15  36  5
14  4  5
8  13  6
9  27  5

$$$$

