9543463
  -OEChem-07051213083D

 34 38  0     1  0  0  0  0  0999 V2000
   -0.0032    0.1675   -1.9213 O   0  0  0  0  0  0  0  0  0  0  0  0
    1.3820    0.8465    1.6926 O   0  0  0  0  0  0  0  0  0  0  0  0
   -0.4664    3.0431   -0.6224 O   0  0  0  0  0  0  0  0  0  0  0  0
   -4.2540   -0.3625    1.4322 O   0  0  0  0  0  0  0  0  0  0  0  0
   -4.1482   -1.8807   -0.4379 O   0  0  0  0  0  0  0  0  0  0  0  0
    5.1098   -1.9907    0.9861 O   0  0  0  0  0  0  0  0  0  0  0  0
    0.0074    1.7988   -0.1166 C   0  0  2  0  0  0  0  0  0  0  0  0
    0.8577    1.0796   -1.1832 C   0  0  1  0  0  0  0  0  0  0  0  0
   -1.1513    0.8690   -0.0363 C   0  0  0  0  0  0  0  0  0  0  0  0
    0.7737    2.0325    1.1786 C   0  0  0  0  0  0  0  0  0  0  0  0
    2.0111    0.3013   -0.5957 C   0  0  0  0  0  0  0  0  0  0  0  0
   -1.0989   -0.0175   -1.1154 C   0  0  0  0  0  0  0  0  0  0  0  0
    2.1995    0.2192    0.7893 C   0  0  0  0  0  0  0  0  0  0  0  0
   -2.1929    0.8216    0.8785 C   0  0  0  0  0  0  0  0  0  0  0  0
   -2.0688   -0.9787   -1.3403 C   0  0  0  0  0  0  0  0  0  0  0  0
   -3.1549   -0.1465    0.6571 C   0  0  0  0  0  0  0  0  0  0  0  0
    2.8989   -0.3793   -1.4415 C   0  0  0  0  0  0  0  0  0  0  0  0
   -3.0951   -1.0172   -0.4174 C   0  0  0  0  0  0  0  0  0  0  0  0
    3.2283   -0.5625    1.3204 C   0  0  0  0  0  0  0  0  0  0  0  0
    3.9393   -1.1431   -0.9112 C   0  0  0  0  0  0  0  0  0  0  0  0
    4.1005   -1.2387    0.4692 C   0  0  0  0  0  0  0  0  0  0  0  0
   -4.8746   -1.4615    0.7351 C   0  0  0  0  0  0  0  0  0  0  0  0
    1.2586    1.8059   -1.9023 H   0  0  0  0  0  0  0  0  0  0  0  0
    1.5468    2.8014    1.0415 H   0  0  0  0  0  0  0  0  0  0  0  0
    0.1072    2.4245    1.9561 H   0  0  0  0  0  0  0  0  0  0  0  0
   -2.2558    1.5072    1.7140 H   0  0  0  0  0  0  0  0  0  0  0  0
   -1.0513    2.8745   -1.3810 H   0  0  0  0  0  0  0  0  0  0  0  0
   -2.0223   -1.6592   -2.1807 H   0  0  0  0  0  0  0  0  0  0  0  0
    2.7773   -0.3259   -2.5206 H   0  0  0  0  0  0  0  0  0  0  0  0
    3.3506   -0.6326    2.3986 H   0  0  0  0  0  0  0  0  0  0  0  0
    4.6160   -1.6672   -1.5806 H   0  0  0  0  0  0  0  0  0  0  0  0
   -4.9531   -2.3125    1.4214 H   0  0  0  0  0  0  0  0  0  0  0  0
   -5.8840   -1.1597    0.4330 H   0  0  0  0  0  0  0  0  0  0  0  0
    5.0728   -1.9441    1.9569 H   0  0  0  0  0  0  0  0  0  0  0  0
  1  8  1  0  0  0  0
  1 12  1  0  0  0  0
  2 10  1  0  0  0  0
  2 13  1  0  0  0  0
  3  7  1  0  0  0  0
  3 27  1  0  0  0  0
  4 16  1  0  0  0  0
  4 22  1  0  0  0  0
  5 18  1  0  0  0  0
  5 22  1  0  0  0  0
  6 21  1  0  0  0  0
  6 34  1  0  0  0  0
  7  8  1  0  0  0  0
  7  9  1  0  0  0  0
  7 10  1  0  0  0  0
  8 11  1  0  0  0  0
  8 23  1  0  0  0  0
  9 12  1  0  0  0  0
  9 14  2  0  0  0  0
 10 24  1  0  0  0  0
 10 25  1  0  0  0  0
 11 13  2  0  0  0  0
 11 17  1  0  0  0  0
 12 15  2  0  0  0  0
 13 19  1  0  0  0  0
 14 16  1  0  0  0  0
 14 26  1  0  0  0  0
 15 18  1  0  0  0  0
 15 28  1  0  0  0  0
 16 18  2  0  0  0  0
 17 20  2  0  0  0  0
 17 29  1  0  0  0  0
 19 21  2  0  0  0  0
 19 30  1  0  0  0  0
 20 21  1  0  0  0  0
 20 31  1  0  0  0  0
 22 32  1  0  0  0  0
 22 33  1  0  0  0  0
M  END
> <PUBCHEM_COMPOUND_CID>
9543463

> <PUBCHEM_CONFORMER_RMSD>
0.6

> <PUBCHEM_CONFORMER_DIVERSEORDER>
1
2

> <PUBCHEM_MMFF94_PARTIAL_CHARGES>
29
1 -0.36
10 0.28
11 -0.14
12 0.08
13 0.08
14 -0.15
15 -0.15
16 0.08
17 -0.15
18 0.08
19 -0.15
2 -0.36
20 -0.15
21 0.08
22 0.56
26 0.15
27 0.4
28 0.15
29 0.15
3 -0.68
30 0.15
31 0.15
34 0.45
4 -0.36
5 -0.36
6 -0.53
7 0.42
8 0.42
9 -0.14

> <PUBCHEM_EFFECTIVE_ROTOR_COUNT>
1.2

> <PUBCHEM_PHARMACOPHORE_FEATURES>
12
1 1 acceptor
1 2 acceptor
1 3 acceptor
1 3 donor
1 4 acceptor
1 5 acceptor
1 6 donor
5 1 7 8 9 12 rings
5 4 5 16 18 22 rings
6 11 13 17 19 20 21 rings
6 2 7 8 10 11 13 rings
6 9 12 14 15 16 18 rings

> <PUBCHEM_HEAVY_ATOM_COUNT>
22

> <PUBCHEM_ATOM_DEF_STEREO_COUNT>
2

> <PUBCHEM_ATOM_UDEF_STEREO_COUNT>
0

> <PUBCHEM_BOND_DEF_STEREO_COUNT>
0

> <PUBCHEM_BOND_UDEF_STEREO_COUNT>
0

> <PUBCHEM_ISOTOPIC_ATOM_COUNT>
0

> <PUBCHEM_COMPONENT_COUNT>
1

> <PUBCHEM_CACTVS_TAUTO_COUNT>
3

> <PUBCHEM_CONFORMER_ID>
00919F2700000001

> <PUBCHEM_MMFF94_ENERGY>
73.2603

> <PUBCHEM_FEATURE_SELFOVERLAP>
61.454

> <PUBCHEM_SHAPE_FINGERPRINT>
10948715 1 8502653709888757864
11578080 2 18130803251696983812
11640471 11 7565337609425859004
11796584 16 18273208678096157515
11961588 58 10663518376113487798
12251169 10 17095525071560439567
12363563 72 18341895186071947051
12553582 1 18408321081752996798
12633257 1 17167870742082600666
12644460 14 17896310320909564720
12670546 177 13973968696615553811
12714826 92 18263081170712714828
12824470 246 17987807439693316386
12892183 10 16226043422567386690
13103583 49 18259978284427285467
13533116 47 18126280836529577795
13544653 18 18273216395756216884
13911987 19 16269074898107237476
15061688 2 7060378128156740043
15188451 53 17677058945520773151
15209289 33 18335420179439822066
15209294 21 14201411477504141490
15342168 16 7276834575860020643
16752209 62 17560255694660024799
16945 1 18115303522252839260
17349148 13 17458907033976033671
17804303 29 17604133879182605141
1813 80 18411411813228309004
18186145 218 13398622870656367292
192875 21 12463304608944440244
193927 3 18059848493480183330
19784866 135 18340208591090554265
19862831 5 14477245972101016478
200 152 17274818095233289182
20361792 2 18342743991963809645
20388580 30 17846212233167460396
20775530 9 17842287144350948938
21033648 29 16081359804328476331
21524375 3 10087646974589798572
21637258 2 18130792265143610106
21713013 43 16056594318636100891
21731228 192 14562817637828359940
21731516 1 18342182171671098468
21756936 100 14419849146624067880
22149856 69 14780924389205914351
22393880 68 14477244846930601834
23184049 59 16370722660171296446
23227448 37 9006183860122003034
23419403 2 15434879866725121661
23559900 14 15792828089097908485
238 59 14405179582392085578
2838139 119 9007053557093684298
2871803 45 15123790669290325558
3323516 105 15123503675375383783
3472631 163 8286198344849961707
3737641 26 18191301779061192650
394222 165 17244696763289089017
4028521 119 11815893461610583082
465052 167 18270949147441566435
5104073 3 17678723554817623427
5262128 65 15625938789590022206
6786 2 8124187380887348509
7097593 13 17386580032980843537
7970288 3 18343864415709040787
83771 10 18411982464068485296
8509985 295 17023173904197915555

> <PUBCHEM_SHAPE_MULTIPOLES>
417.53
8.56
2.08
1.62
0.87
0.9
0.09
-7.29
-3.01
0.01
-0.04
-0.46
-0.01
-0.24

> <PUBCHEM_SHAPE_SELFOVERLAP>
965.919

> <PUBCHEM_SHAPE_VOLUME>
212.4

> <PUBCHEM_COORDINATE_TYPE>
2
5
10

$$$$

