94279
  -OEChem-07051213032D

 64 65  0     1  0  0  0  0  0999 V2000
    3.6348    2.8100    0.0000 O   0  0  0  0  0  0  0  0  0  0  0  0
    2.7688    0.3100    0.0000 O   0  0  0  0  0  0  0  0  0  0  0  0
    5.3668    1.8100    0.0000 O   0  0  0  0  0  0  0  0  0  0  0  0
    1.0367    1.3100    0.0000 O   0  0  0  0  0  0  0  0  0  0  0  0
    4.5008    0.3100    0.0000 O   0  0  0  0  0  0  0  0  0  0  0  0
    1.9027    2.8100    0.0000 O   0  0  0  0  0  0  0  0  0  0  0  0
    3.2018    9.7652    0.0000 N   0  0  0  0  0  0  0  0  0  0  0  0
    1.4697    6.7652    0.0000 N   0  0  0  0  0  0  0  0  0  0  0  0
    3.2018   11.7652    0.0000 C   0  0  0  0  0  0  0  0  0  0  0  0
    4.0678   11.2652    0.0000 C   0  0  0  0  0  0  0  0  0  0  0  0
    2.3358   11.2652    0.0000 C   0  0  0  0  0  0  0  0  0  0  0  0
    4.0678   10.2652    0.0000 C   0  0  0  0  0  0  0  0  0  0  0  0
    2.3358   10.2652    0.0000 C   0  0  0  0  0  0  0  0  0  0  0  0
    3.7018   12.6313    0.0000 C   0  0  0  0  0  0  0  0  0  0  0  0
    2.7018   12.6313    0.0000 C   0  0  0  0  0  0  0  0  0  0  0  0
    3.2018    8.7652    0.0000 C   0  0  0  0  0  0  0  0  0  0  0  0
    4.9617   11.7999    0.0000 C   0  0  0  0  0  0  0  0  0  0  0  0
    1.4418   11.7999    0.0000 C   0  0  0  0  0  0  0  0  0  0  0  0
    2.3358    8.2652    0.0000 C   0  0  0  0  0  0  0  0  0  0  0  0
    4.9617    9.7306    0.0000 C   0  0  0  0  0  0  0  0  0  0  0  0
    1.4418    9.7306    0.0000 C   0  0  0  0  0  0  0  0  0  0  0  0
    2.3358    7.2652    0.0000 C   0  0  0  0  0  0  0  0  0  0  0  0
    5.8678   11.2860    0.0000 C   0  0  0  0  0  0  0  0  0  0  0  0
    0.5357   11.2860    0.0000 C   0  0  0  0  0  0  0  0  0  0  0  0
    5.8678   10.2444    0.0000 C   0  0  0  0  0  0  0  0  0  0  0  0
    0.5357   10.2444    0.0000 C   0  0  0  0  0  0  0  0  0  0  0  0
    1.4697    5.7652    0.0000 C   0  0  0  0  0  0  0  0  0  0  0  0
    0.6037    7.2652    0.0000 C   0  0  0  0  0  0  0  0  0  0  0  0
    2.7688    1.3100    0.0000 C   0  0  2  0  0  0  0  0  0  0  0  0
    3.6348    1.8100    0.0000 C   0  0  2  0  0  0  0  0  0  0  0  0
    4.5008    1.3100    0.0000 C   0  0  0  0  0  0  0  0  0  0  0  0
    1.9027    1.8100    0.0000 C   0  0  0  0  0  0  0  0  0  0  0  0
    4.2387   12.3213    0.0000 H   0  0  0  0  0  0  0  0  0  0  0  0
    3.2387   12.9413    0.0000 H   0  0  0  0  0  0  0  0  0  0  0  0
    2.3918   13.1682    0.0000 H   0  0  0  0  0  0  0  0  0  0  0  0
    2.1648   12.3213    0.0000 H   0  0  0  0  0  0  0  0  0  0  0  0
    4.0118   13.1682    0.0000 H   0  0  0  0  0  0  0  0  0  0  0  0
    3.1648   12.9413    0.0000 H   0  0  0  0  0  0  0  0  0  0  0  0
    3.4138    8.1826    0.0000 H   0  0  0  0  0  0  0  0  0  0  0  0
    3.8124    8.8729    0.0000 H   0  0  0  0  0  0  0  0  0  0  0  0
    4.9546   12.4199    0.0000 H   0  0  0  0  0  0  0  0  0  0  0  0
    1.4490   12.4199    0.0000 H   0  0  0  0  0  0  0  0  0  0  0  0
    2.1237    8.8478    0.0000 H   0  0  0  0  0  0  0  0  0  0  0  0
    1.7252    8.1576    0.0000 H   0  0  0  0  0  0  0  0  0  0  0  0
    4.9546    9.1106    0.0000 H   0  0  0  0  0  0  0  0  0  0  0  0
    1.4490    9.1106    0.0000 H   0  0  0  0  0  0  0  0  0  0  0  0
    2.5478    6.6826    0.0000 H   0  0  0  0  0  0  0  0  0  0  0  0
    2.9463    7.3729    0.0000 H   0  0  0  0  0  0  0  0  0  0  0  0
    6.4035   11.5981    0.0000 H   0  0  0  0  0  0  0  0  0  0  0  0
    0.0000   11.5981    0.0000 H   0  0  0  0  0  0  0  0  0  0  0  0
    6.4035    9.9324    0.0000 H   0  0  0  0  0  0  0  0  0  0  0  0
    0.0000    9.9324    0.0000 H   0  0  0  0  0  0  0  0  0  0  0  0
    0.9137    7.8022    0.0000 H   0  0  0  0  0  0  0  0  0  0  0  0
    0.0668    7.5752    0.0000 H   0  0  0  0  0  0  0  0  0  0  0  0
    0.2937    6.7283    0.0000 H   0  0  0  0  0  0  0  0  0  0  0  0
    0.8497    5.7652    0.0000 H   0  0  0  0  0  0  0  0  0  0  0  0
    1.4697    5.1452    0.0000 H   0  0  0  0  0  0  0  0  0  0  0  0
    2.0897    5.7652    0.0000 H   0  0  0  0  0  0  0  0  0  0  0  0
    4.1717    2.1200    0.0000 H   0  0  0  0  0  0  0  0  0  0  0  0
    3.3057    1.0000    0.0000 H   0  0  0  0  0  0  0  0  0  0  0  0
    4.1717    3.1200    0.0000 H   0  0  0  0  0  0  0  0  0  0  0  0
    2.2318    0.0000    0.0000 H   0  0  0  0  0  0  0  0  0  0  0  0
    5.9038    1.5000    0.0000 H   0  0  0  0  0  0  0  0  0  0  0  0
    0.4998    1.6200    0.0000 H   0  0  0  0  0  0  0  0  0  0  0  0
 30  1  1  1  0  0  0
  1 61  1  0  0  0  0
 29  2  1  1  0  0  0
  2 62  1  0  0  0  0
  3 31  1  0  0  0  0
  3 63  1  0  0  0  0
  4 32  1  0  0  0  0
  4 64  1  0  0  0  0
  5 31  2  0  0  0  0
  6 32  2  0  0  0  0
  7 12  1  0  0  0  0
  7 13  1  0  0  0  0
  7 16  1  0  0  0  0
  8 22  1  0  0  0  0
  8 27  1  0  0  0  0
  8 28  1  0  0  0  0
  9 10  1  0  0  0  0
  9 11  1  0  0  0  0
  9 14  1  0  0  0  0
  9 15  1  0  0  0  0
 10 12  1  0  0  0  0
 10 17  2  0  0  0  0
 11 13  1  0  0  0  0
 11 18  2  0  0  0  0
 12 20  2  0  0  0  0
 13 21  2  0  0  0  0
 14 33  1  0  0  0  0
 14 37  1  0  0  0  0
 14 38  1  0  0  0  0
 15 34  1  0  0  0  0
 15 35  1  0  0  0  0
 15 36  1  0  0  0  0
 16 19  1  0  0  0  0
 16 39  1  0  0  0  0
 16 40  1  0  0  0  0
 17 23  1  0  0  0  0
 17 41  1  0  0  0  0
 18 24  1  0  0  0  0
 18 42  1  0  0  0  0
 19 22  1  0  0  0  0
 19 43  1  0  0  0  0
 19 44  1  0  0  0  0
 20 25  1  0  0  0  0
 20 45  1  0  0  0  0
 21 26  1  0  0  0  0
 21 46  1  0  0  0  0
 22 47  1  0  0  0  0
 22 48  1  0  0  0  0
 23 25  2  0  0  0  0
 23 49  1  0  0  0  0
 24 26  2  0  0  0  0
 24 50  1  0  0  0  0
 25 51  1  0  0  0  0
 26 52  1  0  0  0  0
 27 56  1  0  0  0  0
 27 57  1  0  0  0  0
 27 58  1  0  0  0  0
 28 53  1  0  0  0  0
 28 54  1  0  0  0  0
 28 55  1  0  0  0  0
 29 30  1  0  0  0  0
 29 32  1  0  0  0  0
 29 60  1  0  0  0  0
 30 31  1  0  0  0  0
 30 59  1  0  0  0  0
M  END
> <PUBCHEM_COMPOUND_CID>
94279

> <PUBCHEM_COMPOUND_CANONICALIZED>
1

> <PUBCHEM_CACTVS_COMPLEXITY>
471

> <PUBCHEM_CACTVS_HBOND_ACCEPTOR>
8

> <PUBCHEM_CACTVS_HBOND_DONOR>
4

> <PUBCHEM_CACTVS_ROTATABLE_BOND>
7

> <PUBCHEM_CACTVS_SUBSKEYS>
AAADcfB7OAAAAAAAAAAAAAAAAAAAAAAAAAA8YIAAAAAAAACxQAAAHgAACAAADhzhmAYyyIMAAgCIAiTSSAKCAAAhAgAIiAFIZIgJMHbA0ZGEYAhloADJyAdTgMAPgAAAAAACAAAAAAAAAAQAAAAAAAAAAA==

> <PUBCHEM_IUPAC_OPENEYE_NAME>
(2R,3R)-2,3-dihydroxybutanedioic acid; 3-(9,9-dimethylacridin-10-yl)-N,N-dimethyl-propan-1-amine

> <PUBCHEM_IUPAC_CAS_NAME>
(2R,3R)-2,3-dihydroxybutanedioic acid; 3-(9,9-dimethyl-10-acridinyl)-N,N-dimethyl-1-propanamine

> <PUBCHEM_IUPAC_NAME>
(2R,3R)-2,3-dihydroxybutanedioic acid; 3-(9,9-dimethylacridin-10-yl)-N,N-dimethylpropan-1-amine

> <PUBCHEM_IUPAC_SYSTEMATIC_NAME>
(2R,3R)-2,3-bis(oxidanyl)butanedioic acid; 3-(9,9-dimethylacridin-10-yl)-N,N-dimethyl-propan-1-amine

> <PUBCHEM_IUPAC_TRADITIONAL_NAME>
(2R,3R)-2,3-dihydroxysuccinic acid; 3-(9,9-dimethylacridin-10-yl)propyl-dimethyl-amine

> <PUBCHEM_IUPAC_INCHI>
InChI=1S/C20H26N2.C4H6O6/c1-20(2)16-10-5-7-12-18(16)22(15-9-14-21(3)4)19-13-8-6-11-17(19)20;5-1(3(7)8)2(6)4(9)10/h5-8,10-13H,9,14-15H2,1-4H3;1-2,5-6H,(H,7,8)(H,9,10)/t;1-,2-/m.1/s1

> <PUBCHEM_IUPAC_INCHIKEY>
IIYKUJVECNNTEY-LREBCSMRSA-N

> <PUBCHEM_EXACT_MASS>
444.226037

> <PUBCHEM_MOLECULAR_FORMULA>
C24H32N2O6

> <PUBCHEM_MOLECULAR_WEIGHT>
444.52068

> <PUBCHEM_OPENEYE_CAN_SMILES>
CC1(C2=CC=CC=C2N(C3=CC=CC=C31)CCCN(C)C)C.C(C(C(=O)O)O)(C(=O)O)O

> <PUBCHEM_OPENEYE_ISO_SMILES>
CC1(C2=CC=CC=C2N(C3=CC=CC=C31)CCCN(C)C)C.[C@@H]([C@H](C(=O)O)O)(C(=O)O)O

> <PUBCHEM_CACTVS_TPSA>
122

> <PUBCHEM_MONOISOTOPIC_WEIGHT>
444.226037

> <PUBCHEM_TOTAL_CHARGE>
0

> <PUBCHEM_HEAVY_ATOM_COUNT>
32

> <PUBCHEM_ATOM_DEF_STEREO_COUNT>
2

> <PUBCHEM_ATOM_UDEF_STEREO_COUNT>
0

> <PUBCHEM_BOND_DEF_STEREO_COUNT>
0

> <PUBCHEM_BOND_UDEF_STEREO_COUNT>
0

> <PUBCHEM_ISOTOPIC_ATOM_COUNT>
0

> <PUBCHEM_COMPONENT_COUNT>
2

> <PUBCHEM_CACTVS_TAUTO_COUNT>
1

> <PUBCHEM_COORDINATE_TYPE>
1
5
255

> <PUBCHEM_BONDANNOTATIONS>
30  1  5
10  12  8
10  17  8
11  13  8
11  18  8
12  20  8
13  21  8
17  23  8
18  24  8
29  2  5
20  25  8
21  26  8
23  25  8
24  26  8

$$$$

