16126794
  -OEChem-07051212482D

 72 76  0     1  0  0  0  0  0999 V2000
    6.8671   -0.6721    0.0000 O   0  0  0  0  0  0  0  0  0  0  0  0
    5.1350    1.3279    0.0000 O   0  0  0  0  0  0  0  0  0  0  0  0
    6.0010   -2.1721    0.0000 O   0  0  0  0  0  0  0  0  0  0  0  0
    5.1350   -1.6721    0.0000 O   0  0  0  0  0  0  0  0  0  0  0  0
    3.4030   -0.6721    0.0000 O   0  0  0  0  0  0  0  0  0  0  0  0
    8.5991   -1.6721    0.0000 O   0  0  0  0  0  0  0  0  0  0  0  0
    8.5991   -3.6721    0.0000 O   0  0  0  0  0  0  0  0  0  0  0  0
    6.8671   -4.6721    0.0000 O   0  0  0  0  0  0  0  0  0  0  0  0
    2.5369    0.8279    0.0000 O   0  0  0  0  0  0  0  0  0  0  0  0
    7.7331   -0.1721    0.0000 O   0  0  0  0  0  0  0  0  0  0  0  0
    6.0010    2.8279    0.0000 O   0  0  0  0  0  0  0  0  0  0  0  0
    9.4931    2.8626    0.0000 O   0  0  0  0  0  0  0  0  0  0  0  0
    9.4815   -0.2067    0.0000 O   0  0  0  0  0  0  0  0  0  0  0  0
   13.8632    2.3621    0.0000 O   0  0  0  0  0  0  0  0  0  0  0  0
   13.8555    4.3621    0.0000 O   0  0  0  0  0  0  0  0  0  0  0  0
    6.0010   -0.1721    0.0000 C   0  0  2  0  0  0  0  0  0  0  0  0
    5.1350   -0.6721    0.0000 C   0  0  2  0  0  0  0  0  0  0  0  0
    6.0010    0.8279    0.0000 C   0  0  2  0  0  0  0  0  0  0  0  0
    4.2690   -0.1721    0.0000 C   0  0  1  0  0  0  0  0  0  0  0  0
    4.2690    0.8279    0.0000 C   0  0  1  0  0  0  0  0  0  0  0  0
    6.8671   -1.6721    0.0000 C   0  0  3  0  0  0  0  0  0  0  0  0
    7.7331   -2.1721    0.0000 C   0  0  1  0  0  0  0  0  0  0  0  0
    7.7331   -3.1721    0.0000 C   0  0  1  0  0  0  0  0  0  0  0  0
    6.8671   -3.6721    0.0000 C   0  0  2  0  0  0  0  0  0  0  0  0
    6.0010   -3.1721    0.0000 C   0  0  2  0  0  0  0  0  0  0  0  0
    6.8671    1.3279    0.0000 C   0  0  0  0  0  0  0  0  0  0  0  0
    3.4030    1.3279    0.0000 C   0  0  0  0  0  0  0  0  0  0  0  0
    5.1350   -3.6721    0.0000 C   0  0  0  0  0  0  0  0  0  0  0  0
    7.7331    0.8279    0.0000 C   0  0  0  0  0  0  0  0  0  0  0  0
    6.8671    2.3279    0.0000 C   0  0  0  0  0  0  0  0  0  0  0  0
    8.5991    1.3279    0.0000 C   0  0  0  0  0  0  0  0  0  0  0  0
    7.7331    2.8279    0.0000 C   0  0  0  0  0  0  0  0  0  0  0  0
    8.5991    2.3279    0.0000 C   0  0  0  0  0  0  0  0  0  0  0  0
    9.4931    0.7933    0.0000 C   0  0  0  0  0  0  0  0  0  0  0  0
   10.3991    1.3071    0.0000 C   0  0  0  0  0  0  0  0  0  0  0  0
   10.3991    2.3487    0.0000 C   0  0  0  0  0  0  0  0  0  0  0  0
   11.2632    2.8521    0.0000 C   0  0  0  0  0  0  0  0  0  0  0  0
   12.1312    2.3554    0.0000 C   0  0  0  0  0  0  0  0  0  0  0  0
   11.2594    3.8521    0.0000 C   0  0  0  0  0  0  0  0  0  0  0  0
   12.9953    2.8588    0.0000 C   0  0  0  0  0  0  0  0  0  0  0  0
   12.1235    4.3554    0.0000 C   0  0  0  0  0  0  0  0  0  0  0  0
   12.9914    3.8587    0.0000 C   0  0  0  0  0  0  0  0  0  0  0  0
    6.5380    0.1379    0.0000 H   0  0  0  0  0  0  0  0  0  0  0  0
    5.6720   -0.9821    0.0000 H   0  0  0  0  0  0  0  0  0  0  0  0
    6.7372    0.4029    0.0000 H   0  0  0  0  0  0  0  0  0  0  0  0
    4.2690   -0.7921    0.0000 H   0  0  0  0  0  0  0  0  0  0  0  0
    4.2690    1.4479    0.0000 H   0  0  0  0  0  0  0  0  0  0  0  0
    6.1309   -1.2471    0.0000 H   0  0  0  0  0  0  0  0  0  0  0  0
    7.7331   -1.5521    0.0000 H   0  0  0  0  0  0  0  0  0  0  0  0
    7.7331   -3.7921    0.0000 H   0  0  0  0  0  0  0  0  0  0  0  0
    6.3301   -3.9821    0.0000 H   0  0  0  0  0  0  0  0  0  0  0  0
    5.4641   -2.8621    0.0000 H   0  0  0  0  0  0  0  0  0  0  0  0
    3.8015    1.8029    0.0000 H   0  0  0  0  0  0  0  0  0  0  0  0
    3.0044    1.8029    0.0000 H   0  0  0  0  0  0  0  0  0  0  0  0
    4.5981   -1.9821    0.0000 H   0  0  0  0  0  0  0  0  0  0  0  0
    4.8250   -3.1351    0.0000 H   0  0  0  0  0  0  0  0  0  0  0  0
    4.5981   -3.9821    0.0000 H   0  0  0  0  0  0  0  0  0  0  0  0
    5.4450   -4.2090    0.0000 H   0  0  0  0  0  0  0  0  0  0  0  0
    3.4030   -1.2921    0.0000 H   0  0  0  0  0  0  0  0  0  0  0  0
    9.1360   -1.9821    0.0000 H   0  0  0  0  0  0  0  0  0  0  0  0
    8.5991   -4.2921    0.0000 H   0  0  0  0  0  0  0  0  0  0  0  0
    6.3301   -4.9821    0.0000 H   0  0  0  0  0  0  0  0  0  0  0  0
    7.7331    3.4479    0.0000 H   0  0  0  0  0  0  0  0  0  0  0  0
    2.0000    1.1379    0.0000 H   0  0  0  0  0  0  0  0  0  0  0  0
    8.2700   -0.4821    0.0000 H   0  0  0  0  0  0  0  0  0  0  0  0
    6.0010    3.4479    0.0000 H   0  0  0  0  0  0  0  0  0  0  0  0
   10.9349    0.9950    0.0000 H   0  0  0  0  0  0  0  0  0  0  0  0
   12.1336    1.7354    0.0000 H   0  0  0  0  0  0  0  0  0  0  0  0
   10.7212    4.1600    0.0000 H   0  0  0  0  0  0  0  0  0  0  0  0
   12.1211    4.9754    0.0000 H   0  0  0  0  0  0  0  0  0  0  0  0
   14.3989    2.6742    0.0000 H   0  0  0  0  0  0  0  0  0  0  0  0
   13.8531    4.9821    0.0000 H   0  0  0  0  0  0  0  0  0  0  0  0
 16  1  1  6  0  0  0
  1 21  1  0  0  0  0
  2 18  1  0  0  0  0
  2 20  1  0  0  0  0
  3 21  1  0  0  0  0
  3 25  1  0  0  0  0
 17  4  1  1  0  0  0
  4 55  1  0  0  0  0
 19  5  1  6  0  0  0
  5 59  1  0  0  0  0
 22  6  1  6  0  0  0
  6 60  1  0  0  0  0
 23  7  1  6  0  0  0
  7 61  1  0  0  0  0
 24  8  1  1  0  0  0
  8 62  1  0  0  0  0
  9 27  1  0  0  0  0
  9 64  1  0  0  0  0
 10 29  1  0  0  0  0
 10 65  1  0  0  0  0
 11 30  1  0  0  0  0
 11 66  1  0  0  0  0
 12 33  1  0  0  0  0
 12 36  1  0  0  0  0
 13 34  2  0  0  0  0
 14 40  1  0  0  0  0
 14 71  1  0  0  0  0
 15 42  1  0  0  0  0
 15 72  1  0  0  0  0
 16 17  1  0  0  0  0
 16 18  1  0  0  0  0
 16 43  1  0  0  0  0
 17 19  1  0  0  0  0
 17 44  1  0  0  0  0
 18 26  1  0  0  0  0
 18 45  1  6  0  0  0
 19 20  1  0  0  0  0
 19 46  1  0  0  0  0
 20 27  1  1  0  0  0
 20 47  1  0  0  0  0
 21 22  1  0  0  0  0
 21 48  1  0  0  0  0
 22 23  1  0  0  0  0
 22 49  1  0  0  0  0
 23 24  1  0  0  0  0
 23 50  1  0  0  0  0
 24 25  1  0  0  0  0
 24 51  1  0  0  0  0
 25 28  1  6  0  0  0
 25 52  1  0  0  0  0
 26 29  1  0  0  0  0
 26 30  2  0  0  0  0
 27 53  1  0  0  0  0
 27 54  1  0  0  0  0
 28 56  1  0  0  0  0
 28 57  1  0  0  0  0
 28 58  1  0  0  0  0
 29 31  2  0  0  0  0
 30 32  1  0  0  0  0
 31 33  1  0  0  0  0
 31 34  1  0  0  0  0
 32 33  2  0  0  0  0
 32 63  1  0  0  0  0
 34 35  1  0  0  0  0
 35 36  2  0  0  0  0
 35 67  1  0  0  0  0
 36 37  1  0  0  0  0
 37 38  2  0  0  0  0
 37 39  1  0  0  0  0
 38 40  1  0  0  0  0
 38 68  1  0  0  0  0
 39 41  2  0  0  0  0
 39 69  1  0  0  0  0
 40 42  2  0  0  0  0
 41 42  1  0  0  0  0
 41 70  1  0  0  0  0
M  END
> <PUBCHEM_COMPOUND_CID>
16126794

> <PUBCHEM_COMPOUND_CANONICALIZED>
1

> <PUBCHEM_CACTVS_COMPLEXITY>
995

> <PUBCHEM_CACTVS_HBOND_ACCEPTOR>
15

> <PUBCHEM_CACTVS_HBOND_DONOR>
10

> <PUBCHEM_CACTVS_ROTATABLE_BOND>
5

> <PUBCHEM_CACTVS_SUBSKEYS>
AAADceB4PAAAAAAAAAAAAAAAAAAAAAAAAAA0aIECAAAAAACBQAAAGgAACAAADBSwmAMyDoAABgCIAqBSAAACCAAkIAAIiAEGiMgdNzaGNRqieWGl4BUPuQfI7PzOIAADCAAIQABAAAYQABCAAAAAAAAAAA==

> <PUBCHEM_IUPAC_OPENEYE_NAME>
6-[(2S,3R,4S,5S,6R)-4,5-dihydroxy-6-(hydroxymethyl)-3-[(3R,4R,5R,6S)-3,4,5-trihydroxy-6-methyl-tetrahydropyran-2-yl]oxy-tetrahydropyran-2-yl]-2-(3,4-dihydroxyphenyl)-5,7-dihydroxy-chromen-4-one

> <PUBCHEM_IUPAC_CAS_NAME>
6-[(2S,3R,4S,5S,6R)-4,5-dihydroxy-6-(hydroxymethyl)-3-[[(3R,4R,5R,6S)-3,4,5-trihydroxy-6-methyl-2-oxanyl]oxy]-2-oxanyl]-2-(3,4-dihydroxyphenyl)-5,7-dihydroxy-1-benzopyran-4-one

> <PUBCHEM_IUPAC_NAME>
6-[(2S,3R,4S,5S,6R)-4,5-dihydroxy-6-(hydroxymethyl)-3-[(3R,4R,5R,6S)-3,4,5-trihydroxy-6-methyloxan-2-yl]oxyoxan-2-yl]-2-(3,4-dihydroxyphenyl)-5,7-dihydroxychromen-4-one

> <PUBCHEM_IUPAC_SYSTEMATIC_NAME>
2-[3,4-bis(oxidanyl)phenyl]-6-[(2S,3R,4S,5S,6R)-6-(hydroxymethyl)-3-[(3R,4R,5R,6S)-6-methyl-3,4,5-tris(oxidanyl)oxan-2-yl]oxy-4,5-bis(oxidanyl)oxan-2-yl]-5,7-bis(oxidanyl)chromen-4-one

> <PUBCHEM_IUPAC_TRADITIONAL_NAME>
6-[(2S,3R,4S,5S,6R)-4,5-dihydroxy-6-methylol-3-[(3R,4R,5R,6S)-3,4,5-trihydroxy-6-methyl-tetrahydropyran-2-yl]oxy-tetrahydropyran-2-yl]-2-(3,4-dihydroxyphenyl)-5,7-dihydroxy-chromone

> <PUBCHEM_IUPAC_INCHI>
InChI=1S/C27H30O15/c1-8-19(33)22(36)24(38)27(39-8)42-26-23(37)20(34)16(7-28)41-25(26)18-13(32)6-15-17(21(18)35)12(31)5-14(40-15)9-2-3-10(29)11(30)4-9/h2-6,8,16,19-20,22-30,32-38H,7H2,1H3/t8-,16+,19-,20+,22+,23-,24+,25-,26+,27?/m0/s1

> <PUBCHEM_IUPAC_INCHIKEY>
IUYFTHKQEWZTHY-LQQQXCKLSA-N

> <PUBCHEM_XLOGP3_AA>
-1.2

> <PUBCHEM_EXACT_MASS>
594.15847

> <PUBCHEM_MOLECULAR_FORMULA>
C27H30O15

> <PUBCHEM_MOLECULAR_WEIGHT>
594.5181

> <PUBCHEM_OPENEYE_CAN_SMILES>
CC1C(C(C(C(O1)OC2C(C(C(OC2C3=C(C=C4C(=C3O)C(=O)C=C(O4)C5=CC(=C(C=C5)O)O)O)CO)O)O)O)O)O

> <PUBCHEM_OPENEYE_ISO_SMILES>
C[C@H]1[C@@H]([C@H]([C@H](C(O1)O[C@@H]2[C@H]([C@@H]([C@H](O[C@H]2C3=C(C=C4C(=C3O)C(=O)C=C(O4)C5=CC(=C(C=C5)O)O)O)CO)O)O)O)O)O

> <PUBCHEM_CACTVS_TPSA>
256

> <PUBCHEM_MONOISOTOPIC_WEIGHT>
594.15847

> <PUBCHEM_TOTAL_CHARGE>
0

> <PUBCHEM_HEAVY_ATOM_COUNT>
42

> <PUBCHEM_ATOM_DEF_STEREO_COUNT>
9

> <PUBCHEM_ATOM_UDEF_STEREO_COUNT>
1

> <PUBCHEM_BOND_DEF_STEREO_COUNT>
0

> <PUBCHEM_BOND_UDEF_STEREO_COUNT>
0

> <PUBCHEM_ISOTOPIC_ATOM_COUNT>
0

> <PUBCHEM_COMPONENT_COUNT>
1

> <PUBCHEM_CACTVS_TAUTO_COUNT>
162

> <PUBCHEM_COORDINATE_TYPE>
1
5
255

> <PUBCHEM_BONDANNOTATIONS>
16  1  6
12  33  8
12  36  8
18  45  6
20  27  5
21  48  3
25  28  6
26  29  8
26  30  8
29  31  8
30  32  8
31  33  8
31  34  8
32  33  8
34  35  8
35  36  8
37  38  8
37  39  8
38  40  8
39  41  8
17  4  5
40  42  8
41  42  8
19  5  6
22  6  6
23  7  6
24  8  5

$$$$

