6806
  -OEChem-07051213042D

 22 22  0     0  0  0  0  0  0999 V2000
    2.8660    0.4050    0.0000 I   0  0  0  0  0  0  0  0  0  0  0  0
    6.3301    0.4050    0.0000 I   0  0  0  0  0  0  0  0  0  0  0  0
    4.5981   -2.5950    0.0000 I   0  0  0  0  0  0  0  0  0  0  0  0
    2.8660   -2.5950    0.0000 O   0  0  0  0  0  0  0  0  0  0  0  0
    6.3301    1.4050    0.0000 O   0  0  0  0  0  0  0  0  0  0  0  0
    2.0000   -1.0950    0.0000 O   0  0  0  0  0  0  0  0  0  0  0  0
    4.5981    1.4050    0.0000 N   0  0  0  0  0  0  0  0  0  0  0  0
    4.5981    0.4050    0.0000 C   0  0  0  0  0  0  0  0  0  0  0  0
    3.7320   -0.0950    0.0000 C   0  0  0  0  0  0  0  0  0  0  0  0
    3.7320   -1.0950    0.0000 C   0  0  0  0  0  0  0  0  0  0  0  0
    5.4641   -0.0950    0.0000 C   0  0  0  0  0  0  0  0  0  0  0  0
    4.5981   -1.5950    0.0000 C   0  0  0  0  0  0  0  0  0  0  0  0
    5.4641   -1.0950    0.0000 C   0  0  0  0  0  0  0  0  0  0  0  0
    5.4641    1.9050    0.0000 C   0  0  0  0  0  0  0  0  0  0  0  0
    2.8660   -1.5950    0.0000 C   0  0  0  0  0  0  0  0  0  0  0  0
    5.4641    2.9050    0.0000 C   0  0  0  0  0  0  0  0  0  0  0  0
    6.0010   -1.4050    0.0000 H   0  0  0  0  0  0  0  0  0  0  0  0
    4.0611    1.7150    0.0000 H   0  0  0  0  0  0  0  0  0  0  0  0
    6.0841    2.9050    0.0000 H   0  0  0  0  0  0  0  0  0  0  0  0
    5.4641    3.5250    0.0000 H   0  0  0  0  0  0  0  0  0  0  0  0
    4.8441    2.9050    0.0000 H   0  0  0  0  0  0  0  0  0  0  0  0
    2.3291   -2.9050    0.0000 H   0  0  0  0  0  0  0  0  0  0  0  0
  1  9  1  0  0  0  0
  2 11  1  0  0  0  0
  3 12  1  0  0  0  0
  4 15  1  0  0  0  0
  4 22  1  0  0  0  0
  5 14  2  0  0  0  0
  6 15  2  0  0  0  0
  7  8  1  0  0  0  0
  7 14  1  0  0  0  0
  7 18  1  0  0  0  0
  8  9  1  0  0  0  0
  8 11  2  0  0  0  0
  9 10  2  0  0  0  0
 10 12  1  0  0  0  0
 10 15  1  0  0  0  0
 11 13  1  0  0  0  0
 12 13  2  0  0  0  0
 13 17  1  0  0  0  0
 14 16  1  0  0  0  0
 16 19  1  0  0  0  0
 16 20  1  0  0  0  0
 16 21  1  0  0  0  0
M  END
> <PUBCHEM_COMPOUND_CID>
6806

> <PUBCHEM_COMPOUND_CANONICALIZED>
1

> <PUBCHEM_CACTVS_COMPLEXITY>
300

> <PUBCHEM_CACTVS_HBOND_ACCEPTOR>
3

> <PUBCHEM_CACTVS_HBOND_DONOR>
2

> <PUBCHEM_CACTVS_ROTATABLE_BOND>
2

> <PUBCHEM_CACTVS_SUBSKEYS>
AAADcYByMAAAAwAAAAAAAAAAAAAAAAAAAAAwAAAAAAAAAAABAAAAHgAwCAAADAiDmAAyyILAAgCIAiXSWACCAAAlAAAAiAEATMgIJjLAlJGEcQhk1AHI2Qe8yCCOAAAAQAAAAAAAAACAAAAAAAAAAAAAAA==

> <PUBCHEM_IUPAC_OPENEYE_NAME>
3-acetamido-2,4,6-triiodo-benzoic acid

> <PUBCHEM_IUPAC_CAS_NAME>
3-acetamido-2,4,6-triiodobenzoic acid

> <PUBCHEM_IUPAC_NAME>
3-acetamido-2,4,6-triiodobenzoic acid

> <PUBCHEM_IUPAC_SYSTEMATIC_NAME>
3-acetamido-2,4,6-tris(iodanyl)benzoic acid

> <PUBCHEM_IUPAC_TRADITIONAL_NAME>
3-acetamido-2,4,6-triiodo-benzoic acid

> <PUBCHEM_IUPAC_INCHI>
InChI=1S/C9H6I3NO3/c1-3(14)13-8-5(11)2-4(10)6(7(8)12)9(15)16/h2H,1H3,(H,13,14)(H,15,16)

> <PUBCHEM_IUPAC_INCHIKEY>
GNOGSFBXBWBTIG-UHFFFAOYSA-N

> <PUBCHEM_XLOGP3_AA>
2.6

> <PUBCHEM_EXACT_MASS>
556.748187

> <PUBCHEM_MOLECULAR_FORMULA>
C9H6I3NO3

> <PUBCHEM_MOLECULAR_WEIGHT>
556.86225

> <PUBCHEM_OPENEYE_CAN_SMILES>
CC(=O)NC1=C(C=C(C(=C1I)C(=O)O)I)I

> <PUBCHEM_OPENEYE_ISO_SMILES>
CC(=O)NC1=C(C=C(C(=C1I)C(=O)O)I)I

> <PUBCHEM_CACTVS_TPSA>
66.4

> <PUBCHEM_MONOISOTOPIC_WEIGHT>
556.748187

> <PUBCHEM_TOTAL_CHARGE>
0

> <PUBCHEM_HEAVY_ATOM_COUNT>
16

> <PUBCHEM_ATOM_DEF_STEREO_COUNT>
0

> <PUBCHEM_ATOM_UDEF_STEREO_COUNT>
0

> <PUBCHEM_BOND_DEF_STEREO_COUNT>
0

> <PUBCHEM_BOND_UDEF_STEREO_COUNT>
0

> <PUBCHEM_ISOTOPIC_ATOM_COUNT>
0

> <PUBCHEM_COMPONENT_COUNT>
1

> <PUBCHEM_CACTVS_TAUTO_COUNT>
3

> <PUBCHEM_COORDINATE_TYPE>
1
5
255

> <PUBCHEM_BONDANNOTATIONS>
10  12  8
11  13  8
12  13  8
8  11  8
8  9  8
9  10  8

$$$$

