56928121
  -OEChem-07051213152D

 55 58  0     1  0  0  0  0  0999 V2000
    7.5817    2.1633    0.0000 O   0  0  0  0  0  0  0  0  0  0  0  0
    5.6538    0.1310    0.0000 C   0  0  1  0  0  0  0  0  0  0  0  0
    4.7853    0.6266    0.0000 C   0  0  1  0  0  0  0  0  0  0  0  0
    3.8778    0.1153    0.0000 C   0  0  2  0  0  0  0  0  0  0  0  0
    3.8750   -0.9264    0.0000 C   0  0  1  0  0  0  0  0  0  0  0  0
    5.6293    1.3123    0.0000 C   0  0  0  0  0  0  0  0  0  0  0  0
    6.3054    2.2814    0.0000 C   0  0  3  0  0  0  0  0  0  0  0  0
    6.5828    0.5009    0.0000 C   0  0  0  0  0  0  0  0  0  0  0  0
    5.6751   -0.9104    0.0000 C   0  0  0  0  0  0  0  0  0  0  0  0
    6.8728    1.4580    0.0000 C   0  0  1  0  0  0  0  0  0  0  0  0
    4.6313    1.6147    0.0000 C   0  0  0  0  0  0  0  0  0  0  0  0
    4.7797   -1.4427    0.0000 C   0  0  0  0  0  0  0  0  0  0  0  0
    2.9423   -1.4807    0.0000 C   0  0  0  0  0  0  0  0  0  0  0  0
    5.3078    2.3512    0.0000 C   0  0  0  0  0  0  0  0  0  0  0  0
    2.9482    0.6747    0.0000 C   0  0  0  0  0  0  0  0  0  0  0  0
    3.5384    1.0559    0.0000 C   0  0  0  0  0  0  0  0  0  0  0  0
    2.0000   -0.9429    0.0000 C   0  0  0  0  0  0  0  0  0  0  0  0
    2.0029    0.1421    0.0000 C   0  0  0  0  0  0  0  0  0  0  0  0
    7.7627    1.0018    0.0000 C   0  0  0  0  0  0  0  0  0  0  0  0
    2.4500   -2.3512    0.0000 C   0  0  0  0  0  0  0  0  0  0  0  0
    3.4500   -2.3423    0.0000 C   0  0  0  0  0  0  0  0  0  0  0  0
    4.0471    1.0480    0.0000 H   0  0  0  0  0  0  0  0  0  0  0  0
    3.8825   -1.7763    0.0000 H   0  0  0  0  0  0  0  0  0  0  0  0
    5.2551    1.8066    0.0000 H   0  0  0  0  0  0  0  0  0  0  0  0
    5.0436    1.1089    0.0000 H   0  0  0  0  0  0  0  0  0  0  0  0
    6.6127    2.8199    0.0000 H   0  0  0  0  0  0  0  0  0  0  0  0
    6.6783   -0.1117    0.0000 H   0  0  0  0  0  0  0  0  0  0  0  0
    7.2013    0.4577    0.0000 H   0  0  0  0  0  0  0  0  0  0  0  0
    5.8960   -1.4897    0.0000 H   0  0  0  0  0  0  0  0  0  0  0  0
    6.2836   -0.7919    0.0000 H   0  0  0  0  0  0  0  0  0  0  0  0
    4.2795    2.1252    0.0000 H   0  0  0  0  0  0  0  0  0  0  0  0
    4.0553    1.3853    0.0000 H   0  0  0  0  0  0  0  0  0  0  0  0
    4.3847   -1.9206    0.0000 H   0  0  0  0  0  0  0  0  0  0  0  0
    5.1830   -1.9136    0.0000 H   0  0  0  0  0  0  0  0  0  0  0  0
    5.4876    2.9445    0.0000 H   0  0  0  0  0  0  0  0  0  0  0  0
    4.7694    2.6585    0.0000 H   0  0  0  0  0  0  0  0  0  0  0  0
    3.3541    1.1434    0.0000 H   0  0  0  0  0  0  0  0  0  0  0  0
    2.5559    1.1548    0.0000 H   0  0  0  0  0  0  0  0  0  0  0  0
    4.1216    1.2664    0.0000 H   0  0  0  0  0  0  0  0  0  0  0  0
    3.3279    1.6391    0.0000 H   0  0  0  0  0  0  0  0  0  0  0  0
    2.9552    0.8454    0.0000 H   0  0  0  0  0  0  0  0  0  0  0  0
    1.3894   -0.8352    0.0000 H   0  0  0  0  0  0  0  0  0  0  0  0
    1.7894   -1.5261    0.0000 H   0  0  0  0  0  0  0  0  0  0  0  0
    1.7955    0.7263    0.0000 H   0  0  0  0  0  0  0  0  0  0  0  0
    1.3918    0.0376    0.0000 H   0  0  0  0  0  0  0  0  0  0  0  0
    7.4798    0.4500    0.0000 H   0  0  0  0  0  0  0  0  0  0  0  0
    8.3144    0.7189    0.0000 H   0  0  0  0  0  0  0  0  0  0  0  0
    8.0456    1.5535    0.0000 H   0  0  0  0  0  0  0  0  0  0  0  0
    1.9104   -2.0459    0.0000 H   0  0  0  0  0  0  0  0  0  0  0  0
    2.1448   -2.8908    0.0000 H   0  0  0  0  0  0  0  0  0  0  0  0
    2.9897   -2.6564    0.0000 H   0  0  0  0  0  0  0  0  0  0  0  0
    2.9158   -2.6570    0.0000 H   0  0  0  0  0  0  0  0  0  0  0  0
    3.7647   -2.8765    0.0000 H   0  0  0  0  0  0  0  0  0  0  0  0
    3.9841   -2.0276    0.0000 H   0  0  0  0  0  0  0  0  0  0  0  0
    8.1802    2.0014    0.0000 H   0  0  0  0  0  0  0  0  0  0  0  0
 10  1  1  6  0  0  0
  1 55  1  0  0  0  0
  2  3  1  0  0  0  0
  2  6  1  0  0  0  0
  2  8  1  0  0  0  0
  2  9  1  6  0  0  0
  3  4  1  0  0  0  0
  3 11  1  0  0  0  0
  3 22  1  6  0  0  0
  4  5  1  0  0  0  0
  4 15  1  0  0  0  0
  4 16  1  1  0  0  0
  5 12  1  0  0  0  0
  5 13  1  0  0  0  0
  5 23  1  6  0  0  0
  6  7  1  0  0  0  0
  6 24  1  0  0  0  0
  6 25  1  0  0  0  0
  7 10  1  0  0  0  0
  7 14  1  0  0  0  0
  7 26  1  0  0  0  0
  8 10  1  0  0  0  0
  8 27  1  0  0  0  0
  8 28  1  0  0  0  0
  9 12  1  0  0  0  0
  9 29  1  0  0  0  0
  9 30  1  0  0  0  0
 10 19  1  0  0  0  0
 11 14  1  0  0  0  0
 11 31  1  0  0  0  0
 11 32  1  0  0  0  0
 12 33  1  0  0  0  0
 12 34  1  0  0  0  0
 13 17  1  0  0  0  0
 13 20  1  0  0  0  0
 13 21  1  0  0  0  0
 14 35  1  0  0  0  0
 14 36  1  0  0  0  0
 15 18  1  0  0  0  0
 15 37  1  0  0  0  0
 15 38  1  0  0  0  0
 16 39  1  0  0  0  0
 16 40  1  0  0  0  0
 16 41  1  0  0  0  0
 17 18  1  0  0  0  0
 17 42  1  0  0  0  0
 17 43  1  0  0  0  0
 18 44  1  0  0  0  0
 18 45  1  0  0  0  0
 19 46  1  0  0  0  0
 19 47  1  0  0  0  0
 19 48  1  0  0  0  0
 20 49  1  0  0  0  0
 20 50  1  0  0  0  0
 20 51  1  0  0  0  0
 21 52  1  0  0  0  0
 21 53  1  0  0  0  0
 21 54  1  0  0  0  0
M  END
> <PUBCHEM_COMPOUND_CID>
56928121

> <PUBCHEM_COMPOUND_CANONICALIZED>
1

> <PUBCHEM_CACTVS_COMPLEXITY>
455

> <PUBCHEM_CACTVS_HBOND_ACCEPTOR>
1

> <PUBCHEM_CACTVS_HBOND_DONOR>
1

> <PUBCHEM_CACTVS_ROTATABLE_BOND>
0

> <PUBCHEM_CACTVS_SUBSKEYS>
AAADcfB4IAAAAAAAAAAAAAAAAAAAAYAAAAAwYMAABgAAAADAAAAAGgAACAAAD0SAgAACAAAAAgAAAAAAAAAAAAAAAAAAAAAAAAAAAAIAAAAAQAAEAAAAAAGAwPAPgAAAAAAAAACAAAQAACAAAYAADAAAAA==

> <PUBCHEM_IUPAC_INCHI>
InChI=1S/C20H34O/c1-17(2)9-5-10-18(3)15(17)8-11-20-12-14(6-7-16(18)20)19(4,21)13-20/h14-16,21H,5-13H2,1-4H3/t14?,15-,16+,18-,19+,20-/m0/s1

> <PUBCHEM_IUPAC_INCHIKEY>
FZSRMADKTOBCNT-OQKWZCIFSA-N

> <PUBCHEM_XLOGP3_AA>
5.9

> <PUBCHEM_EXACT_MASS>
290.260966

> <PUBCHEM_MOLECULAR_FORMULA>
C20H34O

> <PUBCHEM_MOLECULAR_WEIGHT>
290.48336

> <PUBCHEM_OPENEYE_CAN_SMILES>
CC1(CCCC2(C1CCC34C2CCC(C3)C(C4)(C)O)C)C

> <PUBCHEM_OPENEYE_ISO_SMILES>
C[C@]12CCCC([C@@H]1CC[C@]34[C@@H]2CCC(C3)[C@](C4)(C)O)(C)C

> <PUBCHEM_CACTVS_TPSA>
20.2

> <PUBCHEM_MONOISOTOPIC_WEIGHT>
290.260966

> <PUBCHEM_TOTAL_CHARGE>
0

> <PUBCHEM_HEAVY_ATOM_COUNT>
21

> <PUBCHEM_ATOM_DEF_STEREO_COUNT>
5

> <PUBCHEM_ATOM_UDEF_STEREO_COUNT>
1

> <PUBCHEM_BOND_DEF_STEREO_COUNT>
0

> <PUBCHEM_BOND_UDEF_STEREO_COUNT>
0

> <PUBCHEM_ISOTOPIC_ATOM_COUNT>
0

> <PUBCHEM_COMPONENT_COUNT>
1

> <PUBCHEM_CACTVS_TAUTO_COUNT>
1

> <PUBCHEM_COORDINATE_TYPE>
1
5
255

> <PUBCHEM_BONDANNOTATIONS>
10  1  6
2  9  6
3  22  6
4  16  5
5  23  6
7  6  3

$$$$

