65543
  -OEChem-07051213052D

 50 53  0     1  0  0  0  0  0999 V2000
    8.6500    2.7523    0.0000 O   0  0  0  0  0  0  0  0  0  0  0  0
    5.6489   -2.5722    0.0000 O   0  0  0  0  0  0  0  0  0  0  0  0
    2.0000   -1.5553    0.0000 O   0  0  0  0  0  0  0  0  0  0  0  0
    7.3931    0.4970    0.0000 C   0  0  2  0  0  0  0  0  0  0  0  0
    7.3931    1.4970    0.0000 C   0  0  2  0  0  0  0  0  0  0  0  0
    6.5271   -0.0030    0.0000 C   0  0  1  0  0  0  0  0  0  0  0  0
    5.6610    0.4970    0.0000 C   0  0  1  0  0  0  0  0  0  0  0  0
    4.7510   -0.0098    0.0000 C   0  0  2  0  0  0  0  0  0  0  0  0
    6.5271    1.9970    0.0000 C   0  0  0  0  0  0  0  0  0  0  0  0
    5.6610    1.4970    0.0000 C   0  0  0  0  0  0  0  0  0  0  0  0
    8.3393    1.8018    0.0000 C   0  0  2  0  0  0  0  0  0  0  0  0
    8.3393    0.1923    0.0000 C   0  0  0  0  0  0  0  0  0  0  0  0
    6.5431   -1.0445    0.0000 C   0  0  0  0  0  0  0  0  0  0  0  0
    8.9229    0.9970    0.0000 C   0  0  0  0  0  0  0  0  0  0  0  0
    4.7430   -1.0514    0.0000 C   0  0  0  0  0  0  0  0  0  0  0  0
    5.6451   -1.5722    0.0000 C   0  0  2  0  0  0  0  0  0  0  0  0
    7.3931    2.4970    0.0000 C   0  0  0  0  0  0  0  0  0  0  0  0
    3.8242    0.5543    0.0000 C   0  0  0  0  0  0  0  0  0  0  0  0
    4.7587    0.9902    0.0000 C   0  0  0  0  0  0  0  0  0  0  0  0
    2.8763    0.0263    0.0000 C   0  0  0  0  0  0  0  0  0  0  0  0
    3.8076   -1.6011    0.0000 C   0  0  0  0  0  0  0  0  0  0  0  0
    2.8680   -1.0586    0.0000 C   0  0  0  0  0  0  0  0  0  0  0  0
    7.4830   -0.3482    0.0000 H   0  0  0  0  0  0  0  0  0  0  0  0
    7.2664   -0.4223    0.0000 H   0  0  0  0  0  0  0  0  0  0  0  0
    6.3972    0.9220    0.0000 H   0  0  0  0  0  0  0  0  0  0  0  0
    6.9256    2.4720    0.0000 H   0  0  0  0  0  0  0  0  0  0  0  0
    6.1285    2.4720    0.0000 H   0  0  0  0  0  0  0  0  0  0  0  0
    5.4490    2.0796    0.0000 H   0  0  0  0  0  0  0  0  0  0  0  0
    5.0504    1.3894    0.0000 H   0  0  0  0  0  0  0  0  0  0  0  0
    7.9018    2.2411    0.0000 H   0  0  0  0  0  0  0  0  0  0  0  0
    8.0883   -0.3746    0.0000 H   0  0  0  0  0  0  0  0  0  0  0  0
    8.8767   -0.1169    0.0000 H   0  0  0  0  0  0  0  0  0  0  0  0
    6.7612   -1.6249    0.0000 H   0  0  0  0  0  0  0  0  0  0  0  0
    7.1523   -0.9290    0.0000 H   0  0  0  0  0  0  0  0  0  0  0  0
    9.3838    0.5823    0.0000 H   0  0  0  0  0  0  0  0  0  0  0  0
    9.3838    1.4118    0.0000 H   0  0  0  0  0  0  0  0  0  0  0  0
    5.1087   -1.8833    0.0000 H   0  0  0  0  0  0  0  0  0  0  0  0
    8.0131    2.4970    0.0000 H   0  0  0  0  0  0  0  0  0  0  0  0
    7.3931    3.1170    0.0000 H   0  0  0  0  0  0  0  0  0  0  0  0
    6.7731    2.4970    0.0000 H   0  0  0  0  0  0  0  0  0  0  0  0
    4.2324    1.0209    0.0000 H   0  0  0  0  0  0  0  0  0  0  0  0
    3.4343    1.0363    0.0000 H   0  0  0  0  0  0  0  0  0  0  0  0
    5.3787    0.9854    0.0000 H   0  0  0  0  0  0  0  0  0  0  0  0
    4.7635    1.6101    0.0000 H   0  0  0  0  0  0  0  0  0  0  0  0
    4.1388    0.9949    0.0000 H   0  0  0  0  0  0  0  0  0  0  0  0
    2.6718    0.6116    0.0000 H   0  0  0  0  0  0  0  0  0  0  0  0
    2.2647   -0.0751    0.0000 H   0  0  0  0  0  0  0  0  0  0  0  0
    3.8100   -2.2211    0.0000 H   0  0  0  0  0  0  0  0  0  0  0  0
    9.2566    2.8802    0.0000 H   0  0  0  0  0  0  0  0  0  0  0  0
    6.1871   -2.8802    0.0000 H   0  0  0  0  0  0  0  0  0  0  0  0
 11  1  1  1  0  0  0
  1 49  1  0  0  0  0
 16  2  1  1  0  0  0
  2 50  1  0  0  0  0
  3 22  2  0  0  0  0
  4  5  1  0  0  0  0
  4  6  1  0  0  0  0
  4 12  1  0  0  0  0
  4 23  1  6  0  0  0
  5  9  1  0  0  0  0
  5 11  1  0  0  0  0
  5 17  1  1  0  0  0
  6  7  1  0  0  0  0
  6 13  1  0  0  0  0
  6 24  1  1  0  0  0
  7  8  1  0  0  0  0
  7 10  1  0  0  0  0
  7 25  1  6  0  0  0
  8 15  1  0  0  0  0
  8 18  1  0  0  0  0
  8 19  1  1  0  0  0
  9 10  1  0  0  0  0
  9 26  1  0  0  0  0
  9 27  1  0  0  0  0
 10 28  1  0  0  0  0
 10 29  1  0  0  0  0
 11 14  1  0  0  0  0
 11 30  1  0  0  0  0
 12 14  1  0  0  0  0
 12 31  1  0  0  0  0
 12 32  1  0  0  0  0
 13 16  1  0  0  0  0
 13 33  1  0  0  0  0
 13 34  1  0  0  0  0
 14 35  1  0  0  0  0
 14 36  1  0  0  0  0
 15 16  1  0  0  0  0
 15 21  2  0  0  0  0
 16 37  1  0  0  0  0
 17 38  1  0  0  0  0
 17 39  1  0  0  0  0
 17 40  1  0  0  0  0
 18 20  1  0  0  0  0
 18 41  1  0  0  0  0
 18 42  1  0  0  0  0
 19 43  1  0  0  0  0
 19 44  1  0  0  0  0
 19 45  1  0  0  0  0
 20 22  1  0  0  0  0
 20 46  1  0  0  0  0
 20 47  1  0  0  0  0
 21 22  1  0  0  0  0
 21 48  1  0  0  0  0
M  END
> <PUBCHEM_COMPOUND_CID>
65543

> <PUBCHEM_COMPOUND_CANONICALIZED>
1

> <PUBCHEM_CACTVS_COMPLEXITY>
539

> <PUBCHEM_CACTVS_HBOND_ACCEPTOR>
3

> <PUBCHEM_CACTVS_HBOND_DONOR>
2

> <PUBCHEM_CACTVS_ROTATABLE_BOND>
0

> <PUBCHEM_CACTVS_SUBSKEYS>
AAADceB4MAAAAAAAAAAAAAAAAAAAAYAAAAAwYIAAAAAAAGDAAAAAGgAACAAADxSggAICAAAAAgCIAqBSAAAAAAAgAAAACAEAAEgAFBIAAQAAUAAEgAAIEQOIyPCPgAAAAAAAAADAAAYAACAAAIAADAAAAA==

> <PUBCHEM_IUPAC_OPENEYE_NAME>
(6R,8R,9S,10R,13S,14S,17S)-6,17-dihydroxy-10,13-dimethyl-1,2,6,7,8,9,11,12,14,15,16,17-dodecahydrocyclopenta[a]phenanthren-3-one

> <PUBCHEM_IUPAC_CAS_NAME>
(6R,8R,9S,10R,13S,14S,17S)-6,17-dihydroxy-10,13-dimethyl-1,2,6,7,8,9,11,12,14,15,16,17-dodecahydrocyclopenta[a]phenanthren-3-one

> <PUBCHEM_IUPAC_NAME>
(6R,8R,9S,10R,13S,14S,17S)-6,17-dihydroxy-10,13-dimethyl-1,2,6,7,8,9,11,12,14,15,16,17-dodecahydrocyclopenta[a]phenanthren-3-one

> <PUBCHEM_IUPAC_SYSTEMATIC_NAME>
(6R,8R,9S,10R,13S,14S,17S)-10,13-dimethyl-6,17-bis(oxidanyl)-1,2,6,7,8,9,11,12,14,15,16,17-dodecahydrocyclopenta[a]phenanthren-3-one

> <PUBCHEM_IUPAC_TRADITIONAL_NAME>
(6R,8R,9S,10R,13S,14S,17S)-6,17-dihydroxy-10,13-dimethyl-1,2,6,7,8,9,11,12,14,15,16,17-dodecahydrocyclopenta[a]phenanthren-3-one

> <PUBCHEM_IUPAC_INCHI>
InChI=1S/C19H28O3/c1-18-7-5-11(20)9-15(18)16(21)10-12-13-3-4-17(22)19(13,2)8-6-14(12)18/h9,12-14,16-17,21-22H,3-8,10H2,1-2H3/t12-,13-,14-,16+,17-,18+,19-/m0/s1

> <PUBCHEM_IUPAC_INCHIKEY>
XSEGWEUVSZRCBC-ZVBLRVHNSA-N

> <PUBCHEM_XLOGP3>
2

> <PUBCHEM_EXACT_MASS>
304.203845

> <PUBCHEM_MOLECULAR_FORMULA>
C19H28O3

> <PUBCHEM_MOLECULAR_WEIGHT>
304.42382

> <PUBCHEM_OPENEYE_CAN_SMILES>
CC12CCC3C(C1CCC2O)CC(C4=CC(=O)CCC34C)O

> <PUBCHEM_OPENEYE_ISO_SMILES>
C[C@]12CC[C@H]3[C@H]([C@@H]1CC[C@@H]2O)C[C@H](C4=CC(=O)CC[C@]34C)O

> <PUBCHEM_CACTVS_TPSA>
57.5

> <PUBCHEM_MONOISOTOPIC_WEIGHT>
304.203845

> <PUBCHEM_TOTAL_CHARGE>
0

> <PUBCHEM_HEAVY_ATOM_COUNT>
22

> <PUBCHEM_ATOM_DEF_STEREO_COUNT>
7

> <PUBCHEM_ATOM_UDEF_STEREO_COUNT>
0

> <PUBCHEM_BOND_DEF_STEREO_COUNT>
0

> <PUBCHEM_BOND_UDEF_STEREO_COUNT>
0

> <PUBCHEM_ISOTOPIC_ATOM_COUNT>
0

> <PUBCHEM_COMPONENT_COUNT>
1

> <PUBCHEM_CACTVS_TAUTO_COUNT>
2

> <PUBCHEM_COORDINATE_TYPE>
1
5
255

> <PUBCHEM_BONDANNOTATIONS>
11  1  5
16  2  5
4  23  6
5  17  5
6  24  5
7  25  6
8  19  5

$$$$

