55329
  -OEChem-07051213042D

 40 39  0     1  0  0  0  0  0999 V2000
    7.4040    3.5600    0.0000 O   0  0  0  0  0  0  0  0  0  0  0  0
    2.2690    4.5000    0.0000 N   0  0  0  0  0  0  0  0  0  0  0  0
    1.4030    3.0000    0.0000 N   0  0  0  0  0  0  0  0  0  0  0  0
    3.1350    3.0000    0.0000 N   0  0  0  0  0  0  0  0  0  0  0  0
    1.4030    0.0000    0.0000 N   0  0  0  0  0  0  0  0  0  0  0  0
    4.8671    4.0000    0.0000 N   0  0  0  0  0  0  0  0  0  0  0  0
    3.1350    6.0000    0.0000 C   0  0  0  0  0  0  0  0  0  0  0  0
    3.1350    5.0000    0.0000 C   0  0  3  0  0  0  0  0  0  0  0  0
    3.1350    7.0000    0.0000 C   0  0  0  0  0  0  0  0  0  0  0  0
    4.1350    6.0000    0.0000 C   0  0  0  0  0  0  0  0  0  0  0  0
    2.1350    6.0000    0.0000 C   0  0  0  0  0  0  0  0  0  0  0  0
    4.0010    4.5000    0.0000 C   0  0  0  0  0  0  0  0  0  0  0  0
    2.2690    3.5000    0.0000 C   0  0  0  0  0  0  0  0  0  0  0  0
    1.4030    2.0000    0.0000 C   0  0  0  0  0  0  0  0  0  0  0  0
    2.2690    1.5000    0.0000 C   0  0  0  0  0  0  0  0  0  0  0  0
    0.5369    1.5000    0.0000 C   0  0  0  0  0  0  0  0  0  0  0  0
    4.0010    3.5000    0.0000 C   0  0  0  0  0  0  0  0  0  0  0  0
    2.2690    0.5000    0.0000 C   0  0  0  0  0  0  0  0  0  0  0  0
    0.5369    0.5000    0.0000 C   0  0  0  0  0  0  0  0  0  0  0  0
    2.5981    5.3100    0.0000 H   0  0  0  0  0  0  0  0  0  0  0  0
    3.7550    7.0000    0.0000 H   0  0  0  0  0  0  0  0  0  0  0  0
    3.1350    7.6200    0.0000 H   0  0  0  0  0  0  0  0  0  0  0  0
    2.5150    7.0000    0.0000 H   0  0  0  0  0  0  0  0  0  0  0  0
    4.1350    5.3800    0.0000 H   0  0  0  0  0  0  0  0  0  0  0  0
    4.7550    6.0000    0.0000 H   0  0  0  0  0  0  0  0  0  0  0  0
    4.1350    6.6200    0.0000 H   0  0  0  0  0  0  0  0  0  0  0  0
    2.1350    6.6200    0.0000 H   0  0  0  0  0  0  0  0  0  0  0  0
    1.5150    6.0000    0.0000 H   0  0  0  0  0  0  0  0  0  0  0  0
    2.1350    5.3800    0.0000 H   0  0  0  0  0  0  0  0  0  0  0  0
    3.6910    3.9631    0.0000 H   0  0  0  0  0  0  0  0  0  0  0  0
    4.5380    4.1900    0.0000 H   0  0  0  0  0  0  0  0  0  0  0  0
    4.3110    5.0369    0.0000 H   0  0  0  0  0  0  0  0  0  0  0  0
    0.8660    3.3100    0.0000 H   0  0  0  0  0  0  0  0  0  0  0  0
    3.1350    2.3800    0.0000 H   0  0  0  0  0  0  0  0  0  0  0  0
    2.8059    1.8100    0.0000 H   0  0  0  0  0  0  0  0  0  0  0  0
    0.0000    1.8100    0.0000 H   0  0  0  0  0  0  0  0  0  0  0  0
    2.8059    0.1900    0.0000 H   0  0  0  0  0  0  0  0  0  0  0  0
    0.0000    0.1900    0.0000 H   0  0  0  0  0  0  0  0  0  0  0  0
    7.9409    3.8700    0.0000 H   0  0  0  0  0  0  0  0  0  0  0  0
    6.8671    3.8700    0.0000 H   0  0  0  0  0  0  0  0  0  0  0  0
  1 39  1  0  0  0  0
  1 40  1  0  0  0  0
  2  8  1  0  0  0  0
  2 13  2  0  0  0  0
  3 13  1  0  0  0  0
  3 14  1  0  0  0  0
  3 33  1  0  0  0  0
  4 13  1  0  0  0  0
  4 17  1  0  0  0  0
  4 34  1  0  0  0  0
  5 18  2  0  0  0  0
  5 19  1  0  0  0  0
  6 17  3  0  0  0  0
  7  8  1  0  0  0  0
  7  9  1  0  0  0  0
  7 10  1  0  0  0  0
  7 11  1  0  0  0  0
  8 12  1  0  0  0  0
  8 20  1  0  0  0  0
  9 21  1  0  0  0  0
  9 22  1  0  0  0  0
  9 23  1  0  0  0  0
 10 24  1  0  0  0  0
 10 25  1  0  0  0  0
 10 26  1  0  0  0  0
 11 27  1  0  0  0  0
 11 28  1  0  0  0  0
 11 29  1  0  0  0  0
 12 30  1  0  0  0  0
 12 31  1  0  0  0  0
 12 32  1  0  0  0  0
 14 15  2  0  0  0  0
 14 16  1  0  0  0  0
 15 18  1  0  0  0  0
 15 35  1  0  0  0  0
 16 19  2  0  0  0  0
 16 36  1  0  0  0  0
 18 37  1  0  0  0  0
 19 38  1  0  0  0  0
M  END
> <PUBCHEM_COMPOUND_CID>
55329

> <PUBCHEM_COMPOUND_CANONICALIZED>
1

> <PUBCHEM_CACTVS_COMPLEXITY>
327

> <PUBCHEM_CACTVS_HBOND_ACCEPTOR>
4

> <PUBCHEM_CACTVS_HBOND_DONOR>
3

> <PUBCHEM_CACTVS_ROTATABLE_BOND>
5

> <PUBCHEM_CACTVS_SUBSKEYS>
AAADceBzoAAAAAAAAAAAAAAAAAAAAAAAAAAsAAAAAAAAAAABgAAAHAAQCAAADijBEgQ/wJLIEACwADRnZACCgCExAiAJ2CA4ZJiIIGLA2dGEJAhokALIyCYQAAAJAAAAAAAAAAAAAAAAAAAAAAAAAAAAAA==

> <PUBCHEM_IUPAC_OPENEYE_NAME>
1-cyano-3-(4-pyridyl)-2-(1,2,2-trimethylpropyl)guanidine hydrate

> <PUBCHEM_IUPAC_CAS_NAME>
1-cyano-2-(3,3-dimethylbutan-2-yl)-3-pyridin-4-ylguanidine hydrate

> <PUBCHEM_IUPAC_NAME>
1-cyano-2-(3,3-dimethylbutan-2-yl)-3-pyridin-4-ylguanidine hydrate

> <PUBCHEM_IUPAC_SYSTEMATIC_NAME>
1-cyano-2-(3,3-dimethylbutan-2-yl)-3-pyridin-4-yl-guanidine hydrate

> <PUBCHEM_IUPAC_TRADITIONAL_NAME>
1-cyano-3-(4-pyridyl)-2-(1,2,2-trimethylpropyl)guanidine hydrate

> <PUBCHEM_IUPAC_INCHI>
InChI=1S/C13H19N5.H2O/c1-10(13(2,3)4)17-12(16-9-14)18-11-5-7-15-8-6-11;/h5-8,10H,1-4H3,(H2,15,16,17,18);1H2

> <PUBCHEM_IUPAC_INCHIKEY>
AFJCNBBHEVLGCZ-UHFFFAOYSA-N

> <PUBCHEM_EXACT_MASS>
263.17461

> <PUBCHEM_MOLECULAR_FORMULA>
C13H21N5O

> <PUBCHEM_MOLECULAR_WEIGHT>
263.33874

> <PUBCHEM_OPENEYE_CAN_SMILES>
CC(C(C)(C)C)N=C(NC#N)NC1=CC=NC=C1.O

> <PUBCHEM_OPENEYE_ISO_SMILES>
CC(C(C)(C)C)N=C(NC#N)NC1=CC=NC=C1.O

> <PUBCHEM_CACTVS_TPSA>
74.1

> <PUBCHEM_MONOISOTOPIC_WEIGHT>
263.17461

> <PUBCHEM_TOTAL_CHARGE>
0

> <PUBCHEM_HEAVY_ATOM_COUNT>
19

> <PUBCHEM_ATOM_DEF_STEREO_COUNT>
0

> <PUBCHEM_ATOM_UDEF_STEREO_COUNT>
1

> <PUBCHEM_BOND_DEF_STEREO_COUNT>
0

> <PUBCHEM_BOND_UDEF_STEREO_COUNT>
0

> <PUBCHEM_ISOTOPIC_ATOM_COUNT>
0

> <PUBCHEM_COMPONENT_COUNT>
2

> <PUBCHEM_CACTVS_TAUTO_COUNT>
5

> <PUBCHEM_COORDINATE_TYPE>
1
5
255

> <PUBCHEM_BONDANNOTATIONS>
14  15  8
14  16  8
15  18  8
16  19  8
5  18  8
5  19  8
8  12  3

$$$$

