7723
  -OEChem-06261202163D

 15 15  0     0  0  0  0  0  0999 V2000
   -3.3406    0.0001    0.9728 Cl  0  0  0  0  0  0  0  0  0  0  0  0
    3.4671    0.0003    0.3579 Cl  0  0  0  0  0  0  0  0  0  0  0  0
   -0.9888   -0.0002   -0.3422 C   0  0  0  0  0  0  0  0  0  0  0  0
   -0.2996   -1.2082   -0.2342 C   0  0  0  0  0  0  0  0  0  0  0  0
   -0.2999    1.2078   -0.2343 C   0  0  0  0  0  0  0  0  0  0  0  0
   -2.4623    0.0001   -0.5731 C   0  0  0  0  0  0  0  0  0  0  0  0
    1.0785   -1.2080   -0.0183 C   0  0  0  0  0  0  0  0  0  0  0  0
    1.0782    1.2080   -0.0184 C   0  0  0  0  0  0  0  0  0  0  0  0
    1.7673    0.0001    0.0896 C   0  0  0  0  0  0  0  0  0  0  0  0
   -0.8250   -2.1561   -0.3151 H   0  0  0  0  0  0  0  0  0  0  0  0
   -0.8255    2.1556   -0.3153 H   0  0  0  0  0  0  0  0  0  0  0  0
   -2.7760   -0.8813   -1.1424 H   0  0  0  0  0  0  0  0  0  0  0  0
   -2.7758    0.8817   -1.1423 H   0  0  0  0  0  0  0  0  0  0  0  0
    1.6024   -2.1568    0.0645 H   0  0  0  0  0  0  0  0  0  0  0  0
    1.6019    2.1569    0.0643 H   0  0  0  0  0  0  0  0  0  0  0  0
  1  6  1  0  0  0  0
  2  9  1  0  0  0  0
  3  4  2  0  0  0  0
  3  5  1  0  0  0  0
  3  6  1  0  0  0  0
  4  7  1  0  0  0  0
  4 10  1  0  0  0  0
  5  8  2  0  0  0  0
  5 11  1  0  0  0  0
  6 12  1  0  0  0  0
  6 13  1  0  0  0  0
  7  9  2  0  0  0  0
  7 14  1  0  0  0  0
  8  9  1  0  0  0  0
  8 15  1  0  0  0  0
M  END
> <PUBCHEM_COMPOUND_CID>
7723

> <PUBCHEM_CONFORMER_RMSD>
0.4

> <PUBCHEM_CONFORMER_DIVERSEORDER>
1
2

> <PUBCHEM_MMFF94_PARTIAL_CHARGES>
13
1 -0.29
10 0.15
11 0.15
14 0.15
15 0.15
2 -0.18
3 -0.14
4 -0.15
5 -0.15
6 0.43
7 -0.15
8 -0.15
9 0.18

> <PUBCHEM_EFFECTIVE_ROTOR_COUNT>
1

> <PUBCHEM_PHARMACOPHORE_FEATURES>
1
6 3 4 5 7 8 9 rings

> <PUBCHEM_HEAVY_ATOM_COUNT>
9

> <PUBCHEM_ATOM_DEF_STEREO_COUNT>
0

> <PUBCHEM_ATOM_UDEF_STEREO_COUNT>
0

> <PUBCHEM_BOND_DEF_STEREO_COUNT>
0

> <PUBCHEM_BOND_UDEF_STEREO_COUNT>
0

> <PUBCHEM_ISOTOPIC_ATOM_COUNT>
0

> <PUBCHEM_COMPONENT_COUNT>
1

> <PUBCHEM_CACTVS_TAUTO_COUNT>
1

> <PUBCHEM_CONFORMER_ID>
00001E2B00000001

> <PUBCHEM_MMFF94_ENERGY>
17.234

> <PUBCHEM_FEATURE_SELFOVERLAP>
5.074

> <PUBCHEM_SHAPE_FINGERPRINT>
10219947 1 18411138038911467532
10857977 72 18202566172354328361
12032990 46 18341327881338354542
14325111 11 18410296891115358932
15310529 11 16773808003896677348
16945 1 18410580582368910990
21040471 1 18266182716651726540
23235685 24 18408610253273905224
23402655 69 18121523468743731901
23552423 10 17984712121234928420
2748010 2 18050012378553604460
29004967 10 18272650173021898321
5084963 1 18262531290212581525

> <PUBCHEM_SHAPE_MULTIPOLES>
188.96
4.76
1.26
0.81
0.37
0
0.09
0
1.36
-0.25
-0.08
0.41
0
0

> <PUBCHEM_SHAPE_SELFOVERLAP>
369.293

> <PUBCHEM_SHAPE_VOLUME>
110.5

> <PUBCHEM_COORDINATE_TYPE>
2
5
10

$$$$

