14502754
  -OEChem-07051213152D

102101  0     0  0  0  0  0  0999 V2000
    2.5369   -0.7500    0.0000 O   0  0  0  0  0  0  0  0  0  0  0  0
   29.3837    0.7500    0.0000 O   0  0  0  0  0  0  0  0  0  0  0  0
   28.5177    0.2500    0.0000 C   0  0  0  0  0  0  0  0  0  0  0  0
    3.4030   -0.2500    0.0000 C   0  0  0  0  0  0  0  0  0  0  0  0
   27.6517   -0.2500    0.0000 C   0  0  0  0  0  0  0  0  0  0  0  0
    4.2690    0.2500    0.0000 C   0  0  0  0  0  0  0  0  0  0  0  0
   26.7856    0.2500    0.0000 C   0  0  0  0  0  0  0  0  0  0  0  0
    5.1350   -0.2500    0.0000 C   0  0  0  0  0  0  0  0  0  0  0  0
   25.9196   -0.2500    0.0000 C   0  0  0  0  0  0  0  0  0  0  0  0
    6.0010    0.2500    0.0000 C   0  0  0  0  0  0  0  0  0  0  0  0
    2.9030    0.6160    0.0000 C   0  0  0  0  0  0  0  0  0  0  0  0
    3.9030   -1.1160    0.0000 C   0  0  0  0  0  0  0  0  0  0  0  0
   29.0177   -0.6160    0.0000 C   0  0  0  0  0  0  0  0  0  0  0  0
   28.0177    1.1160    0.0000 C   0  0  0  0  0  0  0  0  0  0  0  0
    6.8671   -0.2500    0.0000 C   0  0  0  0  0  0  0  0  0  0  0  0
   25.0536    0.2500    0.0000 C   0  0  0  0  0  0  0  0  0  0  0  0
   25.0536    1.2500    0.0000 C   0  0  0  0  0  0  0  0  0  0  0  0
    6.8671   -1.2500    0.0000 C   0  0  0  0  0  0  0  0  0  0  0  0
   24.1876   -0.2500    0.0000 C   0  0  0  0  0  0  0  0  0  0  0  0
    7.7331    0.2500    0.0000 C   0  0  0  0  0  0  0  0  0  0  0  0
    8.5991   -0.2500    0.0000 C   0  0  0  0  0  0  0  0  0  0  0  0
   23.3215    0.2500    0.0000 C   0  0  0  0  0  0  0  0  0  0  0  0
   22.4555   -0.2500    0.0000 C   0  0  0  0  0  0  0  0  0  0  0  0
    9.4651    0.2500    0.0000 C   0  0  0  0  0  0  0  0  0  0  0  0
   10.3312   -0.2500    0.0000 C   0  0  0  0  0  0  0  0  0  0  0  0
   21.5895    0.2500    0.0000 C   0  0  0  0  0  0  0  0  0  0  0  0
   21.5895    1.2500    0.0000 C   0  0  0  0  0  0  0  0  0  0  0  0
   10.3312   -1.2500    0.0000 C   0  0  0  0  0  0  0  0  0  0  0  0
   20.7235   -0.2500    0.0000 C   0  0  0  0  0  0  0  0  0  0  0  0
   11.1972    0.2500    0.0000 C   0  0  0  0  0  0  0  0  0  0  0  0
   19.8574    0.2500    0.0000 C   0  0  0  0  0  0  0  0  0  0  0  0
   12.0632   -0.2500    0.0000 C   0  0  0  0  0  0  0  0  0  0  0  0
   18.9914   -0.2500    0.0000 C   0  0  0  0  0  0  0  0  0  0  0  0
   12.9292    0.2500    0.0000 C   0  0  0  0  0  0  0  0  0  0  0  0
   13.7953   -0.2500    0.0000 C   0  0  0  0  0  0  0  0  0  0  0  0
   18.1254    0.2500    0.0000 C   0  0  0  0  0  0  0  0  0  0  0  0
   17.2594   -0.2500    0.0000 C   0  0  0  0  0  0  0  0  0  0  0  0
   14.6613    0.2500    0.0000 C   0  0  0  0  0  0  0  0  0  0  0  0
   18.1254    1.2500    0.0000 C   0  0  0  0  0  0  0  0  0  0  0  0
   13.7953   -1.2500    0.0000 C   0  0  0  0  0  0  0  0  0  0  0  0
   15.5273   -0.2500    0.0000 C   0  0  0  0  0  0  0  0  0  0  0  0
   16.3933    0.2500    0.0000 C   0  0  0  0  0  0  0  0  0  0  0  0
    4.6675    0.7249    0.0000 H   0  0  0  0  0  0  0  0  0  0  0  0
    3.8705    0.7249    0.0000 H   0  0  0  0  0  0  0  0  0  0  0  0
   27.2531   -0.7249    0.0000 H   0  0  0  0  0  0  0  0  0  0  0  0
   28.0502   -0.7249    0.0000 H   0  0  0  0  0  0  0  0  0  0  0  0
    4.7365   -0.7249    0.0000 H   0  0  0  0  0  0  0  0  0  0  0  0
    5.5335   -0.7249    0.0000 H   0  0  0  0  0  0  0  0  0  0  0  0
   27.1842    0.7249    0.0000 H   0  0  0  0  0  0  0  0  0  0  0  0
   26.3871    0.7249    0.0000 H   0  0  0  0  0  0  0  0  0  0  0  0
    6.3996    0.7249    0.0000 H   0  0  0  0  0  0  0  0  0  0  0  0
    5.6025    0.7249    0.0000 H   0  0  0  0  0  0  0  0  0  0  0  0
   25.5211   -0.7249    0.0000 H   0  0  0  0  0  0  0  0  0  0  0  0
   26.3182   -0.7249    0.0000 H   0  0  0  0  0  0  0  0  0  0  0  0
    3.3660   -1.4260    0.0000 H   0  0  0  0  0  0  0  0  0  0  0  0
    4.2130   -1.6530    0.0000 H   0  0  0  0  0  0  0  0  0  0  0  0
    4.4399   -0.8060    0.0000 H   0  0  0  0  0  0  0  0  0  0  0  0
    3.4399    0.9260    0.0000 H   0  0  0  0  0  0  0  0  0  0  0  0
    2.5930    1.1530    0.0000 H   0  0  0  0  0  0  0  0  0  0  0  0
    2.3660    0.3060    0.0000 H   0  0  0  0  0  0  0  0  0  0  0  0
   28.4808   -0.9260    0.0000 H   0  0  0  0  0  0  0  0  0  0  0  0
   29.3277   -1.1530    0.0000 H   0  0  0  0  0  0  0  0  0  0  0  0
   29.5546   -0.3060    0.0000 H   0  0  0  0  0  0  0  0  0  0  0  0
   28.5546    1.4260    0.0000 H   0  0  0  0  0  0  0  0  0  0  0  0
   27.7077    1.6530    0.0000 H   0  0  0  0  0  0  0  0  0  0  0  0
   27.4808    0.8060    0.0000 H   0  0  0  0  0  0  0  0  0  0  0  0
    2.0000   -0.4400    0.0000 H   0  0  0  0  0  0  0  0  0  0  0  0
   29.9207    0.4400    0.0000 H   0  0  0  0  0  0  0  0  0  0  0  0
    6.2471   -1.2500    0.0000 H   0  0  0  0  0  0  0  0  0  0  0  0
    6.8671   -1.8700    0.0000 H   0  0  0  0  0  0  0  0  0  0  0  0
    7.4871   -1.2500    0.0000 H   0  0  0  0  0  0  0  0  0  0  0  0
   25.6736    1.2500    0.0000 H   0  0  0  0  0  0  0  0  0  0  0  0
   25.0536    1.8700    0.0000 H   0  0  0  0  0  0  0  0  0  0  0  0
   24.4336    1.2500    0.0000 H   0  0  0  0  0  0  0  0  0  0  0  0
   24.1876   -0.8700    0.0000 H   0  0  0  0  0  0  0  0  0  0  0  0
    7.7331    0.8700    0.0000 H   0  0  0  0  0  0  0  0  0  0  0  0
    8.5991   -0.8700    0.0000 H   0  0  0  0  0  0  0  0  0  0  0  0
   23.3215    0.8700    0.0000 H   0  0  0  0  0  0  0  0  0  0  0  0
   22.4555   -0.8700    0.0000 H   0  0  0  0  0  0  0  0  0  0  0  0
    9.4651    0.8700    0.0000 H   0  0  0  0  0  0  0  0  0  0  0  0
    9.7112   -1.2500    0.0000 H   0  0  0  0  0  0  0  0  0  0  0  0
   22.2095    1.2500    0.0000 H   0  0  0  0  0  0  0  0  0  0  0  0
   21.5895    1.8700    0.0000 H   0  0  0  0  0  0  0  0  0  0  0  0
   20.9695    1.2500    0.0000 H   0  0  0  0  0  0  0  0  0  0  0  0
   10.3312   -1.8700    0.0000 H   0  0  0  0  0  0  0  0  0  0  0  0
   10.9512   -1.2500    0.0000 H   0  0  0  0  0  0  0  0  0  0  0  0
   11.1972    0.8700    0.0000 H   0  0  0  0  0  0  0  0  0  0  0  0
   20.7235   -0.8700    0.0000 H   0  0  0  0  0  0  0  0  0  0  0  0
   19.8574    0.8700    0.0000 H   0  0  0  0  0  0  0  0  0  0  0  0
   12.0632   -0.8700    0.0000 H   0  0  0  0  0  0  0  0  0  0  0  0
   18.9914   -0.8700    0.0000 H   0  0  0  0  0  0  0  0  0  0  0  0
   12.9292    0.8700    0.0000 H   0  0  0  0  0  0  0  0  0  0  0  0
   17.2594   -0.8700    0.0000 H   0  0  0  0  0  0  0  0  0  0  0  0
   14.6613    0.8700    0.0000 H   0  0  0  0  0  0  0  0  0  0  0  0
   13.1753   -1.2500    0.0000 H   0  0  0  0  0  0  0  0  0  0  0  0
   13.7953   -1.8700    0.0000 H   0  0  0  0  0  0  0  0  0  0  0  0
   14.4153   -1.2500    0.0000 H   0  0  0  0  0  0  0  0  0  0  0  0
   18.7454    1.2500    0.0000 H   0  0  0  0  0  0  0  0  0  0  0  0
   18.1254    1.8700    0.0000 H   0  0  0  0  0  0  0  0  0  0  0  0
   17.5054    1.2500    0.0000 H   0  0  0  0  0  0  0  0  0  0  0  0
   16.3933    0.8700    0.0000 H   0  0  0  0  0  0  0  0  0  0  0  0
   15.5273   -0.8700    0.0000 H   0  0  0  0  0  0  0  0  0  0  0  0
  1  4  1  0  0  0  0
  1 67  1  0  0  0  0
  2  3  1  0  0  0  0
  2 68  1  0  0  0  0
  3  5  1  0  0  0  0
  3 13  1  0  0  0  0
  3 14  1  0  0  0  0
  4  6  1  0  0  0  0
  4 11  1  0  0  0  0
  4 12  1  0  0  0  0
  5  7  1  0  0  0  0
  5 45  1  0  0  0  0
  5 46  1  0  0  0  0
  6  8  1  0  0  0  0
  6 43  1  0  0  0  0
  6 44  1  0  0  0  0
  7  9  1  0  0  0  0
  7 49  1  0  0  0  0
  7 50  1  0  0  0  0
  8 10  1  0  0  0  0
  8 47  1  0  0  0  0
  8 48  1  0  0  0  0
  9 16  1  0  0  0  0
  9 53  1  0  0  0  0
  9 54  1  0  0  0  0
 10 15  1  0  0  0  0
 10 51  1  0  0  0  0
 10 52  1  0  0  0  0
 11 58  1  0  0  0  0
 11 59  1  0  0  0  0
 11 60  1  0  0  0  0
 12 55  1  0  0  0  0
 12 56  1  0  0  0  0
 12 57  1  0  0  0  0
 13 61  1  0  0  0  0
 13 62  1  0  0  0  0
 13 63  1  0  0  0  0
 14 64  1  0  0  0  0
 14 65  1  0  0  0  0
 14 66  1  0  0  0  0
 15 18  1  0  0  0  0
 15 20  2  0  0  0  0
 16 17  1  0  0  0  0
 16 19  2  0  0  0  0
 17 72  1  0  0  0  0
 17 73  1  0  0  0  0
 17 74  1  0  0  0  0
 18 69  1  0  0  0  0
 18 70  1  0  0  0  0
 18 71  1  0  0  0  0
 19 22  1  0  0  0  0
 19 75  1  0  0  0  0
 20 21  1  0  0  0  0
 20 76  1  0  0  0  0
 21 24  2  0  0  0  0
 21 77  1  0  0  0  0
 22 23  2  0  0  0  0
 22 78  1  0  0  0  0
 23 26  1  0  0  0  0
 23 79  1  0  0  0  0
 24 25  1  0  0  0  0
 24 80  1  0  0  0  0
 25 28  1  0  0  0  0
 25 30  2  0  0  0  0
 26 27  1  0  0  0  0
 26 29  2  0  0  0  0
 27 82  1  0  0  0  0
 27 83  1  0  0  0  0
 27 84  1  0  0  0  0
 28 81  1  0  0  0  0
 28 85  1  0  0  0  0
 28 86  1  0  0  0  0
 29 31  1  0  0  0  0
 29 88  1  0  0  0  0
 30 32  1  0  0  0  0
 30 87  1  0  0  0  0
 31 33  2  0  0  0  0
 31 89  1  0  0  0  0
 32 34  2  0  0  0  0
 32 90  1  0  0  0  0
 33 36  1  0  0  0  0
 33 91  1  0  0  0  0
 34 35  1  0  0  0  0
 34 92  1  0  0  0  0
 35 38  2  0  0  0  0
 35 40  1  0  0  0  0
 36 37  2  0  0  0  0
 36 39  1  0  0  0  0
 37 42  1  0  0  0  0
 37 93  1  0  0  0  0
 38 41  1  0  0  0  0
 38 94  1  0  0  0  0
 39 98  1  0  0  0  0
 39 99  1  0  0  0  0
 39100  1  0  0  0  0
 40 95  1  0  0  0  0
 40 96  1  0  0  0  0
 40 97  1  0  0  0  0
 41 42  2  0  0  0  0
 41102  1  0  0  0  0
 42101  1  0  0  0  0
M  END
> <PUBCHEM_COMPOUND_CID>
14502754

> <PUBCHEM_COMPOUND_CANONICALIZED>
1

> <PUBCHEM_CACTVS_COMPLEXITY>
1040

> <PUBCHEM_CACTVS_HBOND_ACCEPTOR>
2

> <PUBCHEM_CACTVS_HBOND_DONOR>
2

> <PUBCHEM_CACTVS_ROTATABLE_BOND>
18

> <PUBCHEM_CACTVS_SUBSKEYS>
AAADcfB8MAAAAAAAAAAAAAAAAAAAAAAAAAAAAAAAAAAAAAAAAAAAGgAACAAADESAgAACAAAAAgCAAiBCAAAAAAAgAAAICAAAAAgIAAIAAQAAQAAEgAAIgAOAwEAMAAAAAAAAAAAAAAAAAAAAAAAAAAAAAA==

> <PUBCHEM_IUPAC_OPENEYE_NAME>
(6E,8E,10E,12E,14E,16E,18E,20E,22E,24E,26E)-2,6,10,14,19,23,27,31-octamethyldotriaconta-6,8,10,12,14,16,18,20,22,24,26-undecaene-2,31-diol

> <PUBCHEM_IUPAC_CAS_NAME>
(6E,8E,10E,12E,14E,16E,18E,20E,22E,24E,26E)-2,6,10,14,19,23,27,31-octamethyldotriaconta-6,8,10,12,14,16,18,20,22,24,26-undecaene-2,31-diol

> <PUBCHEM_IUPAC_NAME>
(6E,8E,10E,12E,14E,16E,18E,20E,22E,24E,26E)-2,6,10,14,19,23,27,31-octamethyldotriaconta-6,8,10,12,14,16,18,20,22,24,26-undecaene-2,31-diol

> <PUBCHEM_IUPAC_SYSTEMATIC_NAME>
(6E,8E,10E,12E,14E,16E,18E,20E,22E,24E,26E)-2,6,10,14,19,23,27,31-octamethyldotriaconta-6,8,10,12,14,16,18,20,22,24,26-undecaene-2,31-diol

> <PUBCHEM_IUPAC_TRADITIONAL_NAME>
(6E,8E,10E,12E,14E,16E,18E,20E,22E,24E,26E)-2,6,10,14,19,23,27,31-octamethyldotriaconta-6,8,10,12,14,16,18,20,22,24,26-undecaene-2,31-diol

> <PUBCHEM_IUPAC_INCHI>
InChI=1S/C40H60O2/c1-33(21-13-23-35(3)25-15-27-37(5)29-17-31-39(7,8)41)19-11-12-20-34(2)22-14-24-36(4)26-16-28-38(6)30-18-32-40(9,10)42/h11-16,19-28,41-42H,17-18,29-32H2,1-10H3/b12-11+,21-13+,22-14+,25-15+,26-16+,33-19+,34-20+,35-23+,36-24+,37-27+,38-28+

> <PUBCHEM_IUPAC_INCHIKEY>
FOHPEEJTFCJHNI-FIKDCGPASA-N

> <PUBCHEM_XLOGP3_AA>
12.9

> <PUBCHEM_EXACT_MASS>
572.459331

> <PUBCHEM_MOLECULAR_FORMULA>
C40H60O2

> <PUBCHEM_MOLECULAR_WEIGHT>
572.9032

> <PUBCHEM_OPENEYE_CAN_SMILES>
CC(=CC=CC(=CC=CC(=CC=CC=C(C)C=CC=C(C)C=CC=C(C)CCCC(C)(C)O)C)C)CCCC(C)(C)O

> <PUBCHEM_OPENEYE_ISO_SMILES>
C/C(=C\C=C\C(=C\C=C\C(=C\C=C\C=C(\C=C\C=C(\C=C\C=C(\CCCC(O)(C)C)/C)/C)/C)\C)\C)/CCCC(O)(C)C

> <PUBCHEM_CACTVS_TPSA>
40.5

> <PUBCHEM_MONOISOTOPIC_WEIGHT>
572.459331

> <PUBCHEM_TOTAL_CHARGE>
0

> <PUBCHEM_HEAVY_ATOM_COUNT>
42

> <PUBCHEM_ATOM_DEF_STEREO_COUNT>
0

> <PUBCHEM_ATOM_UDEF_STEREO_COUNT>
0

> <PUBCHEM_BOND_DEF_STEREO_COUNT>
11

> <PUBCHEM_BOND_UDEF_STEREO_COUNT>
0

> <PUBCHEM_ISOTOPIC_ATOM_COUNT>
0

> <PUBCHEM_COMPONENT_COUNT>
1

> <PUBCHEM_CACTVS_TAUTO_COUNT>
1

> <PUBCHEM_COORDINATE_TYPE>
1
5
255

$$$$

