243967
  -OEChem-07051213063D

 55 58  0     1  0  0  0  0  0999 V2000
    0.6655    2.7858    0.2730 O   0  0  0  0  0  0  0  0  0  0  0  0
   -1.8731   -3.1406    0.9731 O   0  0  0  0  0  0  0  0  0  0  0  0
   -5.3890    0.4122   -0.5444 O   0  0  0  0  0  0  0  0  0  0  0  0
    5.5967    0.1805    1.6913 O   0  0  0  0  0  0  0  0  0  0  0  0
   -1.2829   -0.8882    0.2744 C   0  0  2  0  0  0  0  0  0  0  0  0
   -2.1445    0.3285   -0.1231 C   0  0  2  0  0  0  0  0  0  0  0  0
    0.0559   -0.9235   -0.4774 C   0  0  1  0  0  0  0  0  0  0  0  0
    0.8758    0.3836   -0.1392 C   0  0  1  0  0  0  0  0  0  0  0  0
    2.2759    0.3700   -0.8786 C   0  0  2  0  0  0  0  0  0  0  0  0
   -1.3847    1.5885    0.2935 C   0  0  0  0  0  0  0  0  0  0  0  0
   -3.4038    0.0328    0.7215 C   0  0  2  0  0  0  0  0  0  0  0  0
    0.0189    1.6707   -0.3407 C   0  0  1  0  0  0  0  0  0  0  0  0
   -2.2524   -2.0637    0.1320 C   0  0  2  0  0  0  0  0  0  0  0  0
   -3.6113   -1.4876    0.5758 C   0  0  0  0  0  0  0  0  0  0  0  0
    0.8603   -2.2000   -0.1623 C   0  0  0  0  0  0  0  0  0  0  0  0
   -2.4886    0.3994   -1.6332 C   0  0  0  0  0  0  0  0  0  0  0  0
    2.9601   -0.9298   -0.4296 C   0  0  0  0  0  0  0  0  0  0  0  0
    2.2466   -2.2012   -0.8067 C   0  0  0  0  0  0  0  0  0  0  0  0
    3.2133    1.5682   -0.5585 C   0  0  0  0  0  0  0  0  0  0  0  0
    2.1061    0.4019   -2.4203 C   0  0  0  0  0  0  0  0  0  0  0  0
   -4.6163    0.8161    0.3233 C   0  0  0  0  0  0  0  0  0  0  0  0
    3.8006    1.5209    0.8396 C   0  0  0  0  0  0  0  0  0  0  0  0
    4.0340   -0.9863    0.3766 C   0  0  0  0  0  0  0  0  0  0  0  0
    4.5816    0.2417    1.0013 C   0  0  0  0  0  0  0  0  0  0  0  0
   -4.8445    2.1202    1.0385 C   0  0  0  0  0  0  0  0  0  0  0  0
   -1.0276   -0.8164    1.3453 H   0  0  0  0  0  0  0  0  0  0  0  0
   -0.1571   -0.9497   -1.5502 H   0  0  0  0  0  0  0  0  0  0  0  0
    1.0972    0.3440    0.9395 H   0  0  0  0  0  0  0  0  0  0  0  0
   -1.2833    1.6301    1.3869 H   0  0  0  0  0  0  0  0  0  0  0  0
   -1.9469    2.4908    0.0246 H   0  0  0  0  0  0  0  0  0  0  0  0
   -3.2053    0.2345    1.7833 H   0  0  0  0  0  0  0  0  0  0  0  0
   -0.0714    1.8939   -1.4081 H   0  0  0  0  0  0  0  0  0  0  0  0
   -2.3127   -2.4252   -0.9010 H   0  0  0  0  0  0  0  0  0  0  0  0
   -3.9461   -1.9182    1.5270 H   0  0  0  0  0  0  0  0  0  0  0  0
   -4.3720   -1.7488   -0.1680 H   0  0  0  0  0  0  0  0  0  0  0  0
    0.3262   -3.0802   -0.5338 H   0  0  0  0  0  0  0  0  0  0  0  0
    0.9619   -2.3156    0.9246 H   0  0  0  0  0  0  0  0  0  0  0  0
   -3.0630   -0.4679   -1.9734 H   0  0  0  0  0  0  0  0  0  0  0  0
   -3.0837    1.2931   -1.8543 H   0  0  0  0  0  0  0  0  0  0  0  0
   -1.6004    0.4600   -2.2674 H   0  0  0  0  0  0  0  0  0  0  0  0
    2.1701   -2.2925   -1.8953 H   0  0  0  0  0  0  0  0  0  0  0  0
    2.7947   -3.0886   -0.4671 H   0  0  0  0  0  0  0  0  0  0  0  0
    2.7243    2.5290   -0.7372 H   0  0  0  0  0  0  0  0  0  0  0  0
    4.0586    1.5554   -1.2643 H   0  0  0  0  0  0  0  0  0  0  0  0
    1.4275   -0.3631   -2.8043 H   0  0  0  0  0  0  0  0  0  0  0  0
    1.7203    1.3713   -2.7546 H   0  0  0  0  0  0  0  0  0  0  0  0
    3.0684    0.2450   -2.9235 H   0  0  0  0  0  0  0  0  0  0  0  0
    3.0312    1.5740    1.6155 H   0  0  0  0  0  0  0  0  0  0  0  0
    4.4858    2.3651    0.9734 H   0  0  0  0  0  0  0  0  0  0  0  0
    0.1395    3.5787    0.0725 H   0  0  0  0  0  0  0  0  0  0  0  0
   -1.3697   -3.7763    0.4389 H   0  0  0  0  0  0  0  0  0  0  0  0
    4.4710   -1.9288    0.6885 H   0  0  0  0  0  0  0  0  0  0  0  0
   -4.8508    1.9552    2.1188 H   0  0  0  0  0  0  0  0  0  0  0  0
   -4.0701    2.8399    0.7703 H   0  0  0  0  0  0  0  0  0  0  0  0
   -5.8168    2.5283    0.7476 H   0  0  0  0  0  0  0  0  0  0  0  0
  1 12  1  0  0  0  0
  1 50  1  0  0  0  0
  2 13  1  0  0  0  0
  2 51  1  0  0  0  0
  3 21  2  0  0  0  0
  4 24  2  0  0  0  0
  5  6  1  0  0  0  0
  5  7  1  0  0  0  0
  5 13  1  0  0  0  0
  5 26  1  0  0  0  0
  6 10  1  0  0  0  0
  6 11  1  0  0  0  0
  6 16  1  0  0  0  0
  7  8  1  0  0  0  0
  7 15  1  0  0  0  0
  7 27  1  0  0  0  0
  8  9  1  0  0  0  0
  8 12  1  0  0  0  0
  8 28  1  0  0  0  0
  9 17  1  0  0  0  0
  9 19  1  0  0  0  0
  9 20  1  0  0  0  0
 10 12  1  0  0  0  0
 10 29  1  0  0  0  0
 10 30  1  0  0  0  0
 11 14  1  0  0  0  0
 11 21  1  0  0  0  0
 11 31  1  0  0  0  0
 12 32  1  0  0  0  0
 13 14  1  0  0  0  0
 13 33  1  0  0  0  0
 14 34  1  0  0  0  0
 14 35  1  0  0  0  0
 15 18  1  0  0  0  0
 15 36  1  0  0  0  0
 15 37  1  0  0  0  0
 16 38  1  0  0  0  0
 16 39  1  0  0  0  0
 16 40  1  0  0  0  0
 17 18  1  0  0  0  0
 17 23  2  0  0  0  0
 18 41  1  0  0  0  0
 18 42  1  0  0  0  0
 19 22  1  0  0  0  0
 19 43  1  0  0  0  0
 19 44  1  0  0  0  0
 20 45  1  0  0  0  0
 20 46  1  0  0  0  0
 20 47  1  0  0  0  0
 21 25  1  0  0  0  0
 22 24  1  0  0  0  0
 22 48  1  0  0  0  0
 22 49  1  0  0  0  0
 23 24  1  0  0  0  0
 23 52  1  0  0  0  0
 25 53  1  0  0  0  0
 25 54  1  0  0  0  0
 25 55  1  0  0  0  0
M  END
> <PUBCHEM_COMPOUND_CID>
243967

> <PUBCHEM_CONFORMER_RMSD>
0.6

> <PUBCHEM_CONFORMER_DIVERSEORDER>
1
4
2
3

> <PUBCHEM_MMFF94_PARTIAL_CHARGES>
18
1 -0.68
11 0.06
12 0.28
13 0.28
17 -0.28
18 0.14
2 -0.68
21 0.45
22 0.06
23 -0.14
24 0.49
25 0.06
3 -0.57
4 -0.57
50 0.4
51 0.4
52 0.15
9 0.14

> <PUBCHEM_EFFECTIVE_ROTOR_COUNT>
2.8

> <PUBCHEM_PHARMACOPHORE_FEATURES>
10
1 1 acceptor
1 1 donor
1 2 acceptor
1 2 donor
1 3 acceptor
1 4 acceptor
5 5 6 11 13 14 rings
6 5 6 7 8 10 12 rings
6 7 8 9 15 17 18 rings
6 9 17 19 22 23 24 rings

> <PUBCHEM_HEAVY_ATOM_COUNT>
25

> <PUBCHEM_ATOM_DEF_STEREO_COUNT>
8

> <PUBCHEM_ATOM_UDEF_STEREO_COUNT>
0

> <PUBCHEM_BOND_DEF_STEREO_COUNT>
0

> <PUBCHEM_BOND_UDEF_STEREO_COUNT>
0

> <PUBCHEM_ISOTOPIC_ATOM_COUNT>
0

> <PUBCHEM_COMPONENT_COUNT>
1

> <PUBCHEM_CACTVS_TAUTO_COUNT>
15

> <PUBCHEM_CONFORMER_ID>
0003B8FF00000001

> <PUBCHEM_MMFF94_ENERGY>
88.6168

> <PUBCHEM_FEATURE_SELFOVERLAP>
50.858

> <PUBCHEM_SHAPE_FINGERPRINT>
10062212 137 18271810068808065963
10759866 29 17772462405431352660
10906281 52 18337095830833728796
10967382 1 18338790212601125703
11045977 3 18261114058727243808
11132069 177 18412821387066545719
11370993 70 18409166627638009099
11961588 58 5833692605215166858
12035758 1 18342170068996428505
12403260 363 18193846941903618111
12403814 3 17704071781329451573
12422481 6 18200879590025995024
12553582 1 18265874952343915685
12633257 1 18202286887826762762
12788726 201 17896022373233003681
13140716 1 18339082562450977560
13224815 77 18341041939431950526
13583140 156 17168431467374837931
14115302 16 18201145607531296301
14178342 30 18410852123039033563
14223421 5 18263362641610508606
14341114 176 18412546535609803418
14341114 328 18201443545639904992
14790565 3 17979063887212574180
15196674 1 18411133610842578263
15238133 3 18339912809546521868
15375358 24 18333165063947742223
15788980 27 17203612579446205757
16945 1 18338782460316966821
17349148 13 18412553114687252484
17980427 23 18271812255304882540
1813 80 16988846107602091318
20511986 3 17969237775058865253
20600515 1 18410006632973297668
20715895 44 18057893626715882005
21033648 29 18057910063081125812
21421861 104 18059298793906805810
21452121 103 18187929529521398282
21756936 100 17825677638966833624
21859007 373 17487635223615107285
22149856 69 18191842653562526387
22182313 1 17914902169160577359
23366157 5 17699282166365397852
23402539 116 18334586727987087870
23557571 272 18261939765889602678
23559900 14 18337093623742362988
2748010 2 18336814330256104286
296302 2 16877944936006303372
335352 9 18339355374383583527
34797466 226 15574716859209823857
34934 24 18335423482322062783
350125 39 18194953278397899316
3680242 22 18270961370263960882
394222 165 17342918375335520396
4072396 5 18411989078165153384
4340502 62 18410568518370304931
474 4 18187086135309629360
495365 180 17749390411677964710
5104073 3 18272646801388357553
6004065 56 18188225199708218917
653340 110 18048315836202192025
7064713 232 18412260636004290274
9709674 26 18335975428416648399

> <PUBCHEM_SHAPE_MULTIPOLES>
491.01
9.9
2.63
1.35
1.46
0.69
-0.47
-2.57
3.4
0.72
0.47
-0.86
-0.16
0.26

> <PUBCHEM_SHAPE_SELFOVERLAP>
1053.424

> <PUBCHEM_SHAPE_VOLUME>
270.5

> <PUBCHEM_COORDINATE_TYPE>
2
5
10

$$$$

