72259
  -OEChem-07051212583D

 23 23  0     1  0  0  0  0  0999 V2000
   -0.6450    1.8629    0.3326 O   0  0  0  0  0  0  0  0  0  0  0  0
    2.1493    1.7010   -0.3388 O   0  0  0  0  0  0  0  0  0  0  0  0
   -2.9303    0.5678    0.0954 O   0  0  0  0  0  0  0  0  0  0  0  0
   -0.1372   -1.7863   -0.2024 N   0  0  0  0  0  0  0  0  0  0  0  0
   -0.8270   -0.5596    0.2178 C   0  0  1  0  0  0  0  0  0  0  0  0
   -0.0476    0.6922   -0.2260 C   0  0  2  0  0  0  0  0  0  0  0  0
    1.4040    0.6438    0.2605 C   0  0  1  0  0  0  0  0  0  0  0  0
    2.0593   -0.6799   -0.1165 C   0  0  0  0  0  0  0  0  0  0  0  0
    1.2171   -1.8630    0.3432 C   0  0  0  0  0  0  0  0  0  0  0  0
   -2.2425   -0.5789   -0.3658 C   0  0  0  0  0  0  0  0  0  0  0  0
   -0.9223   -0.5448    1.3125 H   0  0  0  0  0  0  0  0  0  0  0  0
   -0.0709    0.8056   -1.3176 H   0  0  0  0  0  0  0  0  0  0  0  0
    1.4475    0.7967    1.3452 H   0  0  0  0  0  0  0  0  0  0  0  0
    3.0614   -0.7354    0.3256 H   0  0  0  0  0  0  0  0  0  0  0  0
    2.2128   -0.7284   -1.2030 H   0  0  0  0  0  0  0  0  0  0  0  0
    1.6827   -2.7964    0.0084 H   0  0  0  0  0  0  0  0  0  0  0  0
    1.1785   -1.9057    1.4383 H   0  0  0  0  0  0  0  0  0  0  0  0
   -0.0885   -1.8119   -1.2214 H   0  0  0  0  0  0  0  0  0  0  0  0
   -2.7980   -1.4688   -0.0502 H   0  0  0  0  0  0  0  0  0  0  0  0
   -2.2291   -0.5538   -1.4607 H   0  0  0  0  0  0  0  0  0  0  0  0
   -1.5100    1.9845   -0.0933 H   0  0  0  0  0  0  0  0  0  0  0  0
    2.1086    1.5899   -1.3040 H   0  0  0  0  0  0  0  0  0  0  0  0
   -2.9911    0.5072    1.0640 H   0  0  0  0  0  0  0  0  0  0  0  0
  1  6  1  0  0  0  0
  1 21  1  0  0  0  0
  2  7  1  0  0  0  0
  2 22  1  0  0  0  0
  3 10  1  0  0  0  0
  3 23  1  0  0  0  0
  4  5  1  0  0  0  0
  4  9  1  0  0  0  0
  4 18  1  0  0  0  0
  5  6  1  0  0  0  0
  5 10  1  0  0  0  0
  5 11  1  0  0  0  0
  6  7  1  0  0  0  0
  6 12  1  0  0  0  0
  7  8  1  0  0  0  0
  7 13  1  0  0  0  0
  8  9  1  0  0  0  0
  8 14  1  0  0  0  0
  8 15  1  0  0  0  0
  9 16  1  0  0  0  0
  9 17  1  0  0  0  0
 10 19  1  0  0  0  0
 10 20  1  0  0  0  0
M  END
> <PUBCHEM_COMPOUND_CID>
72259

> <PUBCHEM_CONFORMER_RMSD>
0.4

> <PUBCHEM_CONFORMER_DIVERSEORDER>
1
6
2
5
4
3

> <PUBCHEM_MMFF94_PARTIAL_CHARGES>
13
1 -0.68
10 0.28
18 0.36
2 -0.68
21 0.4
22 0.4
23 0.4
3 -0.68
4 -0.9
5 0.27
6 0.28
7 0.28
9 0.27

> <PUBCHEM_EFFECTIVE_ROTOR_COUNT>
2.2

> <PUBCHEM_PHARMACOPHORE_FEATURES>
9
1 1 acceptor
1 1 donor
1 2 acceptor
1 2 donor
1 3 acceptor
1 3 donor
1 4 cation
1 4 donor
6 4 5 6 7 8 9 rings

> <PUBCHEM_HEAVY_ATOM_COUNT>
10

> <PUBCHEM_ATOM_DEF_STEREO_COUNT>
3

> <PUBCHEM_ATOM_UDEF_STEREO_COUNT>
0

> <PUBCHEM_BOND_DEF_STEREO_COUNT>
0

> <PUBCHEM_BOND_UDEF_STEREO_COUNT>
0

> <PUBCHEM_ISOTOPIC_ATOM_COUNT>
0

> <PUBCHEM_COMPONENT_COUNT>
1

> <PUBCHEM_CACTVS_TAUTO_COUNT>
1

> <PUBCHEM_CONFORMER_ID>
00011A4300000001

> <PUBCHEM_MMFF94_ENERGY>
11.1823

> <PUBCHEM_FEATURE_SELFOVERLAP>
45.693

> <PUBCHEM_SHAPE_FINGERPRINT>
16945 1 18339926029455611867
18185500 45 18335990800072620743
21040471 1 18194405489610233570
23235685 24 18340492157901077588
23552423 10 18413108385339433647
241688 4 17691407833622706482
2748010 2 18267017258952014958
29004967 10 18272086114945900227
5084963 1 18041278867368159882
66348 1 18339078293105506290

> <PUBCHEM_SHAPE_MULTIPOLES>
183.21
3.18
1.99
0.65
1.45
0.03
0
0.34
0.15
-0.7
-0.06
-0.02
-0.02
-0.23

> <PUBCHEM_SHAPE_SELFOVERLAP>
357.772

> <PUBCHEM_SHAPE_VOLUME>
109.4

> <PUBCHEM_COORDINATE_TYPE>
2
5
10

$$$$

