308140
  -OEChem-07051212593D

 42 45  0     0  0  0  0  0  0999 V2000
   -1.2041    1.6178   -1.1527 O   0  0  0  0  0  0  0  0  0  0  0  0
    0.9116    0.8327    1.8166 O   0  0  0  0  0  0  0  0  0  0  0  0
    5.3289   -0.8085   -1.9020 O   0  0  0  0  0  0  0  0  0  0  0  0
    2.9249   -1.4231   -2.5914 O   0  0  0  0  0  0  0  0  0  0  0  0
   -3.5934    2.5510   -1.4238 O   0  0  0  0  0  0  0  0  0  0  0  0
   -5.6859   -1.5883    1.2291 O   0  0  0  0  0  0  0  0  0  0  0  0
   -0.9551   -0.4348    0.0158 C   0  0  0  0  0  0  0  0  0  0  0  0
    0.5032   -0.3658   -0.1914 C   0  0  0  0  0  0  0  0  0  0  0  0
   -1.5080   -1.5118    0.7068 C   0  0  0  0  0  0  0  0  0  0  0  0
    2.8351    0.3060    0.5728 C   0  0  0  0  0  0  0  0  0  0  0  0
   -1.7785    0.5766   -0.4799 C   0  0  0  0  0  0  0  0  0  0  0  0
   -3.1622    0.5090   -0.2825 C   0  0  0  0  0  0  0  0  0  0  0  0
   -3.7164   -0.5706    0.4103 C   0  0  0  0  0  0  0  0  0  0  0  0
    3.3681   -0.2756   -0.5781 C   0  0  0  0  0  0  0  0  0  0  0  0
    1.3786    0.2982    0.8167 C   0  0  0  0  0  0  0  0  0  0  0  0
   -2.8872   -1.5829    0.9058 C   0  0  0  0  0  0  0  0  0  0  0  0
    1.0330   -0.9219   -1.2894 C   0  0  0  0  0  0  0  0  0  0  0  0
    2.4839   -0.9125   -1.5689 C   0  0  0  0  0  0  0  0  0  0  0  0
    3.6875    0.9074    1.5070 C   0  0  0  0  0  0  0  0  0  0  0  0
    4.7504   -0.2576   -0.7975 C   0  0  0  0  0  0  0  0  0  0  0  0
    5.0652    0.9238    1.2860 C   0  0  0  0  0  0  0  0  0  0  0  0
   -0.6555   -2.6140    1.2509 C   0  0  0  0  0  0  0  0  0  0  0  0
   -4.0263    1.5833   -0.8102 C   0  0  0  0  0  0  0  0  0  0  0  0
   -5.1746   -0.6533    0.6253 C   0  0  0  0  0  0  0  0  0  0  0  0
    5.5956    0.3425    0.1360 C   0  0  0  0  0  0  0  0  0  0  0  0
   -5.4807    1.4688   -0.5775 C   0  0  0  0  0  0  0  0  0  0  0  0
   -6.0097    0.4384    0.0839 C   0  0  0  0  0  0  0  0  0  0  0  0
    5.9715    1.5649    2.2823 C   0  0  0  0  0  0  0  0  0  0  0  0
   -3.3131   -2.4255    1.4450 H   0  0  0  0  0  0  0  0  0  0  0  0
    0.4100   -1.4127   -2.0322 H   0  0  0  0  0  0  0  0  0  0  0  0
    3.2871    1.3632    2.4095 H   0  0  0  0  0  0  0  0  0  0  0  0
    0.0879   -2.2212    1.9522 H   0  0  0  0  0  0  0  0  0  0  0  0
   -1.2490   -3.3537    1.7998 H   0  0  0  0  0  0  0  0  0  0  0  0
   -0.1486   -3.1475    0.4403 H   0  0  0  0  0  0  0  0  0  0  0  0
    6.6707    0.3577   -0.0283 H   0  0  0  0  0  0  0  0  0  0  0  0
   -6.1138    2.2592   -0.9662 H   0  0  0  0  0  0  0  0  0  0  0  0
   -7.0806    0.3744    0.2434 H   0  0  0  0  0  0  0  0  0  0  0  0
    5.4757    2.4015    2.7863 H   0  0  0  0  0  0  0  0  0  0  0  0
    6.2785    0.8331    3.0361 H   0  0  0  0  0  0  0  0  0  0  0  0
    6.8681    1.9688    1.8000 H   0  0  0  0  0  0  0  0  0  0  0  0
   -0.2360    1.5799   -1.1323 H   0  0  0  0  0  0  0  0  0  0  0  0
    6.2929   -0.6880   -1.8599 H   0  0  0  0  0  0  0  0  0  0  0  0
  1 11  1  0  0  0  0
  1 41  1  0  0  0  0
  2 15  2  0  0  0  0
  3 20  1  0  0  0  0
  3 42  1  0  0  0  0
  4 18  2  0  0  0  0
  5 23  2  0  0  0  0
  6 24  2  0  0  0  0
  7  8  1  0  0  0  0
  7  9  1  0  0  0  0
  7 11  2  0  0  0  0
  8 15  1  0  0  0  0
  8 17  2  0  0  0  0
  9 16  2  0  0  0  0
  9 22  1  0  0  0  0
 10 14  2  0  0  0  0
 10 15  1  0  0  0  0
 10 19  1  0  0  0  0
 11 12  1  0  0  0  0
 12 13  2  0  0  0  0
 12 23  1  0  0  0  0
 13 16  1  0  0  0  0
 13 24  1  0  0  0  0
 14 18  1  0  0  0  0
 14 20  1  0  0  0  0
 16 29  1  0  0  0  0
 17 18  1  0  0  0  0
 17 30  1  0  0  0  0
 19 21  2  0  0  0  0
 19 31  1  0  0  0  0
 20 25  2  0  0  0  0
 21 25  1  0  0  0  0
 21 28  1  0  0  0  0
 22 32  1  0  0  0  0
 22 33  1  0  0  0  0
 22 34  1  0  0  0  0
 23 26  1  0  0  0  0
 24 27  1  0  0  0  0
 25 35  1  0  0  0  0
 26 27  2  0  0  0  0
 26 36  1  0  0  0  0
 27 37  1  0  0  0  0
 28 38  1  0  0  0  0
 28 39  1  0  0  0  0
 28 40  1  0  0  0  0
M  END
> <PUBCHEM_COMPOUND_CID>
308140

> <PUBCHEM_CONFORMER_RMSD>
0.6

> <PUBCHEM_CONFORMER_DIVERSEORDER>
1
2

> <PUBCHEM_MMFF94_PARTIAL_CHARGES>
36
1 -0.53
10 0.09
11 0.08
12 0.09
13 0.09
14 0.09
15 0.47
16 -0.15
17 -0.14
18 0.47
19 -0.15
2 -0.57
20 0.08
21 -0.14
22 0.14
23 0.47
24 0.47
25 -0.15
26 -0.14
27 -0.14
28 0.14
29 0.15
3 -0.53
30 0.15
31 0.15
35 0.15
36 0.15
37 0.15
4 -0.57
41 0.45
42 0.45
5 -0.57
6 -0.57
7 0.03
8 -0.01
9 -0.14

> <PUBCHEM_EFFECTIVE_ROTOR_COUNT>
1

> <PUBCHEM_PHARMACOPHORE_FEATURES>
10
1 1 donor
1 2 acceptor
1 3 donor
1 4 acceptor
1 5 acceptor
1 6 acceptor
6 10 14 19 20 21 25 rings
6 12 13 23 24 26 27 rings
6 7 9 11 12 13 16 rings
6 8 10 14 15 17 18 rings

> <PUBCHEM_HEAVY_ATOM_COUNT>
28

> <PUBCHEM_ATOM_DEF_STEREO_COUNT>
0

> <PUBCHEM_ATOM_UDEF_STEREO_COUNT>
0

> <PUBCHEM_BOND_DEF_STEREO_COUNT>
0

> <PUBCHEM_BOND_UDEF_STEREO_COUNT>
0

> <PUBCHEM_ISOTOPIC_ATOM_COUNT>
0

> <PUBCHEM_COMPONENT_COUNT>
1

> <PUBCHEM_CACTVS_TAUTO_COUNT>
249

> <PUBCHEM_CONFORMER_ID>
0004B3AC00000001

> <PUBCHEM_MMFF94_ENERGY>
92.3028

> <PUBCHEM_FEATURE_SELFOVERLAP>
50.787

> <PUBCHEM_SHAPE_FINGERPRINT>
10 15 18338244765109109864
10319926 262 18272379697957690434
12035758 1 18337106765983683539
12107183 9 16697544949528711489
12166972 35 15698002924936982108
12236239 1 16559029376551524287
12390115 104 18268707385061416873
12403259 415 18333729126107834638
12596602 18 16056874715507422233
12616971 3 15769776861948869731
12730499 353 18040150725725947726
13140716 1 17915448403961164411
13402501 40 18334861605883904689
13782708 43 18334008423536815271
13911987 19 17313664824733038384
14294032 229 17559956705224147517
14341114 328 16487253296398220465
14386348 63 18261384550998026039
14840074 17 15936407823194867929
15081414 286 17603867780516433792
1577012 14 16702299057349568111
17349148 13 16056879143465496053
200 152 15936407857654547131
20028762 73 15769505278666945440
20511986 3 16486980557142279997
20554085 129 18200889469062699065
20612939 158 16805323305857778644
20645477 70 17458340862549389230
21033648 144 17240492377090510748
21033648 29 18408324388661289489
21033650 10 17701801392639158100
21792961 116 18188479273252147110
23402539 116 18272934903821449783
23522609 53 16128075849837027469
23557571 272 18341602733248453452
23559900 14 18341321305986284406
34797466 226 18340754958745042604
4098825 35 17095803326224528841
4340502 62 18341900701411556522
469060 322 18058993069861616649
5104073 3 18129102384833723395
5265222 85 18127954349251707318
9849439 229 17553217897031252981
9981440 41 17703506684114221219

> <PUBCHEM_SHAPE_MULTIPOLES>
541.01
14.52
1.93
1.86
0.13
0.07
0.23
-4.34
-1.84
-0.89
-0.07
1.81
0.16
3.82

> <PUBCHEM_SHAPE_SELFOVERLAP>
1227.348

> <PUBCHEM_SHAPE_VOLUME>
280.8

> <PUBCHEM_COORDINATE_TYPE>
2
5
10

$$$$

