443801
  -OEChem-07051213032D

 36 39  0     0  0  0  0  0  0999 V2000
    2.5405    0.5258    0.0000 O   0  0  0  0  0  0  0  0  0  0  0  0
    7.0009   -1.0229    0.0000 O   0  0  0  0  0  0  0  0  0  0  0  0
    6.9088    0.0226    0.0000 O   0  0  0  0  0  0  0  0  0  0  0  0
    3.4446    2.0226    0.0000 O   0  0  0  0  0  0  0  0  0  0  0  0
    4.2889    3.5541    0.0000 O   0  0  0  0  0  0  0  0  0  0  0  0
    5.1767    0.0226    0.0000 C   0  0  0  0  0  0  0  0  0  0  0  0
    5.1928   -1.0189    0.0000 C   0  0  0  0  0  0  0  0  0  0  0  0
    4.3107    0.5226    0.0000 C   0  0  0  0  0  0  0  0  0  0  0  0
    4.2947   -1.5466    0.0000 C   0  0  0  0  0  0  0  0  0  0  0  0
    6.0427    1.5226    0.0000 C   0  0  0  0  0  0  0  0  0  0  0  0
    6.0427    0.5226    0.0000 C   0  0  0  0  0  0  0  0  0  0  0  0
    5.1767    2.0226    0.0000 C   0  0  0  0  0  0  0  0  0  0  0  0
    4.3107    1.5226    0.0000 C   0  0  0  0  0  0  0  0  0  0  0  0
    3.4007    0.0158    0.0000 C   0  0  0  0  0  0  0  0  0  0  0  0
    3.3926   -1.0258    0.0000 C   0  0  0  0  0  0  0  0  0  0  0  0
    6.1447   -1.5395    0.0000 C   0  0  0  0  0  0  0  0  0  0  0  0
    4.2864   -2.6316    0.0000 C   0  0  0  0  0  0  0  0  0  0  0  0
    5.2260   -3.1741    0.0000 C   0  0  0  0  0  0  0  0  0  0  0  0
    6.1614   -2.6244    0.0000 C   0  0  0  0  0  0  0  0  0  0  0  0
    5.1606    3.0642    0.0000 C   0  0  0  0  0  0  0  0  0  0  0  0
    6.9527    2.0295    0.0000 C   0  0  0  0  0  0  0  0  0  0  0  0
    6.0587    3.5919    0.0000 C   0  0  0  0  0  0  0  0  0  0  0  0
    6.9608    3.0711    0.0000 C   0  0  0  0  0  0  0  0  0  0  0  0
    5.2298   -4.1741    0.0000 C   0  0  0  0  0  0  0  0  0  0  0  0
    2.8545   -1.3337    0.0000 H   0  0  0  0  0  0  0  0  0  0  0  0
    3.7482   -2.9395    0.0000 H   0  0  0  0  0  0  0  0  0  0  0  0
    6.7019   -2.9281    0.0000 H   0  0  0  0  0  0  0  0  0  0  0  0
    7.4860    1.7133    0.0000 H   0  0  0  0  0  0  0  0  0  0  0  0
    6.0563    4.2119    0.0000 H   0  0  0  0  0  0  0  0  0  0  0  0
    7.4989    3.3790    0.0000 H   0  0  0  0  0  0  0  0  0  0  0  0
    4.6098   -4.1765    0.0000 H   0  0  0  0  0  0  0  0  0  0  0  0
    5.2322   -4.7941    0.0000 H   0  0  0  0  0  0  0  0  0  0  0  0
    5.8498   -4.1717    0.0000 H   0  0  0  0  0  0  0  0  0  0  0  0
    2.0000    0.2220    0.0000 H   0  0  0  0  0  0  0  0  0  0  0  0
    7.5437   -1.3225    0.0000 H   0  0  0  0  0  0  0  0  0  0  0  0
    4.2817    4.1741    0.0000 H   0  0  0  0  0  0  0  0  0  0  0  0
  1 14  1  0  0  0  0
  1 34  1  0  0  0  0
  2 16  1  0  0  0  0
  2 35  1  0  0  0  0
  3 11  2  0  0  0  0
  4 13  2  0  0  0  0
  5 20  1  0  0  0  0
  5 36  1  0  0  0  0
  6  7  2  0  0  0  0
  6  8  1  0  0  0  0
  6 11  1  0  0  0  0
  7  9  1  0  0  0  0
  7 16  1  0  0  0  0
  8 13  1  0  0  0  0
  8 14  2  0  0  0  0
  9 15  2  0  0  0  0
  9 17  1  0  0  0  0
 10 11  1  0  0  0  0
 10 12  2  0  0  0  0
 10 21  1  0  0  0  0
 12 13  1  0  0  0  0
 12 20  1  0  0  0  0
 14 15  1  0  0  0  0
 15 25  1  0  0  0  0
 16 19  2  0  0  0  0
 17 18  2  0  0  0  0
 17 26  1  0  0  0  0
 18 19  1  0  0  0  0
 18 24  1  0  0  0  0
 19 27  1  0  0  0  0
 20 22  2  0  0  0  0
 21 23  2  0  0  0  0
 21 28  1  0  0  0  0
 22 23  1  0  0  0  0
 22 29  1  0  0  0  0
 23 30  1  0  0  0  0
 24 31  1  0  0  0  0
 24 32  1  0  0  0  0
 24 33  1  0  0  0  0
M  END
> <PUBCHEM_COMPOUND_CID>
443801

> <PUBCHEM_COMPOUND_CANONICALIZED>
1

> <PUBCHEM_CACTVS_COMPLEXITY>
546

> <PUBCHEM_CACTVS_HBOND_ACCEPTOR>
5

> <PUBCHEM_CACTVS_HBOND_DONOR>
3

> <PUBCHEM_CACTVS_ROTATABLE_BOND>
0

> <PUBCHEM_CACTVS_SUBSKEYS>
AAADccB4OAAAAAAAAAAAAAAAAAAAAAAAAAAwYMGAAAAAAADBVAAAGgAACAAADASAmAAyBsAAAgCIAqBSAAACAAAkIAAIiAEGCMgIJjaCFRKAcUAk4BEImYeL7PTO4AADAAAYAADAAAYAADAAAAAAAAAAAA==

> <PUBCHEM_IUPAC_OPENEYE_NAME>
1,6,8-trihydroxy-3-methyl-benzo[a]anthracene-7,12-dione

> <PUBCHEM_IUPAC_CAS_NAME>
1,6,8-trihydroxy-3-methylbenzo[a]anthracene-7,12-dione

> <PUBCHEM_IUPAC_NAME>
1,6,8-trihydroxy-3-methylbenzo[a]anthracene-7,12-dione

> <PUBCHEM_IUPAC_SYSTEMATIC_NAME>
3-methyl-1,6,8-tris(oxidanyl)benzo[a]anthracene-7,12-dione

> <PUBCHEM_IUPAC_TRADITIONAL_NAME>
1,6,8-trihydroxy-3-methyl-benz[a]anthracene-7,12-quinone

> <PUBCHEM_IUPAC_INCHI>
InChI=1S/C19H12O5/c1-8-5-9-7-13(22)16-17(14(9)12(21)6-8)18(23)10-3-2-4-11(20)15(10)19(16)24/h2-7,20-22H,1H3

> <PUBCHEM_IUPAC_INCHIKEY>
PQVIKROZFPIERS-UHFFFAOYSA-N

> <PUBCHEM_XLOGP3_AA>
4

> <PUBCHEM_EXACT_MASS>
320.068473

> <PUBCHEM_MOLECULAR_FORMULA>
C19H12O5

> <PUBCHEM_MOLECULAR_WEIGHT>
320.29558

> <PUBCHEM_OPENEYE_CAN_SMILES>
CC1=CC(=C2C(=C1)C=C(C3=C2C(=O)C4=C(C3=O)C(=CC=C4)O)O)O

> <PUBCHEM_OPENEYE_ISO_SMILES>
CC1=CC(=C2C(=C1)C=C(C3=C2C(=O)C4=C(C3=O)C(=CC=C4)O)O)O

> <PUBCHEM_CACTVS_TPSA>
94.8

> <PUBCHEM_MONOISOTOPIC_WEIGHT>
320.068473

> <PUBCHEM_TOTAL_CHARGE>
0

> <PUBCHEM_HEAVY_ATOM_COUNT>
24

> <PUBCHEM_ATOM_DEF_STEREO_COUNT>
0

> <PUBCHEM_ATOM_UDEF_STEREO_COUNT>
0

> <PUBCHEM_BOND_DEF_STEREO_COUNT>
0

> <PUBCHEM_BOND_UDEF_STEREO_COUNT>
0

> <PUBCHEM_ISOTOPIC_ATOM_COUNT>
0

> <PUBCHEM_COMPONENT_COUNT>
1

> <PUBCHEM_CACTVS_TAUTO_COUNT>
244

> <PUBCHEM_COORDINATE_TYPE>
1
5
255

> <PUBCHEM_BONDANNOTATIONS>
10  12  8
10  21  8
12  20  8
14  15  8
16  19  8
17  18  8
18  19  8
20  22  8
21  23  8
22  23  8
6  7  8
6  8  8
7  16  8
7  9  8
8  14  8
9  15  8
9  17  8

$$$$

