23724670
  -OEChem-07051213082D

 32 34  0     1  0  0  0  0  0999 V2000
    6.8671    0.7500    0.0000 O   0  0  0  0  0  0  0  0  0  0  0  0
    6.8671   -2.2500    0.0000 O   0  0  0  0  0  0  0  0  0  0  0  0
   10.3972   -1.2741    0.0000 O   0  0  0  0  0  0  0  0  0  0  0  0
   10.3972    0.7742    0.0000 O   0  0  0  0  0  0  0  0  0  0  0  0
    2.5369    2.2500    0.0000 O   0  0  0  0  0  0  0  0  0  0  0  0
    6.0010    0.2500    0.0000 C   0  0  3  0  0  0  0  0  0  0  0  0
    6.0010   -0.7500    0.0000 C   0  0  0  0  0  0  0  0  0  0  0  0
    5.1350    0.7500    0.0000 C   0  0  0  0  0  0  0  0  0  0  0  0
    7.7331   -0.7500    0.0000 C   0  0  0  0  0  0  0  0  0  0  0  0
    6.8671   -1.2500    0.0000 C   0  0  0  0  0  0  0  0  0  0  0  0
    7.7331    0.2500    0.0000 C   0  0  0  0  0  0  0  0  0  0  0  0
    8.6270   -1.2847    0.0000 C   0  0  0  0  0  0  0  0  0  0  0  0
    8.6270    0.7847    0.0000 C   0  0  0  0  0  0  0  0  0  0  0  0
    5.1350    1.7500    0.0000 C   0  0  0  0  0  0  0  0  0  0  0  0
    4.2690    0.2500    0.0000 C   0  0  0  0  0  0  0  0  0  0  0  0
    9.5331   -0.7708    0.0000 C   0  0  0  0  0  0  0  0  0  0  0  0
    9.5331    0.2708    0.0000 C   0  0  0  0  0  0  0  0  0  0  0  0
    4.2690    2.2500    0.0000 C   0  0  0  0  0  0  0  0  0  0  0  0
    3.4030    0.7500    0.0000 C   0  0  0  0  0  0  0  0  0  0  0  0
    3.4030    1.7500    0.0000 C   0  0  0  0  0  0  0  0  0  0  0  0
    5.4641   -0.0600    0.0000 H   0  0  0  0  0  0  0  0  0  0  0  0
    5.3905   -0.6423    0.0000 H   0  0  0  0  0  0  0  0  0  0  0  0
    5.7890   -1.3326    0.0000 H   0  0  0  0  0  0  0  0  0  0  0  0
    8.6199   -1.9046    0.0000 H   0  0  0  0  0  0  0  0  0  0  0  0
    8.6199    1.4046    0.0000 H   0  0  0  0  0  0  0  0  0  0  0  0
    5.6720    2.0600    0.0000 H   0  0  0  0  0  0  0  0  0  0  0  0
    4.2690   -0.3700    0.0000 H   0  0  0  0  0  0  0  0  0  0  0  0
    4.2690    2.8700    0.0000 H   0  0  0  0  0  0  0  0  0  0  0  0
    2.8660    0.4400    0.0000 H   0  0  0  0  0  0  0  0  0  0  0  0
   10.3948   -1.8942    0.0000 H   0  0  0  0  0  0  0  0  0  0  0  0
   10.3948    1.3942    0.0000 H   0  0  0  0  0  0  0  0  0  0  0  0
    2.0000    1.9400    0.0000 H   0  0  0  0  0  0  0  0  0  0  0  0
  1  6  1  0  0  0  0
  1 11  1  0  0  0  0
  2 10  2  0  0  0  0
  3 16  1  0  0  0  0
  3 30  1  0  0  0  0
  4 17  1  0  0  0  0
  4 31  1  0  0  0  0
  5 20  1  0  0  0  0
  5 32  1  0  0  0  0
  6  7  1  0  0  0  0
  6  8  1  0  0  0  0
  6 21  1  0  0  0  0
  7 10  1  0  0  0  0
  7 22  1  0  0  0  0
  7 23  1  0  0  0  0
  8 14  2  0  0  0  0
  8 15  1  0  0  0  0
  9 10  1  0  0  0  0
  9 11  1  0  0  0  0
  9 12  2  0  0  0  0
 11 13  2  0  0  0  0
 12 16  1  0  0  0  0
 12 24  1  0  0  0  0
 13 17  1  0  0  0  0
 13 25  1  0  0  0  0
 14 18  1  0  0  0  0
 14 26  1  0  0  0  0
 15 19  2  0  0  0  0
 15 27  1  0  0  0  0
 16 17  2  0  0  0  0
 18 20  2  0  0  0  0
 18 28  1  0  0  0  0
 19 20  1  0  0  0  0
 19 29  1  0  0  0  0
M  END
> <PUBCHEM_COMPOUND_CID>
23724670

> <PUBCHEM_COMPOUND_CANONICALIZED>
1

> <PUBCHEM_CACTVS_COMPLEXITY>
363

> <PUBCHEM_CACTVS_HBOND_ACCEPTOR>
5

> <PUBCHEM_CACTVS_HBOND_DONOR>
3

> <PUBCHEM_CACTVS_ROTATABLE_BOND>
1

> <PUBCHEM_CACTVS_SUBSKEYS>
AAADccBwOAAAAAAAAAAAAAAAAAAAAAAAAAA0YIAAAAAAAACRQAAAGgAACAAADBSgmAIwBoAABgCIAqBSAAACCAAkIAAIiAEGiMgNJzaGNRqCeWGl4BUJuYfK7PzOIQABCAAIQABCAAIQABCAAAAAAAAAAA==

> <PUBCHEM_IUPAC_OPENEYE_NAME>
6,7-dihydroxy-2-(4-hydroxyphenyl)chroman-4-one

> <PUBCHEM_IUPAC_CAS_NAME>
6,7-dihydroxy-2-(4-hydroxyphenyl)-3,4-dihydro-2H-1-benzopyran-4-one

> <PUBCHEM_IUPAC_NAME>
6,7-dihydroxy-2-(4-hydroxyphenyl)-2,3-dihydrochromen-4-one

> <PUBCHEM_IUPAC_SYSTEMATIC_NAME>
2-(4-hydroxyphenyl)-6,7-bis(oxidanyl)-2,3-dihydrochromen-4-one

> <PUBCHEM_IUPAC_TRADITIONAL_NAME>
6,7-dihydroxy-2-(4-hydroxyphenyl)chroman-4-one

> <PUBCHEM_IUPAC_INCHI>
InChI=1S/C15H12O5/c16-9-3-1-8(2-4-9)14-6-11(17)10-5-12(18)13(19)7-15(10)20-14/h1-5,7,14,16,18-19H,6H2

> <PUBCHEM_IUPAC_INCHIKEY>
UABMFOBSIHSWFQ-UHFFFAOYSA-N

> <PUBCHEM_XLOGP3_AA>
1.8

> <PUBCHEM_EXACT_MASS>
272.068473

> <PUBCHEM_MOLECULAR_FORMULA>
C15H12O5

> <PUBCHEM_MOLECULAR_WEIGHT>
272.25278

> <PUBCHEM_OPENEYE_CAN_SMILES>
C1C(OC2=CC(=C(C=C2C1=O)O)O)C3=CC=C(C=C3)O

> <PUBCHEM_OPENEYE_ISO_SMILES>
C1C(OC2=CC(=C(C=C2C1=O)O)O)C3=CC=C(C=C3)O

> <PUBCHEM_CACTVS_TPSA>
87

> <PUBCHEM_MONOISOTOPIC_WEIGHT>
272.068473

> <PUBCHEM_TOTAL_CHARGE>
0

> <PUBCHEM_HEAVY_ATOM_COUNT>
20

> <PUBCHEM_ATOM_DEF_STEREO_COUNT>
0

> <PUBCHEM_ATOM_UDEF_STEREO_COUNT>
1

> <PUBCHEM_BOND_DEF_STEREO_COUNT>
0

> <PUBCHEM_BOND_UDEF_STEREO_COUNT>
0

> <PUBCHEM_ISOTOPIC_ATOM_COUNT>
0

> <PUBCHEM_COMPONENT_COUNT>
1

> <PUBCHEM_CACTVS_TAUTO_COUNT>
36

> <PUBCHEM_COORDINATE_TYPE>
1
5
255

> <PUBCHEM_BONDANNOTATIONS>
11  13  8
12  16  8
13  17  8
14  18  8
15  19  8
16  17  8
18  20  8
19  20  8
6  8  3
8  14  8
8  15  8
9  11  8
9  12  8

$$$$

