8883
  -OEChem-06261203123D

 24 23  0     0  0  0  0  0  0999 V2000
   -2.5505    0.0305   -1.3518 O   0  0  0  0  0  0  0  0  0  0  0  0
    2.5499   -0.2192   -1.3345 O   0  0  0  0  0  0  0  0  0  0  0  0
   -2.0737    0.0053   -0.0058 C   0  0  0  0  0  0  0  0  0  0  0  0
    2.0736    0.0026   -0.0064 C   0  0  0  0  0  0  0  0  0  0  0  0
   -2.6030   -1.2728    0.6420 C   0  0  0  0  0  0  0  0  0  0  0  0
   -2.6095    1.2373    0.7229 C   0  0  0  0  0  0  0  0  0  0  0  0
    2.6119    1.3459    0.4854 C   0  0  0  0  0  0  0  0  0  0  0  0
    2.6012   -1.1368    0.8636 C   0  0  0  0  0  0  0  0  0  0  0  0
   -0.6007    0.0039   -0.0077 C   0  0  0  0  0  0  0  0  0  0  0  0
    0.6007    0.0033   -0.0078 C   0  0  0  0  0  0  0  0  0  0  0  0
   -2.2898   -1.3578    1.6886 H   0  0  0  0  0  0  0  0  0  0  0  0
   -3.6980   -1.3060    0.6039 H   0  0  0  0  0  0  0  0  0  0  0  0
   -2.2466   -2.1637    0.1108 H   0  0  0  0  0  0  0  0  0  0  0  0
   -2.2689    2.1586    0.2351 H   0  0  0  0  0  0  0  0  0  0  0  0
   -3.7050    1.2601    0.6981 H   0  0  0  0  0  0  0  0  0  0  0  0
   -2.2838    1.2665    1.7685 H   0  0  0  0  0  0  0  0  0  0  0  0
    2.2865    1.5659    1.5081 H   0  0  0  0  0  0  0  0  0  0  0  0
    2.2726    2.1634   -0.1622 H   0  0  0  0  0  0  0  0  0  0  0  0
    3.7075    1.3619    0.4569 H   0  0  0  0  0  0  0  0  0  0  0  0
    3.6961   -1.1784    0.8320 H   0  0  0  0  0  0  0  0  0  0  0  0
    2.2884   -1.0290    1.9081 H   0  0  0  0  0  0  0  0  0  0  0  0
    2.2431   -2.1092    0.5038 H   0  0  0  0  0  0  0  0  0  0  0  0
   -2.2411   -0.7757   -1.7999 H   0  0  0  0  0  0  0  0  0  0  0  0
    2.2389   -1.0929   -1.6278 H   0  0  0  0  0  0  0  0  0  0  0  0
  1  3  1  0  0  0  0
  1 23  1  0  0  0  0
  2  4  1  0  0  0  0
  2 24  1  0  0  0  0
  3  5  1  0  0  0  0
  3  6  1  0  0  0  0
  3  9  1  0  0  0  0
  4  7  1  0  0  0  0
  4  8  1  0  0  0  0
  4 10  1  0  0  0  0
  5 11  1  0  0  0  0
  5 12  1  0  0  0  0
  5 13  1  0  0  0  0
  6 14  1  0  0  0  0
  6 15  1  0  0  0  0
  6 16  1  0  0  0  0
  7 17  1  0  0  0  0
  7 18  1  0  0  0  0
  7 19  1  0  0  0  0
  8 20  1  0  0  0  0
  8 21  1  0  0  0  0
  8 22  1  0  0  0  0
  9 10  3  0  0  0  0
M  END
> <PUBCHEM_COMPOUND_CID>
8883

> <PUBCHEM_CONFORMER_RMSD>
0.4

> <PUBCHEM_CONFORMER_DIVERSEORDER>
1

> <PUBCHEM_MMFF94_PARTIAL_CHARGES>
8
1 -0.68
10 -0.2
2 -0.68
23 0.4
24 0.4
3 0.48
4 0.48
9 -0.2

> <PUBCHEM_EFFECTIVE_ROTOR_COUNT>
0

> <PUBCHEM_PHARMACOPHORE_FEATURES>
6
1 1 acceptor
1 1 donor
1 2 acceptor
1 2 donor
3 3 5 6 hydrophobe
3 4 7 8 hydrophobe

> <PUBCHEM_HEAVY_ATOM_COUNT>
10

> <PUBCHEM_ATOM_DEF_STEREO_COUNT>
0

> <PUBCHEM_ATOM_UDEF_STEREO_COUNT>
0

> <PUBCHEM_BOND_DEF_STEREO_COUNT>
0

> <PUBCHEM_BOND_UDEF_STEREO_COUNT>
0

> <PUBCHEM_ISOTOPIC_ATOM_COUNT>
0

> <PUBCHEM_COMPONENT_COUNT>
1

> <PUBCHEM_CACTVS_TAUTO_COUNT>
1

> <PUBCHEM_CONFORMER_ID>
000022B300000001

> <PUBCHEM_MMFF94_ENERGY>
13.3658

> <PUBCHEM_FEATURE_SELFOVERLAP>
30.446

> <PUBCHEM_SHAPE_FINGERPRINT>
12932741 1 18411981338560167990
12932764 1 18060697303455399090
14325111 11 18412826875897418218
14390081 3 18335139778062198737
170605 34 18188772722028213336
19973954 147 18260260841461447881
20279233 1 17988935452291389371
20653085 51 17604418721635338913
230 275 18337397037222441920
3248919 1 18186806884814579099
369184 2 18342460343991869537
5084963 1 17704072893130005435
8030462 33 18412263943118558775

> <PUBCHEM_SHAPE_MULTIPOLES>
194.06
5.45
1.26
1.07
0
0.03
-0.26
0.01
0.26
0
0.41
0
-0.02
-0.05

> <PUBCHEM_SHAPE_SELFOVERLAP>
367.356

> <PUBCHEM_SHAPE_VOLUME>
120.1

> <PUBCHEM_COORDINATE_TYPE>
2
5
10

$$$$

