2769
  -OEChem-07051212522D

 61 63  0     1  0  0  0  0  0999 V2000
    6.3301   -6.0950    0.0000 Cl  0  0  0  0  0  0  0  0  0  0  0  0
    7.1962    7.4050    0.0000 F   0  0  0  0  0  0  0  0  0  0  0  0
    3.7320   -1.5950    0.0000 O   0  0  0  0  0  0  0  0  0  0  0  0
    7.1962    3.4050    0.0000 O   0  0  0  0  0  0  0  0  0  0  0  0
    3.7320   -2.5950    0.0000 O   0  0  0  0  0  0  0  0  0  0  0  0
    2.8660   -4.0950    0.0000 O   0  0  0  0  0  0  0  0  0  0  0  0
    5.4641    0.4050    0.0000 N   0  0  3  0  0  0  0  0  0  0  0  0
    5.4641   -2.5950    0.0000 N   0  0  0  0  0  0  0  0  0  0  0  0
    4.5981   -7.0950    0.0000 N   0  0  0  0  0  0  0  0  0  0  0  0
    5.4641   -1.5950    0.0000 C   0  0  3  0  0  0  0  0  0  0  0  0
    4.5981   -1.0950    0.0000 C   0  0  3  0  0  0  0  0  0  0  0  0
    6.3301   -1.0950    0.0000 C   0  0  0  0  0  0  0  0  0  0  0  0
    4.5981   -0.0950    0.0000 C   0  0  0  0  0  0  0  0  0  0  0  0
    6.3301   -0.0950    0.0000 C   0  0  0  0  0  0  0  0  0  0  0  0
    5.4641    1.4050    0.0000 C   0  0  0  0  0  0  0  0  0  0  0  0
    6.3301    1.9050    0.0000 C   0  0  0  0  0  0  0  0  0  0  0  0
    4.5981   -3.0950    0.0000 C   0  0  0  0  0  0  0  0  0  0  0  0
    6.3301    2.9050    0.0000 C   0  0  0  0  0  0  0  0  0  0  0  0
    2.8660   -1.0950    0.0000 C   0  0  0  0  0  0  0  0  0  0  0  0
    4.5981   -4.0950    0.0000 C   0  0  0  0  0  0  0  0  0  0  0  0
    3.7320   -4.5950    0.0000 C   0  0  0  0  0  0  0  0  0  0  0  0
    5.4641   -4.5950    0.0000 C   0  0  0  0  0  0  0  0  0  0  0  0
    7.1962    4.4050    0.0000 C   0  0  0  0  0  0  0  0  0  0  0  0
    3.7320   -5.5950    0.0000 C   0  0  0  0  0  0  0  0  0  0  0  0
    5.4641   -5.5950    0.0000 C   0  0  0  0  0  0  0  0  0  0  0  0
    4.5981   -6.0950    0.0000 C   0  0  0  0  0  0  0  0  0  0  0  0
    8.0622    4.9050    0.0000 C   0  0  0  0  0  0  0  0  0  0  0  0
    6.3301    4.9050    0.0000 C   0  0  0  0  0  0  0  0  0  0  0  0
    2.0000   -4.5950    0.0000 C   0  0  0  0  0  0  0  0  0  0  0  0
    8.0622    5.9050    0.0000 C   0  0  0  0  0  0  0  0  0  0  0  0
    6.3301    5.9050    0.0000 C   0  0  0  0  0  0  0  0  0  0  0  0
    7.1962    6.4050    0.0000 C   0  0  0  0  0  0  0  0  0  0  0  0
    6.0010   -1.9050    0.0000 H   0  0  0  0  0  0  0  0  0  0  0  0
    4.5981   -1.7150    0.0000 H   0  0  0  0  0  0  0  0  0  0  0  0
    6.5422   -1.6776    0.0000 H   0  0  0  0  0  0  0  0  0  0  0  0
    6.9407   -0.9873    0.0000 H   0  0  0  0  0  0  0  0  0  0  0  0
    4.3860    0.4876    0.0000 H   0  0  0  0  0  0  0  0  0  0  0  0
    3.9875   -0.2027    0.0000 H   0  0  0  0  0  0  0  0  0  0  0  0
    6.9407   -0.2027    0.0000 H   0  0  0  0  0  0  0  0  0  0  0  0
    6.5422    0.4876    0.0000 H   0  0  0  0  0  0  0  0  0  0  0  0
    5.2520    1.9876    0.0000 H   0  0  0  0  0  0  0  0  0  0  0  0
    4.8535    1.2973    0.0000 H   0  0  0  0  0  0  0  0  0  0  0  0
    6.0010   -2.9050    0.0000 H   0  0  0  0  0  0  0  0  0  0  0  0
    6.5422    1.3224    0.0000 H   0  0  0  0  0  0  0  0  0  0  0  0
    6.9407    2.0127    0.0000 H   0  0  0  0  0  0  0  0  0  0  0  0
    6.1181    3.4876    0.0000 H   0  0  0  0  0  0  0  0  0  0  0  0
    5.7196    2.7973    0.0000 H   0  0  0  0  0  0  0  0  0  0  0  0
    3.1760   -0.5581    0.0000 H   0  0  0  0  0  0  0  0  0  0  0  0
    2.3291   -0.7850    0.0000 H   0  0  0  0  0  0  0  0  0  0  0  0
    2.5560   -1.6319    0.0000 H   0  0  0  0  0  0  0  0  0  0  0  0
    6.0010   -4.2850    0.0000 H   0  0  0  0  0  0  0  0  0  0  0  0
    3.1951   -5.9050    0.0000 H   0  0  0  0  0  0  0  0  0  0  0  0
    8.5991    4.5950    0.0000 H   0  0  0  0  0  0  0  0  0  0  0  0
    5.7932    4.5950    0.0000 H   0  0  0  0  0  0  0  0  0  0  0  0
    4.0611   -7.4050    0.0000 H   0  0  0  0  0  0  0  0  0  0  0  0
    5.1350   -7.4050    0.0000 H   0  0  0  0  0  0  0  0  0  0  0  0
    1.6900   -4.0581    0.0000 H   0  0  0  0  0  0  0  0  0  0  0  0
    1.4631   -4.9050    0.0000 H   0  0  0  0  0  0  0  0  0  0  0  0
    2.3100   -5.1319    0.0000 H   0  0  0  0  0  0  0  0  0  0  0  0
    8.5991    6.2150    0.0000 H   0  0  0  0  0  0  0  0  0  0  0  0
    5.7932    6.2150    0.0000 H   0  0  0  0  0  0  0  0  0  0  0  0
  1 25  1  0  0  0  0
  2 32  1  0  0  0  0
  3 11  1  0  0  0  0
  3 19  1  0  0  0  0
  4 18  1  0  0  0  0
  4 23  1  0  0  0  0
  5 17  2  0  0  0  0
  6 21  1  0  0  0  0
  6 29  1  0  0  0  0
  7 13  1  0  0  0  0
  7 14  1  0  0  0  0
  7 15  1  0  0  0  0
  8 10  1  0  0  0  0
  8 17  1  0  0  0  0
  8 43  1  0  0  0  0
  9 26  1  0  0  0  0
  9 55  1  0  0  0  0
  9 56  1  0  0  0  0
 10 11  1  0  0  0  0
 10 12  1  0  0  0  0
 10 33  1  0  0  0  0
 11 13  1  0  0  0  0
 11 34  1  0  0  0  0
 12 14  1  0  0  0  0
 12 35  1  0  0  0  0
 12 36  1  0  0  0  0
 13 37  1  0  0  0  0
 13 38  1  0  0  0  0
 14 39  1  0  0  0  0
 14 40  1  0  0  0  0
 15 16  1  0  0  0  0
 15 41  1  0  0  0  0
 15 42  1  0  0  0  0
 16 18  1  0  0  0  0
 16 44  1  0  0  0  0
 16 45  1  0  0  0  0
 17 20  1  0  0  0  0
 18 46  1  0  0  0  0
 18 47  1  0  0  0  0
 19 48  1  0  0  0  0
 19 49  1  0  0  0  0
 19 50  1  0  0  0  0
 20 21  1  0  0  0  0
 20 22  2  0  0  0  0
 21 24  2  0  0  0  0
 22 25  1  0  0  0  0
 22 51  1  0  0  0  0
 23 27  2  0  0  0  0
 23 28  1  0  0  0  0
 24 26  1  0  0  0  0
 24 52  1  0  0  0  0
 25 26  2  0  0  0  0
 27 30  1  0  0  0  0
 27 53  1  0  0  0  0
 28 31  2  0  0  0  0
 28 54  1  0  0  0  0
 29 57  1  0  0  0  0
 29 58  1  0  0  0  0
 29 59  1  0  0  0  0
 30 32  2  0  0  0  0
 30 60  1  0  0  0  0
 31 32  1  0  0  0  0
 31 61  1  0  0  0  0
M  END
> <PUBCHEM_COMPOUND_CID>
2769

> <PUBCHEM_COMPOUND_CANONICALIZED>
1

> <PUBCHEM_CACTVS_COMPLEXITY>
581

> <PUBCHEM_CACTVS_HBOND_ACCEPTOR>
7

> <PUBCHEM_CACTVS_HBOND_DONOR>
2

> <PUBCHEM_CACTVS_ROTATABLE_BOND>
9

> <PUBCHEM_CACTVS_SUBSKEYS>
AAADceB7OQAEAAAAAAAAAAAAAAAAAAAAAAA8YIAAAAAAAAABQAAAHwIQAAAADD7hmC4yxoPABACIAiVSUACCCAAkJwAIiIEObsgOJjaF95uHOWjm9hmY6Ye42SGeCCAAIgAIABAQQABEABAAIAAAAAAAAA==

> <PUBCHEM_IUPAC_OPENEYE_NAME>
4-amino-5-chloro-N-[1-[3-(4-fluorophenoxy)propyl]-3-methoxy-4-piperidyl]-2-methoxy-benzamide

> <PUBCHEM_IUPAC_CAS_NAME>
4-amino-5-chloro-N-[1-[3-(4-fluorophenoxy)propyl]-3-methoxy-4-piperidinyl]-2-methoxybenzamide

> <PUBCHEM_IUPAC_NAME>
4-amino-5-chloro-N-[1-[3-(4-fluorophenoxy)propyl]-3-methoxypiperidin-4-yl]-2-methoxybenzamide

> <PUBCHEM_IUPAC_SYSTEMATIC_NAME>
4-azanyl-5-chloranyl-N-[1-[3-(4-fluoranylphenoxy)propyl]-3-methoxy-piperidin-4-yl]-2-methoxy-benzamide

> <PUBCHEM_IUPAC_TRADITIONAL_NAME>
4-amino-5-chloro-N-[1-[3-(4-fluorophenoxy)propyl]-3-methoxy-4-piperidyl]-2-methoxy-benzamide

> <PUBCHEM_IUPAC_INCHI>
InChI=1S/C23H29ClFN3O4/c1-30-21-13-19(26)18(24)12-17(21)23(29)27-20-8-10-28(14-22(20)31-2)9-3-11-32-16-6-4-15(25)5-7-16/h4-7,12-13,20,22H,3,8-11,14,26H2,1-2H3,(H,27,29)

> <PUBCHEM_IUPAC_INCHIKEY>
DCSUBABJRXZOMT-UHFFFAOYSA-N

> <PUBCHEM_XLOGP3_AA>
3.4

> <PUBCHEM_EXACT_MASS>
465.183062

> <PUBCHEM_MOLECULAR_FORMULA>
C23H29ClFN3O4

> <PUBCHEM_MOLECULAR_WEIGHT>
465.945463

> <PUBCHEM_OPENEYE_CAN_SMILES>
COC1CN(CCC1NC(=O)C2=CC(=C(C=C2OC)N)Cl)CCCOC3=CC=C(C=C3)F

> <PUBCHEM_OPENEYE_ISO_SMILES>
COC1CN(CCC1NC(=O)C2=CC(=C(C=C2OC)N)Cl)CCCOC3=CC=C(C=C3)F

> <PUBCHEM_CACTVS_TPSA>
86

> <PUBCHEM_MONOISOTOPIC_WEIGHT>
465.183062

> <PUBCHEM_TOTAL_CHARGE>
0

> <PUBCHEM_HEAVY_ATOM_COUNT>
32

> <PUBCHEM_ATOM_DEF_STEREO_COUNT>
0

> <PUBCHEM_ATOM_UDEF_STEREO_COUNT>
2

> <PUBCHEM_BOND_DEF_STEREO_COUNT>
0

> <PUBCHEM_BOND_UDEF_STEREO_COUNT>
0

> <PUBCHEM_ISOTOPIC_ATOM_COUNT>
0

> <PUBCHEM_COMPONENT_COUNT>
1

> <PUBCHEM_CACTVS_TAUTO_COUNT>
5

> <PUBCHEM_COORDINATE_TYPE>
1
5
255

> <PUBCHEM_BONDANNOTATIONS>
20  21  8
20  22  8
21  24  8
22  25  8
23  27  8
23  28  8
24  26  8
25  26  8
27  30  8
28  31  8
11  3  3
30  32  8
31  32  8
10  8  3

$$$$

