13488
  -OEChem-06261214422D

 53 53  0     0  0  0  0  0  0999 V2000
    9.1683    4.2078    0.0000 O   0  0  0  0  0  0  0  0  0  0  0  0
    2.7690    3.5000    0.0000 O   0  0  0  0  0  0  0  0  0  0  0  0
    4.0010    4.3660    0.0000 O   0  5  0  0  0  0  0  0  0  0  0  0
    3.1350    5.8660    0.0000 O   0  0  0  0  0  0  0  0  0  0  0  0
    0.2690    6.0981    0.0000 O   0  0  0  0  0  0  0  0  0  0  0  0
    0.5369    2.3660    0.0000 O   0  0  0  0  0  0  0  0  0  0  0  0
    0.2690    4.3660    0.0000 O   0  0  0  0  0  0  0  0  0  0  0  0
    2.2690    2.3660    0.0000 O   0  0  0  0  0  0  0  0  0  0  0  0
    7.0904    7.6904    0.0000 N   0  3  0  0  0  0  0  0  0  0  0  0
    8.8592    5.1588    0.0000 N   0  0  0  0  0  0  0  0  0  0  0  0
    7.6782    6.8814    0.0000 C   0  0  0  0  0  0  0  0  0  0  0  0
    7.2715    5.9679    0.0000 C   0  0  0  0  0  0  0  0  0  0  0  0
    6.5026    8.4994    0.0000 C   0  0  0  0  0  0  0  0  0  0  0  0
    7.8994    8.2782    0.0000 C   0  0  0  0  0  0  0  0  0  0  0  0
    7.8592    5.1588    0.0000 C   0  0  0  0  0  0  0  0  0  0  0  0
    2.2690    4.3660    0.0000 C   0  0  0  0  0  0  0  0  0  0  0  0
    7.5502    4.2078    0.0000 C   0  0  0  0  0  0  0  0  0  0  0  0
    1.4030    3.8660    0.0000 C   0  0  0  0  0  0  0  0  0  0  0  0
    1.7690    5.2320    0.0000 C   0  0  0  0  0  0  0  0  0  0  0  0
    8.3592    3.6200    0.0000 C   0  0  0  0  0  0  0  0  0  0  0  0
    3.1350    4.8660    0.0000 C   0  0  0  0  0  0  0  0  0  0  0  0
    8.3592    2.6200    0.0000 C   0  0  0  0  0  0  0  0  0  0  0  0
    1.4030    2.8660    0.0000 C   0  0  0  0  0  0  0  0  0  0  0  0
    0.7690    5.2320    0.0000 C   0  0  0  0  0  0  0  0  0  0  0  0
    7.4932    2.1200    0.0000 C   0  0  0  0  0  0  0  0  0  0  0  0
    9.2253    2.1200    0.0000 C   0  0  0  0  0  0  0  0  0  0  0  0
    7.4932    1.1200    0.0000 C   0  0  0  0  0  0  0  0  0  0  0  0
    9.2253    1.1200    0.0000 C   0  0  0  0  0  0  0  0  0  0  0  0
    8.3592    0.6200    0.0000 C   0  0  0  0  0  0  0  0  0  0  0  0
    6.5888    7.3260    0.0000 H   0  0  0  0  0  0  0  0  0  0  0  0
    8.1922    6.5347    0.0000 H   0  0  0  0  0  0  0  0  0  0  0  0
    8.1089    7.3274    0.0000 H   0  0  0  0  0  0  0  0  0  0  0  0
    6.7575    6.3146    0.0000 H   0  0  0  0  0  0  0  0  0  0  0  0
    6.8408    5.5219    0.0000 H   0  0  0  0  0  0  0  0  0  0  0  0
    8.2639    7.7766    0.0000 H   0  0  0  0  0  0  0  0  0  0  0  0
    7.0042    8.8639    0.0000 H   0  0  0  0  0  0  0  0  0  0  0  0
    6.1382    9.0010    0.0000 H   0  0  0  0  0  0  0  0  0  0  0  0
    6.0010    8.1350    0.0000 H   0  0  0  0  0  0  0  0  0  0  0  0
    8.4010    8.6426    0.0000 H   0  0  0  0  0  0  0  0  0  0  0  0
    7.5350    8.7798    0.0000 H   0  0  0  0  0  0  0  0  0  0  0  0
    2.3516    5.4441    0.0000 H   0  0  0  0  0  0  0  0  0  0  0  0
    1.6613    5.8426    0.0000 H   0  0  0  0  0  0  0  0  0  0  0  0
    1.1909    4.4486    0.0000 H   0  0  0  0  0  0  0  0  0  0  0  0
    0.7924    3.7584    0.0000 H   0  0  0  0  0  0  0  0  0  0  0  0
    6.9606    4.0162    0.0000 H   0  0  0  0  0  0  0  0  0  0  0  0
    2.4590    2.9631    0.0000 H   0  0  0  0  0  0  0  0  0  0  0  0
    6.9563    2.4300    0.0000 H   0  0  0  0  0  0  0  0  0  0  0  0
    9.7622    2.4300    0.0000 H   0  0  0  0  0  0  0  0  0  0  0  0
    6.9563    0.8100    0.0000 H   0  0  0  0  0  0  0  0  0  0  0  0
    9.7622    0.8100    0.0000 H   0  0  0  0  0  0  0  0  0  0  0  0
    8.3592    0.0000    0.0000 H   0  0  0  0  0  0  0  0  0  0  0  0
    0.5790    6.6350    0.0000 H   0  0  0  0  0  0  0  0  0  0  0  0
    0.0000    2.6760    0.0000 H   0  0  0  0  0  0  0  0  0  0  0  0
  1 10  1  0  0  0  0
  1 20  1  0  0  0  0
  2 16  1  0  0  0  0
  2 46  1  0  0  0  0
  3 21  1  0  0  0  0
  4 21  2  0  0  0  0
  5 24  1  0  0  0  0
  5 52  1  0  0  0  0
  6 23  1  0  0  0  0
  6 53  1  0  0  0  0
  7 24  2  0  0  0  0
  8 23  2  0  0  0  0
  9 11  1  0  0  0  0
  9 13  1  0  0  0  0
  9 14  1  0  0  0  0
  9 30  1  0  0  0  0
 10 15  2  0  0  0  0
 11 12  1  0  0  0  0
 11 31  1  0  0  0  0
 11 32  1  0  0  0  0
 12 15  1  0  0  0  0
 12 33  1  0  0  0  0
 12 34  1  0  0  0  0
 13 36  1  0  0  0  0
 13 37  1  0  0  0  0
 13 38  1  0  0  0  0
 14 35  1  0  0  0  0
 14 39  1  0  0  0  0
 14 40  1  0  0  0  0
 15 17  1  0  0  0  0
 16 18  1  0  0  0  0
 16 19  1  0  0  0  0
 16 21  1  0  0  0  0
 17 20  2  0  0  0  0
 17 45  1  0  0  0  0
 18 23  1  0  0  0  0
 18 43  1  0  0  0  0
 18 44  1  0  0  0  0
 19 24  1  0  0  0  0
 19 41  1  0  0  0  0
 19 42  1  0  0  0  0
 20 22  1  0  0  0  0
 22 25  2  0  0  0  0
 22 26  1  0  0  0  0
 25 27  1  0  0  0  0
 25 47  1  0  0  0  0
 26 28  2  0  0  0  0
 26 48  1  0  0  0  0
 27 29  2  0  0  0  0
 27 49  1  0  0  0  0
 28 29  1  0  0  0  0
 28 50  1  0  0  0  0
 29 51  1  0  0  0  0
M  CHG  2   3  -1   9   1
M  END
> <PUBCHEM_COMPOUND_CID>
13488

> <PUBCHEM_COMPOUND_CANONICALIZED>
1

> <PUBCHEM_CACTVS_COMPLEXITY>
424

> <PUBCHEM_CACTVS_HBOND_ACCEPTOR>
9

> <PUBCHEM_CACTVS_HBOND_DONOR>
4

> <PUBCHEM_CACTVS_ROTATABLE_BOND>
8

> <PUBCHEM_CACTVS_SUBSKEYS>
AAADceB7PAAAAAAAAAAAAAAAAAAAAWAAAAAwAAAAAAAAAAABwAAAHgAUCAAADEzBngQyjJPQAgCpA6TySgKCAAAkIgAomKF+bNoJJj6A1ZOEcYBn8BkJycfb/+KOAAAAAAAAAAAAAAAAAAAAAAAAAAAAAA==

> <PUBCHEM_IUPAC_OPENEYE_NAME>
2-(carboxymethyl)-2,4-dihydroxy-4-oxo-butanoate; dimethyl-[2-(5-phenylisoxazol-3-yl)ethyl]ammonium

> <PUBCHEM_IUPAC_CAS_NAME>
2-(carboxymethyl)-2,4-dihydroxy-4-oxobutanoate; dimethyl-[2-(5-phenyl-3-isoxazolyl)ethyl]ammonium

> <PUBCHEM_IUPAC_NAME>
2-(carboxymethyl)-2,4-dihydroxy-4-oxobutanoate; dimethyl-[2-(5-phenyl-1,2-oxazol-3-yl)ethyl]azanium

> <PUBCHEM_IUPAC_SYSTEMATIC_NAME>
dimethyl-[2-(5-phenyl-1,2-oxazol-3-yl)ethyl]azanium; 2-(2-hydroxy-2-oxoethyl)-2,4-bis(oxidanyl)-4-oxidanylidene-butanoate

> <PUBCHEM_IUPAC_TRADITIONAL_NAME>
2-(carboxymethyl)-2,4-dihydroxy-4-keto-butyrate; dimethyl-[2-(5-phenylisoxazol-3-yl)ethyl]ammonium

> <PUBCHEM_IUPAC_INCHI>
InChI=1S/C13H16N2O.C6H8O7/c1-15(2)9-8-12-10-13(16-14-12)11-6-4-3-5-7-11;7-3(8)1-6(13,5(11)12)2-4(9)10/h3-7,10H,8-9H2,1-2H3;13H,1-2H2,(H,7,8)(H,9,10)(H,11,12)

> <PUBCHEM_IUPAC_INCHIKEY>
AJOONPKVRJWLBG-UHFFFAOYSA-N

> <PUBCHEM_EXACT_MASS>
408.153266

> <PUBCHEM_MOLECULAR_FORMULA>
C19H24N2O8

> <PUBCHEM_MOLECULAR_WEIGHT>
408.40246

> <PUBCHEM_OPENEYE_CAN_SMILES>
C[NH+](C)CCC1=NOC(=C1)C2=CC=CC=C2.C(C(=O)O)C(CC(=O)O)(C(=O)[O-])O

> <PUBCHEM_OPENEYE_ISO_SMILES>
C[NH+](C)CCC1=NOC(=C1)C2=CC=CC=C2.C(C(=O)O)C(CC(=O)O)(C(=O)[O-])O

> <PUBCHEM_CACTVS_TPSA>
165

> <PUBCHEM_MONOISOTOPIC_WEIGHT>
408.153266

> <PUBCHEM_TOTAL_CHARGE>
0

> <PUBCHEM_HEAVY_ATOM_COUNT>
29

> <PUBCHEM_ATOM_DEF_STEREO_COUNT>
0

> <PUBCHEM_ATOM_UDEF_STEREO_COUNT>
0

> <PUBCHEM_BOND_DEF_STEREO_COUNT>
0

> <PUBCHEM_BOND_UDEF_STEREO_COUNT>
0

> <PUBCHEM_ISOTOPIC_ATOM_COUNT>
0

> <PUBCHEM_COMPONENT_COUNT>
2

> <PUBCHEM_CACTVS_TAUTO_COUNT>
1

> <PUBCHEM_COORDINATE_TYPE>
1
5
255

> <PUBCHEM_BONDANNOTATIONS>
1  10  8
1  20  8
10  15  8
15  17  8
17  20  8
22  25  8
22  26  8
25  27  8
26  28  8
27  29  8
28  29  8

$$$$

