9548789
  -OEChem-07051213082D

 35 34  0     0  0  0  0  0  0999 V2000
    8.9282    3.9050    0.0000 O   0  0  0  0  0  0  0  0  0  0  0  0
    9.7942    2.4050    0.0000 O   0  0  0  0  0  0  0  0  0  0  0  0
    2.0000   -3.0950    0.0000 O   0  0  0  0  0  0  0  0  0  0  0  0
    7.1962   -0.0950    0.0000 C   0  0  0  0  0  0  0  0  0  0  0  0
    6.3301   -0.5950    0.0000 C   0  0  0  0  0  0  0  0  0  0  0  0
    7.1962    0.9050    0.0000 C   0  0  0  0  0  0  0  0  0  0  0  0
    6.3301   -1.5950    0.0000 C   0  0  0  0  0  0  0  0  0  0  0  0
    8.0622    1.4050    0.0000 C   0  0  0  0  0  0  0  0  0  0  0  0
    5.4641   -2.0950    0.0000 C   0  0  0  0  0  0  0  0  0  0  0  0
    8.0622    2.4050    0.0000 C   0  0  0  0  0  0  0  0  0  0  0  0
    5.4641   -3.0950    0.0000 C   0  0  0  0  0  0  0  0  0  0  0  0
    8.9282    2.9050    0.0000 C   0  0  0  0  0  0  0  0  0  0  0  0
    4.5981   -3.5950    0.0000 C   0  0  0  0  0  0  0  0  0  0  0  0
    3.7320   -3.0950    0.0000 C   0  0  0  0  0  0  0  0  0  0  0  0
    2.8660   -3.5950    0.0000 C   0  0  0  0  0  0  0  0  0  0  0  0
    7.4082   -0.6776    0.0000 H   0  0  0  0  0  0  0  0  0  0  0  0
    7.8067    0.0127    0.0000 H   0  0  0  0  0  0  0  0  0  0  0  0
    6.1181   -0.0124    0.0000 H   0  0  0  0  0  0  0  0  0  0  0  0
    5.7196   -0.7027    0.0000 H   0  0  0  0  0  0  0  0  0  0  0  0
    6.9841    1.4876    0.0000 H   0  0  0  0  0  0  0  0  0  0  0  0
    6.5856    0.7973    0.0000 H   0  0  0  0  0  0  0  0  0  0  0  0
    6.5422   -2.1776    0.0000 H   0  0  0  0  0  0  0  0  0  0  0  0
    6.9407   -1.4873    0.0000 H   0  0  0  0  0  0  0  0  0  0  0  0
    8.2742    0.8224    0.0000 H   0  0  0  0  0  0  0  0  0  0  0  0
    8.6728    1.5127    0.0000 H   0  0  0  0  0  0  0  0  0  0  0  0
    5.2520   -1.5124    0.0000 H   0  0  0  0  0  0  0  0  0  0  0  0
    4.8535   -2.2027    0.0000 H   0  0  0  0  0  0  0  0  0  0  0  0
    7.8501    2.9876    0.0000 H   0  0  0  0  0  0  0  0  0  0  0  0
    7.4516    2.2973    0.0000 H   0  0  0  0  0  0  0  0  0  0  0  0
    6.0010   -3.4050    0.0000 H   0  0  0  0  0  0  0  0  0  0  0  0
    4.5981   -4.2150    0.0000 H   0  0  0  0  0  0  0  0  0  0  0  0
    4.1306   -2.6200    0.0000 H   0  0  0  0  0  0  0  0  0  0  0  0
    3.3335   -2.6200    0.0000 H   0  0  0  0  0  0  0  0  0  0  0  0
    9.4651    4.2150    0.0000 H   0  0  0  0  0  0  0  0  0  0  0  0
    2.8660   -4.2150    0.0000 H   0  0  0  0  0  0  0  0  0  0  0  0
  1 12  1  0  0  0  0
  1 34  1  0  0  0  0
  2 12  2  0  0  0  0
  3 15  2  0  0  0  0
  4  5  1  0  0  0  0
  4  6  1  0  0  0  0
  4 16  1  0  0  0  0
  4 17  1  0  0  0  0
  5  7  1  0  0  0  0
  5 18  1  0  0  0  0
  5 19  1  0  0  0  0
  6  8  1  0  0  0  0
  6 20  1  0  0  0  0
  6 21  1  0  0  0  0
  7  9  1  0  0  0  0
  7 22  1  0  0  0  0
  7 23  1  0  0  0  0
  8 10  1  0  0  0  0
  8 24  1  0  0  0  0
  8 25  1  0  0  0  0
  9 11  1  0  0  0  0
  9 26  1  0  0  0  0
  9 27  1  0  0  0  0
 10 12  1  0  0  0  0
 10 28  1  0  0  0  0
 10 29  1  0  0  0  0
 11 13  2  0  0  0  0
 11 30  1  0  0  0  0
 13 14  1  0  0  0  0
 13 31  1  0  0  0  0
 14 15  1  0  0  0  0
 14 32  1  0  0  0  0
 14 33  1  0  0  0  0
 15 35  1  0  0  0  0
M  END
> <PUBCHEM_COMPOUND_CID>
9548789

> <PUBCHEM_COMPOUND_CANONICALIZED>
1

> <PUBCHEM_CACTVS_COMPLEXITY>
197

> <PUBCHEM_CACTVS_HBOND_ACCEPTOR>
3

> <PUBCHEM_CACTVS_HBOND_DONOR>
1

> <PUBCHEM_CACTVS_ROTATABLE_BOND>
10

> <PUBCHEM_CACTVS_SUBSKEYS>
AAADceBwMAAAAAAAAAAAAAAAAAAAAAAAAAAAAAAAAAAAAAAAAAAAGgAACAAACACggAIACAAAAgCIACjSiAAAAAAgAAAICAEAAAgAABIAAQAAQAAEgAAIAAOIyKCAAAAAAAAAAAAAAAAAAAAAAAAAAAAAAA==

> <PUBCHEM_IUPAC_OPENEYE_NAME>
(Z)-12-oxododec-9-enoic acid

> <PUBCHEM_IUPAC_CAS_NAME>
(Z)-12-oxo-9-dodecenoic acid

> <PUBCHEM_IUPAC_NAME>
(Z)-12-oxododec-9-enoic acid

> <PUBCHEM_IUPAC_SYSTEMATIC_NAME>
(Z)-12-oxidanylidenedodec-9-enoic acid

> <PUBCHEM_IUPAC_TRADITIONAL_NAME>
(Z)-12-ketododec-9-enoic acid

> <PUBCHEM_IUPAC_INCHI>
InChI=1S/C12H20O3/c13-11-9-7-5-3-1-2-4-6-8-10-12(14)15/h5,7,11H,1-4,6,8-10H2,(H,14,15)/b7-5-

> <PUBCHEM_IUPAC_INCHIKEY>
KIHXTOVLSZRTHJ-ALCCZGGFSA-N

> <PUBCHEM_XLOGP3>
2.6

> <PUBCHEM_EXACT_MASS>
212.141245

> <PUBCHEM_MOLECULAR_FORMULA>
C12H20O3

> <PUBCHEM_MOLECULAR_WEIGHT>
212.2854

> <PUBCHEM_OPENEYE_CAN_SMILES>
C(CCCC=CCC=O)CCCC(=O)O

> <PUBCHEM_OPENEYE_ISO_SMILES>
C(CCC/C=C\CC=O)CCCC(=O)O

> <PUBCHEM_CACTVS_TPSA>
54.4

> <PUBCHEM_MONOISOTOPIC_WEIGHT>
212.141245

> <PUBCHEM_TOTAL_CHARGE>
0

> <PUBCHEM_HEAVY_ATOM_COUNT>
15

> <PUBCHEM_ATOM_DEF_STEREO_COUNT>
0

> <PUBCHEM_ATOM_UDEF_STEREO_COUNT>
0

> <PUBCHEM_BOND_DEF_STEREO_COUNT>
1

> <PUBCHEM_BOND_UDEF_STEREO_COUNT>
0

> <PUBCHEM_ISOTOPIC_ATOM_COUNT>
0

> <PUBCHEM_COMPONENT_COUNT>
1

> <PUBCHEM_CACTVS_TAUTO_COUNT>
3

> <PUBCHEM_COORDINATE_TYPE>
1
5
255

$$$$

