10108706
  -OEChem-07051213153D

 43 45  0     1  0  0  0  0  0999 V2000
   -1.2613    1.9225    1.2688 O   0  0  0  0  0  0  0  0  0  0  0  0
   -3.0738   -1.9833   -0.0436 O   0  0  0  0  0  0  0  0  0  0  0  0
    1.5940    2.4597    0.6538 O   0  0  0  0  0  0  0  0  0  0  0  0
    2.1771   -2.1765    0.2060 O   0  0  0  0  0  0  0  0  0  0  0  0
   -0.5917   -2.7733   -0.5199 O   0  0  0  0  0  0  0  0  0  0  0  0
    4.6818   -0.6175   -0.5396 O   0  0  0  0  0  0  0  0  0  0  0  0
   -2.3515    0.3481   -0.1944 C   0  0  0  0  0  0  0  0  0  0  0  0
   -3.3031    0.4603   -1.3841 C   0  0  0  0  0  0  0  0  0  0  0  0
   -3.7656    0.8833   -0.0240 C   0  0  0  0  0  0  0  0  0  0  0  0
   -1.1668    1.3512   -0.0447 C   0  0  2  0  0  0  0  0  0  0  0  0
   -2.0605   -1.0598    0.3617 C   0  0  2  0  0  0  0  0  0  0  0  0
    0.1818    0.6722   -0.1663 C   0  0  0  0  0  0  0  0  0  0  0  0
    0.3780   -0.6488   -0.2747 C   0  0  0  0  0  0  0  0  0  0  0  0
    2.5335    0.2637    0.0222 C   0  0  1  0  0  0  0  0  0  0  0  0
    1.5030    1.3927   -0.2731 C   0  0  2  0  0  0  0  0  0  0  0  0
   -0.7445   -1.5990   -0.1917 C   0  0  0  0  0  0  0  0  0  0  0  0
    1.8104   -1.0066   -0.5013 C   0  0  1  0  0  0  0  0  0  0  0  0
   -1.2371    2.5246   -1.0408 C   0  0  0  0  0  0  0  0  0  0  0  0
   -2.0140   -1.0788    1.8939 C   0  0  0  0  0  0  0  0  0  0  0  0
    3.8437    0.5029   -0.7388 C   0  0  0  0  0  0  0  0  0  0  0  0
    2.8666    0.1625    1.5306 C   0  0  0  0  0  0  0  0  0  0  0  0
   -3.1773    1.2343   -2.1297 H   0  0  0  0  0  0  0  0  0  0  0  0
   -3.7408   -0.4362   -1.8081 H   0  0  0  0  0  0  0  0  0  0  0  0
   -4.5045    0.2626    0.4696 H   0  0  0  0  0  0  0  0  0  0  0  0
   -3.9193    1.9418    0.1459 H   0  0  0  0  0  0  0  0  0  0  0  0
    1.6232    1.7996   -1.2838 H   0  0  0  0  0  0  0  0  0  0  0  0
    1.9866   -1.1681   -1.5719 H   0  0  0  0  0  0  0  0  0  0  0  0
   -0.4768    3.2833   -0.8219 H   0  0  0  0  0  0  0  0  0  0  0  0
   -1.0944    2.1917   -2.0747 H   0  0  0  0  0  0  0  0  0  0  0  0
   -2.1926    3.0566   -0.9765 H   0  0  0  0  0  0  0  0  0  0  0  0
   -1.8572   -2.0980    2.2672 H   0  0  0  0  0  0  0  0  0  0  0  0
   -1.2104   -0.4576    2.3002 H   0  0  0  0  0  0  0  0  0  0  0  0
   -2.9624   -0.7318    2.3185 H   0  0  0  0  0  0  0  0  0  0  0  0
   -2.0373    2.5071    1.2958 H   0  0  0  0  0  0  0  0  0  0  0  0
   -2.8990   -2.8377    0.3867 H   0  0  0  0  0  0  0  0  0  0  0  0
    4.3606    1.3956   -0.3713 H   0  0  0  0  0  0  0  0  0  0  0  0
    3.6787    0.6301   -1.8142 H   0  0  0  0  0  0  0  0  0  0  0  0
    1.9637    0.0203    2.1351 H   0  0  0  0  0  0  0  0  0  0  0  0
    3.5364   -0.6767    1.7479 H   0  0  0  0  0  0  0  0  0  0  0  0
    3.3668    1.0696    1.8886 H   0  0  0  0  0  0  0  0  0  0  0  0
    1.1696    2.1913    1.4862 H   0  0  0  0  0  0  0  0  0  0  0  0
    1.7021   -2.9255   -0.1929 H   0  0  0  0  0  0  0  0  0  0  0  0
    4.3002   -1.3711   -1.0201 H   0  0  0  0  0  0  0  0  0  0  0  0
  1 10  1  0  0  0  0
  1 34  1  0  0  0  0
  2 11  1  0  0  0  0
  2 35  1  0  0  0  0
  3 15  1  0  0  0  0
  3 41  1  0  0  0  0
  4 17  1  0  0  0  0
  4 42  1  0  0  0  0
  5 16  2  0  0  0  0
  6 20  1  0  0  0  0
  6 43  1  0  0  0  0
  7  8  1  0  0  0  0
  7  9  1  0  0  0  0
  7 10  1  0  0  0  0
  7 11  1  0  0  0  0
  8  9  1  0  0  0  0
  8 22  1  0  0  0  0
  8 23  1  0  0  0  0
  9 24  1  0  0  0  0
  9 25  1  0  0  0  0
 10 12  1  0  0  0  0
 10 18  1  0  0  0  0
 11 16  1  0  0  0  0
 11 19  1  0  0  0  0
 12 13  2  0  0  0  0
 12 15  1  0  0  0  0
 13 16  1  0  0  0  0
 13 17  1  0  0  0  0
 14 15  1  0  0  0  0
 14 17  1  0  0  0  0
 14 20  1  0  0  0  0
 14 21  1  0  0  0  0
 15 26  1  0  0  0  0
 17 27  1  0  0  0  0
 18 28  1  0  0  0  0
 18 29  1  0  0  0  0
 18 30  1  0  0  0  0
 19 31  1  0  0  0  0
 19 32  1  0  0  0  0
 19 33  1  0  0  0  0
 20 36  1  0  0  0  0
 20 37  1  0  0  0  0
 21 38  1  0  0  0  0
 21 39  1  0  0  0  0
 21 40  1  0  0  0  0
M  END
> <PUBCHEM_COMPOUND_CID>
10108706

> <PUBCHEM_CONFORMER_RMSD>
0.6

> <PUBCHEM_CONFORMER_DIVERSEORDER>
2
1
3

> <PUBCHEM_MMFF94_PARTIAL_CHARGES>
26
1 -0.68
10 0.51
11 0.44
12 -0.28
13 -0.12
15 0.42
16 0.49
17 0.42
2 -0.68
20 0.28
22 0.1
23 0.1
24 0.1
25 0.1
3 -0.68
34 0.4
35 0.4
4 -0.68
41 0.4
42 0.4
43 0.4
5 -0.57
6 -0.68
7 -0.19
8 -0.2
9 -0.2

> <PUBCHEM_EFFECTIVE_ROTOR_COUNT>
2.4

> <PUBCHEM_PHARMACOPHORE_FEATURES>
13
1 1 acceptor
1 1 donor
1 2 acceptor
1 2 donor
1 3 acceptor
1 3 donor
1 4 acceptor
1 4 donor
1 5 acceptor
1 6 acceptor
1 6 donor
5 12 13 14 15 17 rings
6 7 10 11 12 13 16 rings

> <PUBCHEM_HEAVY_ATOM_COUNT>
21

> <PUBCHEM_ATOM_DEF_STEREO_COUNT>
5

> <PUBCHEM_ATOM_UDEF_STEREO_COUNT>
0

> <PUBCHEM_BOND_DEF_STEREO_COUNT>
0

> <PUBCHEM_BOND_UDEF_STEREO_COUNT>
0

> <PUBCHEM_ISOTOPIC_ATOM_COUNT>
0

> <PUBCHEM_COMPONENT_COUNT>
1

> <PUBCHEM_CACTVS_TAUTO_COUNT>
1

> <PUBCHEM_CONFORMER_ID>
009A3F2200000002

> <PUBCHEM_MMFF94_ENERGY>
66.6391

> <PUBCHEM_FEATURE_SELFOVERLAP>
66.042

> <PUBCHEM_SHAPE_FINGERPRINT>
10759866 29 17989485247393063774
10863032 1 18413674612368739059
10967382 1 18338236071546390311
11132069 177 18408890607501664984
11578080 2 17315094181142700761
12011746 2 18410575123460333260
12423570 1 17765712426001582449
12553582 1 18341335560434093592
13027679 85 18261668156642577401
13140716 1 18266745683832639384
13172582 1 18263631871234655107
13221675 6 18412262822538289414
13538477 17 17846785104711580552
13583140 156 16559030510792369981
14790565 3 18193543682948442133
15196674 1 18410572851543855252
15309172 13 18335973229340287875
15775835 57 18202281432965160765
16752209 62 18339934787009778156
16945 1 18411428314323854893
17357779 13 18121797036332014591
17804303 29 18409163290659169780
18186145 218 18261121789441867389
19868273 325 18270398261338668396
200 152 17676493851687028781
20510252 161 18262234426241604864
20645476 183 17275384300429166011
21267235 1 18339632356903928799
21501502 16 18192712477847525508
22721475 48 18410286999858475684
2334 1 17905331719336430180
23402539 116 18260274065665336708
23419403 2 15293014141953074103
23493267 7 17918273151394011298
23557571 272 18334848394786061311
23559900 14 18334576829058193804
25 1 18197505223711876413
2748010 2 18195532484602088861
296302 2 17275103933495930548
3286 77 16950562121317565450
335352 9 18410009970236168452
34934 24 18202852049667502364
4175511 318 17775289373873838869
5104073 3 18411699855405103632
74978 22 18335703780477571908
8809292 202 18272086084722750074
9709674 26 18339358677298024902

> <PUBCHEM_SHAPE_MULTIPOLES>
396.95
6.11
2.52
1.21
3.08
0.11
-0.42
0.11
0.74
-0.7
0.11
-0.22
-0.06
0.45

> <PUBCHEM_SHAPE_SELFOVERLAP>
857.269

> <PUBCHEM_SHAPE_VOLUME>
219.2

> <PUBCHEM_COORDINATE_TYPE>
2
5
10

$$$$

