8121
  -OEChem-06261202363D

 20 19  0     0  0  0  0  0  0999 V2000
    1.3687    0.0584   -0.3103 O   0  0  0  0  0  0  0  0  0  0  0  0
   -1.3656    0.0516    0.3078 O   0  0  0  0  0  0  0  0  0  0  0  0
    3.3589   -0.5851    0.6704 O   0  0  0  0  0  0  0  0  0  0  0  0
   -3.3598   -0.5834   -0.6703 O   0  0  0  0  0  0  0  0  0  0  0  0
    0.7267   -1.1081    0.2144 C   0  0  0  0  0  0  0  0  0  0  0  0
   -0.7279   -1.1076   -0.2147 C   0  0  0  0  0  0  0  0  0  0  0  0
    2.6901    0.1891   -0.0007 C   0  0  0  0  0  0  0  0  0  0  0  0
   -2.6909    0.1901    0.0015 C   0  0  0  0  0  0  0  0  0  0  0  0
    3.2263    1.4473   -0.6135 C   0  0  0  0  0  0  0  0  0  0  0  0
   -3.2265    1.4479    0.6153 C   0  0  0  0  0  0  0  0  0  0  0  0
    1.2281   -2.0057   -0.1640 H   0  0  0  0  0  0  0  0  0  0  0  0
    0.7911   -1.0800    1.3084 H   0  0  0  0  0  0  0  0  0  0  0  0
   -1.2273   -2.0072    0.1614 H   0  0  0  0  0  0  0  0  0  0  0  0
   -0.7901   -1.0810   -1.3088 H   0  0  0  0  0  0  0  0  0  0  0  0
    2.6883    2.3117   -0.2163 H   0  0  0  0  0  0  0  0  0  0  0  0
    3.1305    1.4000   -1.7012 H   0  0  0  0  0  0  0  0  0  0  0  0
    4.2856    1.5507   -0.3614 H   0  0  0  0  0  0  0  0  0  0  0  0
   -2.6877    2.3121    0.2190 H   0  0  0  0  0  0  0  0  0  0  0  0
   -3.1303    1.3994    1.7029 H   0  0  0  0  0  0  0  0  0  0  0  0
   -4.2858    1.5522    0.3633 H   0  0  0  0  0  0  0  0  0  0  0  0
  1  5  1  0  0  0  0
  1  7  1  0  0  0  0
  2  6  1  0  0  0  0
  2  8  1  0  0  0  0
  3  7  2  0  0  0  0
  4  8  2  0  0  0  0
  5  6  1  0  0  0  0
  5 11  1  0  0  0  0
  5 12  1  0  0  0  0
  6 13  1  0  0  0  0
  6 14  1  0  0  0  0
  7  9  1  0  0  0  0
  8 10  1  0  0  0  0
  9 15  1  0  0  0  0
  9 16  1  0  0  0  0
  9 17  1  0  0  0  0
 10 18  1  0  0  0  0
 10 19  1  0  0  0  0
 10 20  1  0  0  0  0
M  END
> <PUBCHEM_COMPOUND_CID>
8121

> <PUBCHEM_CONFORMER_RMSD>
0.6

> <PUBCHEM_CONFORMER_DIVERSEORDER>
1
10
4
21
11
17
44
29
55
7
54
41
12
59
16
3
58
2
13
30
38
19
48
60
20
23
52
15
45
28
57
33
14
32
50
24
5
35
56
53
9
49
36
6
26
39
37
27
51
25
31
40
61
22
47
42
34
43
8
18
46

> <PUBCHEM_MMFF94_PARTIAL_CHARGES>
10
1 -0.43
10 0.06
2 -0.43
3 -0.57
4 -0.57
5 0.28
6 0.28
7 0.66
8 0.66
9 0.06

> <PUBCHEM_EFFECTIVE_ROTOR_COUNT>
5

> <PUBCHEM_PHARMACOPHORE_FEATURES>
2
1 3 acceptor
1 4 acceptor

> <PUBCHEM_HEAVY_ATOM_COUNT>
10

> <PUBCHEM_ATOM_DEF_STEREO_COUNT>
0

> <PUBCHEM_ATOM_UDEF_STEREO_COUNT>
0

> <PUBCHEM_BOND_DEF_STEREO_COUNT>
0

> <PUBCHEM_BOND_UDEF_STEREO_COUNT>
0

> <PUBCHEM_ISOTOPIC_ATOM_COUNT>
0

> <PUBCHEM_COMPONENT_COUNT>
1

> <PUBCHEM_CACTVS_TAUTO_COUNT>
1

> <PUBCHEM_CONFORMER_ID>
00001FB900000001

> <PUBCHEM_MMFF94_ENERGY>
9.1538

> <PUBCHEM_FEATURE_SELFOVERLAP>
10.149

> <PUBCHEM_SHAPE_FINGERPRINT>
10149128 111 18410847767842020481
12162725 195 18410856559639861029
12897270 3 15864067693343951259
14325111 11 18410572885639933799
14390081 3 18334294283906489729
15775835 57 18410849962570367200
170605 34 18413668015299167266
19107657 47 17632307790659811308
20281407 28 9943808876175770966
20653085 51 18335687364891105026
20711983 171 18261106387372580885
3248919 1 18410857659151735655

> <PUBCHEM_SHAPE_MULTIPOLES>
182.32
6.81
1.39
0.76
0
0.3
0
2.37
0
0
0
0
0.04
-0.85

> <PUBCHEM_SHAPE_SELFOVERLAP>
340.186

> <PUBCHEM_SHAPE_VOLUME>
113.8

> <PUBCHEM_COORDINATE_TYPE>
2
5
10

$$$$

