161865
  -OEChem-07051213033D

 51 54  0     1  0  0  0  0  0999 V2000
   -3.4009   -0.5384    1.6495 O   0  0  0  0  0  0  0  0  0  0  0  0
   -3.1820    1.8437   -1.1343 O   0  0  0  0  0  0  0  0  0  0  0  0
   -2.6893   -2.3664   -0.2354 O   0  0  0  0  0  0  0  0  0  0  0  0
   -1.5843    1.6607    2.1267 O   0  0  0  0  0  0  0  0  0  0  0  0
    2.8558   -2.2451   -1.1557 O   0  0  0  0  0  0  0  0  0  0  0  0
    1.4768    2.5894    1.2648 O   0  5  0  0  0  0  0  0  0  0  0  0
   -3.0248    4.0675   -0.5286 O   0  0  0  0  0  0  0  0  0  0  0  0
   -1.5741   -2.2068    1.7815 O   0  0  0  0  0  0  0  0  0  0  0  0
    5.4340   -1.5165   -0.7938 O   0  0  0  0  0  0  0  0  0  0  0  0
    0.0464   -2.6409   -1.3741 N   0  3  0  0  0  0  0  0  0  0  0  0
   -0.0023   -3.6129   -1.8767 N   0  0  0  0  0  0  0  0  0  0  0  0
   -3.4627   -0.1120    0.2811 C   0  0  1  0  0  0  0  0  0  0  0  0
   -3.0575    1.3838    0.2117 C   0  0  1  0  0  0  0  0  0  0  0  0
   -2.4875   -0.9900   -0.5500 C   0  0  1  0  0  0  0  0  0  0  0  0
   -1.6088    1.6316    0.7017 C   0  0  2  0  0  0  0  0  0  0  0  0
   -1.0620   -0.5963   -0.3278 C   0  0  0  0  0  0  0  0  0  0  0  0
   -0.6734    0.5607    0.2438 C   0  0  0  0  0  0  0  0  0  0  0  0
    0.7863    0.5563    0.2488 C   0  0  0  0  0  0  0  0  0  0  0  0
   -4.9057   -0.3299   -0.1910 C   0  0  0  0  0  0  0  0  0  0  0  0
    0.1107   -1.3587   -0.7119 C   0  0  0  0  0  0  0  0  0  0  0  0
    1.2312   -0.6953   -0.3759 C   0  0  0  0  0  0  0  0  0  0  0  0
    1.6719    1.4732    0.7078 C   0  0  0  0  0  0  0  0  0  0  0  0
    2.6217   -1.0349   -0.5482 C   0  0  0  0  0  0  0  0  0  0  0  0
    3.1454    1.1262    0.5373 C   0  0  0  0  0  0  0  0  0  0  0  0
    3.5583   -0.1620   -0.1100 C   0  0  0  0  0  0  0  0  0  0  0  0
   -2.8839    3.1601   -1.3373 C   0  0  0  0  0  0  0  0  0  0  0  0
   -2.4079   -2.7258    1.0517 C   0  0  0  0  0  0  0  0  0  0  0  0
    4.1463    1.9421    0.9497 C   0  0  0  0  0  0  0  0  0  0  0  0
    5.0185   -0.4869   -0.2731 C   0  0  0  0  0  0  0  0  0  0  0  0
   -2.3453    3.3475   -2.7233 C   0  0  0  0  0  0  0  0  0  0  0  0
   -3.2829   -3.8722    1.4596 C   0  0  0  0  0  0  0  0  0  0  0  0
    5.5463    1.6365    0.7989 C   0  0  0  0  0  0  0  0  0  0  0  0
    5.9857    0.5116    0.2326 C   0  0  0  0  0  0  0  0  0  0  0  0
   -3.7525    1.9542    0.8439 H   0  0  0  0  0  0  0  0  0  0  0  0
   -2.7027   -0.8724   -1.6194 H   0  0  0  0  0  0  0  0  0  0  0  0
   -1.2234    2.5950    0.3596 H   0  0  0  0  0  0  0  0  0  0  0  0
   -5.2165   -1.3700   -0.0420 H   0  0  0  0  0  0  0  0  0  0  0  0
   -5.6009    0.2844    0.3926 H   0  0  0  0  0  0  0  0  0  0  0  0
   -5.0318   -0.0803   -1.2492 H   0  0  0  0  0  0  0  0  0  0  0  0
   -4.0039    0.0235    2.1654 H   0  0  0  0  0  0  0  0  0  0  0  0
   -2.1507    2.3969    2.4142 H   0  0  0  0  0  0  0  0  0  0  0  0
    3.9624    2.8990    1.4306 H   0  0  0  0  0  0  0  0  0  0  0  0
    3.8136   -2.3848   -1.2267 H   0  0  0  0  0  0  0  0  0  0  0  0
   -3.0970    3.0462   -3.4570 H   0  0  0  0  0  0  0  0  0  0  0  0
   -1.4302    2.7626   -2.8462 H   0  0  0  0  0  0  0  0  0  0  0  0
   -2.1075    4.4035   -2.8805 H   0  0  0  0  0  0  0  0  0  0  0  0
   -3.0886   -4.7334    0.8155 H   0  0  0  0  0  0  0  0  0  0  0  0
   -4.3333   -3.5763    1.4014 H   0  0  0  0  0  0  0  0  0  0  0  0
   -3.0566   -4.1509    2.4927 H   0  0  0  0  0  0  0  0  0  0  0  0
    6.2563    2.3691    1.1697 H   0  0  0  0  0  0  0  0  0  0  0  0
    7.0440    0.3030    0.1294 H   0  0  0  0  0  0  0  0  0  0  0  0
  1 12  1  0  0  0  0
  1 40  1  0  0  0  0
  2 13  1  0  0  0  0
  2 26  1  0  0  0  0
  3 14  1  0  0  0  0
  3 27  1  0  0  0  0
  4 15  1  0  0  0  0
  4 41  1  0  0  0  0
  5 23  1  0  0  0  0
  5 43  1  0  0  0  0
  6 22  1  0  0  0  0
  7 26  2  0  0  0  0
  8 27  2  0  0  0  0
  9 29  2  0  0  0  0
 10 11  3  0  0  0  0
 10 20  1  0  0  0  0
 12 13  1  0  0  0  0
 12 14  1  0  0  0  0
 12 19  1  0  0  0  0
 13 15  1  0  0  0  0
 13 34  1  0  0  0  0
 14 16  1  0  0  0  0
 14 35  1  0  0  0  0
 15 17  1  0  0  0  0
 15 36  1  0  0  0  0
 16 17  2  0  0  0  0
 16 20  1  0  0  0  0
 17 18  1  0  0  0  0
 18 21  1  0  0  0  0
 18 22  2  0  0  0  0
 19 37  1  0  0  0  0
 19 38  1  0  0  0  0
 19 39  1  0  0  0  0
 20 21  2  0  0  0  0
 21 23  1  0  0  0  0
 22 24  1  0  0  0  0
 23 25  2  0  0  0  0
 24 25  1  0  0  0  0
 24 28  2  0  0  0  0
 25 29  1  0  0  0  0
 26 30  1  0  0  0  0
 27 31  1  0  0  0  0
 28 32  1  0  0  0  0
 28 42  1  0  0  0  0
 29 33  1  0  0  0  0
 30 44  1  0  0  0  0
 30 45  1  0  0  0  0
 30 46  1  0  0  0  0
 31 47  1  0  0  0  0
 31 48  1  0  0  0  0
 31 49  1  0  0  0  0
 32 33  2  0  0  0  0
 32 50  1  0  0  0  0
 33 51  1  0  0  0  0
M  CHG  2   6  -1  10   1
M  END
> <PUBCHEM_COMPOUND_CID>
161865

> <PUBCHEM_CONFORMER_RMSD>
0.8

> <PUBCHEM_CONFORMER_DIVERSEORDER>
1
2
3
4
5

> <PUBCHEM_MMFF94_PARTIAL_CHARGES>
35
1 -0.68
10 1.36
11 -0.49
12 0.28
13 0.28
14 0.42
15 0.42
16 -0.14
17 -0.14
2 -0.43
20 0.13
22 -0.15
23 0.08
25 0.01
26 0.66
27 0.66
28 -0.15
29 0.54
3 -0.43
30 0.06
31 0.06
32 -0.15
33 -0.14
4 -0.68
40 0.4
41 0.4
42 0.15
43 0.45
5 -0.53
50 0.15
51 0.15
6 -0.85
7 -0.57
8 -0.57
9 -0.57

> <PUBCHEM_EFFECTIVE_ROTOR_COUNT>
4.8

> <PUBCHEM_PHARMACOPHORE_FEATURES>
12
1 1 acceptor
1 1 donor
1 4 acceptor
1 4 donor
1 5 donor
1 7 acceptor
1 8 acceptor
1 9 acceptor
5 16 17 18 20 21 rings
6 12 13 14 15 16 17 rings
6 18 21 22 23 24 25 rings
6 24 25 28 29 32 33 rings

> <PUBCHEM_HEAVY_ATOM_COUNT>
33

> <PUBCHEM_ATOM_DEF_STEREO_COUNT>
4

> <PUBCHEM_ATOM_UDEF_STEREO_COUNT>
0

> <PUBCHEM_BOND_DEF_STEREO_COUNT>
0

> <PUBCHEM_BOND_UDEF_STEREO_COUNT>
0

> <PUBCHEM_ISOTOPIC_ATOM_COUNT>
0

> <PUBCHEM_COMPONENT_COUNT>
1

> <PUBCHEM_CACTVS_TAUTO_COUNT>
4

> <PUBCHEM_CONFORMER_ID>
0002784900000001

> <PUBCHEM_MMFF94_ENERGY>
125.703

> <PUBCHEM_FEATURE_SELFOVERLAP>
61.099

> <PUBCHEM_SHAPE_FINGERPRINT>
105312 117 18270971274706894004
10675989 125 17544482311059690080
11578080 2 17840861094621778556
12403259 415 18337109068118263428
12422481 6 18265029376552381731
13140716 1 18262504889286360419
13402501 40 18334858307538619841
13583140 156 18341896303290958466
15324884 4 17761520005619087393
15463212 79 17917157207553780697
17349148 13 17167864192753216408
19591789 44 18187362117387275654
21033648 144 18336546105474898244
21033648 29 18199190766094439956
22182313 1 18187637016700192326
22393880 68 18339364183899408524
23559900 14 18338239262728300928
3380486 145 18118110386908532795
350125 39 18334011674842596273
376196 1 18120666978342538437
4015057 19 17968387856781191736
508706 21 18413114960992594228
5104073 3 18334011675617823314
9709674 26 18335134302242659774

> <PUBCHEM_SHAPE_MULTIPOLES>
616.34
10.23
4.36
1.66
13.09
0.18
-0.28
1.14
0.9
-4.85
-1.19
-0.99
0.21
3.15

> <PUBCHEM_SHAPE_SELFOVERLAP>
1372.633

> <PUBCHEM_SHAPE_VOLUME>
321.9

> <PUBCHEM_COORDINATE_TYPE>
2
5
10

$$$$

