3034319
  -OEChem-07051213133D

 27 27  0     0  0  0  0  0  0999 V2000
   -3.2493   -1.1495    1.3107 S   0  0  0  0  0  0  0  0  0  0  0  0
   -0.8725   -1.2681    0.2077 N   0  0  0  0  0  0  0  0  0  0  0  0
   -2.1825    0.6151   -0.4762 N   0  0  0  0  0  0  0  0  0  0  0  0
    0.4683   -0.8243    0.0881 C   0  0  0  0  0  0  0  0  0  0  0  0
    2.1092    0.9033    0.3486 C   0  0  0  0  0  0  0  0  0  0  0  0
    0.7894    0.4676    0.4668 C   0  0  0  0  0  0  0  0  0  0  0  0
    1.4252   -1.6940   -0.4053 C   0  0  0  0  0  0  0  0  0  0  0  0
   -2.0366   -0.5321    0.3064 C   0  0  0  0  0  0  0  0  0  0  0  0
    3.0869    0.0404   -0.1465 C   0  0  0  0  0  0  0  0  0  0  0  0
    2.7449   -1.2582   -0.5234 C   0  0  0  0  0  0  0  0  0  0  0  0
    2.4752    2.2918    0.7521 C   0  0  0  0  0  0  0  0  0  0  0  0
   -2.9807    1.7621   -0.0462 C   0  0  0  0  0  0  0  0  0  0  0  0
   -1.7775    0.6459   -1.8827 C   0  0  0  0  0  0  0  0  0  0  0  0
    0.0475    1.1449    0.8796 H   0  0  0  0  0  0  0  0  0  0  0  0
   -0.9718   -2.2726    0.3366 H   0  0  0  0  0  0  0  0  0  0  0  0
    1.1676   -2.7067   -0.7023 H   0  0  0  0  0  0  0  0  0  0  0  0
    4.1191    0.3669   -0.2418 H   0  0  0  0  0  0  0  0  0  0  0  0
    3.5062   -1.9302   -0.9088 H   0  0  0  0  0  0  0  0  0  0  0  0
    3.3624    2.6422    0.2139 H   0  0  0  0  0  0  0  0  0  0  0  0
    1.6648    2.9926    0.5242 H   0  0  0  0  0  0  0  0  0  0  0  0
    2.6819    2.3286    1.8264 H   0  0  0  0  0  0  0  0  0  0  0  0
   -2.4848    2.6825   -0.3683 H   0  0  0  0  0  0  0  0  0  0  0  0
   -3.0822    1.7830    1.0420 H   0  0  0  0  0  0  0  0  0  0  0  0
   -3.9714    1.6963   -0.5052 H   0  0  0  0  0  0  0  0  0  0  0  0
   -2.6666    0.8015   -2.5014 H   0  0  0  0  0  0  0  0  0  0  0  0
   -1.3086   -0.2942   -2.1832 H   0  0  0  0  0  0  0  0  0  0  0  0
   -1.0773    1.4725   -2.0306 H   0  0  0  0  0  0  0  0  0  0  0  0
  1  8  2  0  0  0  0
  2  4  1  0  0  0  0
  2  8  1  0  0  0  0
  2 15  1  0  0  0  0
  3  8  1  0  0  0  0
  3 12  1  0  0  0  0
  3 13  1  0  0  0  0
  4  6  1  0  0  0  0
  4  7  2  0  0  0  0
  5  6  2  0  0  0  0
  5  9  1  0  0  0  0
  5 11  1  0  0  0  0
  6 14  1  0  0  0  0
  7 10  1  0  0  0  0
  7 16  1  0  0  0  0
  9 10  2  0  0  0  0
  9 17  1  0  0  0  0
 10 18  1  0  0  0  0
 11 19  1  0  0  0  0
 11 20  1  0  0  0  0
 11 21  1  0  0  0  0
 12 22  1  0  0  0  0
 12 23  1  0  0  0  0
 12 24  1  0  0  0  0
 13 25  1  0  0  0  0
 13 26  1  0  0  0  0
 13 27  1  0  0  0  0
M  END
> <PUBCHEM_COMPOUND_CID>
3034319

> <PUBCHEM_CONFORMER_RMSD>
0.6

> <PUBCHEM_CONFORMER_DIVERSEORDER>
1
4
11
13
22
10
5
16
7
12
24
14
15
17
8
2
9
6
23
18
3
21
19
20

> <PUBCHEM_MMFF94_PARTIAL_CHARGES>
18
1 -0.38
10 -0.15
11 0.14
12 0.3
13 0.3
14 0.15
15 0.37
16 0.15
17 0.15
18 0.15
2 -0.55
3 -0.66
4 0.12
5 -0.14
6 -0.15
7 -0.15
8 0.5
9 -0.15

> <PUBCHEM_EFFECTIVE_ROTOR_COUNT>
3

> <PUBCHEM_PHARMACOPHORE_FEATURES>
3
1 1 acceptor
1 2 donor
6 4 5 6 7 9 10 rings

> <PUBCHEM_HEAVY_ATOM_COUNT>
13

> <PUBCHEM_ATOM_DEF_STEREO_COUNT>
0

> <PUBCHEM_ATOM_UDEF_STEREO_COUNT>
0

> <PUBCHEM_BOND_DEF_STEREO_COUNT>
0

> <PUBCHEM_BOND_UDEF_STEREO_COUNT>
0

> <PUBCHEM_ISOTOPIC_ATOM_COUNT>
0

> <PUBCHEM_COMPONENT_COUNT>
1

> <PUBCHEM_CACTVS_TAUTO_COUNT>
2

> <PUBCHEM_CONFORMER_ID>
002E4CCF00000001

> <PUBCHEM_MMFF94_ENERGY>
54.2133

> <PUBCHEM_FEATURE_SELFOVERLAP>
15.223

> <PUBCHEM_SHAPE_FINGERPRINT>
10130415 120 18125445464820585578
10608611 8 18411138034759152537
10857977 72 17703784774224048651
124424 183 18129395937179588698
12654215 9 18336830904745408564
12932764 1 18411697664708362538
13294875 104 17412776129493536329
13380536 127 15769776883344565669
13764800 53 18201998863267817801
14648413 74 18409731793651915968
15219456 202 18410854352174299114
15653759 3 18131064943858240186
15775835 57 17703508916827041481
16945 1 18260832609378100158
17844478 74 18271232846810007147
18186145 218 17822284635723331632
18380122 1 18199185092404958715
19049666 15 18342453802387705098
19973954 147 18410855460191660281
20653085 51 18187653547844769389
20715346 28 18343304738503795915
21524375 3 17828491267308892224
21947302 44 18337403689862792296
22802520 49 18410291457908012820
23557571 272 17988076682587512483
25 1 18051414264490214669
2748010 2 18412830170147935700
5084963 1 18060692883965868874
6049 1 18341040869890018233
77492 1 16588021312037656243
8050 44 18339658753646316445
81228 2 17703500013850635915

> <PUBCHEM_SHAPE_MULTIPOLES>
261.42
5.61
2.05
1.18
1.08
0.6
0.34
0.64
-0.74
-0.43
-0.24
0.78
0.14
1.36

> <PUBCHEM_SHAPE_SELFOVERLAP>
518.694

> <PUBCHEM_SHAPE_VOLUME>
158.2

> <PUBCHEM_COORDINATE_TYPE>
2
5
10

$$$$

