440077
  -OEChem-07051212483D

 21 20  0     1  0  0  0  0  0999 V2000
    0.4051    1.7556   -0.2901 O   0  0  0  0  0  0  0  0  0  0  0  0
    3.0629   -1.4859   -0.1346 O   0  0  0  0  0  0  0  0  0  0  0  0
    2.8641    0.7583    0.1726 O   0  0  0  0  0  0  0  0  0  0  0  0
   -3.5112   -0.6217    0.7166 N   0  0  0  0  0  0  0  0  0  0  0  0
   -2.2229   -0.5179    0.0285 C   0  0  2  0  0  0  0  0  0  0  0  0
   -1.3558    0.5141    0.7547 C   0  0  0  0  0  0  0  0  0  0  0  0
    0.0167    0.6632    0.1243 C   0  0  0  0  0  0  0  0  0  0  0  0
   -2.4742   -0.1354   -1.4293 C   0  0  0  0  0  0  0  0  0  0  0  0
    0.8652   -0.5865    0.0237 C   0  0  0  0  0  0  0  0  0  0  0  0
    2.3501   -0.3437    0.0335 C   0  0  0  0  0  0  0  0  0  0  0  0
   -1.7410   -1.5017    0.0538 H   0  0  0  0  0  0  0  0  0  0  0  0
   -1.8406    1.4987    0.7510 H   0  0  0  0  0  0  0  0  0  0  0  0
   -1.2062    0.2340    1.8046 H   0  0  0  0  0  0  0  0  0  0  0  0
   -1.5406   -0.1050   -2.0002 H   0  0  0  0  0  0  0  0  0  0  0  0
   -3.1281   -0.8661   -1.9188 H   0  0  0  0  0  0  0  0  0  0  0  0
   -2.9501    0.8485   -1.5099 H   0  0  0  0  0  0  0  0  0  0  0  0
    0.6399   -1.2274    0.8828 H   0  0  0  0  0  0  0  0  0  0  0  0
    0.5985   -1.1008   -0.9046 H   0  0  0  0  0  0  0  0  0  0  0  0
   -3.3630   -0.9286    1.6772 H   0  0  0  0  0  0  0  0  0  0  0  0
   -4.0819   -1.3391    0.2710 H   0  0  0  0  0  0  0  0  0  0  0  0
    4.0294   -1.3183   -0.1291 H   0  0  0  0  0  0  0  0  0  0  0  0
  1  7  2  0  0  0  0
  2 10  1  0  0  0  0
  2 21  1  0  0  0  0
  3 10  2  0  0  0  0
  4  5  1  0  0  0  0
  4 19  1  0  0  0  0
  4 20  1  0  0  0  0
  5  6  1  0  0  0  0
  5  8  1  0  0  0  0
  5 11  1  0  0  0  0
  6  7  1  0  0  0  0
  6 12  1  0  0  0  0
  6 13  1  0  0  0  0
  7  9  1  0  0  0  0
  8 14  1  0  0  0  0
  8 15  1  0  0  0  0
  8 16  1  0  0  0  0
  9 10  1  0  0  0  0
  9 17  1  0  0  0  0
  9 18  1  0  0  0  0
M  END
> <PUBCHEM_COMPOUND_CID>
440077

> <PUBCHEM_CONFORMER_RMSD>
0.6

> <PUBCHEM_CONFORMER_DIVERSEORDER>
1
29
55
15
46
4
21
35
39
22
30
19
71
12
51
38
34
17
31
8
70
59
66
57
27
67
45
9
60
10
26
24
58
5
54
56
47
65
41
68
23
13
11
48
7
20
32
63
62
36
61
6
14
49
64
25
2
16
3
43
28
42
53
52
40
18
69
44
37
50
33

> <PUBCHEM_MMFF94_PARTIAL_CHARGES>
12
1 -0.57
10 0.66
19 0.36
2 -0.65
20 0.36
21 0.5
3 -0.57
4 -0.99
5 0.27
6 0.06
7 0.45
9 0.12

> <PUBCHEM_EFFECTIVE_ROTOR_COUNT>
4

> <PUBCHEM_PHARMACOPHORE_FEATURES>
7
1 1 acceptor
1 2 acceptor
1 3 acceptor
1 4 cation
1 4 donor
1 9 anion
3 2 3 10 anion

> <PUBCHEM_HEAVY_ATOM_COUNT>
10

> <PUBCHEM_ATOM_DEF_STEREO_COUNT>
1

> <PUBCHEM_ATOM_UDEF_STEREO_COUNT>
0

> <PUBCHEM_BOND_DEF_STEREO_COUNT>
0

> <PUBCHEM_BOND_UDEF_STEREO_COUNT>
0

> <PUBCHEM_ISOTOPIC_ATOM_COUNT>
0

> <PUBCHEM_COMPONENT_COUNT>
1

> <PUBCHEM_CACTVS_TAUTO_COUNT>
5

> <PUBCHEM_CONFORMER_ID>
0006B70D00000001

> <PUBCHEM_MMFF94_ENERGY>
2.7505

> <PUBCHEM_FEATURE_SELFOVERLAP>
35.851

> <PUBCHEM_SHAPE_FINGERPRINT>
10219947 1 18333447638346507335
11062470 55 18260547814296581353
12897270 3 18201725097382746550
12932764 1 17530967972917986488
14128692 85 18041285344231498797
14390081 3 9151177540998220475
15310529 11 16845581915334356475
20201158 50 18201719535336970299
20653085 51 13470121981343279294
20711985 344 17984152722850656800
21028194 46 8790881899817538041
21293036 1 17846772988513957862
23552423 10 18200588224029583010
29004967 10 18341895181755861312

> <PUBCHEM_SHAPE_MULTIPOLES>
183.21
5.2
1.25
0.93
0.22
0.2
-0.21
-1.71
0.1
0.65
-0.06
-0.8
-0.02
0.03

> <PUBCHEM_SHAPE_SELFOVERLAP>
345.566

> <PUBCHEM_SHAPE_VOLUME>
113.2

> <PUBCHEM_COORDINATE_TYPE>
2
5
10

$$$$

