47205109
  -OEChem-06241222582D

 33 35  0     0  0  0  0  0  0999 V2000
    7.1270   -2.9059    0.0000 O   0  0  0  0  0  0  0  0  0  0  0  0
    6.1808    0.3988    0.0000 O   0  0  0  0  0  0  0  0  0  0  0  0
    4.4487    0.3988    0.0000 N   0  0  0  0  0  0  0  0  0  0  0  0
    5.3147   -3.1012    0.0000 N   0  0  0  0  0  0  0  0  0  0  0  0
    7.7106   -2.1012    0.0000 N   0  0  0  0  0  0  0  0  0  0  0  0
    2.6691    1.4921    0.0000 N   0  0  0  0  0  0  0  0  0  0  0  0
    2.0000    2.2352    0.0000 N   0  0  0  0  0  0  0  0  0  0  0  0
    6.1808   -1.6012    0.0000 C   0  0  0  0  0  0  0  0  0  0  0  0
    5.3147   -1.1012    0.0000 C   0  0  0  0  0  0  0  0  0  0  0  0
    6.1808   -2.6012    0.0000 C   0  0  0  0  0  0  0  0  0  0  0  0
    7.1270   -1.2965    0.0000 C   0  0  0  0  0  0  0  0  0  0  0  0
    4.4487   -1.6012    0.0000 C   0  0  0  0  0  0  0  0  0  0  0  0
    5.3147   -0.1012    0.0000 C   0  0  0  0  0  0  0  0  0  0  0  0
    4.4487    1.3988    0.0000 C   0  0  0  0  0  0  0  0  0  0  0  0
    4.4487   -2.6012    0.0000 C   0  0  0  0  0  0  0  0  0  0  0  0
    3.5827    1.8988    0.0000 C   0  0  0  0  0  0  0  0  0  0  0  0
    7.4376   -0.3460    0.0000 C   0  0  0  0  0  0  0  0  0  0  0  0
    3.5827   -3.1012    0.0000 C   0  0  0  0  0  0  0  0  0  0  0  0
    3.4782    2.8933    0.0000 C   0  0  0  0  0  0  0  0  0  0  0  0
    2.5000    3.1012    0.0000 C   0  0  0  0  0  0  0  0  0  0  0  0
    3.9118   -1.2912    0.0000 H   0  0  0  0  0  0  0  0  0  0  0  0
    5.0593    1.2911    0.0000 H   0  0  0  0  0  0  0  0  0  0  0  0
    4.6608    1.9814    0.0000 H   0  0  0  0  0  0  0  0  0  0  0  0
    3.9118    0.0888    0.0000 H   0  0  0  0  0  0  0  0  0  0  0  0
    8.0270   -0.5386    0.0000 H   0  0  0  0  0  0  0  0  0  0  0  0
    7.6302    0.2434    0.0000 H   0  0  0  0  0  0  0  0  0  0  0  0
    6.8483   -0.1534    0.0000 H   0  0  0  0  0  0  0  0  0  0  0  0
    3.2727   -2.5643    0.0000 H   0  0  0  0  0  0  0  0  0  0  0  0
    3.0457   -3.4112    0.0000 H   0  0  0  0  0  0  0  0  0  0  0  0
    3.8927   -3.6382    0.0000 H   0  0  0  0  0  0  0  0  0  0  0  0
    3.9389    3.3082    0.0000 H   0  0  0  0  0  0  0  0  0  0  0  0
    2.5402    0.8856    0.0000 H   0  0  0  0  0  0  0  0  0  0  0  0
    2.2478    3.6676    0.0000 H   0  0  0  0  0  0  0  0  0  0  0  0
  1  5  1  0  0  0  0
  1 10  1  0  0  0  0
  2 13  2  0  0  0  0
  3 13  1  0  0  0  0
  3 14  1  0  0  0  0
  3 24  1  0  0  0  0
  4 10  2  0  0  0  0
  4 15  1  0  0  0  0
  5 11  2  0  0  0  0
  6  7  1  0  0  0  0
  6 16  1  0  0  0  0
  6 32  1  0  0  0  0
  7 20  2  0  0  0  0
  8  9  2  0  0  0  0
  8 10  1  0  0  0  0
  8 11  1  0  0  0  0
  9 12  1  0  0  0  0
  9 13  1  0  0  0  0
 11 17  1  0  0  0  0
 12 15  2  0  0  0  0
 12 21  1  0  0  0  0
 14 16  1  0  0  0  0
 14 22  1  0  0  0  0
 14 23  1  0  0  0  0
 15 18  1  0  0  0  0
 16 19  2  0  0  0  0
 17 25  1  0  0  0  0
 17 26  1  0  0  0  0
 17 27  1  0  0  0  0
 18 28  1  0  0  0  0
 18 29  1  0  0  0  0
 18 30  1  0  0  0  0
 19 20  1  0  0  0  0
 19 31  1  0  0  0  0
 20 33  1  0  0  0  0
M  END
> <PUBCHEM_COMPOUND_CID>
47205109

> <PUBCHEM_COMPOUND_CANONICALIZED>
1

> <PUBCHEM_CACTVS_COMPLEXITY>
367

> <PUBCHEM_CACTVS_HBOND_ACCEPTOR>
5

> <PUBCHEM_CACTVS_HBOND_DONOR>
2

> <PUBCHEM_CACTVS_ROTATABLE_BOND>
3

> <PUBCHEM_CACTVS_SUBSKEYS>
AAADccBzsAAAAAAAAAAAAAAAAAAAAWLAAAAsAAAAAAAAAFgB/gAAHgAcAAAADAjBngQ+hNL7EACrAzV3VgCShCAloiA4uaE8bNoIZvrA1dOUtYhm3hnIyce/2QEegAAAAAAAAAAAAAAAAAAAAAAAAAAAAA==

> <PUBCHEM_IUPAC_OPENEYE_NAME>
3,6-dimethyl-N-(1H-pyrazol-5-ylmethyl)isoxazolo[5,4-b]pyridine-4-carboxamide

> <PUBCHEM_IUPAC_CAS_NAME>
3,6-dimethyl-N-(1H-pyrazol-5-ylmethyl)-4-isoxazolo[5,4-b]pyridinecarboxamide

> <PUBCHEM_IUPAC_NAME>
3,6-dimethyl-N-(1H-pyrazol-5-ylmethyl)-[1,2]oxazolo[5,4-b]pyridine-4-carboxamide

> <PUBCHEM_IUPAC_SYSTEMATIC_NAME>
3,6-dimethyl-N-(1H-pyrazol-5-ylmethyl)-[1,2]oxazolo[5,4-b]pyridine-4-carboxamide

> <PUBCHEM_IUPAC_TRADITIONAL_NAME>
3,6-dimethyl-N-(1H-pyrazol-5-ylmethyl)isoxazolo[5,4-b]pyridine-4-carboxamide

> <PUBCHEM_IUPAC_INCHI>
InChI=1S/C13H13N5O2/c1-7-5-10(11-8(2)18-20-13(11)16-7)12(19)14-6-9-3-4-15-17-9/h3-5H,6H2,1-2H3,(H,14,19)(H,15,17)

> <PUBCHEM_IUPAC_INCHIKEY>
KNDIJWZYKDCPBR-UHFFFAOYSA-N

> <PUBCHEM_XLOGP3_AA>
0.9

> <PUBCHEM_EXACT_MASS>
271.106925

> <PUBCHEM_MOLECULAR_FORMULA>
C13H13N5O2

> <PUBCHEM_MOLECULAR_WEIGHT>
271.27462

> <PUBCHEM_OPENEYE_CAN_SMILES>
CC1=NC2=C(C(=NO2)C)C(=C1)C(=O)NCC3=CC=NN3

> <PUBCHEM_OPENEYE_ISO_SMILES>
CC1=NC2=C(C(=NO2)C)C(=C1)C(=O)NCC3=CC=NN3

> <PUBCHEM_CACTVS_TPSA>
96.7

> <PUBCHEM_MONOISOTOPIC_WEIGHT>
271.106925

> <PUBCHEM_TOTAL_CHARGE>
0

> <PUBCHEM_HEAVY_ATOM_COUNT>
20

> <PUBCHEM_ATOM_DEF_STEREO_COUNT>
0

> <PUBCHEM_ATOM_UDEF_STEREO_COUNT>
0

> <PUBCHEM_BOND_DEF_STEREO_COUNT>
0

> <PUBCHEM_BOND_UDEF_STEREO_COUNT>
0

> <PUBCHEM_ISOTOPIC_ATOM_COUNT>
0

> <PUBCHEM_COMPONENT_COUNT>
1

> <PUBCHEM_CACTVS_TAUTO_COUNT>
4

> <PUBCHEM_COORDINATE_TYPE>
1
5
255

> <PUBCHEM_BONDANNOTATIONS>
1  10  8
1  5  8
12  15  8
16  19  8
19  20  8
4  10  8
4  15  8
5  11  8
6  16  8
6  7  8
7  20  8
8  10  8
8  11  8
8  9  8
9  12  8

$$$$

