182313
  -OEChem-07051213083D

 28 30  0     1  0  0  0  0  0999 V2000
    2.3401   -2.2942    0.0632 O   0  0  0  0  0  0  0  0  0  0  0  0
    3.5671   -0.3610   -1.3787 O   0  0  0  0  0  0  0  0  0  0  0  0
    2.2211   -0.9695    0.5728 C   0  0  2  0  0  0  0  0  0  0  0  0
    0.8445   -0.3891    0.3086 C   0  0  0  0  0  0  0  0  0  0  0  0
    3.3597   -0.0959    0.0097 C   0  0  2  0  0  0  0  0  0  0  0  0
    0.6966    1.0065    0.2026 C   0  0  0  0  0  0  0  0  0  0  0  0
   -0.2966   -1.2039    0.2631 C   0  0  0  0  0  0  0  0  0  0  0  0
   -1.5771   -0.6537    0.0862 C   0  0  0  0  0  0  0  0  0  0  0  0
    3.1069    1.3738    0.1721 C   0  0  0  0  0  0  0  0  0  0  0  0
   -1.7198    0.7473   -0.0301 C   0  0  0  0  0  0  0  0  0  0  0  0
   -0.5785    1.5629    0.0353 C   0  0  0  0  0  0  0  0  0  0  0  0
    1.8718    1.8826    0.2773 C   0  0  0  0  0  0  0  0  0  0  0  0
   -2.7209   -1.4671    0.0283 C   0  0  0  0  0  0  0  0  0  0  0  0
   -3.0016    1.2952   -0.2041 C   0  0  0  0  0  0  0  0  0  0  0  0
   -3.9865   -0.9067   -0.1449 C   0  0  0  0  0  0  0  0  0  0  0  0
   -4.1267    0.4726   -0.2614 C   0  0  0  0  0  0  0  0  0  0  0  0
    2.3233   -1.0262    1.6651 H   0  0  0  0  0  0  0  0  0  0  0  0
    4.2923   -0.3633    0.5202 H   0  0  0  0  0  0  0  0  0  0  0  0
   -0.1908   -2.2817    0.3755 H   0  0  0  0  0  0  0  0  0  0  0  0
    3.9628    2.0421    0.1835 H   0  0  0  0  0  0  0  0  0  0  0  0
   -0.6866    2.6439   -0.0478 H   0  0  0  0  0  0  0  0  0  0  0  0
    1.7220    2.9521    0.3767 H   0  0  0  0  0  0  0  0  0  0  0  0
   -2.6353   -2.5482    0.1174 H   0  0  0  0  0  0  0  0  0  0  0  0
   -3.1349    2.3713   -0.2956 H   0  0  0  0  0  0  0  0  0  0  0  0
    3.2125   -2.6318    0.3290 H   0  0  0  0  0  0  0  0  0  0  0  0
    3.7103   -1.3179   -1.4746 H   0  0  0  0  0  0  0  0  0  0  0  0
   -4.8622   -1.5476   -0.1885 H   0  0  0  0  0  0  0  0  0  0  0  0
   -5.1119    0.9095   -0.3960 H   0  0  0  0  0  0  0  0  0  0  0  0
  1  3  1  0  0  0  0
  1 25  1  0  0  0  0
  2  5  1  0  0  0  0
  2 26  1  0  0  0  0
  3  4  1  0  0  0  0
  3  5  1  0  0  0  0
  3 17  1  0  0  0  0
  4  6  1  0  0  0  0
  4  7  2  0  0  0  0
  5  9  1  0  0  0  0
  5 18  1  0  0  0  0
  6 11  2  0  0  0  0
  6 12  1  0  0  0  0
  7  8  1  0  0  0  0
  7 19  1  0  0  0  0
  8 10  1  0  0  0  0
  8 13  2  0  0  0  0
  9 12  2  0  0  0  0
  9 20  1  0  0  0  0
 10 11  1  0  0  0  0
 10 14  2  0  0  0  0
 11 21  1  0  0  0  0
 12 22  1  0  0  0  0
 13 15  1  0  0  0  0
 13 23  1  0  0  0  0
 14 16  1  0  0  0  0
 14 24  1  0  0  0  0
 15 16  2  0  0  0  0
 15 27  1  0  0  0  0
 16 28  1  0  0  0  0
M  END
> <PUBCHEM_COMPOUND_CID>
182313

> <PUBCHEM_CONFORMER_RMSD>
0.4

> <PUBCHEM_CONFORMER_DIVERSEORDER>
1
2

> <PUBCHEM_MMFF94_PARTIAL_CHARGES>
24
1 -0.68
11 -0.15
12 -0.18
13 -0.15
14 -0.15
15 -0.15
16 -0.15
19 0.15
2 -0.68
20 0.15
21 0.15
22 0.15
23 0.15
24 0.15
25 0.4
26 0.4
27 0.15
28 0.15
3 0.42
4 -0.14
5 0.42
6 0.03
7 -0.15
9 -0.29

> <PUBCHEM_EFFECTIVE_ROTOR_COUNT>
0.4

> <PUBCHEM_PHARMACOPHORE_FEATURES>
7
1 1 acceptor
1 1 donor
1 2 acceptor
1 2 donor
6 3 4 5 6 9 12 rings
6 4 6 7 8 10 11 rings
6 8 10 13 14 15 16 rings

> <PUBCHEM_HEAVY_ATOM_COUNT>
16

> <PUBCHEM_ATOM_DEF_STEREO_COUNT>
2

> <PUBCHEM_ATOM_UDEF_STEREO_COUNT>
0

> <PUBCHEM_BOND_DEF_STEREO_COUNT>
0

> <PUBCHEM_BOND_UDEF_STEREO_COUNT>
0

> <PUBCHEM_ISOTOPIC_ATOM_COUNT>
0

> <PUBCHEM_COMPONENT_COUNT>
1

> <PUBCHEM_CACTVS_TAUTO_COUNT>
1

> <PUBCHEM_CONFORMER_ID>
0002C82900000001

> <PUBCHEM_MMFF94_ENERGY>
45.1515

> <PUBCHEM_FEATURE_SELFOVERLAP>
35.582

> <PUBCHEM_SHAPE_FINGERPRINT>
10465860 71 18335404799351326204
10608611 8 18411989039711252049
10616163 171 18336828589552924911
10967382 1 18411422799654236771
10980938 120 18411140212312632010
11132069 177 18410582751322348161
11471102 20 18410580560799284764
12032990 46 18409726231927658905
13140716 1 18339647840429401137
13221675 6 18410294700718915707
13296908 3 18334576819597723621
13380535 76 18342182111446617586
13897977 150 18411424994414342329
14144814 61 18411422821266229905
14325111 11 18411422791249210761
15196674 1 18411421691463062049
15219456 202 18409451349578145513
15442244 35 18265899248773215417
15536298 74 18334579014294551832
16945 1 18338237166720924264
17834074 16 18410293584169778587
18186145 218 18410013251622980005
200 152 17968099702913810961
20201158 50 18411139134175743834
20523700 14 18201995517213779774
20559304 39 18340777034734564562
20645477 70 18187083940343906087
21267235 1 18410849958449473323
21501502 16 18411421738881756185
221490 88 18340481188544249162
22854114 111 18343586235060896640
2334 1 18411705344220274433
23402539 116 18335713710368055428
23402655 69 18409735070965358821
23463225 33 18411704300442968633
23559900 14 18336552702586583530
2748010 2 17836643020230565426
2838139 119 16271346510705272908
2871803 45 18341339881624705175
335352 9 18122911103355698797
474 4 16915935163370529564
4990 188 18260260858809725916
5104073 3 18411704270452207473
53812653 166 18336835199301598976
69090 78 18261681385168053951
7364860 26 18335425668655374506
8809292 202 18272368633594610115
93112 12 18409731755186977831
9709674 26 18411135797070901563

> <PUBCHEM_SHAPE_MULTIPOLES>
317.53
7
1.97
0.74
2.11
0.12
-0.11
0.35
-1.03
-0.51
0.1
-0.36
0.04
0.2

> <PUBCHEM_SHAPE_SELFOVERLAP>
707.398

> <PUBCHEM_SHAPE_VOLUME>
168.1

> <PUBCHEM_COORDINATE_TYPE>
2
5
10

$$$$

