11593018
  -OEChem-07051213093D

 43 45  0     1  0  0  0  0  0999 V2000
    4.1266   -1.5177    0.2595 S   0  0  0  0  0  0  0  0  0  0  0  0
    2.1553    2.2516    0.4896 O   0  0  0  0  0  0  0  0  0  0  0  0
    0.8868    1.1767    2.1357 O   0  0  0  0  0  0  0  0  0  0  0  0
    3.2287   -0.2404    0.7385 O   0  0  0  0  0  0  0  0  0  0  0  0
   -2.8463   -1.6918    0.2910 O   0  0  0  0  0  0  0  0  0  0  0  0
    5.5351   -1.3170    1.0575 O   0  0  0  0  0  0  0  0  0  0  0  0
    3.4946   -2.7144    0.7828 O   0  0  0  0  0  0  0  0  0  0  0  0
    4.3977   -1.3983   -1.1611 O   0  0  0  0  0  0  0  0  0  0  0  0
   -4.8871   -2.5215    0.9594 O   0  0  0  0  0  0  0  0  0  0  0  0
    0.3762    0.4521   -1.3399 N   0  0  0  0  0  0  0  0  0  0  0  0
   -1.7696    1.9605    1.0707 N   0  0  0  0  0  0  0  0  0  0  0  0
   -0.2453    2.7651   -0.4151 N   0  0  0  0  0  0  0  0  0  0  0  0
   -1.8547   -0.1870   -1.9072 N   0  0  0  0  0  0  0  0  0  0  0  0
   -0.0920   -0.6965   -3.3096 N   0  0  0  0  0  0  0  0  0  0  0  0
   -1.7424    4.2653    0.7074 N   0  0  0  0  0  0  0  0  0  0  0  0
   -2.9658   -3.7624    1.1955 N   0  0  0  0  0  0  0  0  0  0  0  0
    0.0037    1.2931   -0.1901 C   0  0  1  0  0  0  0  0  0  0  0  0
   -1.3291    0.7577    0.3956 C   0  0  2  0  0  0  0  0  0  0  0  0
    1.2497    1.1800    0.7664 C   0  0  0  0  0  0  0  0  0  0  0  0
    1.8727   -0.1515    0.3469 C   0  0  1  0  0  0  0  0  0  0  0  0
    1.7157   -0.1158   -1.1652 C   0  0  0  0  0  0  0  0  0  0  0  0
   -2.3824    0.4361   -0.6909 C   0  0  2  0  0  0  0  0  0  0  0  0
   -0.5835   -0.1295   -2.1553 C   0  0  0  0  0  0  0  0  0  0  0  0
   -1.2080    3.0408    0.4405 C   0  0  0  0  0  0  0  0  0  0  0  0
   -3.4623   -0.4894   -0.1290 C   0  0  0  0  0  0  0  0  0  0  0  0
   -3.6742   -2.6458    0.8264 C   0  0  0  0  0  0  0  0  0  0  0  0
   -1.1654   -0.0710    1.0912 H   0  0  0  0  0  0  0  0  0  0  0  0
    1.3126   -0.9865    0.7877 H   0  0  0  0  0  0  0  0  0  0  0  0
    2.4627    0.5206   -1.6527 H   0  0  0  0  0  0  0  0  0  0  0  0
    1.7986   -1.1261   -1.5792 H   0  0  0  0  0  0  0  0  0  0  0  0
   -2.8902    1.3549   -1.0140 H   0  0  0  0  0  0  0  0  0  0  0  0
   -2.6194    1.9986    1.6211 H   0  0  0  0  0  0  0  0  0  0  0  0
   -4.2082   -0.7108   -0.9023 H   0  0  0  0  0  0  0  0  0  0  0  0
   -3.9643   -0.0130    0.7215 H   0  0  0  0  0  0  0  0  0  0  0  0
    1.6317    3.0567    0.3436 H   0  0  0  0  0  0  0  0  0  0  0  0
    0.2122    1.8613    2.2732 H   0  0  0  0  0  0  0  0  0  0  0  0
   -0.7127   -1.1564   -3.9670 H   0  0  0  0  0  0  0  0  0  0  0  0
    0.8803   -0.6045   -3.5817 H   0  0  0  0  0  0  0  0  0  0  0  0
   -1.3920    5.1028    0.2555 H   0  0  0  0  0  0  0  0  0  0  0  0
   -2.4956    4.3782    1.3771 H   0  0  0  0  0  0  0  0  0  0  0  0
    5.9196   -0.4102    1.0121 H   0  0  0  0  0  0  0  0  0  0  0  0
   -1.9613   -3.8176    1.0651 H   0  0  0  0  0  0  0  0  0  0  0  0
   -3.4249   -4.5664    1.6101 H   0  0  0  0  0  0  0  0  0  0  0  0
  1  4  1  0  0  0  0
  1  6  1  0  0  0  0
  1  7  2  0  0  0  0
  1  8  2  0  0  0  0
  2 19  1  0  0  0  0
  2 35  1  0  0  0  0
  3 19  1  0  0  0  0
  3 36  1  0  0  0  0
  4 20  1  0  0  0  0
  5 25  1  0  0  0  0
  5 26  1  0  0  0  0
  6 41  1  0  0  0  0
  9 26  2  0  0  0  0
 10 17  1  0  0  0  0
 10 21  1  0  0  0  0
 10 23  1  0  0  0  0
 11 18  1  0  0  0  0
 11 24  1  0  0  0  0
 11 32  1  0  0  0  0
 12 17  1  0  0  0  0
 12 24  2  0  0  0  0
 13 22  1  0  0  0  0
 13 23  2  0  0  0  0
 14 23  1  0  0  0  0
 14 37  1  0  0  0  0
 14 38  1  0  0  0  0
 15 24  1  0  0  0  0
 15 39  1  0  0  0  0
 15 40  1  0  0  0  0
 16 26  1  0  0  0  0
 16 42  1  0  0  0  0
 16 43  1  0  0  0  0
 17 18  1  0  0  0  0
 17 19  1  0  0  0  0
 18 22  1  0  0  0  0
 18 27  1  0  0  0  0
 19 20  1  0  0  0  0
 20 21  1  0  0  0  0
 20 28  1  0  0  0  0
 21 29  1  0  0  0  0
 21 30  1  0  0  0  0
 22 25  1  0  0  0  0
 22 31  1  0  0  0  0
 25 33  1  0  0  0  0
 25 34  1  0  0  0  0
M  END
> <PUBCHEM_COMPOUND_CID>
11593018

> <PUBCHEM_CONFORMER_RMSD>
0.8

> <PUBCHEM_CONFORMER_DIVERSEORDER>
6
4
17
20
1
3
11
10
14
12
15
22
24
16
5
18
9
23
21
13
2
7
8
19

> <PUBCHEM_MMFF94_PARTIAL_CHARGES>
36
1 1.67
10 -0.79
11 -0.82
12 -0.7
13 -0.7
14 -0.85
15 -0.85
16 -0.8
17 0.62
18 0.37
19 0.56
2 -0.68
20 0.28
21 0.37
22 0.25
23 0.55
24 0.55
25 0.28
26 0.78
3 -0.68
32 0.4
35 0.4
36 0.4
37 0.4
38 0.4
39 0.4
4 -0.46
40 0.4
41 0.5
42 0.37
43 0.37
5 -0.43
6 -0.68
7 -0.65
8 -0.65
9 -0.57

> <PUBCHEM_EFFECTIVE_ROTOR_COUNT>
6

> <PUBCHEM_PHARMACOPHORE_FEATURES>
18
1 11 donor
1 14 donor
1 15 donor
1 16 donor
1 2 acceptor
1 2 donor
1 3 acceptor
1 3 donor
1 6 acceptor
1 7 acceptor
1 8 acceptor
1 9 acceptor
4 1 6 7 8 anion
4 10 13 14 23 cation
4 11 12 15 24 cation
5 10 17 19 20 21 rings
5 11 12 17 18 24 rings
6 10 13 17 18 22 23 rings

> <PUBCHEM_HEAVY_ATOM_COUNT>
26

> <PUBCHEM_ATOM_DEF_STEREO_COUNT>
4

> <PUBCHEM_ATOM_UDEF_STEREO_COUNT>
0

> <PUBCHEM_BOND_DEF_STEREO_COUNT>
0

> <PUBCHEM_BOND_UDEF_STEREO_COUNT>
0

> <PUBCHEM_ISOTOPIC_ATOM_COUNT>
0

> <PUBCHEM_COMPONENT_COUNT>
1

> <PUBCHEM_CACTVS_TAUTO_COUNT>
12

> <PUBCHEM_CONFORMER_ID>
00B0E53A00000006

> <PUBCHEM_MMFF94_ENERGY>
80.0181

> <PUBCHEM_FEATURE_SELFOVERLAP>
91.875

> <PUBCHEM_SHAPE_FINGERPRINT>
10382601 240 17534908485343198168
107951 10 17831014998122852189
10906281 52 17896310492977671429
11578080 2 17415868824196847109
12506688 2 18269553841030791707
12633257 1 18115284762125594211
12824470 246 18131070458707316698
12969540 37 17984705510969634210
13103583 49 18187910769157439139
13140716 1 18334288769380004657
13631057 29 18342738529382977306
13965767 371 17096920270676120993
14863182 85 16401960541768870875
14866123 147 18122344850841757763
14955137 171 17758110397917319129
15422964 175 18267032656499435617
16945 1 18190734430612490685
20600515 1 18336814399160372501
20602899 9 17627255651074184365
20775530 9 18130510734248520067
23559900 14 18342466893442728776
394222 165 17105635966348148065
463206 1 18199462160862269155
484985 159 18128263482731075179
7097593 13 17975132042041778935

> <PUBCHEM_SHAPE_MULTIPOLES>
457.1
7.57
3.99
1.91
5.41
0.87
-1.5
-8.63
2.73
-3.56
2.15
-0.08
-0.39
0.68

> <PUBCHEM_SHAPE_SELFOVERLAP>
967.681

> <PUBCHEM_SHAPE_VOLUME>
257.8

> <PUBCHEM_COORDINATE_TYPE>
2
5
10

$$$$

