42295
  -OEChem-07051212572D

 42 44  0     1  0  0  0  0  0999 V2000
    8.1298   -0.6900    0.0000 O   0  0  0  0  0  0  0  0  0  0  0  0
    3.3648    0.7923    0.0000 O   0  0  0  0  0  0  0  0  0  0  0  0
    6.8984   -1.9616    0.0000 O   0  0  0  0  0  0  0  0  0  0  0  0
    9.3161    0.6239    0.0000 O   0  0  0  0  0  0  0  0  0  0  0  0
    2.0000   -0.3446    0.0000 O   0  0  0  0  0  0  0  0  0  0  0  0
    6.3796   -0.2692    0.0000 C   0  0  2  0  0  0  0  0  0  0  0  0
    6.6021    0.7058    0.0000 C   0  0  2  0  0  0  0  0  0  0  0  0
    5.9786    1.4876    0.0000 C   0  0  1  0  0  0  0  0  0  0  0  0
    5.4786   -0.7030    0.0000 C   0  0  0  0  0  0  0  0  0  0  0  0
    4.5777   -0.2691    0.0000 C   0  0  1  0  0  0  0  0  0  0  0  0
    4.3552    0.7058    0.0000 C   0  0  1  0  0  0  0  0  0  0  0  0
    4.9786    1.4876    0.0000 C   0  0  0  0  0  0  0  0  0  0  0  0
    7.5926    1.0281    0.0000 C   0  0  0  0  0  0  0  0  0  0  0  0
    7.1322   -0.9893    0.0000 C   0  0  1  0  0  0  0  0  0  0  0  0
    6.1571   -1.2441    0.0000 C   0  0  0  0  0  0  0  0  0  0  0  0
    8.3616    0.3255    0.0000 C   0  0  1  0  0  0  0  0  0  0  0  0
    6.4125    2.3886    0.0000 C   0  0  0  0  0  0  0  0  0  0  0  0
    3.7230   -0.7768    0.0000 C   0  0  0  0  0  0  0  0  0  0  0  0
    2.9749   -0.1221    0.0000 C   0  0  0  0  0  0  0  0  0  0  0  0
    3.6316   -1.7726    0.0000 C   0  0  0  0  0  0  0  0  0  0  0  0
    6.8464    1.5199    0.0000 H   0  0  0  0  0  0  0  0  0  0  0  0
    6.5948    1.5570    0.0000 H   0  0  0  0  0  0  0  0  0  0  0  0
    5.0921   -1.1878    0.0000 H   0  0  0  0  0  0  0  0  0  0  0  0
    5.8652   -1.1878    0.0000 H   0  0  0  0  0  0  0  0  0  0  0  0
    4.6147   -1.1183    0.0000 H   0  0  0  0  0  0  0  0  0  0  0  0
    4.0201    1.4870    0.0000 H   0  0  0  0  0  0  0  0  0  0  0  0
    5.1166    2.0921    0.0000 H   0  0  0  0  0  0  0  0  0  0  0  0
    4.4200    1.7566    0.0000 H   0  0  0  0  0  0  0  0  0  0  0  0
    8.0830    1.4075    0.0000 H   0  0  0  0  0  0  0  0  0  0  0  0
    7.3027    1.5761    0.0000 H   0  0  0  0  0  0  0  0  0  0  0  0
    6.5373   -1.1641    0.0000 H   0  0  0  0  0  0  0  0  0  0  0  0
    5.5526   -1.1061    0.0000 H   0  0  0  0  0  0  0  0  0  0  0  0
    6.0191   -1.8485    0.0000 H   0  0  0  0  0  0  0  0  0  0  0  0
    6.7615   -1.3820    0.0000 H   0  0  0  0  0  0  0  0  0  0  0  0
    8.4961    0.9307    0.0000 H   0  0  0  0  0  0  0  0  0  0  0  0
    6.9711    2.1196    0.0000 H   0  0  0  0  0  0  0  0  0  0  0  0
    6.6816    2.9472    0.0000 H   0  0  0  0  0  0  0  0  0  0  0  0
    5.8539    2.6576    0.0000 H   0  0  0  0  0  0  0  0  0  0  0  0
    7.3480   -2.3886    0.0000 H   0  0  0  0  0  0  0  0  0  0  0  0
    3.0686   -2.0322    0.0000 H   0  0  0  0  0  0  0  0  0  0  0  0
    4.1380   -2.1304    0.0000 H   0  0  0  0  0  0  0  0  0  0  0  0
    9.7722    0.2040    0.0000 H   0  0  0  0  0  0  0  0  0  0  0  0
  1 14  1  0  0  0  0
  1 16  1  0  0  0  0
  2 11  1  0  0  0  0
  2 19  1  0  0  0  0
 14  3  1  1  0  0  0
  3 39  1  0  0  0  0
 16  4  1  6  0  0  0
  4 42  1  0  0  0  0
  5 19  2  0  0  0  0
  6  7  1  0  0  0  0
  6  9  1  0  0  0  0
  6 14  1  0  0  0  0
  6 15  1  6  0  0  0
  7  8  1  0  0  0  0
  7 13  1  0  0  0  0
  7 21  1  1  0  0  0
  8 12  1  0  0  0  0
  8 17  1  1  0  0  0
  8 22  1  0  0  0  0
  9 10  1  0  0  0  0
  9 23  1  0  0  0  0
  9 24  1  0  0  0  0
 10 11  1  0  0  0  0
 10 18  1  0  0  0  0
 10 25  1  1  0  0  0
 11 12  1  0  0  0  0
 11 26  1  1  0  0  0
 12 27  1  0  0  0  0
 12 28  1  0  0  0  0
 13 16  1  0  0  0  0
 13 29  1  0  0  0  0
 13 30  1  0  0  0  0
 14 31  1  0  0  0  0
 15 32  1  0  0  0  0
 15 33  1  0  0  0  0
 15 34  1  0  0  0  0
 16 35  1  0  0  0  0
 17 36  1  0  0  0  0
 17 37  1  0  0  0  0
 17 38  1  0  0  0  0
 18 19  1  0  0  0  0
 18 20  2  0  0  0  0
 20 40  1  0  0  0  0
 20 41  1  0  0  0  0
M  END
> <PUBCHEM_COMPOUND_CID>
42295

> <PUBCHEM_COMPOUND_CANONICALIZED>
1

> <PUBCHEM_CACTVS_COMPLEXITY>
448

> <PUBCHEM_CACTVS_HBOND_ACCEPTOR>
5

> <PUBCHEM_CACTVS_HBOND_DONOR>
2

> <PUBCHEM_CACTVS_ROTATABLE_BOND>
0

> <PUBCHEM_CACTVS_SUBSKEYS>
AAADceBwOAAAAAAAAAAAAAAAAAAAASAAAAAkAAAABgAAAACQAAAAGgAACAAADxSwgAMCCAAABgCIAgDSCAAAAAAgAAAAAAEAAEgQFBIAIQACQAAEwAAEIIGK6PyPgAAAAAAAAAAAAAAAAAAAAAAAAAAAAA==

> <PUBCHEM_IUPAC_OPENEYE_NAME>
(1R,3R,4aS,5R,6aR,9aR,10aS)-1,3-dihydroxy-5,10a-dimethyl-9-methylene-3,4,4a,5,6,6a,9a,10-octahydro-1H-furo[3,4]cyclohepta[5,7-d]pyran-8-one

> <PUBCHEM_IUPAC_CAS_NAME>
(1R,3R,4aS,5R,6aR,9aR,10aS)-1,3-dihydroxy-5,10a-dimethyl-9-methylene-3,4,4a,5,6,6a,9a,10-octahydro-1H-furo[3,4]cyclohepta[5,7-d]pyran-8-one

> <PUBCHEM_IUPAC_NAME>
(1R,3R,4aS,5R,6aR,9aR,10aS)-1,3-dihydroxy-5,10a-dimethyl-9-methylidene-3,4,4a,5,6,6a,9a,10-octahydro-1H-furo[3,4]cyclohepta[5,7-d]pyran-8-one

> <PUBCHEM_IUPAC_SYSTEMATIC_NAME>
(1R,3R,4aS,5R,6aR,9aR,10aS)-5,10a-dimethyl-9-methylidene-1,3-bis(oxidanyl)-3,4,4a,5,6,6a,9a,10-octahydro-1H-furo[3,4]cyclohepta[5,7-d]pyran-8-one

> <PUBCHEM_IUPAC_TRADITIONAL_NAME>
(1R,3R,4aS,5R,6aR,9aR,10aS)-1,3-dihydroxy-5,10a-dimethyl-9-methylene-3,4,4a,5,6,6a,9a,10-octahydro-1H-furo[3,4]cyclohepta[5,7-d]pyran-8-one

> <PUBCHEM_IUPAC_INCHI>
InChI=1S/C15H22O5/c1-7-4-11-9(8(2)13(17)19-11)6-15(3)10(7)5-12(16)20-14(15)18/h7,9-12,14,16,18H,2,4-6H2,1,3H3/t7-,9-,10+,11-,12-,14-,15+/m1/s1

> <PUBCHEM_IUPAC_INCHIKEY>
PYINVOHSOZSEPB-DKGLCQEFSA-N

> <PUBCHEM_XLOGP3_AA>
1.7

> <PUBCHEM_EXACT_MASS>
282.146724

> <PUBCHEM_MOLECULAR_FORMULA>
C15H22O5

> <PUBCHEM_MOLECULAR_WEIGHT>
282.33218

> <PUBCHEM_OPENEYE_CAN_SMILES>
CC1CC2C(CC3(C1CC(OC3O)O)C)C(=C)C(=O)O2

> <PUBCHEM_OPENEYE_ISO_SMILES>
C[C@@H]1C[C@@H]2[C@H](C[C@]3([C@H]1C[C@@H](O[C@H]3O)O)C)C(=C)C(=O)O2

> <PUBCHEM_CACTVS_TPSA>
76

> <PUBCHEM_MONOISOTOPIC_WEIGHT>
282.146724

> <PUBCHEM_TOTAL_CHARGE>
0

> <PUBCHEM_HEAVY_ATOM_COUNT>
20

> <PUBCHEM_ATOM_DEF_STEREO_COUNT>
7

> <PUBCHEM_ATOM_UDEF_STEREO_COUNT>
0

> <PUBCHEM_BOND_DEF_STEREO_COUNT>
0

> <PUBCHEM_BOND_UDEF_STEREO_COUNT>
0

> <PUBCHEM_ISOTOPIC_ATOM_COUNT>
0

> <PUBCHEM_COMPONENT_COUNT>
1

> <PUBCHEM_CACTVS_TAUTO_COUNT>
1

> <PUBCHEM_COORDINATE_TYPE>
1
5
255

> <PUBCHEM_BONDANNOTATIONS>
10  25  5
11  26  5
14  3  5
16  4  6
6  15  6
7  21  5
8  17  5

$$$$

