11504
  -OEChem-06261205452D

 20 20  0     0  0  0  0  0  0999 V2000
    2.8660    2.0950    0.0000 N   0  0  0  0  0  0  0  0  0  0  0  0
    2.8660   -0.9050    0.0000 C   0  0  0  0  0  0  0  0  0  0  0  0
    2.8660   -1.9050    0.0000 C   0  0  0  0  0  0  0  0  0  0  0  0
    3.7320   -0.4050    0.0000 C   0  0  0  0  0  0  0  0  0  0  0  0
    2.0000   -0.4050    0.0000 C   0  0  0  0  0  0  0  0  0  0  0  0
    2.8660    1.0950    0.0000 C   0  0  0  0  0  0  0  0  0  0  0  0
    2.0000   -2.4050    0.0000 C   0  0  0  0  0  0  0  0  0  0  0  0
    3.7320    0.5950    0.0000 C   0  0  0  0  0  0  0  0  0  0  0  0
    2.0000    0.5950    0.0000 C   0  0  0  0  0  0  0  0  0  0  0  0
    3.0781   -2.4876    0.0000 H   0  0  0  0  0  0  0  0  0  0  0  0
    3.4766   -1.7973    0.0000 H   0  0  0  0  0  0  0  0  0  0  0  0
    4.2690   -0.7150    0.0000 H   0  0  0  0  0  0  0  0  0  0  0  0
    1.4631   -0.7150    0.0000 H   0  0  0  0  0  0  0  0  0  0  0  0
    1.6900   -1.8681    0.0000 H   0  0  0  0  0  0  0  0  0  0  0  0
    1.4631   -2.7150    0.0000 H   0  0  0  0  0  0  0  0  0  0  0  0
    2.3100   -2.9419    0.0000 H   0  0  0  0  0  0  0  0  0  0  0  0
    4.2690    0.9050    0.0000 H   0  0  0  0  0  0  0  0  0  0  0  0
    1.4631    0.9050    0.0000 H   0  0  0  0  0  0  0  0  0  0  0  0
    3.4030    2.4050    0.0000 H   0  0  0  0  0  0  0  0  0  0  0  0
    2.3291    2.4050    0.0000 H   0  0  0  0  0  0  0  0  0  0  0  0
  1  6  1  0  0  0  0
  1 19  1  0  0  0  0
  1 20  1  0  0  0  0
  2  3  1  0  0  0  0
  2  4  2  0  0  0  0
  2  5  1  0  0  0  0
  3  7  1  0  0  0  0
  3 10  1  0  0  0  0
  3 11  1  0  0  0  0
  4  8  1  0  0  0  0
  4 12  1  0  0  0  0
  5  9  2  0  0  0  0
  5 13  1  0  0  0  0
  6  8  2  0  0  0  0
  6  9  1  0  0  0  0
  7 14  1  0  0  0  0
  7 15  1  0  0  0  0
  7 16  1  0  0  0  0
  8 17  1  0  0  0  0
  9 18  1  0  0  0  0
M  END
> <PUBCHEM_COMPOUND_CID>
11504

> <PUBCHEM_COMPOUND_CANONICALIZED>
1

> <PUBCHEM_CACTVS_COMPLEXITY>
72.6

> <PUBCHEM_CACTVS_HBOND_ACCEPTOR>
1

> <PUBCHEM_CACTVS_HBOND_DONOR>
1

> <PUBCHEM_CACTVS_ROTATABLE_BOND>
1

> <PUBCHEM_CACTVS_SUBSKEYS>
AAADccByAAAAAAAAAAAAAAAAAAAAAAAAAAAwAAAAAAAAAAABAAAAHAAQAAAADAiBGAAywIBAAACAAiRCQACCAAAgAgAIiAAAZIgIICKAkZGAIABgkAAIyAcQgIAOCAAAAAAAAAAQAAAAAAAAAAAAAAAAAA==

> <PUBCHEM_IUPAC_OPENEYE_NAME>
4-ethylaniline

> <PUBCHEM_IUPAC_CAS_NAME>
4-ethylaniline

> <PUBCHEM_IUPAC_NAME>
4-ethylaniline

> <PUBCHEM_IUPAC_SYSTEMATIC_NAME>
4-ethylaniline

> <PUBCHEM_IUPAC_TRADITIONAL_NAME>
(4-ethylphenyl)amine

> <PUBCHEM_IUPAC_INCHI>
InChI=1S/C8H11N/c1-2-7-3-5-8(9)6-4-7/h3-6H,2,9H2,1H3

> <PUBCHEM_IUPAC_INCHIKEY>
HRXZRAXKKNUKRF-UHFFFAOYSA-N

> <PUBCHEM_XLOGP3>
2

> <PUBCHEM_EXACT_MASS>
121.089149

> <PUBCHEM_MOLECULAR_FORMULA>
C8H11N

> <PUBCHEM_MOLECULAR_WEIGHT>
121.17964

> <PUBCHEM_OPENEYE_CAN_SMILES>
CCC1=CC=C(C=C1)N

> <PUBCHEM_OPENEYE_ISO_SMILES>
CCC1=CC=C(C=C1)N

> <PUBCHEM_CACTVS_TPSA>
26

> <PUBCHEM_MONOISOTOPIC_WEIGHT>
121.089149

> <PUBCHEM_TOTAL_CHARGE>
0

> <PUBCHEM_HEAVY_ATOM_COUNT>
9

> <PUBCHEM_ATOM_DEF_STEREO_COUNT>
0

> <PUBCHEM_ATOM_UDEF_STEREO_COUNT>
0

> <PUBCHEM_BOND_DEF_STEREO_COUNT>
0

> <PUBCHEM_BOND_UDEF_STEREO_COUNT>
0

> <PUBCHEM_ISOTOPIC_ATOM_COUNT>
0

> <PUBCHEM_COMPONENT_COUNT>
1

> <PUBCHEM_CACTVS_TAUTO_COUNT>
1

> <PUBCHEM_COORDINATE_TYPE>
1
5
255

> <PUBCHEM_BONDANNOTATIONS>
2  4  8
2  5  8
4  8  8
5  9  8
6  8  8
6  9  8

$$$$

