16686
  -OEChem-07051213122D

 20 21  0     0  0  0  0  0  0999 V2000
    3.1723    0.4045    0.0000 Cl  0  0  0  0  0  0  0  0  0  0  0  0
    4.9356   -0.4045    0.0000 Cl  0  0  0  0  0  0  0  0  0  0  0  0
    2.0000   -0.6833    0.0000 Cl  0  0  0  0  0  0  0  0  0  0  0  0
    5.5202   -0.6833    0.0000 Cl  0  0  0  0  0  0  0  0  0  0  0  0
    2.5878    0.6833    0.0000 Cl  0  0  0  0  0  0  0  0  0  0  0  0
    6.1079    0.6833    0.0000 Cl  0  0  0  0  0  0  0  0  0  0  0  0
    2.6723   -2.7524    0.0000 Cl  0  0  0  0  0  0  0  0  0  0  0  0
    4.8479   -2.7524    0.0000 Cl  0  0  0  0  0  0  0  0  0  0  0  0
    3.2601    2.7524    0.0000 Cl  0  0  0  0  0  0  0  0  0  0  0  0
    5.4356    2.7524    0.0000 Cl  0  0  0  0  0  0  0  0  0  0  0  0
    3.7601   -0.4045    0.0000 C   0  0  0  0  0  0  0  0  0  0  0  0
    4.3479    0.4045    0.0000 C   0  0  0  0  0  0  0  0  0  0  0  0
    2.9511   -0.9923    0.0000 C   0  0  0  0  0  0  0  0  0  0  0  0
    4.5691   -0.9923    0.0000 C   0  0  0  0  0  0  0  0  0  0  0  0
    3.5388    0.9923    0.0000 C   0  0  0  0  0  0  0  0  0  0  0  0
    5.1569    0.9923    0.0000 C   0  0  0  0  0  0  0  0  0  0  0  0
    3.2601   -1.9434    0.0000 C   0  0  0  0  0  0  0  0  0  0  0  0
    4.2601   -1.9434    0.0000 C   0  0  0  0  0  0  0  0  0  0  0  0
    3.8479    1.9434    0.0000 C   0  0  0  0  0  0  0  0  0  0  0  0
    4.8479    1.9434    0.0000 C   0  0  0  0  0  0  0  0  0  0  0  0
  1 11  1  0  0  0  0
  2 12  1  0  0  0  0
  3 13  1  0  0  0  0
  4 14  1  0  0  0  0
  5 15  1  0  0  0  0
  6 16  1  0  0  0  0
  7 17  1  0  0  0  0
  8 18  1  0  0  0  0
  9 19  1  0  0  0  0
 10 20  1  0  0  0  0
 11 12  1  0  0  0  0
 11 13  1  0  0  0  0
 11 14  1  0  0  0  0
 12 15  1  0  0  0  0
 12 16  1  0  0  0  0
 13 17  2  0  0  0  0
 14 18  2  0  0  0  0
 15 19  2  0  0  0  0
 16 20  2  0  0  0  0
 17 18  1  0  0  0  0
 19 20  1  0  0  0  0
M  END
> <PUBCHEM_COMPOUND_CID>
16686

> <PUBCHEM_COMPOUND_CANONICALIZED>
1

> <PUBCHEM_CACTVS_COMPLEXITY>
530

> <PUBCHEM_CACTVS_HBOND_ACCEPTOR>
0

> <PUBCHEM_CACTVS_HBOND_DONOR>
0

> <PUBCHEM_CACTVS_ROTATABLE_BOND>
1

> <PUBCHEM_CACTVS_SUBSKEYS>
AAADcQBwAAAHgAAAAAAAAAAAAAAAAQIAAAAAAAAAAAAAAAAAAAAACAIAAAAADAIAAAAAAAAAAACAAABAAAAAAAAgAAAACEAAAggIAAABAAAAAAAAgAAIgAIAAAAIgAAAAAAAAAAAAAAAAAAAAAAAAAAAAA==

> <PUBCHEM_IUPAC_OPENEYE_NAME>
1,2,3,4,5-pentachloro-5-(1,2,3,4,5-pentachlorocyclopenta-2,4-dien-1-yl)cyclopenta-1,3-diene

> <PUBCHEM_IUPAC_CAS_NAME>
1,2,3,4,5-pentachloro-5-(1,2,3,4,5-pentachloro-1-cyclopenta-2,4-dienyl)cyclopenta-1,3-diene

> <PUBCHEM_IUPAC_NAME>
1,2,3,4,5-pentachloro-5-(1,2,3,4,5-pentachlorocyclopenta-2,4-dien-1-yl)cyclopenta-1,3-diene

> <PUBCHEM_IUPAC_SYSTEMATIC_NAME>
1,2,3,4,5-pentakis(chloranyl)-5-[1,2,3,4,5-pentakis(chloranyl)cyclopenta-2,4-dien-1-yl]cyclopenta-1,3-diene

> <PUBCHEM_IUPAC_TRADITIONAL_NAME>
1,2,3,4,5-pentachloro-5-(1,2,3,4,5-pentachlorocyclopenta-2,4-dien-1-yl)cyclopenta-1,3-diene

> <PUBCHEM_IUPAC_INCHI>
InChI=1S/C10Cl10/c11-1-2(12)6(16)9(19,5(1)15)10(20)7(17)3(13)4(14)8(10)18

> <PUBCHEM_IUPAC_INCHIKEY>
LWLJUMBEZJHXHV-UHFFFAOYSA-N

> <PUBCHEM_XLOGP3_AA>
6.3

> <PUBCHEM_EXACT_MASS>
473.682627

> <PUBCHEM_MOLECULAR_FORMULA>
C10Cl10

> <PUBCHEM_MOLECULAR_WEIGHT>
474.637

> <PUBCHEM_OPENEYE_CAN_SMILES>
C1(=C(C(C(=C1Cl)Cl)(C2(C(=C(C(=C2Cl)Cl)Cl)Cl)Cl)Cl)Cl)Cl

> <PUBCHEM_OPENEYE_ISO_SMILES>
C1(=C(C(C(=C1Cl)Cl)(C2(C(=C(C(=C2Cl)Cl)Cl)Cl)Cl)Cl)Cl)Cl

> <PUBCHEM_CACTVS_TPSA>
0

> <PUBCHEM_MONOISOTOPIC_WEIGHT>
469.688527

> <PUBCHEM_TOTAL_CHARGE>
0

> <PUBCHEM_HEAVY_ATOM_COUNT>
20

> <PUBCHEM_ATOM_DEF_STEREO_COUNT>
0

> <PUBCHEM_ATOM_UDEF_STEREO_COUNT>
0

> <PUBCHEM_BOND_DEF_STEREO_COUNT>
0

> <PUBCHEM_BOND_UDEF_STEREO_COUNT>
0

> <PUBCHEM_ISOTOPIC_ATOM_COUNT>
0

> <PUBCHEM_COMPONENT_COUNT>
1

> <PUBCHEM_CACTVS_TAUTO_COUNT>
1

> <PUBCHEM_COORDINATE_TYPE>
1
5
255

$$$$

