443010
  -OEChem-07051213002D

 39 42  0     1  0  0  0  0  0999 V2000
    4.4336   -0.5246    0.0000 O   0  0  0  0  0  0  0  0  0  0  0  0
    7.2422   -1.7624    0.0000 O   0  0  0  0  0  0  0  0  0  0  0  0
    7.2566    2.8595    0.0000 N   0  0  3  0  0  0  0  0  0  0  0  0
    7.9932    1.8769    0.0000 C   0  0  3  0  0  0  0  0  0  0  0  0
    7.7344    0.9110    0.0000 C   0  0  3  0  0  0  0  0  0  0  0  0
    9.8251    1.1181    0.0000 C   0  0  0  0  0  0  0  0  0  0  0  0
    9.5663    0.1522    0.0000 C   0  0  0  0  0  0  0  0  0  0  0  0
    5.3902    1.0691    0.0000 C   0  0  0  0  0  0  0  0  0  0  0  0
    6.1992   -0.3321    0.0000 C   0  0  0  0  0  0  0  0  0  0  0  0
    5.2857    0.0746    0.0000 C   0  0  0  0  0  0  0  0  0  0  0  0
    6.7566    3.7256    0.0000 C   0  0  0  0  0  0  0  0  0  0  0  0
    6.3240   -1.3663    0.0000 C   0  0  0  0  0  0  0  0  0  0  0  0
    4.5345   -1.5613    0.0000 C   0  0  1  0  0  0  0  0  0  0  0  0
    5.4861   -1.9850    0.0000 C   0  0  0  0  0  0  0  0  0  0  0  0
    3.7232   -2.1460    0.0000 C   0  0  0  0  0  0  0  0  0  0  0  0
    2.8113   -1.7357    0.0000 C   0  0  0  0  0  0  0  0  0  0  0  0
    3.8239   -3.1409    0.0000 C   0  0  0  0  0  0  0  0  0  0  0  0
    2.0000   -2.3204    0.0000 C   0  0  0  0  0  0  0  0  0  0  0  0
    3.0127   -3.7256    0.0000 C   0  0  0  0  0  0  0  0  0  0  0  0
    2.1007   -3.3153    0.0000 C   0  0  0  0  0  0  0  0  0  0  0  0
    7.9542    1.0278    0.0000 H   0  0  0  0  0  0  0  0  0  0  0  0
    8.3794    1.4646    0.0000 H   0  0  0  0  0  0  0  0  0  0  0  0
   10.4164    0.9317    0.0000 H   0  0  0  0  0  0  0  0  0  0  0  0
   10.0372    1.7007    0.0000 H   0  0  0  0  0  0  0  0  0  0  0  0
    9.3543   -0.4304    0.0000 H   0  0  0  0  0  0  0  0  0  0  0  0
   10.1576   -0.0343    0.0000 H   0  0  0  0  0  0  0  0  0  0  0  0
    5.2879    1.6806    0.0000 H   0  0  0  0  0  0  0  0  0  0  0  0
    4.7705    1.0502    0.0000 H   0  0  0  0  0  0  0  0  0  0  0  0
    7.2935    4.0356    0.0000 H   0  0  0  0  0  0  0  0  0  0  0  0
    6.4466    4.2625    0.0000 H   0  0  0  0  0  0  0  0  0  0  0  0
    6.2196    3.4156    0.0000 H   0  0  0  0  0  0  0  0  0  0  0  0
    3.9696   -1.3059    0.0000 H   0  0  0  0  0  0  0  0  0  0  0  0
    5.1407   -2.4999    0.0000 H   0  0  0  0  0  0  0  0  0  0  0  0
    5.9343   -2.4134    0.0000 H   0  0  0  0  0  0  0  0  0  0  0  0
    2.7488   -1.1189    0.0000 H   0  0  0  0  0  0  0  0  0  0  0  0
    4.3894   -3.3953    0.0000 H   0  0  0  0  0  0  0  0  0  0  0  0
    1.4346   -2.0660    0.0000 H   0  0  0  0  0  0  0  0  0  0  0  0
    3.0751   -4.3424    0.0000 H   0  0  0  0  0  0  0  0  0  0  0  0
    1.5977   -3.6778    0.0000 H   0  0  0  0  0  0  0  0  0  0  0  0
  1 10  1  0  0  0  0
  1 13  1  0  0  0  0
  2 12  2  0  0  0  0
  3  4  1  0  0  0  0
  3  5  1  0  0  0  0
  3 11  1  0  0  0  0
  4  6  1  0  0  0  0
  4  8  1  0  0  0  0
  4 21  1  0  0  0  0
  5  7  1  0  0  0  0
  5  9  1  0  0  0  0
  5 22  1  0  0  0  0
  6  7  1  0  0  0  0
  6 23  1  0  0  0  0
  6 24  1  0  0  0  0
  7 25  1  0  0  0  0
  7 26  1  0  0  0  0
  8 10  1  0  0  0  0
  8 27  1  0  0  0  0
  8 28  1  0  0  0  0
  9 10  2  0  0  0  0
  9 12  1  0  0  0  0
 11 29  1  0  0  0  0
 11 30  1  0  0  0  0
 11 31  1  0  0  0  0
 12 14  1  0  0  0  0
 13 14  1  0  0  0  0
 13 15  1  1  0  0  0
 13 32  1  0  0  0  0
 14 33  1  0  0  0  0
 14 34  1  0  0  0  0
 15 16  2  0  0  0  0
 15 17  1  0  0  0  0
 16 18  1  0  0  0  0
 16 35  1  0  0  0  0
 17 19  2  0  0  0  0
 17 36  1  0  0  0  0
 18 20  2  0  0  0  0
 18 37  1  0  0  0  0
 19 20  1  0  0  0  0
 19 38  1  0  0  0  0
 20 39  1  0  0  0  0
M  END
> <PUBCHEM_COMPOUND_CID>
443010

> <PUBCHEM_COMPOUND_CANONICALIZED>
1

> <PUBCHEM_CACTVS_COMPLEXITY>
450

> <PUBCHEM_CACTVS_HBOND_ACCEPTOR>
3

> <PUBCHEM_CACTVS_HBOND_DONOR>
0

> <PUBCHEM_CACTVS_ROTATABLE_BOND>
1

> <PUBCHEM_CACTVS_SUBSKEYS>
AAADceB6MAAAAAAAAAAAAAAAAAAAAWAAAAAwQIAABAAAAACxAAAAHgAAAAAADDzhmAYyAIMABACIAqBSAACCCAAgIAAIiAEICMgIJj6AsRiGMAAm4AGIqQeY2OOOAAAAAAAAAAAAAAAAAAAAAAAAAAAAAA==

> <PUBCHEM_IUPAC_INCHI>
InChI=1S/C17H19NO2/c1-18-12-7-8-13(18)17-14(19)10-15(20-16(17)9-12)11-5-3-2-4-6-11/h2-6,12-13,15H,7-10H2,1H3/t12?,13?,15-/m0/s1

> <PUBCHEM_IUPAC_INCHIKEY>
SMCUGCCLJBVSAQ-PIMMBPRGSA-N

> <PUBCHEM_XLOGP3_AA>
2

> <PUBCHEM_EXACT_MASS>
269.141579

> <PUBCHEM_MOLECULAR_FORMULA>
C17H19NO2

> <PUBCHEM_MOLECULAR_WEIGHT>
269.33826

> <PUBCHEM_OPENEYE_CAN_SMILES>
CN1C2CCC1C3=C(C2)OC(CC3=O)C4=CC=CC=C4

> <PUBCHEM_OPENEYE_ISO_SMILES>
CN1C2CCC1C3=C(C2)O[C@@H](CC3=O)C4=CC=CC=C4

> <PUBCHEM_CACTVS_TPSA>
29.5

> <PUBCHEM_MONOISOTOPIC_WEIGHT>
269.141579

> <PUBCHEM_TOTAL_CHARGE>
0

> <PUBCHEM_HEAVY_ATOM_COUNT>
20

> <PUBCHEM_ATOM_DEF_STEREO_COUNT>
1

> <PUBCHEM_ATOM_UDEF_STEREO_COUNT>
2

> <PUBCHEM_BOND_DEF_STEREO_COUNT>
0

> <PUBCHEM_BOND_UDEF_STEREO_COUNT>
0

> <PUBCHEM_ISOTOPIC_ATOM_COUNT>
0

> <PUBCHEM_COMPONENT_COUNT>
1

> <PUBCHEM_CACTVS_TAUTO_COUNT>
5

> <PUBCHEM_COORDINATE_TYPE>
1
5
255

> <PUBCHEM_BONDANNOTATIONS>
13  15  5
15  16  8
15  17  8
16  18  8
17  19  8
18  20  8
19  20  8
4  21  3
5  22  3

$$$$

