108053
  -OEChem-07051212593D

 45 46  0     1  0  0  0  0  0999 V2000
    0.4350    0.4030   -0.3980 O   0  0  0  0  0  0  0  0  0  0  0  0
    3.9168   -0.2656   -0.8480 O   0  0  0  0  0  0  0  0  0  0  0  0
    1.8338    1.1947    1.7826 O   0  0  0  0  0  0  0  0  0  0  0  0
    1.8460    0.5825   -2.2050 O   0  0  0  0  0  0  0  0  0  0  0  0
   -3.7368    0.0892    0.9228 N   0  0  2  0  0  0  0  0  0  0  0  0
   -2.4386   -0.3386    0.3184 C   0  0  1  0  0  0  0  0  0  0  0  0
   -2.7522   -1.5651   -0.5377 C   0  0  0  0  0  0  0  0  0  0  0  0
   -4.7946   -0.6546    0.2232 C   0  0  0  0  0  0  0  0  0  0  0  0
   -4.1369   -1.9856   -0.0808 C   0  0  0  0  0  0  0  0  0  0  0  0
   -1.9146    0.8536   -0.4200 C   0  0  0  0  0  0  0  0  0  0  0  0
   -3.8363    1.5481    0.6991 C   0  0  0  0  0  0  0  0  0  0  0  0
   -2.7031    1.9099   -0.2022 C   0  0  0  0  0  0  0  0  0  0  0  0
   -0.6632    0.8139   -1.2184 C   0  0  0  0  0  0  0  0  0  0  0  0
    2.7375   -0.1141   -0.0410 C   0  0  1  0  0  0  0  0  0  0  0  0
    2.4368   -1.5190    0.5627 C   0  0  0  0  0  0  0  0  0  0  0  0
    3.0212    0.9927    1.0066 C   0  0  1  0  0  0  0  0  0  0  0  0
    1.6453    0.3281   -1.0229 C   0  0  0  0  0  0  0  0  0  0  0  0
    3.4716   -2.0199    1.5744 C   0  0  0  0  0  0  0  0  0  0  0  0
    2.2238   -2.5931   -0.5171 C   0  0  0  0  0  0  0  0  0  0  0  0
    3.4085    2.3400    0.4013 C   0  0  0  0  0  0  0  0  0  0  0  0
   -1.7526   -0.6078    1.1309 H   0  0  0  0  0  0  0  0  0  0  0  0
   -2.0221   -2.3676   -0.3904 H   0  0  0  0  0  0  0  0  0  0  0  0
   -2.7766   -1.3213   -1.6068 H   0  0  0  0  0  0  0  0  0  0  0  0
   -5.0905   -0.1741   -0.7186 H   0  0  0  0  0  0  0  0  0  0  0  0
   -5.6831   -0.7702    0.8510 H   0  0  0  0  0  0  0  0  0  0  0  0
   -4.6715   -2.5534   -0.8477 H   0  0  0  0  0  0  0  0  0  0  0  0
   -4.0704   -2.6025    0.8237 H   0  0  0  0  0  0  0  0  0  0  0  0
   -3.7213    2.0674    1.6569 H   0  0  0  0  0  0  0  0  0  0  0  0
   -4.7970    1.8507    0.2680 H   0  0  0  0  0  0  0  0  0  0  0  0
   -2.5375    2.9019   -0.5962 H   0  0  0  0  0  0  0  0  0  0  0  0
   -0.4441    1.8050   -1.6341 H   0  0  0  0  0  0  0  0  0  0  0  0
   -0.7785    0.1084   -2.0494 H   0  0  0  0  0  0  0  0  0  0  0  0
    1.4839   -1.4515    1.1055 H   0  0  0  0  0  0  0  0  0  0  0  0
    3.8334    0.6978    1.6794 H   0  0  0  0  0  0  0  0  0  0  0  0
    3.2188   -3.0270    1.9241 H   0  0  0  0  0  0  0  0  0  0  0  0
    3.5105   -1.3765    2.4581 H   0  0  0  0  0  0  0  0  0  0  0  0
    4.4727   -2.0596    1.1331 H   0  0  0  0  0  0  0  0  0  0  0  0
    1.4659   -2.2948   -1.2475 H   0  0  0  0  0  0  0  0  0  0  0  0
    1.8753   -3.5256   -0.0585 H   0  0  0  0  0  0  0  0  0  0  0  0
    3.1506   -2.8238   -1.0520 H   0  0  0  0  0  0  0  0  0  0  0  0
    4.3102    2.2638   -0.2130 H   0  0  0  0  0  0  0  0  0  0  0  0
    3.5971    3.0676    1.1986 H   0  0  0  0  0  0  0  0  0  0  0  0
    2.5985    2.7572   -0.2062 H   0  0  0  0  0  0  0  0  0  0  0  0
    3.7128   -0.8445   -1.6010 H   0  0  0  0  0  0  0  0  0  0  0  0
    1.6988    0.4013    2.3273 H   0  0  0  0  0  0  0  0  0  0  0  0
  1 13  1  0  0  0  0
  1 17  1  0  0  0  0
  2 14  1  0  0  0  0
  2 44  1  0  0  0  0
  3 16  1  0  0  0  0
  3 45  1  0  0  0  0
  4 17  2  0  0  0  0
  5  6  1  0  0  0  0
  5  8  1  0  0  0  0
  5 11  1  0  0  0  0
  6  7  1  0  0  0  0
  6 10  1  0  0  0  0
  6 21  1  0  0  0  0
  7  9  1  0  0  0  0
  7 22  1  0  0  0  0
  7 23  1  0  0  0  0
  8  9  1  0  0  0  0
  8 24  1  0  0  0  0
  8 25  1  0  0  0  0
  9 26  1  0  0  0  0
  9 27  1  0  0  0  0
 10 12  2  0  0  0  0
 10 13  1  0  0  0  0
 11 12  1  0  0  0  0
 11 28  1  0  0  0  0
 11 29  1  0  0  0  0
 12 30  1  0  0  0  0
 13 31  1  0  0  0  0
 13 32  1  0  0  0  0
 14 15  1  0  0  0  0
 14 16  1  0  0  0  0
 14 17  1  0  0  0  0
 15 18  1  0  0  0  0
 15 19  1  0  0  0  0
 15 33  1  0  0  0  0
 16 20  1  0  0  0  0
 16 34  1  0  0  0  0
 18 35  1  0  0  0  0
 18 36  1  0  0  0  0
 18 37  1  0  0  0  0
 19 38  1  0  0  0  0
 19 39  1  0  0  0  0
 19 40  1  0  0  0  0
 20 41  1  0  0  0  0
 20 42  1  0  0  0  0
 20 43  1  0  0  0  0
M  END
> <PUBCHEM_COMPOUND_CID>
108053

> <PUBCHEM_CONFORMER_RMSD>
0.8

> <PUBCHEM_CONFORMER_DIVERSEORDER>
1
128
165
240
143
207
197
217
236
199
111
187
124
130
238
138
22
131
168
75
134
195
19
209
162
34
184
38
31
110
211
80
232
223
161
180
248
205
117
90
122
173
157
247
30
65
73
194
193
226
106
176
179
96
159
91
103
109
233
242
221
113
150
230
42
151
136
56
181
100
86
102
167
84
208
58
16
116
6
77
245
82
83
228
172
92
47
11
246
212
216
85
202
169
244
55
155
177
164
241
69
104
235
63
50
71
135
120
17
178
222
142
152
141
170
132
146
72
126
95
20
213
81
129
64
121
24
108
237
14
66
39
210
3
45
156
219
52
93
105
97
94
174
26
99
188
67
79
183
153
101
218
2
76
88
119
114
23
18
4
15
62
70
48
185
175
198
44
191
57
28
123
118
243
27
149
196
29
5
215
78
140
227
224
127
33
53
154
36
214
8
13
37
9
186
25
144
43
145
239
137
166
229
46
225
32
163
7
35
139
112
125
203
200
190
231
147
40
201
12
68
182
74
51
49
115
204
87
160
41
234
171
59
220
133
206
54
107
98
21
89
61
148
10
189
158
60
192

> <PUBCHEM_MMFF94_PARTIAL_CHARGES>
17
1 -0.43
10 -0.28
11 0.41
12 -0.29
13 0.42
14 0.34
16 0.28
17 0.66
2 -0.68
3 -0.68
30 0.15
4 -0.57
44 0.4
45 0.4
5 -0.81
6 0.41
8 0.27

> <PUBCHEM_EFFECTIVE_ROTOR_COUNT>
6.8

> <PUBCHEM_PHARMACOPHORE_FEATURES>
9
1 2 acceptor
1 2 donor
1 3 acceptor
1 3 donor
1 4 acceptor
1 5 cation
3 15 18 19 hydrophobe
5 5 6 10 11 12 rings
5 5 6 7 8 9 rings

> <PUBCHEM_HEAVY_ATOM_COUNT>
20

> <PUBCHEM_ATOM_DEF_STEREO_COUNT>
3

> <PUBCHEM_ATOM_UDEF_STEREO_COUNT>
0

> <PUBCHEM_BOND_DEF_STEREO_COUNT>
0

> <PUBCHEM_BOND_UDEF_STEREO_COUNT>
0

> <PUBCHEM_ISOTOPIC_ATOM_COUNT>
0

> <PUBCHEM_COMPONENT_COUNT>
1

> <PUBCHEM_CACTVS_TAUTO_COUNT>
1

> <PUBCHEM_CONFORMER_ID>
0001A61500000001

> <PUBCHEM_MMFF94_ENERGY>
35.8273

> <PUBCHEM_FEATURE_SELFOVERLAP>
46.043

> <PUBCHEM_SHAPE_FINGERPRINT>
10366900 7 18339078185762985659
10616163 171 18339634560433304215
10764073 3 9869520223481341230
11552529 35 17458345183218203079
11578080 2 17987819452585800181
12363563 72 15984832535764104957
12500047 106 18339082721496675357
12553582 1 18058436639356774837
12633257 1 18188771772513081795
13134695 92 10663829542362405514
13224815 77 18343868809638905783
13296908 3 17560805484443365125
13533116 47 18335423512888208207
13583140 156 18261406562937669773
13675066 3 18131626807833911857
14178342 30 18341620321081644321
14223421 5 18408325492552306741
14289901 80 18410293584138520145
14787075 74 17900263004886737225
14866123 147 16027033243795655023
1813 80 17275382097569840509
18981168 100 14418427511663315574
19862831 5 8070031068804590485
20442098 301 18342738545987385239
21065199 12 18335140903549287225
21401589 2 16810419362048868688
21756936 100 17608669223567946968
2255824 54 17772736195994432228
22646028 28 18131067138966459791
23503958 25 14418123024520982235
23559900 14 18187354476128662573
251288 83 18337112259056944060
3797600 57 17531810121652419850
5104073 3 18412259567153585385
6442390 28 18191588545542126146
7097593 13 18339361980074744477
8988823 20 18261123928699272429
90316 7 18341604945806048373
9709674 26 18412538816994870763
9882013 296 18187929404862007477

> <PUBCHEM_SHAPE_MULTIPOLES>
383.13
9.19
2.5
1.39
4.92
0.61
-0.13
1.45
2.04
-0.81
0.32
-1.09
-0.14
-0.34

> <PUBCHEM_SHAPE_SELFOVERLAP>
783.942

> <PUBCHEM_SHAPE_VOLUME>
224.5

> <PUBCHEM_COORDINATE_TYPE>
2
5
10

$$$$

