11316
  -OEChem-06261205313D

 19 20  0     0  0  0  0  0  0999 V2000
   -1.7568   -2.5100   -0.0003 Br  0  0  0  0  0  0  0  0  0  0  0  0
   -3.3596    0.0665    0.0001 O   0  0  0  0  0  0  0  0  0  0  0  0
    0.2989   -0.4305    0.0001 C   0  0  0  0  0  0  0  0  0  0  0  0
    0.7244    0.9193   -0.0001 C   0  0  0  0  0  0  0  0  0  0  0  0
   -1.0759   -0.7172    0.0002 C   0  0  0  0  0  0  0  0  0  0  0  0
   -0.2376    1.9426   -0.0001 C   0  0  0  0  0  0  0  0  0  0  0  0
    1.2607   -1.4539    0.0002 C   0  0  0  0  0  0  0  0  0  0  0  0
    2.0992    1.2060   -0.0001 C   0  0  0  0  0  0  0  0  0  0  0  0
   -2.0176    0.3120    0.0001 C   0  0  0  0  0  0  0  0  0  0  0  0
   -1.5993    1.6393   -0.0001 C   0  0  0  0  0  0  0  0  0  0  0  0
    2.6226   -1.1507    0.0001 C   0  0  0  0  0  0  0  0  0  0  0  0
    3.0410    0.1766   -0.0001 C   0  0  0  0  0  0  0  0  0  0  0  0
    0.0668    2.9872   -0.0002 H   0  0  0  0  0  0  0  0  0  0  0  0
    0.9976   -2.5072    0.0003 H   0  0  0  0  0  0  0  0  0  0  0  0
    2.4490    2.2361   -0.0002 H   0  0  0  0  0  0  0  0  0  0  0  0
   -2.3203    2.4526   -0.0002 H   0  0  0  0  0  0  0  0  0  0  0  0
    3.3569   -1.9511    0.0001 H   0  0  0  0  0  0  0  0  0  0  0  0
    4.1012    0.4120   -0.0002 H   0  0  0  0  0  0  0  0  0  0  0  0
   -3.8424    0.9107    0.0000 H   0  0  0  0  0  0  0  0  0  0  0  0
  1  5  1  0  0  0  0
  2  9  1  0  0  0  0
  2 19  1  0  0  0  0
  3  4  1  0  0  0  0
  3  5  1  0  0  0  0
  3  7  2  0  0  0  0
  4  6  1  0  0  0  0
  4  8  2  0  0  0  0
  5  9  2  0  0  0  0
  6 10  2  0  0  0  0
  6 13  1  0  0  0  0
  7 11  1  0  0  0  0
  7 14  1  0  0  0  0
  8 12  1  0  0  0  0
  8 15  1  0  0  0  0
  9 10  1  0  0  0  0
 10 16  1  0  0  0  0
 11 12  2  0  0  0  0
 11 17  1  0  0  0  0
 12 18  1  0  0  0  0
M  END
> <PUBCHEM_COMPOUND_CID>
11316

> <PUBCHEM_CONFORMER_RMSD>
0.4

> <PUBCHEM_CONFORMER_DIVERSEORDER>
1

> <PUBCHEM_MMFF94_PARTIAL_CHARGES>
17
1 -0.11
10 -0.15
11 -0.15
12 -0.15
13 0.15
14 0.15
15 0.15
16 0.15
17 0.15
18 0.15
19 0.45
2 -0.53
5 0.11
6 -0.15
7 -0.15
8 -0.15
9 0.08

> <PUBCHEM_EFFECTIVE_ROTOR_COUNT>
0

> <PUBCHEM_PHARMACOPHORE_FEATURES>
4
1 1 hydrophobe
1 2 donor
6 3 4 5 6 9 10 rings
6 3 4 7 8 11 12 rings

> <PUBCHEM_HEAVY_ATOM_COUNT>
12

> <PUBCHEM_ATOM_DEF_STEREO_COUNT>
0

> <PUBCHEM_ATOM_UDEF_STEREO_COUNT>
0

> <PUBCHEM_BOND_DEF_STEREO_COUNT>
0

> <PUBCHEM_BOND_UDEF_STEREO_COUNT>
0

> <PUBCHEM_ISOTOPIC_ATOM_COUNT>
0

> <PUBCHEM_COMPONENT_COUNT>
1

> <PUBCHEM_CACTVS_TAUTO_COUNT>
3

> <PUBCHEM_CONFORMER_ID>
00002C3400000001

> <PUBCHEM_MMFF94_ENERGY>
36.7387

> <PUBCHEM_FEATURE_SELFOVERLAP>
20.324

> <PUBCHEM_SHAPE_FINGERPRINT>
10967382 1 18410573998047084422
11132069 177 18337677421113682208
12382932 28 18336549321935703282
12423570 1 16548309417411618124
12524768 44 18336260223328887934
13380535 76 18408889550533820574
14325111 11 18338797926257056544
16945 1 18410575102006575844
17844478 74 18060127765402194217
193761 8 17978509732897675685
20201158 50 18411139151350344626
20510252 161 18188211029930666776
20588541 1 18408601465602032047
20871998 184 18187643566066779039
21501502 16 18267866086091646030
2334 1 18050567339641066498
23402539 116 18262815045911982583
23463225 33 18413108368328265512
23552423 10 18199748050942968348
23559900 14 18261951960282652054
2748010 2 18121502358103219260
5084963 1 18042691778343102026
528886 8 18409735036468236482
53812653 166 18189058607662011080
8809292 202 18342452630067575866

> <PUBCHEM_SHAPE_MULTIPOLES>
247.03
4.18
2.37
0.62
0.36
0.52
0
0.59
0
-0.88
0
0
0.03
0

> <PUBCHEM_SHAPE_SELFOVERLAP>
528.751

> <PUBCHEM_SHAPE_VOLUME>
141.7

> <PUBCHEM_COORDINATE_TYPE>
2
5
10

$$$$

