101995
  -OEChem-07051213052D

 53 56  0     1  0  0  0  0  0999 V2000
    3.8114   -3.0489    0.0000 Cl  0  0  0  0  0  0  0  0  0  0  0  0
    7.9821    3.0489    0.0000 O   0  0  0  0  0  0  0  0  0  0  0  0
    2.0000   -2.0030    0.0000 O   0  0  0  0  0  0  0  0  0  0  0  0
    7.3931    0.0493    0.0000 C   0  0  2  0  0  0  0  0  0  0  0  0
    7.3931    1.0493    0.0000 C   0  0  1  0  0  0  0  0  0  0  0  0
    6.5271   -0.4507    0.0000 C   0  0  1  0  0  0  0  0  0  0  0  0
    5.6610    0.0493    0.0000 C   0  0  1  0  0  0  0  0  0  0  0  0
    4.7510   -0.4575    0.0000 C   0  0  2  0  0  0  0  0  0  0  0  0
    8.3393    1.3540    0.0000 C   0  0  2  0  0  0  0  0  0  0  0  0
    6.5271    1.5493    0.0000 C   0  0  0  0  0  0  0  0  0  0  0  0
    5.6610    1.0493    0.0000 C   0  0  0  0  0  0  0  0  0  0  0  0
    8.3393   -0.2554    0.0000 C   0  0  0  0  0  0  0  0  0  0  0  0
    6.5431   -1.4922    0.0000 C   0  0  0  0  0  0  0  0  0  0  0  0
    8.9229    0.5493    0.0000 C   0  0  0  0  0  0  0  0  0  0  0  0
    4.7430   -1.4991    0.0000 C   0  0  0  0  0  0  0  0  0  0  0  0
    7.3931    2.0493    0.0000 C   0  0  0  0  0  0  0  0  0  0  0  0
    5.6451   -2.0200    0.0000 C   0  0  0  0  0  0  0  0  0  0  0  0
    3.8242    0.1065    0.0000 C   0  0  0  0  0  0  0  0  0  0  0  0
    4.7587    0.5424    0.0000 C   0  0  0  0  0  0  0  0  0  0  0  0
    8.6500    2.3046    0.0000 C   0  0  0  0  0  0  0  0  0  0  0  0
    2.8763   -0.4214    0.0000 C   0  0  0  0  0  0  0  0  0  0  0  0
    3.8076   -2.0489    0.0000 C   0  0  0  0  0  0  0  0  0  0  0  0
    2.8680   -1.5064    0.0000 C   0  0  0  0  0  0  0  0  0  0  0  0
    9.6285    2.5108    0.0000 C   0  0  0  0  0  0  0  0  0  0  0  0
    7.4830   -0.7959    0.0000 H   0  0  0  0  0  0  0  0  0  0  0  0
    7.2664   -0.8700    0.0000 H   0  0  0  0  0  0  0  0  0  0  0  0
    6.3972    0.4743    0.0000 H   0  0  0  0  0  0  0  0  0  0  0  0
    7.9018    1.7934    0.0000 H   0  0  0  0  0  0  0  0  0  0  0  0
    6.9256    2.0242    0.0000 H   0  0  0  0  0  0  0  0  0  0  0  0
    6.1285    2.0242    0.0000 H   0  0  0  0  0  0  0  0  0  0  0  0
    5.4490    1.6319    0.0000 H   0  0  0  0  0  0  0  0  0  0  0  0
    5.0504    0.9416    0.0000 H   0  0  0  0  0  0  0  0  0  0  0  0
    8.0883   -0.8223    0.0000 H   0  0  0  0  0  0  0  0  0  0  0  0
    8.8767   -0.5647    0.0000 H   0  0  0  0  0  0  0  0  0  0  0  0
    6.7612   -2.0726    0.0000 H   0  0  0  0  0  0  0  0  0  0  0  0
    7.1523   -1.3767    0.0000 H   0  0  0  0  0  0  0  0  0  0  0  0
    9.3838    0.1346    0.0000 H   0  0  0  0  0  0  0  0  0  0  0  0
    9.3838    0.9640    0.0000 H   0  0  0  0  0  0  0  0  0  0  0  0
    8.0131    2.0493    0.0000 H   0  0  0  0  0  0  0  0  0  0  0  0
    7.3931    2.6693    0.0000 H   0  0  0  0  0  0  0  0  0  0  0  0
    6.7731    2.0493    0.0000 H   0  0  0  0  0  0  0  0  0  0  0  0
    5.2478   -2.4959    0.0000 H   0  0  0  0  0  0  0  0  0  0  0  0
    6.0460   -2.4928    0.0000 H   0  0  0  0  0  0  0  0  0  0  0  0
    4.2324    0.5732    0.0000 H   0  0  0  0  0  0  0  0  0  0  0  0
    3.4343    0.5886    0.0000 H   0  0  0  0  0  0  0  0  0  0  0  0
    5.3787    0.5376    0.0000 H   0  0  0  0  0  0  0  0  0  0  0  0
    4.7635    1.1624    0.0000 H   0  0  0  0  0  0  0  0  0  0  0  0
    4.1388    0.5472    0.0000 H   0  0  0  0  0  0  0  0  0  0  0  0
    2.6718    0.1639    0.0000 H   0  0  0  0  0  0  0  0  0  0  0  0
    2.2647   -0.5228    0.0000 H   0  0  0  0  0  0  0  0  0  0  0  0
    9.7563    1.9041    0.0000 H   0  0  0  0  0  0  0  0  0  0  0  0
   10.2351    2.6386    0.0000 H   0  0  0  0  0  0  0  0  0  0  0  0
    9.5006    3.1174    0.0000 H   0  0  0  0  0  0  0  0  0  0  0  0
  1 22  1  0  0  0  0
  2 20  2  0  0  0  0
  3 23  2  0  0  0  0
  4  5  1  0  0  0  0
  4  6  1  0  0  0  0
  4 12  1  0  0  0  0
  4 25  1  6  0  0  0
  5  9  1  0  0  0  0
  5 10  1  0  0  0  0
  5 16  1  1  0  0  0
  6  7  1  0  0  0  0
  6 13  1  0  0  0  0
  6 26  1  1  0  0  0
  7  8  1  0  0  0  0
  7 11  1  0  0  0  0
  7 27  1  6  0  0  0
  8 15  1  0  0  0  0
  8 18  1  0  0  0  0
  8 19  1  1  0  0  0
  9 14  1  0  0  0  0
  9 20  1  1  0  0  0
  9 28  1  0  0  0  0
 10 11  1  0  0  0  0
 10 29  1  0  0  0  0
 10 30  1  0  0  0  0
 11 31  1  0  0  0  0
 11 32  1  0  0  0  0
 12 14  1  0  0  0  0
 12 33  1  0  0  0  0
 12 34  1  0  0  0  0
 13 17  1  0  0  0  0
 13 35  1  0  0  0  0
 13 36  1  0  0  0  0
 14 37  1  0  0  0  0
 14 38  1  0  0  0  0
 15 17  1  0  0  0  0
 15 22  2  0  0  0  0
 16 39  1  0  0  0  0
 16 40  1  0  0  0  0
 16 41  1  0  0  0  0
 17 42  1  0  0  0  0
 17 43  1  0  0  0  0
 18 21  1  0  0  0  0
 18 44  1  0  0  0  0
 18 45  1  0  0  0  0
 19 46  1  0  0  0  0
 19 47  1  0  0  0  0
 19 48  1  0  0  0  0
 20 24  1  0  0  0  0
 21 23  1  0  0  0  0
 21 49  1  0  0  0  0
 21 50  1  0  0  0  0
 22 23  1  0  0  0  0
 24 51  1  0  0  0  0
 24 52  1  0  0  0  0
 24 53  1  0  0  0  0
M  END
> <PUBCHEM_COMPOUND_CID>
101995

> <PUBCHEM_COMPOUND_CANONICALIZED>
1

> <PUBCHEM_CACTVS_COMPLEXITY>
636

> <PUBCHEM_CACTVS_HBOND_ACCEPTOR>
2

> <PUBCHEM_CACTVS_HBOND_DONOR>
0

> <PUBCHEM_CACTVS_ROTATABLE_BOND>
1

> <PUBCHEM_CACTVS_SUBSKEYS>
AAADceB4MAAEAAAAAAAAAAAAAAAAAYAAAAAwYIAAAAAAAGDAAAAAGgIAAAAADwaAgAACAAAAAACIAoBQAAAAAAAgAAAACAEAAkhAABIBAAAAAAAAgAAIAQMIiMCPgAAAAAAAAACAAAQAACAAAQAACAAAAA==

> <PUBCHEM_IUPAC_OPENEYE_NAME>
(8S,9S,10R,13S,14S,17S)-17-acetyl-4-chloro-10,13-dimethyl-1,2,6,7,8,9,11,12,14,15,16,17-dodecahydrocyclopenta[a]phenanthren-3-one

> <PUBCHEM_IUPAC_CAS_NAME>
(8S,9S,10R,13S,14S,17S)-17-acetyl-4-chloro-10,13-dimethyl-1,2,6,7,8,9,11,12,14,15,16,17-dodecahydrocyclopenta[a]phenanthren-3-one

> <PUBCHEM_IUPAC_NAME>
(8S,9S,10R,13S,14S,17S)-17-acetyl-4-chloro-10,13-dimethyl-1,2,6,7,8,9,11,12,14,15,16,17-dodecahydrocyclopenta[a]phenanthren-3-one

> <PUBCHEM_IUPAC_SYSTEMATIC_NAME>
(8S,9S,10R,13S,14S,17S)-4-chloranyl-17-ethanoyl-10,13-dimethyl-1,2,6,7,8,9,11,12,14,15,16,17-dodecahydrocyclopenta[a]phenanthren-3-one

> <PUBCHEM_IUPAC_TRADITIONAL_NAME>
(8S,9S,10R,13S,14S,17S)-17-acetyl-4-chloro-10,13-dimethyl-1,2,6,7,8,9,11,12,14,15,16,17-dodecahydrocyclopenta[a]phenanthren-3-one

> <PUBCHEM_IUPAC_INCHI>
InChI=1S/C21H29ClO2/c1-12(23)14-6-7-15-13-4-5-17-19(22)18(24)9-11-21(17,3)16(13)8-10-20(14,15)2/h13-16H,4-11H2,1-3H3/t13-,14+,15-,16-,20+,21+/m0/s1

> <PUBCHEM_IUPAC_INCHIKEY>
MSWUPHPHYAFBLX-QCGOMIHKSA-N

> <PUBCHEM_XLOGP3>
4.7

> <PUBCHEM_EXACT_MASS>
348.185608

> <PUBCHEM_MOLECULAR_FORMULA>
C21H29ClO2

> <PUBCHEM_MOLECULAR_WEIGHT>
348.90676

> <PUBCHEM_OPENEYE_CAN_SMILES>
CC(=O)C1CCC2C1(CCC3C2CCC4=C(C(=O)CCC34C)Cl)C

> <PUBCHEM_OPENEYE_ISO_SMILES>
CC(=O)[C@H]1CC[C@@H]2[C@@]1(CC[C@H]3[C@H]2CCC4=C(C(=O)CC[C@]34C)Cl)C

> <PUBCHEM_CACTVS_TPSA>
34.1

> <PUBCHEM_MONOISOTOPIC_WEIGHT>
348.185608

> <PUBCHEM_TOTAL_CHARGE>
0

> <PUBCHEM_HEAVY_ATOM_COUNT>
24

> <PUBCHEM_ATOM_DEF_STEREO_COUNT>
6

> <PUBCHEM_ATOM_UDEF_STEREO_COUNT>
0

> <PUBCHEM_BOND_DEF_STEREO_COUNT>
0

> <PUBCHEM_BOND_UDEF_STEREO_COUNT>
0

> <PUBCHEM_ISOTOPIC_ATOM_COUNT>
0

> <PUBCHEM_COMPONENT_COUNT>
1

> <PUBCHEM_CACTVS_TAUTO_COUNT>
15

> <PUBCHEM_COORDINATE_TYPE>
1
5
255

> <PUBCHEM_BONDANNOTATIONS>
4  25  6
5  16  5
6  26  5
7  27  6
8  19  5
9  20  5

$$$$

