11714234
  -OEChem-07051213122D

 41 43  0     0  0  0  0  0  0999 V2000
    3.7601   -3.6307    0.0000 Cl  0  0  0  0  0  0  0  0  0  0  0  0
    2.0280   -0.6307    0.0000 F   0  0  0  0  0  0  0  0  0  0  0  0
    5.4921   -2.6307    0.0000 O   0  0  0  0  0  0  0  0  0  0  0  0
    3.2601    1.9081    0.0000 O   0  0  0  0  0  0  0  0  0  0  0  0
    5.5202    0.6481    0.0000 O   0  0  0  0  0  0  0  0  0  0  0  0
    2.0000    0.6481    0.0000 O   0  0  0  0  0  0  0  0  0  0  0  0
    3.7601    0.3693    0.0000 N   0  0  0  0  0  0  0  0  0  0  0  0
    6.3582   -2.1307    0.0000 C   0  0  0  0  0  0  0  0  0  0  0  0
    7.2717   -2.5374    0.0000 C   0  0  0  0  0  0  0  0  0  0  0  0
    6.4627   -1.1362    0.0000 C   0  0  0  0  0  0  0  0  0  0  0  0
    7.4408   -0.9283    0.0000 C   0  0  0  0  0  0  0  0  0  0  0  0
    7.9408   -1.7943    0.0000 C   0  0  0  0  0  0  0  0  0  0  0  0
    4.6261   -2.1307    0.0000 C   0  0  0  0  0  0  0  0  0  0  0  0
    4.6261   -1.1307    0.0000 C   0  0  0  0  0  0  0  0  0  0  0  0
    3.7601   -0.6307    0.0000 C   0  0  0  0  0  0  0  0  0  0  0  0
    3.7601   -2.6307    0.0000 C   0  0  0  0  0  0  0  0  0  0  0  0
    2.8940   -1.1307    0.0000 C   0  0  0  0  0  0  0  0  0  0  0  0
    2.8940   -2.1307    0.0000 C   0  0  0  0  0  0  0  0  0  0  0  0
    4.5691    0.9571    0.0000 C   0  0  0  0  0  0  0  0  0  0  0  0
    4.2601    1.9081    0.0000 C   0  0  0  0  0  0  0  0  0  0  0  0
    2.9511    0.9571    0.0000 C   0  0  0  0  0  0  0  0  0  0  0  0
    4.8479    2.7172    0.0000 C   0  0  0  0  0  0  0  0  0  0  0  0
    4.4411    3.6307    0.0000 C   0  0  0  0  0  0  0  0  0  0  0  0
    5.8424    2.6126    0.0000 C   0  0  0  0  0  0  0  0  0  0  0  0
    5.8382   -1.7930    0.0000 H   0  0  0  0  0  0  0  0  0  0  0  0
    6.9617   -3.0744    0.0000 H   0  0  0  0  0  0  0  0  0  0  0  0
    7.7733   -2.9019    0.0000 H   0  0  0  0  0  0  0  0  0  0  0  0
    6.3979   -0.5196    0.0000 H   0  0  0  0  0  0  0  0  0  0  0  0
    5.8427   -1.1362    0.0000 H   0  0  0  0  0  0  0  0  0  0  0  0
    8.3557   -2.2550    0.0000 H   0  0  0  0  0  0  0  0  0  0  0  0
    8.4424   -1.4299    0.0000 H   0  0  0  0  0  0  0  0  0  0  0  0
    8.0072   -0.6761    0.0000 H   0  0  0  0  0  0  0  0  0  0  0  0
    7.2492   -0.3386    0.0000 H   0  0  0  0  0  0  0  0  0  0  0  0
    5.1630   -0.8207    0.0000 H   0  0  0  0  0  0  0  0  0  0  0  0
    2.3571   -2.4407    0.0000 H   0  0  0  0  0  0  0  0  0  0  0  0
    5.7776    1.9960    0.0000 H   0  0  0  0  0  0  0  0  0  0  0  0
    6.4590    2.5478    0.0000 H   0  0  0  0  0  0  0  0  0  0  0  0
    5.9072    3.2292    0.0000 H   0  0  0  0  0  0  0  0  0  0  0  0
    5.0075    3.8829    0.0000 H   0  0  0  0  0  0  0  0  0  0  0  0
    4.1890    4.1971    0.0000 H   0  0  0  0  0  0  0  0  0  0  0  0
    3.8747    3.3785    0.0000 H   0  0  0  0  0  0  0  0  0  0  0  0
  1 16  1  0  0  0  0
  2 17  1  0  0  0  0
  3  8  1  0  0  0  0
  3 13  1  0  0  0  0
  4 20  1  0  0  0  0
  4 21  1  0  0  0  0
  5 19  2  0  0  0  0
  6 21  2  0  0  0  0
  7 15  1  0  0  0  0
  7 19  1  0  0  0  0
  7 21  1  0  0  0  0
  8  9  1  0  0  0  0
  8 10  1  0  0  0  0
  8 25  1  0  0  0  0
  9 12  1  0  0  0  0
  9 26  1  0  0  0  0
  9 27  1  0  0  0  0
 10 11  1  0  0  0  0
 10 28  1  0  0  0  0
 10 29  1  0  0  0  0
 11 12  1  0  0  0  0
 11 32  1  0  0  0  0
 11 33  1  0  0  0  0
 12 30  1  0  0  0  0
 12 31  1  0  0  0  0
 13 14  1  0  0  0  0
 13 16  2  0  0  0  0
 14 15  2  0  0  0  0
 14 34  1  0  0  0  0
 15 17  1  0  0  0  0
 16 18  1  0  0  0  0
 17 18  2  0  0  0  0
 18 35  1  0  0  0  0
 19 20  1  0  0  0  0
 20 22  2  0  0  0  0
 22 23  1  0  0  0  0
 22 24  1  0  0  0  0
 23 39  1  0  0  0  0
 23 40  1  0  0  0  0
 23 41  1  0  0  0  0
 24 36  1  0  0  0  0
 24 37  1  0  0  0  0
 24 38  1  0  0  0  0
M  END
> <PUBCHEM_COMPOUND_CID>
11714234

> <PUBCHEM_COMPOUND_CANONICALIZED>
1

> <PUBCHEM_CACTVS_COMPLEXITY>
557

> <PUBCHEM_CACTVS_HBOND_ACCEPTOR>
5

> <PUBCHEM_CACTVS_HBOND_DONOR>
0

> <PUBCHEM_CACTVS_ROTATABLE_BOND>
3

> <PUBCHEM_CACTVS_SUBSKEYS>
AAADceB6OQAEAAAAAAAAAAAAAAAAAeIAAAAwAAAAAAAAAAABAAAAHwIAAAAADB6hkCoyzoMABACIAiVSWAKCCAAhJ0AAiABGb8gOJiPFsp+POCjmxDnY6QeQUAMAAABAAgAACAAAAIAEAAAQAAAAAAAAAA==

> <PUBCHEM_IUPAC_OPENEYE_NAME>
3-[4-chloro-5-(cyclopentoxy)-2-fluoro-phenyl]-5-isopropylidene-oxazolidine-2,4-dione

> <PUBCHEM_IUPAC_CAS_NAME>
3-(4-chloro-5-cyclopentyloxy-2-fluorophenyl)-5-propan-2-ylideneoxazolidine-2,4-dione

> <PUBCHEM_IUPAC_NAME>
3-(4-chloro-5-cyclopentyloxy-2-fluorophenyl)-5-propan-2-ylidene-1,3-oxazolidine-2,4-dione

> <PUBCHEM_IUPAC_SYSTEMATIC_NAME>
3-(4-chloranyl-5-cyclopentyloxy-2-fluoranyl-phenyl)-5-propan-2-ylidene-1,3-oxazolidine-2,4-dione

> <PUBCHEM_IUPAC_TRADITIONAL_NAME>
3-[4-chloro-5-(cyclopentoxy)-2-fluoro-phenyl]-5-isopropylidene-oxazolidine-2,4-quinone

> <PUBCHEM_IUPAC_INCHI>
InChI=1S/C17H17ClFNO4/c1-9(2)15-16(21)20(17(22)24-15)13-8-14(11(18)7-12(13)19)23-10-5-3-4-6-10/h7-8,10H,3-6H2,1-2H3

> <PUBCHEM_IUPAC_INCHIKEY>
JZPKLLLUDLHCEL-UHFFFAOYSA-N

> <PUBCHEM_XLOGP3_AA>
4.7

> <PUBCHEM_EXACT_MASS>
353.083014

> <PUBCHEM_MOLECULAR_FORMULA>
C17H17ClFNO4

> <PUBCHEM_MOLECULAR_WEIGHT>
353.772583

> <PUBCHEM_OPENEYE_CAN_SMILES>
CC(=C1C(=O)N(C(=O)O1)C2=CC(=C(C=C2F)Cl)OC3CCCC3)C

> <PUBCHEM_OPENEYE_ISO_SMILES>
CC(=C1C(=O)N(C(=O)O1)C2=CC(=C(C=C2F)Cl)OC3CCCC3)C

> <PUBCHEM_CACTVS_TPSA>
55.8

> <PUBCHEM_MONOISOTOPIC_WEIGHT>
353.083014

> <PUBCHEM_TOTAL_CHARGE>
0

> <PUBCHEM_HEAVY_ATOM_COUNT>
24

> <PUBCHEM_ATOM_DEF_STEREO_COUNT>
0

> <PUBCHEM_ATOM_UDEF_STEREO_COUNT>
0

> <PUBCHEM_BOND_DEF_STEREO_COUNT>
0

> <PUBCHEM_BOND_UDEF_STEREO_COUNT>
0

> <PUBCHEM_ISOTOPIC_ATOM_COUNT>
0

> <PUBCHEM_COMPONENT_COUNT>
1

> <PUBCHEM_CACTVS_TAUTO_COUNT>
1

> <PUBCHEM_COORDINATE_TYPE>
1
5
255

> <PUBCHEM_BONDANNOTATIONS>
13  14  8
13  16  8
14  15  8
15  17  8
16  18  8
17  18  8

$$$$

