169494
  -OEChem-07051212573D

 42 45  0     1  0  0  0  0  0999 V2000
   -3.8692    1.1372   -0.9706 O   0  0  0  0  0  0  0  0  0  0  0  0
   -1.3500   -2.0863   -0.0646 O   0  0  0  0  0  0  0  0  0  0  0  0
    2.9251   -0.1500   -0.3690 O   0  0  0  0  0  0  0  0  0  0  0  0
   -0.5846   -4.2476    0.1735 O   0  0  0  0  0  0  0  0  0  0  0  0
    3.9512    1.4858    0.8989 O   0  0  0  0  0  0  0  0  0  0  0  0
   -3.0568    0.1909   -0.2578 C   0  0  1  0  0  0  0  0  0  0  0  0
   -1.5641    0.3235   -0.4987 C   0  0  1  0  0  0  0  0  0  0  0  0
   -3.5682    1.4186    0.4002 C   0  0  1  0  0  0  0  0  0  0  0  0
   -2.4309    2.3627    0.6282 C   0  0  0  0  0  0  0  0  0  0  0  0
   -1.1839    1.6980    0.0646 C   0  0  0  0  0  0  0  0  0  0  0  0
   -0.7724   -0.7901    0.1978 C   0  0  2  0  0  0  0  0  0  0  0  0
    0.6626   -0.9404   -0.2991 C   0  0  1  0  0  0  0  0  0  0  0  0
   -3.7641   -1.0987   -0.0869 C   0  0  0  0  0  0  0  0  0  0  0  0
    0.0537    2.2287    0.0952 C   0  0  0  0  0  0  0  0  0  0  0  0
    1.6198    0.1779    0.1214 C   0  0  2  0  0  0  0  0  0  0  0  0
    1.2511    1.5328   -0.5026 C   0  0  0  0  0  0  0  0  0  0  0  0
    0.9006   -2.3322    0.2004 C   0  0  0  0  0  0  0  0  0  0  0  0
   -0.3954   -3.0468    0.1192 C   0  0  0  0  0  0  0  0  0  0  0  0
    0.3524    3.5786    0.6941 C   0  0  0  0  0  0  0  0  0  0  0  0
    1.9826   -2.9321    0.7017 C   0  0  0  0  0  0  0  0  0  0  0  0
    3.9020    0.7559   -0.0817 C   0  0  0  0  0  0  0  0  0  0  0  0
    4.9382    0.7336   -1.1643 C   0  0  0  0  0  0  0  0  0  0  0  0
   -1.4011    0.2961   -1.5834 H   0  0  0  0  0  0  0  0  0  0  0  0
   -4.3518    1.3994    1.1383 H   0  0  0  0  0  0  0  0  0  0  0  0
   -2.3135    2.5341    1.7036 H   0  0  0  0  0  0  0  0  0  0  0  0
   -2.6306    3.3154    0.1269 H   0  0  0  0  0  0  0  0  0  0  0  0
   -0.8124   -0.6425    1.2884 H   0  0  0  0  0  0  0  0  0  0  0  0
    0.6743   -1.0154   -1.3974 H   0  0  0  0  0  0  0  0  0  0  0  0
   -3.4980   -1.5844    0.8570 H   0  0  0  0  0  0  0  0  0  0  0  0
   -4.8512   -0.9522   -0.0513 H   0  0  0  0  0  0  0  0  0  0  0  0
   -3.5765   -1.7732   -0.9281 H   0  0  0  0  0  0  0  0  0  0  0  0
    1.6612    0.2454    1.2168 H   0  0  0  0  0  0  0  0  0  0  0  0
    1.0742    1.3963   -1.5797 H   0  0  0  0  0  0  0  0  0  0  0  0
    2.0850    2.2421   -0.4845 H   0  0  0  0  0  0  0  0  0  0  0  0
   -0.5236    4.0639    1.1322 H   0  0  0  0  0  0  0  0  0  0  0  0
    0.7498    4.2517   -0.0729 H   0  0  0  0  0  0  0  0  0  0  0  0
    1.0997    3.4780    1.4886 H   0  0  0  0  0  0  0  0  0  0  0  0
    2.9297   -2.4147    0.7948 H   0  0  0  0  0  0  0  0  0  0  0  0
    1.9543   -3.9626    1.0406 H   0  0  0  0  0  0  0  0  0  0  0  0
    4.4821    1.0072   -2.1191 H   0  0  0  0  0  0  0  0  0  0  0  0
    5.3912   -0.2592   -1.2236 H   0  0  0  0  0  0  0  0  0  0  0  0
    5.7214    1.4608   -0.9315 H   0  0  0  0  0  0  0  0  0  0  0  0
  1  6  1  0  0  0  0
  1  8  1  0  0  0  0
  2 11  1  0  0  0  0
  2 18  1  0  0  0  0
  3 15  1  0  0  0  0
  3 21  1  0  0  0  0
  4 18  2  0  0  0  0
  5 21  2  0  0  0  0
  6  7  1  0  0  0  0
  6  8  1  0  0  0  0
  6 13  1  0  0  0  0
  7 10  1  0  0  0  0
  7 11  1  0  0  0  0
  7 23  1  0  0  0  0
  8  9  1  0  0  0  0
  8 24  1  0  0  0  0
  9 10  1  0  0  0  0
  9 25  1  0  0  0  0
  9 26  1  0  0  0  0
 10 14  2  0  0  0  0
 11 12  1  0  0  0  0
 11 27  1  0  0  0  0
 12 15  1  0  0  0  0
 12 17  1  0  0  0  0
 12 28  1  0  0  0  0
 13 29  1  0  0  0  0
 13 30  1  0  0  0  0
 13 31  1  0  0  0  0
 14 16  1  0  0  0  0
 14 19  1  0  0  0  0
 15 16  1  0  0  0  0
 15 32  1  0  0  0  0
 16 33  1  0  0  0  0
 16 34  1  0  0  0  0
 17 18  1  0  0  0  0
 17 20  2  0  0  0  0
 19 35  1  0  0  0  0
 19 36  1  0  0  0  0
 19 37  1  0  0  0  0
 20 38  1  0  0  0  0
 20 39  1  0  0  0  0
 21 22  1  0  0  0  0
 22 40  1  0  0  0  0
 22 41  1  0  0  0  0
 22 42  1  0  0  0  0
M  END
> <PUBCHEM_COMPOUND_CID>
169494

> <PUBCHEM_CONFORMER_RMSD>
0.6

> <PUBCHEM_CONFORMER_DIVERSEORDER>
2
6
4
3
1
5

> <PUBCHEM_MMFF94_PARTIAL_CHARGES>
25
1 -0.3
10 -0.28
11 0.28
12 0.14
13 0.09
14 -0.28
15 0.28
16 0.14
17 -0.12
18 0.71
19 0.14
2 -0.43
20 -0.3
21 0.66
22 0.06
24 0.1
3 -0.43
38 0.15
39 0.15
4 -0.57
5 -0.57
6 -0.04
7 0.23
8 -0.05
9 0.23

> <PUBCHEM_EFFECTIVE_ROTOR_COUNT>
3

> <PUBCHEM_PHARMACOPHORE_FEATURES>
6
1 1 acceptor
1 4 acceptor
1 5 acceptor
5 2 11 12 17 18 rings
6 1 6 7 8 9 10 rings
7 7 10 11 12 14 15 16 rings

> <PUBCHEM_HEAVY_ATOM_COUNT>
22

> <PUBCHEM_ATOM_DEF_STEREO_COUNT>
6

> <PUBCHEM_ATOM_UDEF_STEREO_COUNT>
0

> <PUBCHEM_BOND_DEF_STEREO_COUNT>
0

> <PUBCHEM_BOND_UDEF_STEREO_COUNT>
0

> <PUBCHEM_ISOTOPIC_ATOM_COUNT>
0

> <PUBCHEM_COMPONENT_COUNT>
1

> <PUBCHEM_CACTVS_TAUTO_COUNT>
1

> <PUBCHEM_CONFORMER_ID>
0002961600000002

> <PUBCHEM_MMFF94_ENERGY>
67.7468

> <PUBCHEM_FEATURE_SELFOVERLAP>
30.478

> <PUBCHEM_SHAPE_FINGERPRINT>
10319926 262 18118705231805975072
10411042 1 17546443376216147786
10693767 8 18041857197821469935
10967382 1 18338518663441360137
1100329 8 18193838137573946227
11458722 379 18409722989354100572
12035758 1 18265330599482621361
12788726 201 17695625157054064178
13140716 1 17907010673750631267
13583140 156 16845290488887058200
138480 1 17690843784147237450
14223421 5 18052535761950161733
14787075 74 18042131963858705689
14790565 3 18338500998015122753
15196674 1 18411136965174931365
15209289 33 18335416833665300181
16945 1 18338520729368102323
19591789 44 18410572920310973514
20028762 73 17971468499595422535
20510252 161 18334010571078004657
20600515 1 18336838472726568056
20739085 24 18053924423556010225
20905425 154 18190459552768330740
2334 1 18411139173031013367
23366157 5 17842832497954596498
23402539 116 18333737905364002796
23419403 2 15880198478190650197
23557571 272 18117264875351252628
23559900 14 17905904912644603186
2748010 2 18340194289034392983
3091708 16 9410549022360115435
34934 24 18263085564675430573
350125 39 18051972812392340276
352729 6 18196365914426518559
394222 165 17917713556221537696
43471831 8 18339924934228194099
484989 97 17981892935036494535
54173680 148 18122904218269986846
7097593 13 17401485347572167547
7364860 26 18049442835704408462
81228 2 17407401330262878259
84936 182 18189058766454377944
9709674 26 18045501915742977332

> <PUBCHEM_SHAPE_MULTIPOLES>
423.4
6.69
4.3
0.84
3.2
2.71
0.04
-2.91
1.21
0.01
-1.05
0.25
-0.21
-0.39

> <PUBCHEM_SHAPE_SELFOVERLAP>
919.031

> <PUBCHEM_SHAPE_VOLUME>
232.2

> <PUBCHEM_COORDINATE_TYPE>
2
5
10

$$$$

