8594
  -OEChem-06261202562D

 35 37  0     0  0  0  0  0  0999 V2000
    4.2690    0.2327    0.0000 O   0  0  0  0  0  0  0  0  0  0  0  0
    2.5369   -1.7673    0.0000 O   0  0  0  0  0  0  0  0  0  0  0  0
    3.4030   -0.2673    0.0000 O   0  0  0  0  0  0  0  0  0  0  0  0
    6.0010    0.2327    0.0000 N   0  0  0  0  0  0  0  0  0  0  0  0
    6.8671    1.7327    0.0000 C   0  0  0  0  0  0  0  0  0  0  0  0
    6.0010    1.2327    0.0000 C   0  0  0  0  0  0  0  0  0  0  0  0
    6.8671    2.7327    0.0000 C   0  0  0  0  0  0  0  0  0  0  0  0
    5.1350    1.7327    0.0000 C   0  0  0  0  0  0  0  0  0  0  0  0
    7.7610    1.1980    0.0000 C   0  0  0  0  0  0  0  0  0  0  0  0
    6.0010    3.2327    0.0000 C   0  0  0  0  0  0  0  0  0  0  0  0
    7.7610    3.2673    0.0000 C   0  0  0  0  0  0  0  0  0  0  0  0
    5.1350   -1.2673    0.0000 C   0  0  0  0  0  0  0  0  0  0  0  0
    5.1350    2.7327    0.0000 C   0  0  0  0  0  0  0  0  0  0  0  0
    5.1350   -0.2673    0.0000 C   0  0  0  0  0  0  0  0  0  0  0  0
    8.6671    1.7118    0.0000 C   0  0  0  0  0  0  0  0  0  0  0  0
    4.2690   -1.7673    0.0000 C   0  0  0  0  0  0  0  0  0  0  0  0
    8.6671    2.7535    0.0000 C   0  0  0  0  0  0  0  0  0  0  0  0
    6.0010   -1.7673    0.0000 C   0  0  0  0  0  0  0  0  0  0  0  0
    4.2690   -2.7673    0.0000 C   0  0  0  0  0  0  0  0  0  0  0  0
    6.0010   -2.7673    0.0000 C   0  0  0  0  0  0  0  0  0  0  0  0
    5.1350   -3.2673    0.0000 C   0  0  0  0  0  0  0  0  0  0  0  0
    3.4030   -1.2673    0.0000 C   0  0  0  0  0  0  0  0  0  0  0  0
    6.5380   -0.0773    0.0000 H   0  0  0  0  0  0  0  0  0  0  0  0
    4.5981    1.4227    0.0000 H   0  0  0  0  0  0  0  0  0  0  0  0
    7.7538    0.5780    0.0000 H   0  0  0  0  0  0  0  0  0  0  0  0
    6.0010    3.8527    0.0000 H   0  0  0  0  0  0  0  0  0  0  0  0
    7.7538    3.8873    0.0000 H   0  0  0  0  0  0  0  0  0  0  0  0
    4.5981    3.0427    0.0000 H   0  0  0  0  0  0  0  0  0  0  0  0
    9.2028    1.3998    0.0000 H   0  0  0  0  0  0  0  0  0  0  0  0
    9.2028    3.0656    0.0000 H   0  0  0  0  0  0  0  0  0  0  0  0
    6.5380   -1.4573    0.0000 H   0  0  0  0  0  0  0  0  0  0  0  0
    3.7320   -3.0773    0.0000 H   0  0  0  0  0  0  0  0  0  0  0  0
    6.5380   -3.0773    0.0000 H   0  0  0  0  0  0  0  0  0  0  0  0
    5.1350   -3.8873    0.0000 H   0  0  0  0  0  0  0  0  0  0  0  0
    2.0000   -1.4573    0.0000 H   0  0  0  0  0  0  0  0  0  0  0  0
  1 14  2  0  0  0  0
  2 22  1  0  0  0  0
  2 35  1  0  0  0  0
  3 22  2  0  0  0  0
  4  6  1  0  0  0  0
  4 14  1  0  0  0  0
  4 23  1  0  0  0  0
  5  6  1  0  0  0  0
  5  7  1  0  0  0  0
  5  9  2  0  0  0  0
  6  8  2  0  0  0  0
  7 10  1  0  0  0  0
  7 11  2  0  0  0  0
  8 13  1  0  0  0  0
  8 24  1  0  0  0  0
  9 15  1  0  0  0  0
  9 25  1  0  0  0  0
 10 13  2  0  0  0  0
 10 26  1  0  0  0  0
 11 17  1  0  0  0  0
 11 27  1  0  0  0  0
 12 14  1  0  0  0  0
 12 16  1  0  0  0  0
 12 18  2  0  0  0  0
 13 28  1  0  0  0  0
 15 17  2  0  0  0  0
 15 29  1  0  0  0  0
 16 19  2  0  0  0  0
 16 22  1  0  0  0  0
 17 30  1  0  0  0  0
 18 20  1  0  0  0  0
 18 31  1  0  0  0  0
 19 21  1  0  0  0  0
 19 32  1  0  0  0  0
 20 21  2  0  0  0  0
 20 33  1  0  0  0  0
 21 34  1  0  0  0  0
M  END
> <PUBCHEM_COMPOUND_CID>
8594

> <PUBCHEM_COMPOUND_CANONICALIZED>
1

> <PUBCHEM_CACTVS_COMPLEXITY>
423

> <PUBCHEM_CACTVS_HBOND_ACCEPTOR>
3

> <PUBCHEM_CACTVS_HBOND_DONOR>
2

> <PUBCHEM_CACTVS_ROTATABLE_BOND>
3

> <PUBCHEM_CACTVS_SUBSKEYS>
AAADccB6MAAAAAAAAAAAAAAAAAAAAAAAAAAwYMAAAAAAAADBVAAAHgAQCAAADAiBmAAwyMLAAgCIAiXSWACCAAAlAgAIiAEAbMgIJjLAlZGEcQhk1AHI2Ye/yKCOgAAAQAASAAAAAACAACQAAAAAAAAAAA==

> <PUBCHEM_IUPAC_OPENEYE_NAME>
2-(1-naphthylcarbamoyl)benzoic acid

> <PUBCHEM_IUPAC_CAS_NAME>
2-[(1-naphthalenylamino)-oxomethyl]benzoic acid

> <PUBCHEM_IUPAC_NAME>
2-(naphthalen-1-ylcarbamoyl)benzoic acid

> <PUBCHEM_IUPAC_SYSTEMATIC_NAME>
2-(naphthalen-1-ylcarbamoyl)benzoic acid

> <PUBCHEM_IUPAC_TRADITIONAL_NAME>
2-(1-naphthylcarbamoyl)benzoic acid

> <PUBCHEM_IUPAC_INCHI>
InChI=1S/C18H13NO3/c20-17(14-9-3-4-10-15(14)18(21)22)19-16-11-5-7-12-6-1-2-8-13(12)16/h1-11H,(H,19,20)(H,21,22)

> <PUBCHEM_IUPAC_INCHIKEY>
JXTHEWSKYLZVJC-UHFFFAOYSA-N

> <PUBCHEM_XLOGP3_AA>
3.5

> <PUBCHEM_EXACT_MASS>
291.089543

> <PUBCHEM_MOLECULAR_FORMULA>
C18H13NO3

> <PUBCHEM_MOLECULAR_WEIGHT>
291.30072

> <PUBCHEM_OPENEYE_CAN_SMILES>
C1=CC=C2C(=C1)C=CC=C2NC(=O)C3=CC=CC=C3C(=O)O

> <PUBCHEM_OPENEYE_ISO_SMILES>
C1=CC=C2C(=C1)C=CC=C2NC(=O)C3=CC=CC=C3C(=O)O

> <PUBCHEM_CACTVS_TPSA>
66.4

> <PUBCHEM_MONOISOTOPIC_WEIGHT>
291.089543

> <PUBCHEM_TOTAL_CHARGE>
0

> <PUBCHEM_HEAVY_ATOM_COUNT>
22

> <PUBCHEM_ATOM_DEF_STEREO_COUNT>
0

> <PUBCHEM_ATOM_UDEF_STEREO_COUNT>
0

> <PUBCHEM_BOND_DEF_STEREO_COUNT>
0

> <PUBCHEM_BOND_UDEF_STEREO_COUNT>
0

> <PUBCHEM_ISOTOPIC_ATOM_COUNT>
0

> <PUBCHEM_COMPONENT_COUNT>
1

> <PUBCHEM_CACTVS_TAUTO_COUNT>
2

> <PUBCHEM_COORDINATE_TYPE>
1
5
255

> <PUBCHEM_BONDANNOTATIONS>
10  13  8
11  17  8
12  16  8
12  18  8
15  17  8
16  19  8
18  20  8
19  21  8
20  21  8
5  6  8
5  7  8
5  9  8
6  8  8
7  10  8
7  11  8
8  13  8
9  15  8

$$$$

