441856
  -OEChem-07051212563D

106112  0     1  0  0  0  0  0999 V2000
   -6.3753    1.6597    0.1357 O   0  0  0  0  0  0  0  0  0  0  0  0
   -7.7665   -0.8433   -2.5168 O   0  0  0  0  0  0  0  0  0  0  0  0
    1.3467   -0.3969   -0.6880 O   0  0  0  0  0  0  0  0  0  0  0  0
  -10.8280    0.1906    0.7970 O   0  0  0  0  0  0  0  0  0  0  0  0
    3.0279   -2.0165   -0.2270 O   0  0  0  0  0  0  0  0  0  0  0  0
  -11.0540    2.0484   -0.5423 O   0  0  0  0  0  0  0  0  0  0  0  0
    4.0699   -1.3529   -2.9101 O   0  0  0  0  0  0  0  0  0  0  0  0
    3.6954    1.4600   -0.6154 O   0  0  0  0  0  0  0  0  0  0  0  0
    5.8324    0.2002    0.6836 O   0  0  0  0  0  0  0  0  0  0  0  0
    7.9373   -0.8022    0.5920 O   0  0  0  0  0  0  0  0  0  0  0  0
    7.0173    2.6941    0.0637 O   0  0  0  0  0  0  0  0  0  0  0  0
    9.8247    2.8280    0.9476 O   0  0  0  0  0  0  0  0  0  0  0  0
   11.2964    0.5297   -0.0050 O   0  0  0  0  0  0  0  0  0  0  0  0
    9.2238   -3.1595    0.0053 O   0  0  0  0  0  0  0  0  0  0  0  0
   -5.6148    0.4451    0.0130 C   0  0  1  0  0  0  0  0  0  0  0  0
   -4.1743    0.8054    0.4773 C   0  0  1  0  0  0  0  0  0  0  0  0
   -3.2506   -0.4310    0.6597 C   0  0  1  0  0  0  0  0  0  0  0  0
   -6.2836   -0.6852    0.8503 C   0  0  1  0  0  0  0  0  0  0  0  0
   -1.7916   -0.0388    1.1179 C   0  0  2  0  0  0  0  0  0  0  0  0
   -1.1982    1.0241    0.1373 C   0  0  2  0  0  0  0  0  0  0  0  0
   -7.4587   -1.1600   -0.0683 C   0  0  2  0  0  0  0  0  0  0  0  0
   -3.9339   -1.4518    1.5887 C   0  0  0  0  0  0  0  0  0  0  0  0
   -5.3008   -1.8713    1.0550 C   0  0  0  0  0  0  0  0  0  0  0  0
   -5.7274   -0.0396   -1.4514 C   0  0  0  0  0  0  0  0  0  0  0  0
   -3.5365    1.8652   -0.4438 C   0  0  0  0  0  0  0  0  0  0  0  0
   -6.8349   -1.1056   -1.4811 C   0  0  2  0  0  0  0  0  0  0  0  0
   -2.1220    2.2413   -0.0177 C   0  0  0  0  0  0  0  0  0  0  0  0
   -0.8304   -1.2643    1.1502 C   0  0  0  0  0  0  0  0  0  0  0  0
   -6.7680   -0.2037    2.2334 C   0  0  0  0  0  0  0  0  0  0  0  0
   -0.8537    0.4311   -1.2499 C   0  0  0  0  0  0  0  0  0  0  0  0
   -1.7946    0.5386    2.5583 C   0  0  0  0  0  0  0  0  0  0  0  0
   -0.5104   -1.8463   -0.2257 C   0  0  0  0  0  0  0  0  0  0  0  0
    0.0603   -0.7886   -1.1629 C   0  0  2  0  0  0  0  0  0  0  0  0
   -8.7403   -0.3853    0.0549 C   0  0  0  0  0  0  0  0  0  0  0  0
   -9.8077   -0.7946    0.9902 C   0  0  0  0  0  0  0  0  0  0  0  0
   -9.0827    0.7114   -0.6157 C   0  0  0  0  0  0  0  0  0  0  0  0
    2.3720   -1.2267   -1.2239 C   0  0  2  0  0  0  0  0  0  0  0  0
  -10.4177    1.0868   -0.1473 C   0  0  0  0  0  0  0  0  0  0  0  0
    3.3576   -0.4291   -2.0883 C   0  0  1  0  0  0  0  0  0  0  0  0
    4.3546    0.3637   -1.2407 C   0  0  2  0  0  0  0  0  0  0  0  0
    3.9517   -1.3382    0.6275 C   0  0  1  0  0  0  0  0  0  0  0  0
    4.9850   -0.5444   -0.1816 C   0  0  2  0  0  0  0  0  0  0  0  0
    3.2378   -0.5691    1.7380 C   0  0  0  0  0  0  0  0  0  0  0  0
    7.1526    0.3035    0.1512 C   0  0  2  0  0  0  0  0  0  0  0  0
    3.0999    2.3215   -1.5741 C   0  0  0  0  0  0  0  0  0  0  0  0
    7.7566    1.6191    0.6424 C   0  0  1  0  0  0  0  0  0  0  0  0
    9.2267    1.7401    0.2409 C   0  0  2  0  0  0  0  0  0  0  0  0
    9.2677   -0.7719    0.0719 C   0  0  1  0  0  0  0  0  0  0  0  0
   10.0015    0.4685    0.5872 C   0  0  1  0  0  0  0  0  0  0  0  0
    9.9609   -2.0593    0.5065 C   0  0  0  0  0  0  0  0  0  0  0  0
   -4.2840    1.2896    1.4574 H   0  0  0  0  0  0  0  0  0  0  0  0
   -3.1642   -0.9153   -0.3200 H   0  0  0  0  0  0  0  0  0  0  0  0
   -0.2542    1.3946    0.5629 H   0  0  0  0  0  0  0  0  0  0  0  0
   -7.7076   -2.2086    0.1459 H   0  0  0  0  0  0  0  0  0  0  0  0
   -4.0429   -1.0490    2.6004 H   0  0  0  0  0  0  0  0  0  0  0  0
   -3.3256   -2.3574    1.6763 H   0  0  0  0  0  0  0  0  0  0  0  0
   -5.1359   -2.4147    0.1172 H   0  0  0  0  0  0  0  0  0  0  0  0
   -5.7440   -2.6036    1.7423 H   0  0  0  0  0  0  0  0  0  0  0  0
   -5.9455    0.7786   -2.1470 H   0  0  0  0  0  0  0  0  0  0  0  0
   -4.7984   -0.5117   -1.7885 H   0  0  0  0  0  0  0  0  0  0  0  0
   -4.1358    2.7826   -0.4418 H   0  0  0  0  0  0  0  0  0  0  0  0
   -3.5201    1.5138   -1.4809 H   0  0  0  0  0  0  0  0  0  0  0  0
   -6.3758   -2.0736   -1.7167 H   0  0  0  0  0  0  0  0  0  0  0  0
   -1.6987    2.9399   -0.7500 H   0  0  0  0  0  0  0  0  0  0  0  0
   -2.1672    2.7939    0.9282 H   0  0  0  0  0  0  0  0  0  0  0  0
   -1.2236   -2.0584    1.7935 H   0  0  0  0  0  0  0  0  0  0  0  0
    0.1157   -0.9613    1.6184 H   0  0  0  0  0  0  0  0  0  0  0  0
   -5.9343    0.1458    2.8507 H   0  0  0  0  0  0  0  0  0  0  0  0
   -7.4706    0.6329    2.1712 H   0  0  0  0  0  0  0  0  0  0  0  0
   -7.2581   -1.0165    2.7804 H   0  0  0  0  0  0  0  0  0  0  0  0
   -0.3584    1.2070   -1.8472 H   0  0  0  0  0  0  0  0  0  0  0  0
   -1.7640    0.1482   -1.7891 H   0  0  0  0  0  0  0  0  0  0  0  0
   -2.0587   -0.2263    3.2965 H   0  0  0  0  0  0  0  0  0  0  0  0
   -2.4914    1.3709    2.6833 H   0  0  0  0  0  0  0  0  0  0  0  0
   -0.7995    0.9099    2.8310 H   0  0  0  0  0  0  0  0  0  0  0  0
   -1.4136   -2.2842   -0.6649 H   0  0  0  0  0  0  0  0  0  0  0  0
    0.2053   -2.6664   -0.0957 H   0  0  0  0  0  0  0  0  0  0  0  0
    0.1299   -1.1908   -2.1821 H   0  0  0  0  0  0  0  0  0  0  0  0
   -6.1571    2.2451   -0.6079 H   0  0  0  0  0  0  0  0  0  0  0  0
   -8.4200   -1.5634   -2.5097 H   0  0  0  0  0  0  0  0  0  0  0  0
  -10.2169   -1.7786    0.7424 H   0  0  0  0  0  0  0  0  0  0  0  0
   -9.5012   -0.7780    2.0381 H   0  0  0  0  0  0  0  0  0  0  0  0
   -8.5368    1.2682   -1.3569 H   0  0  0  0  0  0  0  0  0  0  0  0
    1.9375   -1.9903   -1.8815 H   0  0  0  0  0  0  0  0  0  0  0  0
    2.7891    0.2012   -2.7766 H   0  0  0  0  0  0  0  0  0  0  0  0
    5.1530    0.7693   -1.8745 H   0  0  0  0  0  0  0  0  0  0  0  0
    4.5031   -2.1329    1.1472 H   0  0  0  0  0  0  0  0  0  0  0  0
    5.5778   -1.3046   -0.7132 H   0  0  0  0  0  0  0  0  0  0  0  0
    4.6696   -0.8387   -3.4773 H   0  0  0  0  0  0  0  0  0  0  0  0
    3.9488   -0.1831    2.4749 H   0  0  0  0  0  0  0  0  0  0  0  0
    2.5334   -1.2287    2.2563 H   0  0  0  0  0  0  0  0  0  0  0  0
    2.6539    0.2721    1.3583 H   0  0  0  0  0  0  0  0  0  0  0  0
    7.1229    0.3109   -0.9468 H   0  0  0  0  0  0  0  0  0  0  0  0
    2.9646    3.2975   -1.0976 H   0  0  0  0  0  0  0  0  0  0  0  0
    3.7340    2.4673   -2.4547 H   0  0  0  0  0  0  0  0  0  0  0  0
    2.1045    1.9713   -1.8578 H   0  0  0  0  0  0  0  0  0  0  0  0
    7.6509    1.7108    1.7300 H   0  0  0  0  0  0  0  0  0  0  0  0
    9.3283    1.9707   -0.8267 H   0  0  0  0  0  0  0  0  0  0  0  0
    9.2154   -0.7691   -1.0254 H   0  0  0  0  0  0  0  0  0  0  0  0
   10.1333    0.4191    1.6759 H   0  0  0  0  0  0  0  0  0  0  0  0
    7.0967    2.6289   -0.9033 H   0  0  0  0  0  0  0  0  0  0  0  0
   10.9808   -2.1239    0.1171 H   0  0  0  0  0  0  0  0  0  0  0  0
    9.9829   -2.1415    1.5982 H   0  0  0  0  0  0  0  0  0  0  0  0
    9.3086    3.6260    0.7411 H   0  0  0  0  0  0  0  0  0  0  0  0
   11.8499   -0.1475    0.4188 H   0  0  0  0  0  0  0  0  0  0  0  0
    9.6784   -3.9674    0.2988 H   0  0  0  0  0  0  0  0  0  0  0  0
  1 15  1  0  0  0  0
  1 79  1  0  0  0  0
  2 26  1  0  0  0  0
  2 80  1  0  0  0  0
  3 33  1  0  0  0  0
  3 37  1  0  0  0  0
  4 35  1  0  0  0  0
  4 38  1  0  0  0  0
  5 37  1  0  0  0  0
  5 41  1  0  0  0  0
  6 38  2  0  0  0  0
  7 39  1  0  0  0  0
  7 89  1  0  0  0  0
  8 40  1  0  0  0  0
  8 45  1  0  0  0  0
  9 42  1  0  0  0  0
  9 44  1  0  0  0  0
 10 44  1  0  0  0  0
 10 48  1  0  0  0  0
 11 46  1  0  0  0  0
 11101  1  0  0  0  0
 12 47  1  0  0  0  0
 12104  1  0  0  0  0
 13 49  1  0  0  0  0
 13105  1  0  0  0  0
 14 50  1  0  0  0  0
 14106  1  0  0  0  0
 15 16  1  0  0  0  0
 15 18  1  0  0  0  0
 15 24  1  0  0  0  0
 16 17  1  0  0  0  0
 16 25  1  0  0  0  0
 16 51  1  0  0  0  0
 17 19  1  0  0  0  0
 17 22  1  0  0  0  0
 17 52  1  0  0  0  0
 18 21  1  0  0  0  0
 18 23  1  0  0  0  0
 18 29  1  0  0  0  0
 19 20  1  0  0  0  0
 19 28  1  0  0  0  0
 19 31  1  0  0  0  0
 20 27  1  0  0  0  0
 20 30  1  0  0  0  0
 20 53  1  0  0  0  0
 21 26  1  0  0  0  0
 21 34  1  0  0  0  0
 21 54  1  0  0  0  0
 22 23  1  0  0  0  0
 22 55  1  0  0  0  0
 22 56  1  0  0  0  0
 23 57  1  0  0  0  0
 23 58  1  0  0  0  0
 24 26  1  0  0  0  0
 24 59  1  0  0  0  0
 24 60  1  0  0  0  0
 25 27  1  0  0  0  0
 25 61  1  0  0  0  0
 25 62  1  0  0  0  0
 26 63  1  0  0  0  0
 27 64  1  0  0  0  0
 27 65  1  0  0  0  0
 28 32  1  0  0  0  0
 28 66  1  0  0  0  0
 28 67  1  0  0  0  0
 29 68  1  0  0  0  0
 29 69  1  0  0  0  0
 29 70  1  0  0  0  0
 30 33  1  0  0  0  0
 30 71  1  0  0  0  0
 30 72  1  0  0  0  0
 31 73  1  0  0  0  0
 31 74  1  0  0  0  0
 31 75  1  0  0  0  0
 32 33  1  0  0  0  0
 32 76  1  0  0  0  0
 32 77  1  0  0  0  0
 33 78  1  0  0  0  0
 34 35  1  0  0  0  0
 34 36  2  0  0  0  0
 35 81  1  0  0  0  0
 35 82  1  0  0  0  0
 36 38  1  0  0  0  0
 36 83  1  0  0  0  0
 37 39  1  0  0  0  0
 37 84  1  0  0  0  0
 39 40  1  0  0  0  0
 39 85  1  0  0  0  0
 40 42  1  0  0  0  0
 40 86  1  0  0  0  0
 41 42  1  0  0  0  0
 41 43  1  0  0  0  0
 41 87  1  0  0  0  0
 42 88  1  0  0  0  0
 43 90  1  0  0  0  0
 43 91  1  0  0  0  0
 43 92  1  0  0  0  0
 44 46  1  0  0  0  0
 44 93  1  0  0  0  0
 45 94  1  0  0  0  0
 45 95  1  0  0  0  0
 45 96  1  0  0  0  0
 46 47  1  0  0  0  0
 46 97  1  0  0  0  0
 47 49  1  0  0  0  0
 47 98  1  0  0  0  0
 48 49  1  0  0  0  0
 48 50  1  0  0  0  0
 48 99  1  0  0  0  0
 49100  1  0  0  0  0
 50102  1  0  0  0  0
 50103  1  0  0  0  0
M  END
> <PUBCHEM_COMPOUND_CID>
441856

> <PUBCHEM_CONFORMER_RMSD>
1.2

> <PUBCHEM_CONFORMER_DIVERSEORDER>
37
85
57
61
97
99
44
68
41
96
6
91
93
101
17
54
45
66
43
100
70
55
60
69
52
47
40
83
38
12
79
2
80
86
89
63
36
107
50
25
21
35
42
7
94
78
104
76
31
4
103
64
18
15
88
90
73
82
39
95
19
98
13
46
65
75
71
28
48
62
32
58
102
77
24
67
56
106
92
105
33
59
11
16
34
14
53
74
72
49
81
87
26
10
29
51
8
22
84
23
3
27
30
5
20
1
9

> <PUBCHEM_MMFF94_PARTIAL_CHARGES>
42
1 -0.68
10 -0.56
101 0.4
104 0.4
105 0.4
106 0.4
11 -0.68
12 -0.68
13 -0.68
14 -0.68
15 0.28
2 -0.68
21 0.14
26 0.28
3 -0.56
33 0.28
34 -0.28
35 0.42
36 -0.14
37 0.56
38 0.71
39 0.28
4 -0.43
40 0.28
41 0.28
42 0.28
44 0.56
45 0.28
46 0.28
47 0.28
48 0.28
49 0.28
5 -0.56
50 0.28
6 -0.57
7 -0.68
79 0.4
8 -0.56
80 0.4
83 0.15
89 0.4
9 -0.56

> <PUBCHEM_EFFECTIVE_ROTOR_COUNT>
12

> <PUBCHEM_PHARMACOPHORE_FEATURES>
27
1 1 acceptor
1 1 donor
1 10 acceptor
1 11 acceptor
1 11 donor
1 12 acceptor
1 12 donor
1 13 acceptor
1 13 donor
1 14 acceptor
1 14 donor
1 2 acceptor
1 2 donor
1 3 acceptor
1 5 acceptor
1 6 acceptor
1 7 acceptor
1 7 donor
1 8 acceptor
1 9 acceptor
5 15 18 21 24 26 rings
5 4 34 35 36 38 rings
6 10 44 46 47 48 49 rings
6 15 16 17 18 22 23 rings
6 16 17 19 20 25 27 rings
6 19 20 28 30 32 33 rings
6 5 37 39 40 41 42 rings

> <PUBCHEM_HEAVY_ATOM_COUNT>
50

> <PUBCHEM_ATOM_DEF_STEREO_COUNT>
19

> <PUBCHEM_ATOM_UDEF_STEREO_COUNT>
0

> <PUBCHEM_BOND_DEF_STEREO_COUNT>
0

> <PUBCHEM_BOND_UDEF_STEREO_COUNT>
0

> <PUBCHEM_ISOTOPIC_ATOM_COUNT>
0

> <PUBCHEM_COMPONENT_COUNT>
1

> <PUBCHEM_CACTVS_TAUTO_COUNT>
1

> <PUBCHEM_CONFORMER_ID>
0006BE0000000025

> <PUBCHEM_MMFF94_ENERGY>
182.6614

> <PUBCHEM_FEATURE_SELFOVERLAP>
137.354

> <PUBCHEM_SHAPE_FINGERPRINT>
10 15 18407758119631818478
10533779 47 18130211727816213586
10580692 12 14549023187006602891
10674148 151 12031789154584369364
11146851 88 18273497857684482345
12013929 2 18342174488750118098
12013929 94 7132428035379900389
12133447 93 16558473110343026838
12522641 33 17748544848550280287
12664476 115 14273458093616301779
13811026 1 18413106173958686404
15065858 18 18343022185928390875
15840311 113 18341894079210198556
15890870 6 18333449825091529010
19841028 212 16343432798818624122
20105231 36 8358264739349582340
24771293 8 17894904131352654001
24893992 56 15267337401502038033
335507 130 17894630353374036509
4625314 4 18411983520788942666
4874694 18 18131350808877668179
5028188 123 5473134146670488405
6081469 158 17989208157857420172
6126387 218 18342739611730085693
6523845 18 14851606591973303098
6691757 9 16343696656056017081

> <PUBCHEM_SHAPE_MULTIPOLES>
946.81
41.64
2.3
1.79
20.23
0.44
-0.41
5.16
4.74
3.45
0.05
-1.04
-0.32
1.36

> <PUBCHEM_SHAPE_SELFOVERLAP>
2022.441

> <PUBCHEM_SHAPE_VOLUME>
518.9

> <PUBCHEM_COORDINATE_TYPE>
2
5
10

$$$$

