441093
  -OEChem-07051212513D

 16 16  0     1  0  0  0  0  0999 V2000
    0.5017    1.8782    1.6767 Cl  0  0  0  0  0  0  0  0  0  0  0  0
    2.9564    0.7897   -0.2786 Cl  0  0  0  0  0  0  0  0  0  0  0  0
   -1.6031    0.9581   -1.9883 Cl  0  0  0  0  0  0  0  0  0  0  0  0
    1.7792   -2.4320   -0.4677 Cl  0  0  0  0  0  0  0  0  0  0  0  0
   -3.0852   -0.8898    0.5852 Cl  0  0  0  0  0  0  0  0  0  0  0  0
    0.2732    1.3783   -0.0418 C   0  0  1  0  0  0  0  0  0  0  0  0
    1.2513    0.2536   -0.4391 C   0  0  2  0  0  0  0  0  0  0  0  0
   -1.1882    0.9231   -0.2374 C   0  0  2  0  0  0  0  0  0  0  0  0
    1.0047   -1.0413    0.3591 C   0  0  1  0  0  0  0  0  0  0  0  0
   -1.4338   -0.4711    0.2760 C   0  0  0  0  0  0  0  0  0  0  0  0
   -0.4561   -1.3470    0.5559 C   0  0  0  0  0  0  0  0  0  0  0  0
    0.4709    2.2801   -0.6328 H   0  0  0  0  0  0  0  0  0  0  0  0
    1.1238    0.0538   -1.5099 H   0  0  0  0  0  0  0  0  0  0  0  0
   -1.8657    1.6385    0.2428 H   0  0  0  0  0  0  0  0  0  0  0  0
    1.4713   -0.9830    1.3491 H   0  0  0  0  0  0  0  0  0  0  0  0
   -0.7085   -2.3199    0.9722 H   0  0  0  0  0  0  0  0  0  0  0  0
  1  6  1  0  0  0  0
  2  7  1  0  0  0  0
  3  8  1  0  0  0  0
  4  9  1  0  0  0  0
  5 10  1  0  0  0  0
  6  7  1  0  0  0  0
  6  8  1  0  0  0  0
  6 12  1  0  0  0  0
  7  9  1  0  0  0  0
  7 13  1  0  0  0  0
  8 10  1  0  0  0  0
  8 14  1  0  0  0  0
  9 11  1  0  0  0  0
  9 15  1  0  0  0  0
 10 11  2  0  0  0  0
 11 16  1  0  0  0  0
M  END
> <PUBCHEM_COMPOUND_CID>
441093

> <PUBCHEM_CONFORMER_RMSD>
0.4

> <PUBCHEM_CONFORMER_DIVERSEORDER>
1
2

> <PUBCHEM_MMFF94_PARTIAL_CHARGES>
11
1 -0.29
11 -0.29
16 0.15
2 -0.29
3 -0.29
4 -0.29
5 -0.14
6 0.29
7 0.29
8 0.43
9 0.43

> <PUBCHEM_EFFECTIVE_ROTOR_COUNT>
0.8

> <PUBCHEM_PHARMACOPHORE_FEATURES>
1
6 6 7 8 9 10 11 rings

> <PUBCHEM_HEAVY_ATOM_COUNT>
11

> <PUBCHEM_ATOM_DEF_STEREO_COUNT>
4

> <PUBCHEM_ATOM_UDEF_STEREO_COUNT>
0

> <PUBCHEM_BOND_DEF_STEREO_COUNT>
0

> <PUBCHEM_BOND_UDEF_STEREO_COUNT>
0

> <PUBCHEM_ISOTOPIC_ATOM_COUNT>
0

> <PUBCHEM_COMPONENT_COUNT>
1

> <PUBCHEM_CACTVS_TAUTO_COUNT>
1

> <PUBCHEM_CONFORMER_ID>
0006BB0500000001

> <PUBCHEM_MMFF94_ENERGY>
12.9426

> <PUBCHEM_FEATURE_SELFOVERLAP>
5.074

> <PUBCHEM_SHAPE_FINGERPRINT>
12423570 1 11882947032196469817
13380535 239 18130785702285616079
137420 1 15471408649096931520
14761567 1 17696483153574364567
14817 1 13574925454113136949
15501101 241 18340754945738853611
161256 15 18272359906215776559
16945 1 18197191707825209803
18185500 45 16179630051819793133
20588541 1 18270669862233317619
20711978 78 18260554411329450719
21061003 4 18261388910537602704
22344851 341 18129945709724894858
23419403 2 16179966322137128224
23552423 10 18129088095103359098
241688 4 17983281914073134066
2748010 2 18272090564368527527
5084963 1 18129104428689646208
5255222 1 18339085860832808491
528886 8 17986386677000964953
53812653 11 18046617911164812134
53812653 166 18263922150841406417

> <PUBCHEM_SHAPE_MULTIPOLES>
235.72
3.5
2.27
1.41
0.37
0.7
-0.31
0.65
-0.27
-0.95
0.29
0.53
-0.73
0.73

> <PUBCHEM_SHAPE_SELFOVERLAP>
426.105

> <PUBCHEM_SHAPE_VOLUME>
149.8

> <PUBCHEM_COORDINATE_TYPE>
2
5
10

$$$$

