5085
  -OEChem-06261200302D

 28 29  0     0  0  0  0  0  0999 V2000
    3.7321   -1.5600    0.0000 F   0  0  0  0  0  0  0  0  0  0  0  0
    6.3301   -0.0600    0.0000 O   0  0  0  0  0  0  0  0  0  0  0  0
    2.0000    1.4400    0.0000 O   0  0  0  0  0  0  0  0  0  0  0  0
    2.0000   -0.5600    0.0000 O   0  0  0  0  0  0  0  0  0  0  0  0
    4.5981    2.9400    0.0000 O   0  0  0  0  0  0  0  0  0  0  0  0
    2.8660    2.9400    0.0000 O   0  0  0  0  0  0  0  0  0  0  0  0
    3.7321    2.4400    0.0000 N   0  0  0  0  0  0  0  0  0  0  0  0
    4.5981   -0.0600    0.0000 C   0  0  0  0  0  0  0  0  0  0  0  0
    5.4641   -0.5600    0.0000 C   0  0  0  0  0  0  0  0  0  0  0  0
    5.4641   -1.5600    0.0000 C   0  0  0  0  0  0  0  0  0  0  0  0
    4.5981    0.9400    0.0000 C   0  0  0  0  0  0  0  0  0  0  0  0
    3.7321    1.4400    0.0000 C   0  0  0  0  0  0  0  0  0  0  0  0
    3.7321   -0.5600    0.0000 C   0  0  0  0  0  0  0  0  0  0  0  0
    2.8660    0.9400    0.0000 C   0  0  0  0  0  0  0  0  0  0  0  0
    2.8660   -0.0600    0.0000 C   0  0  0  0  0  0  0  0  0  0  0  0
    4.5981   -2.0600    0.0000 C   0  0  0  0  0  0  0  0  0  0  0  0
    6.3301   -2.0600    0.0000 C   0  0  0  0  0  0  0  0  0  0  0  0
    4.5981   -3.0600    0.0000 C   0  0  0  0  0  0  0  0  0  0  0  0
    6.3301   -3.0600    0.0000 C   0  0  0  0  0  0  0  0  0  0  0  0
    5.4641   -3.5600    0.0000 C   0  0  0  0  0  0  0  0  0  0  0  0
    5.1350    1.2500    0.0000 H   0  0  0  0  0  0  0  0  0  0  0  0
    3.7321   -1.1800    0.0000 H   0  0  0  0  0  0  0  0  0  0  0  0
    6.8671   -1.7500    0.0000 H   0  0  0  0  0  0  0  0  0  0  0  0
    4.0611   -3.3700    0.0000 H   0  0  0  0  0  0  0  0  0  0  0  0
    6.8671   -3.3700    0.0000 H   0  0  0  0  0  0  0  0  0  0  0  0
    5.4641   -4.1800    0.0000 H   0  0  0  0  0  0  0  0  0  0  0  0
    4.5981    3.5600    0.0000 H   0  0  0  0  0  0  0  0  0  0  0  0
    2.8660    3.5600    0.0000 H   0  0  0  0  0  0  0  0  0  0  0  0
  1 16  1  0  0  0  0
  2  9  2  0  0  0  0
  3 14  2  0  0  0  0
  4 15  2  0  0  0  0
  5  7  1  0  0  0  0
  5 27  1  0  0  0  0
  6  7  1  0  0  0  0
  6 28  1  0  0  0  0
  7 12  1  0  0  0  0
  8  9  1  0  0  0  0
  8 11  1  0  0  0  0
  8 13  2  0  0  0  0
  9 10  1  0  0  0  0
 10 16  1  0  0  0  0
 10 17  2  0  0  0  0
 11 12  2  0  0  0  0
 11 21  1  0  0  0  0
 12 14  1  0  0  0  0
 13 15  1  0  0  0  0
 13 22  1  0  0  0  0
 14 15  1  0  0  0  0
 16 18  2  0  0  0  0
 17 19  1  0  0  0  0
 17 23  1  0  0  0  0
 18 20  1  0  0  0  0
 18 24  1  0  0  0  0
 19 20  2  0  0  0  0
 19 25  1  0  0  0  0
 20 26  1  0  0  0  0
M  END
> <PUBCHEM_COMPOUND_CID>
5085

> <PUBCHEM_COMPOUND_CANONICALIZED>
1

> <PUBCHEM_CACTVS_COMPLEXITY>
523

> <PUBCHEM_CACTVS_HBOND_ACCEPTOR>
7

> <PUBCHEM_CACTVS_HBOND_DONOR>
2

> <PUBCHEM_CACTVS_ROTATABLE_BOND>
3

> <PUBCHEM_CACTVS_SUBSKEYS>
AAADccByOQAAAAAAAAAAAAAAAAAAAAAAAAAwQAAAAAAAAAABAAAAHwAECAAADAyBmAgwAIAQQACIAqRSQAACAAAkAgAoiAGAAMgIIDqAlRCAIQAggAAIiYcIiICOAAAAAAAAAAAAAAAAAAAAAAAAAAAAAA==

> <PUBCHEM_IUPAC_OPENEYE_NAME>
3-(dihydroxyamino)-5-(2-fluorobenzoyl)-1,2-benzoquinone

> <PUBCHEM_IUPAC_CAS_NAME>
3-(dihydroxyamino)-5-[(2-fluorophenyl)-oxomethyl]cyclohexa-3,5-diene-1,2-dione

> <PUBCHEM_IUPAC_NAME>
3-(dihydroxyamino)-5-(2-fluorobenzoyl)cyclohexa-3,5-diene-1,2-dione

> <PUBCHEM_IUPAC_SYSTEMATIC_NAME>
3-[bis(oxidanyl)amino]-5-(2-fluorophenyl)carbonyl-cyclohexa-3,5-diene-1,2-dione

> <PUBCHEM_IUPAC_TRADITIONAL_NAME>
3-(dihydroxyamino)-5-(2-fluorobenzoyl)-o-benzoquinone

> <PUBCHEM_IUPAC_INCHI>
InChI=1S/C13H8FNO5/c14-9-4-2-1-3-8(9)12(17)7-5-10(15(19)20)13(18)11(16)6-7/h1-6,19-20H

> <PUBCHEM_IUPAC_INCHIKEY>
RYAQAAVAHPSPCR-UHFFFAOYSA-N

> <PUBCHEM_XLOGP3_AA>
1.4

> <PUBCHEM_EXACT_MASS>
277.038651

> <PUBCHEM_MOLECULAR_FORMULA>
C13H8FNO5

> <PUBCHEM_MOLECULAR_WEIGHT>
277.204723

> <PUBCHEM_OPENEYE_CAN_SMILES>
C1=CC=C(C(=C1)C(=O)C2=CC(=O)C(=O)C(=C2)N(O)O)F

> <PUBCHEM_OPENEYE_ISO_SMILES>
C1=CC=C(C(=C1)C(=O)C2=CC(=O)C(=O)C(=C2)N(O)O)F

> <PUBCHEM_CACTVS_TPSA>
94.9

> <PUBCHEM_MONOISOTOPIC_WEIGHT>
277.038651

> <PUBCHEM_TOTAL_CHARGE>
0

> <PUBCHEM_HEAVY_ATOM_COUNT>
20

> <PUBCHEM_ATOM_DEF_STEREO_COUNT>
0

> <PUBCHEM_ATOM_UDEF_STEREO_COUNT>
0

> <PUBCHEM_BOND_DEF_STEREO_COUNT>
0

> <PUBCHEM_BOND_UDEF_STEREO_COUNT>
0

> <PUBCHEM_ISOTOPIC_ATOM_COUNT>
0

> <PUBCHEM_COMPONENT_COUNT>
1

> <PUBCHEM_CACTVS_TAUTO_COUNT>
1

> <PUBCHEM_COORDINATE_TYPE>
1
5
255

> <PUBCHEM_BONDANNOTATIONS>
10  16  8
10  17  8
16  18  8
17  19  8
18  20  8
19  20  8

$$$$

