638015
  -OEChem-07051212443D

 49 49  0     0  0  0  0  0  0999 V2000
    8.7049   -1.1237    0.6412 O   0  0  0  0  0  0  0  0  0  0  0  0
   -4.5389    0.8655    0.3849 C   0  0  0  0  0  0  0  0  0  0  0  0
   -5.9341    0.1864    0.3140 C   0  0  0  0  0  0  0  0  0  0  0  0
   -5.8892   -1.2663    0.7527 C   0  0  0  0  0  0  0  0  0  0  0  0
   -3.4322   -0.0455   -0.1964 C   0  0  0  0  0  0  0  0  0  0  0  0
   -4.9519   -2.0545   -0.1496 C   0  0  0  0  0  0  0  0  0  0  0  0
   -3.6406   -1.3604   -0.4585 C   0  0  0  0  0  0  0  0  0  0  0  0
   -4.2148    1.1952    1.8602 C   0  0  0  0  0  0  0  0  0  0  0  0
   -4.6713    2.1943   -0.3987 C   0  0  0  0  0  0  0  0  0  0  0  0
   -2.1452    0.5928   -0.4196 C   0  0  0  0  0  0  0  0  0  0  0  0
   -2.6368   -2.3078   -1.0741 C   0  0  0  0  0  0  0  0  0  0  0  0
   -0.9729    0.0016   -0.1375 C   0  0  0  0  0  0  0  0  0  0  0  0
    0.3573    0.5792   -0.3330 C   0  0  0  0  0  0  0  0  0  0  0  0
    0.4314    1.9762   -0.9060 C   0  0  0  0  0  0  0  0  0  0  0  0
    1.5117   -0.0553   -0.0335 C   0  0  0  0  0  0  0  0  0  0  0  0
    2.8738    0.4244   -0.1876 C   0  0  0  0  0  0  0  0  0  0  0  0
    3.9448   -0.3151    0.1525 C   0  0  0  0  0  0  0  0  0  0  0  0
    5.3470    0.0840    0.0342 C   0  0  0  0  0  0  0  0  0  0  0  0
    5.6362    1.4589   -0.5235 C   0  0  0  0  0  0  0  0  0  0  0  0
    6.3923   -0.6896    0.3876 C   0  0  0  0  0  0  0  0  0  0  0  0
    7.8287   -0.3403    0.2909 C   0  0  0  0  0  0  0  0  0  0  0  0
   -6.3192    0.2275   -0.7146 H   0  0  0  0  0  0  0  0  0  0  0  0
   -6.6580    0.7312    0.9333 H   0  0  0  0  0  0  0  0  0  0  0  0
   -6.8938   -1.7028    0.7086 H   0  0  0  0  0  0  0  0  0  0  0  0
   -5.5615   -1.3434    1.7957 H   0  0  0  0  0  0  0  0  0  0  0  0
   -5.4596   -2.2658   -1.0997 H   0  0  0  0  0  0  0  0  0  0  0  0
   -4.7544   -3.0224    0.3279 H   0  0  0  0  0  0  0  0  0  0  0  0
   -5.0191    1.7805    2.3205 H   0  0  0  0  0  0  0  0  0  0  0  0
   -4.0754    0.2892    2.4598 H   0  0  0  0  0  0  0  0  0  0  0  0
   -3.2953    1.7861    1.9462 H   0  0  0  0  0  0  0  0  0  0  0  0
   -5.5615    2.7493   -0.0783 H   0  0  0  0  0  0  0  0  0  0  0  0
   -3.8175    2.8608   -0.2355 H   0  0  0  0  0  0  0  0  0  0  0  0
   -4.7635    2.0145   -1.4761 H   0  0  0  0  0  0  0  0  0  0  0  0
   -2.1640    1.5769   -0.8729 H   0  0  0  0  0  0  0  0  0  0  0  0
   -2.1282   -2.8893   -0.2989 H   0  0  0  0  0  0  0  0  0  0  0  0
   -1.9016   -1.8125   -1.7132 H   0  0  0  0  0  0  0  0  0  0  0  0
   -3.1508   -3.0176   -1.7337 H   0  0  0  0  0  0  0  0  0  0  0  0
   -0.9559   -0.9717    0.3477 H   0  0  0  0  0  0  0  0  0  0  0  0
    1.4240    2.4097   -1.0168 H   0  0  0  0  0  0  0  0  0  0  0  0
   -0.1241    2.6726   -0.2661 H   0  0  0  0  0  0  0  0  0  0  0  0
   -0.0199    1.9942   -1.9053 H   0  0  0  0  0  0  0  0  0  0  0  0
    1.4334   -1.0622    0.3788 H   0  0  0  0  0  0  0  0  0  0  0  0
    3.0332    1.4134   -0.5929 H   0  0  0  0  0  0  0  0  0  0  0  0
    3.7867   -1.3130    0.5601 H   0  0  0  0  0  0  0  0  0  0  0  0
    5.1680    2.2224    0.1097 H   0  0  0  0  0  0  0  0  0  0  0  0
    5.2145    1.5465   -1.5323 H   0  0  0  0  0  0  0  0  0  0  0  0
    6.6781    1.7544   -0.6168 H   0  0  0  0  0  0  0  0  0  0  0  0
    6.2046   -1.6829    0.7907 H   0  0  0  0  0  0  0  0  0  0  0  0
    8.1059    0.6427   -0.1022 H   0  0  0  0  0  0  0  0  0  0  0  0
  1 21  2  0  0  0  0
  2  3  1  0  0  0  0
  2  5  1  0  0  0  0
  2  8  1  0  0  0  0
  2  9  1  0  0  0  0
  3  4  1  0  0  0  0
  3 22  1  0  0  0  0
  3 23  1  0  0  0  0
  4  6  1  0  0  0  0
  4 24  1  0  0  0  0
  4 25  1  0  0  0  0
  5  7  2  0  0  0  0
  5 10  1  0  0  0  0
  6  7  1  0  0  0  0
  6 26  1  0  0  0  0
  6 27  1  0  0  0  0
  7 11  1  0  0  0  0
  8 28  1  0  0  0  0
  8 29  1  0  0  0  0
  8 30  1  0  0  0  0
  9 31  1  0  0  0  0
  9 32  1  0  0  0  0
  9 33  1  0  0  0  0
 10 12  2  0  0  0  0
 10 34  1  0  0  0  0
 11 35  1  0  0  0  0
 11 36  1  0  0  0  0
 11 37  1  0  0  0  0
 12 13  1  0  0  0  0
 12 38  1  0  0  0  0
 13 14  1  0  0  0  0
 13 15  2  0  0  0  0
 14 39  1  0  0  0  0
 14 40  1  0  0  0  0
 14 41  1  0  0  0  0
 15 16  1  0  0  0  0
 15 42  1  0  0  0  0
 16 17  2  0  0  0  0
 16 43  1  0  0  0  0
 17 18  1  0  0  0  0
 17 44  1  0  0  0  0
 18 19  1  0  0  0  0
 18 20  2  0  0  0  0
 19 45  1  0  0  0  0
 19 46  1  0  0  0  0
 19 47  1  0  0  0  0
 20 21  1  0  0  0  0
 20 48  1  0  0  0  0
 21 49  1  0  0  0  0
M  END
> <PUBCHEM_COMPOUND_CID>
638015

> <PUBCHEM_CONFORMER_RMSD>
0.8

> <PUBCHEM_CONFORMER_DIVERSEORDER>
2
21
15
9
8
7
1
13
11
6
18
5
20
23
14
17
3
12
4
10
22
16
19

> <PUBCHEM_MMFF94_PARTIAL_CHARGES>
24
1 -0.57
10 -0.15
11 0.14
12 -0.15
13 -0.14
14 0.14
15 -0.15
16 -0.15
17 -0.15
18 -0.14
19 0.14
2 0.14
20 -0.14
21 0.5
34 0.15
38 0.15
42 0.15
43 0.15
44 0.15
48 0.15
49 0.06
5 -0.14
6 0.14
7 -0.28

> <PUBCHEM_EFFECTIVE_ROTOR_COUNT>
5.8

> <PUBCHEM_PHARMACOPHORE_FEATURES>
5
1 1 acceptor
1 14 hydrophobe
1 19 hydrophobe
3 2 8 9 hydrophobe
6 2 3 4 5 6 7 rings

> <PUBCHEM_HEAVY_ATOM_COUNT>
21

> <PUBCHEM_ATOM_DEF_STEREO_COUNT>
0

> <PUBCHEM_ATOM_UDEF_STEREO_COUNT>
0

> <PUBCHEM_BOND_DEF_STEREO_COUNT>
4

> <PUBCHEM_BOND_UDEF_STEREO_COUNT>
0

> <PUBCHEM_ISOTOPIC_ATOM_COUNT>
0

> <PUBCHEM_COMPONENT_COUNT>
1

> <PUBCHEM_CACTVS_TAUTO_COUNT>
1

> <PUBCHEM_CONFORMER_ID>
0009BC3F00000002

> <PUBCHEM_MMFF94_ENERGY>
54.7045

> <PUBCHEM_FEATURE_SELFOVERLAP>
25.371

> <PUBCHEM_SHAPE_FINGERPRINT>
10 15 16877948213936678000
10066227 49 13254532998046617848
10076449 9 11239994552361480157
10299344 5 18342455937714210782
11315181 36 18334856104473585321
11524674 6 17095525076045844510
12091667 2 17489587882834497372
12166972 35 17346597470323303580
12236239 1 18342454820300111892
12516196 113 18272089379427259904
12616971 3 18060135419297569364
13288520 33 18343865502904367661
13403585 85 17530964687410495129
13533116 47 16845303782596440416
13668630 136 16774078449339603234
13885169 127 18408886274175029944
14251764 18 18410573960135995492
14251764 46 18187083966113618468
14849402 71 18264768758365050256
14933364 13 18407759227527951352
15021287 119 17917705799152327108
15183329 4 17131838664267642882
15348495 7 17386014901701169530
15461852 350 17458633294056380581
15716309 27 18343863299016478016
17093844 174 18413112774907052873
17780758 139 18260548931114711393
17844677 252 18261106336028418512
1813 80 17703500069046693462
19489759 90 17312822688782708441
20281389 69 18409730651502247760
21150785 3 13614519667479134058
21267235 1 18273493451032296855
21315763 28 18342176652785790180
22224240 67 17022627468478416158
23035841 295 18411981356193828214
23081809 10 18060133228890699916
23402539 116 18273498974407790436
23466295 7 15696008295391861075
23522609 53 18056168411373310932
23559900 14 17894638019373487713
351380 3 18131636677389046738
397830 11 17169284650038633946
4073 2 18130784504744348506
4214541 1 18335420154049455965
5104073 3 18262233309487012600
559249 180 18412546509502356807
6327066 14 18055923341024730365
999808 66 17703217435009496699

> <PUBCHEM_SHAPE_MULTIPOLES>
426.3
21.61
1.99
0.99
41.57
0.14
-0.22
5.13
-5.25
-2.61
0.42
-0.8
-0.14
-1.19

> <PUBCHEM_SHAPE_SELFOVERLAP>
853.045

> <PUBCHEM_SHAPE_VOLUME>
251.5

> <PUBCHEM_COORDINATE_TYPE>
2
5
10

$$$$

