439323
  -OEChem-07051212452D

 36 36  0     1  0  0  0  0  0999 V2000
    3.8100    0.5000    0.0000 O   0  0  0  0  0  0  0  0  0  0  0  0
    5.5420   -2.5000    0.0000 O   0  0  0  0  0  0  0  0  0  0  0  0
    7.2741    0.5000    0.0000 O   0  0  0  0  0  0  0  0  0  0  0  0
    7.2741   -1.5000    0.0000 O   0  0  0  0  0  0  0  0  0  0  0  0
    3.8100   -1.5000    0.0000 N   0  0  0  0  0  0  0  0  0  0  0  0
    5.5420    1.5000    0.0000 N   0  0  0  0  0  0  0  0  0  0  0  0
    2.3100   -2.3661    0.0000 N   0  0  0  0  0  0  0  0  0  0  0  0
    3.8100   -3.2320    0.0000 N   0  0  0  0  0  0  0  0  0  0  0  0
    5.5420    3.2320    0.0000 N   0  0  0  0  0  0  0  0  0  0  0  0
    7.0420    2.3660    0.0000 N   0  0  0  0  0  0  0  0  0  0  0  0
    5.5420    0.5000    0.0000 C   0  0  1  0  0  0  0  0  0  0  0  0
    4.6760   -1.0000    0.0000 C   0  0  2  0  0  0  0  0  0  0  0  0
    4.6760    0.0000    0.0000 C   0  0  0  0  0  0  0  0  0  0  0  0
    5.5420   -1.5000    0.0000 C   0  0  1  0  0  0  0  0  0  0  0  0
    6.4081    0.0000    0.0000 C   0  0  2  0  0  0  0  0  0  0  0  0
    6.4081   -1.0000    0.0000 C   0  0  0  0  0  0  0  0  0  0  0  0
    3.3101   -2.3661    0.0000 C   0  0  0  0  0  0  0  0  0  0  0  0
    6.0420    2.3660    0.0000 C   0  0  0  0  0  0  0  0  0  0  0  0
    4.1391   -0.6900    0.0000 H   0  0  0  0  0  0  0  0  0  0  0  0
    6.0790    0.8100    0.0000 H   0  0  0  0  0  0  0  0  0  0  0  0
    4.1391   -0.3100    0.0000 H   0  0  0  0  0  0  0  0  0  0  0  0
    6.4081    0.6200    0.0000 H   0  0  0  0  0  0  0  0  0  0  0  0
    6.0790   -1.8100    0.0000 H   0  0  0  0  0  0  0  0  0  0  0  0
    6.4081   -1.6200    0.0000 H   0  0  0  0  0  0  0  0  0  0  0  0
    3.8100    1.1200    0.0000 H   0  0  0  0  0  0  0  0  0  0  0  0
    7.8110    0.1900    0.0000 H   0  0  0  0  0  0  0  0  0  0  0  0
    6.0790   -2.8100    0.0000 H   0  0  0  0  0  0  0  0  0  0  0  0
    7.2741   -2.1200    0.0000 H   0  0  0  0  0  0  0  0  0  0  0  0
    7.3520    2.9030    0.0000 H   0  0  0  0  0  0  0  0  0  0  0  0
    7.3520    1.8291    0.0000 H   0  0  0  0  0  0  0  0  0  0  0  0
    5.8520    3.7690    0.0000 H   0  0  0  0  0  0  0  0  0  0  0  0
    4.9220    3.2320    0.0000 H   0  0  0  0  0  0  0  0  0  0  0  0
    3.5000   -3.7690    0.0000 H   0  0  0  0  0  0  0  0  0  0  0  0
    4.4300   -3.2320    0.0000 H   0  0  0  0  0  0  0  0  0  0  0  0
    2.0000   -2.9030    0.0000 H   0  0  0  0  0  0  0  0  0  0  0  0
    2.0000   -1.8291    0.0000 H   0  0  0  0  0  0  0  0  0  0  0  0
  1 13  1  0  0  0  0
  1 25  1  0  0  0  0
 14  2  1  1  0  0  0
  2 27  1  0  0  0  0
 15  3  1  1  0  0  0
  3 26  1  0  0  0  0
  4 16  1  0  0  0  0
  4 28  1  0  0  0  0
 12  5  1  6  0  0  0
  5 17  2  0  0  0  0
 11  6  1  6  0  0  0
  6 18  2  0  0  0  0
  7 17  1  0  0  0  0
  7 35  1  0  0  0  0
  7 36  1  0  0  0  0
  8 17  1  0  0  0  0
  8 33  1  0  0  0  0
  8 34  1  0  0  0  0
  9 18  1  0  0  0  0
  9 31  1  0  0  0  0
  9 32  1  0  0  0  0
 10 18  1  0  0  0  0
 10 29  1  0  0  0  0
 10 30  1  0  0  0  0
 11 13  1  0  0  0  0
 11 15  1  0  0  0  0
 11 20  1  0  0  0  0
 12 13  1  0  0  0  0
 12 14  1  0  0  0  0
 12 19  1  0  0  0  0
 13 21  1  0  0  0  0
 14 16  1  0  0  0  0
 14 23  1  0  0  0  0
 15 16  1  0  0  0  0
 15 22  1  0  0  0  0
 16 24  1  0  0  0  0
M  END
> <PUBCHEM_COMPOUND_CID>
439323

> <PUBCHEM_COMPOUND_CANONICALIZED>
1

> <PUBCHEM_CACTVS_COMPLEXITY>
322

> <PUBCHEM_CACTVS_HBOND_ACCEPTOR>
6

> <PUBCHEM_CACTVS_HBOND_DONOR>
8

> <PUBCHEM_CACTVS_ROTATABLE_BOND>
2

> <PUBCHEM_CACTVS_SUBSKEYS>
AAADceBzuAAAAAAAAAAAAAAAAAAAAAAAAAAwAAAAAAAAAAAAAAAAHgAQCAAACDzhgAYBAAJAAgAgAAAAJAAAAAEAAAAAAAAAAAADEAIAwAAAQAAHAAABAAHwcAUAAAAAAAAAAAACgAAUCACgAAAAAAAAAA==

> <PUBCHEM_IUPAC_OPENEYE_NAME>
2-[(1S,3R,4S,6R)-3-guanidino-2,4,5,6-tetrahydroxy-cyclohexyl]guanidine

> <PUBCHEM_IUPAC_CAS_NAME>
2-[(1S,3R,4S,6R)-3-(diaminomethylideneamino)-2,4,5,6-tetrahydroxycyclohexyl]guanidine

> <PUBCHEM_IUPAC_NAME>
2-[(1S,3R,4S,6R)-3-(diaminomethylideneamino)-2,4,5,6-tetrahydroxycyclohexyl]guanidine

> <PUBCHEM_IUPAC_SYSTEMATIC_NAME>
2-[(1S,3R,4S,6R)-3-[bis(azanyl)methylideneamino]-2,4,5,6-tetrakis(oxidanyl)cyclohexyl]guanidine

> <PUBCHEM_IUPAC_TRADITIONAL_NAME>
2-[(1S,3R,4S,6R)-3-guanidino-2,4,5,6-tetrahydroxy-cyclohexyl]guanidine

> <PUBCHEM_IUPAC_INCHI>
InChI=1S/C8H18N6O4/c9-7(10)13-1-3(15)2(14-8(11)12)5(17)6(18)4(1)16/h1-6,15-18H,(H4,9,10,13)(H4,11,12,14)/t1-,2+,3?,4+,5-,6?

> <PUBCHEM_IUPAC_INCHIKEY>
MSXMXWJPFIDEMT-XGNJAFTASA-N

> <PUBCHEM_XLOGP3_AA>
-5.5

> <PUBCHEM_EXACT_MASS>
262.138953

> <PUBCHEM_MOLECULAR_FORMULA>
C8H18N6O4

> <PUBCHEM_MOLECULAR_WEIGHT>
262.26632

> <PUBCHEM_OPENEYE_CAN_SMILES>
C1(C(C(C(C(C1O)O)O)N=C(N)N)O)N=C(N)N

> <PUBCHEM_OPENEYE_ISO_SMILES>
[C@H]1([C@H](C([C@H]([C@@H](C1O)N=C(N)N)O)O)O)N=C(N)N

> <PUBCHEM_CACTVS_TPSA>
210

> <PUBCHEM_MONOISOTOPIC_WEIGHT>
262.138953

> <PUBCHEM_TOTAL_CHARGE>
0

> <PUBCHEM_HEAVY_ATOM_COUNT>
18

> <PUBCHEM_ATOM_DEF_STEREO_COUNT>
4

> <PUBCHEM_ATOM_UDEF_STEREO_COUNT>
0

> <PUBCHEM_BOND_DEF_STEREO_COUNT>
0

> <PUBCHEM_BOND_UDEF_STEREO_COUNT>
0

> <PUBCHEM_ISOTOPIC_ATOM_COUNT>
0

> <PUBCHEM_COMPONENT_COUNT>
1

> <PUBCHEM_CACTVS_TAUTO_COUNT>
3

> <PUBCHEM_COORDINATE_TYPE>
1
5
255

> <PUBCHEM_BONDANNOTATIONS>
14  2  5
15  3  5
12  5  6
11  6  6

$$$$

