3218
  -OEChem-07051212593D

 47 47  0     0  0  0  0  0  0999 V2000
    3.5776    2.5016   -0.3539 O   0  0  0  0  0  0  0  0  0  0  0  0
    3.2965   -2.2320   -0.6202 O   0  0  0  0  0  0  0  0  0  0  0  0
    5.7262   -2.6006    0.6464 O   0  0  0  0  0  0  0  0  0  0  0  0
    6.0006    2.0909    0.9063 O   0  0  0  0  0  0  0  0  0  0  0  0
   -3.0041    0.1358   -0.6292 C   0  0  0  0  0  0  0  0  0  0  0  0
   -4.1701    0.0914    0.3599 C   0  0  0  0  0  0  0  0  0  0  0  0
   -1.6572    0.1163    0.0970 C   0  0  0  0  0  0  0  0  0  0  0  0
   -5.5161    0.0771   -0.3666 C   0  0  0  0  0  0  0  0  0  0  0  0
   -0.4931    0.1949   -0.8932 C   0  0  0  0  0  0  0  0  0  0  0  0
   -6.6816   -0.0011    0.6223 C   0  0  0  0  0  0  0  0  0  0  0  0
    0.8828    0.1482   -0.2213 C   0  0  0  0  0  0  0  0  0  0  0  0
   -8.0257   -0.0487   -0.1081 C   0  0  0  0  0  0  0  0  0  0  0  0
    2.0450    0.2016   -1.2142 C   0  0  0  0  0  0  0  0  0  0  0  0
   -9.2252   -0.1517    0.8361 C   0  0  0  0  0  0  0  0  0  0  0  0
    3.3666    0.1419   -0.5232 C   0  0  0  0  0  0  0  0  0  0  0  0
  -10.5650   -0.1732    0.1164 C   0  0  0  0  0  0  0  0  0  0  0  0
    4.0568    1.2248   -0.1342 C   0  0  0  0  0  0  0  0  0  0  0  0
    3.9084   -1.2255   -0.2739 C   0  0  0  0  0  0  0  0  0  0  0  0
    5.2179   -1.3397    0.4114 C   0  0  0  0  0  0  0  0  0  0  0  0
    5.3677    1.1021    0.5500 C   0  0  0  0  0  0  0  0  0  0  0  0
    5.8921   -0.2540    0.7922 C   0  0  0  0  0  0  0  0  0  0  0  0
   -3.0652   -0.7219   -1.3100 H   0  0  0  0  0  0  0  0  0  0  0  0
   -3.0794    1.0419   -1.2427 H   0  0  0  0  0  0  0  0  0  0  0  0
   -4.0831   -0.8038    0.9877 H   0  0  0  0  0  0  0  0  0  0  0  0
   -4.1210    0.9603    1.0272 H   0  0  0  0  0  0  0  0  0  0  0  0
   -1.5999    0.9605    0.7946 H   0  0  0  0  0  0  0  0  0  0  0  0
   -1.5724   -0.8015    0.6912 H   0  0  0  0  0  0  0  0  0  0  0  0
   -5.6133    0.9809   -0.9801 H   0  0  0  0  0  0  0  0  0  0  0  0
   -5.5555   -0.7820   -1.0475 H   0  0  0  0  0  0  0  0  0  0  0  0
   -0.5693   -0.6362   -1.6055 H   0  0  0  0  0  0  0  0  0  0  0  0
   -0.5754    1.1203   -1.4767 H   0  0  0  0  0  0  0  0  0  0  0  0
   -6.6577    0.8671    1.2918 H   0  0  0  0  0  0  0  0  0  0  0  0
   -6.5751   -0.8956    1.2478 H   0  0  0  0  0  0  0  0  0  0  0  0
    0.9609    0.9865    0.4832 H   0  0  0  0  0  0  0  0  0  0  0  0
    0.9517   -0.7697    0.3765 H   0  0  0  0  0  0  0  0  0  0  0  0
   -8.1320    0.8514   -0.7263 H   0  0  0  0  0  0  0  0  0  0  0  0
   -8.0366   -0.9058   -0.7930 H   0  0  0  0  0  0  0  0  0  0  0  0
    1.9672    1.1238   -1.8046 H   0  0  0  0  0  0  0  0  0  0  0  0
    1.9524   -0.6091   -1.9473 H   0  0  0  0  0  0  0  0  0  0  0  0
   -9.2126    0.6955    1.5322 H   0  0  0  0  0  0  0  0  0  0  0  0
   -9.1335   -1.0614    1.4414 H   0  0  0  0  0  0  0  0  0  0  0  0
  -10.6291   -1.0293   -0.5625 H   0  0  0  0  0  0  0  0  0  0  0  0
  -10.7082    0.7408   -0.4686 H   0  0  0  0  0  0  0  0  0  0  0  0
  -11.3838   -0.2480    0.8386 H   0  0  0  0  0  0  0  0  0  0  0  0
    6.8508   -0.3344    1.2935 H   0  0  0  0  0  0  0  0  0  0  0  0
    4.2314    3.1260    0.0052 H   0  0  0  0  0  0  0  0  0  0  0  0
    5.0859   -3.2428    0.2942 H   0  0  0  0  0  0  0  0  0  0  0  0
  1 17  1  0  0  0  0
  1 46  1  0  0  0  0
  2 18  2  0  0  0  0
  3 19  1  0  0  0  0
  3 47  1  0  0  0  0
  4 20  2  0  0  0  0
  5  6  1  0  0  0  0
  5  7  1  0  0  0  0
  5 22  1  0  0  0  0
  5 23  1  0  0  0  0
  6  8  1  0  0  0  0
  6 24  1  0  0  0  0
  6 25  1  0  0  0  0
  7  9  1  0  0  0  0
  7 26  1  0  0  0  0
  7 27  1  0  0  0  0
  8 10  1  0  0  0  0
  8 28  1  0  0  0  0
  8 29  1  0  0  0  0
  9 11  1  0  0  0  0
  9 30  1  0  0  0  0
  9 31  1  0  0  0  0
 10 12  1  0  0  0  0
 10 32  1  0  0  0  0
 10 33  1  0  0  0  0
 11 13  1  0  0  0  0
 11 34  1  0  0  0  0
 11 35  1  0  0  0  0
 12 14  1  0  0  0  0
 12 36  1  0  0  0  0
 12 37  1  0  0  0  0
 13 15  1  0  0  0  0
 13 38  1  0  0  0  0
 13 39  1  0  0  0  0
 14 16  1  0  0  0  0
 14 40  1  0  0  0  0
 14 41  1  0  0  0  0
 15 17  2  0  0  0  0
 15 18  1  0  0  0  0
 16 42  1  0  0  0  0
 16 43  1  0  0  0  0
 16 44  1  0  0  0  0
 17 20  1  0  0  0  0
 18 19  1  0  0  0  0
 19 21  2  0  0  0  0
 20 21  1  0  0  0  0
 21 45  1  0  0  0  0
M  END
> <PUBCHEM_COMPOUND_CID>
3218

> <PUBCHEM_CONFORMER_RMSD>
1

> <PUBCHEM_CONFORMER_DIVERSEORDER>
1
10
78
128
115
186
13
35
164
171
170
111
187
52
139
176
145
88
34
41
3
26
119
60
48
142
180
146
131
43
185
165
177
117
44
96
179
184
14
33
112
21
57
28
7
11
55
173
84
53
156
130
6
182
151
125
158
141
32
95
2
37
172
140
31
67
56
51
19
91
99
75
132
169
47
12
137
15
167
20
58
162
18
178
70
65
23
102
5
107
73
50
36
126
76
69
59
64
24
127
25
54
30
89
40
63
109
157
110
123
42
148
74
105
16
66
108
147
124
79
118
81
82
161
62
129
121
9
8
100
163
71
49
68
45
85
144
29
46
152
134
27
104
4
153
120
155
17
98
113
22
93
38
94
183
92
116
133
149
97
135
174
114
103
138
90
77
61
122
39
150
87
83
166
175
143
86
106
154
181
168
80
159
72
160
136
101
188

> <PUBCHEM_MMFF94_PARTIAL_CHARGES>
14
1 -0.53
13 0.14
15 -0.12
17 0.09
18 0.54
19 0.09
2 -0.57
20 0.54
21 -0.14
3 -0.53
4 -0.57
45 0.15
46 0.45
47 0.45

> <PUBCHEM_EFFECTIVE_ROTOR_COUNT>
10

> <PUBCHEM_PHARMACOPHORE_FEATURES>
6
1 1 donor
1 16 hydrophobe
1 2 acceptor
1 3 donor
1 4 acceptor
6 15 17 18 19 20 21 rings

> <PUBCHEM_HEAVY_ATOM_COUNT>
21

> <PUBCHEM_ATOM_DEF_STEREO_COUNT>
0

> <PUBCHEM_ATOM_UDEF_STEREO_COUNT>
0

> <PUBCHEM_BOND_DEF_STEREO_COUNT>
0

> <PUBCHEM_BOND_UDEF_STEREO_COUNT>
0

> <PUBCHEM_ISOTOPIC_ATOM_COUNT>
0

> <PUBCHEM_COMPONENT_COUNT>
1

> <PUBCHEM_CACTVS_TAUTO_COUNT>
28

> <PUBCHEM_CONFORMER_ID>
00000C9200000001

> <PUBCHEM_MMFF94_ENERGY>
16.0382

> <PUBCHEM_FEATURE_SELFOVERLAP>
30.446

> <PUBCHEM_SHAPE_FINGERPRINT>
10666366 153 17275108366572385767
11315181 36 8070026672124409287
11638347 137 18343017809662697355
125118 31 17676763267071195593
13533116 47 18411982490181336490
13885169 127 17989207080163832413
14251764 18 17312823776010710381
14251764 46 18410292510174746977
15152005 1 12892588093277173832
15183329 4 16153421741100450163
15419008 91 17560254552536991261
15475509 35 17059232474536973802
15510794 2 18273492353008467843
15716309 27 18408323285909800927
16120349 18 18334298635252121201
20157964 124 18334856116999700030
20281389 69 18259702303188486641
20397935 70 18335979852628446438
20554085 129 15647057083871449967
21150785 3 10087639300005142083
21267235 1 18336264643910428310
21315763 28 18413107278129512221
21360442 33 7059839346212258196
21362267 313 17604701314078967571
21792934 111 18272654550374853717
22224240 67 18335420158756049007
28498 318 17561083627395943983
29717793 49 11600010968220973120
4340502 62 18413108351032774166
5758199 1 14562525190275720895
67123 10 18186519887844477063

> <PUBCHEM_SHAPE_MULTIPOLES>
408.69
29.25
1.72
0.94
79.56
0.22
-0.04
2.23
8.07
-5.34
0.17
-0.3
-0.03
0.2

> <PUBCHEM_SHAPE_SELFOVERLAP>
806.348

> <PUBCHEM_SHAPE_VOLUME>
242.7

> <PUBCHEM_COORDINATE_TYPE>
2
5
10

$$$$

