6476390
  -OEChem-07051213153D

 81 81  0     1  0  0  0  0  0999 V2000
    4.9413   -1.4022    1.5626 O   0  0  0  0  0  0  0  0  0  0  0  0
    3.7871    0.6666    0.9393 C   0  0  0  0  0  0  0  0  0  0  0  0
    2.9202    0.0282   -0.2102 C   0  0  2  0  0  0  0  0  0  0  0  0
    5.1463   -0.0724    1.0833 C   0  0  2  0  0  0  0  0  0  0  0  0
    2.1557   -1.2455    0.1882 C   0  0  0  0  0  0  0  0  0  0  0  0
    3.7390   -0.2488   -1.4669 C   0  0  0  0  0  0  0  0  0  0  0  0
    5.9345   -0.1402   -0.2304 C   0  0  0  0  0  0  0  0  0  0  0  0
    4.0534    2.1574    0.5979 C   0  0  0  0  0  0  0  0  0  0  0  0
    3.0425    0.6554    2.2925 C   0  0  0  0  0  0  0  0  0  0  0  0
    5.0817   -0.3214   -1.4508 C   0  0  0  0  0  0  0  0  0  0  0  0
    0.8712   -1.4024   -0.6276 C   0  0  0  0  0  0  0  0  0  0  0  0
    2.9794   -0.3969   -2.7574 C   0  0  0  0  0  0  0  0  0  0  0  0
    0.0934   -2.6367   -0.2318 C   0  0  0  0  0  0  0  0  0  0  0  0
    0.4793   -3.8987   -0.9571 C   0  0  0  0  0  0  0  0  0  0  0  0
   -0.8763   -2.6579    0.7033 C   0  0  0  0  0  0  0  0  0  0  0  0
   -1.6820   -3.8451    1.1553 C   0  0  0  0  0  0  0  0  0  0  0  0
   -3.0268   -3.9715    0.4297 C   0  0  0  0  0  0  0  0  0  0  0  0
   -3.8529   -2.7155    0.5032 C   0  0  0  0  0  0  0  0  0  0  0  0
   -4.2331   -1.9312   -0.5247 C   0  0  0  0  0  0  0  0  0  0  0  0
   -5.1334   -0.7230   -0.3817 C   0  0  0  0  0  0  0  0  0  0  0  0
   -4.4606    0.6122   -0.7333 C   0  0  0  0  0  0  0  0  0  0  0  0
   -3.8288   -2.2791   -1.9323 C   0  0  0  0  0  0  0  0  0  0  0  0
   -3.2089    0.8769    0.0582 C   0  0  0  0  0  0  0  0  0  0  0  0
   -3.0890    1.5786    1.2027 C   0  0  0  0  0  0  0  0  0  0  0  0
   -1.7184    1.7991    1.8186 C   0  0  0  0  0  0  0  0  0  0  0  0
   -1.0050    3.0822    1.3682 C   0  0  0  0  0  0  0  0  0  0  0  0
   -4.2332    2.2450    1.9148 C   0  0  0  0  0  0  0  0  0  0  0  0
   -0.7471    3.1204   -0.1125 C   0  0  0  0  0  0  0  0  0  0  0  0
   -1.2031    4.0096   -1.0154 C   0  0  0  0  0  0  0  0  0  0  0  0
   -0.8448    3.8671   -2.4714 C   0  0  0  0  0  0  0  0  0  0  0  0
   -2.0816    5.1898   -0.7142 C   0  0  0  0  0  0  0  0  0  0  0  0
    2.1729    0.7931   -0.4682 H   0  0  0  0  0  0  0  0  0  0  0  0
    5.7618    0.4310    1.8397 H   0  0  0  0  0  0  0  0  0  0  0  0
    2.7902   -2.1326    0.0647 H   0  0  0  0  0  0  0  0  0  0  0  0
    1.8559   -1.2317    1.2382 H   0  0  0  0  0  0  0  0  0  0  0  0
    6.6616   -0.9600   -0.1921 H   0  0  0  0  0  0  0  0  0  0  0  0
    6.5030    0.7886   -0.3613 H   0  0  0  0  0  0  0  0  0  0  0  0
    4.7016    2.6231    1.3493 H   0  0  0  0  0  0  0  0  0  0  0  0
    4.5340    2.2896   -0.3761 H   0  0  0  0  0  0  0  0  0  0  0  0
    3.1157    2.7254    0.5757 H   0  0  0  0  0  0  0  0  0  0  0  0
    3.5691    1.2754    3.0282 H   0  0  0  0  0  0  0  0  0  0  0  0
    2.0300    1.0623    2.1886 H   0  0  0  0  0  0  0  0  0  0  0  0
    2.9693   -0.3420    2.7358 H   0  0  0  0  0  0  0  0  0  0  0  0
    5.6169   -0.5008   -2.3804 H   0  0  0  0  0  0  0  0  0  0  0  0
    0.2374   -0.5210   -0.4584 H   0  0  0  0  0  0  0  0  0  0  0  0
    1.0242   -1.4433   -1.7029 H   0  0  0  0  0  0  0  0  0  0  0  0
    2.1032    0.2584   -2.7855 H   0  0  0  0  0  0  0  0  0  0  0  0
    3.6038   -0.1091   -3.6117 H   0  0  0  0  0  0  0  0  0  0  0  0
    2.6828   -1.4365   -2.9200 H   0  0  0  0  0  0  0  0  0  0  0  0
    5.8156   -1.8005    1.7118 H   0  0  0  0  0  0  0  0  0  0  0  0
    0.5334   -3.7085   -2.0350 H   0  0  0  0  0  0  0  0  0  0  0  0
   -0.2238   -4.7251   -0.8346 H   0  0  0  0  0  0  0  0  0  0  0  0
    1.4650   -4.2381   -0.6229 H   0  0  0  0  0  0  0  0  0  0  0  0
   -1.1161   -1.7195    1.2013 H   0  0  0  0  0  0  0  0  0  0  0  0
   -1.8647   -3.7268    2.2319 H   0  0  0  0  0  0  0  0  0  0  0  0
   -1.1216   -4.7816    1.0685 H   0  0  0  0  0  0  0  0  0  0  0  0
   -2.8373   -4.2832   -0.6018 H   0  0  0  0  0  0  0  0  0  0  0  0
   -3.6012   -4.7851    0.8893 H   0  0  0  0  0  0  0  0  0  0  0  0
   -4.1871   -2.4434    1.5033 H   0  0  0  0  0  0  0  0  0  0  0  0
   -5.5137   -0.6642    0.6468 H   0  0  0  0  0  0  0  0  0  0  0  0
   -6.0167   -0.8591   -1.0183 H   0  0  0  0  0  0  0  0  0  0  0  0
   -5.1844    1.4248   -0.6069 H   0  0  0  0  0  0  0  0  0  0  0  0
   -4.1965    0.6284   -1.7984 H   0  0  0  0  0  0  0  0  0  0  0  0
   -3.9842   -3.3388   -2.1560 H   0  0  0  0  0  0  0  0  0  0  0  0
   -4.4325   -1.7283   -2.6622 H   0  0  0  0  0  0  0  0  0  0  0  0
   -2.7804   -2.0170   -2.1065 H   0  0  0  0  0  0  0  0  0  0  0  0
   -2.3062    0.4471   -0.3748 H   0  0  0  0  0  0  0  0  0  0  0  0
   -1.8114    1.8043    2.9122 H   0  0  0  0  0  0  0  0  0  0  0  0
   -1.0736    0.9381    1.5929 H   0  0  0  0  0  0  0  0  0  0  0  0
   -1.5728    3.9496    1.7148 H   0  0  0  0  0  0  0  0  0  0  0  0
   -0.0346    3.1360    1.8777 H   0  0  0  0  0  0  0  0  0  0  0  0
   -4.2580    1.9277    2.9627 H   0  0  0  0  0  0  0  0  0  0  0  0
   -4.1147    3.3329    1.8864 H   0  0  0  0  0  0  0  0  0  0  0  0
   -5.2091    2.0027    1.4875 H   0  0  0  0  0  0  0  0  0  0  0  0
   -0.1075    2.3141   -0.4709 H   0  0  0  0  0  0  0  0  0  0  0  0
   -1.7507    3.7468   -3.0746 H   0  0  0  0  0  0  0  0  0  0  0  0
   -0.3099    4.7570   -2.8191 H   0  0  0  0  0  0  0  0  0  0  0  0
   -0.2035    2.9997   -2.6606 H   0  0  0  0  0  0  0  0  0  0  0  0
   -1.5701    6.1184   -0.9889 H   0  0  0  0  0  0  0  0  0  0  0  0
   -3.0088    5.1240   -1.2935 H   0  0  0  0  0  0  0  0  0  0  0  0
   -2.3652    5.2716    0.3364 H   0  0  0  0  0  0  0  0  0  0  0  0
  1  4  1  0  0  0  0
  1 50  1  0  0  0  0
  2  3  1  0  0  0  0
  2  4  1  0  0  0  0
  2  8  1  0  0  0  0
  2  9  1  0  0  0  0
  3  5  1  0  0  0  0
  3  6  1  0  0  0  0
  3 32  1  0  0  0  0
  4  7  1  0  0  0  0
  4 33  1  0  0  0  0
  5 11  1  0  0  0  0
  5 34  1  0  0  0  0
  5 35  1  0  0  0  0
  6 10  2  0  0  0  0
  6 12  1  0  0  0  0
  7 10  1  0  0  0  0
  7 36  1  0  0  0  0
  7 37  1  0  0  0  0
  8 38  1  0  0  0  0
  8 39  1  0  0  0  0
  8 40  1  0  0  0  0
  9 41  1  0  0  0  0
  9 42  1  0  0  0  0
  9 43  1  0  0  0  0
 10 44  1  0  0  0  0
 11 13  1  0  0  0  0
 11 45  1  0  0  0  0
 11 46  1  0  0  0  0
 12 47  1  0  0  0  0
 12 48  1  0  0  0  0
 12 49  1  0  0  0  0
 13 14  1  0  0  0  0
 13 15  2  0  0  0  0
 14 51  1  0  0  0  0
 14 52  1  0  0  0  0
 14 53  1  0  0  0  0
 15 16  1  0  0  0  0
 15 54  1  0  0  0  0
 16 17  1  0  0  0  0
 16 55  1  0  0  0  0
 16 56  1  0  0  0  0
 17 18  1  0  0  0  0
 17 57  1  0  0  0  0
 17 58  1  0  0  0  0
 18 19  2  0  0  0  0
 18 59  1  0  0  0  0
 19 20  1  0  0  0  0
 19 22  1  0  0  0  0
 20 21  1  0  0  0  0
 20 60  1  0  0  0  0
 20 61  1  0  0  0  0
 21 23  1  0  0  0  0
 21 62  1  0  0  0  0
 21 63  1  0  0  0  0
 22 64  1  0  0  0  0
 22 65  1  0  0  0  0
 22 66  1  0  0  0  0
 23 24  2  0  0  0  0
 23 67  1  0  0  0  0
 24 25  1  0  0  0  0
 24 27  1  0  0  0  0
 25 26  1  0  0  0  0
 25 68  1  0  0  0  0
 25 69  1  0  0  0  0
 26 28  1  0  0  0  0
 26 70  1  0  0  0  0
 26 71  1  0  0  0  0
 27 72  1  0  0  0  0
 27 73  1  0  0  0  0
 27 74  1  0  0  0  0
 28 29  2  0  0  0  0
 28 75  1  0  0  0  0
 29 30  1  0  0  0  0
 29 31  1  0  0  0  0
 30 76  1  0  0  0  0
 30 77  1  0  0  0  0
 30 78  1  0  0  0  0
 31 79  1  0  0  0  0
 31 80  1  0  0  0  0
 31 81  1  0  0  0  0
M  END
> <PUBCHEM_COMPOUND_CID>
6476390

> <PUBCHEM_CONFORMER_RMSD>
1.6

> <PUBCHEM_CONFORMER_DIVERSEORDER>
24
99
109
68
63
131
123
90
71
111
89
51
106
15
139
49
79
32
93
124
42
2
64
121
40
27
31
104
77
134
82
119
101
95
66
127
136
57
98
23
69
13
21
120
22
81
52
3
55
85
138
47
16
37
117
125
115
36
10
35
6
87
43
58
144
12
44
128
141
97
9
113
103
26
116
75
86
122
1
108
137
73
100
45
142
25
132
105
62
143
78
28
135
83
96
61
112
140
129
34
91
38
107
39
88
17
76
29
133
7
72
94
74
126
33
118
70
50
30
14
19
53
60
84
4
102
54
48
110
80
41
114
11
59
8
56
92
130
18
67
65
20
46
5

> <PUBCHEM_MMFF94_PARTIAL_CHARGES>
33
1 -0.68
10 -0.29
11 0.14
12 0.14
13 -0.28
14 0.14
15 -0.29
16 0.14
17 0.14
18 -0.29
19 -0.28
20 0.14
21 0.14
22 0.14
23 -0.29
24 -0.28
25 0.14
26 0.14
27 0.14
28 -0.29
29 -0.28
3 0.14
30 0.14
31 0.14
4 0.28
44 0.15
50 0.4
54 0.15
59 0.15
6 -0.28
67 0.15
7 0.14
75 0.15

> <PUBCHEM_EFFECTIVE_ROTOR_COUNT>
12.8

> <PUBCHEM_PHARMACOPHORE_FEATURES>
11
1 1 acceptor
1 1 donor
1 14 hydrophobe
1 22 hydrophobe
1 27 hydrophobe
3 2 8 9 hydrophobe
3 29 30 31 hydrophobe
4 15 16 17 18 hydrophobe
4 19 20 21 23 hydrophobe
4 24 25 26 28 hydrophobe
6 2 3 4 6 7 10 rings

> <PUBCHEM_HEAVY_ATOM_COUNT>
31

> <PUBCHEM_ATOM_DEF_STEREO_COUNT>
2

> <PUBCHEM_ATOM_UDEF_STEREO_COUNT>
0

> <PUBCHEM_BOND_DEF_STEREO_COUNT>
3

> <PUBCHEM_BOND_UDEF_STEREO_COUNT>
0

> <PUBCHEM_ISOTOPIC_ATOM_COUNT>
0

> <PUBCHEM_COMPONENT_COUNT>
1

> <PUBCHEM_CACTVS_TAUTO_COUNT>
1

> <PUBCHEM_CONFORMER_ID>
0062D26600000018

> <PUBCHEM_MMFF94_ENERGY>
50.8704

> <PUBCHEM_FEATURE_SELFOVERLAP>
55.84

> <PUBCHEM_SHAPE_FINGERPRINT>
10032420 55 18117300222526209257
10256941 240 17840897340115098364
10581848 127 16908961184532798882
10670039 82 18337381730122425446
108634 29 18186794782166698154
11434127 23 17822289162740746124
11513181 2 17677882436057059564
12104220 1 18341617006031303358
12166972 35 17986956254210678807
13402501 40 18113903714900883250
13773456 30 17548431748178418829
14068700 675 18188217477509644415
14251764 38 18186798054588672130
14279260 333 16591382678757278014
14840074 17 18270948137781561721
15264996 151 17913494541027284793
15264996 44 17540798513446280535
15975801 100 18200587137793565860
16067690 210 18270691869761553626
17818456 19 18272098205543349218
20764821 26 18266720416692822613
21033648 29 17969226624902265890
3052486 1 18411411796349048418
373842 8 18049446942067982344
469060 322 18343015623171136909
508706 21 18261384568235852802
5252454 2 17974834370347658785
581034 39 18196923585991727372

> <PUBCHEM_SHAPE_MULTIPOLES>
632.1
11.59
6.36
2.17
8.65
3.06
-0.47
-2.45
0.47
-7.66
-1.07
0.74
0.95
-0.03

> <PUBCHEM_SHAPE_SELFOVERLAP>
1235.812

> <PUBCHEM_SHAPE_VOLUME>
379.7

> <PUBCHEM_COORDINATE_TYPE>
2
5
10

$$$$

