91765
  -OEChem-07051213002D

 49 50  0     1  0  0  0  0  0999 V2000
    4.2320    4.2990    0.0000 S   0  0  0  0  0  0  0  0  0  0  0  0
    2.0000   -0.2990    0.0000 O   0  0  0  0  0  0  0  0  0  0  0  0
    5.4641   -0.2990    0.0000 O   0  0  0  0  0  0  0  0  0  0  0  0
    2.8660   -2.7990    0.0000 O   0  0  0  0  0  0  0  0  0  0  0  0
    2.8660   -1.7990    0.0000 N   0  0  0  0  0  0  0  0  0  0  0  0
    4.2320    2.5670    0.0000 C   0  0  3  0  0  0  0  0  0  0  0  0
    3.7320    1.7010    0.0000 C   0  0  0  0  0  0  0  0  0  0  0  0
    5.2320    2.5670    0.0000 C   0  0  0  0  0  0  0  0  0  0  0  0
    2.8660    1.2010    0.0000 C   0  0  0  0  0  0  0  0  0  0  0  0
    4.5981    1.2010    0.0000 C   0  0  0  0  0  0  0  0  0  0  0  0
    3.7320    3.4330    0.0000 C   0  0  0  0  0  0  0  0  0  0  0  0
    5.7320    3.4330    0.0000 C   0  0  0  0  0  0  0  0  0  0  0  0
    5.2320    4.2990    0.0000 C   0  0  0  0  0  0  0  0  0  0  0  0
    4.5981    0.2010    0.0000 C   0  0  0  0  0  0  0  0  0  0  0  0
    2.8660    0.2010    0.0000 C   0  0  0  0  0  0  0  0  0  0  0  0
    3.7320   -0.2990    0.0000 C   0  0  0  0  0  0  0  0  0  0  0  0
    3.7320   -1.2990    0.0000 C   0  0  0  0  0  0  0  0  0  0  0  0
    4.5981   -1.7990    0.0000 C   0  0  0  0  0  0  0  0  0  0  0  0
    4.5981   -2.7990    0.0000 C   0  0  0  0  0  0  0  0  0  0  0  0
    5.4641   -3.2990    0.0000 C   0  0  0  0  0  0  0  0  0  0  0  0
    2.0000   -3.2990    0.0000 C   0  0  0  0  0  0  0  0  0  0  0  0
    2.0000   -4.2990    0.0000 C   0  0  0  0  0  0  0  0  0  0  0  0
    4.5420    2.0300    0.0000 H   0  0  0  0  0  0  0  0  0  0  0  0
    3.4220    2.2379    0.0000 H   0  0  0  0  0  0  0  0  0  0  0  0
    5.1244    1.9564    0.0000 H   0  0  0  0  0  0  0  0  0  0  0  0
    5.8147    2.3549    0.0000 H   0  0  0  0  0  0  0  0  0  0  0  0
    2.6540    1.7836    0.0000 H   0  0  0  0  0  0  0  0  0  0  0  0
    2.2554    1.0933    0.0000 H   0  0  0  0  0  0  0  0  0  0  0  0
    5.2087    1.0933    0.0000 H   0  0  0  0  0  0  0  0  0  0  0  0
    4.8101    1.7836    0.0000 H   0  0  0  0  0  0  0  0  0  0  0  0
    3.2571    3.8315    0.0000 H   0  0  0  0  0  0  0  0  0  0  0  0
    3.2571    3.0345    0.0000 H   0  0  0  0  0  0  0  0  0  0  0  0
    6.2070    3.0345    0.0000 H   0  0  0  0  0  0  0  0  0  0  0  0
    6.2070    3.8315    0.0000 H   0  0  0  0  0  0  0  0  0  0  0  0
    5.8147    4.5111    0.0000 H   0  0  0  0  0  0  0  0  0  0  0  0
    5.1244    4.9096    0.0000 H   0  0  0  0  0  0  0  0  0  0  0  0
    5.2087   -1.9067    0.0000 H   0  0  0  0  0  0  0  0  0  0  0  0
    4.8101   -1.2164    0.0000 H   0  0  0  0  0  0  0  0  0  0  0  0
    3.9875   -2.6914    0.0000 H   0  0  0  0  0  0  0  0  0  0  0  0
    4.3860   -3.3816    0.0000 H   0  0  0  0  0  0  0  0  0  0  0  0
    2.3291   -1.4890    0.0000 H   0  0  0  0  0  0  0  0  0  0  0  0
    5.1541   -3.8360    0.0000 H   0  0  0  0  0  0  0  0  0  0  0  0
    6.0010   -3.6090    0.0000 H   0  0  0  0  0  0  0  0  0  0  0  0
    5.7741   -2.7621    0.0000 H   0  0  0  0  0  0  0  0  0  0  0  0
    1.7880   -2.7164    0.0000 H   0  0  0  0  0  0  0  0  0  0  0  0
    1.3894   -3.4067    0.0000 H   0  0  0  0  0  0  0  0  0  0  0  0
    1.3800   -4.2990    0.0000 H   0  0  0  0  0  0  0  0  0  0  0  0
    2.0000   -4.9190    0.0000 H   0  0  0  0  0  0  0  0  0  0  0  0
    2.6200   -4.2990    0.0000 H   0  0  0  0  0  0  0  0  0  0  0  0
  1 11  1  0  0  0  0
  1 13  1  0  0  0  0
  2 15  2  0  0  0  0
  3 14  2  0  0  0  0
  4  5  1  0  0  0  0
  4 21  1  0  0  0  0
  5 17  1  0  0  0  0
  5 41  1  0  0  0  0
  6  7  1  0  0  0  0
  6  8  1  0  0  0  0
  6 11  1  0  0  0  0
  6 23  1  0  0  0  0
  7  9  1  0  0  0  0
  7 10  1  0  0  0  0
  7 24  1  0  0  0  0
  8 12  1  0  0  0  0
  8 25  1  0  0  0  0
  8 26  1  0  0  0  0
  9 15  1  0  0  0  0
  9 27  1  0  0  0  0
  9 28  1  0  0  0  0
 10 14  1  0  0  0  0
 10 29  1  0  0  0  0
 10 30  1  0  0  0  0
 11 31  1  0  0  0  0
 11 32  1  0  0  0  0
 12 13  1  0  0  0  0
 12 33  1  0  0  0  0
 12 34  1  0  0  0  0
 13 35  1  0  0  0  0
 13 36  1  0  0  0  0
 14 16  1  0  0  0  0
 15 16  1  0  0  0  0
 16 17  2  0  0  0  0
 17 18  1  0  0  0  0
 18 19  1  0  0  0  0
 18 37  1  0  0  0  0
 18 38  1  0  0  0  0
 19 20  1  0  0  0  0
 19 39  1  0  0  0  0
 19 40  1  0  0  0  0
 20 42  1  0  0  0  0
 20 43  1  0  0  0  0
 20 44  1  0  0  0  0
 21 22  1  0  0  0  0
 21 45  1  0  0  0  0
 21 46  1  0  0  0  0
 22 47  1  0  0  0  0
 22 48  1  0  0  0  0
 22 49  1  0  0  0  0
M  END
> <PUBCHEM_COMPOUND_CID>
91765

> <PUBCHEM_COMPOUND_CANONICALIZED>
1

> <PUBCHEM_CACTVS_COMPLEXITY>
427

> <PUBCHEM_CACTVS_HBOND_ACCEPTOR>
5

> <PUBCHEM_CACTVS_HBOND_DONOR>
1

> <PUBCHEM_CACTVS_ROTATABLE_BOND>
6

> <PUBCHEM_CACTVS_SUBSKEYS>
AAADceB6MABAAAAAAAAAAAAAAAAAAAAAAAA0QAAAAAAAAAAAAAAAHgQUAAAADQylwAKCAABQAAiIAoRQQAAAAAAgABAgCAEAAEgAABIogAAAAAAAkAAoAUMIisCugAAAAAAAAAAAAAAAAAAAAAAAAAAAAA==

> <PUBCHEM_IUPAC_OPENEYE_NAME>
2-[1-(ethoxyamino)butylidene]-5-tetrahydrothiopyran-3-yl-cyclohexane-1,3-dione

> <PUBCHEM_IUPAC_CAS_NAME>
2-[1-(ethoxyamino)butylidene]-5-(3-thianyl)cyclohexane-1,3-dione

> <PUBCHEM_IUPAC_NAME>
2-[1-(ethoxyamino)butylidene]-5-(thian-3-yl)cyclohexane-1,3-dione

> <PUBCHEM_IUPAC_SYSTEMATIC_NAME>
2-[1-(ethoxyamino)butylidene]-5-(thian-3-yl)cyclohexane-1,3-dione

> <PUBCHEM_IUPAC_TRADITIONAL_NAME>
2-[1-(ethoxyamino)butylidene]-5-tetrahydrothiopyran-3-yl-cyclohexane-1,3-quinone

> <PUBCHEM_IUPAC_INCHI>
InChI=1S/C17H27NO3S/c1-3-6-14(18-21-4-2)17-15(19)9-13(10-16(17)20)12-7-5-8-22-11-12/h12-13,18H,3-11H2,1-2H3

> <PUBCHEM_IUPAC_INCHIKEY>
HAHCNFVGRVWFIP-UHFFFAOYSA-N

> <PUBCHEM_XLOGP3_AA>
3.7

> <PUBCHEM_EXACT_MASS>
325.171165

> <PUBCHEM_MOLECULAR_FORMULA>
C17H27NO3S

> <PUBCHEM_MOLECULAR_WEIGHT>
325.46618

> <PUBCHEM_OPENEYE_CAN_SMILES>
CCCC(=C1C(=O)CC(CC1=O)C2CCCSC2)NOCC

> <PUBCHEM_OPENEYE_ISO_SMILES>
CCCC(=C1C(=O)CC(CC1=O)C2CCCSC2)NOCC

> <PUBCHEM_CACTVS_TPSA>
80.7

> <PUBCHEM_MONOISOTOPIC_WEIGHT>
325.171165

> <PUBCHEM_TOTAL_CHARGE>
0

> <PUBCHEM_HEAVY_ATOM_COUNT>
22

> <PUBCHEM_ATOM_DEF_STEREO_COUNT>
0

> <PUBCHEM_ATOM_UDEF_STEREO_COUNT>
1

> <PUBCHEM_BOND_DEF_STEREO_COUNT>
0

> <PUBCHEM_BOND_UDEF_STEREO_COUNT>
0

> <PUBCHEM_ISOTOPIC_ATOM_COUNT>
0

> <PUBCHEM_COMPONENT_COUNT>
1

> <PUBCHEM_CACTVS_TAUTO_COUNT>
13

> <PUBCHEM_COORDINATE_TYPE>
1
5
255

> <PUBCHEM_BONDANNOTATIONS>
6  7  3

$$$$

