12614
  -OEChem-06261207092D

 20 21  0     1  0  0  0  0  0999 V2000
    3.1235   -0.8134    0.0000 C   0  0  3  0  0  0  0  0  0  0  0  0
    2.2225   -0.3795    0.0000 C   0  0  3  0  0  0  0  0  0  0  0  0
    2.2970   -1.3772    0.0000 C   0  0  0  0  0  0  0  0  0  0  0  0
    4.0245   -0.3795    0.0000 C   0  0  0  0  0  0  0  0  0  0  0  0
    2.0000    0.5954    0.0000 C   0  0  0  0  0  0  0  0  0  0  0  0
    4.2470    0.5954    0.0000 C   0  0  0  0  0  0  0  0  0  0  0  0
    2.6235    1.3772    0.0000 C   0  0  0  0  0  0  0  0  0  0  0  0
    3.6235    1.3772    0.0000 C   0  0  0  0  0  0  0  0  0  0  0  0
    3.5486   -1.5495    0.0000 H   0  0  0  0  0  0  0  0  0  0  0  0
    1.3820   -0.5061    0.0000 H   0  0  0  0  0  0  0  0  0  0  0  0
    1.6962   -1.5301    0.0000 H   0  0  0  0  0  0  0  0  0  0  0  0
    2.5521   -1.9423    0.0000 H   0  0  0  0  0  0  0  0  0  0  0  0
    4.1624   -0.9840    0.0000 H   0  0  0  0  0  0  0  0  0  0  0  0
    4.6445   -0.3795    0.0000 H   0  0  0  0  0  0  0  0  0  0  0  0
    1.6134    1.0801    0.0000 H   0  0  0  0  0  0  0  0  0  0  0  0
    1.4414    0.3264    0.0000 H   0  0  0  0  0  0  0  0  0  0  0  0
    4.8056    0.3264    0.0000 H   0  0  0  0  0  0  0  0  0  0  0  0
    4.6335    1.0801    0.0000 H   0  0  0  0  0  0  0  0  0  0  0  0
    2.3545    1.9358    0.0000 H   0  0  0  0  0  0  0  0  0  0  0  0
    3.8925    1.9358    0.0000 H   0  0  0  0  0  0  0  0  0  0  0  0
  1  2  1  0  0  0  0
  1  3  1  0  0  0  0
  1  4  1  0  0  0  0
  1  9  1  0  0  0  0
  2  3  1  0  0  0  0
  2  5  1  0  0  0  0
  2 10  1  0  0  0  0
  3 11  1  0  0  0  0
  3 12  1  0  0  0  0
  4  6  1  0  0  0  0
  4 13  1  0  0  0  0
  4 14  1  0  0  0  0
  5  7  1  0  0  0  0
  5 15  1  0  0  0  0
  5 16  1  0  0  0  0
  6  8  1  0  0  0  0
  6 17  1  0  0  0  0
  6 18  1  0  0  0  0
  7  8  2  0  0  0  0
  7 19  1  0  0  0  0
  8 20  1  0  0  0  0
M  END
> <PUBCHEM_COMPOUND_CID>
12614

> <PUBCHEM_COMPOUND_CANONICALIZED>
1

> <PUBCHEM_CACTVS_COMPLEXITY>
113

> <PUBCHEM_CACTVS_HBOND_ACCEPTOR>
0

> <PUBCHEM_CACTVS_HBOND_DONOR>
0

> <PUBCHEM_CACTVS_ROTATABLE_BOND>
0

> <PUBCHEM_CACTVS_SUBSKEYS>
AAADccBwAAAAAAAAAAAAAAAAGAAAAAAAAAAAAAAABAAQAAAAAAAAGAAAAAAADQCAAAAAAAAAAACAACBCAAAAAAAgAAAICAAAAAgAAAIAAQAAAAAAgAAIAAMAgIAOAAAAAAAAAAAAAAAAAAAAAAAAAAAAAA==

> <PUBCHEM_IUPAC_OPENEYE_NAME>
bicyclo[5.1.0]oct-4-ene

> <PUBCHEM_IUPAC_CAS_NAME>
bicyclo[5.1.0]oct-4-ene

> <PUBCHEM_IUPAC_NAME>
bicyclo[5.1.0]oct-4-ene

> <PUBCHEM_IUPAC_SYSTEMATIC_NAME>
bicyclo[5.1.0]oct-4-ene

> <PUBCHEM_IUPAC_TRADITIONAL_NAME>
bicyclo[5.1.0]oct-4-ene

> <PUBCHEM_IUPAC_INCHI>
InChI=1S/C8H12/c1-2-4-7-6-8(7)5-3-1/h1-2,7-8H,3-6H2

> <PUBCHEM_IUPAC_INCHIKEY>
AOEUXGZARHPSOK-UHFFFAOYSA-N

> <PUBCHEM_XLOGP3_AA>
2.8

> <PUBCHEM_EXACT_MASS>
108.0939

> <PUBCHEM_MOLECULAR_FORMULA>
C8H12

> <PUBCHEM_MOLECULAR_WEIGHT>
108.18088

> <PUBCHEM_OPENEYE_CAN_SMILES>
C1CC2CC2CC=C1

> <PUBCHEM_OPENEYE_ISO_SMILES>
C1CC2CC2CC=C1

> <PUBCHEM_CACTVS_TPSA>
0

> <PUBCHEM_MONOISOTOPIC_WEIGHT>
108.0939

> <PUBCHEM_TOTAL_CHARGE>
0

> <PUBCHEM_HEAVY_ATOM_COUNT>
8

> <PUBCHEM_ATOM_DEF_STEREO_COUNT>
0

> <PUBCHEM_ATOM_UDEF_STEREO_COUNT>
2

> <PUBCHEM_BOND_DEF_STEREO_COUNT>
0

> <PUBCHEM_BOND_UDEF_STEREO_COUNT>
0

> <PUBCHEM_ISOTOPIC_ATOM_COUNT>
0

> <PUBCHEM_COMPONENT_COUNT>
1

> <PUBCHEM_CACTVS_TAUTO_COUNT>
1

> <PUBCHEM_COORDINATE_TYPE>
1
5
255

> <PUBCHEM_BONDANNOTATIONS>
1  9  3
2  10  3

$$$$

