440869
  -OEChem-07051212512D

 39 40  0     1  0  0  0  0  0999 V2000
    7.2124    0.0376    0.0000 O   0  0  0  0  0  0  0  0  0  0  0  0
    5.4573   -1.9423    0.0000 O   0  0  0  0  0  0  0  0  0  0  0  0
    8.0610   -1.4724    0.0000 O   0  0  0  0  0  0  0  0  0  0  0  0
    8.0379   -3.4722    0.0000 O   0  0  0  0  0  0  0  0  0  0  0  0
    7.2622    1.0680    0.0000 O   0  0  0  0  0  0  0  0  0  0  0  0
    3.7320    4.0922    0.0000 O   0  0  0  0  0  0  0  0  0  0  0  0
    2.0000    1.0922    0.0000 O   0  0  0  0  0  0  0  0  0  0  0  0
    5.4920    1.0575    0.0000 N   0  0  0  0  0  0  0  0  0  0  0  0
    3.7320    1.0922    0.0000 N   0  0  0  0  0  0  0  0  0  0  0  0
    5.4920    3.1268    0.0000 N   0  0  0  0  0  0  0  0  0  0  0  0
    2.8660    2.5922    0.0000 N   0  0  0  0  0  0  0  0  0  0  0  0
    6.3406   -0.4524    0.0000 C   0  0  2  0  0  0  0  0  0  0  0  0
    6.3291   -1.4523    0.0000 C   0  0  1  0  0  0  0  0  0  0  0  0
    5.4804    0.0576    0.0000 C   0  0  0  0  0  0  0  0  0  0  0  0
    7.1893   -1.9623    0.0000 C   0  0  1  0  0  0  0  0  0  0  0  0
    4.5981    1.5922    0.0000 C   0  0  0  0  0  0  0  0  0  0  0  0
    7.1777   -2.9622    0.0000 C   0  0  0  0  0  0  0  0  0  0  0  0
    6.3981    1.5714    0.0000 C   0  0  0  0  0  0  0  0  0  0  0  0
    4.5981    2.5922    0.0000 C   0  0  0  0  0  0  0  0  0  0  0  0
    6.3981    2.6130    0.0000 C   0  0  0  0  0  0  0  0  0  0  0  0
    3.7320    3.0922    0.0000 C   0  0  0  0  0  0  0  0  0  0  0  0
    2.8660    1.5922    0.0000 C   0  0  0  0  0  0  0  0  0  0  0  0
    7.2622    3.1163    0.0000 C   0  0  0  0  0  0  0  0  0  0  0  0
    6.3478    0.1676    0.0000 H   0  0  0  0  0  0  0  0  0  0  0  0
    5.7958   -1.1361    0.0000 H   0  0  0  0  0  0  0  0  0  0  0  0
    4.8712    0.1723    0.0000 H   0  0  0  0  0  0  0  0  0  0  0  0
    5.2617   -0.5225    0.0000 H   0  0  0  0  0  0  0  0  0  0  0  0
    7.7226   -2.2785    0.0000 H   0  0  0  0  0  0  0  0  0  0  0  0
    6.5684   -2.8475    0.0000 H   0  0  0  0  0  0  0  0  0  0  0  0
    6.9589   -3.5424    0.0000 H   0  0  0  0  0  0  0  0  0  0  0  0
    7.7457   -0.2786    0.0000 H   0  0  0  0  0  0  0  0  0  0  0  0
    5.4502   -2.5622    0.0000 H   0  0  0  0  0  0  0  0  0  0  0  0
    3.7320    0.4722    0.0000 H   0  0  0  0  0  0  0  0  0  0  0  0
    8.5943   -1.7885    0.0000 H   0  0  0  0  0  0  0  0  0  0  0  0
    7.5742    2.5806    0.0000 H   0  0  0  0  0  0  0  0  0  0  0  0
    7.7979    3.4284    0.0000 H   0  0  0  0  0  0  0  0  0  0  0  0
    6.9501    3.6521    0.0000 H   0  0  0  0  0  0  0  0  0  0  0  0
    2.3291    2.9022    0.0000 H   0  0  0  0  0  0  0  0  0  0  0  0
    8.0307   -4.0922    0.0000 H   0  0  0  0  0  0  0  0  0  0  0  0
 12  1  1  6  0  0  0
  1 31  1  0  0  0  0
 13  2  1  1  0  0  0
  2 32  1  0  0  0  0
 15  3  1  6  0  0  0
  3 34  1  0  0  0  0
  4 17  1  0  0  0  0
  4 39  1  0  0  0  0
  5 18  2  0  0  0  0
  6 21  2  0  0  0  0
  7 22  2  0  0  0  0
  8 14  1  0  0  0  0
  8 16  1  0  0  0  0
  8 18  1  0  0  0  0
  9 16  1  0  0  0  0
  9 22  1  0  0  0  0
  9 33  1  0  0  0  0
 10 19  1  0  0  0  0
 10 20  2  0  0  0  0
 11 21  1  0  0  0  0
 11 22  1  0  0  0  0
 11 38  1  0  0  0  0
 12 13  1  0  0  0  0
 12 14  1  0  0  0  0
 12 24  1  0  0  0  0
 13 15  1  0  0  0  0
 13 25  1  0  0  0  0
 14 26  1  0  0  0  0
 14 27  1  0  0  0  0
 15 17  1  0  0  0  0
 15 28  1  0  0  0  0
 16 19  2  0  0  0  0
 17 29  1  0  0  0  0
 17 30  1  0  0  0  0
 18 20  1  0  0  0  0
 19 21  1  0  0  0  0
 20 23  1  0  0  0  0
 23 35  1  0  0  0  0
 23 36  1  0  0  0  0
 23 37  1  0  0  0  0
M  END
> <PUBCHEM_COMPOUND_CID>
440869

> <PUBCHEM_COMPOUND_CANONICALIZED>
1

> <PUBCHEM_CACTVS_COMPLEXITY>
615

> <PUBCHEM_CACTVS_HBOND_ACCEPTOR>
8

> <PUBCHEM_CACTVS_HBOND_DONOR>
6

> <PUBCHEM_CACTVS_ROTATABLE_BOND>
5

> <PUBCHEM_CACTVS_SUBSKEYS>
AAADceBzuAAAAAAAAAAAAAAAAAAAAAAAAAAgQAAAAAAAAACAAAAAHgAQCAAACBzhgAYDAAPAAgCoAQVwVACAAAAAAAAAAAGYAECDUAIAgAAUQAAPByKRAEDwEAIAAAAAAAAAAAAAAAAAAAAAAAAAAAAAAA==

> <PUBCHEM_IUPAC_OPENEYE_NAME>
6-methyl-8-[(2S,3S,4R)-2,3,4,5-tetrahydroxypentyl]-1H-pteridine-2,4,7-trione

> <PUBCHEM_IUPAC_CAS_NAME>
6-methyl-8-[(2S,3S,4R)-2,3,4,5-tetrahydroxypentyl]-1H-pteridine-2,4,7-trione

> <PUBCHEM_IUPAC_NAME>
6-methyl-8-[(2S,3S,4R)-2,3,4,5-tetrahydroxypentyl]-1H-pteridine-2,4,7-trione

> <PUBCHEM_IUPAC_SYSTEMATIC_NAME>
6-methyl-8-[(2S,3S,4R)-2,3,4,5-tetrakis(oxidanyl)pentyl]-1H-pteridine-2,4,7-trione

> <PUBCHEM_IUPAC_TRADITIONAL_NAME>
6-methyl-8-[(2S,3S,4R)-2,3,4,5-tetrahydroxypentyl]-1H-pteridine-2,4,7-trione

> <PUBCHEM_IUPAC_INCHI>
InChI=1S/C12H16N4O7/c1-4-11(22)16(2-5(18)8(20)6(19)3-17)9-7(13-4)10(21)15-12(23)14-9/h5-6,8,17-20H,2-3H2,1H3,(H2,14,15,21,23)/t5-,6+,8-/m0/s1

> <PUBCHEM_IUPAC_INCHIKEY>
QCYVUUAIJUUUPI-BBVRLYRLSA-N

> <PUBCHEM_XLOGP3_AA>
-4.1

> <PUBCHEM_EXACT_MASS>
328.101899

> <PUBCHEM_MOLECULAR_FORMULA>
C12H16N4O7

> <PUBCHEM_MOLECULAR_WEIGHT>
328.27804

> <PUBCHEM_OPENEYE_CAN_SMILES>
CC1=NC2=C(NC(=O)NC2=O)N(C1=O)CC(C(C(CO)O)O)O

> <PUBCHEM_OPENEYE_ISO_SMILES>
CC1=NC2=C(NC(=O)NC2=O)N(C1=O)C[C@@H]([C@@H]([C@@H](CO)O)O)O

> <PUBCHEM_CACTVS_TPSA>
172

> <PUBCHEM_MONOISOTOPIC_WEIGHT>
328.101899

> <PUBCHEM_TOTAL_CHARGE>
0

> <PUBCHEM_HEAVY_ATOM_COUNT>
23

> <PUBCHEM_ATOM_DEF_STEREO_COUNT>
3

> <PUBCHEM_ATOM_UDEF_STEREO_COUNT>
0

> <PUBCHEM_BOND_DEF_STEREO_COUNT>
0

> <PUBCHEM_BOND_UDEF_STEREO_COUNT>
0

> <PUBCHEM_ISOTOPIC_ATOM_COUNT>
0

> <PUBCHEM_COMPONENT_COUNT>
1

> <PUBCHEM_CACTVS_TAUTO_COUNT>
24

> <PUBCHEM_COORDINATE_TYPE>
1
5
255

> <PUBCHEM_BONDANNOTATIONS>
12  1  6
10  19  8
10  20  8
11  21  8
11  22  8
16  19  8
18  20  8
19  21  8
13  2  5
15  3  6
8  16  8
8  18  8
9  16  8
9  22  8

$$$$

