31211
  -OEChem-07051213102D

 28 28  0     0  0  0  0  0  0999 V2000
    4.2690    2.5000    0.0000 O   0  0  0  0  0  0  0  0  0  0  0  0
    2.5369    1.5000    0.0000 O   0  0  0  0  0  0  0  0  0  0  0  0
    7.7331   -1.5000    0.0000 O   0  0  0  0  0  0  0  0  0  0  0  0
    6.0010   -0.5000    0.0000 C   0  0  0  0  0  0  0  0  0  0  0  0
    5.1350    0.0000    0.0000 C   0  0  0  0  0  0  0  0  0  0  0  0
    6.0010   -1.5000    0.0000 C   0  0  0  0  0  0  0  0  0  0  0  0
    5.1350    1.0000    0.0000 C   0  0  0  0  0  0  0  0  0  0  0  0
    4.2690   -0.5000    0.0000 C   0  0  0  0  0  0  0  0  0  0  0  0
    4.2690    1.5000    0.0000 C   0  0  0  0  0  0  0  0  0  0  0  0
    6.8671   -2.0000    0.0000 C   0  0  0  0  0  0  0  0  0  0  0  0
    3.4030    0.0000    0.0000 C   0  0  0  0  0  0  0  0  0  0  0  0
    3.4030    1.0000    0.0000 C   0  0  0  0  0  0  0  0  0  0  0  0
    6.8671   -3.0000    0.0000 C   0  0  0  0  0  0  0  0  0  0  0  0
    5.1350    3.0000    0.0000 C   0  0  0  0  0  0  0  0  0  0  0  0
    6.6116   -0.6077    0.0000 H   0  0  0  0  0  0  0  0  0  0  0  0
    6.2131    0.0826    0.0000 H   0  0  0  0  0  0  0  0  0  0  0  0
    5.3905   -1.3923    0.0000 H   0  0  0  0  0  0  0  0  0  0  0  0
    5.7890   -2.0826    0.0000 H   0  0  0  0  0  0  0  0  0  0  0  0
    5.6720    1.3100    0.0000 H   0  0  0  0  0  0  0  0  0  0  0  0
    4.2690   -1.1200    0.0000 H   0  0  0  0  0  0  0  0  0  0  0  0
    2.8660   -0.3100    0.0000 H   0  0  0  0  0  0  0  0  0  0  0  0
    6.2471   -3.0000    0.0000 H   0  0  0  0  0  0  0  0  0  0  0  0
    6.8671   -3.6200    0.0000 H   0  0  0  0  0  0  0  0  0  0  0  0
    7.4871   -3.0000    0.0000 H   0  0  0  0  0  0  0  0  0  0  0  0
    2.0000    1.1900    0.0000 H   0  0  0  0  0  0  0  0  0  0  0  0
    5.4450    2.4631    0.0000 H   0  0  0  0  0  0  0  0  0  0  0  0
    5.6720    3.3100    0.0000 H   0  0  0  0  0  0  0  0  0  0  0  0
    4.8250    3.5369    0.0000 H   0  0  0  0  0  0  0  0  0  0  0  0
  1  9  1  0  0  0  0
  1 14  1  0  0  0  0
  2 12  1  0  0  0  0
  2 25  1  0  0  0  0
  3 10  2  0  0  0  0
  4  5  1  0  0  0  0
  4  6  1  0  0  0  0
  4 15  1  0  0  0  0
  4 16  1  0  0  0  0
  5  7  2  0  0  0  0
  5  8  1  0  0  0  0
  6 10  1  0  0  0  0
  6 17  1  0  0  0  0
  6 18  1  0  0  0  0
  7  9  1  0  0  0  0
  7 19  1  0  0  0  0
  8 11  2  0  0  0  0
  8 20  1  0  0  0  0
  9 12  2  0  0  0  0
 10 13  1  0  0  0  0
 11 12  1  0  0  0  0
 11 21  1  0  0  0  0
 13 22  1  0  0  0  0
 13 23  1  0  0  0  0
 13 24  1  0  0  0  0
 14 26  1  0  0  0  0
 14 27  1  0  0  0  0
 14 28  1  0  0  0  0
M  END
> <PUBCHEM_COMPOUND_CID>
31211

> <PUBCHEM_COMPOUND_CANONICALIZED>
1

> <PUBCHEM_CACTVS_COMPLEXITY>
191

> <PUBCHEM_CACTVS_HBOND_ACCEPTOR>
3

> <PUBCHEM_CACTVS_HBOND_DONOR>
1

> <PUBCHEM_CACTVS_ROTATABLE_BOND>
4

> <PUBCHEM_CACTVS_SUBSKEYS>
AAADccBwMAAAAAAAAAAAAAAAAAAAAAAAAAAwAAAAAAAAAAABAAAAGgAACAAADASAmAIyBoAABgCIAqBSAAACCAAgIAAIiAEGiIgNJjKGMRqAcCMkwBELuAeIyLCOIAABAAAAQABAAAIAAACAAAAAAAAAAA==

> <PUBCHEM_IUPAC_OPENEYE_NAME>
4-(4-hydroxy-3-methoxy-phenyl)butan-2-one

> <PUBCHEM_IUPAC_CAS_NAME>
4-(4-hydroxy-3-methoxyphenyl)-2-butanone

> <PUBCHEM_IUPAC_NAME>
4-(4-hydroxy-3-methoxyphenyl)butan-2-one

> <PUBCHEM_IUPAC_SYSTEMATIC_NAME>
4-(3-methoxy-4-oxidanyl-phenyl)butan-2-one

> <PUBCHEM_IUPAC_TRADITIONAL_NAME>
4-(4-hydroxy-3-methoxy-phenyl)butan-2-one

> <PUBCHEM_IUPAC_INCHI>
InChI=1S/C11H14O3/c1-8(12)3-4-9-5-6-10(13)11(7-9)14-2/h5-7,13H,3-4H2,1-2H3

> <PUBCHEM_IUPAC_INCHIKEY>
OJYLAHXKWMRDGS-UHFFFAOYSA-N

> <PUBCHEM_XLOGP3>
0.8

> <PUBCHEM_EXACT_MASS>
194.094294

> <PUBCHEM_MOLECULAR_FORMULA>
C11H14O3

> <PUBCHEM_MOLECULAR_WEIGHT>
194.22706

> <PUBCHEM_OPENEYE_CAN_SMILES>
CC(=O)CCC1=CC(=C(C=C1)O)OC

> <PUBCHEM_OPENEYE_ISO_SMILES>
CC(=O)CCC1=CC(=C(C=C1)O)OC

> <PUBCHEM_CACTVS_TPSA>
46.5

> <PUBCHEM_MONOISOTOPIC_WEIGHT>
194.094294

> <PUBCHEM_TOTAL_CHARGE>
0

> <PUBCHEM_HEAVY_ATOM_COUNT>
14

> <PUBCHEM_ATOM_DEF_STEREO_COUNT>
0

> <PUBCHEM_ATOM_UDEF_STEREO_COUNT>
0

> <PUBCHEM_BOND_DEF_STEREO_COUNT>
0

> <PUBCHEM_BOND_UDEF_STEREO_COUNT>
0

> <PUBCHEM_ISOTOPIC_ATOM_COUNT>
0

> <PUBCHEM_COMPONENT_COUNT>
1

> <PUBCHEM_CACTVS_TAUTO_COUNT>
9

> <PUBCHEM_COORDINATE_TYPE>
1
5
255

> <PUBCHEM_BONDANNOTATIONS>
11  12  8
5  7  8
5  8  8
7  9  8
8  11  8
9  12  8

$$$$

