6438130
  -OEChem-07051213032D

 31 31  0     0  0  0  0  0  0999 V2000
    6.7974    4.0147    0.0000 Cl  0  0  0  0  0  0  0  0  0  0  0  0
    4.7974    7.9094    0.0000 O   0  0  0  0  0  0  0  0  0  0  0  0
    3.0653    7.9094    0.0000 O   0  0  0  0  0  0  0  0  0  0  0  0
    2.1993    1.4094    0.0000 N   0  0  0  0  0  0  0  0  0  0  0  0
    1.1166    0.2069    0.0000 N   0  0  0  0  0  0  0  0  0  0  0  0
    3.0653    1.9094    0.0000 C   0  0  0  0  0  0  0  0  0  0  0  0
    3.0653    2.9094    0.0000 C   0  0  0  0  0  0  0  0  0  0  0  0
    3.9313    3.4094    0.0000 C   0  0  0  0  0  0  0  0  0  0  0  0
    2.1993    3.4094    0.0000 C   0  0  0  0  0  0  0  0  0  0  0  0
    3.0653    4.9094    0.0000 C   0  0  0  0  0  0  0  0  0  0  0  0
    3.9313    4.4094    0.0000 C   0  0  0  0  0  0  0  0  0  0  0  0
    2.1993    4.4094    0.0000 C   0  0  0  0  0  0  0  0  0  0  0  0
    1.2857    1.8161    0.0000 C   0  0  0  0  0  0  0  0  0  0  0  0
    2.0948    0.4149    0.0000 C   0  0  0  0  0  0  0  0  0  0  0  0
    0.6166    1.0730    0.0000 C   0  0  0  0  0  0  0  0  0  0  0  0
    3.0653    5.9094    0.0000 C   0  0  0  0  0  0  0  0  0  0  0  0
    3.9313    6.4094    0.0000 C   0  0  0  0  0  0  0  0  0  0  0  0
    3.9313    7.4094    0.0000 C   0  0  0  0  0  0  0  0  0  0  0  0
    3.2774    1.3268    0.0000 H   0  0  0  0  0  0  0  0  0  0  0  0
    3.6759    2.0170    0.0000 H   0  0  0  0  0  0  0  0  0  0  0  0
    4.4683    3.0994    0.0000 H   0  0  0  0  0  0  0  0  0  0  0  0
    1.6623    3.0994    0.0000 H   0  0  0  0  0  0  0  0  0  0  0  0
    4.4683    4.7194    0.0000 H   0  0  0  0  0  0  0  0  0  0  0  0
    1.6623    4.7194    0.0000 H   0  0  0  0  0  0  0  0  0  0  0  0
    1.1568    2.4226    0.0000 H   0  0  0  0  0  0  0  0  0  0  0  0
    2.5555    0.0000    0.0000 H   0  0  0  0  0  0  0  0  0  0  0  0
    0.0000    1.1378    0.0000 H   0  0  0  0  0  0  0  0  0  0  0  0
    2.5284    6.2194    0.0000 H   0  0  0  0  0  0  0  0  0  0  0  0
    4.4683    6.0994    0.0000 H   0  0  0  0  0  0  0  0  0  0  0  0
    4.7974    8.5294    0.0000 H   0  0  0  0  0  0  0  0  0  0  0  0
    7.7974    4.0147    0.0000 H   0  0  0  0  0  0  0  0  0  0  0  0
  1 31  1  0  0  0  0
  2 18  1  0  0  0  0
  2 30  1  0  0  0  0
  3 18  2  0  0  0  0
  4  6  1  0  0  0  0
  4 13  1  0  0  0  0
  4 14  1  0  0  0  0
  5 14  2  0  0  0  0
  5 15  1  0  0  0  0
  6  7  1  0  0  0  0
  6 19  1  0  0  0  0
  6 20  1  0  0  0  0
  7  8  2  0  0  0  0
  7  9  1  0  0  0  0
  8 11  1  0  0  0  0
  8 21  1  0  0  0  0
  9 12  2  0  0  0  0
  9 22  1  0  0  0  0
 10 11  2  0  0  0  0
 10 12  1  0  0  0  0
 10 16  1  0  0  0  0
 11 23  1  0  0  0  0
 12 24  1  0  0  0  0
 13 15  2  0  0  0  0
 13 25  1  0  0  0  0
 14 26  1  0  0  0  0
 15 27  1  0  0  0  0
 16 17  2  0  0  0  0
 16 28  1  0  0  0  0
 17 18  1  0  0  0  0
 17 29  1  0  0  0  0
M  END
> <PUBCHEM_COMPOUND_CID>
6438130

> <PUBCHEM_COMPOUND_CANONICALIZED>
1

> <PUBCHEM_CACTVS_COMPLEXITY>
283

> <PUBCHEM_CACTVS_HBOND_ACCEPTOR>
3

> <PUBCHEM_CACTVS_HBOND_DONOR>
2

> <PUBCHEM_CACTVS_ROTATABLE_BOND>
4

> <PUBCHEM_CACTVS_SUBSKEYS>
AAADccBzMAAEAAAAAAAAAAAAAAAAAWAAAAAwAAAAAAAAAAABwAAAHgAACAAADADBmgQ9mJcMEgCoAjD3bACCgC0xEqAJyAAYNMiIbCKAmRGUMAhogAKImacQgAAOQAAAAAAAAACAAAAAAAAAAAAAAAAAAA==

> <PUBCHEM_IUPAC_OPENEYE_NAME>
(E)-3-[4-(imidazol-1-ylmethyl)phenyl]prop-2-enoic acid hydrochloride

> <PUBCHEM_IUPAC_CAS_NAME>
(E)-3-[4-(1-imidazolylmethyl)phenyl]-2-propenoic acid hydrochloride

> <PUBCHEM_IUPAC_NAME>
(E)-3-[4-(imidazol-1-ylmethyl)phenyl]prop-2-enoic acid hydrochloride

> <PUBCHEM_IUPAC_SYSTEMATIC_NAME>
(E)-3-[4-(imidazol-1-ylmethyl)phenyl]prop-2-enoic acid hydrochloride

> <PUBCHEM_IUPAC_TRADITIONAL_NAME>
(E)-3-[4-(imidazol-1-ylmethyl)phenyl]acrylic acid hydrochloride

> <PUBCHEM_IUPAC_INCHI>
InChI=1S/C13H12N2O2.ClH/c16-13(17)6-5-11-1-3-12(4-2-11)9-15-8-7-14-10-15;/h1-8,10H,9H2,(H,16,17);1H/b6-5+;

> <PUBCHEM_IUPAC_INCHIKEY>
CWKFWBJJNNPGAM-IPZCTEOASA-N

> <PUBCHEM_EXACT_MASS>
264.066555

> <PUBCHEM_MOLECULAR_FORMULA>
C13H13ClN2O2

> <PUBCHEM_MOLECULAR_WEIGHT>
264.70752

> <PUBCHEM_OPENEYE_CAN_SMILES>
C1=CC(=CC=C1CN2C=CN=C2)C=CC(=O)O.Cl

> <PUBCHEM_OPENEYE_ISO_SMILES>
C1=CC(=CC=C1CN2C=CN=C2)/C=C/C(=O)O.Cl

> <PUBCHEM_CACTVS_TPSA>
55.1

> <PUBCHEM_MONOISOTOPIC_WEIGHT>
264.066555

> <PUBCHEM_TOTAL_CHARGE>
0

> <PUBCHEM_HEAVY_ATOM_COUNT>
18

> <PUBCHEM_ATOM_DEF_STEREO_COUNT>
0

> <PUBCHEM_ATOM_UDEF_STEREO_COUNT>
0

> <PUBCHEM_BOND_DEF_STEREO_COUNT>
1

> <PUBCHEM_BOND_UDEF_STEREO_COUNT>
0

> <PUBCHEM_ISOTOPIC_ATOM_COUNT>
0

> <PUBCHEM_COMPONENT_COUNT>
2

> <PUBCHEM_CACTVS_TAUTO_COUNT>
1

> <PUBCHEM_COORDINATE_TYPE>
1
5
255

> <PUBCHEM_BONDANNOTATIONS>
10  11  8
10  12  8
13  15  8
4  13  8
4  14  8
5  14  8
5  15  8
7  8  8
7  9  8
8  11  8
9  12  8

$$$$

