441560
  -OEChem-07051212553D

 44 44  0     1  0  0  0  0  0999 V2000
   -0.4636    0.2942   -0.4416 O   0  0  0  0  0  0  0  0  0  0  0  0
    3.1456    0.7419    0.0867 O   0  0  0  0  0  0  0  0  0  0  0  0
    2.1750    3.4574   -0.1557 O   0  0  0  0  0  0  0  0  0  0  0  0
   -0.4991    3.7453    0.8534 O   0  0  0  0  0  0  0  0  0  0  0  0
    0.9486   -0.5433    1.2685 O   0  0  0  0  0  0  0  0  0  0  0  0
   -3.1366    0.4669    0.0858 O   0  0  0  0  0  0  0  0  0  0  0  0
    3.1600   -1.0805   -1.3278 O   0  0  0  0  0  0  0  0  0  0  0  0
   -5.0418    1.4476   -0.7685 O   0  0  0  0  0  0  0  0  0  0  0  0
    8.0577   -1.4215   -0.4481 O   0  5  0  0  0  0  0  0  0  0  0  0
    7.1909   -2.5256    1.2501 O   0  0  0  0  0  0  0  0  0  0  0  0
   -7.1072   -3.0924   -0.7698 O   0  5  0  0  0  0  0  0  0  0  0  0
   -7.4674   -2.4061    1.2926 O   0  0  0  0  0  0  0  0  0  0  0  0
    7.1046   -1.9404    0.1573 N   0  3  0  0  0  0  0  0  0  0  0  0
   -7.0973   -2.2253    0.1202 N   0  3  0  0  0  0  0  0  0  0  0  0
    1.3882    2.3693    0.3347 C   0  0  1  0  0  0  0  0  0  0  0  0
   -0.0813    2.6624    0.0256 C   0  0  1  0  0  0  0  0  0  0  0  0
    1.8349    1.0805   -0.3525 C   0  0  2  0  0  0  0  0  0  0  0  0
   -0.9583    1.4286    0.2791 C   0  0  1  0  0  0  0  0  0  0  0  0
    0.8682   -0.0719   -0.0754 C   0  0  2  0  0  0  0  0  0  0  0  0
   -2.4001    1.6483   -0.1708 C   0  0  0  0  0  0  0  0  0  0  0  0
    3.6977   -0.3731   -0.4871 C   0  0  0  0  0  0  0  0  0  0  0  0
    5.0751   -0.6037    0.1003 C   0  0  0  0  0  0  0  0  0  0  0  0
   -4.4646    0.4949   -0.2631 C   0  0  0  0  0  0  0  0  0  0  0  0
   -5.1071   -0.8299    0.0939 C   0  0  0  0  0  0  0  0  0  0  0  0
    5.7669   -1.8366   -0.4542 C   0  0  0  0  0  0  0  0  0  0  0  0
   -6.5890   -0.8870   -0.2333 C   0  0  0  0  0  0  0  0  0  0  0  0
    1.5687    2.3214    1.4152 H   0  0  0  0  0  0  0  0  0  0  0  0
   -0.1803    2.9843   -1.0191 H   0  0  0  0  0  0  0  0  0  0  0  0
    1.8730    1.2779   -1.4332 H   0  0  0  0  0  0  0  0  0  0  0  0
   -0.9778    1.1828    1.3492 H   0  0  0  0  0  0  0  0  0  0  0  0
    1.0733   -0.9436   -0.6945 H   0  0  0  0  0  0  0  0  0  0  0  0
   -2.8478    2.4893    0.3707 H   0  0  0  0  0  0  0  0  0  0  0  0
   -2.4286    1.8523   -1.2482 H   0  0  0  0  0  0  0  0  0  0  0  0
    1.9674    4.2387    0.3840 H   0  0  0  0  0  0  0  0  0  0  0  0
   -0.0274    4.5424    0.5590 H   0  0  0  0  0  0  0  0  0  0  0  0
    1.1741    0.2028    1.8472 H   0  0  0  0  0  0  0  0  0  0  0  0
    4.9631   -0.6956    1.1877 H   0  0  0  0  0  0  0  0  0  0  0  0
    5.6776    0.2893   -0.1072 H   0  0  0  0  0  0  0  0  0  0  0  0
   -4.9546   -0.9963    1.1673 H   0  0  0  0  0  0  0  0  0  0  0  0
   -4.5718   -1.6156   -0.4534 H   0  0  0  0  0  0  0  0  0  0  0  0
    5.8969   -1.7807   -1.5402 H   0  0  0  0  0  0  0  0  0  0  0  0
    5.2189   -2.7552   -0.2199 H   0  0  0  0  0  0  0  0  0  0  0  0
   -6.7806   -0.7252   -1.2993 H   0  0  0  0  0  0  0  0  0  0  0  0
   -7.1640   -0.1491    0.3359 H   0  0  0  0  0  0  0  0  0  0  0  0
  1 18  1  0  0  0  0
  1 19  1  0  0  0  0
  2 17  1  0  0  0  0
  2 21  1  0  0  0  0
  3 15  1  0  0  0  0
  3 34  1  0  0  0  0
  4 16  1  0  0  0  0
  4 35  1  0  0  0  0
  5 19  1  0  0  0  0
  5 36  1  0  0  0  0
  6 20  1  0  0  0  0
  6 23  1  0  0  0  0
  7 21  2  0  0  0  0
  8 23  2  0  0  0  0
  9 13  1  0  0  0  0
 10 13  2  0  0  0  0
 11 14  1  0  0  0  0
 12 14  2  0  0  0  0
 13 25  1  0  0  0  0
 14 26  1  0  0  0  0
 15 16  1  0  0  0  0
 15 17  1  0  0  0  0
 15 27  1  0  0  0  0
 16 18  1  0  0  0  0
 16 28  1  0  0  0  0
 17 19  1  0  0  0  0
 17 29  1  0  0  0  0
 18 20  1  0  0  0  0
 18 30  1  0  0  0  0
 19 31  1  0  0  0  0
 20 32  1  0  0  0  0
 20 33  1  0  0  0  0
 21 22  1  0  0  0  0
 22 25  1  0  0  0  0
 22 37  1  0  0  0  0
 22 38  1  0  0  0  0
 23 24  1  0  0  0  0
 24 26  1  0  0  0  0
 24 39  1  0  0  0  0
 24 40  1  0  0  0  0
 25 41  1  0  0  0  0
 25 42  1  0  0  0  0
 26 43  1  0  0  0  0
 26 44  1  0  0  0  0
M  CHG  4   9  -1  11  -1  13   1  14   1
M  END
> <PUBCHEM_COMPOUND_CID>
441560

> <PUBCHEM_CONFORMER_RMSD>
1

> <PUBCHEM_CONFORMER_DIVERSEORDER>
1
52
113
79
78
10
85
103
84
117
76
63
21
33
88
86
65
23
100
30
38
16
42
61
17
93
94
64
112
69
105
116
31
24
29
81
48
45
50
4
60
80
87
70
91
98
83
18
51
97
68
110
5
49
82
67
95
74
71
73
28
22
25
104
2
106
55
53
47
34
89
102
7
13
58
35
46
107
14
59
9
36
6
15
8
39
43
111
32
56
77
44
66
115
62
40
114
101
109
90
11
108
99
75
3
19
72
26
92
57
20
12
27
37
96
54
41

> <PUBCHEM_MMFF94_PARTIAL_CHARGES>
29
1 -0.56
10 -0.52
11 -0.52
12 -0.52
13 0.8
14 0.8
15 0.28
16 0.28
17 0.28
18 0.28
19 0.56
2 -0.43
20 0.28
21 0.66
22 0.06
23 0.66
24 0.06
25 0.24
26 0.24
3 -0.68
34 0.4
35 0.4
36 0.4
4 -0.68
5 -0.68
6 -0.43
7 -0.57
8 -0.57
9 -0.52

> <PUBCHEM_EFFECTIVE_ROTOR_COUNT>
12.2

> <PUBCHEM_PHARMACOPHORE_FEATURES>
16
1 1 acceptor
1 10 acceptor
1 11 acceptor
1 11 anion
1 12 acceptor
1 3 acceptor
1 3 donor
1 4 acceptor
1 4 donor
1 5 acceptor
1 5 donor
1 7 acceptor
1 8 acceptor
1 9 acceptor
1 9 anion
6 1 15 16 17 18 19 rings

> <PUBCHEM_HEAVY_ATOM_COUNT>
26

> <PUBCHEM_ATOM_DEF_STEREO_COUNT>
5

> <PUBCHEM_ATOM_UDEF_STEREO_COUNT>
0

> <PUBCHEM_BOND_DEF_STEREO_COUNT>
0

> <PUBCHEM_BOND_UDEF_STEREO_COUNT>
0

> <PUBCHEM_ISOTOPIC_ATOM_COUNT>
0

> <PUBCHEM_COMPONENT_COUNT>
1

> <PUBCHEM_CACTVS_TAUTO_COUNT>
4

> <PUBCHEM_CONFORMER_ID>
0006BCD800000001

> <PUBCHEM_MMFF94_ENERGY>
48.0568

> <PUBCHEM_FEATURE_SELFOVERLAP>
81.391

> <PUBCHEM_SHAPE_FINGERPRINT>
10 15 7204774796174369071
10411042 1 18409729573381242248
11963148 33 17904767678693983263
12166972 35 17917425463054022060
13690498 29 18273220807246799645
13782708 43 18273216361887082487
13862211 1 18410854373506717158
13955234 65 17972039145834774273
14123256 34 18410291415280021823
14178184 131 18187650154948272175
15803439 3 14620791596090185929
20028762 73 18334293167010070142
20526848 3 8790884090214254047
21095123 293 6050437137803146906
21267235 1 18409444795363028356
21585482 111 8285935566019377923
23402539 116 18265618861098801652
23522609 53 18123152858270257885
23559900 14 18341336612711897120
270888 7 9295290534387947029
293599 30 10087628308952028500
3004659 81 18131353020516280092
439807 62 18343861109232263463
465052 167 18333446525876177037
484989 97 17988070094028826163
54039377 194 18409163307475464711
5718773 13 18411139130165911847
6327066 14 9511461113273166041
636775 8 18335693997302143238
7970288 3 18408323306736297695

> <PUBCHEM_SHAPE_MULTIPOLES>
454.67
21.13
3.71
0.89
4.01
1.48
-0.1
-28.33
-0.7
1.12
-0.54
-0.07
-0.3
0.07

> <PUBCHEM_SHAPE_SELFOVERLAP>
914.877

> <PUBCHEM_SHAPE_VOLUME>
261.7

> <PUBCHEM_COORDINATE_TYPE>
2
5
10

$$$$

