23259413
  -OEChem-07051213102D

 42 44  0     0  0  0  0  0  0999 V2000
    5.4920    1.1897    0.0000 O   0  0  0  0  0  0  0  0  0  0  0  0
    3.7320   -1.8450    0.0000 O   0  0  0  0  0  0  0  0  0  0  0  0
    2.0000    1.1550    0.0000 O   0  0  0  0  0  0  0  0  0  0  0  0
    5.4804   -1.8796    0.0000 O   0  0  0  0  0  0  0  0  0  0  0  0
   10.7340    1.1175    0.0000 O   0  0  0  0  0  0  0  0  0  0  0  0
    4.5981   -0.3450    0.0000 C   0  0  0  0  0  0  0  0  0  0  0  0
    4.5981    0.6550    0.0000 C   0  0  0  0  0  0  0  0  0  0  0  0
    6.3981   -0.3658    0.0000 C   0  0  0  0  0  0  0  0  0  0  0  0
    3.7320    1.1550    0.0000 C   0  0  0  0  0  0  0  0  0  0  0  0
    7.2622   -0.8692    0.0000 C   0  0  0  0  0  0  0  0  0  0  0  0
    5.4920   -0.8797    0.0000 C   0  0  0  0  0  0  0  0  0  0  0  0
    3.7320   -0.8450    0.0000 C   0  0  0  0  0  0  0  0  0  0  0  0
    2.8660   -0.3450    0.0000 C   0  0  0  0  0  0  0  0  0  0  0  0
    2.8660    0.6550    0.0000 C   0  0  0  0  0  0  0  0  0  0  0  0
    8.1301   -0.3725    0.0000 C   0  0  0  0  0  0  0  0  0  0  0  0
    6.3981    0.6758    0.0000 C   0  0  0  0  0  0  0  0  0  0  0  0
    3.7320    2.1550    0.0000 C   0  0  0  0  0  0  0  0  0  0  0  0
    2.0000   -0.8450    0.0000 C   0  0  0  0  0  0  0  0  0  0  0  0
    8.9942   -0.8758    0.0000 C   0  0  0  0  0  0  0  0  0  0  0  0
    8.1340    0.6275    0.0000 C   0  0  0  0  0  0  0  0  0  0  0  0
    9.8622   -0.3792    0.0000 C   0  0  0  0  0  0  0  0  0  0  0  0
    9.0019    1.1242    0.0000 C   0  0  0  0  0  0  0  0  0  0  0  0
    9.8660    0.6208    0.0000 C   0  0  0  0  0  0  0  0  0  0  0  0
   11.5981    0.6141    0.0000 C   0  0  0  0  0  0  0  0  0  0  0  0
    6.8618   -1.3426    0.0000 H   0  0  0  0  0  0  0  0  0  0  0  0
    7.6589   -1.3456    0.0000 H   0  0  0  0  0  0  0  0  0  0  0  0
    6.9338    0.9879    0.0000 H   0  0  0  0  0  0  0  0  0  0  0  0
    4.3520    2.1550    0.0000 H   0  0  0  0  0  0  0  0  0  0  0  0
    3.7320    2.7750    0.0000 H   0  0  0  0  0  0  0  0  0  0  0  0
    3.1120    2.1550    0.0000 H   0  0  0  0  0  0  0  0  0  0  0  0
    1.6900   -0.3081    0.0000 H   0  0  0  0  0  0  0  0  0  0  0  0
    1.4631   -1.1550    0.0000 H   0  0  0  0  0  0  0  0  0  0  0  0
    2.3100   -1.3819    0.0000 H   0  0  0  0  0  0  0  0  0  0  0  0
    8.9918   -1.4958    0.0000 H   0  0  0  0  0  0  0  0  0  0  0  0
    7.5982    0.9396    0.0000 H   0  0  0  0  0  0  0  0  0  0  0  0
    3.1951   -2.1550    0.0000 H   0  0  0  0  0  0  0  0  0  0  0  0
   10.3979   -0.6912    0.0000 H   0  0  0  0  0  0  0  0  0  0  0  0
    9.0043    1.7442    0.0000 H   0  0  0  0  0  0  0  0  0  0  0  0
    2.0000    1.7750    0.0000 H   0  0  0  0  0  0  0  0  0  0  0  0
   11.2860    0.0784    0.0000 H   0  0  0  0  0  0  0  0  0  0  0  0
   12.1338    0.3021    0.0000 H   0  0  0  0  0  0  0  0  0  0  0  0
   11.9101    1.1499    0.0000 H   0  0  0  0  0  0  0  0  0  0  0  0
  1  7  1  0  0  0  0
  1 16  1  0  0  0  0
  2 12  1  0  0  0  0
  2 36  1  0  0  0  0
  3 14  1  0  0  0  0
  3 39  1  0  0  0  0
  4 11  2  0  0  0  0
  5 23  1  0  0  0  0
  5 24  1  0  0  0  0
  6  7  1  0  0  0  0
  6 11  1  0  0  0  0
  6 12  2  0  0  0  0
  7  9  2  0  0  0  0
  8 10  1  0  0  0  0
  8 11  1  0  0  0  0
  8 16  2  0  0  0  0
  9 14  1  0  0  0  0
  9 17  1  0  0  0  0
 10 15  1  0  0  0  0
 10 25  1  0  0  0  0
 10 26  1  0  0  0  0
 12 13  1  0  0  0  0
 13 14  2  0  0  0  0
 13 18  1  0  0  0  0
 15 19  2  0  0  0  0
 15 20  1  0  0  0  0
 16 27  1  0  0  0  0
 17 28  1  0  0  0  0
 17 29  1  0  0  0  0
 17 30  1  0  0  0  0
 18 31  1  0  0  0  0
 18 32  1  0  0  0  0
 18 33  1  0  0  0  0
 19 21  1  0  0  0  0
 19 34  1  0  0  0  0
 20 22  2  0  0  0  0
 20 35  1  0  0  0  0
 21 23  2  0  0  0  0
 21 37  1  0  0  0  0
 22 23  1  0  0  0  0
 22 38  1  0  0  0  0
 24 40  1  0  0  0  0
 24 41  1  0  0  0  0
 24 42  1  0  0  0  0
M  END
> <PUBCHEM_COMPOUND_CID>
23259413

> <PUBCHEM_COMPOUND_CANONICALIZED>
1

> <PUBCHEM_CACTVS_COMPLEXITY>
494

> <PUBCHEM_CACTVS_HBOND_ACCEPTOR>
5

> <PUBCHEM_CACTVS_HBOND_DONOR>
2

> <PUBCHEM_CACTVS_ROTATABLE_BOND>
3

> <PUBCHEM_CACTVS_SUBSKEYS>
AAADceB4OAAAAAAAAAAAAAAAAAAAAAAAAAAwYIAAAAAAAACBQAAAGgAACAAADASgmAIyBoAABgCIAqBSAAACCAAkIAAIiAEGCMgMJzaGNRqAcWAl4BUIuYeI7OzOIAACCAAIAABAAAQQABAAAAAAAAAAAA==

> <PUBCHEM_IUPAC_OPENEYE_NAME>
5,7-dihydroxy-3-[(4-methoxyphenyl)methyl]-6,8-dimethyl-chromen-4-one

> <PUBCHEM_IUPAC_CAS_NAME>
5,7-dihydroxy-3-[(4-methoxyphenyl)methyl]-6,8-dimethyl-1-benzopyran-4-one

> <PUBCHEM_IUPAC_NAME>
5,7-dihydroxy-3-[(4-methoxyphenyl)methyl]-6,8-dimethylchromen-4-one

> <PUBCHEM_IUPAC_SYSTEMATIC_NAME>
3-[(4-methoxyphenyl)methyl]-6,8-dimethyl-5,7-bis(oxidanyl)chromen-4-one

> <PUBCHEM_IUPAC_TRADITIONAL_NAME>
5,7-dihydroxy-6,8-dimethyl-3-p-anisyl-chromone

> <PUBCHEM_IUPAC_INCHI>
InChI=1S/C19H18O5/c1-10-16(20)11(2)19-15(17(10)21)18(22)13(9-24-19)8-12-4-6-14(23-3)7-5-12/h4-7,9,20-21H,8H2,1-3H3

> <PUBCHEM_IUPAC_INCHIKEY>
BUTFXZVBLOLETI-UHFFFAOYSA-N

> <PUBCHEM_XLOGP3_AA>
4

> <PUBCHEM_EXACT_MASS>
326.115424

> <PUBCHEM_MOLECULAR_FORMULA>
C19H18O5

> <PUBCHEM_MOLECULAR_WEIGHT>
326.34322

> <PUBCHEM_OPENEYE_CAN_SMILES>
CC1=C(C2=C(C(=C1O)C)OC=C(C2=O)CC3=CC=C(C=C3)OC)O

> <PUBCHEM_OPENEYE_ISO_SMILES>
CC1=C(C2=C(C(=C1O)C)OC=C(C2=O)CC3=CC=C(C=C3)OC)O

> <PUBCHEM_CACTVS_TPSA>
76

> <PUBCHEM_MONOISOTOPIC_WEIGHT>
326.115424

> <PUBCHEM_TOTAL_CHARGE>
0

> <PUBCHEM_HEAVY_ATOM_COUNT>
24

> <PUBCHEM_ATOM_DEF_STEREO_COUNT>
0

> <PUBCHEM_ATOM_UDEF_STEREO_COUNT>
0

> <PUBCHEM_BOND_DEF_STEREO_COUNT>
0

> <PUBCHEM_BOND_UDEF_STEREO_COUNT>
0

> <PUBCHEM_ISOTOPIC_ATOM_COUNT>
0

> <PUBCHEM_COMPONENT_COUNT>
1

> <PUBCHEM_CACTVS_TAUTO_COUNT>
12

> <PUBCHEM_COORDINATE_TYPE>
1
5
255

> <PUBCHEM_BONDANNOTATIONS>
1  16  8
1  7  8
12  13  8
13  14  8
15  19  8
15  20  8
19  21  8
20  22  8
21  23  8
22  23  8
6  11  8
6  12  8
6  7  8
7  9  8
8  11  8
8  16  8
9  14  8

$$$$

