3247797
  -OEChem-07051213073D

 21 22  0     0  0  0  0  0  0999 V2000
   -4.4789    1.1108    1.3086 Cl  0  0  0  0  0  0  0  0  0  0  0  0
   -1.3112    0.6312   -0.6395 S   0  0  0  0  0  0  0  0  0  0  0  0
    1.7872    1.7587   -0.2649 N   0  0  0  0  0  0  0  0  0  0  0  0
    3.6405    0.6119    0.2029 N   0  0  0  0  0  0  0  0  0  0  0  0
    0.1911   -1.5501   -0.0927 N   0  0  0  0  0  0  0  0  0  0  0  0
    2.5955   -1.5799    0.3190 N   0  0  0  0  0  0  0  0  0  0  0  0
    1.3983    0.4539   -0.1561 C   0  0  0  0  0  0  0  0  0  0  0  0
    0.1929   -0.2100   -0.2717 C   0  0  0  0  0  0  0  0  0  0  0  0
    2.5663   -0.2380    0.1347 C   0  0  0  0  0  0  0  0  0  0  0  0
    3.1381    1.8033   -0.0418 C   0  0  0  0  0  0  0  0  0  0  0  0
   -2.4950   -0.4389    0.2140 C   0  0  0  0  0  0  0  0  0  0  0  0
    1.3755   -2.1440    0.1877 C   0  0  0  0  0  0  0  0  0  0  0  0
   -3.8934    0.0704    0.0520 C   0  0  0  0  0  0  0  0  0  0  0  0
   -4.7069   -0.2792   -0.9521 C   0  0  0  0  0  0  0  0  0  0  0  0
    1.1903    2.5486   -0.4718 H   0  0  0  0  0  0  0  0  0  0  0  0
    3.6909    2.7314   -0.0725 H   0  0  0  0  0  0  0  0  0  0  0  0
   -2.4306   -1.4499   -0.2057 H   0  0  0  0  0  0  0  0  0  0  0  0
   -2.2295   -0.5185    1.2744 H   0  0  0  0  0  0  0  0  0  0  0  0
    1.3379   -3.2194    0.3253 H   0  0  0  0  0  0  0  0  0  0  0  0
   -5.7238    0.0934   -1.0198 H   0  0  0  0  0  0  0  0  0  0  0  0
   -4.3703   -0.9500   -1.7359 H   0  0  0  0  0  0  0  0  0  0  0  0
  1 13  1  0  0  0  0
  2  8  1  0  0  0  0
  2 11  1  0  0  0  0
  3  7  1  0  0  0  0
  3 10  1  0  0  0  0
  3 15  1  0  0  0  0
  4  9  1  0  0  0  0
  4 10  2  0  0  0  0
  5  8  2  0  0  0  0
  5 12  1  0  0  0  0
  6  9  1  0  0  0  0
  6 12  2  0  0  0  0
  7  8  1  0  0  0  0
  7  9  2  0  0  0  0
 10 16  1  0  0  0  0
 11 13  1  0  0  0  0
 11 17  1  0  0  0  0
 11 18  1  0  0  0  0
 12 19  1  0  0  0  0
 13 14  2  0  0  0  0
 14 20  1  0  0  0  0
 14 21  1  0  0  0  0
M  END
> <PUBCHEM_COMPOUND_CID>
3247797

> <PUBCHEM_CONFORMER_RMSD>
0.6

> <PUBCHEM_CONFORMER_DIVERSEORDER>
2
12
39
19
57
18
24
27
56
31
46
58
32
14
29
42
28
7
26
36
37
20
52
30
49
8
25
59
35
44
47
4
40
53
43
50
51
34
16
38
41
6
33
22
15
10
48
9
1
13
21
11
3
23
54
17
45
55
60
5

> <PUBCHEM_MMFF94_PARTIAL_CHARGES>
18
1 -0.14
10 0.04
11 0.37
12 0.47
14 -0.3
15 0.27
16 0.15
19 0.15
2 -0.33
20 0.15
21 0.15
3 0.03
4 -0.57
5 -0.62
6 -0.57
7 -0.15
8 0.41
9 0.48

> <PUBCHEM_EFFECTIVE_ROTOR_COUNT>
3

> <PUBCHEM_PHARMACOPHORE_FEATURES>
6
1 3 donor
1 5 acceptor
3 3 4 10 cation
3 5 6 12 cation
5 3 4 7 9 10 rings
6 5 6 7 8 9 12 rings

> <PUBCHEM_HEAVY_ATOM_COUNT>
14

> <PUBCHEM_ATOM_DEF_STEREO_COUNT>
0

> <PUBCHEM_ATOM_UDEF_STEREO_COUNT>
0

> <PUBCHEM_BOND_DEF_STEREO_COUNT>
0

> <PUBCHEM_BOND_UDEF_STEREO_COUNT>
0

> <PUBCHEM_ISOTOPIC_ATOM_COUNT>
0

> <PUBCHEM_COMPONENT_COUNT>
1

> <PUBCHEM_CACTVS_TAUTO_COUNT>
4

> <PUBCHEM_CONFORMER_ID>
00318EB500000002

> <PUBCHEM_MMFF94_ENERGY>
19.417

> <PUBCHEM_FEATURE_SELFOVERLAP>
30.578

> <PUBCHEM_SHAPE_FINGERPRINT>
10219947 1 18273496758267930253
10465860 228 18336258020026313897
10608611 8 18200601401036980069
10980938 120 18410294722114559525
11132069 177 18130793308873163581
11471102 20 18412549811962896862
12346645 44 18334010575626016793
12346645 6 18410858758868923094
12390115 104 17907843025723217044
12644460 14 18202285818643715626
13296908 3 17203604909098572331
13380535 76 18342178825723029746
14251717 144 18411425007483867175
14252887 29 17775560957641119241
14445660 50 18335696148747870409
14897335 6 18337677420982079647
15219456 202 18130515227010274829
15375358 24 17704359866260797935
15442244 35 18120934172753573225
15501101 241 18202001061795039045
15775835 57 18334013852411685733
17834072 33 18334582326500177871
18186145 218 18410006663253690511
19026448 5 18040999566167036327
19050596 39 18334574672562475249
19422 9 18113338630786604471
200 152 18261405433962287445
20233049 118 17022621996093988609
20279233 1 17418375796759950083
20645477 70 18270410493922830023
20871998 22 18048036560781129310
21730867 7 18272373078801072815
22854114 111 18411419513941029685
22854114 59 18413392020959052781
23402539 116 17167864166535162660
23402655 69 18335708247465132109
23557571 272 15213292020489430729
2748010 2 18052276260516468764
2838139 119 15648204879711329376
33824 294 18272093790015762171
449060 62 18411416193947192652
474 4 18340486660358944833
4990 188 17894619349498610292
5104073 3 18411981373473886131
581208 293 18412550898584354439
633830 44 18261383430043288677
7364860 26 18335983163884701086
81228 2 16701180966173701477
81539 233 18131634461085708270
8272917 22 18335133250081122023

> <PUBCHEM_SHAPE_MULTIPOLES>
273.91
8.48
1.85
0.87
8.54
0.31
0.07
-2.15
0.83
-1.69
0.16
0.95
-0.13
-0.75

> <PUBCHEM_SHAPE_SELFOVERLAP>
560.63

> <PUBCHEM_SHAPE_VOLUME>
160.6

> <PUBCHEM_COORDINATE_TYPE>
2
5
10

$$$$

