4854
  -OEChem-06261200222D

 48 51  0     1  0  0  0  0  0999 V2000
    5.3830   -1.5035    0.0000 N   0  0  3  0  0  0  0  0  0  0  0  0
    5.6920   -0.5524    0.0000 C   0  0  3  0  0  0  0  0  0  0  0  0
    4.8830    0.0354    0.0000 C   0  0  0  0  0  0  0  0  0  0  0  0
    4.0740   -0.5524    0.0000 C   0  0  0  0  0  0  0  0  0  0  0  0
    4.3830   -1.5035    0.0000 C   0  0  0  0  0  0  0  0  0  0  0  0
    4.8830    1.0354    0.0000 C   0  0  0  0  0  0  0  0  0  0  0  0
    5.9708   -2.3125    0.0000 C   0  0  0  0  0  0  0  0  0  0  0  0
    6.6431   -0.2434    0.0000 C   0  0  0  0  0  0  0  0  0  0  0  0
    3.9820    1.4693    0.0000 C   0  0  0  0  0  0  0  0  0  0  0  0
    5.7840    1.4693    0.0000 C   0  0  0  0  0  0  0  0  0  0  0  0
    3.7595    2.4442    0.0000 C   0  0  0  0  0  0  0  0  0  0  0  0
    6.0065    2.4442    0.0000 C   0  0  0  0  0  0  0  0  0  0  0  0
    5.3830    3.2260    0.0000 C   0  0  0  0  0  0  0  0  0  0  0  0
    4.3830    3.2260    0.0000 C   0  0  0  0  0  0  0  0  0  0  0  0
    5.5640   -3.2260    0.0000 C   0  0  0  0  0  0  0  0  0  0  0  0
    3.2295    0.7491    0.0000 C   0  0  0  0  0  0  0  0  0  0  0  0
    6.5365    0.7491    0.0000 C   0  0  0  0  0  0  0  0  0  0  0  0
    6.9970    2.7665    0.0000 C   0  0  0  0  0  0  0  0  0  0  0  0
    2.7690    2.7665    0.0000 C   0  0  0  0  0  0  0  0  0  0  0  0
    7.5342    1.0484    0.0000 C   0  0  0  0  0  0  0  0  0  0  0  0
    2.2318    1.0485    0.0000 C   0  0  0  0  0  0  0  0  0  0  0  0
    2.0000    2.0640    0.0000 C   0  0  0  0  0  0  0  0  0  0  0  0
    7.7660    2.0639    0.0000 C   0  0  0  0  0  0  0  0  0  0  0  0
    6.1304   -0.9908    0.0000 H   0  0  0  0  0  0  0  0  0  0  0  0
    3.7640   -0.0155    0.0000 H   0  0  0  0  0  0  0  0  0  0  0  0
    3.5076   -0.8046    0.0000 H   0  0  0  0  0  0  0  0  0  0  0  0
    3.7765   -1.6324    0.0000 H   0  0  0  0  0  0  0  0  0  0  0  0
    4.4478   -2.1201    0.0000 H   0  0  0  0  0  0  0  0  0  0  0  0
    6.4848   -2.6592    0.0000 H   0  0  0  0  0  0  0  0  0  0  0  0
    6.4014   -1.8665    0.0000 H   0  0  0  0  0  0  0  0  0  0  0  0
    6.8346   -0.8331    0.0000 H   0  0  0  0  0  0  0  0  0  0  0  0
    7.2327   -0.0518    0.0000 H   0  0  0  0  0  0  0  0  0  0  0  0
    6.4515    0.3463    0.0000 H   0  0  0  0  0  0  0  0  0  0  0  0
    5.9416    3.4950    0.0000 H   0  0  0  0  0  0  0  0  0  0  0  0
    5.2450    3.8305    0.0000 H   0  0  0  0  0  0  0  0  0  0  0  0
    4.5210    3.8305    0.0000 H   0  0  0  0  0  0  0  0  0  0  0  0
    3.8244    3.4950    0.0000 H   0  0  0  0  0  0  0  0  0  0  0  0
    4.9976   -2.9738    0.0000 H   0  0  0  0  0  0  0  0  0  0  0  0
    5.3118   -3.7924    0.0000 H   0  0  0  0  0  0  0  0  0  0  0  0
    6.1304   -3.4782    0.0000 H   0  0  0  0  0  0  0  0  0  0  0  0
    6.3916    0.1463    0.0000 H   0  0  0  0  0  0  0  0  0  0  0  0
    3.3744    0.1463    0.0000 H   0  0  0  0  0  0  0  0  0  0  0  0
    7.1280    3.3725    0.0000 H   0  0  0  0  0  0  0  0  0  0  0  0
    2.6380    3.3726    0.0000 H   0  0  0  0  0  0  0  0  0  0  0  0
    1.7789    0.6250    0.0000 H   0  0  0  0  0  0  0  0  0  0  0  0
    7.9871    0.6250    0.0000 H   0  0  0  0  0  0  0  0  0  0  0  0
    1.4083    2.2490    0.0000 H   0  0  0  0  0  0  0  0  0  0  0  0
    8.3578    2.2489    0.0000 H   0  0  0  0  0  0  0  0  0  0  0  0
  1  2  1  0  0  0  0
  1  5  1  0  0  0  0
  1  7  1  0  0  0  0
  2  3  1  0  0  0  0
  2  8  1  0  0  0  0
  2 24  1  0  0  0  0
  3  4  1  0  0  0  0
  3  6  2  0  0  0  0
  4  5  1  0  0  0  0
  4 25  1  0  0  0  0
  4 26  1  0  0  0  0
  5 27  1  0  0  0  0
  5 28  1  0  0  0  0
  6  9  1  0  0  0  0
  6 10  1  0  0  0  0
  7 15  1  0  0  0  0
  7 29  1  0  0  0  0
  7 30  1  0  0  0  0
  8 31  1  0  0  0  0
  8 32  1  0  0  0  0
  8 33  1  0  0  0  0
  9 11  1  0  0  0  0
  9 16  2  0  0  0  0
 10 12  1  0  0  0  0
 10 17  2  0  0  0  0
 11 14  1  0  0  0  0
 11 19  2  0  0  0  0
 12 13  1  0  0  0  0
 12 18  2  0  0  0  0
 13 14  1  0  0  0  0
 13 34  1  0  0  0  0
 13 35  1  0  0  0  0
 14 36  1  0  0  0  0
 14 37  1  0  0  0  0
 15 38  1  0  0  0  0
 15 39  1  0  0  0  0
 15 40  1  0  0  0  0
 16 21  1  0  0  0  0
 16 42  1  0  0  0  0
 17 20  1  0  0  0  0
 17 41  1  0  0  0  0
 18 23  1  0  0  0  0
 18 43  1  0  0  0  0
 19 22  1  0  0  0  0
 19 44  1  0  0  0  0
 20 23  2  0  0  0  0
 20 46  1  0  0  0  0
 21 22  2  0  0  0  0
 21 45  1  0  0  0  0
 22 47  1  0  0  0  0
 23 48  1  0  0  0  0
M  END
> <PUBCHEM_COMPOUND_CID>
4854

> <PUBCHEM_COMPOUND_CANONICALIZED>
1

> <PUBCHEM_CACTVS_COMPLEXITY>
425

> <PUBCHEM_CACTVS_HBOND_ACCEPTOR>
1

> <PUBCHEM_CACTVS_HBOND_DONOR>
0

> <PUBCHEM_CACTVS_ROTATABLE_BOND>
1

> <PUBCHEM_CACTVS_SUBSKEYS>
AAADceB6AAAAAAAAAAAAAAAAAAAAAWAAAAAwYAAABgAAAAABQAAAHAAAAAAADCjBGAQyAIMAAACAAiBCAACCAAAgAAAIiAAIAIgIICKAkRCEIAAggACIiAcQgMAOgAAAAAAQAAAAAAAAACAAAAAAAAAAAA==

> <PUBCHEM_IUPAC_OPENEYE_NAME>
3-(5,6-dihydrodibenzo[1,2-a:1',2'-e][7]annulen-11-ylidene)-1-ethyl-2-methyl-pyrrolidine

> <PUBCHEM_IUPAC_CAS_NAME>
3-(5,6-dihydrodibenzo[1,2-a:1',2'-e][7]annulen-11-ylidene)-1-ethyl-2-methylpyrrolidine

> <PUBCHEM_IUPAC_NAME>
3-(5,6-dihydrodibenzo[1,2-a:1',2'-e][7]annulen-11-ylidene)-1-ethyl-2-methylpyrrolidine

> <PUBCHEM_IUPAC_SYSTEMATIC_NAME>
3-(5,6-dihydrodibenzo[1,2-a:1',2'-e][7]annulen-11-ylidene)-1-ethyl-2-methyl-pyrrolidine

> <PUBCHEM_IUPAC_TRADITIONAL_NAME>
3-(5,6-dihydrodibenzo[1,2-a:1',2'-e]cyclohepten-11-ylidene)-1-ethyl-2-methyl-pyrrolidine

> <PUBCHEM_IUPAC_INCHI>
InChI=1S/C22H25N/c1-3-23-15-14-19(16(23)2)22-20-10-6-4-8-17(20)12-13-18-9-5-7-11-21(18)22/h4-11,16H,3,12-15H2,1-2H3

> <PUBCHEM_IUPAC_INCHIKEY>
NKJQZSDCCLDOQH-UHFFFAOYSA-N

> <PUBCHEM_XLOGP3_AA>
4.4

> <PUBCHEM_EXACT_MASS>
303.1987

> <PUBCHEM_MOLECULAR_FORMULA>
C22H25N

> <PUBCHEM_MOLECULAR_WEIGHT>
303.4406

> <PUBCHEM_OPENEYE_CAN_SMILES>
CCN1CCC(=C2C3=CC=CC=C3CCC4=CC=CC=C42)C1C

> <PUBCHEM_OPENEYE_ISO_SMILES>
CCN1CCC(=C2C3=CC=CC=C3CCC4=CC=CC=C42)C1C

> <PUBCHEM_CACTVS_TPSA>
3.2

> <PUBCHEM_MONOISOTOPIC_WEIGHT>
303.1987

> <PUBCHEM_TOTAL_CHARGE>
0

> <PUBCHEM_HEAVY_ATOM_COUNT>
23

> <PUBCHEM_ATOM_DEF_STEREO_COUNT>
0

> <PUBCHEM_ATOM_UDEF_STEREO_COUNT>
1

> <PUBCHEM_BOND_DEF_STEREO_COUNT>
0

> <PUBCHEM_BOND_UDEF_STEREO_COUNT>
0

> <PUBCHEM_ISOTOPIC_ATOM_COUNT>
0

> <PUBCHEM_COMPONENT_COUNT>
1

> <PUBCHEM_CACTVS_TAUTO_COUNT>
1

> <PUBCHEM_COORDINATE_TYPE>
1
5
255

> <PUBCHEM_BONDANNOTATIONS>
10  12  8
10  17  8
11  19  8
12  18  8
16  21  8
17  20  8
18  23  8
19  22  8
2  8  3
20  23  8
21  22  8
9  11  8
9  16  8

$$$$

