115224
  -OEChem-07051213122D

 25 26  0     0  0  0  0  0  0999 V2000
    2.0000   -1.7515    0.0000 Cl  0  0  0  0  0  0  0  0  0  0  0  0
    7.9128   -0.5879    0.0000 S   0  0  0  0  0  0  0  0  0  0  0  0
    6.3301   -0.2515    0.0000 N   0  0  0  0  0  0  0  0  0  0  0  0
    7.4516    1.1334    0.0000 N   0  0  0  0  0  0  0  0  0  0  0  0
    3.7320   -1.7515    0.0000 N   0  0  0  0  0  0  0  0  0  0  0  0
    9.3537    1.7515    0.0000 N   0  0  0  0  0  0  0  0  0  0  0  0
    6.4347   -1.2460    0.0000 C   0  0  0  0  0  0  0  0  0  0  0  0
    5.4641    0.2485    0.0000 C   0  0  0  0  0  0  0  0  0  0  0  0
    7.4128   -1.4539    0.0000 C   0  0  0  0  0  0  0  0  0  0  0  0
    7.2437    0.1553    0.0000 C   0  0  0  0  0  0  0  0  0  0  0  0
    4.5981   -0.2515    0.0000 C   0  0  0  0  0  0  0  0  0  0  0  0
    3.7320    0.2485    0.0000 C   0  0  0  0  0  0  0  0  0  0  0  0
    4.5981   -1.2515    0.0000 C   0  0  0  0  0  0  0  0  0  0  0  0
    2.8660   -0.2515    0.0000 C   0  0  0  0  0  0  0  0  0  0  0  0
    2.8660   -1.2515    0.0000 C   0  0  0  0  0  0  0  0  0  0  0  0
    8.4026    1.4424    0.0000 C   0  0  0  0  0  0  0  0  0  0  0  0
    5.8147   -1.2460    0.0000 H   0  0  0  0  0  0  0  0  0  0  0  0
    6.3698   -1.8626    0.0000 H   0  0  0  0  0  0  0  0  0  0  0  0
    5.8626    0.7235    0.0000 H   0  0  0  0  0  0  0  0  0  0  0  0
    5.0656    0.7235    0.0000 H   0  0  0  0  0  0  0  0  0  0  0  0
    7.2212   -2.0436    0.0000 H   0  0  0  0  0  0  0  0  0  0  0  0
    7.9792   -1.7061    0.0000 H   0  0  0  0  0  0  0  0  0  0  0  0
    3.7320    0.8685    0.0000 H   0  0  0  0  0  0  0  0  0  0  0  0
    5.1350   -1.5615    0.0000 H   0  0  0  0  0  0  0  0  0  0  0  0
    2.3291    0.0585    0.0000 H   0  0  0  0  0  0  0  0  0  0  0  0
  1 15  1  0  0  0  0
  2  9  1  0  0  0  0
  2 10  1  0  0  0  0
  3  7  1  0  0  0  0
  3  8  1  0  0  0  0
  3 10  1  0  0  0  0
  4 10  2  0  0  0  0
  4 16  1  0  0  0  0
  5 13  1  0  0  0  0
  5 15  2  0  0  0  0
  6 16  3  0  0  0  0
  7  9  1  0  0  0  0
  7 17  1  0  0  0  0
  7 18  1  0  0  0  0
  8 11  1  0  0  0  0
  8 19  1  0  0  0  0
  8 20  1  0  0  0  0
  9 21  1  0  0  0  0
  9 22  1  0  0  0  0
 11 12  1  0  0  0  0
 11 13  2  0  0  0  0
 12 14  2  0  0  0  0
 12 23  1  0  0  0  0
 13 24  1  0  0  0  0
 14 15  1  0  0  0  0
 14 25  1  0  0  0  0
M  END
> <PUBCHEM_COMPOUND_CID>
115224

> <PUBCHEM_COMPOUND_CANONICALIZED>
1

> <PUBCHEM_CACTVS_COMPLEXITY>
324

> <PUBCHEM_CACTVS_HBOND_ACCEPTOR>
4

> <PUBCHEM_CACTVS_HBOND_DONOR>
0

> <PUBCHEM_CACTVS_ROTATABLE_BOND>
2

> <PUBCHEM_CACTVS_SUBSKEYS>
AAADccBzgABEAAAAAAAAAAAAAAAAAWAAAAAsAAAAAAAAAAABgAAAHAYAAAAADALFWiS9gJMIEAiwAjBnZACCkCFxBzAJ2CA4ZpgIIOLB25GEIAhggADIyAYQAAAMAAAAAAAAAAAAAAAAAAAAAAAAAAAAAA==

> <PUBCHEM_IUPAC_OPENEYE_NAME>
[3-[(6-chloro-3-pyridyl)methyl]thiazolidin-2-ylidene]cyanamide

> <PUBCHEM_IUPAC_CAS_NAME>
[3-[(6-chloro-3-pyridinyl)methyl]-2-thiazolidinylidene]cyanamide

> <PUBCHEM_IUPAC_NAME>
[3-[(6-chloropyridin-3-yl)methyl]-1,3-thiazolidin-2-ylidene]cyanamide

> <PUBCHEM_IUPAC_SYSTEMATIC_NAME>
[3-[(6-chloranylpyridin-3-yl)methyl]-1,3-thiazolidin-2-ylidene]cyanamide

> <PUBCHEM_IUPAC_TRADITIONAL_NAME>
[3-[(6-chloro-3-pyridyl)methyl]thiazolidin-2-ylidene]cyanamide

> <PUBCHEM_IUPAC_INCHI>
InChI=1S/C10H9ClN4S/c11-9-2-1-8(5-13-9)6-15-3-4-16-10(15)14-7-12/h1-2,5H,3-4,6H2

> <PUBCHEM_IUPAC_INCHIKEY>
HOKKPVIRMVDYPB-UHFFFAOYSA-N

> <PUBCHEM_XLOGP3_AA>
2.2

> <PUBCHEM_EXACT_MASS>
252.023645

> <PUBCHEM_MOLECULAR_FORMULA>
C10H9ClN4S

> <PUBCHEM_MOLECULAR_WEIGHT>
252.72326

> <PUBCHEM_OPENEYE_CAN_SMILES>
C1CSC(=NC#N)N1CC2=CN=C(C=C2)Cl

> <PUBCHEM_OPENEYE_ISO_SMILES>
C1CSC(=NC#N)N1CC2=CN=C(C=C2)Cl

> <PUBCHEM_CACTVS_TPSA>
77.6

> <PUBCHEM_MONOISOTOPIC_WEIGHT>
252.023645

> <PUBCHEM_TOTAL_CHARGE>
0

> <PUBCHEM_HEAVY_ATOM_COUNT>
16

> <PUBCHEM_ATOM_DEF_STEREO_COUNT>
0

> <PUBCHEM_ATOM_UDEF_STEREO_COUNT>
0

> <PUBCHEM_BOND_DEF_STEREO_COUNT>
0

> <PUBCHEM_BOND_UDEF_STEREO_COUNT>
0

> <PUBCHEM_ISOTOPIC_ATOM_COUNT>
0

> <PUBCHEM_COMPONENT_COUNT>
1

> <PUBCHEM_CACTVS_TAUTO_COUNT>
1

> <PUBCHEM_COORDINATE_TYPE>
1
5
255

> <PUBCHEM_BONDANNOTATIONS>
11  12  8
11  13  8
12  14  8
14  15  8
5  13  8
5  15  8

$$$$

