17396494
  -OEChem-06241222562D

 54 57  0     1  0  0  0  0  0999 V2000
    9.0146   -1.6012    0.0000 S   0  0  0  0  0  0  0  0  0  0  0  0
    8.0440    2.8933    0.0000 S   0  0  0  0  0  0  0  0  0  0  0  0
    9.5146   -2.4672    0.0000 O   0  0  0  0  0  0  0  0  0  0  0  0
    8.5146   -0.7352    0.0000 O   0  0  0  0  0  0  0  0  0  0  0  0
    8.1486   -0.1012    0.0000 O   0  0  0  0  0  0  0  0  0  0  0  0
    2.5878    1.8171    0.0000 O   0  0  0  0  0  0  0  0  0  0  0  0
    9.8806   -1.1012    0.0000 N   0  0  3  0  0  0  0  0  0  0  0  0
    9.0146    1.3988    0.0000 N   0  0  0  0  0  0  0  0  0  0  0  0
    7.2350    1.4921    0.0000 N   0  0  0  0  0  0  0  0  0  0  0  0
    9.8806   -0.1012    0.0000 C   0  0  3  0  0  0  0  0  0  0  0  0
   10.7466    0.3988    0.0000 C   0  0  0  0  0  0  0  0  0  0  0  0
   10.7466   -1.6012    0.0000 C   0  0  0  0  0  0  0  0  0  0  0  0
   11.6127   -0.1012    0.0000 C   0  0  0  0  0  0  0  0  0  0  0  0
   11.6127   -1.1012    0.0000 C   0  0  0  0  0  0  0  0  0  0  0  0
    9.0146    0.3988    0.0000 C   0  0  0  0  0  0  0  0  0  0  0  0
    8.1486   -2.1012    0.0000 C   0  0  0  0  0  0  0  0  0  0  0  0
   12.5066    0.4334    0.0000 C   0  0  0  0  0  0  0  0  0  0  0  0
   12.5066   -1.6359    0.0000 C   0  0  0  0  0  0  0  0  0  0  0  0
   13.4127   -0.0804    0.0000 C   0  0  0  0  0  0  0  0  0  0  0  0
   13.4127   -1.1220    0.0000 C   0  0  0  0  0  0  0  0  0  0  0  0
    8.1486   -3.1012    0.0000 C   0  0  0  0  0  0  0  0  0  0  0  0
    8.1486    1.8988    0.0000 C   0  0  0  0  0  0  0  0  0  0  0  0
    6.5659    2.2352    0.0000 C   0  0  0  0  0  0  0  0  0  0  0  0
    7.0659    3.1012    0.0000 C   0  0  0  0  0  0  0  0  0  0  0  0
    5.5714    2.1307    0.0000 C   0  0  0  0  0  0  0  0  0  0  0  0
    4.9836    2.9397    0.0000 C   0  0  0  0  0  0  0  0  0  0  0  0
    5.1646    1.2171    0.0000 C   0  0  0  0  0  0  0  0  0  0  0  0
    3.9890    2.8352    0.0000 C   0  0  0  0  0  0  0  0  0  0  0  0
    4.1701    1.1126    0.0000 C   0  0  0  0  0  0  0  0  0  0  0  0
    3.5823    1.9216    0.0000 C   0  0  0  0  0  0  0  0  0  0  0  0
    2.0000    2.6261    0.0000 C   0  0  0  0  0  0  0  0  0  0  0  0
    9.3437   -0.4112    0.0000 H   0  0  0  0  0  0  0  0  0  0  0  0
   11.1452    0.8737    0.0000 H   0  0  0  0  0  0  0  0  0  0  0  0
   10.3481    0.8737    0.0000 H   0  0  0  0  0  0  0  0  0  0  0  0
   10.3481   -2.0762    0.0000 H   0  0  0  0  0  0  0  0  0  0  0  0
   11.1452   -2.0762    0.0000 H   0  0  0  0  0  0  0  0  0  0  0  0
    7.9365   -1.5186    0.0000 H   0  0  0  0  0  0  0  0  0  0  0  0
    7.5380   -2.2089    0.0000 H   0  0  0  0  0  0  0  0  0  0  0  0
   12.4994    1.0534    0.0000 H   0  0  0  0  0  0  0  0  0  0  0  0
   12.4994   -2.2558    0.0000 H   0  0  0  0  0  0  0  0  0  0  0  0
   13.9484    0.2317    0.0000 H   0  0  0  0  0  0  0  0  0  0  0  0
   13.9484   -1.4341    0.0000 H   0  0  0  0  0  0  0  0  0  0  0  0
    9.5515    1.7088    0.0000 H   0  0  0  0  0  0  0  0  0  0  0  0
    7.5286   -3.1012    0.0000 H   0  0  0  0  0  0  0  0  0  0  0  0
    8.1486   -3.7212    0.0000 H   0  0  0  0  0  0  0  0  0  0  0  0
    8.7686   -3.1012    0.0000 H   0  0  0  0  0  0  0  0  0  0  0  0
    6.8137    3.6676    0.0000 H   0  0  0  0  0  0  0  0  0  0  0  0
    5.2357    3.5061    0.0000 H   0  0  0  0  0  0  0  0  0  0  0  0
    5.5290    0.7155    0.0000 H   0  0  0  0  0  0  0  0  0  0  0  0
    3.6246    3.3367    0.0000 H   0  0  0  0  0  0  0  0  0  0  0  0
    3.9179    0.5462    0.0000 H   0  0  0  0  0  0  0  0  0  0  0  0
    2.5016    2.9905    0.0000 H   0  0  0  0  0  0  0  0  0  0  0  0
    1.6356    3.1277    0.0000 H   0  0  0  0  0  0  0  0  0  0  0  0
    1.4984    2.2617    0.0000 H   0  0  0  0  0  0  0  0  0  0  0  0
  1  3  2  0  0  0  0
  1  4  2  0  0  0  0
  1  7  1  0  0  0  0
  1 16  1  0  0  0  0
  2 22  1  0  0  0  0
  2 24  1  0  0  0  0
  5 15  2  0  0  0  0
  6 30  1  0  0  0  0
  6 31  1  0  0  0  0
  7 10  1  0  0  0  0
  7 12  1  0  0  0  0
  8 15  1  0  0  0  0
  8 22  1  0  0  0  0
  8 43  1  0  0  0  0
  9 22  2  0  0  0  0
  9 23  1  0  0  0  0
 10 11  1  0  0  0  0
 10 15  1  0  0  0  0
 10 32  1  0  0  0  0
 11 13  1  0  0  0  0
 11 33  1  0  0  0  0
 11 34  1  0  0  0  0
 12 14  1  0  0  0  0
 12 35  1  0  0  0  0
 12 36  1  0  0  0  0
 13 14  1  0  0  0  0
 13 17  2  0  0  0  0
 14 18  2  0  0  0  0
 16 21  1  0  0  0  0
 16 37  1  0  0  0  0
 16 38  1  0  0  0  0
 17 19  1  0  0  0  0
 17 39  1  0  0  0  0
 18 20  1  0  0  0  0
 18 40  1  0  0  0  0
 19 20  2  0  0  0  0
 19 41  1  0  0  0  0
 20 42  1  0  0  0  0
 21 44  1  0  0  0  0
 21 45  1  0  0  0  0
 21 46  1  0  0  0  0
 23 24  2  0  0  0  0
 23 25  1  0  0  0  0
 24 47  1  0  0  0  0
 25 26  2  0  0  0  0
 25 27  1  0  0  0  0
 26 28  1  0  0  0  0
 26 48  1  0  0  0  0
 27 29  2  0  0  0  0
 27 49  1  0  0  0  0
 28 30  2  0  0  0  0
 28 50  1  0  0  0  0
 29 30  1  0  0  0  0
 29 51  1  0  0  0  0
 31 52  1  0  0  0  0
 31 53  1  0  0  0  0
 31 54  1  0  0  0  0
M  END
> <PUBCHEM_COMPOUND_CID>
17396494

> <PUBCHEM_COMPOUND_CANONICALIZED>
1

> <PUBCHEM_CACTVS_COMPLEXITY>
721

> <PUBCHEM_CACTVS_HBOND_ACCEPTOR>
7

> <PUBCHEM_CACTVS_HBOND_DONOR>
1

> <PUBCHEM_CACTVS_ROTATABLE_BOND>
6

> <PUBCHEM_CACTVS_SUBSKEYS>
AAADceB7OABgAAAAAAAAAAAAAAAAAWAAAAA8YIAAAAAAAACx0AAAHgQQQAAADCzF3gazl5LIFAqsAyVydHDC+KlhKjkJiDW+LJiMZrKkuTuUMChs0ROIqCeY2IOOoAAAAAAQAABAAAAAACAAAAAAAAAAAA==

> <PUBCHEM_IUPAC_OPENEYE_NAME>
2-ethylsulfonyl-N-[4-(4-methoxyphenyl)thiazol-2-yl]-3,4-dihydro-1H-isoquinoline-3-carboxamide

> <PUBCHEM_IUPAC_CAS_NAME>
2-ethylsulfonyl-N-[4-(4-methoxyphenyl)-2-thiazolyl]-3,4-dihydro-1H-isoquinoline-3-carboxamide

> <PUBCHEM_IUPAC_NAME>
2-ethylsulfonyl-N-[4-(4-methoxyphenyl)-1,3-thiazol-2-yl]-3,4-dihydro-1H-isoquinoline-3-carboxamide

> <PUBCHEM_IUPAC_SYSTEMATIC_NAME>
2-ethylsulfonyl-N-[4-(4-methoxyphenyl)-1,3-thiazol-2-yl]-3,4-dihydro-1H-isoquinoline-3-carboxamide

> <PUBCHEM_IUPAC_TRADITIONAL_NAME>
2-esyl-N-[4-(4-methoxyphenyl)thiazol-2-yl]-3,4-dihydro-1H-isoquinoline-3-carboxamide

> <PUBCHEM_IUPAC_INCHI>
InChI=1S/C22H23N3O4S2/c1-3-31(27,28)25-13-17-7-5-4-6-16(17)12-20(25)21(26)24-22-23-19(14-30-22)15-8-10-18(29-2)11-9-15/h4-11,14,20H,3,12-13H2,1-2H3,(H,23,24,26)

> <PUBCHEM_IUPAC_INCHIKEY>
WREWHLDCJZYPGL-UHFFFAOYSA-N

> <PUBCHEM_XLOGP3_AA>
3.3

> <PUBCHEM_EXACT_MASS>
457.112998

> <PUBCHEM_MOLECULAR_FORMULA>
C22H23N3O4S2

> <PUBCHEM_MOLECULAR_WEIGHT>
457.56572

> <PUBCHEM_OPENEYE_CAN_SMILES>
CCS(=O)(=O)N1CC2=CC=CC=C2CC1C(=O)NC3=NC(=CS3)C4=CC=C(C=C4)OC

> <PUBCHEM_OPENEYE_ISO_SMILES>
CCS(=O)(=O)N1CC2=CC=CC=C2CC1C(=O)NC3=NC(=CS3)C4=CC=C(C=C4)OC

> <PUBCHEM_CACTVS_TPSA>
125

> <PUBCHEM_MONOISOTOPIC_WEIGHT>
457.112998

> <PUBCHEM_TOTAL_CHARGE>
0

> <PUBCHEM_HEAVY_ATOM_COUNT>
31

> <PUBCHEM_ATOM_DEF_STEREO_COUNT>
0

> <PUBCHEM_ATOM_UDEF_STEREO_COUNT>
1

> <PUBCHEM_BOND_DEF_STEREO_COUNT>
0

> <PUBCHEM_BOND_UDEF_STEREO_COUNT>
0

> <PUBCHEM_ISOTOPIC_ATOM_COUNT>
0

> <PUBCHEM_COMPONENT_COUNT>
1

> <PUBCHEM_CACTVS_TAUTO_COUNT>
5

> <PUBCHEM_COORDINATE_TYPE>
1
5
255

> <PUBCHEM_BONDANNOTATIONS>
10  15  3
13  14  8
13  17  8
14  18  8
17  19  8
18  20  8
19  20  8
2  22  8
2  24  8
23  24  8
25  26  8
25  27  8
26  28  8
27  29  8
28  30  8
29  30  8
9  22  8
9  23  8

$$$$

