115208
  -OEChem-07051213023D

 48 51  0     1  0  0  0  0  0999 V2000
    6.0315    1.8019    1.0281 S   0  0  0  0  0  0  0  0  0  0  0  0
   -3.9767   -0.9290    2.2544 F   0  0  0  0  0  0  0  0  0  0  0  0
    3.9515   -1.5398   -1.2077 O   0  0  0  0  0  0  0  0  0  0  0  0
    0.1580   -1.3674   -1.2574 N   0  0  1  0  0  0  0  0  0  0  0  0
   -1.7346   -1.3887    0.9950 N   0  0  0  0  0  0  0  0  0  0  0  0
    2.4571   -1.5419    0.5491 N   0  0  0  0  0  0  0  0  0  0  0  0
    0.2551   -2.3067   -0.1240 C   0  0  2  0  0  0  0  0  0  0  0  0
   -0.3378   -1.7687    1.1831 C   0  0  0  0  0  0  0  0  0  0  0  0
    1.7195   -2.6943    0.1100 C   0  0  0  0  0  0  0  0  0  0  0  0
    0.0833    0.0050   -1.0438 C   0  0  0  0  0  0  0  0  0  0  0  0
   -0.9252    0.5728   -0.2369 C   0  0  0  0  0  0  0  0  0  0  0  0
   -1.9849   -0.2939    0.3560 C   0  0  0  0  0  0  0  0  0  0  0  0
    0.5118   -1.8514   -2.5868 C   0  0  0  0  0  0  0  0  0  0  0  0
    0.9986    0.8929   -1.6392 C   0  0  0  0  0  0  0  0  0  0  0  0
   -0.9849    1.9548   -0.0006 C   0  0  0  0  0  0  0  0  0  0  0  0
   -3.4132    0.0996    0.1883 C   0  0  0  0  0  0  0  0  0  0  0  0
    0.9355    2.2713   -1.4141 C   0  0  0  0  0  0  0  0  0  0  0  0
   -0.0512    2.8005   -0.5902 C   0  0  0  0  0  0  0  0  0  0  0  0
    3.5463   -1.0370   -0.1603 C   0  0  0  0  0  0  0  0  0  0  0  0
   -4.3448   -0.2448    1.1618 C   0  0  0  0  0  0  0  0  0  0  0  0
   -3.8010    0.8097   -0.9429 C   0  0  0  0  0  0  0  0  0  0  0  0
    4.2149    0.1273    0.4374 C   0  0  0  0  0  0  0  0  0  0  0  0
   -5.6802    0.1256    1.0021 C   0  0  0  0  0  0  0  0  0  0  0  0
   -5.1364    1.1799   -1.1025 C   0  0  0  0  0  0  0  0  0  0  0  0
   -6.0759    0.8378   -0.1301 C   0  0  0  0  0  0  0  0  0  0  0  0
    3.5854    1.0594    1.2830 C   0  0  0  0  0  0  0  0  0  0  0  0
    5.5307    0.3873    0.2033 C   0  0  0  0  0  0  0  0  0  0  0  0
    4.4677    2.0380    1.6847 C   0  0  0  0  0  0  0  0  0  0  0  0
   -0.2998   -3.2136   -0.3984 H   0  0  0  0  0  0  0  0  0  0  0  0
   -0.3089   -2.5606    1.9417 H   0  0  0  0  0  0  0  0  0  0  0  0
    0.2160   -0.9299    1.6201 H   0  0  0  0  0  0  0  0  0  0  0  0
    2.1692   -3.1298   -0.7875 H   0  0  0  0  0  0  0  0  0  0  0  0
    1.7914   -3.4428    0.9070 H   0  0  0  0  0  0  0  0  0  0  0  0
    1.5853   -1.7543   -2.7770 H   0  0  0  0  0  0  0  0  0  0  0  0
   -0.0361   -1.3050   -3.3630 H   0  0  0  0  0  0  0  0  0  0  0  0
    0.2473   -2.9091   -2.6949 H   0  0  0  0  0  0  0  0  0  0  0  0
    1.7963    0.5211   -2.2783 H   0  0  0  0  0  0  0  0  0  0  0  0
    2.2460   -1.1598    1.4649 H   0  0  0  0  0  0  0  0  0  0  0  0
   -1.7498    2.3839    0.6412 H   0  0  0  0  0  0  0  0  0  0  0  0
    1.6647    2.9285   -1.8790 H   0  0  0  0  0  0  0  0  0  0  0  0
   -0.0949    3.8705   -0.4103 H   0  0  0  0  0  0  0  0  0  0  0  0
   -3.1020    1.0678   -1.7331 H   0  0  0  0  0  0  0  0  0  0  0  0
   -6.4117   -0.1411    1.7592 H   0  0  0  0  0  0  0  0  0  0  0  0
   -5.4461    1.7287   -1.9870 H   0  0  0  0  0  0  0  0  0  0  0  0
   -7.1159    1.1246   -0.2552 H   0  0  0  0  0  0  0  0  0  0  0  0
    2.5478    1.0506    1.5915 H   0  0  0  0  0  0  0  0  0  0  0  0
    6.2366   -0.1654   -0.4013 H   0  0  0  0  0  0  0  0  0  0  0  0
    4.2680    2.8818    2.3301 H   0  0  0  0  0  0  0  0  0  0  0  0
  1 27  1  0  0  0  0
  1 28  1  0  0  0  0
  2 20  1  0  0  0  0
  3 19  2  0  0  0  0
  4  7  1  0  0  0  0
  4 10  1  0  0  0  0
  4 13  1  0  0  0  0
  5  8  1  0  0  0  0
  5 12  2  0  0  0  0
  6  9  1  0  0  0  0
  6 19  1  0  0  0  0
  6 38  1  0  0  0  0
  7  8  1  0  0  0  0
  7  9  1  0  0  0  0
  7 29  1  0  0  0  0
  8 30  1  0  0  0  0
  8 31  1  0  0  0  0
  9 32  1  0  0  0  0
  9 33  1  0  0  0  0
 10 11  1  0  0  0  0
 10 14  2  0  0  0  0
 11 12  1  0  0  0  0
 11 15  2  0  0  0  0
 12 16  1  0  0  0  0
 13 34  1  0  0  0  0
 13 35  1  0  0  0  0
 13 36  1  0  0  0  0
 14 17  1  0  0  0  0
 14 37  1  0  0  0  0
 15 18  1  0  0  0  0
 15 39  1  0  0  0  0
 16 20  1  0  0  0  0
 16 21  2  0  0  0  0
 17 18  2  0  0  0  0
 17 40  1  0  0  0  0
 18 41  1  0  0  0  0
 19 22  1  0  0  0  0
 20 23  2  0  0  0  0
 21 24  1  0  0  0  0
 21 42  1  0  0  0  0
 22 26  1  0  0  0  0
 22 27  2  0  0  0  0
 23 25  1  0  0  0  0
 23 43  1  0  0  0  0
 24 25  2  0  0  0  0
 24 44  1  0  0  0  0
 25 45  1  0  0  0  0
 26 28  2  0  0  0  0
 26 46  1  0  0  0  0
 27 47  1  0  0  0  0
 28 48  1  0  0  0  0
M  END
> <PUBCHEM_COMPOUND_CID>
115208

> <PUBCHEM_CONFORMER_RMSD>
0.8

> <PUBCHEM_CONFORMER_DIVERSEORDER>
1
9
83
91
88
94
96
59
47
56
82
22
69
19
40
81
77
67
43
45
78
80
28
31
62
97
90
68
7
10
74
41
86
61
46
87
35
93
55
18
66
16
84
48
23
15
6
65
27
21
76
89
24
4
70
52
58
17
25
13
92
2
26
42
71
3
14
57
20
37
53
49
85
95
64
44
60
73
30
34
75
12
38
36
33
50
72
11
8
39
63
79
51
32
29
54
5

> <PUBCHEM_MMFF94_PARTIAL_CHARGES>
40
1 -0.08
10 0.1
11 0.09
12 0.28
13 0.37
14 -0.15
15 -0.15
16 0.09
17 -0.15
18 -0.15
19 0.72
2 -0.19
20 0.19
21 -0.15
22 -0.09
23 -0.15
24 -0.15
25 -0.15
26 -0.15
27 -0.11
28 -0.11
3 -0.57
37 0.15
38 0.37
39 0.15
4 -0.84
40 0.15
41 0.15
42 0.15
43 0.15
44 0.15
45 0.15
46 0.15
47 0.15
48 0.15
5 -0.7
6 -0.73
7 0.37
8 0.25
9 0.3

> <PUBCHEM_EFFECTIVE_ROTOR_COUNT>
5.6

> <PUBCHEM_PHARMACOPHORE_FEATURES>
8
1 3 acceptor
1 4 cation
1 5 acceptor
1 6 donor
5 1 22 26 27 28 rings
6 10 11 14 15 17 18 rings
6 16 20 21 23 24 25 rings
7 4 5 7 8 10 11 12 rings

> <PUBCHEM_HEAVY_ATOM_COUNT>
28

> <PUBCHEM_ATOM_DEF_STEREO_COUNT>
0

> <PUBCHEM_ATOM_UDEF_STEREO_COUNT>
1

> <PUBCHEM_BOND_DEF_STEREO_COUNT>
0

> <PUBCHEM_BOND_UDEF_STEREO_COUNT>
0

> <PUBCHEM_ISOTOPIC_ATOM_COUNT>
0

> <PUBCHEM_COMPONENT_COUNT>
1

> <PUBCHEM_CACTVS_TAUTO_COUNT>
2

> <PUBCHEM_CONFORMER_ID>
0001C20800000001

> <PUBCHEM_MMFF94_ENERGY>
97.4237

> <PUBCHEM_FEATURE_SELFOVERLAP>
40.608

> <PUBCHEM_SHAPE_FINGERPRINT>
10006869 2 18269008637871356594
10165383 225 18260831476023692544
10906281 52 18269817835453866317
11112241 14 18043265555935957497
11112662 9 17385444310779161932
11578080 2 18053672648769099757
11646440 116 18342165683666436297
11796584 16 16200138898778832979
11961588 58 14635161062557015034
12011746 2 18341325682457342190
12035758 1 18060413612871948849
12422481 6 18059582351689583084
12596602 18 17676488341834799083
12633257 1 17489027059037489858
12969540 114 18338536195244843774
13140716 1 18127684933429463145
13402501 40 18411705383233981760
14142880 1 17827663369502852158
14170010 4 18343864438016469189
14840074 17 18259708895398790581
15840311 113 17823402959624752593
17492 54 5978115660557034376
1813 80 14405187295710458406
18785283 64 17845362263630235077
20567600 247 12823007595698218025
20626108 58 16271913883736828347
21033648 29 18201999940998511291
21304253 335 18338230565783633741
23227448 37 18116159870328377386
23559900 14 17845084254634284806
2838139 119 17022900125686775872
345986 75 12966864432779634052
34797466 226 17748825241690447767
350125 39 18270969072000392506
392239 28 18272933868517917602
394222 165 15983098550562299046
4093350 32 17894907481922659645
445580 13 18260832630700150713
5104073 3 18057042621753103161
56638632 10 18116727222149381177
6004065 56 18338244756719738949
8509985 295 17703784821431616413

> <PUBCHEM_SHAPE_MULTIPOLES>
551.99
12.42
2.73
1.77
2.06
0.27
-0.32
-5.53
4.84
-2.05
-0.38
0.19
0.24
1.82

> <PUBCHEM_SHAPE_SELFOVERLAP>
1198.094

> <PUBCHEM_SHAPE_VOLUME>
304.4

> <PUBCHEM_COORDINATE_TYPE>
2
5
10

$$$$

