20055178
  -OEChem-07051213082D

 98 97  0     0  0  0  0  0  0999 V2000
    2.5369   -6.5000    0.0000 O   0  0  0  0  0  0  0  0  0  0  0  0
   14.6613   -7.5000    0.0000 O   0  0  0  0  0  0  0  0  0  0  0  0
    3.4030   -6.0000    0.0000 C   0  0  0  0  0  0  0  0  0  0  0  0
    4.2690   -5.5000    0.0000 C   0  0  0  0  0  0  0  0  0  0  0  0
    5.1350   -6.0000    0.0000 C   0  0  0  0  0  0  0  0  0  0  0  0
    6.0010   -5.5000    0.0000 C   0  0  0  0  0  0  0  0  0  0  0  0
    2.9030   -5.1340    0.0000 C   0  0  0  0  0  0  0  0  0  0  0  0
    3.9030   -6.8660    0.0000 C   0  0  0  0  0  0  0  0  0  0  0  0
    6.8671   -6.0000    0.0000 C   0  0  0  0  0  0  0  0  0  0  0  0
    6.8671   -7.0000    0.0000 C   0  0  0  0  0  0  0  0  0  0  0  0
    7.7331   -5.5000    0.0000 C   0  0  0  0  0  0  0  0  0  0  0  0
    8.5991   -6.0000    0.0000 C   0  0  0  0  0  0  0  0  0  0  0  0
    9.4651   -5.5000    0.0000 C   0  0  0  0  0  0  0  0  0  0  0  0
   10.3312   -6.0000    0.0000 C   0  0  0  0  0  0  0  0  0  0  0  0
   19.8574    4.5000    0.0000 C   0  0  0  0  0  0  0  0  0  0  0  0
   20.7235    5.0000    0.0000 C   0  0  0  0  0  0  0  0  0  0  0  0
   19.8574    3.5000    0.0000 C   0  0  0  0  0  0  0  0  0  0  0  0
   10.3312   -7.0000    0.0000 C   0  0  0  0  0  0  0  0  0  0  0  0
   20.7235    6.0000    0.0000 C   0  0  0  0  0  0  0  0  0  0  0  0
   11.1972   -5.5000    0.0000 C   0  0  0  0  0  0  0  0  0  0  0  0
   21.5895    6.5000    0.0000 C   0  0  0  0  0  0  0  0  0  0  0  0
   20.7235    3.0000    0.0000 C   0  0  0  0  0  0  0  0  0  0  0  0
   18.9914    3.0000    0.0000 C   0  0  0  0  0  0  0  0  0  0  0  0
   21.5895    7.5000    0.0000 C   0  0  0  0  0  0  0  0  0  0  0  0
   22.4555    6.0000    0.0000 C   0  0  0  0  0  0  0  0  0  0  0  0
   12.0632   -6.0000    0.0000 C   0  0  0  0  0  0  0  0  0  0  0  0
   18.9914    2.0000    0.0000 C   0  0  0  0  0  0  0  0  0  0  0  0
   18.1254    1.5000    0.0000 C   0  0  0  0  0  0  0  0  0  0  0  0
   12.9292   -5.5000    0.0000 C   0  0  0  0  0  0  0  0  0  0  0  0
   18.1254    0.5000    0.0000 C   0  0  0  0  0  0  0  0  0  0  0  0
   18.9914    0.0000    0.0000 C   0  0  0  0  0  0  0  0  0  0  0  0
   13.7953   -6.0000    0.0000 C   0  0  0  0  0  0  0  0  0  0  0  0
   17.2594    0.0000    0.0000 C   0  0  0  0  0  0  0  0  0  0  0  0
   17.2594   -1.0000    0.0000 C   0  0  0  0  0  0  0  0  0  0  0  0
   14.6613   -5.5000    0.0000 C   0  0  0  0  0  0  0  0  0  0  0  0
   16.3933   -1.5000    0.0000 C   0  0  0  0  0  0  0  0  0  0  0  0
   16.3933   -2.5000    0.0000 C   0  0  0  0  0  0  0  0  0  0  0  0
   13.7953   -7.0000    0.0000 C   0  0  0  0  0  0  0  0  0  0  0  0
   14.6613   -4.5000    0.0000 C   0  0  0  0  0  0  0  0  0  0  0  0
   15.5273   -3.0000    0.0000 C   0  0  0  0  0  0  0  0  0  0  0  0
   15.5273   -4.0000    0.0000 C   0  0  0  0  0  0  0  0  0  0  0  0
   17.2594   -3.0000    0.0000 C   0  0  0  0  0  0  0  0  0  0  0  0
    4.6675   -5.0250    0.0000 H   0  0  0  0  0  0  0  0  0  0  0  0
    3.8705   -5.0250    0.0000 H   0  0  0  0  0  0  0  0  0  0  0  0
    4.7365   -6.4750    0.0000 H   0  0  0  0  0  0  0  0  0  0  0  0
    5.5335   -6.4750    0.0000 H   0  0  0  0  0  0  0  0  0  0  0  0
    6.3996   -5.0250    0.0000 H   0  0  0  0  0  0  0  0  0  0  0  0
    5.6025   -5.0250    0.0000 H   0  0  0  0  0  0  0  0  0  0  0  0
    3.4399   -4.8240    0.0000 H   0  0  0  0  0  0  0  0  0  0  0  0
    2.5930   -4.5970    0.0000 H   0  0  0  0  0  0  0  0  0  0  0  0
    2.3660   -5.4440    0.0000 H   0  0  0  0  0  0  0  0  0  0  0  0
    3.3660   -7.1760    0.0000 H   0  0  0  0  0  0  0  0  0  0  0  0
    4.2130   -7.4030    0.0000 H   0  0  0  0  0  0  0  0  0  0  0  0
    4.4399   -6.5560    0.0000 H   0  0  0  0  0  0  0  0  0  0  0  0
    2.0000   -6.1900    0.0000 H   0  0  0  0  0  0  0  0  0  0  0  0
    6.2471   -7.0000    0.0000 H   0  0  0  0  0  0  0  0  0  0  0  0
    6.8671   -7.6200    0.0000 H   0  0  0  0  0  0  0  0  0  0  0  0
    7.4871   -7.0000    0.0000 H   0  0  0  0  0  0  0  0  0  0  0  0
    7.7331   -4.8800    0.0000 H   0  0  0  0  0  0  0  0  0  0  0  0
    8.5991   -6.6200    0.0000 H   0  0  0  0  0  0  0  0  0  0  0  0
    9.4651   -4.8800    0.0000 H   0  0  0  0  0  0  0  0  0  0  0  0
   19.6454    5.0826    0.0000 H   0  0  0  0  0  0  0  0  0  0  0  0
   19.2469    4.3923    0.0000 H   0  0  0  0  0  0  0  0  0  0  0  0
   20.9355    4.4174    0.0000 H   0  0  0  0  0  0  0  0  0  0  0  0
   21.3340    5.1077    0.0000 H   0  0  0  0  0  0  0  0  0  0  0  0
    9.7112   -7.0000    0.0000 H   0  0  0  0  0  0  0  0  0  0  0  0
   10.3312   -7.6200    0.0000 H   0  0  0  0  0  0  0  0  0  0  0  0
   10.9512   -7.0000    0.0000 H   0  0  0  0  0  0  0  0  0  0  0  0
   20.1865    6.3100    0.0000 H   0  0  0  0  0  0  0  0  0  0  0  0
   11.1972   -4.8800    0.0000 H   0  0  0  0  0  0  0  0  0  0  0  0
   20.4135    2.4631    0.0000 H   0  0  0  0  0  0  0  0  0  0  0  0
   21.2604    2.6900    0.0000 H   0  0  0  0  0  0  0  0  0  0  0  0
   21.0335    3.5369    0.0000 H   0  0  0  0  0  0  0  0  0  0  0  0
   18.4545    3.3100    0.0000 H   0  0  0  0  0  0  0  0  0  0  0  0
   22.1455    5.4631    0.0000 H   0  0  0  0  0  0  0  0  0  0  0  0
   22.9925    5.6900    0.0000 H   0  0  0  0  0  0  0  0  0  0  0  0
   22.7655    6.5369    0.0000 H   0  0  0  0  0  0  0  0  0  0  0  0
   22.2095    7.5000    0.0000 H   0  0  0  0  0  0  0  0  0  0  0  0
   21.5895    8.1200    0.0000 H   0  0  0  0  0  0  0  0  0  0  0  0
   20.9695    7.5000    0.0000 H   0  0  0  0  0  0  0  0  0  0  0  0
   12.0632   -6.6200    0.0000 H   0  0  0  0  0  0  0  0  0  0  0  0
   19.5284    1.6900    0.0000 H   0  0  0  0  0  0  0  0  0  0  0  0
   17.5885    1.8100    0.0000 H   0  0  0  0  0  0  0  0  0  0  0  0
   12.9292   -4.8800    0.0000 H   0  0  0  0  0  0  0  0  0  0  0  0
   18.6814   -0.5369    0.0000 H   0  0  0  0  0  0  0  0  0  0  0  0
   19.5284   -0.3100    0.0000 H   0  0  0  0  0  0  0  0  0  0  0  0
   19.3014    0.5369    0.0000 H   0  0  0  0  0  0  0  0  0  0  0  0
   16.7224    0.3100    0.0000 H   0  0  0  0  0  0  0  0  0  0  0  0
   17.7963   -1.3100    0.0000 H   0  0  0  0  0  0  0  0  0  0  0  0
   15.1982   -5.8100    0.0000 H   0  0  0  0  0  0  0  0  0  0  0  0
   15.8564   -1.1900    0.0000 H   0  0  0  0  0  0  0  0  0  0  0  0
   13.2583   -7.3100    0.0000 H   0  0  0  0  0  0  0  0  0  0  0  0
   14.1244   -4.1900    0.0000 H   0  0  0  0  0  0  0  0  0  0  0  0
   14.9904   -2.6900    0.0000 H   0  0  0  0  0  0  0  0  0  0  0  0
   16.0643   -4.3100    0.0000 H   0  0  0  0  0  0  0  0  0  0  0  0
   16.9494   -3.5369    0.0000 H   0  0  0  0  0  0  0  0  0  0  0  0
   17.7963   -3.3100    0.0000 H   0  0  0  0  0  0  0  0  0  0  0  0
   17.5694   -2.4631    0.0000 H   0  0  0  0  0  0  0  0  0  0  0  0
  1  3  1  0  0  0  0
  1 55  1  0  0  0  0
  2 38  2  0  0  0  0
  3  4  1  0  0  0  0
  3  7  1  0  0  0  0
  3  8  1  0  0  0  0
  4  5  1  0  0  0  0
  4 43  1  0  0  0  0
  4 44  1  0  0  0  0
  5  6  1  0  0  0  0
  5 45  1  0  0  0  0
  5 46  1  0  0  0  0
  6  9  1  0  0  0  0
  6 47  1  0  0  0  0
  6 48  1  0  0  0  0
  7 49  1  0  0  0  0
  7 50  1  0  0  0  0
  7 51  1  0  0  0  0
  8 52  1  0  0  0  0
  8 53  1  0  0  0  0
  8 54  1  0  0  0  0
  9 10  1  0  0  0  0
  9 11  2  0  0  0  0
 10 56  1  0  0  0  0
 10 57  1  0  0  0  0
 10 58  1  0  0  0  0
 11 12  1  0  0  0  0
 11 59  1  0  0  0  0
 12 13  2  0  0  0  0
 12 60  1  0  0  0  0
 13 14  1  0  0  0  0
 13 61  1  0  0  0  0
 14 18  1  0  0  0  0
 14 20  2  0  0  0  0
 15 16  1  0  0  0  0
 15 17  1  0  0  0  0
 15 62  1  0  0  0  0
 15 63  1  0  0  0  0
 16 19  1  0  0  0  0
 16 64  1  0  0  0  0
 16 65  1  0  0  0  0
 17 22  1  0  0  0  0
 17 23  2  0  0  0  0
 18 66  1  0  0  0  0
 18 67  1  0  0  0  0
 18 68  1  0  0  0  0
 19 21  2  0  0  0  0
 19 69  1  0  0  0  0
 20 26  1  0  0  0  0
 20 70  1  0  0  0  0
 21 24  1  0  0  0  0
 21 25  1  0  0  0  0
 22 71  1  0  0  0  0
 22 72  1  0  0  0  0
 22 73  1  0  0  0  0
 23 27  1  0  0  0  0
 23 74  1  0  0  0  0
 24 78  1  0  0  0  0
 24 79  1  0  0  0  0
 24 80  1  0  0  0  0
 25 75  1  0  0  0  0
 25 76  1  0  0  0  0
 25 77  1  0  0  0  0
 26 29  2  0  0  0  0
 26 81  1  0  0  0  0
 27 28  2  0  0  0  0
 27 82  1  0  0  0  0
 28 30  1  0  0  0  0
 28 83  1  0  0  0  0
 29 32  1  0  0  0  0
 29 84  1  0  0  0  0
 30 31  1  0  0  0  0
 30 33  2  0  0  0  0
 31 85  1  0  0  0  0
 31 86  1  0  0  0  0
 31 87  1  0  0  0  0
 32 35  2  0  0  0  0
 32 38  1  0  0  0  0
 33 34  1  0  0  0  0
 33 88  1  0  0  0  0
 34 36  2  0  0  0  0
 34 89  1  0  0  0  0
 35 39  1  0  0  0  0
 35 90  1  0  0  0  0
 36 37  1  0  0  0  0
 36 91  1  0  0  0  0
 37 40  2  0  0  0  0
 37 42  1  0  0  0  0
 38 92  1  0  0  0  0
 39 41  2  0  0  0  0
 39 93  1  0  0  0  0
 40 41  1  0  0  0  0
 40 94  1  0  0  0  0
 41 95  1  0  0  0  0
 42 96  1  0  0  0  0
 42 97  1  0  0  0  0
 42 98  1  0  0  0  0
M  END
> <PUBCHEM_COMPOUND_CID>
20055178

> <PUBCHEM_COMPOUND_CANONICALIZED>
1

> <PUBCHEM_CACTVS_COMPLEXITY>
1190

> <PUBCHEM_CACTVS_HBOND_ACCEPTOR>
2

> <PUBCHEM_CACTVS_HBOND_DONOR>
1

> <PUBCHEM_CACTVS_ROTATABLE_BOND>
18

> <PUBCHEM_CACTVS_SUBSKEYS>
AAADcfB8MAAAAAAAAAAAAAAAAAAAAAAAAAAAAAAAAAAAAAAAAAAAGgAACAAADESggAICAAAAAgCIAihSgAAAAAAgAAAICAEAAEgIAAIAAQAAQAAEgAAIgYOAwEAMAAAAAAAAAAAAAAAAAAAAAAAAAAAAAA==

> <PUBCHEM_IUPAC_OPENEYE_NAME>
(2E,4E,6E,8E,10E,12E,14E)-2-[(1E,3E,5E,7E)-12-hydroxy-4,8,12-trimethyl-trideca-1,3,5,7-tetraenyl]-7,11,15,19-tetramethyl-icosa-2,4,6,8,10,12,14,18-octaenal

> <PUBCHEM_IUPAC_CAS_NAME>
(2E,4E,6E,8E,10E,12E,14E)-2-[(1E,3E,5E,7E)-12-hydroxy-4,8,12-trimethyltrideca-1,3,5,7-tetraenyl]-7,11,15,19-tetramethyleicosa-2,4,6,8,10,12,14,18-octaenal

> <PUBCHEM_IUPAC_NAME>
(2E,4E,6E,8E,10E,12E,14E)-2-[(1E,3E,5E,7E)-12-hydroxy-4,8,12-trimethyltrideca-1,3,5,7-tetraenyl]-7,11,15,19-tetramethylicosa-2,4,6,8,10,12,14,18-octaenal

> <PUBCHEM_IUPAC_SYSTEMATIC_NAME>
(2E,4E,6E,8E,10E,12E,14E)-7,11,15,19-tetramethyl-2-[(1E,3E,5E,7E)-4,8,12-trimethyl-12-oxidanyl-trideca-1,3,5,7-tetraenyl]icosa-2,4,6,8,10,12,14,18-octaenal

> <PUBCHEM_IUPAC_TRADITIONAL_NAME>
(2E,4E,6E,8E,10E,12E,14E)-2-[(1E,3E,5E,7E)-12-hydroxy-4,8,12-trimethyl-trideca-1,3,5,7-tetraenyl]-7,11,15,19-tetramethyl-eicosa-2,4,6,8,10,12,14,18-octaenal

> <PUBCHEM_IUPAC_INCHI>
InChI=1S/C40H56O2/c1-33(2)18-12-20-35(4)22-14-24-36(5)23-13-21-34(3)19-10-11-29-39(32-41)30-16-27-37(6)25-15-26-38(7)28-17-31-40(8,9)42/h10-11,13-16,18-19,21-27,29-30,32,42H,12,17,20,28,31H2,1-9H3/b11-10+,21-13+,24-14+,25-15+,30-16+,34-19+,35-22+,36-23+,37-27+,38-26+,39-29+

> <PUBCHEM_IUPAC_INCHIKEY>
GOJQFVQXKNNAAY-XQHLYSSHSA-N

> <PUBCHEM_XLOGP3_AA>
12.9

> <PUBCHEM_EXACT_MASS>
568.428031

> <PUBCHEM_MOLECULAR_FORMULA>
C40H56O2

> <PUBCHEM_MOLECULAR_WEIGHT>
568.87144

> <PUBCHEM_OPENEYE_CAN_SMILES>
CC(=CCCC(=CC=CC(=CC=CC(=CC=CC=C(C=CC=C(C)C=CC=C(C)CCCC(C)(C)O)C=O)C)C)C)C

> <PUBCHEM_OPENEYE_ISO_SMILES>
CC(=CCC/C(=C/C=C/C(=C/C=C/C(=C/C=C/C=C(\C=C\C=C(/C)\C=C\C=C(/C)\CCCC(C)(C)O)/C=O)/C)/C)/C)C

> <PUBCHEM_CACTVS_TPSA>
37.3

> <PUBCHEM_MONOISOTOPIC_WEIGHT>
568.428031

> <PUBCHEM_TOTAL_CHARGE>
0

> <PUBCHEM_HEAVY_ATOM_COUNT>
42

> <PUBCHEM_ATOM_DEF_STEREO_COUNT>
0

> <PUBCHEM_ATOM_UDEF_STEREO_COUNT>
0

> <PUBCHEM_BOND_DEF_STEREO_COUNT>
11

> <PUBCHEM_BOND_UDEF_STEREO_COUNT>
0

> <PUBCHEM_ISOTOPIC_ATOM_COUNT>
0

> <PUBCHEM_COMPONENT_COUNT>
1

> <PUBCHEM_CACTVS_TAUTO_COUNT>
1

> <PUBCHEM_COORDINATE_TYPE>
1
5
255

$$$$

