9282
  -OEChem-06261203342D

 86 93  0     0  0  0  0  0  0999 V2000
    5.6243    2.5000    0.0000 O   0  0  0  0  0  0  0  0  0  0  0  0
    9.0884   -2.5000    0.0000 O   0  0  0  0  0  0  0  0  0  0  0  0
   12.7128    3.5208    0.0000 O   0  5  0  0  0  0  0  0  0  0  0  0
    2.0000   -3.5208    0.0000 O   0  5  0  0  0  0  0  0  0  0  0  0
   12.1775    1.8736    0.0000 O   0  0  0  0  0  0  0  0  0  0  0  0
    2.5352   -1.8736    0.0000 O   0  0  0  0  0  0  0  0  0  0  0  0
    7.3564    3.5000    0.0000 N   0  3  0  0  0  0  0  0  0  0  0  0
    7.3564   -3.5000    0.0000 N   0  3  0  0  0  0  0  0  0  0  0  0
    6.5474   -4.0878    0.0000 N   0  0  0  0  0  0  0  0  0  0  0  0
    8.1654    4.0878    0.0000 N   0  0  0  0  0  0  0  0  0  0  0  0
    6.5474    4.0878    0.0000 N   0  0  0  0  0  0  0  0  0  0  0  0
    8.1654   -4.0878    0.0000 N   0  0  0  0  0  0  0  0  0  0  0  0
    7.8564    5.0388    0.0000 N   0  0  0  0  0  0  0  0  0  0  0  0
    6.8564   -5.0388    0.0000 N   0  0  0  0  0  0  0  0  0  0  0  0
   11.9696    2.8517    0.0000 N   0  3  0  0  0  0  0  0  0  0  0  0
    2.7431   -2.8517    0.0000 N   0  3  0  0  0  0  0  0  0  0  0  0
    7.3564    0.5000    0.0000 C   0  0  0  0  0  0  0  0  0  0  0  0
    7.3564   -0.5000    0.0000 C   0  0  0  0  0  0  0  0  0  0  0  0
    7.3564    2.5000    0.0000 C   0  0  0  0  0  0  0  0  0  0  0  0
    7.3564   -2.5000    0.0000 C   0  0  0  0  0  0  0  0  0  0  0  0
    8.2224   -2.0000    0.0000 C   0  0  0  0  0  0  0  0  0  0  0  0
    6.4904    2.0000    0.0000 C   0  0  0  0  0  0  0  0  0  0  0  0
    8.2224   -1.0000    0.0000 C   0  0  0  0  0  0  0  0  0  0  0  0
    6.4904    1.0000    0.0000 C   0  0  0  0  0  0  0  0  0  0  0  0
    8.2224    1.0000    0.0000 C   0  0  0  0  0  0  0  0  0  0  0  0
    6.4904   -1.0000    0.0000 C   0  0  0  0  0  0  0  0  0  0  0  0
    8.2224    2.0000    0.0000 C   0  0  0  0  0  0  0  0  0  0  0  0
    6.4904   -2.0000    0.0000 C   0  0  0  0  0  0  0  0  0  0  0  0
    9.1165    3.7788    0.0000 C   0  0  0  0  0  0  0  0  0  0  0  0
    5.5963   -3.7788    0.0000 C   0  0  0  0  0  0  0  0  0  0  0  0
    6.8564    5.0388    0.0000 C   0  0  0  0  0  0  0  0  0  0  0  0
    7.8564   -5.0388    0.0000 C   0  0  0  0  0  0  0  0  0  0  0  0
    6.2686    5.8479    0.0000 C   0  0  0  0  0  0  0  0  0  0  0  0
    8.4442   -5.8479    0.0000 C   0  0  0  0  0  0  0  0  0  0  0  0
    9.3244    2.8006    0.0000 C   0  0  0  0  0  0  0  0  0  0  0  0
    5.3884   -2.8006    0.0000 C   0  0  0  0  0  0  0  0  0  0  0  0
    9.8596    4.4479    0.0000 C   0  0  0  0  0  0  0  0  0  0  0  0
    4.8532   -4.4479    0.0000 C   0  0  0  0  0  0  0  0  0  0  0  0
   10.2754    2.4916    0.0000 C   0  0  0  0  0  0  0  0  0  0  0  0
    4.4374   -2.4916    0.0000 C   0  0  0  0  0  0  0  0  0  0  0  0
   10.8107    4.1389    0.0000 C   0  0  0  0  0  0  0  0  0  0  0  0
    3.9021   -4.1389    0.0000 C   0  0  0  0  0  0  0  0  0  0  0  0
   11.0186    3.1607    0.0000 C   0  0  0  0  0  0  0  0  0  0  0  0
    3.6942   -3.1607    0.0000 C   0  0  0  0  0  0  0  0  0  0  0  0
    6.6753    6.7614    0.0000 C   0  0  0  0  0  0  0  0  0  0  0  0
    8.0374   -6.7614    0.0000 C   0  0  0  0  0  0  0  0  0  0  0  0
    5.2741    5.7433    0.0000 C   0  0  0  0  0  0  0  0  0  0  0  0
    9.4387   -5.7433    0.0000 C   0  0  0  0  0  0  0  0  0  0  0  0
    4.7583    2.0000    0.0000 C   0  0  0  0  0  0  0  0  0  0  0  0
    9.9545   -2.0000    0.0000 C   0  0  0  0  0  0  0  0  0  0  0  0
    6.0876    7.5704    0.0000 C   0  0  0  0  0  0  0  0  0  0  0  0
    8.6252   -7.5704    0.0000 C   0  0  0  0  0  0  0  0  0  0  0  0
    4.6863    6.5524    0.0000 C   0  0  0  0  0  0  0  0  0  0  0  0
   10.0265   -6.5524    0.0000 C   0  0  0  0  0  0  0  0  0  0  0  0
    9.6197   -7.4659    0.0000 C   0  0  0  0  0  0  0  0  0  0  0  0
    5.0930    7.4659    0.0000 C   0  0  0  0  0  0  0  0  0  0  0  0
    5.9534    0.6900    0.0000 H   0  0  0  0  0  0  0  0  0  0  0  0
    8.7594   -0.6900    0.0000 H   0  0  0  0  0  0  0  0  0  0  0  0
    8.7594    0.6900    0.0000 H   0  0  0  0  0  0  0  0  0  0  0  0
    5.9534   -0.6900    0.0000 H   0  0  0  0  0  0  0  0  0  0  0  0
    8.7594    2.3100    0.0000 H   0  0  0  0  0  0  0  0  0  0  0  0
    5.9534   -2.3100    0.0000 H   0  0  0  0  0  0  0  0  0  0  0  0
    8.8636    2.3858    0.0000 H   0  0  0  0  0  0  0  0  0  0  0  0
    5.8492   -2.3858    0.0000 H   0  0  0  0  0  0  0  0  0  0  0  0
    9.7307    5.0544    0.0000 H   0  0  0  0  0  0  0  0  0  0  0  0
    4.9821   -5.0544    0.0000 H   0  0  0  0  0  0  0  0  0  0  0  0
    4.3084   -1.8852    0.0000 H   0  0  0  0  0  0  0  0  0  0  0  0
   10.4043    1.8852    0.0000 H   0  0  0  0  0  0  0  0  0  0  0  0
    3.4414   -4.5537    0.0000 H   0  0  0  0  0  0  0  0  0  0  0  0
   11.2714    4.5537    0.0000 H   0  0  0  0  0  0  0  0  0  0  0  0
    7.4208   -6.8262    0.0000 H   0  0  0  0  0  0  0  0  0  0  0  0
    7.2919    6.8262    0.0000 H   0  0  0  0  0  0  0  0  0  0  0  0
    9.6909   -5.1769    0.0000 H   0  0  0  0  0  0  0  0  0  0  0  0
    5.0219    5.1769    0.0000 H   0  0  0  0  0  0  0  0  0  0  0  0
    4.4483    2.5369    0.0000 H   0  0  0  0  0  0  0  0  0  0  0  0
    4.2214    1.6900    0.0000 H   0  0  0  0  0  0  0  0  0  0  0  0
    5.0683    1.4631    0.0000 H   0  0  0  0  0  0  0  0  0  0  0  0
   10.2645   -2.5369    0.0000 H   0  0  0  0  0  0  0  0  0  0  0  0
   10.4914   -1.6900    0.0000 H   0  0  0  0  0  0  0  0  0  0  0  0
    9.6445   -1.4631    0.0000 H   0  0  0  0  0  0  0  0  0  0  0  0
    6.3397    8.1368    0.0000 H   0  0  0  0  0  0  0  0  0  0  0  0
    8.3730   -8.1368    0.0000 H   0  0  0  0  0  0  0  0  0  0  0  0
    4.0697    6.4875    0.0000 H   0  0  0  0  0  0  0  0  0  0  0  0
   10.6431   -6.4875    0.0000 H   0  0  0  0  0  0  0  0  0  0  0  0
    4.7286    7.9675    0.0000 H   0  0  0  0  0  0  0  0  0  0  0  0
    9.9842   -7.9675    0.0000 H   0  0  0  0  0  0  0  0  0  0  0  0
  1 22  1  0  0  0  0
  1 49  1  0  0  0  0
  2 21  1  0  0  0  0
  2 50  1  0  0  0  0
  3 15  1  0  0  0  0
  4 16  1  0  0  0  0
  5 15  2  0  0  0  0
  6 16  2  0  0  0  0
  7 10  1  0  0  0  0
  7 11  2  0  0  0  0
  7 19  1  0  0  0  0
  8  9  1  0  0  0  0
  8 12  2  0  0  0  0
  8 20  1  0  0  0  0
  9 14  1  0  0  0  0
  9 30  1  0  0  0  0
 10 13  1  0  0  0  0
 10 29  1  0  0  0  0
 11 31  1  0  0  0  0
 12 32  1  0  0  0  0
 13 31  2  0  0  0  0
 14 32  2  0  0  0  0
 15 43  1  0  0  0  0
 16 44  1  0  0  0  0
 17 18  1  0  0  0  0
 17 24  2  0  0  0  0
 17 25  1  0  0  0  0
 18 23  2  0  0  0  0
 18 26  1  0  0  0  0
 19 22  2  0  0  0  0
 19 27  1  0  0  0  0
 20 21  2  0  0  0  0
 20 28  1  0  0  0  0
 21 23  1  0  0  0  0
 22 24  1  0  0  0  0
 23 58  1  0  0  0  0
 24 57  1  0  0  0  0
 25 27  2  0  0  0  0
 25 59  1  0  0  0  0
 26 28  2  0  0  0  0
 26 60  1  0  0  0  0
 27 61  1  0  0  0  0
 28 62  1  0  0  0  0
 29 35  2  0  0  0  0
 29 37  1  0  0  0  0
 30 36  2  0  0  0  0
 30 38  1  0  0  0  0
 31 33  1  0  0  0  0
 32 34  1  0  0  0  0
 33 45  2  0  0  0  0
 33 47  1  0  0  0  0
 34 46  2  0  0  0  0
 34 48  1  0  0  0  0
 35 39  1  0  0  0  0
 35 63  1  0  0  0  0
 36 40  1  0  0  0  0
 36 64  1  0  0  0  0
 37 41  2  0  0  0  0
 37 65  1  0  0  0  0
 38 42  2  0  0  0  0
 38 66  1  0  0  0  0
 39 43  2  0  0  0  0
 39 68  1  0  0  0  0
 40 44  2  0  0  0  0
 40 67  1  0  0  0  0
 41 43  1  0  0  0  0
 41 70  1  0  0  0  0
 42 44  1  0  0  0  0
 42 69  1  0  0  0  0
 45 51  1  0  0  0  0
 45 72  1  0  0  0  0
 46 52  1  0  0  0  0
 46 71  1  0  0  0  0
 47 53  2  0  0  0  0
 47 74  1  0  0  0  0
 48 54  2  0  0  0  0
 48 73  1  0  0  0  0
 49 75  1  0  0  0  0
 49 76  1  0  0  0  0
 49 77  1  0  0  0  0
 50 78  1  0  0  0  0
 50 79  1  0  0  0  0
 50 80  1  0  0  0  0
 51 56  2  0  0  0  0
 51 81  1  0  0  0  0
 52 55  2  0  0  0  0
 52 82  1  0  0  0  0
 53 56  1  0  0  0  0
 53 83  1  0  0  0  0
 54 55  1  0  0  0  0
 54 84  1  0  0  0  0
 55 86  1  0  0  0  0
 56 85  1  0  0  0  0
M  CHG  6   3  -1   4  -1   7   1   8   1  15   1  16   1
M  END
> <PUBCHEM_COMPOUND_CID>
9282

> <PUBCHEM_COMPOUND_CANONICALIZED>
1

> <PUBCHEM_CACTVS_COMPLEXITY>
1180

> <PUBCHEM_CACTVS_HBOND_ACCEPTOR>
10

> <PUBCHEM_CACTVS_HBOND_DONOR>
0

> <PUBCHEM_CACTVS_ROTATABLE_BOND>
9

> <PUBCHEM_CACTVS_SUBSKEYS>
AAADceB/+AAAAAAAAAAAAAAAAAAAAWLAAAAwYMGDAAAAAAAB9AAAHgAMAAAADAyBmwIz1oQQRACjAiZiYwCSDAIgIgA8iCAnbJoOJqKEsZuBMCBkyBEI6AeQwPAOiACBAAAAEAAQAQIAAAAgAAAAAAAAAA==

> <PUBCHEM_IUPAC_OPENEYE_NAME>
2-[2-methoxy-4-[3-methoxy-4-[3-(4-nitrophenyl)-5-phenyl-tetrazol-2-ium-2-yl]phenyl]phenyl]-3-(4-nitrophenyl)-5-phenyl-tetrazol-2-ium

> <PUBCHEM_IUPAC_CAS_NAME>
2-[2-methoxy-4-[3-methoxy-4-[3-(4-nitrophenyl)-5-phenyl-2-tetrazol-2-iumyl]phenyl]phenyl]-3-(4-nitrophenyl)-5-phenyltetrazol-2-ium

> <PUBCHEM_IUPAC_NAME>
2-[2-methoxy-4-[3-methoxy-4-[3-(4-nitrophenyl)-5-phenyltetrazol-2-ium-2-yl]phenyl]phenyl]-3-(4-nitrophenyl)-5-phenyltetrazol-2-ium

> <PUBCHEM_IUPAC_SYSTEMATIC_NAME>
2-[2-methoxy-4-[3-methoxy-4-[3-(4-nitrophenyl)-5-phenyl-1,2,3,4-tetrazol-2-ium-2-yl]phenyl]phenyl]-3-(4-nitrophenyl)-5-phenyl-1,2,3,4-tetrazol-2-ium

> <PUBCHEM_IUPAC_TRADITIONAL_NAME>
2-[2-methoxy-4-[3-methoxy-4-[3-(4-nitrophenyl)-5-phenyl-tetrazol-2-ium-2-yl]phenyl]phenyl]-3-(4-nitrophenyl)-5-phenyl-tetrazol-2-ium

> <PUBCHEM_IUPAC_INCHI>
InChI=1S/C40H30N10O6/c1-55-37-25-29(13-23-35(37)47-43-39(27-9-5-3-6-10-27)41-45(47)31-15-19-33(20-16-31)49(51)52)30-14-24-36(38(26-30)56-2)48-44-40(28-11-7-4-8-12-28)42-46(48)32-17-21-34(22-18-32)50(53)54/h3-26H,1-2H3/q+2

> <PUBCHEM_IUPAC_INCHIKEY>
JPXMTWWFLBLUCD-UHFFFAOYSA-N

> <PUBCHEM_XLOGP3_AA>
12

> <PUBCHEM_EXACT_MASS>
746.234979

> <PUBCHEM_MOLECULAR_FORMULA>
C40H30N10O6+2

> <PUBCHEM_MOLECULAR_WEIGHT>
746.7296

> <PUBCHEM_OPENEYE_CAN_SMILES>
COC1=C(C=CC(=C1)C2=CC(=C(C=C2)[N+]3=NC(=NN3C4=CC=C(C=C4)[N+](=O)[O-])C5=CC=CC=C5)OC)[N+]6=NC(=NN6C7=CC=C(C=C7)[N+](=O)[O-])C8=CC=CC=C8

> <PUBCHEM_OPENEYE_ISO_SMILES>
COC1=C(C=CC(=C1)C2=CC(=C(C=C2)[N+]3=NC(=NN3C4=CC=C(C=C4)[N+](=O)[O-])C5=CC=CC=C5)OC)[N+]6=NC(=NN6C7=CC=C(C=C7)[N+](=O)[O-])C8=CC=CC=C8

> <PUBCHEM_CACTVS_TPSA>
179

> <PUBCHEM_MONOISOTOPIC_WEIGHT>
746.234979

> <PUBCHEM_TOTAL_CHARGE>
2

> <PUBCHEM_HEAVY_ATOM_COUNT>
56

> <PUBCHEM_ATOM_DEF_STEREO_COUNT>
0

> <PUBCHEM_ATOM_UDEF_STEREO_COUNT>
0

> <PUBCHEM_BOND_DEF_STEREO_COUNT>
0

> <PUBCHEM_BOND_UDEF_STEREO_COUNT>
0

> <PUBCHEM_ISOTOPIC_ATOM_COUNT>
0

> <PUBCHEM_COMPONENT_COUNT>
1

> <PUBCHEM_CACTVS_TAUTO_COUNT>
1

> <PUBCHEM_COORDINATE_TYPE>
1
5
255

> <PUBCHEM_BONDANNOTATIONS>
10  13  8
11  31  8
12  32  8
13  31  8
14  32  8
17  24  8
17  25  8
18  23  8
18  26  8
19  22  8
19  27  8
20  21  8
20  28  8
21  23  8
22  24  8
25  27  8
26  28  8
29  35  8
29  37  8
30  36  8
30  38  8
33  45  8
33  47  8
34  46  8
34  48  8
35  39  8
36  40  8
37  41  8
38  42  8
39  43  8
40  44  8
41  43  8
42  44  8
45  51  8
46  52  8
47  53  8
48  54  8
51  56  8
52  55  8
53  56  8
54  55  8
7  10  8
7  11  8
8  12  8
8  9  8
9  14  8

$$$$

