11790335
  -OEChem-07051213153D

 39 40  0     1  0  0  0  0  0999 V2000
   -0.3201    1.0155    0.4314 C   0  0  2  0  0  0  0  0  0  0  0  0
    1.1971   -0.8043   -0.6362 C   0  0  1  0  0  0  0  0  0  0  0  0
    0.5966    2.1058   -0.1926 C   0  0  2  0  0  0  0  0  0  0  0  0
   -0.1974   -0.3188   -0.2941 C   0  0  0  0  0  0  0  0  0  0  0  0
    2.0316    0.3183   -1.2623 C   0  0  0  0  0  0  0  0  0  0  0  0
    2.0264    1.5933   -0.4248 C   0  0  0  0  0  0  0  0  0  0  0  0
    1.8806   -1.4045    0.5973 C   0  0  0  0  0  0  0  0  0  0  0  0
   -1.7812    1.5357    0.5341 C   0  0  0  0  0  0  0  0  0  0  0  0
    0.6502    3.3727    0.6693 C   0  0  0  0  0  0  0  0  0  0  0  0
   -1.2739   -1.0735   -0.5800 C   0  0  0  0  0  0  0  0  0  0  0  0
   -2.8545    0.5068    0.3427 C   0  0  0  0  0  0  0  0  0  0  0  0
   -2.6155   -0.7033   -0.1843 C   0  0  0  0  0  0  0  0  0  0  0  0
    1.0586   -2.5649    1.1482 C   0  0  0  0  0  0  0  0  0  0  0  0
    3.2953   -1.8583    0.2529 C   0  0  0  0  0  0  0  0  0  0  0  0
   -3.6937   -1.7205   -0.4016 C   0  0  0  0  0  0  0  0  0  0  0  0
    0.0277    0.8340    1.4592 H   0  0  0  0  0  0  0  0  0  0  0  0
    1.1225   -1.5934   -1.3992 H   0  0  0  0  0  0  0  0  0  0  0  0
    0.1846    2.3870   -1.1723 H   0  0  0  0  0  0  0  0  0  0  0  0
    1.5975    0.5592   -2.2436 H   0  0  0  0  0  0  0  0  0  0  0  0
    3.0584    0.0133   -1.4818 H   0  0  0  0  0  0  0  0  0  0  0  0
    2.5306    1.4193    0.5330 H   0  0  0  0  0  0  0  0  0  0  0  0
    2.6098    2.3612   -0.9481 H   0  0  0  0  0  0  0  0  0  0  0  0
    1.9620   -0.6593    1.3987 H   0  0  0  0  0  0  0  0  0  0  0  0
   -1.9633    2.3262   -0.2051 H   0  0  0  0  0  0  0  0  0  0  0  0
   -1.9159    1.9982    1.5201 H   0  0  0  0  0  0  0  0  0  0  0  0
    1.0182    3.1498    1.6766 H   0  0  0  0  0  0  0  0  0  0  0  0
    1.3190    4.1167    0.2231 H   0  0  0  0  0  0  0  0  0  0  0  0
   -0.3352    3.8385    0.7636 H   0  0  0  0  0  0  0  0  0  0  0  0
   -1.1555   -2.0274   -1.0869 H   0  0  0  0  0  0  0  0  0  0  0  0
   -3.8653    0.7897    0.6239 H   0  0  0  0  0  0  0  0  0  0  0  0
    0.8468   -3.3128    0.3764 H   0  0  0  0  0  0  0  0  0  0  0  0
    1.6025   -3.0716    1.9538 H   0  0  0  0  0  0  0  0  0  0  0  0
    0.1113   -2.2318    1.5830 H   0  0  0  0  0  0  0  0  0  0  0  0
    3.3151   -2.4750   -0.6521 H   0  0  0  0  0  0  0  0  0  0  0  0
    3.7163   -2.4584    1.0679 H   0  0  0  0  0  0  0  0  0  0  0  0
    3.9767   -1.0129    0.1188 H   0  0  0  0  0  0  0  0  0  0  0  0
   -4.6728   -1.3557   -0.0728 H   0  0  0  0  0  0  0  0  0  0  0  0
   -3.4773   -2.6364    0.1589 H   0  0  0  0  0  0  0  0  0  0  0  0
   -3.7756   -1.9748   -1.4640 H   0  0  0  0  0  0  0  0  0  0  0  0
  1  3  1  0  0  0  0
  1  4  1  0  0  0  0
  1  8  1  0  0  0  0
  1 16  1  0  0  0  0
  2  4  1  0  0  0  0
  2  5  1  0  0  0  0
  2  7  1  0  0  0  0
  2 17  1  0  0  0  0
  3  6  1  0  0  0  0
  3  9  1  0  0  0  0
  3 18  1  0  0  0  0
  4 10  2  0  0  0  0
  5  6  1  0  0  0  0
  5 19  1  0  0  0  0
  5 20  1  0  0  0  0
  6 21  1  0  0  0  0
  6 22  1  0  0  0  0
  7 13  1  0  0  0  0
  7 14  1  0  0  0  0
  7 23  1  0  0  0  0
  8 11  1  0  0  0  0
  8 24  1  0  0  0  0
  8 25  1  0  0  0  0
  9 26  1  0  0  0  0
  9 27  1  0  0  0  0
  9 28  1  0  0  0  0
 10 12  1  0  0  0  0
 10 29  1  0  0  0  0
 11 12  2  0  0  0  0
 11 30  1  0  0  0  0
 12 15  1  0  0  0  0
 13 31  1  0  0  0  0
 13 32  1  0  0  0  0
 13 33  1  0  0  0  0
 14 34  1  0  0  0  0
 14 35  1  0  0  0  0
 14 36  1  0  0  0  0
 15 37  1  0  0  0  0
 15 38  1  0  0  0  0
 15 39  1  0  0  0  0
M  END
> <PUBCHEM_COMPOUND_CID>
11790335

> <PUBCHEM_CONFORMER_RMSD>
0.6

> <PUBCHEM_CONFORMER_DIVERSEORDER>
1
3
2

> <PUBCHEM_MMFF94_PARTIAL_CHARGES>
10
1 0.14
10 -0.15
11 -0.29
12 -0.14
15 0.14
2 0.14
29 0.15
30 0.15
4 -0.28
8 0.14

> <PUBCHEM_EFFECTIVE_ROTOR_COUNT>
2

> <PUBCHEM_PHARMACOPHORE_FEATURES>
3
3 7 13 14 hydrophobe
6 1 2 3 4 5 6 rings
6 1 4 8 10 11 12 rings

> <PUBCHEM_HEAVY_ATOM_COUNT>
15

> <PUBCHEM_ATOM_DEF_STEREO_COUNT>
3

> <PUBCHEM_ATOM_UDEF_STEREO_COUNT>
0

> <PUBCHEM_BOND_DEF_STEREO_COUNT>
0

> <PUBCHEM_BOND_UDEF_STEREO_COUNT>
0

> <PUBCHEM_ISOTOPIC_ATOM_COUNT>
0

> <PUBCHEM_COMPONENT_COUNT>
1

> <PUBCHEM_CACTVS_TAUTO_COUNT>
1

> <PUBCHEM_CONFORMER_ID>
00B3E7FF00000001

> <PUBCHEM_MMFF94_ENERGY>
30.1035

> <PUBCHEM_FEATURE_SELFOVERLAP>
15.244

> <PUBCHEM_SHAPE_FINGERPRINT>
10967382 1 18193838132851561541
11086676 242 17980176901610308896
11321824 6 17764036056957428447
11578080 2 17916325959557381356
12202030 40 16701434824246480273
12382932 28 18191871342783299114
12423570 1 7201367202885303228
13132413 78 18336552689427621780
13140716 1 18337385062394502977
13172582 1 18118957238004186529
13380535 76 17541660513140143156
14251711 518 18335976528006851647
14761567 1 18056453098694602694
14787075 74 18343021078143209738
14817 1 5107559591039950018
15001771 113 18341050838488234066
15076042 46 17474677624825506042
15375462 189 18129092488738806755
15852999 172 17273424863461127955
16945 1 18044646512528049909
20510252 161 17467358158781840744
20559304 39 18409731729280231879
20645477 70 18117279156202271839
20871998 184 17474947009516692632
21501502 16 18409444774368311213
21524375 3 17612311853154245172
21650355 55 18194136328246998458
22112679 90 18262227932177037572
22344851 341 17829892031657560587
22445834 79 18127125501160051291
232386 152 18337387257170361406
2334 1 18409724058378892541
23388829 49 18127125497144398750
23402539 116 17828220001453977229
23419403 2 17481198592288079844
23552423 10 18338231540741099277
23598294 1 17547006789782424594
257057 1 18339372975117195153
2748010 2 18334294305207564853
3071541 250 18410007723857651815
34934 24 18266743660786835733
53812654 25 18263645228445717652
7364860 26 18336551503789632346
81228 2 17905333183730328625

> <PUBCHEM_SHAPE_MULTIPOLES>
308.69
4.59
3.25
0.99
2.45
1.55
0.02
-2.67
0.31
-1.28
-0.97
-0.31
-0.13
-0.83

> <PUBCHEM_SHAPE_SELFOVERLAP>
630.397

> <PUBCHEM_SHAPE_VOLUME>
176

> <PUBCHEM_COORDINATE_TYPE>
2
5
10

$$$$

