442299
  -OEChem-07051212572D

 38 41  0     1  0  0  0  0  0999 V2000
    2.8522   -1.1180    0.0000 O   0  0  0  0  0  0  0  0  0  0  0  0
    6.1218   -2.1604    0.0000 O   0  0  0  0  0  0  0  0  0  0  0  0
    2.0000    0.4335    0.0000 O   0  0  0  0  0  0  0  0  0  0  0  0
    4.6362   -0.0696    0.0000 C   0  0  2  0  0  0  0  0  0  0  0  0
    5.5022    0.4304    0.0000 C   0  0  2  0  0  0  0  0  0  0  0  0
    5.5022    1.4304    0.0000 C   0  0  1  0  0  0  0  0  0  0  0  0
    4.9228    1.2268    0.0000 C   0  0  0  0  0  0  0  0  0  0  0  0
    4.5228    0.5340    0.0000 C   0  0  0  0  0  0  0  0  0  0  0  0
    3.7702    0.4304    0.0000 C   0  0  2  0  0  0  0  0  0  0  0  0
    4.6523   -1.1111    0.0000 C   0  0  1  0  0  0  0  0  0  0  0  0
    4.6362    1.9304    0.0000 C   0  0  0  0  0  0  0  0  0  0  0  0
    6.1792   -0.3556    0.0000 C   0  0  0  0  0  0  0  0  0  0  0  0
    3.7702    1.4304    0.0000 C   0  0  0  0  0  0  0  0  0  0  0  0
    5.6783   -1.2641    0.0000 C   0  0  0  0  0  0  0  0  0  0  0  0
    3.7542   -1.6389    0.0000 C   0  0  0  0  0  0  0  0  0  0  0  0
    5.2812    2.1604    0.0000 C   0  0  0  0  0  0  0  0  0  0  0  0
    4.0291    1.9505    0.0000 C   0  0  0  0  0  0  0  0  0  0  0  0
    2.8602   -0.0764    0.0000 C   0  0  0  0  0  0  0  0  0  0  0  0
    6.3522    0.4304    0.0000 H   0  0  0  0  0  0  0  0  0  0  0  0
    6.2384    1.8554    0.0000 H   0  0  0  0  0  0  0  0  0  0  0  0
    4.0957    0.9834    0.0000 H   0  0  0  0  0  0  0  0  0  0  0  0
    3.9708    0.2516    0.0000 H   0  0  0  0  0  0  0  0  0  0  0  0
    3.0341    0.8554    0.0000 H   0  0  0  0  0  0  0  0  0  0  0  0
    4.8142   -1.9455    0.0000 H   0  0  0  0  0  0  0  0  0  0  0  0
    5.0347    2.4054    0.0000 H   0  0  0  0  0  0  0  0  0  0  0  0
    4.2377    2.4054    0.0000 H   0  0  0  0  0  0  0  0  0  0  0  0
    6.6829   -0.7172    0.0000 H   0  0  0  0  0  0  0  0  0  0  0  0
    6.5978    0.1017    0.0000 H   0  0  0  0  0  0  0  0  0  0  0  0
    3.5581    2.0130    0.0000 H   0  0  0  0  0  0  0  0  0  0  0  0
    3.1596    1.3227    0.0000 H   0  0  0  0  0  0  0  0  0  0  0  0
    3.3569   -2.1148    0.0000 H   0  0  0  0  0  0  0  0  0  0  0  0
    4.1552   -2.1117    0.0000 H   0  0  0  0  0  0  0  0  0  0  0  0
    5.8600    1.9382    0.0000 H   0  0  0  0  0  0  0  0  0  0  0  0
    5.5034    2.7392    0.0000 H   0  0  0  0  0  0  0  0  0  0  0  0
    4.7024    2.3826    0.0000 H   0  0  0  0  0  0  0  0  0  0  0  0
    4.4193    2.4324    0.0000 H   0  0  0  0  0  0  0  0  0  0  0  0
    3.5473    2.3407    0.0000 H   0  0  0  0  0  0  0  0  0  0  0  0
    3.6389    1.4687    0.0000 H   0  0  0  0  0  0  0  0  0  0  0  0
  1 15  1  0  0  0  0
  1 18  1  0  0  0  0
  2 14  2  0  0  0  0
  3 18  2  0  0  0  0
  4  5  1  0  0  0  0
  4  8  1  6  0  0  0
  4  9  1  0  0  0  0
  4 10  1  0  0  0  0
  5  6  1  0  0  0  0
  5 12  1  0  0  0  0
  5 19  1  1  0  0  0
  6  7  1  0  0  0  0
  6 11  1  0  0  0  0
  6 20  1  6  0  0  0
  7  8  1  0  0  0  0
  7 16  1  0  0  0  0
  7 17  1  0  0  0  0
  8 21  1  0  0  0  0
  8 22  1  0  0  0  0
  9 13  1  0  0  0  0
  9 18  1  0  0  0  0
  9 23  1  6  0  0  0
 10 14  1  0  0  0  0
 10 15  1  0  0  0  0
 10 24  1  6  0  0  0
 11 13  1  0  0  0  0
 11 25  1  0  0  0  0
 11 26  1  0  0  0  0
 12 14  1  0  0  0  0
 12 27  1  0  0  0  0
 12 28  1  0  0  0  0
 13 29  1  0  0  0  0
 13 30  1  0  0  0  0
 15 31  1  0  0  0  0
 15 32  1  0  0  0  0
 16 33  1  0  0  0  0
 16 34  1  0  0  0  0
 16 35  1  0  0  0  0
 17 36  1  0  0  0  0
 17 37  1  0  0  0  0
 17 38  1  0  0  0  0
M  END
> <PUBCHEM_COMPOUND_CID>
442299

> <PUBCHEM_COMPOUND_CANONICALIZED>
1

> <PUBCHEM_CACTVS_COMPLEXITY>
453

> <PUBCHEM_CACTVS_HBOND_ACCEPTOR>
3

> <PUBCHEM_CACTVS_HBOND_DONOR>
0

> <PUBCHEM_CACTVS_ROTATABLE_BOND>
0

> <PUBCHEM_CACTVS_SUBSKEYS>
AAADceBwMAAAAAAAAAAAAAAAAAAAAYMAAAA0QAAABgAYAEiQAAAAGgAAAAAADwSggAICCAAABAAIAICQCAAAAAAAAAAAAAEAAAAAABYAAAACAAAEIAAAAAGIzvCvgAAAAAAAAACAAAQAACAAAQAACAAAAA==

> <PUBCHEM_IUPAC_INCHI>
InChI=1S/C15H20O3/c1-14(2)7-15-9-4-3-8(14)10(15)5-12(16)11(15)6-18-13(9)17/h8-11H,3-7H2,1-2H3/t8-,9+,10-,11+,15-/m0/s1

> <PUBCHEM_IUPAC_INCHIKEY>
BBIDMUQZCCGABN-UXSWQMMLSA-N

> <PUBCHEM_XLOGP3_AA>
2.2

> <PUBCHEM_EXACT_MASS>
248.141245

> <PUBCHEM_MOLECULAR_FORMULA>
C15H20O3

> <PUBCHEM_MOLECULAR_WEIGHT>
248.3175

> <PUBCHEM_OPENEYE_CAN_SMILES>
CC1(CC23C4CCC1C2CC(=O)C3COC4=O)C

> <PUBCHEM_OPENEYE_ISO_SMILES>
CC1(C[C@]23[C@@H]4CC[C@H]1[C@@H]2CC(=O)[C@H]3COC4=O)C

> <PUBCHEM_CACTVS_TPSA>
43.4

> <PUBCHEM_MONOISOTOPIC_WEIGHT>
248.141245

> <PUBCHEM_TOTAL_CHARGE>
0

> <PUBCHEM_HEAVY_ATOM_COUNT>
18

> <PUBCHEM_ATOM_DEF_STEREO_COUNT>
5

> <PUBCHEM_ATOM_UDEF_STEREO_COUNT>
0

> <PUBCHEM_BOND_DEF_STEREO_COUNT>
0

> <PUBCHEM_BOND_UDEF_STEREO_COUNT>
0

> <PUBCHEM_ISOTOPIC_ATOM_COUNT>
0

> <PUBCHEM_COMPONENT_COUNT>
1

> <PUBCHEM_CACTVS_TAUTO_COUNT>
3

> <PUBCHEM_COORDINATE_TYPE>
1
5
255

> <PUBCHEM_BONDANNOTATIONS>
10  24  6
4  8  6
5  19  5
6  20  6
9  23  6

$$$$

