442856
  -OEChem-07051212592D

 52 56  0     1  0  0  0  0  0999 V2000
    2.8981    0.0000    0.0000 S   0  0  0  0  0  0  0  0  0  0  0  0
    6.3622    0.0000    0.0000 S   0  0  0  0  0  0  0  0  0  0  0  0
    2.8981    1.0000    0.0000 O   0  0  0  0  0  0  0  0  0  0  0  0
    6.3622   -1.0000    0.0000 O   0  0  0  0  0  0  0  0  0  0  0  0
    6.0351   -2.6854    0.0000 O   0  0  0  0  0  0  0  0  0  0  0  0
    3.2253    2.6854    0.0000 O   0  0  0  0  0  0  0  0  0  0  0  0
    2.0000   -3.1060    0.0000 O   0  0  0  0  0  0  0  0  0  0  0  0
    7.2604    3.1060    0.0000 O   0  0  0  0  0  0  0  0  0  0  0  0
    4.6302   -1.0000    0.0000 N   0  0  0  0  0  0  0  0  0  0  0  0
    4.6302    1.0000    0.0000 N   0  0  0  0  0  0  0  0  0  0  0  0
    3.7642   -0.5000    0.0000 C   0  0  1  0  0  0  0  0  0  0  0  0
    5.4962    0.5000    0.0000 C   0  0  1  0  0  0  0  0  0  0  0  0
    4.4210   -1.9718    0.0000 C   0  0  2  0  0  0  0  0  0  0  0  0
    4.8394    1.9718    0.0000 C   0  0  2  0  0  0  0  0  0  0  0  0
    3.4322   -2.0749    0.0000 C   0  0  1  0  0  0  0  0  0  0  0  0
    5.8281    2.0749    0.0000 C   0  0  1  0  0  0  0  0  0  0  0  0
    3.0271   -1.1671    0.0000 C   0  0  0  0  0  0  0  0  0  0  0  0
    6.2332    1.1671    0.0000 C   0  0  0  0  0  0  0  0  0  0  0  0
    3.7642    0.5000    0.0000 C   0  0  0  0  0  0  0  0  0  0  0  0
    5.4962   -0.5000    0.0000 C   0  0  0  0  0  0  0  0  0  0  0  0
    5.0417   -2.8006    0.0000 C   0  0  1  0  0  0  0  0  0  0  0  0
    4.2186    2.8006    0.0000 C   0  0  1  0  0  0  0  0  0  0  0  0
    2.9957   -3.0138    0.0000 C   0  0  0  0  0  0  0  0  0  0  0  0
    6.2646    3.0138    0.0000 C   0  0  0  0  0  0  0  0  0  0  0  0
    4.6270   -3.7494    0.0000 C   0  0  0  0  0  0  0  0  0  0  0  0
    4.6333    3.7494    0.0000 C   0  0  0  0  0  0  0  0  0  0  0  0
    3.5972   -3.8567    0.0000 C   0  0  0  0  0  0  0  0  0  0  0  0
    5.6632    3.8567    0.0000 C   0  0  0  0  0  0  0  0  0  0  0  0
    2.0321   -0.5000    0.0000 C   0  0  0  0  0  0  0  0  0  0  0  0
    7.2283    0.5000    0.0000 C   0  0  0  0  0  0  0  0  0  0  0  0
    5.2513   -1.7901    0.0000 H   0  0  0  0  0  0  0  0  0  0  0  0
    4.0090    1.7901    0.0000 H   0  0  0  0  0  0  0  0  0  0  0  0
    2.5823   -2.0683    0.0000 H   0  0  0  0  0  0  0  0  0  0  0  0
    6.6781    2.0683    0.0000 H   0  0  0  0  0  0  0  0  0  0  0  0
    2.6617   -0.6662    0.0000 H   0  0  0  0  0  0  0  0  0  0  0  0
    2.4906   -1.4779    0.0000 H   0  0  0  0  0  0  0  0  0  0  0  0
    6.5987    0.6662    0.0000 H   0  0  0  0  0  0  0  0  0  0  0  0
    6.7697    1.4779    0.0000 H   0  0  0  0  0  0  0  0  0  0  0  0
    5.4105   -3.2990    0.0000 H   0  0  0  0  0  0  0  0  0  0  0  0
    3.8498    3.2990    0.0000 H   0  0  0  0  0  0  0  0  0  0  0  0
    4.9930   -4.2499    0.0000 H   0  0  0  0  0  0  0  0  0  0  0  0
    4.2674    4.2499    0.0000 H   0  0  0  0  0  0  0  0  0  0  0  0
    3.3423   -4.4219    0.0000 H   0  0  0  0  0  0  0  0  0  0  0  0
    5.9180    4.4219    0.0000 H   0  0  0  0  0  0  0  0  0  0  0  0
    6.4048   -3.1831    0.0000 H   0  0  0  0  0  0  0  0  0  0  0  0
    2.8555    3.1831    0.0000 H   0  0  0  0  0  0  0  0  0  0  0  0
    1.7221    0.0369    0.0000 H   0  0  0  0  0  0  0  0  0  0  0  0
    1.4952   -0.8100    0.0000 H   0  0  0  0  0  0  0  0  0  0  0  0
    2.3421   -1.0369    0.0000 H   0  0  0  0  0  0  0  0  0  0  0  0
    7.5383   -0.0369    0.0000 H   0  0  0  0  0  0  0  0  0  0  0  0
    7.7652    0.8100    0.0000 H   0  0  0  0  0  0  0  0  0  0  0  0
    6.9183    1.0369    0.0000 H   0  0  0  0  0  0  0  0  0  0  0  0
 11  1  1  1  0  0  0
  1 29  1  0  0  0  0
 12  2  1  1  0  0  0
  2 30  1  0  0  0  0
  3 19  2  0  0  0  0
  4 20  2  0  0  0  0
 21  5  1  6  0  0  0
  5 45  1  0  0  0  0
 22  6  1  6  0  0  0
  6 46  1  0  0  0  0
  7 23  2  0  0  0  0
  8 24  2  0  0  0  0
  9 11  1  0  0  0  0
  9 13  1  0  0  0  0
  9 20  1  0  0  0  0
 10 12  1  0  0  0  0
 10 14  1  0  0  0  0
 10 19  1  0  0  0  0
 11 17  1  0  0  0  0
 11 19  1  0  0  0  0
 12 18  1  0  0  0  0
 12 20  1  0  0  0  0
 13 15  1  0  0  0  0
 13 21  1  0  0  0  0
 13 31  1  6  0  0  0
 14 16  1  0  0  0  0
 14 22  1  0  0  0  0
 14 32  1  6  0  0  0
 15 17  1  0  0  0  0
 15 23  1  0  0  0  0
 15 33  1  1  0  0  0
 16 18  1  0  0  0  0
 16 24  1  0  0  0  0
 16 34  1  1  0  0  0
 17 35  1  0  0  0  0
 17 36  1  0  0  0  0
 18 37  1  0  0  0  0
 18 38  1  0  0  0  0
 21 25  1  0  0  0  0
 21 39  1  0  0  0  0
 22 26  1  0  0  0  0
 22 40  1  0  0  0  0
 23 27  1  0  0  0  0
 24 28  1  0  0  0  0
 25 27  2  0  0  0  0
 25 41  1  0  0  0  0
 26 28  2  0  0  0  0
 26 42  1  0  0  0  0
 27 43  1  0  0  0  0
 28 44  1  0  0  0  0
 29 47  1  0  0  0  0
 29 48  1  0  0  0  0
 29 49  1  0  0  0  0
 30 50  1  0  0  0  0
 30 51  1  0  0  0  0
 30 52  1  0  0  0  0
M  END
> <PUBCHEM_COMPOUND_CID>
442856

> <PUBCHEM_COMPOUND_CANONICALIZED>
1

> <PUBCHEM_CACTVS_COMPLEXITY>
862

> <PUBCHEM_CACTVS_HBOND_ACCEPTOR>
8

> <PUBCHEM_CACTVS_HBOND_DONOR>
2

> <PUBCHEM_CACTVS_ROTATABLE_BOND>
2

> <PUBCHEM_CACTVS_SUBSKEYS>
AAADceB7OABgAAAAAAAAAAAAAAAAAWLAAAAsQIAAAAAAAFgAAAAAHgQACAAADTzhwAaCAAMAAgiIAKFSEAAAAABgABAICAGIAEgCVBoggSAUUAAEhgCYEYOe2wO+AAAAAAAAAAAAAAAAAAAAAAAAAAAAAA==

> <PUBCHEM_IUPAC_INCHI>
InChI=1S/C20H22N2O6S2/c1-29-19-7-9-11(23)3-5-13(25)15(9)21(19)18(28)20(30-2)8-10-12(24)4-6-14(26)16(10)22(20)17(19)27/h3-6,9-10,13-16,25-26H,7-8H2,1-2H3/t9-,10-,13+,14+,15+,16+,19-,20-/m0/s1

> <PUBCHEM_IUPAC_INCHIKEY>
FWPMSYUTOOUASJ-GFIYPFTLSA-N

> <PUBCHEM_XLOGP3_AA>
-0.9

> <PUBCHEM_EXACT_MASS>
450.091928

> <PUBCHEM_MOLECULAR_FORMULA>
C20H22N2O6S2

> <PUBCHEM_MOLECULAR_WEIGHT>
450.52848

> <PUBCHEM_OPENEYE_CAN_SMILES>
CSC12CC3C(N1C(=O)C4(CC5C(N4C2=O)C(C=CC5=O)O)SC)C(C=CC3=O)O

> <PUBCHEM_OPENEYE_ISO_SMILES>
CS[C@]12C[C@@H]3[C@@H](N1C(=O)[C@]4(C[C@@H]5[C@@H](N4C2=O)[C@@H](C=CC5=O)O)SC)[C@@H](C=CC3=O)O

> <PUBCHEM_CACTVS_TPSA>
166

> <PUBCHEM_MONOISOTOPIC_WEIGHT>
450.091928

> <PUBCHEM_TOTAL_CHARGE>
0

> <PUBCHEM_HEAVY_ATOM_COUNT>
30

> <PUBCHEM_ATOM_DEF_STEREO_COUNT>
8

> <PUBCHEM_ATOM_UDEF_STEREO_COUNT>
0

> <PUBCHEM_BOND_DEF_STEREO_COUNT>
0

> <PUBCHEM_BOND_UDEF_STEREO_COUNT>
0

> <PUBCHEM_ISOTOPIC_ATOM_COUNT>
0

> <PUBCHEM_COMPONENT_COUNT>
1

> <PUBCHEM_CACTVS_TAUTO_COUNT>
3

> <PUBCHEM_COORDINATE_TYPE>
1
5
255

> <PUBCHEM_BONDANNOTATIONS>
11  1  5
13  31  6
14  32  6
15  33  5
16  34  5
12  2  5
21  5  6
22  6  6

$$$$

