111326
  -OEChem-07051213053D

 32 34  0     1  0  0  0  0  0999 V2000
    0.5822   -1.1768    0.3830 C   0  0  1  0  0  0  0  0  0  0  0  0
   -0.5335   -1.0620   -0.6767 C   0  0  1  0  0  0  0  0  0  0  0  0
    0.7897   -2.6262   -0.1041 C   0  0  0  0  0  0  0  0  0  0  0  0
   -0.6777   -2.5950   -0.5800 C   0  0  0  0  0  0  0  0  0  0  0  0
    1.7968   -0.1994    0.2399 C   0  0  0  0  0  0  0  0  0  0  0  0
   -1.7820   -0.2040   -0.2914 C   0  0  0  0  0  0  0  0  0  0  0  0
    1.5701    1.1642    0.0529 C   0  0  0  0  0  0  0  0  0  0  0  0
   -1.9940    1.0332   -0.9065 C   0  0  0  0  0  0  0  0  0  0  0  0
    3.1020   -0.6866    0.3070 C   0  0  0  0  0  0  0  0  0  0  0  0
   -2.6957   -0.6670    0.6598 C   0  0  0  0  0  0  0  0  0  0  0  0
    2.6486    2.0406   -0.0671 C   0  0  0  0  0  0  0  0  0  0  0  0
   -3.1102    1.8009   -0.5734 C   0  0  0  0  0  0  0  0  0  0  0  0
    4.1806    0.1898    0.1871 C   0  0  0  0  0  0  0  0  0  0  0  0
   -3.8117    0.1005    0.9930 C   0  0  0  0  0  0  0  0  0  0  0  0
    3.9539    1.5533    0.0001 C   0  0  0  0  0  0  0  0  0  0  0  0
   -4.0190    1.3344    0.3763 C   0  0  0  0  0  0  0  0  0  0  0  0
    0.1934   -1.1625    1.4136 H   0  0  0  0  0  0  0  0  0  0  0  0
   -0.1391   -0.7831   -1.6678 H   0  0  0  0  0  0  0  0  0  0  0  0
    1.0157   -3.3625    0.6721 H   0  0  0  0  0  0  0  0  0  0  0  0
    1.4996   -2.7512   -0.9307 H   0  0  0  0  0  0  0  0  0  0  0  0
   -0.8662   -3.1066   -1.5289 H   0  0  0  0  0  0  0  0  0  0  0  0
   -1.3632   -3.0041    0.1672 H   0  0  0  0  0  0  0  0  0  0  0  0
    0.5665    1.5705    0.0239 H   0  0  0  0  0  0  0  0  0  0  0  0
   -1.2979    1.4048   -1.6536 H   0  0  0  0  0  0  0  0  0  0  0  0
    3.3007   -1.7425    0.4655 H   0  0  0  0  0  0  0  0  0  0  0  0
   -2.5562   -1.6094    1.1781 H   0  0  0  0  0  0  0  0  0  0  0  0
    2.4723    3.1031   -0.2064 H   0  0  0  0  0  0  0  0  0  0  0  0
   -3.2723    2.7609   -1.0546 H   0  0  0  0  0  0  0  0  0  0  0  0
    5.1971   -0.1889    0.2428 H   0  0  0  0  0  0  0  0  0  0  0  0
   -4.5168   -0.2596    1.7366 H   0  0  0  0  0  0  0  0  0  0  0  0
    4.7936    2.2359   -0.0911 H   0  0  0  0  0  0  0  0  0  0  0  0
   -4.8874    1.9324    0.6365 H   0  0  0  0  0  0  0  0  0  0  0  0
  1  2  1  0  0  0  0
  1  3  1  0  0  0  0
  1  5  1  0  0  0  0
  1 17  1  0  0  0  0
  2  4  1  0  0  0  0
  2  6  1  0  0  0  0
  2 18  1  0  0  0  0
  3  4  1  0  0  0  0
  3 19  1  0  0  0  0
  3 20  1  0  0  0  0
  4 21  1  0  0  0  0
  4 22  1  0  0  0  0
  5  7  2  0  0  0  0
  5  9  1  0  0  0  0
  6  8  2  0  0  0  0
  6 10  1  0  0  0  0
  7 11  1  0  0  0  0
  7 23  1  0  0  0  0
  8 12  1  0  0  0  0
  8 24  1  0  0  0  0
  9 13  2  0  0  0  0
  9 25  1  0  0  0  0
 10 14  2  0  0  0  0
 10 26  1  0  0  0  0
 11 15  2  0  0  0  0
 11 27  1  0  0  0  0
 12 16  2  0  0  0  0
 12 28  1  0  0  0  0
 13 15  1  0  0  0  0
 13 29  1  0  0  0  0
 14 16  1  0  0  0  0
 14 30  1  0  0  0  0
 15 31  1  0  0  0  0
 16 32  1  0  0  0  0
M  END
> <PUBCHEM_COMPOUND_CID>
111326

> <PUBCHEM_CONFORMER_RMSD>
0.6

> <PUBCHEM_CONFORMER_DIVERSEORDER>
1
3
2
4

> <PUBCHEM_MMFF94_PARTIAL_CHARGES>
24
1 0.11
10 -0.15
11 -0.15
12 -0.15
13 -0.15
14 -0.15
15 -0.15
16 -0.15
2 0.11
23 0.15
24 0.15
25 0.15
26 0.15
27 0.15
28 0.15
29 0.15
30 0.15
31 0.15
32 0.15
5 -0.11
6 -0.11
7 -0.15
8 -0.15
9 -0.15

> <PUBCHEM_EFFECTIVE_ROTOR_COUNT>
2.8

> <PUBCHEM_PHARMACOPHORE_FEATURES>
3
4 1 2 3 4 rings
6 5 7 9 11 13 15 rings
6 6 8 10 12 14 16 rings

> <PUBCHEM_HEAVY_ATOM_COUNT>
16

> <PUBCHEM_ATOM_DEF_STEREO_COUNT>
2

> <PUBCHEM_ATOM_UDEF_STEREO_COUNT>
0

> <PUBCHEM_BOND_DEF_STEREO_COUNT>
0

> <PUBCHEM_BOND_UDEF_STEREO_COUNT>
0

> <PUBCHEM_ISOTOPIC_ATOM_COUNT>
0

> <PUBCHEM_COMPONENT_COUNT>
1

> <PUBCHEM_CACTVS_TAUTO_COUNT>
1

> <PUBCHEM_CONFORMER_ID>
0001B2DE00000001

> <PUBCHEM_MMFF94_ENERGY>
49.4485

> <PUBCHEM_FEATURE_SELFOVERLAP>
15.223

> <PUBCHEM_SHAPE_FINGERPRINT>
10465860 228 18190172571590682035
10608611 8 18198625625939137205
10681291 71 18410282597670056156
10922049 32 18410567388171693078
12173636 292 18191874426796768630
122479 349 18341047432700487850
12251169 10 18060133232853143121
12592029 89 18411978100260705602
12633257 1 17987522687561665761
13544653 18 9151173168557885344
13583140 156 17131572581868067120
13618510 140 18408606993304381613
14026960 21 18342452634483504989
14123255 52 18408888429620981968
14178342 30 18050868623793099258
14289901 80 15913330212446793436
15196674 1 18411700980396559392
15219456 202 18269833288941018627
15309172 13 18410573981062218657
15342168 16 18335413591344786829
15775835 57 18409446959968581680
1741750 31 18261396581533510786
1798214 55 18335143089603407248
18186145 218 18187641410219581718
18219364 16 18342184392164058933
204376 136 18408602561087860799
20645477 56 18262799541343885384
20681677 76 18199754820281003271
21501502 16 18194407680470932982
21524375 3 18335141959995411695
21731228 192 18411979139616293611
22094290 62 18411144645009083674
22182937 141 18263078821054101312
23402539 116 18040159509007855772
23419403 2 17102502576851768711
23558518 356 18198063573608020042
238 59 17551560837869301405
25 1 18335421287693877838
27216 239 18343019961108827961
350125 39 18264769848441789082
474 4 18335983185533299073
49207404 50 18270948099068210571
4921388 177 14924233681584612373
5104073 3 18340212873895629064
633830 44 18114456855048884172
6430166 295 18410296904422267008
7226269 152 18040724662712186248
7364860 26 18192710270271635599
7832392 63 18337957779704948260
81228 2 17689452489478900259
8272917 22 18117273877460176029

> <PUBCHEM_SHAPE_MULTIPOLES>
329.27
7.61
2.57
0.86
0.6
0.99
0
-4.57
-1.34
0.3
0.42
-0.51
0.01
0.09

> <PUBCHEM_SHAPE_SELFOVERLAP>
708.87

> <PUBCHEM_SHAPE_VOLUME>
174.8

> <PUBCHEM_COORDINATE_TYPE>
2
5
10

$$$$

