177901
  -OEChem-07051213053D

 23 24  0     0  0  0  0  0  0999 V2000
    0.5226    2.5432   -0.0851 Cl  0  0  0  0  0  0  0  0  0  0  0  0
    0.1129   -2.8946   -0.1748 Cl  0  0  0  0  0  0  0  0  0  0  0  0
   -0.9917   -0.0972    2.5963 Cl  0  0  0  0  0  0  0  0  0  0  0  0
    3.6681    2.2572   -0.0568 Cl  0  0  0  0  0  0  0  0  0  0  0  0
    4.9568   -0.6597   -0.0850 Cl  0  0  0  0  0  0  0  0  0  0  0  0
   -5.1207    0.2860   -0.3169 O   0  0  0  0  0  0  0  0  0  0  0  0
    0.4581   -0.1735   -0.1260 C   0  0  0  0  0  0  0  0  0  0  0  0
   -0.9878   -0.0553   -0.1409 C   0  0  0  0  0  0  0  0  0  0  0  0
    1.2661    0.9669   -0.1017 C   0  0  0  0  0  0  0  0  0  0  0  0
    1.0505   -1.4394   -0.1374 C   0  0  0  0  0  0  0  0  0  0  0  0
   -1.7346   -0.0117    1.0365 C   0  0  0  0  0  0  0  0  0  0  0  0
   -1.6297    0.0159   -1.3771 C   0  0  0  0  0  0  0  0  0  0  0  0
    2.6554    0.8420   -0.0889 C   0  0  0  0  0  0  0  0  0  0  0  0
    2.4395   -1.5642   -0.1246 C   0  0  0  0  0  0  0  0  0  0  0  0
    3.2421   -0.4235   -0.1002 C   0  0  0  0  0  0  0  0  0  0  0  0
   -3.1236    0.1030    0.9775 C   0  0  0  0  0  0  0  0  0  0  0  0
   -3.0185    0.1306   -1.4361 C   0  0  0  0  0  0  0  0  0  0  0  0
   -3.7655    0.1742   -0.2588 C   0  0  0  0  0  0  0  0  0  0  0  0
   -1.0650   -0.0163   -2.3062 H   0  0  0  0  0  0  0  0  0  0  0  0
    2.8966   -2.5517   -0.1344 H   0  0  0  0  0  0  0  0  0  0  0  0
   -3.7096    0.1372    1.8933 H   0  0  0  0  0  0  0  0  0  0  0  0
   -3.5131    0.1856   -2.4021 H   0  0  0  0  0  0  0  0  0  0  0  0
   -5.4754    0.3014    0.5887 H   0  0  0  0  0  0  0  0  0  0  0  0
  1  9  1  0  0  0  0
  2 10  1  0  0  0  0
  3 11  1  0  0  0  0
  4 13  1  0  0  0  0
  5 15  1  0  0  0  0
  6 18  1  0  0  0  0
  6 23  1  0  0  0  0
  7  8  1  0  0  0  0
  7  9  2  0  0  0  0
  7 10  1  0  0  0  0
  8 11  2  0  0  0  0
  8 12  1  0  0  0  0
  9 13  1  0  0  0  0
 10 14  2  0  0  0  0
 11 16  1  0  0  0  0
 12 17  2  0  0  0  0
 12 19  1  0  0  0  0
 13 15  2  0  0  0  0
 14 15  1  0  0  0  0
 14 20  1  0  0  0  0
 16 18  2  0  0  0  0
 16 21  1  0  0  0  0
 17 18  1  0  0  0  0
 17 22  1  0  0  0  0
M  END
> <PUBCHEM_COMPOUND_CID>
177901

> <PUBCHEM_CONFORMER_RMSD>
0.6

> <PUBCHEM_CONFORMER_DIVERSEORDER>
2
1

> <PUBCHEM_MMFF94_PARTIAL_CHARGES>
21
1 -0.18
10 0.18
11 0.18
12 -0.15
13 0.18
14 -0.15
15 0.18
16 -0.15
17 -0.15
18 0.08
19 0.15
2 -0.18
20 0.15
21 0.15
22 0.15
23 0.45
3 -0.18
4 -0.18
5 -0.18
6 -0.53
9 0.18

> <PUBCHEM_EFFECTIVE_ROTOR_COUNT>
1

> <PUBCHEM_PHARMACOPHORE_FEATURES>
3
1 6 donor
6 7 9 10 13 14 15 rings
6 8 11 12 16 17 18 rings

> <PUBCHEM_HEAVY_ATOM_COUNT>
18

> <PUBCHEM_ATOM_DEF_STEREO_COUNT>
0

> <PUBCHEM_ATOM_UDEF_STEREO_COUNT>
0

> <PUBCHEM_BOND_DEF_STEREO_COUNT>
0

> <PUBCHEM_BOND_UDEF_STEREO_COUNT>
0

> <PUBCHEM_ISOTOPIC_ATOM_COUNT>
0

> <PUBCHEM_COMPONENT_COUNT>
1

> <PUBCHEM_CACTVS_TAUTO_COUNT>
3

> <PUBCHEM_CONFORMER_ID>
0002B6ED00000002

> <PUBCHEM_MMFF94_ENERGY>
52.4845

> <PUBCHEM_FEATURE_SELFOVERLAP>
15.223

> <PUBCHEM_SHAPE_FINGERPRINT>
11471102 20 18411700980639146172
11640471 11 17459728488714328057
12119455 92 18272936020112032826
12236239 1 17676207991596116559
124424 183 17846494850779551450
12592029 89 18341618152118242659
13140716 1 18339085870282592882
13464514 151 17700146674799567021
13581323 91 15195571195061607669
13583140 156 16485597367652372780
14115302 16 17603873277921019775
14251717 144 18408604781301135814
15207287 21 17846493764037196931
15219456 202 18060135410137902501
15309172 13 18411693279493810922
15848702 151 17677042577051813366
16945 1 18410290341912731238
1813 80 17825372236421102734
18175812 5 17846774092083299702
18186145 218 18335707130562567102
18219364 16 18341320111594699898
19049666 15 17631176457682681737
192875 21 18040151816700343104
19862831 5 17748827405905585037
200 152 18259989296691315679
204376 136 18339642239765783366
20645476 183 17822577105984969749
20645477 70 18411982472816812094
21267235 1 18334569165865924999
21639500 275 18336835199248792796
21756936 100 17317005140973761192
23175994 123 18201994460604625132
23184049 59 18411136926952878772
2334 1 18122061993117517006
23402539 116 18187090567821335014
23493267 7 17203610415099199632
23526113 38 17845652693286417802
23557571 272 16917070013772491135
23559900 14 16845568738759833666
23728640 28 15025840014943605723
25 1 18412831278238883686
2748010 2 18193550070165347110
3060560 45 18408889554876215558
350125 39 17619060634340744084
4340502 62 18335974312495200267
474 4 18188493463091181600
633830 44 18114446925105523197
69090 78 18130791135888984043
77492 1 17676205788283142415
81228 2 16394675821541008074
8272917 22 18263075669112660367
9981440 41 16667432238321618520

> <PUBCHEM_SHAPE_MULTIPOLES>
373.91
7.64
2.2
1.37
0.26
0.15
0.81
-1.02
-1.01
-1.96
-0.19
1.27
0.01
0.08

> <PUBCHEM_SHAPE_SELFOVERLAP>
769.419

> <PUBCHEM_SHAPE_VOLUME>
220.1

> <PUBCHEM_COORDINATE_TYPE>
2
5
10

$$$$

