6526396
  -OEChem-07051212542D

 64 66  0     1  0  0  0  0  0999 V2000
    5.4641   -2.5740    0.0000 S   0  0  0  0  0  0  0  0  0  0  0  0
   12.0414   -2.1031    0.0000 S   0  0  0  0  0  0  0  0  0  0  0  0
    8.0441   -0.3613    0.0000 O   0  0  0  0  0  0  0  0  0  0  0  0
    4.5981    0.9260    0.0000 O   0  0  0  0  0  0  0  0  0  0  0  0
    2.8660   -1.0740    0.0000 O   0  0  0  0  0  0  0  0  0  0  0  0
    6.3301    0.9260    0.0000 O   0  0  0  0  0  0  0  0  0  0  0  0
    9.2713   -1.5645    0.0000 O   0  0  0  0  0  0  0  0  0  0  0  0
    3.7320    2.4260    0.0000 O   0  0  0  0  0  0  0  0  0  0  0  0
    8.4889   -4.4606    0.0000 O   0  0  0  0  0  0  0  0  0  0  0  0
    2.8660    3.9260    0.0000 O   0  0  0  0  0  0  0  0  0  0  0  0
    4.5981    3.9260    0.0000 O   0  0  0  0  0  0  0  0  0  0  0  0
    6.3301   -1.0740    0.0000 N   0  0  0  0  0  0  0  0  0  0  0  0
    8.0441   -2.7867    0.0000 N   0  0  0  0  0  0  0  0  0  0  0  0
    9.4554   -4.2038    0.0000 N   0  0  0  0  0  0  0  0  0  0  0  0
   11.4585   -3.6125    0.0000 N   0  0  0  0  0  0  0  0  0  0  0  0
   13.2311   -3.4299    0.0000 N   0  0  0  0  0  0  0  0  0  0  0  0
    6.3301   -2.0740    0.0000 C   0  0  1  0  0  0  0  0  0  0  0  0
    7.3384   -2.0781    0.0000 C   0  0  1  0  0  0  0  0  0  0  0  0
    7.3384   -1.0698    0.0000 C   0  0  0  0  0  0  0  0  0  0  0  0
    5.4641   -0.5740    0.0000 C   0  0  0  0  0  0  0  0  0  0  0  0
    4.5981   -1.0740    0.0000 C   0  0  0  0  0  0  0  0  0  0  0  0
    4.5981   -2.0740    0.0000 C   0  0  0  0  0  0  0  0  0  0  0  0
    3.7320   -0.5740    0.0000 C   0  0  0  0  0  0  0  0  0  0  0  0
    5.4641    0.4260    0.0000 C   0  0  0  0  0  0  0  0  0  0  0  0
    9.0105   -2.5298    0.0000 C   0  0  0  0  0  0  0  0  0  0  0  0
    9.7162   -3.2384    0.0000 C   0  0  0  0  0  0  0  0  0  0  0  0
    4.5981    1.9260    0.0000 C   0  0  3  0  0  0  0  0  0  0  0  0
    2.0000   -0.5740    0.0000 C   0  0  0  0  0  0  0  0  0  0  0  0
   10.6826   -2.9816    0.0000 C   0  0  0  0  0  0  0  0  0  0  0  0
    5.4641    2.4260    0.0000 C   0  0  0  0  0  0  0  0  0  0  0  0
   11.0429   -2.0487    0.0000 C   0  0  0  0  0  0  0  0  0  0  0  0
   12.2983   -3.0696    0.0000 C   0  0  0  0  0  0  0  0  0  0  0  0
    3.7320    3.4260    0.0000 C   0  0  0  0  0  0  0  0  0  0  0  0
    2.8660    4.9260    0.0000 C   0  0  0  0  0  0  0  0  0  0  0  0
    8.2281   -5.4260    0.0000 C   0  0  0  0  0  0  0  0  0  0  0  0
    2.0000    5.4260    0.0000 C   0  0  0  0  0  0  0  0  0  0  0  0
    3.7320    5.4260    0.0000 C   0  0  0  0  0  0  0  0  0  0  0  0
    6.5484   -2.8955    0.0000 H   0  0  0  0  0  0  0  0  0  0  0  0
    7.9115   -1.8414    0.0000 H   0  0  0  0  0  0  0  0  0  0  0  0
    3.9875   -1.9663    0.0000 H   0  0  0  0  0  0  0  0  0  0  0  0
    4.3860   -2.6566    0.0000 H   0  0  0  0  0  0  0  0  0  0  0  0
    7.8824   -3.3852    0.0000 H   0  0  0  0  0  0  0  0  0  0  0  0
    4.1306   -0.0990    0.0000 H   0  0  0  0  0  0  0  0  0  0  0  0
    3.3335   -0.0990    0.0000 H   0  0  0  0  0  0  0  0  0  0  0  0
    4.5981    2.5460    0.0000 H   0  0  0  0  0  0  0  0  0  0  0  0
    2.3100   -0.0370    0.0000 H   0  0  0  0  0  0  0  0  0  0  0  0
    1.4631   -0.2640    0.0000 H   0  0  0  0  0  0  0  0  0  0  0  0
    1.6900   -1.1109    0.0000 H   0  0  0  0  0  0  0  0  0  0  0  0
    5.7741    1.8891    0.0000 H   0  0  0  0  0  0  0  0  0  0  0  0
    6.0010    2.7360    0.0000 H   0  0  0  0  0  0  0  0  0  0  0  0
    5.1541    2.9630    0.0000 H   0  0  0  0  0  0  0  0  0  0  0  0
   10.7063   -1.5281    0.0000 H   0  0  0  0  0  0  0  0  0  0  0  0
    3.4030    4.6160    0.0000 H   0  0  0  0  0  0  0  0  0  0  0  0
    7.6296   -5.2643    0.0000 H   0  0  0  0  0  0  0  0  0  0  0  0
    8.0664   -6.0246    0.0000 H   0  0  0  0  0  0  0  0  0  0  0  0
    8.8267   -5.5877    0.0000 H   0  0  0  0  0  0  0  0  0  0  0  0
   13.7137   -3.0407    0.0000 H   0  0  0  0  0  0  0  0  0  0  0  0
   13.3268   -4.0424    0.0000 H   0  0  0  0  0  0  0  0  0  0  0  0
    4.0420    4.8891    0.0000 H   0  0  0  0  0  0  0  0  0  0  0  0
    4.2690    5.7360    0.0000 H   0  0  0  0  0  0  0  0  0  0  0  0
    3.4220    5.9630    0.0000 H   0  0  0  0  0  0  0  0  0  0  0  0
    2.3100    5.9630    0.0000 H   0  0  0  0  0  0  0  0  0  0  0  0
    1.4631    5.7360    0.0000 H   0  0  0  0  0  0  0  0  0  0  0  0
    1.6900    4.8891    0.0000 H   0  0  0  0  0  0  0  0  0  0  0  0
  1 17  1  0  0  0  0
  1 22  1  0  0  0  0
  2 31  1  0  0  0  0
  2 32  1  0  0  0  0
  3 19  2  0  0  0  0
  4 24  1  0  0  0  0
  4 27  1  0  0  0  0
  5 23  1  0  0  0  0
  5 28  1  0  0  0  0
  6 24  2  0  0  0  0
  7 25  2  0  0  0  0
  8 27  1  0  0  0  0
  8 33  1  0  0  0  0
  9 14  1  0  0  0  0
  9 35  1  0  0  0  0
 10 33  1  0  0  0  0
 10 34  1  0  0  0  0
 11 33  2  0  0  0  0
 12 17  1  0  0  0  0
 12 19  1  0  0  0  0
 12 20  1  0  0  0  0
 18 13  1  1  0  0  0
 13 25  1  0  0  0  0
 13 42  1  0  0  0  0
 14 26  2  0  0  0  0
 15 29  1  0  0  0  0
 15 32  2  0  0  0  0
 16 32  1  0  0  0  0
 16 57  1  0  0  0  0
 16 58  1  0  0  0  0
 17 18  1  0  0  0  0
 17 38  1  6  0  0  0
 18 19  1  0  0  0  0
 18 39  1  0  0  0  0
 20 21  2  0  0  0  0
 20 24  1  0  0  0  0
 21 22  1  0  0  0  0
 21 23  1  0  0  0  0
 22 40  1  0  0  0  0
 22 41  1  0  0  0  0
 23 43  1  0  0  0  0
 23 44  1  0  0  0  0
 25 26  1  0  0  0  0
 26 29  1  0  0  0  0
 27 30  1  0  0  0  0
 27 45  1  0  0  0  0
 28 46  1  0  0  0  0
 28 47  1  0  0  0  0
 28 48  1  0  0  0  0
 29 31  2  0  0  0  0
 30 49  1  0  0  0  0
 30 50  1  0  0  0  0
 30 51  1  0  0  0  0
 31 52  1  0  0  0  0
 34 36  1  0  0  0  0
 34 37  1  0  0  0  0
 34 53  1  0  0  0  0
 35 54  1  0  0  0  0
 35 55  1  0  0  0  0
 35 56  1  0  0  0  0
 36 62  1  0  0  0  0
 36 63  1  0  0  0  0
 36 64  1  0  0  0  0
 37 59  1  0  0  0  0
 37 60  1  0  0  0  0
 37 61  1  0  0  0  0
M  END
> <PUBCHEM_COMPOUND_CID>
6526396

> <PUBCHEM_COMPOUND_CANONICALIZED>
1

> <PUBCHEM_CACTVS_COMPLEXITY>
976

> <PUBCHEM_CACTVS_HBOND_ACCEPTOR>
14

> <PUBCHEM_CACTVS_HBOND_DONOR>
2

> <PUBCHEM_CACTVS_ROTATABLE_BOND>
13

> <PUBCHEM_CACTVS_SUBSKEYS>
AAADceB7vABgAAAAAAAAAAAAAABYAWAAAAAgAAAAAAAQAAABgAAAHgQUAAAADDz11gejmRPYFAisAwXyfAAA8KlhCjkACJW4IFiSZJgg5CE3EAAAFgK0ISAAAAAAAAAAAAAAAAAAAAAAAAAAAAAAAAAAAA==

> <PUBCHEM_IUPAC_OPENEYE_NAME>
1-isopropoxycarbonyloxyethyl (6R,7R)-7-[[(2Z)-2-(2-aminothiazol-4-yl)-2-methoxyimino-acetyl]amino]-3-(methoxymethyl)-8-oxo-5-thia-1-azabicyclo[4.2.0]oct-2-ene-2-carboxylate

> <PUBCHEM_IUPAC_CAS_NAME>
(6R,7R)-7-[[(2Z)-2-(2-amino-4-thiazolyl)-2-methoxyimino-1-oxoethyl]amino]-3-(methoxymethyl)-8-oxo-5-thia-1-azabicyclo[4.2.0]oct-2-ene-2-carboxylic acid 1-[oxo(propan-2-yloxy)methoxy]ethyl ester

> <PUBCHEM_IUPAC_NAME>
1-propan-2-yloxycarbonyloxyethyl (6R,7R)-7-[[(2Z)-2-(2-amino-1,3-thiazol-4-yl)-2-methoxyiminoacetyl]amino]-3-(methoxymethyl)-8-oxo-5-thia-1-azabicyclo[4.2.0]oct-2-ene-2-carboxylate

> <PUBCHEM_IUPAC_SYSTEMATIC_NAME>
1-propan-2-yloxycarbonyloxyethyl (6R,7R)-7-[[(2Z)-2-(2-azanyl-1,3-thiazol-4-yl)-2-methoxyimino-ethanoyl]amino]-3-(methoxymethyl)-8-oxidanylidene-5-thia-1-azabicyclo[4.2.0]oct-2-ene-2-carboxylate

> <PUBCHEM_IUPAC_TRADITIONAL_NAME>
(6R,7R)-7-[[(2Z)-2-(2-aminothiazol-4-yl)-2-methyloximino-acetyl]amino]-8-keto-3-(methoxymethyl)-5-thia-1-azabicyclo[4.2.0]oct-2-ene-2-carboxylic acid 1-isopropoxycarbonyloxyethyl ester

> <PUBCHEM_IUPAC_INCHI>
InChI=1S/C21H27N5O9S2/c1-9(2)33-21(30)35-10(3)34-19(29)15-11(6-31-4)7-36-18-14(17(28)26(15)18)24-16(27)13(25-32-5)12-8-37-20(22)23-12/h8-10,14,18H,6-7H2,1-5H3,(H2,22,23)(H,24,27)/b25-13-/t10?,14-,18-/m1/s1

> <PUBCHEM_IUPAC_INCHIKEY>
LTINZAODLRIQIX-FBXRGJNPSA-N

> <PUBCHEM_XLOGP3>
0.6

> <PUBCHEM_EXACT_MASS>
557.125019

> <PUBCHEM_MOLECULAR_FORMULA>
C21H27N5O9S2

> <PUBCHEM_MOLECULAR_WEIGHT>
557.59718

> <PUBCHEM_OPENEYE_CAN_SMILES>
CC(C)OC(=O)OC(C)OC(=O)C1=C(CSC2N1C(=O)C2NC(=O)C(=NOC)C3=CSC(=N3)N)COC

> <PUBCHEM_OPENEYE_ISO_SMILES>
CC(C)OC(=O)OC(C)OC(=O)C1=C(CS[C@H]2N1C(=O)[C@H]2NC(=O)/C(=N\OC)/C3=CSC(=N3)N)COC

> <PUBCHEM_CACTVS_TPSA>
235

> <PUBCHEM_MONOISOTOPIC_WEIGHT>
557.125019

> <PUBCHEM_TOTAL_CHARGE>
0

> <PUBCHEM_HEAVY_ATOM_COUNT>
37

> <PUBCHEM_ATOM_DEF_STEREO_COUNT>
2

> <PUBCHEM_ATOM_UDEF_STEREO_COUNT>
1

> <PUBCHEM_BOND_DEF_STEREO_COUNT>
1

> <PUBCHEM_BOND_UDEF_STEREO_COUNT>
0

> <PUBCHEM_ISOTOPIC_ATOM_COUNT>
0

> <PUBCHEM_COMPONENT_COUNT>
1

> <PUBCHEM_CACTVS_TAUTO_COUNT>
14

> <PUBCHEM_COORDINATE_TYPE>
1
5
255

> <PUBCHEM_BONDANNOTATIONS>
18  13  5
15  29  8
15  32  8
17  38  6
2  31  8
2  32  8
27  30  3
29  31  8

$$$$

