5133
  -OEChem-06261200322D

 52 52  0     1  0  0  0  0  0999 V2000
    9.4651    0.4050    0.0000 S   0  0  0  0  0  0  0  0  0  0  0  0
    6.8671   -2.0950    0.0000 O   0  0  0  0  0  0  0  0  0  0  0  0
    7.7331   -2.5950    0.0000 O   0  0  0  0  0  0  0  0  0  0  0  0
    2.5369   -0.5950    0.0000 O   0  0  0  0  0  0  0  0  0  0  0  0
    3.4030   -2.0950    0.0000 O   0  0  0  0  0  0  0  0  0  0  0  0
   10.3312   -5.0950    0.0000 O   0  0  0  0  0  0  0  0  0  0  0  0
   11.1972   -3.5950    0.0000 O   0  0  0  0  0  0  0  0  0  0  0  0
   11.1972    5.4050    0.0000 O   0  5  0  0  0  0  0  0  0  0  0  0
    9.4651    5.4050    0.0000 O   0  0  0  0  0  0  0  0  0  0  0  0
    7.7331   -0.5950    0.0000 N   0  0  0  0  0  0  0  0  0  0  0  0
    9.4651   -2.5950    0.0000 N   0  0  0  0  0  0  0  0  0  0  0  0
    4.2690    0.4050    0.0000 N   0  0  0  0  0  0  0  0  0  0  0  0
   10.3312    4.9050    0.0000 N   0  3  0  0  0  0  0  0  0  0  0  0
    8.5991   -1.0950    0.0000 C   0  0  3  0  0  0  0  0  0  0  0  0
    5.1350   -1.0950    0.0000 C   0  0  0  0  0  0  0  0  0  0  0  0
    6.0010   -0.5950    0.0000 C   0  0  0  0  0  0  0  0  0  0  0  0
    9.4651   -0.5950    0.0000 C   0  0  0  0  0  0  0  0  0  0  0  0
    4.2690   -0.5950    0.0000 C   0  0  3  0  0  0  0  0  0  0  0  0
    6.8671   -1.0950    0.0000 C   0  0  0  0  0  0  0  0  0  0  0  0
    8.5991   -2.0950    0.0000 C   0  0  0  0  0  0  0  0  0  0  0  0
   10.3312    0.9050    0.0000 C   0  0  0  0  0  0  0  0  0  0  0  0
   10.3312    1.9050    0.0000 C   0  0  0  0  0  0  0  0  0  0  0  0
    3.4030   -1.0950    0.0000 C   0  0  0  0  0  0  0  0  0  0  0  0
    9.4651   -3.5950    0.0000 C   0  0  0  0  0  0  0  0  0  0  0  0
   11.1972    2.4050    0.0000 C   0  0  0  0  0  0  0  0  0  0  0  0
    9.4651    2.4050    0.0000 C   0  0  0  0  0  0  0  0  0  0  0  0
   11.1972    3.4050    0.0000 C   0  0  0  0  0  0  0  0  0  0  0  0
    9.4651    3.4050    0.0000 C   0  0  0  0  0  0  0  0  0  0  0  0
   10.3312    3.9050    0.0000 C   0  0  0  0  0  0  0  0  0  0  0  0
   10.3312   -4.0950    0.0000 C   0  0  0  0  0  0  0  0  0  0  0  0
    8.5991   -0.4750    0.0000 H   0  0  0  0  0  0  0  0  0  0  0  0
    4.7365   -1.5700    0.0000 H   0  0  0  0  0  0  0  0  0  0  0  0
    5.5335   -1.5700    0.0000 H   0  0  0  0  0  0  0  0  0  0  0  0
    6.3996   -0.1201    0.0000 H   0  0  0  0  0  0  0  0  0  0  0  0
    5.6025   -0.1201    0.0000 H   0  0  0  0  0  0  0  0  0  0  0  0
    9.6772   -1.1776    0.0000 H   0  0  0  0  0  0  0  0  0  0  0  0
   10.0757   -0.4873    0.0000 H   0  0  0  0  0  0  0  0  0  0  0  0
    7.7331    0.0250    0.0000 H   0  0  0  0  0  0  0  0  0  0  0  0
    4.8059   -0.2850    0.0000 H   0  0  0  0  0  0  0  0  0  0  0  0
   10.5432    0.3224    0.0000 H   0  0  0  0  0  0  0  0  0  0  0  0
   10.9417    1.0127    0.0000 H   0  0  0  0  0  0  0  0  0  0  0  0
   10.0021   -2.2850    0.0000 H   0  0  0  0  0  0  0  0  0  0  0  0
    3.7320    0.7150    0.0000 H   0  0  0  0  0  0  0  0  0  0  0  0
    4.8059    0.7150    0.0000 H   0  0  0  0  0  0  0  0  0  0  0  0
    8.8546   -3.4873    0.0000 H   0  0  0  0  0  0  0  0  0  0  0  0
    9.2531   -4.1776    0.0000 H   0  0  0  0  0  0  0  0  0  0  0  0
   11.7341    2.0950    0.0000 H   0  0  0  0  0  0  0  0  0  0  0  0
    8.9282    2.0950    0.0000 H   0  0  0  0  0  0  0  0  0  0  0  0
   11.7341    3.7150    0.0000 H   0  0  0  0  0  0  0  0  0  0  0  0
    8.9282    3.7150    0.0000 H   0  0  0  0  0  0  0  0  0  0  0  0
    2.0000   -0.9050    0.0000 H   0  0  0  0  0  0  0  0  0  0  0  0
   10.8681   -5.4050    0.0000 H   0  0  0  0  0  0  0  0  0  0  0  0
  1 17  1  0  0  0  0
  1 21  1  0  0  0  0
  2 19  2  0  0  0  0
  3 20  2  0  0  0  0
  4 23  1  0  0  0  0
  4 51  1  0  0  0  0
  5 23  2  0  0  0  0
  6 30  1  0  0  0  0
  6 52  1  0  0  0  0
  7 30  2  0  0  0  0
  8 13  1  0  0  0  0
  9 13  2  0  0  0  0
 10 14  1  0  0  0  0
 10 19  1  0  0  0  0
 10 38  1  0  0  0  0
 11 20  1  0  0  0  0
 11 24  1  0  0  0  0
 11 42  1  0  0  0  0
 12 18  1  0  0  0  0
 12 43  1  0  0  0  0
 12 44  1  0  0  0  0
 13 29  1  0  0  0  0
 14 17  1  0  0  0  0
 14 20  1  0  0  0  0
 14 31  1  0  0  0  0
 15 16  1  0  0  0  0
 15 18  1  0  0  0  0
 15 32  1  0  0  0  0
 15 33  1  0  0  0  0
 16 19  1  0  0  0  0
 16 34  1  0  0  0  0
 16 35  1  0  0  0  0
 17 36  1  0  0  0  0
 17 37  1  0  0  0  0
 18 23  1  0  0  0  0
 18 39  1  0  0  0  0
 21 22  1  0  0  0  0
 21 40  1  0  0  0  0
 21 41  1  0  0  0  0
 22 25  2  0  0  0  0
 22 26  1  0  0  0  0
 24 30  1  0  0  0  0
 24 45  1  0  0  0  0
 24 46  1  0  0  0  0
 25 27  1  0  0  0  0
 25 47  1  0  0  0  0
 26 28  2  0  0  0  0
 26 48  1  0  0  0  0
 27 29  2  0  0  0  0
 27 49  1  0  0  0  0
 28 29  1  0  0  0  0
 28 50  1  0  0  0  0
M  CHG  2   8  -1  13   1
M  END
> <PUBCHEM_COMPOUND_CID>
5133

> <PUBCHEM_COMPOUND_CANONICALIZED>
1

> <PUBCHEM_CACTVS_COMPLEXITY>
634

> <PUBCHEM_CACTVS_HBOND_ACCEPTOR>
10

> <PUBCHEM_CACTVS_HBOND_DONOR>
5

> <PUBCHEM_CACTVS_ROTATABLE_BOND>
12

> <PUBCHEM_CACTVS_SUBSKEYS>
AAADceB7vABAAAAAAAAAAAAAAAAAAAAAAAAwAAAAAAAAAAABAAAAHgQUCAAADCjF2ASwyILQQgiJAiXSWwCCAAAgAhAoiIGIZIoKYDKgkbGUYABklgC4yAeclwIOCAAAAAAAAAAQAAAAAAAAAAAAAAAAAA==

> <PUBCHEM_IUPAC_OPENEYE_NAME>
2-amino-5-[[2-(carboxymethylamino)-1-[(4-nitrophenyl)methylsulfanylmethyl]-2-oxo-ethyl]amino]-5-oxo-pentanoic acid

> <PUBCHEM_IUPAC_CAS_NAME>
2-amino-5-[[1-(carboxymethylamino)-3-[(4-nitrophenyl)methylthio]-1-oxopropan-2-yl]amino]-5-oxopentanoic acid

> <PUBCHEM_IUPAC_NAME>
2-amino-5-[[1-(carboxymethylamino)-3-[(4-nitrophenyl)methylsulfanyl]-1-oxopropan-2-yl]amino]-5-oxopentanoic acid

> <PUBCHEM_IUPAC_SYSTEMATIC_NAME>
2-azanyl-5-[[1-(2-hydroxy-2-oxoethylamino)-3-[(4-nitrophenyl)methylsulfanyl]-1-oxidanylidene-propan-2-yl]amino]-5-oxidanylidene-pentanoic acid

> <PUBCHEM_IUPAC_TRADITIONAL_NAME>
2-amino-5-[[2-(carboxymethylamino)-2-keto-1-[[(4-nitrobenzyl)thio]methyl]ethyl]amino]-5-keto-valeric acid

> <PUBCHEM_IUPAC_INCHI>
InChI=1S/C17H22N4O8S/c18-12(17(26)27)5-6-14(22)20-13(16(25)19-7-15(23)24)9-30-8-10-1-3-11(4-2-10)21(28)29/h1-4,12-13H,5-9,18H2,(H,19,25)(H,20,22)(H,23,24)(H,26,27)

> <PUBCHEM_IUPAC_INCHIKEY>
OAWORKDPTSAMBZ-UHFFFAOYSA-N

> <PUBCHEM_XLOGP3_AA>
-2.8

> <PUBCHEM_EXACT_MASS>
442.115835

> <PUBCHEM_MOLECULAR_FORMULA>
C17H22N4O8S

> <PUBCHEM_MOLECULAR_WEIGHT>
442.44358

> <PUBCHEM_OPENEYE_CAN_SMILES>
C1=CC(=CC=C1CSCC(C(=O)NCC(=O)O)NC(=O)CCC(C(=O)O)N)[N+](=O)[O-]

> <PUBCHEM_OPENEYE_ISO_SMILES>
C1=CC(=CC=C1CSCC(C(=O)NCC(=O)O)NC(=O)CCC(C(=O)O)N)[N+](=O)[O-]

> <PUBCHEM_CACTVS_TPSA>
230

> <PUBCHEM_MONOISOTOPIC_WEIGHT>
442.115835

> <PUBCHEM_TOTAL_CHARGE>
0

> <PUBCHEM_HEAVY_ATOM_COUNT>
30

> <PUBCHEM_ATOM_DEF_STEREO_COUNT>
0

> <PUBCHEM_ATOM_UDEF_STEREO_COUNT>
2

> <PUBCHEM_BOND_DEF_STEREO_COUNT>
0

> <PUBCHEM_BOND_UDEF_STEREO_COUNT>
0

> <PUBCHEM_ISOTOPIC_ATOM_COUNT>
0

> <PUBCHEM_COMPONENT_COUNT>
1

> <PUBCHEM_CACTVS_TAUTO_COUNT>
4

> <PUBCHEM_COORDINATE_TYPE>
1
5
255

> <PUBCHEM_BONDANNOTATIONS>
18  12  3
14  17  3
22  25  8
22  26  8
25  27  8
26  28  8
27  29  8
28  29  8

$$$$

