439844
  -OEChem-07051212472D

 50 54  0     1  0  0  0  0  0999 V2000
    4.6874    2.6283    0.0000 O   0  0  0  0  0  0  0  0  0  0  0  0
    9.3729   -3.0309    0.0000 O   0  0  0  0  0  0  0  0  0  0  0  0
   10.8248   -2.1927    0.0000 O   0  0  0  0  0  0  0  0  0  0  0  0
    2.8680    1.5964    0.0000 O   0  0  0  0  0  0  0  0  0  0  0  0
    7.4070    1.0506    0.0000 N   0  3  3  0  0  0  0  0  0  0  0  0
    7.4070    0.0506    0.0000 C   0  0  1  0  0  0  0  0  0  0  0  0
    8.2730    1.5506    0.0000 C   0  0  0  0  0  0  0  0  0  0  0  0
    6.5130    1.5853    0.0000 C   0  0  0  0  0  0  0  0  0  0  0  0
    6.5130   -0.4840    0.0000 C   0  0  0  0  0  0  0  0  0  0  0  0
    8.2730   -0.4494    0.0000 C   0  0  0  0  0  0  0  0  0  0  0  0
    9.1390    1.0506    0.0000 C   0  0  0  0  0  0  0  0  0  0  0  0
    7.4070    2.0506    0.0000 C   0  0  0  0  0  0  0  0  0  0  0  0
    5.6070    1.0714    0.0000 C   0  0  0  0  0  0  0  0  0  0  0  0
    9.1390    0.0506    0.0000 C   0  0  0  0  0  0  0  0  0  0  0  0
    5.6070    0.0298    0.0000 C   0  0  0  0  0  0  0  0  0  0  0  0
    8.2570   -1.4909    0.0000 C   0  0  0  0  0  0  0  0  0  0  0  0
    4.6758    1.6284    0.0000 C   0  0  0  0  0  0  0  0  0  0  0  0
   10.0490   -0.4562    0.0000 C   0  0  0  0  0  0  0  0  0  0  0  0
    4.6758   -0.5271    0.0000 C   0  0  0  0  0  0  0  0  0  0  0  0
    9.1550   -2.0186    0.0000 C   0  0  0  0  0  0  0  0  0  0  0  0
   10.0571   -1.4978    0.0000 C   0  0  0  0  0  0  0  0  0  0  0  0
    3.7320    1.0931    0.0000 C   0  0  0  0  0  0  0  0  0  0  0  0
    3.7320    0.0081    0.0000 C   0  0  0  0  0  0  0  0  0  0  0  0
   10.4028   -3.1383    0.0000 C   0  0  0  0  0  0  0  0  0  0  0  0
    3.8272    3.1383    0.0000 C   0  0  0  0  0  0  0  0  0  0  0  0
    2.0000    1.0998    0.0000 C   0  0  0  0  0  0  0  0  0  0  0  0
    7.4135   -0.7994    0.0000 H   0  0  0  0  0  0  0  0  0  0  0  0
    8.6716    2.0256    0.0000 H   0  0  0  0  0  0  0  0  0  0  0  0
    7.8745    2.0256    0.0000 H   0  0  0  0  0  0  0  0  0  0  0  0
    6.9176    2.0551    0.0000 H   0  0  0  0  0  0  0  0  0  0  0  0
    6.1194    2.0643    0.0000 H   0  0  0  0  0  0  0  0  0  0  0  0
    6.1194   -0.9631    0.0000 H   0  0  0  0  0  0  0  0  0  0  0  0
    6.9176   -0.9538    0.0000 H   0  0  0  0  0  0  0  0  0  0  0  0
    9.7496    0.9430    0.0000 H   0  0  0  0  0  0  0  0  0  0  0  0
    9.3511    1.6332    0.0000 H   0  0  0  0  0  0  0  0  0  0  0  0
    8.0270    2.0506    0.0000 H   0  0  0  0  0  0  0  0  0  0  0  0
    7.4070    2.6706    0.0000 H   0  0  0  0  0  0  0  0  0  0  0  0
    6.7870    2.0506    0.0000 H   0  0  0  0  0  0  0  0  0  0  0  0
    7.7165   -1.7947    0.0000 H   0  0  0  0  0  0  0  0  0  0  0  0
   10.5824   -0.1400    0.0000 H   0  0  0  0  0  0  0  0  0  0  0  0
    4.6830   -1.1471    0.0000 H   0  0  0  0  0  0  0  0  0  0  0  0
    3.1963   -0.3039    0.0000 H   0  0  0  0  0  0  0  0  0  0  0  0
   10.2741   -3.7448    0.0000 H   0  0  0  0  0  0  0  0  0  0  0  0
   10.9924   -3.3300    0.0000 H   0  0  0  0  0  0  0  0  0  0  0  0
    4.1434    3.6716    0.0000 H   0  0  0  0  0  0  0  0  0  0  0  0
    3.2939    3.4544    0.0000 H   0  0  0  0  0  0  0  0  0  0  0  0
    3.5110    2.6050    0.0000 H   0  0  0  0  0  0  0  0  0  0  0  0
    1.6921    1.6379    0.0000 H   0  0  0  0  0  0  0  0  0  0  0  0
    1.4619    0.7919    0.0000 H   0  0  0  0  0  0  0  0  0  0  0  0
    2.3079    0.5617    0.0000 H   0  0  0  0  0  0  0  0  0  0  0  0
  1 17  1  0  0  0  0
  1 25  1  0  0  0  0
  2 20  1  0  0  0  0
  2 24  1  0  0  0  0
  3 21  1  0  0  0  0
  3 24  1  0  0  0  0
  4 22  1  0  0  0  0
  4 26  1  0  0  0  0
  5  6  1  0  0  0  0
  5  7  1  0  0  0  0
  5  8  1  0  0  0  0
  5 12  1  0  0  0  0
  6  9  1  0  0  0  0
  6 10  1  0  0  0  0
  6 27  1  1  0  0  0
  7 11  1  0  0  0  0
  7 28  1  0  0  0  0
  7 29  1  0  0  0  0
  8 13  1  0  0  0  0
  8 30  1  0  0  0  0
  8 31  1  0  0  0  0
  9 15  1  0  0  0  0
  9 32  1  0  0  0  0
  9 33  1  0  0  0  0
 10 14  1  0  0  0  0
 10 16  2  0  0  0  0
 11 14  1  0  0  0  0
 11 34  1  0  0  0  0
 11 35  1  0  0  0  0
 12 36  1  0  0  0  0
 12 37  1  0  0  0  0
 12 38  1  0  0  0  0
 13 15  2  0  0  0  0
 13 17  1  0  0  0  0
 14 18  2  0  0  0  0
 15 19  1  0  0  0  0
 16 20  1  0  0  0  0
 16 39  1  0  0  0  0
 17 22  2  0  0  0  0
 18 21  1  0  0  0  0
 18 40  1  0  0  0  0
 19 23  2  0  0  0  0
 19 41  1  0  0  0  0
 20 21  2  0  0  0  0
 22 23  1  0  0  0  0
 23 42  1  0  0  0  0
 24 43  1  0  0  0  0
 24 44  1  0  0  0  0
 25 45  1  0  0  0  0
 25 46  1  0  0  0  0
 25 47  1  0  0  0  0
 26 48  1  0  0  0  0
 26 49  1  0  0  0  0
 26 50  1  0  0  0  0
M  CHG  1   5   1
M  END
> <PUBCHEM_COMPOUND_CID>
439844

> <PUBCHEM_COMPOUND_CANONICALIZED>
1

> <PUBCHEM_CACTVS_COMPLEXITY>
530

> <PUBCHEM_CACTVS_HBOND_ACCEPTOR>
4

> <PUBCHEM_CACTVS_HBOND_DONOR>
0

> <PUBCHEM_CACTVS_ROTATABLE_BOND>
2

> <PUBCHEM_CACTVS_SUBSKEYS>
AAADceB6OAAAAAAAAAAAAAAAAAAAASAAAAA8eIEAAAAAAEixQAAAHgAAAAAADCzBmAcyDoMABACAAiBCAACCCAAgIAAIiAAOjIgdJiKEsRukMCpmwBGOqAew0PMOoAABAAAYQABAAAIAADCAAAAAAAAAAA==

> <PUBCHEM_IUPAC_INCHI>
InChI=1S/C21H24NO4/c1-22-7-6-14-9-19-20(26-12-25-19)10-15(14)17(22)8-13-4-5-18(23-2)21(24-3)16(13)11-22/h4-5,9-10,17H,6-8,11-12H2,1-3H3/q+1/t17-,22?/m0/s1

> <PUBCHEM_IUPAC_INCHIKEY>
IPABSWBNWMXCHM-LBOXEOMUSA-N

> <PUBCHEM_XLOGP3_AA>
3.1

> <PUBCHEM_EXACT_MASS>
354.170533

> <PUBCHEM_MOLECULAR_FORMULA>
C21H24NO4+

> <PUBCHEM_MOLECULAR_WEIGHT>
354.41956

> <PUBCHEM_OPENEYE_CAN_SMILES>
C[N+]12CCC3=CC4=C(C=C3C1CC5=C(C2)C(=C(C=C5)OC)OC)OCO4

> <PUBCHEM_OPENEYE_ISO_SMILES>
C[N+]12CCC3=CC4=C(C=C3[C@@H]1CC5=C(C2)C(=C(C=C5)OC)OC)OCO4

> <PUBCHEM_CACTVS_TPSA>
36.9

> <PUBCHEM_MONOISOTOPIC_WEIGHT>
354.170533

> <PUBCHEM_TOTAL_CHARGE>
1

> <PUBCHEM_HEAVY_ATOM_COUNT>
26

> <PUBCHEM_ATOM_DEF_STEREO_COUNT>
1

> <PUBCHEM_ATOM_UDEF_STEREO_COUNT>
1

> <PUBCHEM_BOND_DEF_STEREO_COUNT>
0

> <PUBCHEM_BOND_UDEF_STEREO_COUNT>
0

> <PUBCHEM_ISOTOPIC_ATOM_COUNT>
0

> <PUBCHEM_COMPONENT_COUNT>
1

> <PUBCHEM_CACTVS_TAUTO_COUNT>
1

> <PUBCHEM_COORDINATE_TYPE>
1
5
255

> <PUBCHEM_BONDANNOTATIONS>
10  14  8
10  16  8
13  15  8
13  17  8
14  18  8
15  19  8
16  20  8
17  22  8
18  21  8
19  23  8
20  21  8
22  23  8
5  12  3
6  27  5

$$$$

