159088
  -OEChem-07051212582D

 41 42  0     1  0  0  0  0  0999 V2000
    4.7717   -1.7738    0.0000 O   0  0  0  0  0  0  0  0  0  0  0  0
    4.5981    2.2110    0.0000 O   0  0  0  0  0  0  0  0  0  0  0  0
    4.5981   -2.5210    0.0000 O   0  0  0  0  0  0  0  0  0  0  0  0
    2.0000   -0.2890    0.0000 O   0  0  0  0  0  0  0  0  0  0  0  0
    5.4641   -0.2890    0.0000 C   0  0  2  0  0  0  0  0  0  0  0  0
    5.4641    0.7110    0.0000 C   0  0  2  0  0  0  0  0  0  0  0  0
    6.3580    1.2457    0.0000 C   0  0  0  0  0  0  0  0  0  0  0  0
    6.3580   -0.8236    0.0000 C   0  0  0  0  0  0  0  0  0  0  0  0
    4.5981   -0.7890    0.0000 C   0  0  1  0  0  0  0  0  0  0  0  0
    7.2641    0.7318    0.0000 C   0  0  0  0  0  0  0  0  0  0  0  0
    4.5981    1.2110    0.0000 C   0  0  2  0  0  0  0  0  0  0  0  0
    7.2641   -0.3098    0.0000 C   0  0  0  0  0  0  0  0  0  0  0  0
    5.8062   -1.2286    0.0000 C   0  0  0  0  0  0  0  0  0  0  0  0
    6.8480    2.1174    0.0000 C   0  0  0  0  0  0  0  0  0  0  0  0
    5.8481    2.1059    0.0000 C   0  0  0  0  0  0  0  0  0  0  0  0
    3.7320   -0.2890    0.0000 C   0  0  0  0  0  0  0  0  0  0  0  0
    3.7320    0.7110    0.0000 C   0  0  0  0  0  0  0  0  0  0  0  0
    4.0981   -1.6550    0.0000 C   0  0  0  0  0  0  0  0  0  0  0  0
    2.8660   -0.7890    0.0000 C   0  0  0  0  0  0  0  0  0  0  0  0
    5.4576    1.5610    0.0000 H   0  0  0  0  0  0  0  0  0  0  0  0
    5.9534   -1.2934    0.0000 H   0  0  0  0  0  0  0  0  0  0  0  0
    6.7517   -1.3026    0.0000 H   0  0  0  0  0  0  0  0  0  0  0  0
    7.8750    0.6257    0.0000 H   0  0  0  0  0  0  0  0  0  0  0  0
    7.4732    1.3155    0.0000 H   0  0  0  0  0  0  0  0  0  0  0  0
    5.1350    1.5210    0.0000 H   0  0  0  0  0  0  0  0  0  0  0  0
    7.4732   -0.8935    0.0000 H   0  0  0  0  0  0  0  0  0  0  0  0
    7.8750   -0.2037    0.0000 H   0  0  0  0  0  0  0  0  0  0  0  0
    5.2236   -1.4407    0.0000 H   0  0  0  0  0  0  0  0  0  0  0  0
    6.0183   -1.8112    0.0000 H   0  0  0  0  0  0  0  0  0  0  0  0
    6.3888   -1.0165    0.0000 H   0  0  0  0  0  0  0  0  0  0  0  0
    7.3885    1.8137    0.0000 H   0  0  0  0  0  0  0  0  0  0  0  0
    7.1518    2.6579    0.0000 H   0  0  0  0  0  0  0  0  0  0  0  0
    6.3075    2.4212    0.0000 H   0  0  0  0  0  0  0  0  0  0  0  0
    6.3814    2.4221    0.0000 H   0  0  0  0  0  0  0  0  0  0  0  0
    5.5319    2.6392    0.0000 H   0  0  0  0  0  0  0  0  0  0  0  0
    5.3148    1.7897    0.0000 H   0  0  0  0  0  0  0  0  0  0  0  0
    3.1951    1.0210    0.0000 H   0  0  0  0  0  0  0  0  0  0  0  0
    3.4781   -1.6550    0.0000 H   0  0  0  0  0  0  0  0  0  0  0  0
    5.3543   -1.9858    0.0000 H   0  0  0  0  0  0  0  0  0  0  0  0
    4.0611    2.5210    0.0000 H   0  0  0  0  0  0  0  0  0  0  0  0
    2.8660   -1.4090    0.0000 H   0  0  0  0  0  0  0  0  0  0  0  0
  9  1  1  6  0  0  0
  1 39  1  0  0  0  0
 11  2  1  6  0  0  0
  2 40  1  0  0  0  0
  3 18  2  0  0  0  0
  4 19  2  0  0  0  0
  5  6  1  0  0  0  0
  5  8  1  0  0  0  0
  5  9  1  0  0  0  0
  5 13  1  1  0  0  0
  6  7  1  0  0  0  0
  6 11  1  0  0  0  0
  6 20  1  6  0  0  0
  7 10  1  0  0  0  0
  7 14  1  0  0  0  0
  7 15  1  0  0  0  0
  8 12  1  0  0  0  0
  8 21  1  0  0  0  0
  8 22  1  0  0  0  0
  9 16  1  0  0  0  0
  9 18  1  0  0  0  0
 10 12  1  0  0  0  0
 10 23  1  0  0  0  0
 10 24  1  0  0  0  0
 11 17  1  0  0  0  0
 11 25  1  0  0  0  0
 12 26  1  0  0  0  0
 12 27  1  0  0  0  0
 13 28  1  0  0  0  0
 13 29  1  0  0  0  0
 13 30  1  0  0  0  0
 14 31  1  0  0  0  0
 14 32  1  0  0  0  0
 14 33  1  0  0  0  0
 15 34  1  0  0  0  0
 15 35  1  0  0  0  0
 15 36  1  0  0  0  0
 16 17  2  0  0  0  0
 16 19  1  0  0  0  0
 17 37  1  0  0  0  0
 18 38  1  0  0  0  0
 19 41  1  0  0  0  0
M  END
> <PUBCHEM_COMPOUND_CID>
159088

> <PUBCHEM_COMPOUND_CANONICALIZED>
1

> <PUBCHEM_CACTVS_COMPLEXITY>
439

> <PUBCHEM_CACTVS_HBOND_ACCEPTOR>
4

> <PUBCHEM_CACTVS_HBOND_DONOR>
2

> <PUBCHEM_CACTVS_ROTATABLE_BOND>
2

> <PUBCHEM_CACTVS_SUBSKEYS>
AAADceBwOAAAAAAAAAAAAAAAAAAAAAAAAAAwQAAAAAAAAACAAAAAGgAACAAAD1SggAICAAAAAgCIAihSgAIAAAAgAAAACAFAAEgAFBYAAQAAUAAEoAAIEYPJzODPgAAAAAAAAAAAAAQAACAAAAAAAAAAAA==

> <PUBCHEM_IUPAC_OPENEYE_NAME>
(1S,4S,4aS,8aS)-1,4-dihydroxy-5,5,8a-trimethyl-4a,6,7,8-tetrahydro-4H-naphthalene-1,2-dicarbaldehyde

> <PUBCHEM_IUPAC_CAS_NAME>
(1S,4S,4aS,8aS)-1,4-dihydroxy-5,5,8a-trimethyl-4a,6,7,8-tetrahydro-4H-naphthalene-1,2-dicarboxaldehyde

> <PUBCHEM_IUPAC_NAME>
(1S,4S,4aS,8aS)-1,4-dihydroxy-5,5,8a-trimethyl-4a,6,7,8-tetrahydro-4H-naphthalene-1,2-dicarbaldehyde

> <PUBCHEM_IUPAC_SYSTEMATIC_NAME>
(1S,4S,4aS,8aS)-5,5,8a-trimethyl-1,4-bis(oxidanyl)-4a,6,7,8-tetrahydro-4H-naphthalene-1,2-dicarbaldehyde

> <PUBCHEM_IUPAC_TRADITIONAL_NAME>
(1S,4S,4aS,8aS)-1,4-dihydroxy-5,5,8a-trimethyl-4a,6,7,8-tetrahydro-4H-naphthalene-1,2-dicarbaldehyde

> <PUBCHEM_IUPAC_INCHI>
InChI=1S/C15H22O4/c1-13(2)5-4-6-14(3)12(13)11(18)7-10(8-16)15(14,19)9-17/h7-9,11-12,18-19H,4-6H2,1-3H3/t11-,12-,14-,15+/m0/s1

> <PUBCHEM_IUPAC_INCHIKEY>
AMHCJQBKGMEAAJ-NZBPQXDJSA-N

> <PUBCHEM_XLOGP3_AA>
1.7

> <PUBCHEM_EXACT_MASS>
266.151809

> <PUBCHEM_MOLECULAR_FORMULA>
C15H22O4

> <PUBCHEM_MOLECULAR_WEIGHT>
266.33278

> <PUBCHEM_OPENEYE_CAN_SMILES>
CC1(CCCC2(C1C(C=C(C2(C=O)O)C=O)O)C)C

> <PUBCHEM_OPENEYE_ISO_SMILES>
C[C@]12CCCC([C@@H]1[C@H](C=C([C@@]2(C=O)O)C=O)O)(C)C

> <PUBCHEM_CACTVS_TPSA>
74.6

> <PUBCHEM_MONOISOTOPIC_WEIGHT>
266.151809

> <PUBCHEM_TOTAL_CHARGE>
0

> <PUBCHEM_HEAVY_ATOM_COUNT>
19

> <PUBCHEM_ATOM_DEF_STEREO_COUNT>
4

> <PUBCHEM_ATOM_UDEF_STEREO_COUNT>
0

> <PUBCHEM_BOND_DEF_STEREO_COUNT>
0

> <PUBCHEM_BOND_UDEF_STEREO_COUNT>
0

> <PUBCHEM_ISOTOPIC_ATOM_COUNT>
0

> <PUBCHEM_COMPONENT_COUNT>
1

> <PUBCHEM_CACTVS_TAUTO_COUNT>
1

> <PUBCHEM_COORDINATE_TYPE>
1
5
255

> <PUBCHEM_BONDANNOTATIONS>
9  1  6
11  2  6
5  13  5
6  20  6

$$$$

