50590
  -OEChem-07051213133D

 33 35  0     1  0  0  0  0  0999 V2000
   -3.6949    2.1226    1.3919 Cl  0  0  0  0  0  0  0  0  0  0  0  0
    3.4274    1.3469   -0.1503 O   0  0  0  0  0  0  0  0  0  0  0  0
    1.0740   -2.8741    0.3373 O   0  0  0  0  0  0  0  0  0  0  0  0
    2.9268   -0.5773   -1.2926 O   0  0  0  0  0  0  0  0  0  0  0  0
    0.5196   -0.5494    0.2539 N   0  0  0  0  0  0  0  0  0  0  0  0
   -1.0623   -2.3483   -0.4050 C   0  0  0  0  0  0  0  0  0  0  0  0
   -1.5827   -3.6916   -0.0360 C   0  0  0  0  0  0  0  0  0  0  0  0
   -2.1648   -2.4568    0.5873 C   0  0  0  0  0  0  0  0  0  0  0  0
    0.2984   -1.9566    0.0878 C   0  0  0  0  0  0  0  0  0  0  0  0
    1.7442   -0.0097    0.7608 C   0  0  2  0  0  0  0  0  0  0  0  0
    1.5992    1.3947    1.2972 C   0  0  0  0  0  0  0  0  0  0  0  0
    2.9719    1.9700    1.0564 C   0  0  0  0  0  0  0  0  0  0  0  0
   -0.5201    0.3872   -0.1867 C   0  0  0  0  0  0  0  0  0  0  0  0
    2.7311    0.1852   -0.3590 C   0  0  0  0  0  0  0  0  0  0  0  0
   -1.4714    0.7392    0.7198 C   0  0  0  0  0  0  0  0  0  0  0  0
   -0.4540    0.8352   -1.4695 C   0  0  0  0  0  0  0  0  0  0  0  0
   -2.4585    1.6310    0.3001 C   0  0  0  0  0  0  0  0  0  0  0  0
   -1.4410    1.7268   -1.8892 C   0  0  0  0  0  0  0  0  0  0  0  0
   -2.4431    2.1249   -1.0045 C   0  0  0  0  0  0  0  0  0  0  0  0
   -1.3070   -2.0190   -1.4101 H   0  0  0  0  0  0  0  0  0  0  0  0
   -1.0037   -4.3437    0.6060 H   0  0  0  0  0  0  0  0  0  0  0  0
   -2.1873   -4.2180   -0.7651 H   0  0  0  0  0  0  0  0  0  0  0  0
   -3.1578   -2.1557    0.2766 H   0  0  0  0  0  0  0  0  0  0  0  0
   -1.9527   -2.2830    1.6352 H   0  0  0  0  0  0  0  0  0  0  0  0
    2.1923   -0.6898    1.4939 H   0  0  0  0  0  0  0  0  0  0  0  0
    1.3113    1.4235    2.3526 H   0  0  0  0  0  0  0  0  0  0  0  0
    0.9081    2.0441    0.7539 H   0  0  0  0  0  0  0  0  0  0  0  0
    2.9493    3.0555    0.9237 H   0  0  0  0  0  0  0  0  0  0  0  0
    3.6733    1.7239    1.8607 H   0  0  0  0  0  0  0  0  0  0  0  0
   -1.4672    0.3515    1.7338 H   0  0  0  0  0  0  0  0  0  0  0  0
    0.3213    0.5234   -2.1605 H   0  0  0  0  0  0  0  0  0  0  0  0
   -1.4297    2.1102   -2.9054 H   0  0  0  0  0  0  0  0  0  0  0  0
   -3.2059    2.8202   -1.3454 H   0  0  0  0  0  0  0  0  0  0  0  0
  1 17  1  0  0  0  0
  2 12  1  0  0  0  0
  2 14  1  0  0  0  0
  3  9  2  0  0  0  0
  4 14  2  0  0  0  0
  5  9  1  0  0  0  0
  5 10  1  0  0  0  0
  5 13  1  0  0  0  0
  6  7  1  0  0  0  0
  6  8  1  0  0  0  0
  6  9  1  0  0  0  0
  6 20  1  0  0  0  0
  7  8  1  0  0  0  0
  7 21  1  0  0  0  0
  7 22  1  0  0  0  0
  8 23  1  0  0  0  0
  8 24  1  0  0  0  0
 10 11  1  0  0  0  0
 10 14  1  0  0  0  0
 10 25  1  0  0  0  0
 11 12  1  0  0  0  0
 11 26  1  0  0  0  0
 11 27  1  0  0  0  0
 12 28  1  0  0  0  0
 12 29  1  0  0  0  0
 13 15  2  0  0  0  0
 13 16  1  0  0  0  0
 15 17  1  0  0  0  0
 15 30  1  0  0  0  0
 16 18  2  0  0  0  0
 16 31  1  0  0  0  0
 17 19  2  0  0  0  0
 18 19  1  0  0  0  0
 18 32  1  0  0  0  0
 19 33  1  0  0  0  0
M  END
> <PUBCHEM_COMPOUND_CID>
50590

> <PUBCHEM_CONFORMER_RMSD>
0.8

> <PUBCHEM_CONFORMER_DIVERSEORDER>
1
43
52
35
55
70
51
68
18
21
40
48
54
66
19
69
11
25
39
26
42
13
67
12
34
65
20
17
41
60
50
46
28
15
16
62
31
57
61
47
10
56
22
33
8
64
24
29
49
38
63
4
14
2
53
30
32
59
36
23
27
44
5
9
37
7
45
3
6
58

> <PUBCHEM_MMFF94_PARTIAL_CHARGES>
27
1 -0.18
10 0.36
12 0.28
13 0.12
14 0.66
15 -0.15
16 -0.15
17 0.18
18 -0.15
19 -0.15
2 -0.43
20 0.1
21 0.1
22 0.1
23 0.1
24 0.1
3 -0.57
30 0.15
31 0.15
32 0.15
33 0.15
4 -0.57
5 -0.48
6 -0.1
7 -0.2
8 -0.2
9 0.63

> <PUBCHEM_EFFECTIVE_ROTOR_COUNT>
5.4

> <PUBCHEM_PHARMACOPHORE_FEATURES>
4
1 3 acceptor
1 4 acceptor
5 2 10 11 12 14 rings
6 13 15 16 17 18 19 rings

> <PUBCHEM_HEAVY_ATOM_COUNT>
19

> <PUBCHEM_ATOM_DEF_STEREO_COUNT>
0

> <PUBCHEM_ATOM_UDEF_STEREO_COUNT>
1

> <PUBCHEM_BOND_DEF_STEREO_COUNT>
0

> <PUBCHEM_BOND_UDEF_STEREO_COUNT>
0

> <PUBCHEM_ISOTOPIC_ATOM_COUNT>
0

> <PUBCHEM_COMPONENT_COUNT>
1

> <PUBCHEM_CACTVS_TAUTO_COUNT>
2

> <PUBCHEM_CONFORMER_ID>
0000C59E00000001

> <PUBCHEM_MMFF94_ENERGY>
73.8019

> <PUBCHEM_FEATURE_SELFOVERLAP>
20.297

> <PUBCHEM_SHAPE_FINGERPRINT>
10064457 181 18264470927629831505
10165383 225 18268408291548557484
104564 63 18267305339767950315
11322862 65 18409157809996076543
11578080 2 13851998643496109259
11582403 64 16123364477151742613
12035759 4 17409348599478388901
13132413 78 17330557540771645885
13140716 1 18409455799559864562
13681431 1 17116086239763761855
13911987 19 17548416359453269414
14614273 12 18270981058378194983
14787075 74 17970367927184005517
14817 1 14729142295355484421
14955137 171 16538466001093701728
15309172 13 18341331214222621653
15490181 7 18341899622926196618
16945 1 18339648841104085099
17357779 13 17831037735949106599
18981168 100 18041010496468434672
19591789 44 18338790225597109163
20388701 513 18051142397181323778
20510252 161 18050299067589074328
20511035 2 16984931961712525940
20600515 1 17406004959133166082
21041028 32 17622711030357010035
21524375 3 18271528705331531243
22112679 90 17842823439562445589
23388829 49 17695618550893157333
23402539 116 17834692499931189982
23419403 2 16520697102883353733
23557571 272 18051416167287275438
23558518 356 18260275109601118533
238 59 17838361896534328213
25 1 18187643673651938156
2748010 2 18335707096371614008
31174 14 17619340348807923553
350125 39 18412549841959518354
3729539 64 17691373710619834486
458136 41 18122609807178724369
495365 180 17909571771392197477
568465 68 17550392177473644299
633830 44 17968658358006152357
6442390 28 18337380617551731401
81228 2 18127129675773077067
8272917 22 17829602117693118897
9981440 41 16737532821915921168

> <PUBCHEM_SHAPE_MULTIPOLES>
370.29
4.89
3.88
1.42
1.33
3.97
0.33
-3.51
-0.93
-2.31
-0.38
-0.39
-0.92
0.43

> <PUBCHEM_SHAPE_SELFOVERLAP>
787.953

> <PUBCHEM_SHAPE_VOLUME>
207.9

> <PUBCHEM_COORDINATE_TYPE>
2
5
10

$$$$

