439202
  -OEChem-07051212443D

 24 23  0     1  0  0  0  0  0999 V2000
   -1.4798   -0.2060   -0.0399 O   0  0  0  0  0  0  0  0  0  0  0  0
    3.4742   -1.5636    0.6272 O   0  0  0  0  0  0  0  0  0  0  0  0
    4.3094   -0.0262   -0.8150 O   0  0  0  0  0  0  0  0  0  0  0  0
    2.3868    1.7768   -0.2491 N   0  0  0  0  0  0  0  0  0  0  0  0
   -2.6110    0.5679    0.2588 N   0  0  0  0  0  0  0  0  0  0  0  0
   -4.9405    0.4673    0.1444 N   0  0  0  0  0  0  0  0  0  0  0  0
   -3.7653   -1.3457   -0.6016 N   0  0  0  0  0  0  0  0  0  0  0  0
    0.9499   -0.2403    0.0197 C   0  0  0  0  0  0  0  0  0  0  0  0
    2.2534    0.4758    0.4057 C   0  0  1  0  0  0  0  0  0  0  0  0
   -0.3271    0.5422    0.3177 C   0  0  0  0  0  0  0  0  0  0  0  0
    3.4489   -0.3638   -0.0122 C   0  0  0  0  0  0  0  0  0  0  0  0
   -3.6987   -0.0844   -0.0557 C   0  0  0  0  0  0  0  0  0  0  0  0
    0.8898   -1.2074    0.5365 H   0  0  0  0  0  0  0  0  0  0  0  0
    0.9628   -0.4988   -1.0484 H   0  0  0  0  0  0  0  0  0  0  0  0
    2.3015    0.6275    1.4895 H   0  0  0  0  0  0  0  0  0  0  0  0
   -0.3704    0.7772    1.3882 H   0  0  0  0  0  0  0  0  0  0  0  0
   -0.3323    1.4835   -0.2442 H   0  0  0  0  0  0  0  0  0  0  0  0
    2.3719    1.6621   -1.2617 H   0  0  0  0  0  0  0  0  0  0  0  0
    3.2858    2.1951   -0.0140 H   0  0  0  0  0  0  0  0  0  0  0  0
    4.2489   -2.1030    0.3607 H   0  0  0  0  0  0  0  0  0  0  0  0
   -5.0443    1.3950    0.5409 H   0  0  0  0  0  0  0  0  0  0  0  0
   -5.7883   -0.0335   -0.0983 H   0  0  0  0  0  0  0  0  0  0  0  0
   -4.6545   -1.7832   -0.8171 H   0  0  0  0  0  0  0  0  0  0  0  0
   -2.9236   -1.8742   -0.8039 H   0  0  0  0  0  0  0  0  0  0  0  0
  1  5  1  0  0  0  0
  1 10  1  0  0  0  0
  2 11  1  0  0  0  0
  2 20  1  0  0  0  0
  3 11  2  0  0  0  0
  4  9  1  0  0  0  0
  4 18  1  0  0  0  0
  4 19  1  0  0  0  0
  5 12  2  0  0  0  0
  6 12  1  0  0  0  0
  6 21  1  0  0  0  0
  6 22  1  0  0  0  0
  7 12  1  0  0  0  0
  7 23  1  0  0  0  0
  7 24  1  0  0  0  0
  8  9  1  0  0  0  0
  8 10  1  0  0  0  0
  8 13  1  0  0  0  0
  8 14  1  0  0  0  0
  9 11  1  0  0  0  0
  9 15  1  0  0  0  0
 10 16  1  0  0  0  0
 10 17  1  0  0  0  0
M  END
> <PUBCHEM_COMPOUND_CID>
439202

> <PUBCHEM_CONFORMER_RMSD>
0.6

> <PUBCHEM_CONFORMER_DIVERSEORDER>
1
81
60
19
45
80
51
9
47
70
6
72
53
4
49
12
78
38
25
64
42
69
37
79
10
68
48
28
24
61
15
65
50
75
43
7
67
33
82
74
3
39
66
5
21
30
17
27
44
23
71
31
2
20
56
46
63
36
34
22
26
76
14
29
59
40
18
16
11
8
77
73
54
32
58
55
57
13
35
62
41
52

> <PUBCHEM_MMFF94_PARTIAL_CHARGES>
18
1 -0.22
10 0.28
11 0.66
12 0.55
18 0.36
19 0.36
2 -0.65
20 0.5
21 0.4
22 0.4
23 0.4
24 0.4
3 -0.57
4 -0.99
5 -0.51
6 -0.85
7 -0.85
9 0.33

> <PUBCHEM_EFFECTIVE_ROTOR_COUNT>
5

> <PUBCHEM_PHARMACOPHORE_FEATURES>
8
1 2 acceptor
1 3 acceptor
1 4 cation
1 4 donor
1 6 donor
1 7 donor
3 2 3 11 anion
4 5 6 7 12 cation

> <PUBCHEM_HEAVY_ATOM_COUNT>
12

> <PUBCHEM_ATOM_DEF_STEREO_COUNT>
1

> <PUBCHEM_ATOM_UDEF_STEREO_COUNT>
0

> <PUBCHEM_BOND_DEF_STEREO_COUNT>
0

> <PUBCHEM_BOND_UDEF_STEREO_COUNT>
0

> <PUBCHEM_ISOTOPIC_ATOM_COUNT>
0

> <PUBCHEM_COMPONENT_COUNT>
1

> <PUBCHEM_CACTVS_TAUTO_COUNT>
2

> <PUBCHEM_CONFORMER_ID>
0006B3A200000001

> <PUBCHEM_MMFF94_ENERGY>
18.3011

> <PUBCHEM_FEATURE_SELFOVERLAP>
40.708

> <PUBCHEM_SHAPE_FINGERPRINT>
11062470 55 11384115245424957497
11987891 38 18409448089687665163
12932764 1 17203343186228089161
14123238 8 8286197253917192353
14251717 144 18271810167745528634
14325111 11 18408887300255430273
15242433 33 18412543219188324695
15477762 27 18411981373526535270
177051 138 17967814946487153582
17834072 33 18334573495710021468
18186145 218 17632303345690536857
190213 19 17312821576206720115
20645477 70 17346319353504590058
21119208 17 18407759239948408681
22485316 2 18335144184766982259
23402539 116 17676213498599141573
23402655 69 18342739645346103668
42 15 16081083805350554758
449060 50 8142079875297265353
522135 26 18273495684700042968

> <PUBCHEM_SHAPE_MULTIPOLES>
209.42
9.78
1.22
0.7
5.62
0.01
-0.01
1.39
-0.87
-0.56
-0.01
-0.26
0.05
-0.56

> <PUBCHEM_SHAPE_SELFOVERLAP>
396.056

> <PUBCHEM_SHAPE_VOLUME>
129.1

> <PUBCHEM_COORDINATE_TYPE>
2
5
10

$$$$

