1935
  -OEChem-07051212453D

 29 31  0     0  0  0  0  0  0999 V2000
    0.0175   -1.5501   -0.0295 N   0  0  0  0  0  0  0  0  0  0  0  0
    0.0127    2.6440    0.0522 N   0  0  0  0  0  0  0  0  0  0  0  0
   -3.7042    0.4482   -0.3391 C   0  0  0  0  0  0  0  0  0  0  0  0
   -2.4938    1.2997    0.0422 C   0  0  0  0  0  0  0  0  0  0  0  0
   -3.6507   -0.9029    0.3644 C   0  0  0  0  0  0  0  0  0  0  0  0
   -1.1968    0.5400   -0.0086 C   0  0  0  0  0  0  0  0  0  0  0  0
   -2.4066   -1.6755   -0.0683 C   0  0  0  0  0  0  0  0  0  0  0  0
   -1.1469   -0.8518   -0.0147 C   0  0  0  0  0  0  0  0  0  0  0  0
    0.0182    1.2248    0.0139 C   0  0  0  0  0  0  0  0  0  0  0  0
    1.2317    0.5262    0.0062 C   0  0  0  0  0  0  0  0  0  0  0  0
    1.1840   -0.8800   -0.0169 C   0  0  0  0  0  0  0  0  0  0  0  0
    2.4680    1.1948    0.0224 C   0  0  0  0  0  0  0  0  0  0  0  0
    2.3892   -1.5770   -0.0262 C   0  0  0  0  0  0  0  0  0  0  0  0
    3.6588    0.4741    0.0134 C   0  0  0  0  0  0  0  0  0  0  0  0
    3.6189   -0.9142   -0.0115 C   0  0  0  0  0  0  0  0  0  0  0  0
   -4.6262    0.9777   -0.0742 H   0  0  0  0  0  0  0  0  0  0  0  0
   -3.7239    0.2931   -1.4256 H   0  0  0  0  0  0  0  0  0  0  0  0
   -2.6312    1.6863    1.0598 H   0  0  0  0  0  0  0  0  0  0  0  0
   -2.4758    2.1506   -0.6483 H   0  0  0  0  0  0  0  0  0  0  0  0
   -4.5475   -1.4872    0.1301 H   0  0  0  0  0  0  0  0  0  0  0  0
   -3.6387   -0.7514    1.4512 H   0  0  0  0  0  0  0  0  0  0  0  0
   -2.5356   -2.0246   -1.1003 H   0  0  0  0  0  0  0  0  0  0  0  0
   -2.2935   -2.5629    0.5653 H   0  0  0  0  0  0  0  0  0  0  0  0
    2.5578    2.2757    0.0417 H   0  0  0  0  0  0  0  0  0  0  0  0
    2.3844   -2.6653   -0.0447 H   0  0  0  0  0  0  0  0  0  0  0  0
   -0.8551    3.1524    0.1452 H   0  0  0  0  0  0  0  0  0  0  0  0
    0.8646    3.1830    0.0356 H   0  0  0  0  0  0  0  0  0  0  0  0
    4.6124    0.9930    0.0255 H   0  0  0  0  0  0  0  0  0  0  0  0
    4.5426   -1.4855   -0.0188 H   0  0  0  0  0  0  0  0  0  0  0  0
  1  8  2  0  0  0  0
  1 11  1  0  0  0  0
  2  9  1  0  0  0  0
  2 26  1  0  0  0  0
  2 27  1  0  0  0  0
  3  4  1  0  0  0  0
  3  5  1  0  0  0  0
  3 16  1  0  0  0  0
  3 17  1  0  0  0  0
  4  6  1  0  0  0  0
  4 18  1  0  0  0  0
  4 19  1  0  0  0  0
  5  7  1  0  0  0  0
  5 20  1  0  0  0  0
  5 21  1  0  0  0  0
  6  8  1  0  0  0  0
  6  9  2  0  0  0  0
  7  8  1  0  0  0  0
  7 22  1  0  0  0  0
  7 23  1  0  0  0  0
  9 10  1  0  0  0  0
 10 11  1  0  0  0  0
 10 12  2  0  0  0  0
 11 13  2  0  0  0  0
 12 14  1  0  0  0  0
 12 24  1  0  0  0  0
 13 15  1  0  0  0  0
 13 25  1  0  0  0  0
 14 15  2  0  0  0  0
 14 28  1  0  0  0  0
 15 29  1  0  0  0  0
M  END
> <PUBCHEM_COMPOUND_CID>
1935

> <PUBCHEM_CONFORMER_RMSD>
0.4

> <PUBCHEM_CONFORMER_DIVERSEORDER>
1

> <PUBCHEM_MMFF94_PARTIAL_CHARGES>
18
1 -0.62
11 0.31
12 -0.15
13 -0.15
14 -0.15
15 -0.15
2 -0.9
24 0.15
25 0.15
26 0.4
27 0.4
28 0.15
29 0.15
4 0.14
6 -0.14
7 0.14
8 0.17
9 0.1

> <PUBCHEM_EFFECTIVE_ROTOR_COUNT>
0.8

> <PUBCHEM_PHARMACOPHORE_FEATURES>
6
1 1 acceptor
1 2 cation
1 2 donor
6 1 6 8 9 10 11 rings
6 10 11 12 13 14 15 rings
6 3 4 5 6 7 8 rings

> <PUBCHEM_HEAVY_ATOM_COUNT>
15

> <PUBCHEM_ATOM_DEF_STEREO_COUNT>
0

> <PUBCHEM_ATOM_UDEF_STEREO_COUNT>
0

> <PUBCHEM_BOND_DEF_STEREO_COUNT>
0

> <PUBCHEM_BOND_UDEF_STEREO_COUNT>
0

> <PUBCHEM_ISOTOPIC_ATOM_COUNT>
0

> <PUBCHEM_COMPONENT_COUNT>
1

> <PUBCHEM_CACTVS_TAUTO_COUNT>
5

> <PUBCHEM_CONFORMER_ID>
0000078F00000001

> <PUBCHEM_MMFF94_ENERGY>
52.0055

> <PUBCHEM_FEATURE_SELFOVERLAP>
30.501

> <PUBCHEM_SHAPE_FINGERPRINT>
10411042 1 15672666496942050692
10608611 8 18410859858190802485
10967382 1 18410575097616760462
11132069 177 18409737252581599496
11471102 20 18410298007748749278
11806522 49 18339082571304656199
12032990 46 18410569595700337766
12382932 28 18408886260583213928
13140716 1 18338517546480864266
13221675 6 18410575084663260806
13296908 3 18411981364372377643
13380535 76 18410013251401589854
14144814 61 18409729573148484203
14325111 11 18411136939405153484
15196674 1 18410856563940044615
15219456 202 18410013229926350567
15442244 35 18194683902391605666
15536298 74 18334294262642675722
16945 1 18194404377044950823
17844478 74 18059852874546875973
18186145 218 17918278670443051094
200 152 18040725744938098487
20201158 50 18411138051844082531
20510252 161 18260547874130997576
20645477 70 18336269032544474951
21029758 11 18334584538086854473
21267235 1 18410846668346372866
21501502 16 18410854364932626306
221490 88 18269548338887554650
2334 1 18410855430100469894
23402539 116 18261404359344893478
23402655 69 18263939872678505045
23463225 33 18412262839496579990
23559900 14 18336833104027367282
2748010 2 18410013234242417022
3071541 158 18272370832538848301
3312278 4 18411416223948517313
335352 9 18050287269102824831
34934 24 18410302405811214378
5104073 3 18411138047506697347
528886 8 18409736165949676794
537710 114 18411412895423008276
53812653 166 18261960647946593360
69090 78 18334019393278453591
7364860 26 18191868911832251240
8809292 202 18272646805889260595
9709674 26 18410288103628634782

> <PUBCHEM_SHAPE_MULTIPOLES>
298.73
6.32
2.06
0.62
0.24
0.47
0
-0.98
0
0.08
-0.02
0.06
-0.01
0.11

> <PUBCHEM_SHAPE_SELFOVERLAP>
661.188

> <PUBCHEM_SHAPE_VOLUME>
158.8

> <PUBCHEM_COORDINATE_TYPE>
2
5
10

$$$$

