122838
  -OEChem-07051213152D

 38 42  0     1  0  0  0  0  0999 V2000
    7.0761   -2.0956    0.0000 O   0  0  0  0  0  0  0  0  0  0  0  0
    7.3242    0.1827    0.0000 O   0  0  0  0  0  0  0  0  0  0  0  0
    2.0000    1.2491    0.0000 O   0  0  0  0  0  0  0  0  0  0  0  0
    5.5986    3.3268    0.0000 O   0  0  0  0  0  0  0  0  0  0  0  0
    4.7261   -1.3173    0.0000 C   0  0  2  0  0  0  0  0  0  0  0  0
    3.8161   -1.8241    0.0000 C   0  0  0  0  0  0  0  0  0  0  0  0
    5.5921   -1.8173    0.0000 C   0  0  0  0  0  0  0  0  0  0  0  0
    4.7261   -0.3173    0.0000 C   0  0  0  0  0  0  0  0  0  0  0  0
    3.8081   -2.8657    0.0000 C   0  0  0  0  0  0  0  0  0  0  0  0
    5.6082   -2.8588    0.0000 C   0  0  0  0  0  0  0  0  0  0  0  0
    4.7101   -3.3866    0.0000 C   0  0  0  0  0  0  0  0  0  0  0  0
    3.8601   -0.8173    0.0000 C   0  0  0  0  0  0  0  0  0  0  0  0
    6.4582   -1.3173    0.0000 C   0  0  0  0  0  0  0  0  0  0  0  0
    5.5921    0.1827    0.0000 C   0  0  0  0  0  0  0  0  0  0  0  0
    6.4582   -0.3173    0.0000 C   0  0  0  0  0  0  0  0  0  0  0  0
    3.8161    0.1896    0.0000 C   0  0  0  0  0  0  0  0  0  0  0  0
    6.5962   -2.9659    0.0000 C   0  0  0  0  0  0  0  0  0  0  0  0
    5.6082    1.2242    0.0000 C   0  0  0  0  0  0  0  0  0  0  0  0
    3.8081    1.2312    0.0000 C   0  0  0  0  0  0  0  0  0  0  0  0
    4.7101    1.7520    0.0000 C   0  0  0  0  0  0  0  0  0  0  0  0
    2.8602    1.7591    0.0000 C   0  0  0  0  0  0  0  0  0  0  0  0
    4.7269    2.8368    0.0000 C   0  0  0  0  0  0  0  0  0  0  0  0
    2.8518    2.8441    0.0000 C   0  0  0  0  0  0  0  0  0  0  0  0
    3.7914    3.3866    0.0000 C   0  0  0  0  0  0  0  0  0  0  0  0
    3.6116   -1.2389    0.0000 H   0  0  0  0  0  0  0  0  0  0  0  0
    3.2044   -1.9255    0.0000 H   0  0  0  0  0  0  0  0  0  0  0  0
    3.1980   -2.7549    0.0000 H   0  0  0  0  0  0  0  0  0  0  0  0
    3.5945   -3.4478    0.0000 H   0  0  0  0  0  0  0  0  0  0  0  0
    4.3128   -3.8625    0.0000 H   0  0  0  0  0  0  0  0  0  0  0  0
    5.1111   -3.8594    0.0000 H   0  0  0  0  0  0  0  0  0  0  0  0
    4.1701   -0.2804    0.0000 H   0  0  0  0  0  0  0  0  0  0  0  0
    3.3231   -0.5073    0.0000 H   0  0  0  0  0  0  0  0  0  0  0  0
    3.5501   -1.3542    0.0000 H   0  0  0  0  0  0  0  0  0  0  0  0
    3.2828   -0.1266    0.0000 H   0  0  0  0  0  0  0  0  0  0  0  0
    6.8822   -3.5160    0.0000 H   0  0  0  0  0  0  0  0  0  0  0  0
    6.1487    1.5280    0.0000 H   0  0  0  0  0  0  0  0  0  0  0  0
    2.3137    3.1520    0.0000 H   0  0  0  0  0  0  0  0  0  0  0  0
    3.7938    4.0066    0.0000 H   0  0  0  0  0  0  0  0  0  0  0  0
  1 13  1  0  0  0  0
  1 17  1  0  0  0  0
  2 15  2  0  0  0  0
  3 21  2  0  0  0  0
  4 22  2  0  0  0  0
  5  6  1  0  0  0  0
  5  7  1  0  0  0  0
  5  8  1  0  0  0  0
  5 12  1  6  0  0  0
  6  9  1  0  0  0  0
  6 25  1  0  0  0  0
  6 26  1  0  0  0  0
  7 10  1  0  0  0  0
  7 13  2  0  0  0  0
  8 14  2  0  0  0  0
  8 16  1  0  0  0  0
  9 11  1  0  0  0  0
  9 27  1  0  0  0  0
  9 28  1  0  0  0  0
 10 11  1  0  0  0  0
 10 17  2  0  0  0  0
 11 29  1  0  0  0  0
 11 30  1  0  0  0  0
 12 31  1  0  0  0  0
 12 32  1  0  0  0  0
 12 33  1  0  0  0  0
 13 15  1  0  0  0  0
 14 15  1  0  0  0  0
 14 18  1  0  0  0  0
 16 19  2  0  0  0  0
 16 34  1  0  0  0  0
 17 35  1  0  0  0  0
 18 20  2  0  0  0  0
 18 36  1  0  0  0  0
 19 20  1  0  0  0  0
 19 21  1  0  0  0  0
 20 22  1  0  0  0  0
 21 23  1  0  0  0  0
 22 24  1  0  0  0  0
 23 24  2  0  0  0  0
 23 37  1  0  0  0  0
 24 38  1  0  0  0  0
M  END
> <PUBCHEM_COMPOUND_CID>
122838

> <PUBCHEM_COMPOUND_CANONICALIZED>
1

> <PUBCHEM_CACTVS_COMPLEXITY>
665

> <PUBCHEM_CACTVS_HBOND_ACCEPTOR>
4

> <PUBCHEM_CACTVS_HBOND_DONOR>
0

> <PUBCHEM_CACTVS_ROTATABLE_BOND>
0

> <PUBCHEM_CACTVS_SUBSKEYS>
AAADccB4OAAAAAAAAAAAAAAAAAAAASAAAAAwYMEAAAAAAEjBwAAAGgAAAAAADgSgmAIyBIAABECIAqhSgAICCAAkIAAIiAFECMgMJjKENR6COSCkwBEIqYeJzvCvwAACAAAQAADAAAYAADAAAAAAAAAAAA==

> <PUBCHEM_IUPAC_INCHI>
InChI=1S/C20H14O4/c1-20-6-2-3-10-9-24-19(17(10)20)18(23)13-7-11-12(8-14(13)20)16(22)5-4-15(11)21/h4-5,7-9H,2-3,6H2,1H3/t20-/m0/s1

> <PUBCHEM_IUPAC_INCHIKEY>
HDONDRKCXFRHQQ-FQEVSTJZSA-N

> <PUBCHEM_XLOGP3_AA>
3.7

> <PUBCHEM_EXACT_MASS>
318.089209

> <PUBCHEM_MOLECULAR_FORMULA>
C20H14O4

> <PUBCHEM_MOLECULAR_WEIGHT>
318.32276

> <PUBCHEM_OPENEYE_CAN_SMILES>
CC12CCCC3=COC(=C31)C(=O)C4=C2C=C5C(=O)C=CC(=O)C5=C4

> <PUBCHEM_OPENEYE_ISO_SMILES>
C[C@@]12CCCC3=COC(=C31)C(=O)C4=C2C=C5C(=O)C=CC(=O)C5=C4

> <PUBCHEM_CACTVS_TPSA>
64.4

> <PUBCHEM_MONOISOTOPIC_WEIGHT>
318.089209

> <PUBCHEM_TOTAL_CHARGE>
0

> <PUBCHEM_HEAVY_ATOM_COUNT>
24

> <PUBCHEM_ATOM_DEF_STEREO_COUNT>
1

> <PUBCHEM_ATOM_UDEF_STEREO_COUNT>
0

> <PUBCHEM_BOND_DEF_STEREO_COUNT>
0

> <PUBCHEM_BOND_UDEF_STEREO_COUNT>
0

> <PUBCHEM_ISOTOPIC_ATOM_COUNT>
0

> <PUBCHEM_COMPONENT_COUNT>
1

> <PUBCHEM_CACTVS_TAUTO_COUNT>
1

> <PUBCHEM_COORDINATE_TYPE>
1
5
255

> <PUBCHEM_BONDANNOTATIONS>
1  13  8
1  17  8
10  17  8
14  18  8
16  19  8
18  20  8
19  20  8
5  12  6
7  10  8
7  13  8
8  14  8
8  16  8

$$$$

