439221
  -OEChem-07051212442D

 87 87  0     1  0  0  0  0  0999 V2000
    9.7942    2.9728    0.0000 O   0  0  0  0  0  0  0  0  0  0  0  0
   10.8962    3.7734    0.0000 O   0  0  0  0  0  0  0  0  0  0  0  0
    6.3301    1.9728    0.0000 O   0  0  0  0  0  0  0  0  0  0  0  0
    7.1962   -1.5272    0.0000 O   0  0  0  0  0  0  0  0  0  0  0  0
    3.7320   -2.5272    0.0000 O   0  0  0  0  0  0  0  0  0  0  0  0
    2.8660   -3.0272    0.0000 O   0  0  0  0  0  0  0  0  0  0  0  0
    8.9282    4.4728    0.0000 N   0  0  0  0  0  0  0  0  0  0  0  0
    8.0622    1.9728    0.0000 N   0  0  0  0  0  0  0  0  0  0  0  0
   11.4314    5.4207    0.0000 N   0  0  0  0  0  0  0  0  0  0  0  0
    5.4641   -2.5272    0.0000 N   0  0  0  0  0  0  0  0  0  0  0  0
    6.3301   -0.0272    0.0000 N   0  0  0  0  0  0  0  0  0  0  0  0
    3.7320   -4.5272    0.0000 N   0  0  0  0  0  0  0  0  0  0  0  0
    9.7372    5.0606    0.0000 C   0  0  1  0  0  0  0  0  0  0  0  0
    9.4282    6.0117    0.0000 C   0  0  0  0  0  0  0  0  0  0  0  0
    8.1192    5.0606    0.0000 C   0  0  0  0  0  0  0  0  0  0  0  0
    8.4282    6.0117    0.0000 C   0  0  0  0  0  0  0  0  0  0  0  0
    8.0622    2.9728    0.0000 C   0  0  2  0  0  0  0  0  0  0  0  0
    8.9282    3.4728    0.0000 C   0  0  0  0  0  0  0  0  0  0  0  0
    7.1962    3.4728    0.0000 C   0  0  0  0  0  0  0  0  0  0  0  0
   10.6883    4.7516    0.0000 C   0  0  0  0  0  0  0  0  0  0  0  0
    6.3301    2.9728    0.0000 C   0  0  0  0  0  0  0  0  0  0  0  0
    7.1962    4.4728    0.0000 C   0  0  0  0  0  0  0  0  0  0  0  0
    4.5981   -1.0272    0.0000 C   0  0  2  0  0  0  0  0  0  0  0  0
    5.4641   -1.5272    0.0000 C   0  0  1  0  0  0  0  0  0  0  0  0
    7.1962    1.4728    0.0000 C   0  0  0  0  0  0  0  0  0  0  0  0
    3.7320   -1.5272    0.0000 C   0  0  0  0  0  0  0  0  0  0  0  0
    4.5981   -4.0272    0.0000 C   0  0  1  0  0  0  0  0  0  0  0  0
    5.4641   -4.5272    0.0000 C   0  0  0  0  0  0  0  0  0  0  0  0
    6.3301   -1.0272    0.0000 C   0  0  0  0  0  0  0  0  0  0  0  0
    7.1962    0.4728    0.0000 C   0  0  0  0  0  0  0  0  0  0  0  0
    5.4641   -5.5272    0.0000 C   0  0  0  0  0  0  0  0  0  0  0  0
    4.5981   -0.0272    0.0000 C   0  0  0  0  0  0  0  0  0  0  0  0
    4.5981   -3.0272    0.0000 C   0  0  0  0  0  0  0  0  0  0  0  0
   12.3825    5.1117    0.0000 C   0  0  0  0  0  0  0  0  0  0  0  0
    2.8660   -1.0272    0.0000 C   0  0  0  0  0  0  0  0  0  0  0  0
    6.3301   -6.0272    0.0000 C   0  0  0  0  0  0  0  0  0  0  0  0
    4.5981   -6.0272    0.0000 C   0  0  0  0  0  0  0  0  0  0  0  0
    2.8660   -4.0272    0.0000 C   0  0  0  0  0  0  0  0  0  0  0  0
    2.0000   -4.5272    0.0000 C   0  0  0  0  0  0  0  0  0  0  0  0
    9.8342    4.4482    0.0000 H   0  0  0  0  0  0  0  0  0  0  0  0
   10.0347    6.1406    0.0000 H   0  0  0  0  0  0  0  0  0  0  0  0
    9.3634    6.6283    0.0000 H   0  0  0  0  0  0  0  0  0  0  0  0
    7.5528    5.3128    0.0000 H   0  0  0  0  0  0  0  0  0  0  0  0
    7.8092    4.5237    0.0000 H   0  0  0  0  0  0  0  0  0  0  0  0
    8.4930    6.6283    0.0000 H   0  0  0  0  0  0  0  0  0  0  0  0
    7.8218    6.1406    0.0000 H   0  0  0  0  0  0  0  0  0  0  0  0
    7.5252    2.6628    0.0000 H   0  0  0  0  0  0  0  0  0  0  0  0
    6.6592    3.7828    0.0000 H   0  0  0  0  0  0  0  0  0  0  0  0
    8.5991    1.6628    0.0000 H   0  0  0  0  0  0  0  0  0  0  0  0
    5.1350   -0.7172    0.0000 H   0  0  0  0  0  0  0  0  0  0  0  0
    6.0010   -1.8372    0.0000 H   0  0  0  0  0  0  0  0  0  0  0  0
    6.0201    3.5098    0.0000 H   0  0  0  0  0  0  0  0  0  0  0  0
    5.7932    2.6628    0.0000 H   0  0  0  0  0  0  0  0  0  0  0  0
    6.6401    2.4359    0.0000 H   0  0  0  0  0  0  0  0  0  0  0  0
    7.8162    4.4728    0.0000 H   0  0  0  0  0  0  0  0  0  0  0  0
    7.1962    5.0928    0.0000 H   0  0  0  0  0  0  0  0  0  0  0  0
    6.5762    4.4728    0.0000 H   0  0  0  0  0  0  0  0  0  0  0  0
   11.3025    6.0272    0.0000 H   0  0  0  0  0  0  0  0  0  0  0  0
    3.3335   -2.0021    0.0000 H   0  0  0  0  0  0  0  0  0  0  0  0
    4.1306   -2.0021    0.0000 H   0  0  0  0  0  0  0  0  0  0  0  0
    4.5981   -4.6472    0.0000 H   0  0  0  0  0  0  0  0  0  0  0  0
    6.0747   -4.6348    0.0000 H   0  0  0  0  0  0  0  0  0  0  0  0
    5.6762   -3.9446    0.0000 H   0  0  0  0  0  0  0  0  0  0  0  0
    6.0010   -2.8372    0.0000 H   0  0  0  0  0  0  0  0  0  0  0  0
    7.4082   -0.1098    0.0000 H   0  0  0  0  0  0  0  0  0  0  0  0
    7.8067    0.5805    0.0000 H   0  0  0  0  0  0  0  0  0  0  0  0
    5.4641   -6.1472    0.0000 H   0  0  0  0  0  0  0  0  0  0  0  0
    5.2181   -0.0272    0.0000 H   0  0  0  0  0  0  0  0  0  0  0  0
    4.5981    0.5928    0.0000 H   0  0  0  0  0  0  0  0  0  0  0  0
    3.9781   -0.0272    0.0000 H   0  0  0  0  0  0  0  0  0  0  0  0
    5.7932    0.2828    0.0000 H   0  0  0  0  0  0  0  0  0  0  0  0
   12.1909    4.5220    0.0000 H   0  0  0  0  0  0  0  0  0  0  0  0
   12.9721    4.9201    0.0000 H   0  0  0  0  0  0  0  0  0  0  0  0
   12.5741    5.7014    0.0000 H   0  0  0  0  0  0  0  0  0  0  0  0
    3.1760   -0.4902    0.0000 H   0  0  0  0  0  0  0  0  0  0  0  0
    2.3291   -0.7172    0.0000 H   0  0  0  0  0  0  0  0  0  0  0  0
    2.5560   -1.5641    0.0000 H   0  0  0  0  0  0  0  0  0  0  0  0
    3.7320   -5.1472    0.0000 H   0  0  0  0  0  0  0  0  0  0  0  0
    6.0201   -6.5641    0.0000 H   0  0  0  0  0  0  0  0  0  0  0  0
    6.8671   -6.3372    0.0000 H   0  0  0  0  0  0  0  0  0  0  0  0
    6.6401   -5.4902    0.0000 H   0  0  0  0  0  0  0  0  0  0  0  0
    4.2881   -5.4902    0.0000 H   0  0  0  0  0  0  0  0  0  0  0  0
    4.0611   -6.3372    0.0000 H   0  0  0  0  0  0  0  0  0  0  0  0
    4.9081   -6.5641    0.0000 H   0  0  0  0  0  0  0  0  0  0  0  0
    1.6900   -3.9902    0.0000 H   0  0  0  0  0  0  0  0  0  0  0  0
    1.4631   -4.8372    0.0000 H   0  0  0  0  0  0  0  0  0  0  0  0
    2.3100   -5.0641    0.0000 H   0  0  0  0  0  0  0  0  0  0  0  0
  1 18  2  0  0  0  0
  2 20  2  0  0  0  0
  3 25  2  0  0  0  0
  4 29  2  0  0  0  0
  5 33  2  0  0  0  0
  6 38  2  0  0  0  0
  7 13  1  0  0  0  0
  7 15  1  0  0  0  0
  7 18  1  0  0  0  0
 17  8  1  1  0  0  0
  8 25  1  0  0  0  0
  8 49  1  0  0  0  0
  9 20  1  0  0  0  0
  9 34  1  0  0  0  0
  9 58  1  0  0  0  0
 24 10  1  1  0  0  0
 10 33  1  0  0  0  0
 10 64  1  0  0  0  0
 11 29  1  0  0  0  0
 11 30  1  0  0  0  0
 11 71  1  0  0  0  0
 27 12  1  6  0  0  0
 12 38  1  0  0  0  0
 12 78  1  0  0  0  0
 13 14  1  0  0  0  0
 13 20  1  1  0  0  0
 13 40  1  0  0  0  0
 14 16  1  0  0  0  0
 14 41  1  0  0  0  0
 14 42  1  0  0  0  0
 15 16  1  0  0  0  0
 15 43  1  0  0  0  0
 15 44  1  0  0  0  0
 16 45  1  0  0  0  0
 16 46  1  0  0  0  0
 17 18  1  0  0  0  0
 17 19  1  0  0  0  0
 17 47  1  0  0  0  0
 19 21  1  0  0  0  0
 19 22  1  0  0  0  0
 19 48  1  0  0  0  0
 21 52  1  0  0  0  0
 21 53  1  0  0  0  0
 21 54  1  0  0  0  0
 22 55  1  0  0  0  0
 22 56  1  0  0  0  0
 22 57  1  0  0  0  0
 23 24  1  0  0  0  0
 23 26  1  0  0  0  0
 23 32  1  6  0  0  0
 23 50  1  0  0  0  0
 24 29  1  0  0  0  0
 24 51  1  0  0  0  0
 25 30  1  0  0  0  0
 26 35  1  0  0  0  0
 26 59  1  0  0  0  0
 26 60  1  0  0  0  0
 27 28  1  0  0  0  0
 27 33  1  0  0  0  0
 27 61  1  0  0  0  0
 28 31  1  0  0  0  0
 28 62  1  0  0  0  0
 28 63  1  0  0  0  0
 30 65  1  0  0  0  0
 30 66  1  0  0  0  0
 31 36  1  0  0  0  0
 31 37  1  0  0  0  0
 31 67  1  0  0  0  0
 32 68  1  0  0  0  0
 32 69  1  0  0  0  0
 32 70  1  0  0  0  0
 34 72  1  0  0  0  0
 34 73  1  0  0  0  0
 34 74  1  0  0  0  0
 35 75  1  0  0  0  0
 35 76  1  0  0  0  0
 35 77  1  0  0  0  0
 36 79  1  0  0  0  0
 36 80  1  0  0  0  0
 36 81  1  0  0  0  0
 37 82  1  0  0  0  0
 37 83  1  0  0  0  0
 37 84  1  0  0  0  0
 38 39  1  0  0  0  0
 39 85  1  0  0  0  0
 39 86  1  0  0  0  0
 39 87  1  0  0  0  0
M  END
> <PUBCHEM_COMPOUND_CID>
439221

> <PUBCHEM_COMPOUND_CANONICALIZED>
1

> <PUBCHEM_CACTVS_COMPLEXITY>
892

> <PUBCHEM_CACTVS_HBOND_ACCEPTOR>
6

> <PUBCHEM_CACTVS_HBOND_DONOR>
5

> <PUBCHEM_CACTVS_ROTATABLE_BOND>
14

> <PUBCHEM_CACTVS_SUBSKEYS>
AAADcfB7uAAAAAAAAAAAAAAAAAAAAWAAAAAAAAAAAAAAAAAAAAAAHgAQAAAADSjBgAQCAAPAAAAIAAEQEAAAAAAAAAAAAIGIAAAAQBIAgCAUAAAAFgCAAAAYAQAOAAAAAAAAAAAAAAAAAAAAAAAAAAAAAA==

> <PUBCHEM_IUPAC_OPENEYE_NAME>
(2S)-1-[(2S)-2-[[2-[[(2S,3S)-2-[[(2S)-2-acetamido-4-methyl-pentanoyl]amino]-3-methyl-pentanoyl]amino]acetyl]amino]-3-methyl-butanoyl]-N-methyl-pyrrolidine-2-carboxamide

> <PUBCHEM_IUPAC_CAS_NAME>
(2S)-1-[(2S)-2-[[2-[[(2S,3S)-2-[[(2S)-2-acetamido-4-methyl-1-oxopentyl]amino]-3-methyl-1-oxopentyl]amino]-1-oxoethyl]amino]-3-methyl-1-oxobutyl]-N-methyl-2-pyrrolidinecarboxamide

> <PUBCHEM_IUPAC_NAME>
(2S)-1-[(2S)-2-[[2-[[(2S,3S)-2-[[(2S)-2-acetamido-4-methylpentanoyl]amino]-3-methylpentanoyl]amino]acetyl]amino]-3-methylbutanoyl]-N-methylpyrrolidine-2-carboxamide

> <PUBCHEM_IUPAC_SYSTEMATIC_NAME>
(2S)-1-[(2S)-2-[2-[[(2S,3S)-2-[[(2S)-2-acetamido-4-methyl-pentanoyl]amino]-3-methyl-pentanoyl]amino]ethanoylamino]-3-methyl-butanoyl]-N-methyl-pyrrolidine-2-carboxamide

> <PUBCHEM_IUPAC_TRADITIONAL_NAME>
(2S)-1-[(2S)-2-[[2-[[(2S,3S)-2-[[(2S)-2-acetamido-4-methyl-pentanoyl]amino]-3-methyl-pentanoyl]amino]acetyl]amino]-3-methyl-butanoyl]-N-methyl-pyrrolidine-2-carboxamide

> <PUBCHEM_IUPAC_INCHI>
InChI=1S/C27H48N6O6/c1-9-17(6)23(32-24(36)19(13-15(2)3)30-18(7)34)26(38)29-14-21(35)31-22(16(4)5)27(39)33-12-10-11-20(33)25(37)28-8/h15-17,19-20,22-23H,9-14H2,1-8H3,(H,28,37)(H,29,38)(H,30,34)(H,31,35)(H,32,36)/t17-,19-,20-,22-,23-/m0/s1

> <PUBCHEM_IUPAC_INCHIKEY>
DPUYCSDGMSDKKV-MKBYFEBXSA-N

> <PUBCHEM_XLOGP3>
0.1

> <PUBCHEM_EXACT_MASS>
552.363533

> <PUBCHEM_MOLECULAR_FORMULA>
C27H48N6O6

> <PUBCHEM_MOLECULAR_WEIGHT>
552.70662

> <PUBCHEM_OPENEYE_CAN_SMILES>
CCC(C)C(C(=O)NCC(=O)NC(C(C)C)C(=O)N1CCCC1C(=O)NC)NC(=O)C(CC(C)C)NC(=O)C

> <PUBCHEM_OPENEYE_ISO_SMILES>
CC[C@H](C)[C@@H](C(=O)NCC(=O)N[C@@H](C(C)C)C(=O)N1CCC[C@H]1C(=O)NC)NC(=O)[C@H](CC(C)C)NC(=O)C

> <PUBCHEM_CACTVS_TPSA>
166

> <PUBCHEM_MONOISOTOPIC_WEIGHT>
552.363533

> <PUBCHEM_TOTAL_CHARGE>
0

> <PUBCHEM_HEAVY_ATOM_COUNT>
39

> <PUBCHEM_ATOM_DEF_STEREO_COUNT>
5

> <PUBCHEM_ATOM_UDEF_STEREO_COUNT>
0

> <PUBCHEM_BOND_DEF_STEREO_COUNT>
0

> <PUBCHEM_BOND_UDEF_STEREO_COUNT>
0

> <PUBCHEM_ISOTOPIC_ATOM_COUNT>
0

> <PUBCHEM_COMPONENT_COUNT>
1

> <PUBCHEM_CACTVS_TAUTO_COUNT>
32

> <PUBCHEM_COORDINATE_TYPE>
1
5
255

> <PUBCHEM_BONDANNOTATIONS>
24  10  5
27  12  6
13  20  5
23  32  6
17  8  5

$$$$

