162824
  -OEChem-07051212562D

 54 56  0     1  0  0  0  0  0999 V2000
    5.8577   -1.7481    0.0000 O   0  0  0  0  0  0  0  0  0  0  0  0
    4.2109    1.5015    0.0000 O   0  0  0  0  0  0  0  0  0  0  0  0
    8.3381   -0.3393    0.0000 O   0  0  0  0  0  0  0  0  0  0  0  0
    2.9758    0.5572    0.0000 O   0  0  0  0  0  0  0  0  0  0  0  0
    9.1134   -1.3609    0.0000 O   0  0  0  0  0  0  0  0  0  0  0  0
    6.9067    2.7108    0.0000 O   0  0  0  0  0  0  0  0  0  0  0  0
    5.6352   -0.7732    0.0000 C   0  0  2  0  0  0  0  0  0  0  0  0
    5.4126    0.2018    0.0000 C   0  0  2  0  0  0  0  0  0  0  0  0
    6.5361   -1.2070    0.0000 C   0  0  1  0  0  0  0  0  0  0  0  0
    4.8826   -1.4933    0.0000 C   0  0  1  0  0  0  0  0  0  0  0  0
    4.4221    0.5241    0.0000 C   0  0  2  0  0  0  0  0  0  0  0  0
    7.4371   -0.7732    0.0000 C   0  0  1  0  0  0  0  0  0  0  0  0
    3.6531   -0.1785    0.0000 C   0  0  2  0  0  0  0  0  0  0  0  0
    3.8849   -1.1940    0.0000 C   0  0  0  0  0  0  0  0  0  0  0  0
    7.6596    0.2018    0.0000 C   0  0  0  0  0  0  0  0  0  0  0  0
    6.0361    0.9836    0.0000 C   0  0  0  0  0  0  0  0  0  0  0  0
    6.6721   -2.1918    0.0000 C   0  0  0  0  0  0  0  0  0  0  0  0
    4.5989   -2.4523    0.0000 C   0  0  0  0  0  0  0  0  0  0  0  0
    7.0361    0.9836    0.0000 C   0  0  0  0  0  0  0  0  0  0  0  0
    8.1222   -1.4935    0.0000 C   0  0  0  0  0  0  0  0  0  0  0  0
    7.6504   -2.3684    0.0000 C   0  0  0  0  0  0  0  0  0  0  0  0
    2.6773   -0.3972    0.0000 C   0  0  0  0  0  0  0  0  0  0  0  0
    7.4700    1.8846    0.0000 C   0  0  0  0  0  0  0  0  0  0  0  0
    8.0843   -3.2694    0.0000 C   0  0  0  0  0  0  0  0  0  0  0  0
    2.3789   -1.3517    0.0000 C   0  0  0  0  0  0  0  0  0  0  0  0
    2.0000    0.3384    0.0000 C   0  0  0  0  0  0  0  0  0  0  0  0
    5.1684    1.0159    0.0000 H   0  0  0  0  0  0  0  0  0  0  0  0
    5.8491   -1.7076    0.0000 H   0  0  0  0  0  0  0  0  0  0  0  0
    5.4120   -1.8161    0.0000 H   0  0  0  0  0  0  0  0  0  0  0  0
    4.8823    0.9396    0.0000 H   0  0  0  0  0  0  0  0  0  0  0  0
    3.2658   -1.2265    0.0000 H   0  0  0  0  0  0  0  0  0  0  0  0
    3.8110   -1.8096    0.0000 H   0  0  0  0  0  0  0  0  0  0  0  0
    8.2182   -0.0672    0.0000 H   0  0  0  0  0  0  0  0  0  0  0  0
    8.0462    0.6865    0.0000 H   0  0  0  0  0  0  0  0  0  0  0  0
    5.7671    1.5422    0.0000 H   0  0  0  0  0  0  0  0  0  0  0  0
    6.2247   -2.6210    0.0000 H   0  0  0  0  0  0  0  0  0  0  0  0
    4.0044   -2.2764    0.0000 H   0  0  0  0  0  0  0  0  0  0  0  0
    4.4230   -3.0468    0.0000 H   0  0  0  0  0  0  0  0  0  0  0  0
    5.1934   -2.6281    0.0000 H   0  0  0  0  0  0  0  0  0  0  0  0
    5.6749   -2.3406    0.0000 H   0  0  0  0  0  0  0  0  0  0  0  0
    4.6702    1.9180    0.0000 H   0  0  0  0  0  0  0  0  0  0  0  0
    8.3844    0.2790    0.0000 H   0  0  0  0  0  0  0  0  0  0  0  0
    3.1608    1.1489    0.0000 H   0  0  0  0  0  0  0  0  0  0  0  0
    7.9734    1.5226    0.0000 H   0  0  0  0  0  0  0  0  0  0  0  0
    7.9138    2.3175    0.0000 H   0  0  0  0  0  0  0  0  0  0  0  0
    7.5257   -3.5384    0.0000 H   0  0  0  0  0  0  0  0  0  0  0  0
    8.3533   -3.8280    0.0000 H   0  0  0  0  0  0  0  0  0  0  0  0
    8.6429   -3.0004    0.0000 H   0  0  0  0  0  0  0  0  0  0  0  0
    1.7872   -1.1666    0.0000 H   0  0  0  0  0  0  0  0  0  0  0  0
    2.1939   -1.9434    0.0000 H   0  0  0  0  0  0  0  0  0  0  0  0
    2.9706   -1.5367    0.0000 H   0  0  0  0  0  0  0  0  0  0  0  0
    2.1850    0.9302    0.0000 H   0  0  0  0  0  0  0  0  0  0  0  0
    1.3950    0.2028    0.0000 H   0  0  0  0  0  0  0  0  0  0  0  0
    7.1757    3.2694    0.0000 H   0  0  0  0  0  0  0  0  0  0  0  0
  7  1  1  6  0  0  0
  1 40  1  0  0  0  0
 11  2  1  6  0  0  0
  2 41  1  0  0  0  0
 12  3  1  1  0  0  0
  3 42  1  0  0  0  0
 13  4  1  6  0  0  0
  4 43  1  0  0  0  0
  5 20  2  0  0  0  0
  6 23  1  0  0  0  0
  6 54  1  0  0  0  0
  7  8  1  0  0  0  0
  7  9  1  0  0  0  0
  7 10  1  0  0  0  0
  8 11  1  0  0  0  0
  8 16  1  0  0  0  0
  8 27  1  1  0  0  0
  9 12  1  0  0  0  0
  9 17  1  0  0  0  0
  9 28  1  6  0  0  0
 10 14  1  0  0  0  0
 10 18  1  6  0  0  0
 10 29  1  0  0  0  0
 11 13  1  0  0  0  0
 11 30  1  0  0  0  0
 12 15  1  0  0  0  0
 12 20  1  0  0  0  0
 13 14  1  0  0  0  0
 13 22  1  0  0  0  0
 14 31  1  0  0  0  0
 14 32  1  0  0  0  0
 15 19  1  0  0  0  0
 15 33  1  0  0  0  0
 15 34  1  0  0  0  0
 16 19  2  0  0  0  0
 16 35  1  0  0  0  0
 17 21  2  0  0  0  0
 17 36  1  0  0  0  0
 18 37  1  0  0  0  0
 18 38  1  0  0  0  0
 18 39  1  0  0  0  0
 19 23  1  0  0  0  0
 20 21  1  0  0  0  0
 21 24  1  0  0  0  0
 22 25  1  0  0  0  0
 22 26  2  0  0  0  0
 23 44  1  0  0  0  0
 23 45  1  0  0  0  0
 24 46  1  0  0  0  0
 24 47  1  0  0  0  0
 24 48  1  0  0  0  0
 25 49  1  0  0  0  0
 25 50  1  0  0  0  0
 25 51  1  0  0  0  0
 26 52  1  0  0  0  0
 26 53  1  0  0  0  0
M  END
> <PUBCHEM_COMPOUND_CID>
162824

> <PUBCHEM_COMPOUND_CANONICALIZED>
1

> <PUBCHEM_CACTVS_COMPLEXITY>
724

> <PUBCHEM_CACTVS_HBOND_ACCEPTOR>
6

> <PUBCHEM_CACTVS_HBOND_DONOR>
5

> <PUBCHEM_CACTVS_ROTATABLE_BOND>
2

> <PUBCHEM_CACTVS_SUBSKEYS>
AAADceB4OAAAAAAAAAAAAAAAAAAAAQAAAAAwAAAABAAAAACAAAAAGgAACAAADVSggAICAAAAAgCIAqBSAAIAAAAgAAAACAFAAEgBFBIAAQAAUAAFwAAJEYPK7PSOgAAAAAAAAADCAAYQADCAAAAAAAAAAA==

> <PUBCHEM_IUPAC_OPENEYE_NAME>
(3aR,6aS,7R,8R,10R,10aR,10bS)-3a,7,8,10a-tetrahydroxy-5-(hydroxymethyl)-8-isopropenyl-2,10-dimethyl-4,6a,7,9,10,10b-hexahydrobenzo[e]azulen-3-one

> <PUBCHEM_IUPAC_CAS_NAME>
(3aR,6aS,7R,8R,10R,10aR,10bS)-3a,7,8,10a-tetrahydroxy-5-(hydroxymethyl)-2,10-dimethyl-8-(1-methylethenyl)-4,6a,7,9,10,10b-hexahydrobenzo[e]azulen-3-one

> <PUBCHEM_IUPAC_NAME>
(3aR,6aS,7R,8R,10R,10aR,10bS)-3a,7,8,10a-tetrahydroxy-5-(hydroxymethyl)-2,10-dimethyl-8-prop-1-en-2-yl-4,6a,7,9,10,10b-hexahydrobenzo[e]azulen-3-one

> <PUBCHEM_IUPAC_SYSTEMATIC_NAME>
(3aR,6aS,7R,8R,10R,10aR,10bS)-5-(hydroxymethyl)-2,10-dimethyl-3a,7,8,10a-tetrakis(oxidanyl)-8-prop-1-en-2-yl-4,6a,7,9,10,10b-hexahydrobenzo[e]azulen-3-one

> <PUBCHEM_IUPAC_TRADITIONAL_NAME>
(3aR,6aS,7R,8R,10R,10aR,10bS)-3a,7,8,10a-tetrahydroxy-8-isopropenyl-2,10-dimethyl-5-methylol-4,6a,7,9,10,10b-hexahydrobenz[e]azulen-3-one

> <PUBCHEM_IUPAC_INCHI>
InChI=1S/C20H28O6/c1-10(2)18(24)7-12(4)20(26)14(17(18)23)6-13(9-21)8-19(25)15(20)5-11(3)16(19)22/h5-6,12,14-15,17,21,23-26H,1,7-9H2,2-4H3/t12-,14+,15-,17-,18-,19-,20-/m1/s1

> <PUBCHEM_IUPAC_INCHIKEY>
XJOIANWCBZYENR-IXUTXISSSA-N

> <PUBCHEM_XLOGP3_AA>
-0.5

> <PUBCHEM_EXACT_MASS>
364.188589

> <PUBCHEM_MOLECULAR_FORMULA>
C20H28O6

> <PUBCHEM_MOLECULAR_WEIGHT>
364.43272

> <PUBCHEM_OPENEYE_CAN_SMILES>
CC1CC(C(C2C1(C3C=C(C(=O)C3(CC(=C2)CO)O)C)O)O)(C(=C)C)O

> <PUBCHEM_OPENEYE_ISO_SMILES>
C[C@@H]1C[C@]([C@@H]([C@H]2[C@]1([C@@H]3C=C(C(=O)[C@]3(CC(=C2)CO)O)C)O)O)(C(=C)C)O

> <PUBCHEM_CACTVS_TPSA>
118

> <PUBCHEM_MONOISOTOPIC_WEIGHT>
364.188589

> <PUBCHEM_TOTAL_CHARGE>
0

> <PUBCHEM_HEAVY_ATOM_COUNT>
26

> <PUBCHEM_ATOM_DEF_STEREO_COUNT>
7

> <PUBCHEM_ATOM_UDEF_STEREO_COUNT>
0

> <PUBCHEM_BOND_DEF_STEREO_COUNT>
0

> <PUBCHEM_BOND_UDEF_STEREO_COUNT>
0

> <PUBCHEM_ISOTOPIC_ATOM_COUNT>
0

> <PUBCHEM_COMPONENT_COUNT>
1

> <PUBCHEM_CACTVS_TAUTO_COUNT>
3

> <PUBCHEM_COORDINATE_TYPE>
1
5
255

> <PUBCHEM_BONDANNOTATIONS>
7  1  6
10  18  6
11  2  6
12  3  5
13  4  6
8  27  5
9  28  6

$$$$

