6669
  -OEChem-06261201263D

 39 39  0     0  0  0  0  0  0999 V2000
   -1.2385    2.9655    1.0912 O   0  5  0  0  0  0  0  0  0  0  0  0
   -1.2127   -2.9654   -1.1024 O   0  5  0  0  0  0  0  0  0  0  0  0
   -1.2100    2.9610   -1.1038 O   0  0  0  0  0  0  0  0  0  0  0  0
   -1.2420   -2.9673    1.0927 O   0  0  0  0  0  0  0  0  0  0  0  0
    3.9714   -0.0032    1.1270 O   0  0  0  0  0  0  0  0  0  0  0  0
   -0.9238    2.4411   -0.0013 N   0  3  0  0  0  0  0  0  0  0  0  0
   -0.9261   -2.4444   -0.0004 N   0  3  0  0  0  0  0  0  0  0  0  0
   -2.4477   -0.0004   -0.0195 C   0  0  0  0  0  0  0  0  0  0  0  0
   -0.9102   -0.0018    0.0012 C   0  0  0  0  0  0  0  0  0  0  0  0
   -0.2122    1.2059    0.0105 C   0  0  0  0  0  0  0  0  0  0  0  0
   -0.2135   -1.2100    0.0102 C   0  0  0  0  0  0  0  0  0  0  0  0
   -2.9495    0.7270   -1.2857 C   0  0  0  0  0  0  0  0  0  0  0  0
   -2.9837    0.7293    1.2312 C   0  0  0  0  0  0  0  0  0  0  0  0
   -3.0741   -1.4133   -0.0266 C   0  0  0  0  0  0  0  0  0  0  0  0
    1.1826    1.2053    0.0289 C   0  0  0  0  0  0  0  0  0  0  0  0
    1.1814   -1.2107    0.0286 C   0  0  0  0  0  0  0  0  0  0  0  0
    1.8793   -0.0031    0.0380 C   0  0  0  0  0  0  0  0  0  0  0  0
    1.9373    2.4999    0.0393 C   0  0  0  0  0  0  0  0  0  0  0  0
    1.9345   -2.5062    0.0377 C   0  0  0  0  0  0  0  0  0  0  0  0
    3.3394   -0.0041    0.0554 C   0  0  0  0  0  0  0  0  0  0  0  0
    4.1179   -0.0053   -1.2524 C   0  0  0  0  0  0  0  0  0  0  0  0
   -3.8988    0.2977   -1.6328 H   0  0  0  0  0  0  0  0  0  0  0  0
   -3.1933    1.7800   -1.1297 H   0  0  0  0  0  0  0  0  0  0  0  0
   -2.2531    0.6315   -2.1269 H   0  0  0  0  0  0  0  0  0  0  0  0
   -3.9429    0.3020    1.5523 H   0  0  0  0  0  0  0  0  0  0  0  0
   -2.3110    0.6340    2.0916 H   0  0  0  0  0  0  0  0  0  0  0  0
   -3.2213    1.7825    1.0672 H   0  0  0  0  0  0  0  0  0  0  0  0
   -4.1670   -1.2279   -0.0407 H   0  0  0  0  0  0  0  0  0  0  0  0
   -3.0318   -1.9568   -0.9700 H   0  0  0  0  0  0  0  0  0  0  0  0
   -3.0556   -1.9551    0.9186 H   0  0  0  0  0  0  0  0  0  0  0  0
    1.9398    2.9369   -0.9649 H   0  0  0  0  0  0  0  0  0  0  0  0
    1.4895    3.2158    0.7368 H   0  0  0  0  0  0  0  0  0  0  0  0
    2.9767    2.4018    0.3638 H   0  0  0  0  0  0  0  0  0  0  0  0
    1.4794   -3.2277    0.7246 H   0  0  0  0  0  0  0  0  0  0  0  0
    1.9482   -2.9353   -0.9697 H   0  0  0  0  0  0  0  0  0  0  0  0
    2.9700   -2.4104    0.3754 H   0  0  0  0  0  0  0  0  0  0  0  0
    4.7398    0.8921   -1.3014 H   0  0  0  0  0  0  0  0  0  0  0  0
    3.4335   -0.0056   -2.1053 H   0  0  0  0  0  0  0  0  0  0  0  0
    4.7391   -0.9033   -1.3001 H   0  0  0  0  0  0  0  0  0  0  0  0
  1  6  1  0  0  0  0
  2  7  1  0  0  0  0
  3  6  2  0  0  0  0
  4  7  2  0  0  0  0
  5 20  2  0  0  0  0
  6 10  1  0  0  0  0
  7 11  1  0  0  0  0
  8  9  1  0  0  0  0
  8 12  1  0  0  0  0
  8 13  1  0  0  0  0
  8 14  1  0  0  0  0
  9 10  2  0  0  0  0
  9 11  1  0  0  0  0
 10 15  1  0  0  0  0
 11 16  2  0  0  0  0
 12 22  1  0  0  0  0
 12 23  1  0  0  0  0
 12 24  1  0  0  0  0
 13 25  1  0  0  0  0
 13 26  1  0  0  0  0
 13 27  1  0  0  0  0
 14 28  1  0  0  0  0
 14 29  1  0  0  0  0
 14 30  1  0  0  0  0
 15 17  2  0  0  0  0
 15 18  1  0  0  0  0
 16 17  1  0  0  0  0
 16 19  1  0  0  0  0
 17 20  1  0  0  0  0
 18 31  1  0  0  0  0
 18 32  1  0  0  0  0
 18 33  1  0  0  0  0
 19 34  1  0  0  0  0
 19 35  1  0  0  0  0
 19 36  1  0  0  0  0
 20 21  1  0  0  0  0
 21 37  1  0  0  0  0
 21 38  1  0  0  0  0
 21 39  1  0  0  0  0
M  CHG  4   1  -1   2  -1   6   1   7   1
M  END
> <PUBCHEM_COMPOUND_CID>
6669

> <PUBCHEM_CONFORMER_RMSD>
0.6

> <PUBCHEM_CONFORMER_DIVERSEORDER>
1
2

> <PUBCHEM_MMFF94_PARTIAL_CHARGES>
18
1 -0.52
10 0.13
11 0.13
15 -0.14
16 -0.14
17 0.09
18 0.14
19 0.14
2 -0.52
20 0.42
21 0.06
3 -0.52
4 -0.52
5 -0.57
6 0.91
7 0.91
8 0.14
9 -0.14

> <PUBCHEM_EFFECTIVE_ROTOR_COUNT>
4

> <PUBCHEM_PHARMACOPHORE_FEATURES>
9
1 1 acceptor
1 1 anion
1 2 acceptor
1 2 anion
1 3 acceptor
1 4 acceptor
1 5 acceptor
4 8 12 13 14 hydrophobe
6 9 10 11 15 16 17 rings

> <PUBCHEM_HEAVY_ATOM_COUNT>
21

> <PUBCHEM_ATOM_DEF_STEREO_COUNT>
0

> <PUBCHEM_ATOM_UDEF_STEREO_COUNT>
0

> <PUBCHEM_BOND_DEF_STEREO_COUNT>
0

> <PUBCHEM_BOND_UDEF_STEREO_COUNT>
0

> <PUBCHEM_ISOTOPIC_ATOM_COUNT>
0

> <PUBCHEM_COMPONENT_COUNT>
1

> <PUBCHEM_CACTVS_TAUTO_COUNT>
2

> <PUBCHEM_CONFORMER_ID>
00001A0D00000001

> <PUBCHEM_MMFF94_ENERGY>
135.2598

> <PUBCHEM_FEATURE_SELFOVERLAP>
45.833

> <PUBCHEM_SHAPE_FINGERPRINT>
10967382 1 18338799021447005490
11132069 177 18334860515178066968
11578080 2 17343540784790138780
12403814 3 17632580435241816581
12553582 1 18411415107515561064
13027679 85 18265893562500460805
13140716 1 18266741281707257032
13221675 6 18411135840225997486
13538477 17 18202003201337631002
13583140 156 16917351433030969616
14178342 30 18119536689264560240
14614273 12 18055920045903293757
14790565 3 18266718299227505772
15309172 13 18338230569740718001
16752209 62 18269286796975318924
16945 1 18410575097817077608
193761 8 17834114525733514475
19591789 44 18339070471975822247
19868273 325 18267582407960210422
20028762 73 18043242436845096743
20510252 161 18334016129008454280
20739085 24 17906705335677154736
21160774 45 18412825798076963285
21501502 16 18122064191449611054
2334 1 17978510832514714080
23402539 116 18261687999016938687
23419403 2 14741374959099096906
23493267 7 17561367309247548481
23558518 356 18124591139742942410
23559900 14 18334569124076762612
238 59 17838380493758518621
2748010 2 18121783824727372100
335352 9 18410574019775005484
589210 1 17690559689282355951
7364860 26 17470725507567738368
81228 2 18410852149024887904
8809292 202 18342174419265769778

> <PUBCHEM_SHAPE_MULTIPOLES>
392.86
5.44
3.5
1.06
3.34
0.13
0.07
0.04
0.28
-1.22
-0.05
-0.2
-0.12
0

> <PUBCHEM_SHAPE_SELFOVERLAP>
833.358

> <PUBCHEM_SHAPE_VOLUME>
222.5

> <PUBCHEM_COORDINATE_TYPE>
2
5
10

$$$$

