13669
  -OEChem-06241222392D

 29 29  0     0  0  0  0  0  0999 V2000
    3.8660   -2.7500    0.0000 O   0  0  0  0  0  0  0  0  0  0  0  0
    3.0000    1.7500    0.0000 C   0  0  0  0  0  0  0  0  0  0  0  0
    3.0000    0.7500    0.0000 C   0  0  0  0  0  0  0  0  0  0  0  0
    3.0000    2.7500    0.0000 C   0  0  0  0  0  0  0  0  0  0  0  0
    4.0000    1.7500    0.0000 C   0  0  0  0  0  0  0  0  0  0  0  0
    2.0000    1.7500    0.0000 C   0  0  0  0  0  0  0  0  0  0  0  0
    2.1340    0.2500    0.0000 C   0  0  0  0  0  0  0  0  0  0  0  0
    3.8660    0.2500    0.0000 C   0  0  0  0  0  0  0  0  0  0  0  0
    2.1340   -0.7500    0.0000 C   0  0  0  0  0  0  0  0  0  0  0  0
    3.8660   -0.7500    0.0000 C   0  0  0  0  0  0  0  0  0  0  0  0
    3.0000   -1.2500    0.0000 C   0  0  0  0  0  0  0  0  0  0  0  0
    3.0000   -2.2500    0.0000 C   0  0  0  0  0  0  0  0  0  0  0  0
    2.1340   -2.7500    0.0000 C   0  0  0  0  0  0  0  0  0  0  0  0
    3.6200    2.7500    0.0000 H   0  0  0  0  0  0  0  0  0  0  0  0
    3.0000    3.3700    0.0000 H   0  0  0  0  0  0  0  0  0  0  0  0
    2.3800    2.7500    0.0000 H   0  0  0  0  0  0  0  0  0  0  0  0
    4.0000    1.1300    0.0000 H   0  0  0  0  0  0  0  0  0  0  0  0
    4.6200    1.7500    0.0000 H   0  0  0  0  0  0  0  0  0  0  0  0
    4.0000    2.3700    0.0000 H   0  0  0  0  0  0  0  0  0  0  0  0
    2.0000    2.3700    0.0000 H   0  0  0  0  0  0  0  0  0  0  0  0
    1.3800    1.7500    0.0000 H   0  0  0  0  0  0  0  0  0  0  0  0
    2.0000    1.1300    0.0000 H   0  0  0  0  0  0  0  0  0  0  0  0
    1.5970    0.5600    0.0000 H   0  0  0  0  0  0  0  0  0  0  0  0
    4.4030    0.5600    0.0000 H   0  0  0  0  0  0  0  0  0  0  0  0
    1.5970   -1.0600    0.0000 H   0  0  0  0  0  0  0  0  0  0  0  0
    4.4030   -1.0600    0.0000 H   0  0  0  0  0  0  0  0  0  0  0  0
    1.8240   -2.2131    0.0000 H   0  0  0  0  0  0  0  0  0  0  0  0
    1.5970   -3.0600    0.0000 H   0  0  0  0  0  0  0  0  0  0  0  0
    2.4440   -3.2869    0.0000 H   0  0  0  0  0  0  0  0  0  0  0  0
  1 12  2  0  0  0  0
  2  3  1  0  0  0  0
  2  4  1  0  0  0  0
  2  5  1  0  0  0  0
  2  6  1  0  0  0  0
  3  7  2  0  0  0  0
  3  8  1  0  0  0  0
  4 14  1  0  0  0  0
  4 15  1  0  0  0  0
  4 16  1  0  0  0  0
  5 17  1  0  0  0  0
  5 18  1  0  0  0  0
  5 19  1  0  0  0  0
  6 20  1  0  0  0  0
  6 21  1  0  0  0  0
  6 22  1  0  0  0  0
  7  9  1  0  0  0  0
  7 23  1  0  0  0  0
  8 10  2  0  0  0  0
  8 24  1  0  0  0  0
  9 11  2  0  0  0  0
  9 25  1  0  0  0  0
 10 11  1  0  0  0  0
 10 26  1  0  0  0  0
 11 12  1  0  0  0  0
 12 13  1  0  0  0  0
 13 27  1  0  0  0  0
 13 28  1  0  0  0  0
 13 29  1  0  0  0  0
M  END
> <PUBCHEM_COMPOUND_CID>
13669

> <PUBCHEM_COMPOUND_CANONICALIZED>
1

> <PUBCHEM_CACTVS_COMPLEXITY>
180

> <PUBCHEM_CACTVS_HBOND_ACCEPTOR>
1

> <PUBCHEM_CACTVS_HBOND_DONOR>
0

> <PUBCHEM_CACTVS_ROTATABLE_BOND>
2

> <PUBCHEM_CACTVS_SUBSKEYS>
AAADceBwIAAAAAAAAAAAAAAAAAAAAAAAAAAwAAAAAAAAAAABAAAAGgAAAAAADgSAmAAyAIAAAACIAqBSAAACAAAkAAAIiAEAAMgIIDKAFRCAIQAggAAIiYcIiMCPwAAAAAAAAACAAAAAAAAAAAAAAAAAAA==

> <PUBCHEM_IUPAC_OPENEYE_NAME>
1-(4-tert-butylphenyl)ethanone

> <PUBCHEM_IUPAC_CAS_NAME>
1-(4-tert-butylphenyl)ethanone

> <PUBCHEM_IUPAC_NAME>
1-(4-tert-butylphenyl)ethanone

> <PUBCHEM_IUPAC_SYSTEMATIC_NAME>
1-(4-tert-butylphenyl)ethanone

> <PUBCHEM_IUPAC_TRADITIONAL_NAME>
1-(4-tert-butylphenyl)ethanone

> <PUBCHEM_IUPAC_INCHI>
InChI=1S/C12H16O/c1-9(13)10-5-7-11(8-6-10)12(2,3)4/h5-8H,1-4H3

> <PUBCHEM_IUPAC_INCHIKEY>
UYFJYGWNYQCHOB-UHFFFAOYSA-N

> <PUBCHEM_XLOGP3>
3.4

> <PUBCHEM_EXACT_MASS>
176.120115

> <PUBCHEM_MOLECULAR_FORMULA>
C12H16O

> <PUBCHEM_MOLECULAR_WEIGHT>
176.25484

> <PUBCHEM_OPENEYE_CAN_SMILES>
CC(=O)C1=CC=C(C=C1)C(C)(C)C

> <PUBCHEM_OPENEYE_ISO_SMILES>
CC(=O)C1=CC=C(C=C1)C(C)(C)C

> <PUBCHEM_CACTVS_TPSA>
17.1

> <PUBCHEM_MONOISOTOPIC_WEIGHT>
176.120115

> <PUBCHEM_TOTAL_CHARGE>
0

> <PUBCHEM_HEAVY_ATOM_COUNT>
13

> <PUBCHEM_ATOM_DEF_STEREO_COUNT>
0

> <PUBCHEM_ATOM_UDEF_STEREO_COUNT>
0

> <PUBCHEM_BOND_DEF_STEREO_COUNT>
0

> <PUBCHEM_BOND_UDEF_STEREO_COUNT>
0

> <PUBCHEM_ISOTOPIC_ATOM_COUNT>
0

> <PUBCHEM_COMPONENT_COUNT>
1

> <PUBCHEM_CACTVS_TAUTO_COUNT>
2

> <PUBCHEM_COORDINATE_TYPE>
1
5
255

> <PUBCHEM_BONDANNOTATIONS>
10  11  8
3  7  8
3  8  8
7  9  8
8  10  8
9  11  8

$$$$

