8685
  -OEChem-06261203003D

 31 30  0     0  0  0  0  0  0999 V2000
    1.3193    2.6814    0.8421 S   0  0  0  0  0  0  0  0  0  0  0  0
   -1.1704    2.8901   -0.7405 S   0  0  0  0  0  0  0  0  0  0  0  0
   -0.0141    0.4802   -0.0392 N   0  0  0  0  0  0  0  0  0  0  0  0
   -1.0527   -0.3046   -0.6958 C   0  0  0  0  0  0  0  0  0  0  0  0
    1.0046   -0.3302    0.6413 C   0  0  0  0  0  0  0  0  0  0  0  0
   -2.2063   -0.5717    0.2696 C   0  0  0  0  0  0  0  0  0  0  0  0
    2.1899   -0.5830   -0.2889 C   0  0  0  0  0  0  0  0  0  0  0  0
   -3.3174   -1.3762   -0.4061 C   0  0  0  0  0  0  0  0  0  0  0  0
    3.2729   -1.4079    0.4077 C   0  0  0  0  0  0  0  0  0  0  0  0
   -0.0129    1.8924   -0.0256 C   0  0  0  0  0  0  0  0  0  0  0  0
   -4.4536   -1.6766    0.5584 C   0  0  0  0  0  0  0  0  0  0  0  0
    4.4406   -1.6940   -0.5230 C   0  0  0  0  0  0  0  0  0  0  0  0
   -0.6220   -1.2463   -1.0569 H   0  0  0  0  0  0  0  0  0  0  0  0
   -1.4194    0.2229   -1.5819 H   0  0  0  0  0  0  0  0  0  0  0  0
    0.5570   -1.2831    0.9492 H   0  0  0  0  0  0  0  0  0  0  0  0
    1.3319    0.1537    1.5658 H   0  0  0  0  0  0  0  0  0  0  0  0
   -2.6172    0.3717    0.6475 H   0  0  0  0  0  0  0  0  0  0  0  0
   -1.8393   -1.1209    1.1454 H   0  0  0  0  0  0  0  0  0  0  0  0
    2.6186    0.3640   -0.6363 H   0  0  0  0  0  0  0  0  0  0  0  0
    1.8474   -1.1130   -1.1865 H   0  0  0  0  0  0  0  0  0  0  0  0
   -2.9132   -2.3204   -0.7890 H   0  0  0  0  0  0  0  0  0  0  0  0
   -3.7108   -0.8190   -1.2643 H   0  0  0  0  0  0  0  0  0  0  0  0
    2.8512   -2.3577    0.7562 H   0  0  0  0  0  0  0  0  0  0  0  0
    3.6388   -0.8709    1.2906 H   0  0  0  0  0  0  0  0  0  0  0  0
   -5.2369   -2.2512    0.0543 H   0  0  0  0  0  0  0  0  0  0  0  0
   -4.0989   -2.2625    1.4124 H   0  0  0  0  0  0  0  0  0  0  0  0
   -4.9010   -0.7522    0.9375 H   0  0  0  0  0  0  0  0  0  0  0  0
    5.2030   -2.2835   -0.0044 H   0  0  0  0  0  0  0  0  0  0  0  0
    4.1130   -2.2594   -1.4013 H   0  0  0  0  0  0  0  0  0  0  0  0
    4.9053   -0.7642   -0.8663 H   0  0  0  0  0  0  0  0  0  0  0  0
    0.9315    3.9444    0.6125 H   0  0  0  0  0  0  0  0  0  0  0  0
  1 10  1  0  0  0  0
  1 31  1  0  0  0  0
  2 10  2  0  0  0  0
  3  4  1  0  0  0  0
  3  5  1  0  0  0  0
  3 10  1  0  0  0  0
  4  6  1  0  0  0  0
  4 13  1  0  0  0  0
  4 14  1  0  0  0  0
  5  7  1  0  0  0  0
  5 15  1  0  0  0  0
  5 16  1  0  0  0  0
  6  8  1  0  0  0  0
  6 17  1  0  0  0  0
  6 18  1  0  0  0  0
  7  9  1  0  0  0  0
  7 19  1  0  0  0  0
  7 20  1  0  0  0  0
  8 11  1  0  0  0  0
  8 21  1  0  0  0  0
  8 22  1  0  0  0  0
  9 12  1  0  0  0  0
  9 23  1  0  0  0  0
  9 24  1  0  0  0  0
 11 25  1  0  0  0  0
 11 26  1  0  0  0  0
 11 27  1  0  0  0  0
 12 28  1  0  0  0  0
 12 29  1  0  0  0  0
 12 30  1  0  0  0  0
M  END
> <PUBCHEM_COMPOUND_CID>
8685

> <PUBCHEM_CONFORMER_RMSD>
0.8

> <PUBCHEM_CONFORMER_DIVERSEORDER>
1
35
29
38
32
24
39
14
2
37
17
3
8
28
12
22
40
16
42
15
41
6
46
30
25
36
7
21
19
34
23
20
18
43
26
9
4
44
27
11
45
33
31
10
13
5

> <PUBCHEM_MMFF94_PARTIAL_CHARGES>
7
1 -0.32
10 0.58
2 -0.38
3 -0.66
31 0.18
4 0.3
5 0.3

> <PUBCHEM_EFFECTIVE_ROTOR_COUNT>
7

> <PUBCHEM_PHARMACOPHORE_FEATURES>
4
1 11 hydrophobe
1 12 hydrophobe
1 2 acceptor
3 1 2 10 anion

> <PUBCHEM_HEAVY_ATOM_COUNT>
12

> <PUBCHEM_ATOM_DEF_STEREO_COUNT>
0

> <PUBCHEM_ATOM_UDEF_STEREO_COUNT>
0

> <PUBCHEM_BOND_DEF_STEREO_COUNT>
0

> <PUBCHEM_BOND_UDEF_STEREO_COUNT>
0

> <PUBCHEM_ISOTOPIC_ATOM_COUNT>
0

> <PUBCHEM_COMPONENT_COUNT>
1

> <PUBCHEM_CACTVS_TAUTO_COUNT>
1

> <PUBCHEM_CONFORMER_ID>
000021ED00000001

> <PUBCHEM_MMFF94_ENERGY>
12.9857

> <PUBCHEM_FEATURE_SELFOVERLAP>
20.297

> <PUBCHEM_SHAPE_FINGERPRINT>
12841375 25 18411138021763526191
14252887 29 18267871588018436859
161256 15 18338806606412510932
18534176 82 17973169718754893348
20097449 115 18411699872363360965
20339313 130 18338514132340663651
20645476 183 17695350665171891836
20645477 70 18195544601327628591
20671657 53 18410849924327001331
20711985 327 18259978271246789199
20871998 184 18115030843300293318
20871998 22 18410016498412436608
20871999 31 18340769363722351350
21061003 4 18408886239409356543
21296965 67 18410857667836414426
21426921 1 18196369436837505166
23557571 272 18044371858513104996
23598291 2 18042973073464397743
23598294 1 18194691586019565690
2748010 2 18196959736900438181
3071541 250 18411133602463633892
3250762 1 18338254720295246920
68521 5 18341611580939092333
7364860 26 18118685417955578273

> <PUBCHEM_SHAPE_MULTIPOLES>
249.67
6.95
3.31
0.91
0.21
3.04
-0.02
-8.09
-0.08
-0.01
0.02
-0.01
0.2
0.96

> <PUBCHEM_SHAPE_SELFOVERLAP>
433.783

> <PUBCHEM_SHAPE_VOLUME>
167

> <PUBCHEM_COORDINATE_TYPE>
2
5
10

$$$$

