656575
  -OEChem-07051213012D

 56 59  0     1  0  0  0  0  0999 V2000
    8.5991   -0.2327    0.0000 S   0  0  0  0  0  0  0  0  0  0  0  0
   12.5904   -1.8626    0.0000 S   0  0  0  0  0  0  0  0  0  0  0  0
   11.1791    1.9800    0.0000 O   0  0  0  0  0  0  0  0  0  0  0  0
   12.4063    0.7768    0.0000 O   0  0  0  0  0  0  0  0  0  0  0  0
    7.7331    3.2673    0.0000 O   0  5  0  0  0  0  0  0  0  0  0  0
    9.4651    3.2673    0.0000 O   0  0  0  0  0  0  0  0  0  0  0  0
   12.3296   -2.8280    0.0000 O   0  0  0  0  0  0  0  0  0  0  0  0
   13.5558   -2.1234    0.0000 O   0  0  0  0  0  0  0  0  0  0  0  0
   11.6250   -1.6018    0.0000 O   0  0  0  0  0  0  0  0  0  0  0  0
    3.4030   -1.2327    0.0000 O   0  0  0  0  0  0  0  0  0  0  0  0
    9.4651    1.2673    0.0000 N   0  0  0  0  0  0  0  0  0  0  0  0
   11.1791   -0.4454    0.0000 N   0  0  0  0  0  0  0  0  0  0  0  0
    6.0010    1.2673    0.0000 N   0  3  0  0  0  0  0  0  0  0  0  0
    2.5369    0.2673    0.0000 N   0  0  0  0  0  0  0  0  0  0  0  0
    9.4651    0.2673    0.0000 C   0  0  1  0  0  0  0  0  0  0  0  0
   10.4734    0.2631    0.0000 C   0  0  1  0  0  0  0  0  0  0  0  0
   10.4734    1.2714    0.0000 C   0  0  0  0  0  0  0  0  0  0  0  0
    8.5991    1.7673    0.0000 C   0  0  0  0  0  0  0  0  0  0  0  0
    7.7331    1.2673    0.0000 C   0  0  0  0  0  0  0  0  0  0  0  0
    7.7331    0.2673    0.0000 C   0  0  0  0  0  0  0  0  0  0  0  0
    6.8671    1.7673    0.0000 C   0  0  0  0  0  0  0  0  0  0  0  0
   12.1455   -0.1886    0.0000 C   0  0  0  0  0  0  0  0  0  0  0  0
   12.8512   -0.8972    0.0000 C   0  0  1  0  0  0  0  0  0  0  0  0
    8.5991    2.7673    0.0000 C   0  0  0  0  0  0  0  0  0  0  0  0
   13.8176   -0.6403    0.0000 C   0  0  0  0  0  0  0  0  0  0  0  0
    5.1350    1.7673    0.0000 C   0  0  0  0  0  0  0  0  0  0  0  0
    6.0010    0.2673    0.0000 C   0  0  0  0  0  0  0  0  0  0  0  0
   14.5233   -1.3489    0.0000 C   0  0  0  0  0  0  0  0  0  0  0  0
   14.0784    0.3251    0.0000 C   0  0  0  0  0  0  0  0  0  0  0  0
    4.2690    1.2673    0.0000 C   0  0  0  0  0  0  0  0  0  0  0  0
    5.1350   -0.2327    0.0000 C   0  0  0  0  0  0  0  0  0  0  0  0
    4.2690    0.2673    0.0000 C   0  0  0  0  0  0  0  0  0  0  0  0
   15.4897   -1.0921    0.0000 C   0  0  0  0  0  0  0  0  0  0  0  0
   15.0449    0.5819    0.0000 C   0  0  0  0  0  0  0  0  0  0  0  0
   15.7505   -0.1267    0.0000 C   0  0  0  0  0  0  0  0  0  0  0  0
    3.4030   -0.2327    0.0000 C   0  0  0  0  0  0  0  0  0  0  0  0
    9.6834   -0.5542    0.0000 H   0  0  0  0  0  0  0  0  0  0  0  0
   10.2344   -0.3090    0.0000 H   0  0  0  0  0  0  0  0  0  0  0  0
    7.1225    0.3749    0.0000 H   0  0  0  0  0  0  0  0  0  0  0  0
    7.5210   -0.3154    0.0000 H   0  0  0  0  0  0  0  0  0  0  0  0
   11.0174   -1.0440    0.0000 H   0  0  0  0  0  0  0  0  0  0  0  0
    7.2656    2.2422    0.0000 H   0  0  0  0  0  0  0  0  0  0  0  0
    6.4685    2.2422    0.0000 H   0  0  0  0  0  0  0  0  0  0  0  0
   12.2520   -1.0564    0.0000 H   0  0  0  0  0  0  0  0  0  0  0  0
    5.1350    2.3873    0.0000 H   0  0  0  0  0  0  0  0  0  0  0  0
    6.5380   -0.0427    0.0000 H   0  0  0  0  0  0  0  0  0  0  0  0
   14.3616   -1.9474    0.0000 H   0  0  0  0  0  0  0  0  0  0  0  0
   13.6409    0.7644    0.0000 H   0  0  0  0  0  0  0  0  0  0  0  0
    3.7320    1.5773    0.0000 H   0  0  0  0  0  0  0  0  0  0  0  0
    5.1350   -0.8527    0.0000 H   0  0  0  0  0  0  0  0  0  0  0  0
   12.7671   -3.2673    0.0000 H   0  0  0  0  0  0  0  0  0  0  0  0
   15.9272   -1.5314    0.0000 H   0  0  0  0  0  0  0  0  0  0  0  0
   15.2066    1.1804    0.0000 H   0  0  0  0  0  0  0  0  0  0  0  0
   16.3497    0.0326    0.0000 H   0  0  0  0  0  0  0  0  0  0  0  0
    2.0000   -0.0427    0.0000 H   0  0  0  0  0  0  0  0  0  0  0  0
    2.5369    0.8873    0.0000 H   0  0  0  0  0  0  0  0  0  0  0  0
  1 15  1  0  0  0  0
  1 20  1  0  0  0  0
  2  7  1  0  0  0  0
  2  8  2  0  0  0  0
  2  9  2  0  0  0  0
  2 23  1  0  0  0  0
  3 17  2  0  0  0  0
  4 22  2  0  0  0  0
  5 24  1  0  0  0  0
  6 24  2  0  0  0  0
  7 51  1  0  0  0  0
 10 36  2  0  0  0  0
 11 15  1  0  0  0  0
 11 17  1  0  0  0  0
 11 18  1  0  0  0  0
 16 12  1  1  0  0  0
 12 22  1  0  0  0  0
 12 41  1  0  0  0  0
 13 21  1  0  0  0  0
 13 26  2  0  0  0  0
 13 27  1  0  0  0  0
 14 36  1  0  0  0  0
 14 55  1  0  0  0  0
 14 56  1  0  0  0  0
 15 16  1  0  0  0  0
 15 37  1  6  0  0  0
 16 17  1  0  0  0  0
 16 38  1  0  0  0  0
 18 19  2  0  0  0  0
 18 24  1  0  0  0  0
 19 20  1  0  0  0  0
 19 21  1  0  0  0  0
 20 39  1  0  0  0  0
 20 40  1  0  0  0  0
 21 42  1  0  0  0  0
 21 43  1  0  0  0  0
 23 22  1  1  0  0  0
 23 25  1  0  0  0  0
 23 44  1  0  0  0  0
 25 28  2  0  0  0  0
 25 29  1  0  0  0  0
 26 30  1  0  0  0  0
 26 45  1  0  0  0  0
 27 31  2  0  0  0  0
 27 46  1  0  0  0  0
 28 33  1  0  0  0  0
 28 47  1  0  0  0  0
 29 34  2  0  0  0  0
 29 48  1  0  0  0  0
 30 32  2  0  0  0  0
 30 49  1  0  0  0  0
 31 32  1  0  0  0  0
 31 50  1  0  0  0  0
 32 36  1  0  0  0  0
 33 35  2  0  0  0  0
 33 52  1  0  0  0  0
 34 35  1  0  0  0  0
 34 53  1  0  0  0  0
 35 54  1  0  0  0  0
M  CHG  2   5  -1  13   1
M  END
> <PUBCHEM_COMPOUND_CID>
656575

> <PUBCHEM_COMPOUND_CANONICALIZED>
1

> <PUBCHEM_CACTVS_COMPLEXITY>
1050

> <PUBCHEM_CACTVS_HBOND_ACCEPTOR>
9

> <PUBCHEM_CACTVS_HBOND_DONOR>
3

> <PUBCHEM_CACTVS_ROTATABLE_BOND>
7

> <PUBCHEM_CACTVS_SUBSKEYS>
AAADceB7vABgAAAAAAAAAAAAAABYAAAAAAA8QIAAAAAQAAABwAAAHgQQCAAADCjF2gS8iJPMEIqoAjX3XHDCgCB1AjAI2KG4ZNgKZHrglbGUMQhglgD4yYcciICOAAAAAAAAAAAAAAAAAAAAAAAAAAAAAA==

> <PUBCHEM_IUPAC_OPENEYE_NAME>
(6R,7R)-3-[(4-carbamoylpyridin-1-ium-1-yl)methyl]-8-oxo-7-[[(2R)-2-phenyl-2-sulfo-acetyl]amino]-5-thia-1-azabicyclo[4.2.0]oct-2-ene-2-carboxylate

> <PUBCHEM_IUPAC_CAS_NAME>
(6R,7R)-3-[(4-carbamoyl-1-pyridin-1-iumyl)methyl]-8-oxo-7-[[(2R)-1-oxo-2-phenyl-2-sulfoethyl]amino]-5-thia-1-azabicyclo[4.2.0]oct-2-ene-2-carboxylate

> <PUBCHEM_IUPAC_NAME>
(6R,7R)-3-[(4-carbamoylpyridin-1-ium-1-yl)methyl]-8-oxo-7-[[(2R)-2-phenyl-2-sulfoacetyl]amino]-5-thia-1-azabicyclo[4.2.0]oct-2-ene-2-carboxylate

> <PUBCHEM_IUPAC_SYSTEMATIC_NAME>
(6R,7R)-3-[(4-aminocarbonylpyridin-1-ium-1-yl)methyl]-8-oxidanylidene-7-[[(2R)-2-phenyl-2-sulfo-ethanoyl]amino]-5-thia-1-azabicyclo[4.2.0]oct-2-ene-2-carboxylate

> <PUBCHEM_IUPAC_TRADITIONAL_NAME>
(6R,7R)-3-[(4-carbamoylpyridin-1-ium-1-yl)methyl]-8-keto-7-[[(2R)-2-phenyl-2-sulfo-acetyl]amino]-5-thia-1-azabicyclo[4.2.0]oct-2-ene-2-carboxylate

> <PUBCHEM_IUPAC_INCHI>
InChI=1S/C22H20N4O8S2/c23-18(27)13-6-8-25(9-7-13)10-14-11-35-21-15(20(29)26(21)16(14)22(30)31)24-19(28)17(36(32,33)34)12-4-2-1-3-5-12/h1-9,15,17,21H,10-11H2,(H4-,23,24,27,28,30,31,32,33,34)/t15-,17-,21-/m1/s1

> <PUBCHEM_IUPAC_INCHIKEY>
SYLKGLMBLAAGSC-QLVMHMETSA-N

> <PUBCHEM_XLOGP3>
0.2

> <PUBCHEM_EXACT_MASS>
532.072256

> <PUBCHEM_MOLECULAR_FORMULA>
C22H20N4O8S2

> <PUBCHEM_MOLECULAR_WEIGHT>
532.5462

> <PUBCHEM_OPENEYE_CAN_SMILES>
C1C(=C(N2C(S1)C(C2=O)NC(=O)C(C3=CC=CC=C3)S(=O)(=O)O)C(=O)[O-])C[N+]4=CC=C(C=C4)C(=O)N

> <PUBCHEM_OPENEYE_ISO_SMILES>
C1C(=C(N2[C@H](S1)[C@@H](C2=O)NC(=O)[C@@H](C3=CC=CC=C3)S(=O)(=O)O)C(=O)[O-])C[N+]4=CC=C(C=C4)C(=O)N

> <PUBCHEM_CACTVS_TPSA>
225

> <PUBCHEM_MONOISOTOPIC_WEIGHT>
532.072256

> <PUBCHEM_TOTAL_CHARGE>
0

> <PUBCHEM_HEAVY_ATOM_COUNT>
36

> <PUBCHEM_ATOM_DEF_STEREO_COUNT>
3

> <PUBCHEM_ATOM_UDEF_STEREO_COUNT>
0

> <PUBCHEM_BOND_DEF_STEREO_COUNT>
0

> <PUBCHEM_BOND_UDEF_STEREO_COUNT>
0

> <PUBCHEM_ISOTOPIC_ATOM_COUNT>
0

> <PUBCHEM_COMPONENT_COUNT>
1

> <PUBCHEM_CACTVS_TAUTO_COUNT>
8

> <PUBCHEM_COORDINATE_TYPE>
1
5
255

> <PUBCHEM_BONDANNOTATIONS>
16  12  5
13  26  8
13  27  8
15  37  6
23  22  5
25  28  8
25  29  8
26  30  8
27  31  8
28  33  8
29  34  8
30  32  8
31  32  8
33  35  8
34  35  8

$$$$

