19003
  -OEChem-07051213033D

 46 48  0     1  0  0  0  0  0999 V2000
   -0.8170    1.4846    0.4083 S   0  0  0  0  0  0  0  0  0  0  0  0
   -1.5874   -2.6709   -0.8369 O   0  0  0  0  0  0  0  0  0  0  0  0
   -5.2342    0.3887   -0.9304 O   0  0  0  0  0  0  0  0  0  0  0  0
    2.6385   -1.1185    1.5328 O   0  0  0  0  0  0  0  0  0  0  0  0
   -4.7419   -1.1316    0.6951 O   0  0  0  0  0  0  0  0  0  0  0  0
   -2.1284   -0.7533    0.4282 N   0  0  0  0  0  0  0  0  0  0  0  0
    0.9997   -0.9372   -0.1027 N   0  0  0  0  0  0  0  0  0  0  0  0
    3.1869   -1.4924   -1.7351 N   0  0  0  0  0  0  0  0  0  0  0  0
   -1.0556   -0.1398    1.2165 C   0  0  1  0  0  0  0  0  0  0  0  0
   -0.1461   -1.2845    0.7497 C   0  0  1  0  0  0  0  0  0  0  0  0
   -2.9692    0.0933   -0.3938 C   0  0  2  0  0  0  0  0  0  0  0  0
   -2.6183    1.5593   -0.0603 C   0  0  0  0  0  0  0  0  0  0  0  0
   -1.3746   -1.7953   -0.0292 C   0  0  0  0  0  0  0  0  0  0  0  0
    3.3223   -0.4940   -0.6727 C   0  0  0  0  0  0  0  0  0  0  0  0
   -3.3916    2.1445    1.1292 C   0  0  0  0  0  0  0  0  0  0  0  0
   -2.7767    2.4631   -1.2843 C   0  0  0  0  0  0  0  0  0  0  0  0
    3.0033    0.8983   -1.2376 C   0  0  0  0  0  0  0  0  0  0  0  0
    4.7430   -0.5572   -0.0919 C   0  0  0  0  0  0  0  0  0  0  0  0
    2.3074   -0.8847    0.3721 C   0  0  0  0  0  0  0  0  0  0  0  0
   -4.3870   -0.3012   -0.1281 C   0  0  0  0  0  0  0  0  0  0  0  0
    3.2914    2.0167   -0.2341 C   0  0  0  0  0  0  0  0  0  0  0  0
    5.0186    0.5717    0.9034 C   0  0  0  0  0  0  0  0  0  0  0  0
    4.7169    1.9401    0.3019 C   0  0  0  0  0  0  0  0  0  0  0  0
   -1.2786   -0.1107    2.2869 H   0  0  0  0  0  0  0  0  0  0  0  0
    0.1347   -1.9780    1.5522 H   0  0  0  0  0  0  0  0  0  0  0  0
   -2.7453   -0.1485   -1.4416 H   0  0  0  0  0  0  0  0  0  0  0  0
    0.8451   -0.7646   -1.0931 H   0  0  0  0  0  0  0  0  0  0  0  0
   -3.0113    3.1354    1.4053 H   0  0  0  0  0  0  0  0  0  0  0  0
   -4.4528    2.2722    0.8885 H   0  0  0  0  0  0  0  0  0  0  0  0
   -3.3337    1.5046    2.0169 H   0  0  0  0  0  0  0  0  0  0  0  0
   -2.4385    3.4849   -1.0756 H   0  0  0  0  0  0  0  0  0  0  0  0
   -2.2047    2.0910   -2.1423 H   0  0  0  0  0  0  0  0  0  0  0  0
   -3.8250    2.5285   -1.5950 H   0  0  0  0  0  0  0  0  0  0  0  0
    1.9654    0.9887   -1.5776 H   0  0  0  0  0  0  0  0  0  0  0  0
    3.6240    1.0794   -2.1267 H   0  0  0  0  0  0  0  0  0  0  0  0
    5.4770   -0.4791   -0.9061 H   0  0  0  0  0  0  0  0  0  0  0  0
    4.9318   -1.5209    0.3991 H   0  0  0  0  0  0  0  0  0  0  0  0
    2.5836    1.9587    0.6012 H   0  0  0  0  0  0  0  0  0  0  0  0
    3.1332    2.9888   -0.7152 H   0  0  0  0  0  0  0  0  0  0  0  0
    6.0737    0.5354    1.2003 H   0  0  0  0  0  0  0  0  0  0  0  0
    4.4411    0.4430    1.8241 H   0  0  0  0  0  0  0  0  0  0  0  0
    5.4239    2.1452   -0.5116 H   0  0  0  0  0  0  0  0  0  0  0  0
    4.8690    2.7177    1.0590 H   0  0  0  0  0  0  0  0  0  0  0  0
    3.4688   -2.4096   -1.3898 H   0  0  0  0  0  0  0  0  0  0  0  0
    3.8264   -1.2744   -2.4987 H   0  0  0  0  0  0  0  0  0  0  0  0
   -6.1707    0.1446   -0.7705 H   0  0  0  0  0  0  0  0  0  0  0  0
  1  9  1  0  0  0  0
  1 12  1  0  0  0  0
  2 13  2  0  0  0  0
  3 20  1  0  0  0  0
  3 46  1  0  0  0  0
  4 19  2  0  0  0  0
  5 20  2  0  0  0  0
  6  9  1  0  0  0  0
  6 11  1  0  0  0  0
  6 13  1  0  0  0  0
  7 10  1  0  0  0  0
  7 19  1  0  0  0  0
  7 27  1  0  0  0  0
  8 14  1  0  0  0  0
  8 44  1  0  0  0  0
  8 45  1  0  0  0  0
  9 10  1  0  0  0  0
  9 24  1  0  0  0  0
 10 13  1  0  0  0  0
 10 25  1  0  0  0  0
 11 12  1  0  0  0  0
 11 20  1  0  0  0  0
 11 26  1  0  0  0  0
 12 15  1  0  0  0  0
 12 16  1  0  0  0  0
 14 17  1  0  0  0  0
 14 18  1  0  0  0  0
 14 19  1  0  0  0  0
 15 28  1  0  0  0  0
 15 29  1  0  0  0  0
 15 30  1  0  0  0  0
 16 31  1  0  0  0  0
 16 32  1  0  0  0  0
 16 33  1  0  0  0  0
 17 21  1  0  0  0  0
 17 34  1  0  0  0  0
 17 35  1  0  0  0  0
 18 22  1  0  0  0  0
 18 36  1  0  0  0  0
 18 37  1  0  0  0  0
 21 23  1  0  0  0  0
 21 38  1  0  0  0  0
 21 39  1  0  0  0  0
 22 23  1  0  0  0  0
 22 40  1  0  0  0  0
 22 41  1  0  0  0  0
 23 42  1  0  0  0  0
 23 43  1  0  0  0  0
M  END
> <PUBCHEM_COMPOUND_CID>
19003

> <PUBCHEM_CONFORMER_RMSD>
0.8

> <PUBCHEM_CONFORMER_DIVERSEORDER>
5
26
8
18
12
7
20
21
22
16
13
27
4
19
6
3
14
17
2
23
11
15
25
1
9
24
10

> <PUBCHEM_MMFF94_PARTIAL_CHARGES>
20
1 -0.45
10 0.28
11 0.36
12 0.23
13 0.58
14 0.33
19 0.57
2 -0.57
20 0.66
27 0.37
3 -0.65
4 -0.57
44 0.36
45 0.36
46 0.5
5 -0.57
6 -0.59
7 -0.65
8 -0.99
9 0.44

> <PUBCHEM_EFFECTIVE_ROTOR_COUNT>
6

> <PUBCHEM_PHARMACOPHORE_FEATURES>
12
1 2 acceptor
1 3 acceptor
1 4 acceptor
1 5 acceptor
1 7 donor
1 8 cation
1 8 donor
3 12 15 16 hydrophobe
3 3 5 20 anion
4 6 9 10 13 rings
6 14 17 18 21 22 23 rings
7 1 6 9 10 11 12 13 rings

> <PUBCHEM_HEAVY_ATOM_COUNT>
23

> <PUBCHEM_ATOM_DEF_STEREO_COUNT>
3

> <PUBCHEM_ATOM_UDEF_STEREO_COUNT>
0

> <PUBCHEM_BOND_DEF_STEREO_COUNT>
0

> <PUBCHEM_BOND_UDEF_STEREO_COUNT>
0

> <PUBCHEM_ISOTOPIC_ATOM_COUNT>
0

> <PUBCHEM_COMPONENT_COUNT>
1

> <PUBCHEM_CACTVS_TAUTO_COUNT>
2

> <PUBCHEM_CONFORMER_ID>
00004A3B00000005

> <PUBCHEM_MMFF94_ENERGY>
51.6067

> <PUBCHEM_FEATURE_SELFOVERLAP>
64.685

> <PUBCHEM_SHAPE_FINGERPRINT>
10498660 4 18268432502221091669
10646746 165 18411698794780250260
11370993 70 18333168375631551198
11715629 250 18413107255989823190
12166972 35 16988840545039090596
12173636 292 18408603673484358351
12236239 1 17989491822655925066
12403814 3 18342458115072615435
12596602 18 16415198919481091144
12670546 177 18113904827265777311
128620 24 18186799179706625072
13224815 77 18413669127600686608
13583140 156 17561360690660468353
14251764 38 18411416198559346548
14790565 3 18334566989088126641
15196674 1 18411417327829368120
17349148 13 16917065529700032835
17492 89 18342460399473932810
17802600 8 18343584044807125116
18186145 218 18265891535086044948
20645477 56 18408038494353369178
20645477 70 16805593816025985558
20715895 44 18341901817760246477
21315764 268 18342468019309995700
21524375 3 18271803557495246483
21623110 236 18339634556196469657
21652331 79 18342739585227039409
21864079 5 18339639074174764169
23227448 37 18337956675370826343
23402539 116 18410581660690896415
23557571 272 18113897161202659224
23559900 14 18042403698456166038
2838139 119 16701198472739494415
351380 180 18272091591092544948
3545911 37 18334009472183353638
4028521 119 18343022198417504453
4340502 62 16773797000533545459
474 4 17703222915419121788
5104073 3 18341047522836578144
5281201 14 18114454665005693342
633830 44 17896599681467082781
9709674 26 18334005103879918934

> <PUBCHEM_SHAPE_MULTIPOLES>
438.76
10.83
2.49
1.25
2.29
0.47
-0.1
2.51
-0.39
-0.7
-0.3
0.24
0.01
0.31

> <PUBCHEM_SHAPE_SELFOVERLAP>
909.993

> <PUBCHEM_SHAPE_VOLUME>
253.2

> <PUBCHEM_COORDINATE_TYPE>
2
5
10

$$$$

