9754
  -OEChem-06261204013D

 14 13  0     0  0  0  0  0  0999 V2000
    3.3300   -0.6317    0.1360 I   0  0  0  0  0  0  0  0  0  0  0  0
   -2.3173   -0.9808   -0.2942 F   0  0  0  0  0  0  0  0  0  0  0  0
    0.3533   -0.0398    0.1958 C   0  0  0  0  0  0  0  0  0  0  0  0
   -0.8583    0.8486   -0.0953 C   0  0  0  0  0  0  0  0  0  0  0  0
    1.6439    0.6067   -0.3061 C   0  0  0  0  0  0  0  0  0  0  0  0
   -2.1515    0.1971    0.3637 C   0  0  0  0  0  0  0  0  0  0  0  0
    0.4176   -0.2212    1.2761 H   0  0  0  0  0  0  0  0  0  0  0  0
    0.2160   -1.0171   -0.2839 H   0  0  0  0  0  0  0  0  0  0  0  0
   -0.7414    1.8186    0.4008 H   0  0  0  0  0  0  0  0  0  0  0  0
   -0.9173    1.0305   -1.1748 H   0  0  0  0  0  0  0  0  0  0  0  0
    1.5866    0.7699   -1.3880 H   0  0  0  0  0  0  0  0  0  0  0  0
    1.7811    1.5864    0.1651 H   0  0  0  0  0  0  0  0  0  0  0  0
   -3.0113    0.8339    0.1369 H   0  0  0  0  0  0  0  0  0  0  0  0
   -2.1395   -0.0118    1.4374 H   0  0  0  0  0  0  0  0  0  0  0  0
  1  5  1  0  0  0  0
  2  6  1  0  0  0  0
  3  4  1  0  0  0  0
  3  5  1  0  0  0  0
  3  7  1  0  0  0  0
  3  8  1  0  0  0  0
  4  6  1  0  0  0  0
  4  9  1  0  0  0  0
  4 10  1  0  0  0  0
  5 11  1  0  0  0  0
  5 12  1  0  0  0  0
  6 13  1  0  0  0  0
  6 14  1  0  0  0  0
M  END
> <PUBCHEM_COMPOUND_CID>
9754

> <PUBCHEM_CONFORMER_RMSD>
0.4

> <PUBCHEM_CONFORMER_DIVERSEORDER>
2
21
15
20
3
9
1
14
16
18
6
19
4
17
7
11
5
10
13
8
12

> <PUBCHEM_MMFF94_PARTIAL_CHARGES>
4
1 -0.19
2 -0.34
5 0.19
6 0.34

> <PUBCHEM_EFFECTIVE_ROTOR_COUNT>
3

> <PUBCHEM_PHARMACOPHORE_FEATURES>
1
1 1 hydrophobe

> <PUBCHEM_HEAVY_ATOM_COUNT>
6

> <PUBCHEM_ATOM_DEF_STEREO_COUNT>
0

> <PUBCHEM_ATOM_UDEF_STEREO_COUNT>
0

> <PUBCHEM_BOND_DEF_STEREO_COUNT>
0

> <PUBCHEM_BOND_UDEF_STEREO_COUNT>
0

> <PUBCHEM_ISOTOPIC_ATOM_COUNT>
0

> <PUBCHEM_COMPONENT_COUNT>
1

> <PUBCHEM_CACTVS_TAUTO_COUNT>
1

> <PUBCHEM_CONFORMER_ID>
0000261A00000002

> <PUBCHEM_MMFF94_ENERGY>
0.3609

> <PUBCHEM_FEATURE_SELFOVERLAP>
5.074

> <PUBCHEM_SHAPE_FINGERPRINT>
14325111 11 18410855477788098400
20651381 32 14836128788406270522
21293036 1 15123500402784390458
29004967 10 16298380266899482272
5460574 1 8502368928092989536

> <PUBCHEM_SHAPE_MULTIPOLES>
128.14
5.17
1.02
0.71
2.02
0.06
-0.03
1.41
-0.15
-0.07
0.07
0.13
0.02
-0.18

> <PUBCHEM_SHAPE_SELFOVERLAP>
202.61

> <PUBCHEM_SHAPE_VOLUME>
92.7

> <PUBCHEM_COORDINATE_TYPE>
2
5
10

$$$$

