582767
  -OEChem-06241222443D

 45 46  0     1  0  0  0  0  0999 V2000
    1.2283    2.6670   -0.9745 O   0  0  0  0  0  0  0  0  0  0  0  0
    2.9827   -1.5401    0.1393 O   0  0  0  0  0  0  0  0  0  0  0  0
    4.4843   -1.2807   -1.5820 O   0  0  0  0  0  0  0  0  0  0  0  0
   -2.1558   -1.7775    0.9337 N   0  0  0  0  0  0  0  0  0  0  0  0
    0.4576    3.3061    1.8130 N   0  0  0  0  0  0  0  0  0  0  0  0
    2.2444    0.9338    0.1871 N   0  0  0  0  0  0  0  0  0  0  0  0
   -1.3821    0.3683    0.1273 C   0  0  1  0  0  0  0  0  0  0  0  0
   -1.1361    1.7461    0.7221 C   0  0  0  0  0  0  0  0  0  0  0  0
   -1.1225   -0.7718    1.1475 C   0  0  0  0  0  0  0  0  0  0  0  0
   -2.8103    0.1021   -0.2516 C   0  0  0  0  0  0  0  0  0  0  0  0
    0.3105    2.0012    1.1715 C   0  0  1  0  0  0  0  0  0  0  0  0
   -3.1912   -1.1479    0.2459 C   0  0  0  0  0  0  0  0  0  0  0  0
   -3.6773    0.8689   -1.0128 C   0  0  0  0  0  0  0  0  0  0  0  0
   -4.4420   -1.6699   -0.0359 C   0  0  0  0  0  0  0  0  0  0  0  0
    1.2897    1.9246    0.0034 C   0  0  0  0  0  0  0  0  0  0  0  0
   -4.9506    0.3609   -1.2754 C   0  0  0  0  0  0  0  0  0  0  0  0
   -5.3295   -0.9012   -0.7930 C   0  0  0  0  0  0  0  0  0  0  0  0
    3.2941    0.6563   -0.7669 C   0  0  1  0  0  0  0  0  0  0  0  0
    4.5198    1.5000   -0.4538 C   0  0  0  0  0  0  0  0  0  0  0  0
    3.6611   -0.8199   -0.7974 C   0  0  0  0  0  0  0  0  0  0  0  0
    3.2786   -2.9399    0.1829 C   0  0  0  0  0  0  0  0  0  0  0  0
    2.4462   -3.5864    1.2696 C   0  0  0  0  0  0  0  0  0  0  0  0
   -0.7626    0.2080   -0.7642 H   0  0  0  0  0  0  0  0  0  0  0  0
   -1.8090    1.9020    1.5773 H   0  0  0  0  0  0  0  0  0  0  0  0
   -1.4177    2.5080   -0.0180 H   0  0  0  0  0  0  0  0  0  0  0  0
   -1.1956   -0.4122    2.1814 H   0  0  0  0  0  0  0  0  0  0  0  0
   -0.1253   -1.2035    1.0123 H   0  0  0  0  0  0  0  0  0  0  0  0
    0.5744    1.2548    1.9286 H   0  0  0  0  0  0  0  0  0  0  0  0
   -2.3250   -2.5412    1.5732 H   0  0  0  0  0  0  0  0  0  0  0  0
   -3.3796    1.8337   -1.4085 H   0  0  0  0  0  0  0  0  0  0  0  0
   -4.7357   -2.6512    0.3225 H   0  0  0  0  0  0  0  0  0  0  0  0
    1.4292    3.4526    2.0836 H   0  0  0  0  0  0  0  0  0  0  0  0
    0.2230    4.0469    1.1535 H   0  0  0  0  0  0  0  0  0  0  0  0
   -5.6513    0.9414   -1.8694 H   0  0  0  0  0  0  0  0  0  0  0  0
   -6.3204   -1.2866   -1.0179 H   0  0  0  0  0  0  0  0  0  0  0  0
    2.2277    0.3771    1.0365 H   0  0  0  0  0  0  0  0  0  0  0  0
    2.9154    0.9090   -1.7642 H   0  0  0  0  0  0  0  0  0  0  0  0
    4.2777    2.5682   -0.4641 H   0  0  0  0  0  0  0  0  0  0  0  0
    5.3164    1.3259   -1.1850 H   0  0  0  0  0  0  0  0  0  0  0  0
    4.9221    1.2593    0.5371 H   0  0  0  0  0  0  0  0  0  0  0  0
    3.0401   -3.3939   -0.7854 H   0  0  0  0  0  0  0  0  0  0  0  0
    4.3433   -3.0812    0.3992 H   0  0  0  0  0  0  0  0  0  0  0  0
    2.6521   -4.6583    1.3347 H   0  0  0  0  0  0  0  0  0  0  0  0
    2.6554   -3.1258    2.2408 H   0  0  0  0  0  0  0  0  0  0  0  0
    1.3785   -3.4430    1.0735 H   0  0  0  0  0  0  0  0  0  0  0  0
  1 15  2  0  0  0  0
  2 20  1  0  0  0  0
  2 21  1  0  0  0  0
  3 20  2  0  0  0  0
  4  9  1  0  0  0  0
  4 12  1  0  0  0  0
  4 29  1  0  0  0  0
  5 11  1  0  0  0  0
  5 32  1  0  0  0  0
  5 33  1  0  0  0  0
  6 15  1  0  0  0  0
  6 18  1  0  0  0  0
  6 36  1  0  0  0  0
  7  8  1  0  0  0  0
  7  9  1  0  0  0  0
  7 10  1  0  0  0  0
  7 23  1  0  0  0  0
  8 11  1  0  0  0  0
  8 24  1  0  0  0  0
  8 25  1  0  0  0  0
  9 26  1  0  0  0  0
  9 27  1  0  0  0  0
 10 12  1  0  0  0  0
 10 13  2  0  0  0  0
 11 15  1  0  0  0  0
 11 28  1  0  0  0  0
 12 14  2  0  0  0  0
 13 16  1  0  0  0  0
 13 30  1  0  0  0  0
 14 17  1  0  0  0  0
 14 31  1  0  0  0  0
 16 17  2  0  0  0  0
 16 34  1  0  0  0  0
 17 35  1  0  0  0  0
 18 19  1  0  0  0  0
 18 20  1  0  0  0  0
 18 37  1  0  0  0  0
 19 38  1  0  0  0  0
 19 39  1  0  0  0  0
 19 40  1  0  0  0  0
 21 22  1  0  0  0  0
 21 41  1  0  0  0  0
 21 42  1  0  0  0  0
 22 43  1  0  0  0  0
 22 44  1  0  0  0  0
 22 45  1  0  0  0  0
M  END
> <PUBCHEM_COMPOUND_CID>
582767

> <PUBCHEM_CONFORMER_RMSD>
1

> <PUBCHEM_CONFORMER_DIVERSEORDER>
4
83
88
218
146
115
38
68
168
229
203
194
148
303
66
307
273
258
235
3
177
287
67
54
39
217
16
248
53
281
315
154
122
197
183
214
196
289
180
113
158
256
52
105
142
250
165
206
140
47
254
301
318
322
123
90
96
223
167
31
298
76
79
35
63
222
161
111
61
241
201
187
263
51
107
317
169
2
212
274
255
181
93
99
12
311
204
17
288
312
279
102
271
132
184
48
128
117
121
114
103
94
80
41
226
145
259
297
261
174
19
85
27
266
313
175
40
264
120
242
147
193
91
314
230
305
227
178
277
50
8
82
179
252
239
69
13
11
269
95
64
244
30
98
86
292
127
210
246
1
153
71
202
37
211
109
130
81
208
84
173
251
125
77
166
89
172
238
176
44
189
190
280
262
247
159
137
112
265
5
10
72
163
131
141
309
126
22
302
286
294
116
104
213
28
138
207
32
152
232
257
215
320
236
199
110
233
70
209
290
135
186
182
195
97
18
308
101
43
276
29
300
162
65
24
149
220
282
270
26
268
275
171
87
55
46
306
100
20
144
200
164
321
310
134
185
73
136
155
237
295
156
74
291
285
249
25
283
15
157
170
224
188
272
36
119
316
304
129
118
253
23
299
133
192
139
78
231
42
260
6
21
205
150
245
57
56
9
191
284
293
75
296
319
62
221
243
106
216
151
14
108
34
228
198
143
59
160
219
234
225
240
92
33
124
60
49
267
278
45
58
7

> <PUBCHEM_MMFF94_PARTIAL_CHARGES>
27
1 -0.57
10 -0.14
11 0.33
12 0.1
13 -0.15
14 -0.15
15 0.57
16 -0.15
17 -0.15
18 0.36
2 -0.43
20 0.66
21 0.28
29 0.4
3 -0.57
30 0.15
31 0.15
32 0.36
33 0.36
34 0.15
35 0.15
36 0.37
4 -0.87
5 -0.99
6 -0.73
7 0.14
9 0.37

> <PUBCHEM_EFFECTIVE_ROTOR_COUNT>
8.6

> <PUBCHEM_PHARMACOPHORE_FEATURES>
9
1 1 acceptor
1 3 acceptor
1 4 cation
1 4 donor
1 5 cation
1 5 donor
1 6 donor
5 4 7 9 10 12 rings
6 10 12 13 14 16 17 rings

> <PUBCHEM_HEAVY_ATOM_COUNT>
22

> <PUBCHEM_ATOM_DEF_STEREO_COUNT>
0

> <PUBCHEM_ATOM_UDEF_STEREO_COUNT>
3

> <PUBCHEM_BOND_DEF_STEREO_COUNT>
0

> <PUBCHEM_BOND_UDEF_STEREO_COUNT>
0

> <PUBCHEM_ISOTOPIC_ATOM_COUNT>
0

> <PUBCHEM_COMPONENT_COUNT>
1

> <PUBCHEM_CACTVS_TAUTO_COUNT>
2

> <PUBCHEM_CONFORMER_ID>
0008E46F00000004

> <PUBCHEM_MMFF94_ENERGY>
53.7881

> <PUBCHEM_FEATURE_SELFOVERLAP>
45.759

> <PUBCHEM_SHAPE_FINGERPRINT>
11069576 57 18339364166678108510
11370993 70 18059011657920475382
12363563 72 18040704879285594972
12553582 1 18337940298892758826
12788726 201 17971745833532063185
13533116 47 18115584821678761363
13631057 29 18262795302601528358
14251757 17 18202571704282891621
14790565 3 17834112327344086753
14866123 147 17686620551632087153
14931854 50 18342449391868125870
15183329 4 18114184172877920341
17349148 13 16660640722611132143
19026451 147 18341904042675099594
20626108 58 16733846176771270349
20645477 70 18261108560905360934
21250096 35 18259987088856605533
21285901 2 17917722317596242397
21315764 371 15285655278085018167
235170 7 17632302258778949047
23559900 14 18269561537644074933
23622692 118 18193275411343985086
2871803 45 18410567388709393180
3004659 81 18201442510357776242
312425 83 17131547366215364982
345986 75 17967532410817019435
46194498 28 17844525509527362141
463206 1 18262800657487236911
6438754 60 18410015480753120451
9709674 26 18199466554728927851

> <PUBCHEM_SHAPE_MULTIPOLES>
420.2
10.43
3.6
1.34
4.16
0.93
0.13
4.4
-5
-3.7
1.55
-0.22
-0.29
-0.05

> <PUBCHEM_SHAPE_SELFOVERLAP>
867.928

> <PUBCHEM_SHAPE_VOLUME>
242.2

> <PUBCHEM_COORDINATE_TYPE>
2
5
10

$$$$

