5462444
  -OEChem-07051212582D

 52 55  0     1  0  0  0  0  0999 V2000
    6.4489   -0.2917    0.0000 O   0  0  0  0  0  0  0  0  0  0  0  0
    2.8660    1.0346    0.0000 O   0  0  0  0  0  0  0  0  0  0  0  0
    5.2501    1.5037    0.0000 O   0  0  0  0  0  0  0  0  0  0  0  0
    3.7320    2.5346    0.0000 O   0  0  0  0  0  0  0  0  0  0  0  0
    4.6141   -2.0069    0.0000 N   0  0  3  0  0  0  0  0  0  0  0  0
    4.5981   -0.9654    0.0000 C   0  0  2  0  0  0  0  0  0  0  0  0
    5.4641   -0.4654    0.0000 C   0  0  2  0  0  0  0  0  0  0  0  0
    3.7320   -0.4654    0.0000 C   0  0  1  0  0  0  0  0  0  0  0  0
    5.4641    0.5346    0.0000 C   0  0  2  0  0  0  0  0  0  0  0  0
    4.3950   -0.5954    0.0000 C   0  0  0  0  0  0  0  0  0  0  0  0
    3.7320    0.5346    0.0000 C   0  0  1  0  0  0  0  0  0  0  0  0
    4.5981    1.0346    0.0000 C   0  0  0  0  0  0  0  0  0  0  0  0
    5.0422    0.5256    0.0000 C   0  0  1  0  0  0  0  0  0  0  0  0
    4.3114    0.2002    0.0000 C   0  0  1  0  0  0  0  0  0  0  0  0
    6.3739   -0.9534    0.0000 C   0  0  0  0  0  0  0  0  0  0  0  0
    2.8220   -0.9722    0.0000 C   0  0  0  0  0  0  0  0  0  0  0  0
    5.5124   -2.5158    0.0000 C   0  0  0  0  0  0  0  0  0  0  0  0
    3.7161   -2.5346    0.0000 C   0  0  0  0  0  0  0  0  0  0  0  0
    6.3982   -1.9855    0.0000 C   0  0  0  0  0  0  0  0  0  0  0  0
    2.8140   -2.0138    0.0000 C   0  0  0  0  0  0  0  0  0  0  0  0
    3.9693    1.1399    0.0000 C   0  0  0  0  0  0  0  0  0  0  0  0
    2.8660    2.0346    0.0000 C   0  0  0  0  0  0  0  0  0  0  0  0
    2.0000    2.5346    0.0000 C   0  0  0  0  0  0  0  0  0  0  0  0
    2.9959   -0.0404    0.0000 H   0  0  0  0  0  0  0  0  0  0  0  0
    5.8891    1.2708    0.0000 H   0  0  0  0  0  0  0  0  0  0  0  0
    3.8002   -0.4203    0.0000 H   0  0  0  0  0  0  0  0  0  0  0  0
    4.9867   -0.4102    0.0000 H   0  0  0  0  0  0  0  0  0  0  0  0
    3.7320    1.1546    0.0000 H   0  0  0  0  0  0  0  0  0  0  0  0
    4.9966    1.5096    0.0000 H   0  0  0  0  0  0  0  0  0  0  0  0
    4.1996    1.5096    0.0000 H   0  0  0  0  0  0  0  0  0  0  0  0
    4.5604    0.9157    0.0000 H   0  0  0  0  0  0  0  0  0  0  0  0
    3.7072    0.0607    0.0000 H   0  0  0  0  0  0  0  0  0  0  0  0
    6.9871   -1.0451    0.0000 H   0  0  0  0  0  0  0  0  0  0  0  0
    6.5691   -0.3649    0.0000 H   0  0  0  0  0  0  0  0  0  0  0  0
    2.6175   -0.3869    0.0000 H   0  0  0  0  0  0  0  0  0  0  0  0
    2.2104   -1.0736    0.0000 H   0  0  0  0  0  0  0  0  0  0  0  0
    5.1190   -2.9950    0.0000 H   0  0  0  0  0  0  0  0  0  0  0  0
    5.9172   -2.9854    0.0000 H   0  0  0  0  0  0  0  0  0  0  0  0
    3.3188   -3.0106    0.0000 H   0  0  0  0  0  0  0  0  0  0  0  0
    4.1171   -3.0075    0.0000 H   0  0  0  0  0  0  0  0  0  0  0  0
    6.6209   -2.5641    0.0000 H   0  0  0  0  0  0  0  0  0  0  0  0
    7.0064   -1.8650    0.0000 H   0  0  0  0  0  0  0  0  0  0  0  0
    2.2040   -1.9030    0.0000 H   0  0  0  0  0  0  0  0  0  0  0  0
    2.6005   -2.5959    0.0000 H   0  0  0  0  0  0  0  0  0  0  0  0
    6.6610    0.2909    0.0000 H   0  0  0  0  0  0  0  0  0  0  0  0
    4.5520    1.3519    0.0000 H   0  0  0  0  0  0  0  0  0  0  0  0
    3.7573    1.7225    0.0000 H   0  0  0  0  0  0  0  0  0  0  0  0
    3.3867    0.9278    0.0000 H   0  0  0  0  0  0  0  0  0  0  0  0
    5.8398    1.6953    0.0000 H   0  0  0  0  0  0  0  0  0  0  0  0
    2.3100    3.0716    0.0000 H   0  0  0  0  0  0  0  0  0  0  0  0
    1.4631    2.8446    0.0000 H   0  0  0  0  0  0  0  0  0  0  0  0
    1.6900    1.9977    0.0000 H   0  0  0  0  0  0  0  0  0  0  0  0
  7  1  1  6  0  0  0
  1 45  1  0  0  0  0
 11  2  1  6  0  0  0
  2 22  1  0  0  0  0
 13  3  1  1  0  0  0
  3 49  1  0  0  0  0
  4 22  2  0  0  0  0
  6  5  1  6  0  0  0
  5 17  1  0  0  0  0
  5 18  1  0  0  0  0
  6  7  1  0  0  0  0
  6  8  1  0  0  0  0
  6 10  1  0  0  0  0
  7  9  1  0  0  0  0
  7 15  1  0  0  0  0
  8 11  1  0  0  0  0
  8 16  1  0  0  0  0
  8 24  1  1  0  0  0
  9 12  1  0  0  0  0
  9 13  1  0  0  0  0
  9 25  1  6  0  0  0
 10 14  1  0  0  0  0
 10 26  1  0  0  0  0
 10 27  1  0  0  0  0
 11 12  1  0  0  0  0
 11 28  1  0  0  0  0
 12 29  1  0  0  0  0
 12 30  1  0  0  0  0
 13 14  1  0  0  0  0
 13 31  1  0  0  0  0
 14 21  1  6  0  0  0
 14 32  1  0  0  0  0
 15 19  1  0  0  0  0
 15 33  1  0  0  0  0
 15 34  1  0  0  0  0
 16 20  1  0  0  0  0
 16 35  1  0  0  0  0
 16 36  1  0  0  0  0
 17 19  1  0  0  0  0
 17 37  1  0  0  0  0
 17 38  1  0  0  0  0
 18 20  1  0  0  0  0
 18 39  1  0  0  0  0
 18 40  1  0  0  0  0
 19 41  1  0  0  0  0
 19 42  1  0  0  0  0
 20 43  1  0  0  0  0
 20 44  1  0  0  0  0
 21 46  1  0  0  0  0
 21 47  1  0  0  0  0
 21 48  1  0  0  0  0
 22 23  1  0  0  0  0
 23 50  1  0  0  0  0
 23 51  1  0  0  0  0
 23 52  1  0  0  0  0
M  END
> <PUBCHEM_COMPOUND_CID>
5462444

> <PUBCHEM_COMPOUND_CANONICALIZED>
1

> <PUBCHEM_CACTVS_COMPLEXITY>
511

> <PUBCHEM_CACTVS_HBOND_ACCEPTOR>
5

> <PUBCHEM_CACTVS_HBOND_DONOR>
2

> <PUBCHEM_CACTVS_ROTATABLE_BOND>
2

> <PUBCHEM_CACTVS_SUBSKEYS>
AAADceB6OAAAAAAAAAAAAAAAAAAAAAAAAAA8eIEAAAAYAACwAAAAHgAACAAADdzhgAYCCAMABgAIAACQCAAAAAAAAAAAAAAIAAACEAIAgAAGQAAHAACQAAHw8PcOgAAAAAAAAADCgAaUADQgAAAAAAAAAA==

> <PUBCHEM_IUPAC_INCHI>
InChI=1S/C18H29NO4/c1-11-10-17-13-5-3-7-19(17)8-4-6-18(17,22)14(16(11)21)9-15(13)23-12(2)20/h11,13-16,21-22H,3-10H2,1-2H3/t11-,13+,14+,15+,16+,17-,18-/m0/s1

> <PUBCHEM_IUPAC_INCHIKEY>
ZHMNKOPAHVBXQW-HCXPVWKYSA-N

> <PUBCHEM_XLOGP3_AA>
1.2

> <PUBCHEM_EXACT_MASS>
323.209658

> <PUBCHEM_MOLECULAR_FORMULA>
C18H29NO4

> <PUBCHEM_MOLECULAR_WEIGHT>
323.42716

> <PUBCHEM_OPENEYE_CAN_SMILES>
CC1CC23C4CCCN2CCCC3(C(C1O)CC4OC(=O)C)O

> <PUBCHEM_OPENEYE_ISO_SMILES>
C[C@H]1C[C@@]23[C@@H]4CCCN2CCC[C@@]3([C@@H]([C@@H]1O)C[C@H]4OC(=O)C)O

> <PUBCHEM_CACTVS_TPSA>
70

> <PUBCHEM_MONOISOTOPIC_WEIGHT>
323.209658

> <PUBCHEM_TOTAL_CHARGE>
0

> <PUBCHEM_HEAVY_ATOM_COUNT>
23

> <PUBCHEM_ATOM_DEF_STEREO_COUNT>
7

> <PUBCHEM_ATOM_UDEF_STEREO_COUNT>
0

> <PUBCHEM_BOND_DEF_STEREO_COUNT>
0

> <PUBCHEM_BOND_UDEF_STEREO_COUNT>
0

> <PUBCHEM_ISOTOPIC_ATOM_COUNT>
0

> <PUBCHEM_COMPONENT_COUNT>
1

> <PUBCHEM_CACTVS_TAUTO_COUNT>
1

> <PUBCHEM_COORDINATE_TYPE>
1
5
255

> <PUBCHEM_BONDANNOTATIONS>
7  1  6
14  21  6
11  2  6
13  3  5
6  5  6
8  24  5
9  25  6

$$$$

