13119
  -OEChem-06261207472D

103108  0     1  0  0  0  0  0999 V2000
    1.4030    9.0946    0.0000 S   0  0  0  0  0  0  0  0  0  0  0  0
   10.0472    3.7208    0.0000 O   0  0  0  0  0  0  0  0  0  0  0  0
   10.0472   14.0346    0.0000 O   0  0  0  0  0  0  0  0  0  0  0  0
   12.7113    5.1966    0.0000 O   0  0  0  0  0  0  0  0  0  0  0  0
   12.7113   15.5104    0.0000 O   0  0  0  0  0  0  0  0  0  0  0  0
    2.2690    9.5946    0.0000 O   0  0  0  0  0  0  0  0  0  0  0  0
    0.5369    8.5946    0.0000 O   0  0  0  0  0  0  0  0  0  0  0  0
    0.9030    9.9606    0.0000 O   0  0  0  0  0  0  0  0  0  0  0  0
    1.9030    8.2286    0.0000 O   0  0  0  0  0  0  0  0  0  0  0  0
    7.8404   12.0288    0.0000 N   0  0  3  0  0  0  0  0  0  0  0  0
    7.8404    1.7150    0.0000 N   0  0  3  0  0  0  0  0  0  0  0  0
    9.1812   17.5346    0.0000 N   0  0  0  0  0  0  0  0  0  0  0  0
    9.1812    7.2208    0.0000 N   0  0  0  0  0  0  0  0  0  0  0  0
    7.3404    2.5810    0.0000 C   0  0  3  0  0  0  0  0  0  0  0  0
    7.3404   12.8948    0.0000 C   0  0  3  0  0  0  0  0  0  0  0  0
    8.3152   14.0346    0.0000 C   0  0  1  0  0  0  0  0  0  0  0  0
    8.3152    3.7208    0.0000 C   0  0  1  0  0  0  0  0  0  0  0  0
   10.0310    2.1633    0.0000 C   0  0  2  0  0  0  0  0  0  0  0  0
   10.0310   12.4771    0.0000 C   0  0  2  0  0  0  0  0  0  0  0  0
    7.3493    3.9796    0.0000 C   0  0  0  0  0  0  0  0  0  0  0  0
    7.3493   14.2934    0.0000 C   0  0  0  0  0  0  0  0  0  0  0  0
    5.7672   11.6877    0.0000 C   0  0  0  0  0  0  0  0  0  0  0  0
    5.7672    1.3739    0.0000 C   0  0  0  0  0  0  0  0  0  0  0  0
    9.7722    1.1973    0.0000 C   0  0  0  0  0  0  0  0  0  0  0  0
    9.7722   11.5111    0.0000 C   0  0  0  0  0  0  0  0  0  0  0  0
    6.2672   10.8217    0.0000 C   0  0  0  0  0  0  0  0  0  0  0  0
    6.2672    0.5079    0.0000 C   0  0  0  0  0  0  0  0  0  0  0  0
    9.1812    4.2208    0.0000 C   0  0  1  0  0  0  0  0  0  0  0  0
    9.1812   14.5346    0.0000 C   0  0  1  0  0  0  0  0  0  0  0  0
   10.8970   12.9771    0.0000 C   0  0  0  0  0  0  0  0  0  0  0  0
   10.8970    2.6633    0.0000 C   0  0  0  0  0  0  0  0  0  0  0  0
    9.1812   15.5346    0.0000 C   0  0  0  0  0  0  0  0  0  0  0  0
    9.1812    5.2208    0.0000 C   0  0  0  0  0  0  0  0  0  0  0  0
   11.7631    2.1633    0.0000 C   0  0  0  0  0  0  0  0  0  0  0  0
   11.7631   12.4771    0.0000 C   0  0  0  0  0  0  0  0  0  0  0  0
   10.0472    5.7208    0.0000 C   0  0  0  0  0  0  0  0  0  0  0  0
   10.0472   16.0346    0.0000 C   0  0  0  0  0  0  0  0  0  0  0  0
    8.3152   16.0346    0.0000 C   0  0  0  0  0  0  0  0  0  0  0  0
    8.3152    5.7208    0.0000 C   0  0  0  0  0  0  0  0  0  0  0  0
   10.0472    6.7208    0.0000 C   0  0  0  0  0  0  0  0  0  0  0  0
   10.0472   17.0346    0.0000 C   0  0  0  0  0  0  0  0  0  0  0  0
   10.9412    5.1861    0.0000 C   0  0  0  0  0  0  0  0  0  0  0  0
   10.9412   15.4999    0.0000 C   0  0  0  0  0  0  0  0  0  0  0  0
    8.3152    6.7208    0.0000 C   0  0  0  0  0  0  0  0  0  0  0  0
    8.3152   17.0346    0.0000 C   0  0  0  0  0  0  0  0  0  0  0  0
   10.9412   17.5693    0.0000 C   0  0  0  0  0  0  0  0  0  0  0  0
   10.9412    7.2554    0.0000 C   0  0  0  0  0  0  0  0  0  0  0  0
   11.8472   16.0138    0.0000 C   0  0  0  0  0  0  0  0  0  0  0  0
   11.8472    5.7000    0.0000 C   0  0  0  0  0  0  0  0  0  0  0  0
   11.8472   17.0554    0.0000 C   0  0  0  0  0  0  0  0  0  0  0  0
   11.8472    6.7416    0.0000 C   0  0  0  0  0  0  0  0  0  0  0  0
   13.5793   16.0071    0.0000 C   0  0  0  0  0  0  0  0  0  0  0  0
   13.5793    5.6933    0.0000 C   0  0  0  0  0  0  0  0  0  0  0  0
    7.4939   12.2941    0.0000 H   0  0  0  0  0  0  0  0  0  0  0  0
    7.4939    1.9803    0.0000 H   0  0  0  0  0  0  0  0  0  0  0  0
    8.9971    3.2133    0.0000 H   0  0  0  0  0  0  0  0  0  0  0  0
    8.9971   13.5271    0.0000 H   0  0  0  0  0  0  0  0  0  0  0  0
    9.9171   13.0865    0.0000 H   0  0  0  0  0  0  0  0  0  0  0  0
    9.9171    2.7727    0.0000 H   0  0  0  0  0  0  0  0  0  0  0  0
    7.4582   14.9038    0.0000 H   0  0  0  0  0  0  0  0  0  0  0  0
    6.7318   14.3501    0.0000 H   0  0  0  0  0  0  0  0  0  0  0  0
    7.4582    4.5900    0.0000 H   0  0  0  0  0  0  0  0  0  0  0  0
    6.7318    4.0363    0.0000 H   0  0  0  0  0  0  0  0  0  0  0  0
    5.4116   12.1956    0.0000 H   0  0  0  0  0  0  0  0  0  0  0  0
    5.2443   11.3546    0.0000 H   0  0  0  0  0  0  0  0  0  0  0  0
    5.4116    1.8818    0.0000 H   0  0  0  0  0  0  0  0  0  0  0  0
    5.2443    1.0408    0.0000 H   0  0  0  0  0  0  0  0  0  0  0  0
    9.6117   10.9123    0.0000 H   0  0  0  0  0  0  0  0  0  0  0  0
   10.3711   11.3507    0.0000 H   0  0  0  0  0  0  0  0  0  0  0  0
    9.6117    0.5985    0.0000 H   0  0  0  0  0  0  0  0  0  0  0  0
   10.3711    1.0369    0.0000 H   0  0  0  0  0  0  0  0  0  0  0  0
    5.7443   10.4886    0.0000 H   0  0  0  0  0  0  0  0  0  0  0  0
    6.6228   10.3138    0.0000 H   0  0  0  0  0  0  0  0  0  0  0  0
    5.7443    0.1747    0.0000 H   0  0  0  0  0  0  0  0  0  0  0  0
    6.6228    0.0000    0.0000 H   0  0  0  0  0  0  0  0  0  0  0  0
    9.7182   14.8446    0.0000 H   0  0  0  0  0  0  0  0  0  0  0  0
    9.1812    3.6008    0.0000 H   0  0  0  0  0  0  0  0  0  0  0  0
   10.8970   13.5971    0.0000 H   0  0  0  0  0  0  0  0  0  0  0  0
   10.8970    3.2833    0.0000 H   0  0  0  0  0  0  0  0  0  0  0  0
   10.5842   14.3446    0.0000 H   0  0  0  0  0  0  0  0  0  0  0  0
   10.5842    4.0308    0.0000 H   0  0  0  0  0  0  0  0  0  0  0  0
   11.7631   11.8571    0.0000 H   0  0  0  0  0  0  0  0  0  0  0  0
   12.3000   12.7871    0.0000 H   0  0  0  0  0  0  0  0  0  0  0  0
   11.7631    1.5433    0.0000 H   0  0  0  0  0  0  0  0  0  0  0  0
   12.3000    2.4733    0.0000 H   0  0  0  0  0  0  0  0  0  0  0  0
    7.7782   15.7246    0.0000 H   0  0  0  0  0  0  0  0  0  0  0  0
    7.7782    5.4108    0.0000 H   0  0  0  0  0  0  0  0  0  0  0  0
   10.9340    4.5662    0.0000 H   0  0  0  0  0  0  0  0  0  0  0  0
   10.9340   14.8800    0.0000 H   0  0  0  0  0  0  0  0  0  0  0  0
    7.7782   17.3446    0.0000 H   0  0  0  0  0  0  0  0  0  0  0  0
    7.7782    7.0308    0.0000 H   0  0  0  0  0  0  0  0  0  0  0  0
   10.9340   18.1892    0.0000 H   0  0  0  0  0  0  0  0  0  0  0  0
   10.9340    7.8754    0.0000 H   0  0  0  0  0  0  0  0  0  0  0  0
   12.3830   17.3675    0.0000 H   0  0  0  0  0  0  0  0  0  0  0  0
   12.3830    7.0537    0.0000 H   0  0  0  0  0  0  0  0  0  0  0  0
   13.8872    5.1552    0.0000 H   0  0  0  0  0  0  0  0  0  0  0  0
   14.1174    6.0012    0.0000 H   0  0  0  0  0  0  0  0  0  0  0  0
   13.2714    6.2314    0.0000 H   0  0  0  0  0  0  0  0  0  0  0  0
   13.8872   15.4690    0.0000 H   0  0  0  0  0  0  0  0  0  0  0  0
   14.1174   16.3150    0.0000 H   0  0  0  0  0  0  0  0  0  0  0  0
   13.2714   16.5452    0.0000 H   0  0  0  0  0  0  0  0  0  0  0  0
    2.8059    9.2846    0.0000 H   0  0  0  0  0  0  0  0  0  0  0  0
    0.0000    8.9046    0.0000 H   0  0  0  0  0  0  0  0  0  0  0  0
  1  6  1  0  0  0  0
  1  7  1  0  0  0  0
  1  8  2  0  0  0  0
  1  9  2  0  0  0  0
 28  2  1  1  0  0  0
  2 81  1  0  0  0  0
 29  3  1  1  0  0  0
  3 80  1  0  0  0  0
  4 49  1  0  0  0  0
  4 53  1  0  0  0  0
  5 48  1  0  0  0  0
  5 52  1  0  0  0  0
  6102  1  0  0  0  0
  7103  1  0  0  0  0
 10 16  1  0  0  0  0
 10 25  1  0  0  0  0
 10 26  1  0  0  0  0
 11 17  1  0  0  0  0
 11 24  1  0  0  0  0
 11 27  1  0  0  0  0
 12 41  2  0  0  0  0
 12 45  1  0  0  0  0
 13 40  2  0  0  0  0
 13 44  1  0  0  0  0
 14 18  1  0  0  0  0
 14 20  1  0  0  0  0
 14 23  1  0  0  0  0
 14 55  1  0  0  0  0
 15 19  1  0  0  0  0
 15 21  1  0  0  0  0
 15 22  1  0  0  0  0
 15 54  1  0  0  0  0
 16 21  1  0  0  0  0
 16 29  1  0  0  0  0
 16 57  1  6  0  0  0
 17 20  1  0  0  0  0
 17 28  1  0  0  0  0
 17 56  1  6  0  0  0
 18 24  1  0  0  0  0
 18 31  1  1  0  0  0
 18 59  1  0  0  0  0
 19 25  1  0  0  0  0
 19 30  1  1  0  0  0
 19 58  1  0  0  0  0
 20 62  1  0  0  0  0
 20 63  1  0  0  0  0
 21 60  1  0  0  0  0
 21 61  1  0  0  0  0
 22 26  1  0  0  0  0
 22 64  1  0  0  0  0
 22 65  1  0  0  0  0
 23 27  1  0  0  0  0
 23 66  1  0  0  0  0
 23 67  1  0  0  0  0
 24 70  1  0  0  0  0
 24 71  1  0  0  0  0
 25 68  1  0  0  0  0
 25 69  1  0  0  0  0
 26 72  1  0  0  0  0
 26 73  1  0  0  0  0
 27 74  1  0  0  0  0
 27 75  1  0  0  0  0
 28 33  1  0  0  0  0
 28 77  1  0  0  0  0
 29 32  1  0  0  0  0
 29 76  1  0  0  0  0
 30 35  2  0  0  0  0
 30 78  1  0  0  0  0
 31 34  2  0  0  0  0
 31 79  1  0  0  0  0
 32 37  2  0  0  0  0
 32 38  1  0  0  0  0
 33 36  2  0  0  0  0
 33 39  1  0  0  0  0
 34 84  1  0  0  0  0
 34 85  1  0  0  0  0
 35 82  1  0  0  0  0
 35 83  1  0  0  0  0
 36 40  1  0  0  0  0
 36 42  1  0  0  0  0
 37 41  1  0  0  0  0
 37 43  1  0  0  0  0
 38 45  2  0  0  0  0
 38 86  1  0  0  0  0
 39 44  2  0  0  0  0
 39 87  1  0  0  0  0
 40 47  1  0  0  0  0
 41 46  1  0  0  0  0
 42 49  2  0  0  0  0
 42 88  1  0  0  0  0
 43 48  2  0  0  0  0
 43 89  1  0  0  0  0
 44 91  1  0  0  0  0
 45 90  1  0  0  0  0
 46 50  2  0  0  0  0
 46 92  1  0  0  0  0
 47 51  2  0  0  0  0
 47 93  1  0  0  0  0
 48 50  1  0  0  0  0
 49 51  1  0  0  0  0
 50 94  1  0  0  0  0
 51 95  1  0  0  0  0
 52 99  1  0  0  0  0
 52100  1  0  0  0  0
 52101  1  0  0  0  0
 53 96  1  0  0  0  0
 53 97  1  0  0  0  0
 53 98  1  0  0  0  0
M  END
> <PUBCHEM_COMPOUND_CID>
13119

> <PUBCHEM_COMPOUND_CANONICALIZED>
1

> <PUBCHEM_CACTVS_COMPLEXITY>
538

> <PUBCHEM_CACTVS_HBOND_ACCEPTOR>
12

> <PUBCHEM_CACTVS_HBOND_DONOR>
4

> <PUBCHEM_CACTVS_ROTATABLE_BOND>
8

> <PUBCHEM_CACTVS_SUBSKEYS>
AAADcfB/vABAAAAAAAAAAAAAAAAAAAAAAAA8eLFiwAAAAACx/gAAHgAACAAADTzhngY+xvMIFoCgAzRnRDCCiCAxIiAI2CA+bJgONuLEsZuEcChkwBHY+Aew4PwOgEABAAACAAAAgAIAAAQAAAAAAAAAAA==

> <PUBCHEM_IUPAC_OPENEYE_NAME>
(R)-(6-methoxy-4-quinolyl)-[(2S,5R)-5-vinylquinuclidin-2-yl]methanol; sulfuric acid

> <PUBCHEM_IUPAC_CAS_NAME>
(R)-[(2S,5R)-5-ethenyl-1-azabicyclo[2.2.2]octan-2-yl]-(6-methoxy-4-quinolinyl)methanol; sulfuric acid

> <PUBCHEM_IUPAC_NAME>
(R)-[(2S,5R)-5-ethenyl-1-azabicyclo[2.2.2]octan-2-yl]-(6-methoxyquinolin-4-yl)methanol; sulfuric acid

> <PUBCHEM_IUPAC_SYSTEMATIC_NAME>
(R)-[(2S,5R)-5-ethenyl-1-azabicyclo[2.2.2]octan-2-yl]-(6-methoxyquinolin-4-yl)methanol; sulfuric acid

> <PUBCHEM_IUPAC_TRADITIONAL_NAME>
(R)-(6-methoxy-4-quinolyl)-[(2S,5R)-5-vinylquinuclidin-2-yl]methanol; sulfuric acid

> <PUBCHEM_IUPAC_INCHI>
InChI=1S/2C20H24N2O2.H2O4S/c2*1-3-13-12-22-9-7-14(13)10-19(22)20(23)16-6-8-21-18-5-4-15(24-2)11-17(16)18;1-5(2,3)4/h2*3-6,8,11,13-14,19-20,23H,1,7,9-10,12H2,2H3;(H2,1,2,3,4)/t2*13-,14?,19-,20+;/m00./s1

> <PUBCHEM_IUPAC_INCHIKEY>
RONWGALEIBILOG-PLYVKUMQSA-N

> <PUBCHEM_EXACT_MASS>
746.334936

> <PUBCHEM_MOLECULAR_FORMULA>
C40H50N4O8S

> <PUBCHEM_MOLECULAR_WEIGHT>
746.912

> <PUBCHEM_OPENEYE_CAN_SMILES>
COC1=CC2=C(C=CN=C2C=C1)C(C3CC4CCN3CC4C=C)O.COC1=CC2=C(C=CN=C2C=C1)C(C3CC4CCN3CC4C=C)O.OS(=O)(=O)O

> <PUBCHEM_OPENEYE_ISO_SMILES>
COC1=CC2=C(C=CN=C2C=C1)[C@H]([C@@H]3CC4CCN3C[C@@H]4C=C)O.COC1=CC2=C(C=CN=C2C=C1)[C@H]([C@@H]3CC4CCN3C[C@@H]4C=C)O.OS(=O)(=O)O

> <PUBCHEM_CACTVS_TPSA>
174

> <PUBCHEM_MONOISOTOPIC_WEIGHT>
746.334936

> <PUBCHEM_TOTAL_CHARGE>
0

> <PUBCHEM_HEAVY_ATOM_COUNT>
53

> <PUBCHEM_ATOM_DEF_STEREO_COUNT>
6

> <PUBCHEM_ATOM_UDEF_STEREO_COUNT>
2

> <PUBCHEM_BOND_DEF_STEREO_COUNT>
0

> <PUBCHEM_BOND_UDEF_STEREO_COUNT>
0

> <PUBCHEM_ISOTOPIC_ATOM_COUNT>
0

> <PUBCHEM_COMPONENT_COUNT>
3

> <PUBCHEM_CACTVS_TAUTO_COUNT>
1

> <PUBCHEM_COORDINATE_TYPE>
1
5
255

> <PUBCHEM_BONDANNOTATIONS>
12  41  8
12  45  8
13  40  8
13  44  8
14  23  3
15  22  3
16  57  6
17  56  6
18  31  5
19  30  5
28  2  5
29  3  5
32  37  8
32  38  8
33  36  8
33  39  8
36  40  8
36  42  8
37  41  8
37  43  8
38  45  8
39  44  8
40  47  8
41  46  8
42  49  8
43  48  8
46  50  8
47  51  8
48  50  8
49  51  8

$$$$

