442774
  -OEChem-07051212592D

 57 60  0     1  0  0  0  0  0999 V2000
    5.6500    0.4084    0.0000 O   0  0  0  0  0  0  0  0  0  0  0  0
    3.9061   -2.6678    0.0000 O   0  0  0  0  0  0  0  0  0  0  0  0
    9.1783   -0.5914    0.0000 O   0  0  0  0  0  0  0  0  0  0  0  0
   10.9219    2.4019    0.0000 O   0  0  0  0  0  0  0  0  0  0  0  0
    7.4501    0.4153    0.0000 C   0  0  1  0  0  0  0  0  0  0  0  0
    7.4420   -0.6263    0.0000 C   0  0  0  0  0  0  0  0  0  0  0  0
    6.5320   -1.1332    0.0000 C   0  0  0  0  0  0  0  0  0  0  0  0
    6.5480    0.9361    0.0000 C   0  0  0  0  0  0  0  0  0  0  0  0
    5.6660   -0.6332    0.0000 C   0  0  0  0  0  0  0  0  0  0  0  0
    8.3180    0.9119    0.0000 C   0  0  0  0  0  0  0  0  0  0  0  0
    4.8000   -1.1332    0.0000 C   0  0  0  0  0  0  0  0  0  0  0  0
    3.0000   -2.1540    0.0000 C   0  0  0  0  0  0  0  0  0  0  0  0
    4.8000   -2.1332    0.0000 C   0  0  0  0  0  0  0  0  0  0  0  0
    6.5320   -2.1332    0.0000 C   0  0  0  0  0  0  0  0  0  0  0  0
    9.1821    0.4086    0.0000 C   0  0  0  0  0  0  0  0  0  0  0  0
    5.6660   -2.6332    0.0000 C   0  0  0  0  0  0  0  0  0  0  0  0
    3.9061   -0.5985    0.0000 C   0  0  0  0  0  0  0  0  0  0  0  0
    8.3219    1.9119    0.0000 C   0  0  0  0  0  0  0  0  0  0  0  0
    3.0000   -1.1123    0.0000 C   0  0  0  0  0  0  0  0  0  0  0  0
   10.0501    0.9053    0.0000 C   0  0  0  0  0  0  0  0  0  0  0  0
    2.0000   -2.1578    0.0000 C   0  0  0  0  0  0  0  0  0  0  0  0
    2.5033   -3.0219    0.0000 C   0  0  0  0  0  0  0  0  0  0  0  0
    9.1898    2.4086    0.0000 C   0  0  0  0  0  0  0  0  0  0  0  0
   10.0539    1.9053    0.0000 C   0  0  0  0  0  0  0  0  0  0  0  0
   10.9142    0.4019    0.0000 C   0  0  0  0  0  0  0  0  0  0  0  0
   11.7821    0.8986    0.0000 C   0  0  0  0  0  0  0  0  0  0  0  0
   12.6462    0.3953    0.0000 C   0  0  0  0  0  0  0  0  0  0  0  0
   13.5141    0.8919    0.0000 C   0  0  0  0  0  0  0  0  0  0  0  0
   12.6423   -0.6047    0.0000 C   0  0  0  0  0  0  0  0  0  0  0  0
    8.1837   -0.0140    0.0000 H   0  0  0  0  0  0  0  0  0  0  0  0
    7.6466   -1.2116    0.0000 H   0  0  0  0  0  0  0  0  0  0  0  0
    8.0537   -0.5249    0.0000 H   0  0  0  0  0  0  0  0  0  0  0  0
    6.9453    1.4121    0.0000 H   0  0  0  0  0  0  0  0  0  0  0  0
    6.1470    1.4090    0.0000 H   0  0  0  0  0  0  0  0  0  0  0  0
    7.0690   -2.4432    0.0000 H   0  0  0  0  0  0  0  0  0  0  0  0
    5.6660   -3.2532    0.0000 H   0  0  0  0  0  0  0  0  0  0  0  0
    3.9132    0.0215    0.0000 H   0  0  0  0  0  0  0  0  0  0  0  0
    7.7862    2.2240    0.0000 H   0  0  0  0  0  0  0  0  0  0  0  0
    2.4643   -0.8003    0.0000 H   0  0  0  0  0  0  0  0  0  0  0  0
    1.9652   -2.7140    0.0000 H   0  0  0  0  0  0  0  0  0  0  0  0
    1.9976   -1.5378    0.0000 H   0  0  0  0  0  0  0  0  0  0  0  0
    1.3800   -2.1602    0.0000 H   0  0  0  0  0  0  0  0  0  0  0  0
    2.0024   -2.7778    0.0000 H   0  0  0  0  0  0  0  0  0  0  0  0
    2.1954   -3.5600    0.0000 H   0  0  0  0  0  0  0  0  0  0  0  0
    3.0415   -3.3298    0.0000 H   0  0  0  0  0  0  0  0  0  0  0  0
    9.1922    3.0286    0.0000 H   0  0  0  0  0  0  0  0  0  0  0  0
   10.5138   -0.0715    0.0000 H   0  0  0  0  0  0  0  0  0  0  0  0
   11.3109   -0.0745    0.0000 H   0  0  0  0  0  0  0  0  0  0  0  0
    9.7140   -0.9034    0.0000 H   0  0  0  0  0  0  0  0  0  0  0  0
   11.7845    1.5186    0.0000 H   0  0  0  0  0  0  0  0  0  0  0  0
   10.9243    3.0219    0.0000 H   0  0  0  0  0  0  0  0  0  0  0  0
   12.0223   -0.6023    0.0000 H   0  0  0  0  0  0  0  0  0  0  0  0
   12.6400   -1.2247    0.0000 H   0  0  0  0  0  0  0  0  0  0  0  0
   13.2623   -0.6071    0.0000 H   0  0  0  0  0  0  0  0  0  0  0  0
   13.8221    0.3538    0.0000 H   0  0  0  0  0  0  0  0  0  0  0  0
   14.0523    1.1998    0.0000 H   0  0  0  0  0  0  0  0  0  0  0  0
   13.2062    1.4300    0.0000 H   0  0  0  0  0  0  0  0  0  0  0  0
  1  8  1  0  0  0  0
  1  9  1  0  0  0  0
  2 12  1  0  0  0  0
  2 13  1  0  0  0  0
  3 15  1  0  0  0  0
  3 49  1  0  0  0  0
  4 24  1  0  0  0  0
  4 51  1  0  0  0  0
  5  6  1  0  0  0  0
  5  8  1  0  0  0  0
  5 10  1  0  0  0  0
  5 30  1  6  0  0  0
  6  7  1  0  0  0  0
  6 31  1  0  0  0  0
  6 32  1  0  0  0  0
  7  9  2  0  0  0  0
  7 14  1  0  0  0  0
  8 33  1  0  0  0  0
  8 34  1  0  0  0  0
  9 11  1  0  0  0  0
 10 15  2  0  0  0  0
 10 18  1  0  0  0  0
 11 13  2  0  0  0  0
 11 17  1  0  0  0  0
 12 19  1  0  0  0  0
 12 21  1  0  0  0  0
 12 22  1  0  0  0  0
 13 16  1  0  0  0  0
 14 16  2  0  0  0  0
 14 35  1  0  0  0  0
 15 20  1  0  0  0  0
 16 36  1  0  0  0  0
 17 19  2  0  0  0  0
 17 37  1  0  0  0  0
 18 23  2  0  0  0  0
 18 38  1  0  0  0  0
 19 39  1  0  0  0  0
 20 24  2  0  0  0  0
 20 25  1  0  0  0  0
 21 41  1  0  0  0  0
 21 42  1  0  0  0  0
 21 43  1  0  0  0  0
 22 40  1  0  0  0  0
 22 44  1  0  0  0  0
 22 45  1  0  0  0  0
 23 24  1  0  0  0  0
 23 46  1  0  0  0  0
 25 26  1  0  0  0  0
 25 47  1  0  0  0  0
 25 48  1  0  0  0  0
 26 27  2  0  0  0  0
 26 50  1  0  0  0  0
 27 28  1  0  0  0  0
 27 29  1  0  0  0  0
 28 55  1  0  0  0  0
 28 56  1  0  0  0  0
 28 57  1  0  0  0  0
 29 52  1  0  0  0  0
 29 53  1  0  0  0  0
 29 54  1  0  0  0  0
M  END
> <PUBCHEM_COMPOUND_CID>
442774

> <PUBCHEM_COMPOUND_CANONICALIZED>
1

> <PUBCHEM_CACTVS_COMPLEXITY>
635

> <PUBCHEM_CACTVS_HBOND_ACCEPTOR>
4

> <PUBCHEM_CACTVS_HBOND_DONOR>
2

> <PUBCHEM_CACTVS_ROTATABLE_BOND>
3

> <PUBCHEM_CACTVS_SUBSKEYS>
AAADceB4OAAAAAAAAAAAAAAAAAAAAAAAAAA0YIEAAAAAAACRQAAAGgAACAAADUSgmAIyBoAABgCAAiBCAAACCAAgIAAIiAAGCIgMJyKGMRqCeCClwBUIuAfA4PwOoAACCAAIAABAAAQQABAAAAAAAAAAAA==

> <PUBCHEM_IUPAC_OPENEYE_NAME>
4-[(3R)-8,8-dimethyl-3,4-dihydro-2H-pyrano[2,3-f]chromen-3-yl]-2-(3-methylbut-2-enyl)benzene-1,3-diol

> <PUBCHEM_IUPAC_CAS_NAME>
4-[(3R)-8,8-dimethyl-3,4-dihydro-2H-pyrano[2,3-f][1]benzopyran-3-yl]-2-(3-methylbut-2-enyl)benzene-1,3-diol

> <PUBCHEM_IUPAC_NAME>
4-[(3R)-8,8-dimethyl-3,4-dihydro-2H-pyrano[2,3-f]chromen-3-yl]-2-(3-methylbut-2-enyl)benzene-1,3-diol

> <PUBCHEM_IUPAC_SYSTEMATIC_NAME>
4-[(3R)-8,8-dimethyl-3,4-dihydro-2H-pyrano[2,3-f]chromen-3-yl]-2-(3-methylbut-2-enyl)benzene-1,3-diol

> <PUBCHEM_IUPAC_TRADITIONAL_NAME>
4-[(3R)-8,8-dimethyl-3,4-dihydro-2H-pyrano[2,3-f]chromen-3-yl]-2-(3-methylbut-2-enyl)resorcinol

> <PUBCHEM_IUPAC_INCHI>
InChI=1S/C25H28O4/c1-15(2)5-7-19-21(26)9-8-18(23(19)27)17-13-16-6-10-22-20(24(16)28-14-17)11-12-25(3,4)29-22/h5-6,8-12,17,26-27H,7,13-14H2,1-4H3/t17-/m0/s1

> <PUBCHEM_IUPAC_INCHIKEY>
HZHXMXSXYQCAIG-KRWDZBQOSA-N

> <PUBCHEM_XLOGP3_AA>
5.8

> <PUBCHEM_EXACT_MASS>
392.198759

> <PUBCHEM_MOLECULAR_FORMULA>
C25H28O4

> <PUBCHEM_MOLECULAR_WEIGHT>
392.48742

> <PUBCHEM_OPENEYE_CAN_SMILES>
CC(=CCC1=C(C=CC(=C1O)C2CC3=C(C4=C(C=C3)OC(C=C4)(C)C)OC2)O)C

> <PUBCHEM_OPENEYE_ISO_SMILES>
CC(=CCC1=C(C=CC(=C1O)[C@H]2CC3=C(C4=C(C=C3)OC(C=C4)(C)C)OC2)O)C

> <PUBCHEM_CACTVS_TPSA>
58.9

> <PUBCHEM_MONOISOTOPIC_WEIGHT>
392.198759

> <PUBCHEM_TOTAL_CHARGE>
0

> <PUBCHEM_HEAVY_ATOM_COUNT>
29

> <PUBCHEM_ATOM_DEF_STEREO_COUNT>
1

> <PUBCHEM_ATOM_UDEF_STEREO_COUNT>
0

> <PUBCHEM_BOND_DEF_STEREO_COUNT>
0

> <PUBCHEM_BOND_UDEF_STEREO_COUNT>
0

> <PUBCHEM_ISOTOPIC_ATOM_COUNT>
0

> <PUBCHEM_COMPONENT_COUNT>
1

> <PUBCHEM_CACTVS_TAUTO_COUNT>
9

> <PUBCHEM_COORDINATE_TYPE>
1
5
255

> <PUBCHEM_BONDANNOTATIONS>
10  15  8
10  18  8
11  13  8
13  16  8
14  16  8
15  20  8
18  23  8
20  24  8
23  24  8
5  30  6
7  14  8
7  9  8
9  11  8

$$$$

