9548587
  -OEChem-07051212503D

 28 28  0     1  0  0  0  0  0999 V2000
   -0.8854    1.0580    1.4006 O   0  0  0  0  0  0  0  0  0  0  0  0
   -3.6941    1.3143   -0.2190 O   0  0  0  0  0  0  0  0  0  0  0  0
    3.6977   -2.2224   -0.2732 O   0  0  0  0  0  0  0  0  0  0  0  0
   -2.7753    0.0221   -1.8394 O   0  0  0  0  0  0  0  0  0  0  0  0
   -3.5367   -1.9929    0.2010 N   0  0  0  0  0  0  0  0  0  0  0  0
    0.8891    2.5650    0.1075 N   0  0  0  0  0  0  0  0  0  0  0  0
   -1.2767   -1.1250    0.5121 C   0  0  0  0  0  0  0  0  0  0  0  0
   -2.7654   -0.7767    0.4689 C   0  0  1  0  0  0  0  0  0  0  0  0
   -0.4166    0.0947    0.7956 C   0  0  0  0  0  0  0  0  0  0  0  0
    1.0027    0.1368    0.3350 C   0  0  0  0  0  0  0  0  0  0  0  0
    1.5891    1.3415    0.0165 C   0  0  0  0  0  0  0  0  0  0  0  0
    1.6779   -1.0619    0.2489 C   0  0  0  0  0  0  0  0  0  0  0  0
   -3.0553    0.1992   -0.6607 C   0  0  0  0  0  0  0  0  0  0  0  0
    2.9171    1.3494   -0.4096 C   0  0  0  0  0  0  0  0  0  0  0  0
    3.0062   -1.0539   -0.1773 C   0  0  0  0  0  0  0  0  0  0  0  0
    3.6256    0.1519   -0.5067 C   0  0  0  0  0  0  0  0  0  0  0  0
   -0.9689   -1.5560   -0.4490 H   0  0  0  0  0  0  0  0  0  0  0  0
   -1.0855   -1.8607    1.3024 H   0  0  0  0  0  0  0  0  0  0  0  0
   -3.0898   -0.3479    1.4234 H   0  0  0  0  0  0  0  0  0  0  0  0
    1.2135   -2.0058    0.5170 H   0  0  0  0  0  0  0  0  0  0  0  0
   -3.2609   -2.3945   -0.6944 H   0  0  0  0  0  0  0  0  0  0  0  0
   -4.5272   -1.7652    0.1264 H   0  0  0  0  0  0  0  0  0  0  0  0
    3.4122    2.2817   -0.6695 H   0  0  0  0  0  0  0  0  0  0  0  0
    4.6599    0.1644   -0.8396 H   0  0  0  0  0  0  0  0  0  0  0  0
   -0.0815    2.5884    0.3869 H   0  0  0  0  0  0  0  0  0  0  0  0
    1.3555    3.4280   -0.1397 H   0  0  0  0  0  0  0  0  0  0  0  0
   -3.8870    1.9386   -0.9506 H   0  0  0  0  0  0  0  0  0  0  0  0
    3.1165   -2.9561   -0.0088 H   0  0  0  0  0  0  0  0  0  0  0  0
  1  9  2  0  0  0  0
  2 13  1  0  0  0  0
  2 27  1  0  0  0  0
  3 15  1  0  0  0  0
  3 28  1  0  0  0  0
  4 13  2  0  0  0  0
  5  8  1  0  0  0  0
  5 21  1  0  0  0  0
  5 22  1  0  0  0  0
  6 11  1  0  0  0  0
  6 25  1  0  0  0  0
  6 26  1  0  0  0  0
  7  8  1  0  0  0  0
  7  9  1  0  0  0  0
  7 17  1  0  0  0  0
  7 18  1  0  0  0  0
  8 13  1  0  0  0  0
  8 19  1  0  0  0  0
  9 10  1  0  0  0  0
 10 11  2  0  0  0  0
 10 12  1  0  0  0  0
 11 14  1  0  0  0  0
 12 15  2  0  0  0  0
 12 20  1  0  0  0  0
 14 16  2  0  0  0  0
 14 23  1  0  0  0  0
 15 16  1  0  0  0  0
 16 24  1  0  0  0  0
M  END
> <PUBCHEM_COMPOUND_CID>
9548587

> <PUBCHEM_CONFORMER_RMSD>
0.6

> <PUBCHEM_CONFORMER_DIVERSEORDER>
1
64
66
46
55
37
2
47
56
44
53
51
45
60
34
33
61
52
36
14
23
68
41
12
40
65
58
21
59
39
5
3
43
48
4
6
7
18
63
32
26
25
57
50
8
35
54
29
15
24
27
49
62
31
16
9
11
38
30
20
67
17
42
28
19
22
13
10

> <PUBCHEM_MMFF94_PARTIAL_CHARGES>
25
1 -0.57
10 0.09
11 0.1
12 -0.15
13 0.66
14 -0.15
15 0.08
16 -0.15
2 -0.65
20 0.15
21 0.36
22 0.36
23 0.15
24 0.15
25 0.4
26 0.4
27 0.5
28 0.45
3 -0.53
4 -0.57
5 -0.99
6 -0.9
7 0.06
8 0.33
9 0.42

> <PUBCHEM_EFFECTIVE_ROTOR_COUNT>
4

> <PUBCHEM_PHARMACOPHORE_FEATURES>
10
1 1 acceptor
1 2 acceptor
1 3 donor
1 4 acceptor
1 5 cation
1 5 donor
1 6 cation
1 6 donor
3 2 4 13 anion
6 10 11 12 14 15 16 rings

> <PUBCHEM_HEAVY_ATOM_COUNT>
16

> <PUBCHEM_ATOM_DEF_STEREO_COUNT>
1

> <PUBCHEM_ATOM_UDEF_STEREO_COUNT>
0

> <PUBCHEM_BOND_DEF_STEREO_COUNT>
0

> <PUBCHEM_BOND_UDEF_STEREO_COUNT>
0

> <PUBCHEM_ISOTOPIC_ATOM_COUNT>
0

> <PUBCHEM_COMPONENT_COUNT>
1

> <PUBCHEM_CACTVS_TAUTO_COUNT>
16

> <PUBCHEM_CONFORMER_ID>
0091B32B00000001

> <PUBCHEM_MMFF94_ENERGY>
47.8761

> <PUBCHEM_FEATURE_SELFOVERLAP>
50.802

> <PUBCHEM_SHAPE_FINGERPRINT>
10498660 4 16916523496727921727
10608611 8 18271527485671666633
10922523 26 18202002096897948959
116883 192 18047467009341148228
12932764 1 17386007213371826561
13296908 3 18411980251970631770
13571099 22 18407761447313705051
13693222 15 7997965791144068549
13705890 14 18411981334671493058
14576447 43 18261954042492750318
15219456 202 18343302530880049761
15477762 27 18337667512582081578
16945 1 18263915562730936832
17834072 14 18337402607847545096
18186145 218 17989491848114271411
18619055 16 18335138678671838170
19433438 38 18130790014612213390
200 152 18186521016524161514
20361792 2 16950565441643757361
20645477 70 18410008862224731182
20653085 51 17918269848880827561
20671657 53 18336256916578395362
221490 88 18269263582772263666
22802520 49 18341338799197981517
23114952 82 18060129934466128876
23402539 116 18335703871088765866
23402655 69 18412259562336631284
23526113 38 18131345276711176194
23557571 272 17344343346541849203
23559900 14 18409171039175745874
25 1 18131071575340531627
2748010 2 17474090013575955664
2838139 119 16056020335444154774
6049 1 17988071189218579843
74978 22 18411139125791466139
81228 2 18048869994815766776
93112 12 18413109450617936567

> <PUBCHEM_SHAPE_MULTIPOLES>
295.83
6.94
2.07
1.01
1.57
0.12
0.17
-1.7
1.81
-0.76
-0.07
0.64
0.12
0.29

> <PUBCHEM_SHAPE_SELFOVERLAP>
619.749

> <PUBCHEM_SHAPE_VOLUME>
166.2

> <PUBCHEM_COORDINATE_TYPE>
2
5
10

$$$$

