131525
  -OEChem-07051213002D

 34 35  0     0  0  0  0  0  0999 V2000
    3.7320    1.0000    0.0000 O   0  0  0  0  0  0  0  0  0  0  0  0
    5.4641    2.0000    0.0000 O   0  0  0  0  0  0  0  0  0  0  0  0
    5.4641   -1.0000    0.0000 N   0  0  0  0  0  0  0  0  0  0  0  0
    4.5981   -0.5000    0.0000 C   0  0  0  0  0  0  0  0  0  0  0  0
    3.7320   -1.0000    0.0000 C   0  0  0  0  0  0  0  0  0  0  0  0
    6.3301   -0.5000    0.0000 C   0  0  0  0  0  0  0  0  0  0  0  0
    6.3301    0.5000    0.0000 C   0  0  0  0  0  0  0  0  0  0  0  0
    4.5981    0.5000    0.0000 C   0  0  0  0  0  0  0  0  0  0  0  0
    2.8660   -0.5000    0.0000 C   0  0  0  0  0  0  0  0  0  0  0  0
    5.4641    1.0000    0.0000 C   0  0  0  0  0  0  0  0  0  0  0  0
    5.4641   -2.0000    0.0000 C   0  0  0  0  0  0  0  0  0  0  0  0
    7.2241   -1.0347    0.0000 C   0  0  0  0  0  0  0  0  0  0  0  0
    7.2241    1.0347    0.0000 C   0  0  0  0  0  0  0  0  0  0  0  0
    2.0000   -1.0000    0.0000 C   0  0  0  0  0  0  0  0  0  0  0  0
    8.1301   -0.5208    0.0000 C   0  0  0  0  0  0  0  0  0  0  0  0
    8.1301    0.5208    0.0000 C   0  0  0  0  0  0  0  0  0  0  0  0
    3.7320    2.0000    0.0000 C   0  0  0  0  0  0  0  0  0  0  0  0
    3.3335   -1.4750    0.0000 H   0  0  0  0  0  0  0  0  0  0  0  0
    4.1306   -1.4750    0.0000 H   0  0  0  0  0  0  0  0  0  0  0  0
    3.2646   -0.0251    0.0000 H   0  0  0  0  0  0  0  0  0  0  0  0
    2.4675   -0.0251    0.0000 H   0  0  0  0  0  0  0  0  0  0  0  0
    4.8441   -2.0000    0.0000 H   0  0  0  0  0  0  0  0  0  0  0  0
    5.4641   -2.6200    0.0000 H   0  0  0  0  0  0  0  0  0  0  0  0
    6.0841   -2.0000    0.0000 H   0  0  0  0  0  0  0  0  0  0  0  0
    7.2169   -1.6546    0.0000 H   0  0  0  0  0  0  0  0  0  0  0  0
    7.2169    1.6546    0.0000 H   0  0  0  0  0  0  0  0  0  0  0  0
    1.6900   -0.4631    0.0000 H   0  0  0  0  0  0  0  0  0  0  0  0
    1.4631   -1.3100    0.0000 H   0  0  0  0  0  0  0  0  0  0  0  0
    2.3100   -1.5369    0.0000 H   0  0  0  0  0  0  0  0  0  0  0  0
    8.6659   -0.8329    0.0000 H   0  0  0  0  0  0  0  0  0  0  0  0
    8.6659    0.8329    0.0000 H   0  0  0  0  0  0  0  0  0  0  0  0
    4.3520    2.0000    0.0000 H   0  0  0  0  0  0  0  0  0  0  0  0
    3.7320    2.6200    0.0000 H   0  0  0  0  0  0  0  0  0  0  0  0
    3.1120    2.0000    0.0000 H   0  0  0  0  0  0  0  0  0  0  0  0
  1  8  1  0  0  0  0
  1 17  1  0  0  0  0
  2 10  2  0  0  0  0
  3  4  1  0  0  0  0
  3  6  1  0  0  0  0
  3 11  1  0  0  0  0
  4  5  1  0  0  0  0
  4  8  2  0  0  0  0
  5  9  1  0  0  0  0
  5 18  1  0  0  0  0
  5 19  1  0  0  0  0
  6  7  1  0  0  0  0
  6 12  2  0  0  0  0
  7 10  1  0  0  0  0
  7 13  2  0  0  0  0
  8 10  1  0  0  0  0
  9 14  1  0  0  0  0
  9 20  1  0  0  0  0
  9 21  1  0  0  0  0
 11 22  1  0  0  0  0
 11 23  1  0  0  0  0
 11 24  1  0  0  0  0
 12 15  1  0  0  0  0
 12 25  1  0  0  0  0
 13 16  1  0  0  0  0
 13 26  1  0  0  0  0
 14 27  1  0  0  0  0
 14 28  1  0  0  0  0
 14 29  1  0  0  0  0
 15 16  2  0  0  0  0
 15 30  1  0  0  0  0
 16 31  1  0  0  0  0
 17 32  1  0  0  0  0
 17 33  1  0  0  0  0
 17 34  1  0  0  0  0
M  END
> <PUBCHEM_COMPOUND_CID>
131525

> <PUBCHEM_COMPOUND_CANONICALIZED>
1

> <PUBCHEM_CACTVS_COMPLEXITY>
335

> <PUBCHEM_CACTVS_HBOND_ACCEPTOR>
3

> <PUBCHEM_CACTVS_HBOND_DONOR>
0

> <PUBCHEM_CACTVS_ROTATABLE_BOND>
3

> <PUBCHEM_CACTVS_SUBSKEYS>
AAADceByMAAAAAAAAAAAAAAAAAAAAAAAAAAwQAAAAAAAAACBAAAAHgAAAAAADAyBmAYywIMABACIAqRSQAKCCAAlIgAIiAFIZMgIIDrAlZWEIYhkwAHIyce4yKCOAAAAAAACAAAAAAAAAAQAAAAAAAAAAA==

> <PUBCHEM_IUPAC_OPENEYE_NAME>
3-methoxy-1-methyl-2-propyl-quinolin-4-one

> <PUBCHEM_IUPAC_CAS_NAME>
3-methoxy-1-methyl-2-propyl-4-quinolinone

> <PUBCHEM_IUPAC_NAME>
3-methoxy-1-methyl-2-propylquinolin-4-one

> <PUBCHEM_IUPAC_SYSTEMATIC_NAME>
3-methoxy-1-methyl-2-propyl-quinolin-4-one

> <PUBCHEM_IUPAC_TRADITIONAL_NAME>
3-methoxy-1-methyl-2-propyl-4-quinolone

> <PUBCHEM_IUPAC_INCHI>
InChI=1S/C14H17NO2/c1-4-7-12-14(17-3)13(16)10-8-5-6-9-11(10)15(12)2/h5-6,8-9H,4,7H2,1-3H3

> <PUBCHEM_IUPAC_INCHIKEY>
GEGKYZYCKNLWLI-UHFFFAOYSA-N

> <PUBCHEM_XLOGP3_AA>
3

> <PUBCHEM_EXACT_MASS>
231.125929

> <PUBCHEM_MOLECULAR_FORMULA>
C14H17NO2

> <PUBCHEM_MOLECULAR_WEIGHT>
231.29028

> <PUBCHEM_OPENEYE_CAN_SMILES>
CCCC1=C(C(=O)C2=CC=CC=C2N1C)OC

> <PUBCHEM_OPENEYE_ISO_SMILES>
CCCC1=C(C(=O)C2=CC=CC=C2N1C)OC

> <PUBCHEM_CACTVS_TPSA>
29.5

> <PUBCHEM_MONOISOTOPIC_WEIGHT>
231.125929

> <PUBCHEM_TOTAL_CHARGE>
0

> <PUBCHEM_HEAVY_ATOM_COUNT>
17

> <PUBCHEM_ATOM_DEF_STEREO_COUNT>
0

> <PUBCHEM_ATOM_UDEF_STEREO_COUNT>
0

> <PUBCHEM_BOND_DEF_STEREO_COUNT>
0

> <PUBCHEM_BOND_UDEF_STEREO_COUNT>
0

> <PUBCHEM_ISOTOPIC_ATOM_COUNT>
0

> <PUBCHEM_COMPONENT_COUNT>
1

> <PUBCHEM_CACTVS_TAUTO_COUNT>
3

> <PUBCHEM_COORDINATE_TYPE>
1
5
255

> <PUBCHEM_BONDANNOTATIONS>
12  15  8
13  16  8
15  16  8
3  4  8
3  6  8
4  8  8
6  12  8
6  7  8
7  10  8
7  13  8
8  10  8

$$$$

