3916
  -OEChem-06251223453D

 47 49  0     1  0  0  0  0  0999 V2000
   -0.8802    1.9382    1.8226 S   0  0  0  0  0  0  0  0  0  0  0  0
    4.2249    0.9006   -1.0158 O   0  0  0  0  0  0  0  0  0  0  0  0
   -0.5824    0.2142   -0.7469 N   0  0  0  0  0  0  0  0  0  0  0  0
    0.0525   -3.6754    0.9888 N   0  0  0  0  0  0  0  0  0  0  0  0
    0.1325   -2.1613   -0.9836 C   0  0  1  0  0  0  0  0  0  0  0  0
   -0.4612   -0.9197   -1.6723 C   0  0  0  0  0  0  0  0  0  0  0  0
   -0.6187   -2.5820    0.2941 C   0  0  0  0  0  0  0  0  0  0  0  0
    0.2139   -3.3460   -1.9532 C   0  0  0  0  0  0  0  0  0  0  0  0
    0.6175    0.7741   -0.2397 C   0  0  0  0  0  0  0  0  0  0  0  0
   -1.8860    0.7061   -0.4842 C   0  0  0  0  0  0  0  0  0  0  0  0
    0.6086    1.5938    0.9062 C   0  0  0  0  0  0  0  0  0  0  0  0
   -2.1429    1.5188    0.6378 C   0  0  0  0  0  0  0  0  0  0  0  0
    1.8635    0.5704   -0.8721 C   0  0  0  0  0  0  0  0  0  0  0  0
   -2.9735    0.4389   -1.3444 C   0  0  0  0  0  0  0  0  0  0  0  0
   -0.6732   -4.0321    2.2089 C   0  0  0  0  0  0  0  0  0  0  0  0
    1.4341   -3.3119    1.3071 C   0  0  0  0  0  0  0  0  0  0  0  0
    1.8004    2.1536    1.4001 C   0  0  0  0  0  0  0  0  0  0  0  0
   -3.4361    2.0105    0.8894 C   0  0  0  0  0  0  0  0  0  0  0  0
    3.0443    1.1332   -0.3799 C   0  0  0  0  0  0  0  0  0  0  0  0
   -4.2557    0.9343   -1.0923 C   0  0  0  0  0  0  0  0  0  0  0  0
    3.0131    1.9232    0.7593 C   0  0  0  0  0  0  0  0  0  0  0  0
   -4.4880    1.7184    0.0273 C   0  0  0  0  0  0  0  0  0  0  0  0
    5.3928    1.5002   -0.4570 C   0  0  0  0  0  0  0  0  0  0  0  0
    1.1638   -1.9089   -0.7313 H   0  0  0  0  0  0  0  0  0  0  0  0
    0.1117   -0.6380   -2.5645 H   0  0  0  0  0  0  0  0  0  0  0  0
   -1.4118   -1.2717   -2.0753 H   0  0  0  0  0  0  0  0  0  0  0  0
   -1.6363   -2.8888    0.0190 H   0  0  0  0  0  0  0  0  0  0  0  0
   -0.7202   -1.7259    0.9721 H   0  0  0  0  0  0  0  0  0  0  0  0
    0.7616   -4.1928   -1.5286 H   0  0  0  0  0  0  0  0  0  0  0  0
    0.7357   -3.0530   -2.8710 H   0  0  0  0  0  0  0  0  0  0  0  0
   -0.7855   -3.6947   -2.2354 H   0  0  0  0  0  0  0  0  0  0  0  0
    1.9509   -0.0158   -1.7829 H   0  0  0  0  0  0  0  0  0  0  0  0
   -2.8702   -0.1054   -2.2771 H   0  0  0  0  0  0  0  0  0  0  0  0
   -0.2072   -4.8959    2.6961 H   0  0  0  0  0  0  0  0  0  0  0  0
   -1.7023   -4.3252    1.9727 H   0  0  0  0  0  0  0  0  0  0  0  0
   -0.7059   -3.2056    2.9281 H   0  0  0  0  0  0  0  0  0  0  0  0
    2.0823   -3.3332    0.4261 H   0  0  0  0  0  0  0  0  0  0  0  0
    1.8738   -4.0509    1.9887 H   0  0  0  0  0  0  0  0  0  0  0  0
    1.5102   -2.3322    1.7935 H   0  0  0  0  0  0  0  0  0  0  0  0
    1.7947    2.7769    2.2923 H   0  0  0  0  0  0  0  0  0  0  0  0
   -3.6377    2.6293    1.7616 H   0  0  0  0  0  0  0  0  0  0  0  0
   -5.0664    0.7171   -1.7819 H   0  0  0  0  0  0  0  0  0  0  0  0
    3.8870    2.3896    1.2002 H   0  0  0  0  0  0  0  0  0  0  0  0
   -5.4819    2.1069    0.2270 H   0  0  0  0  0  0  0  0  0  0  0  0
    5.5991    1.1184    0.5488 H   0  0  0  0  0  0  0  0  0  0  0  0
    5.3351    2.5936   -0.4821 H   0  0  0  0  0  0  0  0  0  0  0  0
    6.2388    1.2102   -1.0886 H   0  0  0  0  0  0  0  0  0  0  0  0
  1 11  1  0  0  0  0
  1 12  1  0  0  0  0
  2 19  1  0  0  0  0
  2 23  1  0  0  0  0
  3  6  1  0  0  0  0
  3  9  1  0  0  0  0
  3 10  1  0  0  0  0
  4  7  1  0  0  0  0
  4 15  1  0  0  0  0
  4 16  1  0  0  0  0
  5  6  1  0  0  0  0
  5  7  1  0  0  0  0
  5  8  1  0  0  0  0
  5 24  1  0  0  0  0
  6 25  1  0  0  0  0
  6 26  1  0  0  0  0
  7 27  1  0  0  0  0
  7 28  1  0  0  0  0
  8 29  1  0  0  0  0
  8 30  1  0  0  0  0
  8 31  1  0  0  0  0
  9 11  2  0  0  0  0
  9 13  1  0  0  0  0
 10 12  1  0  0  0  0
 10 14  2  0  0  0  0
 11 17  1  0  0  0  0
 12 18  2  0  0  0  0
 13 19  2  0  0  0  0
 13 32  1  0  0  0  0
 14 20  1  0  0  0  0
 14 33  1  0  0  0  0
 15 34  1  0  0  0  0
 15 35  1  0  0  0  0
 15 36  1  0  0  0  0
 16 37  1  0  0  0  0
 16 38  1  0  0  0  0
 16 39  1  0  0  0  0
 17 21  2  0  0  0  0
 17 40  1  0  0  0  0
 18 22  1  0  0  0  0
 18 41  1  0  0  0  0
 19 21  1  0  0  0  0
 20 22  2  0  0  0  0
 20 42  1  0  0  0  0
 21 43  1  0  0  0  0
 22 44  1  0  0  0  0
 23 45  1  0  0  0  0
 23 46  1  0  0  0  0
 23 47  1  0  0  0  0
M  END
> <PUBCHEM_COMPOUND_CID>
3916

> <PUBCHEM_CONFORMER_RMSD>
0.8

> <PUBCHEM_CONFORMER_DIVERSEORDER>
1
9
11
8
5
4
10
6
3
2
7
12

> <PUBCHEM_MMFF94_PARTIAL_CHARGES>
28
1 -0.2
10 0.1
11 0.1
12 0.1
13 -0.15
14 -0.15
15 0.27
16 0.27
17 -0.15
18 -0.15
19 0.08
2 -0.36
20 -0.15
21 -0.15
22 -0.15
23 0.28
3 -0.57
32 0.15
33 0.15
4 -0.81
40 0.15
41 0.15
42 0.15
43 0.15
44 0.15
6 0.37
7 0.27
9 0.1

> <PUBCHEM_EFFECTIVE_ROTOR_COUNT>
5.4

> <PUBCHEM_PHARMACOPHORE_FEATURES>
7
1 2 acceptor
1 3 cation
1 4 cation
1 8 hydrophobe
6 1 3 9 10 11 12 rings
6 10 12 14 18 20 22 rings
6 9 11 13 17 19 21 rings

> <PUBCHEM_HEAVY_ATOM_COUNT>
23

> <PUBCHEM_ATOM_DEF_STEREO_COUNT>
0

> <PUBCHEM_ATOM_UDEF_STEREO_COUNT>
1

> <PUBCHEM_BOND_DEF_STEREO_COUNT>
0

> <PUBCHEM_BOND_UDEF_STEREO_COUNT>
0

> <PUBCHEM_ISOTOPIC_ATOM_COUNT>
0

> <PUBCHEM_COMPONENT_COUNT>
1

> <PUBCHEM_CACTVS_TAUTO_COUNT>
1

> <PUBCHEM_CONFORMER_ID>
00000F4C00000001

> <PUBCHEM_MMFF94_ENERGY>
92.3321

> <PUBCHEM_FEATURE_SELFOVERLAP>
35.551

> <PUBCHEM_SHAPE_FINGERPRINT>
10764073 3 13927701316444119316
107951 10 18342172237622967078
10906281 52 17677032570052845832
1100329 8 18339929345461060610
11045515 52 8286202734142526688
11578080 2 17770500056127497541
11582403 64 13145680993685894287
12160290 23 17979942422112743655
12549972 3 17970916561974285696
12553582 1 17255392147348534495
12592029 89 18199752603597791664
12644460 14 17897433111861419729
12788726 201 17762075245341249746
13083527 12 17979648053849912425
13135754 10 17629751289077078666
133893 2 17910143483088880671
13681431 1 17761222406707231263
14955137 171 17898862497766854862
15463212 79 18199762357822435856
1813 80 17615412897210012695
20567600 347 18408886252404794391
20600515 1 16752985744600081405
20645476 183 18340489963109732892
21421861 104 17831003990385852161
21524375 3 18408045117076778605
23419403 2 17761724750398750575
23558518 356 17976554818319249156
23559900 14 17245555847490793037
2748010 2 16237338396519748305
298252 57 17167582687041809445
3380486 145 17179685853379414966
3383291 50 18113898265268607414
35225 105 18195808474874096498
3759504 43 18342172220316373772
394222 165 18264207087725274755
404807 78 17698469654266349455
4058900 60 18269261525298533184
4340502 62 18268410474066904393
576247 118 17044014893272168162
6138700 20 17969495095318657030
81228 2 17762074141861540021
9709674 26 17533792494042133676
9981440 41 16449573917572729296

> <PUBCHEM_SHAPE_MULTIPOLES>
461.35
6.81
4.72
1.9
1.65
6.95
-0.36
-7.44
1.96
0.95
-2.48
-0.21
1.31
-0.31

> <PUBCHEM_SHAPE_SELFOVERLAP>
963.012

> <PUBCHEM_SHAPE_VOLUME>
264.3

> <PUBCHEM_COORDINATE_TYPE>
2
5
10

$$$$

