56928128
  -OEChem-07051213152D

 82 85  0     1  0  0  0  0  0999 V2000
    6.1733   -4.4613    0.0000 O   0  0  0  0  0  0  0  0  0  0  0  0
    2.5405   -1.3528    0.0000 O   0  0  0  0  0  0  0  0  0  0  0  0
    2.5244   -3.4444    0.0000 O   0  0  0  0  0  0  0  0  0  0  0  0
   10.8207    0.3251    0.0000 O   0  0  0  0  0  0  0  0  0  0  0  0
    9.7956    2.7643    0.0000 O   0  0  0  0  0  0  0  0  0  0  0  0
   13.0418    4.3334    0.0000 O   0  0  0  0  0  0  0  0  0  0  0  0
    7.9174   -0.3920    0.0000 C   0  0  1  0  0  0  0  0  0  0  0  0
    7.9174   -1.3920    0.0000 C   0  0  3  0  0  0  0  0  0  0  0  0
    7.0514   -1.8920    0.0000 C   0  0  1  0  0  0  0  0  0  0  0  0
    6.1854   -1.3920    0.0000 C   0  0  1  0  0  0  0  0  0  0  0  0
    5.2754   -1.8989    0.0000 C   0  0  2  0  0  0  0  0  0  0  0  0
    8.8637   -0.0873    0.0000 C   0  0  2  0  0  0  0  0  0  0  0  0
    7.0514    0.1080    0.0000 C   0  0  0  0  0  0  0  0  0  0  0  0
    6.1854   -0.3920    0.0000 C   0  0  0  0  0  0  0  0  0  0  0  0
    8.8637   -1.6968    0.0000 C   0  0  0  0  0  0  0  0  0  0  0  0
    9.4473   -0.8920    0.0000 C   0  0  0  0  0  0  0  0  0  0  0  0
    5.2674   -2.9405    0.0000 C   0  0  1  0  0  0  0  0  0  0  0  0
    7.0675   -2.9335    0.0000 C   0  0  0  0  0  0  0  0  0  0  0  0
    4.3486   -1.3348    0.0000 C   0  0  0  0  0  0  0  0  0  0  0  0
    9.1743    0.8632    0.0000 C   0  0  1  0  0  0  0  0  0  0  0  0
    7.9174    0.6080    0.0000 C   0  0  0  0  0  0  0  0  0  0  0  0
    6.1694   -3.4613    0.0000 C   0  0  0  0  0  0  0  0  0  0  0  0
    4.3319   -3.4902    0.0000 C   0  0  0  0  0  0  0  0  0  0  0  0
    5.2831   -0.8989    0.0000 C   0  0  0  0  0  0  0  0  0  0  0  0
    3.4007   -1.8628    0.0000 C   0  0  2  0  0  0  0  0  0  0  0  0
    3.3923   -2.9477    0.0000 C   0  0  1  0  0  0  0  0  0  0  0  0
   10.1528    1.0694    0.0000 C   0  0  2  0  0  0  0  0  0  0  0  0
    8.5065    1.6075    0.0000 C   0  0  0  0  0  0  0  0  0  0  0  0
   10.4635    2.0200    0.0000 C   0  0  1  0  0  0  0  0  0  0  0  0
   11.4420    2.2262    0.0000 C   0  0  2  0  0  0  0  0  0  0  0  0
   11.7527    3.1767    0.0000 C   0  0  3  0  0  0  0  0  0  0  0  0
   12.1098    1.4819    0.0000 C   0  0  0  0  0  0  0  0  0  0  0  0
   12.7312    3.3829    0.0000 C   0  0  0  0  0  0  0  0  0  0  0  0
   11.0848    3.9210    0.0000 C   0  0  0  0  0  0  0  0  0  0  0  0
    7.9830   -2.0086    0.0000 H   0  0  0  0  0  0  0  0  0  0  0  0
    7.7908   -2.3114    0.0000 H   0  0  0  0  0  0  0  0  0  0  0  0
    6.9215   -0.9670    0.0000 H   0  0  0  0  0  0  0  0  0  0  0  0
    9.7034    0.0446    0.0000 H   0  0  0  0  0  0  0  0  0  0  0  0
    7.4500    0.5829    0.0000 H   0  0  0  0  0  0  0  0  0  0  0  0
    6.6529    0.5829    0.0000 H   0  0  0  0  0  0  0  0  0  0  0  0
    5.9733    0.1906    0.0000 H   0  0  0  0  0  0  0  0  0  0  0  0
    5.5748   -0.4997    0.0000 H   0  0  0  0  0  0  0  0  0  0  0  0
    8.6126   -2.2637    0.0000 H   0  0  0  0  0  0  0  0  0  0  0  0
    9.4010   -2.0060    0.0000 H   0  0  0  0  0  0  0  0  0  0  0  0
    9.9081   -1.3068    0.0000 H   0  0  0  0  0  0  0  0  0  0  0  0
    9.9081   -0.4773    0.0000 H   0  0  0  0  0  0  0  0  0  0  0  0
    5.2706   -3.7905    0.0000 H   0  0  0  0  0  0  0  0  0  0  0  0
    7.2855   -3.5139    0.0000 H   0  0  0  0  0  0  0  0  0  0  0  0
    7.6766   -2.8180    0.0000 H   0  0  0  0  0  0  0  0  0  0  0  0
    4.7568   -0.8681    0.0000 H   0  0  0  0  0  0  0  0  0  0  0  0
    3.9586   -0.8528    0.0000 H   0  0  0  0  0  0  0  0  0  0  0  0
    8.5676    0.7354    0.0000 H   0  0  0  0  0  0  0  0  0  0  0  0
    8.5374    0.6080    0.0000 H   0  0  0  0  0  0  0  0  0  0  0  0
    7.9174    1.2280    0.0000 H   0  0  0  0  0  0  0  0  0  0  0  0
    7.2974    0.6080    0.0000 H   0  0  0  0  0  0  0  0  0  0  0  0
    3.9346   -3.9662    0.0000 H   0  0  0  0  0  0  0  0  0  0  0  0
    4.7329   -3.9631    0.0000 H   0  0  0  0  0  0  0  0  0  0  0  0
    5.9031   -0.9037    0.0000 H   0  0  0  0  0  0  0  0  0  0  0  0
    5.2879   -0.2789    0.0000 H   0  0  0  0  0  0  0  0  0  0  0  0
    4.6631   -0.8941    0.0000 H   0  0  0  0  0  0  0  0  0  0  0  0
    2.8608   -2.1676    0.0000 H   0  0  0  0  0  0  0  0  0  0  0  0
    3.3911   -3.5677    0.0000 H   0  0  0  0  0  0  0  0  0  0  0  0
    9.9602    0.4801    0.0000 H   0  0  0  0  0  0  0  0  0  0  0  0
    8.9680    2.0216    0.0000 H   0  0  0  0  0  0  0  0  0  0  0  0
    8.0924    2.0690    0.0000 H   0  0  0  0  0  0  0  0  0  0  0  0
    8.0450    1.1935    0.0000 H   0  0  0  0  0  0  0  0  0  0  0  0
   10.6561    2.6093    0.0000 H   0  0  0  0  0  0  0  0  0  0  0  0
    2.0000   -1.6565    0.0000 H   0  0  0  0  0  0  0  0  0  0  0  0
    2.5220   -4.0644    0.0000 H   0  0  0  0  0  0  0  0  0  0  0  0
   11.2494    1.6368    0.0000 H   0  0  0  0  0  0  0  0  0  0  0  0
   11.4273    0.4530    0.0000 H   0  0  0  0  0  0  0  0  0  0  0  0
   11.9453    3.7660    0.0000 H   0  0  0  0  0  0  0  0  0  0  0  0
    9.9883    3.3536    0.0000 H   0  0  0  0  0  0  0  0  0  0  0  0
   11.6484    1.0678    0.0000 H   0  0  0  0  0  0  0  0  0  0  0  0
   12.5239    1.0204    0.0000 H   0  0  0  0  0  0  0  0  0  0  0  0
   12.5713    1.8959    0.0000 H   0  0  0  0  0  0  0  0  0  0  0  0
   12.7517    2.7633    0.0000 H   0  0  0  0  0  0  0  0  0  0  0  0
   13.3450    3.2956    0.0000 H   0  0  0  0  0  0  0  0  0  0  0  0
   11.5463    4.3351    0.0000 H   0  0  0  0  0  0  0  0  0  0  0  0
   10.6708    4.3825    0.0000 H   0  0  0  0  0  0  0  0  0  0  0  0
   10.6234    3.5069    0.0000 H   0  0  0  0  0  0  0  0  0  0  0  0
   13.6485    4.4613    0.0000 H   0  0  0  0  0  0  0  0  0  0  0  0
  1 22  2  0  0  0  0
 25  2  1  6  0  0  0
  2 68  1  0  0  0  0
 26  3  1  6  0  0  0
  3 69  1  0  0  0  0
 27  4  1  6  0  0  0
  4 71  1  0  0  0  0
 29  5  1  6  0  0  0
  5 73  1  0  0  0  0
  6 33  1  0  0  0  0
  6 82  1  0  0  0  0
  7  8  1  0  0  0  0
  7 12  1  0  0  0  0
  7 13  1  0  0  0  0
  7 21  1  1  0  0  0
  8  9  1  0  0  0  0
  8 15  1  0  0  0  0
  8 35  1  0  0  0  0
  9 10  1  0  0  0  0
  9 18  1  0  0  0  0
  9 36  1  1  0  0  0
 10 11  1  0  0  0  0
 10 14  1  0  0  0  0
 10 37  1  6  0  0  0
 11 17  1  0  0  0  0
 11 19  1  0  0  0  0
 11 24  1  1  0  0  0
 12 16  1  0  0  0  0
 12 20  1  0  0  0  0
 12 38  1  6  0  0  0
 13 14  1  0  0  0  0
 13 39  1  0  0  0  0
 13 40  1  0  0  0  0
 14 41  1  0  0  0  0
 14 42  1  0  0  0  0
 15 16  1  0  0  0  0
 15 43  1  0  0  0  0
 15 44  1  0  0  0  0
 16 45  1  0  0  0  0
 16 46  1  0  0  0  0
 17 22  1  0  0  0  0
 17 23  1  0  0  0  0
 17 47  1  6  0  0  0
 18 22  1  0  0  0  0
 18 48  1  0  0  0  0
 18 49  1  0  0  0  0
 19 25  1  0  0  0  0
 19 50  1  0  0  0  0
 19 51  1  0  0  0  0
 20 27  1  0  0  0  0
 20 28  1  6  0  0  0
 20 52  1  0  0  0  0
 21 53  1  0  0  0  0
 21 54  1  0  0  0  0
 21 55  1  0  0  0  0
 23 26  1  0  0  0  0
 23 56  1  0  0  0  0
 23 57  1  0  0  0  0
 24 58  1  0  0  0  0
 24 59  1  0  0  0  0
 24 60  1  0  0  0  0
 25 26  1  0  0  0  0
 25 61  1  0  0  0  0
 26 62  1  0  0  0  0
 27 29  1  0  0  0  0
 27 63  1  0  0  0  0
 28 64  1  0  0  0  0
 28 65  1  0  0  0  0
 28 66  1  0  0  0  0
 29 30  1  0  0  0  0
 29 67  1  0  0  0  0
 30 31  1  0  0  0  0
 30 32  1  6  0  0  0
 30 70  1  0  0  0  0
 31 33  1  0  0  0  0
 31 34  1  0  0  0  0
 31 72  1  0  0  0  0
 32 74  1  0  0  0  0
 32 75  1  0  0  0  0
 32 76  1  0  0  0  0
 33 77  1  0  0  0  0
 33 78  1  0  0  0  0
 34 79  1  0  0  0  0
 34 80  1  0  0  0  0
 34 81  1  0  0  0  0
M  END
> <PUBCHEM_COMPOUND_CID>
56928128

> <PUBCHEM_COMPOUND_CANONICALIZED>
1

> <PUBCHEM_CACTVS_COMPLEXITY>
757

> <PUBCHEM_CACTVS_HBOND_ACCEPTOR>
6

> <PUBCHEM_CACTVS_HBOND_DONOR>
5

> <PUBCHEM_CACTVS_ROTATABLE_BOND>
6

> <PUBCHEM_CACTVS_SUBSKEYS>
AAADcfB4OAAAAAAAAAAAAAAAAAAAAYAAAAAwYMAAAAAAAGDAAAAAGgAACAAADxSggAICAAAAAgAIAIAQAAAAAAAAAAAAAAEAAAABEBIAAAAAQAAEAAABAAHK7PTPgAAAAAAAAADAAAYAACCAAQAACAAAAA==

> <PUBCHEM_IUPAC_OPENEYE_NAME>
(2R,3S,5S,8S,9S,10R,13S,17R)-2,3-dihydroxy-10,13-dimethyl-17-[(1S,2R,3R,4S)-2,3,6-trihydroxy-1,4,5-trimethyl-hexyl]-1,2,3,4,5,7,8,9,11,12,14,15,16,17-tetradecahydrocyclopenta[a]phenanthren-6-one

> <PUBCHEM_IUPAC_CAS_NAME>
(2R,3S,5S,8S,9S,10R,13S,17R)-2,3-dihydroxy-10,13-dimethyl-17-[(2S,3R,4R,5S)-3,4,7-trihydroxy-5,6-dimethylheptan-2-yl]-1,2,3,4,5,7,8,9,11,12,14,15,16,17-tetradecahydrocyclopenta[a]phenanthren-6-one

> <PUBCHEM_IUPAC_NAME>
(2R,3S,5S,8S,9S,10R,13S,17R)-2,3-dihydroxy-10,13-dimethyl-17-[(2S,3R,4R,5S)-3,4,7-trihydroxy-5,6-dimethylheptan-2-yl]-1,2,3,4,5,7,8,9,11,12,14,15,16,17-tetradecahydrocyclopenta[a]phenanthren-6-one

> <PUBCHEM_IUPAC_SYSTEMATIC_NAME>
(2R,3S,5S,8S,9S,10R,13S,17R)-17-[(2S,3R,4R,5S)-5,6-dimethyl-3,4,7-tris(oxidanyl)heptan-2-yl]-10,13-dimethyl-2,3-bis(oxidanyl)-1,2,3,4,5,7,8,9,11,12,14,15,16,17-tetradecahydrocyclopenta[a]phenanthren-6-one

> <PUBCHEM_IUPAC_TRADITIONAL_NAME>
(2R,3S,5S,8S,9S,10R,13S,17R)-2,3-dihydroxy-10,13-dimethyl-17-[(1S,2R,3R,4S)-2,3,6-trihydroxy-1,4,5-trimethyl-hexyl]-1,2,3,4,5,7,8,9,11,12,14,15,16,17-tetradecahydrocyclopenta[a]phenanthren-6-one

> <PUBCHEM_IUPAC_INCHI>
InChI=1S/C28H48O6/c1-14(13-29)15(2)25(33)26(34)16(3)18-6-7-19-17-10-22(30)21-11-23(31)24(32)12-28(21,5)20(17)8-9-27(18,19)4/h14-21,23-26,29,31-34H,6-13H2,1-5H3/t14?,15-,16-,17-,18+,19?,20-,21+,23-,24+,25+,26+,27+,28+/m0/s1

> <PUBCHEM_IUPAC_INCHIKEY>
GIHKVCBPOTYEGP-ONRHPJNDSA-N

> <PUBCHEM_XLOGP3_AA>
3.5

> <PUBCHEM_EXACT_MASS>
480.345089

> <PUBCHEM_MOLECULAR_FORMULA>
C28H48O6

> <PUBCHEM_MOLECULAR_WEIGHT>
480.67712

> <PUBCHEM_OPENEYE_CAN_SMILES>
CC(CO)C(C)C(C(C(C)C1CCC2C1(CCC3C2CC(=O)C4C3(CC(C(C4)O)O)C)C)O)O

> <PUBCHEM_OPENEYE_ISO_SMILES>
C[C@@H]([C@H]1CCC2[C@@]1(CC[C@H]3[C@H]2CC(=O)[C@@H]4[C@@]3(C[C@H]([C@H](C4)O)O)C)C)[C@H]([C@@H]([C@@H](C)C(C)CO)O)O

> <PUBCHEM_CACTVS_TPSA>
118

> <PUBCHEM_MONOISOTOPIC_WEIGHT>
480.345089

> <PUBCHEM_TOTAL_CHARGE>
0

> <PUBCHEM_HEAVY_ATOM_COUNT>
34

> <PUBCHEM_ATOM_DEF_STEREO_COUNT>
12

> <PUBCHEM_ATOM_UDEF_STEREO_COUNT>
2

> <PUBCHEM_BOND_DEF_STEREO_COUNT>
0

> <PUBCHEM_BOND_UDEF_STEREO_COUNT>
0

> <PUBCHEM_ISOTOPIC_ATOM_COUNT>
0

> <PUBCHEM_COMPONENT_COUNT>
1

> <PUBCHEM_CACTVS_TAUTO_COUNT>
3

> <PUBCHEM_COORDINATE_TYPE>
1
5
255

> <PUBCHEM_BONDANNOTATIONS>
10  37  6
11  24  5
12  38  6
17  47  6
25  2  6
20  28  6
26  3  6
30  32  6
31  34  3
27  4  6
29  5  6
7  21  5
8  15  3
9  36  5

$$$$

