21637539
  -OEChem-07051213153D

 71 74  0     1  0  0  0  0  0999 V2000
   -1.9597    2.3363   -0.5497 O   0  0  0  0  0  0  0  0  0  0  0  0
   -5.1976    0.1680   -0.7121 O   0  0  0  0  0  0  0  0  0  0  0  0
   -5.4639   -1.3928    2.0356 O   0  0  0  0  0  0  0  0  0  0  0  0
   -1.2103    3.6131    1.2238 O   0  0  0  0  0  0  0  0  0  0  0  0
    0.5945   -1.1661   -0.6249 C   0  0  2  0  0  0  0  0  0  0  0  0
    1.1167    0.2226   -0.1094 C   0  0  1  0  0  0  0  0  0  0  0  0
    2.6708    0.4956   -0.2474 C   0  0  2  0  0  0  0  0  0  0  0  0
    3.4405   -0.7012    0.4116 C   0  0  1  0  0  0  0  0  0  0  0  0
   -0.9000   -1.3212   -0.0997 C   0  0  1  0  0  0  0  0  0  0  0  0
   -1.8948   -0.1391   -0.4350 C   0  0  2  0  0  0  0  0  0  0  0  0
    1.4722   -2.2763    0.0226 C   0  0  0  0  0  0  0  0  0  0  0  0
    0.2116    1.3672   -0.6066 C   0  0  0  0  0  0  0  0  0  0  0  0
    2.9809   -2.0655   -0.1311 C   0  0  0  0  0  0  0  0  0  0  0  0
    5.0082   -0.5402    0.4682 C   0  0  0  0  0  0  0  0  0  0  0  0
   -1.2154    1.2182   -0.0692 C   0  0  1  0  0  0  0  0  0  0  0  0
    3.0211    1.7996    0.5513 C   0  0  0  0  0  0  0  0  0  0  0  0
    0.6864   -1.3329   -2.1612 C   0  0  0  0  0  0  0  0  0  0  0  0
   -1.5456   -2.6999   -0.3939 C   0  0  0  0  0  0  0  0  0  0  0  0
    3.0710    0.7288   -1.7212 C   0  0  0  0  0  0  0  0  0  0  0  0
   -3.1700   -0.3458    0.4861 C   0  0  2  0  0  0  0  0  0  0  0  0
    5.4185    0.9499    0.5926 C   0  0  0  0  0  0  0  0  0  0  0  0
    4.3603    1.7849    1.2930 C   0  0  0  0  0  0  0  0  0  0  0  0
   -2.3197   -0.1375   -1.9277 C   0  0  0  0  0  0  0  0  0  0  0  0
    5.7446   -1.1479   -0.7438 C   0  0  0  0  0  0  0  0  0  0  0  0
    5.5320   -1.2878    1.7231 C   0  0  0  0  0  0  0  0  0  0  0  0
   -3.6596   -1.7708    0.5586 C   0  0  0  0  0  0  0  0  0  0  0  0
   -2.9431   -2.8227    0.1385 C   0  0  0  0  0  0  0  0  0  0  0  0
   -4.3343    0.5217    0.0840 C   0  0  0  0  0  0  0  0  0  0  0  0
   -4.9587   -2.0892    1.1669 C   0  0  0  0  0  0  0  0  0  0  0  0
   -1.8644    3.4736    0.1993 C   0  0  0  0  0  0  0  0  0  0  0  0
   -2.6922    4.5575   -0.4220 C   0  0  0  0  0  0  0  0  0  0  0  0
    0.9589    0.1936    0.9824 H   0  0  0  0  0  0  0  0  0  0  0  0
    3.1086   -0.6964    1.4633 H   0  0  0  0  0  0  0  0  0  0  0  0
   -0.8009   -1.2923    0.9998 H   0  0  0  0  0  0  0  0  0  0  0  0
    1.2227   -3.2554   -0.4044 H   0  0  0  0  0  0  0  0  0  0  0  0
    1.2485   -2.3423    1.0958 H   0  0  0  0  0  0  0  0  0  0  0  0
    0.6069    2.3348   -0.2800 H   0  0  0  0  0  0  0  0  0  0  0  0
    0.1942    1.4388   -1.6983 H   0  0  0  0  0  0  0  0  0  0  0  0
    3.4828   -2.8720    0.4159 H   0  0  0  0  0  0  0  0  0  0  0  0
    3.2725   -2.1879   -1.1779 H   0  0  0  0  0  0  0  0  0  0  0  0
   -1.1608    1.2587    1.0281 H   0  0  0  0  0  0  0  0  0  0  0  0
    2.2531    2.0094    1.3070 H   0  0  0  0  0  0  0  0  0  0  0  0
    3.0037    2.6634   -0.1265 H   0  0  0  0  0  0  0  0  0  0  0  0
   -0.0462   -2.0443   -2.5483 H   0  0  0  0  0  0  0  0  0  0  0  0
    1.6515   -1.7288   -2.4851 H   0  0  0  0  0  0  0  0  0  0  0  0
    0.5489   -0.3970   -2.7037 H   0  0  0  0  0  0  0  0  0  0  0  0
   -0.9506   -3.4883    0.0801 H   0  0  0  0  0  0  0  0  0  0  0  0
   -1.5744   -2.9242   -1.4633 H   0  0  0  0  0  0  0  0  0  0  0  0
    4.0592    1.1849   -1.8156 H   0  0  0  0  0  0  0  0  0  0  0  0
    2.3837    1.4168   -2.2228 H   0  0  0  0  0  0  0  0  0  0  0  0
    3.1030   -0.1920   -2.3030 H   0  0  0  0  0  0  0  0  0  0  0  0
   -2.9184   -0.0586    1.5169 H   0  0  0  0  0  0  0  0  0  0  0  0
    5.6169    1.3864   -0.3927 H   0  0  0  0  0  0  0  0  0  0  0  0
    6.3664    1.0408    1.1385 H   0  0  0  0  0  0  0  0  0  0  0  0
    4.2064    1.3996    2.3086 H   0  0  0  0  0  0  0  0  0  0  0  0
    4.7169    2.8149    1.4119 H   0  0  0  0  0  0  0  0  0  0  0  0
   -3.0325    0.6643   -2.1479 H   0  0  0  0  0  0  0  0  0  0  0  0
   -2.7972   -1.0754   -2.2257 H   0  0  0  0  0  0  0  0  0  0  0  0
   -1.4827    0.0352   -2.6021 H   0  0  0  0  0  0  0  0  0  0  0  0
    6.8225   -0.9562   -0.6794 H   0  0  0  0  0  0  0  0  0  0  0  0
    5.3985   -0.7263   -1.6906 H   0  0  0  0  0  0  0  0  0  0  0  0
    5.6187   -2.2347   -0.7949 H   0  0  0  0  0  0  0  0  0  0  0  0
    5.0962   -0.8815    2.6424 H   0  0  0  0  0  0  0  0  0  0  0  0
    6.6213   -1.2004    1.8105 H   0  0  0  0  0  0  0  0  0  0  0  0
    5.2955   -2.3561    1.6861 H   0  0  0  0  0  0  0  0  0  0  0  0
   -3.3400   -3.8326    0.2072 H   0  0  0  0  0  0  0  0  0  0  0  0
   -4.3550    1.5329    0.5246 H   0  0  0  0  0  0  0  0  0  0  0  0
   -5.4219   -3.0410    0.8559 H   0  0  0  0  0  0  0  0  0  0  0  0
   -2.3201    4.7784   -1.4255 H   0  0  0  0  0  0  0  0  0  0  0  0
   -2.6179    5.4641    0.1854 H   0  0  0  0  0  0  0  0  0  0  0  0
   -3.7398    4.2481   -0.4588 H   0  0  0  0  0  0  0  0  0  0  0  0
  1 15  1  0  0  0  0
  1 30  1  0  0  0  0
  2 28  2  0  0  0  0
  3 29  2  0  0  0  0
  4 30  2  0  0  0  0
  5  6  1  0  0  0  0
  5  9  1  0  0  0  0
  5 11  1  0  0  0  0
  5 17  1  0  0  0  0
  6  7  1  0  0  0  0
  6 12  1  0  0  0  0
  6 32  1  0  0  0  0
  7  8  1  0  0  0  0
  7 16  1  0  0  0  0
  7 19  1  0  0  0  0
  8 13  1  0  0  0  0
  8 14  1  0  0  0  0
  8 33  1  0  0  0  0
  9 10  1  0  0  0  0
  9 18  1  0  0  0  0
  9 34  1  0  0  0  0
 10 15  1  0  0  0  0
 10 20  1  0  0  0  0
 10 23  1  0  0  0  0
 11 13  1  0  0  0  0
 11 35  1  0  0  0  0
 11 36  1  0  0  0  0
 12 15  1  0  0  0  0
 12 37  1  0  0  0  0
 12 38  1  0  0  0  0
 13 39  1  0  0  0  0
 13 40  1  0  0  0  0
 14 21  1  0  0  0  0
 14 24  1  0  0  0  0
 14 25  1  0  0  0  0
 15 41  1  0  0  0  0
 16 22  1  0  0  0  0
 16 42  1  0  0  0  0
 16 43  1  0  0  0  0
 17 44  1  0  0  0  0
 17 45  1  0  0  0  0
 17 46  1  0  0  0  0
 18 27  1  0  0  0  0
 18 47  1  0  0  0  0
 18 48  1  0  0  0  0
 19 49  1  0  0  0  0
 19 50  1  0  0  0  0
 19 51  1  0  0  0  0
 20 26  1  0  0  0  0
 20 28  1  0  0  0  0
 20 52  1  0  0  0  0
 21 22  1  0  0  0  0
 21 53  1  0  0  0  0
 21 54  1  0  0  0  0
 22 55  1  0  0  0  0
 22 56  1  0  0  0  0
 23 57  1  0  0  0  0
 23 58  1  0  0  0  0
 23 59  1  0  0  0  0
 24 60  1  0  0  0  0
 24 61  1  0  0  0  0
 24 62  1  0  0  0  0
 25 63  1  0  0  0  0
 25 64  1  0  0  0  0
 25 65  1  0  0  0  0
 26 27  2  0  0  0  0
 26 29  1  0  0  0  0
 27 66  1  0  0  0  0
 28 67  1  0  0  0  0
 29 68  1  0  0  0  0
 30 31  1  0  0  0  0
 31 69  1  0  0  0  0
 31 70  1  0  0  0  0
 31 71  1  0  0  0  0
M  END
> <PUBCHEM_COMPOUND_CID>
21637539

> <PUBCHEM_CONFORMER_RMSD>
0.8

> <PUBCHEM_CONFORMER_DIVERSEORDER>
1

> <PUBCHEM_MMFF94_PARTIAL_CHARGES>
16
1 -0.43
15 0.28
18 0.14
2 -0.57
20 0.2
26 -0.12
27 -0.29
28 0.45
29 0.5
3 -0.57
30 0.66
31 0.06
4 -0.57
66 0.15
67 0.06
68 0.06

> <PUBCHEM_EFFECTIVE_ROTOR_COUNT>
6

> <PUBCHEM_PHARMACOPHORE_FEATURES>
8
1 2 acceptor
1 3 acceptor
1 4 acceptor
3 14 24 25 hydrophobe
6 5 6 7 8 11 13 rings
6 5 6 9 10 12 15 rings
6 7 8 14 16 21 22 rings
6 9 10 18 20 26 27 rings

> <PUBCHEM_HEAVY_ATOM_COUNT>
31

> <PUBCHEM_ATOM_DEF_STEREO_COUNT>
8

> <PUBCHEM_ATOM_UDEF_STEREO_COUNT>
0

> <PUBCHEM_BOND_DEF_STEREO_COUNT>
0

> <PUBCHEM_BOND_UDEF_STEREO_COUNT>
0

> <PUBCHEM_ISOTOPIC_ATOM_COUNT>
0

> <PUBCHEM_COMPONENT_COUNT>
1

> <PUBCHEM_CACTVS_TAUTO_COUNT>
3

> <PUBCHEM_CONFORMER_ID>
014A29A300000001

> <PUBCHEM_MMFF94_ENERGY>
127.6518

> <PUBCHEM_FEATURE_SELFOVERLAP>
40.637

> <PUBCHEM_SHAPE_FINGERPRINT>
10319926 262 18265619969232291954
10675989 125 16896810657201461176
11961588 58 6699811951713923883
12107183 9 17694513933029276002
12166972 35 17417803994478167855
12236239 1 17418091018689937126
12422481 6 18187357740182481466
12553582 1 18338227155458008631
12596602 18 17704077270250332600
12633257 1 18264197033302403907
12788726 201 18269537403979927252
12930653 34 18265897041160181135
13140716 1 18266743480408713358
13224815 77 18411423882334401846
13540713 4 18044366369086315766
14081887 123 18410012130425246307
14178342 30 18271524316180760324
14223421 5 18336542806396481527
14341114 176 18413669098100339866
14790565 3 17402611844839212552
14955137 171 18197203760004758523
15131766 46 15720538429629377200
15840311 113 17098301421191187043
17349148 13 17561078094808160130
17980427 23 17604983707799053175
1813 80 16916792842590621582
18608769 82 18337386038180422766
21033648 29 17532396303643153850
21792934 111 18412822500322801979
22182313 1 17823691052739403846
23558518 356 18200303463144428243
23559900 14 18411143502553284996
23845131 108 17833823147190759793
244849 19 17387962312840056740
3380486 145 18339082563057424679
350125 39 18338232773228044588
3886686 26 17838344334239475306
392239 28 18411697677566748267
4058900 60 17472131155769892304
4409770 3 18342749546026429909
463206 1 18127689318660443563
469060 322 18339342111683336041
508706 21 18265894833721148868
5104073 3 18338526330538389000
5171179 24 17755567584415898751
6004065 56 18189346680346616487
9777508 108 18194678391996193633

> <PUBCHEM_SHAPE_MULTIPOLES>
614.49
11.71
3.96
1.46
5.49
4.03
-0.2
-3.1
4.48
-3.86
0.49
0.06
-0.26
1.13

> <PUBCHEM_SHAPE_SELFOVERLAP>
1295.875

> <PUBCHEM_SHAPE_VOLUME>
339.3

> <PUBCHEM_COORDINATE_TYPE>
2
5
10

$$$$

