126779
  -OEChem-07051213033D

 68 72  0     1  0  0  0  0  0999 V2000
   -2.1764   -0.8627   -0.1951 O   0  0  0  0  0  0  0  0  0  0  0  0
   -2.7091    1.4735    1.3061 O   0  0  0  0  0  0  0  0  0  0  0  0
   -4.4204   -1.1765   -0.8972 O   0  0  0  0  0  0  0  0  0  0  0  0
    1.7477    2.9533    1.1606 O   0  0  0  0  0  0  0  0  0  0  0  0
    0.4124   -1.7200   -1.4520 O   0  0  0  0  0  0  0  0  0  0  0  0
   -5.9818   -3.3015    0.2730 O   0  0  0  0  0  0  0  0  0  0  0  0
   -0.8658    5.0397   -0.0305 O   0  0  0  0  0  0  0  0  0  0  0  0
   -0.1194    3.7456   -1.7521 O   0  0  0  0  0  0  0  0  0  0  0  0
    2.8085   -2.4511   -1.1769 O   0  0  0  0  0  0  0  0  0  0  0  0
    4.0940    2.0751    1.3541 O   0  0  0  0  0  0  0  0  0  0  0  0
    5.2008   -3.3482   -0.9706 O   0  0  0  0  0  0  0  0  0  0  0  0
   -3.7636   -4.4693    1.6452 N   0  0  0  0  0  0  0  0  0  0  0  0
   -2.3599    2.2449    0.1472 C   0  0  2  0  0  0  0  0  0  0  0  0
   -2.5286    1.3588   -1.0978 C   0  0  0  0  0  0  0  0  0  0  0  0
   -0.8907    2.7082    0.2975 C   0  0  1  0  0  0  0  0  0  0  0  0
   -1.6220    0.1236   -1.0652 C   0  0  1  0  0  0  0  0  0  0  0  0
    0.1199    1.5989    0.0687 C   0  0  0  0  0  0  0  0  0  0  0  0
   -0.2164    0.4094   -0.6002 C   0  0  0  0  0  0  0  0  0  0  0  0
   -3.3510    3.4161    0.0992 C   0  0  0  0  0  0  0  0  0  0  0  0
   -3.0930   -1.7059   -0.8868 C   0  0  2  0  0  0  0  0  0  0  0  0
   -3.0634   -3.1083   -0.2762 C   0  0  0  0  0  0  0  0  0  0  0  0
    1.4422    1.7874    0.5127 C   0  0  0  0  0  0  0  0  0  0  0  0
    0.7735   -0.5682   -0.8078 C   0  0  0  0  0  0  0  0  0  0  0  0
   -3.7082   -3.1085    1.1146 C   0  0  1  0  0  0  0  0  0  0  0  0
   -0.5759    3.8561   -0.6239 C   0  0  0  0  0  0  0  0  0  0  0  0
   -5.1081   -2.4815    1.0510 C   0  0  1  0  0  0  0  0  0  0  0  0
   -5.0249   -1.0928    0.4003 C   0  0  2  0  0  0  0  0  0  0  0  0
    2.4195    0.8089    0.2988 C   0  0  0  0  0  0  0  0  0  0  0  0
    2.0852   -0.3691   -0.3628 C   0  0  0  0  0  0  0  0  0  0  0  0
   -4.7808    2.9201    0.0919 C   0  0  0  0  0  0  0  0  0  0  0  0
   -6.3978   -0.4541    0.2188 C   0  0  0  0  0  0  0  0  0  0  0  0
    3.1034   -1.4137   -0.5966 C   0  0  0  0  0  0  0  0  0  0  0  0
    3.7991    1.0365    0.7758 C   0  0  0  0  0  0  0  0  0  0  0  0
    4.4830   -1.1893   -0.1186 C   0  0  0  0  0  0  0  0  0  0  0  0
    4.8188   -0.0066    0.5434 C   0  0  0  0  0  0  0  0  0  0  0  0
    5.4579   -2.1709   -0.3325 C   0  0  0  0  0  0  0  0  0  0  0  0
    6.1297    0.1946    0.9917 C   0  0  0  0  0  0  0  0  0  0  0  0
    6.7632   -1.9663    0.1158 C   0  0  0  0  0  0  0  0  0  0  0  0
    7.0983   -0.7861    0.7765 C   0  0  0  0  0  0  0  0  0  0  0  0
   -2.2867    1.9523   -1.9895 H   0  0  0  0  0  0  0  0  0  0  0  0
   -3.5612    1.0308   -1.2132 H   0  0  0  0  0  0  0  0  0  0  0  0
   -0.7863    3.0523    1.3337 H   0  0  0  0  0  0  0  0  0  0  0  0
   -1.5573   -0.2377   -2.1012 H   0  0  0  0  0  0  0  0  0  0  0  0
   -3.1974    4.0442   -0.7851 H   0  0  0  0  0  0  0  0  0  0  0  0
   -3.2206    4.0478    0.9868 H   0  0  0  0  0  0  0  0  0  0  0  0
   -2.7949   -1.8255   -1.9352 H   0  0  0  0  0  0  0  0  0  0  0  0
   -2.0276   -3.4619   -0.2032 H   0  0  0  0  0  0  0  0  0  0  0  0
   -3.6016   -3.7990   -0.9377 H   0  0  0  0  0  0  0  0  0  0  0  0
   -3.0883   -2.5102    1.7939 H   0  0  0  0  0  0  0  0  0  0  0  0
   -5.5391   -2.4050    2.0557 H   0  0  0  0  0  0  0  0  0  0  0  0
   -4.4217   -0.4303    1.0292 H   0  0  0  0  0  0  0  0  0  0  0  0
   -2.6184    2.0436    2.0886 H   0  0  0  0  0  0  0  0  0  0  0  0
   -5.0545    2.4561   -0.8589 H   0  0  0  0  0  0  0  0  0  0  0  0
   -4.9959    2.2277    0.9101 H   0  0  0  0  0  0  0  0  0  0  0  0
   -5.4569    3.7741    0.2168 H   0  0  0  0  0  0  0  0  0  0  0  0
   -6.9025   -0.3217    1.1803 H   0  0  0  0  0  0  0  0  0  0  0  0
   -6.3098    0.5202   -0.2688 H   0  0  0  0  0  0  0  0  0  0  0  0
   -7.0379   -1.0579   -0.4336 H   0  0  0  0  0  0  0  0  0  0  0  0
   -2.8326   -4.8839    1.6251 H   0  0  0  0  0  0  0  0  0  0  0  0
   -4.3448   -5.0504    1.0420 H   0  0  0  0  0  0  0  0  0  0  0  0
    1.0444    3.1754    1.7902 H   0  0  0  0  0  0  0  0  0  0  0  0
   -0.5292   -1.9049   -1.3198 H   0  0  0  0  0  0  0  0  0  0  0  0
   -5.7188   -3.2310   -0.6600 H   0  0  0  0  0  0  0  0  0  0  0  0
   -0.6679    5.8013   -0.6163 H   0  0  0  0  0  0  0  0  0  0  0  0
    6.4162    1.1060    1.5095 H   0  0  0  0  0  0  0  0  0  0  0  0
    7.5258   -2.7235   -0.0464 H   0  0  0  0  0  0  0  0  0  0  0  0
    8.1153   -0.6292    1.1246 H   0  0  0  0  0  0  0  0  0  0  0  0
    4.2722   -3.3968   -1.2420 H   0  0  0  0  0  0  0  0  0  0  0  0
  1 16  1  0  0  0  0
  1 20  1  0  0  0  0
  2 13  1  0  0  0  0
  2 52  1  0  0  0  0
  3 20  1  0  0  0  0
  3 27  1  0  0  0  0
  4 22  1  0  0  0  0
  4 61  1  0  0  0  0
  5 23  1  0  0  0  0
  5 62  1  0  0  0  0
  6 26  1  0  0  0  0
  6 63  1  0  0  0  0
  7 25  1  0  0  0  0
  7 64  1  0  0  0  0
  8 25  2  0  0  0  0
  9 32  2  0  0  0  0
 10 33  2  0  0  0  0
 11 36  1  0  0  0  0
 11 68  1  0  0  0  0
 12 24  1  0  0  0  0
 12 59  1  0  0  0  0
 12 60  1  0  0  0  0
 13 14  1  0  0  0  0
 13 15  1  0  0  0  0
 13 19  1  0  0  0  0
 14 16  1  0  0  0  0
 14 40  1  0  0  0  0
 14 41  1  0  0  0  0
 15 17  1  0  0  0  0
 15 25  1  0  0  0  0
 15 42  1  0  0  0  0
 16 18  1  0  0  0  0
 16 43  1  0  0  0  0
 17 18  2  0  0  0  0
 17 22  1  0  0  0  0
 18 23  1  0  0  0  0
 19 30  1  0  0  0  0
 19 44  1  0  0  0  0
 19 45  1  0  0  0  0
 20 21  1  0  0  0  0
 20 46  1  0  0  0  0
 21 24  1  0  0  0  0
 21 47  1  0  0  0  0
 21 48  1  0  0  0  0
 22 28  2  0  0  0  0
 23 29  2  0  0  0  0
 24 26  1  0  0  0  0
 24 49  1  0  0  0  0
 26 27  1  0  0  0  0
 26 50  1  0  0  0  0
 27 31  1  0  0  0  0
 27 51  1  0  0  0  0
 28 29  1  0  0  0  0
 28 33  1  0  0  0  0
 29 32  1  0  0  0  0
 30 53  1  0  0  0  0
 30 54  1  0  0  0  0
 30 55  1  0  0  0  0
 31 56  1  0  0  0  0
 31 57  1  0  0  0  0
 31 58  1  0  0  0  0
 32 34  1  0  0  0  0
 33 35  1  0  0  0  0
 34 35  2  0  0  0  0
 34 36  1  0  0  0  0
 35 37  1  0  0  0  0
 36 38  2  0  0  0  0
 37 39  2  0  0  0  0
 37 65  1  0  0  0  0
 38 39  1  0  0  0  0
 38 66  1  0  0  0  0
 39 67  1  0  0  0  0
M  END
> <PUBCHEM_COMPOUND_CID>
126779

> <PUBCHEM_CONFORMER_RMSD>
1

> <PUBCHEM_CONFORMER_DIVERSEORDER>
1
10
4
8
2
7
5
9
3
6

> <PUBCHEM_MMFF94_PARTIAL_CHARGES>
45
1 -0.56
10 -0.57
11 -0.53
12 -0.99
13 0.28
15 0.2
16 0.42
17 -0.14
18 -0.14
2 -0.68
20 0.56
22 0.08
23 0.08
24 0.27
25 0.66
26 0.28
27 0.28
28 0.09
29 0.09
3 -0.56
32 0.4
33 0.4
34 0.09
35 0.09
36 0.08
37 -0.15
38 -0.15
39 -0.15
4 -0.53
5 -0.53
52 0.4
59 0.36
6 -0.68
60 0.36
61 0.45
62 0.45
63 0.4
64 0.5
65 0.15
66 0.15
67 0.15
68 0.45
7 -0.65
8 -0.57
9 -0.57

> <PUBCHEM_EFFECTIVE_ROTOR_COUNT>
6

> <PUBCHEM_PHARMACOPHORE_FEATURES>
22
1 1 acceptor
1 10 acceptor
1 11 donor
1 12 cation
1 12 donor
1 2 acceptor
1 2 donor
1 3 acceptor
1 30 hydrophobe
1 4 donor
1 5 donor
1 6 acceptor
1 6 donor
1 7 acceptor
1 8 acceptor
1 9 acceptor
3 7 8 25 anion
6 13 14 15 16 17 18 rings
6 17 18 22 23 28 29 rings
6 28 29 32 33 34 35 rings
6 3 20 21 24 26 27 rings
6 34 35 36 37 38 39 rings

> <PUBCHEM_HEAVY_ATOM_COUNT>
39

> <PUBCHEM_ATOM_DEF_STEREO_COUNT>
7

> <PUBCHEM_ATOM_UDEF_STEREO_COUNT>
0

> <PUBCHEM_BOND_DEF_STEREO_COUNT>
0

> <PUBCHEM_BOND_UDEF_STEREO_COUNT>
0

> <PUBCHEM_ISOTOPIC_ATOM_COUNT>
0

> <PUBCHEM_COMPONENT_COUNT>
1

> <PUBCHEM_CACTVS_TAUTO_COUNT>
248

> <PUBCHEM_CONFORMER_ID>
0001EF3B00000001

> <PUBCHEM_MMFF94_ENERGY>
123.4991

> <PUBCHEM_FEATURE_SELFOVERLAP>
111.799

> <PUBCHEM_SHAPE_FINGERPRINT>
1100329 8 17619632822774490203
11135609 12 18411982446899191776
117089 54 18411694357483688226
11828532 37 17700124405854002611
12422481 6 18040716930947847051
13140716 1 18335137626304799292
140371 6 18124872365558516537
14394314 77 18341048614407247131
15042514 8 18410855499094649549
15064986 266 18335139855851684100
15324884 4 17977986485744251964
15351339 4 18059870496882939355
15361156 5 18338515235783691023
15927050 60 18122348149561341359
16112460 7 18043803415460426049
17686467 74 18342748391181614480
18608769 82 18408043988444787290
19301679 30 18338793404242192963
19315092 285 16590572033502595535
19611394 137 18411419476183448138
21033648 29 17386874814346759066
21033650 10 16773527662844464157
22122407 14 16226053330988601673
22889206 1 17393894951124492833
23559900 14 18268153059317384297
23569943 247 14853287883118473100
3383291 50 18342734114483839899
3418910 222 18342734080166338316
350125 39 18260551104510626796
392239 28 18410852135876898163
4073 2 18410014381732180882
5104073 3 18188782755351366178
513202 73 18411978070280233091
9555976 147 17169812416042667883

> <PUBCHEM_SHAPE_MULTIPOLES>
733.06
15.11
5.57
1.21
11.67
1.84
-0.01
-12.68
3.72
-6.24
0.42
-0.07
-0.2
2.33

> <PUBCHEM_SHAPE_SELFOVERLAP>
1627.71

> <PUBCHEM_SHAPE_VOLUME>
383.8

> <PUBCHEM_COORDINATE_TYPE>
2
5
10

$$$$

