8620
  -OEChem-06261202573D

 13 13  0     0  0  0  0  0  0999 V2000
   -1.5553    2.7280   -0.0001 Cl  0  0  0  0  0  0  0  0  0  0  0  0
   -1.5496   -2.7312   -0.0002 Cl  0  0  0  0  0  0  0  0  0  0  0  0
    3.1416    0.0032   -0.0001 Cl  0  0  0  0  0  0  0  0  0  0  0  0
    1.5785   -2.7151    0.0000 Cl  0  0  0  0  0  0  0  0  0  0  0  0
    1.5728    2.7184    0.0000 Cl  0  0  0  0  0  0  0  0  0  0  0  0
   -3.2033   -0.0033    0.0000 S   0  0  0  0  0  0  0  0  0  0  0  0
   -1.3924   -0.0014    0.0001 C   0  0  0  0  0  0  0  0  0  0  0  0
   -0.6961    1.2072    0.0001 C   0  0  0  0  0  0  0  0  0  0  0  0
   -0.6936   -1.2087    0.0002 C   0  0  0  0  0  0  0  0  0  0  0  0
    0.7013   -1.2072    0.0002 C   0  0  0  0  0  0  0  0  0  0  0  0
    0.6988    1.2087    0.0001 C   0  0  0  0  0  0  0  0  0  0  0  0
    1.3974    0.0014    0.0000 C   0  0  0  0  0  0  0  0  0  0  0  0
   -3.3631   -1.3346    0.0144 H   0  0  0  0  0  0  0  0  0  0  0  0
  1  8  1  0  0  0  0
  2  9  1  0  0  0  0
  3 12  1  0  0  0  0
  4 10  1  0  0  0  0
  5 11  1  0  0  0  0
  6  7  1  0  0  0  0
  6 13  1  0  0  0  0
  7  8  2  0  0  0  0
  7  9  1  0  0  0  0
  8 11  1  0  0  0  0
  9 10  2  0  0  0  0
 10 12  1  0  0  0  0
 11 12  2  0  0  0  0
M  END
> <PUBCHEM_COMPOUND_CID>
8620

> <PUBCHEM_CONFORMER_RMSD>
0.4

> <PUBCHEM_CONFORMER_DIVERSEORDER>
1

> <PUBCHEM_MMFF94_PARTIAL_CHARGES>
13
1 -0.18
10 0.18
11 0.18
12 0.18
13 0.18
2 -0.18
3 -0.18
4 -0.18
5 -0.18
6 -0.28
7 0.1
8 0.18
9 0.18

> <PUBCHEM_EFFECTIVE_ROTOR_COUNT>
0

> <PUBCHEM_PHARMACOPHORE_FEATURES>
1
6 7 8 9 10 11 12 rings

> <PUBCHEM_HEAVY_ATOM_COUNT>
12

> <PUBCHEM_ATOM_DEF_STEREO_COUNT>
0

> <PUBCHEM_ATOM_UDEF_STEREO_COUNT>
0

> <PUBCHEM_BOND_DEF_STEREO_COUNT>
0

> <PUBCHEM_BOND_UDEF_STEREO_COUNT>
0

> <PUBCHEM_ISOTOPIC_ATOM_COUNT>
0

> <PUBCHEM_COMPONENT_COUNT>
1

> <PUBCHEM_CACTVS_TAUTO_COUNT>
2

> <PUBCHEM_CONFORMER_ID>
000021AC00000001

> <PUBCHEM_MMFF94_ENERGY>
33.9684

> <PUBCHEM_FEATURE_SELFOVERLAP>
5.074

> <PUBCHEM_SHAPE_FINGERPRINT>
10967382 1 18410575080410322629
11206711 2 18339641238875120341
12423570 1 9768577324619481067
13140716 1 18266741277074653634
16945 1 18410573985151451143
193761 8 18266741466195639052
20588541 1 18410853265421180439
21501502 16 18122625225736757569
2334 1 17978229352931786759
23526114 1 18122343467276374719
23552423 10 18126568903547299278
23559900 14 18334849473745849908
241688 4 17906171002984889825
2748010 2 18122344854540255327
66348 1 18410575110432882688

> <PUBCHEM_SHAPE_MULTIPOLES>
260.15
3.76
3.66
0.64
0.18
0
0
0
0
-0.07
0
0.01
0
0

> <PUBCHEM_SHAPE_SELFOVERLAP>
489.754

> <PUBCHEM_SHAPE_VOLUME>
161.5

> <PUBCHEM_COORDINATE_TYPE>
2
5
10

$$$$

