160540
  -OEChem-07051212513D

 22 22  0     1  0  0  0  0  0999 V2000
   -0.3552   -1.2293   -0.1171 O   0  0  0  0  0  0  0  0  0  0  0  0
   -1.4718    1.2197   -1.1767 O   0  0  0  0  0  0  0  0  0  0  0  0
    2.5881    0.9120    0.2774 O   0  0  0  0  0  0  0  0  0  0  0  0
    1.8919   -1.7200   -0.5139 O   0  0  0  0  0  0  0  0  0  0  0  0
   -1.1660    1.0435    0.2058 C   0  0  2  0  0  0  0  0  0  0  0  0
    0.2621    1.5120    0.4663 C   0  0  0  0  0  0  0  0  0  0  0  0
   -1.3201   -0.4353    0.5820 C   0  0  1  0  0  0  0  0  0  0  0  0
    1.2805    0.5656   -0.1688 C   0  0  2  0  0  0  0  0  0  0  0  0
    0.9899   -0.8861    0.2125 C   0  0  1  0  0  0  0  0  0  0  0  0
   -2.6994   -0.9821    0.2325 C   0  0  0  0  0  0  0  0  0  0  0  0
   -1.8629    1.6638    0.7810 H   0  0  0  0  0  0  0  0  0  0  0  0
    0.4177    2.5224    0.0687 H   0  0  0  0  0  0  0  0  0  0  0  0
    0.4396    1.5746    1.5476 H   0  0  0  0  0  0  0  0  0  0  0  0
   -1.1598   -0.5621    1.6605 H   0  0  0  0  0  0  0  0  0  0  0  0
    1.2620    0.6880   -1.2580 H   0  0  0  0  0  0  0  0  0  0  0  0
    1.1693   -1.0750    1.2771 H   0  0  0  0  0  0  0  0  0  0  0  0
   -2.7946   -2.0129    0.5917 H   0  0  0  0  0  0  0  0  0  0  0  0
   -3.4935   -0.3836    0.6889 H   0  0  0  0  0  0  0  0  0  0  0  0
   -2.8576   -1.0224   -0.8505 H   0  0  0  0  0  0  0  0  0  0  0  0
   -2.4360    1.1502   -1.2782 H   0  0  0  0  0  0  0  0  0  0  0  0
    2.6154    0.8033    1.2434 H   0  0  0  0  0  0  0  0  0  0  0  0
    2.0084   -1.3480   -1.4039 H   0  0  0  0  0  0  0  0  0  0  0  0
  1  7  1  0  0  0  0
  1  9  1  0  0  0  0
  2  5  1  0  0  0  0
  2 20  1  0  0  0  0
  3  8  1  0  0  0  0
  3 21  1  0  0  0  0
  4  9  1  0  0  0  0
  4 22  1  0  0  0  0
  5  6  1  0  0  0  0
  5  7  1  0  0  0  0
  5 11  1  0  0  0  0
  6  8  1  0  0  0  0
  6 12  1  0  0  0  0
  6 13  1  0  0  0  0
  7 10  1  0  0  0  0
  7 14  1  0  0  0  0
  8  9  1  0  0  0  0
  8 15  1  0  0  0  0
  9 16  1  0  0  0  0
 10 17  1  0  0  0  0
 10 18  1  0  0  0  0
 10 19  1  0  0  0  0
M  END
> <PUBCHEM_COMPOUND_CID>
160540

> <PUBCHEM_CONFORMER_RMSD>
0.4

> <PUBCHEM_CONFORMER_DIVERSEORDER>
2
6
8
7
5
4
1
3

> <PUBCHEM_MMFF94_PARTIAL_CHARGES>
11
1 -0.56
2 -0.68
20 0.4
21 0.4
22 0.4
3 -0.68
4 -0.68
5 0.28
7 0.28
8 0.28
9 0.56

> <PUBCHEM_EFFECTIVE_ROTOR_COUNT>
1.2

> <PUBCHEM_PHARMACOPHORE_FEATURES>
8
1 1 acceptor
1 2 acceptor
1 2 donor
1 3 acceptor
1 3 donor
1 4 acceptor
1 4 donor
6 1 5 6 7 8 9 rings

> <PUBCHEM_HEAVY_ATOM_COUNT>
10

> <PUBCHEM_ATOM_DEF_STEREO_COUNT>
3

> <PUBCHEM_ATOM_UDEF_STEREO_COUNT>
1

> <PUBCHEM_BOND_DEF_STEREO_COUNT>
0

> <PUBCHEM_BOND_UDEF_STEREO_COUNT>
0

> <PUBCHEM_ISOTOPIC_ATOM_COUNT>
0

> <PUBCHEM_COMPONENT_COUNT>
1

> <PUBCHEM_CACTVS_TAUTO_COUNT>
1

> <PUBCHEM_CONFORMER_ID>
0002731C00000002

> <PUBCHEM_MMFF94_ENERGY>
19.3674

> <PUBCHEM_FEATURE_SELFOVERLAP>
40.647

> <PUBCHEM_SHAPE_FINGERPRINT>
16945 1 18192418693573652993
18185500 45 18190457151860603915
20711978 78 17822004341398371374
21040471 1 17620473944594436657
21922407 69 15719974508406703866
23235685 24 18263083219195746232
23552423 10 18272078444108033074
241688 4 18269264832396393008
24536 1 18189906489739901920
2748010 2 18338233872465040942
29004967 10 18340760430121777979
5084963 1 18058717121752980150

> <PUBCHEM_SHAPE_MULTIPOLES>
182.32
3.06
1.76
0.8
0.18
0.12
-0.1
0.54
0.07
-0.27
-0.14
0.17
-0.15
0.39

> <PUBCHEM_SHAPE_SELFOVERLAP>
359.025

> <PUBCHEM_SHAPE_VOLUME>
107.9

> <PUBCHEM_COORDINATE_TYPE>
2
5
10

$$$$

