17395369
  -OEChem-06241222493D

 41 42  0     1  0  0  0  0  0999 V2000
   -0.6353   -0.3142   -0.3091 O   0  0  0  0  0  0  0  0  0  0  0  0
    1.6344    1.0622   -0.2572 O   0  0  0  0  0  0  0  0  0  0  0  0
    6.3534   -0.1743    0.6271 O   0  0  0  0  0  0  0  0  0  0  0  0
   -1.8480   -1.8164    0.9447 O   0  0  0  0  0  0  0  0  0  0  0  0
   -6.5033    0.2902    0.7418 O   0  0  0  0  0  0  0  0  0  0  0  0
    2.9269   -0.8463    0.1936 N   0  0  0  0  0  0  0  0  0  0  0  0
    5.2909   -1.0690    0.5838 N   0  0  0  0  0  0  0  0  0  0  0  0
    0.5446   -1.0764   -0.1135 C   0  0  1  0  0  0  0  0  0  0  0  0
    0.6506   -2.1350   -1.2159 C   0  0  0  0  0  0  0  0  0  0  0  0
    1.7571   -0.1461   -0.0779 C   0  0  0  0  0  0  0  0  0  0  0  0
    0.7604   -1.5490   -2.6193 C   0  0  0  0  0  0  0  0  0  0  0  0
   -1.7676   -0.7975    0.2764 C   0  0  0  0  0  0  0  0  0  0  0  0
   -2.9271    0.0866   -0.0034 C   0  0  0  0  0  0  0  0  0  0  0  0
    4.2176   -0.3182    0.3203 C   0  0  0  0  0  0  0  0  0  0  0  0
   -4.1858   -0.2312    0.5066 C   0  0  0  0  0  0  0  0  0  0  0  0
    4.5383    1.0440    0.1883 C   0  0  0  0  0  0  0  0  0  0  0  0
   -2.7573    1.2353   -0.7762 C   0  0  0  0  0  0  0  0  0  0  0  0
   -5.2748    0.6000    0.2441 C   0  0  0  0  0  0  0  0  0  0  0  0
    5.8927    1.0805    0.3902 C   0  0  0  0  0  0  0  0  0  0  0  0
   -3.8463    2.0665   -1.0388 C   0  0  0  0  0  0  0  0  0  0  0  0
   -5.1050    1.7488   -0.5285 C   0  0  0  0  0  0  0  0  0  0  0  0
    6.8898    2.1580    0.3992 C   0  0  0  0  0  0  0  0  0  0  0  0
   -6.6062   -0.8987    1.5237 C   0  0  0  0  0  0  0  0  0  0  0  0
    0.5208   -1.5741    0.8657 H   0  0  0  0  0  0  0  0  0  0  0  0
    1.5091   -2.7933   -1.0433 H   0  0  0  0  0  0  0  0  0  0  0  0
   -0.2419   -2.7721   -1.1910 H   0  0  0  0  0  0  0  0  0  0  0  0
   -0.1004   -0.9151   -2.8545 H   0  0  0  0  0  0  0  0  0  0  0  0
    1.6704   -0.9526   -2.7343 H   0  0  0  0  0  0  0  0  0  0  0  0
    0.7947   -2.3551   -3.3593 H   0  0  0  0  0  0  0  0  0  0  0  0
    2.8793   -1.8507    0.3410 H   0  0  0  0  0  0  0  0  0  0  0  0
   -4.2692   -1.1341    1.1017 H   0  0  0  0  0  0  0  0  0  0  0  0
    3.9093    1.8956   -0.0209 H   0  0  0  0  0  0  0  0  0  0  0  0
   -1.7955    1.5203   -1.1930 H   0  0  0  0  0  0  0  0  0  0  0  0
   -3.7148    2.9611   -1.6405 H   0  0  0  0  0  0  0  0  0  0  0  0
   -5.9495    2.4001   -0.7364 H   0  0  0  0  0  0  0  0  0  0  0  0
    7.3866    2.2145    1.3727 H   0  0  0  0  0  0  0  0  0  0  0  0
    7.6519    1.9836   -0.3665 H   0  0  0  0  0  0  0  0  0  0  0  0
    6.4248    3.1285    0.1994 H   0  0  0  0  0  0  0  0  0  0  0  0
   -6.3724   -1.7910    0.9331 H   0  0  0  0  0  0  0  0  0  0  0  0
   -6.0044   -0.8340    2.4367 H   0  0  0  0  0  0  0  0  0  0  0  0
   -7.6515   -0.9892    1.8371 H   0  0  0  0  0  0  0  0  0  0  0  0
  1  8  1  0  0  0  0
  1 12  1  0  0  0  0
  2 10  2  0  0  0  0
  3  7  1  0  0  0  0
  3 19  1  0  0  0  0
  4 12  2  0  0  0  0
  5 18  1  0  0  0  0
  5 23  1  0  0  0  0
  6 10  1  0  0  0  0
  6 14  1  0  0  0  0
  6 30  1  0  0  0  0
  7 14  2  0  0  0  0
  8  9  1  0  0  0  0
  8 10  1  0  0  0  0
  8 24  1  0  0  0  0
  9 11  1  0  0  0  0
  9 25  1  0  0  0  0
  9 26  1  0  0  0  0
 11 27  1  0  0  0  0
 11 28  1  0  0  0  0
 11 29  1  0  0  0  0
 12 13  1  0  0  0  0
 13 15  2  0  0  0  0
 13 17  1  0  0  0  0
 14 16  1  0  0  0  0
 15 18  1  0  0  0  0
 15 31  1  0  0  0  0
 16 19  2  0  0  0  0
 16 32  1  0  0  0  0
 17 20  2  0  0  0  0
 17 33  1  0  0  0  0
 18 21  2  0  0  0  0
 19 22  1  0  0  0  0
 20 21  1  0  0  0  0
 20 34  1  0  0  0  0
 21 35  1  0  0  0  0
 22 36  1  0  0  0  0
 22 37  1  0  0  0  0
 22 38  1  0  0  0  0
 23 39  1  0  0  0  0
 23 40  1  0  0  0  0
 23 41  1  0  0  0  0
M  END
> <PUBCHEM_COMPOUND_CID>
17395369

> <PUBCHEM_CONFORMER_RMSD>
1

> <PUBCHEM_CONFORMER_DIVERSEORDER>
2
39
135
21
10
111
35
73
120
83
114
48
64
59
49
133
12
99
70
103
122
68
134
66
30
82
152
85
37
104
91
18
151
27
80
125
95
11
109
75
87
89
126
94
4
105
54
32
121
62
57
130
140
56
137
118
40
156
108
60
3
115
148
88
1
142
113
86
155
61
16
81
29
25
72
107
58
143
76
55
144
127
101
132
71
17
63
36
100
77
47
96
112
7
26
90
136
52
79
98
131
128
106
149
23
147
150
119
110
117
45
31
13
78
44
154
67
20
22
51
138
97
38
74
41
124
14
8
141
19
46
9
65
145
84
146
123
69
157
28
53
43
92
5
153
34
15
50
24
102
139
33
129
42
116
6
93

> <PUBCHEM_MMFF94_PARTIAL_CHARGES>
27
1 -0.43
10 0.57
12 0.63
13 0.09
14 0.35
15 -0.15
16 -0.15
17 -0.15
18 0.08
19 -0.04
2 -0.57
20 -0.15
21 -0.15
22 0.18
23 0.28
3 -0.02
30 0.37
31 0.15
32 0.15
33 0.15
34 0.15
35 0.15
4 -0.57
5 -0.36
6 -0.49
7 -0.41
8 0.34

> <PUBCHEM_EFFECTIVE_ROTOR_COUNT>
8

> <PUBCHEM_PHARMACOPHORE_FEATURES>
7
1 11 hydrophobe
1 2 acceptor
1 4 acceptor
1 5 acceptor
1 6 donor
5 3 7 14 16 19 rings
6 13 15 17 18 20 21 rings

> <PUBCHEM_HEAVY_ATOM_COUNT>
23

> <PUBCHEM_ATOM_DEF_STEREO_COUNT>
0

> <PUBCHEM_ATOM_UDEF_STEREO_COUNT>
1

> <PUBCHEM_BOND_DEF_STEREO_COUNT>
0

> <PUBCHEM_BOND_UDEF_STEREO_COUNT>
0

> <PUBCHEM_ISOTOPIC_ATOM_COUNT>
0

> <PUBCHEM_COMPONENT_COUNT>
1

> <PUBCHEM_CACTVS_TAUTO_COUNT>
3

> <PUBCHEM_CONFORMER_ID>
01096EA900000002

> <PUBCHEM_MMFF94_ENERGY>
54.3609

> <PUBCHEM_FEATURE_SELFOVERLAP>
35.52

> <PUBCHEM_SHAPE_FINGERPRINT>
10 15 18201720626590934032
10369192 42 18040995116064304317
10906281 52 18114165458792730209
11796584 16 7565338730396824076
12516196 113 12895352192266642062
12596602 18 17561089132626464432
12892183 10 17703796975920265874
13073987 5 17988647440385043081
13288520 33 9079115570583627819
13402501 40 18411704304706898021
13403585 85 18202563964973318345
13533116 47 16153985855048433638
13631057 29 17168725029064825231
14251732 16 18273495658845973385
14251764 18 18131632253562143316
14341114 176 18273213110201310960
14933364 13 18342175574891475800
15188451 53 16271637894029194427
17980427 23 18340769239120886183
18006028 8 12679465278876032726
1813 80 14836121108862853278
18222031 100 14045738236061037278
19489759 90 16917066681537381713
200 152 10592047972871515342
20281389 69 18343022190255065200
21033648 29 18042136371032819520
21637258 2 13254799018654336328
22224240 67 18335421253519002659
23402539 116 18343589538397260079
23559900 14 18050570938935287870
23622692 88 16056875827809090747
2838139 119 18334306374239785388
2916195 48 18342741849001839057
29717793 49 6627751106738927848
3545911 37 18411135844510272506
4073 2 17775281617854089994
4325135 7 18259990358239484031
4340502 62 17918275363830092482
437815 12 10952051147948507159
504843 32 17895765001797342462
5104073 3 18128813239219501721
8863177 126 10735286841268943397

> <PUBCHEM_SHAPE_MULTIPOLES>
434.02
17.91
2.04
1.31
7.66
0.17
-0.66
8.43
6.99
0.54
-0.64
-0.87
-0.62
1.63

> <PUBCHEM_SHAPE_SELFOVERLAP>
910.638

> <PUBCHEM_SHAPE_VOLUME>
244.4

> <PUBCHEM_COORDINATE_TYPE>
2
5
10

$$$$

