443069
  -OEChem-07051213012D

 33 34  0     1  0  0  0  0  0999 V2000
    4.2690   -0.0189    0.0000 O   0  0  0  0  0  0  0  0  0  0  0  0
    4.2690   -3.0189    0.0000 O   0  0  0  0  0  0  0  0  0  0  0  0
    2.5369   -2.0189    0.0000 O   0  0  0  0  0  0  0  0  0  0  0  0
    6.0010   -0.0189    0.0000 O   0  0  0  0  0  0  0  0  0  0  0  0
    6.0010   -2.0189    0.0000 O   0  0  0  0  0  0  0  0  0  0  0  0
    2.5369    0.9811    0.0000 O   0  0  0  0  0  0  0  0  0  0  0  0
    5.5010    2.5199    0.0000 O   0  0  0  0  0  0  0  0  0  0  0  0
    5.1920    1.5689    0.0000 N   0  0  0  0  0  0  0  0  0  0  0  0
    4.2690   -2.0189    0.0000 C   0  0  1  0  0  0  0  0  0  0  0  0
    3.4030   -1.5189    0.0000 C   0  0  1  0  0  0  0  0  0  0  0  0
    3.4030   -0.5189    0.0000 C   0  0  1  0  0  0  0  0  0  0  0  0
    5.1350   -1.5189    0.0000 C   0  0  2  0  0  0  0  0  0  0  0  0
    5.1350   -0.5189    0.0000 C   0  0  2  0  0  0  0  0  0  0  0  0
    2.5369   -0.0189    0.0000 C   0  0  0  0  0  0  0  0  0  0  0  0
    6.0010    0.9811    0.0000 C   0  0  0  0  0  0  0  0  0  0  0  0
    6.8100    1.5689    0.0000 C   0  0  0  0  0  0  0  0  0  0  0  0
    6.5010    2.5199    0.0000 C   0  0  0  0  0  0  0  0  0  0  0  0
    7.0888    3.3289    0.0000 C   0  0  0  0  0  0  0  0  0  0  0  0
    3.7320   -2.3289    0.0000 H   0  0  0  0  0  0  0  0  0  0  0  0
    2.8660   -1.2089    0.0000 H   0  0  0  0  0  0  0  0  0  0  0  0
    5.6720   -1.2089    0.0000 H   0  0  0  0  0  0  0  0  0  0  0  0
    3.4030    0.1011    0.0000 H   0  0  0  0  0  0  0  0  0  0  0  0
    5.1350    0.1011    0.0000 H   0  0  0  0  0  0  0  0  0  0  0  0
    1.9264    0.0887    0.0000 H   0  0  0  0  0  0  0  0  0  0  0  0
    2.3249   -0.6015    0.0000 H   0  0  0  0  0  0  0  0  0  0  0  0
    3.7320   -3.3289    0.0000 H   0  0  0  0  0  0  0  0  0  0  0  0
    2.0000   -1.7089    0.0000 H   0  0  0  0  0  0  0  0  0  0  0  0
    6.5380   -1.7089    0.0000 H   0  0  0  0  0  0  0  0  0  0  0  0
    2.0000    1.2911    0.0000 H   0  0  0  0  0  0  0  0  0  0  0  0
    7.3997    1.3773    0.0000 H   0  0  0  0  0  0  0  0  0  0  0  0
    7.5904    2.9645    0.0000 H   0  0  0  0  0  0  0  0  0  0  0  0
    7.4532    3.8305    0.0000 H   0  0  0  0  0  0  0  0  0  0  0  0
    6.5872    3.6934    0.0000 H   0  0  0  0  0  0  0  0  0  0  0  0
  1 11  1  0  0  0  0
  1 13  1  0  0  0  0
  9  2  1  1  0  0  0
  2 26  1  0  0  0  0
 10  3  1  6  0  0  0
  3 27  1  0  0  0  0
 13  4  1  6  0  0  0
  4 15  1  0  0  0  0
 12  5  1  6  0  0  0
  5 28  1  0  0  0  0
  6 14  1  0  0  0  0
  6 29  1  0  0  0  0
  7  8  1  0  0  0  0
  7 17  1  0  0  0  0
  8 15  2  0  0  0  0
  9 10  1  0  0  0  0
  9 12  1  0  0  0  0
  9 19  1  0  0  0  0
 10 11  1  0  0  0  0
 10 20  1  0  0  0  0
 11 14  1  1  0  0  0
 11 22  1  0  0  0  0
 12 13  1  0  0  0  0
 12 21  1  0  0  0  0
 13 23  1  0  0  0  0
 14 24  1  0  0  0  0
 14 25  1  0  0  0  0
 15 16  1  0  0  0  0
 16 17  2  0  0  0  0
 16 30  1  0  0  0  0
 17 18  1  0  0  0  0
 18 31  1  0  0  0  0
 18 32  1  0  0  0  0
 18 33  1  0  0  0  0
M  END
> <PUBCHEM_COMPOUND_CID>
443069

> <PUBCHEM_COMPOUND_CANONICALIZED>
1

> <PUBCHEM_CACTVS_COMPLEXITY>
279

> <PUBCHEM_CACTVS_HBOND_ACCEPTOR>
8

> <PUBCHEM_CACTVS_HBOND_DONOR>
4

> <PUBCHEM_CACTVS_ROTATABLE_BOND>
3

> <PUBCHEM_CACTVS_SUBSKEYS>
AAADccByOAAAAAAAAAAAAAAAAAAAAWAAAAAkAAAAAAAAAAABgAAAHgAECAAACBSxkgMyjJAQBgCpAKByQgCACAAkIgAgGCE2bFoVNw4EoYoqWODHIBwHYEHAYAwAAAAAAAAAAAAAAAAAAAAAAAAAAAAAAA==

> <PUBCHEM_IUPAC_OPENEYE_NAME>
(2R,3S,4S,5R,6R)-2-(hydroxymethyl)-6-(5-methylisoxazol-3-yl)oxy-tetrahydropyran-3,4,5-triol

> <PUBCHEM_IUPAC_CAS_NAME>
(2R,3S,4S,5R,6R)-2-(hydroxymethyl)-6-[(5-methyl-3-isoxazolyl)oxy]oxane-3,4,5-triol

> <PUBCHEM_IUPAC_NAME>
(2R,3S,4S,5R,6R)-2-(hydroxymethyl)-6-[(5-methyl-1,2-oxazol-3-yl)oxy]oxane-3,4,5-triol

> <PUBCHEM_IUPAC_SYSTEMATIC_NAME>
(2R,3S,4S,5R,6R)-2-(hydroxymethyl)-6-[(5-methyl-1,2-oxazol-3-yl)oxy]oxane-3,4,5-triol

> <PUBCHEM_IUPAC_TRADITIONAL_NAME>
(2R,3R,4S,5S,6R)-2-(5-methylisoxazol-3-yl)oxy-6-methylol-tetrahydropyran-3,4,5-triol

> <PUBCHEM_IUPAC_INCHI>
InChI=1S/C10H15NO7/c1-4-2-6(11-18-4)17-10-9(15)8(14)7(13)5(3-12)16-10/h2,5,7-10,12-15H,3H2,1H3/t5-,7-,8+,9-,10-/m1/s1

> <PUBCHEM_IUPAC_INCHIKEY>
MXURVUIFJOLZNZ-SVFDORGDSA-N

> <PUBCHEM_XLOGP3_AA>
-1.1

> <PUBCHEM_EXACT_MASS>
261.084852

> <PUBCHEM_MOLECULAR_FORMULA>
C10H15NO7

> <PUBCHEM_MOLECULAR_WEIGHT>
261.2286

> <PUBCHEM_OPENEYE_CAN_SMILES>
CC1=CC(=NO1)OC2C(C(C(C(O2)CO)O)O)O

> <PUBCHEM_OPENEYE_ISO_SMILES>
CC1=CC(=NO1)O[C@@H]2[C@@H]([C@H]([C@@H]([C@H](O2)CO)O)O)O

> <PUBCHEM_CACTVS_TPSA>
125

> <PUBCHEM_MONOISOTOPIC_WEIGHT>
261.084852

> <PUBCHEM_TOTAL_CHARGE>
0

> <PUBCHEM_HEAVY_ATOM_COUNT>
18

> <PUBCHEM_ATOM_DEF_STEREO_COUNT>
5

> <PUBCHEM_ATOM_UDEF_STEREO_COUNT>
0

> <PUBCHEM_BOND_DEF_STEREO_COUNT>
0

> <PUBCHEM_BOND_UDEF_STEREO_COUNT>
0

> <PUBCHEM_ISOTOPIC_ATOM_COUNT>
0

> <PUBCHEM_COMPONENT_COUNT>
1

> <PUBCHEM_CACTVS_TAUTO_COUNT>
1

> <PUBCHEM_COORDINATE_TYPE>
1
5
255

> <PUBCHEM_BONDANNOTATIONS>
11  14  5
15  16  8
16  17  8
9  2  5
10  3  6
13  4  6
12  5  6
7  17  8
7  8  8
8  15  8

$$$$

