47205157
  -OEChem-06241222582D

 40 40  0     0  0  0  0  0  0999 V2000
    4.5981    0.8100    0.0000 O   0  0  0  0  0  0  0  0  0  0  0  0
    8.0622    0.8100    0.0000 O   0  0  0  0  0  0  0  0  0  0  0  0
    5.4641   -0.6900    0.0000 N   0  0  0  0  0  0  0  0  0  0  0  0
    8.9282   -0.6900    0.0000 N   0  0  0  0  0  0  0  0  0  0  0  0
   10.6603   -0.6900    0.0000 N   0  0  0  0  0  0  0  0  0  0  0  0
    2.8660   -0.1900    0.0000 C   0  0  0  0  0  0  0  0  0  0  0  0
    3.7320   -0.6900    0.0000 C   0  0  0  0  0  0  0  0  0  0  0  0
    2.0000    0.3100    0.0000 C   0  0  0  0  0  0  0  0  0  0  0  0
    2.3660   -1.0560    0.0000 C   0  0  0  0  0  0  0  0  0  0  0  0
    3.3660    0.6760    0.0000 C   0  0  0  0  0  0  0  0  0  0  0  0
    4.5981   -0.1900    0.0000 C   0  0  0  0  0  0  0  0  0  0  0  0
    6.3301   -0.1900    0.0000 C   0  0  0  0  0  0  0  0  0  0  0  0
    7.1962   -0.6900    0.0000 C   0  0  0  0  0  0  0  0  0  0  0  0
    8.0622   -0.1900    0.0000 C   0  0  0  0  0  0  0  0  0  0  0  0
    9.7942   -0.1900    0.0000 C   0  0  0  0  0  0  0  0  0  0  0  0
    9.7942    0.8100    0.0000 C   0  0  0  0  0  0  0  0  0  0  0  0
   10.6603    1.3100    0.0000 C   0  0  0  0  0  0  0  0  0  0  0  0
   11.5263   -0.1900    0.0000 C   0  0  0  0  0  0  0  0  0  0  0  0
   11.5263    0.8100    0.0000 C   0  0  0  0  0  0  0  0  0  0  0  0
    3.3335   -1.1650    0.0000 H   0  0  0  0  0  0  0  0  0  0  0  0
    4.1306   -1.1650    0.0000 H   0  0  0  0  0  0  0  0  0  0  0  0
    2.3100    0.8469    0.0000 H   0  0  0  0  0  0  0  0  0  0  0  0
    1.4631    0.6200    0.0000 H   0  0  0  0  0  0  0  0  0  0  0  0
    3.9030    0.3660    0.0000 H   0  0  0  0  0  0  0  0  0  0  0  0
    3.6760    1.2130    0.0000 H   0  0  0  0  0  0  0  0  0  0  0  0
    2.8291    0.9860    0.0000 H   0  0  0  0  0  0  0  0  0  0  0  0
    1.8291   -0.7460    0.0000 H   0  0  0  0  0  0  0  0  0  0  0  0
    2.0560   -1.5930    0.0000 H   0  0  0  0  0  0  0  0  0  0  0  0
    2.9030   -1.3660    0.0000 H   0  0  0  0  0  0  0  0  0  0  0  0
    1.6900   -0.2269    0.0000 H   0  0  0  0  0  0  0  0  0  0  0  0
    5.4641   -1.3100    0.0000 H   0  0  0  0  0  0  0  0  0  0  0  0
    6.7287    0.2849    0.0000 H   0  0  0  0  0  0  0  0  0  0  0  0
    5.9316    0.2849    0.0000 H   0  0  0  0  0  0  0  0  0  0  0  0
    6.7976   -1.1650    0.0000 H   0  0  0  0  0  0  0  0  0  0  0  0
    7.5947   -1.1650    0.0000 H   0  0  0  0  0  0  0  0  0  0  0  0
    8.9282   -1.3100    0.0000 H   0  0  0  0  0  0  0  0  0  0  0  0
    9.2573    1.1200    0.0000 H   0  0  0  0  0  0  0  0  0  0  0  0
   10.6603    1.9300    0.0000 H   0  0  0  0  0  0  0  0  0  0  0  0
   12.0632   -0.5000    0.0000 H   0  0  0  0  0  0  0  0  0  0  0  0
   12.0632    1.1200    0.0000 H   0  0  0  0  0  0  0  0  0  0  0  0
  1 11  2  0  0  0  0
  2 14  2  0  0  0  0
  3 11  1  0  0  0  0
  3 12  1  0  0  0  0
  3 31  1  0  0  0  0
  4 14  1  0  0  0  0
  4 15  1  0  0  0  0
  4 36  1  0  0  0  0
  5 15  1  0  0  0  0
  5 18  2  0  0  0  0
  6  7  1  0  0  0  0
  6  8  1  0  0  0  0
  6  9  1  0  0  0  0
  6 10  1  0  0  0  0
  7 11  1  0  0  0  0
  7 20  1  0  0  0  0
  7 21  1  0  0  0  0
  8 22  1  0  0  0  0
  8 23  1  0  0  0  0
  8 30  1  0  0  0  0
  9 27  1  0  0  0  0
  9 28  1  0  0  0  0
  9 29  1  0  0  0  0
 10 24  1  0  0  0  0
 10 25  1  0  0  0  0
 10 26  1  0  0  0  0
 12 13  1  0  0  0  0
 12 32  1  0  0  0  0
 12 33  1  0  0  0  0
 13 14  1  0  0  0  0
 13 34  1  0  0  0  0
 13 35  1  0  0  0  0
 15 16  2  0  0  0  0
 16 17  1  0  0  0  0
 16 37  1  0  0  0  0
 17 19  2  0  0  0  0
 17 38  1  0  0  0  0
 18 19  1  0  0  0  0
 18 39  1  0  0  0  0
 19 40  1  0  0  0  0
M  END
> <PUBCHEM_COMPOUND_CID>
47205157

> <PUBCHEM_COMPOUND_CANONICALIZED>
1

> <PUBCHEM_CACTVS_COMPLEXITY>
310

> <PUBCHEM_CACTVS_HBOND_ACCEPTOR>
3

> <PUBCHEM_CACTVS_HBOND_DONOR>
2

> <PUBCHEM_CACTVS_ROTATABLE_BOND>
6

> <PUBCHEM_CACTVS_SUBSKEYS>
AAADceBzMAAAAAAAAAAAAAAAAAAAAAAAAAAsAAAAAAAAAAABgAAAHgAQAAAADgDBkgQ/sJLIEACoADN3dACCgCkxAiAJ2KE4ZJiIIPrA2ZGEIAholwLIyCYQAAAJAAAAAAAAAAAAAAAAAAAAAAAAAAAAAA==

> <PUBCHEM_IUPAC_OPENEYE_NAME>
3,3-dimethyl-N-[3-oxo-3-(2-pyridylamino)propyl]butanamide

> <PUBCHEM_IUPAC_CAS_NAME>
3,3-dimethyl-N-[3-oxo-3-(2-pyridinylamino)propyl]butanamide

> <PUBCHEM_IUPAC_NAME>
3,3-dimethyl-N-[3-oxo-3-(pyridin-2-ylamino)propyl]butanamide

> <PUBCHEM_IUPAC_SYSTEMATIC_NAME>
3,3-dimethyl-N-[3-oxidanylidene-3-(pyridin-2-ylamino)propyl]butanamide

> <PUBCHEM_IUPAC_TRADITIONAL_NAME>
N-[3-keto-3-(2-pyridylamino)propyl]-3,3-dimethyl-butyramide

> <PUBCHEM_IUPAC_INCHI>
InChI=1S/C14H21N3O2/c1-14(2,3)10-13(19)16-9-7-12(18)17-11-6-4-5-8-15-11/h4-6,8H,7,9-10H2,1-3H3,(H,16,19)(H,15,17,18)

> <PUBCHEM_IUPAC_INCHIKEY>
PGHCAVCTQJRKRB-UHFFFAOYSA-N

> <PUBCHEM_XLOGP3>
1.5

> <PUBCHEM_EXACT_MASS>
263.163377

> <PUBCHEM_MOLECULAR_FORMULA>
C14H21N3O2

> <PUBCHEM_MOLECULAR_WEIGHT>
263.33544

> <PUBCHEM_OPENEYE_CAN_SMILES>
CC(C)(C)CC(=O)NCCC(=O)NC1=CC=CC=N1

> <PUBCHEM_OPENEYE_ISO_SMILES>
CC(C)(C)CC(=O)NCCC(=O)NC1=CC=CC=N1

> <PUBCHEM_CACTVS_TPSA>
71.1

> <PUBCHEM_MONOISOTOPIC_WEIGHT>
263.163377

> <PUBCHEM_TOTAL_CHARGE>
0

> <PUBCHEM_HEAVY_ATOM_COUNT>
19

> <PUBCHEM_ATOM_DEF_STEREO_COUNT>
0

> <PUBCHEM_ATOM_UDEF_STEREO_COUNT>
0

> <PUBCHEM_BOND_DEF_STEREO_COUNT>
0

> <PUBCHEM_BOND_UDEF_STEREO_COUNT>
0

> <PUBCHEM_ISOTOPIC_ATOM_COUNT>
0

> <PUBCHEM_COMPONENT_COUNT>
1

> <PUBCHEM_CACTVS_TAUTO_COUNT>
10

> <PUBCHEM_COORDINATE_TYPE>
1
5
255

> <PUBCHEM_BONDANNOTATIONS>
15  16  8
16  17  8
17  19  8
18  19  8
5  15  8
5  18  8

$$$$

