443757
  -OEChem-07051213033D

 77 84  0     1  0  0  0  0  0999 V2000
   -1.8166    4.4366   -1.8128 O   0  0  0  0  0  0  0  0  0  0  0  0
    4.1728   -1.0855    0.8802 O   0  0  0  0  0  0  0  0  0  0  0  0
   -0.1600    5.3329   -0.5405 O   0  0  0  0  0  0  0  0  0  0  0  0
   -8.4699   -1.2832   -1.4185 O   0  0  0  0  0  0  0  0  0  0  0  0
   -7.9705   -1.0516    0.7869 O   0  0  0  0  0  0  0  0  0  0  0  0
    5.8480   -0.2146   -0.4369 O   0  0  0  0  0  0  0  0  0  0  0  0
    2.9848   -0.5647   -2.2062 O   0  0  0  0  0  0  0  0  0  0  0  0
   -2.7899   -0.0468    0.1688 N   0  0  0  0  0  0  0  0  0  0  0  0
   -5.1749   -1.2610    1.0252 N   0  0  0  0  0  0  0  0  0  0  0  0
    1.9535    0.8549    0.9642 N   0  0  0  0  0  0  0  0  0  0  0  0
    1.6610    3.3897   -0.0372 N   0  0  0  0  0  0  0  0  0  0  0  0
   -0.2473   -0.9808    1.1748 C   0  0  1  0  0  0  0  0  0  0  0  0
   -0.3880    0.4186    0.5836 C   0  0  0  0  0  0  0  0  0  0  0  0
   -1.5499   -1.4926    1.7487 C   0  0  0  0  0  0  0  0  0  0  0  0
   -2.7676   -1.0689    1.1926 C   0  0  0  0  0  0  0  0  0  0  0  0
   -1.6499    0.8393    0.0931 C   0  0  0  0  0  0  0  0  0  0  0  0
   -3.9784   -1.6300    1.6526 C   0  0  0  0  0  0  0  0  0  0  0  0
   -3.9957    0.0855   -0.6276 C   0  0  0  0  0  0  0  0  0  0  0  0
    0.7441    1.2629    0.5328 C   0  0  0  0  0  0  0  0  0  0  0  0
    0.2874   -1.9573    0.1202 C   0  0  0  0  0  0  0  0  0  0  0  0
   -5.2019   -0.4876   -0.1469 C   0  0  0  0  0  0  0  0  0  0  0  0
   -1.7526    2.1593   -0.3569 C   0  0  0  0  0  0  0  0  0  0  0  0
   -1.5529   -2.4405    2.7814 C   0  0  0  0  0  0  0  0  0  0  0  0
    0.6096    2.5574    0.0274 C   0  0  0  0  0  0  0  0  0  0  0  0
   -0.6354    2.9925   -0.3982 C   0  0  0  0  0  0  0  0  0  0  0  0
   -3.9638   -2.5676    2.6894 C   0  0  0  0  0  0  0  0  0  0  0  0
   -2.7543   -2.9650    3.2560 C   0  0  0  0  0  0  0  0  0  0  0  0
   -4.0203    0.7019   -1.8899 C   0  0  0  0  0  0  0  0  0  0  0  0
   -6.3944   -0.3486   -0.8700 C   0  0  0  0  0  0  0  0  0  0  0  0
    3.0094    1.6806    0.9009 C   0  0  0  0  0  0  0  0  0  0  0  0
    2.8607    2.9707    0.3903 C   0  0  0  0  0  0  0  0  0  0  0  0
   -5.2133    0.8284   -2.6072 C   0  0  0  0  0  0  0  0  0  0  0  0
   -6.4004    0.3190   -2.0913 C   0  0  0  0  0  0  0  0  0  0  0  0
    4.2635    1.2631    1.3419 C   0  0  0  0  0  0  0  0  0  0  0  0
   -0.8185    4.3531   -0.8939 C   0  0  0  0  0  0  0  0  0  0  0  0
    4.4516   -0.1153    1.8939 C   0  0  1  0  0  0  0  0  0  0  0  0
    3.9697    3.8127    0.3328 C   0  0  0  0  0  0  0  0  0  0  0  0
   -7.6530   -0.9131   -0.3965 C   0  0  0  0  0  0  0  0  0  0  0  0
    5.3698    2.1084    1.2822 C   0  0  0  0  0  0  0  0  0  0  0  0
    5.2221    3.3906    0.7750 C   0  0  0  0  0  0  0  0  0  0  0  0
    3.5538   -0.3916    3.1012 C   0  0  0  0  0  0  0  0  0  0  0  0
    4.9500   -1.0163   -0.2311 C   0  0  0  0  0  0  0  0  0  0  0  0
    4.5612   -2.0705   -1.2017 C   0  0  0  0  0  0  0  0  0  0  0  0
    5.1747   -3.3073   -1.1396 C   0  0  0  0  0  0  0  0  0  0  0  0
    3.5916   -1.7836   -2.1443 C   0  0  0  0  0  0  0  0  0  0  0  0
    4.8053   -4.2939   -2.0539 C   0  0  0  0  0  0  0  0  0  0  0  0
    6.2234   -3.6242   -0.1234 C   0  0  0  0  0  0  0  0  0  0  0  0
    3.2224   -2.7704   -3.0585 C   0  0  0  0  0  0  0  0  0  0  0  0
    3.8291   -4.0256   -3.0131 C   0  0  0  0  0  0  0  0  0  0  0  0
    0.4591   -0.9278    2.0109 H   0  0  0  0  0  0  0  0  0  0  0  0
    1.2616   -1.6336   -0.2560 H   0  0  0  0  0  0  0  0  0  0  0  0
    0.4134   -2.9622    0.5384 H   0  0  0  0  0  0  0  0  0  0  0  0
   -0.3893   -2.0384   -0.7387 H   0  0  0  0  0  0  0  0  0  0  0  0
   -2.7254    2.5629   -0.6227 H   0  0  0  0  0  0  0  0  0  0  0  0
   -0.6165   -2.7825    3.2151 H   0  0  0  0  0  0  0  0  0  0  0  0
   -6.0397   -1.6273    1.3983 H   0  0  0  0  0  0  0  0  0  0  0  0
   -4.8911   -3.0033    3.0524 H   0  0  0  0  0  0  0  0  0  0  0  0
   -2.7462   -3.6993    4.0564 H   0  0  0  0  0  0  0  0  0  0  0  0
   -3.1133    1.0768   -2.3556 H   0  0  0  0  0  0  0  0  0  0  0  0
   -5.2108    1.3229   -3.5746 H   0  0  0  0  0  0  0  0  0  0  0  0
   -7.3095    0.4514   -2.6719 H   0  0  0  0  0  0  0  0  0  0  0  0
    5.4880   -0.2646    2.2261 H   0  0  0  0  0  0  0  0  0  0  0  0
    3.8648    4.8208   -0.0631 H   0  0  0  0  0  0  0  0  0  0  0  0
    6.3469    1.7842    1.6288 H   0  0  0  0  0  0  0  0  0  0  0  0
    6.0740    4.0614    0.7227 H   0  0  0  0  0  0  0  0  0  0  0  0
    2.5049   -0.5405    2.8431 H   0  0  0  0  0  0  0  0  0  0  0  0
    3.6282    0.4025    3.8513 H   0  0  0  0  0  0  0  0  0  0  0  0
    3.8659   -1.3313    3.5728 H   0  0  0  0  0  0  0  0  0  0  0  0
   -1.9347    5.3531   -2.1420 H   0  0  0  0  0  0  0  0  0  0  0  0
   -9.3146   -1.6611   -1.0926 H   0  0  0  0  0  0  0  0  0  0  0  0
    5.2673   -5.2774   -2.0329 H   0  0  0  0  0  0  0  0  0  0  0  0
    7.0760   -2.9450   -0.2268 H   0  0  0  0  0  0  0  0  0  0  0  0
    5.8142   -3.5406    0.8889 H   0  0  0  0  0  0  0  0  0  0  0  0
    6.6060   -4.6444   -0.2366 H   0  0  0  0  0  0  0  0  0  0  0  0
    2.4619   -2.5681   -3.8080 H   0  0  0  0  0  0  0  0  0  0  0  0
    3.5410   -4.7939   -3.7248 H   0  0  0  0  0  0  0  0  0  0  0  0
    3.3360    0.0256   -1.5206 H   0  0  0  0  0  0  0  0  0  0  0  0
  1 35  1  0  0  0  0
  1 69  1  0  0  0  0
  2 36  1  0  0  0  0
  2 42  1  0  0  0  0
  3 35  2  0  0  0  0
  4 38  1  0  0  0  0
  4 70  1  0  0  0  0
  5 38  2  0  0  0  0
  6 42  2  0  0  0  0
  7 45  1  0  0  0  0
  7 77  1  0  0  0  0
  8 15  1  0  0  0  0
  8 16  1  0  0  0  0
  8 18  1  0  0  0  0
  9 17  1  0  0  0  0
  9 21  1  0  0  0  0
  9 56  1  0  0  0  0
 10 19  2  0  0  0  0
 10 30  1  0  0  0  0
 11 24  2  0  0  0  0
 11 31  1  0  0  0  0
 12 13  1  0  0  0  0
 12 14  1  0  0  0  0
 12 20  1  0  0  0  0
 12 50  1  0  0  0  0
 13 16  2  0  0  0  0
 13 19  1  0  0  0  0
 14 15  2  0  0  0  0
 14 23  1  0  0  0  0
 15 17  1  0  0  0  0
 16 22  1  0  0  0  0
 17 26  2  0  0  0  0
 18 21  1  0  0  0  0
 18 28  2  0  0  0  0
 19 24  1  0  0  0  0
 20 51  1  0  0  0  0
 20 52  1  0  0  0  0
 20 53  1  0  0  0  0
 21 29  2  0  0  0  0
 22 25  2  0  0  0  0
 22 54  1  0  0  0  0
 23 27  2  0  0  0  0
 23 55  1  0  0  0  0
 24 25  1  0  0  0  0
 25 35  1  0  0  0  0
 26 27  1  0  0  0  0
 26 57  1  0  0  0  0
 27 58  1  0  0  0  0
 28 32  1  0  0  0  0
 28 59  1  0  0  0  0
 29 33  1  0  0  0  0
 29 38  1  0  0  0  0
 30 31  1  0  0  0  0
 30 34  2  0  0  0  0
 31 37  2  0  0  0  0
 32 33  2  0  0  0  0
 32 60  1  0  0  0  0
 33 61  1  0  0  0  0
 34 36  1  0  0  0  0
 34 39  1  0  0  0  0
 36 41  1  0  0  0  0
 36 62  1  0  0  0  0
 37 40  1  0  0  0  0
 37 63  1  0  0  0  0
 39 40  2  0  0  0  0
 39 64  1  0  0  0  0
 40 65  1  0  0  0  0
 41 66  1  0  0  0  0
 41 67  1  0  0  0  0
 41 68  1  0  0  0  0
 42 43  1  0  0  0  0
 43 44  2  0  0  0  0
 43 45  1  0  0  0  0
 44 46  1  0  0  0  0
 44 47  1  0  0  0  0
 45 48  2  0  0  0  0
 46 49  2  0  0  0  0
 46 71  1  0  0  0  0
 47 72  1  0  0  0  0
 47 73  1  0  0  0  0
 47 74  1  0  0  0  0
 48 49  1  0  0  0  0
 48 75  1  0  0  0  0
 49 76  1  0  0  0  0
M  END
> <PUBCHEM_COMPOUND_CID>
443757

> <PUBCHEM_CONFORMER_RMSD>
1

> <PUBCHEM_CONFORMER_DIVERSEORDER>
2
5
57
24
44
62
69
34
31
48
76
70
38
55
54
19
42
20
71
47
75
79
36
61
60
9
64
18
81
13
45
14
29
37
23
11
50
32
58
28
10
8
72
21
59
17
4
15
7
33
41
77
16
49
74
40
68
66
35
53
78
65
43
73
1
22
63
39
67
25
12
27
80
30
26
51
46
52
3
56
6

> <PUBCHEM_MMFF94_PARTIAL_CHARGES>
64
1 -0.65
10 -0.62
11 -0.62
12 0.29
13 -0.14
14 -0.14
15 0.1
16 0.1
17 0.1
18 0.1
19 0.31
2 -0.43
21 0.1
22 -0.15
23 -0.15
24 0.31
25 0.09
26 -0.15
27 -0.15
28 -0.15
29 0.09
3 -0.57
30 0.31
31 0.31
32 -0.15
33 -0.15
34 -0.14
35 0.63
36 0.42
37 -0.15
38 0.63
39 -0.15
4 -0.65
40 -0.15
42 0.63
43 0.09
44 -0.14
45 0.08
46 -0.15
47 0.14
48 -0.15
49 -0.15
5 -0.57
54 0.15
55 0.15
56 0.4
57 0.15
58 0.15
59 0.15
6 -0.57
60 0.15
61 0.15
63 0.15
64 0.15
65 0.15
69 0.5
7 -0.53
70 0.5
71 0.15
75 0.15
76 0.15
77 0.45
8 -0.3
9 -0.6

> <PUBCHEM_EFFECTIVE_ROTOR_COUNT>
6.4

> <PUBCHEM_PHARMACOPHORE_FEATURES>
21
1 1 acceptor
1 10 acceptor
1 11 acceptor
1 3 acceptor
1 4 acceptor
1 5 acceptor
1 6 acceptor
1 7 donor
1 8 cation
1 9 cation
1 9 donor
3 1 3 35 anion
3 4 5 38 anion
6 10 11 19 24 30 31 rings
6 13 16 19 22 24 25 rings
6 14 15 17 23 26 27 rings
6 18 21 28 29 32 33 rings
6 30 31 34 37 39 40 rings
6 43 44 45 46 48 49 rings
6 8 12 13 14 15 16 rings
6 8 9 15 17 18 21 rings

> <PUBCHEM_HEAVY_ATOM_COUNT>
49

> <PUBCHEM_ATOM_DEF_STEREO_COUNT>
0

> <PUBCHEM_ATOM_UDEF_STEREO_COUNT>
2

> <PUBCHEM_BOND_DEF_STEREO_COUNT>
0

> <PUBCHEM_BOND_UDEF_STEREO_COUNT>
0

> <PUBCHEM_ISOTOPIC_ATOM_COUNT>
0

> <PUBCHEM_COMPONENT_COUNT>
1

> <PUBCHEM_CACTVS_TAUTO_COUNT>
26

> <PUBCHEM_CONFORMER_ID>
0006C56D00000002

> <PUBCHEM_MMFF94_ENERGY>
196.0859

> <PUBCHEM_FEATURE_SELFOVERLAP>
106.886

> <PUBCHEM_SHAPE_FINGERPRINT>
10462674 369 16485260865332873833
10974685 15 17843691211930044212
117089 54 18262796410465883006
11828532 37 18201712938457627690
12202916 173 18267890348905168400
13560911 43 18188496903729621198
1361 2 18114188510235596782
13751561 76 18341047437037607550
13811026 1 18272380771134908104
140371 6 18270679749443984745
15328829 1 16515682230159182423
15361156 5 18262787601198042300
16067689 134 17908149025079732677
19301679 30 18259704506364525117
19315092 285 16733272334543818506
21057603 40 18040723562678858295
21781051 124 16845283909808992499
23559900 14 18130774651424654950
24771750 20 17625814964056155213
25223398 141 16557087733458920564
3044373 193 18408888412546867655
404807 14 17318431460636693415
4066623 53 18343299309791812852
4093350 32 18187088317021127737
4403749 210 17614008383223442312
4435113 14 18411134761951966124
508706 21 18197773504327163058

> <PUBCHEM_SHAPE_MULTIPOLES>
947.39
17.35
5.87
2.99
19.99
3.64
-0.23
-10.52
4.95
-8.2
2.25
0.33
-3.08
6.81

> <PUBCHEM_SHAPE_SELFOVERLAP>
2169.198

> <PUBCHEM_SHAPE_VOLUME>
484.3

> <PUBCHEM_COORDINATE_TYPE>
2
5
10

$$$$

