129417
  -OEChem-07051212492D

 30 29  0     1  0  0  0  0  0999 V2000
    3.4030    1.1830    0.0000 P   0  0  0  0  0  0  0  0  0  0  0  0
    5.9030   -1.4151    0.0000 O   0  0  0  0  0  0  0  0  0  0  0  0
    6.2690    0.9510    0.0000 O   0  0  0  0  0  0  0  0  0  0  0  0
    3.9030    0.3170    0.0000 O   0  0  0  0  0  0  0  0  0  0  0  0
    7.1350   -1.5490    0.0000 O   0  0  0  0  0  0  0  0  0  0  0  0
    8.8671   -0.5490    0.0000 O   0  0  0  0  0  0  0  0  0  0  0  0
    3.6709   -0.5490    0.0000 O   0  0  0  0  0  0  0  0  0  0  0  0
    4.5369   -2.0490    0.0000 O   0  0  0  0  0  0  0  0  0  0  0  0
    2.9030    2.0490    0.0000 O   0  0  0  0  0  0  0  0  0  0  0  0
    2.5369    0.6830    0.0000 O   0  0  0  0  0  0  0  0  0  0  0  0
    4.2690    1.6830    0.0000 O   0  0  0  0  0  0  0  0  0  0  0  0
    5.4030   -0.5490    0.0000 C   0  0  1  0  0  0  0  0  0  0  0  0
    6.2690   -0.0490    0.0000 C   0  0  1  0  0  0  0  0  0  0  0  0
    7.1350   -0.5490    0.0000 C   0  0  1  0  0  0  0  0  0  0  0  0
    4.9030    0.3170    0.0000 C   0  0  0  0  0  0  0  0  0  0  0  0
    8.0010   -0.0490    0.0000 C   0  0  0  0  0  0  0  0  0  0  0  0
    4.5369   -1.0490    0.0000 C   0  0  0  0  0  0  0  0  0  0  0  0
    6.8059    0.2610    0.0000 H   0  0  0  0  0  0  0  0  0  0  0  0
    7.6720   -0.8590    0.0000 H   0  0  0  0  0  0  0  0  0  0  0  0
    5.4856    0.5290    0.0000 H   0  0  0  0  0  0  0  0  0  0  0  0
    4.7953    0.9276    0.0000 H   0  0  0  0  0  0  0  0  0  0  0  0
    8.3996    0.4259    0.0000 H   0  0  0  0  0  0  0  0  0  0  0  0
    7.6025    0.4259    0.0000 H   0  0  0  0  0  0  0  0  0  0  0  0
    5.5930   -1.9520    0.0000 H   0  0  0  0  0  0  0  0  0  0  0  0
    6.8059    1.2610    0.0000 H   0  0  0  0  0  0  0  0  0  0  0  0
    7.6720   -1.8590    0.0000 H   0  0  0  0  0  0  0  0  0  0  0  0
    9.4040   -0.2390    0.0000 H   0  0  0  0  0  0  0  0  0  0  0  0
    3.1340   -0.8590    0.0000 H   0  0  0  0  0  0  0  0  0  0  0  0
    2.2830    2.0490    0.0000 H   0  0  0  0  0  0  0  0  0  0  0  0
    2.0000    0.9930    0.0000 H   0  0  0  0  0  0  0  0  0  0  0  0
  1  4  1  0  0  0  0
  1  9  1  0  0  0  0
  1 10  1  0  0  0  0
  1 11  2  0  0  0  0
 12  2  1  6  0  0  0
  2 24  1  0  0  0  0
 13  3  1  6  0  0  0
  3 25  1  0  0  0  0
  4 15  1  0  0  0  0
 14  5  1  1  0  0  0
  5 26  1  0  0  0  0
  6 16  1  0  0  0  0
  6 27  1  0  0  0  0
  7 17  1  0  0  0  0
  7 28  1  0  0  0  0
  8 17  2  0  0  0  0
  9 29  1  0  0  0  0
 10 30  1  0  0  0  0
 12 13  1  0  0  0  0
 12 15  1  0  0  0  0
 12 17  1  0  0  0  0
 13 14  1  0  0  0  0
 13 18  1  0  0  0  0
 14 16  1  0  0  0  0
 14 19  1  0  0  0  0
 15 20  1  0  0  0  0
 15 21  1  0  0  0  0
 16 22  1  0  0  0  0
 16 23  1  0  0  0  0
M  END
> <PUBCHEM_COMPOUND_CID>
129417

> <PUBCHEM_COMPOUND_CANONICALIZED>
1

> <PUBCHEM_CACTVS_COMPLEXITY>
312

> <PUBCHEM_CACTVS_HBOND_ACCEPTOR>
10

> <PUBCHEM_CACTVS_HBOND_DONOR>
7

> <PUBCHEM_CACTVS_ROTATABLE_BOND>
7

> <PUBCHEM_CACTVS_SUBSKEYS>
AAADccBgPAIAAAAAAAAAAAAAAAAAAAAAAAAAAAAAAAAAAAAAAAAAGgAACCAADFSggAIACAAAAxAIQACQCIIAAAAAAAAAAAFAAAABEBYAAAAAQAAFIAABAADKJAAMAAAAAAAAAAAAAAAAAAAAAAAAAAAAAA==

> <PUBCHEM_IUPAC_OPENEYE_NAME>
(2R,3R,4R)-2,3,4,5-tetrahydroxy-2-(phosphonooxymethyl)pentanoic acid

> <PUBCHEM_IUPAC_CAS_NAME>
(2R,3R,4R)-2,3,4,5-tetrahydroxy-2-(phosphonooxymethyl)pentanoic acid

> <PUBCHEM_IUPAC_NAME>
(2R,3R,4R)-2,3,4,5-tetrahydroxy-2-(phosphonooxymethyl)pentanoic acid

> <PUBCHEM_IUPAC_SYSTEMATIC_NAME>
(2R,3R,4R)-2,3,4,5-tetrakis(oxidanyl)-2-(phosphonooxymethyl)pentanoic acid

> <PUBCHEM_IUPAC_TRADITIONAL_NAME>
(2R,3R,4R)-2,3,4,5-tetrahydroxy-2-(phosphonooxymethyl)valeric acid

> <PUBCHEM_IUPAC_INCHI>
InChI=1S/C6H13O10P/c7-1-3(8)4(9)6(12,5(10)11)2-16-17(13,14)15/h3-4,7-9,12H,1-2H2,(H,10,11)(H2,13,14,15)/t3-,4-,6-/m1/s1

> <PUBCHEM_IUPAC_INCHIKEY>
UJTMIRNFEXKGMS-ZMIZWQJLSA-N

> <PUBCHEM_XLOGP3_AA>
-4.7

> <PUBCHEM_EXACT_MASS>
276.024633

> <PUBCHEM_MOLECULAR_FORMULA>
C6H13O10P

> <PUBCHEM_MOLECULAR_WEIGHT>
276.135182

> <PUBCHEM_OPENEYE_CAN_SMILES>
C(C(C(C(COP(=O)(O)O)(C(=O)O)O)O)O)O

> <PUBCHEM_OPENEYE_ISO_SMILES>
C([C@H]([C@H]([C@](COP(=O)(O)O)(C(=O)O)O)O)O)O

> <PUBCHEM_CACTVS_TPSA>
185

> <PUBCHEM_MONOISOTOPIC_WEIGHT>
276.024633

> <PUBCHEM_TOTAL_CHARGE>
0

> <PUBCHEM_HEAVY_ATOM_COUNT>
17

> <PUBCHEM_ATOM_DEF_STEREO_COUNT>
3

> <PUBCHEM_ATOM_UDEF_STEREO_COUNT>
0

> <PUBCHEM_BOND_DEF_STEREO_COUNT>
0

> <PUBCHEM_BOND_UDEF_STEREO_COUNT>
0

> <PUBCHEM_ISOTOPIC_ATOM_COUNT>
0

> <PUBCHEM_COMPONENT_COUNT>
1

> <PUBCHEM_CACTVS_TAUTO_COUNT>
1

> <PUBCHEM_COORDINATE_TYPE>
1
5
255

> <PUBCHEM_BONDANNOTATIONS>
12  2  6
13  3  6
14  5  5

$$$$

