11445
  -OEChem-06261205413D

 30 31  0     0  0  0  0  0  0999 V2000
   -0.3184    0.0094    0.5392 N   0  0  0  0  0  0  0  0  0  0  0  0
    0.3179   -0.0098   -0.5399 N   0  0  0  0  0  0  0  0  0  0  0  0
   -2.4785    1.0255    0.0836 C   0  0  0  0  0  0  0  0  0  0  0  0
    2.4781   -1.0255   -0.0837 C   0  0  0  0  0  0  0  0  0  0  0  0
   -1.6907   -0.1076    0.2861 C   0  0  0  0  0  0  0  0  0  0  0  0
    1.6950    0.1079   -0.2854 C   0  0  0  0  0  0  0  0  0  0  0  0
   -3.8439    0.8898   -0.1673 C   0  0  0  0  0  0  0  0  0  0  0  0
    3.8434   -0.8897    0.1676 C   0  0  0  0  0  0  0  0  0  0  0  0
   -2.2683   -1.3764    0.2375 C   0  0  0  0  0  0  0  0  0  0  0  0
    2.2674    1.3762   -0.2377 C   0  0  0  0  0  0  0  0  0  0  0  0
   -1.8831    2.3946    0.1308 C   0  0  0  0  0  0  0  0  0  0  0  0
    1.8828   -2.3948   -0.1310 C   0  0  0  0  0  0  0  0  0  0  0  0
   -4.4215   -0.3790   -0.2159 C   0  0  0  0  0  0  0  0  0  0  0  0
    4.4207    0.3792    0.2162 C   0  0  0  0  0  0  0  0  0  0  0  0
   -3.6337   -1.5120   -0.0135 C   0  0  0  0  0  0  0  0  0  0  0  0
    3.6328    1.5122    0.0135 C   0  0  0  0  0  0  0  0  0  0  0  0
   -4.4717    1.7621   -0.3286 H   0  0  0  0  0  0  0  0  0  0  0  0
    4.4714   -1.7619    0.3290 H   0  0  0  0  0  0  0  0  0  0  0  0
   -1.6635   -2.2659    0.3945 H   0  0  0  0  0  0  0  0  0  0  0  0
    1.6619    2.2649   -0.3950 H   0  0  0  0  0  0  0  0  0  0  0  0
   -1.3082    2.5360    1.0522 H   0  0  0  0  0  0  0  0  0  0  0  0
   -1.2279    2.5544   -0.7316 H   0  0  0  0  0  0  0  0  0  0  0  0
   -2.6533    3.1733    0.1121 H   0  0  0  0  0  0  0  0  0  0  0  0
    2.6533   -3.1734   -0.1130 H   0  0  0  0  0  0  0  0  0  0  0  0
    1.2280   -2.5549    0.7316 H   0  0  0  0  0  0  0  0  0  0  0  0
    1.3076   -2.5359   -1.0522 H   0  0  0  0  0  0  0  0  0  0  0  0
   -5.4845   -0.4848   -0.4117 H   0  0  0  0  0  0  0  0  0  0  0  0
    5.4837    0.4852    0.4121 H   0  0  0  0  0  0  0  0  0  0  0  0
   -4.0835   -2.4999   -0.0514 H   0  0  0  0  0  0  0  0  0  0  0  0
    4.0823    2.5002    0.0514 H   0  0  0  0  0  0  0  0  0  0  0  0
  1  2  2  0  0  0  0
  1  5  1  0  0  0  0
  2  6  1  0  0  0  0
  3  5  1  0  0  0  0
  3  7  2  0  0  0  0
  3 11  1  0  0  0  0
  4  6  1  0  0  0  0
  4  8  2  0  0  0  0
  4 12  1  0  0  0  0
  5  9  2  0  0  0  0
  6 10  2  0  0  0  0
  7 13  1  0  0  0  0
  7 17  1  0  0  0  0
  8 14  1  0  0  0  0
  8 18  1  0  0  0  0
  9 15  1  0  0  0  0
  9 19  1  0  0  0  0
 10 16  1  0  0  0  0
 10 20  1  0  0  0  0
 11 21  1  0  0  0  0
 11 22  1  0  0  0  0
 11 23  1  0  0  0  0
 12 24  1  0  0  0  0
 12 25  1  0  0  0  0
 12 26  1  0  0  0  0
 13 15  2  0  0  0  0
 13 27  1  0  0  0  0
 14 16  2  0  0  0  0
 14 28  1  0  0  0  0
 15 29  1  0  0  0  0
 16 30  1  0  0  0  0
M  END
> <PUBCHEM_COMPOUND_CID>
11445

> <PUBCHEM_CONFORMER_RMSD>
0.6

> <PUBCHEM_CONFORMER_DIVERSEORDER>
1
2
5
4
6
3

> <PUBCHEM_MMFF94_PARTIAL_CHARGES>
24
1 -0.18
10 -0.15
11 0.14
12 0.14
13 -0.15
14 -0.15
15 -0.15
16 -0.15
17 0.15
18 0.15
19 0.15
2 -0.18
20 0.15
27 0.15
28 0.15
29 0.15
3 -0.14
30 0.15
4 -0.14
5 0.18
6 0.18
7 -0.15
8 -0.15
9 -0.15

> <PUBCHEM_EFFECTIVE_ROTOR_COUNT>
2

> <PUBCHEM_PHARMACOPHORE_FEATURES>
2
6 3 5 7 9 13 15 rings
6 4 6 8 10 14 16 rings

> <PUBCHEM_HEAVY_ATOM_COUNT>
16

> <PUBCHEM_ATOM_DEF_STEREO_COUNT>
0

> <PUBCHEM_ATOM_UDEF_STEREO_COUNT>
0

> <PUBCHEM_BOND_DEF_STEREO_COUNT>
0

> <PUBCHEM_BOND_UDEF_STEREO_COUNT>
0

> <PUBCHEM_ISOTOPIC_ATOM_COUNT>
0

> <PUBCHEM_COMPONENT_COUNT>
1

> <PUBCHEM_CACTVS_TAUTO_COUNT>
1

> <PUBCHEM_CONFORMER_ID>
00002CB500000001

> <PUBCHEM_MMFF94_ENERGY>
44.3149

> <PUBCHEM_FEATURE_SELFOVERLAP>
10.149

> <PUBCHEM_SHAPE_FINGERPRINT>
10366900 7 18334857186441243152
10608611 8 18411139168519813740
10616163 171 18408884010221388999
11370993 70 18411985753813441730
11615757 297 17458339710901931584
12107183 9 17763747993690816472
13167823 11 18410858758695057418
14144814 61 18411134779041845978
14289901 80 18408885148181403171
14415576 193 18412822478294018820
15196674 1 18411136935104872453
15375358 24 18343302552418579683
15375462 6 18409166614578774029
15442244 35 18122625221700357194
15536298 74 18408602591142225286
17492 89 18410574032660822955
17802600 8 18409172107968857880
17834074 16 18410011052404415735
18186145 218 18337102470699843358
19050596 39 18409728465046915257
200 152 18260270733113554031
20279233 1 18343858913860390475
20510252 161 18335137639627395481
20645477 56 18272651307373682837
20645477 70 18335701675828046294
21267235 1 18411128139033261063
221490 88 18411128148013839170
23402539 116 18408893936280602749
23402655 69 18410856581146495636
23557571 272 18187355554139281125
23559900 14 18263649618224235906
26918003 58 18202004296058477987
2871803 45 18411702084134543782
351380 180 18411422799749279720
3545911 37 18411698798531931149
4028521 119 18202008758872467933
4214541 1 18411138077613866821
474 4 17703504381610927164
5104073 3 18410855473034170153
5374978 207 18410577270896508353
69090 78 18411421713201830919
7364860 26 18335418032230285646
77779 3 18410854360616534021
93112 12 18411135878611560935
9709674 26 18410568504895182863

> <PUBCHEM_SHAPE_MULTIPOLES>
319.31
9.02
2.14
0.67
0.01
0
0
0
0
0
0
0
0
0

> <PUBCHEM_SHAPE_SELFOVERLAP>
684.176

> <PUBCHEM_SHAPE_VOLUME>
178.2

> <PUBCHEM_COORDINATE_TYPE>
2
5
10

$$$$

