441571
  -OEChem-07051212553D

 34 33  0     1  0  0  0  0  0999 V2000
    1.1746   -2.3935   -1.3019 O   0  0  0  0  0  0  0  0  0  0  0  0
   -3.0288    0.3570    2.2425 O   0  0  0  0  0  0  0  0  0  0  0  0
    2.1679   -2.1328    0.7214 O   0  0  0  0  0  0  0  0  0  0  0  0
   -2.0398   -1.5821    1.6045 O   0  0  0  0  0  0  0  0  0  0  0  0
   -5.5846    0.5272   -1.5878 O   0  0  0  0  0  0  0  0  0  0  0  0
   -4.6973    1.6694    0.1688 O   0  0  0  0  0  0  0  0  0  0  0  0
    4.7714    2.0512    0.7652 O   0  0  0  0  0  0  0  0  0  0  0  0
   -0.9804   -0.2723   -0.5689 N   0  0  0  0  0  0  0  0  0  0  0  0
    2.6177    0.5067    0.1124 N   0  0  0  0  0  0  0  0  0  0  0  0
    6.1786    0.5859   -0.3076 N   0  0  0  0  0  0  0  0  0  0  0  0
    1.4814   -0.1536   -0.5288 C   0  0  2  0  0  0  0  0  0  0  0  0
    0.1635    0.3963    0.0308 C   0  0  0  0  0  0  0  0  0  0  0  0
   -2.2311    0.2394   -0.0087 C   0  0  1  0  0  0  0  0  0  0  0  0
   -3.3878   -0.0474   -0.9742 C   0  0  0  0  0  0  0  0  0  0  0  0
    1.6556   -1.6416   -0.2756 C   0  0  0  0  0  0  0  0  0  0  0  0
    3.8068    0.4100   -0.7198 C   0  0  0  0  0  0  0  0  0  0  0  0
   -2.4133   -0.4480    1.3352 C   0  0  0  0  0  0  0  0  0  0  0  0
   -4.5950    0.8221   -0.7054 C   0  0  0  0  0  0  0  0  0  0  0  0
    4.9405    1.1061   -0.0022 C   0  0  0  0  0  0  0  0  0  0  0  0
    1.5055    0.0297   -1.6117 H   0  0  0  0  0  0  0  0  0  0  0  0
    0.1565    0.2563    1.1195 H   0  0  0  0  0  0  0  0  0  0  0  0
    0.1141    1.4755   -0.1648 H   0  0  0  0  0  0  0  0  0  0  0  0
   -2.1479    1.3225    0.1500 H   0  0  0  0  0  0  0  0  0  0  0  0
   -0.9575   -0.1143   -1.5762 H   0  0  0  0  0  0  0  0  0  0  0  0
   -3.0819    0.1639   -2.0065 H   0  0  0  0  0  0  0  0  0  0  0  0
   -3.6971   -1.0970   -0.9033 H   0  0  0  0  0  0  0  0  0  0  0  0
    2.3993    1.4934    0.2541 H   0  0  0  0  0  0  0  0  0  0  0  0
    4.0827   -0.6345   -0.9027 H   0  0  0  0  0  0  0  0  0  0  0  0
    3.6677    0.9128   -1.6838 H   0  0  0  0  0  0  0  0  0  0  0  0
    1.2902   -3.3534   -1.1363 H   0  0  0  0  0  0  0  0  0  0  0  0
   -3.1343   -0.0864    3.1112 H   0  0  0  0  0  0  0  0  0  0  0  0
   -6.3840    1.0754   -1.4370 H   0  0  0  0  0  0  0  0  0  0  0  0
    6.3014   -0.1873   -0.9536 H   0  0  0  0  0  0  0  0  0  0  0  0
    7.0213    0.9696    0.1072 H   0  0  0  0  0  0  0  0  0  0  0  0
  1 15  1  0  0  0  0
  1 30  1  0  0  0  0
  2 17  1  0  0  0  0
  2 31  1  0  0  0  0
  3 15  2  0  0  0  0
  4 17  2  0  0  0  0
  5 18  1  0  0  0  0
  5 32  1  0  0  0  0
  6 18  2  0  0  0  0
  7 19  2  0  0  0  0
  8 12  1  0  0  0  0
  8 13  1  0  0  0  0
  8 24  1  0  0  0  0
  9 11  1  0  0  0  0
  9 16  1  0  0  0  0
  9 27  1  0  0  0  0
 10 19  1  0  0  0  0
 10 33  1  0  0  0  0
 10 34  1  0  0  0  0
 11 12  1  0  0  0  0
 11 15  1  0  0  0  0
 11 20  1  0  0  0  0
 12 21  1  0  0  0  0
 12 22  1  0  0  0  0
 13 14  1  0  0  0  0
 13 17  1  0  0  0  0
 13 23  1  0  0  0  0
 14 18  1  0  0  0  0
 14 25  1  0  0  0  0
 14 26  1  0  0  0  0
 16 19  1  0  0  0  0
 16 28  1  0  0  0  0
 16 29  1  0  0  0  0
M  END
> <PUBCHEM_COMPOUND_CID>
441571

> <PUBCHEM_CONFORMER_RMSD>
0.8

> <PUBCHEM_CONFORMER_DIVERSEORDER>
1
17
16
27
10
18
29
19
12
9
8
21
11
25
15
26
7
23
14
20
13
22
24
4
28
3
2
6
5

> <PUBCHEM_MMFF94_PARTIAL_CHARGES>
26
1 -0.65
10 -0.8
11 0.33
12 0.27
13 0.33
14 0.06
15 0.66
16 0.33
17 0.66
18 0.66
19 0.57
2 -0.65
24 0.36
27 0.36
3 -0.57
30 0.5
31 0.5
32 0.5
33 0.37
34 0.37
4 -0.57
5 -0.65
6 -0.57
7 -0.57
8 -0.9
9 -0.9

> <PUBCHEM_EFFECTIVE_ROTOR_COUNT>
10

> <PUBCHEM_PHARMACOPHORE_FEATURES>
15
1 1 acceptor
1 10 donor
1 2 acceptor
1 3 acceptor
1 4 acceptor
1 5 acceptor
1 6 acceptor
1 7 acceptor
1 8 cation
1 8 donor
1 9 cation
1 9 donor
3 1 3 15 anion
3 2 4 17 anion
3 5 6 18 anion

> <PUBCHEM_HEAVY_ATOM_COUNT>
19

> <PUBCHEM_ATOM_DEF_STEREO_COUNT>
1

> <PUBCHEM_ATOM_UDEF_STEREO_COUNT>
1

> <PUBCHEM_BOND_DEF_STEREO_COUNT>
0

> <PUBCHEM_BOND_UDEF_STEREO_COUNT>
0

> <PUBCHEM_ISOTOPIC_ATOM_COUNT>
0

> <PUBCHEM_COMPONENT_COUNT>
1

> <PUBCHEM_CACTVS_TAUTO_COUNT>
2

> <PUBCHEM_CONFORMER_ID>
0006BCE300000001

> <PUBCHEM_MMFF94_ENERGY>
23.6367

> <PUBCHEM_FEATURE_SELFOVERLAP>
76.292

> <PUBCHEM_SHAPE_FINGERPRINT>
10366900 7 18408889537680645448
11089746 13 18259706705245050424
12403259 118 17845092866275445348
12500047 106 17989205915161993795
12633257 1 16702023049950758084
13631057 29 17823426994156356439
13675066 3 13398634956625740373
14251718 22 14562530674142095708
14251757 5 16444204014424823839
14251764 30 8286214859257807288
14350574 20 6771861891856243485
14528608 73 18186526492285970724
15375358 24 18131631196815468325
17834072 33 17240486905159686060
17980427 23 16415191218277701654
19784866 170 17918273160326843676
200 152 17603587430762560213
20279233 1 17989198261567227811
204376 136 18335415721611486638
20645477 56 17346882256170860901
20645477 70 18337392763376756142
21618674 25 18272937141261949459
2297311 6 4823216134637410901
23402539 116 17489597735890154679
23557571 272 17774705503066289491
23559900 14 17631721794455848350
23622692 88 14045743729208196611
4072396 5 18271822232635262360
633830 44 17677587853293763436

> <PUBCHEM_SHAPE_MULTIPOLES>
334.98
12.26
1.8
1.4
4.36
0.81
-0.48
-7.42
1.72
1.19
-0.09
-1.65
0.25
0.91

> <PUBCHEM_SHAPE_SELFOVERLAP>
658.11

> <PUBCHEM_SHAPE_VOLUME>
197.9

> <PUBCHEM_COORDINATE_TYPE>
2
5
10

$$$$

