17395805
  -OEChem-06241222523D

 46 48  0     0  0  0  0  0  0999 V2000
    8.0330    0.4185    0.1300 Cl  0  0  0  0  0  0  0  0  0  0  0  0
    1.0150    2.2027   -0.3520 O   0  0  0  0  0  0  0  0  0  0  0  0
   -3.5854    0.1190   -0.0804 N   0  0  0  0  0  0  0  0  0  0  0  0
   -0.7546    0.7001   -0.2479 N   0  0  0  0  0  0  0  0  0  0  0  0
    2.8922    0.5132   -0.0578 N   0  0  0  0  0  0  0  0  0  0  0  0
   -2.6582   -0.8567   -0.6590 C   0  0  0  0  0  0  0  0  0  0  0  0
   -3.0514    1.4186    0.3365 C   0  0  0  0  0  0  0  0  0  0  0  0
   -1.2505   -0.6693   -0.0930 C   0  0  0  0  0  0  0  0  0  0  0  0
   -1.7647    1.7410   -0.4202 C   0  0  0  0  0  0  0  0  0  0  0  0
   -4.9444   -0.1623    0.0379 C   0  0  0  0  0  0  0  0  0  0  0  0
    0.5963    1.0491   -0.2300 C   0  0  0  0  0  0  0  0  0  0  0  0
    1.5757   -0.0854   -0.0539 C   0  0  0  0  0  0  0  0  0  0  0  0
   -5.6941    0.4337    1.0520 C   0  0  0  0  0  0  0  0  0  0  0  0
   -5.5554   -1.0402   -0.8575 C   0  0  0  0  0  0  0  0  0  0  0  0
    4.0655   -0.2145    0.0432 C   0  0  0  0  0  0  0  0  0  0  0  0
   -7.0552    0.1520    1.1706 C   0  0  0  0  0  0  0  0  0  0  0  0
   -6.9165   -1.3219   -0.7387 C   0  0  0  0  0  0  0  0  0  0  0  0
   -7.6666   -0.7256    0.2751 C   0  0  0  0  0  0  0  0  0  0  0  0
    5.3068    0.4219    0.0333 C   0  0  0  0  0  0  0  0  0  0  0  0
    3.9946   -1.6031    0.1558 C   0  0  0  0  0  0  0  0  0  0  0  0
    6.4771   -0.3301    0.1366 C   0  0  0  0  0  0  0  0  0  0  0  0
    5.3697    1.9134   -0.0890 C   0  0  0  0  0  0  0  0  0  0  0  0
    5.1649   -2.3554    0.2588 C   0  0  0  0  0  0  0  0  0  0  0  0
    6.4060   -1.7187    0.2496 C   0  0  0  0  0  0  0  0  0  0  0  0
   -2.6412   -0.7369   -1.7492 H   0  0  0  0  0  0  0  0  0  0  0  0
   -2.9733   -1.8830   -0.4343 H   0  0  0  0  0  0  0  0  0  0  0  0
   -2.8528    1.3998    1.4151 H   0  0  0  0  0  0  0  0  0  0  0  0
   -3.7715    2.2209    0.1340 H   0  0  0  0  0  0  0  0  0  0  0  0
   -0.5714   -1.3778   -0.5742 H   0  0  0  0  0  0  0  0  0  0  0  0
   -1.2434   -0.8843    0.9826 H   0  0  0  0  0  0  0  0  0  0  0  0
   -1.3686    2.7082   -0.0926 H   0  0  0  0  0  0  0  0  0  0  0  0
   -1.9618    1.8165   -1.4967 H   0  0  0  0  0  0  0  0  0  0  0  0
    1.3740   -0.5913    0.8958 H   0  0  0  0  0  0  0  0  0  0  0  0
    1.4726   -0.7731   -0.8991 H   0  0  0  0  0  0  0  0  0  0  0  0
   -5.2465    1.1100    1.7749 H   0  0  0  0  0  0  0  0  0  0  0  0
   -5.0051   -1.5090   -1.6685 H   0  0  0  0  0  0  0  0  0  0  0  0
    2.9554    1.5225   -0.1161 H   0  0  0  0  0  0  0  0  0  0  0  0
   -7.6387    0.6134    1.9620 H   0  0  0  0  0  0  0  0  0  0  0  0
   -7.3936   -2.0025   -1.4379 H   0  0  0  0  0  0  0  0  0  0  0  0
   -8.7263   -0.9449    0.3673 H   0  0  0  0  0  0  0  0  0  0  0  0
    3.0521   -2.1422    0.1693 H   0  0  0  0  0  0  0  0  0  0  0  0
    4.8767    2.2359   -1.0134 H   0  0  0  0  0  0  0  0  0  0  0  0
    6.3750    2.3368   -0.1235 H   0  0  0  0  0  0  0  0  0  0  0  0
    4.8683    2.3807    0.7662 H   0  0  0  0  0  0  0  0  0  0  0  0
    5.1102   -3.4366    0.3471 H   0  0  0  0  0  0  0  0  0  0  0  0
    7.3084   -2.3194    0.3313 H   0  0  0  0  0  0  0  0  0  0  0  0
  1 21  1  0  0  0  0
  2 11  2  0  0  0  0
  3  6  1  0  0  0  0
  3  7  1  0  0  0  0
  3 10  1  0  0  0  0
  4  8  1  0  0  0  0
  4  9  1  0  0  0  0
  4 11  1  0  0  0  0
  5 12  1  0  0  0  0
  5 15  1  0  0  0  0
  5 37  1  0  0  0  0
  6  8  1  0  0  0  0
  6 25  1  0  0  0  0
  6 26  1  0  0  0  0
  7  9  1  0  0  0  0
  7 27  1  0  0  0  0
  7 28  1  0  0  0  0
  8 29  1  0  0  0  0
  8 30  1  0  0  0  0
  9 31  1  0  0  0  0
  9 32  1  0  0  0  0
 10 13  2  0  0  0  0
 10 14  1  0  0  0  0
 11 12  1  0  0  0  0
 12 33  1  0  0  0  0
 12 34  1  0  0  0  0
 13 16  1  0  0  0  0
 13 35  1  0  0  0  0
 14 17  2  0  0  0  0
 14 36  1  0  0  0  0
 15 19  2  0  0  0  0
 15 20  1  0  0  0  0
 16 18  2  0  0  0  0
 16 38  1  0  0  0  0
 17 18  1  0  0  0  0
 17 39  1  0  0  0  0
 18 40  1  0  0  0  0
 19 21  1  0  0  0  0
 19 22  1  0  0  0  0
 20 23  2  0  0  0  0
 20 41  1  0  0  0  0
 21 24  2  0  0  0  0
 22 42  1  0  0  0  0
 22 43  1  0  0  0  0
 22 44  1  0  0  0  0
 23 24  1  0  0  0  0
 23 45  1  0  0  0  0
 24 46  1  0  0  0  0
M  END
> <PUBCHEM_COMPOUND_CID>
17395805

> <PUBCHEM_CONFORMER_RMSD>
0.8

> <PUBCHEM_CONFORMER_DIVERSEORDER>
1
73
104
85
86
32
80
33
99
10
15
71
103
67
28
59
43
91
98
62
96
46
90
95
108
78
105
102
87
16
93
82
92
68
58
21
100
70
55
48
63
84
61
69
22
47
24
4
7
19
81
109
53
27
8
101
77
14
37
12
97
75
54
38
35
65
30
3
17
74
66
89
13
29
60
39
64
83
23
72
57
107
52
106
36
44
94
45
50
5
9
6
31
49
26
25
40
42
41
56
76
18
79
11
88
20
34
2
51

> <PUBCHEM_MMFF94_PARTIAL_CHARGES>
33
1 -0.18
10 0.1
11 0.57
12 0.43
13 -0.15
14 -0.15
15 0.1
16 -0.15
17 -0.15
18 -0.15
19 -0.14
2 -0.57
20 -0.15
21 0.18
22 0.14
23 -0.15
24 -0.15
3 -0.84
35 0.15
36 0.15
37 0.4
38 0.15
39 0.15
4 -0.66
40 0.15
41 0.15
45 0.15
46 0.15
5 -0.87
6 0.37
7 0.37
8 0.3
9 0.3

> <PUBCHEM_EFFECTIVE_ROTOR_COUNT>
6.2

> <PUBCHEM_PHARMACOPHORE_FEATURES>
7
1 2 acceptor
1 3 cation
1 5 cation
1 5 donor
6 10 13 14 16 17 18 rings
6 15 19 20 21 23 24 rings
6 3 4 6 7 8 9 rings

> <PUBCHEM_HEAVY_ATOM_COUNT>
24

> <PUBCHEM_ATOM_DEF_STEREO_COUNT>
0

> <PUBCHEM_ATOM_UDEF_STEREO_COUNT>
0

> <PUBCHEM_BOND_DEF_STEREO_COUNT>
0

> <PUBCHEM_BOND_UDEF_STEREO_COUNT>
0

> <PUBCHEM_ISOTOPIC_ATOM_COUNT>
0

> <PUBCHEM_COMPONENT_COUNT>
1

> <PUBCHEM_CACTVS_TAUTO_COUNT>
1

> <PUBCHEM_CONFORMER_ID>
0109705D00000001

> <PUBCHEM_MMFF94_ENERGY>
88.5175

> <PUBCHEM_FEATURE_SELFOVERLAP>
35.52

> <PUBCHEM_SHAPE_FINGERPRINT>
10 15 16153429424137657032
10066227 49 14620528864799011240
10299344 5 18260265243923933490
10595046 47 18410856594706604672
106641 1 18040157297278799672
11135609 127 11023527079478002174
11315181 36 18040715858276732987
11524674 6 16081090359877117159
11724838 91 18410013226528084852
12166972 35 18334294249489450617
12236239 1 18334011692438794177
12516196 113 18333734619714060104
12643181 29 17632576024706465131
12760667 363 18413388748520864921
13073987 5 18338237175801553656
13533116 47 18410011018461629712
13668630 136 17561079199078946707
13685833 64 18343019999373071810
13862211 1 18411136939964361791
13885169 127 18272653493744203573
13968360 50 14333415566533190504
14178184 131 18117838803495465783
14251764 18 18187083948881092758
14251764 46 18410293605396688722
14849402 71 18114743711804960913
15183329 4 18412548708156691595
15198563 99 17131279068514927597
15301273 46 16226040111448236508
15419008 47 16702029655558037325
15419008 91 17274275954354863149
15461852 350 16370734730016257685
15510794 2 17704070673565707211
15716309 27 18407477761051173171
17492 89 18124318474445990130
18335252 98 18413387653362317634
21130935 74 18259985976560906795
21150785 3 15267340721290074839
21267235 1 18411133671668270886
22224240 67 17676210160734196206
23035841 295 18408886235224964139
232437 2 18408322199473128350
23516275 137 17823395228009302190
23522609 53 18118093975438055265
23559900 14 18199751345663270241
3004659 81 18131635595299770782
3383291 50 17988637476631187931
34797466 226 16487247760280198366
3663271 9 18114178674485942178
4325135 7 18412544302173951428
5104073 3 18263933301199207280
5969126 39 18059861683878845725
6691757 9 16877657943352891663
9831232 110 17897434211183410534
9996256 80 18334576862642459083
999808 66 18060409202246608171

> <PUBCHEM_SHAPE_MULTIPOLES>
474.97
24.64
1.91
0.82
2.55
0.01
-0.07
-6.92
-3.19
-2.01
0.11
1.05
-0.03
-1.07

> <PUBCHEM_SHAPE_SELFOVERLAP>
999.647

> <PUBCHEM_SHAPE_VOLUME>
267.1

> <PUBCHEM_COORDINATE_TYPE>
2
5
10

$$$$

