8359
  -OEChem-06261202462D

 17 18  0     0  0  0  0  0  0999 V2000
    2.8660    0.3100    0.0000 O   0  0  0  0  0  0  0  0  0  0  0  0
    3.7320    1.8100    0.0000 O   0  0  0  0  0  0  0  0  0  0  0  0
    2.0000   -1.1900    0.0000 O   0  0  0  0  0  0  0  0  0  0  0  0
    3.7320   -1.1900    0.0000 N   0  0  0  0  0  0  0  0  0  0  0  0
    4.5981   -0.6900    0.0000 C   0  0  0  0  0  0  0  0  0  0  0  0
    4.5981    0.3100    0.0000 C   0  0  0  0  0  0  0  0  0  0  0  0
    5.4920   -1.2247    0.0000 C   0  0  0  0  0  0  0  0  0  0  0  0
    5.4920    0.8447    0.0000 C   0  0  0  0  0  0  0  0  0  0  0  0
    3.7320    0.8100    0.0000 C   0  0  0  0  0  0  0  0  0  0  0  0
    6.3981   -0.7108    0.0000 C   0  0  0  0  0  0  0  0  0  0  0  0
    6.3981    0.3308    0.0000 C   0  0  0  0  0  0  0  0  0  0  0  0
    2.8660   -0.6900    0.0000 C   0  0  0  0  0  0  0  0  0  0  0  0
    5.4848   -1.8446    0.0000 H   0  0  0  0  0  0  0  0  0  0  0  0
    3.7320   -1.8100    0.0000 H   0  0  0  0  0  0  0  0  0  0  0  0
    5.4848    1.4646    0.0000 H   0  0  0  0  0  0  0  0  0  0  0  0
    6.9338   -1.0229    0.0000 H   0  0  0  0  0  0  0  0  0  0  0  0
    6.9338    0.6429    0.0000 H   0  0  0  0  0  0  0  0  0  0  0  0
  1  9  1  0  0  0  0
  1 12  1  0  0  0  0
  2  9  2  0  0  0  0
  3 12  2  0  0  0  0
  4  5  1  0  0  0  0
  4 12  1  0  0  0  0
  4 14  1  0  0  0  0
  5  6  1  0  0  0  0
  5  7  2  0  0  0  0
  6  8  2  0  0  0  0
  6  9  1  0  0  0  0
  7 10  1  0  0  0  0
  7 13  1  0  0  0  0
  8 11  1  0  0  0  0
  8 15  1  0  0  0  0
 10 11  2  0  0  0  0
 10 16  1  0  0  0  0
 11 17  1  0  0  0  0
M  END
> <PUBCHEM_COMPOUND_CID>
8359

> <PUBCHEM_COMPOUND_CANONICALIZED>
1

> <PUBCHEM_CACTVS_COMPLEXITY>
226

> <PUBCHEM_CACTVS_HBOND_ACCEPTOR>
3

> <PUBCHEM_CACTVS_HBOND_DONOR>
1

> <PUBCHEM_CACTVS_ROTATABLE_BOND>
0

> <PUBCHEM_CACTVS_SUBSKEYS>
AAADcYByMAAAAAAAAAAAAAAAAAAAAAAAAAA8QAAAAAAAAACxAAAAHgAQAAAADAiBmAAwyILABACIAiTSWACCAAAlAgAIiAEAbMkIJjrAtZmMMYhm1AFI6ceYyCCOAAAAAAACAAAAAAAAAAQAAAAAAAAAAA==

> <PUBCHEM_IUPAC_OPENEYE_NAME>
1H-3,1-benzoxazine-2,4-dione

> <PUBCHEM_IUPAC_CAS_NAME>
1H-3,1-benzoxazine-2,4-dione

> <PUBCHEM_IUPAC_NAME>
1H-3,1-benzoxazine-2,4-dione

> <PUBCHEM_IUPAC_SYSTEMATIC_NAME>
1H-3,1-benzoxazine-2,4-dione

> <PUBCHEM_IUPAC_TRADITIONAL_NAME>
1H-3,1-benzoxazine-2,4-quinone

> <PUBCHEM_IUPAC_INCHI>
InChI=1S/C8H5NO3/c10-7-5-3-1-2-4-6(5)9-8(11)12-7/h1-4H,(H,9,11)

> <PUBCHEM_IUPAC_INCHIKEY>
TXJUTRJFNRYTHH-UHFFFAOYSA-N

> <PUBCHEM_XLOGP3_AA>
1

> <PUBCHEM_EXACT_MASS>
163.026943

> <PUBCHEM_MOLECULAR_FORMULA>
C8H5NO3

> <PUBCHEM_MOLECULAR_WEIGHT>
163.1302

> <PUBCHEM_OPENEYE_CAN_SMILES>
C1=CC=C2C(=C1)C(=O)OC(=O)N2

> <PUBCHEM_OPENEYE_ISO_SMILES>
C1=CC=C2C(=C1)C(=O)OC(=O)N2

> <PUBCHEM_CACTVS_TPSA>
55.4

> <PUBCHEM_MONOISOTOPIC_WEIGHT>
163.026943

> <PUBCHEM_TOTAL_CHARGE>
0

> <PUBCHEM_HEAVY_ATOM_COUNT>
12

> <PUBCHEM_ATOM_DEF_STEREO_COUNT>
0

> <PUBCHEM_ATOM_UDEF_STEREO_COUNT>
0

> <PUBCHEM_BOND_DEF_STEREO_COUNT>
0

> <PUBCHEM_BOND_UDEF_STEREO_COUNT>
0

> <PUBCHEM_ISOTOPIC_ATOM_COUNT>
0

> <PUBCHEM_COMPONENT_COUNT>
1

> <PUBCHEM_CACTVS_TAUTO_COUNT>
5

> <PUBCHEM_COORDINATE_TYPE>
1
5
255

> <PUBCHEM_BONDANNOTATIONS>
1  12  8
1  9  8
10  11  8
4  12  8
4  5  8
5  6  8
5  7  8
6  8  8
6  9  8
7  10  8
8  11  8

$$$$

