439926
  -OEChem-07051212483D

 75 77  0     1  0  0  0  0  0999 V2000
   -0.7477   -0.1161   -0.8298 O   0  0  0  0  0  0  0  0  0  0  0  0
    1.6570   -1.0471    0.3942 O   0  0  0  0  0  0  0  0  0  0  0  0
    0.3484   -3.3267   -2.1335 O   0  0  0  0  0  0  0  0  0  0  0  0
   -2.7264    0.9854   -1.5160 O   0  0  0  0  0  0  0  0  0  0  0  0
    4.0195   -0.9841    0.2288 O   0  0  0  0  0  0  0  0  0  0  0  0
    1.8133   -0.2757    3.0532 O   0  0  0  0  0  0  0  0  0  0  0  0
   -0.2569    4.1897   -0.6671 O   0  0  0  0  0  0  0  0  0  0  0  0
   -2.4020    3.5294    1.1295 O   0  0  0  0  0  0  0  0  0  0  0  0
    4.0406    2.6896   -0.0433 O   0  0  0  0  0  0  0  0  0  0  0  0
    5.1359   -0.7966   -2.2528 O   0  0  0  0  0  0  0  0  0  0  0  0
   -5.0111   -0.0580    2.1378 O   0  0  0  0  0  0  0  0  0  0  0  0
   -2.2465   -3.4870   -0.6511 N   0  0  0  0  0  0  0  0  0  0  0  0
    0.3249   -4.4792    0.6546 N   0  0  0  0  0  0  0  0  0  0  0  0
    0.8263    1.9004   -2.0982 N   0  0  0  0  0  0  0  0  0  0  0  0
    3.2062    2.3080    2.7085 N   0  0  0  0  0  0  0  0  0  0  0  0
   -5.1072    0.4104   -0.1390 N   0  0  0  0  0  0  0  0  0  0  0  0
   -0.9094   -1.4832   -1.2144 C   0  0  1  0  0  0  0  0  0  0  0  0
    1.2520   -2.3202   -0.1138 C   0  0  2  0  0  0  0  0  0  0  0  0
    0.4844   -2.0970   -1.4285 C   0  0  1  0  0  0  0  0  0  0  0  0
   -1.7500   -2.2073   -0.1452 C   0  0  2  0  0  0  0  0  0  0  0  0
    0.4341   -3.0532    0.9665 C   0  0  1  0  0  0  0  0  0  0  0  0
   -0.9490   -2.4014    1.1552 C   0  0  0  0  0  0  0  0  0  0  0  0
   -1.3390    0.7619   -1.7854 C   0  0  1  0  0  0  0  0  0  0  0  0
    2.8958   -1.1412    1.0955 C   0  0  1  0  0  0  0  0  0  0  0  0
   -0.5972    2.1034   -1.8264 C   0  0  1  0  0  0  0  0  0  0  0  0
    2.9524   -0.1025    2.2176 C   0  0  1  0  0  0  0  0  0  0  0  0
   -0.7903    2.8730   -0.5153 C   0  0  2  0  0  0  0  0  0  0  0  0
    3.0026    1.3194    1.6429 C   0  0  2  0  0  0  0  0  0  0  0  0
   -2.2824    2.9832   -0.1818 C   0  0  1  0  0  0  0  0  0  0  0  0
   -2.9690    1.6139   -0.2526 C   0  0  1  0  0  0  0  0  0  0  0  0
    4.1424    1.4301    0.6167 C   0  0  1  0  0  0  0  0  0  0  0  0
    4.0657    0.2938   -0.4156 C   0  0  1  0  0  0  0  0  0  0  0  0
   -4.4829    1.7238   -0.0923 C   0  0  0  0  0  0  0  0  0  0  0  0
    5.2774    0.2799   -1.3442 C   0  0  0  0  0  0  0  0  0  0  0  0
   -5.3131   -0.3597    0.9861 C   0  0  0  0  0  0  0  0  0  0  0  0
   -5.9986   -1.6593    0.6592 C   0  0  0  0  0  0  0  0  0  0  0  0
   -1.4622   -1.5617   -2.1614 H   0  0  0  0  0  0  0  0  0  0  0  0
    2.1467   -2.9125   -0.3565 H   0  0  0  0  0  0  0  0  0  0  0  0
    1.0658   -1.4170   -2.0642 H   0  0  0  0  0  0  0  0  0  0  0  0
   -2.6226   -1.5928    0.1041 H   0  0  0  0  0  0  0  0  0  0  0  0
    0.9424   -2.9808    1.9349 H   0  0  0  0  0  0  0  0  0  0  0  0
   -1.5407   -2.9828    1.8754 H   0  0  0  0  0  0  0  0  0  0  0  0
   -0.8075   -1.4170    1.6211 H   0  0  0  0  0  0  0  0  0  0  0  0
   -1.2703    0.3379   -2.7959 H   0  0  0  0  0  0  0  0  0  0  0  0
    2.9880   -2.1272    1.5673 H   0  0  0  0  0  0  0  0  0  0  0  0
   -1.0092    2.7093   -2.6441 H   0  0  0  0  0  0  0  0  0  0  0  0
    3.8491   -0.2828    2.8241 H   0  0  0  0  0  0  0  0  0  0  0  0
   -0.2589    2.3986    0.3198 H   0  0  0  0  0  0  0  0  0  0  0  0
    2.0469    1.5711    1.1668 H   0  0  0  0  0  0  0  0  0  0  0  0
   -2.7619    3.6838   -0.8774 H   0  0  0  0  0  0  0  0  0  0  0  0
   -2.5892    0.9669    0.5494 H   0  0  0  0  0  0  0  0  0  0  0  0
    5.1074    1.3886    1.1397 H   0  0  0  0  0  0  0  0  0  0  0  0
   -2.9517   -3.3107   -1.3668 H   0  0  0  0  0  0  0  0  0  0  0  0
   -1.5050   -3.9904   -1.1323 H   0  0  0  0  0  0  0  0  0  0  0  0
    0.0626   -4.6103   -0.3194 H   0  0  0  0  0  0  0  0  0  0  0  0
    1.2456   -4.9101    0.7399 H   0  0  0  0  0  0  0  0  0  0  0  0
    3.1740    0.3972   -1.0438 H   0  0  0  0  0  0  0  0  0  0  0  0
    1.2423   -3.6699   -2.3021 H   0  0  0  0  0  0  0  0  0  0  0  0
   -4.7464    2.2086    0.8535 H   0  0  0  0  0  0  0  0  0  0  0  0
   -4.9195    2.2986   -0.9163 H   0  0  0  0  0  0  0  0  0  0  0  0
    1.3046    2.7980   -2.1489 H   0  0  0  0  0  0  0  0  0  0  0  0
    1.2490    1.3951   -1.3212 H   0  0  0  0  0  0  0  0  0  0  0  0
    6.2007    0.1199   -0.7776 H   0  0  0  0  0  0  0  0  0  0  0  0
    5.3596    1.2079   -1.9169 H   0  0  0  0  0  0  0  0  0  0  0  0
    4.0881    2.1232    3.1856 H   0  0  0  0  0  0  0  0  0  0  0  0
    2.4784    2.1974    3.4140 H   0  0  0  0  0  0  0  0  0  0  0  0
    1.0220   -0.1076    2.5135 H   0  0  0  0  0  0  0  0  0  0  0  0
    0.7098    4.1092   -0.7275 H   0  0  0  0  0  0  0  0  0  0  0  0
   -1.9457    4.3884    1.1306 H   0  0  0  0  0  0  0  0  0  0  0  0
    4.8641    2.8328   -0.5389 H   0  0  0  0  0  0  0  0  0  0  0  0
   -5.3945    0.0563   -1.0468 H   0  0  0  0  0  0  0  0  0  0  0  0
    5.9186   -0.7905   -2.8296 H   0  0  0  0  0  0  0  0  0  0  0  0
   -5.9670   -2.3208    1.5295 H   0  0  0  0  0  0  0  0  0  0  0  0
   -7.0411   -1.4658    0.3919 H   0  0  0  0  0  0  0  0  0  0  0  0
   -5.4937   -2.1557   -0.1746 H   0  0  0  0  0  0  0  0  0  0  0  0
  1 17  1  0  0  0  0
  1 23  1  0  0  0  0
  2 18  1  0  0  0  0
  2 24  1  0  0  0  0
  3 19  1  0  0  0  0
  3 58  1  0  0  0  0
  4 23  1  0  0  0  0
  4 30  1  0  0  0  0
  5 24  1  0  0  0  0
  5 32  1  0  0  0  0
  6 26  1  0  0  0  0
  6 67  1  0  0  0  0
  7 27  1  0  0  0  0
  7 68  1  0  0  0  0
  8 29  1  0  0  0  0
  8 69  1  0  0  0  0
  9 31  1  0  0  0  0
  9 70  1  0  0  0  0
 10 34  1  0  0  0  0
 10 72  1  0  0  0  0
 11 35  2  0  0  0  0
 12 20  1  0  0  0  0
 12 53  1  0  0  0  0
 12 54  1  0  0  0  0
 13 21  1  0  0  0  0
 13 55  1  0  0  0  0
 13 56  1  0  0  0  0
 14 25  1  0  0  0  0
 14 61  1  0  0  0  0
 14 62  1  0  0  0  0
 15 28  1  0  0  0  0
 15 65  1  0  0  0  0
 15 66  1  0  0  0  0
 16 33  1  0  0  0  0
 16 35  1  0  0  0  0
 16 71  1  0  0  0  0
 17 19  1  0  0  0  0
 17 20  1  0  0  0  0
 17 37  1  0  0  0  0
 18 19  1  0  0  0  0
 18 21  1  0  0  0  0
 18 38  1  0  0  0  0
 19 39  1  0  0  0  0
 20 22  1  0  0  0  0
 20 40  1  0  0  0  0
 21 22  1  0  0  0  0
 21 41  1  0  0  0  0
 22 42  1  0  0  0  0
 22 43  1  0  0  0  0
 23 25  1  0  0  0  0
 23 44  1  0  0  0  0
 24 26  1  0  0  0  0
 24 45  1  0  0  0  0
 25 27  1  0  0  0  0
 25 46  1  0  0  0  0
 26 28  1  0  0  0  0
 26 47  1  0  0  0  0
 27 29  1  0  0  0  0
 27 48  1  0  0  0  0
 28 31  1  0  0  0  0
 28 49  1  0  0  0  0
 29 30  1  0  0  0  0
 29 50  1  0  0  0  0
 30 33  1  0  0  0  0
 30 51  1  0  0  0  0
 31 32  1  0  0  0  0
 31 52  1  0  0  0  0
 32 34  1  0  0  0  0
 32 57  1  0  0  0  0
 33 59  1  0  0  0  0
 33 60  1  0  0  0  0
 34 63  1  0  0  0  0
 34 64  1  0  0  0  0
 35 36  1  0  0  0  0
 36 73  1  0  0  0  0
 36 74  1  0  0  0  0
 36 75  1  0  0  0  0
M  END
> <PUBCHEM_COMPOUND_CID>
439926

> <PUBCHEM_CONFORMER_RMSD>
1.2

> <PUBCHEM_CONFORMER_DIVERSEORDER>
2
115
83
159
178
50
198
22
107
105
110
166
77
134
49
183
62
127
137
179
188
149
175
174
189
138
53
172
36
165
130
89
160
108
57
191
154
147
4
92
195
38
29
158
73
98
116
103
124
76
190
35
180
173
194
121
88
186
157
128
144
72
150
43
169
101
184
32
153
28
132
163
91
125
126
81
78
102
131
142
111
51
112
45
177
106
23
48
129
171
182
152
13
93
46
185
16
168
156
136
56
120
54
11
196
122
19
139
151
181
113
114
161
6
104
34
176
96
84
27
71
164
162
39
55
69
61
167
123
15
82
70
85
1
133
187
86
24
192
66
44
52
64
5
79
145
42
117
31
30
7
74
141
3
33
90
118
193
67
100
170
25
37
63
87
94
75
155
17
140
148
9
119
18
26
97
135
59
20
68
21
109
80
65
60
197
14
41
47
12
146
99
58
40
143
10
8
95

> <PUBCHEM_MMFF94_PARTIAL_CHARGES>
50
1 -0.56
10 -0.68
11 -0.57
12 -0.99
13 -0.99
14 -0.99
15 -0.99
16 -0.73
17 0.28
18 0.28
19 0.28
2 -0.56
20 0.27
21 0.27
23 0.56
24 0.56
25 0.27
26 0.28
27 0.28
28 0.27
29 0.28
3 -0.68
30 0.28
31 0.28
32 0.28
33 0.3
34 0.28
35 0.57
36 0.06
4 -0.56
5 -0.56
53 0.36
54 0.36
55 0.36
56 0.36
58 0.4
6 -0.68
61 0.36
62 0.36
65 0.36
66 0.36
67 0.4
68 0.4
69 0.4
7 -0.68
70 0.4
71 0.37
72 0.4
8 -0.68
9 -0.68

> <PUBCHEM_EFFECTIVE_ROTOR_COUNT>
11.6

> <PUBCHEM_PHARMACOPHORE_FEATURES>
29
1 1 acceptor
1 10 acceptor
1 10 donor
1 11 acceptor
1 12 cation
1 12 donor
1 13 cation
1 13 donor
1 14 cation
1 14 donor
1 15 cation
1 15 donor
1 16 donor
1 2 acceptor
1 3 acceptor
1 3 donor
1 4 acceptor
1 5 acceptor
1 6 acceptor
1 6 donor
1 7 acceptor
1 7 donor
1 8 acceptor
1 8 donor
1 9 acceptor
1 9 donor
6 17 18 19 20 21 22 rings
6 4 23 25 27 29 30 rings
6 5 24 26 28 31 32 rings

> <PUBCHEM_HEAVY_ATOM_COUNT>
36

> <PUBCHEM_ATOM_DEF_STEREO_COUNT>
15

> <PUBCHEM_ATOM_UDEF_STEREO_COUNT>
0

> <PUBCHEM_BOND_DEF_STEREO_COUNT>
0

> <PUBCHEM_BOND_UDEF_STEREO_COUNT>
0

> <PUBCHEM_ISOTOPIC_ATOM_COUNT>
0

> <PUBCHEM_COMPONENT_COUNT>
1

> <PUBCHEM_CACTVS_TAUTO_COUNT>
2

> <PUBCHEM_CONFORMER_ID>
0006B67600000002

> <PUBCHEM_MMFF94_ENERGY>
77.8699

> <PUBCHEM_FEATURE_SELFOVERLAP>
147.263

> <PUBCHEM_SHAPE_FINGERPRINT>
10006869 2 18341061812625911383
10165383 225 18186792582964061950
1100329 8 18197770016977333839
11115154 58 16524169163505770647
11513181 2 17827914031951502982
11578080 2 16734646595318930847
12156800 1 16264825371401652008
12422481 6 18341894078566405687
14840074 17 18271802385522776681
15001296 14 18056755425711291541
150020 26 17760391163147996346
15927050 60 17763733300571234677
20764821 26 18267612167836077426
35225 105 18341060717108239176
392239 28 18339077194116066347
469060 322 17701844110151463489
5776283 40 18336530652784305292
6287921 2 18050843613597173661
6442390 28 18412826893156986842

> <PUBCHEM_SHAPE_MULTIPOLES>
651.4
10.11
4.88
2.31
3.55
0.54
0.6
-1.9
2.25
1.56
-0.37
-1.67
-0.17
0.91

> <PUBCHEM_SHAPE_SELFOVERLAP>
1336.206

> <PUBCHEM_SHAPE_VOLUME>
368.3

> <PUBCHEM_COORDINATE_TYPE>
2
5
10

$$$$

