17395865
  -OEChem-06241222523D

 44 46  0     1  0  0  0  0  0999 V2000
    0.4139   -1.2478    0.0263 O   0  0  0  0  0  0  0  0  0  0  0  0
    3.5994    2.0118    0.8599 O   0  0  0  0  0  0  0  0  0  0  0  0
   -5.0344   -1.3706   -0.4268 O   0  0  0  0  0  0  0  0  0  0  0  0
    1.6956    0.6633    0.5365 N   0  0  0  0  0  0  0  0  0  0  0  0
    0.1737    2.2589   -0.3939 N   0  0  1  0  0  0  0  0  0  0  0  0
    0.6447    1.6158    0.8349 C   0  0  0  0  0  0  0  0  0  0  0  0
   -1.1878    2.7645   -0.2037 C   0  0  0  0  0  0  0  0  0  0  0  0
    2.7821   -1.2438   -0.0218 C   0  0  0  0  0  0  0  0  0  0  0  0
    3.7366   -0.2687    0.2275 C   0  0  0  0  0  0  0  0  0  0  0  0
    1.4615   -0.6460    0.1727 C   0  0  0  0  0  0  0  0  0  0  0  0
    3.0401    0.9665    0.5850 C   0  0  0  0  0  0  0  0  0  0  0  0
   -2.2088    1.6653   -0.2628 C   0  0  0  0  0  0  0  0  0  0  0  0
    1.0559    3.3565   -0.8009 C   0  0  0  0  0  0  0  0  0  0  0  0
    3.1288   -2.5284   -0.3870 C   0  0  0  0  0  0  0  0  0  0  0  0
    5.0881   -0.5268    0.1249 C   0  0  0  0  0  0  0  0  0  0  0  0
   -3.2304    1.6116    0.6856 C   0  0  0  0  0  0  0  0  0  0  0  0
   -2.1369    0.6989   -1.2662 C   0  0  0  0  0  0  0  0  0  0  0  0
    4.4928   -2.8131   -0.4969 C   0  0  0  0  0  0  0  0  0  0  0  0
    5.4630   -1.8220   -0.2432 C   0  0  0  0  0  0  0  0  0  0  0  0
   -4.1801    0.5913    0.6304 C   0  0  0  0  0  0  0  0  0  0  0  0
   -3.0864   -0.3212   -1.3213 C   0  0  0  0  0  0  0  0  0  0  0  0
   -4.1081   -0.3749   -0.3732 C   0  0  0  0  0  0  0  0  0  0  0  0
   -5.6088   -1.7905    0.8099 C   0  0  0  0  0  0  0  0  0  0  0  0
   -5.9944   -3.2506    0.7039 C   0  0  0  0  0  0  0  0  0  0  0  0
   -0.1534    1.0403    1.3182 H   0  0  0  0  0  0  0  0  0  0  0  0
    1.0090    2.3497    1.5646 H   0  0  0  0  0  0  0  0  0  0  0  0
   -1.4542    3.4604   -1.0114 H   0  0  0  0  0  0  0  0  0  0  0  0
   -1.2656    3.3362    0.7311 H   0  0  0  0  0  0  0  0  0  0  0  0
    2.0550    2.9887   -1.0510 H   0  0  0  0  0  0  0  0  0  0  0  0
    1.1469    4.1262   -0.0261 H   0  0  0  0  0  0  0  0  0  0  0  0
    0.6805    3.8335   -1.7139 H   0  0  0  0  0  0  0  0  0  0  0  0
    2.3833   -3.2902   -0.5823 H   0  0  0  0  0  0  0  0  0  0  0  0
    5.8340    0.2349    0.3192 H   0  0  0  0  0  0  0  0  0  0  0  0
   -3.3021    2.3618    1.4685 H   0  0  0  0  0  0  0  0  0  0  0  0
   -1.3567    0.7278   -2.0221 H   0  0  0  0  0  0  0  0  0  0  0  0
    4.8125   -3.8122   -0.7819 H   0  0  0  0  0  0  0  0  0  0  0  0
    6.5170   -2.0710   -0.3364 H   0  0  0  0  0  0  0  0  0  0  0  0
   -4.9745    0.6018    1.3706 H   0  0  0  0  0  0  0  0  0  0  0  0
   -3.0266   -1.0701   -2.1062 H   0  0  0  0  0  0  0  0  0  0  0  0
   -6.4988   -1.1862    1.0171 H   0  0  0  0  0  0  0  0  0  0  0  0
   -4.8994   -1.6977    1.6420 H   0  0  0  0  0  0  0  0  0  0  0  0
   -6.7039   -3.4033   -0.1160 H   0  0  0  0  0  0  0  0  0  0  0  0
   -5.1163   -3.8665    0.4832 H   0  0  0  0  0  0  0  0  0  0  0  0
   -6.4490   -3.6042    1.6337 H   0  0  0  0  0  0  0  0  0  0  0  0
  1 10  2  0  0  0  0
  2 11  2  0  0  0  0
  3 22  1  0  0  0  0
  3 23  1  0  0  0  0
  4  6  1  0  0  0  0
  4 10  1  0  0  0  0
  4 11  1  0  0  0  0
  5  6  1  0  0  0  0
  5  7  1  0  0  0  0
  5 13  1  0  0  0  0
  6 25  1  0  0  0  0
  6 26  1  0  0  0  0
  7 12  1  0  0  0  0
  7 27  1  0  0  0  0
  7 28  1  0  0  0  0
  8  9  1  0  0  0  0
  8 10  1  0  0  0  0
  8 14  2  0  0  0  0
  9 11  1  0  0  0  0
  9 15  2  0  0  0  0
 12 16  2  0  0  0  0
 12 17  1  0  0  0  0
 13 29  1  0  0  0  0
 13 30  1  0  0  0  0
 13 31  1  0  0  0  0
 14 18  1  0  0  0  0
 14 32  1  0  0  0  0
 15 19  1  0  0  0  0
 15 33  1  0  0  0  0
 16 20  1  0  0  0  0
 16 34  1  0  0  0  0
 17 21  2  0  0  0  0
 17 35  1  0  0  0  0
 18 19  2  0  0  0  0
 18 36  1  0  0  0  0
 19 37  1  0  0  0  0
 20 22  2  0  0  0  0
 20 38  1  0  0  0  0
 21 22  1  0  0  0  0
 21 39  1  0  0  0  0
 23 24  1  0  0  0  0
 23 40  1  0  0  0  0
 23 41  1  0  0  0  0
 24 42  1  0  0  0  0
 24 43  1  0  0  0  0
 24 44  1  0  0  0  0
M  END
> <PUBCHEM_COMPOUND_CID>
17395865

> <PUBCHEM_CONFORMER_RMSD>
0.8

> <PUBCHEM_CONFORMER_DIVERSEORDER>
1
6
7
65
9
53
63
70
59
57
79
34
14
5
51
71
56
8
83
17
27
84
24
77
37
47
78
76
21
25
26
50
46
11
52
43
23
75
28
31
33
40
20
61
3
49
16
81
10
73
69
22
13
41
4
55
29
32
2
39
54
67
66
38
19
45
35
82
12
15
42
72
48
36
68
44
80
74
64
60
62
58
18
30

> <PUBCHEM_MMFF94_PARTIAL_CHARGES>
31
1 -0.57
10 0.54
11 0.54
12 -0.14
13 0.27
14 -0.15
15 -0.15
16 -0.15
17 -0.15
18 -0.15
19 -0.15
2 -0.57
20 -0.15
21 -0.15
22 0.08
23 0.28
3 -0.36
32 0.15
33 0.15
34 0.15
35 0.15
36 0.15
37 0.15
38 0.15
39 0.15
4 -0.42
5 -0.81
6 0.57
7 0.41
8 0.09
9 0.09

> <PUBCHEM_EFFECTIVE_ROTOR_COUNT>
6.2

> <PUBCHEM_PHARMACOPHORE_FEATURES>
7
1 1 acceptor
1 2 acceptor
1 3 acceptor
1 5 cation
5 4 8 9 10 11 rings
6 12 16 17 20 21 22 rings
6 8 9 14 15 18 19 rings

> <PUBCHEM_HEAVY_ATOM_COUNT>
24

> <PUBCHEM_ATOM_DEF_STEREO_COUNT>
0

> <PUBCHEM_ATOM_UDEF_STEREO_COUNT>
0

> <PUBCHEM_BOND_DEF_STEREO_COUNT>
0

> <PUBCHEM_BOND_UDEF_STEREO_COUNT>
0

> <PUBCHEM_ISOTOPIC_ATOM_COUNT>
0

> <PUBCHEM_COMPONENT_COUNT>
1

> <PUBCHEM_CACTVS_TAUTO_COUNT>
1

> <PUBCHEM_CONFORMER_ID>
0109709900000001

> <PUBCHEM_MMFF94_ENERGY>
68.7491

> <PUBCHEM_FEATURE_SELFOVERLAP>
35.613

> <PUBCHEM_SHAPE_FINGERPRINT>
108634 29 18130783417484834426
11014199 57 18412541029019228637
12107183 9 18336813283138522753
12166972 35 17632291263615373759
12403259 226 18266466593238218904
12623949 98 18113607993623510966
12633257 1 15791737369368114937
13103583 49 17749941258851240337
13402501 40 18412824672991399083
13533116 47 18193273001993640385
13989917 61 17980475660290624131
14251764 30 18412539916553880291
14341114 176 18335699404296501771
14950920 106 17168142296223110235
15064986 96 16662041650707037655
15196674 1 18408326604906911081
15352361 1 18411419518584169563
15510800 12 17773026455166090283
17349148 13 17631442548756412282
17492 89 18410292480648072153
1813 80 18131632309159822604
19319366 153 17613997392201710437
21267235 1 18335416876509426206
21344244 246 17986941974109279300
221490 88 18335707199651458080
22393880 68 18129673026635870437
22950370 63 18337949090543042348
23559900 14 18411990152687796593
314194 84 18188779340393137149
329604 57 18342453755496557582
3472631 163 10447939364822733217
3737641 26 18334575745745116878
46194498 28 17702672038276190821
5104073 3 18188217618821553074
5486654 36 18115588291311093561
56633871 153 18261111812676379415
7970288 3 18412262831091917883

> <PUBCHEM_SHAPE_MULTIPOLES>
466.34
13.07
3.78
0.99
5.67
0.08
0.11
-12.91
-1.41
0.81
0.1
0.55
0.12
1.36

> <PUBCHEM_SHAPE_SELFOVERLAP>
1007.189

> <PUBCHEM_SHAPE_VOLUME>
259.2

> <PUBCHEM_COORDINATE_TYPE>
2
5
10

$$$$

