53297376
  -OEChem-07051213112D

 39 41  0     1  0  0  0  0  0999 V2000
    5.1343    0.5208    0.0000 O   0  0  0  0  0  0  0  0  0  0  0  0
    7.8003   -2.0000    0.0000 O   0  0  0  0  0  0  0  0  0  0  0  0
    7.8003    2.0000    0.0000 O   0  0  0  0  0  0  0  0  0  0  0  0
    9.5487   -2.0346    0.0000 O   0  0  0  0  0  0  0  0  0  0  0  0
    9.5487    2.0346    0.0000 O   0  0  0  0  0  0  0  0  0  0  0  0
    2.5381   -1.0308    0.0000 O   0  0  0  0  0  0  0  0  0  0  0  0
    3.3984    0.4725    0.0000 O   0  0  0  0  0  0  0  0  0  0  0  0
    5.1343   -0.5208    0.0000 C   0  0  1  0  0  0  0  0  0  0  0  0
    6.0403   -1.0347    0.0000 C   0  0  0  0  0  0  0  0  0  0  0  0
    6.9343   -0.5000    0.0000 C   0  0  0  0  0  0  0  0  0  0  0  0
    6.9343    0.5000    0.0000 C   0  0  0  0  0  0  0  0  0  0  0  0
    6.0403    1.0347    0.0000 C   0  0  1  0  0  0  0  0  0  0  0  0
    7.8003   -1.0000    0.0000 C   0  0  0  0  0  0  0  0  0  0  0  0
    7.8003    1.0000    0.0000 C   0  0  0  0  0  0  0  0  0  0  0  0
    4.2702   -1.0241    0.0000 C   0  0  0  0  0  0  0  0  0  0  0  0
    8.6663   -0.5000    0.0000 C   0  0  0  0  0  0  0  0  0  0  0  0
    8.6663    0.5000    0.0000 C   0  0  0  0  0  0  0  0  0  0  0  0
    6.0519    2.0346    0.0000 C   0  0  0  0  0  0  0  0  0  0  0  0
    9.5603   -1.0347    0.0000 C   0  0  0  0  0  0  0  0  0  0  0  0
    9.5603    1.0347    0.0000 C   0  0  0  0  0  0  0  0  0  0  0  0
    3.4022   -0.5275    0.0000 C   0  0  0  0  0  0  0  0  0  0  0  0
   10.4663   -0.5208    0.0000 C   0  0  0  0  0  0  0  0  0  0  0  0
   10.4663    0.5208    0.0000 C   0  0  0  0  0  0  0  0  0  0  0  0
    4.5967   -0.2119    0.0000 H   0  0  0  0  0  0  0  0  0  0  0  0
    5.6467   -1.5137    0.0000 H   0  0  0  0  0  0  0  0  0  0  0  0
    6.4449   -1.5044    0.0000 H   0  0  0  0  0  0  0  0  0  0  0  0
    5.5064    1.3498    0.0000 H   0  0  0  0  0  0  0  0  0  0  0  0
    3.8735   -1.5006    0.0000 H   0  0  0  0  0  0  0  0  0  0  0  0
    4.6705   -1.4976    0.0000 H   0  0  0  0  0  0  0  0  0  0  0  0
    6.6718    2.0274    0.0000 H   0  0  0  0  0  0  0  0  0  0  0  0
    6.0591    2.6546    0.0000 H   0  0  0  0  0  0  0  0  0  0  0  0
    5.4319    2.0418    0.0000 H   0  0  0  0  0  0  0  0  0  0  0  0
   11.0021   -0.8329    0.0000 H   0  0  0  0  0  0  0  0  0  0  0  0
   11.0021    0.8329    0.0000 H   0  0  0  0  0  0  0  0  0  0  0  0
    7.2634   -2.3100    0.0000 H   0  0  0  0  0  0  0  0  0  0  0  0
    7.2634    2.3100    0.0000 H   0  0  0  0  0  0  0  0  0  0  0  0
   10.0820   -2.3508    0.0000 H   0  0  0  0  0  0  0  0  0  0  0  0
   10.0820    2.3508    0.0000 H   0  0  0  0  0  0  0  0  0  0  0  0
    2.0000   -0.7229    0.0000 H   0  0  0  0  0  0  0  0  0  0  0  0
  1  8  1  0  0  0  0
  1 12  1  0  0  0  0
  2 13  1  0  0  0  0
  2 35  1  0  0  0  0
  3 14  1  0  0  0  0
  3 36  1  0  0  0  0
  4 19  1  0  0  0  0
  4 37  1  0  0  0  0
  5 20  1  0  0  0  0
  5 38  1  0  0  0  0
  6 21  1  0  0  0  0
  6 39  1  0  0  0  0
  7 21  2  0  0  0  0
  8  9  1  0  0  0  0
  8 15  1  1  0  0  0
  8 24  1  0  0  0  0
  9 10  1  0  0  0  0
  9 25  1  0  0  0  0
  9 26  1  0  0  0  0
 10 11  1  0  0  0  0
 10 13  2  0  0  0  0
 11 12  1  0  0  0  0
 11 14  2  0  0  0  0
 12 18  1  6  0  0  0
 12 27  1  0  0  0  0
 13 16  1  0  0  0  0
 14 17  1  0  0  0  0
 15 21  1  0  0  0  0
 15 28  1  0  0  0  0
 15 29  1  0  0  0  0
 16 17  1  0  0  0  0
 16 19  2  0  0  0  0
 17 20  2  0  0  0  0
 18 30  1  0  0  0  0
 18 31  1  0  0  0  0
 18 32  1  0  0  0  0
 19 22  1  0  0  0  0
 20 23  1  0  0  0  0
 22 23  2  0  0  0  0
 22 33  1  0  0  0  0
 23 34  1  0  0  0  0
M  END
> <PUBCHEM_COMPOUND_CID>
53297376

> <PUBCHEM_COMPOUND_CANONICALIZED>
1

> <PUBCHEM_CACTVS_COMPLEXITY>
456

> <PUBCHEM_CACTVS_HBOND_ACCEPTOR>
7

> <PUBCHEM_CACTVS_HBOND_DONOR>
5

> <PUBCHEM_CACTVS_ROTATABLE_BOND>
2

> <PUBCHEM_CACTVS_SUBSKEYS>
AAADceB4OAAAAAAAAAAAAAAAAAAAAAAAAAA0YIAAAAAAAADRUAAAGgAACAAADBSgmAIyDsAABgCIAiDSCAACAAAgIAAIiAEGCIgIJzaCMBqCcAAl4BUIuAfI6PyOwQADAAAYAACCAAYAADAAAAAAAAAAAA==

> <PUBCHEM_IUPAC_OPENEYE_NAME>
2-[(1R,3S)-5,6,9,10-tetrahydroxy-1-methyl-3,4-dihydro-1H-benzo[g]isochromen-3-yl]acetic acid

> <PUBCHEM_IUPAC_CAS_NAME>
2-[(1R,3S)-5,6,9,10-tetrahydroxy-1-methyl-3,4-dihydro-1H-benzo[g][2]benzopyran-3-yl]acetic acid

> <PUBCHEM_IUPAC_NAME>
2-[(1R,3S)-5,6,9,10-tetrahydroxy-1-methyl-3,4-dihydro-1H-benzo[g]isochromen-3-yl]acetic acid

> <PUBCHEM_IUPAC_SYSTEMATIC_NAME>
2-[(1R,3S)-1-methyl-5,6,9,10-tetrakis(oxidanyl)-3,4-dihydro-1H-benzo[g]isochromen-3-yl]ethanoic acid

> <PUBCHEM_IUPAC_TRADITIONAL_NAME>
2-[(1R,3S)-5,6,9,10-tetrahydroxy-1-methyl-3,4-dihydro-1H-benz[g]isochromen-3-yl]acetic acid

> <PUBCHEM_IUPAC_INCHI>
InChI=1S/C16H16O7/c1-6-12-8(4-7(23-6)5-11(19)20)15(21)13-9(17)2-3-10(18)14(13)16(12)22/h2-3,6-7,17-18,21-22H,4-5H2,1H3,(H,19,20)/t6-,7+/m1/s1

> <PUBCHEM_IUPAC_INCHIKEY>
YVNZMUZXESMJTM-RQJHMYQMSA-N

> <PUBCHEM_XLOGP3_AA>
2.5

> <PUBCHEM_EXACT_MASS>
320.089603

> <PUBCHEM_MOLECULAR_FORMULA>
C16H16O7

> <PUBCHEM_MOLECULAR_WEIGHT>
320.29404

> <PUBCHEM_OPENEYE_CAN_SMILES>
CC1C2=C(C3=C(C=CC(=C3C(=C2CC(O1)CC(=O)O)O)O)O)O

> <PUBCHEM_OPENEYE_ISO_SMILES>
C[C@@H]1C2=C(C3=C(C=CC(=C3C(=C2C[C@H](O1)CC(=O)O)O)O)O)O

> <PUBCHEM_CACTVS_TPSA>
127

> <PUBCHEM_MONOISOTOPIC_WEIGHT>
320.089603

> <PUBCHEM_TOTAL_CHARGE>
0

> <PUBCHEM_HEAVY_ATOM_COUNT>
23

> <PUBCHEM_ATOM_DEF_STEREO_COUNT>
2

> <PUBCHEM_ATOM_UDEF_STEREO_COUNT>
0

> <PUBCHEM_BOND_DEF_STEREO_COUNT>
0

> <PUBCHEM_BOND_UDEF_STEREO_COUNT>
0

> <PUBCHEM_ISOTOPIC_ATOM_COUNT>
0

> <PUBCHEM_COMPONENT_COUNT>
1

> <PUBCHEM_CACTVS_TAUTO_COUNT>
98

> <PUBCHEM_COORDINATE_TYPE>
1
5
255

> <PUBCHEM_BONDANNOTATIONS>
10  11  8
10  13  8
11  14  8
12  18  6
13  16  8
14  17  8
16  17  8
16  19  8
17  20  8
19  22  8
20  23  8
22  23  8
8  15  5

$$$$

