42140
  -OEChem-07051213112D

 21 23  0     0  0  0  0  0  0999 V2000
    6.3697   -1.9350    0.0000 Cl  0  0  0  0  0  0  0  0  0  0  0  0
    3.3823    1.9350    0.0000 Cl  0  0  0  0  0  0  0  0  0  0  0  0
    2.6330   -1.5246    0.0000 Cl  0  0  0  0  0  0  0  0  0  0  0  0
    8.3764   -1.5246    0.0000 Cl  0  0  0  0  0  0  0  0  0  0  0  0
    2.0000    0.4234    0.0000 Cl  0  0  0  0  0  0  0  0  0  0  0  0
    9.0094    0.4234    0.0000 Cl  0  0  0  0  0  0  0  0  0  0  0  0
    5.5047    1.3360    0.0000 O   0  0  0  0  0  0  0  0  0  0  0  0
    5.0047   -0.2029    0.0000 C   0  0  0  0  0  0  0  0  0  0  0  0
    6.0047   -0.2029    0.0000 C   0  0  0  0  0  0  0  0  0  0  0  0
    4.6957    0.7482    0.0000 C   0  0  0  0  0  0  0  0  0  0  0  0
    6.3137    0.7482    0.0000 C   0  0  0  0  0  0  0  0  0  0  0  0
    4.3197   -0.9876    0.0000 C   0  0  0  0  0  0  0  0  0  0  0  0
    6.6897   -0.9876    0.0000 C   0  0  0  0  0  0  0  0  0  0  0  0
    3.6803    0.9804    0.0000 C   0  0  0  0  0  0  0  0  0  0  0  0
    7.3291    0.9804    0.0000 C   0  0  0  0  0  0  0  0  0  0  0  0
    3.2992   -0.7789    0.0000 C   0  0  0  0  0  0  0  0  0  0  0  0
    7.7102   -0.7789    0.0000 C   0  0  0  0  0  0  0  0  0  0  0  0
    2.9773    0.2118    0.0000 C   0  0  0  0  0  0  0  0  0  0  0  0
    8.0321    0.2118    0.0000 C   0  0  0  0  0  0  0  0  0  0  0  0
    4.5181   -1.5750    0.0000 H   0  0  0  0  0  0  0  0  0  0  0  0
    7.5139    1.5723    0.0000 H   0  0  0  0  0  0  0  0  0  0  0  0
  1 13  1  0  0  0  0
  2 14  1  0  0  0  0
  3 16  1  0  0  0  0
  4 17  1  0  0  0  0
  5 18  1  0  0  0  0
  6 19  1  0  0  0  0
  7 10  1  0  0  0  0
  7 11  1  0  0  0  0
  8  9  1  0  0  0  0
  8 10  1  0  0  0  0
  8 12  2  0  0  0  0
  9 11  1  0  0  0  0
  9 13  2  0  0  0  0
 10 14  2  0  0  0  0
 11 15  2  0  0  0  0
 12 16  1  0  0  0  0
 12 20  1  0  0  0  0
 13 17  1  0  0  0  0
 14 18  1  0  0  0  0
 15 19  1  0  0  0  0
 15 21  1  0  0  0  0
 16 18  2  0  0  0  0
 17 19  2  0  0  0  0
M  END
> <PUBCHEM_COMPOUND_CID>
42140

> <PUBCHEM_COMPOUND_CANONICALIZED>
1

> <PUBCHEM_CACTVS_COMPLEXITY>
355

> <PUBCHEM_CACTVS_HBOND_ACCEPTOR>
1

> <PUBCHEM_CACTVS_HBOND_DONOR>
0

> <PUBCHEM_CACTVS_ROTATABLE_BOND>
0

> <PUBCHEM_CACTVS_SUBSKEYS>
AAADcQBwIAAHAAAAAAAAAAAAAAAAASAAAAAwYAAAAAAAAEgB/AAAGgIAAAAADAaAmCAwBsAABECIAqBSAAACCAAkJUAAikEGC8hMJjOFNhqCOSCkwBEIrYeIyOCOhCAAIQCJCAQIQABCARIQCAAAAAAAAA==

> <PUBCHEM_IUPAC_OPENEYE_NAME>
1,2,3,6,7,8-hexachlorodibenzofuran

> <PUBCHEM_IUPAC_CAS_NAME>
1,2,3,6,7,8-hexachlorodibenzofuran

> <PUBCHEM_IUPAC_NAME>
1,2,3,6,7,8-hexachlorodibenzofuran

> <PUBCHEM_IUPAC_SYSTEMATIC_NAME>
1,2,3,6,7,8-hexakis(chloranyl)dibenzofuran

> <PUBCHEM_IUPAC_TRADITIONAL_NAME>
1,2,3,6,7,8-hexachlorodibenzofuran

> <PUBCHEM_IUPAC_INCHI>
InChI=1S/C12H2Cl6O/c13-4-1-3-7-6(2-5(14)8(15)10(7)17)19-12(3)11(18)9(4)16/h1-2H

> <PUBCHEM_IUPAC_INCHIKEY>
JEYJJJXOFWNEHN-UHFFFAOYSA-N

> <PUBCHEM_XLOGP3>
6.9

> <PUBCHEM_EXACT_MASS>
373.820731

> <PUBCHEM_MOLECULAR_FORMULA>
C12H2Cl6O

> <PUBCHEM_MOLECULAR_WEIGHT>
374.86168

> <PUBCHEM_OPENEYE_CAN_SMILES>
C1=C2C3=C(C(=C(C=C3OC2=C(C(=C1Cl)Cl)Cl)Cl)Cl)Cl

> <PUBCHEM_OPENEYE_ISO_SMILES>
C1=C2C3=C(C(=C(C=C3OC2=C(C(=C1Cl)Cl)Cl)Cl)Cl)Cl

> <PUBCHEM_CACTVS_TPSA>
13.1

> <PUBCHEM_MONOISOTOPIC_WEIGHT>
371.823681

> <PUBCHEM_TOTAL_CHARGE>
0

> <PUBCHEM_HEAVY_ATOM_COUNT>
19

> <PUBCHEM_ATOM_DEF_STEREO_COUNT>
0

> <PUBCHEM_ATOM_UDEF_STEREO_COUNT>
0

> <PUBCHEM_BOND_DEF_STEREO_COUNT>
0

> <PUBCHEM_BOND_UDEF_STEREO_COUNT>
0

> <PUBCHEM_ISOTOPIC_ATOM_COUNT>
0

> <PUBCHEM_COMPONENT_COUNT>
1

> <PUBCHEM_CACTVS_TAUTO_COUNT>
1

> <PUBCHEM_COORDINATE_TYPE>
1
5
255

> <PUBCHEM_BONDANNOTATIONS>
10  14  8
11  15  8
12  16  8
13  17  8
14  18  8
15  19  8
16  18  8
17  19  8
7  10  8
7  11  8
8  10  8
8  12  8
8  9  8
9  11  8
9  13  8

$$$$

