17395335
  -OEChem-06241222492D

 37 39  0     0  0  0  0  0  0999 V2000
    6.7619    1.0000    0.0000 O   0  0  0  0  0  0  0  0  0  0  0  0
    7.7619   -0.7321    0.0000 O   0  0  0  0  0  0  0  0  0  0  0  0
    3.7320    0.6340    0.0000 N   0  0  0  0  0  0  0  0  0  0  0  0
    4.6783   -0.6708    0.0000 N   0  0  0  0  0  0  0  0  0  0  0  0
   11.7619    1.0000    0.0000 N   0  0  0  0  0  0  0  0  0  0  0  0
    3.7320   -0.3660    0.0000 C   0  0  0  0  0  0  0  0  0  0  0  0
    5.2619    0.1340    0.0000 C   0  0  0  0  0  0  0  0  0  0  0  0
    2.8660   -0.8660    0.0000 C   0  0  0  0  0  0  0  0  0  0  0  0
    4.6783    0.9387    0.0000 C   0  0  0  0  0  0  0  0  0  0  0  0
    6.2619    0.1340    0.0000 C   0  0  0  0  0  0  0  0  0  0  0  0
    2.8660    1.1340    0.0000 C   0  0  0  0  0  0  0  0  0  0  0  0
    2.0000   -0.3660    0.0000 C   0  0  0  0  0  0  0  0  0  0  0  0
    2.0000    0.6340    0.0000 C   0  0  0  0  0  0  0  0  0  0  0  0
    2.8660   -1.8660    0.0000 C   0  0  0  0  0  0  0  0  0  0  0  0
    7.7619    1.0000    0.0000 C   0  0  0  0  0  0  0  0  0  0  0  0
    8.2619    0.1340    0.0000 C   0  0  0  0  0  0  0  0  0  0  0  0
    8.2619    1.8660    0.0000 C   0  0  0  0  0  0  0  0  0  0  0  0
    9.2619    0.1340    0.0000 C   0  0  0  0  0  0  0  0  0  0  0  0
    9.2619    1.8660    0.0000 C   0  0  0  0  0  0  0  0  0  0  0  0
    9.7619    1.0000    0.0000 C   0  0  0  0  0  0  0  0  0  0  0  0
    8.2619   -1.5981    0.0000 C   0  0  0  0  0  0  0  0  0  0  0  0
   10.7619    1.0000    0.0000 C   0  0  0  0  0  0  0  0  0  0  0  0
    4.8709    1.5280    0.0000 H   0  0  0  0  0  0  0  0  0  0  0  0
    6.1542   -0.4766    0.0000 H   0  0  0  0  0  0  0  0  0  0  0  0
    6.8445   -0.0781    0.0000 H   0  0  0  0  0  0  0  0  0  0  0  0
    2.8660    1.7540    0.0000 H   0  0  0  0  0  0  0  0  0  0  0  0
    1.4631   -0.6760    0.0000 H   0  0  0  0  0  0  0  0  0  0  0  0
    1.4631    0.9440    0.0000 H   0  0  0  0  0  0  0  0  0  0  0  0
    2.2460   -1.8660    0.0000 H   0  0  0  0  0  0  0  0  0  0  0  0
    2.8660   -2.4860    0.0000 H   0  0  0  0  0  0  0  0  0  0  0  0
    3.4860   -1.8660    0.0000 H   0  0  0  0  0  0  0  0  0  0  0  0
    7.9519    2.4030    0.0000 H   0  0  0  0  0  0  0  0  0  0  0  0
    9.5719   -0.4030    0.0000 H   0  0  0  0  0  0  0  0  0  0  0  0
    9.5719    2.4030    0.0000 H   0  0  0  0  0  0  0  0  0  0  0  0
    7.7249   -1.9081    0.0000 H   0  0  0  0  0  0  0  0  0  0  0  0
    8.5719   -2.1350    0.0000 H   0  0  0  0  0  0  0  0  0  0  0  0
    8.7988   -1.2881    0.0000 H   0  0  0  0  0  0  0  0  0  0  0  0
  1 10  1  0  0  0  0
  1 15  1  0  0  0  0
  2 16  1  0  0  0  0
  2 21  1  0  0  0  0
  3  6  1  0  0  0  0
  3  9  1  0  0  0  0
  3 11  1  0  0  0  0
  4  6  2  0  0  0  0
  4  7  1  0  0  0  0
  5 22  3  0  0  0  0
  6  8  1  0  0  0  0
  7  9  2  0  0  0  0
  7 10  1  0  0  0  0
  8 12  2  0  0  0  0
  8 14  1  0  0  0  0
  9 23  1  0  0  0  0
 10 24  1  0  0  0  0
 10 25  1  0  0  0  0
 11 13  2  0  0  0  0
 11 26  1  0  0  0  0
 12 13  1  0  0  0  0
 12 27  1  0  0  0  0
 13 28  1  0  0  0  0
 14 29  1  0  0  0  0
 14 30  1  0  0  0  0
 14 31  1  0  0  0  0
 15 16  2  0  0  0  0
 15 17  1  0  0  0  0
 16 18  1  0  0  0  0
 17 19  2  0  0  0  0
 17 32  1  0  0  0  0
 18 20  2  0  0  0  0
 18 33  1  0  0  0  0
 19 20  1  0  0  0  0
 19 34  1  0  0  0  0
 20 22  1  0  0  0  0
 21 35  1  0  0  0  0
 21 36  1  0  0  0  0
 21 37  1  0  0  0  0
M  END
> <PUBCHEM_COMPOUND_CID>
17395335

> <PUBCHEM_COMPOUND_CANONICALIZED>
1

> <PUBCHEM_CACTVS_COMPLEXITY>
421

> <PUBCHEM_CACTVS_HBOND_ACCEPTOR>
4

> <PUBCHEM_CACTVS_HBOND_DONOR>
0

> <PUBCHEM_CACTVS_ROTATABLE_BOND>
4

> <PUBCHEM_CACTVS_SUBSKEYS>
AAADccB7MAAAAAAAAAAAAAAAAAAAAWAAAAA8QAAAAAAAAFgB8AAAHgAAAAAADAzhnwY/tp8MHACwBzZnZASiiC0xMqAJ2CA+/JiP7uLEuZuXOCruwBPa6C+QwBAOIAABAAAAQABAAAIAAACAAAAAAAAAAA==

> <PUBCHEM_IUPAC_OPENEYE_NAME>
3-methoxy-4-[(8-methylimidazo[1,2-a]pyridin-2-yl)methoxy]benzonitrile

> <PUBCHEM_IUPAC_CAS_NAME>
3-methoxy-4-[(8-methyl-2-imidazo[1,2-a]pyridinyl)methoxy]benzonitrile

> <PUBCHEM_IUPAC_NAME>
3-methoxy-4-[(8-methylimidazo[1,2-a]pyridin-2-yl)methoxy]benzonitrile

> <PUBCHEM_IUPAC_SYSTEMATIC_NAME>
3-methoxy-4-[(8-methylimidazo[1,2-a]pyridin-2-yl)methoxy]benzenecarbonitrile

> <PUBCHEM_IUPAC_TRADITIONAL_NAME>
3-methoxy-4-[(8-methylimidazo[1,2-a]pyridin-2-yl)methoxy]benzonitrile

> <PUBCHEM_IUPAC_INCHI>
InChI=1S/C17H15N3O2/c1-12-4-3-7-20-10-14(19-17(12)20)11-22-15-6-5-13(9-18)8-16(15)21-2/h3-8,10H,11H2,1-2H3

> <PUBCHEM_IUPAC_INCHIKEY>
OSHXTQAKUGKIGS-UHFFFAOYSA-N

> <PUBCHEM_XLOGP3_AA>
3.3

> <PUBCHEM_EXACT_MASS>
293.116427

> <PUBCHEM_MOLECULAR_FORMULA>
C17H15N3O2

> <PUBCHEM_MOLECULAR_WEIGHT>
293.3199

> <PUBCHEM_OPENEYE_CAN_SMILES>
CC1=CC=CN2C1=NC(=C2)COC3=C(C=C(C=C3)C#N)OC

> <PUBCHEM_OPENEYE_ISO_SMILES>
CC1=CC=CN2C1=NC(=C2)COC3=C(C=C(C=C3)C#N)OC

> <PUBCHEM_CACTVS_TPSA>
59.6

> <PUBCHEM_MONOISOTOPIC_WEIGHT>
293.116427

> <PUBCHEM_TOTAL_CHARGE>
0

> <PUBCHEM_HEAVY_ATOM_COUNT>
22

> <PUBCHEM_ATOM_DEF_STEREO_COUNT>
0

> <PUBCHEM_ATOM_UDEF_STEREO_COUNT>
0

> <PUBCHEM_BOND_DEF_STEREO_COUNT>
0

> <PUBCHEM_BOND_UDEF_STEREO_COUNT>
0

> <PUBCHEM_ISOTOPIC_ATOM_COUNT>
0

> <PUBCHEM_COMPONENT_COUNT>
1

> <PUBCHEM_CACTVS_TAUTO_COUNT>
1

> <PUBCHEM_COORDINATE_TYPE>
1
5
255

> <PUBCHEM_BONDANNOTATIONS>
11  13  8
12  13  8
15  16  8
15  17  8
16  18  8
17  19  8
18  20  8
19  20  8
3  11  8
3  6  8
3  9  8
4  6  8
4  7  8
6  8  8
7  9  8
8  12  8

$$$$

