585153
  -OEChem-06241222453D

 41 42  0     1  0  0  0  0  0999 V2000
   -1.1553    1.2263    0.7423 O   0  0  0  0  0  0  0  0  0  0  0  0
    6.5638   -0.5662    0.4978 O   0  0  0  0  0  0  0  0  0  0  0  0
   -7.1144   -1.0881    0.1043 O   0  0  0  0  0  0  0  0  0  0  0  0
    8.1938    0.5348   -0.7136 O   0  0  0  0  0  0  0  0  0  0  0  0
   -0.7538    0.2006   -0.1986 N   0  0  1  0  0  0  0  0  0  0  0  0
   -1.9247    1.0240   -0.4441 C   0  0  1  0  0  0  0  0  0  0  0  0
    0.5395    0.6069   -0.7358 C   0  0  0  0  0  0  0  0  0  0  0  0
    1.6714   -0.0581    0.0457 C   0  0  0  0  0  0  0  0  0  0  0  0
   -3.2876    0.4683   -0.2998 C   0  0  0  0  0  0  0  0  0  0  0  0
    3.0396    0.3720   -0.4887 C   0  0  0  0  0  0  0  0  0  0  0  0
    4.1755   -0.3206    0.2702 C   0  0  0  0  0  0  0  0  0  0  0  0
   -4.2066    1.0881    0.5468 C   0  0  0  0  0  0  0  0  0  0  0  0
   -3.6545   -0.6748   -1.0101 C   0  0  0  0  0  0  0  0  0  0  0  0
    5.5490    0.1175   -0.2231 C   0  0  0  0  0  0  0  0  0  0  0  0
   -5.4925    0.5651    0.6831 C   0  0  0  0  0  0  0  0  0  0  0  0
   -4.9402   -1.1979   -0.8739 C   0  0  0  0  0  0  0  0  0  0  0  0
   -5.8593   -0.5778   -0.0273 C   0  0  0  0  0  0  0  0  0  0  0  0
    7.8515   -0.2618    0.1498 C   0  0  0  0  0  0  0  0  0  0  0  0
   -8.0037   -0.4050    0.9864 C   0  0  0  0  0  0  0  0  0  0  0  0
    8.8086   -1.0532    0.9885 C   0  0  0  0  0  0  0  0  0  0  0  0
   -1.8050    1.7671   -1.2276 H   0  0  0  0  0  0  0  0  0  0  0  0
    0.5920    0.2970   -1.7862 H   0  0  0  0  0  0  0  0  0  0  0  0
    0.6708    1.6973   -0.7223 H   0  0  0  0  0  0  0  0  0  0  0  0
    1.5771   -1.1492   -0.0219 H   0  0  0  0  0  0  0  0  0  0  0  0
    1.5979    0.2073    1.1080 H   0  0  0  0  0  0  0  0  0  0  0  0
    3.1126    0.1295   -1.5557 H   0  0  0  0  0  0  0  0  0  0  0  0
    3.1454    1.4597   -0.3950 H   0  0  0  0  0  0  0  0  0  0  0  0
    4.0958   -0.1109    1.3442 H   0  0  0  0  0  0  0  0  0  0  0  0
    4.0860   -1.4096    0.1711 H   0  0  0  0  0  0  0  0  0  0  0  0
   -3.9322    1.9806    1.1036 H   0  0  0  0  0  0  0  0  0  0  0  0
   -2.9501   -1.1659   -1.6765 H   0  0  0  0  0  0  0  0  0  0  0  0
    5.6482   -0.1102   -1.2912 H   0  0  0  0  0  0  0  0  0  0  0  0
    5.6666    1.1982   -0.0789 H   0  0  0  0  0  0  0  0  0  0  0  0
   -6.1562    1.0964    1.3567 H   0  0  0  0  0  0  0  0  0  0  0  0
   -5.2207   -2.0879   -1.4307 H   0  0  0  0  0  0  0  0  0  0  0  0
   -8.9550   -0.9469    0.9698 H   0  0  0  0  0  0  0  0  0  0  0  0
   -8.2100    0.6135    0.6404 H   0  0  0  0  0  0  0  0  0  0  0  0
   -7.6413   -0.4269    2.0197 H   0  0  0  0  0  0  0  0  0  0  0  0
    9.8343   -0.8039    0.7018 H   0  0  0  0  0  0  0  0  0  0  0  0
    8.6711   -0.8029    2.0434 H   0  0  0  0  0  0  0  0  0  0  0  0
    8.6506   -2.1217    0.8222 H   0  0  0  0  0  0  0  0  0  0  0  0
  1  5  1  0  0  0  0
  1  6  1  0  0  0  0
  2 14  1  0  0  0  0
  2 18  1  0  0  0  0
  3 17  1  0  0  0  0
  3 19  1  0  0  0  0
  4 18  2  0  0  0  0
  5  6  1  0  0  0  0
  5  7  1  0  0  0  0
  6  9  1  0  0  0  0
  6 21  1  0  0  0  0
  7  8  1  0  0  0  0
  7 22  1  0  0  0  0
  7 23  1  0  0  0  0
  8 10  1  0  0  0  0
  8 24  1  0  0  0  0
  8 25  1  0  0  0  0
  9 12  2  0  0  0  0
  9 13  1  0  0  0  0
 10 11  1  0  0  0  0
 10 26  1  0  0  0  0
 10 27  1  0  0  0  0
 11 14  1  0  0  0  0
 11 28  1  0  0  0  0
 11 29  1  0  0  0  0
 12 15  1  0  0  0  0
 12 30  1  0  0  0  0
 13 16  2  0  0  0  0
 13 31  1  0  0  0  0
 14 32  1  0  0  0  0
 14 33  1  0  0  0  0
 15 17  2  0  0  0  0
 15 34  1  0  0  0  0
 16 17  1  0  0  0  0
 16 35  1  0  0  0  0
 18 20  1  0  0  0  0
 19 36  1  0  0  0  0
 19 37  1  0  0  0  0
 19 38  1  0  0  0  0
 20 39  1  0  0  0  0
 20 40  1  0  0  0  0
 20 41  1  0  0  0  0
M  END
> <PUBCHEM_COMPOUND_CID>
585153

> <PUBCHEM_CONFORMER_RMSD>
1.2

> <PUBCHEM_CONFORMER_DIVERSEORDER>
1
20
18
39
21
45
44
42
6
43
37
31
41
24
15
3
9
5
33
36
2
40
7
48
8
19
13
32
28
27
10
17
4
47
46
25
11
29
30
14
50
23
26
35
34
22
49
16
38
12

> <PUBCHEM_MMFF94_PARTIAL_CHARGES>
22
1 -0.05
12 -0.15
13 -0.15
14 0.28
15 -0.15
16 -0.15
17 0.08
18 0.66
19 0.28
2 -0.43
20 0.06
21 0.1
3 -0.36
30 0.15
31 0.15
34 0.15
35 0.15
4 -0.57
5 -0.53
6 0.24
7 0.27
9 -0.03

> <PUBCHEM_EFFECTIVE_ROTOR_COUNT>
9.6

> <PUBCHEM_PHARMACOPHORE_FEATURES>
3
1 3 acceptor
1 4 acceptor
6 9 12 13 15 16 17 rings

> <PUBCHEM_HEAVY_ATOM_COUNT>
20

> <PUBCHEM_ATOM_DEF_STEREO_COUNT>
0

> <PUBCHEM_ATOM_UDEF_STEREO_COUNT>
1

> <PUBCHEM_BOND_DEF_STEREO_COUNT>
0

> <PUBCHEM_BOND_UDEF_STEREO_COUNT>
0

> <PUBCHEM_ISOTOPIC_ATOM_COUNT>
0

> <PUBCHEM_COMPONENT_COUNT>
1

> <PUBCHEM_CACTVS_TAUTO_COUNT>
1

> <PUBCHEM_CONFORMER_ID>
0008EDC100000001

> <PUBCHEM_MMFF94_ENERGY>
39.6787

> <PUBCHEM_FEATURE_SELFOVERLAP>
15.223

> <PUBCHEM_SHAPE_FINGERPRINT>
10066227 49 16486703575482343210
10299344 5 18410292506380946142
106641 1 14345796025034085199
10670039 82 11671791463922983215
11315181 36 18407759236044032969
11524674 6 16153430527870497206
12082328 90 16845300461632081007
12091667 2 17918275376371985677
12166972 35 18342458128274944500
13073987 5 17241040033176749486
13288520 33 18342177761267186877
13668630 136 17203327818740412026
13885169 127 17846221098465652389
13964095 4 12031786972345285048
14123256 10 17846780710691199866
14251764 18 18410293610266811990
14251764 46 18411135839893499727
14344974 52 10951756461710169351
14729087 3 6266903458976103539
14933364 13 17022623070452854328
15048467 5 6988320529786908517
15183329 4 11455893572584590548
15461852 350 11887946649391744041
155225 1 7925642094741126715
15690457 1 18131917052996717002
15716309 27 18408605855290678284
15849732 13 14908178647145242954
17093844 174 17676207992044619993
18006028 8 16989125357580059988
1818759 1 18060413625461594530
195137 175 9079110094906962026
20281389 69 7060378115820737098
20621476 8 6699814176855019416
20735858 18 18186239537247326054
21095086 128 18342738551316444114
21150785 3 14764629707098314050
21267235 1 18201718448636371844
21315763 28 17989209274628337428
22224240 67 15864074264680851060
23035841 295 18407760326337783830
23521765 1 18407759240090807564
23559900 14 16128082343944129828
246663 6 18060136539651017418
28498 318 8286209344994188920
33532 11 18201442528118238802
4325135 7 18412262835011851718
5969126 39 17346606295842728596
636775 72 14707196756826071235
67123 10 18272088289111922940
8209 1 11671781568238574572
9953998 17 16950285092185907047

> <PUBCHEM_SHAPE_MULTIPOLES>
383.13
28.23
1.09
0.95
40.49
0.02
-0.01
8.67
-6.35
-0.79
-0.02
-0.36
0.06
-1.16

> <PUBCHEM_SHAPE_SELFOVERLAP>
770.202

> <PUBCHEM_SHAPE_VOLUME>
226.5

> <PUBCHEM_COORDINATE_TYPE>
2
5
10

$$$$

