441260
  -OEChem-07051212533D

 21 20  0     1  0  0  0  0  0999 V2000
   -3.1872    0.0942    0.0128 P   0  0  0  0  0  0  0  0  0  0  0  0
   -1.6420    0.2730    0.4725 O   0  0  0  0  0  0  0  0  0  0  0  0
    0.8232    0.6733    1.3070 O   0  0  0  0  0  0  0  0  0  0  0  0
   -3.3408   -1.5017   -0.1986 O   0  0  0  0  0  0  0  0  0  0  0  0
   -3.1893    0.6714   -1.4978 O   0  0  0  0  0  0  0  0  0  0  0  0
    3.0576    1.5640   -0.6877 O   0  0  0  0  0  0  0  0  0  0  0  0
   -4.1955    0.7198    0.9317 O   0  0  0  0  0  0  0  0  0  0  0  0
    4.2272   -0.0980    0.3181 O   0  0  0  0  0  0  0  0  0  0  0  0
    2.1929   -1.8740    0.0712 N   0  0  0  0  0  0  0  0  0  0  0  0
    1.9507   -0.5306   -0.4486 C   0  0  1  0  0  0  0  0  0  0  0  0
    0.7272    0.0003    0.2796 C   0  0  0  0  0  0  0  0  0  0  0  0
   -0.6270   -0.2842   -0.3335 C   0  0  0  0  0  0  0  0  0  0  0  0
    3.2031    0.2925   -0.2268 C   0  0  0  0  0  0  0  0  0  0  0  0
    1.7598   -0.5718   -1.5261 H   0  0  0  0  0  0  0  0  0  0  0  0
   -0.6552    0.1651   -1.3300 H   0  0  0  0  0  0  0  0  0  0  0  0
   -0.7607   -1.3671   -0.4017 H   0  0  0  0  0  0  0  0  0  0  0  0
    2.9851   -2.2908   -0.4175 H   0  0  0  0  0  0  0  0  0  0  0  0
    1.3946   -2.4730   -0.1378 H   0  0  0  0  0  0  0  0  0  0  0  0
   -4.2252   -1.8693   -0.4103 H   0  0  0  0  0  0  0  0  0  0  0  0
   -4.0438    0.7575   -1.9717 H   0  0  0  0  0  0  0  0  0  0  0  0
    3.8631    2.1024   -0.5339 H   0  0  0  0  0  0  0  0  0  0  0  0
  1  2  1  0  0  0  0
  1  4  1  0  0  0  0
  1  5  1  0  0  0  0
  1  7  2  0  0  0  0
  2 12  1  0  0  0  0
  3 11  2  0  0  0  0
  4 19  1  0  0  0  0
  5 20  1  0  0  0  0
  6 13  1  0  0  0  0
  6 21  1  0  0  0  0
  8 13  2  0  0  0  0
  9 10  1  0  0  0  0
  9 17  1  0  0  0  0
  9 18  1  0  0  0  0
 10 11  1  0  0  0  0
 10 13  1  0  0  0  0
 10 14  1  0  0  0  0
 11 12  1  0  0  0  0
 12 15  1  0  0  0  0
 12 16  1  0  0  0  0
M  END
> <PUBCHEM_COMPOUND_CID>
441260

> <PUBCHEM_CONFORMER_RMSD>
0.6

> <PUBCHEM_CONFORMER_DIVERSEORDER>
1
92
15
80
21
99
42
38
54
56
93
94
19
10
96
72
98
33
39
4
47
63
58
41
87
3
104
67
8
81
71
23
22
83
95
61
55
65
6
53
59
25
32
73
30
26
20
5
48
88
75
13
84
27
62
74
14
37
11
36
100
40
46
17
43
90
50
103
18
57
85
52
51
64
76
69
31
34
82
102
44
35
2
66
89
105
45
16
49
24
97
86
70
7
77
29
60
78
12
79
91
28
9
101
68

> <PUBCHEM_MMFF94_PARTIAL_CHARGES>
18
1 1.51
10 0.39
11 0.45
12 0.34
13 0.66
17 0.36
18 0.36
19 0.5
2 -0.55
20 0.5
21 0.5
3 -0.57
4 -0.77
5 -0.77
6 -0.65
7 -0.7
8 -0.57
9 -0.99

> <PUBCHEM_EFFECTIVE_ROTOR_COUNT>
5

> <PUBCHEM_PHARMACOPHORE_FEATURES>
11
1 10 anion
1 3 acceptor
1 4 acceptor
1 5 acceptor
1 6 acceptor
1 7 acceptor
1 8 acceptor
1 9 cation
1 9 donor
3 6 8 13 anion
4 1 4 5 7 anion

> <PUBCHEM_HEAVY_ATOM_COUNT>
13

> <PUBCHEM_ATOM_DEF_STEREO_COUNT>
1

> <PUBCHEM_ATOM_UDEF_STEREO_COUNT>
0

> <PUBCHEM_BOND_DEF_STEREO_COUNT>
0

> <PUBCHEM_BOND_UDEF_STEREO_COUNT>
0

> <PUBCHEM_ISOTOPIC_ATOM_COUNT>
0

> <PUBCHEM_COMPONENT_COUNT>
1

> <PUBCHEM_CACTVS_TAUTO_COUNT>
8

> <PUBCHEM_CONFORMER_ID>
0006BBAC00000001

> <PUBCHEM_MMFF94_ENERGY>
-17.2526

> <PUBCHEM_FEATURE_SELFOVERLAP>
56.165

> <PUBCHEM_SHAPE_FINGERPRINT>
11062470 55 17167861980185448704
12932764 1 17847065501709561099
14144814 61 17530965799870249915
14325111 11 18409727361388149599
18186145 218 18411414046563829998
190213 19 17822006510446455006
20279233 1 17775283885074575523
20281475 54 18260552246645081271
20645477 56 17917714647391319413
20645477 70 18338520871028813415
22485316 2 18334015007837178435
23402539 116 17775294858684154094
23402655 69 18411136965175191340
3248919 1 18261116300357449511

> <PUBCHEM_SHAPE_MULTIPOLES>
225.32
7.9
1.25
0.97
2.12
0.36
-0.06
-0.76
-0.2
-0.36
-0.08
0.48
-0.25
-0.25

> <PUBCHEM_SHAPE_SELFOVERLAP>
423.928

> <PUBCHEM_SHAPE_VOLUME>
139.8

> <PUBCHEM_COORDINATE_TYPE>
2
5
10

$$$$

