17212
  -OEChem-07051213133D

 37 37  0     0  0  0  0  0  0999 V2000
   -2.0566   -0.1417   -0.5226 O   0  0  0  0  0  0  0  0  0  0  0  0
    3.9801   -1.6030    0.3141 O   0  5  0  0  0  0  0  0  0  0  0  0
    4.1310    0.5867    0.3551 O   0  0  0  0  0  0  0  0  0  0  0  0
   -0.2245   -3.7626   -0.2982 O   0  5  0  0  0  0  0  0  0  0  0  0
   -2.0660   -2.5935   -0.5463 O   0  0  0  0  0  0  0  0  0  0  0  0
   -2.3395   -0.1672    1.8010 O   0  0  0  0  0  0  0  0  0  0  0  0
    3.4575   -0.4654    0.2510 N   0  3  0  0  0  0  0  0  0  0  0  0
   -0.8265   -2.6654   -0.3728 N   0  3  0  0  0  0  0  0  0  0  0  0
   -0.6363    2.2808   -0.3004 C   0  0  0  0  0  0  0  0  0  0  0  0
    0.0630    0.9140   -0.2142 C   0  0  0  0  0  0  0  0  0  0  0  0
    0.3364    3.3258   -0.8884 C   0  0  0  0  0  0  0  0  0  0  0  0
   -1.0730    2.7310    1.1106 C   0  0  0  0  0  0  0  0  0  0  0  0
   -1.8996    2.2816   -1.1908 C   0  0  0  0  0  0  0  0  0  0  0  0
    1.4236    0.8780   -0.0230 C   0  0  0  0  0  0  0  0  0  0  0  0
   -0.7067   -0.2187   -0.3330 C   0  0  0  0  0  0  0  0  0  0  0  0
    2.0522   -0.3649    0.0540 C   0  0  0  0  0  0  0  0  0  0  0  0
   -0.0779   -1.4615   -0.2561 C   0  0  0  0  0  0  0  0  0  0  0  0
    2.2235    2.1376    0.1012 C   0  0  0  0  0  0  0  0  0  0  0  0
    1.3015   -1.5346   -0.0626 C   0  0  0  0  0  0  0  0  0  0  0  0
   -2.7989   -0.1212    0.6675 C   0  0  0  0  0  0  0  0  0  0  0  0
   -4.2632   -0.0358    0.3537 C   0  0  0  0  0  0  0  0  0  0  0  0
   -0.2742    4.0692   -1.4294 H   0  0  0  0  0  0  0  0  0  0  0  0
    0.8086    4.0371   -0.2042 H   0  0  0  0  0  0  0  0  0  0  0  0
    0.9522    2.9630   -1.7187 H   0  0  0  0  0  0  0  0  0  0  0  0
   -0.2617    2.6448    1.8416 H   0  0  0  0  0  0  0  0  0  0  0  0
   -1.3862    3.7824    1.0947 H   0  0  0  0  0  0  0  0  0  0  0  0
   -1.9197    2.1696    1.5035 H   0  0  0  0  0  0  0  0  0  0  0  0
   -2.1547    3.3048   -1.4994 H   0  0  0  0  0  0  0  0  0  0  0  0
   -1.7575    1.7206   -2.1218 H   0  0  0  0  0  0  0  0  0  0  0  0
   -2.8144    1.9699   -0.6892 H   0  0  0  0  0  0  0  0  0  0  0  0
    3.0111    2.0861    0.8554 H   0  0  0  0  0  0  0  0  0  0  0  0
    2.6845    2.4996   -0.8200 H   0  0  0  0  0  0  0  0  0  0  0  0
    1.7143    2.8659    0.7285 H   0  0  0  0  0  0  0  0  0  0  0  0
    1.7908   -2.5040   -0.0027 H   0  0  0  0  0  0  0  0  0  0  0  0
   -4.6370    0.9546    0.6232 H   0  0  0  0  0  0  0  0  0  0  0  0
   -4.7943   -0.8085    0.9157 H   0  0  0  0  0  0  0  0  0  0  0  0
   -4.4446   -0.2098   -0.7108 H   0  0  0  0  0  0  0  0  0  0  0  0
  1 15  1  0  0  0  0
  1 20  1  0  0  0  0
  2  7  1  0  0  0  0
  3  7  2  0  0  0  0
  4  8  1  0  0  0  0
  5  8  2  0  0  0  0
  6 20  2  0  0  0  0
  7 16  1  0  0  0  0
  8 17  1  0  0  0  0
  9 10  1  0  0  0  0
  9 11  1  0  0  0  0
  9 12  1  0  0  0  0
  9 13  1  0  0  0  0
 10 14  2  0  0  0  0
 10 15  1  0  0  0  0
 11 22  1  0  0  0  0
 11 23  1  0  0  0  0
 11 24  1  0  0  0  0
 12 25  1  0  0  0  0
 12 26  1  0  0  0  0
 12 27  1  0  0  0  0
 13 28  1  0  0  0  0
 13 29  1  0  0  0  0
 13 30  1  0  0  0  0
 14 16  1  0  0  0  0
 14 18  1  0  0  0  0
 15 17  2  0  0  0  0
 16 19  2  0  0  0  0
 17 19  1  0  0  0  0
 18 31  1  0  0  0  0
 18 32  1  0  0  0  0
 18 33  1  0  0  0  0
 19 34  1  0  0  0  0
 20 21  1  0  0  0  0
 21 35  1  0  0  0  0
 21 36  1  0  0  0  0
 21 37  1  0  0  0  0
M  CHG  4   2  -1   4  -1   7   1   8   1
M  END
> <PUBCHEM_COMPOUND_CID>
17212

> <PUBCHEM_CONFORMER_RMSD>
0.8

> <PUBCHEM_CONFORMER_DIVERSEORDER>
1
2
3

> <PUBCHEM_MMFF94_PARTIAL_CHARGES>
19
1 -0.23
10 -0.14
14 -0.14
15 0.08
16 0.13
17 0.13
18 0.14
19 -0.15
2 -0.52
20 0.66
21 0.06
3 -0.52
34 0.15
4 -0.52
5 -0.52
6 -0.57
7 0.91
8 0.91
9 0.14

> <PUBCHEM_EFFECTIVE_ROTOR_COUNT>
5

> <PUBCHEM_PHARMACOPHORE_FEATURES>
9
1 2 acceptor
1 2 anion
1 3 acceptor
1 4 acceptor
1 4 anion
1 5 acceptor
1 6 acceptor
4 9 11 12 13 hydrophobe
6 10 14 15 16 17 19 rings

> <PUBCHEM_HEAVY_ATOM_COUNT>
21

> <PUBCHEM_ATOM_DEF_STEREO_COUNT>
0

> <PUBCHEM_ATOM_UDEF_STEREO_COUNT>
0

> <PUBCHEM_BOND_DEF_STEREO_COUNT>
0

> <PUBCHEM_BOND_UDEF_STEREO_COUNT>
0

> <PUBCHEM_ISOTOPIC_ATOM_COUNT>
0

> <PUBCHEM_COMPONENT_COUNT>
1

> <PUBCHEM_CACTVS_TAUTO_COUNT>
1

> <PUBCHEM_CONFORMER_ID>
0000433C00000001

> <PUBCHEM_MMFF94_ENERGY>
139.0387

> <PUBCHEM_FEATURE_SELFOVERLAP>
45.833

> <PUBCHEM_SHAPE_FINGERPRINT>
10906281 52 18127388237674549113
10967382 1 18410858737420330340
1100329 8 18265331712042654731
11132069 177 18334579010210444770
12507560 14 18408600340753182169
12553582 1 18340208497091890502
13132413 78 18121493553394246116
13140716 1 18266181634684101402
13172582 1 18337667529629906521
13380535 76 17837782487907577420
13544592 271 18124046885734629245
14178342 30 17832436301743868440
14223421 5 18051409874759318431
14614273 12 17982452895011728197
14790565 3 18338501011026482412
15042514 8 18411421687516962490
15309172 13 18335980968839615899
15442244 35 18193557761729139615
16945 1 18335133202678037708
193761 8 17834395614142011167
19591789 44 18120930865834827878
20028762 73 18042401336267053423
20510252 161 18261960755494894560
20739085 24 18197190681618793681
21029758 27 18272359880646361516
21501502 16 18050004394061844374
22182313 1 18048875491999385246
23184049 59 18409439280946760809
2334 1 18049725109729516166
23402539 116 18334588957091055847
23419403 2 15465581783014896077
23493267 7 17702955871079066033
23559900 14 17763755681946266586
2748010 2 18049439545906977622
3250762 1 17618780705573079719
34934 24 18341899532990242376
350125 39 18193551392746131834
352729 6 17979927325793503268
589210 1 17761773966518224511
6992083 37 18337100155860261475
7364860 26 17472423153705433030
7471813 234 17247818246862252591
7832392 63 18193554463304785686
81228 2 18410016503118918994

> <PUBCHEM_SHAPE_MULTIPOLES>
386.99
5.25
3.87
0.97
1.92
0.46
-0.18
0.96
-1.27
-0.44
0.85
-0.59
-0.36
-0.02

> <PUBCHEM_SHAPE_SELFOVERLAP>
824.723

> <PUBCHEM_SHAPE_VOLUME>
214.8

> <PUBCHEM_COORDINATE_TYPE>
2
5
10

$$$$

