439361
  -OEChem-07051212453D

 35 35  0     1  0  0  0  0  0999 V2000
   -2.4930    0.3135   -0.8143 O   0  0  0  0  0  0  0  0  0  0  0  0
    1.6428   -3.2334   -0.5985 O   0  0  0  0  0  0  0  0  0  0  0  0
    0.2137   -2.9431    1.1534 O   0  0  0  0  0  0  0  0  0  0  0  0
    2.0560    1.6564   -0.2009 O   0  0  0  0  0  0  0  0  0  0  0  0
   -5.7154    1.0373    0.5798 O   0  0  0  0  0  0  0  0  0  0  0  0
   -3.1561    1.8160    0.8049 O   0  0  0  0  0  0  0  0  0  0  0  0
    4.3964    2.5814    0.0087 O   0  0  0  0  0  0  0  0  0  0  0  0
    5.2178    0.4858    0.4527 O   0  0  0  0  0  0  0  0  0  0  0  0
    1.1643   -1.0168    0.0334 C   0  0  0  0  0  0  0  0  0  0  0  0
    2.6461   -0.6755    0.2001 C   0  0  0  0  0  0  0  0  0  0  0  0
    0.3363   -0.2894    1.0636 C   0  0  0  0  0  0  0  0  0  0  0  0
    0.7211   -0.7628   -1.3863 C   0  0  0  0  0  0  0  0  0  0  0  0
   -1.1427    0.7455   -0.6688 C   0  0  0  0  0  0  0  0  0  0  0  0
   -0.6967    0.5050    0.7443 C   0  0  0  0  0  0  0  0  0  0  0  0
   -0.3127    0.0330   -1.6988 C   0  0  0  0  0  0  0  0  0  0  0  0
    0.9350   -2.4830    0.2808 C   0  0  0  0  0  0  0  0  0  0  0  0
    2.8955    0.8000    0.0329 C   0  0  0  0  0  0  0  0  0  0  0  0
   -3.4069    0.9371   -0.0096 C   0  0  0  0  0  0  0  0  0  0  0  0
   -4.7863    0.3577   -0.2501 C   0  0  1  0  0  0  0  0  0  0  0  0
    4.3202    1.2550    0.1750 C   0  0  0  0  0  0  0  0  0  0  0  0
   -4.8353   -1.1197    0.0980 C   0  0  0  0  0  0  0  0  0  0  0  0
    2.9973   -0.9723    1.1969 H   0  0  0  0  0  0  0  0  0  0  0  0
    3.2608   -1.2057   -0.5384 H   0  0  0  0  0  0  0  0  0  0  0  0
    0.6090   -0.3916    2.1121 H   0  0  0  0  0  0  0  0  0  0  0  0
    1.2732   -1.2271   -2.2006 H   0  0  0  0  0  0  0  0  0  0  0  0
   -1.0878    1.8203   -0.8853 H   0  0  0  0  0  0  0  0  0  0  0  0
   -1.1769    1.0147    1.5721 H   0  0  0  0  0  0  0  0  0  0  0  0
   -0.5692    0.1797   -2.7445 H   0  0  0  0  0  0  0  0  0  0  0  0
   -5.0725    0.5366   -1.2908 H   0  0  0  0  0  0  0  0  0  0  0  0
    1.5073   -4.1939   -0.4526 H   0  0  0  0  0  0  0  0  0  0  0  0
   -5.8587   -1.5011    0.0167 H   0  0  0  0  0  0  0  0  0  0  0  0
   -4.1905   -1.7100   -0.5607 H   0  0  0  0  0  0  0  0  0  0  0  0
   -4.5107   -1.2928    1.1305 H   0  0  0  0  0  0  0  0  0  0  0  0
   -5.5016    0.8325    1.5062 H   0  0  0  0  0  0  0  0  0  0  0  0
    5.3111    2.9182    0.1188 H   0  0  0  0  0  0  0  0  0  0  0  0
  1 13  1  0  0  0  0
  1 18  1  0  0  0  0
  2 16  1  0  0  0  0
  2 30  1  0  0  0  0
  3 16  2  0  0  0  0
  4 17  2  0  0  0  0
  5 19  1  0  0  0  0
  5 34  1  0  0  0  0
  6 18  2  0  0  0  0
  7 20  1  0  0  0  0
  7 35  1  0  0  0  0
  8 20  2  0  0  0  0
  9 10  1  0  0  0  0
  9 11  1  0  0  0  0
  9 12  1  0  0  0  0
  9 16  1  0  0  0  0
 10 17  1  0  0  0  0
 10 22  1  0  0  0  0
 10 23  1  0  0  0  0
 11 14  2  0  0  0  0
 11 24  1  0  0  0  0
 12 15  2  0  0  0  0
 12 25  1  0  0  0  0
 13 14  1  0  0  0  0
 13 15  1  0  0  0  0
 13 26  1  0  0  0  0
 14 27  1  0  0  0  0
 15 28  1  0  0  0  0
 17 20  1  0  0  0  0
 18 19  1  0  0  0  0
 19 21  1  0  0  0  0
 19 29  1  0  0  0  0
 21 31  1  0  0  0  0
 21 32  1  0  0  0  0
 21 33  1  0  0  0  0
M  END
> <PUBCHEM_COMPOUND_CID>
439361

> <PUBCHEM_CONFORMER_RMSD>
0.8

> <PUBCHEM_CONFORMER_DIVERSEORDER>
1
39
97
5
106
24
99
55
70
50
103
40
32
98
63
78
68
23
65
19
69
48
52
101
64
53
44
29
96
14
41
51
3
13
42
102
85
77
56
81
88
83
91
61
38
6
105
89
49
45
28
9
47
75
8
37
100
92
72
30
22
80
76
2
34
25
35
95
16
7
54
18
60
59
66
21
87
46
71
84
33
86
43
82
4
36
104
31
67
90
94
74
62
57
10
27
79
17
58
15
11
73
26
12
20
93

> <PUBCHEM_MMFF94_PARTIAL_CHARGES>
27
1 -0.43
10 0.06
11 -0.29
12 -0.29
13 0.56
14 -0.29
15 -0.29
16 0.66
17 0.51
18 0.66
19 0.34
2 -0.65
20 0.72
24 0.15
25 0.15
27 0.15
28 0.15
3 -0.57
30 0.5
34 0.4
35 0.5
4 -0.57
5 -0.68
6 -0.57
7 -0.65
8 -0.57
9 0.34

> <PUBCHEM_EFFECTIVE_ROTOR_COUNT>
7.4

> <PUBCHEM_PHARMACOPHORE_FEATURES>
11
1 2 acceptor
1 3 acceptor
1 4 acceptor
1 5 acceptor
1 5 donor
1 6 acceptor
1 7 acceptor
1 8 acceptor
3 2 3 16 anion
3 7 8 20 anion
6 9 11 12 13 14 15 rings

> <PUBCHEM_HEAVY_ATOM_COUNT>
21

> <PUBCHEM_ATOM_DEF_STEREO_COUNT>
1

> <PUBCHEM_ATOM_UDEF_STEREO_COUNT>
0

> <PUBCHEM_BOND_DEF_STEREO_COUNT>
0

> <PUBCHEM_BOND_UDEF_STEREO_COUNT>
0

> <PUBCHEM_ISOTOPIC_ATOM_COUNT>
0

> <PUBCHEM_COMPONENT_COUNT>
1

> <PUBCHEM_CACTVS_TAUTO_COUNT>
2

> <PUBCHEM_CONFORMER_ID>
0006B44100000001

> <PUBCHEM_MMFF94_ENERGY>
32.304

> <PUBCHEM_FEATURE_SELFOVERLAP>
55.951

> <PUBCHEM_SHAPE_FINGERPRINT>
10090160 65 18341336630123361629
10692045 39 18189074100331708922
10759866 29 18113899403064928111
10922049 32 18409730638622185430
10948715 1 18408887304582052606
12119455 92 18060146422692466856
12236239 1 17967255303732643564
12592029 89 18409732885021989090
12760667 363 7780978258219748276
13631057 29 18116441341321747279
13760787 19 18113904870821929695
13911882 115 18340473496706585347
14289901 80 18335984276560448529
14341114 328 18261110790246620945
14347332 77 9438312838662395520
14787075 74 18262803956343223803
15295992 7 18188781518179193272
15342168 16 18271523083699798180
16945 1 18196103346096246614
17349148 13 13830130615893124149
17980427 23 17273970242660864231
1813 80 17318726147291444510
18785283 64 18342742957562649154
19784866 140 5689327797349823252
19784866 9 18261397775339402712
204376 136 18342458106092420644
20600515 1 15697990864621459101
20645477 70 18265340680441044047
21054139 6 18264500503022727215
21524375 3 18333453127647157428
22079108 93 18337961073464933392
22224240 67 18341899554412331345
23402539 116 18411424968897713837
23419403 2 17392706567896011126
23559900 14 18120376711910988735
23566358 27 18335423520818981110
25 1 18408046212778683324
298252 57 17313106324164814582
3286 77 17843969371444832138
347723 3 14779259813471132660
42630746 31 18409167740102870142
4340502 62 18412539912422131563
474 4 18410291406521548528
474229 33 18340207384321028803
5104073 3 18199459039105924865
5486654 2 18339357470654489357
621550 34 18131356357726910021
633830 44 18334295379170837820
6442390 28 18339923719000823814
7364860 26 18265332983115941782
81228 2 17552097099349287170
81539 233 18410577309646068588
8272917 22 18336825398090978341
9999458 23 18412824720377879742

> <PUBCHEM_SHAPE_MULTIPOLES>
385.22
9.65
2.57
1.1
6.2
1.83
-0.26
-5.47
1.47
-1.86
0.34
0.15
0.18
-0.08

> <PUBCHEM_SHAPE_SELFOVERLAP>
806.166

> <PUBCHEM_SHAPE_VOLUME>
213.7

> <PUBCHEM_COORDINATE_TYPE>
2
5
10

$$$$

