252375
  -OEChem-07051213062D

 60 63  0     1  0  0  0  0  0999 V2000
    7.4149   -1.7606    0.0000 S   0  0  0  0  0  0  0  0  0  0  0  0
    8.6500   -0.9843    0.0000 O   0  0  0  0  0  0  0  0  0  0  0  0
    7.9821    3.2705    0.0000 O   0  0  0  0  0  0  0  0  0  0  0  0
    2.0000   -1.7814    0.0000 O   0  0  0  0  0  0  0  0  0  0  0  0
    6.5662   -3.2705    0.0000 O   0  0  0  0  0  0  0  0  0  0  0  0
    7.3931    0.2709    0.0000 C   0  0  2  0  0  0  0  0  0  0  0  0
    7.3931    1.2709    0.0000 C   0  0  1  0  0  0  0  0  0  0  0  0
    6.5271   -0.2291    0.0000 C   0  0  1  0  0  0  0  0  0  0  0  0
    5.6610    0.2709    0.0000 C   0  0  1  0  0  0  0  0  0  0  0  0
    4.7510   -0.2359    0.0000 C   0  0  2  0  0  0  0  0  0  0  0  0
    8.3393    1.5756    0.0000 C   0  0  2  0  0  0  0  0  0  0  0  0
    6.5271    1.7709    0.0000 C   0  0  0  0  0  0  0  0  0  0  0  0
    8.3393   -0.0338    0.0000 C   0  0  1  0  0  0  0  0  0  0  0  0
    5.6610    1.2709    0.0000 C   0  0  0  0  0  0  0  0  0  0  0  0
    6.5431   -1.2706    0.0000 C   0  0  1  0  0  0  0  0  0  0  0  0
    8.9229    0.7709    0.0000 C   0  0  0  0  0  0  0  0  0  0  0  0
    4.7430   -1.2775    0.0000 C   0  0  0  0  0  0  0  0  0  0  0  0
    7.3931    2.2709    0.0000 C   0  0  0  0  0  0  0  0  0  0  0  0
    5.6451   -1.7984    0.0000 C   0  0  0  0  0  0  0  0  0  0  0  0
    3.8242    0.3281    0.0000 C   0  0  0  0  0  0  0  0  0  0  0  0
    4.7587    0.7640    0.0000 C   0  0  0  0  0  0  0  0  0  0  0  0
    8.6500    2.5262    0.0000 C   0  0  0  0  0  0  0  0  0  0  0  0
    2.8763   -0.1998    0.0000 C   0  0  0  0  0  0  0  0  0  0  0  0
    3.8076   -1.8273    0.0000 C   0  0  0  0  0  0  0  0  0  0  0  0
    2.8680   -1.2848    0.0000 C   0  0  0  0  0  0  0  0  0  0  0  0
    9.6285    2.7324    0.0000 C   0  0  0  0  0  0  0  0  0  0  0  0
    7.4264   -2.7605    0.0000 C   0  0  0  0  0  0  0  0  0  0  0  0
    8.2982   -3.2504    0.0000 C   0  0  0  0  0  0  0  0  0  0  0  0
    7.4830   -0.5743    0.0000 H   0  0  0  0  0  0  0  0  0  0  0  0
    7.2664   -0.6484    0.0000 H   0  0  0  0  0  0  0  0  0  0  0  0
    6.3972    0.6959    0.0000 H   0  0  0  0  0  0  0  0  0  0  0  0
    7.9018    2.0150    0.0000 H   0  0  0  0  0  0  0  0  0  0  0  0
    6.9256    2.2459    0.0000 H   0  0  0  0  0  0  0  0  0  0  0  0
    6.1285    2.2459    0.0000 H   0  0  0  0  0  0  0  0  0  0  0  0
    7.9018   -0.4732    0.0000 H   0  0  0  0  0  0  0  0  0  0  0  0
    5.4490    1.8535    0.0000 H   0  0  0  0  0  0  0  0  0  0  0  0
    5.0504    1.1632    0.0000 H   0  0  0  0  0  0  0  0  0  0  0  0
    6.5491   -1.8906    0.0000 H   0  0  0  0  0  0  0  0  0  0  0  0
    9.3838    0.3562    0.0000 H   0  0  0  0  0  0  0  0  0  0  0  0
    9.3838    1.1856    0.0000 H   0  0  0  0  0  0  0  0  0  0  0  0
    8.0131    2.2709    0.0000 H   0  0  0  0  0  0  0  0  0  0  0  0
    7.3931    2.8909    0.0000 H   0  0  0  0  0  0  0  0  0  0  0  0
    6.7731    2.2709    0.0000 H   0  0  0  0  0  0  0  0  0  0  0  0
    5.2478   -2.2743    0.0000 H   0  0  0  0  0  0  0  0  0  0  0  0
    6.0460   -2.2712    0.0000 H   0  0  0  0  0  0  0  0  0  0  0  0
    4.2324    0.7948    0.0000 H   0  0  0  0  0  0  0  0  0  0  0  0
    3.4343    0.8102    0.0000 H   0  0  0  0  0  0  0  0  0  0  0  0
    5.3787    0.7593    0.0000 H   0  0  0  0  0  0  0  0  0  0  0  0
    4.7635    1.3840    0.0000 H   0  0  0  0  0  0  0  0  0  0  0  0
    4.1388    0.7688    0.0000 H   0  0  0  0  0  0  0  0  0  0  0  0
    2.6718    0.3855    0.0000 H   0  0  0  0  0  0  0  0  0  0  0  0
    2.2647   -0.3012    0.0000 H   0  0  0  0  0  0  0  0  0  0  0  0
    9.2566   -1.1122    0.0000 H   0  0  0  0  0  0  0  0  0  0  0  0
    3.8100   -2.4473    0.0000 H   0  0  0  0  0  0  0  0  0  0  0  0
    9.7563    2.1257    0.0000 H   0  0  0  0  0  0  0  0  0  0  0  0
   10.2351    2.8602    0.0000 H   0  0  0  0  0  0  0  0  0  0  0  0
    9.5006    3.3390    0.0000 H   0  0  0  0  0  0  0  0  0  0  0  0
    7.9944   -3.7909    0.0000 H   0  0  0  0  0  0  0  0  0  0  0  0
    8.8387   -3.5542    0.0000 H   0  0  0  0  0  0  0  0  0  0  0  0
    8.6020   -2.7100    0.0000 H   0  0  0  0  0  0  0  0  0  0  0  0
 15  1  1  6  0  0  0
  1 27  1  0  0  0  0
 13  2  1  1  0  0  0
  2 53  1  0  0  0  0
  3 22  2  0  0  0  0
  4 25  2  0  0  0  0
  5 27  2  0  0  0  0
  6  7  1  0  0  0  0
  6  8  1  0  0  0  0
  6 13  1  0  0  0  0
  6 29  1  6  0  0  0
  7 11  1  0  0  0  0
  7 12  1  0  0  0  0
  7 18  1  1  0  0  0
  8  9  1  0  0  0  0
  8 15  1  0  0  0  0
  8 30  1  1  0  0  0
  9 10  1  0  0  0  0
  9 14  1  0  0  0  0
  9 31  1  6  0  0  0
 10 17  1  0  0  0  0
 10 20  1  0  0  0  0
 10 21  1  1  0  0  0
 11 16  1  0  0  0  0
 11 22  1  1  0  0  0
 11 32  1  0  0  0  0
 12 14  1  0  0  0  0
 12 33  1  0  0  0  0
 12 34  1  0  0  0  0
 13 16  1  0  0  0  0
 13 35  1  0  0  0  0
 14 36  1  0  0  0  0
 14 37  1  0  0  0  0
 15 19  1  0  0  0  0
 15 38  1  0  0  0  0
 16 39  1  0  0  0  0
 16 40  1  0  0  0  0
 17 19  1  0  0  0  0
 17 24  2  0  0  0  0
 18 41  1  0  0  0  0
 18 42  1  0  0  0  0
 18 43  1  0  0  0  0
 19 44  1  0  0  0  0
 19 45  1  0  0  0  0
 20 23  1  0  0  0  0
 20 46  1  0  0  0  0
 20 47  1  0  0  0  0
 21 48  1  0  0  0  0
 21 49  1  0  0  0  0
 21 50  1  0  0  0  0
 22 26  1  0  0  0  0
 23 25  1  0  0  0  0
 23 51  1  0  0  0  0
 23 52  1  0  0  0  0
 24 25  1  0  0  0  0
 24 54  1  0  0  0  0
 26 55  1  0  0  0  0
 26 56  1  0  0  0  0
 26 57  1  0  0  0  0
 27 28  1  0  0  0  0
 28 58  1  0  0  0  0
 28 59  1  0  0  0  0
 28 60  1  0  0  0  0
M  END
> <PUBCHEM_COMPOUND_CID>
252375

> <PUBCHEM_COMPOUND_CANONICALIZED>
1

> <PUBCHEM_CACTVS_COMPLEXITY>
758

> <PUBCHEM_CACTVS_HBOND_ACCEPTOR>
5

> <PUBCHEM_CACTVS_HBOND_DONOR>
1

> <PUBCHEM_CACTVS_ROTATABLE_BOND>
3

> <PUBCHEM_CACTVS_SUBSKEYS>
AAADcfB4OABAAAAAAAAAAAAAAAAAAYAAAAAwYIAAAAAAAGDAAAAAGgQACAAADxSkwAKCAAAAAgiIAqBSAAAAAAAgABAACAEAAEgAEBIgAQAAQAAEgAAoAQOKzPDPgAAAAAAAAACgAAUAACgAAYAADAAAAA==

> <PUBCHEM_IUPAC_OPENEYE_NAME>
S-[(7R,8R,9S,10R,13S,14S,15R,17S)-17-acetyl-15-hydroxy-10,13-dimethyl-3-oxo-1,2,6,7,8,9,11,12,14,15,16,17-dodecahydrocyclopenta[a]phenanthren-7-yl] ethanethioate

> <PUBCHEM_IUPAC_CAS_NAME>
ethanethioic acid S-[(7R,8R,9S,10R,13S,14S,15R,17S)-17-acetyl-15-hydroxy-10,13-dimethyl-3-oxo-1,2,6,7,8,9,11,12,14,15,16,17-dodecahydrocyclopenta[a]phenanthren-7-yl] ester

> <PUBCHEM_IUPAC_NAME>
S-[(7R,8R,9S,10R,13S,14S,15R,17S)-17-acetyl-15-hydroxy-10,13-dimethyl-3-oxo-1,2,6,7,8,9,11,12,14,15,16,17-dodecahydrocyclopenta[a]phenanthren-7-yl] ethanethioate

> <PUBCHEM_IUPAC_SYSTEMATIC_NAME>
S-[(7R,8R,9S,10R,13S,14S,15R,17S)-17-ethanoyl-10,13-dimethyl-15-oxidanyl-3-oxidanylidene-1,2,6,7,8,9,11,12,14,15,16,17-dodecahydrocyclopenta[a]phenanthren-7-yl] ethanethioate

> <PUBCHEM_IUPAC_TRADITIONAL_NAME>
ethanethioic acid S-[(7R,8R,9S,10R,13S,14S,15R,17S)-17-acetyl-15-hydroxy-3-keto-10,13-dimethyl-1,2,6,7,8,9,11,12,14,15,16,17-dodecahydrocyclopenta[a]phenanthren-7-yl] ester

> <PUBCHEM_IUPAC_INCHI>
InChI=1S/C23H32O4S/c1-12(24)17-11-18(27)21-20-16(6-8-23(17,21)4)22(3)7-5-15(26)9-14(22)10-19(20)28-13(2)25/h9,16-21,27H,5-8,10-11H2,1-4H3/t16-,17+,18+,19+,20-,21-,22-,23+/m0/s1

> <PUBCHEM_IUPAC_INCHIKEY>
YYFCRMZCEYYPDO-SSKFVTQDSA-N

> <PUBCHEM_XLOGP3>
2.7

> <PUBCHEM_EXACT_MASS>
404.202131

> <PUBCHEM_MOLECULAR_FORMULA>
C23H32O4S

> <PUBCHEM_MOLECULAR_WEIGHT>
404.56278

> <PUBCHEM_OPENEYE_CAN_SMILES>
CC(=O)C1CC(C2C1(CCC3C2C(CC4=CC(=O)CCC34C)SC(=O)C)C)O

> <PUBCHEM_OPENEYE_ISO_SMILES>
CC(=O)[C@H]1C[C@H]([C@@H]2[C@@]1(CC[C@H]3[C@H]2[C@@H](CC4=CC(=O)CC[C@]34C)SC(=O)C)C)O

> <PUBCHEM_CACTVS_TPSA>
96.7

> <PUBCHEM_MONOISOTOPIC_WEIGHT>
404.202131

> <PUBCHEM_TOTAL_CHARGE>
0

> <PUBCHEM_HEAVY_ATOM_COUNT>
28

> <PUBCHEM_ATOM_DEF_STEREO_COUNT>
8

> <PUBCHEM_ATOM_UDEF_STEREO_COUNT>
0

> <PUBCHEM_BOND_DEF_STEREO_COUNT>
0

> <PUBCHEM_BOND_UDEF_STEREO_COUNT>
0

> <PUBCHEM_ISOTOPIC_ATOM_COUNT>
0

> <PUBCHEM_COMPONENT_COUNT>
1

> <PUBCHEM_CACTVS_TAUTO_COUNT>
15

> <PUBCHEM_COORDINATE_TYPE>
1
5
255

> <PUBCHEM_BONDANNOTATIONS>
15  1  6
10  21  5
11  22  5
13  2  5
6  29  6
7  18  5
8  30  5
9  31  6

$$$$

