440933
  -OEChem-07051212513D

 25 25  0     1  0  0  0  0  0999 V2000
   -2.3053   -0.4455    1.2072 O   0  0  0  0  0  0  0  0  0  0  0  0
    1.5788    0.6777   -0.2810 N   0  0  2  0  0  0  0  0  0  0  0  0
    0.3238    0.1131    0.2345 C   0  0  2  0  0  0  0  0  0  0  0  0
    0.4443   -1.3666   -0.1359 C   0  0  0  0  0  0  0  0  0  0  0  0
    1.9418   -1.6354   -0.2375 C   0  0  0  0  0  0  0  0  0  0  0  0
    2.6072   -0.3045    0.0713 C   0  0  0  0  0  0  0  0  0  0  0  0
   -0.9202    0.7483   -0.3737 C   0  0  0  0  0  0  0  0  0  0  0  0
    1.8873    1.9936    0.2653 C   0  0  0  0  0  0  0  0  0  0  0  0
   -2.1989    0.0911    0.1054 C   0  0  0  0  0  0  0  0  0  0  0  0
   -3.3588    0.1282   -0.8555 C   0  0  0  0  0  0  0  0  0  0  0  0
    0.2907    0.1947    1.3306 H   0  0  0  0  0  0  0  0  0  0  0  0
   -0.0312   -1.5957   -1.0975 H   0  0  0  0  0  0  0  0  0  0  0  0
   -0.0162   -2.0074    0.6238 H   0  0  0  0  0  0  0  0  0  0  0  0
    2.2627   -2.4168    0.4589 H   0  0  0  0  0  0  0  0  0  0  0  0
    2.1903   -1.9672   -1.2524 H   0  0  0  0  0  0  0  0  0  0  0  0
    2.8629   -0.2586    1.1378 H   0  0  0  0  0  0  0  0  0  0  0  0
    3.5235   -0.1682   -0.5119 H   0  0  0  0  0  0  0  0  0  0  0  0
   -0.8807    0.6737   -1.4675 H   0  0  0  0  0  0  0  0  0  0  0  0
   -0.9909    1.8108   -0.1168 H   0  0  0  0  0  0  0  0  0  0  0  0
    2.8539    2.3446   -0.1133 H   0  0  0  0  0  0  0  0  0  0  0  0
    1.9295    1.9923    1.3604 H   0  0  0  0  0  0  0  0  0  0  0  0
    1.1435    2.7324   -0.0496 H   0  0  0  0  0  0  0  0  0  0  0  0
   -3.1101   -0.4441   -1.7525 H   0  0  0  0  0  0  0  0  0  0  0  0
   -4.2413   -0.3149   -0.3855 H   0  0  0  0  0  0  0  0  0  0  0  0
   -3.5838    1.1648   -1.1179 H   0  0  0  0  0  0  0  0  0  0  0  0
  1  9  2  0  0  0  0
  2  3  1  0  0  0  0
  2  6  1  0  0  0  0
  2  8  1  0  0  0  0
  3  4  1  0  0  0  0
  3  7  1  0  0  0  0
  3 11  1  0  0  0  0
  4  5  1  0  0  0  0
  4 12  1  0  0  0  0
  4 13  1  0  0  0  0
  5  6  1  0  0  0  0
  5 14  1  0  0  0  0
  5 15  1  0  0  0  0
  6 16  1  0  0  0  0
  6 17  1  0  0  0  0
  7  9  1  0  0  0  0
  7 18  1  0  0  0  0
  7 19  1  0  0  0  0
  8 20  1  0  0  0  0
  8 21  1  0  0  0  0
  8 22  1  0  0  0  0
  9 10  1  0  0  0  0
 10 23  1  0  0  0  0
 10 24  1  0  0  0  0
 10 25  1  0  0  0  0
M  END
> <PUBCHEM_COMPOUND_CID>
440933

> <PUBCHEM_CONFORMER_RMSD>
0.6

> <PUBCHEM_CONFORMER_DIVERSEORDER>
1
17
23
22
14
5
9
20
6
21
4
11
18
13
10
2
16
19
8
15
7
12
3

> <PUBCHEM_MMFF94_PARTIAL_CHARGES>
8
1 -0.57
10 0.06
2 -0.81
3 0.27
6 0.27
7 0.06
8 0.27
9 0.45

> <PUBCHEM_EFFECTIVE_ROTOR_COUNT>
3

> <PUBCHEM_PHARMACOPHORE_FEATURES>
3
1 1 acceptor
1 2 cation
5 2 3 4 5 6 rings

> <PUBCHEM_HEAVY_ATOM_COUNT>
10

> <PUBCHEM_ATOM_DEF_STEREO_COUNT>
1

> <PUBCHEM_ATOM_UDEF_STEREO_COUNT>
0

> <PUBCHEM_BOND_DEF_STEREO_COUNT>
0

> <PUBCHEM_BOND_UDEF_STEREO_COUNT>
0

> <PUBCHEM_ISOTOPIC_ATOM_COUNT>
0

> <PUBCHEM_COMPONENT_COUNT>
1

> <PUBCHEM_CACTVS_TAUTO_COUNT>
3

> <PUBCHEM_CONFORMER_ID>
0006BA6500000001

> <PUBCHEM_MMFF94_ENERGY>
11.8657

> <PUBCHEM_FEATURE_SELFOVERLAP>
15.223

> <PUBCHEM_SHAPE_FINGERPRINT>
10219947 1 18335144223817456690
10857977 72 17560515093309707209
12897270 3 18413109463502767117
12932741 1 17988921176094417003
12932764 1 17632578266626236211
14325111 11 18410577245263841405
16945 1 18408598171541587502
19973954 147 18341328976428531445
20201158 50 18343023336694718003
20645477 70 18335991938930148607
20711985 344 17400066973551896614
20715346 28 18059570248524139769
21040471 1 18121779431128919516
2748010 2 18122617254572959358
29004967 10 18338512053434054642
3248919 1 18344144808564073033
5084963 1 17967540089933726763

> <PUBCHEM_SHAPE_MULTIPOLES>
194.94
4.52
1.62
0.83
2.8
0.26
-0.09
-0.01
0.38
-1.41
0.01
0.47
-0.04
0.26

> <PUBCHEM_SHAPE_SELFOVERLAP>
378.638

> <PUBCHEM_SHAPE_VOLUME>
120.5

> <PUBCHEM_COORDINATE_TYPE>
2
5
10

$$$$

