11618
  -OEChem-06261205543D

 19 19  0     0  0  0  0  0  0999 V2000
   -0.9048   -1.1011    0.4525 O   0  0  0  0  0  0  0  0  0  0  0  0
    1.5435    0.6803   -0.1284 C   0  0  0  0  0  0  0  0  0  0  0  0
    0.3529    1.4858    0.3936 C   0  0  0  0  0  0  0  0  0  0  0  0
    1.4560   -0.8269    0.1024 C   0  0  0  0  0  0  0  0  0  0  0  0
   -0.9219    1.2396   -0.4090 C   0  0  0  0  0  0  0  0  0  0  0  0
    0.1693   -1.4637   -0.4046 C   0  0  0  0  0  0  0  0  0  0  0  0
   -1.6949   -0.0141   -0.0065 C   0  0  0  0  0  0  0  0  0  0  0  0
    1.6722    0.8738   -1.2008 H   0  0  0  0  0  0  0  0  0  0  0  0
    2.4546    1.0483    0.3595 H   0  0  0  0  0  0  0  0  0  0  0  0
    0.1884    1.2917    1.4598 H   0  0  0  0  0  0  0  0  0  0  0  0
    0.6091    2.5489    0.3033 H   0  0  0  0  0  0  0  0  0  0  0  0
    2.3116   -1.3028   -0.3908 H   0  0  0  0  0  0  0  0  0  0  0  0
    1.5532   -1.0186    1.1783 H   0  0  0  0  0  0  0  0  0  0  0  0
   -1.5934    2.1009   -0.3062 H   0  0  0  0  0  0  0  0  0  0  0  0
   -0.6742    1.1855   -1.4766 H   0  0  0  0  0  0  0  0  0  0  0  0
   -0.0380   -1.2220   -1.4535 H   0  0  0  0  0  0  0  0  0  0  0  0
    0.2707   -2.5522   -0.3367 H   0  0  0  0  0  0  0  0  0  0  0  0
   -2.3757    0.2377    0.8144 H   0  0  0  0  0  0  0  0  0  0  0  0
   -2.3235   -0.3535   -0.8380 H   0  0  0  0  0  0  0  0  0  0  0  0
  1  6  1  0  0  0  0
  1  7  1  0  0  0  0
  2  3  1  0  0  0  0
  2  4  1  0  0  0  0
  2  8  1  0  0  0  0
  2  9  1  0  0  0  0
  3  5  1  0  0  0  0
  3 10  1  0  0  0  0
  3 11  1  0  0  0  0
  4  6  1  0  0  0  0
  4 12  1  0  0  0  0
  4 13  1  0  0  0  0
  5  7  1  0  0  0  0
  5 14  1  0  0  0  0
  5 15  1  0  0  0  0
  6 16  1  0  0  0  0
  6 17  1  0  0  0  0
  7 18  1  0  0  0  0
  7 19  1  0  0  0  0
M  END
> <PUBCHEM_COMPOUND_CID>
11618

> <PUBCHEM_CONFORMER_RMSD>
0.4

> <PUBCHEM_CONFORMER_DIVERSEORDER>
2
4
1
3

> <PUBCHEM_MMFF94_PARTIAL_CHARGES>
3
1 -0.56
6 0.28
7 0.28

> <PUBCHEM_EFFECTIVE_ROTOR_COUNT>
1.4

> <PUBCHEM_PHARMACOPHORE_FEATURES>
2
1 1 acceptor
7 1 2 3 4 5 6 7 rings

> <PUBCHEM_HEAVY_ATOM_COUNT>
7

> <PUBCHEM_ATOM_DEF_STEREO_COUNT>
0

> <PUBCHEM_ATOM_UDEF_STEREO_COUNT>
0

> <PUBCHEM_BOND_DEF_STEREO_COUNT>
0

> <PUBCHEM_BOND_UDEF_STEREO_COUNT>
0

> <PUBCHEM_ISOTOPIC_ATOM_COUNT>
0

> <PUBCHEM_COMPONENT_COUNT>
1

> <PUBCHEM_CACTVS_TAUTO_COUNT>
1

> <PUBCHEM_CONFORMER_ID>
00002D6200000002

> <PUBCHEM_MMFF94_ENERGY>
12.5253

> <PUBCHEM_FEATURE_SELFOVERLAP>
10.148

> <PUBCHEM_SHAPE_FINGERPRINT>
16714656 1 18123458389537147588
18185500 45 15455373302871620932
20096714 4 18192708934483779538
21040471 1 18338237055057068628

> <PUBCHEM_SHAPE_MULTIPOLES>
138.19
1.95
1.77
0.7
0.02
0.06
0.01
-0.03
0.06
-0.06
-0.04
0.02
0.01
0.11

> <PUBCHEM_SHAPE_SELFOVERLAP>
259.005

> <PUBCHEM_SHAPE_VOLUME>
83.7

> <PUBCHEM_COORDINATE_TYPE>
2
5
10

$$$$

