439908
  -OEChem-07051212483D

 22 22  0     1  0  0  0  0  0999 V2000
   -0.3918    1.1104   -0.1073 O   0  0  0  0  0  0  0  0  0  0  0  0
   -0.4140   -1.6019   -1.3588 O   0  0  0  0  0  0  0  0  0  0  0  0
   -2.6204   -0.5922    1.3261 O   0  0  0  0  0  0  0  0  0  0  0  0
    2.2256   -1.4006    0.3071 O   0  0  0  0  0  0  0  0  0  0  0  0
    3.8262    0.8537   -0.1245 O   0  0  0  0  0  0  0  0  0  0  0  0
   -2.5507    1.7598   -0.5235 O   0  0  0  0  0  0  0  0  0  0  0  0
    0.2332   -0.0762    0.4064 C   0  0  1  0  0  0  0  0  0  0  0  0
   -0.6896   -1.2045   -0.0200 C   0  0  1  0  0  0  0  0  0  0  0  0
   -2.0549   -0.5492    0.0334 C   0  0  2  0  0  0  0  0  0  0  0  0
    1.6558   -0.1641   -0.1171 C   0  0  1  0  0  0  0  0  0  0  0  0
   -1.7359    0.8942   -0.2430 C   0  0  0  0  0  0  0  0  0  0  0  0
    2.5164    0.9706    0.4212 C   0  0  0  0  0  0  0  0  0  0  0  0
    0.2340    0.0012    1.5022 H   0  0  0  0  0  0  0  0  0  0  0  0
   -0.5864   -2.0787    0.6305 H   0  0  0  0  0  0  0  0  0  0  0  0
   -2.7524   -0.9380   -0.7137 H   0  0  0  0  0  0  0  0  0  0  0  0
    1.6881   -0.1415   -1.2122 H   0  0  0  0  0  0  0  0  0  0  0  0
    2.1205    1.9496    0.1366 H   0  0  0  0  0  0  0  0  0  0  0  0
    2.6076    0.9306    1.5118 H   0  0  0  0  0  0  0  0  0  0  0  0
   -1.0518   -2.2975   -1.5930 H   0  0  0  0  0  0  0  0  0  0  0  0
   -2.5785   -1.5119    1.6386 H   0  0  0  0  0  0  0  0  0  0  0  0
    2.2080   -1.4220    1.2792 H   0  0  0  0  0  0  0  0  0  0  0  0
    4.1711   -0.0193    0.1301 H   0  0  0  0  0  0  0  0  0  0  0  0
  1  7  1  0  0  0  0
  1 11  1  0  0  0  0
  2  8  1  0  0  0  0
  2 19  1  0  0  0  0
  3  9  1  0  0  0  0
  3 20  1  0  0  0  0
  4 10  1  0  0  0  0
  4 21  1  0  0  0  0
  5 12  1  0  0  0  0
  5 22  1  0  0  0  0
  6 11  2  0  0  0  0
  7  8  1  0  0  0  0
  7 10  1  0  0  0  0
  7 13  1  0  0  0  0
  8  9  1  0  0  0  0
  8 14  1  0  0  0  0
  9 11  1  0  0  0  0
  9 15  1  0  0  0  0
 10 12  1  0  0  0  0
 10 16  1  0  0  0  0
 12 17  1  0  0  0  0
 12 18  1  0  0  0  0
M  END
> <PUBCHEM_COMPOUND_CID>
439908

> <PUBCHEM_CONFORMER_RMSD>
0.6

> <PUBCHEM_CONFORMER_DIVERSEORDER>
1
7
5
4
2
6
3

> <PUBCHEM_MMFF94_PARTIAL_CHARGES>
16
1 -0.43
10 0.28
11 0.66
12 0.28
19 0.4
2 -0.68
20 0.4
21 0.4
22 0.4
3 -0.68
4 -0.68
5 -0.68
6 -0.57
7 0.28
8 0.28
9 0.34

> <PUBCHEM_EFFECTIVE_ROTOR_COUNT>
2.8

> <PUBCHEM_PHARMACOPHORE_FEATURES>
10
1 2 acceptor
1 2 donor
1 3 acceptor
1 3 donor
1 4 acceptor
1 4 donor
1 5 acceptor
1 5 donor
1 6 acceptor
5 1 7 8 9 11 rings

> <PUBCHEM_HEAVY_ATOM_COUNT>
12

> <PUBCHEM_ATOM_DEF_STEREO_COUNT>
3

> <PUBCHEM_ATOM_UDEF_STEREO_COUNT>
1

> <PUBCHEM_BOND_DEF_STEREO_COUNT>
0

> <PUBCHEM_BOND_UDEF_STEREO_COUNT>
0

> <PUBCHEM_ISOTOPIC_ATOM_COUNT>
0

> <PUBCHEM_COMPONENT_COUNT>
1

> <PUBCHEM_CACTVS_TAUTO_COUNT>
6

> <PUBCHEM_CONFORMER_ID>
0006B66400000001

> <PUBCHEM_MMFF94_ENERGY>
22.8745

> <PUBCHEM_FEATURE_SELFOVERLAP>
50.754

> <PUBCHEM_SHAPE_FINGERPRINT>
10857977 72 18131068182390136513
12423570 1 10968202870486123399
12932764 1 18260834756903744976
13024252 1 17417540115934859299
14325111 11 18411984697335564584
15219456 202 18339355370030483106
15310529 11 18342459235726906802
15775835 57 18334292054639108570
16945 1 18270957930005595191
17844478 74 18270952458227803433
19973954 147 18342174505112374520
20645464 45 17822284661224025556
20871998 184 18189611648973023055
21040471 1 18335432286814888082
23235685 24 17167853158444026434
23552423 10 18201161043691496922
2748010 2 18339078293131906212
3248919 1 17418094308365568026
369184 2 18342461443181802387
5084963 1 18341041999424271131
6333449 129 18334582308518663044

> <PUBCHEM_SHAPE_MULTIPOLES>
211.74
4.52
1.6
0.88
2.99
0.02
0.01
1.36
0.45
-0.35
-0.3
-0.38
-0.22
0.26

> <PUBCHEM_SHAPE_SELFOVERLAP>
430.216

> <PUBCHEM_SHAPE_VOLUME>
124

> <PUBCHEM_COORDINATE_TYPE>
2
5
10

$$$$

