134031
  -OEChem-07051213093D

 36 37  0     0  0  0  0  0  0999 V2000
   -3.3183   -0.6973   -0.7125 S   0  0  0  0  0  0  0  0  0  0  0  0
   -3.4189   -0.1677   -2.0641 O   0  0  0  0  0  0  0  0  0  0  0  0
   -3.9197   -1.9833   -0.3911 O   0  0  0  0  0  0  0  0  0  0  0  0
   -7.5115    1.7967    0.8352 O   0  0  0  0  0  0  0  0  0  0  0  0
    6.2833    1.1535   -0.3115 O   0  0  0  0  0  0  0  0  0  0  0  0
    5.4151   -0.4613    1.0558 O   0  0  0  0  0  0  0  0  0  0  0  0
    1.7264    0.7234   -0.9371 N   0  0  0  0  0  0  0  0  0  0  0  0
    2.4291   -0.7073    0.6118 N   0  0  0  0  0  0  0  0  0  0  0  0
    4.0464    0.7451   -0.4278 N   0  0  0  0  0  0  0  0  0  0  0  0
   -4.0224    0.4984    0.3990 C   0  0  0  0  0  0  0  0  0  0  0  0
   -1.6243   -0.7435   -0.2802 C   0  0  0  0  0  0  0  0  0  0  0  0
   -5.5124    0.6670    0.1592 C   0  0  0  0  0  0  0  0  0  0  0  0
    0.6068    0.0427   -0.5326 C   0  0  0  0  0  0  0  0  0  0  0  0
   -0.7318    0.1242   -0.9179 C   0  0  0  0  0  0  0  0  0  0  0  0
    1.0715   -0.8442    0.4343 C   0  0  0  0  0  0  0  0  0  0  0  0
   -1.1882   -1.6444    0.6941 C   0  0  0  0  0  0  0  0  0  0  0  0
    0.1608   -1.7086    1.0650 C   0  0  0  0  0  0  0  0  0  0  0  0
   -6.1250    1.6743    1.1205 C   0  0  0  0  0  0  0  0  0  0  0  0
    2.7887    0.2399   -0.2252 C   0  0  0  0  0  0  0  0  0  0  0  0
    5.2613    0.3931    0.1916 C   0  0  0  0  0  0  0  0  0  0  0  0
    7.5832    0.8994    0.2336 C   0  0  0  0  0  0  0  0  0  0  0  0
   -3.8321    0.1499    1.4193 H   0  0  0  0  0  0  0  0  0  0  0  0
   -3.4956    1.4449    0.2412 H   0  0  0  0  0  0  0  0  0  0  0  0
   -6.0283   -0.2958    0.2629 H   0  0  0  0  0  0  0  0  0  0  0  0
   -5.7013    0.9870   -0.8732 H   0  0  0  0  0  0  0  0  0  0  0  0
   -1.0491    0.8362   -1.6714 H   0  0  0  0  0  0  0  0  0  0  0  0
   -1.8886   -2.3110    1.1912 H   0  0  0  0  0  0  0  0  0  0  0  0
    0.4898   -2.4109    1.8242 H   0  0  0  0  0  0  0  0  0  0  0  0
   -5.6651    2.6601    1.0021 H   0  0  0  0  0  0  0  0  0  0  0  0
   -6.0082    1.3596    2.1624 H   0  0  0  0  0  0  0  0  0  0  0  0
    1.7605    1.4525   -1.6369 H   0  0  0  0  0  0  0  0  0  0  0  0
    4.1126    1.4813   -1.1268 H   0  0  0  0  0  0  0  0  0  0  0  0
   -7.9180    0.9241    0.9729 H   0  0  0  0  0  0  0  0  0  0  0  0
    7.5892    1.1035    1.3085 H   0  0  0  0  0  0  0  0  0  0  0  0
    8.2936    1.5714   -0.2553 H   0  0  0  0  0  0  0  0  0  0  0  0
    7.8821   -0.1338    0.0332 H   0  0  0  0  0  0  0  0  0  0  0  0
  1  2  2  0  0  0  0
  1  3  2  0  0  0  0
  1 10  1  0  0  0  0
  1 11  1  0  0  0  0
  4 18  1  0  0  0  0
  4 33  1  0  0  0  0
  5 20  1  0  0  0  0
  5 21  1  0  0  0  0
  6 20  2  0  0  0  0
  7 13  1  0  0  0  0
  7 19  1  0  0  0  0
  7 31  1  0  0  0  0
  8 15  1  0  0  0  0
  8 19  2  0  0  0  0
  9 19  1  0  0  0  0
  9 20  1  0  0  0  0
  9 32  1  0  0  0  0
 10 12  1  0  0  0  0
 10 22  1  0  0  0  0
 10 23  1  0  0  0  0
 11 14  2  0  0  0  0
 11 16  1  0  0  0  0
 12 18  1  0  0  0  0
 12 24  1  0  0  0  0
 12 25  1  0  0  0  0
 13 14  1  0  0  0  0
 13 15  2  0  0  0  0
 14 26  1  0  0  0  0
 15 17  1  0  0  0  0
 16 17  2  0  0  0  0
 16 27  1  0  0  0  0
 17 28  1  0  0  0  0
 18 29  1  0  0  0  0
 18 30  1  0  0  0  0
 21 34  1  0  0  0  0
 21 35  1  0  0  0  0
 21 36  1  0  0  0  0
M  END
> <PUBCHEM_COMPOUND_CID>
134031

> <PUBCHEM_CONFORMER_RMSD>
0.8

> <PUBCHEM_CONFORMER_DIVERSEORDER>
1
30
13
15
12
28
10
2
29
6
21
24
16
19
4
14
3
25
11
9
23
17
7
31
8
27
22
5
18
20
26

> <PUBCHEM_MMFF94_PARTIAL_CHARGES>
26
1 1.2
10 0.11
11 -0.01
13 -0.15
14 -0.15
15 0.23
16 -0.15
17 -0.15
18 0.28
19 0.25
2 -0.65
20 0.78
21 0.28
26 0.15
27 0.15
28 0.15
3 -0.65
31 0.27
32 0.37
33 0.4
4 -0.68
5 -0.43
6 -0.57
7 0.03
8 -0.57
9 -0.49

> <PUBCHEM_EFFECTIVE_ROTOR_COUNT>
7

> <PUBCHEM_PHARMACOPHORE_FEATURES>
9
1 2 acceptor
1 3 acceptor
1 4 acceptor
1 4 donor
1 6 acceptor
1 7 donor
1 9 donor
5 7 8 13 15 19 rings
6 11 13 14 15 16 17 rings

> <PUBCHEM_HEAVY_ATOM_COUNT>
21

> <PUBCHEM_ATOM_DEF_STEREO_COUNT>
0

> <PUBCHEM_ATOM_UDEF_STEREO_COUNT>
0

> <PUBCHEM_BOND_DEF_STEREO_COUNT>
0

> <PUBCHEM_BOND_UDEF_STEREO_COUNT>
0

> <PUBCHEM_ISOTOPIC_ATOM_COUNT>
0

> <PUBCHEM_COMPONENT_COUNT>
1

> <PUBCHEM_CACTVS_TAUTO_COUNT>
5

> <PUBCHEM_CONFORMER_ID>
00020B8F00000001

> <PUBCHEM_MMFF94_ENERGY>
27.6372

> <PUBCHEM_FEATURE_SELFOVERLAP>
45.83

> <PUBCHEM_SHAPE_FINGERPRINT>
10 15 17632857546948725817
106641 1 18131062728683737777
10906281 52 18201706328945368966
11089746 13 18259991466019396645
11315181 36 18341335474518592391
117890 112 18260547814512898112
12091667 2 17676770877146264142
12236239 1 18408324401868133211
12670543 26 14056714673325352553
13533116 47 18337679706717149194
13540713 4 16771842193308195183
13540713 5 17057785327169867855
14251764 18 18201719526704733555
14849402 71 18129091230345713244
15048467 5 18333449854438927321
15716309 27 13614520749024863800
15778101 99 18335417959257779755
17834072 8 14634590475640057549
18769570 83 18040997362369162545
20281389 69 18411982481122202233
20526848 3 18334288803934915409
20621476 66 18412821378555797396
21150785 3 8286193951177097136
21756936 100 18335421262414716975
21792961 116 15502369024034734423
220451 1 18060703875457235250
22224240 67 17632292376739585243
23402539 116 18187650176094871734
23536379 177 17967532372236367590
23559900 14 18200037219092634636
2838139 119 17894633651782572865
300161 21 17167864174982497382
3009799 131 14634870859526224762
4340502 62 14979959185753759912
5104073 3 17631454454295325280
5385378 56 18130789005527352330
54039377 194 8790589426448369657
7226269 152 18410013238548434088

> <PUBCHEM_SHAPE_MULTIPOLES>
391.73
17.61
1.61
1.15
8.31
0.23
0.22
-11.96
-4.14
-1.84
-0.43
-0.93
0.03
-1.54

> <PUBCHEM_SHAPE_SELFOVERLAP>
811.089

> <PUBCHEM_SHAPE_VOLUME>
225.3

> <PUBCHEM_COORDINATE_TYPE>
2
5
10

$$$$

