36250
  -OEChem-07051213133D

 29 30  0     0  0  0  0  0  0999 V2000
    2.8742   -1.5281   -2.3644 Cl  0  0  0  0  0  0  0  0  0  0  0  0
    5.3830    2.0414    0.7944 Cl  0  0  0  0  0  0  0  0  0  0  0  0
    0.9763   -1.7504   -0.0438 O   0  0  0  0  0  0  0  0  0  0  0  0
   -2.2048    1.5905   -1.2267 O   0  0  0  0  0  0  0  0  0  0  0  0
   -5.0650   -0.3878    0.9059 O   0  5  0  0  0  0  0  0  0  0  0  0
   -4.5009    1.3165   -0.3576 O   0  0  0  0  0  0  0  0  0  0  0  0
   -4.2167    0.2514    0.2397 N   0  3  0  0  0  0  0  0  0  0  0  0
   -0.2907   -1.2578    0.0224 C   0  0  0  0  0  0  0  0  0  0  0  0
   -1.9129    0.4312   -0.5714 C   0  0  0  0  0  0  0  0  0  0  0  0
   -2.8877   -0.2482    0.1591 C   0  0  0  0  0  0  0  0  0  0  0  0
   -0.6144   -0.0735   -0.6398 C   0  0  0  0  0  0  0  0  0  0  0  0
   -1.2655   -1.9372    0.7530 C   0  0  0  0  0  0  0  0  0  0  0  0
   -2.5640   -1.4324    0.8215 C   0  0  0  0  0  0  0  0  0  0  0  0
    2.0229   -0.8607    0.1319 C   0  0  0  0  0  0  0  0  0  0  0  0
    2.9609   -0.6738   -0.8681 C   0  0  0  0  0  0  0  0  0  0  0  0
    2.0960   -0.1733    1.3317 C   0  0  0  0  0  0  0  0  0  0  0  0
    4.0048    0.2283   -0.6629 C   0  0  0  0  0  0  0  0  0  0  0  0
    3.1400    0.7287    1.5368 C   0  0  0  0  0  0  0  0  0  0  0  0
    4.0944    0.9295    0.5396 C   0  0  0  0  0  0  0  0  0  0  0  0
   -2.0300    2.8055   -0.5015 C   0  0  0  0  0  0  0  0  0  0  0  0
    0.1247    0.4623   -1.2301 H   0  0  0  0  0  0  0  0  0  0  0  0
   -1.0185   -2.8598    1.2712 H   0  0  0  0  0  0  0  0  0  0  0  0
   -3.2951   -1.9905    1.4008 H   0  0  0  0  0  0  0  0  0  0  0  0
    1.3670   -0.3280    2.1218 H   0  0  0  0  0  0  0  0  0  0  0  0
    4.7500    0.3857   -1.4397 H   0  0  0  0  0  0  0  0  0  0  0  0
    3.1987    1.2663    2.4799 H   0  0  0  0  0  0  0  0  0  0  0  0
   -0.9698    3.0777   -0.4960 H   0  0  0  0  0  0  0  0  0  0  0  0
   -2.3907    2.7257    0.5294 H   0  0  0  0  0  0  0  0  0  0  0  0
   -2.5894    3.5948   -1.0111 H   0  0  0  0  0  0  0  0  0  0  0  0
  1 15  1  0  0  0  0
  2 19  1  0  0  0  0
  3  8  1  0  0  0  0
  3 14  1  0  0  0  0
  4  9  1  0  0  0  0
  4 20  1  0  0  0  0
  5  7  1  0  0  0  0
  6  7  2  0  0  0  0
  7 10  1  0  0  0  0
  8 11  2  0  0  0  0
  8 12  1  0  0  0  0
  9 10  2  0  0  0  0
  9 11  1  0  0  0  0
 10 13  1  0  0  0  0
 11 21  1  0  0  0  0
 12 13  2  0  0  0  0
 12 22  1  0  0  0  0
 13 23  1  0  0  0  0
 14 15  2  0  0  0  0
 14 16  1  0  0  0  0
 15 17  1  0  0  0  0
 16 18  2  0  0  0  0
 16 24  1  0  0  0  0
 17 19  2  0  0  0  0
 17 25  1  0  0  0  0
 18 19  1  0  0  0  0
 18 26  1  0  0  0  0
 20 27  1  0  0  0  0
 20 28  1  0  0  0  0
 20 29  1  0  0  0  0
M  CHG  2   5  -1   7   1
M  END
> <PUBCHEM_COMPOUND_CID>
36250

> <PUBCHEM_CONFORMER_RMSD>
0.6

> <PUBCHEM_CONFORMER_DIVERSEORDER>
1
10
7
26
18
28
19
24
21
25
11
9
15
3
8
22
5
27
14
20
6
2
12
16
13
17
23
4

> <PUBCHEM_MMFF94_PARTIAL_CHARGES>
26
1 -0.18
10 0.13
11 -0.15
12 -0.15
13 -0.15
14 0.08
15 0.18
16 -0.15
17 -0.15
18 -0.15
19 0.18
2 -0.18
20 0.28
21 0.15
22 0.15
23 0.15
24 0.15
25 0.15
26 0.15
3 -0.17
4 -0.36
5 -0.52
6 -0.52
7 0.91
8 0.08
9 0.08

> <PUBCHEM_EFFECTIVE_ROTOR_COUNT>
4

> <PUBCHEM_PHARMACOPHORE_FEATURES>
7
1 3 acceptor
1 4 acceptor
1 5 acceptor
1 5 anion
1 6 acceptor
6 14 15 16 17 18 19 rings
6 8 9 10 11 12 13 rings

> <PUBCHEM_HEAVY_ATOM_COUNT>
20

> <PUBCHEM_ATOM_DEF_STEREO_COUNT>
0

> <PUBCHEM_ATOM_UDEF_STEREO_COUNT>
0

> <PUBCHEM_BOND_DEF_STEREO_COUNT>
0

> <PUBCHEM_BOND_UDEF_STEREO_COUNT>
0

> <PUBCHEM_ISOTOPIC_ATOM_COUNT>
0

> <PUBCHEM_COMPONENT_COUNT>
1

> <PUBCHEM_CACTVS_TAUTO_COUNT>
1

> <PUBCHEM_CONFORMER_ID>
00008D9A00000001

> <PUBCHEM_MMFF94_ENERGY>
79.3236

> <PUBCHEM_FEATURE_SELFOVERLAP>
35.625

> <PUBCHEM_SHAPE_FINGERPRINT>
10498660 4 18342459291556473229
11132069 177 18343298154630316959
11543360 7 17095533893882415951
12173636 292 18272092746533706447
12236239 1 16630520735344817262
12403259 415 18340767143008000933
12403814 3 16558756702405967127
12555020 224 8502659194910427657
12596602 18 16630246918279185592
12730499 353 17895184476958771894
13140716 1 17986104107008015049
13402501 40 18408889507816464272
13764800 53 18343864432856215250
13965767 371 17056691618174933484
14341114 176 18060423508523967640
14341114 328 16845569782072714360
18186145 218 18041281057738333115
19050596 39 16630244723355393546
19862831 5 14490194886350401042
20510252 161 18341894138522030505
20645477 56 18410291398052764302
20645477 70 17385996300113609534
20715895 44 16412971493759539101
21486144 27 17748828488306155562
23114952 82 18040427832931667974
23227448 37 18265056833877416820
23402655 69 16950559961376192522
23557571 272 18267851822589983486
23559900 14 18200865296459613590
25 1 17603304817820106042
26918003 58 13758081778871402827
350125 39 18057323005354757738
3524813 1 18334867086536513592
5104073 3 18201437047201334305
5281201 14 17895750832805006228
633830 44 18042124422233230909
6442390 28 18410007711015422062
7097593 13 16843905237411461922
7808743 9 18268714909690937384
90316 7 16773525467762579309

> <PUBCHEM_SHAPE_MULTIPOLES>
386.87
9.88
2.23
1.47
0.05
0.83
0.4
4.67
-1.3
-0.11
0.43
-0.96
-0.34
2.21

> <PUBCHEM_SHAPE_SELFOVERLAP>
817.711

> <PUBCHEM_SHAPE_VOLUME>
218.8

> <PUBCHEM_COORDINATE_TYPE>
2
5
10

$$$$

