9721
  -OEChem-06261203593D

 18 18  0     0  0  0  0  0  0999 V2000
    0.8609   -0.0392   -1.4145 S   0  0  0  0  0  0  0  0  0  0  0  0
    4.1797    0.0322    0.7267 F   0  0  0  0  0  0  0  0  0  0  0  0
    1.5451    0.0243    1.1395 O   0  0  0  0  0  0  0  0  0  0  0  0
   -0.7370   -0.0167   -0.6252 C   0  0  0  0  0  0  0  0  0  0  0  0
   -1.3603    1.1997   -0.3466 C   0  0  0  0  0  0  0  0  0  0  0  0
   -1.3644   -1.2156   -0.2861 C   0  0  0  0  0  0  0  0  0  0  0  0
   -2.6108    1.2175    0.2710 C   0  0  0  0  0  0  0  0  0  0  0  0
   -2.6150   -1.1978    0.3315 C   0  0  0  0  0  0  0  0  0  0  0  0
   -3.2381    0.0187    0.6100 C   0  0  0  0  0  0  0  0  0  0  0  0
    1.9416   -0.0057   -0.0194 C   0  0  0  0  0  0  0  0  0  0  0  0
    3.3982   -0.0174   -0.3870 C   0  0  0  0  0  0  0  0  0  0  0  0
   -0.8866    2.1443   -0.6030 H   0  0  0  0  0  0  0  0  0  0  0  0
   -0.8941   -2.1735   -0.4947 H   0  0  0  0  0  0  0  0  0  0  0  0
   -3.0960    2.1646    0.4882 H   0  0  0  0  0  0  0  0  0  0  0  0
   -3.1037   -2.1311    0.5959 H   0  0  0  0  0  0  0  0  0  0  0  0
   -4.2117    0.0325    1.0910 H   0  0  0  0  0  0  0  0  0  0  0  0
    3.6416    0.8551   -0.9992 H   0  0  0  0  0  0  0  0  0  0  0  0
    3.6452   -0.9374   -0.9234 H   0  0  0  0  0  0  0  0  0  0  0  0
  1  4  1  0  0  0  0
  1 10  1  0  0  0  0
  2 11  1  0  0  0  0
  3 10  2  0  0  0  0
  4  5  2  0  0  0  0
  4  6  1  0  0  0  0
  5  7  1  0  0  0  0
  5 12  1  0  0  0  0
  6  8  2  0  0  0  0
  6 13  1  0  0  0  0
  7  9  2  0  0  0  0
  7 14  1  0  0  0  0
  8  9  1  0  0  0  0
  8 15  1  0  0  0  0
  9 16  1  0  0  0  0
 10 11  1  0  0  0  0
 11 17  1  0  0  0  0
 11 18  1  0  0  0  0
M  END
> <PUBCHEM_COMPOUND_CID>
9721

> <PUBCHEM_CONFORMER_RMSD>
0.6

> <PUBCHEM_CONFORMER_DIVERSEORDER>
1
14
20
13
9
21
18
11
23
12
15
5
22
10
16
3
19
2
6
17
4
7
8

> <PUBCHEM_MMFF94_PARTIAL_CHARGES>
16
1 -0.24
10 0.65
11 0.4
12 0.15
13 0.15
14 0.15
15 0.15
16 0.15
2 -0.34
3 -0.57
4 0.1
5 -0.15
6 -0.15
7 -0.15
8 -0.15
9 -0.15

> <PUBCHEM_EFFECTIVE_ROTOR_COUNT>
3

> <PUBCHEM_PHARMACOPHORE_FEATURES>
1
6 4 5 6 7 8 9 rings

> <PUBCHEM_HEAVY_ATOM_COUNT>
11

> <PUBCHEM_ATOM_DEF_STEREO_COUNT>
0

> <PUBCHEM_ATOM_UDEF_STEREO_COUNT>
0

> <PUBCHEM_BOND_DEF_STEREO_COUNT>
0

> <PUBCHEM_BOND_UDEF_STEREO_COUNT>
0

> <PUBCHEM_ISOTOPIC_ATOM_COUNT>
0

> <PUBCHEM_COMPONENT_COUNT>
1

> <PUBCHEM_CACTVS_TAUTO_COUNT>
1

> <PUBCHEM_CONFORMER_ID>
000025F900000001

> <PUBCHEM_MMFF94_ENERGY>
19.65

> <PUBCHEM_FEATURE_SELFOVERLAP>
5.074

> <PUBCHEM_SHAPE_FINGERPRINT>
10857977 72 18334565824861228133
11031198 65 16370716050179899636
12251169 10 18410570673737044732
124424 183 17822013154956118646
12897270 3 10015580592858554125
12932764 1 17675929793822001182
13024252 1 14620796016038436317
15219456 202 17822562919064639958
15775835 57 18411415154696891619
19422 9 17917705803726472502
20201158 50 17458339766736493119
20645464 45 17894906343450293135
20653085 51 14779555573271699323
20711985 344 13254259188488972623
20871998 184 18261665974815203911
22445834 79 17775286092418591171
23235685 24 16153427259437216110
23402539 116 18260555515716197399
369184 2 17894630370469132911
75552 356 18341609300390540287
77492 1 17632281359436327446

> <PUBCHEM_SHAPE_MULTIPOLES>
217.08
6.05
1.16
1.06
4.48
0
0.14
-0.04
-1.76
-1.05
0.03
0.43
0
0.03

> <PUBCHEM_SHAPE_SELFOVERLAP>
430.606

> <PUBCHEM_SHAPE_VOLUME>
129.3

> <PUBCHEM_COORDINATE_TYPE>
2
5
10

$$$$

