17395327
  -OEChem-06241222493D

 39 40  0     0  0  0  0  0  0999 V2000
    5.3868   -2.1292    0.0686 O   0  0  0  0  0  0  0  0  0  0  0  0
    4.3678    2.5257   -0.2092 O   0  0  0  0  0  0  0  0  0  0  0  0
    0.3304   -1.7310    0.5516 O   0  0  0  0  0  0  0  0  0  0  0  0
   -6.2639   -0.5049   -2.1377 O   0  0  0  0  0  0  0  0  0  0  0  0
   -1.7732    1.1365    1.3554 O   0  0  0  0  0  0  0  0  0  0  0  0
   -0.1066    0.2116   -0.6310 N   0  0  0  0  0  0  0  0  0  0  0  0
   -1.4637   -0.0110   -0.6322 N   0  0  0  0  0  0  0  0  0  0  0  0
    2.1679   -0.3928   -0.0322 C   0  0  0  0  0  0  0  0  0  0  0  0
    2.5913    0.9338   -0.1127 C   0  0  0  0  0  0  0  0  0  0  0  0
    3.1071   -1.4223    0.0290 C   0  0  0  0  0  0  0  0  0  0  0  0
    4.4698   -1.1249    0.0097 C   0  0  0  0  0  0  0  0  0  0  0  0
    3.9539    1.2311   -0.1320 C   0  0  0  0  0  0  0  0  0  0  0  0
    4.8932    0.2017   -0.0708 C   0  0  0  0  0  0  0  0  0  0  0  0
    0.7160   -0.7091   -0.0107 C   0  0  0  0  0  0  0  0  0  0  0  0
   -3.6748    0.1982    0.3498 C   0  0  0  0  0  0  0  0  0  0  0  0
   -2.2507    0.4870    0.4074 C   0  0  0  0  0  0  0  0  0  0  0  0
   -4.2938   -0.0170   -0.8816 C   0  0  0  0  0  0  0  0  0  0  0  0
   -4.4217    0.1358    1.5262 C   0  0  0  0  0  0  0  0  0  0  0  0
   -5.6596   -0.2948   -0.9364 C   0  0  0  0  0  0  0  0  0  0  0  0
   -5.7875   -0.1419    1.4714 C   0  0  0  0  0  0  0  0  0  0  0  0
   -6.4064   -0.3572    0.2401 C   0  0  0  0  0  0  0  0  0  0  0  0
    6.7630   -1.7540    0.0447 C   0  0  0  0  0  0  0  0  0  0  0  0
    3.3548    3.5286   -0.2672 C   0  0  0  0  0  0  0  0  0  0  0  0
    1.8408    1.7144   -0.1206 H   0  0  0  0  0  0  0  0  0  0  0  0
    2.7904   -2.4608    0.0875 H   0  0  0  0  0  0  0  0  0  0  0  0
    5.9372    0.4969   -0.0895 H   0  0  0  0  0  0  0  0  0  0  0  0
    0.2072    1.0261   -1.1465 H   0  0  0  0  0  0  0  0  0  0  0  0
   -1.8108   -0.5875   -1.3909 H   0  0  0  0  0  0  0  0  0  0  0  0
   -3.7423    0.0531   -1.8151 H   0  0  0  0  0  0  0  0  0  0  0  0
   -3.9575    0.2959    2.4959 H   0  0  0  0  0  0  0  0  0  0  0  0
   -6.3689   -0.1917    2.3874 H   0  0  0  0  0  0  0  0  0  0  0  0
   -7.4706   -0.5734    0.2038 H   0  0  0  0  0  0  0  0  0  0  0  0
    7.0297   -1.2612   -0.8964 H   0  0  0  0  0  0  0  0  0  0  0  0
    7.0315   -1.1523    0.9197 H   0  0  0  0  0  0  0  0  0  0  0  0
    7.3503   -2.6765    0.0994 H   0  0  0  0  0  0  0  0  0  0  0  0
    2.7391    3.4296   -1.1679 H   0  0  0  0  0  0  0  0  0  0  0  0
    2.7548    3.5486    0.6489 H   0  0  0  0  0  0  0  0  0  0  0  0
    3.8631    4.4961   -0.3349 H   0  0  0  0  0  0  0  0  0  0  0  0
   -5.6004   -0.4263   -2.8443 H   0  0  0  0  0  0  0  0  0  0  0  0
  1 11  1  0  0  0  0
  1 22  1  0  0  0  0
  2 12  1  0  0  0  0
  2 23  1  0  0  0  0
  3 14  2  0  0  0  0
  4 19  1  0  0  0  0
  4 39  1  0  0  0  0
  5 16  2  0  0  0  0
  6  7  1  0  0  0  0
  6 14  1  0  0  0  0
  6 27  1  0  0  0  0
  7 16  1  0  0  0  0
  7 28  1  0  0  0  0
  8  9  2  0  0  0  0
  8 10  1  0  0  0  0
  8 14  1  0  0  0  0
  9 12  1  0  0  0  0
  9 24  1  0  0  0  0
 10 11  2  0  0  0  0
 10 25  1  0  0  0  0
 11 13  1  0  0  0  0
 12 13  2  0  0  0  0
 13 26  1  0  0  0  0
 15 16  1  0  0  0  0
 15 17  2  0  0  0  0
 15 18  1  0  0  0  0
 17 19  1  0  0  0  0
 17 29  1  0  0  0  0
 18 20  2  0  0  0  0
 18 30  1  0  0  0  0
 19 21  2  0  0  0  0
 20 21  1  0  0  0  0
 20 31  1  0  0  0  0
 21 32  1  0  0  0  0
 22 33  1  0  0  0  0
 22 34  1  0  0  0  0
 22 35  1  0  0  0  0
 23 36  1  0  0  0  0
 23 37  1  0  0  0  0
 23 38  1  0  0  0  0
M  END
> <PUBCHEM_COMPOUND_CID>
17395327

> <PUBCHEM_CONFORMER_RMSD>
0.8

> <PUBCHEM_CONFORMER_DIVERSEORDER>
7
20
23
2
17
19
9
27
21
15
11
5
13
25
4
22
26
18
14
8
16
10
12
6
3
1
24

> <PUBCHEM_MMFF94_PARTIAL_CHARGES>
33
1 -0.36
10 -0.15
11 0.08
12 0.08
13 -0.15
14 0.54
15 0.09
16 0.54
17 -0.15
18 -0.15
19 0.08
2 -0.36
20 -0.15
21 -0.15
22 0.28
23 0.28
24 0.15
25 0.15
26 0.15
27 0.37
28 0.37
29 0.15
3 -0.57
30 0.15
31 0.15
32 0.15
39 0.45
4 -0.53
5 -0.57
6 -0.43
7 -0.43
8 0.09
9 -0.15

> <PUBCHEM_EFFECTIVE_ROTOR_COUNT>
7

> <PUBCHEM_PHARMACOPHORE_FEATURES>
9
1 1 acceptor
1 2 acceptor
1 3 acceptor
1 4 donor
1 5 acceptor
1 6 donor
1 7 donor
6 15 17 18 19 20 21 rings
6 8 9 10 11 12 13 rings

> <PUBCHEM_HEAVY_ATOM_COUNT>
23

> <PUBCHEM_ATOM_DEF_STEREO_COUNT>
0

> <PUBCHEM_ATOM_UDEF_STEREO_COUNT>
0

> <PUBCHEM_BOND_DEF_STEREO_COUNT>
0

> <PUBCHEM_BOND_UDEF_STEREO_COUNT>
0

> <PUBCHEM_ISOTOPIC_ATOM_COUNT>
0

> <PUBCHEM_COMPONENT_COUNT>
1

> <PUBCHEM_CACTVS_TAUTO_COUNT>
21

> <PUBCHEM_CONFORMER_ID>
01096E7F00000007

> <PUBCHEM_MMFF94_ENERGY>
81.977

> <PUBCHEM_FEATURE_SELFOVERLAP>
47.199

> <PUBCHEM_SHAPE_FINGERPRINT>
10366900 7 17417806292470216080
10411042 1 18267866280589079246
10763959 59 18131634491040119332
10912923 1 17894345566929678081
11045977 3 17988917851541972906
11315181 36 16917057893480269815
11796584 16 13038897833034818032
12166972 35 18186801405117071384
12236239 1 18040436590201146773
12403259 415 17704354368433731269
12616971 3 18187078460340169293
12916748 109 14923940167287063050
13167372 99 18261104218715036849
13533116 47 18409446977644466016
13760787 5 18334856108805404209
13782708 43 17703792582554129994
13911852 28 18052822730760386314
14170010 4 18410857651606104608
1420 363 17989200460754052739
14251764 18 18187083966936674730
14528608 73 17967812700409545137
14848160 23 17846495929006337723
14849402 71 17676778574376765632
15419008 47 17561085817117616037
15475509 35 16702037396038306600
1577012 14 17967526861455878969
16079462 125 17489601034736475661
17844677 252 18411696616931508341
19489759 90 15913326901607172499
200 152 18410013260692663745
20028762 73 18187085087501776462
20612939 158 18410575067873723412
21033648 29 17417821616697406301
21033650 10 15720768317284357610
21267235 1 18337102475976265326
21315759 40 17603588538658712655
21315763 129 18411699928145584589
21709351 56 18337955704813920253
22061861 79 18131353011952615447
221357 26 18343585170431461276
2303208 19 17632005395303636067
23035841 295 17676489445752384863
23081809 10 17894629236650592113
23402539 116 17822013146556036155
23522609 53 17678151859952260385
23559900 14 17203886370557404419
335352 9 18411133625019658430
34797466 226 16844998035920853853
4015057 19 18338797815173378993
5104073 3 18339361851500461698
5283173 99 17060066994729364269
54446538 1 18334292093214887961

> <PUBCHEM_SHAPE_MULTIPOLES>
434.02
18.02
2.18
1.16
9.06
1.8
0.09
-4.43
1.13
-5.57
0.05
2.63
-0.03
-0.68

> <PUBCHEM_SHAPE_SELFOVERLAP>
926.17

> <PUBCHEM_SHAPE_VOLUME>
240.6

> <PUBCHEM_COORDINATE_TYPE>
2
5
10

$$$$

