47204992
  -OEChem-06241222572D

 33 35  0     0  0  0  0  0  0999 V2000
   10.3303   -1.8544    0.0000 O   0  0  0  0  0  0  0  0  0  0  0  0
    7.6279    1.8264    0.0000 O   0  0  0  0  0  0  0  0  0  0  0  0
    5.5443    1.7651    0.0000 N   0  0  0  0  0  0  0  0  0  0  0  0
    7.6279    0.0943    0.0000 N   0  0  0  0  0  0  0  0  0  0  0  0
    4.5981    0.4603    0.0000 C   0  0  0  0  0  0  0  0  0  0  0  0
    4.5981    1.4603    0.0000 C   0  0  0  0  0  0  0  0  0  0  0  0
    6.1279    0.9603    0.0000 C   0  0  0  0  0  0  0  0  0  0  0  0
    5.5443    0.1556    0.0000 C   0  0  0  0  0  0  0  0  0  0  0  0
    3.7320   -0.0397    0.0000 C   0  0  0  0  0  0  0  0  0  0  0  0
    2.8660    0.4603    0.0000 C   0  0  0  0  0  0  0  0  0  0  0  0
    3.7320    1.9603    0.0000 C   0  0  0  0  0  0  0  0  0  0  0  0
    7.1279    0.9603    0.0000 C   0  0  0  0  0  0  0  0  0  0  0  0
    2.8660    1.4603    0.0000 C   0  0  0  0  0  0  0  0  0  0  0  0
    8.6279    0.0943    0.0000 C   0  0  0  0  0  0  0  0  0  0  0  0
    9.1279   -0.7717    0.0000 C   0  0  0  0  0  0  0  0  0  0  0  0
    2.0000   -0.0397    0.0000 C   0  0  0  0  0  0  0  0  0  0  0  0
    8.7212   -1.6853    0.0000 C   0  0  0  0  0  0  0  0  0  0  0  0
   10.1224   -0.8762    0.0000 C   0  0  0  0  0  0  0  0  0  0  0  0
    9.4643   -2.3544    0.0000 C   0  0  0  0  0  0  0  0  0  0  0  0
    5.7369   -0.4337    0.0000 H   0  0  0  0  0  0  0  0  0  0  0  0
    5.7369    2.3544    0.0000 H   0  0  0  0  0  0  0  0  0  0  0  0
    3.7320   -0.6597    0.0000 H   0  0  0  0  0  0  0  0  0  0  0  0
    3.7320    2.5803    0.0000 H   0  0  0  0  0  0  0  0  0  0  0  0
    9.2105    0.3064    0.0000 H   0  0  0  0  0  0  0  0  0  0  0  0
    8.5202    0.7049    0.0000 H   0  0  0  0  0  0  0  0  0  0  0  0
    2.3291    1.7703    0.0000 H   0  0  0  0  0  0  0  0  0  0  0  0
    7.3179   -0.4426    0.0000 H   0  0  0  0  0  0  0  0  0  0  0  0
    1.6900    0.4973    0.0000 H   0  0  0  0  0  0  0  0  0  0  0  0
    1.4631   -0.3497    0.0000 H   0  0  0  0  0  0  0  0  0  0  0  0
    2.3100   -0.5766    0.0000 H   0  0  0  0  0  0  0  0  0  0  0  0
    8.1147   -1.8142    0.0000 H   0  0  0  0  0  0  0  0  0  0  0  0
   10.5373   -0.4155    0.0000 H   0  0  0  0  0  0  0  0  0  0  0  0
    9.3995   -2.9710    0.0000 H   0  0  0  0  0  0  0  0  0  0  0  0
  1 18  1  0  0  0  0
  1 19  1  0  0  0  0
  2 12  2  0  0  0  0
  3  6  1  0  0  0  0
  3  7  1  0  0  0  0
  3 21  1  0  0  0  0
  4 12  1  0  0  0  0
  4 14  1  0  0  0  0
  4 27  1  0  0  0  0
  5  6  2  0  0  0  0
  5  8  1  0  0  0  0
  5  9  1  0  0  0  0
  6 11  1  0  0  0  0
  7  8  2  0  0  0  0
  7 12  1  0  0  0  0
  8 20  1  0  0  0  0
  9 10  2  0  0  0  0
  9 22  1  0  0  0  0
 10 13  1  0  0  0  0
 10 16  1  0  0  0  0
 11 13  2  0  0  0  0
 11 23  1  0  0  0  0
 13 26  1  0  0  0  0
 14 15  1  0  0  0  0
 14 24  1  0  0  0  0
 14 25  1  0  0  0  0
 15 17  1  0  0  0  0
 15 18  2  0  0  0  0
 16 28  1  0  0  0  0
 16 29  1  0  0  0  0
 16 30  1  0  0  0  0
 17 19  2  0  0  0  0
 17 31  1  0  0  0  0
 18 32  1  0  0  0  0
 19 33  1  0  0  0  0
M  END
> <PUBCHEM_COMPOUND_CID>
47204992

> <PUBCHEM_COMPOUND_CANONICALIZED>
1

> <PUBCHEM_CACTVS_COMPLEXITY>
334

> <PUBCHEM_CACTVS_HBOND_ACCEPTOR>
2

> <PUBCHEM_CACTVS_HBOND_DONOR>
2

> <PUBCHEM_CACTVS_ROTATABLE_BOND>
3

> <PUBCHEM_CACTVS_SUBSKEYS>
AAADccBzMAAAAAAAAAAAAAAAAAAAAWJAAAAwAAAAAAAAAFgB/AAAHgAQAAAADAjhngYyxPLJlECoAy1y1ACCiCAnIiAImaG+bNgMZvrEtbuWOSjm1hHI6Yc8icCeCAACAAACAAAQAAQAAAQAAAAAAAAAAA==

> <PUBCHEM_IUPAC_OPENEYE_NAME>
N-(3-furylmethyl)-5-methyl-1H-indole-2-carboxamide

> <PUBCHEM_IUPAC_CAS_NAME>
N-(3-furanylmethyl)-5-methyl-1H-indole-2-carboxamide

> <PUBCHEM_IUPAC_NAME>
N-(furan-3-ylmethyl)-5-methyl-1H-indole-2-carboxamide

> <PUBCHEM_IUPAC_SYSTEMATIC_NAME>
N-(furan-3-ylmethyl)-5-methyl-1H-indole-2-carboxamide

> <PUBCHEM_IUPAC_TRADITIONAL_NAME>
N-(3-furfuryl)-5-methyl-1H-indole-2-carboxamide

> <PUBCHEM_IUPAC_INCHI>
InChI=1S/C15H14N2O2/c1-10-2-3-13-12(6-10)7-14(17-13)15(18)16-8-11-4-5-19-9-11/h2-7,9,17H,8H2,1H3,(H,16,18)

> <PUBCHEM_IUPAC_INCHIKEY>
VQHALLRVZFVZIK-UHFFFAOYSA-N

> <PUBCHEM_XLOGP3_AA>
2.6

> <PUBCHEM_EXACT_MASS>
254.105528

> <PUBCHEM_MOLECULAR_FORMULA>
C15H14N2O2

> <PUBCHEM_MOLECULAR_WEIGHT>
254.28386

> <PUBCHEM_OPENEYE_CAN_SMILES>
CC1=CC2=C(C=C1)NC(=C2)C(=O)NCC3=COC=C3

> <PUBCHEM_OPENEYE_ISO_SMILES>
CC1=CC2=C(C=C1)NC(=C2)C(=O)NCC3=COC=C3

> <PUBCHEM_CACTVS_TPSA>
58

> <PUBCHEM_MONOISOTOPIC_WEIGHT>
254.105528

> <PUBCHEM_TOTAL_CHARGE>
0

> <PUBCHEM_HEAVY_ATOM_COUNT>
19

> <PUBCHEM_ATOM_DEF_STEREO_COUNT>
0

> <PUBCHEM_ATOM_UDEF_STEREO_COUNT>
0

> <PUBCHEM_BOND_DEF_STEREO_COUNT>
0

> <PUBCHEM_BOND_UDEF_STEREO_COUNT>
0

> <PUBCHEM_ISOTOPIC_ATOM_COUNT>
0

> <PUBCHEM_COMPONENT_COUNT>
1

> <PUBCHEM_CACTVS_TAUTO_COUNT>
13

> <PUBCHEM_COORDINATE_TYPE>
1
5
255

> <PUBCHEM_BONDANNOTATIONS>
1  18  8
1  19  8
10  13  8
11  13  8
15  17  8
15  18  8
17  19  8
3  6  8
3  7  8
5  6  8
5  8  8
5  9  8
6  11  8
7  8  8
9  10  8

$$$$

