21677481
  -OEChem-07051213112D

 79 82  0     1  0  0  0  0  0999 V2000
    6.0010   -1.0131    0.0000 O   0  0  0  0  0  0  0  0  0  0  0  0
    7.7610    1.0216    0.0000 O   0  0  0  0  0  0  0  0  0  0  0  0
    4.2690   -1.0131    0.0000 O   0  0  0  0  0  0  0  0  0  0  0  0
    9.5312    1.0111    0.0000 O   0  0  0  0  0  0  0  0  0  0  0  0
    6.0010    1.9869    0.0000 O   0  0  0  0  0  0  0  0  0  0  0  0
    7.7494   -2.0477    0.0000 O   0  0  0  0  0  0  0  0  0  0  0  0
   10.3914    2.5144    0.0000 O   0  0  0  0  0  0  0  0  0  0  0  0
    6.0010   -2.0131    0.0000 O   0  0  0  0  0  0  0  0  0  0  0  0
    6.0010   -4.0131    0.0000 O   0  0  0  0  0  0  0  0  0  0  0  0
    7.7953    2.0044    0.0000 O   0  0  0  0  0  0  0  0  0  0  0  0
    7.7876    4.0044    0.0000 O   0  0  0  0  0  0  0  0  0  0  0  0
   12.1196    3.5210    0.0000 O   0  0  0  0  0  0  0  0  0  0  0  0
    9.5312   -1.0372    0.0000 N   0  0  0  0  0  0  0  0  0  0  0  0
    4.2690    0.9869    0.0000 N   0  0  0  0  0  0  0  0  0  0  0  0
    2.5369   -2.0131    0.0000 N   0  0  0  0  0  0  0  0  0  0  0  0
    4.2690   -5.0131    0.0000 N   0  0  0  0  0  0  0  0  0  0  0  0
    9.5158    5.0110    0.0000 N   0  0  0  0  0  0  0  0  0  0  0  0
    6.8671   -0.5131    0.0000 C   0  0  1  0  0  0  0  0  0  0  0  0
    6.8671    0.4869    0.0000 C   0  0  2  0  0  0  0  0  0  0  0  0
    6.0010    0.9869    0.0000 C   0  0  1  0  0  0  0  0  0  0  0  0
    7.7610   -1.0478    0.0000 C   0  0  1  0  0  0  0  0  0  0  0  0
    5.1350    0.4869    0.0000 C   0  0  2  0  0  0  0  0  0  0  0  0
    8.6671   -0.5339    0.0000 C   0  0  1  0  0  0  0  0  0  0  0  0
    5.1350   -0.5131    0.0000 C   0  0  2  0  0  0  0  0  0  0  0  0
    8.6671    0.5077    0.0000 C   0  0  2  0  0  0  0  0  0  0  0  0
    4.2690   -2.0131    0.0000 C   0  0  2  0  0  0  0  0  0  0  0  0
    3.4030   -2.5131    0.0000 C   0  0  2  0  0  0  0  0  0  0  0  0
    5.1350   -2.5131    0.0000 C   0  0  1  0  0  0  0  0  0  0  0  0
    5.1350   -3.5131    0.0000 C   0  0  2  0  0  0  0  0  0  0  0  0
    3.4030   -3.5131    0.0000 C   0  0  0  0  0  0  0  0  0  0  0  0
    4.2690   -4.0131    0.0000 C   0  0  1  0  0  0  0  0  0  0  0  0
    9.5273    2.0110    0.0000 C   0  0  1  0  0  0  0  0  0  0  0  0
    8.6594    2.5077    0.0000 C   0  0  1  0  0  0  0  0  0  0  0  0
    8.6555    3.5077    0.0000 C   0  0  2  0  0  0  0  0  0  0  0  0
    9.5196    4.0110    0.0000 C   0  0  1  0  0  0  0  0  0  0  0  0
   10.3875    3.5144    0.0000 C   0  0  1  0  0  0  0  0  0  0  0  0
    9.5273   -2.0372    0.0000 C   0  0  0  0  0  0  0  0  0  0  0  0
   11.2516    4.0177    0.0000 C   0  0  0  0  0  0  0  0  0  0  0  0
    6.8605   -1.3631    0.0000 H   0  0  0  0  0  0  0  0  0  0  0  0
    6.8605    1.3369    0.0000 H   0  0  0  0  0  0  0  0  0  0  0  0
    6.5380    1.2969    0.0000 H   0  0  0  0  0  0  0  0  0  0  0  0
    7.2199   -1.3505    0.0000 H   0  0  0  0  0  0  0  0  0  0  0  0
    5.1350    1.1069    0.0000 H   0  0  0  0  0  0  0  0  0  0  0  0
    8.6635   -1.1539    0.0000 H   0  0  0  0  0  0  0  0  0  0  0  0
    5.1350   -1.1331    0.0000 H   0  0  0  0  0  0  0  0  0  0  0  0
    8.6635    1.1277    0.0000 H   0  0  0  0  0  0  0  0  0  0  0  0
    4.8059   -1.7031    0.0000 H   0  0  0  0  0  0  0  0  0  0  0  0
    3.4030   -1.8931    0.0000 H   0  0  0  0  0  0  0  0  0  0  0  0
    5.1350   -1.8931    0.0000 H   0  0  0  0  0  0  0  0  0  0  0  0
    5.1350   -4.1331    0.0000 H   0  0  0  0  0  0  0  0  0  0  0  0
    2.7924   -3.4054    0.0000 H   0  0  0  0  0  0  0  0  0  0  0  0
    3.1909   -4.0957    0.0000 H   0  0  0  0  0  0  0  0  0  0  0  0
    4.8059   -4.3231    0.0000 H   0  0  0  0  0  0  0  0  0  0  0  0
   10.0693   -0.7293    0.0000 H   0  0  0  0  0  0  0  0  0  0  0  0
    8.9916    1.6990    0.0000 H   0  0  0  0  0  0  0  0  0  0  0  0
    4.2690    1.6069    0.0000 H   0  0  0  0  0  0  0  0  0  0  0  0
    3.7320    0.6769    0.0000 H   0  0  0  0  0  0  0  0  0  0  0  0
    8.1212    2.8156    0.0000 H   0  0  0  0  0  0  0  0  0  0  0  0
    5.4641    2.2969    0.0000 H   0  0  0  0  0  0  0  0  0  0  0  0
    8.2828   -2.3639    0.0000 H   0  0  0  0  0  0  0  0  0  0  0  0
    8.1198    3.1956    0.0000 H   0  0  0  0  0  0  0  0  0  0  0  0
   10.0553    4.3231    0.0000 H   0  0  0  0  0  0  0  0  0  0  0  0
   10.9257    3.2064    0.0000 H   0  0  0  0  0  0  0  0  0  0  0  0
    2.0000   -2.3231    0.0000 H   0  0  0  0  0  0  0  0  0  0  0  0
    2.5369   -1.3931    0.0000 H   0  0  0  0  0  0  0  0  0  0  0  0
    3.7320   -5.3231    0.0000 H   0  0  0  0  0  0  0  0  0  0  0  0
    4.8059   -5.3231    0.0000 H   0  0  0  0  0  0  0  0  0  0  0  0
    6.5380   -2.3231    0.0000 H   0  0  0  0  0  0  0  0  0  0  0  0
    8.9073   -2.0348    0.0000 H   0  0  0  0  0  0  0  0  0  0  0  0
    9.5249   -2.6572    0.0000 H   0  0  0  0  0  0  0  0  0  0  0  0
   10.1473   -2.0396    0.0000 H   0  0  0  0  0  0  0  0  0  0  0  0
    6.5380   -3.7031    0.0000 H   0  0  0  0  0  0  0  0  0  0  0  0
   11.6483    4.4942    0.0000 H   0  0  0  0  0  0  0  0  0  0  0  0
   10.8513    4.4911    0.0000 H   0  0  0  0  0  0  0  0  0  0  0  0
   10.0515    5.3231    0.0000 H   0  0  0  0  0  0  0  0  0  0  0  0
    8.9776    5.3190    0.0000 H   0  0  0  0  0  0  0  0  0  0  0  0
    7.2571    2.3123    0.0000 H   0  0  0  0  0  0  0  0  0  0  0  0
    7.7852    4.6244    0.0000 H   0  0  0  0  0  0  0  0  0  0  0  0
   12.6553    3.8331    0.0000 H   0  0  0  0  0  0  0  0  0  0  0  0
  1 18  1  0  0  0  0
  1 24  1  0  0  0  0
  2 19  1  0  0  0  0
  2 25  1  0  0  0  0
 24  3  1  6  0  0  0
 26  3  1  1  0  0  0
 25  4  1  6  0  0  0
 32  4  1  6  0  0  0
 20  5  1  1  0  0  0
  5 59  1  0  0  0  0
 21  6  1  1  0  0  0
  6 60  1  0  0  0  0
  7 32  1  0  0  0  0
  7 36  1  0  0  0  0
 28  8  1  6  0  0  0
  8 68  1  0  0  0  0
 29  9  1  1  0  0  0
  9 72  1  0  0  0  0
 33 10  1  6  0  0  0
 10 77  1  0  0  0  0
 34 11  1  1  0  0  0
 11 78  1  0  0  0  0
 12 38  1  0  0  0  0
 12 79  1  0  0  0  0
 23 13  1  1  0  0  0
 13 37  1  0  0  0  0
 13 54  1  0  0  0  0
 22 14  1  6  0  0  0
 14 56  1  0  0  0  0
 14 57  1  0  0  0  0
 27 15  1  6  0  0  0
 15 64  1  0  0  0  0
 15 65  1  0  0  0  0
 31 16  1  6  0  0  0
 16 66  1  0  0  0  0
 16 67  1  0  0  0  0
 35 17  1  6  0  0  0
 17 75  1  0  0  0  0
 17 76  1  0  0  0  0
 18 19  1  0  0  0  0
 18 21  1  0  0  0  0
 18 39  1  6  0  0  0
 19 20  1  0  0  0  0
 19 40  1  1  0  0  0
 20 22  1  0  0  0  0
 20 41  1  0  0  0  0
 21 23  1  0  0  0  0
 21 42  1  0  0  0  0
 22 24  1  0  0  0  0
 22 43  1  0  0  0  0
 23 25  1  0  0  0  0
 23 44  1  0  0  0  0
 24 45  1  0  0  0  0
 25 46  1  0  0  0  0
 26 27  1  0  0  0  0
 26 28  1  0  0  0  0
 26 47  1  0  0  0  0
 27 30  1  0  0  0  0
 27 48  1  0  0  0  0
 28 29  1  0  0  0  0
 28 49  1  0  0  0  0
 29 31  1  0  0  0  0
 29 50  1  0  0  0  0
 30 31  1  0  0  0  0
 30 51  1  0  0  0  0
 30 52  1  0  0  0  0
 31 53  1  0  0  0  0
 32 33  1  0  0  0  0
 32 55  1  0  0  0  0
 33 34  1  0  0  0  0
 33 58  1  0  0  0  0
 34 35  1  0  0  0  0
 34 61  1  0  0  0  0
 35 36  1  0  0  0  0
 35 62  1  0  0  0  0
 36 38  1  1  0  0  0
 36 63  1  0  0  0  0
 37 69  1  0  0  0  0
 37 70  1  0  0  0  0
 37 71  1  0  0  0  0
 38 73  1  0  0  0  0
 38 74  1  0  0  0  0
M  END
> <PUBCHEM_COMPOUND_CID>
21677481

> <PUBCHEM_COMPOUND_CANONICALIZED>
1

> <PUBCHEM_CACTVS_COMPLEXITY>
791

> <PUBCHEM_CACTVS_HBOND_ACCEPTOR>
17

> <PUBCHEM_CACTVS_HBOND_DONOR>
12

> <PUBCHEM_CACTVS_ROTATABLE_BOND>
6

> <PUBCHEM_CACTVS_SUBSKEYS>
AAADcfB7vAAAAAAAAAAAAAAAAAAAAAAAAAA0SJEAAAAAAACQAAAAHgAQCAAACDzxgAcCCALABgAAAAAAAAAAAAAAAAAAAIAIAAATEAIAwAAnQAAHEAAXAAHw8K8AAAAAAAAAAAAAgAAUCACgAAAAAAAAAA==

> <PUBCHEM_IUPAC_OPENEYE_NAME>
(2R,3S,4R,4aR,6S,7R,8R,8aS)-7-amino-2-[(2R,3R,4S,5S,6S)-5-amino-3,4-dihydroxy-6-(hydroxymethyl)tetrahydropyran-2-yl]oxy-6-[(1R,2R,3S,4R,6S)-4,6-diamino-2,3-dihydroxy-cyclohexoxy]-3-(methylamino)-2,3,4,4a,6,7,8,8a-octahydropyrano[3,2-b]pyran-4,8-diol

> <PUBCHEM_IUPAC_CAS_NAME>
(2R,3S,4R,4aR,6S,7R,8R,8aS)-7-amino-2-[[(2R,3R,4S,5S,6S)-5-amino-3,4-dihydroxy-6-(hydroxymethyl)-2-oxanyl]oxy]-6-[(1R,2R,3S,4R,6S)-4,6-diamino-2,3-dihydroxycyclohexyl]oxy-3-(methylamino)-2,3,4,4a,6,7,8,8a-octahydropyrano[3,2-b]pyran-4,8-diol

> <PUBCHEM_IUPAC_NAME>
(2R,3S,4R,4aR,6S,7R,8R,8aS)-7-amino-2-[(2R,3R,4S,5S,6S)-5-amino-3,4-dihydroxy-6-(hydroxymethyl)oxan-2-yl]oxy-6-[(1R,2R,3S,4R,6S)-4,6-diamino-2,3-dihydroxycyclohexyl]oxy-3-(methylamino)-2,3,4,4a,6,7,8,8a-octahydropyrano[3,2-b]pyran-4,8-diol

> <PUBCHEM_IUPAC_SYSTEMATIC_NAME>
(2R,3S,4R,4aR,6S,7R,8R,8aS)-7-azanyl-2-[(2R,3R,4S,5S,6S)-5-azanyl-6-(hydroxymethyl)-3,4-bis(oxidanyl)oxan-2-yl]oxy-6-[(1R,2R,3S,4R,6S)-4,6-bis(azanyl)-2,3-bis(oxidanyl)cyclohexyl]oxy-3-(methylamino)-2,3,4,4a,6,7,8,8a-octahydropyrano[3,2-b]pyran-4,8-diol

> <PUBCHEM_IUPAC_TRADITIONAL_NAME>
(2R,3S,4R,4aR,6S,7R,8R,8aS)-7-amino-2-[(2R,3R,4S,5S,6S)-5-amino-3,4-dihydroxy-6-methylol-tetrahydropyran-2-yl]oxy-6-[(1R,2R,3S,4R,6S)-4,6-diamino-2,3-dihydroxy-cyclohexoxy]-3-(methylamino)-2,3,4,4a,6,7,8,8a-octahydropyrano[3,2-b]pyran-4,8-diol

> <PUBCHEM_IUPAC_INCHI>
InChI=1S/C21H41N5O12/c1-26-9-13(31)18-17(37-20(9)38-21-15(33)11(29)7(24)6(3-27)34-21)12(30)8(25)19(36-18)35-16-5(23)2-4(22)10(28)14(16)32/h4-21,26-33H,2-3,22-25H2,1H3/t4-,5+,6-,7-,8-,9+,10+,11+,12-,13-,14-,15-,16-,17+,18-,19+,20-,21-/m1/s1

> <PUBCHEM_IUPAC_INCHIKEY>
VDGAVKNERSZOPW-UZVIDTGHSA-N

> <PUBCHEM_XLOGP3_AA>
-8

> <PUBCHEM_EXACT_MASS>
555.275172

> <PUBCHEM_MOLECULAR_FORMULA>
C21H41N5O12

> <PUBCHEM_MOLECULAR_WEIGHT>
555.57654

> <PUBCHEM_OPENEYE_CAN_SMILES>
CNC1C(C2C(C(C(C(O2)OC3C(CC(C(C3O)O)N)N)N)O)OC1OC4C(C(C(C(O4)CO)N)O)O)O

> <PUBCHEM_OPENEYE_ISO_SMILES>
CN[C@H]1[C@H]([C@@H]2[C@H]([C@@H]([C@H]([C@H](O2)O[C@@H]3[C@H](C[C@H]([C@@H]([C@H]3O)O)N)N)N)O)O[C@@H]1O[C@@H]4[C@@H]([C@H]([C@@H]([C@H](O4)CO)N)O)O)O

> <PUBCHEM_CACTVS_TPSA>
304

> <PUBCHEM_MONOISOTOPIC_WEIGHT>
555.275172

> <PUBCHEM_TOTAL_CHARGE>
0

> <PUBCHEM_HEAVY_ATOM_COUNT>
38

> <PUBCHEM_ATOM_DEF_STEREO_COUNT>
18

> <PUBCHEM_ATOM_UDEF_STEREO_COUNT>
0

> <PUBCHEM_BOND_DEF_STEREO_COUNT>
0

> <PUBCHEM_BOND_UDEF_STEREO_COUNT>
0

> <PUBCHEM_ISOTOPIC_ATOM_COUNT>
0

> <PUBCHEM_COMPONENT_COUNT>
1

> <PUBCHEM_CACTVS_TAUTO_COUNT>
1

> <PUBCHEM_COORDINATE_TYPE>
1
5
255

> <PUBCHEM_BONDANNOTATIONS>
33  10  6
34  11  5
23  13  5
22  14  6
27  15  6
31  16  6
35  17  6
18  39  6
19  40  5
24  3  6
26  3  5
36  38  5
25  4  6
32  4  6
20  5  5
21  6  5
28  8  6
29  9  5

$$$$

