9305
  -OEChem-06261203353D

 24 24  0     1  0  0  0  0  0999 V2000
    2.1564    3.2397   -0.3367 I   0  0  0  0  0  0  0  0  0  0  0  0
    3.4190   -2.6467    0.6656 I   0  0  0  0  0  0  0  0  0  0  0  0
   -2.2023    1.1692    1.4468 O   0  0  0  0  0  0  0  0  0  0  0  0
    3.7904    0.5593    0.4468 O   0  0  0  0  0  0  0  0  0  0  0  0
   -3.9420    1.0910   -0.0069 O   0  0  0  0  0  0  0  0  0  0  0  0
   -3.6302   -1.6305   -0.1714 N   0  0  0  0  0  0  0  0  0  0  0  0
   -1.4811   -0.8230   -1.0339 C   0  0  0  0  0  0  0  0  0  0  0  0
   -2.4529   -0.8296    0.1562 C   0  0  1  0  0  0  0  0  0  0  0  0
   -0.0701   -0.4531   -0.6382 C   0  0  0  0  0  0  0  0  0  0  0  0
    0.8121   -1.4523   -0.2623 C   0  0  0  0  0  0  0  0  0  0  0  0
    0.3124    0.8780   -0.6584 C   0  0  0  0  0  0  0  0  0  0  0  0
   -2.9553    0.5642    0.4915 C   0  0  0  0  0  0  0  0  0  0  0  0
    1.6143    1.2195   -0.2921 C   0  0  0  0  0  0  0  0  0  0  0  0
    2.1141   -1.1108    0.1039 C   0  0  0  0  0  0  0  0  0  0  0  0
    2.5152    0.2251    0.0891 C   0  0  0  0  0  0  0  0  0  0  0  0
   -1.8318   -0.1393   -1.8193 H   0  0  0  0  0  0  0  0  0  0  0  0
   -1.4482   -1.8149   -1.5063 H   0  0  0  0  0  0  0  0  0  0  0  0
   -1.9968   -1.2650    1.0529 H   0  0  0  0  0  0  0  0  0  0  0  0
    0.4850   -2.4891   -0.2524 H   0  0  0  0  0  0  0  0  0  0  0  0
   -0.3987    1.6428   -0.9604 H   0  0  0  0  0  0  0  0  0  0  0  0
   -3.3473   -2.5918   -0.3598 H   0  0  0  0  0  0  0  0  0  0  0  0
   -4.0504   -1.2908   -1.0363 H   0  0  0  0  0  0  0  0  0  0  0  0
   -2.5403    2.0633    1.6667 H   0  0  0  0  0  0  0  0  0  0  0  0
    3.8875    1.5246    0.3766 H   0  0  0  0  0  0  0  0  0  0  0  0
  1 13  1  0  0  0  0
  2 14  1  0  0  0  0
  3 12  1  0  0  0  0
  3 23  1  0  0  0  0
  4 15  1  0  0  0  0
  4 24  1  0  0  0  0
  5 12  2  0  0  0  0
  6  8  1  0  0  0  0
  6 21  1  0  0  0  0
  6 22  1  0  0  0  0
  7  8  1  0  0  0  0
  7  9  1  0  0  0  0
  7 16  1  0  0  0  0
  7 17  1  0  0  0  0
  8 12  1  0  0  0  0
  8 18  1  0  0  0  0
  9 10  2  0  0  0  0
  9 11  1  0  0  0  0
 10 14  1  0  0  0  0
 10 19  1  0  0  0  0
 11 13  2  0  0  0  0
 11 20  1  0  0  0  0
 13 15  1  0  0  0  0
 14 15  2  0  0  0  0
M  END
> <PUBCHEM_COMPOUND_CID>
9305

> <PUBCHEM_CONFORMER_RMSD>
0.6

> <PUBCHEM_CONFORMER_DIVERSEORDER>
1
4
8
6
3
7
5
2

> <PUBCHEM_MMFF94_PARTIAL_CHARGES>
21
1 -0.08
10 -0.15
11 -0.15
12 0.66
13 0.08
14 0.08
15 0.08
19 0.15
2 -0.08
20 0.15
21 0.36
22 0.36
23 0.5
24 0.45
3 -0.65
4 -0.53
5 -0.57
6 -0.99
7 0.14
8 0.33
9 -0.14

> <PUBCHEM_EFFECTIVE_ROTOR_COUNT>
3

> <PUBCHEM_PHARMACOPHORE_FEATURES>
9
1 1 hydrophobe
1 2 hydrophobe
1 3 acceptor
1 4 donor
1 5 acceptor
1 6 cation
1 6 donor
3 3 5 12 anion
6 9 10 11 13 14 15 rings

> <PUBCHEM_HEAVY_ATOM_COUNT>
15

> <PUBCHEM_ATOM_DEF_STEREO_COUNT>
1

> <PUBCHEM_ATOM_UDEF_STEREO_COUNT>
0

> <PUBCHEM_BOND_DEF_STEREO_COUNT>
0

> <PUBCHEM_BOND_UDEF_STEREO_COUNT>
0

> <PUBCHEM_ISOTOPIC_ATOM_COUNT>
0

> <PUBCHEM_COMPONENT_COUNT>
1

> <PUBCHEM_CACTVS_TAUTO_COUNT>
2

> <PUBCHEM_CONFORMER_ID>
0000245900000001

> <PUBCHEM_MMFF94_ENERGY>
30.0421

> <PUBCHEM_FEATURE_SELFOVERLAP>
45.727

> <PUBCHEM_SHAPE_FINGERPRINT>
10465860 228 18409444778431273844
10980938 120 18410290307236468782
11357001 24 17621892306568920098
12251169 10 18411134740613987055
12553582 1 18125731329412595874
12696612 119 18410289216103714212
13140716 1 17981054011863626626
13533116 47 18343581811777870987
14144814 61 18408886243482660791
14178342 30 18192734253807048386
14790565 3 18269830918510202244
15375462 189 17844530118038157874
15375462 478 18041003997972074539
15442244 35 18338234984872133050
15501101 241 18131354111485349030
15775835 57 18186514397752906673
16945 1 18269569273074827846
17041 49 18338514265220905706
17492 89 18409729543448671275
192875 21 18188782776467629297
200 152 18261125028253449343
201361 129 18338511929012086188
20233049 118 17458344135113995904
20559304 39 18335136440972686972
20671657 1 18339638932920488542
20871998 22 18120655996723754694
21041028 32 18196940096278334628
21524375 3 17974281024210156220
21665062 11 18338783619694827993
22445834 79 18410295787298376750
2255824 54 18269835324876855900
22854114 111 18265893566510695357
23557571 272 14924227071582197805
23559900 14 18409455790643148307
23598291 2 18115041748544563670
2748010 2 16748751525770032710
305870 269 18267302032537565964
3091708 16 8710474589315214808
4175511 71 18266730466937361830
474 4 18196656194339601316
6992083 37 18190736638246325179
7097593 13 18410574006668752050
7364860 26 18337951195414530220

> <PUBCHEM_SHAPE_MULTIPOLES>
309.98
6.63
3.25
0.95
3.99
1.66
-0.09
-1.83
-1.44
-3.66
-0.11
0.26
0.03
-0.87

> <PUBCHEM_SHAPE_SELFOVERLAP>
599.487

> <PUBCHEM_SHAPE_VOLUME>
193.9

> <PUBCHEM_COORDINATE_TYPE>
2
5
10

$$$$

