71602
  -OEChem-07051212543D

 22 22  0     0  0  0  0  0  0999 V2000
   -0.2301    2.0137    0.4492 O   0  0  0  0  0  0  0  0  0  0  0  0
   -3.3007   -1.6276    0.1536 O   0  0  0  0  0  0  0  0  0  0  0  0
   -1.1005   -0.0041   -0.2821 N   0  0  0  0  0  0  0  0  0  0  0  0
   -2.3912    0.4666   -0.2716 N   0  0  0  0  0  0  0  0  0  0  0  0
    3.8379   -0.7919   -0.0632 N   0  0  0  0  0  0  0  0  0  0  0  0
    1.2906    0.2734    0.0403 C   0  0  0  0  0  0  0  0  0  0  0  0
   -0.0795    0.8466    0.0963 C   0  0  0  0  0  0  0  0  0  0  0  0
    2.3577    1.1174   -0.1559 C   0  0  0  0  0  0  0  0  0  0  0  0
    1.4510   -1.0839    0.1865 C   0  0  0  0  0  0  0  0  0  0  0  0
    3.6139    0.5343   -0.2001 C   0  0  0  0  0  0  0  0  0  0  0  0
    2.7477   -1.5685    0.1270 C   0  0  0  0  0  0  0  0  0  0  0  0
   -3.4233   -0.4207   -0.0455 C   0  0  0  0  0  0  0  0  0  0  0  0
   -4.7736    0.2446   -0.0344 C   0  0  0  0  0  0  0  0  0  0  0  0
    2.2486    2.1887   -0.2777 H   0  0  0  0  0  0  0  0  0  0  0  0
    0.6399   -1.7773    0.3712 H   0  0  0  0  0  0  0  0  0  0  0  0
   -0.9698   -0.9423   -0.6447 H   0  0  0  0  0  0  0  0  0  0  0  0
   -2.5253    1.4588   -0.4379 H   0  0  0  0  0  0  0  0  0  0  0  0
    4.5018    1.1389   -0.3533 H   0  0  0  0  0  0  0  0  0  0  0  0
    2.9507   -2.6282    0.2415 H   0  0  0  0  0  0  0  0  0  0  0  0
   -5.0175    0.5426    0.9888 H   0  0  0  0  0  0  0  0  0  0  0  0
   -4.7849    1.1279   -0.6792 H   0  0  0  0  0  0  0  0  0  0  0  0
   -5.5276   -0.4585   -0.3992 H   0  0  0  0  0  0  0  0  0  0  0  0
  1  7  2  0  0  0  0
  2 12  2  0  0  0  0
  3  4  1  0  0  0  0
  3  7  1  0  0  0  0
  3 16  1  0  0  0  0
  4 12  1  0  0  0  0
  4 17  1  0  0  0  0
  5 10  2  0  0  0  0
  5 11  1  0  0  0  0
  6  7  1  0  0  0  0
  6  8  2  0  0  0  0
  6  9  1  0  0  0  0
  8 10  1  0  0  0  0
  8 14  1  0  0  0  0
  9 11  2  0  0  0  0
  9 15  1  0  0  0  0
 10 18  1  0  0  0  0
 11 19  1  0  0  0  0
 12 13  1  0  0  0  0
 13 20  1  0  0  0  0
 13 21  1  0  0  0  0
 13 22  1  0  0  0  0
M  END
> <PUBCHEM_COMPOUND_CID>
71602

> <PUBCHEM_CONFORMER_RMSD>
0.6

> <PUBCHEM_CONFORMER_DIVERSEORDER>
1
4
3
2

> <PUBCHEM_MMFF94_PARTIAL_CHARGES>
19
1 -0.57
10 0.16
11 0.16
12 0.57
13 0.06
14 0.15
15 0.15
16 0.37
17 0.37
18 0.15
19 0.15
2 -0.57
3 -0.43
4 -0.43
5 -0.62
6 0.09
7 0.54
8 -0.15
9 -0.15

> <PUBCHEM_EFFECTIVE_ROTOR_COUNT>
4

> <PUBCHEM_PHARMACOPHORE_FEATURES>
6
1 1 acceptor
1 2 acceptor
1 3 donor
1 4 donor
1 5 acceptor
6 5 6 8 9 10 11 rings

> <PUBCHEM_HEAVY_ATOM_COUNT>
13

> <PUBCHEM_ATOM_DEF_STEREO_COUNT>
0

> <PUBCHEM_ATOM_UDEF_STEREO_COUNT>
0

> <PUBCHEM_BOND_DEF_STEREO_COUNT>
0

> <PUBCHEM_BOND_UDEF_STEREO_COUNT>
0

> <PUBCHEM_ISOTOPIC_ATOM_COUNT>
0

> <PUBCHEM_COMPONENT_COUNT>
1

> <PUBCHEM_CACTVS_TAUTO_COUNT>
5

> <PUBCHEM_CONFORMER_ID>
000117B200000001

> <PUBCHEM_MMFF94_ENERGY>
31.186

> <PUBCHEM_FEATURE_SELFOVERLAP>
31.982

> <PUBCHEM_SHAPE_FINGERPRINT>
11471102 20 18411421704406005724
12032990 46 18409163311865000334
14251717 144 18411700976069891598
14252887 29 17894901932297535462
14325111 11 18412545400936544709
14350558 41 18343015605721729030
15242433 33 18412260640636978231
15375462 189 18409731742302335923
15477762 27 18342737438260193814
17834072 33 18334298622256098983
17834074 16 18343018865823731915
18186145 218 17704078395141276087
19107657 46 18410292488916649703
19422 9 18335414677475406721
20201158 50 18343300370564585411
20281407 28 18411136926773530745
20281475 54 18411420583788702615
20645477 70 18410858793345063343
20871998 22 18115300219385792550
221490 88 18198615545318655642
22485316 2 18409732846161476975
23402539 116 16272217392032579972
23402655 69 18413671322307700477
25610 137 18410572885909160540
2871803 45 18343304807212944087
3312278 4 18410292531871253089
581208 293 18341334414030785752
77779 3 18413387631555061357
8809292 202 18272929397515257179

> <PUBCHEM_SHAPE_MULTIPOLES>
240.85
8.15
1.57
0.62
6.55
0.04
0
1.65
-0.38
-0.46
0.16
-0.02
-0.03
-0.07

> <PUBCHEM_SHAPE_SELFOVERLAP>
496.629

> <PUBCHEM_SHAPE_VOLUME>
136.6

> <PUBCHEM_COORDINATE_TYPE>
2
5
10

$$$$

