12095
  -OEChem-06241222293D

 22 22  0     0  0  0  0  0  0999 V2000
   -5.0644    1.1319   -0.0075 O   0  0  0  0  0  0  0  0  0  0  0  0
   -4.5092   -1.0679    0.0143 O   0  0  0  0  0  0  0  0  0  0  0  0
    4.2203    1.3703    0.0046 O   0  5  0  0  0  0  0  0  0  0  0  0
    4.5057   -0.8064    0.0001 O   0  0  0  0  0  0  0  0  0  0  0  0
   -1.8123   -0.5271   -0.0047 N   0  0  0  0  0  0  0  0  0  0  0  0
    3.7601    0.2029    0.0016 N   0  3  0  0  0  0  0  0  0  0  0  0
   -0.4139   -0.3439   -0.0029 C   0  0  0  0  0  0  0  0  0  0  0  0
    0.1206    0.9444    0.0008 C   0  0  0  0  0  0  0  0  0  0  0  0
    0.4345   -1.4512   -0.0051 C   0  0  0  0  0  0  0  0  0  0  0  0
   -2.7385    0.5626   -0.0029 C   0  0  0  0  0  0  0  0  0  0  0  0
    2.3522    0.0184    0.0001 C   0  0  0  0  0  0  0  0  0  0  0  0
    1.5036    1.1255    0.0022 C   0  0  0  0  0  0  0  0  0  0  0  0
    1.8176   -1.2701   -0.0035 C   0  0  0  0  0  0  0  0  0  0  0  0
   -4.1762    0.1109    0.0029 C   0  0  0  0  0  0  0  0  0  0  0  0
   -2.1589   -1.4801   -0.0088 H   0  0  0  0  0  0  0  0  0  0  0  0
   -0.5036    1.8330    0.0022 H   0  0  0  0  0  0  0  0  0  0  0  0
    0.0299   -2.4602   -0.0079 H   0  0  0  0  0  0  0  0  0  0  0  0
   -2.6030    1.1766   -0.9008 H   0  0  0  0  0  0  0  0  0  0  0  0
   -2.5981    1.1790    0.8927 H   0  0  0  0  0  0  0  0  0  0  0  0
    1.8850    2.1435    0.0049 H   0  0  0  0  0  0  0  0  0  0  0  0
    2.4479   -2.1557   -0.0053 H   0  0  0  0  0  0  0  0  0  0  0  0
   -5.9917    0.8119   -0.0044 H   0  0  0  0  0  0  0  0  0  0  0  0
  1 14  1  0  0  0  0
  1 22  1  0  0  0  0
  2 14  2  0  0  0  0
  3  6  1  0  0  0  0
  4  6  2  0  0  0  0
  5  7  1  0  0  0  0
  5 10  1  0  0  0  0
  5 15  1  0  0  0  0
  6 11  1  0  0  0  0
  7  8  2  0  0  0  0
  7  9  1  0  0  0  0
  8 12  1  0  0  0  0
  8 16  1  0  0  0  0
  9 13  2  0  0  0  0
  9 17  1  0  0  0  0
 10 14  1  0  0  0  0
 10 18  1  0  0  0  0
 10 19  1  0  0  0  0
 11 12  2  0  0  0  0
 11 13  1  0  0  0  0
 12 20  1  0  0  0  0
 13 21  1  0  0  0  0
M  CHG  2   3  -1   6   1
M  END
> <PUBCHEM_COMPOUND_CID>
12095

> <PUBCHEM_CONFORMER_RMSD>
0.6

> <PUBCHEM_CONFORMER_DIVERSEORDER>
1
6
5
2
4
3

> <PUBCHEM_MMFF94_PARTIAL_CHARGES>
20
1 -0.65
10 0.43
11 0.13
12 -0.15
13 -0.15
14 0.66
15 0.4
16 0.15
17 0.15
2 -0.57
20 0.15
21 0.15
22 0.5
3 -0.52
4 -0.52
5 -0.87
6 0.91
7 0.1
8 -0.15
9 -0.15

> <PUBCHEM_EFFECTIVE_ROTOR_COUNT>
4

> <PUBCHEM_PHARMACOPHORE_FEATURES>
9
1 1 acceptor
1 2 acceptor
1 3 acceptor
1 3 anion
1 4 acceptor
1 5 cation
1 5 donor
3 1 2 14 anion
6 7 8 9 11 12 13 rings

> <PUBCHEM_HEAVY_ATOM_COUNT>
14

> <PUBCHEM_ATOM_DEF_STEREO_COUNT>
0

> <PUBCHEM_ATOM_UDEF_STEREO_COUNT>
0

> <PUBCHEM_BOND_DEF_STEREO_COUNT>
0

> <PUBCHEM_BOND_UDEF_STEREO_COUNT>
0

> <PUBCHEM_ISOTOPIC_ATOM_COUNT>
0

> <PUBCHEM_COMPONENT_COUNT>
1

> <PUBCHEM_CACTVS_TAUTO_COUNT>
1

> <PUBCHEM_CONFORMER_ID>
00002F3F00000001

> <PUBCHEM_MMFF94_ENERGY>
43.7775

> <PUBCHEM_FEATURE_SELFOVERLAP>
45.809

> <PUBCHEM_SHAPE_FINGERPRINT>
11062470 55 18410292510185302993
11401426 45 18334018289049592376
11471102 20 18410013238748452268
13380535 76 18411697677503691123
13690532 89 18410573998321293618
14123238 8 18342458119061673085
15196674 1 18410573976740858119
17834072 33 18186805742664462973
200 152 18186524293879562011
20279233 1 17917983993295938027
20645477 70 18261672683100589038
22485316 2 18343586261152538187
23402539 116 17822298985145835685
23402655 69 18334580174478995333
23557571 272 17131552863704762935
3545911 37 18410574011786489641
366044 4 18410856542776769378
42788 4 18410573989762955525
449060 62 18409729565017426930
4990 188 18040709277511304782
5104073 3 18411699885401205587
77779 3 18410292519165653695

> <PUBCHEM_SHAPE_MULTIPOLES>
254.67
9.44
1.39
0.58
5.57
0.08
0
-1.32
0.01
-0.36
0
0.01
0
0.01

> <PUBCHEM_SHAPE_SELFOVERLAP>
528.104

> <PUBCHEM_SHAPE_VOLUME>
145.4

> <PUBCHEM_COORDINATE_TYPE>
2
5
10

$$$$

