5282036
  -OEChem-07051213022D

 83 84  0     1  0  0  0  0  0999 V2000
    5.5000    0.0000    0.0000 O   0  0  0  0  0  0  0  0  0  0  0  0
    5.5000    1.7320    0.0000 O   0  0  0  0  0  0  0  0  0  0  0  0
    3.5000    0.0000    0.0000 O   0  0  0  0  0  0  0  0  0  0  0  0
    5.5000   -1.7320    0.0000 O   0  0  0  0  0  0  0  0  0  0  0  0
    8.5000   -1.7320    0.0000 O   0  0  0  0  0  0  0  0  0  0  0  0
   10.0000    2.5981    0.0000 O   0  0  0  0  0  0  0  0  0  0  0  0
    8.5000   -3.4641    0.0000 O   0  0  0  0  0  0  0  0  0  0  0  0
    2.5000    1.7320    0.0000 N   0  0  0  0  0  0  0  0  0  0  0  0
    6.5000    0.0000    0.0000 C   0  0  1  0  0  0  0  0  0  0  0  0
    3.5000    1.7320    0.0000 C   0  0  2  0  0  0  0  0  0  0  0  0
    4.0000    0.8660    0.0000 C   0  0  2  0  0  0  0  0  0  0  0  0
    7.0000    0.8660    0.0000 C   0  0  2  0  0  0  0  0  0  0  0  0
    5.0000    0.8660    0.0000 C   0  0  2  0  0  0  0  0  0  0  0  0
    4.0000    2.5981    0.0000 C   0  0  0  0  0  0  0  0  0  0  0  0
    7.0000   -0.8660    0.0000 C   0  0  2  0  0  0  0  0  0  0  0  0
    5.0000    2.5981    0.0000 C   0  0  1  0  0  0  0  0  0  0  0  0
    8.0000    0.8660    0.0000 C   0  0  0  0  0  0  0  0  0  0  0  0
    8.5000    1.7320    0.0000 C   0  0  1  0  0  0  0  0  0  0  0  0
    6.5000    1.7320    0.0000 C   0  0  0  0  0  0  0  0  0  0  0  0
    6.5000   -1.7320    0.0000 C   0  0  0  0  0  0  0  0  0  0  0  0
    8.0000   -0.8660    0.0000 C   0  0  0  0  0  0  0  0  0  0  0  0
    5.5000    3.4641    0.0000 C   0  0  0  0  0  0  0  0  0  0  0  0
    7.0000   -2.5981    0.0000 C   0  0  1  0  0  0  0  0  0  0  0  0
    2.0000    2.5981    0.0000 C   0  0  0  0  0  0  0  0  0  0  0  0
    2.0000    0.8660    0.0000 C   0  0  0  0  0  0  0  0  0  0  0  0
    8.0000    2.5981    0.0000 C   0  0  0  0  0  0  0  0  0  0  0  0
    9.5000    1.7320    0.0000 C   0  0  0  0  0  0  0  0  0  0  0  0
    6.5000   -3.4641    0.0000 C   0  0  0  0  0  0  0  0  0  0  0  0
    8.0000   -2.5981    0.0000 C   0  0  0  0  0  0  0  0  0  0  0  0
    9.5000   -1.7320    0.0000 C   0  0  1  0  0  0  0  0  0  0  0  0
   10.0000   -0.8660    0.0000 C   0  0  1  0  0  0  0  0  0  0  0  0
   10.0000    0.8660    0.0000 C   0  0  0  0  0  0  0  0  0  0  0  0
    9.5000    0.0000    0.0000 C   0  0  0  0  0  0  0  0  0  0  0  0
   10.0000   -2.5981    0.0000 C   0  0  0  0  0  0  0  0  0  0  0  0
   11.0000   -0.8660    0.0000 C   0  0  0  0  0  0  0  0  0  0  0  0
   11.0000   -2.5981    0.0000 C   0  0  0  0  0  0  0  0  0  0  0  0
    6.1900   -0.5369    0.0000 H   0  0  0  0  0  0  0  0  0  0  0  0
    3.1900    2.2690    0.0000 H   0  0  0  0  0  0  0  0  0  0  0  0
    4.3100    0.3291    0.0000 H   0  0  0  0  0  0  0  0  0  0  0  0
    7.3100    1.4030    0.0000 H   0  0  0  0  0  0  0  0  0  0  0  0
    4.6900    0.3291    0.0000 H   0  0  0  0  0  0  0  0  0  0  0  0
    4.1077    3.2087    0.0000 H   0  0  0  0  0  0  0  0  0  0  0  0
    3.4174    2.8101    0.0000 H   0  0  0  0  0  0  0  0  0  0  0  0
    7.3100   -1.4030    0.0000 H   0  0  0  0  0  0  0  0  0  0  0  0
    5.6200    2.5981    0.0000 H   0  0  0  0  0  0  0  0  0  0  0  0
    7.8923    0.2554    0.0000 H   0  0  0  0  0  0  0  0  0  0  0  0
    8.5826    0.6540    0.0000 H   0  0  0  0  0  0  0  0  0  0  0  0
    8.8100    2.2690    0.0000 H   0  0  0  0  0  0  0  0  0  0  0  0
    7.0369    2.0420    0.0000 H   0  0  0  0  0  0  0  0  0  0  0  0
    6.1900    2.2690    0.0000 H   0  0  0  0  0  0  0  0  0  0  0  0
    5.9631    1.4220    0.0000 H   0  0  0  0  0  0  0  0  0  0  0  0
    8.0000   -1.4860    0.0000 H   0  0  0  0  0  0  0  0  0  0  0  0
    8.6200   -0.8660    0.0000 H   0  0  0  0  0  0  0  0  0  0  0  0
    8.0000   -0.2460    0.0000 H   0  0  0  0  0  0  0  0  0  0  0  0
    6.0369    3.1541    0.0000 H   0  0  0  0  0  0  0  0  0  0  0  0
    5.8100    4.0010    0.0000 H   0  0  0  0  0  0  0  0  0  0  0  0
    4.9631    3.7741    0.0000 H   0  0  0  0  0  0  0  0  0  0  0  0
    6.3800   -2.5981    0.0000 H   0  0  0  0  0  0  0  0  0  0  0  0
    2.8800    0.0000    0.0000 H   0  0  0  0  0  0  0  0  0  0  0  0
    2.5369    2.9081    0.0000 H   0  0  0  0  0  0  0  0  0  0  0  0
    1.6900    3.1350    0.0000 H   0  0  0  0  0  0  0  0  0  0  0  0
    1.4631    2.2881    0.0000 H   0  0  0  0  0  0  0  0  0  0  0  0
    1.4631    1.1760    0.0000 H   0  0  0  0  0  0  0  0  0  0  0  0
    1.6900    0.3291    0.0000 H   0  0  0  0  0  0  0  0  0  0  0  0
    2.5369    0.5560    0.0000 H   0  0  0  0  0  0  0  0  0  0  0  0
    8.5369    2.9081    0.0000 H   0  0  0  0  0  0  0  0  0  0  0  0
    7.6900    3.1350    0.0000 H   0  0  0  0  0  0  0  0  0  0  0  0
    7.4631    2.2881    0.0000 H   0  0  0  0  0  0  0  0  0  0  0  0
    5.9631   -3.1541    0.0000 H   0  0  0  0  0  0  0  0  0  0  0  0
    6.1900   -4.0010    0.0000 H   0  0  0  0  0  0  0  0  0  0  0  0
    7.0369   -3.7741    0.0000 H   0  0  0  0  0  0  0  0  0  0  0  0
    9.1900   -2.2690    0.0000 H   0  0  0  0  0  0  0  0  0  0  0  0
   10.3100   -1.4030    0.0000 H   0  0  0  0  0  0  0  0  0  0  0  0
   10.6200    0.8660    0.0000 H   0  0  0  0  0  0  0  0  0  0  0  0
    8.8800    0.0000    0.0000 H   0  0  0  0  0  0  0  0  0  0  0  0
    9.4174   -2.8101    0.0000 H   0  0  0  0  0  0  0  0  0  0  0  0
   10.1077   -3.2087    0.0000 H   0  0  0  0  0  0  0  0  0  0  0  0
   11.0000   -1.4860    0.0000 H   0  0  0  0  0  0  0  0  0  0  0  0
   11.6200   -0.8660    0.0000 H   0  0  0  0  0  0  0  0  0  0  0  0
   11.0000   -0.2460    0.0000 H   0  0  0  0  0  0  0  0  0  0  0  0
   11.0000   -3.2181    0.0000 H   0  0  0  0  0  0  0  0  0  0  0  0
   11.6200   -2.5981    0.0000 H   0  0  0  0  0  0  0  0  0  0  0  0
   11.0000   -1.9781    0.0000 H   0  0  0  0  0  0  0  0  0  0  0  0
  9  1  1  1  0  0  0
 13  1  1  1  0  0  0
  2 13  1  0  0  0  0
  2 16  1  0  0  0  0
 11  3  1  6  0  0  0
  3 59  1  0  0  0  0
  4 20  2  0  0  0  0
  5 29  1  0  0  0  0
  5 30  1  0  0  0  0
  6 27  2  0  0  0  0
  7 29  2  0  0  0  0
 10  8  1  1  0  0  0
  8 24  1  0  0  0  0
  8 25  1  0  0  0  0
  9 12  1  0  0  0  0
  9 15  1  0  0  0  0
  9 37  1  0  0  0  0
 10 11  1  0  0  0  0
 10 14  1  0  0  0  0
 10 38  1  0  0  0  0
 11 13  1  0  0  0  0
 11 39  1  0  0  0  0
 12 17  1  0  0  0  0
 12 19  1  1  0  0  0
 12 40  1  0  0  0  0
 13 41  1  0  0  0  0
 14 16  1  0  0  0  0
 14 42  1  0  0  0  0
 14 43  1  0  0  0  0
 15 20  1  0  0  0  0
 15 21  1  1  0  0  0
 15 44  1  0  0  0  0
 16 22  1  1  0  0  0
 16 45  1  0  0  0  0
 17 18  1  0  0  0  0
 17 46  1  0  0  0  0
 17 47  1  0  0  0  0
 18 26  1  1  0  0  0
 18 27  1  0  0  0  0
 18 48  1  0  0  0  0
 19 49  1  0  0  0  0
 19 50  1  0  0  0  0
 19 51  1  0  0  0  0
 20 23  1  0  0  0  0
 21 52  1  0  0  0  0
 21 53  1  0  0  0  0
 21 54  1  0  0  0  0
 22 55  1  0  0  0  0
 22 56  1  0  0  0  0
 22 57  1  0  0  0  0
 23 28  1  6  0  0  0
 23 29  1  0  0  0  0
 23 58  1  0  0  0  0
 24 60  1  0  0  0  0
 24 61  1  0  0  0  0
 24 62  1  0  0  0  0
 25 63  1  0  0  0  0
 25 64  1  0  0  0  0
 25 65  1  0  0  0  0
 26 66  1  0  0  0  0
 26 67  1  0  0  0  0
 26 68  1  0  0  0  0
 27 32  1  0  0  0  0
 28 69  1  0  0  0  0
 28 70  1  0  0  0  0
 28 71  1  0  0  0  0
 30 31  1  0  0  0  0
 30 34  1  1  0  0  0
 30 72  1  0  0  0  0
 31 33  1  0  0  0  0
 31 35  1  1  0  0  0
 31 73  1  0  0  0  0
 32 33  2  0  0  0  0
 32 74  1  0  0  0  0
 33 75  1  0  0  0  0
 34 36  1  0  0  0  0
 34 76  1  0  0  0  0
 34 77  1  0  0  0  0
 35 78  1  0  0  0  0
 35 79  1  0  0  0  0
 35 80  1  0  0  0  0
 36 81  1  0  0  0  0
 36 82  1  0  0  0  0
 36 83  1  0  0  0  0
M  END
> <PUBCHEM_COMPOUND_CID>
5282036

> <PUBCHEM_COMPOUND_CANONICALIZED>
1

> <PUBCHEM_CACTVS_COMPLEXITY>
797

> <PUBCHEM_CACTVS_HBOND_ACCEPTOR>
8

> <PUBCHEM_CACTVS_HBOND_DONOR>
1

> <PUBCHEM_CACTVS_ROTATABLE_BOND>
4

> <PUBCHEM_CACTVS_SUBSKEYS>
AAADcfB6OAAAAAAAAAAAAAAAAAAAAAAAAAAkAAAAAAAAAAAAAAAAHgAACAAADTzxgAcCCAMABgCIAKDSCAAAAAAgAAAICAEIAEgTEBYIgQAmQAAG4AAfAYPI7OzOAAAAAAAAAAAAAAAAAAAAAAAAAAAAAA==

> <PUBCHEM_IUPAC_OPENEYE_NAME>
(3R,5R,6S,7S,9R,11E,13R,14R)-6-[(2S,3R,4S,6R)-4-(dimethylamino)-3-hydroxy-6-methyl-tetrahydropyran-2-yl]oxy-14-ethyl-3,5,7,9,13-pentamethyl-1-oxacyclotetradec-11-ene-2,4,10-trione

> <PUBCHEM_IUPAC_CAS_NAME>
(3R,5R,6S,7S,9R,11E,13R,14R)-6-[[(2S,3R,4S,6R)-4-(dimethylamino)-3-hydroxy-6-methyl-2-oxanyl]oxy]-14-ethyl-3,5,7,9,13-pentamethyl-1-oxacyclotetradec-11-ene-2,4,10-trione

> <PUBCHEM_IUPAC_NAME>
(3R,5R,6S,7S,9R,11E,13R,14R)-6-[(2S,3R,4S,6R)-4-(dimethylamino)-3-hydroxy-6-methyloxan-2-yl]oxy-14-ethyl-3,5,7,9,13-pentamethyl-1-oxacyclotetradec-11-ene-2,4,10-trione

> <PUBCHEM_IUPAC_SYSTEMATIC_NAME>
(3R,5R,6S,7S,9R,11E,13R,14R)-6-[(2S,3R,4S,6R)-4-(dimethylamino)-6-methyl-3-oxidanyl-oxan-2-yl]oxy-14-ethyl-3,5,7,9,13-pentamethyl-1-oxacyclotetradec-11-ene-2,4,10-trione

> <PUBCHEM_IUPAC_TRADITIONAL_NAME>
(3R,5R,6S,7S,9R,11E,13R,14R)-6-[(2S,3R,4S,6R)-4-(dimethylamino)-3-hydroxy-6-methyl-tetrahydropyran-2-yl]oxy-14-ethyl-3,5,7,9,13-pentamethyl-1-oxacyclotetradec-11-ene-2,4,10-trione

> <PUBCHEM_IUPAC_INCHI>
InChI=1S/C28H47NO7/c1-10-23-15(2)11-12-22(30)16(3)13-17(4)26(19(6)24(31)20(7)27(33)35-23)36-28-25(32)21(29(8)9)14-18(5)34-28/h11-12,15-21,23,25-26,28,32H,10,13-14H2,1-9H3/b12-11+/t15-,16-,17+,18-,19+,20-,21+,23-,25-,26+,28+/m1/s1

> <PUBCHEM_IUPAC_INCHIKEY>
OXFYAOOMMKGGAI-JLTOUBQASA-N

> <PUBCHEM_XLOGP3_AA>
4.4

> <PUBCHEM_EXACT_MASS>
509.335253

> <PUBCHEM_MOLECULAR_FORMULA>
C28H47NO7

> <PUBCHEM_MOLECULAR_WEIGHT>
509.67528

> <PUBCHEM_OPENEYE_CAN_SMILES>
CCC1C(C=CC(=O)C(CC(C(C(C(=O)C(C(=O)O1)C)C)OC2C(C(CC(O2)C)N(C)C)O)C)C)C

> <PUBCHEM_OPENEYE_ISO_SMILES>
CC[C@@H]1[C@@H](/C=C/C(=O)[C@@H](C[C@@H]([C@@H]([C@H](C(=O)[C@H](C(=O)O1)C)C)O[C@H]2[C@@H]([C@H](C[C@H](O2)C)N(C)C)O)C)C)C

> <PUBCHEM_CACTVS_TPSA>
102

> <PUBCHEM_MONOISOTOPIC_WEIGHT>
509.335253

> <PUBCHEM_TOTAL_CHARGE>
0

> <PUBCHEM_HEAVY_ATOM_COUNT>
36

> <PUBCHEM_ATOM_DEF_STEREO_COUNT>
11

> <PUBCHEM_ATOM_UDEF_STEREO_COUNT>
0

> <PUBCHEM_BOND_DEF_STEREO_COUNT>
1

> <PUBCHEM_BOND_UDEF_STEREO_COUNT>
0

> <PUBCHEM_ISOTOPIC_ATOM_COUNT>
0

> <PUBCHEM_COMPONENT_COUNT>
1

> <PUBCHEM_CACTVS_TAUTO_COUNT>
25

> <PUBCHEM_COORDINATE_TYPE>
1
5
255

> <PUBCHEM_BONDANNOTATIONS>
13  1  5
9  1  5
12  19  5
15  21  5
16  22  5
18  26  5
23  28  6
11  3  6
30  34  5
31  35  5
10  8  5

$$$$

