98490
  -OEChem-07051213013D

 25 27  0     0  0  0  0  0  0999 V2000
    3.4784    1.5181   -0.0005 O   0  0  0  0  0  0  0  0  0  0  0  0
    0.4191   -0.5849    0.0001 C   0  0  0  0  0  0  0  0  0  0  0  0
   -1.0104   -0.4122    0.0001 C   0  0  0  0  0  0  0  0  0  0  0  0
    1.2553    0.5620    0.0002 C   0  0  0  0  0  0  0  0  0  0  0  0
   -1.5488    0.9012    0.0001 C   0  0  0  0  0  0  0  0  0  0  0  0
    0.6877    1.8388    0.0004 C   0  0  0  0  0  0  0  0  0  0  0  0
   -0.6932    2.0058    0.0002 C   0  0  0  0  0  0  0  0  0  0  0  0
    1.0677   -1.8452    0.0001 C   0  0  0  0  0  0  0  0  0  0  0  0
    2.6542    0.4270    0.0000 C   0  0  0  0  0  0  0  0  0  0  0  0
   -1.9411   -1.4814    0.0001 C   0  0  0  0  0  0  0  0  0  0  0  0
   -2.9396    1.1038   -0.0002 C   0  0  0  0  0  0  0  0  0  0  0  0
    2.4600   -1.9654    0.0000 C   0  0  0  0  0  0  0  0  0  0  0  0
    3.2535   -0.8288   -0.0002 C   0  0  0  0  0  0  0  0  0  0  0  0
   -3.3218   -1.2660    0.0000 C   0  0  0  0  0  0  0  0  0  0  0  0
   -3.8210    0.0272   -0.0003 C   0  0  0  0  0  0  0  0  0  0  0  0
    1.2848    2.7465   -0.0183 H   0  0  0  0  0  0  0  0  0  0  0  0
   -1.0937    3.0180   -0.0039 H   0  0  0  0  0  0  0  0  0  0  0  0
    0.4973   -2.7706    0.0001 H   0  0  0  0  0  0  0  0  0  0  0  0
   -1.6080   -2.5161    0.0002 H   0  0  0  0  0  0  0  0  0  0  0  0
   -3.3518    2.1113   -0.0003 H   0  0  0  0  0  0  0  0  0  0  0  0
    2.9185   -2.9500    0.0000 H   0  0  0  0  0  0  0  0  0  0  0  0
    4.3355   -0.9254   -0.0003 H   0  0  0  0  0  0  0  0  0  0  0  0
   -4.0022   -2.1126    0.0000 H   0  0  0  0  0  0  0  0  0  0  0  0
   -4.8929    0.1998   -0.0005 H   0  0  0  0  0  0  0  0  0  0  0  0
    3.0818    2.2289    0.5281 H   0  0  0  0  0  0  0  0  0  0  0  0
  1  9  1  0  0  0  0
  1 25  1  0  0  0  0
  2  3  1  0  0  0  0
  2  4  2  0  0  0  0
  2  8  1  0  0  0  0
  3  5  1  0  0  0  0
  3 10  2  0  0  0  0
  4  6  1  0  0  0  0
  4  9  1  0  0  0  0
  5  7  1  0  0  0  0
  5 11  2  0  0  0  0
  6  7  2  0  0  0  0
  6 16  1  0  0  0  0
  7 17  1  0  0  0  0
  8 12  2  0  0  0  0
  8 18  1  0  0  0  0
  9 13  2  0  0  0  0
 10 14  1  0  0  0  0
 10 19  1  0  0  0  0
 11 15  1  0  0  0  0
 11 20  1  0  0  0  0
 12 13  1  0  0  0  0
 12 21  1  0  0  0  0
 13 22  1  0  0  0  0
 14 15  2  0  0  0  0
 14 23  1  0  0  0  0
 15 24  1  0  0  0  0
M  END
> <PUBCHEM_COMPOUND_CID>
98490

> <PUBCHEM_CONFORMER_RMSD>
0.4

> <PUBCHEM_CONFORMER_DIVERSEORDER>
1

> <PUBCHEM_MMFF94_PARTIAL_CHARGES>
21
1 -0.53
10 -0.15
11 -0.15
12 -0.15
13 -0.15
14 -0.15
15 -0.15
16 0.15
17 0.15
18 0.15
19 0.15
20 0.15
21 0.15
22 0.15
23 0.15
24 0.15
25 0.45
6 -0.15
7 -0.15
8 -0.15
9 0.08

> <PUBCHEM_EFFECTIVE_ROTOR_COUNT>
0

> <PUBCHEM_PHARMACOPHORE_FEATURES>
4
1 1 donor
6 2 3 4 5 6 7 rings
6 2 4 8 9 12 13 rings
6 3 5 10 11 14 15 rings

> <PUBCHEM_HEAVY_ATOM_COUNT>
15

> <PUBCHEM_ATOM_DEF_STEREO_COUNT>
0

> <PUBCHEM_ATOM_UDEF_STEREO_COUNT>
0

> <PUBCHEM_BOND_DEF_STEREO_COUNT>
0

> <PUBCHEM_BOND_UDEF_STEREO_COUNT>
0

> <PUBCHEM_ISOTOPIC_ATOM_COUNT>
0

> <PUBCHEM_COMPONENT_COUNT>
1

> <PUBCHEM_CACTVS_TAUTO_COUNT>
3

> <PUBCHEM_CONFORMER_ID>
000180BA00000001

> <PUBCHEM_MMFF94_ENERGY>
53.705

> <PUBCHEM_FEATURE_SELFOVERLAP>
20.346

> <PUBCHEM_SHAPE_FINGERPRINT>
10411042 1 15384155444667197217
10608611 8 18411985792547067309
10967382 1 18338797814550645798
10980938 120 18410292493132170770
11132069 177 18410300211098633672
11471102 20 18411143528185633597
11806522 49 18266463109671471815
12032990 46 18410568513468851439
12382932 28 18408885152618775643
13140716 1 18338797934862653435
13221675 6 18410012130583612327
13296908 3 18411418427441034227
13380535 76 18341333297060006370
13897977 150 18410296895357721556
14144814 61 18410292523318209307
14325111 11 18410855464454920513
14576447 43 17971769778560352919
15196674 1 18410575084821444911
15219456 202 18411421721517192591
15442244 35 18193838369159301850
15536298 74 18334294275453731094
16945 1 18122626316774540774
18186145 218 17775005721248650751
193761 8 17761775460982181667
19591789 44 16180991663863776149
200 152 18041571265132344295
20201158 50 18412545405447926219
20588541 1 18341048527827282497
20645477 70 18336270123650628559
21267235 1 18410283735651968007
21501502 16 18337390538456595625
21501925 9 18339654416050854178
221490 88 18412535518523232482
22721475 48 18410570729624282539
2334 1 18410856551050017387
23402539 116 18336277824094369535
23463225 33 18411699906543686278
23559900 14 18264777738945720642
2748010 2 18410576205665426062
3312278 4 18409726240433256009
335352 9 18122344854593016189
34934 24 18409456864389863693
5104073 3 18410855469013587427
528886 8 18410016502717791066
53812653 166 18262241014811231112
7364860 26 18335139752477011192
8809292 202 18272082816332246483
9709674 26 18410289228857299287

> <PUBCHEM_SHAPE_MULTIPOLES>
302.82
5.89
2.23
0.61
0.88
0.1
0
-0.73
0
-0.52
0
0.02
-0.01
0

> <PUBCHEM_SHAPE_SELFOVERLAP>
686.486

> <PUBCHEM_SHAPE_VOLUME>
159.1

> <PUBCHEM_COORDINATE_TYPE>
2
5
10

$$$$

