13370
  -OEChem-06261209252D

 33 32  0     0  0  0  0  0  0999 V2000
    6.3301   -1.7320    0.0000 P   0  0  0  0  0  0  0  0  0  0  0  0
    5.4641   -2.2320    0.0000 O   0  0  0  0  0  0  0  0  0  0  0  0
    5.8301   -0.8660    0.0000 O   0  0  0  0  0  0  0  0  0  0  0  0
    6.8301   -2.5981    0.0000 O   0  0  0  0  0  0  0  0  0  0  0  0
    7.1962   -1.2320    0.0000 N   0  0  0  0  0  0  0  0  0  0  0  0
    5.8301    0.8660    0.0000 C   0  0  0  0  0  0  0  0  0  0  0  0
    3.7320   -2.2320    0.0000 C   0  0  0  0  0  0  0  0  0  0  0  0
    4.5981   -1.7320    0.0000 C   0  0  0  0  0  0  0  0  0  0  0  0
    6.3301    0.0000    0.0000 C   0  0  0  0  0  0  0  0  0  0  0  0
    6.3301    1.7320    0.0000 C   0  0  0  0  0  0  0  0  0  0  0  0
    2.8660   -1.7320    0.0000 C   0  0  0  0  0  0  0  0  0  0  0  0
    2.0000   -2.2320    0.0000 C   0  0  0  0  0  0  0  0  0  0  0  0
    5.8301    2.5981    0.0000 C   0  0  0  0  0  0  0  0  0  0  0  0
    3.3335   -2.7070    0.0000 H   0  0  0  0  0  0  0  0  0  0  0  0
    4.1306   -2.7070    0.0000 H   0  0  0  0  0  0  0  0  0  0  0  0
    5.3552    1.2646    0.0000 H   0  0  0  0  0  0  0  0  0  0  0  0
    5.3552    0.4675    0.0000 H   0  0  0  0  0  0  0  0  0  0  0  0
    6.8051   -0.3985    0.0000 H   0  0  0  0  0  0  0  0  0  0  0  0
    6.8051    0.3985    0.0000 H   0  0  0  0  0  0  0  0  0  0  0  0
    4.9966   -1.2571    0.0000 H   0  0  0  0  0  0  0  0  0  0  0  0
    4.1996   -1.2571    0.0000 H   0  0  0  0  0  0  0  0  0  0  0  0
    3.2646   -1.2571    0.0000 H   0  0  0  0  0  0  0  0  0  0  0  0
    2.4675   -1.2571    0.0000 H   0  0  0  0  0  0  0  0  0  0  0  0
    6.8051    1.3335    0.0000 H   0  0  0  0  0  0  0  0  0  0  0  0
    6.8051    2.1306    0.0000 H   0  0  0  0  0  0  0  0  0  0  0  0
    1.6900   -1.6951    0.0000 H   0  0  0  0  0  0  0  0  0  0  0  0
    1.4631   -2.5420    0.0000 H   0  0  0  0  0  0  0  0  0  0  0  0
    2.3100   -2.7690    0.0000 H   0  0  0  0  0  0  0  0  0  0  0  0
    6.3671    2.9081    0.0000 H   0  0  0  0  0  0  0  0  0  0  0  0
    5.5201    3.1350    0.0000 H   0  0  0  0  0  0  0  0  0  0  0  0
    5.2932    2.2881    0.0000 H   0  0  0  0  0  0  0  0  0  0  0  0
    7.7331   -1.5420    0.0000 H   0  0  0  0  0  0  0  0  0  0  0  0
    7.1962   -0.6121    0.0000 H   0  0  0  0  0  0  0  0  0  0  0  0
  1  2  1  0  0  0  0
  1  3  1  0  0  0  0
  1  4  2  0  0  0  0
  1  5  1  0  0  0  0
  2  8  1  0  0  0  0
  3  9  1  0  0  0  0
  5 32  1  0  0  0  0
  5 33  1  0  0  0  0
  6  9  1  0  0  0  0
  6 10  1  0  0  0  0
  6 16  1  0  0  0  0
  6 17  1  0  0  0  0
  7  8  1  0  0  0  0
  7 11  1  0  0  0  0
  7 14  1  0  0  0  0
  7 15  1  0  0  0  0
  8 20  1  0  0  0  0
  8 21  1  0  0  0  0
  9 18  1  0  0  0  0
  9 19  1  0  0  0  0
 10 13  1  0  0  0  0
 10 24  1  0  0  0  0
 10 25  1  0  0  0  0
 11 12  1  0  0  0  0
 11 22  1  0  0  0  0
 11 23  1  0  0  0  0
 12 26  1  0  0  0  0
 12 27  1  0  0  0  0
 12 28  1  0  0  0  0
 13 29  1  0  0  0  0
 13 30  1  0  0  0  0
 13 31  1  0  0  0  0
M  END
> <PUBCHEM_COMPOUND_CID>
13370

> <PUBCHEM_COMPOUND_CANONICALIZED>
1

> <PUBCHEM_CACTVS_COMPLEXITY>
150

> <PUBCHEM_CACTVS_HBOND_ACCEPTOR>
4

> <PUBCHEM_CACTVS_HBOND_DONOR>
1

> <PUBCHEM_CACTVS_ROTATABLE_BOND>
8

> <PUBCHEM_CACTVS_SUBSKEYS>
AAADceByMAIAAAAAAAAAAAAAAAAAAAAAAAAAAAAAAAAAAAAAAAAAGgAQgCAACACggAICAAAAARAAQAAAAIAAAAAAAAAAAAAAAAAAAAAAAAAAAAAEAAAAAAAAAAAAAAAAAAAAAAAAAAAAAAAAAAAAAAAAAA==

> <PUBCHEM_IUPAC_OPENEYE_NAME>
1-[amino(butoxy)phosphoryl]oxybutane

> <PUBCHEM_IUPAC_CAS_NAME>
1-[amino(butoxy)phosphoryl]oxybutane

> <PUBCHEM_IUPAC_NAME>
1-[amino(butoxy)phosphoryl]oxybutane

> <PUBCHEM_IUPAC_SYSTEMATIC_NAME>
1-[azanyl(butoxy)phosphoryl]oxybutane

> <PUBCHEM_IUPAC_TRADITIONAL_NAME>
dibutoxyphosphorylamine

> <PUBCHEM_IUPAC_INCHI>
InChI=1S/C8H20NO3P/c1-3-5-7-11-13(9,10)12-8-6-4-2/h3-8H2,1-2H3,(H2,9,10)

> <PUBCHEM_IUPAC_INCHIKEY>
BDBZFUCZCKJSIY-UHFFFAOYSA-N

> <PUBCHEM_XLOGP3_AA>
1.2

> <PUBCHEM_EXACT_MASS>
209.11808

> <PUBCHEM_MOLECULAR_FORMULA>
C8H20NO3P

> <PUBCHEM_MOLECULAR_WEIGHT>
209.223062

> <PUBCHEM_OPENEYE_CAN_SMILES>
CCCCOP(=O)(N)OCCCC

> <PUBCHEM_OPENEYE_ISO_SMILES>
CCCCOP(=O)(N)OCCCC

> <PUBCHEM_CACTVS_TPSA>
61.6

> <PUBCHEM_MONOISOTOPIC_WEIGHT>
209.11808

> <PUBCHEM_TOTAL_CHARGE>
0

> <PUBCHEM_HEAVY_ATOM_COUNT>
13

> <PUBCHEM_ATOM_DEF_STEREO_COUNT>
0

> <PUBCHEM_ATOM_UDEF_STEREO_COUNT>
0

> <PUBCHEM_BOND_DEF_STEREO_COUNT>
0

> <PUBCHEM_BOND_UDEF_STEREO_COUNT>
0

> <PUBCHEM_ISOTOPIC_ATOM_COUNT>
0

> <PUBCHEM_COMPONENT_COUNT>
1

> <PUBCHEM_CACTVS_TAUTO_COUNT>
2

> <PUBCHEM_COORDINATE_TYPE>
1
5
255

$$$$

