12313347
  -OEChem-07051213092D

 60 63  0     1  0  0  0  0  0999 V2000
    8.1223   -2.0159    0.0000 O   0  0  0  0  0  0  0  0  0  0  0  0
    5.5103    1.5125    0.0000 O   0  0  0  0  0  0  0  0  0  0  0  0
    7.2762    2.5503    0.0000 O   0  0  0  0  0  0  0  0  0  0  0  0
    4.6497    1.0156    0.0000 O   0  0  0  0  0  0  0  0  0  0  0  0
    2.8680    0.0052    0.0000 O   0  0  0  0  0  0  0  0  0  0  0  0
    9.8438   -2.0487    0.0000 O   0  0  0  0  0  0  0  0  0  0  0  0
    7.2641   -0.5190    0.0000 C   0  0  2  0  0  0  0  0  0  0  0  0
    6.3981   -0.0190    0.0000 C   0  0  1  0  0  0  0  0  0  0  0  0
    5.5320   -0.5190    0.0000 C   0  0  1  0  0  0  0  0  0  0  0  0
    8.1741   -0.0122    0.0000 C   0  0  2  0  0  0  0  0  0  0  0  0
    7.2641   -1.5190    0.0000 C   0  0  1  0  0  0  0  0  0  0  0  0
    5.5320   -1.5190    0.0000 C   0  0  1  0  0  0  0  0  0  0  0  0
    6.3820    1.0225    0.0000 C   0  0  1  0  0  0  0  0  0  0  0  0
    6.3981   -2.0190    0.0000 C   0  0  0  0  0  0  0  0  0  0  0  0
    8.1821    1.0294    0.0000 C   0  0  2  0  0  0  0  0  0  0  0  0
    7.2800    1.5503    0.0000 C   0  0  2  0  0  0  0  0  0  0  0  0
    7.2641    0.4810    0.0000 C   0  0  0  0  0  0  0  0  0  0  0  0
    9.0134   -0.5404    0.0000 C   0  0  0  0  0  0  0  0  0  0  0  0
    4.6381   -2.0537    0.0000 C   0  0  1  0  0  0  0  0  0  0  0  0
    5.5320    0.4810    0.0000 C   0  0  0  0  0  0  0  0  0  0  0  0
    4.6381    0.0157    0.0000 C   0  0  0  0  0  0  0  0  0  0  0  0
    9.0501    1.5261    0.0000 C   0  0  0  0  0  0  0  0  0  0  0  0
    8.9878   -1.5318    0.0000 C   0  0  0  0  0  0  0  0  0  0  0  0
    3.7320   -1.5398    0.0000 C   0  0  0  0  0  0  0  0  0  0  0  0
    3.7320   -0.4982    0.0000 C   0  0  0  0  0  0  0  0  0  0  0  0
    4.6497   -3.0536    0.0000 C   0  0  0  0  0  0  0  0  0  0  0  0
    8.1403    3.0536    0.0000 C   0  0  0  0  0  0  0  0  0  0  0  0
    2.0000   -0.4915    0.0000 C   0  0  0  0  0  0  0  0  0  0  0  0
    7.1309    0.4117    0.0000 H   0  0  0  0  0  0  0  0  0  0  0  0
    8.9198    0.3959    0.0000 H   0  0  0  0  0  0  0  0  0  0  0  0
    7.2636   -2.3690    0.0000 H   0  0  0  0  0  0  0  0  0  0  0  0
    5.5386   -2.3690    0.0000 H   0  0  0  0  0  0  0  0  0  0  0  0
    5.8493    0.7053    0.0000 H   0  0  0  0  0  0  0  0  0  0  0  0
    5.9995   -2.4939    0.0000 H   0  0  0  0  0  0  0  0  0  0  0  0
    6.7966   -2.4939    0.0000 H   0  0  0  0  0  0  0  0  0  0  0  0
    8.7173    0.7164    0.0000 H   0  0  0  0  0  0  0  0  0  0  0  0
    6.7413    1.8572    0.0000 H   0  0  0  0  0  0  0  0  0  0  0  0
    7.8841    0.4810    0.0000 H   0  0  0  0  0  0  0  0  0  0  0  0
    7.2641    1.1010    0.0000 H   0  0  0  0  0  0  0  0  0  0  0  0
    6.6441    0.4810    0.0000 H   0  0  0  0  0  0  0  0  0  0  0  0
    9.6205   -0.6663    0.0000 H   0  0  0  0  0  0  0  0  0  0  0  0
    9.2452    0.0347    0.0000 H   0  0  0  0  0  0  0  0  0  0  0  0
    4.1042   -2.3688    0.0000 H   0  0  0  0  0  0  0  0  0  0  0  0
    6.1520    0.4810    0.0000 H   0  0  0  0  0  0  0  0  0  0  0  0
    5.5320    1.1010    0.0000 H   0  0  0  0  0  0  0  0  0  0  0  0
    4.9120    0.4810    0.0000 H   0  0  0  0  0  0  0  0  0  0  0  0
    9.3580    0.9880    0.0000 H   0  0  0  0  0  0  0  0  0  0  0  0
    9.5882    1.8340    0.0000 H   0  0  0  0  0  0  0  0  0  0  0  0
    8.7422    2.0642    0.0000 H   0  0  0  0  0  0  0  0  0  0  0  0
    3.1963   -1.8519    0.0000 H   0  0  0  0  0  0  0  0  0  0  0  0
    5.5031    2.1324    0.0000 H   0  0  0  0  0  0  0  0  0  0  0  0
    4.0297   -3.0608    0.0000 H   0  0  0  0  0  0  0  0  0  0  0  0
    4.6568   -3.6736    0.0000 H   0  0  0  0  0  0  0  0  0  0  0  0
    5.2696   -3.0464    0.0000 H   0  0  0  0  0  0  0  0  0  0  0  0
    8.4523    2.5178    0.0000 H   0  0  0  0  0  0  0  0  0  0  0  0
    8.6760    3.3657    0.0000 H   0  0  0  0  0  0  0  0  0  0  0  0
    7.8282    3.5893    0.0000 H   0  0  0  0  0  0  0  0  0  0  0  0
    1.6921    0.0466    0.0000 H   0  0  0  0  0  0  0  0  0  0  0  0
    1.4619   -0.7994    0.0000 H   0  0  0  0  0  0  0  0  0  0  0  0
    2.3079   -1.0296    0.0000 H   0  0  0  0  0  0  0  0  0  0  0  0
  1 11  1  0  0  0  0
  1 23  1  0  0  0  0
 13  2  1  6  0  0  0
  2 51  1  0  0  0  0
 16  3  1  1  0  0  0
  3 27  1  0  0  0  0
  4 21  2  0  0  0  0
  5 25  1  0  0  0  0
  5 28  1  0  0  0  0
  6 23  2  0  0  0  0
  7  8  1  0  0  0  0
  7 10  1  0  0  0  0
  7 11  1  0  0  0  0
  7 17  1  1  0  0  0
  8  9  1  0  0  0  0
  8 13  1  0  0  0  0
  8 29  1  6  0  0  0
  9 12  1  0  0  0  0
  9 20  1  1  0  0  0
  9 21  1  0  0  0  0
 10 15  1  0  0  0  0
 10 18  1  0  0  0  0
 10 30  1  1  0  0  0
 11 14  1  0  0  0  0
 11 31  1  1  0  0  0
 12 14  1  0  0  0  0
 12 19  1  0  0  0  0
 12 32  1  6  0  0  0
 13 16  1  0  0  0  0
 13 33  1  0  0  0  0
 14 34  1  0  0  0  0
 14 35  1  0  0  0  0
 15 16  1  0  0  0  0
 15 22  1  6  0  0  0
 15 36  1  0  0  0  0
 16 37  1  0  0  0  0
 17 38  1  0  0  0  0
 17 39  1  0  0  0  0
 17 40  1  0  0  0  0
 18 23  1  0  0  0  0
 18 41  1  0  0  0  0
 18 42  1  0  0  0  0
 19 24  1  0  0  0  0
 19 26  1  6  0  0  0
 19 43  1  0  0  0  0
 20 44  1  0  0  0  0
 20 45  1  0  0  0  0
 20 46  1  0  0  0  0
 21 25  1  0  0  0  0
 22 47  1  0  0  0  0
 22 48  1  0  0  0  0
 22 49  1  0  0  0  0
 24 25  2  0  0  0  0
 24 50  1  0  0  0  0
 26 52  1  0  0  0  0
 26 53  1  0  0  0  0
 26 54  1  0  0  0  0
 27 55  1  0  0  0  0
 27 56  1  0  0  0  0
 27 57  1  0  0  0  0
 28 58  1  0  0  0  0
 28 59  1  0  0  0  0
 28 60  1  0  0  0  0
M  END
> <PUBCHEM_COMPOUND_CID>
12313347

> <PUBCHEM_COMPOUND_CANONICALIZED>
1

> <PUBCHEM_CACTVS_COMPLEXITY>
731

> <PUBCHEM_CACTVS_HBOND_ACCEPTOR>
6

> <PUBCHEM_CACTVS_HBOND_DONOR>
1

> <PUBCHEM_CACTVS_ROTATABLE_BOND>
2

> <PUBCHEM_CACTVS_SUBSKEYS>
AAADcfB4OAAAAAAAAAAAAAAAAAAAAAAAAAA0YIEAAAAAAADQAAAAGgAACAAADxSggAICCAAABgCIAKDSCAIACAAgIAAACAFAAEgBEBIAAAQCQAAEgAALAYPK7PzPgAAAAAAAAADAAAYAADCAAAAAAAAAAA==

> <PUBCHEM_IUPAC_INCHI>
InChI=1S/C22H32O6/c1-10-7-14(26-5)20(25)22(4)12(10)8-15-21(3)13(9-16(23)28-15)11(2)18(27-6)17(24)19(21)22/h7,10-13,15,17-19,24H,8-9H2,1-6H3/t10-,11-,12+,13+,15-,17-,18+,19+,21-,22+/m1/s1

> <PUBCHEM_IUPAC_INCHIKEY>
DCUOEDHQKMLWHI-PJZZLEGSSA-N

> <PUBCHEM_XLOGP3_AA>
2.5

> <PUBCHEM_EXACT_MASS>
392.219889

> <PUBCHEM_MOLECULAR_FORMULA>
C22H32O6

> <PUBCHEM_MOLECULAR_WEIGHT>
392.48588

> <PUBCHEM_OPENEYE_CAN_SMILES>
CC1C=C(C(=O)C2(C1CC3C4(C2C(C(C(C4CC(=O)O3)C)OC)O)C)C)OC

> <PUBCHEM_OPENEYE_ISO_SMILES>
C[C@@H]1C=C(C(=O)[C@]2([C@H]1C[C@@H]3[C@@]4([C@@H]2[C@@H]([C@H]([C@@H]([C@@H]4CC(=O)O3)C)OC)O)C)C)OC

> <PUBCHEM_CACTVS_TPSA>
82.1

> <PUBCHEM_MONOISOTOPIC_WEIGHT>
392.219889

> <PUBCHEM_TOTAL_CHARGE>
0

> <PUBCHEM_HEAVY_ATOM_COUNT>
28

> <PUBCHEM_ATOM_DEF_STEREO_COUNT>
10

> <PUBCHEM_ATOM_UDEF_STEREO_COUNT>
0

> <PUBCHEM_BOND_DEF_STEREO_COUNT>
0

> <PUBCHEM_BOND_UDEF_STEREO_COUNT>
0

> <PUBCHEM_ISOTOPIC_ATOM_COUNT>
0

> <PUBCHEM_COMPONENT_COUNT>
1

> <PUBCHEM_CACTVS_TAUTO_COUNT>
6

> <PUBCHEM_COORDINATE_TYPE>
1
5
255

> <PUBCHEM_BONDANNOTATIONS>
10  30  5
11  31  5
12  32  6
15  22  6
19  26  6
13  2  6
16  3  5
7  17  5
8  29  6
9  20  5

$$$$

