46174042
  -OEChem-07051213112D

 35 37  0     1  0  0  0  0  0999 V2000
    4.8694   -1.2300    0.0000 O   0  0  0  0  0  0  0  0  0  0  0  0
    6.4513   -2.0382    0.0000 O   0  0  0  0  0  0  0  0  0  0  0  0
    7.3327    1.0012    0.0000 O   0  0  0  0  0  0  0  0  0  0  0  0
    2.7354    0.0701    0.0000 C   0  0  0  0  0  0  0  0  0  0  0  0
    3.7508    0.3024    0.0000 C   0  0  0  0  0  0  0  0  0  0  0  0
    4.5598   -0.2854    0.0000 C   0  0  2  0  0  0  0  0  0  0  0  0
    5.3688    0.3024    0.0000 C   0  0  2  0  0  0  0  0  0  0  0  0
    4.0598    1.2534    0.0000 C   0  0  0  0  0  0  0  0  0  0  0  0
    5.0598    1.2534    0.0000 C   0  0  0  0  0  0  0  0  0  0  0  0
    2.0324    0.8388    0.0000 C   0  0  0  0  0  0  0  0  0  0  0  0
    3.3748    2.0382    0.0000 C   0  0  0  0  0  0  0  0  0  0  0  0
    2.3543    1.8295    0.0000 C   0  0  0  0  0  0  0  0  0  0  0  0
    6.1715   -0.2840    0.0000 C   0  0  0  0  0  0  0  0  0  0  0  0
    2.0000   -0.6075    0.0000 C   0  0  0  0  0  0  0  0  0  0  0  0
    2.9546   -0.9055    0.0000 C   0  0  0  0  0  0  0  0  0  0  0  0
    5.8635   -1.2292    0.0000 C   0  0  0  0  0  0  0  0  0  0  0  0
    7.1231    0.0234    0.0000 C   0  0  0  0  0  0  0  0  0  0  0  0
    3.8728   -0.7859    0.0000 H   0  0  0  0  0  0  0  0  0  0  0  0
    6.0571    0.8011    0.0000 H   0  0  0  0  0  0  0  0  0  0  0  0
    5.6662    1.3824    0.0000 H   0  0  0  0  0  0  0  0  0  0  0  0
    4.9950    1.8700    0.0000 H   0  0  0  0  0  0  0  0  0  0  0  0
    1.4842    1.1285    0.0000 H   0  0  0  0  0  0  0  0  0  0  0  0
    1.6532    0.3483    0.0000 H   0  0  0  0  0  0  0  0  0  0  0  0
    3.9048    2.3600    0.0000 H   0  0  0  0  0  0  0  0  0  0  0  0
    3.1485    2.6154    0.0000 H   0  0  0  0  0  0  0  0  0  0  0  0
    2.3359    2.4492    0.0000 H   0  0  0  0  0  0  0  0  0  0  0  0
    1.7406    1.9173    0.0000 H   0  0  0  0  0  0  0  0  0  0  0  0
    1.5798   -0.1516    0.0000 H   0  0  0  0  0  0  0  0  0  0  0  0
    1.5441   -1.0277    0.0000 H   0  0  0  0  0  0  0  0  0  0  0  0
    2.4202   -1.0635    0.0000 H   0  0  0  0  0  0  0  0  0  0  0  0
    2.3496   -1.0414    0.0000 H   0  0  0  0  0  0  0  0  0  0  0  0
    3.0905   -1.5105    0.0000 H   0  0  0  0  0  0  0  0  0  0  0  0
    3.5595   -0.7696    0.0000 H   0  0  0  0  0  0  0  0  0  0  0  0
    7.5831   -0.3923    0.0000 H   0  0  0  0  0  0  0  0  0  0  0  0
    7.9227    1.1917    0.0000 H   0  0  0  0  0  0  0  0  0  0  0  0
  1  6  1  0  0  0  0
  1 16  1  0  0  0  0
  2 16  2  0  0  0  0
  3 17  1  0  0  0  0
  3 35  1  0  0  0  0
  4  5  1  0  0  0  0
  4 10  1  0  0  0  0
  4 14  1  0  0  0  0
  4 15  1  0  0  0  0
  5  6  1  0  0  0  0
  5  8  2  0  0  0  0
  6  7  1  0  0  0  0
  6 18  1  1  0  0  0
  7  9  1  0  0  0  0
  7 13  1  0  0  0  0
  7 19  1  1  0  0  0
  8  9  1  0  0  0  0
  8 11  1  0  0  0  0
  9 20  1  0  0  0  0
  9 21  1  0  0  0  0
 10 12  1  0  0  0  0
 10 22  1  0  0  0  0
 10 23  1  0  0  0  0
 11 12  1  0  0  0  0
 11 24  1  0  0  0  0
 11 25  1  0  0  0  0
 12 26  1  0  0  0  0
 12 27  1  0  0  0  0
 13 16  1  0  0  0  0
 13 17  2  0  0  0  0
 14 28  1  0  0  0  0
 14 29  1  0  0  0  0
 14 30  1  0  0  0  0
 15 31  1  0  0  0  0
 15 32  1  0  0  0  0
 15 33  1  0  0  0  0
 17 34  1  0  0  0  0
M  END
> <PUBCHEM_COMPOUND_CID>
46174042

> <PUBCHEM_COMPOUND_CANONICALIZED>
1

> <PUBCHEM_CACTVS_COMPLEXITY>
442

> <PUBCHEM_CACTVS_HBOND_ACCEPTOR>
3

> <PUBCHEM_CACTVS_HBOND_DONOR>
1

> <PUBCHEM_CACTVS_ROTATABLE_BOND>
0

> <PUBCHEM_CACTVS_SUBSKEYS>
AAADceBwMAAAAAAAAAAAAAAAAAAAASIAAAAgAAAAAAAQAGAAAAAAGgAACAAADxSggAICCAAABgCIAgDSCAAAAAAgIAAACAEAAEgAFBIAIQACEAAEwAAIIIOKyOCPAAAAAAAAAAAAAAAAAAAAAAAAAAAAAA==

> <PUBCHEM_IUPAC_OPENEYE_NAME>
(3E,3aR,8bS)-3-(hydroxymethylene)-8,8-dimethyl-3a,4,5,6,7,8b-hexahydroindeno[1,2-b]furan-2-one

> <PUBCHEM_IUPAC_CAS_NAME>
(3E,3aR,8bS)-3-(hydroxymethylidene)-8,8-dimethyl-3a,4,5,6,7,8b-hexahydroindeno[1,2-b]furan-2-one

> <PUBCHEM_IUPAC_NAME>
(3E,3aR,8bS)-3-(hydroxymethylidene)-8,8-dimethyl-3a,4,5,6,7,8b-hexahydroindeno[1,2-b]furan-2-one

> <PUBCHEM_IUPAC_SYSTEMATIC_NAME>
(3E,3aR,8bS)-8,8-dimethyl-3-(oxidanylmethylidene)-3a,4,5,6,7,8b-hexahydroindeno[1,2-b]furan-2-one

> <PUBCHEM_IUPAC_TRADITIONAL_NAME>
(3E,3aR,8bS)-3-(hydroxymethylene)-8,8-dimethyl-3a,4,5,6,7,8b-hexahydroindeno[1,2-b]furan-2-one

> <PUBCHEM_IUPAC_INCHI>
InChI=1S/C14H18O3/c1-14(2)5-3-4-8-6-9-10(7-15)13(16)17-12(9)11(8)14/h7,9,12,15H,3-6H2,1-2H3/b10-7+/t9-,12+/m1/s1

> <PUBCHEM_IUPAC_INCHIKEY>
UTOQMVIHBGIRGU-DTHKZTQTSA-N

> <PUBCHEM_XLOGP3_AA>
2.5

> <PUBCHEM_EXACT_MASS>
234.125594

> <PUBCHEM_MOLECULAR_FORMULA>
C14H18O3

> <PUBCHEM_MOLECULAR_WEIGHT>
234.29092

> <PUBCHEM_OPENEYE_CAN_SMILES>
CC1(CCCC2=C1C3C(C2)C(=CO)C(=O)O3)C

> <PUBCHEM_OPENEYE_ISO_SMILES>
CC1(CCCC2=C1[C@@H]3[C@H](C2)/C(=C\O)/C(=O)O3)C

> <PUBCHEM_CACTVS_TPSA>
46.5

> <PUBCHEM_MONOISOTOPIC_WEIGHT>
234.125594

> <PUBCHEM_TOTAL_CHARGE>
0

> <PUBCHEM_HEAVY_ATOM_COUNT>
17

> <PUBCHEM_ATOM_DEF_STEREO_COUNT>
2

> <PUBCHEM_ATOM_UDEF_STEREO_COUNT>
0

> <PUBCHEM_BOND_DEF_STEREO_COUNT>
1

> <PUBCHEM_BOND_UDEF_STEREO_COUNT>
0

> <PUBCHEM_ISOTOPIC_ATOM_COUNT>
0

> <PUBCHEM_COMPONENT_COUNT>
1

> <PUBCHEM_CACTVS_TAUTO_COUNT>
3

> <PUBCHEM_COORDINATE_TYPE>
1
5
255

> <PUBCHEM_BONDANNOTATIONS>
6  18  5
7  19  5

$$$$

