73509
  -OEChem-07051212472D

 14 14  0     1  0  0  0  0  0999 V2000
    3.7601    1.4571    0.0000 O   0  0  0  0  0  0  0  0  0  0  0  0
    2.0000    1.1784    0.0000 O   0  0  0  0  0  0  0  0  0  0  0  0
    2.6723   -0.8907    0.0000 N   0  0  0  0  0  0  0  0  0  0  0  0
    3.2601   -0.0817    0.0000 C   0  0  3  0  0  0  0  0  0  0  0  0
    4.2601   -0.0817    0.0000 C   0  0  0  0  0  0  0  0  0  0  0  0
    4.5691    0.8693    0.0000 C   0  0  0  0  0  0  0  0  0  0  0  0
    2.9511    0.8693    0.0000 C   0  0  0  0  0  0  0  0  0  0  0  0
    2.4205    0.0513    0.0000 H   0  0  0  0  0  0  0  0  0  0  0  0
    4.1953   -0.6983    0.0000 H   0  0  0  0  0  0  0  0  0  0  0  0
    4.8665   -0.2106    0.0000 H   0  0  0  0  0  0  0  0  0  0  0  0
    5.1355    0.6172    0.0000 H   0  0  0  0  0  0  0  0  0  0  0  0
    4.8791    1.4063    0.0000 H   0  0  0  0  0  0  0  0  0  0  0  0
    2.9245   -1.4571    0.0000 H   0  0  0  0  0  0  0  0  0  0  0  0
    2.0557   -0.8259    0.0000 H   0  0  0  0  0  0  0  0  0  0  0  0
  1  6  1  0  0  0  0
  1  7  1  0  0  0  0
  2  7  2  0  0  0  0
  3  4  1  0  0  0  0
  3 13  1  0  0  0  0
  3 14  1  0  0  0  0
  4  5  1  0  0  0  0
  4  7  1  0  0  0  0
  4  8  1  0  0  0  0
  5  6  1  0  0  0  0
  5  9  1  0  0  0  0
  5 10  1  0  0  0  0
  6 11  1  0  0  0  0
  6 12  1  0  0  0  0
M  END
> <PUBCHEM_COMPOUND_CID>
73509

> <PUBCHEM_COMPOUND_CANONICALIZED>
1

> <PUBCHEM_CACTVS_COMPLEXITY>
91.7

> <PUBCHEM_CACTVS_HBOND_ACCEPTOR>
3

> <PUBCHEM_CACTVS_HBOND_DONOR>
1

> <PUBCHEM_CACTVS_ROTATABLE_BOND>
0

> <PUBCHEM_CACTVS_SUBSKEYS>
AAADcYBiMAAAAAAAAAAAAAAAAAAAASAAAAAAAAAAAAAAAAAAAAAAHgAQAAAACCjhgAYACABABAAIAACQCAAAAAAAAAAAAIGAAAACABAAAAADAAAGEAAAAAACAAAAAAAAAAAAAAAAAAAAAAAAAAAAAAAAAA==

> <PUBCHEM_IUPAC_OPENEYE_NAME>
3-aminotetrahydrofuran-2-one

> <PUBCHEM_IUPAC_CAS_NAME>
3-amino-2-oxolanone

> <PUBCHEM_IUPAC_NAME>
3-aminooxolan-2-one

> <PUBCHEM_IUPAC_SYSTEMATIC_NAME>
3-azanyloxolan-2-one

> <PUBCHEM_IUPAC_TRADITIONAL_NAME>
3-aminotetrahydrofuran-2-one

> <PUBCHEM_IUPAC_INCHI>
InChI=1S/C4H7NO2/c5-3-1-2-7-4(3)6/h3H,1-2,5H2

> <PUBCHEM_IUPAC_INCHIKEY>
QJPWUUJVYOJNMH-UHFFFAOYSA-N

> <PUBCHEM_XLOGP3_AA>
-0.6

> <PUBCHEM_EXACT_MASS>
101.047678

> <PUBCHEM_MOLECULAR_FORMULA>
C4H7NO2

> <PUBCHEM_MOLECULAR_WEIGHT>
101.10388

> <PUBCHEM_OPENEYE_CAN_SMILES>
C1COC(=O)C1N

> <PUBCHEM_OPENEYE_ISO_SMILES>
C1COC(=O)C1N

> <PUBCHEM_CACTVS_TPSA>
52.3

> <PUBCHEM_MONOISOTOPIC_WEIGHT>
101.047678

> <PUBCHEM_TOTAL_CHARGE>
0

> <PUBCHEM_HEAVY_ATOM_COUNT>
7

> <PUBCHEM_ATOM_DEF_STEREO_COUNT>
0

> <PUBCHEM_ATOM_UDEF_STEREO_COUNT>
1

> <PUBCHEM_BOND_DEF_STEREO_COUNT>
0

> <PUBCHEM_BOND_UDEF_STEREO_COUNT>
0

> <PUBCHEM_ISOTOPIC_ATOM_COUNT>
0

> <PUBCHEM_COMPONENT_COUNT>
1

> <PUBCHEM_CACTVS_TAUTO_COUNT>
4

> <PUBCHEM_COORDINATE_TYPE>
1
5
255

> <PUBCHEM_BONDANNOTATIONS>
4  8  3

$$$$

