17396104
  -OEChem-06241222542D

 64 68  0     1  0  0  0  0  0999 V2000
    5.4641   -0.7500    0.0000 S   0  0  0  0  0  0  0  0  0  0  0  0
   15.0706    0.9453    0.0000 O   0  0  0  0  0  0  0  0  0  0  0  0
    4.9641    0.1160    0.0000 O   0  0  0  0  0  0  0  0  0  0  0  0
    5.9641   -1.6160    0.0000 O   0  0  0  0  0  0  0  0  0  0  0  0
   10.6603    2.2500    0.0000 N   0  0  0  0  0  0  0  0  0  0  0  0
    8.9282    1.2500    0.0000 N   0  0  0  0  0  0  0  0  0  0  0  0
    8.0622   -0.2500    0.0000 N   0  0  0  0  0  0  0  0  0  0  0  0
    4.5981   -1.2500    0.0000 N   0  0  3  0  0  0  0  0  0  0  0  0
    9.7942    2.7500    0.0000 C   0  0  0  0  0  0  0  0  0  0  0  0
   10.6603    1.2500    0.0000 C   0  0  0  0  0  0  0  0  0  0  0  0
    8.9282    2.2500    0.0000 C   0  0  0  0  0  0  0  0  0  0  0  0
    9.7942    0.7500    0.0000 C   0  0  0  0  0  0  0  0  0  0  0  0
   11.5263    2.7500    0.0000 C   0  0  0  0  0  0  0  0  0  0  0  0
   12.3923    2.2500    0.0000 C   0  0  0  0  0  0  0  0  0  0  0  0
    8.0622    0.7500    0.0000 C   0  0  0  0  0  0  0  0  0  0  0  0
   14.1244    2.2500    0.0000 C   0  0  0  0  0  0  0  0  0  0  0  0
   13.2583    2.7500    0.0000 C   0  0  0  0  0  0  0  0  0  0  0  0
   12.3923    1.2500    0.0000 C   0  0  0  0  0  0  0  0  0  0  0  0
   15.0706    2.5547    0.0000 C   0  0  0  0  0  0  0  0  0  0  0  0
   14.1244    1.2500    0.0000 C   0  0  0  0  0  0  0  0  0  0  0  0
    7.1962    1.2500    0.0000 C   0  0  0  0  0  0  0  0  0  0  0  0
   15.6542    1.7500    0.0000 C   0  0  0  0  0  0  0  0  0  0  0  0
   13.2583    0.7500    0.0000 C   0  0  0  0  0  0  0  0  0  0  0  0
    6.3301   -0.2500    0.0000 C   0  0  0  0  0  0  0  0  0  0  0  0
    6.3301    0.7500    0.0000 C   0  0  0  0  0  0  0  0  0  0  0  0
    7.1962   -0.7500    0.0000 C   0  0  0  0  0  0  0  0  0  0  0  0
    4.5981   -2.2500    0.0000 C   0  0  0  0  0  0  0  0  0  0  0  0
    3.7320   -0.7500    0.0000 C   0  0  0  0  0  0  0  0  0  0  0  0
    3.7320   -2.7500    0.0000 C   0  0  0  0  0  0  0  0  0  0  0  0
    3.7320    0.2500    0.0000 C   0  0  0  0  0  0  0  0  0  0  0  0
    2.8660   -1.2500    0.0000 C   0  0  0  0  0  0  0  0  0  0  0  0
    2.8660    0.7500    0.0000 C   0  0  0  0  0  0  0  0  0  0  0  0
    2.0000   -0.7500    0.0000 C   0  0  0  0  0  0  0  0  0  0  0  0
    2.0000    0.2500    0.0000 C   0  0  0  0  0  0  0  0  0  0  0  0
   10.8723    0.6674    0.0000 H   0  0  0  0  0  0  0  0  0  0  0  0
   11.2708    1.3577    0.0000 H   0  0  0  0  0  0  0  0  0  0  0  0
   10.1928    3.2250    0.0000 H   0  0  0  0  0  0  0  0  0  0  0  0
    9.3957    3.2250    0.0000 H   0  0  0  0  0  0  0  0  0  0  0  0
    9.3957    0.2751    0.0000 H   0  0  0  0  0  0  0  0  0  0  0  0
   10.1928    0.2751    0.0000 H   0  0  0  0  0  0  0  0  0  0  0  0
    8.7162    2.8326    0.0000 H   0  0  0  0  0  0  0  0  0  0  0  0
    8.3176    2.1423    0.0000 H   0  0  0  0  0  0  0  0  0  0  0  0
   11.9248    3.2250    0.0000 H   0  0  0  0  0  0  0  0  0  0  0  0
   11.1278    3.2250    0.0000 H   0  0  0  0  0  0  0  0  0  0  0  0
   13.2583    3.3700    0.0000 H   0  0  0  0  0  0  0  0  0  0  0  0
   11.8554    0.9400    0.0000 H   0  0  0  0  0  0  0  0  0  0  0  0
   15.6080    2.8640    0.0000 H   0  0  0  0  0  0  0  0  0  0  0  0
   14.8195    3.1216    0.0000 H   0  0  0  0  0  0  0  0  0  0  0  0
    7.1962    1.8700    0.0000 H   0  0  0  0  0  0  0  0  0  0  0  0
   16.1151    1.3353    0.0000 H   0  0  0  0  0  0  0  0  0  0  0  0
   16.1151    2.1647    0.0000 H   0  0  0  0  0  0  0  0  0  0  0  0
   13.2583    0.1300    0.0000 H   0  0  0  0  0  0  0  0  0  0  0  0
    5.7932    1.0600    0.0000 H   0  0  0  0  0  0  0  0  0  0  0  0
    7.1962   -1.3700    0.0000 H   0  0  0  0  0  0  0  0  0  0  0  0
    4.8101   -2.8326    0.0000 H   0  0  0  0  0  0  0  0  0  0  0  0
    5.2087   -2.1423    0.0000 H   0  0  0  0  0  0  0  0  0  0  0  0
    3.4220   -2.2131    0.0000 H   0  0  0  0  0  0  0  0  0  0  0  0
    3.1951   -3.0600    0.0000 H   0  0  0  0  0  0  0  0  0  0  0  0
    4.0420   -3.2869    0.0000 H   0  0  0  0  0  0  0  0  0  0  0  0
    4.2690    0.5600    0.0000 H   0  0  0  0  0  0  0  0  0  0  0  0
    2.8660   -1.8700    0.0000 H   0  0  0  0  0  0  0  0  0  0  0  0
    2.8660    1.3700    0.0000 H   0  0  0  0  0  0  0  0  0  0  0  0
    1.4631   -1.0600    0.0000 H   0  0  0  0  0  0  0  0  0  0  0  0
    1.4631    0.5600    0.0000 H   0  0  0  0  0  0  0  0  0  0  0  0
  1  3  2  0  0  0  0
  1  4  2  0  0  0  0
  1  8  1  0  0  0  0
  1 24  1  0  0  0  0
  2 20  1  0  0  0  0
  2 22  1  0  0  0  0
  5  9  1  0  0  0  0
  5 10  1  0  0  0  0
  5 13  1  0  0  0  0
  6 11  1  0  0  0  0
  6 12  1  0  0  0  0
  6 15  1  0  0  0  0
  7 15  2  0  0  0  0
  7 26  1  0  0  0  0
  8 27  1  0  0  0  0
  8 28  1  0  0  0  0
  9 11  1  0  0  0  0
  9 37  1  0  0  0  0
  9 38  1  0  0  0  0
 10 12  1  0  0  0  0
 10 35  1  0  0  0  0
 10 36  1  0  0  0  0
 11 41  1  0  0  0  0
 11 42  1  0  0  0  0
 12 39  1  0  0  0  0
 12 40  1  0  0  0  0
 13 14  1  0  0  0  0
 13 43  1  0  0  0  0
 13 44  1  0  0  0  0
 14 17  2  0  0  0  0
 14 18  1  0  0  0  0
 15 21  1  0  0  0  0
 16 17  1  0  0  0  0
 16 19  1  0  0  0  0
 16 20  2  0  0  0  0
 17 45  1  0  0  0  0
 18 23  2  0  0  0  0
 18 46  1  0  0  0  0
 19 22  1  0  0  0  0
 19 47  1  0  0  0  0
 19 48  1  0  0  0  0
 20 23  1  0  0  0  0
 21 25  2  0  0  0  0
 21 49  1  0  0  0  0
 22 50  1  0  0  0  0
 22 51  1  0  0  0  0
 23 52  1  0  0  0  0
 24 25  1  0  0  0  0
 24 26  2  0  0  0  0
 25 53  1  0  0  0  0
 26 54  1  0  0  0  0
 27 29  1  0  0  0  0
 27 55  1  0  0  0  0
 27 56  1  0  0  0  0
 28 30  2  0  0  0  0
 28 31  1  0  0  0  0
 29 57  1  0  0  0  0
 29 58  1  0  0  0  0
 29 59  1  0  0  0  0
 30 32  1  0  0  0  0
 30 60  1  0  0  0  0
 31 33  2  0  0  0  0
 31 61  1  0  0  0  0
 32 34  2  0  0  0  0
 32 62  1  0  0  0  0
 33 34  1  0  0  0  0
 33 63  1  0  0  0  0
 34 64  1  0  0  0  0
M  END
> <PUBCHEM_COMPOUND_CID>
17396104

> <PUBCHEM_COMPOUND_CANONICALIZED>
1

> <PUBCHEM_CACTVS_COMPLEXITY>
746

> <PUBCHEM_CACTVS_HBOND_ACCEPTOR>
7

> <PUBCHEM_CACTVS_HBOND_DONOR>
0

> <PUBCHEM_CACTVS_ROTATABLE_BOND>
7

> <PUBCHEM_CACTVS_SUBSKEYS>
AAADceB7sABAAAAAAAAAAAAAAAAAASAAAAA8eIEAAAAAAEgB0AAAHgQAQAAADAzh2gY/95MIFAKgAjZnZHDCiDkxIiAJ2Dw+bJiMZuLEuZuWOCjswBPI6CeQ0PIOIAACAAAIAABAAAQAABAAAAAAAAAAAA==

> <PUBCHEM_IUPAC_OPENEYE_NAME>
6-[4-(2,3-dihydrobenzofuran-5-ylmethyl)piperazin-1-yl]-N-ethyl-N-phenyl-pyridine-3-sulfonamide

> <PUBCHEM_IUPAC_CAS_NAME>
6-[4-(2,3-dihydrobenzofuran-5-ylmethyl)-1-piperazinyl]-N-ethyl-N-phenyl-3-pyridinesulfonamide

> <PUBCHEM_IUPAC_NAME>
6-[4-(2,3-dihydro-1-benzofuran-5-ylmethyl)piperazin-1-yl]-N-ethyl-N-phenylpyridine-3-sulfonamide

> <PUBCHEM_IUPAC_SYSTEMATIC_NAME>
6-[4-(2,3-dihydro-1-benzofuran-5-ylmethyl)piperazin-1-yl]-N-ethyl-N-phenyl-pyridine-3-sulfonamide

> <PUBCHEM_IUPAC_TRADITIONAL_NAME>
6-[4-(coumaran-5-ylmethyl)piperazino]-N-ethyl-N-phenyl-pyridine-3-sulfonamide

> <PUBCHEM_IUPAC_INCHI>
InChI=1S/C26H30N4O3S/c1-2-30(23-6-4-3-5-7-23)34(31,32)24-9-11-26(27-19-24)29-15-13-28(14-16-29)20-21-8-10-25-22(18-21)12-17-33-25/h3-11,18-19H,2,12-17,20H2,1H3

> <PUBCHEM_IUPAC_INCHIKEY>
VAJDWGPWVXAKJB-UHFFFAOYSA-N

> <PUBCHEM_XLOGP3_AA>
3.7

> <PUBCHEM_EXACT_MASS>
478.203862

> <PUBCHEM_MOLECULAR_FORMULA>
C26H30N4O3S

> <PUBCHEM_MOLECULAR_WEIGHT>
478.6064

> <PUBCHEM_OPENEYE_CAN_SMILES>
CCN(C1=CC=CC=C1)S(=O)(=O)C2=CN=C(C=C2)N3CCN(CC3)CC4=CC5=C(C=C4)OCC5

> <PUBCHEM_OPENEYE_ISO_SMILES>
CCN(C1=CC=CC=C1)S(=O)(=O)C2=CN=C(C=C2)N3CCN(CC3)CC4=CC5=C(C=C4)OCC5

> <PUBCHEM_CACTVS_TPSA>
74.4

> <PUBCHEM_MONOISOTOPIC_WEIGHT>
478.203862

> <PUBCHEM_TOTAL_CHARGE>
0

> <PUBCHEM_HEAVY_ATOM_COUNT>
34

> <PUBCHEM_ATOM_DEF_STEREO_COUNT>
0

> <PUBCHEM_ATOM_UDEF_STEREO_COUNT>
0

> <PUBCHEM_BOND_DEF_STEREO_COUNT>
0

> <PUBCHEM_BOND_UDEF_STEREO_COUNT>
0

> <PUBCHEM_ISOTOPIC_ATOM_COUNT>
0

> <PUBCHEM_COMPONENT_COUNT>
1

> <PUBCHEM_CACTVS_TAUTO_COUNT>
1

> <PUBCHEM_COORDINATE_TYPE>
1
5
255

> <PUBCHEM_BONDANNOTATIONS>
14  17  8
14  18  8
15  21  8
16  17  8
16  20  8
18  23  8
20  23  8
21  25  8
24  25  8
24  26  8
28  30  8
28  31  8
30  32  8
31  33  8
32  34  8
33  34  8
7  15  8
7  26  8

$$$$

