51090880
  -OEChem-06241223002D

 44 46  0     0  0  0  0  0  0999 V2000
    2.0000   -1.4330    0.0000 Cl  0  0  0  0  0  0  0  0  0  0  0  0
    2.8660    2.0670    0.0000 O   0  0  0  0  0  0  0  0  0  0  0  0
    3.7320   -2.4330    0.0000 O   0  0  0  0  0  0  0  0  0  0  0  0
    4.5981    2.0670    0.0000 N   0  0  0  0  0  0  0  0  0  0  0  0
    4.5981   -0.9330    0.0000 N   0  0  0  0  0  0  0  0  0  0  0  0
    8.0622    3.0670    0.0000 N   0  0  0  0  0  0  0  0  0  0  0  0
    4.5981    3.0670    0.0000 C   0  0  0  0  0  0  0  0  0  0  0  0
    5.0981    3.9330    0.0000 C   0  0  0  0  0  0  0  0  0  0  0  0
    4.0981    3.9330    0.0000 C   0  0  0  0  0  0  0  0  0  0  0  0
    5.4641    1.5670    0.0000 C   0  0  0  0  0  0  0  0  0  0  0  0
    3.7320    1.5670    0.0000 C   0  0  0  0  0  0  0  0  0  0  0  0
    6.3301    2.0670    0.0000 C   0  0  0  0  0  0  0  0  0  0  0  0
    3.7320    0.5670    0.0000 C   0  0  0  0  0  0  0  0  0  0  0  0
    6.3301    3.0670    0.0000 C   0  0  0  0  0  0  0  0  0  0  0  0
    7.1962    1.5670    0.0000 C   0  0  0  0  0  0  0  0  0  0  0  0
    2.8660    0.0670    0.0000 C   0  0  0  0  0  0  0  0  0  0  0  0
    4.5981    0.0670    0.0000 C   0  0  0  0  0  0  0  0  0  0  0  0
    2.8660   -0.9330    0.0000 C   0  0  0  0  0  0  0  0  0  0  0  0
    7.1962    3.5670    0.0000 C   0  0  0  0  0  0  0  0  0  0  0  0
    8.0622    2.0670    0.0000 C   0  0  0  0  0  0  0  0  0  0  0  0
    3.7320   -1.4330    0.0000 C   0  0  0  0  0  0  0  0  0  0  0  0
    4.5981   -2.9330    0.0000 C   0  0  0  0  0  0  0  0  0  0  0  0
    4.5981   -3.9330    0.0000 C   0  0  0  0  0  0  0  0  0  0  0  0
    5.4641   -2.4330    0.0000 C   0  0  0  0  0  0  0  0  0  0  0  0
    5.1970    2.9065    0.0000 H   0  0  0  0  0  0  0  0  0  0  0  0
    5.6807    3.7210    0.0000 H   0  0  0  0  0  0  0  0  0  0  0  0
    5.2057    4.5436    0.0000 H   0  0  0  0  0  0  0  0  0  0  0  0
    3.9904    4.5436    0.0000 H   0  0  0  0  0  0  0  0  0  0  0  0
    3.5155    3.7210    0.0000 H   0  0  0  0  0  0  0  0  0  0  0  0
    5.0656    1.0920    0.0000 H   0  0  0  0  0  0  0  0  0  0  0  0
    5.8626    1.0920    0.0000 H   0  0  0  0  0  0  0  0  0  0  0  0
    5.7932    3.3770    0.0000 H   0  0  0  0  0  0  0  0  0  0  0  0
    7.1962    0.9470    0.0000 H   0  0  0  0  0  0  0  0  0  0  0  0
    2.3291    0.3770    0.0000 H   0  0  0  0  0  0  0  0  0  0  0  0
    5.1350    0.3770    0.0000 H   0  0  0  0  0  0  0  0  0  0  0  0
    7.1962    4.1870    0.0000 H   0  0  0  0  0  0  0  0  0  0  0  0
    8.5991    1.7570    0.0000 H   0  0  0  0  0  0  0  0  0  0  0  0
    4.5981   -2.3130    0.0000 H   0  0  0  0  0  0  0  0  0  0  0  0
    3.9781   -3.9330    0.0000 H   0  0  0  0  0  0  0  0  0  0  0  0
    5.7741   -2.9700    0.0000 H   0  0  0  0  0  0  0  0  0  0  0  0
    6.0010   -2.1230    0.0000 H   0  0  0  0  0  0  0  0  0  0  0  0
    5.1541   -1.8961    0.0000 H   0  0  0  0  0  0  0  0  0  0  0  0
    4.5981   -4.5530    0.0000 H   0  0  0  0  0  0  0  0  0  0  0  0
    5.2181   -3.9330    0.0000 H   0  0  0  0  0  0  0  0  0  0  0  0
  1 18  1  0  0  0  0
  2 11  2  0  0  0  0
  3 21  1  0  0  0  0
  3 22  1  0  0  0  0
  4  7  1  0  0  0  0
  4 10  1  0  0  0  0
  4 11  1  0  0  0  0
  5 17  2  0  0  0  0
  5 21  1  0  0  0  0
  6 19  2  0  0  0  0
  6 20  1  0  0  0  0
  7  8  1  0  0  0  0
  7  9  1  0  0  0  0
  7 25  1  0  0  0  0
  8  9  1  0  0  0  0
  8 26  1  0  0  0  0
  8 27  1  0  0  0  0
  9 28  1  0  0  0  0
  9 29  1  0  0  0  0
 10 12  1  0  0  0  0
 10 30  1  0  0  0  0
 10 31  1  0  0  0  0
 11 13  1  0  0  0  0
 12 14  2  0  0  0  0
 12 15  1  0  0  0  0
 13 16  2  0  0  0  0
 13 17  1  0  0  0  0
 14 19  1  0  0  0  0
 14 32  1  0  0  0  0
 15 20  2  0  0  0  0
 15 33  1  0  0  0  0
 16 18  1  0  0  0  0
 16 34  1  0  0  0  0
 17 35  1  0  0  0  0
 18 21  2  0  0  0  0
 19 36  1  0  0  0  0
 20 37  1  0  0  0  0
 22 23  1  0  0  0  0
 22 24  1  0  0  0  0
 22 38  1  0  0  0  0
 23 39  1  0  0  0  0
 23 43  1  0  0  0  0
 23 44  1  0  0  0  0
 24 40  1  0  0  0  0
 24 41  1  0  0  0  0
 24 42  1  0  0  0  0
M  END
> <PUBCHEM_COMPOUND_CID>
51090880

> <PUBCHEM_COMPOUND_CANONICALIZED>
1

> <PUBCHEM_CACTVS_COMPLEXITY>
425

> <PUBCHEM_CACTVS_HBOND_ACCEPTOR>
4

> <PUBCHEM_CACTVS_HBOND_DONOR>
0

> <PUBCHEM_CACTVS_ROTATABLE_BOND>
6

> <PUBCHEM_CACTVS_SUBSKEYS>
AAADceB7MAAEAAAAAAAAAAAAGAAAAAAAAAAsWAAAAAAAAAAB4AAAHgIAAAAADD7hmiY+hJMIFACoAjF3VACCiCA1J2AI2CE8b9gMJvvF95vOOajkxhHI6caYFQIOAAAAAAAAAAAAAAAAAAAAAAAAAAAAAA==

> <PUBCHEM_IUPAC_OPENEYE_NAME>
5-chloro-N-cyclopropyl-6-isopropoxy-N-(4-pyridylmethyl)pyridine-3-carboxamide

> <PUBCHEM_IUPAC_CAS_NAME>
5-chloro-N-cyclopropyl-6-propan-2-yloxy-N-(pyridin-4-ylmethyl)-3-pyridinecarboxamide

> <PUBCHEM_IUPAC_NAME>
5-chloro-N-cyclopropyl-6-propan-2-yloxy-N-(pyridin-4-ylmethyl)pyridine-3-carboxamide

> <PUBCHEM_IUPAC_SYSTEMATIC_NAME>
5-chloranyl-N-cyclopropyl-6-propan-2-yloxy-N-(pyridin-4-ylmethyl)pyridine-3-carboxamide

> <PUBCHEM_IUPAC_TRADITIONAL_NAME>
5-chloro-N-cyclopropyl-6-isopropoxy-N-(4-pyridylmethyl)nicotinamide

> <PUBCHEM_IUPAC_INCHI>
InChI=1S/C18H20ClN3O2/c1-12(2)24-17-16(19)9-14(10-21-17)18(23)22(15-3-4-15)11-13-5-7-20-8-6-13/h5-10,12,15H,3-4,11H2,1-2H3

> <PUBCHEM_IUPAC_INCHIKEY>
NNZLQMLWBDMPOK-UHFFFAOYSA-N

> <PUBCHEM_XLOGP3_AA>
3

> <PUBCHEM_EXACT_MASS>
345.124405

> <PUBCHEM_MOLECULAR_FORMULA>
C18H20ClN3O2

> <PUBCHEM_MOLECULAR_WEIGHT>
345.8233

> <PUBCHEM_OPENEYE_CAN_SMILES>
CC(C)OC1=C(C=C(C=N1)C(=O)N(CC2=CC=NC=C2)C3CC3)Cl

> <PUBCHEM_OPENEYE_ISO_SMILES>
CC(C)OC1=C(C=C(C=N1)C(=O)N(CC2=CC=NC=C2)C3CC3)Cl

> <PUBCHEM_CACTVS_TPSA>
55.3

> <PUBCHEM_MONOISOTOPIC_WEIGHT>
345.124405

> <PUBCHEM_TOTAL_CHARGE>
0

> <PUBCHEM_HEAVY_ATOM_COUNT>
24

> <PUBCHEM_ATOM_DEF_STEREO_COUNT>
0

> <PUBCHEM_ATOM_UDEF_STEREO_COUNT>
0

> <PUBCHEM_BOND_DEF_STEREO_COUNT>
0

> <PUBCHEM_BOND_UDEF_STEREO_COUNT>
0

> <PUBCHEM_ISOTOPIC_ATOM_COUNT>
0

> <PUBCHEM_COMPONENT_COUNT>
1

> <PUBCHEM_CACTVS_TAUTO_COUNT>
1

> <PUBCHEM_COORDINATE_TYPE>
1
5
255

> <PUBCHEM_BONDANNOTATIONS>
12  14  8
12  15  8
13  16  8
13  17  8
14  19  8
15  20  8
16  18  8
18  21  8
5  17  8
5  21  8
6  19  8
6  20  8

$$$$

