17395827
  -OEChem-06241222523D

 47 51  0     0  0  0  0  0  0999 V2000
   -5.7014   -1.6794    0.0817 O   0  0  0  0  0  0  0  0  0  0  0  0
    6.1403   -1.8788   -0.7698 O   0  0  0  0  0  0  0  0  0  0  0  0
    7.3220    0.2012   -1.0612 O   0  0  0  0  0  0  0  0  0  0  0  0
   -1.6973   -0.8983   -0.7961 O   0  0  0  0  0  0  0  0  0  0  0  0
   -4.0716   -2.6241    1.4138 O   0  0  0  0  0  0  0  0  0  0  0  0
    2.0857    0.3999    0.6181 N   0  0  0  0  0  0  0  0  0  0  0  0
   -3.8693   -0.4211    0.6546 N   0  0  0  0  0  0  0  0  0  0  0  0
    1.0256   -0.1120   -0.0833 C   0  0  0  0  0  0  0  0  0  0  0  0
   -0.1135    0.0941    0.6634 C   0  0  0  0  0  0  0  0  0  0  0  0
    1.6405    0.9304    1.8009 C   0  0  0  0  0  0  0  0  0  0  0  0
    3.4177    0.3847    0.1930 C   0  0  0  0  0  0  0  0  0  0  0  0
    0.2757    0.7534    1.8555 C   0  0  0  0  0  0  0  0  0  0  0  0
   -2.6135    0.0007    1.2222 C   0  0  0  0  0  0  0  0  0  0  0  0
   -1.4717   -0.3111    0.2640 C   0  0  0  0  0  0  0  0  0  0  0  0
    1.1869   -0.7561   -1.4072 C   0  0  0  0  0  0  0  0  0  0  0  0
    4.0511   -0.8346   -0.0602 C   0  0  0  0  0  0  0  0  0  0  0  0
    2.5446    1.5624    2.7865 C   0  0  0  0  0  0  0  0  0  0  0  0
   -4.6751    0.3708   -0.1343 C   0  0  0  0  0  0  0  0  0  0  0  0
    4.1071    1.5982    0.0231 C   0  0  0  0  0  0  0  0  0  0  0  0
    5.3654   -0.7988   -0.4786 C   0  0  0  0  0  0  0  0  0  0  0  0
    6.0401    0.3890   -0.6448 C   0  0  0  0  0  0  0  0  0  0  0  0
   -5.7665   -0.4063   -0.4646 C   0  0  0  0  0  0  0  0  0  0  0  0
    5.4379    1.6066   -0.4019 C   0  0  0  0  0  0  0  0  0  0  0  0
   -4.4836   -1.6558    0.7867 C   0  0  0  0  0  0  0  0  0  0  0  0
   -4.5364    1.6712   -0.5725 C   0  0  0  0  0  0  0  0  0  0  0  0
    7.3784   -1.2378   -1.1393 C   0  0  0  0  0  0  0  0  0  0  0  0
   -6.7866    0.0769   -1.2566 C   0  0  0  0  0  0  0  0  0  0  0  0
   -5.5583    2.1826   -1.3768 C   0  0  0  0  0  0  0  0  0  0  0  0
   -6.6742    1.3921   -1.7162 C   0  0  0  0  0  0  0  0  0  0  0  0
   -0.3612    1.0686    2.6708 H   0  0  0  0  0  0  0  0  0  0  0  0
   -2.6430    1.0691    1.4548 H   0  0  0  0  0  0  0  0  0  0  0  0
   -2.4470   -0.5685    2.1434 H   0  0  0  0  0  0  0  0  0  0  0  0
    0.3374   -0.5388   -2.0615 H   0  0  0  0  0  0  0  0  0  0  0  0
    2.0646   -0.4002   -1.9547 H   0  0  0  0  0  0  0  0  0  0  0  0
    1.2625   -1.8427   -1.2975 H   0  0  0  0  0  0  0  0  0  0  0  0
    3.5448   -1.7848    0.0758 H   0  0  0  0  0  0  0  0  0  0  0  0
    3.4552    0.9757    2.9440 H   0  0  0  0  0  0  0  0  0  0  0  0
    2.8194    2.5752    2.4768 H   0  0  0  0  0  0  0  0  0  0  0  0
    2.0484    1.6457    3.7600 H   0  0  0  0  0  0  0  0  0  0  0  0
    3.6126    2.5509    0.1982 H   0  0  0  0  0  0  0  0  0  0  0  0
    5.9718    2.5401   -0.5384 H   0  0  0  0  0  0  0  0  0  0  0  0
   -3.6790    2.2823   -0.3177 H   0  0  0  0  0  0  0  0  0  0  0  0
   -7.6437   -0.5334   -1.5161 H   0  0  0  0  0  0  0  0  0  0  0  0
    7.6285   -1.5240   -2.1674 H   0  0  0  0  0  0  0  0  0  0  0  0
    8.1711   -1.5947   -0.4718 H   0  0  0  0  0  0  0  0  0  0  0  0
   -5.4933    3.2022   -1.7473 H   0  0  0  0  0  0  0  0  0  0  0  0
   -7.4560    1.8122   -2.3436 H   0  0  0  0  0  0  0  0  0  0  0  0
  1 22  1  0  0  0  0
  1 24  1  0  0  0  0
  2 20  1  0  0  0  0
  2 26  1  0  0  0  0
  3 21  1  0  0  0  0
  3 26  1  0  0  0  0
  4 14  2  0  0  0  0
  5 24  2  0  0  0  0
  6  8  1  0  0  0  0
  6 10  1  0  0  0  0
  6 11  1  0  0  0  0
  7 13  1  0  0  0  0
  7 18  1  0  0  0  0
  7 24  1  0  0  0  0
  8  9  2  0  0  0  0
  8 15  1  0  0  0  0
  9 12  1  0  0  0  0
  9 14  1  0  0  0  0
 10 12  2  0  0  0  0
 10 17  1  0  0  0  0
 11 16  2  0  0  0  0
 11 19  1  0  0  0  0
 12 30  1  0  0  0  0
 13 14  1  0  0  0  0
 13 31  1  0  0  0  0
 13 32  1  0  0  0  0
 15 33  1  0  0  0  0
 15 34  1  0  0  0  0
 15 35  1  0  0  0  0
 16 20  1  0  0  0  0
 16 36  1  0  0  0  0
 17 37  1  0  0  0  0
 17 38  1  0  0  0  0
 17 39  1  0  0  0  0
 18 22  1  0  0  0  0
 18 25  2  0  0  0  0
 19 23  2  0  0  0  0
 19 40  1  0  0  0  0
 20 21  2  0  0  0  0
 21 23  1  0  0  0  0
 22 27  2  0  0  0  0
 23 41  1  0  0  0  0
 25 28  1  0  0  0  0
 25 42  1  0  0  0  0
 26 44  1  0  0  0  0
 26 45  1  0  0  0  0
 27 29  1  0  0  0  0
 27 43  1  0  0  0  0
 28 29  2  0  0  0  0
 28 46  1  0  0  0  0
 29 47  1  0  0  0  0
M  END
> <PUBCHEM_COMPOUND_CID>
17395827

> <PUBCHEM_CONFORMER_RMSD>
0.8

> <PUBCHEM_CONFORMER_DIVERSEORDER>
13
58
143
53
5
118
21
204
94
183
45
201
138
101
93
123
64
31
38
92
150
108
76
196
130
194
137
173
99
135
2
78
155
200
30
132
81
121
84
178
28
107
162
70
165
195
82
205
24
177
128
77
75
168
50
181
180
139
126
63
117
15
203
151
32
69
60
85
122
47
158
33
80
176
96
66
43
145
68
98
182
39
79
184
56
191
144
90
61
192
141
34
113
159
119
133
206
3
44
193
83
73
172
164
17
170
51
25
10
49
1
95
110
169
52
154
167
175
174
91
40
134
48
55
29
20
187
100
188
16
97
104
106
8
6
147
129
71
41
202
67
109
153
161
54
112
22
116
65
103
199
111
197
120
88
102
26
37
124
166
12
57
185
11
136
105
74
157
142
179
89
23
160
156
186
146
4
59
148
149
125
86
127
62
9
198
36
140
115
72
152
42
87
131
14
35
18
171
27
189
46
190
19
163
7
114

> <PUBCHEM_MMFF94_PARTIAL_CHARGES>
37
1 -0.23
10 -0.33
11 -0.02
12 -0.15
13 0.36
14 0.6
15 0.18
16 -0.15
17 0.18
18 0.12
19 -0.15
2 -0.36
20 0.08
21 0.08
22 0.08
23 -0.15
24 0.78
25 -0.15
26 0.56
27 -0.15
28 -0.15
29 -0.15
3 -0.36
30 0.15
36 0.15
4 -0.57
40 0.15
41 0.15
42 0.15
43 0.15
46 0.15
47 0.15
5 -0.57
6 0.33
7 -0.48
8 -0.33
9 -0.09

> <PUBCHEM_EFFECTIVE_ROTOR_COUNT>
4.6

> <PUBCHEM_PHARMACOPHORE_FEATURES>
10
1 2 acceptor
1 3 acceptor
1 4 acceptor
1 5 acceptor
1 6 cation
5 1 7 18 22 24 rings
5 2 3 20 21 26 rings
5 6 8 9 10 12 rings
6 11 16 19 20 21 23 rings
6 18 22 25 27 28 29 rings

> <PUBCHEM_HEAVY_ATOM_COUNT>
29

> <PUBCHEM_ATOM_DEF_STEREO_COUNT>
0

> <PUBCHEM_ATOM_UDEF_STEREO_COUNT>
0

> <PUBCHEM_BOND_DEF_STEREO_COUNT>
0

> <PUBCHEM_BOND_UDEF_STEREO_COUNT>
0

> <PUBCHEM_ISOTOPIC_ATOM_COUNT>
0

> <PUBCHEM_COMPONENT_COUNT>
1

> <PUBCHEM_CACTVS_TAUTO_COUNT>
2

> <PUBCHEM_CONFORMER_ID>
010970730000000D

> <PUBCHEM_MMFF94_ENERGY>
94.2193

> <PUBCHEM_FEATURE_SELFOVERLAP>
51.012

> <PUBCHEM_SHAPE_FINGERPRINT>
10029044 110 15266476454961763262
10670039 82 18201442531838381525
10763959 59 18411983533378893700
11135926 11 17968087659963306367
11796584 16 18413952784811576794
11991303 11 17968664813204758607
12166972 35 15574719083934162746
12236239 1 18113887283247409232
12616971 3 15285355073129884473
13668630 136 16805327682455710485
13690498 29 18269836411725745107
13782708 43 18187086109582348327
13862211 1 16805601482236217914
14118638 360 16415484831433027035
14251752 14 18409733979927328750
14251764 18 15213021531774994346
14849402 71 5905465442832641890
14856354 85 14404892588503797147
14933364 13 18273213097094889229
15021287 119 15574714673266564929
15064981 113 18055941972291485023
15183329 4 18342458179138623712
15188451 53 4895546381683754465
15475509 8 16343415215681455750
1577012 14 16988291954031783741
16994733 274 17560800983993450372
17349148 13 15864066551025043227
18222031 100 16515404071298086208
18681886 176 17988362572584803645
20505436 4 16988288668439721555
20567600 75 18409446985785981871
21033648 29 18335715901144586281
21033650 10 17988640835358799425
21130935 74 5906060214330017284
21315764 119 18130783486399255606
21756936 100 16487248890336833369
21792961 116 18335134319137627522
22061861 79 18113621174851462553
22956985 138 15721893247256702972
23081809 10 16660635246253698504
23198884 109 18202566194240673405
23516275 100 17344349947633460156
23522609 53 16662303145168983104
23559900 14 18410858720451678913
23569914 2 17693145882297754853
23569943 247 14853262525341309750
24771293 8 15984534487431597068
3004659 81 18334574651404227714
3663271 9 7348895459827014838
4073 2 17632289047808004786
445580 37 17846777416767866541
465052 167 17458617892224281822
5385378 56 14261357977011820912
5758199 1 15195564606624207500
6608658 132 17274832393401627013

> <PUBCHEM_SHAPE_MULTIPOLES>
557.5
20.87
1.91
1.77
2.99
0.1
-0.58
2.7
11.1
-0.21
-0.29
-0.94
-0.59
3.02

> <PUBCHEM_SHAPE_SELFOVERLAP>
1257.151

> <PUBCHEM_SHAPE_VOLUME>
295.5

> <PUBCHEM_COORDINATE_TYPE>
2
5
10

$$$$

