16308
  -OEChem-07051213043D

 22 23  0     0  0  0  0  0  0999 V2000
    5.2341    0.0009   -0.0009 Cl  0  0  0  0  0  0  0  0  0  0  0  0
   -5.2341    0.0009    0.0009 Cl  0  0  0  0  0  0  0  0  0  0  0  0
    0.7235   -0.0005    0.0004 C   0  0  0  0  0  0  0  0  0  0  0  0
   -0.7234   -0.0004   -0.0005 C   0  0  0  0  0  0  0  0  0  0  0  0
    1.4205    1.1664    0.3136 C   0  0  0  0  0  0  0  0  0  0  0  0
   -1.4205    1.1663   -0.3135 C   0  0  0  0  0  0  0  0  0  0  0  0
    1.4212   -1.1671   -0.3127 C   0  0  0  0  0  0  0  0  0  0  0  0
   -1.4212   -1.1670    0.3127 C   0  0  0  0  0  0  0  0  0  0  0  0
    2.8154    1.1667    0.3134 C   0  0  0  0  0  0  0  0  0  0  0  0
   -2.8154    1.1667   -0.3134 C   0  0  0  0  0  0  0  0  0  0  0  0
    2.8161   -1.1666   -0.3126 C   0  0  0  0  0  0  0  0  0  0  0  0
   -2.8161   -1.1667    0.3127 C   0  0  0  0  0  0  0  0  0  0  0  0
    3.5132    0.0002    0.0004 C   0  0  0  0  0  0  0  0  0  0  0  0
   -3.5132    0.0002   -0.0004 C   0  0  0  0  0  0  0  0  0  0  0  0
    0.9208    2.0897    0.5934 H   0  0  0  0  0  0  0  0  0  0  0  0
   -0.9208    2.0897   -0.5933 H   0  0  0  0  0  0  0  0  0  0  0  0
    0.9218   -2.0905   -0.5927 H   0  0  0  0  0  0  0  0  0  0  0  0
   -0.9219   -2.0905    0.5927 H   0  0  0  0  0  0  0  0  0  0  0  0
    3.3461    2.0814    0.5656 H   0  0  0  0  0  0  0  0  0  0  0  0
   -3.3460    2.0814   -0.5655 H   0  0  0  0  0  0  0  0  0  0  0  0
    3.3471   -2.0809   -0.5652 H   0  0  0  0  0  0  0  0  0  0  0  0
   -3.3472   -2.0810    0.5653 H   0  0  0  0  0  0  0  0  0  0  0  0
  1 13  1  0  0  0  0
  2 14  1  0  0  0  0
  3  4  1  0  0  0  0
  3  5  2  0  0  0  0
  3  7  1  0  0  0  0
  4  6  2  0  0  0  0
  4  8  1  0  0  0  0
  5  9  1  0  0  0  0
  5 15  1  0  0  0  0
  6 10  1  0  0  0  0
  6 16  1  0  0  0  0
  7 11  2  0  0  0  0
  7 17  1  0  0  0  0
  8 12  2  0  0  0  0
  8 18  1  0  0  0  0
  9 13  2  0  0  0  0
  9 19  1  0  0  0  0
 10 14  2  0  0  0  0
 10 20  1  0  0  0  0
 11 13  1  0  0  0  0
 11 21  1  0  0  0  0
 12 14  1  0  0  0  0
 12 22  1  0  0  0  0
M  END
> <PUBCHEM_COMPOUND_CID>
16308

> <PUBCHEM_CONFORMER_RMSD>
0.4

> <PUBCHEM_CONFORMER_DIVERSEORDER>
1
2

> <PUBCHEM_MMFF94_PARTIAL_CHARGES>
20
1 -0.18
10 -0.15
11 -0.15
12 -0.15
13 0.18
14 0.18
15 0.15
16 0.15
17 0.15
18 0.15
19 0.15
2 -0.18
20 0.15
21 0.15
22 0.15
5 -0.15
6 -0.15
7 -0.15
8 -0.15
9 -0.15

> <PUBCHEM_EFFECTIVE_ROTOR_COUNT>
1

> <PUBCHEM_PHARMACOPHORE_FEATURES>
2
6 3 5 7 9 11 13 rings
6 4 6 8 10 12 14 rings

> <PUBCHEM_HEAVY_ATOM_COUNT>
14

> <PUBCHEM_ATOM_DEF_STEREO_COUNT>
0

> <PUBCHEM_ATOM_UDEF_STEREO_COUNT>
0

> <PUBCHEM_BOND_DEF_STEREO_COUNT>
0

> <PUBCHEM_BOND_UDEF_STEREO_COUNT>
0

> <PUBCHEM_ISOTOPIC_ATOM_COUNT>
0

> <PUBCHEM_COMPONENT_COUNT>
1

> <PUBCHEM_CACTVS_TAUTO_COUNT>
1

> <PUBCHEM_CONFORMER_ID>
00003FB400000001

> <PUBCHEM_MMFF94_ENERGY>
41.5975

> <PUBCHEM_FEATURE_SELFOVERLAP>
10.149

> <PUBCHEM_SHAPE_FINGERPRINT>
10608611 8 18410579487005018529
11401426 45 18260270733113625426
11471102 20 18333732416263766900
12032990 46 18410852165888271745
12251169 10 18410575076073144367
13380535 76 18410573989446886150
14144814 61 18410575119022817475
14252887 29 17603859031730770326
14325111 11 18410856568245691341
15219456 202 18409167718374735013
17802600 8 18410859862469939008
18175812 5 18410573942201784895
18186145 218 18337952410573809181
18522853 276 18333732429022289328
200 152 17749112192602722071
20201158 50 18408321098732359914
20279233 1 18410568491888539394
20510252 161 18336828705743745969
20528008 55 18410295796230923307
20645477 56 18272372005507914653
20645477 70 18187644773147943582
21267235 1 18410565189058610818
23402539 116 18411145723119682831
23402655 69 18261680371503180605
23557571 272 17988925612632428916
23559900 14 18411984628848118624
26918003 58 18409729547610808635
3545911 37 18410573985151457646
474 4 15840408286759134556
5104073 3 18338797926219776962
69090 78 18335143081387966975
8809292 202 18271522005240740698
9709674 26 18410005537746068207

> <PUBCHEM_SHAPE_MULTIPOLES>
291.85
9.46
1.39
0.68
0
0
0
0
0
0
0
0
0
0.44

> <PUBCHEM_SHAPE_SELFOVERLAP>
615.763

> <PUBCHEM_SHAPE_VOLUME>
156.4

> <PUBCHEM_COORDINATE_TYPE>
2
5
10

$$$$

