5355967
  -OEChem-07051213063D

 31 32  0     0  0  0  0  0  0999 V2000
    1.6561   -1.1545   -0.2712 S   0  0  0  0  0  0  0  0  0  0  0  0
    1.5574   -1.5704   -1.6600 O   0  0  0  0  0  0  0  0  0  0  0  0
    1.5991   -2.1503    0.7856 O   0  0  0  0  0  0  0  0  0  0  0  0
   -1.5362    1.9635    0.4676 O   0  0  0  0  0  0  0  0  0  0  0  0
    3.1942   -0.2979   -0.0812 C   0  0  0  0  0  0  0  0  0  0  0  0
    0.5093    0.0919    0.0333 C   0  0  0  0  0  0  0  0  0  0  0  0
    3.7878   -0.2509    1.1666 C   0  0  0  0  0  0  0  0  0  0  0  0
    3.7680    0.3070   -1.1839 C   0  0  0  0  0  0  0  0  0  0  0  0
   -3.2415    0.3923    0.1089 C   0  0  0  0  0  0  0  0  0  0  0  0
   -0.7835   -0.2414   -0.0350 C   0  0  0  0  0  0  0  0  0  0  0  0
   -1.8466    0.7903    0.2101 C   0  0  0  0  0  0  0  0  0  0  0  0
    4.9987    0.4251    1.3169 C   0  0  0  0  0  0  0  0  0  0  0  0
    4.9789    0.9828   -1.0337 C   0  0  0  0  0  0  0  0  0  0  0  0
    5.5942    1.0419    0.2168 C   0  0  0  0  0  0  0  0  0  0  0  0
   -3.6174   -0.9162    0.4128 C   0  0  0  0  0  0  0  0  0  0  0  0
   -4.2037    1.3188   -0.2927 C   0  0  0  0  0  0  0  0  0  0  0  0
   -4.9556   -1.2980    0.3153 C   0  0  0  0  0  0  0  0  0  0  0  0
   -5.5417    0.9372   -0.3900 C   0  0  0  0  0  0  0  0  0  0  0  0
   -5.9176   -0.3713   -0.0861 C   0  0  0  0  0  0  0  0  0  0  0  0
    0.8458    1.0914    0.2827 H   0  0  0  0  0  0  0  0  0  0  0  0
    3.3363   -0.7176    2.0365 H   0  0  0  0  0  0  0  0  0  0  0  0
    3.3006    0.2782   -2.1632 H   0  0  0  0  0  0  0  0  0  0  0  0
   -1.0789   -1.2472   -0.3101 H   0  0  0  0  0  0  0  0  0  0  0  0
    5.4770    0.4730    2.2909 H   0  0  0  0  0  0  0  0  0  0  0  0
    5.4418    1.4650   -1.8898 H   0  0  0  0  0  0  0  0  0  0  0  0
    6.5365    1.5691    0.3339 H   0  0  0  0  0  0  0  0  0  0  0  0
   -2.9079   -1.6596    0.7633 H   0  0  0  0  0  0  0  0  0  0  0  0
   -3.9300    2.3418   -0.5379 H   0  0  0  0  0  0  0  0  0  0  0  0
   -5.2501   -2.3144    0.5597 H   0  0  0  0  0  0  0  0  0  0  0  0
   -6.2911    1.6584   -0.7032 H   0  0  0  0  0  0  0  0  0  0  0  0
   -6.9597   -0.6680   -0.1604 H   0  0  0  0  0  0  0  0  0  0  0  0
  1  2  2  0  0  0  0
  1  3  2  0  0  0  0
  1  5  1  0  0  0  0
  1  6  1  0  0  0  0
  4 11  2  0  0  0  0
  5  7  2  0  0  0  0
  5  8  1  0  0  0  0
  6 10  2  0  0  0  0
  6 20  1  0  0  0  0
  7 12  1  0  0  0  0
  7 21  1  0  0  0  0
  8 13  2  0  0  0  0
  8 22  1  0  0  0  0
  9 11  1  0  0  0  0
  9 15  2  0  0  0  0
  9 16  1  0  0  0  0
 10 11  1  0  0  0  0
 10 23  1  0  0  0  0
 12 14  2  0  0  0  0
 12 24  1  0  0  0  0
 13 14  1  0  0  0  0
 13 25  1  0  0  0  0
 14 26  1  0  0  0  0
 15 17  1  0  0  0  0
 15 27  1  0  0  0  0
 16 18  2  0  0  0  0
 16 28  1  0  0  0  0
 17 19  2  0  0  0  0
 17 29  1  0  0  0  0
 18 19  1  0  0  0  0
 18 30  1  0  0  0  0
 19 31  1  0  0  0  0
M  END
> <PUBCHEM_COMPOUND_CID>
5355967

> <PUBCHEM_CONFORMER_RMSD>
0.6

> <PUBCHEM_CONFORMER_DIVERSEORDER>
1
21
38
11
39
6
3
2
28
36
8
23
19
14
40
31
12
4
24
18
7
10
15
20
9
22
37
5
29
33
16
17
34
35
32
26
25
13
27
30

> <PUBCHEM_MMFF94_PARTIAL_CHARGES>
31
1 1.33
10 -0.14
11 0.47
12 -0.15
13 -0.15
14 -0.15
15 -0.15
16 -0.15
17 -0.15
18 -0.15
19 -0.15
2 -0.65
20 0.15
21 0.15
22 0.15
23 0.15
24 0.15
25 0.15
26 0.15
27 0.15
28 0.15
29 0.15
3 -0.65
30 0.15
31 0.15
4 -0.57
5 -0.01
6 -0.17
7 -0.15
8 -0.15
9 0.09

> <PUBCHEM_EFFECTIVE_ROTOR_COUNT>
4

> <PUBCHEM_PHARMACOPHORE_FEATURES>
5
1 2 acceptor
1 3 acceptor
1 4 acceptor
6 5 7 8 12 13 14 rings
6 9 15 16 17 18 19 rings

> <PUBCHEM_HEAVY_ATOM_COUNT>
19

> <PUBCHEM_ATOM_DEF_STEREO_COUNT>
0

> <PUBCHEM_ATOM_UDEF_STEREO_COUNT>
0

> <PUBCHEM_BOND_DEF_STEREO_COUNT>
1

> <PUBCHEM_BOND_UDEF_STEREO_COUNT>
0

> <PUBCHEM_ISOTOPIC_ATOM_COUNT>
0

> <PUBCHEM_COMPONENT_COUNT>
1

> <PUBCHEM_CACTVS_TAUTO_COUNT>
1

> <PUBCHEM_CONFORMER_ID>
0051B9BF00000001

> <PUBCHEM_MMFF94_ENERGY>
43.5909

> <PUBCHEM_FEATURE_SELFOVERLAP>
25.39

> <PUBCHEM_SHAPE_FINGERPRINT>
10090160 65 18131073735635397298
10366900 7 17313108561901116371
10670039 82 18262222418304894676
10968037 39 18408885123308281047
11128504 68 15140681371432539064
11488393 25 17314769992521897366
12107183 9 17196592407992990129
12236239 1 17632581543396165275
12516196 113 17894631444522323225
12596602 18 17417813907162278488
12730499 353 17240478092388006662
128620 24 18334857238023022599
12916748 109 17385722500316906904
13073987 5 18200592618329629857
13533116 47 16415206710593639704
13631057 29 18339923693806221667
13955234 65 17168143490081755918
1420 363 17894908525077362549
14251718 22 18335138683346405751
14251758 9 11600007643636665825
14251764 18 9583512110046018442
14341114 328 18343301470075933810
14528608 73 18342454820416195516
15183329 4 7997977881276605195
15375358 24 18411416233029348075
15531645 54 10952055550078566679
15788980 27 12823293490158839195
17349148 13 14620509064524749213
17834072 8 10087644797020001131
17844677 252 16153419567098256449
19141452 34 12535341277374421976
19377110 9 18272361001796402017
19489759 90 17918276454704072033
20511986 3 17632030675417992531
21150785 3 17821740429524324101
221357 26 16153704336874026304
22950370 63 5617539592208163890
23218964 4 9295293837175482769
23402539 116 17989211434279189647
23536379 177 16630531734766585625
23557571 272 18339353192598433901
23559900 14 17974855274027568591
300161 21 18201723981234432159
34797466 226 18113609062933119765
351380 180 16415761920499048052
4325135 7 18342458127709643143
4340502 62 17132110264803329691
465052 167 8502370057522046240
474229 33 18410292484458126010
5104073 3 18265047106277651875
5283173 99 18200318856872252317
542803 24 17775284967163494129
5486654 2 18410290281192520731
8988823 20 15698004016101183524
9971528 1 14549017689163815846

> <PUBCHEM_SHAPE_MULTIPOLES>
377.25
15.02
1.59
1.09
4.42
0.22
-0.12
-3.07
0.48
0.45
0
-1.43
0.12
0.09

> <PUBCHEM_SHAPE_SELFOVERLAP>
795.295

> <PUBCHEM_SHAPE_VOLUME>
210.6

> <PUBCHEM_COORDINATE_TYPE>
2
5
10

$$$$

