441066
  -OEChem-07051212513D

 44 46  0     1  0  0  0  0  0999 V2000
    5.8156   -0.5732   -0.0916 O   0  0  0  0  0  0  0  0  0  0  0  0
    4.0222   -2.6864   -0.2630 O   0  0  0  0  0  0  0  0  0  0  0  0
   -5.9639   -0.9924   -0.0704 O   0  0  0  0  0  0  0  0  0  0  0  0
   -5.1120    1.5623    0.6186 O   0  0  0  0  0  0  0  0  0  0  0  0
   -0.1153    1.8184   -0.7929 N   0  0  0  0  0  0  0  0  0  0  0  0
    0.2289    0.4281   -0.4395 C   0  0  1  0  0  0  0  0  0  0  0  0
    1.7219    0.1696   -0.3550 C   0  0  0  0  0  0  0  0  0  0  0  0
    2.6334    1.2371   -0.2596 C   0  0  0  0  0  0  0  0  0  0  0  0
    2.1498    2.6627   -0.3136 C   0  0  0  0  0  0  0  0  0  0  0  0
    0.6574    2.7860   -0.0120 C   0  0  0  0  0  0  0  0  0  0  0  0
   -0.4883    0.0154    0.8515 C   0  0  0  0  0  0  0  0  0  0  0  0
    2.2078   -1.1472   -0.3538 C   0  0  0  0  0  0  0  0  0  0  0  0
   -1.9459   -0.2493    0.6072 C   0  0  0  0  0  0  0  0  0  0  0  0
    4.0078    0.9731   -0.1782 C   0  0  0  0  0  0  0  0  0  0  0  0
    3.5766   -1.3994   -0.2622 C   0  0  0  0  0  0  0  0  0  0  0  0
    4.4757   -0.3401   -0.1743 C   0  0  0  0  0  0  0  0  0  0  0  0
   -2.8626    0.7884    0.7274 C   0  0  0  0  0  0  0  0  0  0  0  0
   -2.3636   -1.5295    0.2632 C   0  0  0  0  0  0  0  0  0  0  0  0
   -4.2167    0.5425    0.5000 C   0  0  0  0  0  0  0  0  0  0  0  0
   -3.7178   -1.7755    0.0361 C   0  0  0  0  0  0  0  0  0  0  0  0
   -4.6442   -0.7395    0.1543 C   0  0  0  0  0  0  0  0  0  0  0  0
    6.3693   -0.7180    1.2149 C   0  0  0  0  0  0  0  0  0  0  0  0
   -6.4359   -0.8332   -1.4069 C   0  0  0  0  0  0  0  0  0  0  0  0
   -0.1381   -0.1860   -1.2735 H   0  0  0  0  0  0  0  0  0  0  0  0
    2.7082    3.2750    0.4045 H   0  0  0  0  0  0  0  0  0  0  0  0
    2.3551    3.0541   -1.3181 H   0  0  0  0  0  0  0  0  0  0  0  0
    0.4700    2.6713    1.0614 H   0  0  0  0  0  0  0  0  0  0  0  0
    0.3278    3.7977   -0.2748 H   0  0  0  0  0  0  0  0  0  0  0  0
   -0.3673    0.7516    1.6559 H   0  0  0  0  0  0  0  0  0  0  0  0
   -0.0466   -0.9009    1.2671 H   0  0  0  0  0  0  0  0  0  0  0  0
   -1.1105    1.9935   -0.6875 H   0  0  0  0  0  0  0  0  0  0  0  0
    1.5076   -1.9768   -0.4271 H   0  0  0  0  0  0  0  0  0  0  0  0
    4.7155    1.7972   -0.1219 H   0  0  0  0  0  0  0  0  0  0  0  0
   -2.5414    1.7868    1.0124 H   0  0  0  0  0  0  0  0  0  0  0  0
   -1.6505   -2.3434    0.1655 H   0  0  0  0  0  0  0  0  0  0  0  0
   -4.0437   -2.7766   -0.2329 H   0  0  0  0  0  0  0  0  0  0  0  0
    3.2595   -3.2863   -0.3296 H   0  0  0  0  0  0  0  0  0  0  0  0
    6.2271    0.1994    1.7950 H   0  0  0  0  0  0  0  0  0  0  0  0
    7.4419   -0.9051    1.1137 H   0  0  0  0  0  0  0  0  0  0  0  0
    5.9134   -1.5662    1.7351 H   0  0  0  0  0  0  0  0  0  0  0  0
   -6.0053    1.2088    0.4667 H   0  0  0  0  0  0  0  0  0  0  0  0
   -7.5111   -1.0321   -1.4163 H   0  0  0  0  0  0  0  0  0  0  0  0
   -5.9420   -1.5474   -2.0732 H   0  0  0  0  0  0  0  0  0  0  0  0
   -6.2661    0.1887   -1.7604 H   0  0  0  0  0  0  0  0  0  0  0  0
  1 16  1  0  0  0  0
  1 22  1  0  0  0  0
  2 15  1  0  0  0  0
  2 37  1  0  0  0  0
  3 21  1  0  0  0  0
  3 23  1  0  0  0  0
  4 19  1  0  0  0  0
  4 41  1  0  0  0  0
  5  6  1  0  0  0  0
  5 10  1  0  0  0  0
  5 31  1  0  0  0  0
  6  7  1  0  0  0  0
  6 11  1  0  0  0  0
  6 24  1  0  0  0  0
  7  8  1  0  0  0  0
  7 12  2  0  0  0  0
  8  9  1  0  0  0  0
  8 14  2  0  0  0  0
  9 10  1  0  0  0  0
  9 25  1  0  0  0  0
  9 26  1  0  0  0  0
 10 27  1  0  0  0  0
 10 28  1  0  0  0  0
 11 13  1  0  0  0  0
 11 29  1  0  0  0  0
 11 30  1  0  0  0  0
 12 15  1  0  0  0  0
 12 32  1  0  0  0  0
 13 17  2  0  0  0  0
 13 18  1  0  0  0  0
 14 16  1  0  0  0  0
 14 33  1  0  0  0  0
 15 16  2  0  0  0  0
 17 19  1  0  0  0  0
 17 34  1  0  0  0  0
 18 20  2  0  0  0  0
 18 35  1  0  0  0  0
 19 21  2  0  0  0  0
 20 21  1  0  0  0  0
 20 36  1  0  0  0  0
 22 38  1  0  0  0  0
 22 39  1  0  0  0  0
 22 40  1  0  0  0  0
 23 42  1  0  0  0  0
 23 43  1  0  0  0  0
 23 44  1  0  0  0  0
M  END
> <PUBCHEM_COMPOUND_CID>
441066

> <PUBCHEM_CONFORMER_RMSD>
0.8

> <PUBCHEM_CONFORMER_DIVERSEORDER>
1
6
17
11
9
18
5
4
13
10
2
16
12
15
7
14
3
8

> <PUBCHEM_MMFF94_PARTIAL_CHARGES>
31
1 -0.36
10 0.27
11 0.14
12 -0.15
13 -0.14
14 -0.15
15 0.08
16 0.08
17 -0.15
18 -0.15
19 0.08
2 -0.53
20 -0.15
21 0.08
22 0.28
23 0.28
3 -0.36
31 0.36
32 0.15
33 0.15
34 0.15
35 0.15
36 0.15
37 0.45
4 -0.53
41 0.45
5 -0.9
6 0.41
7 -0.14
8 -0.14
9 0.14

> <PUBCHEM_EFFECTIVE_ROTOR_COUNT>
4.8

> <PUBCHEM_PHARMACOPHORE_FEATURES>
9
1 1 acceptor
1 2 donor
1 3 acceptor
1 4 donor
1 5 cation
1 5 donor
6 13 17 18 19 20 21 rings
6 5 6 7 8 9 10 rings
6 7 8 12 14 15 16 rings

> <PUBCHEM_HEAVY_ATOM_COUNT>
23

> <PUBCHEM_ATOM_DEF_STEREO_COUNT>
1

> <PUBCHEM_ATOM_UDEF_STEREO_COUNT>
0

> <PUBCHEM_BOND_DEF_STEREO_COUNT>
0

> <PUBCHEM_BOND_UDEF_STEREO_COUNT>
0

> <PUBCHEM_ISOTOPIC_ATOM_COUNT>
0

> <PUBCHEM_COMPONENT_COUNT>
1

> <PUBCHEM_CACTVS_TAUTO_COUNT>
26

> <PUBCHEM_CONFORMER_ID>
0006BAEA00000001

> <PUBCHEM_MMFF94_ENERGY>
81.113

> <PUBCHEM_FEATURE_SELFOVERLAP>
45.69

> <PUBCHEM_SHAPE_FINGERPRINT>
106641 1 15285647555707140042
10670039 82 15984839163695176447
10906281 52 18200009804047047176
12107183 9 17831006193524272379
12166972 35 18113898234644257841
12236239 1 17894909628820647606
12516196 113 18187083966256108432
12596602 18 16950281819220582090
13167823 11 18335417946262257463
13533116 47 18334857161177880237
13862211 1 18341895208063754786
14251752 14 16845584139858325455
1454969 45 18411133611929164452
14790565 3 17692521222902609620
15183329 4 18343023307046464015
15196674 1 18411413986297222121
15352361 1 18411696608309463794
15788980 27 18272364257106993513
15848702 151 18411696586882113167
15927050 60 17758957018567009492
17349148 13 17822283583477326125
17492 89 18053096225328970155
17857418 61 18408887325940980935
1813 80 17561357396536700852
18222031 100 18334848421019542956
18681886 176 18187651271243233386
19141452 34 18410569604569730291
200 152 18186517688056395457
20028762 73 18260550013436654934
20511986 3 18260277342767613699
20612939 158 18130220463072713749
20645477 70 18342173332438447250
21250096 35 18408318895482546546
21267235 1 18339349799922247339
22079108 93 16732994111342387658
221357 26 18343309158737605757
221490 88 18197767813237319115
22224240 67 18260275127566997426
23402539 116 18334013913142880805
23559900 14 18266463101055157177
3004659 81 18131066039802803326
335352 9 18412541037862020245
339767 52 18409452474807147970
34797466 226 16950834809171184760
4073 2 18058723607111769915
4214541 1 18410006637705549689
4340502 62 15140957362057786188
5104073 3 18337099069312865473
5283173 99 18130515239732114325
559249 180 18410856581705502379
9709674 26 18126557925790602851
9971528 1 18272370823996535716

> <PUBCHEM_SHAPE_MULTIPOLES>
444.87
14.55
2.42
0.92
5.43
0.88
0
-6.12
0.02
-1.29
0.22
0.34
-0.04
-0.73

> <PUBCHEM_SHAPE_SELFOVERLAP>
957.078

> <PUBCHEM_SHAPE_VOLUME>
245.4

> <PUBCHEM_COORDINATE_TYPE>
2
5
10

$$$$

