13734
  -OEChem-06241222402D

 39 39  0     1  0  0  0  0  0999 V2000
    3.2832    0.0000    0.0000 Cl  0  5  0  0  0  0  0  0  0  0  0  0
    1.1166    5.4176    0.0000 S   0  0  0  0  0  0  0  0  0  0  0  0
    4.7974    4.1200    0.0000 N   0  3  0  0  0  0  0  0  0  0  0  0
    3.9313    6.6200    0.0000 N   0  0  3  0  0  0  0  0  0  0  0  0
    5.6634    6.6200    0.0000 N   0  0  0  0  0  0  0  0  0  0  0  0
    4.7974    5.1200    0.0000 C   0  0  0  0  0  0  0  0  0  0  0  0
    3.9313    5.6200    0.0000 C   0  0  0  0  0  0  0  0  0  0  0  0
    3.0653    7.1200    0.0000 C   0  0  0  0  0  0  0  0  0  0  0  0
    4.7974    3.1200    0.0000 C   0  0  0  0  0  0  0  0  0  0  0  0
    5.7974    4.1200    0.0000 C   0  0  0  0  0  0  0  0  0  0  0  0
    4.7974    7.1200    0.0000 C   0  0  0  0  0  0  0  0  0  0  0  0
    2.1993    6.6200    0.0000 C   0  0  0  0  0  0  0  0  0  0  0  0
    4.7974    8.1200    0.0000 C   0  0  0  0  0  0  0  0  0  0  0  0
    1.2857    7.0267    0.0000 C   0  0  0  0  0  0  0  0  0  0  0  0
    2.0948    5.6255    0.0000 C   0  0  0  0  0  0  0  0  0  0  0  0
    5.6634    8.6200    0.0000 C   0  0  0  0  0  0  0  0  0  0  0  0
    0.6166    6.2836    0.0000 C   0  0  0  0  0  0  0  0  0  0  0  0
    6.5294    7.1200    0.0000 C   0  0  0  0  0  0  0  0  0  0  0  0
    6.5294    8.1200    0.0000 C   0  0  0  0  0  0  0  0  0  0  0  0
    5.4079    5.0123    0.0000 H   0  0  0  0  0  0  0  0  0  0  0  0
    5.0094    5.7026    0.0000 H   0  0  0  0  0  0  0  0  0  0  0  0
    4.1774    4.1200    0.0000 H   0  0  0  0  0  0  0  0  0  0  0  0
    3.3208    5.7277    0.0000 H   0  0  0  0  0  0  0  0  0  0  0  0
    3.7193    5.0374    0.0000 H   0  0  0  0  0  0  0  0  0  0  0  0
    3.4638    7.5950    0.0000 H   0  0  0  0  0  0  0  0  0  0  0  0
    2.6668    7.5950    0.0000 H   0  0  0  0  0  0  0  0  0  0  0  0
    5.7974    3.5000    0.0000 H   0  0  0  0  0  0  0  0  0  0  0  0
    4.1774    3.1200    0.0000 H   0  0  0  0  0  0  0  0  0  0  0  0
    4.7974    2.5000    0.0000 H   0  0  0  0  0  0  0  0  0  0  0  0
    5.4174    3.1200    0.0000 H   0  0  0  0  0  0  0  0  0  0  0  0
    6.4174    4.1200    0.0000 H   0  0  0  0  0  0  0  0  0  0  0  0
    5.7974    4.7400    0.0000 H   0  0  0  0  0  0  0  0  0  0  0  0
    4.2604    8.4300    0.0000 H   0  0  0  0  0  0  0  0  0  0  0  0
    1.1568    7.6332    0.0000 H   0  0  0  0  0  0  0  0  0  0  0  0
    2.5555    5.2106    0.0000 H   0  0  0  0  0  0  0  0  0  0  0  0
    5.6634    9.2400    0.0000 H   0  0  0  0  0  0  0  0  0  0  0  0
    0.0000    6.3484    0.0000 H   0  0  0  0  0  0  0  0  0  0  0  0
    7.0663    6.8100    0.0000 H   0  0  0  0  0  0  0  0  0  0  0  0
    7.0663    8.4300    0.0000 H   0  0  0  0  0  0  0  0  0  0  0  0
  2 15  1  0  0  0  0
  2 17  1  0  0  0  0
  3  6  1  0  0  0  0
  3  9  1  0  0  0  0
  3 10  1  0  0  0  0
  3 22  1  0  0  0  0
  4  7  1  0  0  0  0
  4  8  1  0  0  0  0
  4 11  1  0  0  0  0
  5 11  1  0  0  0  0
  5 18  2  0  0  0  0
  6  7  1  0  0  0  0
  6 20  1  0  0  0  0
  6 21  1  0  0  0  0
  7 23  1  0  0  0  0
  7 24  1  0  0  0  0
  8 12  1  0  0  0  0
  8 25  1  0  0  0  0
  8 26  1  0  0  0  0
  9 28  1  0  0  0  0
  9 29  1  0  0  0  0
  9 30  1  0  0  0  0
 10 27  1  0  0  0  0
 10 31  1  0  0  0  0
 10 32  1  0  0  0  0
 11 13  2  0  0  0  0
 12 14  1  0  0  0  0
 12 15  2  0  0  0  0
 13 16  1  0  0  0  0
 13 33  1  0  0  0  0
 14 17  2  0  0  0  0
 14 34  1  0  0  0  0
 15 35  1  0  0  0  0
 16 19  2  0  0  0  0
 16 36  1  0  0  0  0
 17 37  1  0  0  0  0
 18 19  1  0  0  0  0
 18 38  1  0  0  0  0
 19 39  1  0  0  0  0
M  CHG  2   1  -1   3   1
M  END
> <PUBCHEM_COMPOUND_CID>
13734

> <PUBCHEM_COMPOUND_CANONICALIZED>
1

> <PUBCHEM_CACTVS_COMPLEXITY>
235

> <PUBCHEM_CACTVS_HBOND_ACCEPTOR>
4

> <PUBCHEM_CACTVS_HBOND_DONOR>
1

> <PUBCHEM_CACTVS_ROTATABLE_BOND>
6

> <PUBCHEM_CACTVS_SUBSKEYS>
AAADceBzAABEAAAAAAAAAAAAAAAAASAAAAAsAAAAAAAAAAAB4AAAHAQQAAAADADFWgS/sZPIEAikAjJnZACDgKkxCjBJ2Lg4ZJiIYOLgmZGUIAhokALoyCYQAAAIAAAAAAAAAAAAAAAAAAAAAAAAAAAAAA==

> <PUBCHEM_IUPAC_OPENEYE_NAME>
dimethyl-[2-[2-pyridyl(3-thienylmethyl)amino]ethyl]ammonium chloride

> <PUBCHEM_IUPAC_CAS_NAME>
dimethyl-[2-[2-pyridinyl(3-thiophenylmethyl)amino]ethyl]ammonium chloride

> <PUBCHEM_IUPAC_NAME>
dimethyl-[2-[pyridin-2-yl(thiophen-3-ylmethyl)amino]ethyl]azanium chloride

> <PUBCHEM_IUPAC_SYSTEMATIC_NAME>
dimethyl-[2-[pyridin-2-yl(thiophen-3-ylmethyl)amino]ethyl]azanium chloride

> <PUBCHEM_IUPAC_TRADITIONAL_NAME>
dimethyl-[2-[2-pyridyl(3-thenyl)amino]ethyl]ammonium chloride

> <PUBCHEM_IUPAC_INCHI>
InChI=1S/C14H19N3S.ClH/c1-16(2)8-9-17(11-13-6-10-18-12-13)14-5-3-4-7-15-14;/h3-7,10,12H,8-9,11H2,1-2H3;1H

> <PUBCHEM_IUPAC_INCHIKEY>
OQWLDKFPOJCKBX-UHFFFAOYSA-N

> <PUBCHEM_EXACT_MASS>
297.106646

> <PUBCHEM_MOLECULAR_FORMULA>
C14H20ClN3S

> <PUBCHEM_MOLECULAR_WEIGHT>
297.8467

> <PUBCHEM_OPENEYE_CAN_SMILES>
C[NH+](C)CCN(CC1=CSC=C1)C2=CC=CC=N2.[Cl-]

> <PUBCHEM_OPENEYE_ISO_SMILES>
C[NH+](C)CCN(CC1=CSC=C1)C2=CC=CC=N2.[Cl-]

> <PUBCHEM_CACTVS_TPSA>
48.8

> <PUBCHEM_MONOISOTOPIC_WEIGHT>
297.106646

> <PUBCHEM_TOTAL_CHARGE>
0

> <PUBCHEM_HEAVY_ATOM_COUNT>
19

> <PUBCHEM_ATOM_DEF_STEREO_COUNT>
0

> <PUBCHEM_ATOM_UDEF_STEREO_COUNT>
0

> <PUBCHEM_BOND_DEF_STEREO_COUNT>
0

> <PUBCHEM_BOND_UDEF_STEREO_COUNT>
0

> <PUBCHEM_ISOTOPIC_ATOM_COUNT>
0

> <PUBCHEM_COMPONENT_COUNT>
2

> <PUBCHEM_CACTVS_TAUTO_COUNT>
1

> <PUBCHEM_COORDINATE_TYPE>
1
5
255

> <PUBCHEM_BONDANNOTATIONS>
11  13  8
12  14  8
12  15  8
13  16  8
14  17  8
16  19  8
18  19  8
2  15  8
2  17  8
5  11  8
5  18  8

$$$$

