5281648
  -OEChem-07051212583D

 32 34  0     0  0  0  0  0  0999 V2000
   -0.1865   -0.5328    0.1007 O   0  0  0  0  0  0  0  0  0  0  0  0
   -4.3183    1.9801   -0.2281 O   0  0  0  0  0  0  0  0  0  0  0  0
   -1.6331   -2.8167    0.2959 O   0  0  0  0  0  0  0  0  0  0  0  0
   -1.9545    3.1171   -0.2880 O   0  0  0  0  0  0  0  0  0  0  0  0
   -4.3975   -2.7397    0.2329 O   0  0  0  0  0  0  0  0  0  0  0  0
    4.4752   -2.1446   -0.8551 O   0  0  0  0  0  0  0  0  0  0  0  0
    6.1300   -0.1870    0.2178 O   0  0  0  0  0  0  0  0  0  0  0  0
   -2.2233    0.7796   -0.0692 C   0  0  0  0  0  0  0  0  0  0  0  0
   -1.5545   -0.4361    0.0633 C   0  0  0  0  0  0  0  0  0  0  0  0
    0.5611    0.6302   -0.0057 C   0  0  0  0  0  0  0  0  0  0  0  0
    2.0205    0.4126    0.0520 C   0  0  0  0  0  0  0  0  0  0  0  0
   -1.4338    2.0163   -0.1731 C   0  0  0  0  0  0  0  0  0  0  0  0
    0.0341    1.8586   -0.1302 C   0  0  0  0  0  0  0  0  0  0  0  0
   -3.6191    0.8183   -0.1007 C   0  0  0  0  0  0  0  0  0  0  0  0
   -2.2798   -1.6233    0.1656 C   0  0  0  0  0  0  0  0  0  0  0  0
   -3.6741   -1.5890    0.1343 C   0  0  0  0  0  0  0  0  0  0  0  0
   -4.3421   -0.3709    0.0014 C   0  0  0  0  0  0  0  0  0  0  0  0
    2.5727   -0.7754   -0.4333 C   0  0  0  0  0  0  0  0  0  0  0  0
    2.8555    1.3939    0.5920 C   0  0  0  0  0  0  0  0  0  0  0  0
    3.9514   -0.9807   -0.3793 C   0  0  0  0  0  0  0  0  0  0  0  0
    4.2341    1.1884    0.6464 C   0  0  0  0  0  0  0  0  0  0  0  0
    4.7821    0.0012    0.1606 C   0  0  0  0  0  0  0  0  0  0  0  0
    0.6207    2.7648   -0.2256 H   0  0  0  0  0  0  0  0  0  0  0  0
   -5.4290   -0.3419   -0.0231 H   0  0  0  0  0  0  0  0  0  0  0  0
    1.9438   -1.5507   -0.8655 H   0  0  0  0  0  0  0  0  0  0  0  0
    2.4660    2.3226    1.0004 H   0  0  0  0  0  0  0  0  0  0  0  0
    4.8696    1.9595    1.0737 H   0  0  0  0  0  0  0  0  0  0  0  0
   -3.7141    2.7355   -0.2926 H   0  0  0  0  0  0  0  0  0  0  0  0
   -2.2998   -3.5231    0.3520 H   0  0  0  0  0  0  0  0  0  0  0  0
   -5.3449   -2.5235    0.1927 H   0  0  0  0  0  0  0  0  0  0  0  0
    5.4407   -2.1161   -0.7379 H   0  0  0  0  0  0  0  0  0  0  0  0
    6.5424    0.5962    0.6211 H   0  0  0  0  0  0  0  0  0  0  0  0
  1  9  1  0  0  0  0
  1 10  1  0  0  0  0
  2 14  1  0  0  0  0
  2 28  1  0  0  0  0
  3 15  1  0  0  0  0
  3 29  1  0  0  0  0
  4 12  2  0  0  0  0
  5 16  1  0  0  0  0
  5 30  1  0  0  0  0
  6 20  1  0  0  0  0
  6 31  1  0  0  0  0
  7 22  1  0  0  0  0
  7 32  1  0  0  0  0
  8  9  2  0  0  0  0
  8 12  1  0  0  0  0
  8 14  1  0  0  0  0
  9 15  1  0  0  0  0
 10 11  1  0  0  0  0
 10 13  2  0  0  0  0
 11 18  2  0  0  0  0
 11 19  1  0  0  0  0
 12 13  1  0  0  0  0
 13 23  1  0  0  0  0
 14 17  2  0  0  0  0
 15 16  2  0  0  0  0
 16 17  1  0  0  0  0
 17 24  1  0  0  0  0
 18 20  1  0  0  0  0
 18 25  1  0  0  0  0
 19 21  2  0  0  0  0
 19 26  1  0  0  0  0
 20 22  2  0  0  0  0
 21 22  1  0  0  0  0
 21 27  1  0  0  0  0
M  END
> <PUBCHEM_COMPOUND_CID>
5281648

> <PUBCHEM_CONFORMER_RMSD>
0.6

> <PUBCHEM_CONFORMER_DIVERSEORDER>
1
3
6
4
5
2

> <PUBCHEM_MMFF94_PARTIAL_CHARGES>
32
1 -0.16
10 0.05
11 0.03
12 0.47
13 -0.14
14 0.08
15 0.08
16 0.08
17 -0.15
18 -0.15
19 -0.15
2 -0.53
20 0.08
21 -0.15
22 0.08
23 0.15
24 0.15
25 0.15
26 0.15
27 0.15
28 0.45
29 0.45
3 -0.53
30 0.45
31 0.45
32 0.45
4 -0.57
5 -0.53
6 -0.53
7 -0.53
8 0.09
9 0.08

> <PUBCHEM_EFFECTIVE_ROTOR_COUNT>
1

> <PUBCHEM_PHARMACOPHORE_FEATURES>
10
1 1 acceptor
1 2 donor
1 3 donor
1 4 acceptor
1 5 donor
1 6 donor
1 7 donor
6 1 8 9 10 12 13 rings
6 11 18 19 20 21 22 rings
6 8 9 14 15 16 17 rings

> <PUBCHEM_HEAVY_ATOM_COUNT>
22

> <PUBCHEM_ATOM_DEF_STEREO_COUNT>
0

> <PUBCHEM_ATOM_UDEF_STEREO_COUNT>
0

> <PUBCHEM_BOND_DEF_STEREO_COUNT>
0

> <PUBCHEM_BOND_UDEF_STEREO_COUNT>
0

> <PUBCHEM_ISOTOPIC_ATOM_COUNT>
0

> <PUBCHEM_COMPONENT_COUNT>
1

> <PUBCHEM_CACTVS_TAUTO_COUNT>
418

> <PUBCHEM_CONFORMER_ID>
0050977000000001

> <PUBCHEM_MMFF94_ENERGY>
65.5487

> <PUBCHEM_FEATURE_SELFOVERLAP>
50.781

> <PUBCHEM_SHAPE_FINGERPRINT>
10319926 262 18265635289575166616
10411042 1 18196089937820576835
105312 117 17630904891786679477
10616163 171 18410855464555413670
11552529 35 17531812316444479167
12107183 9 17622454152768267024
12236239 1 17418094338894621256
13140716 1 18338509743132344993
13288520 33 18411136917972521557
13402501 40 18334855026252417966
13544592 145 18263638623044414486
14790565 3 17761489592713584345
14866123 147 17178263588334499714
15042514 8 18341325635539710441
15196674 1 18410292497295113346
15352361 1 18338798909878316431
15961568 22 17987518118265953108
17492 89 18411418419173372698
17804303 29 18409446972874809921
1813 80 17489307455956401532
19141452 34 18260827056122711903
200 152 17386011692785586100
20510252 161 18334859467217103169
20645477 70 17386005148057157550
21033648 29 17531543034911213712
21065198 57 18335422378573554920
21065201 7 18342462564437194696
21267235 1 18341325600742317059
21279426 13 18192993935554696615
22122407 14 16081360813640484483
221490 88 18335417968058710872
2297311 6 18409720747307260524
23366157 5 17700133205656110772
23402539 116 18411707577381709405
23557571 272 18409444761230136732
23559900 14 18335986449787623600
23845131 108 17688856958753495817
26918003 58 18259989288280943728
3004659 81 18059297565356046540
335352 9 18412265005004057879
350125 39 18336546028487493488
3545911 37 18408604777507373792
4214541 1 18410293622745583880
5104073 3 18334860523968475376
559249 180 18272096032204936218
77779 3 18409448081260988040
9709674 26 18408321090437818078

> <PUBCHEM_SHAPE_MULTIPOLES>
411.66
11.02
2.78
0.69
8.51
0.16
0
3.14
-0.24
-2.56
0.11
0.27
0.02
1.11

> <PUBCHEM_SHAPE_SELFOVERLAP>
925.139

> <PUBCHEM_SHAPE_VOLUME>
215.8

> <PUBCHEM_COORDINATE_TYPE>
2
5
10

$$$$

