19657
  -OEChem-07051213133D

 22 23  0     1  0  0  0  0  0999 V2000
   -3.4980   -0.1565   -1.4039 S   0  0  0  0  0  0  0  0  0  0  0  0
   -1.9048    0.1258   -0.3377 P   0  0  2  0  0  0  0  0  0  0  0  0
   -1.2683    1.6162   -0.3910 O   0  0  0  0  0  0  0  0  0  0  0  0
   -0.6382   -0.8118   -0.7137 O   0  0  0  0  0  0  0  0  0  0  0  0
   -2.0766   -0.1398    1.2549 O   0  0  0  0  0  0  0  0  0  0  0  0
    0.9672    0.8090    0.1093 C   0  0  0  0  0  0  0  0  0  0  0  0
   -0.0737    1.8690    0.3378 C   0  0  0  0  0  0  0  0  0  0  0  0
    0.6433   -0.4618   -0.3802 C   0  0  0  0  0  0  0  0  0  0  0  0
    2.3035    1.0809    0.4343 C   0  0  0  0  0  0  0  0  0  0  0  0
    1.6301   -1.4305   -0.5707 C   0  0  0  0  0  0  0  0  0  0  0  0
    3.2922    0.1125    0.2509 C   0  0  0  0  0  0  0  0  0  0  0  0
    2.9556   -1.1416   -0.2540 C   0  0  0  0  0  0  0  0  0  0  0  0
   -2.3324   -1.4714    1.6640 C   0  0  0  0  0  0  0  0  0  0  0  0
   -0.3169    1.9333    1.4035 H   0  0  0  0  0  0  0  0  0  0  0  0
    0.3030    2.8427    0.0082 H   0  0  0  0  0  0  0  0  0  0  0  0
    2.5832    2.0536    0.8321 H   0  0  0  0  0  0  0  0  0  0  0  0
    1.3723   -2.4115   -0.9607 H   0  0  0  0  0  0  0  0  0  0  0  0
    4.3246    0.3372    0.5027 H   0  0  0  0  0  0  0  0  0  0  0  0
    3.7253   -1.8941   -0.3978 H   0  0  0  0  0  0  0  0  0  0  0  0
   -3.3169   -1.7945    1.3171 H   0  0  0  0  0  0  0  0  0  0  0  0
   -2.3217   -1.5042    2.7566 H   0  0  0  0  0  0  0  0  0  0  0  0
   -1.5618   -2.1498    1.2895 H   0  0  0  0  0  0  0  0  0  0  0  0
  1  2  2  0  0  0  0
  2  3  1  0  0  0  0
  2  4  1  0  0  0  0
  2  5  1  0  0  0  0
  3  7  1  0  0  0  0
  4  8  1  0  0  0  0
  5 13  1  0  0  0  0
  6  7  1  0  0  0  0
  6  8  1  0  0  0  0
  6  9  2  0  0  0  0
  7 14  1  0  0  0  0
  7 15  1  0  0  0  0
  8 10  2  0  0  0  0
  9 11  1  0  0  0  0
  9 16  1  0  0  0  0
 10 12  1  0  0  0  0
 10 17  1  0  0  0  0
 11 12  2  0  0  0  0
 11 18  1  0  0  0  0
 12 19  1  0  0  0  0
 13 20  1  0  0  0  0
 13 21  1  0  0  0  0
 13 22  1  0  0  0  0
M  END
> <PUBCHEM_COMPOUND_CID>
19657

> <PUBCHEM_CONFORMER_RMSD>
0.6

> <PUBCHEM_CONFORMER_DIVERSEORDER>
2
1
4
3

> <PUBCHEM_MMFF94_PARTIAL_CHARGES>
17
1 -0.68
10 -0.15
11 -0.15
12 -0.15
13 0.28
16 0.15
17 0.15
18 0.15
19 0.15
2 1.49
3 -0.55
4 -0.35
5 -0.55
6 -0.14
7 0.42
8 0.08
9 -0.15

> <PUBCHEM_EFFECTIVE_ROTOR_COUNT>
1.6

> <PUBCHEM_PHARMACOPHORE_FEATURES>
2
6 2 3 4 6 7 8 rings
6 6 8 9 10 11 12 rings

> <PUBCHEM_HEAVY_ATOM_COUNT>
13

> <PUBCHEM_ATOM_DEF_STEREO_COUNT>
0

> <PUBCHEM_ATOM_UDEF_STEREO_COUNT>
1

> <PUBCHEM_BOND_DEF_STEREO_COUNT>
0

> <PUBCHEM_BOND_UDEF_STEREO_COUNT>
0

> <PUBCHEM_ISOTOPIC_ATOM_COUNT>
0

> <PUBCHEM_COMPONENT_COUNT>
1

> <PUBCHEM_CACTVS_TAUTO_COUNT>
1

> <PUBCHEM_CONFORMER_ID>
00004CC900000002

> <PUBCHEM_MMFF94_ENERGY>
25.6217

> <PUBCHEM_FEATURE_SELFOVERLAP>
10.173

> <PUBCHEM_SHAPE_FINGERPRINT>
11471102 22 18335692819721136690
12138202 97 17632025195055540479
124424 183 18201167623686765930
12500047 106 17131563798549306883
15207287 21 18270702912159452699
15775835 57 17749390360111827376
15852999 172 17489035962626481315
16945 1 18334573517010589596
17844478 74 18340192042718693224
18186145 218 17916601950145282045
18534176 82 17846781810397850501
19010151 120 17822304460965218461
200 152 17676501544152700151
20201158 50 18413112774748563335
20279233 1 18201723946331563234
21501502 16 18190182467359128492
23402539 116 17632036207451706925
23402655 69 18188505665014155133
23526113 38 18271823306076276003
23559900 14 17917717916024747410
2748010 2 17975701584611399756
3248919 1 18131067160277597196
5084963 1 17604160293110162582
77492 1 17023181600415390503
81228 2 18269276935572703961
8809292 202 18198052775880396290

> <PUBCHEM_SHAPE_MULTIPOLES>
257.62
5.22
1.68
1.22
0.29
0.3
-0.33
-1.07
0.59
-0.23
-0.2
1.28
-0.42
0.73

> <PUBCHEM_SHAPE_SELFOVERLAP>
517.377

> <PUBCHEM_SHAPE_VOLUME>
153.1

> <PUBCHEM_COORDINATE_TYPE>
2
5
10

$$$$

