5281570
  -OEChem-07051212582D

 28 29  0     0  0  0  0  0  0999 V2000
    2.8660   -0.3246    0.0000 O   0  0  0  0  0  0  0  0  0  0  0  0
    7.2622    1.1995    0.0000 O   0  0  0  0  0  0  0  0  0  0  0  0
    5.4804   -1.8592    0.0000 O   0  0  0  0  0  0  0  0  0  0  0  0
    3.7320   -1.8246    0.0000 O   0  0  0  0  0  0  0  0  0  0  0  0
    4.5981    0.6754    0.0000 C   0  0  0  0  0  0  0  0  0  0  0  0
    3.7320    1.1754    0.0000 C   0  0  0  0  0  0  0  0  0  0  0  0
    4.5981   -0.3246    0.0000 C   0  0  0  0  0  0  0  0  0  0  0  0
    2.8660    0.6754    0.0000 C   0  0  0  0  0  0  0  0  0  0  0  0
    5.4920    1.2100    0.0000 C   0  0  0  0  0  0  0  0  0  0  0  0
    5.4920   -0.8593    0.0000 C   0  0  0  0  0  0  0  0  0  0  0  0
    6.3981    0.6962    0.0000 C   0  0  0  0  0  0  0  0  0  0  0  0
    3.7320   -0.8246    0.0000 C   0  0  0  0  0  0  0  0  0  0  0  0
    3.7320    2.1754    0.0000 C   0  0  0  0  0  0  0  0  0  0  0  0
    6.3981   -0.3454    0.0000 C   0  0  0  0  0  0  0  0  0  0  0  0
    2.0000    1.1754    0.0000 C   0  0  0  0  0  0  0  0  0  0  0  0
    8.1301    0.7029    0.0000 C   0  0  0  0  0  0  0  0  0  0  0  0
    5.4848    1.8300    0.0000 H   0  0  0  0  0  0  0  0  0  0  0  0
    4.3520    2.1754    0.0000 H   0  0  0  0  0  0  0  0  0  0  0  0
    3.7320    2.7954    0.0000 H   0  0  0  0  0  0  0  0  0  0  0  0
    3.1120    2.1754    0.0000 H   0  0  0  0  0  0  0  0  0  0  0  0
    6.9338   -0.6575    0.0000 H   0  0  0  0  0  0  0  0  0  0  0  0
    2.3100    1.7123    0.0000 H   0  0  0  0  0  0  0  0  0  0  0  0
    1.4631    1.4854    0.0000 H   0  0  0  0  0  0  0  0  0  0  0  0
    1.6900    0.6385    0.0000 H   0  0  0  0  0  0  0  0  0  0  0  0
    6.0138   -2.1754    0.0000 H   0  0  0  0  0  0  0  0  0  0  0  0
    7.8222    0.1648    0.0000 H   0  0  0  0  0  0  0  0  0  0  0  0
    8.6682    0.3950    0.0000 H   0  0  0  0  0  0  0  0  0  0  0  0
    8.4380    1.2410    0.0000 H   0  0  0  0  0  0  0  0  0  0  0  0
  1  8  1  0  0  0  0
  1 12  1  0  0  0  0
  2 11  1  0  0  0  0
  2 16  1  0  0  0  0
  3 10  1  0  0  0  0
  3 25  1  0  0  0  0
  4 12  2  0  0  0  0
  5  6  1  0  0  0  0
  5  7  2  0  0  0  0
  5  9  1  0  0  0  0
  6  8  2  0  0  0  0
  6 13  1  0  0  0  0
  7 10  1  0  0  0  0
  7 12  1  0  0  0  0
  8 15  1  0  0  0  0
  9 11  2  0  0  0  0
  9 17  1  0  0  0  0
 10 14  2  0  0  0  0
 11 14  1  0  0  0  0
 13 18  1  0  0  0  0
 13 19  1  0  0  0  0
 13 20  1  0  0  0  0
 14 21  1  0  0  0  0
 15 22  1  0  0  0  0
 15 23  1  0  0  0  0
 15 24  1  0  0  0  0
 16 26  1  0  0  0  0
 16 27  1  0  0  0  0
 16 28  1  0  0  0  0
M  END
> <PUBCHEM_COMPOUND_CID>
5281570

> <PUBCHEM_COMPOUND_CANONICALIZED>
1

> <PUBCHEM_CACTVS_COMPLEXITY>
334

> <PUBCHEM_CACTVS_HBOND_ACCEPTOR>
4

> <PUBCHEM_CACTVS_HBOND_DONOR>
1

> <PUBCHEM_CACTVS_ROTATABLE_BOND>
1

> <PUBCHEM_CACTVS_SUBSKEYS>
AAADccBwOAAAAAAAAAAAAAAAAAAAAAAAAAAwQAAAAAAAAACBAAAAGgAACAAADASAmAIyDoAABgCIAiDSCAACCAAkIAAAiAEGCMgMJzaGNRqCcWAl4BUIuQeI7LzOoAABCAAYAABAAAIQADAAAAAAAAAAAA==

> <PUBCHEM_IUPAC_OPENEYE_NAME>
8-hydroxy-6-methoxy-3,4-dimethyl-isochromen-1-one

> <PUBCHEM_IUPAC_CAS_NAME>
8-hydroxy-6-methoxy-3,4-dimethyl-2-benzopyran-1-one

> <PUBCHEM_IUPAC_NAME>
8-hydroxy-6-methoxy-3,4-dimethylisochromen-1-one

> <PUBCHEM_IUPAC_SYSTEMATIC_NAME>
6-methoxy-3,4-dimethyl-8-oxidanyl-isochromen-1-one

> <PUBCHEM_IUPAC_TRADITIONAL_NAME>
8-hydroxy-6-methoxy-3,4-dimethyl-isocoumarin

> <PUBCHEM_IUPAC_INCHI>
InChI=1S/C12H12O4/c1-6-7(2)16-12(14)11-9(6)4-8(15-3)5-10(11)13/h4-5,13H,1-3H3

> <PUBCHEM_IUPAC_INCHIKEY>
ISJYICQTJIFNAX-UHFFFAOYSA-N

> <PUBCHEM_XLOGP3_AA>
2.4

> <PUBCHEM_EXACT_MASS>
220.073559

> <PUBCHEM_MOLECULAR_FORMULA>
C12H12O4

> <PUBCHEM_MOLECULAR_WEIGHT>
220.22128

> <PUBCHEM_OPENEYE_CAN_SMILES>
CC1=C(OC(=O)C2=C(C=C(C=C12)OC)O)C

> <PUBCHEM_OPENEYE_ISO_SMILES>
CC1=C(OC(=O)C2=C(C=C(C=C12)OC)O)C

> <PUBCHEM_CACTVS_TPSA>
55.8

> <PUBCHEM_MONOISOTOPIC_WEIGHT>
220.073559

> <PUBCHEM_TOTAL_CHARGE>
0

> <PUBCHEM_HEAVY_ATOM_COUNT>
16

> <PUBCHEM_ATOM_DEF_STEREO_COUNT>
0

> <PUBCHEM_ATOM_UDEF_STEREO_COUNT>
0

> <PUBCHEM_BOND_DEF_STEREO_COUNT>
0

> <PUBCHEM_BOND_UDEF_STEREO_COUNT>
0

> <PUBCHEM_ISOTOPIC_ATOM_COUNT>
0

> <PUBCHEM_COMPONENT_COUNT>
1

> <PUBCHEM_CACTVS_TAUTO_COUNT>
18

> <PUBCHEM_COORDINATE_TYPE>
1
5
255

> <PUBCHEM_BONDANNOTATIONS>
1  12  8
1  8  8
10  14  8
11  14  8
5  6  8
5  7  8
5  9  8
6  8  8
7  10  8
7  12  8
9  11  8

$$$$

