9580
  -OEChem-06261203503D

 15 15  0     0  0  0  0  0  0999 V2000
    2.8695    0.5830   -0.8462 Cl  0  0  0  0  0  0  0  0  0  0  0  0
    0.6300   -2.0784    0.1335 F   0  0  0  0  0  0  0  0  0  0  0  0
    0.4568    0.2818    0.3149 C   0  0  0  0  0  0  0  0  0  0  0  0
   -0.1167   -0.9671    0.0762 C   0  0  0  0  0  0  0  0  0  0  0  0
   -0.3280    1.4332    0.2513 C   0  0  0  0  0  0  0  0  0  0  0  0
    1.9090    0.3894    0.6375 C   0  0  0  0  0  0  0  0  0  0  0  0
   -1.4749   -1.0646   -0.2262 C   0  0  0  0  0  0  0  0  0  0  0  0
   -1.6862    1.3358   -0.0510 C   0  0  0  0  0  0  0  0  0  0  0  0
   -2.2596    0.0868   -0.2898 C   0  0  0  0  0  0  0  0  0  0  0  0
    0.1069    2.4125    0.4337 H   0  0  0  0  0  0  0  0  0  0  0  0
    2.2697   -0.5005    1.1635 H   0  0  0  0  0  0  0  0  0  0  0  0
    2.1091    1.2495    1.2853 H   0  0  0  0  0  0  0  0  0  0  0  0
   -1.9210   -2.0371   -0.4125 H   0  0  0  0  0  0  0  0  0  0  0  0
   -2.2972    2.2323   -0.1011 H   0  0  0  0  0  0  0  0  0  0  0  0
   -3.3172    0.0109   -0.5254 H   0  0  0  0  0  0  0  0  0  0  0  0
  1  6  1  0  0  0  0
  2  4  1  0  0  0  0
  3  4  1  0  0  0  0
  3  5  2  0  0  0  0
  3  6  1  0  0  0  0
  4  7  2  0  0  0  0
  5  8  1  0  0  0  0
  5 10  1  0  0  0  0
  6 11  1  0  0  0  0
  6 12  1  0  0  0  0
  7  9  1  0  0  0  0
  7 13  1  0  0  0  0
  8  9  2  0  0  0  0
  8 14  1  0  0  0  0
  9 15  1  0  0  0  0
M  END
> <PUBCHEM_COMPOUND_CID>
9580

> <PUBCHEM_CONFORMER_RMSD>
0.4

> <PUBCHEM_CONFORMER_DIVERSEORDER>
1
4
3
2

> <PUBCHEM_MMFF94_PARTIAL_CHARGES>
13
1 -0.29
10 0.15
13 0.15
14 0.15
15 0.15
2 -0.19
3 -0.14
4 0.19
5 -0.15
6 0.43
7 -0.15
8 -0.15
9 -0.15

> <PUBCHEM_EFFECTIVE_ROTOR_COUNT>
1

> <PUBCHEM_PHARMACOPHORE_FEATURES>
1
6 3 4 5 7 8 9 rings

> <PUBCHEM_HEAVY_ATOM_COUNT>
9

> <PUBCHEM_ATOM_DEF_STEREO_COUNT>
0

> <PUBCHEM_ATOM_UDEF_STEREO_COUNT>
0

> <PUBCHEM_BOND_DEF_STEREO_COUNT>
0

> <PUBCHEM_BOND_UDEF_STEREO_COUNT>
0

> <PUBCHEM_ISOTOPIC_ATOM_COUNT>
0

> <PUBCHEM_COMPONENT_COUNT>
1

> <PUBCHEM_CACTVS_TAUTO_COUNT>
1

> <PUBCHEM_CONFORMER_ID>
0000256C00000001

> <PUBCHEM_MMFF94_ENERGY>
16.5767

> <PUBCHEM_FEATURE_SELFOVERLAP>
5.074

> <PUBCHEM_SHAPE_FINGERPRINT>
12716758 59 18337104575719179976
12897270 3 18410013230005666900
16714656 1 18338515244378490620
16945 1 18409175398040147313
20645464 45 17896053056900690176
21040471 1 18337400442735745233
23235685 24 18413109463460763853
23552423 10 18198063775075467346
2748010 2 17906184953439626045
29004967 10 15864069841054537096
5084963 1 18114179687966458648

> <PUBCHEM_SHAPE_MULTIPOLES>
179.81
3.28
1.66
0.78
1.63
0.42
0.05
-0.63
0.81
-0.36
-0.07
0.31
-0.07
-0.11

> <PUBCHEM_SHAPE_SELFOVERLAP>
362.108

> <PUBCHEM_SHAPE_VOLUME>
106.8

> <PUBCHEM_COORDINATE_TYPE>
2
5
10

$$$$

