6440843
  -OEChem-07051213082D

115117  0     1  0  0  0  0  0999 V2000
    9.7942    0.1550    0.0000 O   0  0  0  0  0  0  0  0  0  0  0  0
    8.9282    0.6550    0.0000 O   0  0  0  0  0  0  0  0  0  0  0  0
   12.3923    1.6550    0.0000 O   0  0  0  0  0  0  0  0  0  0  0  0
    9.7942   -2.8450    0.0000 O   0  0  0  0  0  0  0  0  0  0  0  0
   11.5263   -2.8450    0.0000 O   0  0  0  0  0  0  0  0  0  0  0  0
    9.7942    3.1550    0.0000 O   0  0  0  0  0  0  0  0  0  0  0  0
   13.2583    0.1550    0.0000 O   0  0  0  0  0  0  0  0  0  0  0  0
   12.3923   -1.3450    0.0000 O   0  0  0  0  0  0  0  0  0  0  0  0
    9.7942   -4.8450    0.0000 O   0  0  0  0  0  0  0  0  0  0  0  0
   13.2583   -4.8450    0.0000 O   0  0  0  0  0  0  0  0  0  0  0  0
    6.3301    3.1550    0.0000 O   0  0  0  0  0  0  0  0  0  0  0  0
    3.9554    3.3889    0.0000 O   0  0  0  0  0  0  0  0  0  0  0  0
    2.8660    3.1550    0.0000 O   0  0  0  0  0  0  0  0  0  0  0  0
    2.0000    4.6550    0.0000 O   0  0  0  0  0  0  0  0  0  0  0  0
   11.5263   -5.8450    0.0000 N   0  0  0  0  0  0  0  0  0  0  0  0
   10.6603   -0.3450    0.0000 C   0  0  2  0  0  0  0  0  0  0  0  0
    9.7942    1.1550    0.0000 C   0  0  1  0  0  0  0  0  0  0  0  0
   11.5263    0.1550    0.0000 C   0  0  1  0  0  0  0  0  0  0  0  0
   11.5263    1.1550    0.0000 C   0  0  2  0  0  0  0  0  0  0  0  0
   10.6603    1.6550    0.0000 C   0  0  0  0  0  0  0  0  0  0  0  0
   10.6603   -1.3450    0.0000 C   0  0  0  0  0  0  0  0  0  0  0  0
    8.9282    1.6550    0.0000 C   0  0  0  0  0  0  0  0  0  0  0  0
    9.7942   -1.8450    0.0000 C   0  0  2  0  0  0  0  0  0  0  0  0
    8.9282    2.6550    0.0000 C   0  0  2  0  0  0  0  0  0  0  0  0
   12.3923   -0.3450    0.0000 C   0  0  0  0  0  0  0  0  0  0  0  0
   10.6603   -3.3450    0.0000 C   0  0  2  0  0  0  0  0  0  0  0  0
   10.6603   -4.3450    0.0000 C   0  0  2  0  0  0  0  0  0  0  0  0
    8.0622    3.1550    0.0000 C   0  0  0  0  0  0  0  0  0  0  0  0
   11.5263   -4.8450    0.0000 C   0  0  2  0  0  0  0  0  0  0  0  0
   12.3923   -4.3450    0.0000 C   0  0  1  0  0  0  0  0  0  0  0  0
   12.3923   -3.3450    0.0000 C   0  0  1  0  0  0  0  0  0  0  0  0
    8.9282   -1.3450    0.0000 C   0  0  0  0  0  0  0  0  0  0  0  0
    8.0622    4.1550    0.0000 C   0  0  0  0  0  0  0  0  0  0  0  0
   13.2583   -2.8450    0.0000 C   0  0  0  0  0  0  0  0  0  0  0  0
    7.1962    4.6550    0.0000 C   0  0  0  0  0  0  0  0  0  0  0  0
    8.0622   -1.8450    0.0000 C   0  0  0  0  0  0  0  0  0  0  0  0
    6.3301    4.1550    0.0000 C   0  0  0  0  0  0  0  0  0  0  0  0
    5.4641    4.6550    0.0000 C   0  0  0  0  0  0  0  0  0  0  0  0
    4.5981    4.1550    0.0000 C   0  0  2  0  0  0  0  0  0  0  0  0
    7.1962   -1.3450    0.0000 C   0  0  0  0  0  0  0  0  0  0  0  0
    3.7320    4.6550    0.0000 C   0  0  2  0  0  0  0  0  0  0  0  0
    3.7320    5.6550    0.0000 C   0  0  0  0  0  0  0  0  0  0  0  0
    2.8660    4.1550    0.0000 C   0  0  0  0  0  0  0  0  0  0  0  0
    7.1962   -0.3450    0.0000 C   0  0  0  0  0  0  0  0  0  0  0  0
    2.8660    6.1550    0.0000 C   0  0  0  0  0  0  0  0  0  0  0  0
    3.7320    2.6550    0.0000 C   0  0  2  0  0  0  0  0  0  0  0  0
    4.5981    3.1550    0.0000 C   0  0  0  0  0  0  0  0  0  0  0  0
    6.3301    0.1550    0.0000 C   0  0  0  0  0  0  0  0  0  0  0  0
    3.7320    1.6550    0.0000 C   0  0  0  0  0  0  0  0  0  0  0  0
    5.4641    2.6550    0.0000 C   0  0  0  0  0  0  0  0  0  0  0  0
    4.5981    1.1550    0.0000 C   0  0  0  0  0  0  0  0  0  0  0  0
    5.4641   -0.3450    0.0000 C   0  0  0  0  0  0  0  0  0  0  0  0
    4.5981    0.1550    0.0000 C   0  0  0  0  0  0  0  0  0  0  0  0
    5.9642    1.7890    0.0000 C   0  0  0  0  0  0  0  0  0  0  0  0
   11.3964   -0.7700    0.0000 H   0  0  0  0  0  0  0  0  0  0  0  0
   12.0632    0.4650    0.0000 H   0  0  0  0  0  0  0  0  0  0  0  0
   12.0632    0.8450    0.0000 H   0  0  0  0  0  0  0  0  0  0  0  0
   11.0588    2.1300    0.0000 H   0  0  0  0  0  0  0  0  0  0  0  0
   10.2617    2.1300    0.0000 H   0  0  0  0  0  0  0  0  0  0  0  0
   10.8723   -1.9276    0.0000 H   0  0  0  0  0  0  0  0  0  0  0  0
   11.2708   -1.2373    0.0000 H   0  0  0  0  0  0  0  0  0  0  0  0
    8.3176    1.7627    0.0000 H   0  0  0  0  0  0  0  0  0  0  0  0
    8.7162    1.0724    0.0000 H   0  0  0  0  0  0  0  0  0  0  0  0
    9.2573   -2.1550    0.0000 H   0  0  0  0  0  0  0  0  0  0  0  0
    9.4651    2.3450    0.0000 H   0  0  0  0  0  0  0  0  0  0  0  0
   10.6603   -2.7250    0.0000 H   0  0  0  0  0  0  0  0  0  0  0  0
   10.6603   -4.9650    0.0000 H   0  0  0  0  0  0  0  0  0  0  0  0
    7.4516    3.2627    0.0000 H   0  0  0  0  0  0  0  0  0  0  0  0
    7.8501    2.5724    0.0000 H   0  0  0  0  0  0  0  0  0  0  0  0
   12.0632   -5.1550    0.0000 H   0  0  0  0  0  0  0  0  0  0  0  0
    8.3913    0.9650    0.0000 H   0  0  0  0  0  0  0  0  0  0  0  0
   12.3923    2.2750    0.0000 H   0  0  0  0  0  0  0  0  0  0  0  0
   12.3923   -4.9650    0.0000 H   0  0  0  0  0  0  0  0  0  0  0  0
   12.3923   -2.7250    0.0000 H   0  0  0  0  0  0  0  0  0  0  0  0
    8.9282   -0.7250    0.0000 H   0  0  0  0  0  0  0  0  0  0  0  0
    8.6728    4.0473    0.0000 H   0  0  0  0  0  0  0  0  0  0  0  0
    8.2742    4.7376    0.0000 H   0  0  0  0  0  0  0  0  0  0  0  0
    9.7942    3.7750    0.0000 H   0  0  0  0  0  0  0  0  0  0  0  0
   13.5683   -3.3819    0.0000 H   0  0  0  0  0  0  0  0  0  0  0  0
   13.7953   -2.5350    0.0000 H   0  0  0  0  0  0  0  0  0  0  0  0
   12.9483   -2.3081    0.0000 H   0  0  0  0  0  0  0  0  0  0  0  0
    7.5947    5.1300    0.0000 H   0  0  0  0  0  0  0  0  0  0  0  0
    6.7976    5.1300    0.0000 H   0  0  0  0  0  0  0  0  0  0  0  0
   13.7953   -0.1550    0.0000 H   0  0  0  0  0  0  0  0  0  0  0  0
   12.0632   -6.1550    0.0000 H   0  0  0  0  0  0  0  0  0  0  0  0
   10.9893   -6.1550    0.0000 H   0  0  0  0  0  0  0  0  0  0  0  0
    9.7942   -5.4650    0.0000 H   0  0  0  0  0  0  0  0  0  0  0  0
    8.0622   -2.4650    0.0000 H   0  0  0  0  0  0  0  0  0  0  0  0
   13.7953   -4.5350    0.0000 H   0  0  0  0  0  0  0  0  0  0  0  0
    5.8626    5.1300    0.0000 H   0  0  0  0  0  0  0  0  0  0  0  0
    5.0656    5.1300    0.0000 H   0  0  0  0  0  0  0  0  0  0  0  0
    4.9966    3.6801    0.0000 H   0  0  0  0  0  0  0  0  0  0  0  0
    4.2690    4.9650    0.0000 H   0  0  0  0  0  0  0  0  0  0  0  0
    6.6592   -1.6550    0.0000 H   0  0  0  0  0  0  0  0  0  0  0  0
    4.3426    5.5473    0.0000 H   0  0  0  0  0  0  0  0  0  0  0  0
    3.9441    6.2376    0.0000 H   0  0  0  0  0  0  0  0  0  0  0  0
    7.7331   -0.0350    0.0000 H   0  0  0  0  0  0  0  0  0  0  0  0
    3.4804    3.7875    0.0000 H   0  0  0  0  0  0  0  0  0  0  0  0
    3.1760    6.6919    0.0000 H   0  0  0  0  0  0  0  0  0  0  0  0
    2.3291    6.4650    0.0000 H   0  0  0  0  0  0  0  0  0  0  0  0
    2.5560    5.6181    0.0000 H   0  0  0  0  0  0  0  0  0  0  0  0
    3.7320    3.2750    0.0000 H   0  0  0  0  0  0  0  0  0  0  0  0
    4.9966    3.6300    0.0000 H   0  0  0  0  0  0  0  0  0  0  0  0
    4.1996    3.6300    0.0000 H   0  0  0  0  0  0  0  0  0  0  0  0
    3.1215    1.7627    0.0000 H   0  0  0  0  0  0  0  0  0  0  0  0
    3.5200    1.0724    0.0000 H   0  0  0  0  0  0  0  0  0  0  0  0
    6.3301    0.7750    0.0000 H   0  0  0  0  0  0  0  0  0  0  0  0
    6.0747    2.7627    0.0000 H   0  0  0  0  0  0  0  0  0  0  0  0
    5.0257    2.2166    0.0000 H   0  0  0  0  0  0  0  0  0  0  0  0
    5.1350    1.4650    0.0000 H   0  0  0  0  0  0  0  0  0  0  0  0
    5.4641   -0.9650    0.0000 H   0  0  0  0  0  0  0  0  0  0  0  0
    4.0611   -0.1550    0.0000 H   0  0  0  0  0  0  0  0  0  0  0  0
    5.4273    1.4790    0.0000 H   0  0  0  0  0  0  0  0  0  0  0  0
    6.2742    1.2521    0.0000 H   0  0  0  0  0  0  0  0  0  0  0  0
    6.5011    2.0991    0.0000 H   0  0  0  0  0  0  0  0  0  0  0  0
  1 16  1  0  0  0  0
  1 17  1  0  0  0  0
 17  2  1  1  0  0  0
  2 71  1  0  0  0  0
 19  3  1  6  0  0  0
  3 72  1  0  0  0  0
 23  4  1  1  0  0  0
 26  4  1  6  0  0  0
  5 26  1  0  0  0  0
  5 31  1  0  0  0  0
 24  6  1  6  0  0  0
  6 78  1  0  0  0  0
  7 25  1  0  0  0  0
  7 84  1  0  0  0  0
  8 25  2  0  0  0  0
 27  9  1  6  0  0  0
  9 87  1  0  0  0  0
 30 10  1  1  0  0  0
 10 89  1  0  0  0  0
 11 37  2  0  0  0  0
 39 12  1  1  0  0  0
 12 98  1  0  0  0  0
 13 43  1  0  0  0  0
 13 46  1  0  0  0  0
 14 43  2  0  0  0  0
 29 15  1  6  0  0  0
 15 85  1  0  0  0  0
 15 86  1  0  0  0  0
 16 18  1  0  0  0  0
 16 21  1  0  0  0  0
 16 55  1  1  0  0  0
 17 20  1  0  0  0  0
 17 22  1  0  0  0  0
 18 19  1  0  0  0  0
 18 25  1  1  0  0  0
 18 56  1  0  0  0  0
 19 20  1  0  0  0  0
 19 57  1  0  0  0  0
 20 58  1  0  0  0  0
 20 59  1  0  0  0  0
 21 23  1  0  0  0  0
 21 60  1  0  0  0  0
 21 61  1  0  0  0  0
 22 24  1  0  0  0  0
 22 62  1  0  0  0  0
 22 63  1  0  0  0  0
 23 32  1  0  0  0  0
 23 64  1  0  0  0  0
 24 28  1  0  0  0  0
 24 65  1  0  0  0  0
 26 27  1  0  0  0  0
 26 66  1  0  0  0  0
 27 29  1  0  0  0  0
 27 67  1  0  0  0  0
 28 33  1  0  0  0  0
 28 68  1  0  0  0  0
 28 69  1  0  0  0  0
 29 30  1  0  0  0  0
 29 70  1  0  0  0  0
 30 31  1  0  0  0  0
 30 73  1  0  0  0  0
 31 34  1  6  0  0  0
 31 74  1  0  0  0  0
 32 36  2  0  0  0  0
 32 75  1  0  0  0  0
 33 35  1  0  0  0  0
 33 76  1  0  0  0  0
 33 77  1  0  0  0  0
 34 79  1  0  0  0  0
 34 80  1  0  0  0  0
 34 81  1  0  0  0  0
 35 37  1  0  0  0  0
 35 82  1  0  0  0  0
 35 83  1  0  0  0  0
 36 40  1  0  0  0  0
 36 88  1  0  0  0  0
 37 38  1  0  0  0  0
 38 39  1  0  0  0  0
 38 90  1  0  0  0  0
 38 91  1  0  0  0  0
 39 41  1  0  0  0  0
 39 92  1  0  0  0  0
 40 44  2  0  0  0  0
 40 94  1  0  0  0  0
 41 42  1  1  0  0  0
 41 43  1  0  0  0  0
 41 93  1  0  0  0  0
 42 45  1  0  0  0  0
 42 95  1  0  0  0  0
 42 96  1  0  0  0  0
 44 48  1  0  0  0  0
 44 97  1  0  0  0  0
 45 99  1  0  0  0  0
 45100  1  0  0  0  0
 45101  1  0  0  0  0
 46 47  1  6  0  0  0
 46 49  1  0  0  0  0
 46102  1  0  0  0  0
 47 50  1  0  0  0  0
 47103  1  0  0  0  0
 47104  1  0  0  0  0
 48 52  2  0  0  0  0
 48107  1  0  0  0  0
 49 51  1  0  0  0  0
 49105  1  0  0  0  0
 49106  1  0  0  0  0
 50 54  1  0  0  0  0
 50108  1  0  0  0  0
 50109  1  0  0  0  0
 51 53  2  0  0  0  0
 51110  1  0  0  0  0
 52 53  1  0  0  0  0
 52111  1  0  0  0  0
 53112  1  0  0  0  0
 54113  1  0  0  0  0
 54114  1  0  0  0  0
 54115  1  0  0  0  0
M  END
> <PUBCHEM_COMPOUND_CID>
6440843

> <PUBCHEM_COMPOUND_CANONICALIZED>
1

> <PUBCHEM_CACTVS_COMPLEXITY>
1320

> <PUBCHEM_CACTVS_HBOND_ACCEPTOR>
15

> <PUBCHEM_CACTVS_HBOND_DONOR>
8

> <PUBCHEM_CACTVS_ROTATABLE_BOND>
6

> <PUBCHEM_CACTVS_SUBSKEYS>
AAADcfB+PAAAAAAAAAAAAAAAAAAAAAAAAAAkSAAAAAAAAAAAAAAAHgAQCAAADTzxgAcCCABABgCIAKDSCAAAAAAgAAAICIEAAAgbFBYAoQAiUAAH8AAPoAPI7uzuAAAAAAAAAAAAAAAAAAAAAAAAAAAAAA==

> <PUBCHEM_IUPAC_OPENEYE_NAME>
(1S,3R,4E,6E,8E,10E,13R,16S,17R,23S,25R,27S,28R)-3-[(2R,3S,4S,5S,6R)-4-amino-3,5-dihydroxy-6-methyl-tetrahydropyran-2-yl]oxy-16-ethyl-17,23,25,27-tetrahydroxy-15,19-dioxo-13-propyl-14,29-dioxabicyclo[23.3.1]nonacosa-4,6,8,10-tetraene-28-carboxylic acid

> <PUBCHEM_IUPAC_CAS_NAME>
(1S,3R,4E,6E,8E,10E,13R,16S,17R,23S,25R,27S,28R)-3-[[(2R,3S,4S,5S,6R)-4-amino-3,5-dihydroxy-6-methyl-2-oxanyl]oxy]-16-ethyl-17,23,25,27-tetrahydroxy-15,19-dioxo-13-propyl-14,29-dioxabicyclo[23.3.1]nonacosa-4,6,8,10-tetraene-28-carboxylic acid

> <PUBCHEM_IUPAC_NAME>
(1S,3R,4E,6E,8E,10E,13R,16S,17R,23S,25R,27S,28R)-3-[(2R,3S,4S,5S,6R)-4-amino-3,5-dihydroxy-6-methyloxan-2-yl]oxy-16-ethyl-17,23,25,27-tetrahydroxy-15,19-dioxo-13-propyl-14,29-dioxabicyclo[23.3.1]nonacosa-4,6,8,10-tetraene-28-carboxylic acid

> <PUBCHEM_IUPAC_SYSTEMATIC_NAME>
(1S,3R,4E,6E,8E,10E,13R,16S,17R,23S,25R,27S,28R)-3-[(2R,3S,4S,5S,6R)-4-azanyl-6-methyl-3,5-bis(oxidanyl)oxan-2-yl]oxy-16-ethyl-17,23,25,27-tetrakis(oxidanyl)-15,19-bis(oxidanylidene)-13-propyl-14,29-dioxabicyclo[23.3.1]nonacosa-4,6,8,10-tetraene-28-carboxylic acid

> <PUBCHEM_IUPAC_TRADITIONAL_NAME>
(1S,3R,4E,6E,8E,10E,13R,16S,17R,23S,25R,27S,28R)-3-[(2R,3S,4S,5S,6R)-4-amino-3,5-dihydroxy-6-methyl-tetrahydropyran-2-yl]oxy-16-ethyl-17,23,25,27-tetrahydroxy-15,19-diketo-13-propyl-14,29-dioxabicyclo[23.3.1]nonacosa-4,6,8,10-tetraene-28-carboxylic acid

> <PUBCHEM_IUPAC_INCHI>
InChI=1S/C39H61NO14/c1-4-14-26-17-11-9-7-6-8-10-12-18-27(53-38-35(46)33(40)34(45)23(3)51-38)20-31-32(36(47)48)30(44)22-39(50,54-31)21-25(42)16-13-15-24(41)19-29(43)28(5-2)37(49)52-26/h6-12,18,23,25-35,38,42-46,50H,4-5,13-17,19-22,40H2,1-3H3,(H,47,48)/b7-6+,10-8+,11-9+,18-12+/t23-,25+,26-,27+,28+,29-,30+,31+,32-,33+,34-,35+,38+,39-/m1/s1

> <PUBCHEM_IUPAC_INCHIKEY>
AWGBZRVEGDNLDZ-JCUCCFEFSA-N

> <PUBCHEM_XLOGP3_AA>
-0.2

> <PUBCHEM_EXACT_MASS>
767.409206

> <PUBCHEM_MOLECULAR_FORMULA>
C39H61NO14

> <PUBCHEM_MOLECULAR_WEIGHT>
767.89994

> <PUBCHEM_OPENEYE_CAN_SMILES>
CCCC1CC=CC=CC=CC=CC(CC2C(C(CC(O2)(CC(CCCC(=O)CC(C(C(=O)O1)CC)O)O)O)O)C(=O)O)OC3C(C(C(C(O3)C)O)N)O

> <PUBCHEM_OPENEYE_ISO_SMILES>
CCC[C@@H]1C/C=C/C=C/C=C/C=C/[C@@H](C[C@H]2[C@@H]([C@H](C[C@](O2)(C[C@H](CCCC(=O)C[C@H]([C@@H](C(=O)O1)CC)O)O)O)O)C(=O)O)O[C@H]3[C@H]([C@H]([C@@H]([C@H](O3)C)O)N)O

> <PUBCHEM_CACTVS_TPSA>
256

> <PUBCHEM_MONOISOTOPIC_WEIGHT>
767.409206

> <PUBCHEM_TOTAL_CHARGE>
0

> <PUBCHEM_HEAVY_ATOM_COUNT>
54

> <PUBCHEM_ATOM_DEF_STEREO_COUNT>
14

> <PUBCHEM_ATOM_UDEF_STEREO_COUNT>
0

> <PUBCHEM_BOND_DEF_STEREO_COUNT>
4

> <PUBCHEM_BOND_UDEF_STEREO_COUNT>
0

> <PUBCHEM_ISOTOPIC_ATOM_COUNT>
0

> <PUBCHEM_COMPONENT_COUNT>
1

> <PUBCHEM_CACTVS_TAUTO_COUNT>
6

> <PUBCHEM_COORDINATE_TYPE>
1
5
255

> <PUBCHEM_BONDANNOTATIONS>
30  10  5
39  12  5
29  15  6
16  55  5
18  25  5
17  2  5
19  3  6
31  34  6
23  4  5
26  4  6
41  42  5
46  47  6
24  6  6
27  9  6

$$$$

