5281297
  -OEChem-07051212562D

 54 56  0     0  0  0  0  0  0999 V2000
    6.0812    3.8358    0.0000 O   0  0  0  0  0  0  0  0  0  0  0  0
    9.6648    1.2990    0.0000 O   0  0  0  0  0  0  0  0  0  0  0  0
    9.6648    4.7631    0.0000 O   0  0  0  0  0  0  0  0  0  0  0  0
    2.5369    4.0311    0.0000 O   0  0  0  0  0  0  0  0  0  0  0  0
    8.1648    2.1651    0.0000 C   0  0  0  0  0  0  0  0  0  0  0  0
    7.6648    1.2990    0.0000 C   0  0  0  0  0  0  0  0  0  0  0  0
    7.6648    3.0311    0.0000 C   0  0  0  0  0  0  0  0  0  0  0  0
    7.6648   -0.4330    0.0000 C   0  0  0  0  0  0  0  0  0  0  0  0
    8.1648   -1.2990    0.0000 C   0  0  0  0  0  0  0  0  0  0  0  0
    6.6648    3.0311    0.0000 C   0  0  0  0  0  0  0  0  0  0  0  0
    8.1648    0.4330    0.0000 C   0  0  0  0  0  0  0  0  0  0  0  0
    7.6648   -2.1651    0.0000 C   0  0  0  0  0  0  0  0  0  0  0  0
    9.1648    2.1651    0.0000 C   0  0  0  0  0  0  0  0  0  0  0  0
    5.1350    2.5311    0.0000 C   0  0  0  0  0  0  0  0  0  0  0  0
    8.1648    3.8971    0.0000 C   0  0  0  0  0  0  0  0  0  0  0  0
    6.0812    2.2264    0.0000 C   0  0  0  0  0  0  0  0  0  0  0  0
    5.1350    3.5311    0.0000 C   0  0  0  0  0  0  0  0  0  0  0  0
    9.6648    3.0311    0.0000 C   0  0  0  0  0  0  0  0  0  0  0  0
    9.1648    3.8971    0.0000 C   0  0  0  0  0  0  0  0  0  0  0  0
    6.6648   -0.4330    0.0000 C   0  0  0  0  0  0  0  0  0  0  0  0
    8.1648   -3.0311    0.0000 C   0  0  0  0  0  0  0  0  0  0  0  0
    4.2690    2.0311    0.0000 C   0  0  0  0  0  0  0  0  0  0  0  0
    4.2690    4.0311    0.0000 C   0  0  0  0  0  0  0  0  0  0  0  0
    7.6648   -3.8971    0.0000 C   0  0  0  0  0  0  0  0  0  0  0  0
    3.4030    3.5311    0.0000 C   0  0  0  0  0  0  0  0  0  0  0  0
    3.4030    2.5311    0.0000 C   0  0  0  0  0  0  0  0  0  0  0  0
    8.1648   -4.7631    0.0000 C   0  0  0  0  0  0  0  0  0  0  0  0
    6.6648   -3.8971    0.0000 C   0  0  0  0  0  0  0  0  0  0  0  0
    7.1899    1.6976    0.0000 H   0  0  0  0  0  0  0  0  0  0  0  0
    7.1899    0.9005    0.0000 H   0  0  0  0  0  0  0  0  0  0  0  0
    8.6398   -1.6976    0.0000 H   0  0  0  0  0  0  0  0  0  0  0  0
    8.6398   -0.9005    0.0000 H   0  0  0  0  0  0  0  0  0  0  0  0
    8.7848    0.4330    0.0000 H   0  0  0  0  0  0  0  0  0  0  0  0
    7.1899   -1.7665    0.0000 H   0  0  0  0  0  0  0  0  0  0  0  0
    7.1899   -2.5636    0.0000 H   0  0  0  0  0  0  0  0  0  0  0  0
    7.8548    4.4340    0.0000 H   0  0  0  0  0  0  0  0  0  0  0  0
    6.2738    1.6370    0.0000 H   0  0  0  0  0  0  0  0  0  0  0  0
   10.2848    3.0311    0.0000 H   0  0  0  0  0  0  0  0  0  0  0  0
    6.6648    0.1870    0.0000 H   0  0  0  0  0  0  0  0  0  0  0  0
    6.0448   -0.4330    0.0000 H   0  0  0  0  0  0  0  0  0  0  0  0
    6.6648   -1.0530    0.0000 H   0  0  0  0  0  0  0  0  0  0  0  0
    8.7848   -3.0311    0.0000 H   0  0  0  0  0  0  0  0  0  0  0  0
    4.2690    1.4111    0.0000 H   0  0  0  0  0  0  0  0  0  0  0  0
    4.2690    4.6511    0.0000 H   0  0  0  0  0  0  0  0  0  0  0  0
    2.8660    2.2211    0.0000 H   0  0  0  0  0  0  0  0  0  0  0  0
   10.2848    1.2990    0.0000 H   0  0  0  0  0  0  0  0  0  0  0  0
    6.6648   -3.2771    0.0000 H   0  0  0  0  0  0  0  0  0  0  0  0
    6.0448   -3.8971    0.0000 H   0  0  0  0  0  0  0  0  0  0  0  0
    6.6648   -4.5171    0.0000 H   0  0  0  0  0  0  0  0  0  0  0  0
    7.6279   -5.0731    0.0000 H   0  0  0  0  0  0  0  0  0  0  0  0
    8.4748   -5.3001    0.0000 H   0  0  0  0  0  0  0  0  0  0  0  0
    8.7018   -4.4531    0.0000 H   0  0  0  0  0  0  0  0  0  0  0  0
   10.2848    4.7631    0.0000 H   0  0  0  0  0  0  0  0  0  0  0  0
    2.0000    3.7211    0.0000 H   0  0  0  0  0  0  0  0  0  0  0  0
  1 10  1  0  0  0  0
  1 17  1  0  0  0  0
  2 13  1  0  0  0  0
  2 46  1  0  0  0  0
  3 19  1  0  0  0  0
  3 53  1  0  0  0  0
  4 25  1  0  0  0  0
  4 54  1  0  0  0  0
  5  6  1  0  0  0  0
  5  7  1  0  0  0  0
  5 13  2  0  0  0  0
  6 11  1  0  0  0  0
  6 29  1  0  0  0  0
  6 30  1  0  0  0  0
  7 10  1  0  0  0  0
  7 15  2  0  0  0  0
  8  9  1  0  0  0  0
  8 11  2  0  0  0  0
  8 20  1  0  0  0  0
  9 12  1  0  0  0  0
  9 31  1  0  0  0  0
  9 32  1  0  0  0  0
 10 16  2  0  0  0  0
 11 33  1  0  0  0  0
 12 21  1  0  0  0  0
 12 34  1  0  0  0  0
 12 35  1  0  0  0  0
 13 18  1  0  0  0  0
 14 16  1  0  0  0  0
 14 17  2  0  0  0  0
 14 22  1  0  0  0  0
 15 19  1  0  0  0  0
 15 36  1  0  0  0  0
 16 37  1  0  0  0  0
 17 23  1  0  0  0  0
 18 19  2  0  0  0  0
 18 38  1  0  0  0  0
 20 39  1  0  0  0  0
 20 40  1  0  0  0  0
 20 41  1  0  0  0  0
 21 24  2  0  0  0  0
 21 42  1  0  0  0  0
 22 26  2  0  0  0  0
 22 43  1  0  0  0  0
 23 25  2  0  0  0  0
 23 44  1  0  0  0  0
 24 27  1  0  0  0  0
 24 28  1  0  0  0  0
 25 26  1  0  0  0  0
 26 45  1  0  0  0  0
 27 50  1  0  0  0  0
 27 51  1  0  0  0  0
 27 52  1  0  0  0  0
 28 47  1  0  0  0  0
 28 48  1  0  0  0  0
 28 49  1  0  0  0  0
M  END
> <PUBCHEM_COMPOUND_CID>
5281297

> <PUBCHEM_COMPOUND_CANONICALIZED>
1

> <PUBCHEM_CACTVS_COMPLEXITY>
565

> <PUBCHEM_CACTVS_HBOND_ACCEPTOR>
4

> <PUBCHEM_CACTVS_HBOND_DONOR>
3

> <PUBCHEM_CACTVS_ROTATABLE_BOND>
6

> <PUBCHEM_CACTVS_SUBSKEYS>
AAADceB4OAAAAAAAAAAAAAAAAAAAASAAAAAwYAAAAAAAAEgB9AAAGgAACAAADASAmAAyBsAABkCIAqBSAAACCAAkIAAIiAEGCMgMJzaGNRqCeWCl4BUIuYfK7PzOoAABCAAYAABAAAIQADAAAAAAAAAAAA==

> <PUBCHEM_IUPAC_OPENEYE_NAME>
4-[(2E)-3,7-dimethylocta-2,6-dienyl]-5-(6-hydroxybenzofuran-2-yl)benzene-1,3-diol

> <PUBCHEM_IUPAC_CAS_NAME>
4-[(2E)-3,7-dimethylocta-2,6-dienyl]-5-(6-hydroxy-2-benzofuranyl)benzene-1,3-diol

> <PUBCHEM_IUPAC_NAME>
4-[(2E)-3,7-dimethylocta-2,6-dienyl]-5-(6-hydroxy-1-benzofuran-2-yl)benzene-1,3-diol

> <PUBCHEM_IUPAC_SYSTEMATIC_NAME>
4-[(2E)-3,7-dimethylocta-2,6-dienyl]-5-(6-oxidanyl-1-benzofuran-2-yl)benzene-1,3-diol

> <PUBCHEM_IUPAC_TRADITIONAL_NAME>
4-[(2E)-3,7-dimethylocta-2,6-dienyl]-5-(6-hydroxybenzofuran-2-yl)resorcinol

> <PUBCHEM_IUPAC_INCHI>
InChI=1S/C24H26O4/c1-15(2)5-4-6-16(3)7-10-20-21(12-19(26)13-22(20)27)24-11-17-8-9-18(25)14-23(17)28-24/h5,7-9,11-14,25-27H,4,6,10H2,1-3H3/b16-7+

> <PUBCHEM_IUPAC_INCHIKEY>
KGOOVUKZICPAIZ-FRKPEAEDSA-N

> <PUBCHEM_XLOGP3_AA>
6.7

> <PUBCHEM_EXACT_MASS>
378.183109

> <PUBCHEM_MOLECULAR_FORMULA>
C24H26O4

> <PUBCHEM_MOLECULAR_WEIGHT>
378.46084

> <PUBCHEM_OPENEYE_CAN_SMILES>
CC(=CCCC(=CCC1=C(C=C(C=C1C2=CC3=C(O2)C=C(C=C3)O)O)O)C)C

> <PUBCHEM_OPENEYE_ISO_SMILES>
CC(=CCC/C(=C/CC1=C(C=C(C=C1C2=CC3=C(O2)C=C(C=C3)O)O)O)/C)C

> <PUBCHEM_CACTVS_TPSA>
73.8

> <PUBCHEM_MONOISOTOPIC_WEIGHT>
378.183109

> <PUBCHEM_TOTAL_CHARGE>
0

> <PUBCHEM_HEAVY_ATOM_COUNT>
28

> <PUBCHEM_ATOM_DEF_STEREO_COUNT>
0

> <PUBCHEM_ATOM_UDEF_STEREO_COUNT>
0

> <PUBCHEM_BOND_DEF_STEREO_COUNT>
1

> <PUBCHEM_BOND_UDEF_STEREO_COUNT>
0

> <PUBCHEM_ISOTOPIC_ATOM_COUNT>
0

> <PUBCHEM_COMPONENT_COUNT>
1

> <PUBCHEM_CACTVS_TAUTO_COUNT>
44

> <PUBCHEM_COORDINATE_TYPE>
1
5
255

> <PUBCHEM_BONDANNOTATIONS>
1  10  8
1  17  8
10  16  8
13  18  8
14  16  8
14  17  8
14  22  8
15  19  8
17  23  8
18  19  8
22  26  8
23  25  8
25  26  8
5  13  8
5  7  8
7  15  8

$$$$

