17395970
  -OEChem-06241222533D

 55 56  0     1  0  0  0  0  0999 V2000
    3.7079    1.4771    0.4895 S   0  0  0  0  0  0  0  0  0  0  0  0
    2.7637   -4.2516   -0.5268 F   0  0  0  0  0  0  0  0  0  0  0  0
   -1.0356    0.8090   -1.8427 O   0  0  0  0  0  0  0  0  0  0  0  0
    4.0710    1.6262    1.8820 O   0  0  0  0  0  0  0  0  0  0  0  0
    4.5619    1.9823   -0.5634 O   0  0  0  0  0  0  0  0  0  0  0  0
   -5.6077   -0.8377   -0.3047 O   0  0  0  0  0  0  0  0  0  0  0  0
   -5.1169    1.1902    0.6603 O   0  0  0  0  0  0  0  0  0  0  0  0
    2.1224    2.0859    0.2580 N   0  0  0  0  0  0  0  0  0  0  0  0
   -2.4697    1.0164   -0.0202 N   0  0  0  0  0  0  0  0  0  0  0  0
   -0.6936    2.6042   -0.3043 C   0  0  0  0  0  0  0  0  0  0  0  0
    0.4230    3.0181   -1.2646 C   0  0  0  0  0  0  0  0  0  0  0  0
   -0.1717    2.3903    1.1176 C   0  0  0  0  0  0  0  0  0  0  0  0
    1.6550    2.1234   -1.1570 C   0  0  0  0  0  0  0  0  0  0  0  0
    1.0860    1.5255    1.1713 C   0  0  0  0  0  0  0  0  0  0  0  0
   -1.3953    1.3804   -0.8167 C   0  0  0  0  0  0  0  0  0  0  0  0
   -3.3214   -0.1110   -0.3077 C   0  0  1  0  0  0  0  0  0  0  0  0
   -2.8098   -1.4184    0.3437 C   0  0  1  0  0  0  0  0  0  0  0  0
   -1.6172   -1.9895   -0.4537 C   0  0  0  0  0  0  0  0  0  0  0  0
    3.4250   -0.2385    0.1853 C   0  0  0  0  0  0  0  0  0  0  0  0
   -2.4600   -1.2249    1.8258 C   0  0  0  0  0  0  0  0  0  0  0  0
   -4.7712    0.1687    0.0755 C   0  0  0  0  0  0  0  0  0  0  0  0
   -1.1410   -3.3456    0.0494 C   0  0  0  0  0  0  0  0  0  0  0  0
    3.5494   -0.7471   -1.1077 C   0  0  0  0  0  0  0  0  0  0  0  0
    3.0772   -1.0854    1.2376 C   0  0  0  0  0  0  0  0  0  0  0  0
    3.3260   -2.1028   -1.3481 C   0  0  0  0  0  0  0  0  0  0  0  0
    2.8538   -2.4410    0.9971 C   0  0  0  0  0  0  0  0  0  0  0  0
    2.9782   -2.9497   -0.2958 C   0  0  0  0  0  0  0  0  0  0  0  0
   -6.9896   -0.6545    0.0202 C   0  0  0  0  0  0  0  0  0  0  0  0
   -1.4438    3.4065   -0.2867 H   0  0  0  0  0  0  0  0  0  0  0  0
    0.7205    4.0466   -1.0192 H   0  0  0  0  0  0  0  0  0  0  0  0
    0.0699    3.0394   -2.3026 H   0  0  0  0  0  0  0  0  0  0  0  0
    0.0781    3.3763    1.5331 H   0  0  0  0  0  0  0  0  0  0  0  0
   -0.9248    1.9659    1.7890 H   0  0  0  0  0  0  0  0  0  0  0  0
    1.4345    1.1132   -1.5121 H   0  0  0  0  0  0  0  0  0  0  0  0
    2.4338    2.5466   -1.7999 H   0  0  0  0  0  0  0  0  0  0  0  0
    1.4551    1.5150    2.2019 H   0  0  0  0  0  0  0  0  0  0  0  0
    0.8266    0.5030    0.8795 H   0  0  0  0  0  0  0  0  0  0  0  0
   -3.3378   -0.2322   -1.3994 H   0  0  0  0  0  0  0  0  0  0  0  0
   -3.6086   -2.1702    0.2989 H   0  0  0  0  0  0  0  0  0  0  0  0
   -2.7129    1.5893    0.7821 H   0  0  0  0  0  0  0  0  0  0  0  0
   -0.7641   -1.3046   -0.4116 H   0  0  0  0  0  0  0  0  0  0  0  0
   -1.9004   -2.0930   -1.5081 H   0  0  0  0  0  0  0  0  0  0  0  0
   -3.2735   -0.7226    2.3595 H   0  0  0  0  0  0  0  0  0  0  0  0
   -2.3020   -2.1888    2.3199 H   0  0  0  0  0  0  0  0  0  0  0  0
   -1.5486   -0.6318    1.9533 H   0  0  0  0  0  0  0  0  0  0  0  0
   -0.6982   -3.2726    1.0470 H   0  0  0  0  0  0  0  0  0  0  0  0
   -1.9654   -4.0644    0.0847 H   0  0  0  0  0  0  0  0  0  0  0  0
   -0.3732   -3.7446   -0.6216 H   0  0  0  0  0  0  0  0  0  0  0  0
    3.8162   -0.1057   -1.9428 H   0  0  0  0  0  0  0  0  0  0  0  0
    2.9728   -0.7119    2.2523 H   0  0  0  0  0  0  0  0  0  0  0  0
    3.4214   -2.4992   -2.3546 H   0  0  0  0  0  0  0  0  0  0  0  0
    2.5813   -3.1006    1.8156 H   0  0  0  0  0  0  0  0  0  0  0  0
   -7.1169   -0.5801    1.1043 H   0  0  0  0  0  0  0  0  0  0  0  0
   -7.3807    0.2378   -0.4780 H   0  0  0  0  0  0  0  0  0  0  0  0
   -7.5416   -1.5272   -0.3388 H   0  0  0  0  0  0  0  0  0  0  0  0
  1  4  2  0  0  0  0
  1  5  2  0  0  0  0
  1  8  1  0  0  0  0
  1 19  1  0  0  0  0
  2 27  1  0  0  0  0
  3 15  2  0  0  0  0
  6 21  1  0  0  0  0
  6 28  1  0  0  0  0
  7 21  2  0  0  0  0
  8 13  1  0  0  0  0
  8 14  1  0  0  0  0
  9 15  1  0  0  0  0
  9 16  1  0  0  0  0
  9 40  1  0  0  0  0
 10 11  1  0  0  0  0
 10 12  1  0  0  0  0
 10 15  1  0  0  0  0
 10 29  1  0  0  0  0
 11 13  1  0  0  0  0
 11 30  1  0  0  0  0
 11 31  1  0  0  0  0
 12 14  1  0  0  0  0
 12 32  1  0  0  0  0
 12 33  1  0  0  0  0
 13 34  1  0  0  0  0
 13 35  1  0  0  0  0
 14 36  1  0  0  0  0
 14 37  1  0  0  0  0
 16 17  1  0  0  0  0
 16 21  1  0  0  0  0
 16 38  1  0  0  0  0
 17 18  1  0  0  0  0
 17 20  1  0  0  0  0
 17 39  1  0  0  0  0
 18 22  1  0  0  0  0
 18 41  1  0  0  0  0
 18 42  1  0  0  0  0
 19 23  2  0  0  0  0
 19 24  1  0  0  0  0
 20 43  1  0  0  0  0
 20 44  1  0  0  0  0
 20 45  1  0  0  0  0
 22 46  1  0  0  0  0
 22 47  1  0  0  0  0
 22 48  1  0  0  0  0
 23 25  1  0  0  0  0
 23 49  1  0  0  0  0
 24 26  2  0  0  0  0
 24 50  1  0  0  0  0
 25 27  2  0  0  0  0
 25 51  1  0  0  0  0
 26 27  1  0  0  0  0
 26 52  1  0  0  0  0
 28 53  1  0  0  0  0
 28 54  1  0  0  0  0
 28 55  1  0  0  0  0
M  END
> <PUBCHEM_COMPOUND_CID>
17395970

> <PUBCHEM_CONFORMER_RMSD>
1.4

> <PUBCHEM_CONFORMER_DIVERSEORDER>
1
65
68
38
37
58
22
3
49
9
27
51
55
50
33
45
47
59
69
35
60
12
63
53
40
24
32
54
25
72
19
20
31
6
52
4
62
56
39
42
73
10
30
71
36
41
66
48
5
17
29
61
16
7
28
70
15
14
57
18
44
64
46
11
43
13
26
34
67
23
2
21
8

> <PUBCHEM_MMFF94_PARTIAL_CHARGES>
27
1 1.45
10 0.06
13 0.36
14 0.36
15 0.57
16 0.36
19 -0.01
2 -0.19
21 0.66
23 -0.15
24 -0.15
25 -0.15
26 -0.15
27 0.19
28 0.28
3 -0.57
4 -0.65
40 0.37
49 0.15
5 -0.65
50 0.15
51 0.15
52 0.15
6 -0.43
7 -0.57
8 -0.85
9 -0.73

> <PUBCHEM_EFFECTIVE_ROTOR_COUNT>
10.2

> <PUBCHEM_PHARMACOPHORE_FEATURES>
9
1 20 hydrophobe
1 22 hydrophobe
1 3 acceptor
1 4 acceptor
1 5 acceptor
1 7 acceptor
1 9 donor
6 19 23 24 25 26 27 rings
6 8 10 11 12 13 14 rings

> <PUBCHEM_HEAVY_ATOM_COUNT>
28

> <PUBCHEM_ATOM_DEF_STEREO_COUNT>
0

> <PUBCHEM_ATOM_UDEF_STEREO_COUNT>
2

> <PUBCHEM_BOND_DEF_STEREO_COUNT>
0

> <PUBCHEM_BOND_UDEF_STEREO_COUNT>
0

> <PUBCHEM_ISOTOPIC_ATOM_COUNT>
0

> <PUBCHEM_COMPONENT_COUNT>
1

> <PUBCHEM_CACTVS_TAUTO_COUNT>
2

> <PUBCHEM_CONFORMER_ID>
0109710200000001

> <PUBCHEM_MMFF94_ENERGY>
44.4644

> <PUBCHEM_FEATURE_SELFOVERLAP>
45.687

> <PUBCHEM_SHAPE_FINGERPRINT>
11135609 12 18269847582919130346
12107183 9 17900530487487921009
12156800 1 16245386134371242362
12422481 6 18266200386864562352
12553582 1 18340780272981682684
12596602 18 16588589677971231217
12788726 201 17676476280992178377
13122387 1 18410294735247965894
13140716 1 18048610226530332600
13150687 139 17843660216227183684
13402501 40 18412265021451022082
13533116 47 18186518804689857249
13583140 156 17387134157151180521
1361 2 18410294692588547119
14617045 38 18412539877656191812
14725015 67 18055083304606480851
14863182 85 18412544272041011380
15635459 17 18410855469071673754
15664445 248 17917423207806132828
17093844 170 18411700959359339128
17818456 19 18042113431560335001
1813 80 17489587866071782381
1979834 28 18409453552906833802
19930381 70 18337956813058199499
20764821 26 18340218396865407566
20775530 9 18194689400071174374
21279426 13 18269562800891838085
21285901 2 18130795568015567989
23559900 14 18411975862556052164
345986 75 17676489505253972185
404807 14 17539675212374907639
46194498 28 17560519499951980541
463206 1 18264493875418573687
513532 50 17895184485426932982
6433294 58 18410575119460914046

> <PUBCHEM_SHAPE_MULTIPOLES>
533.49
10.89
4.27
1.43
14.82
2.04
0.17
2.45
0.7
-3.62
-0.58
-0.82
-0.25
0.71

> <PUBCHEM_SHAPE_SELFOVERLAP>
1082.628

> <PUBCHEM_SHAPE_VOLUME>
312.7

> <PUBCHEM_COORDINATE_TYPE>
2
5
10

$$$$

