854323
  -OEChem-06241222473D

 38 42  0     1  0  0  0  0  0999 V2000
   -0.4440    1.3310    0.3782 S   0  0  0  0  0  0  0  0  0  0  0  0
    1.6643   -2.1016    1.3389 O   0  0  0  0  0  0  0  0  0  0  0  0
    1.8867   -0.1548    0.0901 N   0  0  0  0  0  0  0  0  0  0  0  0
   -2.2416   -0.6350   -0.0908 N   0  0  0  0  0  0  0  0  0  0  0  0
   -2.4009   -1.9523   -0.3211 N   0  0  0  0  0  0  0  0  0  0  0  0
    2.1454    2.0614    0.1689 N   0  0  0  0  0  0  0  0  0  0  0  0
    1.2781   -1.4912    0.1118 C   0  0  2  0  0  0  0  0  0  0  0  0
   -0.1911   -1.4196   -0.0264 C   0  0  0  0  0  0  0  0  0  0  0  0
   -0.9433   -0.2829    0.0839 C   0  0  0  0  0  0  0  0  0  0  0  0
    3.2417    0.0759   -0.0531 C   0  0  0  0  0  0  0  0  0  0  0  0
    1.2747    1.0764    0.2088 C   0  0  0  0  0  0  0  0  0  0  0  0
   -1.1488   -2.4250   -0.2809 C   0  0  0  0  0  0  0  0  0  0  0  0
    3.3692    1.4617    0.0042 C   0  0  0  0  0  0  0  0  0  0  0  0
    4.3412   -0.7750   -0.2168 C   0  0  0  0  0  0  0  0  0  0  0  0
   -3.3693    0.1888   -0.0620 C   0  0  0  0  0  0  0  0  0  0  0  0
   -0.9113   -3.8639   -0.4900 C   0  0  0  0  0  0  0  0  0  0  0  0
    4.6437    2.0440   -0.1062 C   0  0  0  0  0  0  0  0  0  0  0  0
    5.6019   -0.1791   -0.3251 C   0  0  0  0  0  0  0  0  0  0  0  0
    5.7527    1.2067   -0.2710 C   0  0  0  0  0  0  0  0  0  0  0  0
   -3.8125    0.7817   -1.2360 C   0  0  0  0  0  0  0  0  0  0  0  0
   -4.0300    0.4014    1.1398 C   0  0  0  0  0  0  0  0  0  0  0  0
   -4.9391    1.6037   -1.2077 C   0  0  0  0  0  0  0  0  0  0  0  0
   -5.1566    1.2232    1.1682 C   0  0  0  0  0  0  0  0  0  0  0  0
   -5.6111    1.8244   -0.0056 C   0  0  0  0  0  0  0  0  0  0  0  0
    1.7132   -2.0555   -0.7203 H   0  0  0  0  0  0  0  0  0  0  0  0
    4.2296   -1.8530   -0.2578 H   0  0  0  0  0  0  0  0  0  0  0  0
   -0.2072   -4.0214   -1.3135 H   0  0  0  0  0  0  0  0  0  0  0  0
   -0.4887   -4.3167    0.4129 H   0  0  0  0  0  0  0  0  0  0  0  0
   -1.8348   -4.3999   -0.7335 H   0  0  0  0  0  0  0  0  0  0  0  0
    1.2773   -1.5886    2.0694 H   0  0  0  0  0  0  0  0  0  0  0  0
    4.7706    3.1212   -0.0651 H   0  0  0  0  0  0  0  0  0  0  0  0
    6.4793   -0.8081   -0.4531 H   0  0  0  0  0  0  0  0  0  0  0  0
    6.7444    1.6430   -0.3576 H   0  0  0  0  0  0  0  0  0  0  0  0
   -3.2976    0.6171   -2.1790 H   0  0  0  0  0  0  0  0  0  0  0  0
   -3.6859   -0.0616    2.0609 H   0  0  0  0  0  0  0  0  0  0  0  0
   -5.2930    2.0718   -2.1216 H   0  0  0  0  0  0  0  0  0  0  0  0
   -5.6801    1.3952    2.1042 H   0  0  0  0  0  0  0  0  0  0  0  0
   -6.4883    2.4645    0.0166 H   0  0  0  0  0  0  0  0  0  0  0  0
  1  9  1  0  0  0  0
  1 11  1  0  0  0  0
  2  7  1  0  0  0  0
  2 30  1  0  0  0  0
  3  7  1  0  0  0  0
  3 10  1  0  0  0  0
  3 11  1  0  0  0  0
  4  5  1  0  0  0  0
  4  9  1  0  0  0  0
  4 15  1  0  0  0  0
  5 12  2  0  0  0  0
  6 11  2  0  0  0  0
  6 13  1  0  0  0  0
  7  8  1  0  0  0  0
  7 25  1  0  0  0  0
  8  9  2  0  0  0  0
  8 12  1  0  0  0  0
 10 13  1  0  0  0  0
 10 14  2  0  0  0  0
 12 16  1  0  0  0  0
 13 17  2  0  0  0  0
 14 18  1  0  0  0  0
 14 26  1  0  0  0  0
 15 20  2  0  0  0  0
 15 21  1  0  0  0  0
 16 27  1  0  0  0  0
 16 28  1  0  0  0  0
 16 29  1  0  0  0  0
 17 19  1  0  0  0  0
 17 31  1  0  0  0  0
 18 19  2  0  0  0  0
 18 32  1  0  0  0  0
 19 33  1  0  0  0  0
 20 22  1  0  0  0  0
 20 34  1  0  0  0  0
 21 23  2  0  0  0  0
 21 35  1  0  0  0  0
 22 24  2  0  0  0  0
 22 36  1  0  0  0  0
 23 24  1  0  0  0  0
 23 37  1  0  0  0  0
 24 38  1  0  0  0  0
M  END
> <PUBCHEM_COMPOUND_CID>
854323

> <PUBCHEM_CONFORMER_RMSD>
0.6

> <PUBCHEM_CONFORMER_DIVERSEORDER>
1
2

> <PUBCHEM_MMFF94_PARTIAL_CHARGES>
34
1 -0.11
10 -0.15
11 0.24
12 0.11
13 0.23
14 -0.15
15 -0.02
16 0.18
17 -0.15
18 -0.15
19 -0.15
2 -0.68
20 -0.15
21 -0.15
22 -0.15
23 -0.15
24 -0.15
26 0.15
3 0.05
30 0.4
31 0.15
32 0.15
33 0.15
34 0.15
35 0.15
36 0.15
37 0.15
38 0.15
4 0.59
5 -0.71
6 -0.57
7 0.72
8 -0.18
9 -0.1

> <PUBCHEM_EFFECTIVE_ROTOR_COUNT>
1.4

> <PUBCHEM_PHARMACOPHORE_FEATURES>
9
1 2 acceptor
1 2 donor
1 5 acceptor
3 3 6 11 cation
5 3 6 10 11 13 rings
5 4 5 8 9 12 rings
6 1 3 7 8 9 11 rings
6 10 13 14 17 18 19 rings
6 15 20 21 22 23 24 rings

> <PUBCHEM_HEAVY_ATOM_COUNT>
24

> <PUBCHEM_ATOM_DEF_STEREO_COUNT>
1

> <PUBCHEM_ATOM_UDEF_STEREO_COUNT>
0

> <PUBCHEM_BOND_DEF_STEREO_COUNT>
0

> <PUBCHEM_BOND_UDEF_STEREO_COUNT>
0

> <PUBCHEM_ISOTOPIC_ATOM_COUNT>
0

> <PUBCHEM_COMPONENT_COUNT>
1

> <PUBCHEM_CACTVS_TAUTO_COUNT>
1

> <PUBCHEM_CONFORMER_ID>
000D093300000001

> <PUBCHEM_MMFF94_ENERGY>
70.7531

> <PUBCHEM_FEATURE_SELFOVERLAP>
45.932

> <PUBCHEM_SHAPE_FINGERPRINT>
10411042 1 17473263176131686623
10835480 77 18188215282813725656
10906281 52 17968640675630764220
11089746 13 17385729088754852808
12107183 9 18339931519146873426
12236239 1 17749108928681077113
12293681 160 17822292413766843081
12390115 104 18336252475672025003
12596602 18 14117512151508866924
12644460 14 18130228271312526826
12788726 201 17895472656057711401
12969540 114 18339372932499974933
13140716 1 18338800001010779264
13583140 156 16702037352429288581
14790565 3 18336256954890931001
14856354 85 16271917190850902218
15099037 51 18408886239314203140
15183329 4 18334011718103323860
15196674 1 18337671923661005678
1601671 61 18342458166301278916
18222031 100 6627752176180541874
19141452 34 18410573951292976844
19489759 90 14562527401329640889
19784866 170 17846499248715500517
19784866 34 18408885174557816135
21033648 144 18261400979417316612
21033648 29 18341063964135806553
21236236 1 18336546019791979487
21279426 13 18408316709776839734
21307412 95 17824237463270303486
21421861 104 17988095482207870570
21756936 100 17240748606855922659
23402539 116 17894631460984981892
23402655 69 18336264553309939604
23558518 356 17838900335061774976
23559900 14 18187364269477309392
25147074 1 18338817657674801283
2838139 119 18411707607515409637
293599 30 18410853273989821132
3004659 81 18413106182917847276
335352 9 18409447007904227846
3459 83 17896031204043920870
34934 24 18410296904422344850
350125 39 18340486798003652584
3680242 22 18342746251760075466
38695281 34 18335983150846961327
4058900 60 18199460150980045673
4214541 1 18336827481429659302
474 4 18262520411577515339
5104073 3 18340773629036275066
5385378 56 18265043816364286219
6328613 192 18337947905723425612
633830 44 18130510730480332350
7226269 152 18113334215270463944
7495541 125 12823295659365354276
9996256 80 18337388249788023283

> <PUBCHEM_SHAPE_MULTIPOLES>
471.96
12.56
2.98
0.94
1.52
2.66
-0.03
-8.86
0.98
-0.57
0.24
-0.98
-0.09
-0.17

> <PUBCHEM_SHAPE_SELFOVERLAP>
1059.845

> <PUBCHEM_SHAPE_VOLUME>
252.4

> <PUBCHEM_COORDINATE_TYPE>
2
5
10

$$$$

