255713
  -OEChem-07051213063D

 58 62  0     1  0  0  0  0  0999 V2000
   -2.8593   -0.1404    0.1630 O   0  0  0  0  0  0  0  0  0  0  0  0
    7.8310   -0.4582    0.3078 O   0  0  0  0  0  0  0  0  0  0  0  0
   -3.9804   -1.9581    1.0227 O   0  0  0  0  0  0  0  0  0  0  0  0
    1.9901   -0.5306   -0.5957 C   0  0  1  0  0  0  0  0  0  0  0  0
    0.6565   -1.0596   -0.1030 C   0  0  1  0  0  0  0  0  0  0  0  0
   -0.4139    0.0623   -0.0921 C   0  0  2  0  0  0  0  0  0  0  0  0
    2.4572    0.5587    0.3960 C   0  0  1  0  0  0  0  0  0  0  0  0
    3.9041    0.8366   -0.0515 C   0  0  2  0  0  0  0  0  0  0  0  0
    0.0449    1.1890    0.8608 C   0  0  0  0  0  0  0  0  0  0  0  0
    1.4575    1.7158    0.5013 C   0  0  0  0  0  0  0  0  0  0  0  0
    3.1739   -1.4946   -0.6374 C   0  0  0  0  0  0  0  0  0  0  0  0
   -1.6153   -0.7718    0.3968 C   0  0  2  0  0  0  0  0  0  0  0  0
   -0.0229   -2.2056   -0.8366 C   0  0  0  0  0  0  0  0  0  0  0  0
    4.3528   -0.5893   -0.3438 C   0  0  0  0  0  0  0  0  0  0  0  0
   -1.4927   -2.1023   -0.3812 C   0  0  0  0  0  0  0  0  0  0  0  0
    4.7715    1.4215    1.0747 C   0  0  0  0  0  0  0  0  0  0  0  0
   -0.7224    0.6801   -1.4811 C   0  0  0  0  0  0  0  0  0  0  0  0
    3.9948    1.7138   -1.3145 C   0  0  0  0  0  0  0  0  0  0  0  0
    5.6060   -1.0287   -0.1781 C   0  0  0  0  0  0  0  0  0  0  0  0
    6.2622    1.3002    0.7581 C   0  0  0  0  0  0  0  0  0  0  0  0
    6.6555   -0.0941    0.3024 C   0  0  0  0  0  0  0  0  0  0  0  0
   -3.9722   -0.8440    0.5227 C   0  0  0  0  0  0  0  0  0  0  0  0
   -5.2075   -0.0757    0.2255 C   0  0  0  0  0  0  0  0  0  0  0  0
   -6.3203   -0.2698    1.0176 C   0  0  0  0  0  0  0  0  0  0  0  0
   -5.2039    0.8088   -0.8336 C   0  0  0  0  0  0  0  0  0  0  0  0
   -7.4806    0.4523    0.7384 C   0  0  0  0  0  0  0  0  0  0  0  0
   -6.3641    1.5311   -1.1126 C   0  0  0  0  0  0  0  0  0  0  0  0
   -7.5025    1.3529   -0.3266 C   0  0  0  0  0  0  0  0  0  0  0  0
    1.8645   -0.1185   -1.6033 H   0  0  0  0  0  0  0  0  0  0  0  0
    0.8073   -1.4089    0.9322 H   0  0  0  0  0  0  0  0  0  0  0  0
    2.4976    0.1057    1.4015 H   0  0  0  0  0  0  0  0  0  0  0  0
    0.0689    0.8129    1.8919 H   0  0  0  0  0  0  0  0  0  0  0  0
   -0.6711    2.0194    0.8517 H   0  0  0  0  0  0  0  0  0  0  0  0
    1.4112    2.2772   -0.4373 H   0  0  0  0  0  0  0  0  0  0  0  0
    1.7853    2.4216    1.2731 H   0  0  0  0  0  0  0  0  0  0  0  0
    3.2591   -1.9708   -1.6189 H   0  0  0  0  0  0  0  0  0  0  0  0
    3.0864   -2.2672    0.1345 H   0  0  0  0  0  0  0  0  0  0  0  0
   -1.5147   -0.9647    1.4743 H   0  0  0  0  0  0  0  0  0  0  0  0
    0.4128   -3.1755   -0.5762 H   0  0  0  0  0  0  0  0  0  0  0  0
    0.0518   -2.0900   -1.9235 H   0  0  0  0  0  0  0  0  0  0  0  0
   -2.1642   -2.1485   -1.2459 H   0  0  0  0  0  0  0  0  0  0  0  0
   -1.7394   -2.9496    0.2684 H   0  0  0  0  0  0  0  0  0  0  0  0
    4.5761    0.8875    2.0150 H   0  0  0  0  0  0  0  0  0  0  0  0
    4.5143    2.4715    1.2582 H   0  0  0  0  0  0  0  0  0  0  0  0
    0.1484    1.1626   -1.9325 H   0  0  0  0  0  0  0  0  0  0  0  0
   -1.0850   -0.0616   -2.1995 H   0  0  0  0  0  0  0  0  0  0  0  0
   -1.4993    1.4491   -1.3959 H   0  0  0  0  0  0  0  0  0  0  0  0
    5.0128    1.7415   -1.7183 H   0  0  0  0  0  0  0  0  0  0  0  0
    3.3533    1.3565   -2.1258 H   0  0  0  0  0  0  0  0  0  0  0  0
    3.7016    2.7461   -1.0941 H   0  0  0  0  0  0  0  0  0  0  0  0
    5.8817   -2.0631   -0.3464 H   0  0  0  0  0  0  0  0  0  0  0  0
    6.8358    1.5383    1.6610 H   0  0  0  0  0  0  0  0  0  0  0  0
    6.5553    2.0082   -0.0238 H   0  0  0  0  0  0  0  0  0  0  0  0
   -6.3145   -0.9653    1.8515 H   0  0  0  0  0  0  0  0  0  0  0  0
   -4.3352    0.9555   -1.4685 H   0  0  0  0  0  0  0  0  0  0  0  0
   -8.3670    0.3142    1.3508 H   0  0  0  0  0  0  0  0  0  0  0  0
   -6.3823    2.2301   -1.9437 H   0  0  0  0  0  0  0  0  0  0  0  0
   -8.4061    1.9147   -0.5442 H   0  0  0  0  0  0  0  0  0  0  0  0
  1 12  1  0  0  0  0
  1 22  1  0  0  0  0
  2 21  2  0  0  0  0
  3 22  2  0  0  0  0
  4  5  1  0  0  0  0
  4  7  1  0  0  0  0
  4 11  1  0  0  0  0
  4 29  1  0  0  0  0
  5  6  1  0  0  0  0
  5 13  1  0  0  0  0
  5 30  1  0  0  0  0
  6  9  1  0  0  0  0
  6 12  1  0  0  0  0
  6 17  1  0  0  0  0
  7  8  1  0  0  0  0
  7 10  1  0  0  0  0
  7 31  1  0  0  0  0
  8 14  1  0  0  0  0
  8 16  1  0  0  0  0
  8 18  1  0  0  0  0
  9 10  1  0  0  0  0
  9 32  1  0  0  0  0
  9 33  1  0  0  0  0
 10 34  1  0  0  0  0
 10 35  1  0  0  0  0
 11 14  1  0  0  0  0
 11 36  1  0  0  0  0
 11 37  1  0  0  0  0
 12 15  1  0  0  0  0
 12 38  1  0  0  0  0
 13 15  1  0  0  0  0
 13 39  1  0  0  0  0
 13 40  1  0  0  0  0
 14 19  2  0  0  0  0
 15 41  1  0  0  0  0
 15 42  1  0  0  0  0
 16 20  1  0  0  0  0
 16 43  1  0  0  0  0
 16 44  1  0  0  0  0
 17 45  1  0  0  0  0
 17 46  1  0  0  0  0
 17 47  1  0  0  0  0
 18 48  1  0  0  0  0
 18 49  1  0  0  0  0
 18 50  1  0  0  0  0
 19 21  1  0  0  0  0
 19 51  1  0  0  0  0
 20 21  1  0  0  0  0
 20 52  1  0  0  0  0
 20 53  1  0  0  0  0
 22 23  1  0  0  0  0
 23 24  2  0  0  0  0
 23 25  1  0  0  0  0
 24 26  1  0  0  0  0
 24 54  1  0  0  0  0
 25 27  2  0  0  0  0
 25 55  1  0  0  0  0
 26 28  2  0  0  0  0
 26 56  1  0  0  0  0
 27 28  1  0  0  0  0
 27 57  1  0  0  0  0
 28 58  1  0  0  0  0
M  END
> <PUBCHEM_COMPOUND_CID>
255713

> <PUBCHEM_CONFORMER_RMSD>
0.8

> <PUBCHEM_CONFORMER_DIVERSEORDER>
1
2
3
4

> <PUBCHEM_MMFF94_PARTIAL_CHARGES>
23
1 -0.43
11 0.14
12 0.28
14 -0.28
19 -0.14
2 -0.57
20 0.06
21 0.49
22 0.63
23 0.09
24 -0.15
25 -0.15
26 -0.15
27 -0.15
28 -0.15
3 -0.57
51 0.15
54 0.15
55 0.15
56 0.15
57 0.15
58 0.15
8 0.14

> <PUBCHEM_EFFECTIVE_ROTOR_COUNT>
4.6

> <PUBCHEM_PHARMACOPHORE_FEATURES>
7
1 2 acceptor
1 3 acceptor
5 4 7 8 11 14 rings
5 5 6 12 13 15 rings
6 23 24 25 26 27 28 rings
6 4 5 6 7 9 10 rings
6 8 14 16 19 20 21 rings

> <PUBCHEM_HEAVY_ATOM_COUNT>
28

> <PUBCHEM_ATOM_DEF_STEREO_COUNT>
6

> <PUBCHEM_ATOM_UDEF_STEREO_COUNT>
0

> <PUBCHEM_BOND_DEF_STEREO_COUNT>
0

> <PUBCHEM_BOND_UDEF_STEREO_COUNT>
0

> <PUBCHEM_ISOTOPIC_ATOM_COUNT>
0

> <PUBCHEM_COMPONENT_COUNT>
1

> <PUBCHEM_CACTVS_TAUTO_COUNT>
5

> <PUBCHEM_CONFORMER_ID>
0003E6E100000001

> <PUBCHEM_MMFF94_ENERGY>
98.2299

> <PUBCHEM_FEATURE_SELFOVERLAP>
35.721

> <PUBCHEM_SHAPE_FINGERPRINT>
10 15 17917705773967779921
10299344 5 14189573040029030857
10674148 151 17775569737234761320
10835480 77 18261960639488911040
11089746 13 16805324375067174322
11315181 36 9079116666486200903
11421498 54 14764079990050519013
11456790 92 18259984903034763962
11719270 70 18334858333620082230
12166972 35 12031783669336574255
12236239 1 18130224866057360794
12838862 33 18187661210308986314
13402501 40 18412263956800364061
13533116 47 17313382374867303710
14117953 113 18334008407131769676
14251764 18 18412825759628063695
14856354 85 15338830959518832099
15131766 46 17700122198425143180
15142383 8 18272655653785322300
15183329 4 17022905657694310213
15238133 3 18201714016709917030
15419008 47 18272375294994668397
15461852 350 17603868853756591191
15840311 113 17418088781122739973
15849732 13 18412826884498064972
16087824 20 18336263539339656705
18681886 176 4750861642669538403
19611394 137 17702084904300591313
19841028 212 17703234048539506330
20157964 124 18040432217814046662
20511986 3 17895205359274231838
21033648 29 18337961091056116729
21150785 3 4678816155405712435
21236236 1 18114459071885479449
21267235 1 18335133220802262838
21298829 104 17895187840208107601
21774942 28 17096076021729197049
21792934 111 18260840332161737704
21859007 373 18271815673603335164
23035841 295 14836404726885339121
23559900 14 17967820396684608305
255183 451 16952235759469622582
2838139 119 18333456434893411669
3004659 81 18343863312534512656
3009799 131 18187085070041598081
3178227 256 18409721864104116393
335352 9 18260547810391900452
350125 39 18411981356462892748
3633792 109 17676763274932869626
4017518 198 16732976523562322054
4073 2 17845929628746616274
4325135 7 7565340933809511585
4340502 62 17489588973946342018
5385378 56 18338228379930409075
6009941 240 18201998815669847619
6086070 43 17023192565261578538
999808 66 8790879714544581725

> <PUBCHEM_SHAPE_MULTIPOLES>
558.62
20.49
1.94
1.11
11.71
0.39
-0.14
-5.97
2.51
-0.15
-0.18
0.4
-0.23
1.29

> <PUBCHEM_SHAPE_SELFOVERLAP>
1224.826

> <PUBCHEM_SHAPE_VOLUME>
302.3

> <PUBCHEM_COORDINATE_TYPE>
2
5
10

$$$$

