13688
  -OEChem-06241222403D

 32 33  0     0  0  0  0  0  0999 V2000
   -3.7945   -0.8449    0.3917 O   0  0  0  0  0  0  0  0  0  0  0  0
    1.9120   -0.3407    0.1368 N   0  0  0  0  0  0  0  0  0  0  0  0
   -2.5113   -1.0021    0.9014 N   0  0  0  0  0  0  0  0  0  0  0  0
    2.2962    1.0778    0.1517 C   0  0  0  0  0  0  0  0  0  0  0  0
    2.7654   -1.1127   -0.7774 C   0  0  0  0  0  0  0  0  0  0  0  0
    3.7531    1.2504    0.5842 C   0  0  0  0  0  0  0  0  0  0  0  0
    4.2375   -1.0116   -0.3753 C   0  0  0  0  0  0  0  0  0  0  0  0
    4.6938    0.4412   -0.3011 C   0  0  0  0  0  0  0  0  0  0  0  0
    0.5041   -0.4856   -0.2327 C   0  0  0  0  0  0  0  0  0  0  0  0
   -0.4034    0.2034    0.7870 C   0  0  0  0  0  0  0  0  0  0  0  0
   -1.8595    0.0422    0.4296 C   0  0  0  0  0  0  0  0  0  0  0  0
   -2.6143    0.8904   -0.3613 C   0  0  0  0  0  0  0  0  0  0  0  0
   -3.8433    0.2855   -0.3585 C   0  0  0  0  0  0  0  0  0  0  0  0
   -5.1357    0.6067   -0.9760 C   0  0  0  0  0  0  0  0  0  0  0  0
    1.7160    1.6525    0.8779 H   0  0  0  0  0  0  0  0  0  0  0  0
    2.1453    1.5374   -0.8339 H   0  0  0  0  0  0  0  0  0  0  0  0
    2.6423   -0.7671   -1.8123 H   0  0  0  0  0  0  0  0  0  0  0  0
    2.4778   -2.1708   -0.7508 H   0  0  0  0  0  0  0  0  0  0  0  0
    3.8681    0.9301    1.6278 H   0  0  0  0  0  0  0  0  0  0  0  0
    4.0292    2.3103    0.5431 H   0  0  0  0  0  0  0  0  0  0  0  0
    4.8565   -1.5569   -1.0967 H   0  0  0  0  0  0  0  0  0  0  0  0
    4.3856   -1.4914    0.6005 H   0  0  0  0  0  0  0  0  0  0  0  0
    4.7087    0.8722   -1.3097 H   0  0  0  0  0  0  0  0  0  0  0  0
    5.7165    0.4952    0.0878 H   0  0  0  0  0  0  0  0  0  0  0  0
    0.3165   -0.0863   -1.2389 H   0  0  0  0  0  0  0  0  0  0  0  0
    0.2433   -1.5519   -0.2641 H   0  0  0  0  0  0  0  0  0  0  0  0
   -0.2275    1.2826    0.8399 H   0  0  0  0  0  0  0  0  0  0  0  0
   -0.2235   -0.1997    1.7922 H   0  0  0  0  0  0  0  0  0  0  0  0
   -2.3310    1.8026   -0.8647 H   0  0  0  0  0  0  0  0  0  0  0  0
   -5.0762    1.5309   -1.5593 H   0  0  0  0  0  0  0  0  0  0  0  0
   -5.4520   -0.1976   -1.6474 H   0  0  0  0  0  0  0  0  0  0  0  0
   -5.9061    0.7386   -0.2101 H   0  0  0  0  0  0  0  0  0  0  0  0
  1  3  1  0  0  0  0
  1 13  1  0  0  0  0
  2  4  1  0  0  0  0
  2  5  1  0  0  0  0
  2  9  1  0  0  0  0
  3 11  2  0  0  0  0
  4  6  1  0  0  0  0
  4 15  1  0  0  0  0
  4 16  1  0  0  0  0
  5  7  1  0  0  0  0
  5 17  1  0  0  0  0
  5 18  1  0  0  0  0
  6  8  1  0  0  0  0
  6 19  1  0  0  0  0
  6 20  1  0  0  0  0
  7  8  1  0  0  0  0
  7 21  1  0  0  0  0
  7 22  1  0  0  0  0
  8 23  1  0  0  0  0
  8 24  1  0  0  0  0
  9 10  1  0  0  0  0
  9 25  1  0  0  0  0
  9 26  1  0  0  0  0
 10 11  1  0  0  0  0
 10 27  1  0  0  0  0
 10 28  1  0  0  0  0
 11 12  1  0  0  0  0
 12 13  2  0  0  0  0
 12 29  1  0  0  0  0
 13 14  1  0  0  0  0
 14 30  1  0  0  0  0
 14 31  1  0  0  0  0
 14 32  1  0  0  0  0
M  END
> <PUBCHEM_COMPOUND_CID>
13688

> <PUBCHEM_CONFORMER_RMSD>
0.6

> <PUBCHEM_CONFORMER_DIVERSEORDER>
1
5
10
16
8
4
20
34
3
29
14
30
27
2
21
26
7
23
11
31
36
15
6
24
19
9
28
18
17
13
12
33
25
22
35
32

> <PUBCHEM_MMFF94_PARTIAL_CHARGES>
12
1 -0.02
10 0.18
11 0.11
12 -0.15
13 -0.04
14 0.18
2 -0.81
29 0.15
3 -0.41
4 0.27
5 0.27
9 0.27

> <PUBCHEM_EFFECTIVE_ROTOR_COUNT>
4.2

> <PUBCHEM_PHARMACOPHORE_FEATURES>
4
1 2 cation
1 3 acceptor
5 1 3 11 12 13 rings
6 2 4 5 6 7 8 rings

> <PUBCHEM_HEAVY_ATOM_COUNT>
14

> <PUBCHEM_ATOM_DEF_STEREO_COUNT>
0

> <PUBCHEM_ATOM_UDEF_STEREO_COUNT>
0

> <PUBCHEM_BOND_DEF_STEREO_COUNT>
0

> <PUBCHEM_BOND_UDEF_STEREO_COUNT>
0

> <PUBCHEM_ISOTOPIC_ATOM_COUNT>
0

> <PUBCHEM_COMPONENT_COUNT>
1

> <PUBCHEM_CACTVS_TAUTO_COUNT>
1

> <PUBCHEM_CONFORMER_ID>
0000357800000001

> <PUBCHEM_MMFF94_ENERGY>
5.9976

> <PUBCHEM_FEATURE_SELFOVERLAP>
20.297

> <PUBCHEM_SHAPE_FINGERPRINT>
10014705 185 17918276441845479093
10912923 1 16153423943617046690
114248 4 18411702084424421271
11471102 20 18260266348268494812
11615757 297 17240479204367531888
12236239 1 16298385768668250892
12500047 106 17917428705058030498
13760787 5 17458339732445307169
14123238 8 7997966877538679208
14251717 144 18040433317573366830
15242439 84 18342737437912086102
15375358 24 18412825784996947347
17834072 33 17676494921297324941
17834076 25 16989126461033057773
18186145 218 18342452668537158633
19026448 4 18342454824610832011
1986462 14 18131628984976025531
200 152 17675927611983785377
20279233 1 18413102866243245714
20645477 56 17917712418282095965
20645477 70 18187645855479565702
212847 35 15123792894220424916
22485316 2 18410575084673907799
22646028 1 16588024627752226838
23402539 116 17917998260829109599
23402655 69 18260546727675195180
23557571 272 18201432550338951979
23559900 14 18272088314349022306
29717793 49 16805600403941282340
3060560 45 17894907426330580934
3268164 11 17632306661611057175
351380 180 18341899588497886452
3545911 37 18130786776312191867
4028521 119 18059582424930809293
548570 60 18343867710064214972
573450 72 16773805770286934457
69090 78 18334014973345798710

> <PUBCHEM_SHAPE_MULTIPOLES>
272.28
10.92
1.21
0.9
2.6
0.03
0.01
0.74
2.35
-0.87
-0.01
0.44
-0.03
0.86

> <PUBCHEM_SHAPE_SELFOVERLAP>
552.442

> <PUBCHEM_SHAPE_VOLUME>
160.8

> <PUBCHEM_COORDINATE_TYPE>
2
5
10

$$$$

