5280571
  -OEChem-07051212483D

 57 56  0     1  0  0  0  0  0999 V2000
   -1.3052   -1.8011    2.0331 P   0  0  1  0  0  0  0  0  0  0  0  0
   -2.3126   -1.5586   -0.7222 P   0  0  2  0  0  0  0  0  0  0  0  0
   -4.0881    0.7398   -1.2410 P   0  0  0  0  0  0  0  0  0  0  0  0
    0.2433   -1.6412    1.6006 O   0  0  0  0  0  0  0  0  0  0  0  0
   -2.0546   -2.2965    0.6904 O   0  0  0  0  0  0  0  0  0  0  0  0
   -1.3281   -3.1155    2.9760 O   0  0  0  0  0  0  0  0  0  0  0  0
   -1.9103   -0.5786    2.6596 O   0  0  0  0  0  0  0  0  0  0  0  0
   -3.3030   -0.3427   -0.3334 O   0  0  0  0  0  0  0  0  0  0  0  0
   -3.2714   -2.5832   -1.5248 O   0  0  0  0  0  0  0  0  0  0  0  0
   -1.0751   -1.1437   -1.4620 O   0  0  0  0  0  0  0  0  0  0  0  0
   -4.7462    1.7281   -0.1443 O   0  0  0  0  0  0  0  0  0  0  0  0
   -2.9012    1.6280   -1.8843 O   0  0  0  0  0  0  0  0  0  0  0  0
   -5.0527    0.1481   -2.2262 O   0  0  0  0  0  0  0  0  0  0  0  0
    4.4243   -0.6082   -1.6450 C   0  0  0  0  0  0  0  0  0  0  0  0
    4.3618   -1.8384   -0.7326 C   0  0  0  0  0  0  0  0  0  0  0  0
    3.0566    2.5766    0.3019 C   0  0  0  0  0  0  0  0  0  0  0  0
    3.9718    1.5019   -0.2466 C   0  0  0  0  0  0  0  0  0  0  0  0
    3.5999    0.5221   -1.0939 C   0  0  0  0  0  0  0  0  0  0  0  0
    1.6350    2.5475   -0.2769 C   0  0  0  0  0  0  0  0  0  0  0  0
    2.9400   -2.2998   -0.4989 C   0  0  0  0  0  0  0  0  0  0  0  0
    5.3899    1.5440    0.2665 C   0  0  0  0  0  0  0  0  0  0  0  0
    0.7966    3.7100    0.1770 C   0  0  0  0  0  0  0  0  0  0  0  0
    2.3295   -2.3145    0.7016 C   0  0  0  0  0  0  0  0  0  0  0  0
    2.1977   -2.7384   -1.7342 C   0  0  0  0  0  0  0  0  0  0  0  0
   -0.3692    3.6847    0.8504 C   0  0  0  0  0  0  0  0  0  0  0  0
    0.9251   -2.7334    0.9963 C   0  0  0  0  0  0  0  0  0  0  0  0
   -1.1573    4.8911    1.2741 C   0  0  0  0  0  0  0  0  0  0  0  0
   -0.9966    2.3718    1.2386 C   0  0  0  0  0  0  0  0  0  0  0  0
    4.0538   -0.8517   -2.6487 H   0  0  0  0  0  0  0  0  0  0  0  0
    5.4671   -0.3093   -1.7946 H   0  0  0  0  0  0  0  0  0  0  0  0
    4.9372   -2.6565   -1.1830 H   0  0  0  0  0  0  0  0  0  0  0  0
    4.8488   -1.6127    0.2245 H   0  0  0  0  0  0  0  0  0  0  0  0
    3.0035    2.4750    1.3933 H   0  0  0  0  0  0  0  0  0  0  0  0
    3.5104    3.5536    0.0904 H   0  0  0  0  0  0  0  0  0  0  0  0
    2.5706    0.4930   -1.4428 H   0  0  0  0  0  0  0  0  0  0  0  0
    1.1699    1.5911   -0.0226 H   0  0  0  0  0  0  0  0  0  0  0  0
    1.6773    2.6023   -1.3725 H   0  0  0  0  0  0  0  0  0  0  0  0
    5.3846    1.6022    1.3609 H   0  0  0  0  0  0  0  0  0  0  0  0
    5.9983    0.6760    0.0064 H   0  0  0  0  0  0  0  0  0  0  0  0
    5.8963    2.4355   -0.1181 H   0  0  0  0  0  0  0  0  0  0  0  0
    1.1976    4.6878   -0.0880 H   0  0  0  0  0  0  0  0  0  0  0  0
    2.9034   -1.9849    1.5664 H   0  0  0  0  0  0  0  0  0  0  0  0
    2.8979   -3.1320   -2.4802 H   0  0  0  0  0  0  0  0  0  0  0  0
    1.4909   -3.5508   -1.5464 H   0  0  0  0  0  0  0  0  0  0  0  0
    1.6655   -1.8954   -2.1850 H   0  0  0  0  0  0  0  0  0  0  0  0
    0.3647   -3.0497    0.1166 H   0  0  0  0  0  0  0  0  0  0  0  0
    0.9476   -3.5704    1.7015 H   0  0  0  0  0  0  0  0  0  0  0  0
   -2.1436    4.8913    0.7990 H   0  0  0  0  0  0  0  0  0  0  0  0
   -1.2898    4.8977    2.3608 H   0  0  0  0  0  0  0  0  0  0  0  0
   -0.6509    5.8205    0.9935 H   0  0  0  0  0  0  0  0  0  0  0  0
   -0.6210    2.0485    2.2144 H   0  0  0  0  0  0  0  0  0  0  0  0
   -0.8298    1.5782    0.5056 H   0  0  0  0  0  0  0  0  0  0  0  0
   -2.0851    2.4748    1.3161 H   0  0  0  0  0  0  0  0  0  0  0  0
   -2.1492   -3.3327    3.4668 H   0  0  0  0  0  0  0  0  0  0  0  0
   -3.5012   -2.3859   -2.4578 H   0  0  0  0  0  0  0  0  0  0  0  0
   -5.3589    2.4320   -0.4464 H   0  0  0  0  0  0  0  0  0  0  0  0
   -3.1274    2.3167   -2.5450 H   0  0  0  0  0  0  0  0  0  0  0  0
  1  4  1  0  0  0  0
  1  5  1  0  0  0  0
  1  6  1  0  0  0  0
  1  7  2  0  0  0  0
  2  5  1  0  0  0  0
  2  8  1  0  0  0  0
  2  9  1  0  0  0  0
  2 10  2  0  0  0  0
  3  8  1  0  0  0  0
  3 11  1  0  0  0  0
  3 12  1  0  0  0  0
  3 13  2  0  0  0  0
  4 26  1  0  0  0  0
  6 54  1  0  0  0  0
  9 55  1  0  0  0  0
 11 56  1  0  0  0  0
 12 57  1  0  0  0  0
 14 15  1  0  0  0  0
 14 18  1  0  0  0  0
 14 29  1  0  0  0  0
 14 30  1  0  0  0  0
 15 20  1  0  0  0  0
 15 31  1  0  0  0  0
 15 32  1  0  0  0  0
 16 17  1  0  0  0  0
 16 19  1  0  0  0  0
 16 33  1  0  0  0  0
 16 34  1  0  0  0  0
 17 18  2  0  0  0  0
 17 21  1  0  0  0  0
 18 35  1  0  0  0  0
 19 22  1  0  0  0  0
 19 36  1  0  0  0  0
 19 37  1  0  0  0  0
 20 23  2  0  0  0  0
 20 24  1  0  0  0  0
 21 38  1  0  0  0  0
 21 39  1  0  0  0  0
 21 40  1  0  0  0  0
 22 25  2  0  0  0  0
 22 41  1  0  0  0  0
 23 26  1  0  0  0  0
 23 42  1  0  0  0  0
 24 43  1  0  0  0  0
 24 44  1  0  0  0  0
 24 45  1  0  0  0  0
 25 27  1  0  0  0  0
 25 28  1  0  0  0  0
 26 46  1  0  0  0  0
 26 47  1  0  0  0  0
 27 48  1  0  0  0  0
 27 49  1  0  0  0  0
 27 50  1  0  0  0  0
 28 51  1  0  0  0  0
 28 52  1  0  0  0  0
 28 53  1  0  0  0  0
M  END
> <PUBCHEM_COMPOUND_CID>
5280571

> <PUBCHEM_CONFORMER_RMSD>
1.6

> <PUBCHEM_CONFORMER_DIVERSEORDER>
1
59
51
42
74
62
81
23
8
75
82
77
84
79
52
67
18
7
70
80
40
2
53
21
3
65
68
64
63
17
76
22
19
33
5
56
44
35
9
46
30
41
50
12
37
16
49
57
39
58
54
61
71
47
26
15
55
24
25
27
78
66
45
48
10
28
72
20
32
60
73
31
13
83
34
43
11
69
4
36
38
29
6
14

> <PUBCHEM_MMFF94_PARTIAL_CHARGES>
35
1 1.51
10 -0.7
11 -0.77
12 -0.77
13 -0.7
14 0.14
15 0.14
16 0.14
17 -0.28
18 -0.29
19 0.14
2 1.51
20 -0.28
21 0.14
22 -0.29
23 -0.29
24 0.14
25 -0.28
26 0.42
27 0.14
28 0.14
3 1.51
35 0.15
4 -0.55
41 0.15
42 0.15
5 -0.54
54 0.5
55 0.5
56 0.5
57 0.5
6 -0.77
7 -0.7
8 -0.54
9 -0.77

> <PUBCHEM_EFFECTIVE_ROTOR_COUNT>
13

> <PUBCHEM_PHARMACOPHORE_FEATURES>
13
1 10 acceptor
1 11 acceptor
1 12 acceptor
1 13 acceptor
1 21 hydrophobe
1 24 hydrophobe
1 6 acceptor
1 7 acceptor
1 9 acceptor
3 25 27 28 hydrophobe
4 14 15 18 20 hydrophobe
4 16 17 19 22 hydrophobe
4 3 11 12 13 anion

> <PUBCHEM_HEAVY_ATOM_COUNT>
28

> <PUBCHEM_ATOM_DEF_STEREO_COUNT>
0

> <PUBCHEM_ATOM_UDEF_STEREO_COUNT>
0

> <PUBCHEM_BOND_DEF_STEREO_COUNT>
2

> <PUBCHEM_BOND_UDEF_STEREO_COUNT>
0

> <PUBCHEM_ISOTOPIC_ATOM_COUNT>
0

> <PUBCHEM_COMPONENT_COUNT>
1

> <PUBCHEM_CACTVS_TAUTO_COUNT>
1

> <PUBCHEM_CONFORMER_ID>
0050933B00000001

> <PUBCHEM_MMFF94_ENERGY>
-37.2648

> <PUBCHEM_FEATURE_SELFOVERLAP>
66.048

> <PUBCHEM_SHAPE_FINGERPRINT>
12100795 323 16753250112695996672
12633257 1 16702029621625527382
12788726 201 18265330805772919706
13122387 1 17332228205861769320
13642711 20 18271514407876221363
13773456 30 16820534748216832945
14251757 17 18410867567789136957
14681490 219 18335990839044260093
14931854 50 18341333413155830620
15351339 4 18267601254657156633
15968369 153 18188481505496243185
19930381 70 17615129888713550271
20764821 26 18339911641758262432
23558518 356 18338222890856813420
238 59 17759537564104390230
437795 51 18201992279552503593
463206 1 18408880763194497144
508706 21 18059289847263295070
5895379 119 17974860771954738882

> <PUBCHEM_SHAPE_MULTIPOLES>
529.08
9.22
5.82
2.28
1.12
4.97
0.82
0.35
-5.36
0
2.23
-2.16
-1.64
0.74

> <PUBCHEM_SHAPE_SELFOVERLAP>
978.997

> <PUBCHEM_SHAPE_VOLUME>
333.8

> <PUBCHEM_COORDINATE_TYPE>
2
5
10

$$$$

