13054
  -OEChem-06261207422D

 16 16  0     0  0  0  0  0  0999 V2000
    4.3660    1.6160    0.0000 F   0  0  0  0  0  0  0  0  0  0  0  0
    3.3660    1.6160    0.0000 F   0  0  0  0  0  0  0  0  0  0  0  0
    2.0000    0.2500    0.0000 F   0  0  0  0  0  0  0  0  0  0  0  0
    2.5000    1.1160    0.0000 F   0  0  0  0  0  0  0  0  0  0  0  0
    5.7320    0.2500    0.0000 F   0  0  0  0  0  0  0  0  0  0  0  0
    5.2320    1.1160    0.0000 F   0  0  0  0  0  0  0  0  0  0  0  0
    2.5000   -1.6160    0.0000 F   0  0  0  0  0  0  0  0  0  0  0  0
    2.0000   -0.7500    0.0000 F   0  0  0  0  0  0  0  0  0  0  0  0
    3.8660    0.7500    0.0000 C   0  0  0  0  0  0  0  0  0  0  0  0
    3.0000    0.2500    0.0000 C   0  0  0  0  0  0  0  0  0  0  0  0
    4.7320    0.2500    0.0000 C   0  0  0  0  0  0  0  0  0  0  0  0
    3.0000   -0.7500    0.0000 C   0  0  0  0  0  0  0  0  0  0  0  0
    4.7320   -0.7500    0.0000 C   0  0  0  0  0  0  0  0  0  0  0  0
    3.8660   -1.2500    0.0000 C   0  0  0  0  0  0  0  0  0  0  0  0
    5.2690   -1.0600    0.0000 H   0  0  0  0  0  0  0  0  0  0  0  0
    3.8660   -1.8700    0.0000 H   0  0  0  0  0  0  0  0  0  0  0  0
  1  9  1  0  0  0  0
  2  9  1  0  0  0  0
  3 10  1  0  0  0  0
  4 10  1  0  0  0  0
  5 11  1  0  0  0  0
  6 11  1  0  0  0  0
  7 12  1  0  0  0  0
  8 12  1  0  0  0  0
  9 10  1  0  0  0  0
  9 11  1  0  0  0  0
 10 12  1  0  0  0  0
 11 13  1  0  0  0  0
 12 14  1  0  0  0  0
 13 14  2  0  0  0  0
 13 15  1  0  0  0  0
 14 16  1  0  0  0  0
M  END
> <PUBCHEM_COMPOUND_CID>
13054

> <PUBCHEM_COMPOUND_CANONICALIZED>
1

> <PUBCHEM_CACTVS_COMPLEXITY>
248

> <PUBCHEM_CACTVS_HBOND_ACCEPTOR>
8

> <PUBCHEM_CACTVS_HBOND_DONOR>
0

> <PUBCHEM_CACTVS_ROTATABLE_BOND>
0

> <PUBCHEM_CACTVS_SUBSKEYS>
AAADcQBgAcAAAAAAAAAAAAAAAAAAAAAAAAAgAAAAAAAAAAAAAAAAGQAAAAAACACAABAAAAAAAACAACBCAAAAAAAgAAAICAAAAAgAAAIAAAAAAAAAgAAIAAMAAAAAAAAAAAAAAAAAAAAAAAAAAAAAAAAAAA==

> <PUBCHEM_IUPAC_OPENEYE_NAME>
3,3,4,4,5,5,6,6-octafluorocyclohexene

> <PUBCHEM_IUPAC_CAS_NAME>
3,3,4,4,5,5,6,6-octafluorocyclohexene

> <PUBCHEM_IUPAC_NAME>
3,3,4,4,5,5,6,6-octafluorocyclohexene

> <PUBCHEM_IUPAC_SYSTEMATIC_NAME>
3,3,4,4,5,5,6,6-octakis(fluoranyl)cyclohexene

> <PUBCHEM_IUPAC_TRADITIONAL_NAME>
3,3,4,4,5,5,6,6-octafluorocyclohexene

> <PUBCHEM_IUPAC_INCHI>
InChI=1S/C6H2F8/c7-3(8)1-2-4(9,10)6(13,14)5(3,11)12/h1-2H

> <PUBCHEM_IUPAC_INCHIKEY>
JSIJIGNXOVSJFX-UHFFFAOYSA-N

> <PUBCHEM_XLOGP3_AA>
3.1

> <PUBCHEM_EXACT_MASS>
226.002876

> <PUBCHEM_MOLECULAR_FORMULA>
C6H2F8

> <PUBCHEM_MOLECULAR_WEIGHT>
226.067306

> <PUBCHEM_OPENEYE_CAN_SMILES>
C1=CC(C(C(C1(F)F)(F)F)(F)F)(F)F

> <PUBCHEM_OPENEYE_ISO_SMILES>
C1=CC(C(C(C1(F)F)(F)F)(F)F)(F)F

> <PUBCHEM_CACTVS_TPSA>
0

> <PUBCHEM_MONOISOTOPIC_WEIGHT>
226.002876

> <PUBCHEM_TOTAL_CHARGE>
0

> <PUBCHEM_HEAVY_ATOM_COUNT>
14

> <PUBCHEM_ATOM_DEF_STEREO_COUNT>
0

> <PUBCHEM_ATOM_UDEF_STEREO_COUNT>
0

> <PUBCHEM_BOND_DEF_STEREO_COUNT>
0

> <PUBCHEM_BOND_UDEF_STEREO_COUNT>
0

> <PUBCHEM_ISOTOPIC_ATOM_COUNT>
0

> <PUBCHEM_COMPONENT_COUNT>
1

> <PUBCHEM_CACTVS_TAUTO_COUNT>
1

> <PUBCHEM_COORDINATE_TYPE>
1
5
255

$$$$

