164950
  -OEChem-07051213003D

 25 27  0     0  0  0  0  0  0999 V2000
   -2.2096   -2.1116    0.0473 O   0  0  0  0  0  0  0  0  0  0  0  0
   -1.0748    2.3859   -0.3043 O   0  0  0  0  0  0  0  0  0  0  0  0
    2.7650   -2.2659    0.2038 O   0  0  0  0  0  0  0  0  0  0  0  0
    0.1242   -1.6308    0.0738 N   0  0  0  0  0  0  0  0  0  0  0  0
    0.6782    0.7287   -0.1112 C   0  0  0  0  0  0  0  0  0  0  0  0
   -1.6311    0.0593   -0.1209 C   0  0  0  0  0  0  0  0  0  0  0  0
   -0.6782    1.0826   -0.1806 C   0  0  0  0  0  0  0  0  0  0  0  0
    1.0239   -0.6376    0.0152 C   0  0  0  0  0  0  0  0  0  0  0  0
   -1.1596   -1.2412    0.0035 C   0  0  0  0  0  0  0  0  0  0  0  0
    1.6801    1.7117   -0.1663 C   0  0  0  0  0  0  0  0  0  0  0  0
    2.3754   -0.9602    0.0814 C   0  0  0  0  0  0  0  0  0  0  0  0
   -3.0447   -0.0325   -0.1537 C   0  0  0  0  0  0  0  0  0  0  0  0
    3.0236    1.3565   -0.0975 C   0  0  0  0  0  0  0  0  0  0  0  0
    3.3715    0.0183    0.0263 C   0  0  0  0  0  0  0  0  0  0  0  0
   -3.3440   -1.3708   -0.0489 C   0  0  0  0  0  0  0  0  0  0  0  0
   -1.9001    2.9075    0.7320 C   0  0  0  0  0  0  0  0  0  0  0  0
    1.4317    2.7663   -0.2632 H   0  0  0  0  0  0  0  0  0  0  0  0
   -3.7657    0.7658   -0.2507 H   0  0  0  0  0  0  0  0  0  0  0  0
    3.7938    2.1204   -0.1404 H   0  0  0  0  0  0  0  0  0  0  0  0
    4.4199   -0.2625    0.0803 H   0  0  0  0  0  0  0  0  0  0  0  0
   -4.2684   -1.9293   -0.0307 H   0  0  0  0  0  0  0  0  0  0  0  0
   -1.6457    3.9631    0.8664 H   0  0  0  0  0  0  0  0  0  0  0  0
   -1.7417    2.3953    1.6876 H   0  0  0  0  0  0  0  0  0  0  0  0
   -2.9513    2.8492    0.4383 H   0  0  0  0  0  0  0  0  0  0  0  0
    1.9670   -2.8221    0.2286 H   0  0  0  0  0  0  0  0  0  0  0  0
  1  9  1  0  0  0  0
  1 15  1  0  0  0  0
  2  7  1  0  0  0  0
  2 16  1  0  0  0  0
  3 11  1  0  0  0  0
  3 25  1  0  0  0  0
  4  8  1  0  0  0  0
  4  9  2  0  0  0  0
  5  7  1  0  0  0  0
  5  8  2  0  0  0  0
  5 10  1  0  0  0  0
  6  7  2  0  0  0  0
  6  9  1  0  0  0  0
  6 12  1  0  0  0  0
  8 11  1  0  0  0  0
 10 13  2  0  0  0  0
 10 17  1  0  0  0  0
 11 14  2  0  0  0  0
 12 15  2  0  0  0  0
 12 18  1  0  0  0  0
 13 14  1  0  0  0  0
 13 19  1  0  0  0  0
 14 20  1  0  0  0  0
 15 21  1  0  0  0  0
 16 22  1  0  0  0  0
 16 23  1  0  0  0  0
 16 24  1  0  0  0  0
M  END
> <PUBCHEM_COMPOUND_CID>
164950

> <PUBCHEM_CONFORMER_RMSD>
0.6

> <PUBCHEM_CONFORMER_DIVERSEORDER>
1

> <PUBCHEM_MMFF94_PARTIAL_CHARGES>
20
1 -0.28
10 -0.15
11 0.08
12 -0.15
13 -0.15
14 -0.15
15 -0.01
16 0.28
17 0.15
18 0.15
19 0.15
2 -0.36
20 0.15
21 0.15
25 0.45
3 -0.53
4 -0.57
7 0.08
8 0.31
9 0.4

> <PUBCHEM_EFFECTIVE_ROTOR_COUNT>
1

> <PUBCHEM_PHARMACOPHORE_FEATURES>
5
1 2 acceptor
1 3 donor
5 1 6 9 12 15 rings
6 4 5 6 7 8 9 rings
6 5 8 10 11 13 14 rings

> <PUBCHEM_HEAVY_ATOM_COUNT>
16

> <PUBCHEM_ATOM_DEF_STEREO_COUNT>
0

> <PUBCHEM_ATOM_UDEF_STEREO_COUNT>
0

> <PUBCHEM_BOND_DEF_STEREO_COUNT>
0

> <PUBCHEM_BOND_UDEF_STEREO_COUNT>
0

> <PUBCHEM_ISOTOPIC_ATOM_COUNT>
0

> <PUBCHEM_COMPONENT_COUNT>
1

> <PUBCHEM_CACTVS_TAUTO_COUNT>
3

> <PUBCHEM_CONFORMER_ID>
0002845600000001

> <PUBCHEM_MMFF94_ENERGY>
48.2801

> <PUBCHEM_FEATURE_SELFOVERLAP>
25.523

> <PUBCHEM_SHAPE_FINGERPRINT>
10608611 8 18340493282976819901
10967382 1 18267022743498482462
11132069 177 18336834074083191432
11471102 20 18340211773619200511
11680611 10 17915477183814341472
12032990 46 18268143167380252823
12382932 28 18265896860787223019
13140716 1 18050852113506108248
14178342 30 18339374075209351456
14790565 3 16750135806814908092
15196674 1 18339924818311601822
15442244 35 18267022941367762466
15536298 74 18335138653228952086
16945 1 18410854343658210932
193761 8 18338797952000148804
19591789 44 16607155339801813134
20201158 50 18270403784730109274
20510252 161 18334295366043414097
20588541 1 18126848187990598575
21029758 11 18264214604350585351
21267235 1 18339916017887137214
21501502 16 18339077202484603876
2334 1 17690842255217793516
23388829 49 18339641122805384597
23402539 116 18261965032944509950
23463225 33 18340769238920405742
23559900 14 18409175432869215194
2748010 2 17834955270082317676
3312278 4 18340767031328249553
335352 9 18195529422411583519
34934 24 18264779765721794079
353137 74 18342746212435443233
528886 8 18266745688064237986
537710 114 18197492935499095645
7364860 26 17615689536090243873
81228 2 18342736329821385193
8809292 202 18201718401645127682

> <PUBCHEM_SHAPE_MULTIPOLES>
306.68
5.21
2.78
0.64
0.68
1.05
0.02
-1.18
0.04
-0.76
0.35
-0.05
0.13
-0.35

> <PUBCHEM_SHAPE_SELFOVERLAP>
695.298

> <PUBCHEM_SHAPE_VOLUME>
161.2

> <PUBCHEM_COORDINATE_TYPE>
2
5
10

$$$$

