3847836
  -OEChem-07051213073D

 44 45  0     1  0  0  0  0  0999 V2000
   -3.7167    3.0434    0.5303 O   0  0  0  0  0  0  0  0  0  0  0  0
    0.6208   -1.6318    0.4367 C   0  0  1  0  0  0  0  0  0  0  0  0
   -0.6767   -1.6064   -0.4543 C   0  0  1  0  0  0  0  0  0  0  0  0
    1.4467   -2.9304    0.2527 C   0  0  0  0  0  0  0  0  0  0  0  0
   -1.5440   -2.8795   -0.2827 C   0  0  0  0  0  0  0  0  0  0  0  0
    1.4848   -0.3965    0.1819 C   0  0  0  0  0  0  0  0  0  0  0  0
   -1.5001   -0.3463   -0.1870 C   0  0  0  0  0  0  0  0  0  0  0  0
    2.6571   -3.0252    1.1779 C   0  0  0  0  0  0  0  0  0  0  0  0
   -2.7882   -2.8995   -1.1667 C   0  0  0  0  0  0  0  0  0  0  0  0
    1.7136    0.4748    1.2225 C   0  0  0  0  0  0  0  0  0  0  0  0
    2.0015   -0.2013   -1.0789 C   0  0  0  0  0  0  0  0  0  0  0  0
   -1.7004    0.5418   -1.2192 C   0  0  0  0  0  0  0  0  0  0  0  0
   -2.0112   -0.1471    1.0754 C   0  0  0  0  0  0  0  0  0  0  0  0
    2.5015    1.6021    0.9900 C   0  0  0  0  0  0  0  0  0  0  0  0
    2.7893    0.9261   -1.3114 C   0  0  0  0  0  0  0  0  0  0  0  0
    3.0395    1.8277   -0.2770 C   0  0  0  0  0  0  0  0  0  0  0  0
   -2.4523    1.6912   -0.9760 C   0  0  0  0  0  0  0  0  0  0  0  0
   -2.7632    1.0023    1.3187 C   0  0  0  0  0  0  0  0  0  0  0  0
   -2.9837    1.9215    0.2930 C   0  0  0  0  0  0  0  0  0  0  0  0
    3.8815    3.0331   -0.5258 C   0  0  0  0  0  0  0  0  0  0  0  0
    0.3068   -1.6241    1.4899 H   0  0  0  0  0  0  0  0  0  0  0  0
   -0.3638   -1.5987   -1.5079 H   0  0  0  0  0  0  0  0  0  0  0  0
    1.7750   -3.0449   -0.7870 H   0  0  0  0  0  0  0  0  0  0  0  0
    0.8247   -3.8005    0.4850 H   0  0  0  0  0  0  0  0  0  0  0  0
   -0.9611   -3.7632   -0.5616 H   0  0  0  0  0  0  0  0  0  0  0  0
   -1.8422   -3.0132    0.7637 H   0  0  0  0  0  0  0  0  0  0  0  0
    3.4099   -2.2681    0.9395 H   0  0  0  0  0  0  0  0  0  0  0  0
    2.3612   -2.9044    2.2248 H   0  0  0  0  0  0  0  0  0  0  0  0
    3.1323   -4.0060    1.0724 H   0  0  0  0  0  0  0  0  0  0  0  0
   -2.5249   -2.7479   -2.2183 H   0  0  0  0  0  0  0  0  0  0  0  0
   -3.2908   -3.8686   -1.0813 H   0  0  0  0  0  0  0  0  0  0  0  0
   -3.5084   -2.1302   -0.8734 H   0  0  0  0  0  0  0  0  0  0  0  0
    1.3005    0.3083    2.2124 H   0  0  0  0  0  0  0  0  0  0  0  0
    1.8211   -0.8939   -1.8944 H   0  0  0  0  0  0  0  0  0  0  0  0
   -1.2918    0.3721   -2.2104 H   0  0  0  0  0  0  0  0  0  0  0  0
   -1.8538   -0.8534    1.8840 H   0  0  0  0  0  0  0  0  0  0  0  0
    2.6905    2.2962    1.8045 H   0  0  0  0  0  0  0  0  0  0  0  0
    3.2049    1.0897   -2.3022 H   0  0  0  0  0  0  0  0  0  0  0  0
   -2.6166    2.3996   -1.7836 H   0  0  0  0  0  0  0  0  0  0  0  0
   -3.1753    1.1757    2.3090 H   0  0  0  0  0  0  0  0  0  0  0  0
    3.5779    3.8668    0.1164 H   0  0  0  0  0  0  0  0  0  0  0  0
    4.9334    2.8036   -0.3289 H   0  0  0  0  0  0  0  0  0  0  0  0
    3.7848    3.3756   -1.5617 H   0  0  0  0  0  0  0  0  0  0  0  0
   -3.7678    3.5655   -0.2888 H   0  0  0  0  0  0  0  0  0  0  0  0
  1 19  1  0  0  0  0
  1 44  1  0  0  0  0
  2  3  1  0  0  0  0
  2  4  1  0  0  0  0
  2  6  1  0  0  0  0
  2 21  1  0  0  0  0
  3  5  1  0  0  0  0
  3  7  1  0  0  0  0
  3 22  1  0  0  0  0
  4  8  1  0  0  0  0
  4 23  1  0  0  0  0
  4 24  1  0  0  0  0
  5  9  1  0  0  0  0
  5 25  1  0  0  0  0
  5 26  1  0  0  0  0
  6 10  2  0  0  0  0
  6 11  1  0  0  0  0
  7 12  2  0  0  0  0
  7 13  1  0  0  0  0
  8 27  1  0  0  0  0
  8 28  1  0  0  0  0
  8 29  1  0  0  0  0
  9 30  1  0  0  0  0
  9 31  1  0  0  0  0
  9 32  1  0  0  0  0
 10 14  1  0  0  0  0
 10 33  1  0  0  0  0
 11 15  2  0  0  0  0
 11 34  1  0  0  0  0
 12 17  1  0  0  0  0
 12 35  1  0  0  0  0
 13 18  2  0  0  0  0
 13 36  1  0  0  0  0
 14 16  2  0  0  0  0
 14 37  1  0  0  0  0
 15 16  1  0  0  0  0
 15 38  1  0  0  0  0
 16 20  1  0  0  0  0
 17 19  2  0  0  0  0
 17 39  1  0  0  0  0
 18 19  1  0  0  0  0
 18 40  1  0  0  0  0
 20 41  1  0  0  0  0
 20 42  1  0  0  0  0
 20 43  1  0  0  0  0
M  END
> <PUBCHEM_COMPOUND_CID>
3847836

> <PUBCHEM_CONFORMER_RMSD>
0.8

> <PUBCHEM_CONFORMER_DIVERSEORDER>
1
6
5
2
3
7
4

> <PUBCHEM_MMFF94_PARTIAL_CHARGES>
25
1 -0.53
10 -0.15
11 -0.15
12 -0.15
13 -0.15
14 -0.15
15 -0.15
16 -0.14
17 -0.15
18 -0.15
19 0.08
2 0.14
20 0.14
3 0.14
33 0.15
34 0.15
35 0.15
36 0.15
37 0.15
38 0.15
39 0.15
40 0.15
44 0.45
6 -0.14
7 -0.14

> <PUBCHEM_EFFECTIVE_ROTOR_COUNT>
5

> <PUBCHEM_PHARMACOPHORE_FEATURES>
6
1 1 donor
1 8 hydrophobe
1 9 hydrophobe
4 2 3 4 5 hydrophobe
6 6 10 11 14 15 16 rings
6 7 12 13 17 18 19 rings

> <PUBCHEM_HEAVY_ATOM_COUNT>
20

> <PUBCHEM_ATOM_DEF_STEREO_COUNT>
0

> <PUBCHEM_ATOM_UDEF_STEREO_COUNT>
2

> <PUBCHEM_BOND_DEF_STEREO_COUNT>
0

> <PUBCHEM_BOND_UDEF_STEREO_COUNT>
0

> <PUBCHEM_ISOTOPIC_ATOM_COUNT>
0

> <PUBCHEM_COMPONENT_COUNT>
1

> <PUBCHEM_CACTVS_TAUTO_COUNT>
2

> <PUBCHEM_CONFORMER_ID>
003AB69C00000001

> <PUBCHEM_MMFF94_ENERGY>
53.892

> <PUBCHEM_FEATURE_SELFOVERLAP>
30.447

> <PUBCHEM_SHAPE_FINGERPRINT>
10006869 2 18410008811191623411
10165383 225 18194933375266501764
10498660 4 18266745666689777925
10871710 139 18124869054392289845
12173636 292 18337667495128133373
12633257 1 17695326459068385161
12788726 201 18050855411719179355
128993 33 18410562994346380676
13132413 78 17977109286191964314
13134695 92 17767410449521697746
13140716 1 18268149949481591203
13294875 104 18334581282569962856
133893 2 17631192873533562090
13965767 371 18131079254985397164
14142880 1 18269837510735823189
14178342 30 18337964393553826608
14386348 128 18337095813537802128
14614273 12 18198917928254205063
14955137 171 18051119591090254674
15238133 3 17475498955743107825
15490181 7 18338504292196295414
16945 1 18337959965616695451
17134986 127 18337383958688303421
17357779 13 17609221152102016951
18785283 64 18124300855988676977
18981168 100 18410294713492969824
20510252 161 18050570638344728964
20600515 1 17974017446615706946
20671657 1 18340486784828236694
21041028 32 17621880215982767572
21524375 3 18336261228752064286
23175994 123 17693933407352293019
23402539 116 17688034115627239782
23419403 2 16466623189622718902
23557571 272 17974847268218442172
23558518 356 18268984306829267166
238 59 18053118481944177581
283562 15 18123191195047257518
305870 269 18342176652970237672
350125 39 18411136939442628987
469060 322 17983289331703324131
589210 1 18338812168337279887
6442390 28 18195501749874245211
6992083 37 18050025568219556322
74978 22 18262805180098050118
7808743 9 18337664201120858416
81228 2 17689705373127288298

> <PUBCHEM_SHAPE_MULTIPOLES>
405.72
6.17
4.18
1.36
1.37
1.44
-0.02
-4.49
0.37
-0.53
-0.26
-0.03
-0.05
-1.63

> <PUBCHEM_SHAPE_SELFOVERLAP>
850.2

> <PUBCHEM_SHAPE_VOLUME>
230.6

> <PUBCHEM_COORDINATE_TYPE>
2
5
10

$$$$

