439856
  -OEChem-07051212473D

 50 53  0     1  0  0  0  0  0999 V2000
    4.7515    1.1382    1.0623 O   0  0  0  0  0  0  0  0  0  0  0  0
   -0.7803    0.6143   -0.2880 C   0  0  2  0  0  0  0  0  0  0  0  0
   -0.1822   -0.7910   -0.5565 C   0  0  1  0  0  0  0  0  0  0  0  0
   -2.3068    0.6756   -0.5924 C   0  0  1  0  0  0  0  0  0  0  0  0
    1.3827   -0.8664   -0.3359 C   0  0  1  0  0  0  0  0  0  0  0  0
   -3.1317   -0.4858    0.0100 C   0  0  1  0  0  0  0  0  0  0  0  0
    2.0826    0.2831   -1.1346 C   0  0  1  0  0  0  0  0  0  0  0  0
   -0.9646   -1.8418    0.2522 C   0  0  0  0  0  0  0  0  0  0  0  0
   -2.4419   -1.8492   -0.1205 C   0  0  0  0  0  0  0  0  0  0  0  0
   -0.0378    1.6667   -1.1272 C   0  0  0  0  0  0  0  0  0  0  0  0
   -2.9585    1.9191    0.0441 C   0  0  0  0  0  0  0  0  0  0  0  0
   -3.3140   -0.0410    1.4721 C   0  0  0  0  0  0  0  0  0  0  0  0
    1.4568    1.6587   -0.8543 C   0  0  0  0  0  0  0  0  0  0  0  0
    1.7607   -0.7604    1.1689 C   0  0  0  0  0  0  0  0  0  0  0  0
   -3.4644    1.4788    1.4190 C   0  0  0  0  0  0  0  0  0  0  0  0
    1.8868   -2.2298   -0.8845 C   0  0  0  0  0  0  0  0  0  0  0  0
   -4.5174   -0.5956   -0.6681 C   0  0  0  0  0  0  0  0  0  0  0  0
    3.5975    0.3593   -0.8869 C   0  0  0  0  0  0  0  0  0  0  0  0
    3.2625   -0.6990    1.4311 C   0  0  0  0  0  0  0  0  0  0  0  0
    3.9184    0.3663    0.5891 C   0  0  0  0  0  0  0  0  0  0  0  0
   -0.6318    0.8594    0.7716 H   0  0  0  0  0  0  0  0  0  0  0  0
   -0.3578   -1.0099   -1.6213 H   0  0  0  0  0  0  0  0  0  0  0  0
   -2.4384    0.7046   -1.6821 H   0  0  0  0  0  0  0  0  0  0  0  0
    1.9432    0.0850   -2.2073 H   0  0  0  0  0  0  0  0  0  0  0  0
   -0.8583   -1.6617    1.3268 H   0  0  0  0  0  0  0  0  0  0  0  0
   -0.5755   -2.8471    0.0648 H   0  0  0  0  0  0  0  0  0  0  0  0
   -2.5243   -2.2011   -1.1577 H   0  0  0  0  0  0  0  0  0  0  0  0
   -2.9623   -2.5921    0.4976 H   0  0  0  0  0  0  0  0  0  0  0  0
   -0.4171    2.6723   -0.9197 H   0  0  0  0  0  0  0  0  0  0  0  0
   -0.2116    1.4830   -2.1954 H   0  0  0  0  0  0  0  0  0  0  0  0
   -3.8073    2.2472   -0.5683 H   0  0  0  0  0  0  0  0  0  0  0  0
   -2.2909    2.7800    0.1313 H   0  0  0  0  0  0  0  0  0  0  0  0
   -2.4385   -0.2865    2.0827 H   0  0  0  0  0  0  0  0  0  0  0  0
   -4.1776   -0.5128    1.9533 H   0  0  0  0  0  0  0  0  0  0  0  0
    1.9317    2.4148   -1.4923 H   0  0  0  0  0  0  0  0  0  0  0  0
    1.6391    1.9708    0.1809 H   0  0  0  0  0  0  0  0  0  0  0  0
    1.3597   -1.6157    1.7253 H   0  0  0  0  0  0  0  0  0  0  0  0
    1.3025    0.1323    1.6093 H   0  0  0  0  0  0  0  0  0  0  0  0
   -2.8877    1.9490    2.2229 H   0  0  0  0  0  0  0  0  0  0  0  0
   -4.5105    1.7761    1.5517 H   0  0  0  0  0  0  0  0  0  0  0  0
    2.9772   -2.3086   -0.8858 H   0  0  0  0  0  0  0  0  0  0  0  0
    1.5226   -3.0695   -0.2848 H   0  0  0  0  0  0  0  0  0  0  0  0
    1.5530   -2.3835   -1.9168 H   0  0  0  0  0  0  0  0  0  0  0  0
   -4.4127   -0.8003   -1.7396 H   0  0  0  0  0  0  0  0  0  0  0  0
   -5.1013   -1.4126   -0.2284 H   0  0  0  0  0  0  0  0  0  0  0  0
   -5.1130    0.3169   -0.5653 H   0  0  0  0  0  0  0  0  0  0  0  0
    4.0151    1.2647   -1.3426 H   0  0  0  0  0  0  0  0  0  0  0  0
    4.1184   -0.4902   -1.3400 H   0  0  0  0  0  0  0  0  0  0  0  0
    3.7473   -1.6562    1.2149 H   0  0  0  0  0  0  0  0  0  0  0  0
    3.4383   -0.4717    2.4884 H   0  0  0  0  0  0  0  0  0  0  0  0
  1 20  2  0  0  0  0
  2  3  1  0  0  0  0
  2  4  1  0  0  0  0
  2 10  1  0  0  0  0
  2 21  1  0  0  0  0
  3  5  1  0  0  0  0
  3  8  1  0  0  0  0
  3 22  1  0  0  0  0
  4  6  1  0  0  0  0
  4 11  1  0  0  0  0
  4 23  1  0  0  0  0
  5  7  1  0  0  0  0
  5 14  1  0  0  0  0
  5 16  1  0  0  0  0
  6  9  1  0  0  0  0
  6 12  1  0  0  0  0
  6 17  1  0  0  0  0
  7 13  1  0  0  0  0
  7 18  1  0  0  0  0
  7 24  1  0  0  0  0
  8  9  1  0  0  0  0
  8 25  1  0  0  0  0
  8 26  1  0  0  0  0
  9 27  1  0  0  0  0
  9 28  1  0  0  0  0
 10 13  1  0  0  0  0
 10 29  1  0  0  0  0
 10 30  1  0  0  0  0
 11 15  1  0  0  0  0
 11 31  1  0  0  0  0
 11 32  1  0  0  0  0
 12 15  1  0  0  0  0
 12 33  1  0  0  0  0
 12 34  1  0  0  0  0
 13 35  1  0  0  0  0
 13 36  1  0  0  0  0
 14 19  1  0  0  0  0
 14 37  1  0  0  0  0
 14 38  1  0  0  0  0
 15 39  1  0  0  0  0
 15 40  1  0  0  0  0
 16 41  1  0  0  0  0
 16 42  1  0  0  0  0
 16 43  1  0  0  0  0
 17 44  1  0  0  0  0
 17 45  1  0  0  0  0
 17 46  1  0  0  0  0
 18 20  1  0  0  0  0
 18 47  1  0  0  0  0
 18 48  1  0  0  0  0
 19 20  1  0  0  0  0
 19 49  1  0  0  0  0
 19 50  1  0  0  0  0
M  END
> <PUBCHEM_COMPOUND_CID>
439856

> <PUBCHEM_CONFORMER_RMSD>
0.6

> <PUBCHEM_CONFORMER_DIVERSEORDER>
3
40
41
10
30
29
6
23
25
12
4
42
35
15
16
20
32
8
36
33
27
14
44
47
5
19
39
48
9
11
21
7
17
46
2
24
22
34
45
43
13
37
31
18
28
38
1
26

> <PUBCHEM_MMFF94_PARTIAL_CHARGES>
4
1 -0.57
18 0.06
19 0.06
20 0.45

> <PUBCHEM_EFFECTIVE_ROTOR_COUNT>
2

> <PUBCHEM_PHARMACOPHORE_FEATURES>
5
1 1 acceptor
5 4 6 11 12 15 rings
6 2 3 4 6 8 9 rings
6 2 3 5 7 10 13 rings
6 5 7 14 18 19 20 rings

> <PUBCHEM_HEAVY_ATOM_COUNT>
20

> <PUBCHEM_ATOM_DEF_STEREO_COUNT>
1

> <PUBCHEM_ATOM_UDEF_STEREO_COUNT>
5

> <PUBCHEM_BOND_DEF_STEREO_COUNT>
0

> <PUBCHEM_BOND_UDEF_STEREO_COUNT>
0

> <PUBCHEM_ISOTOPIC_ATOM_COUNT>
0

> <PUBCHEM_COMPONENT_COUNT>
1

> <PUBCHEM_CACTVS_TAUTO_COUNT>
3

> <PUBCHEM_CONFORMER_ID>
0006B63000000003

> <PUBCHEM_MMFF94_ENERGY>
64.0279

> <PUBCHEM_FEATURE_SELFOVERLAP>
25.596

> <PUBCHEM_SHAPE_FINGERPRINT>
10366900 7 17822582616000950123
10498660 4 17967813889915039489
10646746 165 18114178623236529984
10863032 1 17676765486904239575
10980938 120 18272364300030370654
11086676 242 17917426562085354444
11132069 177 18341896285752237124
12173636 292 17895469353928921293
12236239 1 18060425694366837354
12251169 10 18271810094577538404
12382932 28 18412265077016435052
12403814 3 17632300072920260893
12507557 5 18059580139675748773
12553582 1 18200861933484214573
12633257 1 17273101719028262161
12670546 56 18340496624772573698
13134695 92 14405187240398123590
13140716 1 18124588678884521571
13172582 1 18343298210343397173
13221675 6 18272643528528214958
13224815 77 18410294730683388543
13583140 156 16702017539465479925
13965767 371 17981319302839817257
14081887 123 18260832639031759216
14144814 61 18341607127174018351
14178342 30 18409722959031061291
14223421 5 18268436909068293628
14289901 80 17385729083926823558
14787075 74 17604723135652504265
15209294 21 18260826024818780193
15309172 13 18413100680421435567
15375462 189 17918272047809163544
15536298 74 18262511606198389014
16945 1 18339912749643397879
17349148 13 18339091406031265815
1813 80 16629686292409609678
18186145 218 17458899448156505142
192875 21 18340498789678560613
200 152 18410301276952143255
20261772 1 18343293782095016992
20510252 161 18260546757898241473
20691752 17 18059000812985881567
21267235 1 18202278104582063498
22854114 59 18113902645380049704
2334 1 17620461420696544677
23402539 116 18339656537654175615
23557571 272 17095521764931604079
23559900 14 18041837432592436886
25 1 5906055858795237676
26918003 58 16128664045755952320
2748010 2 17983295125155244588
296302 2 18409451401006924897
474 4 17488171583478674852
4921388 177 12967122805496680409
5104073 3 18336823190493970499
633830 44 16443619194344916812
7064713 232 18337111262561533377
7097593 13 17917438669651143682
90316 7 17988652925269737844

> <PUBCHEM_SHAPE_MULTIPOLES>
405.72
7.96
2.05
1.37
0.83
0.18
-0.35
-1.21
-2.14
-0.45
0.27
0.31
-0.14
-0.38

> <PUBCHEM_SHAPE_SELFOVERLAP>
862.419

> <PUBCHEM_SHAPE_VOLUME>
224.6

> <PUBCHEM_COORDINATE_TYPE>
2
5
10

$$$$

