10114
  -OEChem-07051212472D

 80 84  0     1  0  0  0  0  0999 V2000
    2.5357   -3.0234    0.0000 O   0  0  0  0  0  0  0  0  0  0  0  0
    5.3307    0.5289    0.0000 O   0  0  0  0  0  0  0  0  0  0  0  0
   11.2187    3.0886    0.0000 O   0  0  0  0  0  0  0  0  0  0  0  0
    9.7088    3.9372    0.0000 O   0  0  0  0  0  0  0  0  0  0  0  0
    7.0628   -1.4710    0.0000 C   0  0  2  0  0  0  0  0  0  0  0  0
    5.2868   -1.4779    0.0000 C   0  0  2  0  0  0  0  0  0  0  0  0
    6.1968   -0.9711    0.0000 C   0  0  1  0  0  0  0  0  0  0  0  0
    7.9288   -0.9711    0.0000 C   0  0  1  0  0  0  0  0  0  0  0  0
    5.2787   -2.5195    0.0000 C   0  0  1  0  0  0  0  0  0  0  0  0
    7.0789   -2.5126    0.0000 C   0  0  0  0  0  0  0  0  0  0  0  0
    7.9288    0.0289    0.0000 C   0  0  0  0  0  0  0  0  0  0  0  0
    6.1808   -3.0403    0.0000 C   0  0  0  0  0  0  0  0  0  0  0  0
    4.3433   -3.0692    0.0000 C   0  0  0  0  0  0  0  0  0  0  0  0
    8.8228    0.5636    0.0000 C   0  0  1  0  0  0  0  0  0  0  0  0
    9.7288    0.0498    0.0000 C   0  0  1  0  0  0  0  0  0  0  0  0
    8.8228   -1.5057    0.0000 C   0  0  0  0  0  0  0  0  0  0  0  0
    4.3599   -0.9138    0.0000 C   0  0  0  0  0  0  0  0  0  0  0  0
    9.7288   -0.9919    0.0000 C   0  0  0  0  0  0  0  0  0  0  0  0
    6.1968    0.0289    0.0000 C   0  0  0  0  0  0  0  0  0  0  0  0
    7.7056   -2.2371    0.0000 C   0  0  0  0  0  0  0  0  0  0  0  0
    3.4037   -2.5267    0.0000 C   0  0  2  0  0  0  0  0  0  0  0  0
    5.2945   -0.4779    0.0000 C   0  0  0  0  0  0  0  0  0  0  0  0
    3.4120   -1.4418    0.0000 C   0  0  0  0  0  0  0  0  0  0  0  0
    8.2709   -1.9107    0.0000 C   0  0  0  0  0  0  0  0  0  0  0  0
    8.7977    1.6483    0.0000 C   0  0  0  0  0  0  0  0  0  0  0  0
    7.0628    0.5289    0.0000 C   0  0  0  0  0  0  0  0  0  0  0  0
   10.6726    0.5850    0.0000 C   0  0  0  0  0  0  0  0  0  0  0  0
    9.7288    2.2052    0.0000 C   0  0  1  0  0  0  0  0  0  0  0  0
   10.6726    1.6700    0.0000 C   0  0  0  0  0  0  0  0  0  0  0  0
    3.8467   -3.9372    0.0000 C   0  0  0  0  0  0  0  0  0  0  0  0
    4.8466   -3.9333    0.0000 C   0  0  0  0  0  0  0  0  0  0  0  0
   10.5987   -0.4435    0.0000 C   0  0  0  0  0  0  0  0  0  0  0  0
    9.2188    3.0654    0.0000 C   0  0  0  0  0  0  0  0  0  0  0  0
   10.2188    3.0770    0.0000 C   0  0  0  0  0  0  0  0  0  0  0  0
    6.9329   -0.5461    0.0000 H   0  0  0  0  0  0  0  0  0  0  0  0
    5.2820   -3.3695    0.0000 H   0  0  0  0  0  0  0  0  0  0  0  0
    7.2969   -3.0930    0.0000 H   0  0  0  0  0  0  0  0  0  0  0  0
    7.6880   -2.3971    0.0000 H   0  0  0  0  0  0  0  0  0  0  0  0
    5.7835   -3.5163    0.0000 H   0  0  0  0  0  0  0  0  0  0  0  0
    6.5818   -3.5132    0.0000 H   0  0  0  0  0  0  0  0  0  0  0  0
    9.5522    0.9999    0.0000 H   0  0  0  0  0  0  0  0  0  0  0  0
    8.4182   -1.9755    0.0000 H   0  0  0  0  0  0  0  0  0  0  0  0
    9.2164   -1.9847    0.0000 H   0  0  0  0  0  0  0  0  0  0  0  0
    4.7681   -0.4472    0.0000 H   0  0  0  0  0  0  0  0  0  0  0  0
    3.9700   -0.4318    0.0000 H   0  0  0  0  0  0  0  0  0  0  0  0
    9.9379   -1.5756    0.0000 H   0  0  0  0  0  0  0  0  0  0  0  0
   10.3397   -0.8858    0.0000 H   0  0  0  0  0  0  0  0  0  0  0  0
    7.2306   -2.6356    0.0000 H   0  0  0  0  0  0  0  0  0  0  0  0
    8.1041   -2.7120    0.0000 H   0  0  0  0  0  0  0  0  0  0  0  0
    8.1805   -1.8386    0.0000 H   0  0  0  0  0  0  0  0  0  0  0  0
    3.4025   -3.1467    0.0000 H   0  0  0  0  0  0  0  0  0  0  0  0
    5.9145   -0.4827    0.0000 H   0  0  0  0  0  0  0  0  0  0  0  0
    5.2993    0.1421    0.0000 H   0  0  0  0  0  0  0  0  0  0  0  0
    4.6745   -0.4731    0.0000 H   0  0  0  0  0  0  0  0  0  0  0  0
    3.2075   -0.8565    0.0000 H   0  0  0  0  0  0  0  0  0  0  0  0
    2.8004   -1.5431    0.0000 H   0  0  0  0  0  0  0  0  0  0  0  0
    7.6884   -2.1228    0.0000 H   0  0  0  0  0  0  0  0  0  0  0  0
    8.4830   -2.4933    0.0000 H   0  0  0  0  0  0  0  0  0  0  0  0
    8.8535   -1.6986    0.0000 H   0  0  0  0  0  0  0  0  0  0  0  0
    8.5752    2.2270    0.0000 H   0  0  0  0  0  0  0  0  0  0  0  0
    8.1894    1.5281    0.0000 H   0  0  0  0  0  0  0  0  0  0  0  0
    7.0628    1.1490    0.0000 H   0  0  0  0  0  0  0  0  0  0  0  0
   10.8817    0.0013    0.0000 H   0  0  0  0  0  0  0  0  0  0  0  0
   11.2835    0.6911    0.0000 H   0  0  0  0  0  0  0  0  0  0  0  0
   11.2835    1.5639    0.0000 H   0  0  0  0  0  0  0  0  0  0  0  0
   10.8817    2.2537    0.0000 H   0  0  0  0  0  0  0  0  0  0  0  0
    3.3085   -3.6292    0.0000 H   0  0  0  0  0  0  0  0  0  0  0  0
    3.5387   -4.4753    0.0000 H   0  0  0  0  0  0  0  0  0  0  0  0
    4.3848   -4.2451    0.0000 H   0  0  0  0  0  0  0  0  0  0  0  0
    4.3109   -4.2454    0.0000 H   0  0  0  0  0  0  0  0  0  0  0  0
    5.1587   -4.4690    0.0000 H   0  0  0  0  0  0  0  0  0  0  0  0
    5.3824   -3.6212    0.0000 H   0  0  0  0  0  0  0  0  0  0  0  0
   10.2928   -0.9829    0.0000 H   0  0  0  0  0  0  0  0  0  0  0  0
   11.1380   -0.7494    0.0000 H   0  0  0  0  0  0  0  0  0  0  0  0
   10.9045    0.0958    0.0000 H   0  0  0  0  0  0  0  0  0  0  0  0
    9.7522    3.3816    0.0000 H   0  0  0  0  0  0  0  0  0  0  0  0
    8.9027    3.5987    0.0000 H   0  0  0  0  0  0  0  0  0  0  0  0
    8.6855    2.7492    0.0000 H   0  0  0  0  0  0  0  0  0  0  0  0
    2.0000   -2.7113    0.0000 H   0  0  0  0  0  0  0  0  0  0  0  0
   11.5225    3.6290    0.0000 H   0  0  0  0  0  0  0  0  0  0  0  0
 21  1  1  1  0  0  0
  1 79  1  0  0  0  0
  2 19  2  0  0  0  0
  3 34  1  0  0  0  0
  3 80  1  0  0  0  0
  4 34  2  0  0  0  0
  5  7  1  0  0  0  0
  5  8  1  0  0  0  0
  5 10  1  0  0  0  0
  5 20  1  1  0  0  0
  6  7  1  0  0  0  0
  6  9  1  0  0  0  0
  6 17  1  0  0  0  0
  6 22  1  1  0  0  0
  7 19  1  0  0  0  0
  7 35  1  6  0  0  0
  8 11  1  0  0  0  0
  8 16  1  0  0  0  0
  8 24  1  6  0  0  0
  9 12  1  0  0  0  0
  9 13  1  0  0  0  0
  9 36  1  6  0  0  0
 10 12  1  0  0  0  0
 10 37  1  0  0  0  0
 10 38  1  0  0  0  0
 11 14  1  0  0  0  0
 11 26  2  0  0  0  0
 12 39  1  0  0  0  0
 12 40  1  0  0  0  0
 13 21  1  0  0  0  0
 13 30  1  0  0  0  0
 13 31  1  0  0  0  0
 14 15  1  0  0  0  0
 14 25  1  0  0  0  0
 14 41  1  1  0  0  0
 15 18  1  0  0  0  0
 15 27  1  0  0  0  0
 15 32  1  1  0  0  0
 16 18  1  0  0  0  0
 16 42  1  0  0  0  0
 16 43  1  0  0  0  0
 17 23  1  0  0  0  0
 17 44  1  0  0  0  0
 17 45  1  0  0  0  0
 18 46  1  0  0  0  0
 18 47  1  0  0  0  0
 19 26  1  0  0  0  0
 20 48  1  0  0  0  0
 20 49  1  0  0  0  0
 20 50  1  0  0  0  0
 21 23  1  0  0  0  0
 21 51  1  0  0  0  0
 22 52  1  0  0  0  0
 22 53  1  0  0  0  0
 22 54  1  0  0  0  0
 23 55  1  0  0  0  0
 23 56  1  0  0  0  0
 24 57  1  0  0  0  0
 24 58  1  0  0  0  0
 24 59  1  0  0  0  0
 25 28  1  0  0  0  0
 25 60  1  0  0  0  0
 25 61  1  0  0  0  0
 26 62  1  0  0  0  0
 27 29  1  0  0  0  0
 27 63  1  0  0  0  0
 27 64  1  0  0  0  0
 28 29  1  0  0  0  0
 28 33  1  6  0  0  0
 28 34  1  0  0  0  0
 29 65  1  0  0  0  0
 29 66  1  0  0  0  0
 30 67  1  0  0  0  0
 30 68  1  0  0  0  0
 30 69  1  0  0  0  0
 31 70  1  0  0  0  0
 31 71  1  0  0  0  0
 31 72  1  0  0  0  0
 32 73  1  0  0  0  0
 32 74  1  0  0  0  0
 32 75  1  0  0  0  0
 33 76  1  0  0  0  0
 33 77  1  0  0  0  0
 33 78  1  0  0  0  0
M  END
> <PUBCHEM_COMPOUND_CID>
10114

> <PUBCHEM_COMPOUND_CANONICALIZED>
1

> <PUBCHEM_CACTVS_COMPLEXITY>
965

> <PUBCHEM_CACTVS_HBOND_ACCEPTOR>
4

> <PUBCHEM_CACTVS_HBOND_DONOR>
2

> <PUBCHEM_CACTVS_ROTATABLE_BOND>
1

> <PUBCHEM_CACTVS_SUBSKEYS>
AAADcfB4OAAAAAAAAAAAAAAAAAAAAAAAAAAwYMGCAAAAAADAAAAAGgAACAAADxSggAICCAAAAgCIAqDSCAAAAAAgAAAACAEAAEgAEBIAAQAAQAAEgAAIAQOIyPCPgAAAAAAAAADAAAYAADAAAAAAAAAAAA==

> <PUBCHEM_IUPAC_OPENEYE_NAME>
(2S,4aS,6aR,6aS,6bR,8aR,10S,12aS,14bR)-10-hydroxy-2,4a,6a,6b,9,9,12a-heptamethyl-13-oxo-3,4,5,6,6a,7,8,8a,10,11,12,14b-dodecahydro-1H-picene-2-carboxylic acid

> <PUBCHEM_IUPAC_CAS_NAME>
(2S,4aS,6aR,6aS,6bR,8aR,10S,12aS,14bR)-10-hydroxy-2,4a,6a,6b,9,9,12a-heptamethyl-13-oxo-3,4,5,6,6a,7,8,8a,10,11,12,14b-dodecahydro-1H-picene-2-carboxylic acid

> <PUBCHEM_IUPAC_NAME>
(2S,4aS,6aR,6aS,6bR,8aR,10S,12aS,14bR)-10-hydroxy-2,4a,6a,6b,9,9,12a-heptamethyl-13-oxo-3,4,5,6,6a,7,8,8a,10,11,12,14b-dodecahydro-1H-picene-2-carboxylic acid

> <PUBCHEM_IUPAC_SYSTEMATIC_NAME>
(2S,4aS,6aR,6aS,6bR,8aR,10S,12aS,14bR)-2,4a,6a,6b,9,9,12a-heptamethyl-10-oxidanyl-13-oxidanylidene-3,4,5,6,6a,7,8,8a,10,11,12,14b-dodecahydro-1H-picene-2-carboxylic acid

> <PUBCHEM_IUPAC_TRADITIONAL_NAME>
(2S,4aS,6aR,6aS,6bR,8aR,10S,12aS,14bR)-10-hydroxy-13-keto-2,4a,6a,6b,9,9,12a-heptamethyl-3,4,5,6,6a,7,8,8a,10,11,12,14b-dodecahydro-1H-picene-2-carboxylic acid

> <PUBCHEM_IUPAC_INCHI>
InChI=1S/C30H46O4/c1-25(2)21-8-11-30(7)23(28(21,5)10-9-22(25)32)20(31)16-18-19-17-27(4,24(33)34)13-12-26(19,3)14-15-29(18,30)6/h16,19,21-23,32H,8-15,17H2,1-7H3,(H,33,34)/t19-,21-,22-,23+,26+,27-,28-,29+,30+/m0/s1

> <PUBCHEM_IUPAC_INCHIKEY>
MPDGHEJMBKOTSU-YKLVYJNSSA-N

> <PUBCHEM_XLOGP3_AA>
6.4

> <PUBCHEM_EXACT_MASS>
470.33961

> <PUBCHEM_MOLECULAR_FORMULA>
C30H46O4

> <PUBCHEM_MOLECULAR_WEIGHT>
470.68384

> <PUBCHEM_OPENEYE_CAN_SMILES>
CC1(C2CCC3(C(C2(CCC1O)C)C(=O)C=C4C3(CCC5(C4CC(CC5)(C)C(=O)O)C)C)C)C

> <PUBCHEM_OPENEYE_ISO_SMILES>
C[C@]12CC[C@](C[C@H]1C3=CC(=O)[C@@H]4[C@]5(CC[C@@H](C([C@@H]5CC[C@]4([C@@]3(CC2)C)C)(C)C)O)C)(C)C(=O)O

> <PUBCHEM_CACTVS_TPSA>
74.6

> <PUBCHEM_MONOISOTOPIC_WEIGHT>
470.33961

> <PUBCHEM_TOTAL_CHARGE>
0

> <PUBCHEM_HEAVY_ATOM_COUNT>
34

> <PUBCHEM_ATOM_DEF_STEREO_COUNT>
9

> <PUBCHEM_ATOM_UDEF_STEREO_COUNT>
0

> <PUBCHEM_BOND_DEF_STEREO_COUNT>
0

> <PUBCHEM_BOND_UDEF_STEREO_COUNT>
0

> <PUBCHEM_ISOTOPIC_ATOM_COUNT>
0

> <PUBCHEM_COMPONENT_COUNT>
1

> <PUBCHEM_CACTVS_TAUTO_COUNT>
5

> <PUBCHEM_COORDINATE_TYPE>
1
5
255

> <PUBCHEM_BONDANNOTATIONS>
21  1  5
14  41  5
15  32  5
28  33  6
5  20  5
6  22  5
7  35  6
8  24  6
9  36  6

$$$$

