16019959
  -OEChem-07051212483D

 23 22  0     1  0  0  0  0  0999 V2000
    2.7221   -0.9537   -0.2053 S   0  0  2  0  0  0  0  0  0  0  0  0
   -2.4344   -0.7759    0.1195 P   0  0  0  0  0  0  0  0  0  0  0  0
   -1.6900   -1.6181   -1.0575 O   0  0  0  0  0  0  0  0  0  0  0  0
   -3.9873   -0.9929   -0.3158 O   0  0  0  0  0  0  0  0  0  0  0  0
   -2.1664   -1.3842    1.4731 O   0  0  0  0  0  0  0  0  0  0  0  0
    4.0845   -1.4310    0.5025 O   0  0  0  0  0  0  0  0  0  0  0  0
    3.0711   -0.4304   -1.5626 O   0  0  0  0  0  0  0  0  0  0  0  0
   -2.0979    0.8215   -0.1630 N   0  0  0  0  0  0  0  0  0  0  0  0
    0.1931    0.7221    0.3469 N   0  0  0  0  0  0  0  0  0  0  0  0
   -0.8711    2.7313   -0.4136 N   0  0  0  0  0  0  0  0  0  0  0  0
    1.4647    1.4284    0.4268 C   0  0  0  0  0  0  0  0  0  0  0  0
    2.5530    0.4823    0.9017 C   0  0  0  0  0  0  0  0  0  0  0  0
   -0.8416    1.4005   -0.0527 C   0  0  0  0  0  0  0  0  0  0  0  0
    1.7387    1.8342   -0.5551 H   0  0  0  0  0  0  0  0  0  0  0  0
    1.3963    2.2614    1.1368 H   0  0  0  0  0  0  0  0  0  0  0  0
    2.3233    0.0977    1.9009 H   0  0  0  0  0  0  0  0  0  0  0  0
    3.5124    1.0087    0.9411 H   0  0  0  0  0  0  0  0  0  0  0  0
   -2.8380    1.4501   -0.4680 H   0  0  0  0  0  0  0  0  0  0  0  0
   -1.7319    3.1757   -0.7141 H   0  0  0  0  0  0  0  0  0  0  0  0
   -0.0428    3.3152   -0.3924 H   0  0  0  0  0  0  0  0  0  0  0  0
   -1.7353   -2.5978   -1.0342 H   0  0  0  0  0  0  0  0  0  0  0  0
   -4.3951   -1.8740   -0.1765 H   0  0  0  0  0  0  0  0  0  0  0  0
    4.7047   -1.8078   -0.1650 H   0  0  0  0  0  0  0  0  0  0  0  0
  1  6  1  0  0  0  0
  1  7  2  0  0  0  0
  1 12  1  0  0  0  0
  2  3  1  0  0  0  0
  2  4  1  0  0  0  0
  2  5  2  0  0  0  0
  2  8  1  0  0  0  0
  3 21  1  0  0  0  0
  4 22  1  0  0  0  0
  6 23  1  0  0  0  0
  8 13  1  0  0  0  0
  8 18  1  0  0  0  0
  9 11  1  0  0  0  0
  9 13  2  0  0  0  0
 10 13  1  0  0  0  0
 10 19  1  0  0  0  0
 10 20  1  0  0  0  0
 11 12  1  0  0  0  0
 11 14  1  0  0  0  0
 11 15  1  0  0  0  0
 12 16  1  0  0  0  0
 12 17  1  0  0  0  0
M  END
> <PUBCHEM_COMPOUND_CID>
16019959

> <PUBCHEM_CONFORMER_RMSD>
0.6

> <PUBCHEM_CONFORMER_DIVERSEORDER>
1
8
60
12
54
98
151
34
128
72
122
136
56
11
129
10
102
140
5
117
41
26
13
50
134
75
22
165
150
2
161
100
37
70
7
91
45
155
59
24
19
116
130
15
111
99
127
97
158
38
115
93
31
62
43
154
17
18
66
124
78
53
157
145
81
106
104
29
146
90
92
79
139
28
55
148
61
86
112
156
21
164
58
83
88
163
68
51
103
35
147
85
27
16
94
137
47
14
133
63
168
96
44
101
80
131
69
87
84
23
48
162
67
144
167
105
114
110
142
25
71
118
152
135
89
121
20
141
143
126
125
4
33
149
160
159
119
108
123
52
153
3
82
40
77
107
46
74
39
49
138
32
9
166
57
6
113
132
109
42
65
36
73
76
95
64
120
30

> <PUBCHEM_MMFF94_PARTIAL_CHARGES>
19
1 0.36
10 -0.85
11 0.25
12 0.19
13 0.55
18 0.4
19 0.4
2 1.52
20 0.4
21 0.5
22 0.5
23 0.5
3 -0.77
4 -0.77
5 -0.7
6 -0.55
7 -0.5
8 -0.73
9 -0.7

> <PUBCHEM_EFFECTIVE_ROTOR_COUNT>
5

> <PUBCHEM_PHARMACOPHORE_FEATURES>
7
1 10 donor
1 3 acceptor
1 4 acceptor
1 5 acceptor
1 8 donor
4 2 3 4 5 anion
4 8 9 10 13 cation

> <PUBCHEM_HEAVY_ATOM_COUNT>
13

> <PUBCHEM_ATOM_DEF_STEREO_COUNT>
0

> <PUBCHEM_ATOM_UDEF_STEREO_COUNT>
0

> <PUBCHEM_BOND_DEF_STEREO_COUNT>
0

> <PUBCHEM_BOND_UDEF_STEREO_COUNT>
0

> <PUBCHEM_ISOTOPIC_ATOM_COUNT>
0

> <PUBCHEM_COMPONENT_COUNT>
1

> <PUBCHEM_CACTVS_TAUTO_COUNT>
5

> <PUBCHEM_CONFORMER_ID>
00F471F700000001

> <PUBCHEM_MMFF94_ENERGY>
-16.2467

> <PUBCHEM_FEATURE_SELFOVERLAP>
35.621

> <PUBCHEM_SHAPE_FINGERPRINT>
10618630 7 18411421682851937423
14115302 16 17561366170854296723
14252887 29 18267023864569356321
19766037 51 18272075068147648490
20201158 50 18411704261704107498
20281407 28 18335417950256330096
20645476 183 17273696674661117633
20711983 138 18272368655185270147
20711985 344 18271533107852623937
20711985 365 18409733988559889933
20871998 22 18338802212745207401
20871999 31 18202285835507378957
21061003 4 17313105289146371776
22721475 48 18335132107366386154
23557571 272 17846514616372645740
23598291 2 17773300447950171654
81228 2 18343026609597506513

> <PUBCHEM_SHAPE_MULTIPOLES>
230.94
6.32
2.19
1.07
1.49
0.99
-0.04
-3.86
-0.11
-0.55
-0.17
0.28
-0.32
0.36

> <PUBCHEM_SHAPE_SELFOVERLAP>
412.375

> <PUBCHEM_SHAPE_VOLUME>
149.9

> <PUBCHEM_COORDINATE_TYPE>
2
5
10

$$$$

