24892798
  -OEChem-07051213093D

 98 98  0     1  0  0  0  0  0999 V2000
    2.0749   -3.7111    0.9508 S   0  0  0  0  0  0  0  0  0  0  0  0
    0.9174   -3.1653   -0.6621 S   0  0  0  0  0  0  0  0  0  0  0  0
    2.6359    0.6860    3.3620 O   0  0  0  0  0  0  0  0  0  0  0  0
    0.8722    3.0712    1.3690 O   0  0  0  0  0  0  0  0  0  0  0  0
   -3.3809   -4.6412   -0.0160 O   0  0  0  0  0  0  0  0  0  0  0  0
    4.1150    0.5738   -0.0700 O   0  0  0  0  0  0  0  0  0  0  0  0
   -1.4829   -1.3317   -3.3056 O   0  0  0  0  0  0  0  0  0  0  0  0
   -7.1511   -3.0610    0.8966 O   0  0  0  0  0  0  0  0  0  0  0  0
    8.8677   -1.8683    1.1512 O   0  0  0  0  0  0  0  0  0  0  0  0
    1.1415    1.7832   -4.9540 O   0  0  0  0  0  0  0  0  0  0  0  0
    9.2183   -1.5557   -1.0670 O   0  0  0  0  0  0  0  0  0  0  0  0
    2.2968    2.7786   -3.2761 O   0  0  0  0  0  0  0  0  0  0  0  0
   -5.8104    2.1717    0.8122 N   0  0  0  0  0  0  0  0  0  0  0  0
   -1.3086    3.4392    2.0734 N   0  0  0  0  0  0  0  0  0  0  0  0
    3.8273   -0.9929    1.6212 N   0  0  0  0  0  0  0  0  0  0  0  0
   -5.5486   -1.4017    0.6933 N   0  0  0  0  0  0  0  0  0  0  0  0
   -1.8535   -1.6441   -1.0338 N   0  0  0  0  0  0  0  0  0  0  0  0
    0.5891    0.4781    2.2827 N   0  0  0  0  0  0  0  0  0  0  0  0
   -4.2634   -2.8596   -1.1948 N   0  0  0  0  0  0  0  0  0  0  0  0
    9.1553    1.1686   -0.6528 N   0  0  0  0  0  0  0  0  0  0  0  0
    1.0894    1.3579   -1.3612 N   0  0  0  0  0  0  0  0  0  0  0  0
   -3.2065    3.3421   -0.3119 C   0  0  0  0  0  0  0  0  0  0  0  0
   -4.4874    4.1053    0.0423 C   0  0  0  0  0  0  0  0  0  0  0  0
   -1.9424    4.2020   -0.1947 C   0  0  0  0  0  0  0  0  0  0  0  0
   -5.7503    3.2615   -0.1614 C   0  0  0  0  0  0  0  0  0  0  0  0
   -1.5731    4.5956    1.2364 C   0  0  0  0  0  0  0  0  0  0  0  0
   -6.9599    1.3027    0.5684 C   0  0  0  0  0  0  0  0  0  0  0  0
   -7.1185    0.2529    1.6753 C   0  0  0  0  0  0  0  0  0  0  0  0
   -5.9030   -0.6517    1.8830 C   0  0  0  0  0  0  0  0  0  0  0  0
    2.3863   -0.9943    1.6266 C   0  0  1  0  0  0  0  0  0  0  0  0
   -1.8341   -3.0874   -1.0431 C   0  0  1  0  0  0  0  0  0  0  0  0
    1.8183   -2.3272    2.1193 C   0  0  0  0  0  0  0  0  0  0  0  0
   -0.7548   -3.6462   -0.1098 C   0  0  0  0  0  0  0  0  0  0  0  0
    6.0698   -0.4073    0.9688 C   0  0  0  0  0  0  0  0  0  0  0  0
    6.9141    0.4590    0.0317 C   0  0  0  0  0  0  0  0  0  0  0  0
   -1.7326    0.6060   -1.8752 C   0  0  0  0  0  0  0  0  0  0  0  0
   -0.8679    1.4312   -2.8304 C   0  0  0  0  0  0  0  0  0  0  0  0
   -0.1049    2.7521    2.0434 C   0  0  0  0  0  0  0  0  0  0  0  0
    1.9177    0.1495    2.5218 C   0  0  0  0  0  0  0  0  0  0  0  0
   -0.1042    1.5505    2.9651 C   0  0  0  0  0  0  0  0  0  0  0  0
   -3.2226   -3.5958   -0.6466 C   0  0  0  0  0  0  0  0  0  0  0  0
    4.5788   -0.1998    0.7633 C   0  0  0  0  0  0  0  0  0  0  0  0
    8.4194    0.3118    0.2800 C   0  0  1  0  0  0  0  0  0  0  0  0
   -1.6740   -0.8815   -2.1792 C   0  0  0  0  0  0  0  0  0  0  0  0
    0.6235    1.0942   -2.7247 C   0  0  1  0  0  0  0  0  0  0  0  0
   -5.6575   -3.1817   -0.9704 C   0  0  0  0  0  0  0  0  0  0  0  0
   -6.1733   -2.5798    0.3243 C   0  0  0  0  0  0  0  0  0  0  0  0
    8.8842   -1.1104    0.0238 C   0  0  0  0  0  0  0  0  0  0  0  0
    1.4537    1.9706   -3.6452 C   0  0  0  0  0  0  0  0  0  0  0  0
   -3.2913    3.0136   -1.3535 H   0  0  0  0  0  0  0  0  0  0  0  0
   -3.0964    2.4434    0.3024 H   0  0  0  0  0  0  0  0  0  0  0  0
   -4.4496    4.4577    1.0795 H   0  0  0  0  0  0  0  0  0  0  0  0
   -4.5600    4.9973   -0.5921 H   0  0  0  0  0  0  0  0  0  0  0  0
   -1.1051    3.6478   -0.6327 H   0  0  0  0  0  0  0  0  0  0  0  0
   -2.0636    5.1116   -0.7949 H   0  0  0  0  0  0  0  0  0  0  0  0
   -6.6254    3.9101   -0.0367 H   0  0  0  0  0  0  0  0  0  0  0  0
   -5.7662    2.8695   -1.1855 H   0  0  0  0  0  0  0  0  0  0  0  0
   -0.6723    5.2193    1.2195 H   0  0  0  0  0  0  0  0  0  0  0  0
   -2.3699    5.1740    1.7127 H   0  0  0  0  0  0  0  0  0  0  0  0
   -6.8586    0.8052   -0.4034 H   0  0  0  0  0  0  0  0  0  0  0  0
   -7.8796    1.8995    0.5367 H   0  0  0  0  0  0  0  0  0  0  0  0
   -4.9591    1.6158    0.7623 H   0  0  0  0  0  0  0  0  0  0  0  0
   -7.9951   -0.3631    1.4394 H   0  0  0  0  0  0  0  0  0  0  0  0
   -7.3397    0.7599    2.6231 H   0  0  0  0  0  0  0  0  0  0  0  0
   -5.0210   -0.0804    2.1887 H   0  0  0  0  0  0  0  0  0  0  0  0
   -6.1219   -1.3675    2.6837 H   0  0  0  0  0  0  0  0  0  0  0  0
    2.0410   -0.7666    0.6123 H   0  0  0  0  0  0  0  0  0  0  0  0
   -1.6611   -3.4488   -2.0649 H   0  0  0  0  0  0  0  0  0  0  0  0
   -2.0576    3.1146    2.6776 H   0  0  0  0  0  0  0  0  0  0  0  0
    2.2966   -2.6118    3.0643 H   0  0  0  0  0  0  0  0  0  0  0  0
    0.7467   -2.2552    2.3328 H   0  0  0  0  0  0  0  0  0  0  0  0
   -0.9234   -3.2748    0.9073 H   0  0  0  0  0  0  0  0  0  0  0  0
   -0.8005   -4.7402   -0.0839 H   0  0  0  0  0  0  0  0  0  0  0  0
    6.3082   -0.1722    2.0128 H   0  0  0  0  0  0  0  0  0  0  0  0
    6.2758   -1.4703    0.8012 H   0  0  0  0  0  0  0  0  0  0  0  0
    6.6748    0.1914   -1.0068 H   0  0  0  0  0  0  0  0  0  0  0  0
    6.6249    1.5111    0.1561 H   0  0  0  0  0  0  0  0  0  0  0  0
   -2.7819    0.8944   -2.0061 H   0  0  0  0  0  0  0  0  0  0  0  0
   -1.4766    0.8044   -0.8300 H   0  0  0  0  0  0  0  0  0  0  0  0
   -1.2051    1.2596   -3.8609 H   0  0  0  0  0  0  0  0  0  0  0  0
   -1.0307    2.4989   -2.6420 H   0  0  0  0  0  0  0  0  0  0  0  0
    4.3097   -1.5537    2.3181 H   0  0  0  0  0  0  0  0  0  0  0  0
   -4.7898   -1.0450    0.1202 H   0  0  0  0  0  0  0  0  0  0  0  0
    0.4024    1.8136    3.8977 H   0  0  0  0  0  0  0  0  0  0  0  0
   -1.1187    1.2033    3.1788 H   0  0  0  0  0  0  0  0  0  0  0  0
   -2.0519   -1.1803   -0.1519 H   0  0  0  0  0  0  0  0  0  0  0  0
    8.6805    0.6020    1.3038 H   0  0  0  0  0  0  0  0  0  0  0  0
    0.8325    0.0497   -2.9781 H   0  0  0  0  0  0  0  0  0  0  0  0
    0.0763   -0.0259    1.5648 H   0  0  0  0  0  0  0  0  0  0  0  0
   -5.7769   -4.2687   -0.9307 H   0  0  0  0  0  0  0  0  0  0  0  0
   -6.2360   -2.7750   -1.8047 H   0  0  0  0  0  0  0  0  0  0  0  0
   -4.0509   -2.0394   -1.7541 H   0  0  0  0  0  0  0  0  0  0  0  0
   10.1507    1.1346   -0.4348 H   0  0  0  0  0  0  0  0  0  0  0  0
    8.8705    2.1387   -0.5223 H   0  0  0  0  0  0  0  0  0  0  0  0
    2.0876    1.1578   -1.2979 H   0  0  0  0  0  0  0  0  0  0  0  0
    0.6430    0.7144   -0.7099 H   0  0  0  0  0  0  0  0  0  0  0  0
    9.1561   -2.7894    0.9766 H   0  0  0  0  0  0  0  0  0  0  0  0
    1.6724    2.3610   -5.5428 H   0  0  0  0  0  0  0  0  0  0  0  0
  1  2  1  0  0  0  0
  1 32  1  0  0  0  0
  2 33  1  0  0  0  0
  3 39  2  0  0  0  0
  4 38  2  0  0  0  0
  5 41  2  0  0  0  0
  6 42  2  0  0  0  0
  7 44  2  0  0  0  0
  8 47  2  0  0  0  0
  9 48  1  0  0  0  0
  9 97  1  0  0  0  0
 10 49  1  0  0  0  0
 10 98  1  0  0  0  0
 11 48  2  0  0  0  0
 12 49  2  0  0  0  0
 13 25  1  0  0  0  0
 13 27  1  0  0  0  0
 13 62  1  0  0  0  0
 14 26  1  0  0  0  0
 14 38  1  0  0  0  0
 14 69  1  0  0  0  0
 15 30  1  0  0  0  0
 15 42  1  0  0  0  0
 15 82  1  0  0  0  0
 16 29  1  0  0  0  0
 16 47  1  0  0  0  0
 16 83  1  0  0  0  0
 17 31  1  0  0  0  0
 17 44  1  0  0  0  0
 17 86  1  0  0  0  0
 18 39  1  0  0  0  0
 18 40  1  0  0  0  0
 18 89  1  0  0  0  0
 19 41  1  0  0  0  0
 19 46  1  0  0  0  0
 19 92  1  0  0  0  0
 20 43  1  0  0  0  0
 20 93  1  0  0  0  0
 20 94  1  0  0  0  0
 21 45  1  0  0  0  0
 21 95  1  0  0  0  0
 21 96  1  0  0  0  0
 22 23  1  0  0  0  0
 22 24  1  0  0  0  0
 22 50  1  0  0  0  0
 22 51  1  0  0  0  0
 23 25  1  0  0  0  0
 23 52  1  0  0  0  0
 23 53  1  0  0  0  0
 24 26  1  0  0  0  0
 24 54  1  0  0  0  0
 24 55  1  0  0  0  0
 25 56  1  0  0  0  0
 25 57  1  0  0  0  0
 26 58  1  0  0  0  0
 26 59  1  0  0  0  0
 27 28  1  0  0  0  0
 27 60  1  0  0  0  0
 27 61  1  0  0  0  0
 28 29  1  0  0  0  0
 28 63  1  0  0  0  0
 28 64  1  0  0  0  0
 29 65  1  0  0  0  0
 29 66  1  0  0  0  0
 30 32  1  0  0  0  0
 30 39  1  0  0  0  0
 30 67  1  0  0  0  0
 31 33  1  0  0  0  0
 31 41  1  0  0  0  0
 31 68  1  0  0  0  0
 32 70  1  0  0  0  0
 32 71  1  0  0  0  0
 33 72  1  0  0  0  0
 33 73  1  0  0  0  0
 34 35  1  0  0  0  0
 34 42  1  0  0  0  0
 34 74  1  0  0  0  0
 34 75  1  0  0  0  0
 35 43  1  0  0  0  0
 35 76  1  0  0  0  0
 35 77  1  0  0  0  0
 36 37  1  0  0  0  0
 36 44  1  0  0  0  0
 36 78  1  0  0  0  0
 36 79  1  0  0  0  0
 37 45  1  0  0  0  0
 37 80  1  0  0  0  0
 37 81  1  0  0  0  0
 38 40  1  0  0  0  0
 40 84  1  0  0  0  0
 40 85  1  0  0  0  0
 43 48  1  0  0  0  0
 43 87  1  0  0  0  0
 45 49  1  0  0  0  0
 45 88  1  0  0  0  0
 46 47  1  0  0  0  0
 46 90  1  0  0  0  0
 46 91  1  0  0  0  0
M  END
> <PUBCHEM_COMPOUND_CID>
24892798

> <PUBCHEM_CONFORMER_RMSD>
1.4

> <PUBCHEM_CONFORMER_DIVERSEORDER>
1
43
10
13
28
25
12
36
37
47
18
41
35
32
33
42
8
27
15
24
40
46
21
48
6
45
23
44
30
2
11
29
31
38
4
26
3
39
14
19
22
17
34
20
7
16
5
9

> <PUBCHEM_MMFF94_PARTIAL_CHARGES>
56
1 -0.23
10 -0.65
11 -0.57
12 -0.57
13 -0.9
14 -0.73
15 -0.73
16 -0.73
17 -0.73
18 -0.73
19 -0.73
2 -0.23
20 -0.99
21 -0.99
25 0.27
26 0.3
27 0.27
29 0.3
3 -0.57
30 0.36
31 0.36
32 0.23
33 0.23
34 0.06
36 0.06
38 0.57
39 0.57
4 -0.57
40 0.36
41 0.57
42 0.57
43 0.33
44 0.57
45 0.33
46 0.36
47 0.57
48 0.66
49 0.66
5 -0.57
6 -0.57
62 0.36
69 0.37
7 -0.57
8 -0.57
82 0.37
83 0.37
86 0.37
89 0.37
9 -0.65
92 0.37
93 0.36
94 0.36
95 0.36
96 0.36
97 0.5
98 0.5

> <PUBCHEM_EFFECTIVE_ROTOR_COUNT>
16.2

> <PUBCHEM_PHARMACOPHORE_FEATURES>
24
1 10 acceptor
1 11 acceptor
1 12 acceptor
1 13 cation
1 13 donor
1 14 donor
1 15 donor
1 16 donor
1 17 donor
1 18 donor
1 19 donor
1 20 cation
1 20 donor
1 21 cation
1 21 donor
1 3 acceptor
1 4 acceptor
1 5 acceptor
1 6 acceptor
1 7 acceptor
1 8 acceptor
1 9 acceptor
3 10 12 49 anion
3 9 11 48 anion

> <PUBCHEM_HEAVY_ATOM_COUNT>
49

> <PUBCHEM_ATOM_DEF_STEREO_COUNT>
4

> <PUBCHEM_ATOM_UDEF_STEREO_COUNT>
0

> <PUBCHEM_BOND_DEF_STEREO_COUNT>
0

> <PUBCHEM_BOND_UDEF_STEREO_COUNT>
0

> <PUBCHEM_ISOTOPIC_ATOM_COUNT>
0

> <PUBCHEM_COMPONENT_COUNT>
1

> <PUBCHEM_CACTVS_TAUTO_COUNT>
64

> <PUBCHEM_CONFORMER_ID>
017BD57E00000001

> <PUBCHEM_MMFF94_ENERGY>
50.8327

> <PUBCHEM_FEATURE_SELFOVERLAP>
121.919

> <PUBCHEM_SHAPE_FINGERPRINT>
10462385 53 15140961807349359048
10581848 127 18129957783416046933
12156800 1 17752174289167198633
13947930 73 17906473360620673595
14040221 10 18335702719942423103
15444296 7 18130215038750740197
15444296 8 18041002778285992868

> <PUBCHEM_SHAPE_MULTIPOLES>
912.57
20.87
6.33
3.65
36.86
0.14
-2.99
-5.79
5.18
-9.95
-0.02
1.12
2.45
-2.2

> <PUBCHEM_SHAPE_SELFOVERLAP>
1775.562

> <PUBCHEM_SHAPE_VOLUME>
546.7

> <PUBCHEM_COORDINATE_TYPE>
2
5
10

$$$$

