3198
  -OEChem-07051212543D

 39 41  0     1  0  0  0  0  0999 V2000
    2.6426   -0.1559   -2.6541 Cl  0  0  0  0  0  0  0  0  0  0  0  0
    4.8149   -3.7797    0.6805 Cl  0  0  0  0  0  0  0  0  0  0  0  0
   -6.2144   -2.3560    0.4727 Cl  0  0  0  0  0  0  0  0  0  0  0  0
   -0.2235    0.4157    0.0783 O   0  0  0  0  0  0  0  0  0  0  0  0
    0.5577    3.2036    0.5094 N   0  0  0  0  0  0  0  0  0  0  0  0
   -0.1627    5.1123   -0.3307 N   0  0  0  0  0  0  0  0  0  0  0  0
    1.1005    0.8583   -0.1856 C   0  0  1  0  0  0  0  0  0  0  0  0
    1.4187    2.0481    0.7311 C   0  0  0  0  0  0  0  0  0  0  0  0
    2.0438   -0.3085    0.0002 C   0  0  0  0  0  0  0  0  0  0  0  0
   -0.6078   -0.6331   -0.8021 C   0  0  0  0  0  0  0  0  0  0  0  0
    2.7697   -0.8175   -1.0650 C   0  0  0  0  0  0  0  0  0  0  0  0
    2.1567   -0.8502    1.2718 C   0  0  0  0  0  0  0  0  0  0  0  0
   -2.0011   -1.0607   -0.4846 C   0  0  0  0  0  0  0  0  0  0  0  0
   -0.6214    3.4465    1.1363 C   0  0  0  0  0  0  0  0  0  0  0  0
    0.8009    4.2185   -0.3596 C   0  0  0  0  0  0  0  0  0  0  0  0
    3.6301   -1.8951   -0.8543 C   0  0  0  0  0  0  0  0  0  0  0  0
    3.0170   -1.9276    1.4825 C   0  0  0  0  0  0  0  0  0  0  0  0
    3.7536   -2.4501    0.4195 C   0  0  0  0  0  0  0  0  0  0  0  0
   -1.0522    4.6373    0.6002 C   0  0  0  0  0  0  0  0  0  0  0  0
   -2.2243   -2.0753    0.4460 C   0  0  0  0  0  0  0  0  0  0  0  0
   -3.0808   -0.4464   -1.1191 C   0  0  0  0  0  0  0  0  0  0  0  0
   -3.5271   -2.4759    0.7421 C   0  0  0  0  0  0  0  0  0  0  0  0
   -4.3838   -0.8468   -0.8230 C   0  0  0  0  0  0  0  0  0  0  0  0
   -4.6070   -1.8616    0.1077 C   0  0  0  0  0  0  0  0  0  0  0  0
    1.1061    1.2500   -1.2070 H   0  0  0  0  0  0  0  0  0  0  0  0
    1.2969    1.7893    1.7899 H   0  0  0  0  0  0  0  0  0  0  0  0
    2.4530    2.3854    0.5909 H   0  0  0  0  0  0  0  0  0  0  0  0
   -0.5537   -0.2864   -1.8421 H   0  0  0  0  0  0  0  0  0  0  0  0
    0.0357   -1.5151   -0.7168 H   0  0  0  0  0  0  0  0  0  0  0  0
    1.5820   -0.4688    2.1105 H   0  0  0  0  0  0  0  0  0  0  0  0
   -1.0450    2.7854    1.8796 H   0  0  0  0  0  0  0  0  0  0  0  0
    1.6816    4.2616   -0.9859 H   0  0  0  0  0  0  0  0  0  0  0  0
    4.2055   -2.3039   -1.6823 H   0  0  0  0  0  0  0  0  0  0  0  0
    3.1008   -2.3522    2.4796 H   0  0  0  0  0  0  0  0  0  0  0  0
   -1.9583    5.1760    0.8365 H   0  0  0  0  0  0  0  0  0  0  0  0
   -1.3916   -2.5599    0.9490 H   0  0  0  0  0  0  0  0  0  0  0  0
   -2.9199    0.3471   -1.8442 H   0  0  0  0  0  0  0  0  0  0  0  0
   -3.6860   -3.2676    1.4698 H   0  0  0  0  0  0  0  0  0  0  0  0
   -5.2154   -0.3588   -1.3247 H   0  0  0  0  0  0  0  0  0  0  0  0
  1 11  1  0  0  0  0
  2 18  1  0  0  0  0
  3 24  1  0  0  0  0
  4  7  1  0  0  0  0
  4 10  1  0  0  0  0
  5  8  1  0  0  0  0
  5 14  1  0  0  0  0
  5 15  1  0  0  0  0
  6 15  2  0  0  0  0
  6 19  1  0  0  0  0
  7  8  1  0  0  0  0
  7  9  1  0  0  0  0
  7 25  1  0  0  0  0
  8 26  1  0  0  0  0
  8 27  1  0  0  0  0
  9 11  2  0  0  0  0
  9 12  1  0  0  0  0
 10 13  1  0  0  0  0
 10 28  1  0  0  0  0
 10 29  1  0  0  0  0
 11 16  1  0  0  0  0
 12 17  2  0  0  0  0
 12 30  1  0  0  0  0
 13 20  2  0  0  0  0
 13 21  1  0  0  0  0
 14 19  2  0  0  0  0
 14 31  1  0  0  0  0
 15 32  1  0  0  0  0
 16 18  2  0  0  0  0
 16 33  1  0  0  0  0
 17 18  1  0  0  0  0
 17 34  1  0  0  0  0
 19 35  1  0  0  0  0
 20 22  1  0  0  0  0
 20 36  1  0  0  0  0
 21 23  2  0  0  0  0
 21 37  1  0  0  0  0
 22 24  2  0  0  0  0
 22 38  1  0  0  0  0
 23 24  1  0  0  0  0
 23 39  1  0  0  0  0
M  END
> <PUBCHEM_COMPOUND_CID>
3198

> <PUBCHEM_CONFORMER_RMSD>
0.8

> <PUBCHEM_CONFORMER_DIVERSEORDER>
1
31
25
63
6
43
27
32
26
53
60
45
42
22
35
12
33
9
56
55
18
4
59
37
14
58
20
48
57
23
73
47
61
2
8
36
41
17
29
7
24
51
44
30
69
46
68
11
66
38
10
16
34
13
15
72
28
21
67
5
64
62
3
39
71
54
19
50
52
65
40
49
70

> <PUBCHEM_MMFF94_PARTIAL_CHARGES>
34
1 -0.18
10 0.42
11 0.18
12 -0.15
13 -0.14
14 -0.3
15 0.04
16 -0.15
17 -0.15
18 0.18
19 0.08
2 -0.18
20 -0.15
21 -0.15
22 -0.15
23 -0.15
24 0.18
3 -0.18
30 0.15
31 0.15
32 0.15
33 0.15
34 0.15
35 0.15
36 0.15
37 0.15
38 0.15
39 0.15
4 -0.56
5 0.05
6 -0.57
7 0.42
8 0.26
9 -0.14

> <PUBCHEM_EFFECTIVE_ROTOR_COUNT>
6

> <PUBCHEM_PHARMACOPHORE_FEATURES>
5
1 4 acceptor
3 5 6 15 cation
5 5 6 14 15 19 rings
6 13 20 21 22 23 24 rings
6 9 11 12 16 17 18 rings

> <PUBCHEM_HEAVY_ATOM_COUNT>
24

> <PUBCHEM_ATOM_DEF_STEREO_COUNT>
0

> <PUBCHEM_ATOM_UDEF_STEREO_COUNT>
1

> <PUBCHEM_BOND_DEF_STEREO_COUNT>
0

> <PUBCHEM_BOND_UDEF_STEREO_COUNT>
0

> <PUBCHEM_ISOTOPIC_ATOM_COUNT>
0

> <PUBCHEM_COMPONENT_COUNT>
1

> <PUBCHEM_CACTVS_TAUTO_COUNT>
1

> <PUBCHEM_CONFORMER_ID>
00000C7E00000001

> <PUBCHEM_MMFF94_ENERGY>
55.0388

> <PUBCHEM_FEATURE_SELFOVERLAP>
25.371

> <PUBCHEM_SHAPE_FINGERPRINT>
10074138 170 17691435291506807850
121448 382 17469619858516625452
12160290 23 17754160196156293477
12293681 160 17910643533626105908
12403259 226 18342747286842029239
12553582 1 18337094744069924419
12707595 3 18411137996141753487
12788726 201 18267575982810688822
13009979 54 18199742712451931774
13052359 8 17833273403696757516
13134695 92 18337964406259354735
13140716 1 18334861670540490225
13533116 47 18197214755496043635
13583140 156 18196661687956331207
13681431 1 18262521372985713840
13878862 14 18194139430284044181
13911987 19 17912338972019092204
13955234 65 18050281475688029043
14114211 80 17117742663328531069
14251757 5 18196654209921922301
14866123 147 17617948370765493883
15042514 8 18121215639198378065
15842332 3 17842251934683075838
17868525 174 18410013204979752745
1813 80 18114452409837029263
20369508 70 18340491058463712207
20832881 197 18342740732606222259
21033648 29 16660637509970930211
21049683 271 18200025119367909188
21120745 212 18337658832806916252
21344244 78 18188502263552764987
21524375 3 17038111619537691092
22033318 11 17900785428678300099
23559900 14 18268436737607556203
23598288 3 17838591694480214408
23845131 108 17114108764075420915
266924 1 18128234861838544102
3091708 16 9065996201777496625
3380486 145 17829935063288294926
6086070 43 18339656598743572967
621550 5 18131637789848763647
6442390 28 17115504039919835673
6786 2 17259618149922113444
77188 2 18411140233750759472
81228 2 18117563039864207976
9841814 1 18336543807335098315

> <PUBCHEM_SHAPE_MULTIPOLES>
483.69
9.34
6.41
1.48
9.21
11.05
0.67
-15.08
-0.42
-0.77
-1.95
-1.17
-0.21
-0.56

> <PUBCHEM_SHAPE_SELFOVERLAP>
1014.881

> <PUBCHEM_SHAPE_VOLUME>
276.6

> <PUBCHEM_COORDINATE_TYPE>
2
5
10

$$$$

