25202541
  -OEChem-07051213093D

 42 45  0     1  0  0  0  0  0999 V2000
    0.2581    0.1029    1.8720 O   0  0  0  0  0  0  0  0  0  0  0  0
    1.4089   -0.2705   -1.0543 N   0  0  1  0  0  0  0  0  0  0  0  0
   -4.0680   -1.3111   -0.2330 N   0  0  0  0  0  0  0  0  0  0  0  0
    3.5560   -0.8812    0.2807 C   0  0  1  0  0  0  0  0  0  0  0  0
    3.3024    0.6420    0.3216 C   0  0  2  0  0  0  0  0  0  0  0  0
    2.3139   -1.5565    0.8949 C   0  0  0  0  0  0  0  0  0  0  0  0
    1.0747   -1.1944    0.0565 C   0  0  1  0  0  0  0  0  0  0  0  0
    3.6565   -1.3521   -1.1827 C   0  0  0  0  0  0  0  0  0  0  0  0
    2.0634    0.9616   -0.5455 C   0  0  0  0  0  0  0  0  0  0  0  0
    2.3777   -0.9579   -1.9407 C   0  0  0  0  0  0  0  0  0  0  0  0
   -0.0110   -0.5739    0.8824 C   0  0  0  0  0  0  0  0  0  0  0  0
    4.5010    1.4398   -0.0963 C   0  0  0  0  0  0  0  0  0  0  0  0
   -1.4323   -0.7864    0.4883 C   0  0  0  0  0  0  0  0  0  0  0  0
    5.1317    2.3136    0.6957 C   0  0  0  0  0  0  0  0  0  0  0  0
   -2.2937    0.2706    0.1646 C   0  0  0  0  0  0  0  0  0  0  0  0
   -1.8895   -2.0959    0.4504 C   0  0  0  0  0  0  0  0  0  0  0  0
   -3.6215   -0.0413   -0.1955 C   0  0  0  0  0  0  0  0  0  0  0  0
   -1.8615    1.6073    0.1931 C   0  0  0  0  0  0  0  0  0  0  0  0
   -3.2047   -2.3022    0.0865 C   0  0  0  0  0  0  0  0  0  0  0  0
   -4.4768    1.0092   -0.5170 C   0  0  0  0  0  0  0  0  0  0  0  0
   -2.7380    2.6381   -0.1332 C   0  0  0  0  0  0  0  0  0  0  0  0
   -4.0472    2.3382   -0.4886 C   0  0  0  0  0  0  0  0  0  0  0  0
    4.4568   -1.1568    0.8403 H   0  0  0  0  0  0  0  0  0  0  0  0
    3.0559    0.9053    1.3605 H   0  0  0  0  0  0  0  0  0  0  0  0
    2.2214   -1.2774    1.9504 H   0  0  0  0  0  0  0  0  0  0  0  0
    2.4559   -2.6450    0.8771 H   0  0  0  0  0  0  0  0  0  0  0  0
    0.6794   -2.1248   -0.3698 H   0  0  0  0  0  0  0  0  0  0  0  0
    3.7795   -2.4417   -1.2115 H   0  0  0  0  0  0  0  0  0  0  0  0
    4.5358   -0.9235   -1.6752 H   0  0  0  0  0  0  0  0  0  0  0  0
    1.3571    1.5663    0.0322 H   0  0  0  0  0  0  0  0  0  0  0  0
    2.3242    1.5988   -1.4016 H   0  0  0  0  0  0  0  0  0  0  0  0
    2.6296   -0.3101   -2.7898 H   0  0  0  0  0  0  0  0  0  0  0  0
    1.9130   -1.8483   -2.3826 H   0  0  0  0  0  0  0  0  0  0  0  0
    4.8717    1.3153   -1.1105 H   0  0  0  0  0  0  0  0  0  0  0  0
    5.9895    2.8668    0.3292 H   0  0  0  0  0  0  0  0  0  0  0  0
    4.8089    2.4930    1.7152 H   0  0  0  0  0  0  0  0  0  0  0  0
   -1.2570   -2.9387    0.7066 H   0  0  0  0  0  0  0  0  0  0  0  0
   -0.8489    1.8842    0.4652 H   0  0  0  0  0  0  0  0  0  0  0  0
   -3.6189   -3.3042    0.0425 H   0  0  0  0  0  0  0  0  0  0  0  0
   -5.5073    0.8007   -0.7988 H   0  0  0  0  0  0  0  0  0  0  0  0
   -2.4009    3.6699   -0.1101 H   0  0  0  0  0  0  0  0  0  0  0  0
   -4.7380    3.1363   -0.7447 H   0  0  0  0  0  0  0  0  0  0  0  0
  1 11  2  0  0  0  0
  2  7  1  0  0  0  0
  2  9  1  0  0  0  0
  2 10  1  0  0  0  0
  3 17  1  0  0  0  0
  3 19  2  0  0  0  0
  4  5  1  0  0  0  0
  4  6  1  0  0  0  0
  4  8  1  0  0  0  0
  4 23  1  0  0  0  0
  5  9  1  0  0  0  0
  5 12  1  0  0  0  0
  5 24  1  0  0  0  0
  6  7  1  0  0  0  0
  6 25  1  0  0  0  0
  6 26  1  0  0  0  0
  7 11  1  0  0  0  0
  7 27  1  0  0  0  0
  8 10  1  0  0  0  0
  8 28  1  0  0  0  0
  8 29  1  0  0  0  0
  9 30  1  0  0  0  0
  9 31  1  0  0  0  0
 10 32  1  0  0  0  0
 10 33  1  0  0  0  0
 11 13  1  0  0  0  0
 12 14  2  0  0  0  0
 12 34  1  0  0  0  0
 13 15  1  0  0  0  0
 13 16  2  0  0  0  0
 14 35  1  0  0  0  0
 14 36  1  0  0  0  0
 15 17  1  0  0  0  0
 15 18  2  0  0  0  0
 16 19  1  0  0  0  0
 16 37  1  0  0  0  0
 17 20  2  0  0  0  0
 18 21  1  0  0  0  0
 18 38  1  0  0  0  0
 19 39  1  0  0  0  0
 20 22  1  0  0  0  0
 20 40  1  0  0  0  0
 21 22  2  0  0  0  0
 21 41  1  0  0  0  0
 22 42  1  0  0  0  0
M  END
> <PUBCHEM_COMPOUND_CID>
25202541

> <PUBCHEM_CONFORMER_RMSD>
0.6

> <PUBCHEM_CONFORMER_DIVERSEORDER>
3
26
30
11
19
29
13
1
28
10
24
22
25
5
27
31
14
17
16
18
6
9
7
23
12
2
15
20
21
4
8

> <PUBCHEM_MMFF94_PARTIAL_CHARGES>
27
1 -0.57
10 0.27
11 0.42
12 -0.29
13 0.09
14 -0.3
16 -0.15
17 0.31
18 -0.15
19 0.16
2 -0.81
20 -0.15
21 -0.15
22 -0.15
3 -0.62
34 0.15
35 0.15
36 0.15
37 0.15
38 0.15
39 0.15
40 0.15
41 0.15
42 0.15
5 0.14
7 0.33
9 0.27

> <PUBCHEM_EFFECTIVE_ROTOR_COUNT>
4.2

> <PUBCHEM_PHARMACOPHORE_FEATURES>
7
1 1 acceptor
1 14 hydrophobe
1 2 cation
1 3 acceptor
6 15 17 18 20 21 22 rings
6 3 13 15 16 17 19 rings
8 2 4 5 6 7 8 9 10 rings

> <PUBCHEM_HEAVY_ATOM_COUNT>
22

> <PUBCHEM_ATOM_DEF_STEREO_COUNT>
2

> <PUBCHEM_ATOM_UDEF_STEREO_COUNT>
1

> <PUBCHEM_BOND_DEF_STEREO_COUNT>
0

> <PUBCHEM_BOND_UDEF_STEREO_COUNT>
0

> <PUBCHEM_ISOTOPIC_ATOM_COUNT>
0

> <PUBCHEM_COMPONENT_COUNT>
1

> <PUBCHEM_CACTVS_TAUTO_COUNT>
2

> <PUBCHEM_CONFORMER_ID>
01808F6D00000003

> <PUBCHEM_MMFF94_ENERGY>
74.6867

> <PUBCHEM_FEATURE_SELFOVERLAP>
35.551

> <PUBCHEM_SHAPE_FINGERPRINT>
10498660 4 18341615957780065053
10646746 165 18413105078504629742
11370993 70 18409169951847835247
11405975 8 18337388348292527658
11640471 11 17703788162942539747
12107183 9 17911252920501979698
12173636 292 18341896337729831167
12236239 1 17632577197253329859
12596602 18 16701185153724792112
12670546 177 17968100806636029727
12788726 201 16554501437672010146
12916748 109 18272083899043481779
12969540 114 16660932050374863776
13224815 77 18259980474575366603
13911987 19 17095803188337377272
13965767 371 17486499475137043429
14178342 30 17632573804139755586
14251764 38 18270960137920258460
14739800 52 18268169590668132600
14790565 3 18047749592747488921
15196674 1 18412265042625093641
15961568 22 18270117907950621068
17492 89 18413670214228179123
17980427 23 17703507667403281988
18186145 218 18189325926220668667
200 152 16081371915841026919
20510252 161 18409163307992052483
20645477 56 18340479062693335733
20645477 70 17313376872602695870
20715895 44 18267312121421369697
21524375 3 17843115072548001377
22393880 68 18409721881358267334
23227448 37 18411420600863408277
23402539 116 18269563753503775638
23557571 272 18337669715768292851
23559900 14 18189055468278586490
2838139 119 18263652775526767536
3472631 163 18339083804060815533
4028521 119 18342739654363241237
474 4 17275096232667009036
5104073 3 18343582962185028658
5281201 14 18114736139861084726
633830 44 18044095885342501861
7832392 63 18200872975728691500
9709674 26 18408318882523882687
9981440 41 18201442428473895218

> <PUBCHEM_SHAPE_MULTIPOLES>
436.92
9.82
2.69
1.18
1.92
0.81
-0.16
4.23
-0.94
-1.09
0.08
0.86
-0.25
1.06

> <PUBCHEM_SHAPE_SELFOVERLAP>
963.024

> <PUBCHEM_SHAPE_VOLUME>
229

> <PUBCHEM_COORDINATE_TYPE>
2
5
10

$$$$

