53297342
  -OEChem-07051212503D

 30 29  0     1  0  0  0  0  0999 V2000
   -0.0453    1.6465   -1.4271 O   0  0  0  0  0  0  0  0  0  0  0  0
    3.3958   -1.5102    1.4432 O   0  0  0  0  0  0  0  0  0  0  0  0
   -3.0179    0.3961    2.0091 O   0  0  0  0  0  0  0  0  0  0  0  0
    4.5038   -1.5288   -0.5350 O   0  0  0  0  0  0  0  0  0  0  0  0
   -4.7084    1.0050    0.6372 O   0  0  0  0  0  0  0  0  0  0  0  0
   -1.1986    0.3693    0.1331 N   0  0  0  0  0  0  0  0  0  0  0  0
    4.9130    1.1856   -0.2860 N   0  0  0  0  0  0  0  0  0  0  0  0
   -3.0816   -2.8127   -0.3694 N   0  0  0  0  0  0  0  0  0  0  0  0
    2.4727    1.0058   -0.3745 C   0  0  0  0  0  0  0  0  0  0  0  0
    1.2020    0.4326    0.2564 C   0  0  0  0  0  0  0  0  0  0  0  0
    3.7454    0.6003    0.3772 C   0  0  1  0  0  0  0  0  0  0  0  0
   -2.5302    0.6476   -0.3532 C   0  0  1  0  0  0  0  0  0  0  0  0
   -0.0582    0.8991   -0.4528 C   0  0  0  0  0  0  0  0  0  0  0  0
   -2.9719   -0.3895   -1.3897 C   0  0  0  0  0  0  0  0  0  0  0  0
    3.9423   -0.9047    0.3568 C   0  0  0  0  0  0  0  0  0  0  0  0
   -3.5301    0.7018    0.7928 C   0  0  0  0  0  0  0  0  0  0  0  0
   -3.0327   -1.7437   -0.8181 C   0  0  0  0  0  0  0  0  0  0  0  0
    2.5290    0.6715   -1.4197 H   0  0  0  0  0  0  0  0  0  0  0  0
    2.3986    2.1011   -0.4020 H   0  0  0  0  0  0  0  0  0  0  0  0
    1.1360    0.7356    1.3080 H   0  0  0  0  0  0  0  0  0  0  0  0
    1.2118   -0.6622    0.2151 H   0  0  0  0  0  0  0  0  0  0  0  0
    3.7190    0.9506    1.4151 H   0  0  0  0  0  0  0  0  0  0  0  0
   -2.5195    1.6438   -0.8115 H   0  0  0  0  0  0  0  0  0  0  0  0
   -1.0998   -0.2519    0.9313 H   0  0  0  0  0  0  0  0  0  0  0  0
   -3.9590   -0.1235   -1.7864 H   0  0  0  0  0  0  0  0  0  0  0  0
   -2.2761   -0.3874   -2.2373 H   0  0  0  0  0  0  0  0  0  0  0  0
    5.7512    0.9853    0.2588 H   0  0  0  0  0  0  0  0  0  0  0  0
    4.8227    2.2008   -0.3027 H   0  0  0  0  0  0  0  0  0  0  0  0
    3.5144   -2.4836    1.4174 H   0  0  0  0  0  0  0  0  0  0  0  0
   -3.6961    0.4470    2.7160 H   0  0  0  0  0  0  0  0  0  0  0  0
  1 13  2  0  0  0  0
  2 15  1  0  0  0  0
  2 29  1  0  0  0  0
  3 16  1  0  0  0  0
  3 30  1  0  0  0  0
  4 15  2  0  0  0  0
  5 16  2  0  0  0  0
  6 12  1  0  0  0  0
  6 13  1  0  0  0  0
  6 24  1  0  0  0  0
  7 11  1  0  0  0  0
  7 27  1  0  0  0  0
  7 28  1  0  0  0  0
  8 17  3  0  0  0  0
  9 10  1  0  0  0  0
  9 11  1  0  0  0  0
  9 18  1  0  0  0  0
  9 19  1  0  0  0  0
 10 13  1  0  0  0  0
 10 20  1  0  0  0  0
 10 21  1  0  0  0  0
 11 15  1  0  0  0  0
 11 22  1  0  0  0  0
 12 14  1  0  0  0  0
 12 16  1  0  0  0  0
 12 23  1  0  0  0  0
 14 17  1  0  0  0  0
 14 25  1  0  0  0  0
 14 26  1  0  0  0  0
M  END
> <PUBCHEM_COMPOUND_CID>
53297342

> <PUBCHEM_CONFORMER_RMSD>
0.8

> <PUBCHEM_CONFORMER_DIVERSEORDER>
1
127
147
20
140
63
77
160
39
157
162
91
12
84
146
73
76
79
121
47
4
159
103
29
83
88
107
125
87
102
134
100
142
52
98
68
35
60
109
110
96
152
17
85
70
128
59
90
43
122
86
80
153
51
106
55
81
41
164
123
62
37
8
93
53
145
69
22
44
64
82
101
126
31
24
50
6
14
161
154
56
139
114
141
155
133
89
99
61
94
115
48
165
95
58
129
119
150
120
135
54
113
78
65
49
57
130
3
149
28
67
137
5
111
21
18
25
118
36
117
32
108
9
92
156
71
75
136
38
132
151
97
148
112
143
7
42
144
33
66
40
27
163
46
105
45
72
158
19
74
23
11
16
104
124
34
131
26
13
30
2
15
138
116
10

> <PUBCHEM_MMFF94_PARTIAL_CHARGES>
21
1 -0.57
10 0.06
11 0.33
12 0.36
13 0.57
14 0.2
15 0.66
16 0.66
17 0.36
2 -0.65
24 0.37
27 0.36
28 0.36
29 0.5
3 -0.65
30 0.5
4 -0.57
5 -0.57
6 -0.73
7 -0.99
8 -0.56

> <PUBCHEM_EFFECTIVE_ROTOR_COUNT>
8

> <PUBCHEM_PHARMACOPHORE_FEATURES>
11
1 1 acceptor
1 2 acceptor
1 3 acceptor
1 4 acceptor
1 5 acceptor
1 6 donor
1 7 cation
1 7 donor
1 8 acceptor
3 2 4 15 anion
3 3 5 16 anion

> <PUBCHEM_HEAVY_ATOM_COUNT>
17

> <PUBCHEM_ATOM_DEF_STEREO_COUNT>
2

> <PUBCHEM_ATOM_UDEF_STEREO_COUNT>
0

> <PUBCHEM_BOND_DEF_STEREO_COUNT>
0

> <PUBCHEM_BOND_UDEF_STEREO_COUNT>
0

> <PUBCHEM_ISOTOPIC_ATOM_COUNT>
0

> <PUBCHEM_COMPONENT_COUNT>
1

> <PUBCHEM_CACTVS_TAUTO_COUNT>
2

> <PUBCHEM_CONFORMER_ID>
032D40BE00000001

> <PUBCHEM_MMFF94_ENERGY>
18.74

> <PUBCHEM_FEATURE_SELFOVERLAP>
55.938

> <PUBCHEM_SHAPE_FINGERPRINT>
10680689 15 18202567288829852980
11552529 35 17749960946538525262
12186901 62 13254804529645983881
12553582 1 18130514123256485498
12596599 1 18408606980593806498
12633257 1 18336270153705057586
12824470 246 18265621987597583583
13167823 11 18409730642653414986
13533116 47 16733823237118944167
13583140 156 16008759008528448202
13631057 29 17975137543778743174
15099037 8 18194403290898214599
15239191 94 18341621451085207150
15537594 2 18202278139179302210
19141452 34 18411136948295716661
20281475 54 18411142420147530652
20645477 70 18272098235691853566
22485316 2 18412268328565283972
23503953 91 18261401065358113576
23503958 8 18260833644317655475
235170 7 14476962324077102314
23559900 14 17313369154752167292
300161 21 18334021587917148824
3268164 11 12607404369191878635
4175511 318 13182752437334697971
5104073 3 18260554402971787722
5281201 14 11671790407228639472
573450 72 17967820452703798877
633830 44 17346878966115194012

> <PUBCHEM_SHAPE_MULTIPOLES>
305.56
10.39
1.95
1.28
5.86
1.43
-0.27
1.59
-1.33
-0.72
0.25
-0.79
-0.08
-1.27

> <PUBCHEM_SHAPE_SELFOVERLAP>
598.015

> <PUBCHEM_SHAPE_VOLUME>
179.4

> <PUBCHEM_COORDINATE_TYPE>
2
5
10

$$$$

