46173995
  -OEChem-07051213102D

 70 74  0     1  0  0  0  0  0999 V2000
    9.4931    2.4397    0.0000 O   0  0  0  0  0  0  0  0  0  0  0  0
   11.2632    0.3809    0.0000 O   0  0  0  0  0  0  0  0  0  0  0  0
    6.8671   -1.0950    0.0000 O   0  0  0  0  0  0  0  0  0  0  0  0
    7.7331   -0.5950    0.0000 O   0  0  0  0  0  0  0  0  0  0  0  0
    6.0010    2.4050    0.0000 O   0  0  0  0  0  0  0  0  0  0  0  0
    4.2690    3.4050    0.0000 O   0  0  0  0  0  0  0  0  0  0  0  0
    3.1350   -1.0950    0.0000 O   0  0  0  0  0  0  0  0  0  0  0  0
    6.1350   -2.8270    0.0000 O   0  0  0  0  0  0  0  0  0  0  0  0
    2.5369    2.4050    0.0000 O   0  0  0  0  0  0  0  0  0  0  0  0
   13.8632    1.9392    0.0000 O   0  0  0  0  0  0  0  0  0  0  0  0
   13.8555    3.9392    0.0000 O   0  0  0  0  0  0  0  0  0  0  0  0
    3.1351   -4.5592    0.0000 O   0  0  0  0  0  0  0  0  0  0  0  0
    6.0010    0.4050    0.0000 C   0  0  2  0  0  0  0  0  0  0  0  0
   10.3991    0.8842    0.0000 C   0  0  1  0  0  0  0  0  0  0  0  0
    9.4931    0.3703    0.0000 C   0  0  0  0  0  0  0  0  0  0  0  0
    8.5991    0.9050    0.0000 C   0  0  0  0  0  0  0  0  0  0  0  0
    6.8671    0.9050    0.0000 C   0  0  0  0  0  0  0  0  0  0  0  0
   10.3991    1.9258    0.0000 C   0  0  1  0  0  0  0  0  0  0  0  0
    6.0010   -0.5950    0.0000 C   0  0  2  0  0  0  0  0  0  0  0  0
    7.7331    0.4050    0.0000 C   0  0  0  0  0  0  0  0  0  0  0  0
    8.5991    1.9050    0.0000 C   0  0  0  0  0  0  0  0  0  0  0  0
    5.1350    0.9050    0.0000 C   0  0  0  0  0  0  0  0  0  0  0  0
    5.1350   -1.0950    0.0000 C   0  0  0  0  0  0  0  0  0  0  0  0
    6.8671    1.9050    0.0000 C   0  0  0  0  0  0  0  0  0  0  0  0
    7.7331    2.4050    0.0000 C   0  0  0  0  0  0  0  0  0  0  0  0
   11.2632    2.4292    0.0000 C   0  0  0  0  0  0  0  0  0  0  0  0
    4.6351   -1.9611    0.0000 C   0  0  0  0  0  0  0  0  0  0  0  0
    5.1350    1.9050    0.0000 C   0  0  0  0  0  0  0  0  0  0  0  0
    4.2690    0.4050    0.0000 C   0  0  0  0  0  0  0  0  0  0  0  0
   12.1312    1.9325    0.0000 C   0  0  0  0  0  0  0  0  0  0  0  0
   11.2594    3.4292    0.0000 C   0  0  0  0  0  0  0  0  0  0  0  0
    4.2690    2.4050    0.0000 C   0  0  0  0  0  0  0  0  0  0  0  0
    3.6350   -1.9610    0.0000 C   0  0  0  0  0  0  0  0  0  0  0  0
    5.1350   -2.8270    0.0000 C   0  0  0  0  0  0  0  0  0  0  0  0
    3.4030    0.9050    0.0000 C   0  0  0  0  0  0  0  0  0  0  0  0
    3.4030    1.9050    0.0000 C   0  0  0  0  0  0  0  0  0  0  0  0
   12.9953    2.4358    0.0000 C   0  0  0  0  0  0  0  0  0  0  0  0
   12.1235    3.9325    0.0000 C   0  0  0  0  0  0  0  0  0  0  0  0
   12.9914    3.4358    0.0000 C   0  0  0  0  0  0  0  0  0  0  0  0
    3.1350   -2.8271    0.0000 C   0  0  0  0  0  0  0  0  0  0  0  0
    4.6350   -3.6931    0.0000 C   0  0  0  0  0  0  0  0  0  0  0  0
    3.6351   -3.6931    0.0000 C   0  0  0  0  0  0  0  0  0  0  0  0
    5.4641    0.0950    0.0000 H   0  0  0  0  0  0  0  0  0  0  0  0
   10.3955    0.2642    0.0000 H   0  0  0  0  0  0  0  0  0  0  0  0
    9.0885   -0.0994    0.0000 H   0  0  0  0  0  0  0  0  0  0  0  0
    9.8867   -0.1087    0.0000 H   0  0  0  0  0  0  0  0  0  0  0  0
   10.9367    1.6168    0.0000 H   0  0  0  0  0  0  0  0  0  0  0  0
    6.5380   -0.2850    0.0000 H   0  0  0  0  0  0  0  0  0  0  0  0
    5.0273   -0.4844    0.0000 H   0  0  0  0  0  0  0  0  0  0  0  0
    5.5734   -1.5334    0.0000 H   0  0  0  0  0  0  0  0  0  0  0  0
    7.7331    3.0250    0.0000 H   0  0  0  0  0  0  0  0  0  0  0  0
    5.6720    2.2150    0.0000 H   0  0  0  0  0  0  0  0  0  0  0  0
    4.2690   -0.2150    0.0000 H   0  0  0  0  0  0  0  0  0  0  0  0
   11.2608   -0.2391    0.0000 H   0  0  0  0  0  0  0  0  0  0  0  0
    6.8671   -1.7150    0.0000 H   0  0  0  0  0  0  0  0  0  0  0  0
   12.1336    1.3125    0.0000 H   0  0  0  0  0  0  0  0  0  0  0  0
   10.7212    3.7371    0.0000 H   0  0  0  0  0  0  0  0  0  0  0  0
    8.2700   -0.9050    0.0000 H   0  0  0  0  0  0  0  0  0  0  0  0
    6.0010    3.0250    0.0000 H   0  0  0  0  0  0  0  0  0  0  0  0
    2.8660    0.5950    0.0000 H   0  0  0  0  0  0  0  0  0  0  0  0
   12.1211    4.5525    0.0000 H   0  0  0  0  0  0  0  0  0  0  0  0
    2.5150   -2.8271    0.0000 H   0  0  0  0  0  0  0  0  0  0  0  0
    4.9450   -4.2300    0.0000 H   0  0  0  0  0  0  0  0  0  0  0  0
    3.7320    3.7150    0.0000 H   0  0  0  0  0  0  0  0  0  0  0  0
    2.5150   -1.0950    0.0000 H   0  0  0  0  0  0  0  0  0  0  0  0
    6.4450   -3.3640    0.0000 H   0  0  0  0  0  0  0  0  0  0  0  0
    2.0000    2.0950    0.0000 H   0  0  0  0  0  0  0  0  0  0  0  0
   14.3989    2.2512    0.0000 H   0  0  0  0  0  0  0  0  0  0  0  0
   13.8531    4.5592    0.0000 H   0  0  0  0  0  0  0  0  0  0  0  0
    2.5151   -4.5592    0.0000 H   0  0  0  0  0  0  0  0  0  0  0  0
  1 18  1  0  0  0  0
  1 21  1  0  0  0  0
 14  2  1  1  0  0  0
  2 54  1  0  0  0  0
 19  3  1  1  0  0  0
  3 55  1  0  0  0  0
  4 20  1  0  0  0  0
  4 58  1  0  0  0  0
  5 24  1  0  0  0  0
  5 59  1  0  0  0  0
  6 32  1  0  0  0  0
  6 64  1  0  0  0  0
  7 33  1  0  0  0  0
  7 65  1  0  0  0  0
  8 34  1  0  0  0  0
  8 66  1  0  0  0  0
  9 36  1  0  0  0  0
  9 67  1  0  0  0  0
 10 37  1  0  0  0  0
 10 68  1  0  0  0  0
 11 39  1  0  0  0  0
 11 69  1  0  0  0  0
 12 42  1  0  0  0  0
 12 70  1  0  0  0  0
 13 17  1  0  0  0  0
 13 19  1  0  0  0  0
 13 22  1  6  0  0  0
 13 43  1  0  0  0  0
 14 15  1  0  0  0  0
 14 18  1  0  0  0  0
 14 44  1  0  0  0  0
 15 16  1  0  0  0  0
 15 45  1  0  0  0  0
 15 46  1  0  0  0  0
 16 20  1  0  0  0  0
 16 21  2  0  0  0  0
 17 20  2  0  0  0  0
 17 24  1  0  0  0  0
 18 26  1  6  0  0  0
 18 47  1  0  0  0  0
 19 23  1  0  0  0  0
 19 48  1  0  0  0  0
 21 25  1  0  0  0  0
 22 28  2  0  0  0  0
 22 29  1  0  0  0  0
 23 27  1  0  0  0  0
 23 49  1  0  0  0  0
 23 50  1  0  0  0  0
 24 25  2  0  0  0  0
 25 51  1  0  0  0  0
 26 30  2  0  0  0  0
 26 31  1  0  0  0  0
 27 33  2  0  0  0  0
 27 34  1  0  0  0  0
 28 32  1  0  0  0  0
 28 52  1  0  0  0  0
 29 35  2  0  0  0  0
 29 53  1  0  0  0  0
 30 37  1  0  0  0  0
 30 56  1  0  0  0  0
 31 38  2  0  0  0  0
 31 57  1  0  0  0  0
 32 36  2  0  0  0  0
 33 40  1  0  0  0  0
 34 41  2  0  0  0  0
 35 36  1  0  0  0  0
 35 60  1  0  0  0  0
 37 39  2  0  0  0  0
 38 39  1  0  0  0  0
 38 61  1  0  0  0  0
 40 42  2  0  0  0  0
 40 62  1  0  0  0  0
 41 42  1  0  0  0  0
 41 63  1  0  0  0  0
M  END
> <PUBCHEM_COMPOUND_CID>
46173995

> <PUBCHEM_COMPOUND_CANONICALIZED>
1

> <PUBCHEM_CACTVS_COMPLEXITY>
867

> <PUBCHEM_CACTVS_HBOND_ACCEPTOR>
12

> <PUBCHEM_CACTVS_HBOND_DONOR>
11

> <PUBCHEM_CACTVS_ROTATABLE_BOND>
6

> <PUBCHEM_CACTVS_SUBSKEYS>
AAADceB4PAAAAAAAAAAAAAAAAAAAAAAAAAA0YMGCAAAAAACRVAAAGgAACAAADRSgmAIwBoAABgCAAiBCAAACCAAgIAAIiAAGiIgNNyKGMRqCeCGlwBULuAfA4PwOoAADCAAIQABAAAYQABCAAAAAAAAAAA==

> <PUBCHEM_IUPAC_OPENEYE_NAME>
(2R,3S)-2-(3,4-dihydroxyphenyl)-6-[(1R,2S)-1-(3,4-dihydroxyphenyl)-2-hydroxy-3-(2,4,6-trihydroxyphenyl)propyl]chromane-3,5,7-triol

> <PUBCHEM_IUPAC_CAS_NAME>
(2R,3S)-2-(3,4-dihydroxyphenyl)-6-[(1R,2S)-1-(3,4-dihydroxyphenyl)-2-hydroxy-3-(2,4,6-trihydroxyphenyl)propyl]-3,4-dihydro-2H-1-benzopyran-3,5,7-triol

> <PUBCHEM_IUPAC_NAME>
(2R,3S)-2-(3,4-dihydroxyphenyl)-6-[(1R,2S)-1-(3,4-dihydroxyphenyl)-2-hydroxy-3-(2,4,6-trihydroxyphenyl)propyl]-3,4-dihydro-2H-chromene-3,5,7-triol

> <PUBCHEM_IUPAC_SYSTEMATIC_NAME>
(2R,3S)-2-[3,4-bis(oxidanyl)phenyl]-6-[(1R,2S)-1-[3,4-bis(oxidanyl)phenyl]-2-oxidanyl-3-[2,4,6-tris(oxidanyl)phenyl]propyl]-3,4-dihydro-2H-chromene-3,5,7-triol

> <PUBCHEM_IUPAC_TRADITIONAL_NAME>
(2R,3S)-2-(3,4-dihydroxyphenyl)-6-[(1R,2S)-1-(3,4-dihydroxyphenyl)-2-hydroxy-3-(2,4,6-trihydroxyphenyl)propyl]chroman-3,5,7-triol

> <PUBCHEM_IUPAC_INCHI>
InChI=1S/C30H28O12/c31-14-7-19(34)15(20(35)8-14)9-23(38)27(12-1-3-17(32)21(36)5-12)28-24(39)11-26-16(29(28)41)10-25(40)30(42-26)13-2-4-18(33)22(37)6-13/h1-8,11,23,25,27,30-41H,9-10H2/t23-,25-,27-,30+/m0/s1

> <PUBCHEM_IUPAC_INCHIKEY>
MIFNNWIZHGVHPR-BKVCSMAQSA-N

> <PUBCHEM_XLOGP3>
1.6

> <PUBCHEM_EXACT_MASS>
580.158076

> <PUBCHEM_MOLECULAR_FORMULA>
C30H28O12

> <PUBCHEM_MOLECULAR_WEIGHT>
580.53612

> <PUBCHEM_OPENEYE_CAN_SMILES>
C1C(C(OC2=CC(=C(C(=C21)O)C(C3=CC(=C(C=C3)O)O)C(CC4=C(C=C(C=C4O)O)O)O)O)C5=CC(=C(C=C5)O)O)O

> <PUBCHEM_OPENEYE_ISO_SMILES>
C1[C@@H]([C@H](OC2=CC(=C(C(=C21)O)[C@@H](C3=CC(=C(C=C3)O)O)[C@H](CC4=C(C=C(C=C4O)O)O)O)O)C5=CC(=C(C=C5)O)O)O

> <PUBCHEM_CACTVS_TPSA>
232

> <PUBCHEM_MONOISOTOPIC_WEIGHT>
580.158076

> <PUBCHEM_TOTAL_CHARGE>
0

> <PUBCHEM_HEAVY_ATOM_COUNT>
42

> <PUBCHEM_ATOM_DEF_STEREO_COUNT>
4

> <PUBCHEM_ATOM_UDEF_STEREO_COUNT>
0

> <PUBCHEM_BOND_DEF_STEREO_COUNT>
0

> <PUBCHEM_BOND_UDEF_STEREO_COUNT>
0

> <PUBCHEM_ISOTOPIC_ATOM_COUNT>
0

> <PUBCHEM_COMPONENT_COUNT>
1

> <PUBCHEM_CACTVS_TAUTO_COUNT>
994

> <PUBCHEM_COORDINATE_TYPE>
1
5
255

> <PUBCHEM_BONDANNOTATIONS>
13  22  6
16  20  8
16  21  8
17  20  8
17  24  8
18  26  6
14  2  5
21  25  8
22  28  8
22  29  8
24  25  8
26  30  8
26  31  8
27  33  8
27  34  8
28  32  8
29  35  8
19  3  5
30  37  8
31  38  8
32  36  8
33  40  8
34  41  8
35  36  8
37  39  8
38  39  8
40  42  8
41  42  8

$$$$

