3374
  -OEChem-06251223222D

 31 33  0     1  0  0  0  0  0999 V2000
    2.0000   -2.8205    0.0000 F   0  0  0  0  0  0  0  0  0  0  0  0
    2.9200    0.7246    0.0000 O   0  0  0  0  0  0  0  0  0  0  0  0
    5.5180    2.2246    0.0000 O   0  0  0  0  0  0  0  0  0  0  0  0
    3.7860    2.2246    0.0000 O   0  0  0  0  0  0  0  0  0  0  0  0
    5.5180   -0.7754    0.0000 N   0  0  0  0  0  0  0  0  0  0  0  0
    6.3775   -1.2701    0.0000 C   0  0  3  0  0  0  0  0  0  0  0  0
    6.3909   -2.2618    0.0000 C   0  0  0  0  0  0  0  0  0  0  0  0
    5.5452   -2.7796    0.0000 C   0  0  0  0  0  0  0  0  0  0  0  0
    4.6520   -1.2754    0.0000 C   0  0  0  0  0  0  0  0  0  0  0  0
    4.6681   -2.3169    0.0000 C   0  0  0  0  0  0  0  0  0  0  0  0
    3.7860   -0.7754    0.0000 C   0  0  0  0  0  0  0  0  0  0  0  0
    7.2398   -0.7637    0.0000 C   0  0  0  0  0  0  0  0  0  0  0  0
    5.5180    0.2246    0.0000 C   0  0  0  0  0  0  0  0  0  0  0  0
    3.7700   -2.8446    0.0000 C   0  0  0  0  0  0  0  0  0  0  0  0
    4.6520    0.7246    0.0000 C   0  0  0  0  0  0  0  0  0  0  0  0
    3.7860    0.2246    0.0000 C   0  0  0  0  0  0  0  0  0  0  0  0
    2.8760   -1.2822    0.0000 C   0  0  0  0  0  0  0  0  0  0  0  0
    2.8680   -2.3238    0.0000 C   0  0  0  0  0  0  0  0  0  0  0  0
    4.6520    1.7246    0.0000 C   0  0  0  0  0  0  0  0  0  0  0  0
    6.3748   -0.6501    0.0000 H   0  0  0  0  0  0  0  0  0  0  0  0
    6.6156   -2.8396    0.0000 H   0  0  0  0  0  0  0  0  0  0  0  0
    6.9995   -2.1433    0.0000 H   0  0  0  0  0  0  0  0  0  0  0  0
    5.1630   -3.2679    0.0000 H   0  0  0  0  0  0  0  0  0  0  0  0
    5.9577   -3.2424    0.0000 H   0  0  0  0  0  0  0  0  0  0  0  0
    7.5538   -1.2984    0.0000 H   0  0  0  0  0  0  0  0  0  0  0  0
    7.7744   -0.4498    0.0000 H   0  0  0  0  0  0  0  0  0  0  0  0
    6.9258   -0.2291    0.0000 H   0  0  0  0  0  0  0  0  0  0  0  0
    6.0550    0.5346    0.0000 H   0  0  0  0  0  0  0  0  0  0  0  0
    3.7724   -3.4646    0.0000 H   0  0  0  0  0  0  0  0  0  0  0  0
    2.3427   -0.9660    0.0000 H   0  0  0  0  0  0  0  0  0  0  0  0
    5.5180    2.8446    0.0000 H   0  0  0  0  0  0  0  0  0  0  0  0
  1 18  1  0  0  0  0
  2 16  2  0  0  0  0
  3 19  1  0  0  0  0
  3 31  1  0  0  0  0
  4 19  2  0  0  0  0
  5  6  1  0  0  0  0
  5  9  1  0  0  0  0
  5 13  1  0  0  0  0
  6  7  1  0  0  0  0
  6 12  1  0  0  0  0
  6 20  1  0  0  0  0
  7  8  1  0  0  0  0
  7 21  1  0  0  0  0
  7 22  1  0  0  0  0
  8 10  1  0  0  0  0
  8 23  1  0  0  0  0
  8 24  1  0  0  0  0
  9 10  2  0  0  0  0
  9 11  1  0  0  0  0
 10 14  1  0  0  0  0
 11 16  1  0  0  0  0
 11 17  2  0  0  0  0
 12 25  1  0  0  0  0
 12 26  1  0  0  0  0
 12 27  1  0  0  0  0
 13 15  2  0  0  0  0
 13 28  1  0  0  0  0
 14 18  2  0  0  0  0
 14 29  1  0  0  0  0
 15 16  1  0  0  0  0
 15 19  1  0  0  0  0
 17 18  1  0  0  0  0
 17 30  1  0  0  0  0
M  END
> <PUBCHEM_COMPOUND_CID>
3374

> <PUBCHEM_COMPOUND_CANONICALIZED>
1

> <PUBCHEM_CACTVS_COMPLEXITY>
462

> <PUBCHEM_CACTVS_HBOND_ACCEPTOR>
5

> <PUBCHEM_CACTVS_HBOND_DONOR>
1

> <PUBCHEM_CACTVS_ROTATABLE_BOND>
1

> <PUBCHEM_CACTVS_SUBSKEYS>
AAADccByMQAAAAAAAAAAAAAAAAAAAAAAAAA8QIAAAAAAAACxAAAAHwAACAAADCzBmAwyyIMAAgCIAqTWSACCAAAlAAAAiAEIRMgIJD7IlZGEYYhkoADI2ceY2eOeAAACAAACAAAAAAQAAAQAAAAAAAAAAA==

> <PUBCHEM_IUPAC_INCHI>
InChI=1S/C14H12FNO3/c1-7-2-3-8-4-9(15)5-10-12(8)16(7)6-11(13(10)17)14(18)19/h4-7H,2-3H2,1H3,(H,18,19)

> <PUBCHEM_IUPAC_INCHIKEY>
DPSPPJIUMHPXMA-UHFFFAOYSA-N

> <PUBCHEM_XLOGP3_AA>
2.9

> <PUBCHEM_EXACT_MASS>
261.080121

> <PUBCHEM_MOLECULAR_FORMULA>
C14H12FNO3

> <PUBCHEM_MOLECULAR_WEIGHT>
261.248383

> <PUBCHEM_OPENEYE_CAN_SMILES>
CC1CCC2=C3N1C=C(C(=O)C3=CC(=C2)F)C(=O)O

> <PUBCHEM_OPENEYE_ISO_SMILES>
CC1CCC2=C3N1C=C(C(=O)C3=CC(=C2)F)C(=O)O

> <PUBCHEM_CACTVS_TPSA>
57.6

> <PUBCHEM_MONOISOTOPIC_WEIGHT>
261.080121

> <PUBCHEM_TOTAL_CHARGE>
0

> <PUBCHEM_HEAVY_ATOM_COUNT>
19

> <PUBCHEM_ATOM_DEF_STEREO_COUNT>
0

> <PUBCHEM_ATOM_UDEF_STEREO_COUNT>
1

> <PUBCHEM_BOND_DEF_STEREO_COUNT>
0

> <PUBCHEM_BOND_UDEF_STEREO_COUNT>
0

> <PUBCHEM_ISOTOPIC_ATOM_COUNT>
0

> <PUBCHEM_COMPONENT_COUNT>
1

> <PUBCHEM_CACTVS_TAUTO_COUNT>
1

> <PUBCHEM_COORDINATE_TYPE>
1
5
255

> <PUBCHEM_BONDANNOTATIONS>
10  14  8
11  16  8
11  17  8
13  15  8
14  18  8
15  16  8
17  18  8
5  13  8
5  9  8
6  12  3
9  10  8
9  11  8

$$$$

