17395596
  -OEChem-06241222513D

 32 33  0     0  0  0  0  0  0999 V2000
    4.3415   -1.0187   -1.0179 F   0  0  0  0  0  0  0  0  0  0  0  0
   -2.4314   -1.6178    0.6649 O   0  0  0  0  0  0  0  0  0  0  0  0
   -1.4479    2.6878   -0.8439 O   0  0  0  0  0  0  0  0  0  0  0  0
   -1.1657    1.3147    1.0078 N   0  0  0  0  0  0  0  0  0  0  0  0
   -3.1794    1.0904   -0.2869 C   0  0  0  0  0  0  0  0  0  0  0  0
   -3.0589   -0.1487   -1.1737 C   0  0  0  0  0  0  0  0  0  0  0  0
    0.1270    1.8203    1.4067 C   0  0  0  0  0  0  0  0  0  0  0  0
   -1.8498    1.7991   -0.0977 C   0  0  0  0  0  0  0  0  0  0  0  0
   -2.1204   -1.1667   -0.5785 C   0  0  0  0  0  0  0  0  0  0  0  0
    1.2504    1.0630    0.7598 C   0  0  0  0  0  0  0  0  0  0  0  0
   -0.9693   -1.7652   -1.0356 C   0  0  0  0  0  0  0  0  0  0  0  0
    1.7878   -0.0599    1.3892 C   0  0  0  0  0  0  0  0  0  0  0  0
    1.7574    1.4827   -0.4701 C   0  0  0  0  0  0  0  0  0  0  0  0
   -0.5458   -2.6402   -0.0068 C   0  0  0  0  0  0  0  0  0  0  0  0
    2.8321   -0.7630    0.7888 C   0  0  0  0  0  0  0  0  0  0  0  0
    2.8018    0.7795   -1.0706 C   0  0  0  0  0  0  0  0  0  0  0  0
   -1.4684   -2.5142    1.0055 C   0  0  0  0  0  0  0  0  0  0  0  0
    3.3391   -0.3433   -0.4410 C   0  0  0  0  0  0  0  0  0  0  0  0
   -3.6039    0.8324    0.6911 H   0  0  0  0  0  0  0  0  0  0  0  0
   -3.8724    1.8045   -0.7473 H   0  0  0  0  0  0  0  0  0  0  0  0
   -2.6916    0.1384   -2.1662 H   0  0  0  0  0  0  0  0  0  0  0  0
   -4.0453   -0.6070   -1.3066 H   0  0  0  0  0  0  0  0  0  0  0  0
    0.1949    2.8869    1.1617 H   0  0  0  0  0  0  0  0  0  0  0  0
    0.1887    1.7411    2.4979 H   0  0  0  0  0  0  0  0  0  0  0  0
   -1.5736    0.5712    1.5669 H   0  0  0  0  0  0  0  0  0  0  0  0
   -0.4915   -1.5920   -1.9892 H   0  0  0  0  0  0  0  0  0  0  0  0
    1.3996   -0.3985    2.3461 H   0  0  0  0  0  0  0  0  0  0  0  0
    1.3511    2.3573   -0.9707 H   0  0  0  0  0  0  0  0  0  0  0  0
    0.3241   -3.2809   -0.0030 H   0  0  0  0  0  0  0  0  0  0  0  0
    3.2496   -1.6382    1.2778 H   0  0  0  0  0  0  0  0  0  0  0  0
    3.1970    1.1061   -2.0279 H   0  0  0  0  0  0  0  0  0  0  0  0
   -1.5753   -2.9669    1.9803 H   0  0  0  0  0  0  0  0  0  0  0  0
  1 18  1  0  0  0  0
  2  9  1  0  0  0  0
  2 17  1  0  0  0  0
  3  8  2  0  0  0  0
  4  7  1  0  0  0  0
  4  8  1  0  0  0  0
  4 25  1  0  0  0  0
  5  6  1  0  0  0  0
  5  8  1  0  0  0  0
  5 19  1  0  0  0  0
  5 20  1  0  0  0  0
  6  9  1  0  0  0  0
  6 21  1  0  0  0  0
  6 22  1  0  0  0  0
  7 10  1  0  0  0  0
  7 23  1  0  0  0  0
  7 24  1  0  0  0  0
  9 11  2  0  0  0  0
 10 12  2  0  0  0  0
 10 13  1  0  0  0  0
 11 14  1  0  0  0  0
 11 26  1  0  0  0  0
 12 15  1  0  0  0  0
 12 27  1  0  0  0  0
 13 16  2  0  0  0  0
 13 28  1  0  0  0  0
 14 17  2  0  0  0  0
 14 29  1  0  0  0  0
 15 18  2  0  0  0  0
 15 30  1  0  0  0  0
 16 18  1  0  0  0  0
 16 31  1  0  0  0  0
 17 32  1  0  0  0  0
M  END
> <PUBCHEM_COMPOUND_CID>
17395596

> <PUBCHEM_CONFORMER_RMSD>
0.8

> <PUBCHEM_CONFORMER_DIVERSEORDER>
1
35
9
57
74
30
34
55
18
48
59
67
44
68
49
47
26
24
22
10
69
29
5
71
38
64
28
14
52
65
73
17
31
12
43
54
27
3
70
75
19
2
37
11
58
50
33
20
41
40
45
62
6
42
53
61
32
16
39
4
51
36
46
7
76
72
60
66
63
25
15
23
8
21
56
13

> <PUBCHEM_MMFF94_PARTIAL_CHARGES>
26
1 -0.19
10 -0.14
11 -0.15
12 -0.15
13 -0.15
14 -0.15
15 -0.15
16 -0.15
17 -0.01
18 0.19
2 -0.28
25 0.37
26 0.15
27 0.15
28 0.15
29 0.15
3 -0.57
30 0.15
31 0.15
32 0.15
4 -0.73
5 0.06
6 0.18
7 0.44
8 0.57
9 -0.04

> <PUBCHEM_EFFECTIVE_ROTOR_COUNT>
6

> <PUBCHEM_PHARMACOPHORE_FEATURES>
5
1 2 acceptor
1 3 acceptor
1 4 donor
5 2 9 11 14 17 rings
6 10 12 13 15 16 18 rings

> <PUBCHEM_HEAVY_ATOM_COUNT>
18

> <PUBCHEM_ATOM_DEF_STEREO_COUNT>
0

> <PUBCHEM_ATOM_UDEF_STEREO_COUNT>
0

> <PUBCHEM_BOND_DEF_STEREO_COUNT>
0

> <PUBCHEM_BOND_UDEF_STEREO_COUNT>
0

> <PUBCHEM_ISOTOPIC_ATOM_COUNT>
0

> <PUBCHEM_COMPONENT_COUNT>
1

> <PUBCHEM_CACTVS_TAUTO_COUNT>
2

> <PUBCHEM_CONFORMER_ID>
01096F8C00000001

> <PUBCHEM_MMFF94_ENERGY>
22.0885

> <PUBCHEM_FEATURE_SELFOVERLAP>
25.371

> <PUBCHEM_SHAPE_FINGERPRINT>
12400797 292 18057882450931435212
12592029 89 18126000718408929353
1420 336 18337122150466970351
14251740 79 18045488970927747254
14251745 187 18188490297610522734
15415430 2 18408046208135484975
16752209 62 18337966669875696927
16945 1 18271535268120609345
18785283 64 16247422644354522944
20645476 183 18131353041832776651
20871999 31 18335699477063058556
20905425 154 17828776366905782407
21634736 98 18200869570415919796
22721475 48 18189049815552466093
22802520 49 18265335006034637953
232386 152 18267891448258398024
23559900 14 18113906013663103626
2748010 2 18049457954147344715
598444 67 18339078181958901331
81228 2 18265910063891542801
8809292 202 18334011713739583276
90525 40 18198904901523541437

> <PUBCHEM_SHAPE_MULTIPOLES>
346.44
5.63
2.92
1.35
3.09
0.39
-0.14
0.74
1.77
-1.72
-0.21
0.29
-0.04
0.33

> <PUBCHEM_SHAPE_SELFOVERLAP>
731.481

> <PUBCHEM_SHAPE_VOLUME>
195.1

> <PUBCHEM_COORDINATE_TYPE>
2
5
10

$$$$

