11108083
  -OEChem-07051213153D

 43 42  0     1  0  0  0  0  0999 V2000
    5.1053    2.8811    0.6879 O   0  0  0  0  0  0  0  0  0  0  0  0
   -8.6683   -1.7320    1.7586 O   0  0  0  0  0  0  0  0  0  0  0  0
    5.1083   -0.8752    1.3157 C   0  0  0  0  0  0  0  0  0  0  0  0
    5.4543    0.6147    1.4123 C   0  0  0  0  0  0  0  0  0  0  0  0
    5.4513   -1.5529   -0.0144 C   0  0  0  0  0  0  0  0  0  0  0  0
    4.7119    1.5309    0.4297 C   0  0  1  0  0  0  0  0  0  0  0  0
    5.1273   -3.0468   -0.0374 C   0  0  0  0  0  0  0  0  0  0  0  0
    5.5708   -3.6895   -1.3428 C   0  0  0  0  0  0  0  0  0  0  0  0
    3.2160    1.4427    0.5572 C   0  0  0  0  0  0  0  0  0  0  0  0
    2.4032    1.1349   -0.4652 C   0  0  0  0  0  0  0  0  0  0  0  0
    0.9639    1.0569   -0.3337 C   0  0  0  0  0  0  0  0  0  0  0  0
   -6.8786   -0.6246    0.5806 C   0  0  0  0  0  0  0  0  0  0  0  0
   -6.5129    0.4425   -0.4539 C   0  0  0  0  0  0  0  0  0  0  0  0
   -8.3850   -0.7443    0.7782 C   0  0  0  0  0  0  0  0  0  0  0  0
    0.0894    0.7566   -1.3055 C   0  0  0  0  0  0  0  0  0  0  0  0
   -5.0579    0.5106   -0.6492 C   0  0  0  0  0  0  0  0  0  0  0  0
   -1.3199    0.6917   -1.1292 C   0  0  0  0  0  0  0  0  0  0  0  0
   -3.8692    0.5684   -0.8069 C   0  0  0  0  0  0  0  0  0  0  0  0
   -2.5101    0.6341   -0.9823 C   0  0  0  0  0  0  0  0  0  0  0  0
    4.0438   -1.0234    1.5332 H   0  0  0  0  0  0  0  0  0  0  0  0
    5.6519   -1.3943    2.1158 H   0  0  0  0  0  0  0  0  0  0  0  0
    6.5355    0.7438    1.2714 H   0  0  0  0  0  0  0  0  0  0  0  0
    5.2588    0.9546    2.4386 H   0  0  0  0  0  0  0  0  0  0  0  0
    6.5200   -1.4097   -0.2168 H   0  0  0  0  0  0  0  0  0  0  0  0
    4.9069   -1.0619   -0.8292 H   0  0  0  0  0  0  0  0  0  0  0  0
    5.0246    1.3022   -0.5955 H   0  0  0  0  0  0  0  0  0  0  0  0
    5.6293   -3.5488    0.7975 H   0  0  0  0  0  0  0  0  0  0  0  0
    4.0494   -3.1944    0.0949 H   0  0  0  0  0  0  0  0  0  0  0  0
    5.0672   -3.2276   -2.1980 H   0  0  0  0  0  0  0  0  0  0  0  0
    6.6516   -3.5876   -1.4836 H   0  0  0  0  0  0  0  0  0  0  0  0
    5.3278   -4.7566   -1.3411 H   0  0  0  0  0  0  0  0  0  0  0  0
    2.7967    1.6552    1.5385 H   0  0  0  0  0  0  0  0  0  0  0  0
    6.0689    2.9337    0.5679 H   0  0  0  0  0  0  0  0  0  0  0  0
    2.8216    0.9280   -1.4466 H   0  0  0  0  0  0  0  0  0  0  0  0
    0.5715    1.2662    0.6612 H   0  0  0  0  0  0  0  0  0  0  0  0
   -6.4012   -0.3970    1.5430 H   0  0  0  0  0  0  0  0  0  0  0  0
   -6.4764   -1.6014    0.2810 H   0  0  0  0  0  0  0  0  0  0  0  0
   -6.9995    0.2142   -1.4092 H   0  0  0  0  0  0  0  0  0  0  0  0
   -6.8869    1.4194   -0.1264 H   0  0  0  0  0  0  0  0  0  0  0  0
   -8.8765   -1.0411   -0.1535 H   0  0  0  0  0  0  0  0  0  0  0  0
   -8.8191    0.2052    1.1075 H   0  0  0  0  0  0  0  0  0  0  0  0
    0.4603    0.5445   -2.3050 H   0  0  0  0  0  0  0  0  0  0  0  0
   -8.2436   -1.4526    2.5876 H   0  0  0  0  0  0  0  0  0  0  0  0
  1  6  1  0  0  0  0
  1 33  1  0  0  0  0
  2 14  1  0  0  0  0
  2 43  1  0  0  0  0
  3  4  1  0  0  0  0
  3  5  1  0  0  0  0
  3 20  1  0  0  0  0
  3 21  1  0  0  0  0
  4  6  1  0  0  0  0
  4 22  1  0  0  0  0
  4 23  1  0  0  0  0
  5  7  1  0  0  0  0
  5 24  1  0  0  0  0
  5 25  1  0  0  0  0
  6  9  1  0  0  0  0
  6 26  1  0  0  0  0
  7  8  1  0  0  0  0
  7 27  1  0  0  0  0
  7 28  1  0  0  0  0
  8 29  1  0  0  0  0
  8 30  1  0  0  0  0
  8 31  1  0  0  0  0
  9 10  2  0  0  0  0
  9 32  1  0  0  0  0
 10 11  1  0  0  0  0
 10 34  1  0  0  0  0
 11 15  2  0  0  0  0
 11 35  1  0  0  0  0
 12 13  1  0  0  0  0
 12 14  1  0  0  0  0
 12 36  1  0  0  0  0
 12 37  1  0  0  0  0
 13 16  1  0  0  0  0
 13 38  1  0  0  0  0
 13 39  1  0  0  0  0
 14 40  1  0  0  0  0
 14 41  1  0  0  0  0
 15 17  1  0  0  0  0
 15 42  1  0  0  0  0
 16 18  3  0  0  0  0
 17 19  3  0  0  0  0
 18 19  1  0  0  0  0
M  END
> <PUBCHEM_COMPOUND_CID>
11108083

> <PUBCHEM_CONFORMER_RMSD>
0.8

> <PUBCHEM_CONFORMER_DIVERSEORDER>
1
71
123
122
168
158
184
11
255
148
45
114
198
76
66
98
61
221
242
51
213
237
90
234
97
12
100
49
173
35
70
17
244
13
171
38
167
155
247
73
177
42
204
81
60
233
2
113
250
165
5
132
23
32
228
225
53
256
37
47
185
36
197
150
29
16
7
72
153
43
19
248
126
211
149
176
82
180
216
222
21
133
78
224
238
102
125
214
58
253
63
15
129
30
55
64
159
231
170
166
174
243
33
121
96
91
251
20
127
136
103
172
241
209
134
6
239
84
69
3
118
162
181
182
130
27
154
44
39
26
163
236
40
68
175
83
131
65
62
205
106
77
107
229
105
202
138
94
219
190
210
201
252
110
137
14
192
18
160
4
217
9
240
186
86
56
57
235
230
28
48
8
74
203
218
195
208
10
93
79
109
146
50
88
101
227
115
193
31
152
151
199
156
254
92
87
145
143
25
67
183
99
207
104
200
140
111
108
95
54
188
187
212
128
194
119
206
161
141
189
22
178
112
191
249
116
169
215
89
157
117
179
52
120
220
124
34
41
245
139
24
85
135
232
223
147
59
144
164
75
196
46
142
80
226
246

> <PUBCHEM_MMFF94_PARTIAL_CHARGES>
17
1 -0.68
10 -0.15
11 -0.15
13 0.2
14 0.28
15 -0.09
16 -0.2
17 -0.06
2 -0.68
32 0.15
33 0.4
34 0.15
35 0.15
42 0.15
43 0.4
6 0.42
9 -0.29

> <PUBCHEM_EFFECTIVE_ROTOR_COUNT>
8

> <PUBCHEM_PHARMACOPHORE_FEATURES>
6
1 1 acceptor
1 1 donor
1 2 acceptor
1 2 donor
1 8 hydrophobe
4 3 4 5 7 hydrophobe

> <PUBCHEM_HEAVY_ATOM_COUNT>
19

> <PUBCHEM_ATOM_DEF_STEREO_COUNT>
1

> <PUBCHEM_ATOM_UDEF_STEREO_COUNT>
0

> <PUBCHEM_BOND_DEF_STEREO_COUNT>
2

> <PUBCHEM_BOND_UDEF_STEREO_COUNT>
0

> <PUBCHEM_ISOTOPIC_ATOM_COUNT>
0

> <PUBCHEM_COMPONENT_COUNT>
1

> <PUBCHEM_CACTVS_TAUTO_COUNT>
1

> <PUBCHEM_CONFORMER_ID>
00A97EF300000001

> <PUBCHEM_MMFF94_ENERGY>
6.8033

> <PUBCHEM_FEATURE_SELFOVERLAP>
30.446

> <PUBCHEM_SHAPE_FINGERPRINT>
10316853 100 18060137665265427890
10669705 251 18130496458521039747
10883706 89 17679010737282987297
11408170 132 13183030605630190495
11761917 87 18189323735861915351
125118 31 5617257035221584675
13533116 47 18187653517980451984
13668630 136 16558756681363627569
13955234 65 18261127257657941376
14344974 204 17845082967051757131
14556957 393 12823018672746169015
14598715 104 5906049215114061019
1768 124 18341615880407519023
1818759 1 16343696618207971641
20165401 70 18260276273311117686
20397935 70 18411703201358563446
20554085 129 13912329001199767735
21049683 118 7204192016526228716
220451 1 17968385554404551332
22864921 267 18261948652424740731
2303208 19 18060144279314103381
23081809 10 17458920257679678517
54076057 127 18409448060266342464

> <PUBCHEM_SHAPE_MULTIPOLES>
379.27
25.74
3.01
1.42
49.06
2.6
0.19
15.01
11.02
-8.3
-0.32
0.4
0.37
4.12

> <PUBCHEM_SHAPE_SELFOVERLAP>
715.038

> <PUBCHEM_SHAPE_VOLUME>
232.5

> <PUBCHEM_COORDINATE_TYPE>
2
5
10

$$$$

