17395887
  -OEChem-06241222533D

 37 39  0     1  0  0  0  0  0999 V2000
   -4.4329   -0.0566    1.1684 S   0  0  0  0  0  0  0  0  0  0  0  0
   -0.7807   -1.1679    1.9202 O   0  0  0  0  0  0  0  0  0  0  0  0
    4.7962   -0.0927   -0.5037 O   0  0  0  0  0  0  0  0  0  0  0  0
   -1.2295   -1.2836   -0.3644 N   0  0  0  0  0  0  0  0  0  0  0  0
    3.0576   -1.5590   -0.0378 N   0  0  0  0  0  0  0  0  0  0  0  0
    1.7452   -1.7733    0.2732 N   0  0  0  0  0  0  0  0  0  0  0  0
   -2.6316   -1.6224   -0.2732 C   0  0  1  0  0  0  0  0  0  0  0  0
    1.3697    0.6359    0.2131 C   0  0  0  0  0  0  0  0  0  0  0  0
    0.9589   -0.7551    0.3960 C   0  0  0  0  0  0  0  0  0  0  0  0
    2.7065    0.8569   -0.0972 C   0  0  0  0  0  0  0  0  0  0  0  0
   -3.4717   -0.3647   -0.2149 C   0  0  0  0  0  0  0  0  0  0  0  0
   -0.4457   -1.0906    0.7498 C   0  0  0  0  0  0  0  0  0  0  0  0
   -3.0025   -2.5370   -1.4386 C   0  0  0  0  0  0  0  0  0  0  0  0
    3.6153   -0.2974   -0.2308 C   0  0  0  0  0  0  0  0  0  0  0  0
    0.4849    1.7106    0.3275 C   0  0  0  0  0  0  0  0  0  0  0  0
    3.1746    2.1614   -0.2871 C   0  0  0  0  0  0  0  0  0  0  0  0
   -3.5910    0.6310   -1.1594 C   0  0  0  0  0  0  0  0  0  0  0  0
    0.9525    3.0118    0.1382 C   0  0  0  0  0  0  0  0  0  0  0  0
    2.2944    3.2370   -0.1670 C   0  0  0  0  0  0  0  0  0  0  0  0
    3.9245   -2.7173   -0.1759 C   0  0  0  0  0  0  0  0  0  0  0  0
   -4.4831    1.6604   -0.7419 C   0  0  0  0  0  0  0  0  0  0  0  0
   -5.0117    1.4124    0.5057 C   0  0  0  0  0  0  0  0  0  0  0  0
   -2.7707   -2.1988    0.6510 H   0  0  0  0  0  0  0  0  0  0  0  0
   -0.8275   -1.1321   -1.2857 H   0  0  0  0  0  0  0  0  0  0  0  0
   -2.8388   -2.0480   -2.4060 H   0  0  0  0  0  0  0  0  0  0  0  0
   -2.3957   -3.4492   -1.4253 H   0  0  0  0  0  0  0  0  0  0  0  0
   -4.0571   -2.8287   -1.3864 H   0  0  0  0  0  0  0  0  0  0  0  0
   -0.5642    1.5630    0.5655 H   0  0  0  0  0  0  0  0  0  0  0  0
    4.2148    2.3599   -0.5298 H   0  0  0  0  0  0  0  0  0  0  0  0
   -3.0649    0.6275   -2.1056 H   0  0  0  0  0  0  0  0  0  0  0  0
    0.2692    3.8514    0.2288 H   0  0  0  0  0  0  0  0  0  0  0  0
    2.6542    4.2513   -0.3139 H   0  0  0  0  0  0  0  0  0  0  0  0
    3.9379   -3.2546    0.7770 H   0  0  0  0  0  0  0  0  0  0  0  0
    4.9481   -2.4474   -0.4465 H   0  0  0  0  0  0  0  0  0  0  0  0
    3.5115   -3.3687   -0.9519 H   0  0  0  0  0  0  0  0  0  0  0  0
   -4.7243    2.5385   -1.3267 H   0  0  0  0  0  0  0  0  0  0  0  0
   -5.7101    2.0237    1.0598 H   0  0  0  0  0  0  0  0  0  0  0  0
  1 11  1  0  0  0  0
  1 22  1  0  0  0  0
  2 12  2  0  0  0  0
  3 14  2  0  0  0  0
  4  7  1  0  0  0  0
  4 12  1  0  0  0  0
  4 24  1  0  0  0  0
  5  6  1  0  0  0  0
  5 14  1  0  0  0  0
  5 20  1  0  0  0  0
  6  9  2  0  0  0  0
  7 11  1  0  0  0  0
  7 13  1  0  0  0  0
  7 23  1  0  0  0  0
  8  9  1  0  0  0  0
  8 10  1  0  0  0  0
  8 15  2  0  0  0  0
  9 12  1  0  0  0  0
 10 14  1  0  0  0  0
 10 16  2  0  0  0  0
 11 17  2  0  0  0  0
 13 25  1  0  0  0  0
 13 26  1  0  0  0  0
 13 27  1  0  0  0  0
 15 18  1  0  0  0  0
 15 28  1  0  0  0  0
 16 19  1  0  0  0  0
 16 29  1  0  0  0  0
 17 21  1  0  0  0  0
 17 30  1  0  0  0  0
 18 19  2  0  0  0  0
 18 31  1  0  0  0  0
 19 32  1  0  0  0  0
 20 33  1  0  0  0  0
 20 34  1  0  0  0  0
 20 35  1  0  0  0  0
 21 22  2  0  0  0  0
 21 36  1  0  0  0  0
 22 37  1  0  0  0  0
M  END
> <PUBCHEM_COMPOUND_CID>
17395887

> <PUBCHEM_CONFORMER_RMSD>
0.6

> <PUBCHEM_CONFORMER_DIVERSEORDER>
1
100
52
32
56
73
6
102
75
18
14
78
55
62
84
43
51
42
57
90
19
95
63
8
93
68
41
25
48
66
97
65
7
58
10
72
67
83
24
44
70
37
60
12
15
38
35
69
61
82
16
40
3
64
5
11
2
30
36
81
46
94
96
99
77
23
39
21
27
47
22
31
74
29
87
101
34
26
28
92
98
50
17
76
33
13
9
86
89
45
71
85
4
80
79
20
54
88
59
53
91
49

> <PUBCHEM_MMFF94_PARTIAL_CHARGES>
29
1 -0.08
10 0.09
11 -0.14
12 0.63
14 0.54
15 -0.15
16 -0.15
17 -0.15
18 -0.15
19 -0.15
2 -0.57
20 0.3
21 -0.15
22 -0.11
24 0.37
28 0.15
29 0.15
3 -0.57
30 0.15
31 0.15
32 0.15
36 0.15
37 0.15
4 -0.73
5 -0.3
6 -0.51
7 0.48
8 0.09
9 0.36

> <PUBCHEM_EFFECTIVE_ROTOR_COUNT>
4

> <PUBCHEM_PHARMACOPHORE_FEATURES>
7
1 2 acceptor
1 3 acceptor
1 4 donor
1 6 acceptor
5 1 11 17 21 22 rings
6 5 6 8 9 10 14 rings
6 8 10 15 16 18 19 rings

> <PUBCHEM_HEAVY_ATOM_COUNT>
22

> <PUBCHEM_ATOM_DEF_STEREO_COUNT>
0

> <PUBCHEM_ATOM_UDEF_STEREO_COUNT>
1

> <PUBCHEM_BOND_DEF_STEREO_COUNT>
0

> <PUBCHEM_BOND_UDEF_STEREO_COUNT>
0

> <PUBCHEM_ISOTOPIC_ATOM_COUNT>
0

> <PUBCHEM_COMPONENT_COUNT>
1

> <PUBCHEM_CACTVS_TAUTO_COUNT>
2

> <PUBCHEM_CONFORMER_ID>
010970AF00000001

> <PUBCHEM_MMFF94_ENERGY>
45.81

> <PUBCHEM_FEATURE_SELFOVERLAP>
35.545

> <PUBCHEM_SHAPE_FINGERPRINT>
10074138 170 15176741341551875203
10906281 52 18342730781483164136
11265709 11 18268433615266493954
116883 192 18118399781551333270
12788726 201 18053662766180889282
13004483 165 18122354737904283338
13464514 151 18342456989580343192
13583140 156 18271794727607086139
13944108 23 17118340226212726261
14251757 17 18341900752434225085
14713325 29 17338424589181004400
15042514 8 17619069873174139626
15081414 286 18409440419245177224
15163728 17 16841042964248353220
15196674 1 18411418380444437237
15210252 30 17988911255174242468
15295992 7 18131343090509486465
15442244 35 18408605867996290433
1601671 61 18410294718326013876
16087824 20 17978507860372017397
17349148 13 17168137970689590219
17492 89 18337112246320586239
17834072 14 6916261828132740873
18186145 218 17703796920096344427
18335252 114 18266468796730697293
19930381 70 17185601217863464101
20567600 299 18334580088100088624
20775438 99 17032809925651962567
20832881 197 18057604459231146098
21120745 212 16044810083432417306
21478907 32 17834958946838658330
21864079 5 18201168654674186841
221357 26 18341055198428756925
221490 88 18341045220676071434
22393880 68 18043242449423108140
23402655 69 18409729564706216646
23558518 356 17914053097202762547
23559900 14 18333455344098013826
25 1 18273497870548506306
340366 18 18260547852872666471
34934 24 18409171013237416098
350125 39 18336544920354133143
3524813 1 18059303170484021293
5281201 14 18411697673377191223
53777708 50 18262240997863736759
543358 83 18409726266435051364
6287921 2 17915732081655055677
633830 44 17988647384782699875
6443956 14 18411696617284552982
7399639 24 17691118232435996747
7832392 63 18408611344322199055
84936 182 17899417484982694224
9981440 41 17689727358838348672

> <PUBCHEM_SHAPE_MULTIPOLES>
429.92
9.78
3.39
1.08
4.72
0.95
-0.14
0.51
1.1
-2.12
0.5
1.08
-0.32
-0.38

> <PUBCHEM_SHAPE_SELFOVERLAP>
918.931

> <PUBCHEM_SHAPE_VOLUME>
240.6

> <PUBCHEM_COORDINATE_TYPE>
2
5
10

$$$$

