5281788
  -OEChem-07051212592D

 81 84  0     1  0  0  0  0  0999 V2000
   10.3312    2.7500    0.0000 O   0  0  0  0  0  0  0  0  0  0  0  0
   10.3312   -0.2500    0.0000 O   0  0  0  0  0  0  0  0  0  0  0  0
   12.0632    2.7500    0.0000 O   0  0  0  0  0  0  0  0  0  0  0  0
    8.5991    1.7500    0.0000 O   0  0  0  0  0  0  0  0  0  0  0  0
   12.0632   -0.2500    0.0000 O   0  0  0  0  0  0  0  0  0  0  0  0
   12.0632    1.7500    0.0000 O   0  0  0  0  0  0  0  0  0  0  0  0
   10.3312    4.7500    0.0000 O   0  0  0  0  0  0  0  0  0  0  0  0
   12.0632    5.7500    0.0000 O   0  0  0  0  0  0  0  0  0  0  0  0
   13.7953    4.7500    0.0000 O   0  0  0  0  0  0  0  0  0  0  0  0
    8.5991   -1.2500    0.0000 O   0  0  0  0  0  0  0  0  0  0  0  0
   14.6613    3.2500    0.0000 O   0  0  0  0  0  0  0  0  0  0  0  0
    7.7331    0.2500    0.0000 O   0  0  0  0  0  0  0  0  0  0  0  0
   11.1972   -4.7500    0.0000 O   0  0  0  0  0  0  0  0  0  0  0  0
   12.9292   -5.7500    0.0000 O   0  0  0  0  0  0  0  0  0  0  0  0
    4.2690    4.2500    0.0000 O   0  0  0  0  0  0  0  0  0  0  0  0
    2.5369    3.2500    0.0000 O   0  0  0  0  0  0  0  0  0  0  0  0
   10.3312    1.7500    0.0000 C   0  0  1  0  0  0  0  0  0  0  0  0
    9.4651    1.2500    0.0000 C   0  0  1  0  0  0  0  0  0  0  0  0
   11.1972    1.2500    0.0000 C   0  0  2  0  0  0  0  0  0  0  0  0
    9.4651    0.2500    0.0000 C   0  0  1  0  0  0  0  0  0  0  0  0
   11.1972    3.2500    0.0000 C   0  0  2  0  0  0  0  0  0  0  0  0
   11.1972    4.2500    0.0000 C   0  0  1  0  0  0  0  0  0  0  0  0
   11.1972    0.2500    0.0000 C   0  0  1  0  0  0  0  0  0  0  0  0
   12.0632    4.7500    0.0000 C   0  0  2  0  0  0  0  0  0  0  0  0
   12.9292    4.2500    0.0000 C   0  0  1  0  0  0  0  0  0  0  0  0
   12.9292    3.2500    0.0000 C   0  0  1  0  0  0  0  0  0  0  0  0
    8.5991   -0.2500    0.0000 C   0  0  0  0  0  0  0  0  0  0  0  0
   13.7953    2.7500    0.0000 C   0  0  0  0  0  0  0  0  0  0  0  0
   12.0632   -1.2500    0.0000 C   0  0  0  0  0  0  0  0  0  0  0  0
    7.7331    1.2500    0.0000 C   0  0  0  0  0  0  0  0  0  0  0  0
   12.9292   -1.7500    0.0000 C   0  0  0  0  0  0  0  0  0  0  0  0
    6.8671    1.7500    0.0000 C   0  0  0  0  0  0  0  0  0  0  0  0
   12.9292   -2.7500    0.0000 C   0  0  0  0  0  0  0  0  0  0  0  0
    6.0010    1.2500    0.0000 C   0  0  0  0  0  0  0  0  0  0  0  0
   12.0632   -3.2500    0.0000 C   0  0  0  0  0  0  0  0  0  0  0  0
   13.7953   -3.2500    0.0000 C   0  0  0  0  0  0  0  0  0  0  0  0
   12.0632   -4.2500    0.0000 C   0  0  0  0  0  0  0  0  0  0  0  0
   13.7953   -4.2500    0.0000 C   0  0  0  0  0  0  0  0  0  0  0  0
    5.1350    1.7500    0.0000 C   0  0  0  0  0  0  0  0  0  0  0  0
   12.9292   -4.7500    0.0000 C   0  0  0  0  0  0  0  0  0  0  0  0
    5.1350    2.7500    0.0000 C   0  0  0  0  0  0  0  0  0  0  0  0
    4.2690    1.2500    0.0000 C   0  0  0  0  0  0  0  0  0  0  0  0
    4.2690    3.2500    0.0000 C   0  0  0  0  0  0  0  0  0  0  0  0
    3.4030    1.7500    0.0000 C   0  0  0  0  0  0  0  0  0  0  0  0
    3.4030    2.7500    0.0000 C   0  0  0  0  0  0  0  0  0  0  0  0
   10.8681    2.0600    0.0000 H   0  0  0  0  0  0  0  0  0  0  0  0
    9.4651    1.8700    0.0000 H   0  0  0  0  0  0  0  0  0  0  0  0
   11.1972    1.8700    0.0000 H   0  0  0  0  0  0  0  0  0  0  0  0
    9.4651   -0.3700    0.0000 H   0  0  0  0  0  0  0  0  0  0  0  0
   10.6603    3.5600    0.0000 H   0  0  0  0  0  0  0  0  0  0  0  0
   10.6603    3.9400    0.0000 H   0  0  0  0  0  0  0  0  0  0  0  0
   11.1972   -0.3700    0.0000 H   0  0  0  0  0  0  0  0  0  0  0  0
   12.6002    5.0600    0.0000 H   0  0  0  0  0  0  0  0  0  0  0  0
   12.9292    4.8700    0.0000 H   0  0  0  0  0  0  0  0  0  0  0  0
   12.9292    2.6300    0.0000 H   0  0  0  0  0  0  0  0  0  0  0  0
    8.3871    0.3326    0.0000 H   0  0  0  0  0  0  0  0  0  0  0  0
    7.9885   -0.3577    0.0000 H   0  0  0  0  0  0  0  0  0  0  0  0
   13.3967    2.2750    0.0000 H   0  0  0  0  0  0  0  0  0  0  0  0
   14.1938    2.2750    0.0000 H   0  0  0  0  0  0  0  0  0  0  0  0
   12.6002    1.4400    0.0000 H   0  0  0  0  0  0  0  0  0  0  0  0
   10.3312    5.3700    0.0000 H   0  0  0  0  0  0  0  0  0  0  0  0
   12.6002    6.0600    0.0000 H   0  0  0  0  0  0  0  0  0  0  0  0
   13.7953    5.3700    0.0000 H   0  0  0  0  0  0  0  0  0  0  0  0
   11.4526   -1.1423    0.0000 H   0  0  0  0  0  0  0  0  0  0  0  0
   11.8512   -1.8326    0.0000 H   0  0  0  0  0  0  0  0  0  0  0  0
    8.0622   -1.5600    0.0000 H   0  0  0  0  0  0  0  0  0  0  0  0
   13.5398   -1.8577    0.0000 H   0  0  0  0  0  0  0  0  0  0  0  0
   13.1413   -1.1674    0.0000 H   0  0  0  0  0  0  0  0  0  0  0  0
   15.1982    2.9400    0.0000 H   0  0  0  0  0  0  0  0  0  0  0  0
    6.8671    2.3700    0.0000 H   0  0  0  0  0  0  0  0  0  0  0  0
    6.0010    0.6300    0.0000 H   0  0  0  0  0  0  0  0  0  0  0  0
   11.5263   -2.9400    0.0000 H   0  0  0  0  0  0  0  0  0  0  0  0
   14.3322   -2.9400    0.0000 H   0  0  0  0  0  0  0  0  0  0  0  0
   14.3322   -4.5600    0.0000 H   0  0  0  0  0  0  0  0  0  0  0  0
    5.6720    3.0600    0.0000 H   0  0  0  0  0  0  0  0  0  0  0  0
    4.2690    0.6300    0.0000 H   0  0  0  0  0  0  0  0  0  0  0  0
   11.1972   -5.3700    0.0000 H   0  0  0  0  0  0  0  0  0  0  0  0
   13.4662   -6.0600    0.0000 H   0  0  0  0  0  0  0  0  0  0  0  0
    2.8660    1.4400    0.0000 H   0  0  0  0  0  0  0  0  0  0  0  0
    3.7320    4.5600    0.0000 H   0  0  0  0  0  0  0  0  0  0  0  0
    2.0000    2.9400    0.0000 H   0  0  0  0  0  0  0  0  0  0  0  0
 17  1  1  6  0  0  0
 21  1  1  1  0  0  0
  2 20  1  0  0  0  0
  2 23  1  0  0  0  0
  3 21  1  0  0  0  0
  3 26  1  0  0  0  0
 18  4  1  1  0  0  0
  4 30  1  0  0  0  0
 23  5  1  6  0  0  0
  5 29  1  0  0  0  0
 19  6  1  1  0  0  0
  6 60  1  0  0  0  0
 22  7  1  6  0  0  0
  7 61  1  0  0  0  0
 24  8  1  1  0  0  0
  8 62  1  0  0  0  0
 25  9  1  6  0  0  0
  9 63  1  0  0  0  0
 10 27  1  0  0  0  0
 10 66  1  0  0  0  0
 11 28  1  0  0  0  0
 11 69  1  0  0  0  0
 12 30  2  0  0  0  0
 13 37  1  0  0  0  0
 13 77  1  0  0  0  0
 14 40  1  0  0  0  0
 14 78  1  0  0  0  0
 15 43  1  0  0  0  0
 15 80  1  0  0  0  0
 16 45  1  0  0  0  0
 16 81  1  0  0  0  0
 17 18  1  0  0  0  0
 17 19  1  0  0  0  0
 17 46  1  0  0  0  0
 18 20  1  0  0  0  0
 18 47  1  0  0  0  0
 19 23  1  0  0  0  0
 19 48  1  0  0  0  0
 20 27  1  6  0  0  0
 20 49  1  0  0  0  0
 21 22  1  0  0  0  0
 21 50  1  0  0  0  0
 22 24  1  0  0  0  0
 22 51  1  0  0  0  0
 23 52  1  0  0  0  0
 24 25  1  0  0  0  0
 24 53  1  0  0  0  0
 25 26  1  0  0  0  0
 25 54  1  0  0  0  0
 26 28  1  1  0  0  0
 26 55  1  0  0  0  0
 27 56  1  0  0  0  0
 27 57  1  0  0  0  0
 28 58  1  0  0  0  0
 28 59  1  0  0  0  0
 29 31  1  0  0  0  0
 29 64  1  0  0  0  0
 29 65  1  0  0  0  0
 30 32  1  0  0  0  0
 31 33  1  0  0  0  0
 31 67  1  0  0  0  0
 31 68  1  0  0  0  0
 32 34  2  0  0  0  0
 32 70  1  0  0  0  0
 33 35  2  0  0  0  0
 33 36  1  0  0  0  0
 34 39  1  0  0  0  0
 34 71  1  0  0  0  0
 35 37  1  0  0  0  0
 35 72  1  0  0  0  0
 36 38  2  0  0  0  0
 36 73  1  0  0  0  0
 37 40  2  0  0  0  0
 38 40  1  0  0  0  0
 38 74  1  0  0  0  0
 39 41  2  0  0  0  0
 39 42  1  0  0  0  0
 41 43  1  0  0  0  0
 41 75  1  0  0  0  0
 42 44  2  0  0  0  0
 42 76  1  0  0  0  0
 43 45  2  0  0  0  0
 44 45  1  0  0  0  0
 44 79  1  0  0  0  0
M  END
> <PUBCHEM_COMPOUND_CID>
5281788

> <PUBCHEM_COMPOUND_CANONICALIZED>
1

> <PUBCHEM_CACTVS_COMPLEXITY>
953

> <PUBCHEM_CACTVS_HBOND_ACCEPTOR>
16

> <PUBCHEM_CACTVS_HBOND_DONOR>
10

> <PUBCHEM_CACTVS_ROTATABLE_BOND>
12

> <PUBCHEM_CACTVS_SUBSKEYS>
AAADcfB4PgAAAAAAAAAAAAAAAAAAAAAAAAA0aIEAAAAAAAABQAAAGgAACAAADBSwmAMwDoAABgCIAiDSCAACAAAgIAAIiAAGiMgZNiKCMRKicAElwBEPuYfA4LwOIAABAAAAQABAAAIAAACAAAAAAAAAAA==

> <PUBCHEM_IUPAC_OPENEYE_NAME>
[(2R,3R,4R,5R,6R)-6-[2-(3,4-dihydroxyphenyl)ethoxy]-5-hydroxy-2-(hydroxymethyl)-4-[(2S,3R,4S,5S,6R)-3,4,5-trihydroxy-6-(hydroxymethyl)tetrahydropyran-2-yl]oxy-tetrahydropyran-3-yl] (E)-3-(3,4-dihydroxyphenyl)prop-2-enoate

> <PUBCHEM_IUPAC_CAS_NAME>
(E)-3-(3,4-dihydroxyphenyl)-2-propenoic acid [(2R,3R,4R,5R,6R)-6-[2-(3,4-dihydroxyphenyl)ethoxy]-5-hydroxy-2-(hydroxymethyl)-4-[[(2S,3R,4S,5S,6R)-3,4,5-trihydroxy-6-(hydroxymethyl)-2-oxanyl]oxy]-3-oxanyl] ester

> <PUBCHEM_IUPAC_NAME>
[(2R,3R,4R,5R,6R)-6-[2-(3,4-dihydroxyphenyl)ethoxy]-5-hydroxy-2-(hydroxymethyl)-4-[(2S,3R,4S,5S,6R)-3,4,5-trihydroxy-6-(hydroxymethyl)oxan-2-yl]oxyoxan-3-yl] (E)-3-(3,4-dihydroxyphenyl)prop-2-enoate

> <PUBCHEM_IUPAC_SYSTEMATIC_NAME>
[(2R,3R,4R,5R,6R)-6-[2-[3,4-bis(oxidanyl)phenyl]ethoxy]-2-(hydroxymethyl)-4-[(2S,3R,4S,5S,6R)-6-(hydroxymethyl)-3,4,5-tris(oxidanyl)oxan-2-yl]oxy-5-oxidanyl-oxan-3-yl] (E)-3-[3,4-bis(oxidanyl)phenyl]prop-2-enoate

> <PUBCHEM_IUPAC_TRADITIONAL_NAME>
(E)-3-(3,4-dihydroxyphenyl)acrylic acid [(2R,3R,4R,5R,6R)-6-[2-(3,4-dihydroxyphenyl)ethoxy]-5-hydroxy-2-methylol-4-[(2S,3R,4S,5S,6R)-3,4,5-trihydroxy-6-methylol-tetrahydropyran-2-yl]oxy-tetrahydropyran-3-yl] ester

> <PUBCHEM_IUPAC_INCHI>
InChI=1S/C29H36O16/c30-11-19-22(37)23(38)24(39)29(42-19)45-27-25(40)28(41-8-7-14-2-5-16(33)18(35)10-14)43-20(12-31)26(27)44-21(36)6-3-13-1-4-15(32)17(34)9-13/h1-6,9-10,19-20,22-35,37-40H,7-8,11-12H2/b6-3+/t19-,20-,22-,23+,24-,25-,26-,27-,28-,29+/m1/s1

> <PUBCHEM_IUPAC_INCHIKEY>
KFEFLPDKISUVNR-QJEHNBJNSA-N

> <PUBCHEM_XLOGP3_AA>
-1

> <PUBCHEM_EXACT_MASS>
640.200335

> <PUBCHEM_MOLECULAR_FORMULA>
C29H36O16

> <PUBCHEM_MOLECULAR_WEIGHT>
640.58654

> <PUBCHEM_OPENEYE_CAN_SMILES>
C1=CC(=C(C=C1CCOC2C(C(C(C(O2)CO)OC(=O)C=CC3=CC(=C(C=C3)O)O)OC4C(C(C(C(O4)CO)O)O)O)O)O)O

> <PUBCHEM_OPENEYE_ISO_SMILES>
C1=CC(=C(C=C1CCO[C@H]2[C@@H]([C@H]([C@@H]([C@H](O2)CO)OC(=O)/C=C/C3=CC(=C(C=C3)O)O)O[C@H]4[C@@H]([C@H]([C@@H]([C@H](O4)CO)O)O)O)O)O)O

> <PUBCHEM_CACTVS_TPSA>
266

> <PUBCHEM_MONOISOTOPIC_WEIGHT>
640.200335

> <PUBCHEM_TOTAL_CHARGE>
0

> <PUBCHEM_HEAVY_ATOM_COUNT>
45

> <PUBCHEM_ATOM_DEF_STEREO_COUNT>
10

> <PUBCHEM_ATOM_UDEF_STEREO_COUNT>
0

> <PUBCHEM_BOND_DEF_STEREO_COUNT>
1

> <PUBCHEM_BOND_UDEF_STEREO_COUNT>
0

> <PUBCHEM_ISOTOPIC_ATOM_COUNT>
0

> <PUBCHEM_COMPONENT_COUNT>
1

> <PUBCHEM_CACTVS_TAUTO_COUNT>
288

> <PUBCHEM_COORDINATE_TYPE>
1
5
255

> <PUBCHEM_BONDANNOTATIONS>
17  1  6
21  1  5
20  27  6
26  28  5
33  35  8
33  36  8
35  37  8
36  38  8
37  40  8
38  40  8
39  41  8
39  42  8
18  4  5
41  43  8
42  44  8
43  45  8
44  45  8
23  5  6
19  6  5
22  7  6
24  8  5
25  9  6

$$$$

