6437378
  -OEChem-07051213093D

 60 62  0     1  0  0  0  0  0999 V2000
   -5.9500   -0.6633    0.0337 S   0  0  0  0  0  0  0  0  0  0  0  0
   -1.8492   -0.1209   -0.7088 O   0  0  0  0  0  0  0  0  0  0  0  0
   -1.2649   -0.6565    1.5288 O   0  0  0  0  0  0  0  0  0  0  0  0
    0.8242   -2.1996    0.2177 O   0  0  0  0  0  0  0  0  0  0  0  0
   -5.7860    1.5500    1.4618 O   0  0  0  0  0  0  0  0  0  0  0  0
    2.5058   -3.1863   -1.0238 O   0  0  0  0  0  0  0  0  0  0  0  0
   -3.8759    0.2279    1.2476 N   0  0  0  0  0  0  0  0  0  0  0  0
   -1.9832   -1.0639    0.3631 C   0  0  2  0  0  0  0  0  0  0  0  0
   -0.5243   -0.0437   -1.2413 C   0  0  1  0  0  0  0  0  0  0  0  0
   -1.5571   -2.4733   -0.0947 C   0  0  0  0  0  0  0  0  0  0  0  0
   -0.1836   -2.4840   -0.7766 C   0  0  1  0  0  0  0  0  0  0  0  0
   -0.1424   -1.3954   -1.8544 C   0  0  0  0  0  0  0  0  0  0  0  0
   -3.4525   -1.0667    0.7552 C   0  0  2  0  0  0  0  0  0  0  0  0
   -0.4626    1.0768   -2.2844 C   0  0  0  0  0  0  0  0  0  0  0  0
   -4.3600   -1.4182   -0.4159 C   0  0  0  0  0  0  0  0  0  0  0  0
   -0.8976    2.4564   -1.7627 C   0  0  0  0  0  0  0  0  0  0  0  0
   -0.1767    2.9595   -0.4948 C   0  0  2  0  0  0  0  0  0  0  0  0
   -5.1944    0.5682    1.0398 C   0  0  0  0  0  0  0  0  0  0  0  0
   -0.7112    4.3429   -0.1095 C   0  0  0  0  0  0  0  0  0  0  0  0
    2.1121   -2.5017   -0.0949 C   0  0  0  0  0  0  0  0  0  0  0  0
    1.3220    3.0376   -0.6724 C   0  0  0  0  0  0  0  0  0  0  0  0
    2.9649   -1.7749    0.8700 C   0  0  0  0  0  0  0  0  0  0  0  0
    2.1965    2.3950    0.1190 C   0  0  0  0  0  0  0  0  0  0  0  0
    4.1460   -1.2121    0.5543 C   0  0  0  0  0  0  0  0  0  0  0  0
    4.9163   -0.4555    1.6205 C   0  0  0  0  0  0  0  0  0  0  0  0
    3.6295    2.4936   -0.0440 C   0  0  0  0  0  0  0  0  0  0  0  0
    4.3884    0.9663    1.8724 C   0  0  0  0  0  0  0  0  0  0  0  0
    4.5708    1.8876    0.6975 C   0  0  0  0  0  0  0  0  0  0  0  0
    4.7953   -1.2460   -0.8032 C   0  0  0  0  0  0  0  0  0  0  0  0
    0.1712    0.1976   -0.4307 H   0  0  0  0  0  0  0  0  0  0  0  0
   -2.2665   -2.8753   -0.8259 H   0  0  0  0  0  0  0  0  0  0  0  0
   -1.5355   -3.1466    0.7709 H   0  0  0  0  0  0  0  0  0  0  0  0
   -0.0007   -3.4744   -1.2101 H   0  0  0  0  0  0  0  0  0  0  0  0
   -0.8505   -1.6583   -2.6500 H   0  0  0  0  0  0  0  0  0  0  0  0
    0.8570   -1.3284   -2.2983 H   0  0  0  0  0  0  0  0  0  0  0  0
   -3.6190   -1.7660    1.5868 H   0  0  0  0  0  0  0  0  0  0  0  0
   -1.1234    0.8247   -3.1240 H   0  0  0  0  0  0  0  0  0  0  0  0
    0.5531    1.1423   -2.6924 H   0  0  0  0  0  0  0  0  0  0  0  0
   -4.0427   -0.9758   -1.3647 H   0  0  0  0  0  0  0  0  0  0  0  0
   -4.4790   -2.4969   -0.5478 H   0  0  0  0  0  0  0  0  0  0  0  0
   -0.7606    3.1823   -2.5756 H   0  0  0  0  0  0  0  0  0  0  0  0
   -1.9773    2.4287   -1.5639 H   0  0  0  0  0  0  0  0  0  0  0  0
   -3.2937    0.8110    1.8401 H   0  0  0  0  0  0  0  0  0  0  0  0
   -1.8698   -0.3155    2.2049 H   0  0  0  0  0  0  0  0  0  0  0  0
   -0.4185    2.2836    0.3352 H   0  0  0  0  0  0  0  0  0  0  0  0
   -0.5252    5.0810   -0.8981 H   0  0  0  0  0  0  0  0  0  0  0  0
   -1.7916    4.3045    0.0675 H   0  0  0  0  0  0  0  0  0  0  0  0
   -0.2372    4.7052    0.8096 H   0  0  0  0  0  0  0  0  0  0  0  0
    1.6857    3.6650   -1.4838 H   0  0  0  0  0  0  0  0  0  0  0  0
    2.5618   -1.6634    1.8736 H   0  0  0  0  0  0  0  0  0  0  0  0
    1.8150    1.7754    0.9240 H   0  0  0  0  0  0  0  0  0  0  0  0
    4.8649   -1.0154    2.5642 H   0  0  0  0  0  0  0  0  0  0  0  0
    5.9823   -0.4241    1.3605 H   0  0  0  0  0  0  0  0  0  0  0  0
    3.9748    3.1285   -0.8586 H   0  0  0  0  0  0  0  0  0  0  0  0
    4.9452    1.3947    2.7156 H   0  0  0  0  0  0  0  0  0  0  0  0
    3.3451    0.9200    2.2002 H   0  0  0  0  0  0  0  0  0  0  0  0
    5.6079    2.0825    0.4265 H   0  0  0  0  0  0  0  0  0  0  0  0
    5.2491   -0.2795   -1.0432 H   0  0  0  0  0  0  0  0  0  0  0  0
    4.0922   -1.4569   -1.6122 H   0  0  0  0  0  0  0  0  0  0  0  0
    5.5862   -2.0026   -0.8200 H   0  0  0  0  0  0  0  0  0  0  0  0
  1 15  1  0  0  0  0
  1 18  1  0  0  0  0
  2  8  1  0  0  0  0
  2  9  1  0  0  0  0
  3  8  1  0  0  0  0
  3 44  1  0  0  0  0
  4 11  1  0  0  0  0
  4 20  1  0  0  0  0
  5 18  2  0  0  0  0
  6 20  2  0  0  0  0
  7 13  1  0  0  0  0
  7 18  1  0  0  0  0
  7 43  1  0  0  0  0
  8 10  1  0  0  0  0
  8 13  1  0  0  0  0
  9 12  1  0  0  0  0
  9 14  1  0  0  0  0
  9 30  1  0  0  0  0
 10 11  1  0  0  0  0
 10 31  1  0  0  0  0
 10 32  1  0  0  0  0
 11 12  1  0  0  0  0
 11 33  1  0  0  0  0
 12 34  1  0  0  0  0
 12 35  1  0  0  0  0
 13 15  1  0  0  0  0
 13 36  1  0  0  0  0
 14 16  1  0  0  0  0
 14 37  1  0  0  0  0
 14 38  1  0  0  0  0
 15 39  1  0  0  0  0
 15 40  1  0  0  0  0
 16 17  1  0  0  0  0
 16 41  1  0  0  0  0
 16 42  1  0  0  0  0
 17 19  1  0  0  0  0
 17 21  1  0  0  0  0
 17 45  1  0  0  0  0
 19 46  1  0  0  0  0
 19 47  1  0  0  0  0
 19 48  1  0  0  0  0
 20 22  1  0  0  0  0
 21 23  2  0  0  0  0
 21 49  1  0  0  0  0
 22 24  2  0  0  0  0
 22 50  1  0  0  0  0
 23 26  1  0  0  0  0
 23 51  1  0  0  0  0
 24 25  1  0  0  0  0
 24 29  1  0  0  0  0
 25 27  1  0  0  0  0
 25 52  1  0  0  0  0
 25 53  1  0  0  0  0
 26 28  2  0  0  0  0
 26 54  1  0  0  0  0
 27 28  1  0  0  0  0
 27 55  1  0  0  0  0
 27 56  1  0  0  0  0
 28 57  1  0  0  0  0
 29 58  1  0  0  0  0
 29 59  1  0  0  0  0
 29 60  1  0  0  0  0
M  END
> <PUBCHEM_COMPOUND_CID>
6437378

> <PUBCHEM_CONFORMER_RMSD>
0.8

> <PUBCHEM_CONFORMER_DIVERSEORDER>
1
3
2

> <PUBCHEM_MMFF94_PARTIAL_CHARGES>
31
1 -0.37
11 0.28
13 0.3
15 0.23
17 0.14
18 0.77
2 -0.56
20 0.71
21 -0.29
22 -0.14
23 -0.15
24 -0.28
25 0.14
26 -0.15
27 0.14
28 -0.29
29 0.14
3 -0.68
4 -0.43
43 0.37
44 0.4
49 0.15
5 -0.57
50 0.15
51 0.15
54 0.15
57 0.15
6 -0.57
7 -0.73
8 0.56
9 0.28

> <PUBCHEM_EFFECTIVE_ROTOR_COUNT>
3.8

> <PUBCHEM_PHARMACOPHORE_FEATURES>
7
1 2 acceptor
1 3 acceptor
1 3 donor
1 6 acceptor
1 7 donor
5 1 7 13 15 18 rings
6 2 8 9 10 11 12 rings

> <PUBCHEM_HEAVY_ATOM_COUNT>
29

> <PUBCHEM_ATOM_DEF_STEREO_COUNT>
5

> <PUBCHEM_ATOM_UDEF_STEREO_COUNT>
0

> <PUBCHEM_BOND_DEF_STEREO_COUNT>
3

> <PUBCHEM_BOND_UDEF_STEREO_COUNT>
0

> <PUBCHEM_ISOTOPIC_ATOM_COUNT>
0

> <PUBCHEM_COMPONENT_COUNT>
1

> <PUBCHEM_CACTVS_TAUTO_COUNT>
2

> <PUBCHEM_CONFORMER_ID>
00623A0200000001

> <PUBCHEM_MMFF94_ENERGY>
57.3777

> <PUBCHEM_FEATURE_SELFOVERLAP>
35.561

> <PUBCHEM_SHAPE_FINGERPRINT>
10006869 2 17981620565131436107
10708813 3 17978509737356121368
10764073 3 18270121360956270285
11135609 12 18271537472383493744
11445158 3 15938372817977215014
12107698 1 18130517409301911466
12156800 1 16522110121871119188
12422481 6 18412263977811119937
12553582 1 18196106443290283204
12633257 1 18130516244886155002
12677640 9 18048878490161169467
12788726 201 18059568156859437178
13075007 39 17773861031107542377
13122387 1 17400383620543392828
13140716 1 18269560446964935762
14114211 80 18124023534762059332
14466204 15 18336825282707935057
14725015 67 18129121024928679048
14765038 42 18121783825313779296
14784336 7 17395874063553634127
14840074 17 18272089327914000348
15420108 30 18187363208187448623
15840311 113 17969210309206958659
17974551 9 17982447092769530289
17980427 23 18187082858861512367
1813 80 16988564571768189308
20429552 37 18341615931910014865
20764821 26 18269293325663057132
23227448 37 18338242535578341302
23419403 2 18059303161883115253
23559900 14 17314767780750538967
3187 122 17774737449249354444
3493558 16 17606389115043961401
35225 105 16694678570201897480
392239 28 18271253801723452634
4149490 64 18056483843136903771
5081480 168 17242163772873707806
513532 50 18114165424522435670
56638632 10 18190194385830636497
69474 34 18342459252986014151
7064713 232 18189346667039552650
7097593 13 17979636736442782788
9777508 108 17763180645601745277

> <PUBCHEM_SHAPE_MULTIPOLES>
566.33
11.13
4.42
1.7
5.99
2.93
0.24
-0.74
-6.2
-2.25
1.03
-0.05
0.22
-0.01

> <PUBCHEM_SHAPE_SELFOVERLAP>
1153.226

> <PUBCHEM_SHAPE_VOLUME>
327.8

> <PUBCHEM_COORDINATE_TYPE>
2
5
10

$$$$

