60947
  -OEChem-07051212542D

 66 67  0     1  0  0  0  0  0999 V2000
    8.5991    4.0000    0.0000 S   0  0  0  0  0  0  0  0  0  0  0  0
    6.8671   -2.0000    0.0000 O   0  0  0  0  0  0  0  0  0  0  0  0
    8.0991    4.8660    0.0000 O   0  0  0  0  0  0  0  0  0  0  0  0
    9.0991    3.1340    0.0000 O   0  0  0  0  0  0  0  0  0  0  0  0
    9.4651    2.5000    0.0000 O   0  0  0  0  0  0  0  0  0  0  0  0
    8.5991    1.0000    0.0000 O   0  0  0  0  0  0  0  0  0  0  0  0
    2.5369   -6.5000    0.0000 N   0  0  0  0  0  0  0  0  0  0  0  0
    7.7331    3.5000    0.0000 N   0  0  0  0  0  0  0  0  0  0  0  0
    4.2690   -5.5000    0.0000 C   0  0  0  0  0  0  0  0  0  0  0  0
    4.2690   -6.5000    0.0000 C   0  0  0  0  0  0  0  0  0  0  0  0
    3.4030   -5.0000    0.0000 C   0  0  0  0  0  0  0  0  0  0  0  0
    5.1350   -5.0000    0.0000 C   0  0  0  0  0  0  0  0  0  0  0  0
    3.4030   -7.0000    0.0000 C   0  0  0  0  0  0  0  0  0  0  0  0
    2.5369   -5.5000    0.0000 C   0  0  0  0  0  0  0  0  0  0  0  0
    5.1350   -4.0000    0.0000 C   0  0  0  0  0  0  0  0  0  0  0  0
    6.0010   -3.5000    0.0000 C   0  0  0  0  0  0  0  0  0  0  0  0
    6.0010   -2.5000    0.0000 C   0  0  0  0  0  0  0  0  0  0  0  0
    7.7331    2.5000    0.0000 C   0  0  1  0  0  0  0  0  0  0  0  0
    6.8671    2.0000    0.0000 C   0  0  0  0  0  0  0  0  0  0  0  0
    9.4651    4.5000    0.0000 C   0  0  0  0  0  0  0  0  0  0  0  0
    6.8671   -1.0000    0.0000 C   0  0  0  0  0  0  0  0  0  0  0  0
    9.4651    5.5000    0.0000 C   0  0  0  0  0  0  0  0  0  0  0  0
    6.8671    1.0000    0.0000 C   0  0  0  0  0  0  0  0  0  0  0  0
   10.3312    6.0000    0.0000 C   0  0  0  0  0  0  0  0  0  0  0  0
    7.7331   -0.5000    0.0000 C   0  0  0  0  0  0  0  0  0  0  0  0
    6.0010   -0.5000    0.0000 C   0  0  0  0  0  0  0  0  0  0  0  0
    7.7331    0.5000    0.0000 C   0  0  0  0  0  0  0  0  0  0  0  0
    6.0010    0.5000    0.0000 C   0  0  0  0  0  0  0  0  0  0  0  0
    8.5991    2.0000    0.0000 C   0  0  0  0  0  0  0  0  0  0  0  0
   10.3312    7.0000    0.0000 C   0  0  0  0  0  0  0  0  0  0  0  0
    4.2690   -4.8800    0.0000 H   0  0  0  0  0  0  0  0  0  0  0  0
    4.4810   -7.0826    0.0000 H   0  0  0  0  0  0  0  0  0  0  0  0
    4.8796   -6.3923    0.0000 H   0  0  0  0  0  0  0  0  0  0  0  0
    3.8015   -4.5250    0.0000 H   0  0  0  0  0  0  0  0  0  0  0  0
    3.0044   -4.5250    0.0000 H   0  0  0  0  0  0  0  0  0  0  0  0
    5.3471   -5.5826    0.0000 H   0  0  0  0  0  0  0  0  0  0  0  0
    5.7456   -4.8923    0.0000 H   0  0  0  0  0  0  0  0  0  0  0  0
    3.0044   -7.4750    0.0000 H   0  0  0  0  0  0  0  0  0  0  0  0
    3.8015   -7.4750    0.0000 H   0  0  0  0  0  0  0  0  0  0  0  0
    2.3249   -4.9174    0.0000 H   0  0  0  0  0  0  0  0  0  0  0  0
    1.9264   -5.6077    0.0000 H   0  0  0  0  0  0  0  0  0  0  0  0
    4.9230   -3.4174    0.0000 H   0  0  0  0  0  0  0  0  0  0  0  0
    4.5244   -4.1077    0.0000 H   0  0  0  0  0  0  0  0  0  0  0  0
    2.0000   -6.8100    0.0000 H   0  0  0  0  0  0  0  0  0  0  0  0
    6.2131   -4.0826    0.0000 H   0  0  0  0  0  0  0  0  0  0  0  0
    6.6116   -3.3923    0.0000 H   0  0  0  0  0  0  0  0  0  0  0  0
    5.7890   -1.9174    0.0000 H   0  0  0  0  0  0  0  0  0  0  0  0
    5.3905   -2.6077    0.0000 H   0  0  0  0  0  0  0  0  0  0  0  0
    8.2700    2.8100    0.0000 H   0  0  0  0  0  0  0  0  0  0  0  0
    6.6550    2.5826    0.0000 H   0  0  0  0  0  0  0  0  0  0  0  0
    6.2565    1.8923    0.0000 H   0  0  0  0  0  0  0  0  0  0  0  0
    9.6772    3.9174    0.0000 H   0  0  0  0  0  0  0  0  0  0  0  0
   10.0757    4.6077    0.0000 H   0  0  0  0  0  0  0  0  0  0  0  0
    7.1962    3.8100    0.0000 H   0  0  0  0  0  0  0  0  0  0  0  0
    9.2531    6.0826    0.0000 H   0  0  0  0  0  0  0  0  0  0  0  0
    8.8546    5.3923    0.0000 H   0  0  0  0  0  0  0  0  0  0  0  0
   10.5432    5.4174    0.0000 H   0  0  0  0  0  0  0  0  0  0  0  0
   10.9417    6.1077    0.0000 H   0  0  0  0  0  0  0  0  0  0  0  0
    8.2700    0.8100    0.0000 H   0  0  0  0  0  0  0  0  0  0  0  0
    5.4641    0.8100    0.0000 H   0  0  0  0  0  0  0  0  0  0  0  0
    8.2700   -0.8100    0.0000 H   0  0  0  0  0  0  0  0  0  0  0  0
    5.4641   -0.8100    0.0000 H   0  0  0  0  0  0  0  0  0  0  0  0
   10.9512    7.0000    0.0000 H   0  0  0  0  0  0  0  0  0  0  0  0
   10.3312    7.6200    0.0000 H   0  0  0  0  0  0  0  0  0  0  0  0
    9.7112    7.0000    0.0000 H   0  0  0  0  0  0  0  0  0  0  0  0
   10.0021    2.1900    0.0000 H   0  0  0  0  0  0  0  0  0  0  0  0
  1  3  2  0  0  0  0
  1  4  2  0  0  0  0
  1  8  1  0  0  0  0
  1 20  1  0  0  0  0
  2 17  1  0  0  0  0
  2 21  1  0  0  0  0
  5 29  1  0  0  0  0
  5 66  1  0  0  0  0
  6 29  2  0  0  0  0
  7 13  1  0  0  0  0
  7 14  1  0  0  0  0
  7 44  1  0  0  0  0
 18  8  1  6  0  0  0
  8 54  1  0  0  0  0
  9 10  1  0  0  0  0
  9 11  1  0  0  0  0
  9 12  1  0  0  0  0
  9 31  1  0  0  0  0
 10 13  1  0  0  0  0
 10 32  1  0  0  0  0
 10 33  1  0  0  0  0
 11 14  1  0  0  0  0
 11 34  1  0  0  0  0
 11 35  1  0  0  0  0
 12 15  1  0  0  0  0
 12 36  1  0  0  0  0
 12 37  1  0  0  0  0
 13 38  1  0  0  0  0
 13 39  1  0  0  0  0
 14 40  1  0  0  0  0
 14 41  1  0  0  0  0
 15 16  1  0  0  0  0
 15 42  1  0  0  0  0
 15 43  1  0  0  0  0
 16 17  1  0  0  0  0
 16 45  1  0  0  0  0
 16 46  1  0  0  0  0
 17 47  1  0  0  0  0
 17 48  1  0  0  0  0
 18 19  1  0  0  0  0
 18 29  1  0  0  0  0
 18 49  1  0  0  0  0
 19 23  1  0  0  0  0
 19 50  1  0  0  0  0
 19 51  1  0  0  0  0
 20 22  1  0  0  0  0
 20 52  1  0  0  0  0
 20 53  1  0  0  0  0
 21 25  2  0  0  0  0
 21 26  1  0  0  0  0
 22 24  1  0  0  0  0
 22 55  1  0  0  0  0
 22 56  1  0  0  0  0
 23 27  2  0  0  0  0
 23 28  1  0  0  0  0
 24 30  1  0  0  0  0
 24 57  1  0  0  0  0
 24 58  1  0  0  0  0
 25 27  1  0  0  0  0
 25 61  1  0  0  0  0
 26 28  2  0  0  0  0
 26 62  1  0  0  0  0
 27 59  1  0  0  0  0
 28 60  1  0  0  0  0
 30 63  1  0  0  0  0
 30 64  1  0  0  0  0
 30 65  1  0  0  0  0
M  END
> <PUBCHEM_COMPOUND_CID>
60947

> <PUBCHEM_COMPOUND_CANONICALIZED>
1

> <PUBCHEM_CACTVS_COMPLEXITY>
579

> <PUBCHEM_CACTVS_HBOND_ACCEPTOR>
7

> <PUBCHEM_CACTVS_HBOND_DONOR>
3

> <PUBCHEM_CACTVS_ROTATABLE_BOND>
14

> <PUBCHEM_CACTVS_SUBSKEYS>
AAADcfB7OABAAAAAAAAAAAAAAAAAAAAAAAA8QAAAAAAAAAABAAAAHgQQSAAADSzl2AayDoLABgKIAiDSCHBCCAAgIAAIiIGOCIgOJjKEsRuGeCCk0BGIqAeYyLCOIAAAAAAAAABAAAAAAAAAAAAAAAAAAA==

> <PUBCHEM_IUPAC_OPENEYE_NAME>
(2S)-2-(butylsulfonylamino)-3-[4-[4-(4-piperidyl)butoxy]phenyl]propanoic acid

> <PUBCHEM_IUPAC_CAS_NAME>
(2S)-2-(butylsulfonylamino)-3-[4-[4-(4-piperidinyl)butoxy]phenyl]propanoic acid

> <PUBCHEM_IUPAC_NAME>
(2S)-2-(butylsulfonylamino)-3-[4-(4-piperidin-4-ylbutoxy)phenyl]propanoic acid

> <PUBCHEM_IUPAC_SYSTEMATIC_NAME>
(2S)-2-(butylsulfonylamino)-3-[4-(4-piperidin-4-ylbutoxy)phenyl]propanoic acid

> <PUBCHEM_IUPAC_TRADITIONAL_NAME>
(2S)-2-(butylsulfonylamino)-3-[4-[4-(4-piperidyl)butoxy]phenyl]propionic acid

> <PUBCHEM_IUPAC_INCHI>
InChI=1S/C22H36N2O5S/c1-2-3-16-30(27,28)24-21(22(25)26)17-19-7-9-20(10-8-19)29-15-5-4-6-18-11-13-23-14-12-18/h7-10,18,21,23-24H,2-6,11-17H2,1H3,(H,25,26)/t21-/m0/s1

> <PUBCHEM_IUPAC_INCHIKEY>
COKMIXFXJJXBQG-NRFANRHFSA-N

> <PUBCHEM_XLOGP3_AA>
1.4

> <PUBCHEM_EXACT_MASS>
440.234493

> <PUBCHEM_MOLECULAR_FORMULA>
C22H36N2O5S

> <PUBCHEM_MOLECULAR_WEIGHT>
440.59664

> <PUBCHEM_OPENEYE_CAN_SMILES>
CCCCS(=O)(=O)NC(CC1=CC=C(C=C1)OCCCCC2CCNCC2)C(=O)O

> <PUBCHEM_OPENEYE_ISO_SMILES>
CCCCS(=O)(=O)N[C@@H](CC1=CC=C(C=C1)OCCCCC2CCNCC2)C(=O)O

> <PUBCHEM_CACTVS_TPSA>
113

> <PUBCHEM_MONOISOTOPIC_WEIGHT>
440.234493

> <PUBCHEM_TOTAL_CHARGE>
0

> <PUBCHEM_HEAVY_ATOM_COUNT>
30

> <PUBCHEM_ATOM_DEF_STEREO_COUNT>
1

> <PUBCHEM_ATOM_UDEF_STEREO_COUNT>
0

> <PUBCHEM_BOND_DEF_STEREO_COUNT>
0

> <PUBCHEM_BOND_UDEF_STEREO_COUNT>
0

> <PUBCHEM_ISOTOPIC_ATOM_COUNT>
0

> <PUBCHEM_COMPONENT_COUNT>
1

> <PUBCHEM_CACTVS_TAUTO_COUNT>
1

> <PUBCHEM_COORDINATE_TYPE>
1
5
255

> <PUBCHEM_BONDANNOTATIONS>
21  25  8
21  26  8
23  27  8
23  28  8
25  27  8
26  28  8
18  8  6

$$$$

