5501
  -OEChem-06261200432D

 29 30  0     0  0  0  0  0  0999 V2000
    2.8660   -1.7673    0.0000 O   0  0  0  0  0  0  0  0  0  0  0  0
    4.5981   -1.7673    0.0000 O   0  0  0  0  0  0  0  0  0  0  0  0
    4.5981    0.2327    0.0000 N   0  0  0  0  0  0  0  0  0  0  0  0
    3.7320    1.7327    0.0000 N   0  0  0  0  0  0  0  0  0  0  0  0
    3.7320   -0.2673    0.0000 N   0  0  0  0  0  0  0  0  0  0  0  0
    3.7320    2.7327    0.0000 N   0  0  0  0  0  0  0  0  0  0  0  0
    5.4641    1.7327    0.0000 C   0  0  0  0  0  0  0  0  0  0  0  0
    5.4641    2.7327    0.0000 C   0  0  0  0  0  0  0  0  0  0  0  0
    4.5981    1.2327    0.0000 C   0  0  0  0  0  0  0  0  0  0  0  0
    6.3580    1.1980    0.0000 C   0  0  0  0  0  0  0  0  0  0  0  0
    6.3580    3.2673    0.0000 C   0  0  0  0  0  0  0  0  0  0  0  0
    7.2641    1.7118    0.0000 C   0  0  0  0  0  0  0  0  0  0  0  0
    4.5981    3.2327    0.0000 C   0  0  0  0  0  0  0  0  0  0  0  0
    7.2641    2.7535    0.0000 C   0  0  0  0  0  0  0  0  0  0  0  0
    2.8660   -2.7673    0.0000 C   0  0  0  0  0  0  0  0  0  0  0  0
    3.7320   -1.2673    0.0000 C   0  0  0  0  0  0  0  0  0  0  0  0
    2.0000   -3.2673    0.0000 C   0  0  0  0  0  0  0  0  0  0  0  0
    6.3509    0.5780    0.0000 H   0  0  0  0  0  0  0  0  0  0  0  0
    6.3509    3.8873    0.0000 H   0  0  0  0  0  0  0  0  0  0  0  0
    7.7998    1.3998    0.0000 H   0  0  0  0  0  0  0  0  0  0  0  0
    4.5981    3.8527    0.0000 H   0  0  0  0  0  0  0  0  0  0  0  0
    7.7998    3.0656    0.0000 H   0  0  0  0  0  0  0  0  0  0  0  0
    5.1350   -0.0773    0.0000 H   0  0  0  0  0  0  0  0  0  0  0  0
    3.1951    0.0427    0.0000 H   0  0  0  0  0  0  0  0  0  0  0  0
    3.0781   -3.3499    0.0000 H   0  0  0  0  0  0  0  0  0  0  0  0
    3.4766   -2.6597    0.0000 H   0  0  0  0  0  0  0  0  0  0  0  0
    1.6900   -2.7304    0.0000 H   0  0  0  0  0  0  0  0  0  0  0  0
    1.4631   -3.5773    0.0000 H   0  0  0  0  0  0  0  0  0  0  0  0
    2.3100   -3.8043    0.0000 H   0  0  0  0  0  0  0  0  0  0  0  0
  1 15  1  0  0  0  0
  1 16  1  0  0  0  0
  2 16  2  0  0  0  0
  3  5  1  0  0  0  0
  3  9  1  0  0  0  0
  3 23  1  0  0  0  0
  4  6  1  0  0  0  0
  4  9  2  0  0  0  0
  5 16  1  0  0  0  0
  5 24  1  0  0  0  0
  6 13  2  0  0  0  0
  7  8  1  0  0  0  0
  7  9  1  0  0  0  0
  7 10  2  0  0  0  0
  8 11  2  0  0  0  0
  8 13  1  0  0  0  0
 10 12  1  0  0  0  0
 10 18  1  0  0  0  0
 11 14  1  0  0  0  0
 11 19  1  0  0  0  0
 12 14  2  0  0  0  0
 12 20  1  0  0  0  0
 13 21  1  0  0  0  0
 14 22  1  0  0  0  0
 15 17  1  0  0  0  0
 15 25  1  0  0  0  0
 15 26  1  0  0  0  0
 17 27  1  0  0  0  0
 17 28  1  0  0  0  0
 17 29  1  0  0  0  0
M  END
> <PUBCHEM_COMPOUND_CID>
5501

> <PUBCHEM_COMPOUND_CANONICALIZED>
1

> <PUBCHEM_CACTVS_COMPLEXITY>
262

> <PUBCHEM_CACTVS_HBOND_ACCEPTOR>
5

> <PUBCHEM_CACTVS_HBOND_DONOR>
2

> <PUBCHEM_CACTVS_ROTATABLE_BOND>
4

> <PUBCHEM_CACTVS_SUBSKEYS>
AAADccBzsAAAAAAAAAAAAAAAAAAAAAAAAAA8QAAAAAAAAACx8AAAHgAYAAAADADhmgY/uNBiBACqAjJneACSBAIggAIeuCAgRJkIIKKAkZGIoABwiAAIyAcQgIAOgAAAAAAQAAAAAAAAACAAAAAAAAAAAA==

> <PUBCHEM_IUPAC_OPENEYE_NAME>
ethyl N-(phthalazin-1-ylamino)carbamate

> <PUBCHEM_IUPAC_CAS_NAME>
N-(1-phthalazinylamino)carbamic acid ethyl ester

> <PUBCHEM_IUPAC_NAME>
ethyl N-(phthalazin-1-ylamino)carbamate

> <PUBCHEM_IUPAC_SYSTEMATIC_NAME>
ethyl N-(phthalazin-1-ylamino)carbamate

> <PUBCHEM_IUPAC_TRADITIONAL_NAME>
N-(phthalazin-1-ylamino)carbamic acid ethyl ester

> <PUBCHEM_IUPAC_INCHI>
InChI=1S/C11H12N4O2/c1-2-17-11(16)15-14-10-9-6-4-3-5-8(9)7-12-13-10/h3-7H,2H2,1H3,(H,13,14)(H,15,16)

> <PUBCHEM_IUPAC_INCHIKEY>
WGZDBVOTUVNQFP-UHFFFAOYSA-N

> <PUBCHEM_XLOGP3_AA>
1.7

> <PUBCHEM_EXACT_MASS>
232.096026

> <PUBCHEM_MOLECULAR_FORMULA>
C11H12N4O2

> <PUBCHEM_MOLECULAR_WEIGHT>
232.23858

> <PUBCHEM_OPENEYE_CAN_SMILES>
CCOC(=O)NNC1=NN=CC2=CC=CC=C21

> <PUBCHEM_OPENEYE_ISO_SMILES>
CCOC(=O)NNC1=NN=CC2=CC=CC=C21

> <PUBCHEM_CACTVS_TPSA>
76.1

> <PUBCHEM_MONOISOTOPIC_WEIGHT>
232.096026

> <PUBCHEM_TOTAL_CHARGE>
0

> <PUBCHEM_HEAVY_ATOM_COUNT>
17

> <PUBCHEM_ATOM_DEF_STEREO_COUNT>
0

> <PUBCHEM_ATOM_UDEF_STEREO_COUNT>
0

> <PUBCHEM_BOND_DEF_STEREO_COUNT>
0

> <PUBCHEM_BOND_UDEF_STEREO_COUNT>
0

> <PUBCHEM_ISOTOPIC_ATOM_COUNT>
0

> <PUBCHEM_COMPONENT_COUNT>
1

> <PUBCHEM_CACTVS_TAUTO_COUNT>
4

> <PUBCHEM_COORDINATE_TYPE>
1
5
255

> <PUBCHEM_BONDANNOTATIONS>
10  12  8
11  14  8
12  14  8
4  6  8
4  9  8
6  13  8
7  10  8
7  8  8
7  9  8
8  11  8
8  13  8

$$$$

