17395313
  -OEChem-06241222493D

 41 43  0     1  0  0  0  0  0999 V2000
    4.0714    2.6043    0.1290 S   0  0  0  0  0  0  0  0  0  0  0  0
   -5.1485    1.2271    0.5844 S   0  0  0  0  0  0  0  0  0  0  0  0
   -0.1791   -1.1616   -1.5520 O   0  0  0  0  0  0  0  0  0  0  0  0
   -2.2498    0.8428    1.2381 O   0  0  0  0  0  0  0  0  0  0  0  0
    1.3809   -0.4508    0.0168 N   0  0  0  0  0  0  0  0  0  0  0  0
   -2.0485   -1.3185    0.4832 N   0  0  0  0  0  0  0  0  0  0  0  0
    2.3914    0.0100   -0.9114 C   0  0  1  0  0  0  0  0  0  0  0  0
    2.0902    1.4331   -1.3909 C   0  0  0  0  0  0  0  0  0  0  0  0
    3.7728   -0.1748   -0.3246 C   0  0  0  0  0  0  0  0  0  0  0  0
    2.3173    2.4797   -0.3126 C   0  0  0  0  0  0  0  0  0  0  0  0
    4.5579    0.8830    0.1666 C   0  0  0  0  0  0  0  0  0  0  0  0
    4.2821   -1.4872   -0.2514 C   0  0  0  0  0  0  0  0  0  0  0  0
    5.8286    0.6077    0.7025 C   0  0  0  0  0  0  0  0  0  0  0  0
    0.1743   -1.0007   -0.3865 C   0  0  0  0  0  0  0  0  0  0  0  0
    5.5413   -1.7467    0.2867 C   0  0  0  0  0  0  0  0  0  0  0  0
    6.3155   -0.6975    0.7636 C   0  0  0  0  0  0  0  0  0  0  0  0
   -0.6563   -1.4420    0.7998 C   0  0  0  0  0  0  0  0  0  0  0  0
   -2.7762   -0.1491    0.7304 C   0  0  0  0  0  0  0  0  0  0  0  0
   -4.1875   -0.1653    0.3203 C   0  0  0  0  0  0  0  0  0  0  0  0
   -4.9010   -1.1798   -0.2792 C   0  0  0  0  0  0  0  0  0  0  0  0
   -6.5241    0.4744   -0.1038 C   0  0  0  0  0  0  0  0  0  0  0  0
   -6.2546   -0.8092   -0.5249 C   0  0  0  0  0  0  0  0  0  0  0  0
   -7.7981    1.2212   -0.1843 C   0  0  0  0  0  0  0  0  0  0  0  0
    2.3247   -0.6281   -1.8039 H   0  0  0  0  0  0  0  0  0  0  0  0
    2.7090    1.6674   -2.2678 H   0  0  0  0  0  0  0  0  0  0  0  0
    1.0476    1.4968   -1.7278 H   0  0  0  0  0  0  0  0  0  0  0  0
    1.7367    2.2535    0.5878 H   0  0  0  0  0  0  0  0  0  0  0  0
    1.9916    3.4611   -0.6722 H   0  0  0  0  0  0  0  0  0  0  0  0
    1.5653   -0.3404    1.0102 H   0  0  0  0  0  0  0  0  0  0  0  0
    3.6896   -2.3226   -0.6193 H   0  0  0  0  0  0  0  0  0  0  0  0
    6.4589    1.4100    1.0818 H   0  0  0  0  0  0  0  0  0  0  0  0
    5.9145   -2.7653    0.3322 H   0  0  0  0  0  0  0  0  0  0  0  0
    7.2984   -0.8918    1.1826 H   0  0  0  0  0  0  0  0  0  0  0  0
   -0.4414   -2.4951    1.0049 H   0  0  0  0  0  0  0  0  0  0  0  0
   -0.4259   -0.8502    1.6911 H   0  0  0  0  0  0  0  0  0  0  0  0
   -2.4951   -2.1170    0.0456 H   0  0  0  0  0  0  0  0  0  0  0  0
   -4.4981   -2.1494   -0.5405 H   0  0  0  0  0  0  0  0  0  0  0  0
   -6.9895   -1.4554   -0.9882 H   0  0  0  0  0  0  0  0  0  0  0  0
   -8.5836    0.6121   -0.6442 H   0  0  0  0  0  0  0  0  0  0  0  0
   -7.6843    2.1264   -0.7900 H   0  0  0  0  0  0  0  0  0  0  0  0
   -8.1461    1.5118    0.8126 H   0  0  0  0  0  0  0  0  0  0  0  0
  1 10  1  0  0  0  0
  1 11  1  0  0  0  0
  2 19  1  0  0  0  0
  2 21  1  0  0  0  0
  3 14  2  0  0  0  0
  4 18  2  0  0  0  0
  5  7  1  0  0  0  0
  5 14  1  0  0  0  0
  5 29  1  0  0  0  0
  6 17  1  0  0  0  0
  6 18  1  0  0  0  0
  6 36  1  0  0  0  0
  7  8  1  0  0  0  0
  7  9  1  0  0  0  0
  7 24  1  0  0  0  0
  8 10  1  0  0  0  0
  8 25  1  0  0  0  0
  8 26  1  0  0  0  0
  9 11  1  0  0  0  0
  9 12  2  0  0  0  0
 10 27  1  0  0  0  0
 10 28  1  0  0  0  0
 11 13  2  0  0  0  0
 12 15  1  0  0  0  0
 12 30  1  0  0  0  0
 13 16  1  0  0  0  0
 13 31  1  0  0  0  0
 14 17  1  0  0  0  0
 15 16  2  0  0  0  0
 15 32  1  0  0  0  0
 16 33  1  0  0  0  0
 17 34  1  0  0  0  0
 17 35  1  0  0  0  0
 18 19  1  0  0  0  0
 19 20  2  0  0  0  0
 20 22  1  0  0  0  0
 20 37  1  0  0  0  0
 21 22  2  0  0  0  0
 21 23  1  0  0  0  0
 22 38  1  0  0  0  0
 23 39  1  0  0  0  0
 23 40  1  0  0  0  0
 23 41  1  0  0  0  0
M  END
> <PUBCHEM_COMPOUND_CID>
17395313

> <PUBCHEM_CONFORMER_RMSD>
0.8

> <PUBCHEM_CONFORMER_DIVERSEORDER>
1
38
118
204
221
25
138
14
159
218
109
95
61
176
50
30
196
105
42
71
27
198
99
22
145
6
189
29
174
88
119
169
110
90
139
34
89
49
60
146
150
51
96
185
199
177
21
35
78
37
91
44
166
16
20
171
142
135
32
3
215
54
67
181
128
107
222
126
155
18
183
77
15
52
219
41
8
220
19
161
115
86
190
10
85
134
147
163
7
122
168
188
164
133
160
149
97
9
98
69
162
87
79
178
72
12
17
165
106
76
152
39
80
73
136
157
212
207
144
93
11
55
40
184
156
217
195
94
59
36
186
141
182
131
26
5
124
31
46
179
175
84
81
23
4
102
208
213
211
193
45
2
75
132
191
121
137
200
43
158
113
92
83
148
65
48
172
203
70
13
56
116
63
140
74
154
214
125
57
111
101
120
205
153
66
53
206
62
167
209
108
64
197
143
24
123
103
47
194
33
127
130
104
114
151
82
187
192
100
117
68
170
58
112
28
173
129
201
216
180
210
202

> <PUBCHEM_MMFF94_PARTIAL_CHARGES>
30
1 -0.33
10 0.23
11 0.1
12 -0.15
13 -0.15
14 0.57
15 -0.15
16 -0.15
17 0.36
18 0.71
19 -0.05
2 -0.08
20 -0.15
21 -0.14
22 -0.15
23 0.18
29 0.37
3 -0.57
30 0.15
31 0.15
32 0.15
33 0.15
36 0.37
37 0.15
38 0.15
4 -0.57
5 -0.73
6 -0.73
7 0.44
9 -0.14

> <PUBCHEM_EFFECTIVE_ROTOR_COUNT>
6.8

> <PUBCHEM_PHARMACOPHORE_FEATURES>
7
1 3 acceptor
1 4 acceptor
1 5 donor
1 6 donor
5 2 19 20 21 22 rings
6 1 7 8 9 10 11 rings
6 9 11 12 13 15 16 rings

> <PUBCHEM_HEAVY_ATOM_COUNT>
23

> <PUBCHEM_ATOM_DEF_STEREO_COUNT>
0

> <PUBCHEM_ATOM_UDEF_STEREO_COUNT>
1

> <PUBCHEM_BOND_DEF_STEREO_COUNT>
0

> <PUBCHEM_BOND_UDEF_STEREO_COUNT>
0

> <PUBCHEM_ISOTOPIC_ATOM_COUNT>
0

> <PUBCHEM_COMPONENT_COUNT>
1

> <PUBCHEM_CACTVS_TAUTO_COUNT>
4

> <PUBCHEM_CONFORMER_ID>
01096E7100000001

> <PUBCHEM_MMFF94_ENERGY>
41.8439

> <PUBCHEM_FEATURE_SELFOVERLAP>
35.534

> <PUBCHEM_SHAPE_FINGERPRINT>
11089746 13 18272652337738370915
11186622 174 18341335564982002274
11545043 162 16773503387778724681
11719270 70 17821447979951649943
12166972 35 18409165502209111992
12236239 1 18335423452494779087
12403260 363 18335697260480236184
13167372 99 18408320008195860081
13533116 47 18413109489536756858
13685833 64 8214139664717570213
13878862 14 18337408049461034540
13899415 154 12967127220253347999
13914758 101 18272936059315228369
13968360 50 17240765129099784167
14123256 10 5400797263076577186
14170010 4 18412826893420172194
14251758 9 16559033774861837923
14251764 18 18413389826489051942
14347424 109 18342464734039491408
14617045 38 9655575214358636856
15142383 8 17060344028614678476
15183329 4 18410006650226597673
15348495 7 17774432781417310923
15527383 91 18272370850520076796
15537594 2 10952048922923326641
15849732 13 18113338622207304078
173720 79 17240204330729363662
17492 89 9150080228631369088
18335252 114 18341341063051948285
20028762 73 18260547857262650606
20157964 124 18261108586438047374
20511986 3 18115037315631242212
20715895 44 18334573551254348335
21033648 29 17417809505037239937
21315764 268 18412268319722739468
21344244 246 9871208171863072832
21403212 168 18130795584952915490
21521721 280 9222934990089991822
21774942 28 17895470466215376625
21859007 373 17917163787217208501
22950370 63 10303818665929387311
23035841 295 10159699092359476343
23402539 116 18334577941016971063
23559900 14 18201438034532212867
23622692 88 18411134723829951966
2838139 119 18411423912742122957
345986 75 17916322695777459552
34797466 226 13767926793280994696
351380 180 18411416202632046705
4073 2 17988076682535025394
4325135 7 14201401590083120915
465052 167 12247685971752928880
5104073 3 18271235015457229818
5207 217 14345799335478145030
5312625 73 8214144053741766394
5385378 56 17131837633322686643
54039377 194 10951509097717957528
6328613 192 18059281073109340012
8509985 295 18334857199801164968
999808 66 7492995311429569477

> <PUBCHEM_SHAPE_MULTIPOLES>
459.33
19.65
2.17
1.03
20.53
0.99
0.13
1.9
-1.77
-2.13
0.06
-0.16
0.02
-0.49

> <PUBCHEM_SHAPE_SELFOVERLAP>
949.03

> <PUBCHEM_SHAPE_VOLUME>
262.5

> <PUBCHEM_COORDINATE_TYPE>
2
5
10

$$$$

