17396233
  -OEChem-06241222553D

 60 62  0     0  0  0  0  0  0999 V2000
    4.9779   -0.2891   -1.1109 S   0  0  0  0  0  0  0  0  0  0  0  0
   -5.2335   -0.4815    1.8963 O   0  0  0  0  0  0  0  0  0  0  0  0
    5.1980   -1.4613   -1.9511 O   0  0  0  0  0  0  0  0  0  0  0  0
    5.4781    1.0011   -1.5737 O   0  0  0  0  0  0  0  0  0  0  0  0
    0.4135    3.2401   -0.9424 O   0  5  0  0  0  0  0  0  0  0  0  0
    0.7378    2.8757    1.1980 O   0  0  0  0  0  0  0  0  0  0  0  0
   -3.6297    0.2403    0.3808 N   0  0  0  0  0  0  0  0  0  0  0  0
   -0.8570    0.1956   -0.1412 N   0  0  0  0  0  0  0  0  0  0  0  0
    5.6219   -0.6040    0.4637 N   0  0  0  0  0  0  0  0  0  0  0  0
    0.8039    2.5124    0.0004 N   0  3  0  0  0  0  0  0  0  0  0  0
   -5.7406   -0.7567   -0.3938 C   0  0  0  0  0  0  0  0  0  0  0  0
   -6.6278   -1.9259    0.0363 C   0  0  0  0  0  0  0  0  0  0  0  0
   -6.6905    0.3794   -0.7895 C   0  0  0  0  0  0  0  0  0  0  0  0
   -7.9686   -1.2883    0.3711 C   0  0  0  0  0  0  0  0  0  0  0  0
   -8.0982   -0.1957   -0.6748 C   0  0  0  0  0  0  0  0  0  0  0  0
   -4.8536   -0.3234    0.7333 C   0  0  0  0  0  0  0  0  0  0  0  0
   -3.1540    0.4673   -0.9851 C   0  0  0  0  0  0  0  0  0  0  0  0
   -2.7001    0.6893    1.4141 C   0  0  0  0  0  0  0  0  0  0  0  0
   -1.7950   -0.1982   -1.2014 C   0  0  0  0  0  0  0  0  0  0  0  0
   -1.3362    0.0251    1.2399 C   0  0  0  0  0  0  0  0  0  0  0  0
    0.5209    0.1021   -0.3674 C   0  0  0  0  0  0  0  0  0  0  0  0
    1.3404    1.2289   -0.2995 C   0  0  0  0  0  0  0  0  0  0  0  0
    1.0721   -1.1444   -0.6636 C   0  0  0  0  0  0  0  0  0  0  0  0
    3.2624   -0.1376   -0.8243 C   0  0  0  0  0  0  0  0  0  0  0  0
    2.7111    1.1090   -0.5279 C   0  0  0  0  0  0  0  0  0  0  0  0
    2.4429   -1.2643   -0.8921 C   0  0  0  0  0  0  0  0  0  0  0  0
    5.4880   -1.9839    0.9962 C   0  0  0  0  0  0  0  0  0  0  0  0
    5.3985    0.4210    1.5148 C   0  0  0  0  0  0  0  0  0  0  0  0
    6.6844   -2.8130    0.5749 C   0  0  0  0  0  0  0  0  0  0  0  0
    6.5328    0.3799    2.5187 C   0  0  0  0  0  0  0  0  0  0  0  0
   -5.1607   -1.1262   -1.2409 H   0  0  0  0  0  0  0  0  0  0  0  0
   -6.7628   -2.6109   -0.8110 H   0  0  0  0  0  0  0  0  0  0  0  0
   -6.2345   -2.5186    0.8682 H   0  0  0  0  0  0  0  0  0  0  0  0
   -6.5860    1.2474   -0.1272 H   0  0  0  0  0  0  0  0  0  0  0  0
   -6.4949    0.7281   -1.8091 H   0  0  0  0  0  0  0  0  0  0  0  0
   -8.7920   -2.0068    0.3243 H   0  0  0  0  0  0  0  0  0  0  0  0
   -7.9489   -0.8540    1.3772 H   0  0  0  0  0  0  0  0  0  0  0  0
   -8.8351    0.5635   -0.3971 H   0  0  0  0  0  0  0  0  0  0  0  0
   -8.4035   -0.6285   -1.6351 H   0  0  0  0  0  0  0  0  0  0  0  0
   -3.0480    1.5546   -1.0950 H   0  0  0  0  0  0  0  0  0  0  0  0
   -3.8500    0.1561   -1.7616 H   0  0  0  0  0  0  0  0  0  0  0  0
   -3.0916    0.4784    2.4142 H   0  0  0  0  0  0  0  0  0  0  0  0
   -2.6096    1.7781    1.3180 H   0  0  0  0  0  0  0  0  0  0  0  0
   -1.9121   -1.2889   -1.2005 H   0  0  0  0  0  0  0  0  0  0  0  0
   -1.4083    0.0986   -2.1838 H   0  0  0  0  0  0  0  0  0  0  0  0
   -1.4105   -1.0470    1.4617 H   0  0  0  0  0  0  0  0  0  0  0  0
   -0.6336    0.4625    1.9588 H   0  0  0  0  0  0  0  0  0  0  0  0
    0.4503   -2.0347   -0.7146 H   0  0  0  0  0  0  0  0  0  0  0  0
    3.3436    1.9918   -0.4700 H   0  0  0  0  0  0  0  0  0  0  0  0
    2.8489   -2.2455   -1.1205 H   0  0  0  0  0  0  0  0  0  0  0  0
    5.3906   -2.0052    2.0852 H   0  0  0  0  0  0  0  0  0  0  0  0
    4.5717   -2.4482    0.6196 H   0  0  0  0  0  0  0  0  0  0  0  0
    5.3822    1.4183    1.0632 H   0  0  0  0  0  0  0  0  0  0  0  0
    4.4369    0.2575    2.0129 H   0  0  0  0  0  0  0  0  0  0  0  0
    6.5996   -3.8290    0.9732 H   0  0  0  0  0  0  0  0  0  0  0  0
    7.6136   -2.3762    0.9560 H   0  0  0  0  0  0  0  0  0  0  0  0
    6.7749   -2.8866   -0.5121 H   0  0  0  0  0  0  0  0  0  0  0  0
    6.4369    1.2131    3.2229 H   0  0  0  0  0  0  0  0  0  0  0  0
    7.5031    0.4720    2.0188 H   0  0  0  0  0  0  0  0  0  0  0  0
    6.5480   -0.5402    3.1090 H   0  0  0  0  0  0  0  0  0  0  0  0
  1  3  2  0  0  0  0
  1  4  2  0  0  0  0
  1  9  1  0  0  0  0
  1 24  1  0  0  0  0
  2 16  2  0  0  0  0
  5 10  1  0  0  0  0
  6 10  2  0  0  0  0
  7 16  1  0  0  0  0
  7 17  1  0  0  0  0
  7 18  1  0  0  0  0
  8 19  1  0  0  0  0
  8 20  1  0  0  0  0
  8 21  1  0  0  0  0
  9 27  1  0  0  0  0
  9 28  1  0  0  0  0
 10 22  1  0  0  0  0
 11 12  1  0  0  0  0
 11 13  1  0  0  0  0
 11 16  1  0  0  0  0
 11 31  1  0  0  0  0
 12 14  1  0  0  0  0
 12 32  1  0  0  0  0
 12 33  1  0  0  0  0
 13 15  1  0  0  0  0
 13 34  1  0  0  0  0
 13 35  1  0  0  0  0
 14 15  1  0  0  0  0
 14 36  1  0  0  0  0
 14 37  1  0  0  0  0
 15 38  1  0  0  0  0
 15 39  1  0  0  0  0
 17 19  1  0  0  0  0
 17 40  1  0  0  0  0
 17 41  1  0  0  0  0
 18 20  1  0  0  0  0
 18 42  1  0  0  0  0
 18 43  1  0  0  0  0
 19 44  1  0  0  0  0
 19 45  1  0  0  0  0
 20 46  1  0  0  0  0
 20 47  1  0  0  0  0
 21 22  2  0  0  0  0
 21 23  1  0  0  0  0
 22 25  1  0  0  0  0
 23 26  2  0  0  0  0
 23 48  1  0  0  0  0
 24 25  2  0  0  0  0
 24 26  1  0  0  0  0
 25 49  1  0  0  0  0
 26 50  1  0  0  0  0
 27 29  1  0  0  0  0
 27 51  1  0  0  0  0
 27 52  1  0  0  0  0
 28 30  1  0  0  0  0
 28 53  1  0  0  0  0
 28 54  1  0  0  0  0
 29 55  1  0  0  0  0
 29 56  1  0  0  0  0
 29 57  1  0  0  0  0
 30 58  1  0  0  0  0
 30 59  1  0  0  0  0
 30 60  1  0  0  0  0
M  CHG  2   5  -1  10   1
M  END
> <PUBCHEM_COMPOUND_CID>
17396233

> <PUBCHEM_CONFORMER_RMSD>
1

> <PUBCHEM_CONFORMER_DIVERSEORDER>
1
24
17
22
28
25
10
6
32
12
26
31
23
16
33
30
29
11
27
21
8
5
14
15
9
4
18
20
7
13
3
19
2

> <PUBCHEM_MMFF94_PARTIAL_CHARGES>
27
1 1.45
10 0.91
11 0.06
16 0.57
17 0.3
18 0.3
19 0.37
2 -0.57
20 0.37
21 0.1
22 0.13
23 -0.15
24 -0.01
25 -0.15
26 -0.15
27 0.36
28 0.36
3 -0.65
4 -0.65
48 0.15
49 0.15
5 -0.52
50 0.15
6 -0.52
7 -0.66
8 -0.84
9 -0.85

> <PUBCHEM_EFFECTIVE_ROTOR_COUNT>
10.2

> <PUBCHEM_PHARMACOPHORE_FEATURES>
10
1 2 acceptor
1 3 acceptor
1 4 acceptor
1 5 acceptor
1 5 anion
1 6 acceptor
1 8 cation
5 11 12 13 14 15 rings
6 21 22 23 24 25 26 rings
6 7 8 17 18 19 20 rings

> <PUBCHEM_HEAVY_ATOM_COUNT>
30

> <PUBCHEM_ATOM_DEF_STEREO_COUNT>
0

> <PUBCHEM_ATOM_UDEF_STEREO_COUNT>
0

> <PUBCHEM_BOND_DEF_STEREO_COUNT>
0

> <PUBCHEM_BOND_UDEF_STEREO_COUNT>
0

> <PUBCHEM_ISOTOPIC_ATOM_COUNT>
0

> <PUBCHEM_COMPONENT_COUNT>
1

> <PUBCHEM_CACTVS_TAUTO_COUNT>
1

> <PUBCHEM_CONFORMER_ID>
0109720900000001

> <PUBCHEM_MMFF94_ENERGY>
81.2833

> <PUBCHEM_FEATURE_SELFOVERLAP>
50.844

> <PUBCHEM_SHAPE_FINGERPRINT>
10 15 17458631094500283602
106641 1 18260835878296521306
11719270 70 18410575101917671823
11796584 16 16630518514904670170
12166972 35 18273209794180915644
12236239 1 17530954809138493381
12516196 113 18333448746321527645
12596602 18 16732696173175964795
12741549 16 18131078133714330725
13383665 225 6915442773564481979
13533116 47 18059572525479467858
13782708 43 17989487403181939619
13835254 42 17313657261090019248
13862211 1 18411415133180077726
13914758 101 16917073295501999015
14170010 4 17967814920601578105
14849402 71 15430325672456747683
15183329 4 15626223545705462331
15849732 13 17603301549044000293
17980427 23 15068915122201646825
18222031 100 18335691754780237260
20028762 73 18040147414243307615
20281389 69 4751157402269859571
20567600 234 16805609148795124232
21267235 1 17967520285802576189
21521239 73 14117805734335780488
21792934 111 18261966239994051544
22224240 67 6194838168620512461
23522609 53 18053911122295996197
23559900 14 17060051481407652541
23569943 247 17680689712656015478
249057 3 18408886205793157175
29717793 49 15769772455376007142
3178227 256 18409721838624923715
34797466 226 15140957340614863852
4058900 60 9511195070240927229
4340502 62 14707206643339268884
5104073 3 16733816644075554339

> <PUBCHEM_SHAPE_MULTIPOLES>
571.96
22.02
2.24
1.69
20.21
0.74
-0.51
-12.02
-3.29
-2.41
-0.07
-2.16
0.11
0.24

> <PUBCHEM_SHAPE_SELFOVERLAP>
1175.117

> <PUBCHEM_SHAPE_VOLUME>
331.7

> <PUBCHEM_COORDINATE_TYPE>
2
5
10

$$$$

