443670
  -OEChem-07051213022D

 38 42  0     1  0  0  0  0  0999 V2000
    5.4390    0.0383    0.0000 O   0  0  0  0  0  0  0  0  0  0  0  0
    8.9116    1.4799    0.0000 O   0  0  0  0  0  0  0  0  0  0  0  0
    2.6079   -0.2270    0.0000 O   0  0  0  0  0  0  0  0  0  0  0  0
    2.6079   -1.9034    0.0000 O   0  0  0  0  0  0  0  0  0  0  0  0
    7.1256   -1.5652    0.0000 N   0  0  3  0  0  0  0  0  0  0  0  0
    6.2596   -0.0652    0.0000 C   0  0  1  0  0  0  0  0  0  0  0  0
    7.1256   -0.5652    0.0000 C   0  0  2  0  0  0  0  0  0  0  0  0
    6.1461   -0.6688    0.0000 C   0  0  2  0  0  0  0  0  0  0  0  0
    6.5462   -1.3616    0.0000 C   0  0  0  0  0  0  0  0  0  0  0  0
    5.3935   -0.5652    0.0000 C   0  0  0  0  0  0  0  0  0  0  0  0
    8.0356   -0.0584    0.0000 C   0  0  0  0  0  0  0  0  0  0  0  0
    6.2596   -2.0652    0.0000 C   0  0  0  0  0  0  0  0  0  0  0  0
    6.2435    0.9763    0.0000 C   0  0  0  0  0  0  0  0  0  0  0  0
    5.3935   -1.5652    0.0000 C   0  0  0  0  0  0  0  0  0  0  0  0
    8.0436    0.9832    0.0000 C   0  0  2  0  0  0  0  0  0  0  0  0
    7.1415    1.5040    0.0000 C   0  0  0  0  0  0  0  0  0  0  0  0
    4.4996   -0.0306    0.0000 C   0  0  0  0  0  0  0  0  0  0  0  0
    4.4996   -2.0999    0.0000 C   0  0  0  0  0  0  0  0  0  0  0  0
    3.5935   -0.5444    0.0000 C   0  0  0  0  0  0  0  0  0  0  0  0
    3.5935   -1.5860    0.0000 C   0  0  0  0  0  0  0  0  0  0  0  0
    2.0000   -1.0652    0.0000 C   0  0  0  0  0  0  0  0  0  0  0  0
    7.8617   -0.9902    0.0000 H   0  0  0  0  0  0  0  0  0  0  0  0
    5.6543   -1.0462    0.0000 H   0  0  0  0  0  0  0  0  0  0  0  0
    5.9434   -1.5069    0.0000 H   0  0  0  0  0  0  0  0  0  0  0  0
    6.5147   -1.9808    0.0000 H   0  0  0  0  0  0  0  0  0  0  0  0
    8.2401   -0.6437    0.0000 H   0  0  0  0  0  0  0  0  0  0  0  0
    8.6472    0.0430    0.0000 H   0  0  0  0  0  0  0  0  0  0  0  0
    5.8610   -2.5402    0.0000 H   0  0  0  0  0  0  0  0  0  0  0  0
    6.6581   -2.5402    0.0000 H   0  0  0  0  0  0  0  0  0  0  0  0
    5.7030    1.2801    0.0000 H   0  0  0  0  0  0  0  0  0  0  0  0
    8.0448    1.6032    0.0000 H   0  0  0  0  0  0  0  0  0  0  0  0
    7.1391    2.1240    0.0000 H   0  0  0  0  0  0  0  0  0  0  0  0
    4.5068    0.5894    0.0000 H   0  0  0  0  0  0  0  0  0  0  0  0
    5.5995    0.6372    0.0000 H   0  0  0  0  0  0  0  0  0  0  0  0
    4.5068   -2.7198    0.0000 H   0  0  0  0  0  0  0  0  0  0  0  0
    8.9139    2.0999    0.0000 H   0  0  0  0  0  0  0  0  0  0  0  0
    1.5391   -0.6505    0.0000 H   0  0  0  0  0  0  0  0  0  0  0  0
    1.5391   -1.4800    0.0000 H   0  0  0  0  0  0  0  0  0  0  0  0
  8  1  1  6  0  0  0
  1 34  1  0  0  0  0
 15  2  1  6  0  0  0
  2 36  1  0  0  0  0
  3 19  1  0  0  0  0
  3 21  1  0  0  0  0
  4 20  1  0  0  0  0
  4 21  1  0  0  0  0
  5  7  1  0  0  0  0
  5  9  1  0  0  0  0
  5 12  1  0  0  0  0
  6  7  1  0  0  0  0
  6  8  1  0  0  0  0
  6 10  1  0  0  0  0
  6 13  1  6  0  0  0
  7 11  1  0  0  0  0
  7 22  1  1  0  0  0
  8  9  1  0  0  0  0
  8 23  1  0  0  0  0
  9 24  1  0  0  0  0
  9 25  1  0  0  0  0
 10 14  1  0  0  0  0
 10 17  2  0  0  0  0
 11 15  1  0  0  0  0
 11 26  1  0  0  0  0
 11 27  1  0  0  0  0
 12 14  1  0  0  0  0
 12 28  1  0  0  0  0
 12 29  1  0  0  0  0
 13 16  2  0  0  0  0
 13 30  1  0  0  0  0
 14 18  2  0  0  0  0
 15 16  1  0  0  0  0
 15 31  1  0  0  0  0
 16 32  1  0  0  0  0
 17 19  1  0  0  0  0
 17 33  1  0  0  0  0
 18 20  1  0  0  0  0
 18 35  1  0  0  0  0
 19 20  2  0  0  0  0
 21 37  1  0  0  0  0
 21 38  1  0  0  0  0
M  END
> <PUBCHEM_COMPOUND_CID>
443670

> <PUBCHEM_COMPOUND_CANONICALIZED>
1

> <PUBCHEM_CACTVS_COMPLEXITY>
483

> <PUBCHEM_CACTVS_HBOND_ACCEPTOR>
5

> <PUBCHEM_CACTVS_HBOND_DONOR>
2

> <PUBCHEM_CACTVS_ROTATABLE_BOND>
0

> <PUBCHEM_CACTVS_SUBSKEYS>
AAADceB6OAAAAAAAAAAAAAAAAAAAAWJAAAA8QIAABYAAAEixAAAAHgAACAAADjzhmAcwDoMABgCAAiBCAACCCAAgIAAIiAAOjIgfNiKEsRukcCpmwBGeuAew8P8PoAABAAAQQABAAAIAACCAAAAAAAAAAA==

> <PUBCHEM_IUPAC_INCHI>
InChI=1S/C16H17NO4/c18-10-1-2-16-11-5-13-12(20-8-21-13)3-9(11)6-17(7-15(16)19)14(16)4-10/h1-3,5,10,14-15,18-19H,4,6-8H2/t10-,14-,15-,16-/m0/s1

> <PUBCHEM_IUPAC_INCHIKEY>
KWAOMPWGIIXDPH-MVWHLILJSA-N

> <PUBCHEM_XLOGP3_AA>
0.7

> <PUBCHEM_EXACT_MASS>
287.115758

> <PUBCHEM_MOLECULAR_FORMULA>
C16H17NO4

> <PUBCHEM_MOLECULAR_WEIGHT>
287.31048

> <PUBCHEM_OPENEYE_CAN_SMILES>
C1C(C=CC23C1N(CC2O)CC4=CC5=C(C=C34)OCO5)O

> <PUBCHEM_OPENEYE_ISO_SMILES>
C1[C@H](C=C[C@]23[C@H]1N(C[C@@H]2O)CC4=CC5=C(C=C34)OCO5)O

> <PUBCHEM_CACTVS_TPSA>
62.2

> <PUBCHEM_MONOISOTOPIC_WEIGHT>
287.115758

> <PUBCHEM_TOTAL_CHARGE>
0

> <PUBCHEM_HEAVY_ATOM_COUNT>
21

> <PUBCHEM_ATOM_DEF_STEREO_COUNT>
4

> <PUBCHEM_ATOM_UDEF_STEREO_COUNT>
0

> <PUBCHEM_BOND_DEF_STEREO_COUNT>
0

> <PUBCHEM_BOND_UDEF_STEREO_COUNT>
0

> <PUBCHEM_ISOTOPIC_ATOM_COUNT>
0

> <PUBCHEM_COMPONENT_COUNT>
1

> <PUBCHEM_CACTVS_TAUTO_COUNT>
1

> <PUBCHEM_COORDINATE_TYPE>
1
5
255

> <PUBCHEM_BONDANNOTATIONS>
8  1  6
10  14  8
10  17  8
14  18  8
17  19  8
18  20  8
19  20  8
15  2  6
6  13  6
7  22  5

$$$$

