7216
  -OEChem-07051213133D

 26 25  0     0  0  0  0  0  0999 V2000
   -3.4533    1.5918    0.7516 Cl  0  0  0  0  0  0  0  0  0  0  0  0
   -0.7721   -0.2533   -1.1088 S   0  0  0  0  0  0  0  0  0  0  0  0
    1.1678   -2.4706   -0.7827 S   0  0  0  0  0  0  0  0  0  0  0  0
    1.7152    0.1425   -0.0807 N   0  0  0  0  0  0  0  0  0  0  0  0
    3.0688   -0.1920    0.3689 C   0  0  0  0  0  0  0  0  0  0  0  0
    1.3853    1.5645    0.0564 C   0  0  0  0  0  0  0  0  0  0  0  0
    3.0960   -0.5264    1.8460 C   0  0  0  0  0  0  0  0  0  0  0  0
    1.7932    2.3497   -1.1731 C   0  0  0  0  0  0  0  0  0  0  0  0
    0.8315   -0.8248   -0.5987 C   0  0  0  0  0  0  0  0  0  0  0  0
   -1.6601   -0.4651    0.4527 C   0  0  0  0  0  0  0  0  0  0  0  0
   -3.0912   -0.0468    0.3178 C   0  0  0  0  0  0  0  0  0  0  0  0
   -4.0812   -0.8698   -0.0494 C   0  0  0  0  0  0  0  0  0  0  0  0
    3.4667   -1.0343   -0.2043 H   0  0  0  0  0  0  0  0  0  0  0  0
    3.7361    0.6532    0.1645 H   0  0  0  0  0  0  0  0  0  0  0  0
    0.3209    1.7118    0.2496 H   0  0  0  0  0  0  0  0  0  0  0  0
    1.9008    1.9650    0.9373 H   0  0  0  0  0  0  0  0  0  0  0  0
    2.7575    0.3193    2.4533 H   0  0  0  0  0  0  0  0  0  0  0  0
    2.4485   -1.3778    2.0778 H   0  0  0  0  0  0  0  0  0  0  0  0
    4.1139   -0.7796    2.1589 H   0  0  0  0  0  0  0  0  0  0  0  0
    2.8713    2.2833   -1.3510 H   0  0  0  0  0  0  0  0  0  0  0  0
    1.2880    1.9807   -2.0712 H   0  0  0  0  0  0  0  0  0  0  0  0
    1.5371    3.4068   -1.0501 H   0  0  0  0  0  0  0  0  0  0  0  0
   -1.6125   -1.5210    0.7435 H   0  0  0  0  0  0  0  0  0  0  0  0
   -1.1628    0.0969    1.2508 H   0  0  0  0  0  0  0  0  0  0  0  0
   -5.1110   -0.5332   -0.1109 H   0  0  0  0  0  0  0  0  0  0  0  0
   -3.8814   -1.9064   -0.3002 H   0  0  0  0  0  0  0  0  0  0  0  0
  1 11  1  0  0  0  0
  2  9  1  0  0  0  0
  2 10  1  0  0  0  0
  3  9  2  0  0  0  0
  4  5  1  0  0  0  0
  4  6  1  0  0  0  0
  4  9  1  0  0  0  0
  5  7  1  0  0  0  0
  5 13  1  0  0  0  0
  5 14  1  0  0  0  0
  6  8  1  0  0  0  0
  6 15  1  0  0  0  0
  6 16  1  0  0  0  0
  7 17  1  0  0  0  0
  7 18  1  0  0  0  0
  7 19  1  0  0  0  0
  8 20  1  0  0  0  0
  8 21  1  0  0  0  0
  8 22  1  0  0  0  0
 10 11  1  0  0  0  0
 10 23  1  0  0  0  0
 10 24  1  0  0  0  0
 11 12  2  0  0  0  0
 12 25  1  0  0  0  0
 12 26  1  0  0  0  0
M  END
> <PUBCHEM_COMPOUND_CID>
7216

> <PUBCHEM_CONFORMER_RMSD>
0.6

> <PUBCHEM_CONFORMER_DIVERSEORDER>
1
262
162
113
237
139
252
202
135
238
107
207
134
156
261
183
171
227
219
112
167
239
3
224
2
228
122
12
234
182
24
178
185
184
99
235
248
225
98
18
67
180
226
165
269
263
229
251
200
81
272
193
118
258
268
241
274
87
150
198
245
36
56
84
187
33
55
35
257
68
62
95
72
97
85
244
192
249
105
161
256
218
233
213
243
158
250
154
163
173
145
47
216
142
267
42
26
121
132
37
89
275
220
247
75
149
201
271
191
41
159
77
21
190
65
144
38
111
91
78
73
54
39
23
160
208
186
126
176
230
27
197
170
86
174
206
102
29
19
164
79
189
140
204
129
133
153
32
64
90
7
217
44
69
137
221
28
259
254
15
4
273
141
48
6
25
236
103
151
215
131
147
57
209
211
61
66
110
40
51
136
232
240
155
22
157
109
166
168
169
123
199
108
188
222
246
80
114
96
210
30
60
82
63
115
138
94
196
49
117
5
212
179
58
106
181
20
172
205
8
88
31
260
10
203
100
242
266
116
71
255
265
119
92
195
127
93
104
120
124
76
148
253
34
46
53
74
9
146
152
223
52
143
17
83
70
14
130
11
13
231
175
270
194
101
16
264
214
125
177
50
59
45
43
128

> <PUBCHEM_MMFF94_PARTIAL_CHARGES>
11
1 -0.14
10 0.37
12 -0.3
2 -0.37
25 0.15
26 0.15
3 -0.38
4 -0.66
5 0.3
6 0.3
9 0.58

> <PUBCHEM_EFFECTIVE_ROTOR_COUNT>
6

> <PUBCHEM_PHARMACOPHORE_FEATURES>
1
1 3 acceptor

> <PUBCHEM_HEAVY_ATOM_COUNT>
12

> <PUBCHEM_ATOM_DEF_STEREO_COUNT>
0

> <PUBCHEM_ATOM_UDEF_STEREO_COUNT>
0

> <PUBCHEM_BOND_DEF_STEREO_COUNT>
0

> <PUBCHEM_BOND_UDEF_STEREO_COUNT>
0

> <PUBCHEM_ISOTOPIC_ATOM_COUNT>
0

> <PUBCHEM_COMPONENT_COUNT>
1

> <PUBCHEM_CACTVS_TAUTO_COUNT>
1

> <PUBCHEM_CONFORMER_ID>
00001C3000000001

> <PUBCHEM_MMFF94_ENERGY>
19.9412

> <PUBCHEM_FEATURE_SELFOVERLAP>
5.074

> <PUBCHEM_SHAPE_FINGERPRINT>
12162725 195 18410852149246576753
12251169 10 18271812276241804114
124424 183 17703242813596279517
12696612 119 18412823607469588501
12932764 1 17489582359933725279
15775835 57 17168147827555060651
17041 49 18130789009473951745
20559304 39 18333725806203772209
21524375 3 17911507697640841772
230 275 17967806163178813079
23380061 451 17489591190339006642
23557571 272 17530677728235196881
2748010 2 17976830001253007742
305870 269 17968383432506090254
3248919 1 18410570687154761411

> <PUBCHEM_SHAPE_MULTIPOLES>
251.54
6.47
2.27
1.31
5.25
0.21
-0.26
0.44
-2.4
-0.85
0.81
-0.97
0.09
-0.71

> <PUBCHEM_SHAPE_SELFOVERLAP>
435.211

> <PUBCHEM_SHAPE_VOLUME>
168.8

> <PUBCHEM_COORDINATE_TYPE>
2
5
10

$$$$

