5282032
  -OEChem-07051213022D

 75 76  0     1  0  0  0  0  0999 V2000
    5.4641    1.0000    0.0000 O   0  0  0  0  0  0  0  0  0  0  0  0
    3.7320    1.0000    0.0000 O   0  0  0  0  0  0  0  0  0  0  0  0
    5.4641    3.0000    0.0000 O   0  0  0  0  0  0  0  0  0  0  0  0
    3.7320   -2.0000    0.0000 O   0  0  0  0  0  0  0  0  0  0  0  0
    5.5981   -1.5000    0.0000 O   0  0  0  0  0  0  0  0  0  0  0  0
    8.0622   -3.5000    0.0000 O   0  0  0  0  0  0  0  0  0  0  0  0
    3.7320    4.0000    0.0000 N   0  0  0  0  0  0  0  0  0  0  0  0
    3.7320    3.0000    0.0000 C   0  0  2  0  0  0  0  0  0  0  0  0
    5.4641    0.0000    0.0000 C   0  0  1  0  0  0  0  0  0  0  0  0
    4.5981    2.5000    0.0000 C   0  0  2  0  0  0  0  0  0  0  0  0
    4.5981    1.5000    0.0000 C   0  0  2  0  0  0  0  0  0  0  0  0
    6.3301   -0.5000    0.0000 C   0  0  2  0  0  0  0  0  0  0  0  0
    2.8660    2.5000    0.0000 C   0  0  0  0  0  0  0  0  0  0  0  0
    2.8660    1.5000    0.0000 C   0  0  1  0  0  0  0  0  0  0  0  0
    4.5981   -0.5000    0.0000 C   0  0  1  0  0  0  0  0  0  0  0  0
    6.3301   -1.5000    0.0000 C   0  0  0  0  0  0  0  0  0  0  0  0
    7.1962   -2.0000    0.0000 C   0  0  1  0  0  0  0  0  0  0  0  0
    7.1962    0.0000    0.0000 C   0  0  0  0  0  0  0  0  0  0  0  0
    2.0000    1.0000    0.0000 C   0  0  0  0  0  0  0  0  0  0  0  0
    3.7320    0.0000    0.0000 C   0  0  0  0  0  0  0  0  0  0  0  0
    4.5981   -1.5000    0.0000 C   0  0  0  0  0  0  0  0  0  0  0  0
    2.8660    4.5000    0.0000 C   0  0  0  0  0  0  0  0  0  0  0  0
    4.5981    4.5000    0.0000 C   0  0  0  0  0  0  0  0  0  0  0  0
    3.7320   -3.0000    0.0000 C   0  0  1  0  0  0  0  0  0  0  0  0
    8.0622   -1.5000    0.0000 C   0  0  0  0  0  0  0  0  0  0  0  0
    7.1962   -3.0000    0.0000 C   0  0  0  0  0  0  0  0  0  0  0  0
    4.5981   -3.5000    0.0000 C   0  0  1  0  0  0  0  0  0  0  0  0
    2.8660   -3.5000    0.0000 C   0  0  0  0  0  0  0  0  0  0  0  0
    6.3301   -3.5000    0.0000 C   0  0  0  0  0  0  0  0  0  0  0  0
    5.4641   -3.0000    0.0000 C   0  0  0  0  0  0  0  0  0  0  0  0
    4.5981   -4.5000    0.0000 C   0  0  0  0  0  0  0  0  0  0  0  0
    2.0000   -3.0000    0.0000 C   0  0  0  0  0  0  0  0  0  0  0  0
    4.2690    3.3100    0.0000 H   0  0  0  0  0  0  0  0  0  0  0  0
    6.0010    0.3100    0.0000 H   0  0  0  0  0  0  0  0  0  0  0  0
    4.5981    3.1200    0.0000 H   0  0  0  0  0  0  0  0  0  0  0  0
    4.5981    0.8800    0.0000 H   0  0  0  0  0  0  0  0  0  0  0  0
    6.8671   -0.8100    0.0000 H   0  0  0  0  0  0  0  0  0  0  0  0
    2.6540    3.0826    0.0000 H   0  0  0  0  0  0  0  0  0  0  0  0
    2.2554    2.3923    0.0000 H   0  0  0  0  0  0  0  0  0  0  0  0
    2.8660    0.8800    0.0000 H   0  0  0  0  0  0  0  0  0  0  0  0
    4.5981    0.1200    0.0000 H   0  0  0  0  0  0  0  0  0  0  0  0
    5.7196   -1.3923    0.0000 H   0  0  0  0  0  0  0  0  0  0  0  0
    6.1181   -2.0826    0.0000 H   0  0  0  0  0  0  0  0  0  0  0  0
    7.7331   -2.3100    0.0000 H   0  0  0  0  0  0  0  0  0  0  0  0
    7.5062   -0.5369    0.0000 H   0  0  0  0  0  0  0  0  0  0  0  0
    7.7331    0.3100    0.0000 H   0  0  0  0  0  0  0  0  0  0  0  0
    6.8862    0.5369    0.0000 H   0  0  0  0  0  0  0  0  0  0  0  0
    1.6900    1.5369    0.0000 H   0  0  0  0  0  0  0  0  0  0  0  0
    1.4631    0.6900    0.0000 H   0  0  0  0  0  0  0  0  0  0  0  0
    2.3100    0.4631    0.0000 H   0  0  0  0  0  0  0  0  0  0  0  0
    4.0420    0.5369    0.0000 H   0  0  0  0  0  0  0  0  0  0  0  0
    3.1951    0.3100    0.0000 H   0  0  0  0  0  0  0  0  0  0  0  0
    3.4220   -0.5369    0.0000 H   0  0  0  0  0  0  0  0  0  0  0  0
    5.4641    3.6200    0.0000 H   0  0  0  0  0  0  0  0  0  0  0  0
    3.1760    5.0369    0.0000 H   0  0  0  0  0  0  0  0  0  0  0  0
    2.3291    4.8100    0.0000 H   0  0  0  0  0  0  0  0  0  0  0  0
    2.5560    3.9631    0.0000 H   0  0  0  0  0  0  0  0  0  0  0  0
    4.9081    3.9631    0.0000 H   0  0  0  0  0  0  0  0  0  0  0  0
    5.1350    4.8100    0.0000 H   0  0  0  0  0  0  0  0  0  0  0  0
    4.2881    5.0369    0.0000 H   0  0  0  0  0  0  0  0  0  0  0  0
    3.1951   -2.6900    0.0000 H   0  0  0  0  0  0  0  0  0  0  0  0
    8.3722   -2.0369    0.0000 H   0  0  0  0  0  0  0  0  0  0  0  0
    8.5991   -1.1900    0.0000 H   0  0  0  0  0  0  0  0  0  0  0  0
    7.7522   -0.9631    0.0000 H   0  0  0  0  0  0  0  0  0  0  0  0
    5.1350   -3.8100    0.0000 H   0  0  0  0  0  0  0  0  0  0  0  0
    2.4675   -3.9750    0.0000 H   0  0  0  0  0  0  0  0  0  0  0  0
    3.2646   -3.9750    0.0000 H   0  0  0  0  0  0  0  0  0  0  0  0
    6.3301   -4.1200    0.0000 H   0  0  0  0  0  0  0  0  0  0  0  0
    5.7741   -2.4631    0.0000 H   0  0  0  0  0  0  0  0  0  0  0  0
    3.9781   -4.5000    0.0000 H   0  0  0  0  0  0  0  0  0  0  0  0
    4.5981   -5.1200    0.0000 H   0  0  0  0  0  0  0  0  0  0  0  0
    5.2181   -4.5000    0.0000 H   0  0  0  0  0  0  0  0  0  0  0  0
    2.3100   -2.4631    0.0000 H   0  0  0  0  0  0  0  0  0  0  0  0
    1.4631   -2.6900    0.0000 H   0  0  0  0  0  0  0  0  0  0  0  0
    1.6900   -3.5369    0.0000 H   0  0  0  0  0  0  0  0  0  0  0  0
  9  1  1  1  0  0  0
 11  1  1  6  0  0  0
  2 11  1  0  0  0  0
  2 14  1  0  0  0  0
 10  3  1  1  0  0  0
  3 54  1  0  0  0  0
  4 21  1  0  0  0  0
  4 24  1  0  0  0  0
  5 21  2  0  0  0  0
  6 26  2  0  0  0  0
  8  7  1  6  0  0  0
  7 22  1  0  0  0  0
  7 23  1  0  0  0  0
  8 10  1  0  0  0  0
  8 13  1  0  0  0  0
  8 33  1  0  0  0  0
  9 12  1  0  0  0  0
  9 15  1  0  0  0  0
  9 34  1  0  0  0  0
 10 11  1  0  0  0  0
 10 35  1  0  0  0  0
 11 36  1  0  0  0  0
 12 16  1  0  0  0  0
 12 18  1  1  0  0  0
 12 37  1  0  0  0  0
 13 14  1  0  0  0  0
 13 38  1  0  0  0  0
 13 39  1  0  0  0  0
 14 19  1  6  0  0  0
 14 40  1  0  0  0  0
 15 20  1  6  0  0  0
 15 21  1  0  0  0  0
 15 41  1  0  0  0  0
 16 17  1  0  0  0  0
 16 42  1  0  0  0  0
 16 43  1  0  0  0  0
 17 25  1  1  0  0  0
 17 26  1  0  0  0  0
 17 44  1  0  0  0  0
 18 45  1  0  0  0  0
 18 46  1  0  0  0  0
 18 47  1  0  0  0  0
 19 48  1  0  0  0  0
 19 49  1  0  0  0  0
 19 50  1  0  0  0  0
 20 51  1  0  0  0  0
 20 52  1  0  0  0  0
 20 53  1  0  0  0  0
 22 55  1  0  0  0  0
 22 56  1  0  0  0  0
 22 57  1  0  0  0  0
 23 58  1  0  0  0  0
 23 59  1  0  0  0  0
 23 60  1  0  0  0  0
 24 27  1  0  0  0  0
 24 28  1  1  0  0  0
 24 61  1  0  0  0  0
 25 62  1  0  0  0  0
 25 63  1  0  0  0  0
 25 64  1  0  0  0  0
 26 29  1  0  0  0  0
 27 30  1  0  0  0  0
 27 31  1  1  0  0  0
 27 65  1  0  0  0  0
 28 32  1  0  0  0  0
 28 66  1  0  0  0  0
 28 67  1  0  0  0  0
 29 30  2  0  0  0  0
 29 68  1  0  0  0  0
 30 69  1  0  0  0  0
 31 70  1  0  0  0  0
 31 71  1  0  0  0  0
 31 72  1  0  0  0  0
 32 73  1  0  0  0  0
 32 74  1  0  0  0  0
 32 75  1  0  0  0  0
M  END
> <PUBCHEM_COMPOUND_CID>
5282032

> <PUBCHEM_COMPOUND_CANONICALIZED>
1

> <PUBCHEM_CACTVS_COMPLEXITY>
665

> <PUBCHEM_CACTVS_HBOND_ACCEPTOR>
7

> <PUBCHEM_CACTVS_HBOND_DONOR>
1

> <PUBCHEM_CACTVS_ROTATABLE_BOND>
4

> <PUBCHEM_CACTVS_SUBSKEYS>
AAADcfB6OAAAAAAAAAAAAAAAAAAAAAAAAAAkAAAAAAAAAAAAAAAAHgAACAAADTzxgAcCCAMABgCIAKDSCAAAAAAgAAAICAEIAEgTEBYAgQAmQAAH4AAfAYPI7OzOAAAAAAAAAAAAAAAAAAAAAAAAAAAAAA==

> <PUBCHEM_IUPAC_OPENEYE_NAME>
(3R,4S,5S,7R,9E,11R,12R)-4-[(2S,3R,4S,6R)-4-(dimethylamino)-3-hydroxy-6-methyl-tetrahydropyran-2-yl]oxy-12-ethyl-3,5,7,11-tetramethyl-1-oxacyclododec-9-ene-2,8-dione

> <PUBCHEM_IUPAC_CAS_NAME>
(3R,4S,5S,7R,9E,11R,12R)-4-[[(2S,3R,4S,6R)-4-(dimethylamino)-3-hydroxy-6-methyl-2-oxanyl]oxy]-12-ethyl-3,5,7,11-tetramethyl-1-oxacyclododec-9-ene-2,8-dione

> <PUBCHEM_IUPAC_NAME>
(3R,4S,5S,7R,9E,11R,12R)-4-[(2S,3R,4S,6R)-4-(dimethylamino)-3-hydroxy-6-methyloxan-2-yl]oxy-12-ethyl-3,5,7,11-tetramethyl-1-oxacyclododec-9-ene-2,8-dione

> <PUBCHEM_IUPAC_SYSTEMATIC_NAME>
(3R,4S,5S,7R,9E,11R,12R)-4-[(2S,3R,4S,6R)-4-(dimethylamino)-6-methyl-3-oxidanyl-oxan-2-yl]oxy-12-ethyl-3,5,7,11-tetramethyl-1-oxacyclododec-9-ene-2,8-dione

> <PUBCHEM_IUPAC_TRADITIONAL_NAME>
(3R,4S,5S,7R,9E,11R,12R)-4-[(2S,3R,4S,6R)-4-(dimethylamino)-3-hydroxy-6-methyl-tetrahydropyran-2-yl]oxy-12-ethyl-3,5,7,11-tetramethyl-1-oxacyclododec-9-ene-2,8-quinone

> <PUBCHEM_IUPAC_INCHI>
InChI=1S/C25H43NO6/c1-9-21-14(2)10-11-20(27)15(3)12-16(4)23(18(6)24(29)31-21)32-25-22(28)19(26(7)8)13-17(5)30-25/h10-11,14-19,21-23,25,28H,9,12-13H2,1-8H3/b11-10+/t14-,15-,16+,17-,18-,19+,21-,22-,23+,25+/m1/s1

> <PUBCHEM_IUPAC_INCHIKEY>
DZGHWPQKGWXOHD-NHLONWFASA-N

> <PUBCHEM_XLOGP3_AA>
3.9

> <PUBCHEM_EXACT_MASS>
453.309038

> <PUBCHEM_MOLECULAR_FORMULA>
C25H43NO6

> <PUBCHEM_MOLECULAR_WEIGHT>
453.61202

> <PUBCHEM_OPENEYE_CAN_SMILES>
CCC1C(C=CC(=O)C(CC(C(C(C(=O)O1)C)OC2C(C(CC(O2)C)N(C)C)O)C)C)C

> <PUBCHEM_OPENEYE_ISO_SMILES>
CC[C@@H]1[C@@H](/C=C/C(=O)[C@@H](C[C@@H]([C@@H]([C@H](C(=O)O1)C)O[C@H]2[C@@H]([C@H](C[C@H](O2)C)N(C)C)O)C)C)C

> <PUBCHEM_CACTVS_TPSA>
85.3

> <PUBCHEM_MONOISOTOPIC_WEIGHT>
453.309038

> <PUBCHEM_TOTAL_CHARGE>
0

> <PUBCHEM_HEAVY_ATOM_COUNT>
32

> <PUBCHEM_ATOM_DEF_STEREO_COUNT>
10

> <PUBCHEM_ATOM_UDEF_STEREO_COUNT>
0

> <PUBCHEM_BOND_DEF_STEREO_COUNT>
1

> <PUBCHEM_BOND_UDEF_STEREO_COUNT>
0

> <PUBCHEM_ISOTOPIC_ATOM_COUNT>
0

> <PUBCHEM_COMPONENT_COUNT>
1

> <PUBCHEM_CACTVS_TAUTO_COUNT>
10

> <PUBCHEM_COORDINATE_TYPE>
1
5
255

> <PUBCHEM_BONDANNOTATIONS>
11  1  6
9  1  5
12  18  5
14  19  6
15  20  6
17  25  5
24  28  5
27  31  5
10  3  5
8  7  6

$$$$

