134031
  -OEChem-07051213092D

 36 37  0     0  0  0  0  0  0999 V2000
    6.0010    0.9330    0.0000 S   0  0  0  0  0  0  0  0  0  0  0  0
    5.5010    0.0670    0.0000 O   0  0  0  0  0  0  0  0  0  0  0  0
    6.5010    1.7990    0.0000 O   0  0  0  0  0  0  0  0  0  0  0  0
    2.5369    0.9330    0.0000 O   0  0  0  0  0  0  0  0  0  0  0  0
   12.6289   -0.9330    0.0000 O   0  0  0  0  0  0  0  0  0  0  0  0
   11.1289   -1.7990    0.0000 O   0  0  0  0  0  0  0  0  0  0  0  0
    9.5453    0.7377    0.0000 N   0  0  0  0  0  0  0  0  0  0  0  0
    9.5453   -0.8717    0.0000 N   0  0  0  0  0  0  0  0  0  0  0  0
   11.1289   -0.0670    0.0000 N   0  0  0  0  0  0  0  0  0  0  0  0
    5.1350    1.4330    0.0000 C   0  0  0  0  0  0  0  0  0  0  0  0
    6.8671    0.4330    0.0000 C   0  0  0  0  0  0  0  0  0  0  0  0
    4.2690    0.9330    0.0000 C   0  0  0  0  0  0  0  0  0  0  0  0
    8.5991    0.4330    0.0000 C   0  0  0  0  0  0  0  0  0  0  0  0
    7.7331    0.9330    0.0000 C   0  0  0  0  0  0  0  0  0  0  0  0
    8.5991   -0.5670    0.0000 C   0  0  0  0  0  0  0  0  0  0  0  0
    6.8671   -0.5670    0.0000 C   0  0  0  0  0  0  0  0  0  0  0  0
    7.7331   -1.0670    0.0000 C   0  0  0  0  0  0  0  0  0  0  0  0
    3.4030    1.4330    0.0000 C   0  0  0  0  0  0  0  0  0  0  0  0
   10.1289   -0.0670    0.0000 C   0  0  0  0  0  0  0  0  0  0  0  0
   11.6289   -0.9330    0.0000 C   0  0  0  0  0  0  0  0  0  0  0  0
   13.1289   -1.7990    0.0000 C   0  0  0  0  0  0  0  0  0  0  0  0
    5.5335    1.9080    0.0000 H   0  0  0  0  0  0  0  0  0  0  0  0
    4.7365    1.9080    0.0000 H   0  0  0  0  0  0  0  0  0  0  0  0
    3.8705    0.4581    0.0000 H   0  0  0  0  0  0  0  0  0  0  0  0
    4.6675    0.4581    0.0000 H   0  0  0  0  0  0  0  0  0  0  0  0
    7.7331    1.5530    0.0000 H   0  0  0  0  0  0  0  0  0  0  0  0
    6.3301   -0.8770    0.0000 H   0  0  0  0  0  0  0  0  0  0  0  0
    7.7331   -1.6870    0.0000 H   0  0  0  0  0  0  0  0  0  0  0  0
    3.8015    1.9080    0.0000 H   0  0  0  0  0  0  0  0  0  0  0  0
    3.0044    1.9080    0.0000 H   0  0  0  0  0  0  0  0  0  0  0  0
    9.7379    1.3271    0.0000 H   0  0  0  0  0  0  0  0  0  0  0  0
   11.4389    0.4699    0.0000 H   0  0  0  0  0  0  0  0  0  0  0  0
    2.0000    1.2430    0.0000 H   0  0  0  0  0  0  0  0  0  0  0  0
   12.5920   -2.1090    0.0000 H   0  0  0  0  0  0  0  0  0  0  0  0
   13.4389   -2.3360    0.0000 H   0  0  0  0  0  0  0  0  0  0  0  0
   13.6659   -1.4890    0.0000 H   0  0  0  0  0  0  0  0  0  0  0  0
  1  2  2  0  0  0  0
  1  3  2  0  0  0  0
  1 10  1  0  0  0  0
  1 11  1  0  0  0  0
  4 18  1  0  0  0  0
  4 33  1  0  0  0  0
  5 20  1  0  0  0  0
  5 21  1  0  0  0  0
  6 20  2  0  0  0  0
  7 13  1  0  0  0  0
  7 19  1  0  0  0  0
  7 31  1  0  0  0  0
  8 15  1  0  0  0  0
  8 19  2  0  0  0  0
  9 19  1  0  0  0  0
  9 20  1  0  0  0  0
  9 32  1  0  0  0  0
 10 12  1  0  0  0  0
 10 22  1  0  0  0  0
 10 23  1  0  0  0  0
 11 14  2  0  0  0  0
 11 16  1  0  0  0  0
 12 18  1  0  0  0  0
 12 24  1  0  0  0  0
 12 25  1  0  0  0  0
 13 14  1  0  0  0  0
 13 15  2  0  0  0  0
 14 26  1  0  0  0  0
 15 17  1  0  0  0  0
 16 17  2  0  0  0  0
 16 27  1  0  0  0  0
 17 28  1  0  0  0  0
 18 29  1  0  0  0  0
 18 30  1  0  0  0  0
 21 34  1  0  0  0  0
 21 35  1  0  0  0  0
 21 36  1  0  0  0  0
M  END
> <PUBCHEM_COMPOUND_CID>
134031

> <PUBCHEM_COMPOUND_CANONICALIZED>
1

> <PUBCHEM_CACTVS_COMPLEXITY>
464

> <PUBCHEM_CACTVS_HBOND_ACCEPTOR>
6

> <PUBCHEM_CACTVS_HBOND_DONOR>
3

> <PUBCHEM_CACTVS_ROTATABLE_BOND>
6

> <PUBCHEM_CACTVS_SUBSKEYS>
AAADccBzOABAAAAAAAAAAAAAAAAAAWAAAAAwAAAAAAAAAFgB8AAAHgQQCAAACAil1gKz2bbJlgqoASRifHDCgC2hGrAJmTgwdJmIeKLgmZGUYAxokQJoyCcQAAAAAAQAACAAACAACAAAQAAAQAAAAAAAAA==

> <PUBCHEM_IUPAC_OPENEYE_NAME>
methyl N-[6-(3-hydroxypropylsulfonyl)-1H-benzimidazol-2-yl]carbamate

> <PUBCHEM_IUPAC_CAS_NAME>
N-[6-(3-hydroxypropylsulfonyl)-1H-benzimidazol-2-yl]carbamic acid methyl ester

> <PUBCHEM_IUPAC_NAME>
methyl N-[6-(3-hydroxypropylsulfonyl)-1H-benzimidazol-2-yl]carbamate

> <PUBCHEM_IUPAC_SYSTEMATIC_NAME>
methyl N-[6-(3-oxidanylpropylsulfonyl)-1H-benzimidazol-2-yl]carbamate

> <PUBCHEM_IUPAC_TRADITIONAL_NAME>
N-[6-(3-hydroxypropylsulfonyl)-1H-benzimidazol-2-yl]carbamic acid methyl ester

> <PUBCHEM_IUPAC_INCHI>
InChI=1S/C12H15N3O5S/c1-20-12(17)15-11-13-9-4-3-8(7-10(9)14-11)21(18,19)6-2-5-16/h3-4,7,16H,2,5-6H2,1H3,(H2,13,14,15,17)

> <PUBCHEM_IUPAC_INCHIKEY>
OZBZMHKHSDPUGF-UHFFFAOYSA-N

> <PUBCHEM_XLOGP3>
0.4

> <PUBCHEM_EXACT_MASS>
313.073242

> <PUBCHEM_MOLECULAR_FORMULA>
C12H15N3O5S

> <PUBCHEM_MOLECULAR_WEIGHT>
313.3296

> <PUBCHEM_OPENEYE_CAN_SMILES>
COC(=O)NC1=NC2=C(N1)C=C(C=C2)S(=O)(=O)CCCO

> <PUBCHEM_OPENEYE_ISO_SMILES>
COC(=O)NC1=NC2=C(N1)C=C(C=C2)S(=O)(=O)CCCO

> <PUBCHEM_CACTVS_TPSA>
130

> <PUBCHEM_MONOISOTOPIC_WEIGHT>
313.073242

> <PUBCHEM_TOTAL_CHARGE>
0

> <PUBCHEM_HEAVY_ATOM_COUNT>
21

> <PUBCHEM_ATOM_DEF_STEREO_COUNT>
0

> <PUBCHEM_ATOM_UDEF_STEREO_COUNT>
0

> <PUBCHEM_BOND_DEF_STEREO_COUNT>
0

> <PUBCHEM_BOND_UDEF_STEREO_COUNT>
0

> <PUBCHEM_ISOTOPIC_ATOM_COUNT>
0

> <PUBCHEM_COMPONENT_COUNT>
1

> <PUBCHEM_CACTVS_TAUTO_COUNT>
5

> <PUBCHEM_COORDINATE_TYPE>
1
5
255

> <PUBCHEM_BONDANNOTATIONS>
11  14  8
11  16  8
13  14  8
13  15  8
15  17  8
16  17  8
7  13  8
7  19  8
8  15  8
8  19  8

$$$$

