72320
  -OEChem-07051212562D

 71 76  0     1  0  0  0  0  0999 V2000
    5.6604   -1.7190    0.0000 O   0  0  0  0  0  0  0  0  0  0  0  0
    8.3550   -2.2606    0.0000 O   0  0  0  0  0  0  0  0  0  0  0  0
    4.8225   -2.2467    0.0000 O   0  0  0  0  0  0  0  0  0  0  0  0
    2.6697    1.6753    0.0000 O   0  0  0  0  0  0  0  0  0  0  0  0
    5.9204    2.1251    0.0000 O   0  0  0  0  0  0  0  0  0  0  0  0
    7.4490   -3.7814    0.0000 O   0  0  0  0  0  0  0  0  0  0  0  0
   10.2758    0.5059    0.0000 O   0  0  0  0  0  0  0  0  0  0  0  0
    2.7595    3.3840    0.0000 O   0  0  0  0  0  0  0  0  0  0  0  0
    5.4138    3.7814    0.0000 O   0  0  0  0  0  0  0  0  0  0  0  0
    6.5709   -1.2121    0.0000 C   0  0  1  0  0  0  0  0  0  0  0  0
    5.7049   -0.7121    0.0000 C   0  0  1  0  0  0  0  0  0  0  0  0
    7.4369   -0.7121    0.0000 C   0  0  1  0  0  0  0  0  0  0  0  0
    5.7049    0.2879    0.0000 C   0  0  1  0  0  0  0  0  0  0  0  0
    6.5548   -2.2536    0.0000 C   0  0  1  0  0  0  0  0  0  0  0  0
    4.8109    0.8225    0.0000 C   0  0  2  0  0  0  0  0  0  0  0  0
    7.4369    0.2879    0.0000 C   0  0  0  0  0  0  0  0  0  0  0  0
    6.5709    0.7879    0.0000 C   0  0  0  0  0  0  0  0  0  0  0  0
    3.9049    0.3087    0.0000 C   0  0  1  0  0  0  0  0  0  0  0  0
    4.8109   -1.2468    0.0000 C   0  0  0  0  0  0  0  0  0  0  0  0
    8.3469   -1.2190    0.0000 C   0  0  2  0  0  0  0  0  0  0  0  0
    6.3550   -1.8379    0.0000 C   0  0  0  0  0  0  0  0  0  0  0  0
    3.9049   -0.7330    0.0000 C   0  0  0  0  0  0  0  0  0  0  0  0
    4.9642    1.8326    0.0000 C   0  0  2  0  0  0  0  0  0  0  0  0
    8.3029   -0.2121    0.0000 C   0  0  0  0  0  0  0  0  0  0  0  0
    7.4529   -2.7814    0.0000 C   0  0  0  0  0  0  0  0  0  0  0  0
    2.9594    0.6956    0.0000 C   0  0  0  0  0  0  0  0  0  0  0  0
    5.6808    1.3158    0.0000 C   0  0  0  0  0  0  0  0  0  0  0  0
    9.2071   -0.7090    0.0000 C   0  0  0  0  0  0  0  0  0  0  0  0
    4.2721    2.5840    0.0000 C   0  0  0  0  0  0  0  0  0  0  0  0
    2.0000    0.4134    0.0000 C   0  0  0  0  0  0  0  0  0  0  0  0
    2.5819   -0.2304    0.0000 C   0  0  0  0  0  0  0  0  0  0  0  0
    3.2528    2.5142    0.0000 C   0  0  0  0  0  0  0  0  0  0  0  0
   10.1253   -1.1052    0.0000 C   0  0  0  0  0  0  0  0  0  0  0  0
    9.3001    0.2867    0.0000 C   0  0  0  0  0  0  0  0  0  0  0  0
    6.1452    3.0995    0.0000 C   0  0  0  0  0  0  0  0  0  0  0  0
   10.7858   -0.3543    0.0000 C   0  0  0  0  0  0  0  0  0  0  0  0
    7.1015    3.3920    0.0000 C   0  0  0  0  0  0  0  0  0  0  0  0
    6.4410   -0.1371    0.0000 H   0  0  0  0  0  0  0  0  0  0  0  0
    6.1214   -2.9849    0.0000 H   0  0  0  0  0  0  0  0  0  0  0  0
    8.0475    0.1802    0.0000 H   0  0  0  0  0  0  0  0  0  0  0  0
    7.6490    0.8705    0.0000 H   0  0  0  0  0  0  0  0  0  0  0  0
    6.9694    1.2628    0.0000 H   0  0  0  0  0  0  0  0  0  0  0  0
    6.1724    1.2628    0.0000 H   0  0  0  0  0  0  0  0  0  0  0  0
    3.1991   -0.1651    0.0000 H   0  0  0  0  0  0  0  0  0  0  0  0
    8.8868   -1.5238    0.0000 H   0  0  0  0  0  0  0  0  0  0  0  0
    3.2940   -0.6269    0.0000 H   0  0  0  0  0  0  0  0  0  0  0  0
    3.6958   -1.3167    0.0000 H   0  0  0  0  0  0  0  0  0  0  0  0
    5.8181   -2.1480    0.0000 H   0  0  0  0  0  0  0  0  0  0  0  0
    6.6650   -2.3748    0.0000 H   0  0  0  0  0  0  0  0  0  0  0  0
    6.8919   -1.5279    0.0000 H   0  0  0  0  0  0  0  0  0  0  0  0
    5.1264    2.4310    0.0000 H   0  0  0  0  0  0  0  0  0  0  0  0
    8.6130   -0.7491    0.0000 H   0  0  0  0  0  0  0  0  0  0  0  0
    8.8399    0.0979    0.0000 H   0  0  0  0  0  0  0  0  0  0  0  0
    7.9930    0.3248    0.0000 H   0  0  0  0  0  0  0  0  0  0  0  0
    5.9866    0.7765    0.0000 H   0  0  0  0  0  0  0  0  0  0  0  0
    6.2201    1.6217    0.0000 H   0  0  0  0  0  0  0  0  0  0  0  0
    5.3749    1.8551    0.0000 H   0  0  0  0  0  0  0  0  0  0  0  0
    4.8104    2.8916    0.0000 H   0  0  0  0  0  0  0  0  0  0  0  0
    4.0926    3.1775    0.0000 H   0  0  0  0  0  0  0  0  0  0  0  0
    2.0077    0.0036    0.0000 H   0  0  0  0  0  0  0  0  0  0  0  0
    2.3478   -0.8045    0.0000 H   0  0  0  0  0  0  0  0  0  0  0  0
    3.1560   -0.4645    0.0000 H   0  0  0  0  0  0  0  0  0  0  0  0
    1.8250    1.0082    0.0000 H   0  0  0  0  0  0  0  0  0  0  0  0
    1.4052    0.2384    0.0000 H   0  0  0  0  0  0  0  0  0  0  0  0
    2.1750   -0.1814    0.0000 H   0  0  0  0  0  0  0  0  0  0  0  0
   10.2612   -1.7101    0.0000 H   0  0  0  0  0  0  0  0  0  0  0  0
    8.8346    0.6962    0.0000 H   0  0  0  0  0  0  0  0  0  0  0  0
   11.4031   -0.4120    0.0000 H   0  0  0  0  0  0  0  0  0  0  0  0
    7.2829    2.7992    0.0000 H   0  0  0  0  0  0  0  0  0  0  0  0
    7.6944    3.5734    0.0000 H   0  0  0  0  0  0  0  0  0  0  0  0
    6.9201    3.9849    0.0000 H   0  0  0  0  0  0  0  0  0  0  0  0
 10  1  1  1  0  0  0
  1 14  1  0  0  0  0
  2 20  1  0  0  0  0
  2 25  1  0  0  0  0
  3 19  2  0  0  0  0
  4 26  1  0  0  0  0
  4 32  1  0  0  0  0
 23  5  1  6  0  0  0
  5 35  1  0  0  0  0
  6 25  2  0  0  0  0
  7 34  1  0  0  0  0
  7 36  1  0  0  0  0
  8 32  2  0  0  0  0
  9 35  2  0  0  0  0
 10 11  1  0  0  0  0
 10 12  1  0  0  0  0
 10 14  1  0  0  0  0
 11 13  1  0  0  0  0
 11 19  1  0  0  0  0
 11 21  1  1  0  0  0
 12 16  1  0  0  0  0
 12 20  1  0  0  0  0
 12 24  1  6  0  0  0
 13 15  1  0  0  0  0
 13 17  1  0  0  0  0
 13 38  1  6  0  0  0
 14 25  1  0  0  0  0
 14 39  1  6  0  0  0
 15 18  1  0  0  0  0
 15 23  1  0  0  0  0
 15 27  1  1  0  0  0
 16 17  1  0  0  0  0
 16 40  1  0  0  0  0
 16 41  1  0  0  0  0
 17 42  1  0  0  0  0
 17 43  1  0  0  0  0
 18 22  1  0  0  0  0
 18 26  1  0  0  0  0
 18 44  1  6  0  0  0
 19 22  1  0  0  0  0
 20 28  1  6  0  0  0
 20 45  1  0  0  0  0
 21 48  1  0  0  0  0
 21 49  1  0  0  0  0
 21 50  1  0  0  0  0
 22 46  1  0  0  0  0
 22 47  1  0  0  0  0
 23 29  1  0  0  0  0
 23 51  1  0  0  0  0
 24 52  1  0  0  0  0
 24 53  1  0  0  0  0
 24 54  1  0  0  0  0
 26 30  1  0  0  0  0
 26 31  1  0  0  0  0
 27 55  1  0  0  0  0
 27 56  1  0  0  0  0
 27 57  1  0  0  0  0
 28 33  1  0  0  0  0
 28 34  2  0  0  0  0
 29 32  1  0  0  0  0
 29 58  1  0  0  0  0
 29 59  1  0  0  0  0
 30 63  1  0  0  0  0
 30 64  1  0  0  0  0
 30 65  1  0  0  0  0
 31 60  1  0  0  0  0
 31 61  1  0  0  0  0
 31 62  1  0  0  0  0
 33 36  2  0  0  0  0
 33 66  1  0  0  0  0
 34 67  1  0  0  0  0
 35 37  1  0  0  0  0
 36 68  1  0  0  0  0
 37 69  1  0  0  0  0
 37 70  1  0  0  0  0
 37 71  1  0  0  0  0
M  END
> <PUBCHEM_COMPOUND_CID>
72320

> <PUBCHEM_COMPOUND_CANONICALIZED>
1

> <PUBCHEM_CACTVS_COMPLEXITY>
1080

> <PUBCHEM_CACTVS_HBOND_ACCEPTOR>
9

> <PUBCHEM_CACTVS_HBOND_DONOR>
0

> <PUBCHEM_CACTVS_ROTATABLE_BOND>
3

> <PUBCHEM_CACTVS_SUBSKEYS>
AAADcfB4PAAAAAAAAAAAAAAAEgAAASAAAAA0YIAABIkAAADRgAAAGgAAAAAAD1SgmAIyDIAABECIAqjSiAICCAAkIAAIiAFGCMgNJxYENQ6CGSCl4BEKKYPK7vzvgAAAAAAAAACAAAYAADAAAAAAAAAAAA==

> <PUBCHEM_IUPAC_INCHI>
InChI=1S/C28H34O9/c1-14(29)34-19-12-20(31)36-24(2,3)17-11-18(30)27(6)16(26(17,19)5)7-9-25(4)21(15-8-10-33-13-15)35-23(32)22-28(25,27)37-22/h8,10,13,16-17,19,21-22H,7,9,11-12H2,1-6H3/t16-,17+,19+,21+,22-,25+,26-,27+,28-/m1/s1

> <PUBCHEM_IUPAC_INCHIKEY>
KPDOJFFZKAUIOE-WNGDLQANSA-N

> <PUBCHEM_XLOGP3_AA>
2.6

> <PUBCHEM_EXACT_MASS>
514.220283

> <PUBCHEM_MOLECULAR_FORMULA>
C28H34O9

> <PUBCHEM_MOLECULAR_WEIGHT>
514.56416

> <PUBCHEM_OPENEYE_CAN_SMILES>
CC(=O)OC1CC(=O)OC(C2C1(C3CCC4(C(OC(=O)C5C4(C3(C(=O)C2)C)O5)C6=COC=C6)C)C)(C)C

> <PUBCHEM_OPENEYE_ISO_SMILES>
CC(=O)O[C@H]1CC(=O)OC([C@H]2[C@]1([C@H]3CC[C@]4([C@@H](OC(=O)[C@@H]5[C@@]4([C@@]3(C(=O)C2)C)O5)C6=COC=C6)C)C)(C)C

> <PUBCHEM_CACTVS_TPSA>
122

> <PUBCHEM_MONOISOTOPIC_WEIGHT>
514.220283

> <PUBCHEM_TOTAL_CHARGE>
0

> <PUBCHEM_HEAVY_ATOM_COUNT>
37

> <PUBCHEM_ATOM_DEF_STEREO_COUNT>
9

> <PUBCHEM_ATOM_UDEF_STEREO_COUNT>
0

> <PUBCHEM_BOND_DEF_STEREO_COUNT>
0

> <PUBCHEM_BOND_UDEF_STEREO_COUNT>
0

> <PUBCHEM_ISOTOPIC_ATOM_COUNT>
0

> <PUBCHEM_COMPONENT_COUNT>
1

> <PUBCHEM_CACTVS_TAUTO_COUNT>
8

> <PUBCHEM_COORDINATE_TYPE>
1
5
255

> <PUBCHEM_BONDANNOTATIONS>
10  1  5
11  21  5
12  24  6
13  38  6
14  39  6
15  27  5
18  44  6
20  28  6
28  33  8
28  34  8
33  36  8
23  5  6
7  34  8
7  36  8

$$$$

