46173874
  -OEChem-07051213102D

 44 44  0     1  0  0  0  0  0999 V2000
    6.0010   -1.0950    0.0000 S   0  0  0  0  0  0  0  0  0  0  0  0
    8.5991    3.4050    0.0000 S   0  0  0  0  0  0  0  0  0  0  0  0
    4.2690   -1.0950    0.0000 O   0  0  0  0  0  0  0  0  0  0  0  0
    4.2690   -4.0950    0.0000 O   0  0  0  0  0  0  0  0  0  0  0  0
    2.5369   -3.0950    0.0000 O   0  0  0  0  0  0  0  0  0  0  0  0
    6.0010   -3.0950    0.0000 O   0  0  0  0  0  0  0  0  0  0  0  0
    2.5369   -0.0950    0.0000 O   0  0  0  0  0  0  0  0  0  0  0  0
    4.2690   -0.0950    0.0000 O   0  0  0  0  0  0  0  0  0  0  0  0
    5.1350    0.4050    0.0000 N   0  0  0  0  0  0  0  0  0  0  0  0
    4.2690   -3.0950    0.0000 C   0  0  1  0  0  0  0  0  0  0  0  0
    3.4030   -2.5950    0.0000 C   0  0  1  0  0  0  0  0  0  0  0  0
    5.1350   -2.5950    0.0000 C   0  0  2  0  0  0  0  0  0  0  0  0
    3.4030   -1.5950    0.0000 C   0  0  1  0  0  0  0  0  0  0  0  0
    5.1350   -1.5950    0.0000 C   0  0  2  0  0  0  0  0  0  0  0  0
    2.5369   -1.0950    0.0000 C   0  0  0  0  0  0  0  0  0  0  0  0
    6.0010   -0.0950    0.0000 C   0  0  0  0  0  0  0  0  0  0  0  0
    6.8671    0.4050    0.0000 C   0  0  0  0  0  0  0  0  0  0  0  0
    6.8671    1.4050    0.0000 C   0  0  0  0  0  0  0  0  0  0  0  0
    7.7331    1.9050    0.0000 C   0  0  0  0  0  0  0  0  0  0  0  0
    7.7331    2.9050    0.0000 C   0  0  0  0  0  0  0  0  0  0  0  0
    8.5991    4.4050    0.0000 C   0  0  0  0  0  0  0  0  0  0  0  0
    4.8059   -3.4050    0.0000 H   0  0  0  0  0  0  0  0  0  0  0  0
    3.4030   -3.2150    0.0000 H   0  0  0  0  0  0  0  0  0  0  0  0
    5.1350   -3.2150    0.0000 H   0  0  0  0  0  0  0  0  0  0  0  0
    3.4030   -0.9750    0.0000 H   0  0  0  0  0  0  0  0  0  0  0  0
    5.1350   -0.9750    0.0000 H   0  0  0  0  0  0  0  0  0  0  0  0
    1.9264   -0.9873    0.0000 H   0  0  0  0  0  0  0  0  0  0  0  0
    2.3249   -1.6776    0.0000 H   0  0  0  0  0  0  0  0  0  0  0  0
    3.7320   -4.4050    0.0000 H   0  0  0  0  0  0  0  0  0  0  0  0
    2.0000   -2.7850    0.0000 H   0  0  0  0  0  0  0  0  0  0  0  0
    6.5380   -2.7850    0.0000 H   0  0  0  0  0  0  0  0  0  0  0  0
    7.0791   -0.1776    0.0000 H   0  0  0  0  0  0  0  0  0  0  0  0
    7.4776    0.5127    0.0000 H   0  0  0  0  0  0  0  0  0  0  0  0
    6.6550    1.9876    0.0000 H   0  0  0  0  0  0  0  0  0  0  0  0
    6.2565    1.2973    0.0000 H   0  0  0  0  0  0  0  0  0  0  0  0
    2.0000    0.2150    0.0000 H   0  0  0  0  0  0  0  0  0  0  0  0
    7.9451    1.3224    0.0000 H   0  0  0  0  0  0  0  0  0  0  0  0
    8.3437    2.0127    0.0000 H   0  0  0  0  0  0  0  0  0  0  0  0
    7.5210    3.4876    0.0000 H   0  0  0  0  0  0  0  0  0  0  0  0
    7.1225    2.7973    0.0000 H   0  0  0  0  0  0  0  0  0  0  0  0
    3.7320    0.2150    0.0000 H   0  0  0  0  0  0  0  0  0  0  0  0
    9.2191    4.4050    0.0000 H   0  0  0  0  0  0  0  0  0  0  0  0
    8.5991    5.0250    0.0000 H   0  0  0  0  0  0  0  0  0  0  0  0
    7.9791    4.4050    0.0000 H   0  0  0  0  0  0  0  0  0  0  0  0
 14  1  1  1  0  0  0
  1 16  1  0  0  0  0
  2 20  1  0  0  0  0
  2 21  1  0  0  0  0
  3 13  1  0  0  0  0
  3 14  1  0  0  0  0
 10  4  1  1  0  0  0
  4 29  1  0  0  0  0
 11  5  1  6  0  0  0
  5 30  1  0  0  0  0
 12  6  1  6  0  0  0
  6 31  1  0  0  0  0
  7 15  1  0  0  0  0
  7 36  1  0  0  0  0
  8  9  1  0  0  0  0
  8 41  1  0  0  0  0
  9 16  2  0  0  0  0
 10 11  1  0  0  0  0
 10 12  1  0  0  0  0
 10 22  1  0  0  0  0
 11 13  1  0  0  0  0
 11 23  1  0  0  0  0
 12 14  1  0  0  0  0
 12 24  1  0  0  0  0
 13 15  1  1  0  0  0
 13 25  1  0  0  0  0
 14 26  1  0  0  0  0
 15 27  1  0  0  0  0
 15 28  1  0  0  0  0
 16 17  1  0  0  0  0
 17 18  1  0  0  0  0
 17 32  1  0  0  0  0
 17 33  1  0  0  0  0
 18 19  1  0  0  0  0
 18 34  1  0  0  0  0
 18 35  1  0  0  0  0
 19 20  1  0  0  0  0
 19 37  1  0  0  0  0
 19 38  1  0  0  0  0
 20 39  1  0  0  0  0
 20 40  1  0  0  0  0
 21 42  1  0  0  0  0
 21 43  1  0  0  0  0
 21 44  1  0  0  0  0
M  END
> <PUBCHEM_COMPOUND_CID>
46173874

> <PUBCHEM_COMPOUND_CANONICALIZED>
1

> <PUBCHEM_CACTVS_COMPLEXITY>
333

> <PUBCHEM_CACTVS_HBOND_ACCEPTOR>
9

> <PUBCHEM_CACTVS_HBOND_DONOR>
5

> <PUBCHEM_CACTVS_ROTATABLE_BOND>
8

> <PUBCHEM_CACTVS_SUBSKEYS>
AAADceByOABgAAAAAAAAAAAAAAAAAAAAAAAkAAAAAAAAAAAAAAAAHgQECAAACBSlwAKCAAAQBgggAAAgAAAAAAAAABAAAAAwAAABEAIgAAACQAAFAAAjAAHAYAQAAAAAAAAAAAAAAAAAAAAAAAAAAAAAAA==

> <PUBCHEM_IUPAC_OPENEYE_NAME>
[(2S,3R,4S,5S,6R)-3,4,5-trihydroxy-6-(hydroxymethyl)tetrahydropyran-2-yl] (1Z)-N-hydroxy-5-methylsulfanyl-pentanimidothioate

> <PUBCHEM_IUPAC_CAS_NAME>
(1Z)-N-hydroxy-5-(methylthio)pentanimidothioic acid [(2S,3R,4S,5S,6R)-3,4,5-trihydroxy-6-(hydroxymethyl)-2-oxanyl] ester

> <PUBCHEM_IUPAC_NAME>
[(2S,3R,4S,5S,6R)-3,4,5-trihydroxy-6-(hydroxymethyl)oxan-2-yl] (1Z)-N-hydroxy-5-methylsulfanylpentanimidothioate

> <PUBCHEM_IUPAC_SYSTEMATIC_NAME>
[(2S,3R,4S,5S,6R)-6-(hydroxymethyl)-3,4,5-tris(oxidanyl)oxan-2-yl] (1Z)-5-methylsulfanyl-N-oxidanyl-pentanimidothioate

> <PUBCHEM_IUPAC_TRADITIONAL_NAME>
(1Z)-N-hydroxy-5-(methylthio)thiovalerimidic acid [(2S,3R,4S,5S,6R)-3,4,5-trihydroxy-6-methylol-tetrahydropyran-2-yl] ester

> <PUBCHEM_IUPAC_INCHI>
InChI=1S/C12H23NO6S2/c1-20-5-3-2-4-8(13-18)21-12-11(17)10(16)9(15)7(6-14)19-12/h7,9-12,14-18H,2-6H2,1H3/b13-8-/t7-,9-,10+,11-,12+/m1/s1

> <PUBCHEM_IUPAC_INCHIKEY>
WILLOUKDISBKTQ-AHMUMSBHSA-N

> <PUBCHEM_XLOGP3_AA>
0.1

> <PUBCHEM_EXACT_MASS>
341.096679

> <PUBCHEM_MOLECULAR_FORMULA>
C12H23NO6S2

> <PUBCHEM_MOLECULAR_WEIGHT>
341.44412

> <PUBCHEM_OPENEYE_CAN_SMILES>
CSCCCCC(=NO)SC1C(C(C(C(O1)CO)O)O)O

> <PUBCHEM_OPENEYE_ISO_SMILES>
CSCCCC/C(=N/O)/S[C@H]1[C@@H]([C@H]([C@@H]([C@H](O1)CO)O)O)O

> <PUBCHEM_CACTVS_TPSA>
173

> <PUBCHEM_MONOISOTOPIC_WEIGHT>
341.096679

> <PUBCHEM_TOTAL_CHARGE>
0

> <PUBCHEM_HEAVY_ATOM_COUNT>
21

> <PUBCHEM_ATOM_DEF_STEREO_COUNT>
5

> <PUBCHEM_ATOM_UDEF_STEREO_COUNT>
0

> <PUBCHEM_BOND_DEF_STEREO_COUNT>
1

> <PUBCHEM_BOND_UDEF_STEREO_COUNT>
0

> <PUBCHEM_ISOTOPIC_ATOM_COUNT>
0

> <PUBCHEM_COMPONENT_COUNT>
1

> <PUBCHEM_CACTVS_TAUTO_COUNT>
3

> <PUBCHEM_COORDINATE_TYPE>
1
5
255

> <PUBCHEM_BONDANNOTATIONS>
14  1  5
13  15  5
10  4  5
11  5  6
12  6  6

$$$$

