10918995
  -OEChem-07051212443D

 63 66  0     1  0  0  0  0  0999 V2000
   -3.0181    2.6895   -0.6186 P   0  0  2  0  0  0  0  0  0  0  0  0
   -2.9056    0.2381   -2.2420 P   0  0  1  0  0  0  0  0  0  0  0  0
    0.6772    1.7907    1.1120 O   0  0  0  0  0  0  0  0  0  0  0  0
   -2.6635   -0.5792    0.9707 O   0  0  0  0  0  0  0  0  0  0  0  0
    3.9203    3.0331    0.1850 O   0  0  0  0  0  0  0  0  0  0  0  0
    2.3612    4.1216    2.1266 O   0  0  0  0  0  0  0  0  0  0  0  0
   -1.9059    3.2004    0.4393 O   0  0  0  0  0  0  0  0  0  0  0  0
   -3.4578   -0.8670   -1.2047 O   0  0  0  0  0  0  0  0  0  0  0  0
   -2.7810   -4.6561    1.6728 O   0  0  0  0  0  0  0  0  0  0  0  0
   -3.6023   -2.3668    2.9857 O   0  0  0  0  0  0  0  0  0  0  0  0
   -2.7815   -3.6174   -1.0671 O   0  0  0  0  0  0  0  0  0  0  0  0
   -2.3049    1.4135   -1.3086 O   0  0  0  0  0  0  0  0  0  0  0  0
   -2.9814    3.8042   -1.7902 O   0  0  0  0  0  0  0  0  0  0  0  0
   -1.5836   -0.4335   -2.8890 O   0  0  0  0  0  0  0  0  0  0  0  0
   -4.3790    2.4125   -0.0498 O   0  0  0  0  0  0  0  0  0  0  0  0
   -3.9173    0.7069   -3.2473 O   0  0  0  0  0  0  0  0  0  0  0  0
    3.4535   -3.3756   -2.2349 O   0  0  0  0  0  0  0  0  0  0  0  0
    2.1656    0.3940   -0.0980 N   0  0  0  0  0  0  0  0  0  0  0  0
    4.3369   -0.5176    0.5100 N   0  0  0  0  0  0  0  0  0  0  0  0
    1.6140   -1.1524   -1.6283 N   0  0  0  0  0  0  0  0  0  0  0  0
    4.9375   -2.5183   -0.6747 N   0  0  0  0  0  0  0  0  0  0  0  0
    6.3611   -1.5494    0.9348 N   0  0  0  0  0  0  0  0  0  0  0  0
    2.5210    2.8641    0.0840 C   0  0  2  0  0  0  0  0  0  0  0  0
    1.7396    3.9061    0.8596 C   0  0  1  0  0  0  0  0  0  0  0  0
    2.0553    1.5785    0.7505 C   0  0  1  0  0  0  0  0  0  0  0  0
    0.4002    3.2100    1.0809 C   0  0  1  0  0  0  0  0  0  0  0  0
   -2.2391   -3.3997    1.2758 C   0  0  2  0  0  0  0  0  0  0  0  0
   -0.6000    3.4796   -0.0345 C   0  0  0  0  0  0  0  0  0  0  0  0
   -2.2713   -2.4461    2.4706 C   0  0  1  0  0  0  0  0  0  0  0  0
   -3.0269   -2.8274    0.0960 C   0  0  1  0  0  0  0  0  0  0  0  0
   -1.8230   -1.0480    2.0324 C   0  0  2  0  0  0  0  0  0  0  0  0
   -2.5890   -1.3904   -0.2005 C   0  0  2  0  0  0  0  0  0  0  0  0
    3.1860   -0.4919   -0.1668 C   0  0  0  0  0  0  0  0  0  0  0  0
    1.2307   -0.0501   -1.0062 C   0  0  0  0  0  0  0  0  0  0  0  0
   -1.9085   -0.0301    3.1638 C   0  0  0  0  0  0  0  0  0  0  0  0
    2.8431   -1.4279   -1.0984 C   0  0  0  0  0  0  0  0  0  0  0  0
    3.7413   -2.5238   -1.4028 C   0  0  0  0  0  0  0  0  0  0  0  0
    5.1953   -1.5741    0.2119 C   0  0  0  0  0  0  0  0  0  0  0  0
    2.2360    2.8835   -0.9751 H   0  0  0  0  0  0  0  0  0  0  0  0
    1.6801    4.8717    0.3498 H   0  0  0  0  0  0  0  0  0  0  0  0
    2.6122    1.3645    1.6708 H   0  0  0  0  0  0  0  0  0  0  0  0
   -0.0361    3.4690    2.0526 H   0  0  0  0  0  0  0  0  0  0  0  0
   -1.2011   -3.5816    0.9700 H   0  0  0  0  0  0  0  0  0  0  0  0
   -1.6349   -2.8351    3.2739 H   0  0  0  0  0  0  0  0  0  0  0  0
   -0.5861    4.5380   -0.3137 H   0  0  0  0  0  0  0  0  0  0  0  0
   -0.3700    2.8827   -0.9220 H   0  0  0  0  0  0  0  0  0  0  0  0
   -4.1044   -2.8772    0.2909 H   0  0  0  0  0  0  0  0  0  0  0  0
   -0.7867   -1.0807    1.6723 H   0  0  0  0  0  0  0  0  0  0  0  0
   -1.5609   -1.3789   -0.5795 H   0  0  0  0  0  0  0  0  0  0  0  0
    4.1312    3.9203   -0.1523 H   0  0  0  0  0  0  0  0  0  0  0  0
    1.8126    4.7600    2.6137 H   0  0  0  0  0  0  0  0  0  0  0  0
    0.3001    0.4708   -1.1739 H   0  0  0  0  0  0  0  0  0  0  0  0
   -2.9445    0.1542    3.4675 H   0  0  0  0  0  0  0  0  0  0  0  0
   -1.3309   -0.3526    4.0351 H   0  0  0  0  0  0  0  0  0  0  0  0
   -1.5165    0.9362    2.8278 H   0  0  0  0  0  0  0  0  0  0  0  0
   -2.2478   -4.9839    2.4170 H   0  0  0  0  0  0  0  0  0  0  0  0
   -3.5543   -1.9629    3.8686 H   0  0  0  0  0  0  0  0  0  0  0  0
   -1.8280   -3.5885   -1.2562 H   0  0  0  0  0  0  0  0  0  0  0  0
    4.5975    0.1785    1.2008 H   0  0  0  0  0  0  0  0  0  0  0  0
   -2.1358    3.9925   -2.2501 H   0  0  0  0  0  0  0  0  0  0  0  0
   -1.1512    0.0083   -3.6506 H   0  0  0  0  0  0  0  0  0  0  0  0
    6.5476   -0.8193    1.6135 H   0  0  0  0  0  0  0  0  0  0  0  0
    7.0704   -2.2636    0.8111 H   0  0  0  0  0  0  0  0  0  0  0  0
  1  7  1  0  0  0  0
  1 12  1  0  0  0  0
  1 13  1  0  0  0  0
  1 15  2  0  0  0  0
  2  8  1  0  0  0  0
  2 12  1  0  0  0  0
  2 14  1  0  0  0  0
  2 16  2  0  0  0  0
  3 25  1  0  0  0  0
  3 26  1  0  0  0  0
  4 31  1  0  0  0  0
  4 32  1  0  0  0  0
  5 23  1  0  0  0  0
  5 50  1  0  0  0  0
  6 24  1  0  0  0  0
  6 51  1  0  0  0  0
  7 28  1  0  0  0  0
  8 32  1  0  0  0  0
  9 27  1  0  0  0  0
  9 56  1  0  0  0  0
 10 29  1  0  0  0  0
 10 57  1  0  0  0  0
 11 30  1  0  0  0  0
 11 58  1  0  0  0  0
 13 60  1  0  0  0  0
 14 61  1  0  0  0  0
 17 37  2  0  0  0  0
 18 25  1  0  0  0  0
 18 33  1  0  0  0  0
 18 34  1  0  0  0  0
 19 33  1  0  0  0  0
 19 38  1  0  0  0  0
 19 59  1  0  0  0  0
 20 34  2  0  0  0  0
 20 36  1  0  0  0  0
 21 37  1  0  0  0  0
 21 38  2  0  0  0  0
 22 38  1  0  0  0  0
 22 62  1  0  0  0  0
 22 63  1  0  0  0  0
 23 24  1  0  0  0  0
 23 25  1  0  0  0  0
 23 39  1  0  0  0  0
 24 26  1  0  0  0  0
 24 40  1  0  0  0  0
 25 41  1  0  0  0  0
 26 28  1  0  0  0  0
 26 42  1  0  0  0  0
 27 29  1  0  0  0  0
 27 30  1  0  0  0  0
 27 43  1  0  0  0  0
 28 45  1  0  0  0  0
 28 46  1  0  0  0  0
 29 31  1  0  0  0  0
 29 44  1  0  0  0  0
 30 32  1  0  0  0  0
 30 47  1  0  0  0  0
 31 35  1  0  0  0  0
 31 48  1  0  0  0  0
 32 49  1  0  0  0  0
 33 36  2  0  0  0  0
 34 52  1  0  0  0  0
 35 53  1  0  0  0  0
 35 54  1  0  0  0  0
 35 55  1  0  0  0  0
 36 37  1  0  0  0  0
M  END
> <PUBCHEM_COMPOUND_CID>
10918995

> <PUBCHEM_CONFORMER_RMSD>
1.6

> <PUBCHEM_CONFORMER_DIVERSEORDER>
1
122
165
162
63
151
55
74
129
9
94
78
67
88
81
95
149
110
23
150
157
132
41
15
171
117
143
138
68
24
154
39
85
49
18
106
114
87
136
84
98
144
131
52
173
50
147
156
139
38
96
145
118
92
27
2
40
16
123
100
47
53
166
46
70
72
82
158
152
113
34
73
31
90
26
29
148
169
112
83
59
108
127
79
43
107
93
36
124
57
104
133
5
54
130
69
37
168
25
125
32
167
170
60
141
48
121
19
97
35
22
153
142
56
159
146
86
61
111
65
103
44
45
58
116
51
102
75
28
137
20
33
62
135
71
17
80
119
163
164
91
109
128
155
21
76
89
14
30
12
140
64
120
101
115
160
4
105
134
77
161
66
7
13
11
126
10
99
8
172
42
6
3

> <PUBCHEM_MMFF94_PARTIAL_CHARGES>
48
1 1.51
10 -0.68
11 -0.68
12 -0.54
13 -0.77
14 -0.77
15 -0.7
16 -0.7
17 -0.57
18 0.05
19 -0.53
2 1.51
20 -0.57
21 -0.66
22 -0.85
23 0.28
24 0.28
25 0.54
26 0.28
27 0.28
28 0.28
29 0.28
3 -0.56
30 0.28
31 0.28
32 0.56
33 -0.07
34 0.04
36 0.14
37 0.87
38 0.55
4 -0.56
5 -0.68
50 0.4
51 0.4
52 0.15
56 0.4
57 0.4
58 0.4
59 0.4
6 -0.68
60 0.5
61 0.5
62 0.4
63 0.4
7 -0.55
8 -0.55
9 -0.68

> <PUBCHEM_EFFECTIVE_ROTOR_COUNT>
10.2

> <PUBCHEM_PHARMACOPHORE_FEATURES>
25
1 10 acceptor
1 10 donor
1 11 acceptor
1 11 donor
1 13 acceptor
1 14 acceptor
1 15 acceptor
1 16 acceptor
1 17 acceptor
1 19 donor
1 21 donor
1 22 donor
1 3 acceptor
1 4 acceptor
1 5 acceptor
1 5 donor
1 6 acceptor
1 6 donor
1 9 acceptor
1 9 donor
3 18 20 34 cation
5 18 20 33 34 36 rings
5 3 23 24 25 26 rings
6 19 21 33 36 37 38 rings
6 4 27 29 30 31 32 rings

> <PUBCHEM_HEAVY_ATOM_COUNT>
38

> <PUBCHEM_ATOM_DEF_STEREO_COUNT>
9

> <PUBCHEM_ATOM_UDEF_STEREO_COUNT>
0

> <PUBCHEM_BOND_DEF_STEREO_COUNT>
0

> <PUBCHEM_BOND_UDEF_STEREO_COUNT>
0

> <PUBCHEM_ISOTOPIC_ATOM_COUNT>
0

> <PUBCHEM_COMPONENT_COUNT>
1

> <PUBCHEM_CACTVS_TAUTO_COUNT>
6

> <PUBCHEM_CONFORMER_ID>
00A69C5300000001

> <PUBCHEM_MMFF94_ENERGY>
58.8453

> <PUBCHEM_FEATURE_SELFOVERLAP>
127.154

> <PUBCHEM_SHAPE_FINGERPRINT>
10838868 158 18200317589845746680
11578080 2 18130496431964719420
12156800 1 17031955905116030843
12712778 12 18201163260327281730
12788726 201 17758401064576755738
13947930 73 18127666379566351617
14020679 6 18265612267975920377
140371 6 18116991290235141868
14659021 117 18265066893086807416
14725015 67 18340779216772902035
15274700 242 17763467618241460306
15775530 1 18340209566249240240
19315092 285 16011316378243455429
19611394 137 18336271236885714338
20764821 26 18409722971810403272
3380486 145 17822571741433920032
35225 105 17703784851802329393
4015057 19 18263098693878576429
445580 42 18271238447315362522
469060 322 17822308911042090302

> <PUBCHEM_SHAPE_MULTIPOLES>
676.78
9.53
6.26
2.82
9.68
1.9
0.04
-5.58
-0.99
-1.19
1.62
-3.1
-1.04
4.36

> <PUBCHEM_SHAPE_SELFOVERLAP>
1410.547

> <PUBCHEM_SHAPE_VOLUME>
387

> <PUBCHEM_COORDINATE_TYPE>
2
5
10

$$$$

