124225
  -OEChem-07051213053D

 40 43  0     1  0  0  0  0  0999 V2000
    3.3280    2.5678   -0.1795 S   0  0  0  0  0  0  0  0  0  0  0  0
   -2.4363   -2.6829    0.0568 F   0  0  0  0  0  0  0  0  0  0  0  0
    2.6428   -2.5640    0.0805 O   0  0  0  0  0  0  0  0  0  0  0  0
    5.0383   -1.6113   -0.5916 O   0  0  0  0  0  0  0  0  0  0  0  0
    5.4918    0.3746    0.4481 O   0  0  0  0  0  0  0  0  0  0  0  0
    1.4535    1.2509   -0.1207 N   0  0  0  0  0  0  0  0  0  0  0  0
   -3.2491   -0.0371   -0.0844 N   0  0  0  0  0  0  0  0  0  0  0  0
   -5.9736    0.8028    0.0618 N   0  0  0  0  0  0  0  0  0  0  0  0
    1.5172    2.6589   -0.1934 C   0  0  1  0  0  0  0  0  0  0  0  0
    0.4277    0.3015   -0.0777 C   0  0  0  0  0  0  0  0  0  0  0  0
    2.7180    0.9570   -0.0991 C   0  0  0  0  0  0  0  0  0  0  0  0
   -1.8911   -0.3742   -0.0578 C   0  0  0  0  0  0  0  0  0  0  0  0
   -4.0841   -0.4411    1.0550 C   0  0  0  0  0  0  0  0  0  0  0  0
   -3.6851    1.1692   -0.7963 C   0  0  0  0  0  0  0  0  0  0  0  0
    0.8082   -1.0578   -0.0059 C   0  0  0  0  0  0  0  0  0  0  0  0
   -0.9270    0.6345   -0.1032 C   0  0  0  0  0  0  0  0  0  0  0  0
   -5.5588   -0.4677    0.6550 C   0  0  0  0  0  0  0  0  0  0  0  0
   -5.1746    1.0862   -1.1291 C   0  0  0  0  0  0  0  0  0  0  0  0
    3.2548   -0.2695   -0.0332 C   0  0  0  0  0  0  0  0  0  0  0  0
    2.2691   -1.3989    0.0195 C   0  0  0  0  0  0  0  0  0  0  0  0
   -1.5083   -1.7160    0.0132 C   0  0  0  0  0  0  0  0  0  0  0  0
    0.9930    3.3157    1.0592 C   0  0  0  0  0  0  0  0  0  0  0  0
   -0.1575   -2.0641    0.0399 C   0  0  0  0  0  0  0  0  0  0  0  0
    4.7031   -0.4344   -0.0170 C   0  0  0  0  0  0  0  0  0  0  0  0
    1.0890    3.0555   -1.1206 H   0  0  0  0  0  0  0  0  0  0  0  0
   -3.9317    0.2697    1.8779 H   0  0  0  0  0  0  0  0  0  0  0  0
   -3.8151   -1.4314    1.4373 H   0  0  0  0  0  0  0  0  0  0  0  0
   -3.1324    1.2867   -1.7367 H   0  0  0  0  0  0  0  0  0  0  0  0
   -3.4977    2.0562   -0.1774 H   0  0  0  0  0  0  0  0  0  0  0  0
   -1.2131    1.6801   -0.1571 H   0  0  0  0  0  0  0  0  0  0  0  0
   -5.7448   -1.2881   -0.0496 H   0  0  0  0  0  0  0  0  0  0  0  0
   -6.1691   -0.6630    1.5435 H   0  0  0  0  0  0  0  0  0  0  0  0
   -5.5007    2.0386   -1.5612 H   0  0  0  0  0  0  0  0  0  0  0  0
   -5.3497    0.3132   -1.8881 H   0  0  0  0  0  0  0  0  0  0  0  0
   -6.9577    0.7467   -0.1989 H   0  0  0  0  0  0  0  0  0  0  0  0
   -0.1003    3.2775    1.0997 H   0  0  0  0  0  0  0  0  0  0  0  0
    1.3707    2.8548    1.9801 H   0  0  0  0  0  0  0  0  0  0  0  0
    1.2664    4.3772    1.0835 H   0  0  0  0  0  0  0  0  0  0  0  0
    0.1191   -3.1127    0.0952 H   0  0  0  0  0  0  0  0  0  0  0  0
    6.0087   -1.7547   -0.5974 H   0  0  0  0  0  0  0  0  0  0  0  0
  1  9  1  0  0  0  0
  1 11  1  0  0  0  0
  2 21  1  0  0  0  0
  3 20  2  0  0  0  0
  4 24  1  0  0  0  0
  4 40  1  0  0  0  0
  5 24  2  0  0  0  0
  6  9  1  0  0  0  0
  6 10  1  0  0  0  0
  6 11  1  0  0  0  0
  7 12  1  0  0  0  0
  7 13  1  0  0  0  0
  7 14  1  0  0  0  0
  8 17  1  0  0  0  0
  8 18  1  0  0  0  0
  8 35  1  0  0  0  0
  9 22  1  0  0  0  0
  9 25  1  0  0  0  0
 10 15  1  0  0  0  0
 10 16  2  0  0  0  0
 11 19  2  0  0  0  0
 12 16  1  0  0  0  0
 12 21  2  0  0  0  0
 13 17  1  0  0  0  0
 13 26  1  0  0  0  0
 13 27  1  0  0  0  0
 14 18  1  0  0  0  0
 14 28  1  0  0  0  0
 14 29  1  0  0  0  0
 15 20  1  0  0  0  0
 15 23  2  0  0  0  0
 16 30  1  0  0  0  0
 17 31  1  0  0  0  0
 17 32  1  0  0  0  0
 18 33  1  0  0  0  0
 18 34  1  0  0  0  0
 19 20  1  0  0  0  0
 19 24  1  0  0  0  0
 21 23  1  0  0  0  0
 22 36  1  0  0  0  0
 22 37  1  0  0  0  0
 22 38  1  0  0  0  0
 23 39  1  0  0  0  0
M  END
> <PUBCHEM_COMPOUND_CID>
124225

> <PUBCHEM_CONFORMER_RMSD>
0.6

> <PUBCHEM_CONFORMER_DIVERSEORDER>
1
2
3

> <PUBCHEM_MMFF94_PARTIAL_CHARGES>
27
1 -0.29
10 0.1
11 0.14
12 0.1
13 0.37
14 0.37
15 0.09
16 -0.15
17 0.27
18 0.27
19 0.06
2 -0.19
20 0.47
21 0.19
23 -0.15
24 0.71
3 -0.57
30 0.15
35 0.36
39 0.15
4 -0.65
40 0.5
5 -0.57
6 -0.44
7 -0.84
8 -0.9
9 0.46

> <PUBCHEM_EFFECTIVE_ROTOR_COUNT>
3.6

> <PUBCHEM_PHARMACOPHORE_FEATURES>
13
1 19 anion
1 3 acceptor
1 4 acceptor
1 5 acceptor
1 6 cation
1 7 cation
1 8 cation
1 8 donor
3 4 5 24 anion
4 1 6 9 11 rings
6 10 12 15 16 21 23 rings
6 6 10 11 15 19 20 rings
6 7 8 13 14 17 18 rings

> <PUBCHEM_HEAVY_ATOM_COUNT>
24

> <PUBCHEM_ATOM_DEF_STEREO_COUNT>
0

> <PUBCHEM_ATOM_UDEF_STEREO_COUNT>
1

> <PUBCHEM_BOND_DEF_STEREO_COUNT>
0

> <PUBCHEM_BOND_UDEF_STEREO_COUNT>
0

> <PUBCHEM_ISOTOPIC_ATOM_COUNT>
0

> <PUBCHEM_COMPONENT_COUNT>
1

> <PUBCHEM_CACTVS_TAUTO_COUNT>
1

> <PUBCHEM_CONFORMER_ID>
0001E54100000001

> <PUBCHEM_MMFF94_ENERGY>
79.8594

> <PUBCHEM_FEATURE_SELFOVERLAP>
66.622

> <PUBCHEM_SHAPE_FINGERPRINT>
10 15 18201442437475259912
10411042 1 17978510063790343542
10967382 1 18410575106575797790
1100329 8 18410010996912816914
11045977 3 18202276988296677307
11578080 2 17170130143924980058
11646440 116 18333447655515983512
12011746 2 18410853304450361334
12166972 35 17968097508338731473
12236239 1 17603305972897023469
12403259 415 18131074844454443245
12507557 5 18409446986292221689
12553582 1 18338527425380703638
12838862 33 18338536187309166296
13140716 1 18266178323037326472
13402501 40 18343586265526932381
13583140 156 18131344207512642083
14170010 4 18408888442585044105
14464042 87 17968089854327500665
14790565 3 18338791324861018421
14866123 147 17183901909441914562
15081414 286 18335413608403031444
15099037 51 18411138047533089799
15196674 1 18339360747345420382
15475509 8 17825641582030062244
1601671 61 18411420618106314374
17349148 13 17748821930038521371
18785283 64 18199745852031008884
192875 21 17894908525236092801
20691752 17 17202499805180848826
21029758 11 18335143128321338288
21033648 144 18264499403247309925
21033648 29 18130240302165171837
21033650 10 15358792600946213963
21267235 1 18338508746784302126
21279426 13 18196373842867380676
21709351 56 18409736145028780599
21859007 373 17987260951901947141
22122407 14 18042104571533323433
221357 26 18339087089779251837
221490 88 18268703910036982234
22289505 5 18340211898278812212
23227448 37 18337674118500440911
23402539 116 18040438810783641413
23558518 356 17840870676783693954
23559900 14 18334861576135436800
3004659 81 18202279247771332206
335352 9 18411138035065036494
34934 24 18410582790341297330
350125 39 18267299842341485363
3524813 1 18201728383196557589
3545911 37 18410009940044984715
3680242 22 18343305902988676906
495365 180 17822582598947746424
5104073 3 18268430139846284618
633830 44 17417535700566041248
6443956 14 18410571778203172252
9709674 26 18268146448693276819
9981440 41 17326063849465633640
9995097 60 18411700958858153137
9999458 23 18131349692006153830

> <PUBCHEM_SHAPE_MULTIPOLES>
457.93
11.49
3.01
0.82
8.03
0.91
-0.03
0.52
0.24
-2.14
-0.26
0.55
0.25
0.82

> <PUBCHEM_SHAPE_SELFOVERLAP>
999.542

> <PUBCHEM_SHAPE_VOLUME>
253.9

> <PUBCHEM_COORDINATE_TYPE>
2
5
10

$$$$

