3014162
  -OEChem-07051213082D

 17 17  0     0  0  0  0  0  0999 V2000
    5.4641   -1.4050    0.0000 Br  0  0  0  0  0  0  0  0  0  0  0  0
    2.0000   -1.4050    0.0000 Br  0  0  0  0  0  0  0  0  0  0  0  0
    3.7320   -2.4050    0.0000 O   0  0  0  0  0  0  0  0  0  0  0  0
    2.8660    2.0950    0.0000 O   0  0  0  0  0  0  0  0  0  0  0  0
    4.5981    2.0950    0.0000 N   0  0  0  0  0  0  0  0  0  0  0  0
    3.7320    0.5950    0.0000 C   0  0  0  0  0  0  0  0  0  0  0  0
    2.8660    0.0950    0.0000 C   0  0  0  0  0  0  0  0  0  0  0  0
    4.5981    0.0950    0.0000 C   0  0  0  0  0  0  0  0  0  0  0  0
    3.7320   -1.4050    0.0000 C   0  0  0  0  0  0  0  0  0  0  0  0
    4.5981   -0.9050    0.0000 C   0  0  0  0  0  0  0  0  0  0  0  0
    2.8660   -0.9050    0.0000 C   0  0  0  0  0  0  0  0  0  0  0  0
    3.7320    1.5950    0.0000 C   0  0  0  0  0  0  0  0  0  0  0  0
    2.3291    0.4050    0.0000 H   0  0  0  0  0  0  0  0  0  0  0  0
    5.1350    0.4050    0.0000 H   0  0  0  0  0  0  0  0  0  0  0  0
    4.5981    2.7150    0.0000 H   0  0  0  0  0  0  0  0  0  0  0  0
    5.1350    1.7850    0.0000 H   0  0  0  0  0  0  0  0  0  0  0  0
    3.1951   -2.7150    0.0000 H   0  0  0  0  0  0  0  0  0  0  0  0
  1 10  1  0  0  0  0
  2 11  1  0  0  0  0
  3  9  1  0  0  0  0
  3 17  1  0  0  0  0
  4 12  2  0  0  0  0
  5 12  1  0  0  0  0
  5 15  1  0  0  0  0
  5 16  1  0  0  0  0
  6  7  2  0  0  0  0
  6  8  1  0  0  0  0
  6 12  1  0  0  0  0
  7 11  1  0  0  0  0
  7 13  1  0  0  0  0
  8 10  2  0  0  0  0
  8 14  1  0  0  0  0
  9 10  1  0  0  0  0
  9 11  2  0  0  0  0
M  END
> <PUBCHEM_COMPOUND_CID>
3014162

> <PUBCHEM_COMPOUND_CANONICALIZED>
1

> <PUBCHEM_CACTVS_COMPLEXITY>
176

> <PUBCHEM_CACTVS_HBOND_ACCEPTOR>
2

> <PUBCHEM_CACTVS_HBOND_DONOR>
2

> <PUBCHEM_CACTVS_ROTATABLE_BOND>
1

> <PUBCHEM_CACTVS_SUBSKEYS>
AAADcYBiMAAAGAAAAAAAAAAAAAAAAAAAAAAwAAAAAAAAAAABAAAAHgBQCAABrASBmAAwBoBAAgCIAiFSEACCAAAkIAQAiAEEDOgIJjKClROAcQBkwBEIm5eY3ADOIAAAEAAgBABAAAAgAEAIAAAAAAAAAA==

> <PUBCHEM_IUPAC_OPENEYE_NAME>
3,5-dibromo-4-hydroxy-benzamide

> <PUBCHEM_IUPAC_CAS_NAME>
3,5-dibromo-4-hydroxybenzamide

> <PUBCHEM_IUPAC_NAME>
3,5-dibromo-4-hydroxybenzamide

> <PUBCHEM_IUPAC_SYSTEMATIC_NAME>
3,5-bis(bromanyl)-4-oxidanyl-benzamide

> <PUBCHEM_IUPAC_TRADITIONAL_NAME>
3,5-dibromo-4-hydroxy-benzamide

> <PUBCHEM_IUPAC_INCHI>
InChI=1S/C7H5Br2NO2/c8-4-1-3(7(10)12)2-5(9)6(4)11/h1-2,11H,(H2,10,12)

> <PUBCHEM_IUPAC_INCHIKEY>
GJLXTZOZEHWWTD-UHFFFAOYSA-N

> <PUBCHEM_XLOGP3>
2.6

> <PUBCHEM_EXACT_MASS>
294.866656

> <PUBCHEM_MOLECULAR_FORMULA>
C7H5Br2NO2

> <PUBCHEM_MOLECULAR_WEIGHT>
294.9281

> <PUBCHEM_OPENEYE_CAN_SMILES>
C1=C(C=C(C(=C1Br)O)Br)C(=O)N

> <PUBCHEM_OPENEYE_ISO_SMILES>
C1=C(C=C(C(=C1Br)O)Br)C(=O)N

> <PUBCHEM_CACTVS_TPSA>
63.3

> <PUBCHEM_MONOISOTOPIC_WEIGHT>
292.868703

> <PUBCHEM_TOTAL_CHARGE>
0

> <PUBCHEM_HEAVY_ATOM_COUNT>
12

> <PUBCHEM_ATOM_DEF_STEREO_COUNT>
0

> <PUBCHEM_ATOM_UDEF_STEREO_COUNT>
0

> <PUBCHEM_BOND_DEF_STEREO_COUNT>
0

> <PUBCHEM_BOND_UDEF_STEREO_COUNT>
0

> <PUBCHEM_ISOTOPIC_ATOM_COUNT>
0

> <PUBCHEM_COMPONENT_COUNT>
1

> <PUBCHEM_CACTVS_TAUTO_COUNT>
7

> <PUBCHEM_COORDINATE_TYPE>
1
5
255

> <PUBCHEM_BONDANNOTATIONS>
6  7  8
6  8  8
7  11  8
8  10  8
9  10  8
9  11  8

$$$$

