17396403
  -OEChem-06241222562D

 48 50  0     1  0  0  0  0  0999 V2000
   12.2496   -0.8427    0.0000 O   0  0  0  0  0  0  0  0  0  0  0  0
   12.2496    1.2267    0.0000 O   0  0  0  0  0  0  0  0  0  0  0  0
    7.0255   -1.8080    0.0000 O   0  0  0  0  0  0  0  0  0  0  0  0
    2.9945    0.7329    0.0000 O   0  0  0  0  0  0  0  0  0  0  0  0
    3.1756   -0.9897    0.0000 O   0  0  0  0  0  0  0  0  0  0  0  0
    6.0550    0.6865    0.0000 N   0  0  0  0  0  0  0  0  0  0  0  0
    8.7576   -0.8080    0.0000 N   0  0  0  0  0  0  0  0  0  0  0  0
    7.8916   -0.3080    0.0000 C   0  0  3  0  0  0  0  0  0  0  0  0
    6.1595   -0.3080    0.0000 C   0  0  0  0  0  0  0  0  0  0  0  0
    5.2460   -0.7147    0.0000 C   0  0  0  0  0  0  0  0  0  0  0  0
    7.0255   -0.8080    0.0000 C   0  0  0  0  0  0  0  0  0  0  0  0
    4.5768    0.0284    0.0000 C   0  0  0  0  0  0  0  0  0  0  0  0
    5.0768    0.8944    0.0000 C   0  0  0  0  0  0  0  0  0  0  0  0
    9.6236   -0.3080    0.0000 C   0  0  0  0  0  0  0  0  0  0  0  0
    7.8916    0.6920    0.0000 C   0  0  0  0  0  0  0  0  0  0  0  0
    5.0380   -1.6929    0.0000 C   0  0  0  0  0  0  0  0  0  0  0  0
   11.3557   -0.3080    0.0000 C   0  0  0  0  0  0  0  0  0  0  0  0
   10.4896   -0.8080    0.0000 C   0  0  0  0  0  0  0  0  0  0  0  0
    4.6701    1.8080    0.0000 C   0  0  0  0  0  0  0  0  0  0  0  0
   11.3557    0.6920    0.0000 C   0  0  0  0  0  0  0  0  0  0  0  0
    9.6236    0.6920    0.0000 C   0  0  0  0  0  0  0  0  0  0  0  0
    3.5823   -0.0761    0.0000 C   0  0  0  0  0  0  0  0  0  0  0  0
   10.4896    1.1920    0.0000 C   0  0  0  0  0  0  0  0  0  0  0  0
   13.1557   -0.3288    0.0000 C   0  0  0  0  0  0  0  0  0  0  0  0
   13.1557    0.7128    0.0000 C   0  0  0  0  0  0  0  0  0  0  0  0
    2.0000    0.6284    0.0000 C   0  0  0  0  0  0  0  0  0  0  0  0
    7.8916   -0.9280    0.0000 H   0  0  0  0  0  0  0  0  0  0  0  0
    6.5157    1.1014    0.0000 H   0  0  0  0  0  0  0  0  0  0  0  0
    8.7576   -1.4280    0.0000 H   0  0  0  0  0  0  0  0  0  0  0  0
    8.5116    0.6920    0.0000 H   0  0  0  0  0  0  0  0  0  0  0  0
    7.8916    1.3120    0.0000 H   0  0  0  0  0  0  0  0  0  0  0  0
    7.2716    0.6920    0.0000 H   0  0  0  0  0  0  0  0  0  0  0  0
    4.4316   -1.5640    0.0000 H   0  0  0  0  0  0  0  0  0  0  0  0
    4.9091   -2.2993    0.0000 H   0  0  0  0  0  0  0  0  0  0  0  0
    5.6445   -1.8218    0.0000 H   0  0  0  0  0  0  0  0  0  0  0  0
   10.4896   -1.4280    0.0000 H   0  0  0  0  0  0  0  0  0  0  0  0
    5.2365    2.0602    0.0000 H   0  0  0  0  0  0  0  0  0  0  0  0
    4.4179    2.3744    0.0000 H   0  0  0  0  0  0  0  0  0  0  0  0
    4.1037    1.5558    0.0000 H   0  0  0  0  0  0  0  0  0  0  0  0
    9.0867    1.0020    0.0000 H   0  0  0  0  0  0  0  0  0  0  0  0
   10.4896    1.8120    0.0000 H   0  0  0  0  0  0  0  0  0  0  0  0
   13.3647   -0.9125    0.0000 H   0  0  0  0  0  0  0  0  0  0  0  0
   13.7665   -0.2227    0.0000 H   0  0  0  0  0  0  0  0  0  0  0  0
   13.7665    0.6067    0.0000 H   0  0  0  0  0  0  0  0  0  0  0  0
   13.3647    1.2965    0.0000 H   0  0  0  0  0  0  0  0  0  0  0  0
    1.9352    1.2450    0.0000 H   0  0  0  0  0  0  0  0  0  0  0  0
    1.3834    0.5636    0.0000 H   0  0  0  0  0  0  0  0  0  0  0  0
    2.0648    0.0118    0.0000 H   0  0  0  0  0  0  0  0  0  0  0  0
  1 17  1  0  0  0  0
  1 24  1  0  0  0  0
  2 20  1  0  0  0  0
  2 25  1  0  0  0  0
  3 11  2  0  0  0  0
  4 22  1  0  0  0  0
  4 26  1  0  0  0  0
  5 22  2  0  0  0  0
  6  9  1  0  0  0  0
  6 13  1  0  0  0  0
  6 28  1  0  0  0  0
  7  8  1  0  0  0  0
  7 14  1  0  0  0  0
  7 29  1  0  0  0  0
  8 11  1  0  0  0  0
  8 15  1  0  0  0  0
  8 27  1  0  0  0  0
  9 10  2  0  0  0  0
  9 11  1  0  0  0  0
 10 12  1  0  0  0  0
 10 16  1  0  0  0  0
 12 13  2  0  0  0  0
 12 22  1  0  0  0  0
 13 19  1  0  0  0  0
 14 18  2  0  0  0  0
 14 21  1  0  0  0  0
 15 30  1  0  0  0  0
 15 31  1  0  0  0  0
 15 32  1  0  0  0  0
 16 33  1  0  0  0  0
 16 34  1  0  0  0  0
 16 35  1  0  0  0  0
 17 18  1  0  0  0  0
 17 20  2  0  0  0  0
 18 36  1  0  0  0  0
 19 37  1  0  0  0  0
 19 38  1  0  0  0  0
 19 39  1  0  0  0  0
 20 23  1  0  0  0  0
 21 23  2  0  0  0  0
 21 40  1  0  0  0  0
 23 41  1  0  0  0  0
 24 25  1  0  0  0  0
 24 42  1  0  0  0  0
 24 43  1  0  0  0  0
 25 44  1  0  0  0  0
 25 45  1  0  0  0  0
 26 46  1  0  0  0  0
 26 47  1  0  0  0  0
 26 48  1  0  0  0  0
M  END
> <PUBCHEM_COMPOUND_CID>
17396403

> <PUBCHEM_COMPOUND_CANONICALIZED>
1

> <PUBCHEM_CACTVS_COMPLEXITY>
528

> <PUBCHEM_CACTVS_HBOND_ACCEPTOR>
6

> <PUBCHEM_CACTVS_HBOND_DONOR>
2

> <PUBCHEM_CACTVS_ROTATABLE_BOND>
6

> <PUBCHEM_CACTVS_SUBSKEYS>
AAADceB7OAAAAAAAAAAAAAAAAAAAAWAAAAA0QAAAAAAAAACRwAAAHgAQAAAADCzhngYyzpLJlACoA6TyTACCiCAnIiAImaG+7NgNJnrE9buGOarm0BnK6Ue83+O+gEAAAgAAQAAAgAAEAACAAAAAAAAAAA==

> <PUBCHEM_IUPAC_OPENEYE_NAME>
methyl 5-[2-(2,3-dihydro-1,4-benzodioxin-6-ylamino)propanoyl]-2,4-dimethyl-1H-pyrrole-3-carboxylate

> <PUBCHEM_IUPAC_CAS_NAME>
5-[2-(2,3-dihydro-1,4-benzodioxin-6-ylamino)-1-oxopropyl]-2,4-dimethyl-1H-pyrrole-3-carboxylic acid methyl ester

> <PUBCHEM_IUPAC_NAME>
methyl 5-[2-(2,3-dihydro-1,4-benzodioxin-6-ylamino)propanoyl]-2,4-dimethyl-1H-pyrrole-3-carboxylate

> <PUBCHEM_IUPAC_SYSTEMATIC_NAME>
methyl 5-[2-(2,3-dihydro-1,4-benzodioxin-6-ylamino)propanoyl]-2,4-dimethyl-1H-pyrrole-3-carboxylate

> <PUBCHEM_IUPAC_TRADITIONAL_NAME>
5-[2-(2,3-dihydro-1,4-benzodioxin-6-ylamino)propanoyl]-2,4-dimethyl-1H-pyrrole-3-carboxylic acid methyl ester

> <PUBCHEM_IUPAC_INCHI>
InChI=1S/C19H22N2O5/c1-10-16(19(23)24-4)11(2)21-17(10)18(22)12(3)20-13-5-6-14-15(9-13)26-8-7-25-14/h5-6,9,12,20-21H,7-8H2,1-4H3

> <PUBCHEM_IUPAC_INCHIKEY>
NJLOKCFNQJPLFJ-UHFFFAOYSA-N

> <PUBCHEM_XLOGP3_AA>
3.2

> <PUBCHEM_EXACT_MASS>
358.152872

> <PUBCHEM_MOLECULAR_FORMULA>
C19H22N2O5

> <PUBCHEM_MOLECULAR_WEIGHT>
358.38838

> <PUBCHEM_OPENEYE_CAN_SMILES>
CC1=C(NC(=C1C(=O)OC)C)C(=O)C(C)NC2=CC3=C(C=C2)OCCO3

> <PUBCHEM_OPENEYE_ISO_SMILES>
CC1=C(NC(=C1C(=O)OC)C)C(=O)C(C)NC2=CC3=C(C=C2)OCCO3

> <PUBCHEM_CACTVS_TPSA>
89.6

> <PUBCHEM_MONOISOTOPIC_WEIGHT>
358.152872

> <PUBCHEM_TOTAL_CHARGE>
0

> <PUBCHEM_HEAVY_ATOM_COUNT>
26

> <PUBCHEM_ATOM_DEF_STEREO_COUNT>
0

> <PUBCHEM_ATOM_UDEF_STEREO_COUNT>
1

> <PUBCHEM_BOND_DEF_STEREO_COUNT>
0

> <PUBCHEM_BOND_UDEF_STEREO_COUNT>
0

> <PUBCHEM_ISOTOPIC_ATOM_COUNT>
0

> <PUBCHEM_COMPONENT_COUNT>
1

> <PUBCHEM_CACTVS_TAUTO_COUNT>
71

> <PUBCHEM_COORDINATE_TYPE>
1
5
255

> <PUBCHEM_BONDANNOTATIONS>
10  12  8
12  13  8
14  18  8
14  21  8
17  18  8
17  20  8
20  23  8
21  23  8
6  13  8
6  9  8
8  15  3
9  10  8

$$$$

