5859
  -OEChem-07051213123D

 35 35  0     0  0  0  0  0  0999 V2000
   -3.5722   -0.2252   -0.6061 S   0  0  0  0  0  0  0  0  0  0  0  0
    3.0447   -0.4883    2.2069 S   0  0  0  0  0  0  0  0  0  0  0  0
    3.3489   -0.1039    0.3192 P   0  0  0  0  0  0  0  0  0  0  0  0
    2.2332    0.7979   -0.4362 O   0  0  0  0  0  0  0  0  0  0  0  0
   -4.2117    0.8907   -1.2947 O   0  0  0  0  0  0  0  0  0  0  0  0
   -3.7829   -1.5732   -1.1225 O   0  0  0  0  0  0  0  0  0  0  0  0
    4.7072    0.7249   -0.0279 O   0  0  0  0  0  0  0  0  0  0  0  0
    3.4967   -1.3741   -0.6868 O   0  0  0  0  0  0  0  0  0  0  0  0
   -4.0333   -0.1885    1.0611 N   0  0  0  0  0  0  0  0  0  0  0  0
   -1.8531    0.0772   -0.5573 C   0  0  0  0  0  0  0  0  0  0  0  0
   -0.9595   -0.9889   -0.4547 C   0  0  0  0  0  0  0  0  0  0  0  0
   -1.3734    1.3857   -0.6192 C   0  0  0  0  0  0  0  0  0  0  0  0
    0.8857    0.5604   -0.4764 C   0  0  0  0  0  0  0  0  0  0  0  0
    0.4136   -0.7466   -0.4139 C   0  0  0  0  0  0  0  0  0  0  0  0
   -0.0003    1.6279   -0.5787 C   0  0  0  0  0  0  0  0  0  0  0  0
   -3.3970   -1.1742    1.9716 C   0  0  0  0  0  0  0  0  0  0  0  0
   -4.1850    1.1425    1.7019 C   0  0  0  0  0  0  0  0  0  0  0  0
    4.8361    2.0743    0.3875 C   0  0  0  0  0  0  0  0  0  0  0  0
    4.4024   -2.4186   -0.3739 C   0  0  0  0  0  0  0  0  0  0  0  0
   -1.3106   -2.0156   -0.4017 H   0  0  0  0  0  0  0  0  0  0  0  0
   -2.0513    2.2315   -0.6926 H   0  0  0  0  0  0  0  0  0  0  0  0
    1.0768   -1.6004   -0.3405 H   0  0  0  0  0  0  0  0  0  0  0  0
    0.3692    2.6484   -0.6253 H   0  0  0  0  0  0  0  0  0  0  0  0
   -3.3178   -2.1518    1.4883 H   0  0  0  0  0  0  0  0  0  0  0  0
   -4.0210   -1.3038    2.8616 H   0  0  0  0  0  0  0  0  0  0  0  0
   -2.4047   -0.8361    2.2826 H   0  0  0  0  0  0  0  0  0  0  0  0
   -3.2084    1.6002    1.8813 H   0  0  0  0  0  0  0  0  0  0  0  0
   -4.7052    1.0352    2.6591 H   0  0  0  0  0  0  0  0  0  0  0  0
   -4.7924    1.8031    1.0775 H   0  0  0  0  0  0  0  0  0  0  0  0
    5.7955    2.4577    0.0315 H   0  0  0  0  0  0  0  0  0  0  0  0
    4.8132    2.1379    1.4780 H   0  0  0  0  0  0  0  0  0  0  0  0
    4.0332    2.6807   -0.0390 H   0  0  0  0  0  0  0  0  0  0  0  0
    4.5738   -3.0127   -1.2749 H   0  0  0  0  0  0  0  0  0  0  0  0
    3.9729   -3.0624    0.3975 H   0  0  0  0  0  0  0  0  0  0  0  0
    5.3568   -2.0087   -0.0326 H   0  0  0  0  0  0  0  0  0  0  0  0
  1  5  2  0  0  0  0
  1  6  2  0  0  0  0
  1  9  1  0  0  0  0
  1 10  1  0  0  0  0
  2  3  2  0  0  0  0
  3  4  1  0  0  0  0
  3  7  1  0  0  0  0
  3  8  1  0  0  0  0
  4 13  1  0  0  0  0
  7 18  1  0  0  0  0
  8 19  1  0  0  0  0
  9 16  1  0  0  0  0
  9 17  1  0  0  0  0
 10 11  2  0  0  0  0
 10 12  1  0  0  0  0
 11 14  1  0  0  0  0
 11 20  1  0  0  0  0
 12 15  2  0  0  0  0
 12 21  1  0  0  0  0
 13 14  2  0  0  0  0
 13 15  1  0  0  0  0
 14 22  1  0  0  0  0
 15 23  1  0  0  0  0
 16 24  1  0  0  0  0
 16 25  1  0  0  0  0
 16 26  1  0  0  0  0
 17 27  1  0  0  0  0
 17 28  1  0  0  0  0
 17 29  1  0  0  0  0
 18 30  1  0  0  0  0
 18 31  1  0  0  0  0
 18 32  1  0  0  0  0
 19 33  1  0  0  0  0
 19 34  1  0  0  0  0
 19 35  1  0  0  0  0
M  END
> <PUBCHEM_COMPOUND_CID>
5859

> <PUBCHEM_CONFORMER_RMSD>
0.8

> <PUBCHEM_CONFORMER_DIVERSEORDER>
1
22
19
15
28
17
24
16
7
11
21
4
6
8
25
18
5
9
3
13
14
27
10
26
20
2
23
12

> <PUBCHEM_MMFF94_PARTIAL_CHARGES>
23
1 1.45
10 -0.01
11 -0.15
12 -0.15
13 0.08
14 -0.15
15 -0.15
16 0.36
17 0.36
18 0.28
19 0.28
2 -0.68
20 0.15
21 0.15
22 0.15
23 0.15
3 1.49
4 -0.35
5 -0.65
6 -0.65
7 -0.55
8 -0.55
9 -0.85

> <PUBCHEM_EFFECTIVE_ROTOR_COUNT>
6

> <PUBCHEM_PHARMACOPHORE_FEATURES>
3
1 5 acceptor
1 6 acceptor
6 10 11 12 13 14 15 rings

> <PUBCHEM_HEAVY_ATOM_COUNT>
19

> <PUBCHEM_ATOM_DEF_STEREO_COUNT>
0

> <PUBCHEM_ATOM_UDEF_STEREO_COUNT>
0

> <PUBCHEM_BOND_DEF_STEREO_COUNT>
0

> <PUBCHEM_BOND_UDEF_STEREO_COUNT>
0

> <PUBCHEM_ISOTOPIC_ATOM_COUNT>
0

> <PUBCHEM_COMPONENT_COUNT>
1

> <PUBCHEM_CACTVS_TAUTO_COUNT>
1

> <PUBCHEM_CONFORMER_ID>
000016E300000001

> <PUBCHEM_MMFF94_ENERGY>
31.7303

> <PUBCHEM_FEATURE_SELFOVERLAP>
15.242

> <PUBCHEM_SHAPE_FINGERPRINT>
10366900 7 16732706021356281879
10912923 1 17603587421724239318
11132069 177 18336275603812366919
11552529 35 17605563145441145943
12107183 9 17681260376243027730
12596602 18 18411130312661045777
12633257 1 16298658481932959355
12670546 177 12751226000231651995
12670546 56 16877953753669185555
13533116 47 17385446552894982911
13583140 156 16988296286651394487
13675066 3 18202001023187864500
13760787 19 16343419604626205443
13955234 65 18334580140520196754
14252887 29 18343581833204708328
14289901 80 18187087256164127328
15209294 21 17749101223351382273
15375358 24 18059862727286190554
1813 80 17775277266139531020
19078846 21 16081369687380566274
20281475 54 18259990366022180062
20645477 70 18338809991178907174
23557571 272 17703520986165529676
23559900 14 18337117855947989654
239999 70 17989203746831120106
2838139 119 16444757271249468313
3286 77 17095819779510945006
5104073 3 18408324397467749386
633830 44 18202007658864987494
90127 26 18201721790126163924
9709674 26 18343867710275133654

> <PUBCHEM_SHAPE_MULTIPOLES>
368.23
10.76
1.95
1.63
2.76
0.11
-1.07
0.44
-1.94
1.7
0.16
-1.05
0.36
0.51

> <PUBCHEM_SHAPE_SELFOVERLAP>
700.188

> <PUBCHEM_SHAPE_VOLUME>
229.8

> <PUBCHEM_COORDINATE_TYPE>
2
5
10

$$$$

