225936
  -OEChem-07051212483D

 16 15  0     1  0  0  0  0  0999 V2000
   -0.7996    1.1911    0.7587 O   0  0  0  0  0  0  0  0  0  0  0  0
    0.8074   -1.1951    0.7526 O   0  0  0  0  0  0  0  0  0  0  0  0
   -0.6888    0.3479   -0.3861 C   0  0  1  0  0  0  0  0  0  0  0  0
    0.6821   -0.3426   -0.3840 C   0  0  1  0  0  0  0  0  0  0  0  0
   -1.8408   -0.6502   -0.3691 C   0  0  0  0  0  0  0  0  0  0  0  0
    1.8397    0.6489   -0.3721 C   0  0  0  0  0  0  0  0  0  0  0  0
   -0.7856    0.9805   -1.2765 H   0  0  0  0  0  0  0  0  0  0  0  0
    0.7611   -0.9741   -1.2767 H   0  0  0  0  0  0  0  0  0  0  0  0
   -1.8434   -1.2417    0.5527 H   0  0  0  0  0  0  0  0  0  0  0  0
   -1.7919   -1.3289   -1.2258 H   0  0  0  0  0  0  0  0  0  0  0  0
   -2.7992   -0.1203   -0.3991 H   0  0  0  0  0  0  0  0  0  0  0  0
    1.7608    1.3641   -1.1964 H   0  0  0  0  0  0  0  0  0  0  0  0
    1.8912    1.1972    0.5744 H   0  0  0  0  0  0  0  0  0  0  0  0
    2.7928    0.1167   -0.4688 H   0  0  0  0  0  0  0  0  0  0  0  0
   -0.2227    1.9606    0.6179 H   0  0  0  0  0  0  0  0  0  0  0  0
    1.6714   -1.6375    0.6946 H   0  0  0  0  0  0  0  0  0  0  0  0
  1  3  1  0  0  0  0
  1 15  1  0  0  0  0
  2  4  1  0  0  0  0
  2 16  1  0  0  0  0
  3  4  1  0  0  0  0
  3  5  1  0  0  0  0
  3  7  1  0  0  0  0
  4  6  1  0  0  0  0
  4  8  1  0  0  0  0
  5  9  1  0  0  0  0
  5 10  1  0  0  0  0
  5 11  1  0  0  0  0
  6 12  1  0  0  0  0
  6 13  1  0  0  0  0
  6 14  1  0  0  0  0
M  END
> <PUBCHEM_COMPOUND_CID>
225936

> <PUBCHEM_CONFORMER_RMSD>
0.4

> <PUBCHEM_CONFORMER_DIVERSEORDER>
3
2
1

> <PUBCHEM_MMFF94_PARTIAL_CHARGES>
6
1 -0.68
15 0.4
16 0.4
2 -0.68
3 0.28
4 0.28

> <PUBCHEM_EFFECTIVE_ROTOR_COUNT>
1

> <PUBCHEM_PHARMACOPHORE_FEATURES>
4
1 1 acceptor
1 1 donor
1 2 acceptor
1 2 donor

> <PUBCHEM_HEAVY_ATOM_COUNT>
6

> <PUBCHEM_ATOM_DEF_STEREO_COUNT>
2

> <PUBCHEM_ATOM_UDEF_STEREO_COUNT>
0

> <PUBCHEM_BOND_DEF_STEREO_COUNT>
0

> <PUBCHEM_BOND_UDEF_STEREO_COUNT>
0

> <PUBCHEM_ISOTOPIC_ATOM_COUNT>
0

> <PUBCHEM_COMPONENT_COUNT>
1

> <PUBCHEM_CACTVS_TAUTO_COUNT>
1

> <PUBCHEM_CONFORMER_ID>
0003729000000003

> <PUBCHEM_MMFF94_ENERGY>
7.5866

> <PUBCHEM_FEATURE_SELFOVERLAP>
20.302

> <PUBCHEM_SHAPE_FINGERPRINT>
139733 1 11167953471496930871
16714656 1 17603860057615991981
20096714 4 18191854824476378060
21015797 1 9295281742283800717
24536 1 17897172526803484645
29004967 10 17532643546997382727
5943 1 14503505432129044489

> <PUBCHEM_SHAPE_MULTIPOLES>
111.74
2.18
1.15
0.83
0
0
0.05
0
-0.36
0
0.28
0
0
-0.26

> <PUBCHEM_SHAPE_SELFOVERLAP>
195.893

> <PUBCHEM_SHAPE_VOLUME>
74.6

> <PUBCHEM_COORDINATE_TYPE>
2
5
10

$$$$

