583058
  -OEChem-06241222442D

 41 42  0     1  0  0  0  0  0999 V2000
    4.5981   -0.3660    0.0000 O   0  0  0  0  0  0  0  0  0  0  0  0
    2.8660   -0.3660    0.0000 O   0  0  0  0  0  0  0  0  0  0  0  0
    2.0000    1.1340    0.0000 O   0  0  0  0  0  0  0  0  0  0  0  0
    3.7320    1.1340    0.0000 C   0  0  3  0  0  0  0  0  0  0  0  0
    3.7320   -1.8660    0.0000 C   0  0  0  0  0  0  0  0  0  0  0  0
    3.7320   -0.8660    0.0000 C   0  0  3  0  0  0  0  0  0  0  0  0
    4.5981    0.6340    0.0000 C   0  0  0  0  0  0  0  0  0  0  0  0
    4.2320    2.0000    0.0000 C   0  0  0  0  0  0  0  0  0  0  0  0
    2.8660    0.6340    0.0000 C   0  0  0  0  0  0  0  0  0  0  0  0
    3.2320    2.0000    0.0000 C   0  0  0  0  0  0  0  0  0  0  0  0
    3.7320   -2.8660    0.0000 C   0  0  0  0  0  0  0  0  0  0  0  0
    2.7320   -1.8660    0.0000 C   0  0  0  0  0  0  0  0  0  0  0  0
    4.7320   -1.8660    0.0000 C   0  0  0  0  0  0  0  0  0  0  0  0
    5.2320    2.0000    0.0000 C   0  0  0  0  0  0  0  0  0  0  0  0
    5.7320    1.1340    0.0000 C   0  0  0  0  0  0  0  0  0  0  0  0
    5.7320    2.8660    0.0000 C   0  0  0  0  0  0  0  0  0  0  0  0
    6.7320    1.1340    0.0000 C   0  0  0  0  0  0  0  0  0  0  0  0
    6.7320    2.8660    0.0000 C   0  0  0  0  0  0  0  0  0  0  0  0
    7.2320    2.0000    0.0000 C   0  0  0  0  0  0  0  0  0  0  0  0
    4.4682   -1.2910    0.0000 H   0  0  0  0  0  0  0  0  0  0  0  0
    5.2087    0.5263    0.0000 H   0  0  0  0  0  0  0  0  0  0  0  0
    4.8101    1.2166    0.0000 H   0  0  0  0  0  0  0  0  0  0  0  0
    4.3397    2.6106    0.0000 H   0  0  0  0  0  0  0  0  0  0  0  0
    3.6494    2.2120    0.0000 H   0  0  0  0  0  0  0  0  0  0  0  0
    3.7690    2.3100    0.0000 H   0  0  0  0  0  0  0  0  0  0  0  0
    2.9220    2.5369    0.0000 H   0  0  0  0  0  0  0  0  0  0  0  0
    2.6951    1.6900    0.0000 H   0  0  0  0  0  0  0  0  0  0  0  0
    3.1120   -2.8660    0.0000 H   0  0  0  0  0  0  0  0  0  0  0  0
    3.7320   -3.4860    0.0000 H   0  0  0  0  0  0  0  0  0  0  0  0
    4.3520   -2.8660    0.0000 H   0  0  0  0  0  0  0  0  0  0  0  0
    2.7320   -1.2460    0.0000 H   0  0  0  0  0  0  0  0  0  0  0  0
    2.1120   -1.8660    0.0000 H   0  0  0  0  0  0  0  0  0  0  0  0
    2.7320   -2.4860    0.0000 H   0  0  0  0  0  0  0  0  0  0  0  0
    4.7320   -2.4860    0.0000 H   0  0  0  0  0  0  0  0  0  0  0  0
    5.3520   -1.8660    0.0000 H   0  0  0  0  0  0  0  0  0  0  0  0
    4.7320   -1.2460    0.0000 H   0  0  0  0  0  0  0  0  0  0  0  0
    5.4220    0.5970    0.0000 H   0  0  0  0  0  0  0  0  0  0  0  0
    5.4220    3.4030    0.0000 H   0  0  0  0  0  0  0  0  0  0  0  0
    7.0420    0.5970    0.0000 H   0  0  0  0  0  0  0  0  0  0  0  0
    7.0420    3.4030    0.0000 H   0  0  0  0  0  0  0  0  0  0  0  0
    7.8520    2.0000    0.0000 H   0  0  0  0  0  0  0  0  0  0  0  0
  1  6  1  0  0  0  0
  1  7  1  0  0  0  0
  2  6  1  0  0  0  0
  2  9  1  0  0  0  0
  3  9  2  0  0  0  0
  4  7  1  0  0  0  0
  4  8  1  0  0  0  0
  4  9  1  0  0  0  0
  4 10  1  0  0  0  0
  5  6  1  0  0  0  0
  5 11  1  0  0  0  0
  5 12  1  0  0  0  0
  5 13  1  0  0  0  0
  6 20  1  0  0  0  0
  7 21  1  0  0  0  0
  7 22  1  0  0  0  0
  8 14  1  0  0  0  0
  8 23  1  0  0  0  0
  8 24  1  0  0  0  0
 10 25  1  0  0  0  0
 10 26  1  0  0  0  0
 10 27  1  0  0  0  0
 11 28  1  0  0  0  0
 11 29  1  0  0  0  0
 11 30  1  0  0  0  0
 12 31  1  0  0  0  0
 12 32  1  0  0  0  0
 12 33  1  0  0  0  0
 13 34  1  0  0  0  0
 13 35  1  0  0  0  0
 13 36  1  0  0  0  0
 14 15  2  0  0  0  0
 14 16  1  0  0  0  0
 15 17  1  0  0  0  0
 15 37  1  0  0  0  0
 16 18  2  0  0  0  0
 16 38  1  0  0  0  0
 17 19  2  0  0  0  0
 17 39  1  0  0  0  0
 18 19  1  0  0  0  0
 18 40  1  0  0  0  0
 19 41  1  0  0  0  0
M  END
> <PUBCHEM_COMPOUND_CID>
583058

> <PUBCHEM_COMPOUND_CANONICALIZED>
1

> <PUBCHEM_CACTVS_COMPLEXITY>
325

> <PUBCHEM_CACTVS_HBOND_ACCEPTOR>
3

> <PUBCHEM_CACTVS_HBOND_DONOR>
0

> <PUBCHEM_CACTVS_ROTATABLE_BOND>
3

> <PUBCHEM_CACTVS_SUBSKEYS>
AAADceB4MAAAAAAAAAAAAAAAAAAAAAAAAAA0QAAAAAAAAAABAAAAGgAAAAAADgCwmAMyCIAABACIAiDSCAACAAAgAAAIiAEAAIgYIDaAERCiIAAloAAMiAeIyOCPAAAAAAAAAAAAAAAAAAAAAAAAAAAAAA==

> <PUBCHEM_IUPAC_OPENEYE_NAME>
5-benzyl-2-tert-butyl-5-methyl-1,3-dioxan-4-one

> <PUBCHEM_IUPAC_CAS_NAME>
2-tert-butyl-5-methyl-5-(phenylmethyl)-1,3-dioxan-4-one

> <PUBCHEM_IUPAC_NAME>
5-benzyl-2-tert-butyl-5-methyl-1,3-dioxan-4-one

> <PUBCHEM_IUPAC_SYSTEMATIC_NAME>
2-tert-butyl-5-methyl-5-(phenylmethyl)-1,3-dioxan-4-one

> <PUBCHEM_IUPAC_TRADITIONAL_NAME>
5-benzyl-2-tert-butyl-5-methyl-1,3-dioxan-4-one

> <PUBCHEM_IUPAC_INCHI>
InChI=1S/C16H22O3/c1-15(2,3)14-18-11-16(4,13(17)19-14)10-12-8-6-5-7-9-12/h5-9,14H,10-11H2,1-4H3

> <PUBCHEM_IUPAC_INCHIKEY>
VQSNQCQSOGEONI-UHFFFAOYSA-N

> <PUBCHEM_XLOGP3_AA>
3.9

> <PUBCHEM_EXACT_MASS>
262.156895

> <PUBCHEM_MOLECULAR_FORMULA>
C16H22O3

> <PUBCHEM_MOLECULAR_WEIGHT>
262.34408

> <PUBCHEM_OPENEYE_CAN_SMILES>
CC1(COC(OC1=O)C(C)(C)C)CC2=CC=CC=C2

> <PUBCHEM_OPENEYE_ISO_SMILES>
CC1(COC(OC1=O)C(C)(C)C)CC2=CC=CC=C2

> <PUBCHEM_CACTVS_TPSA>
35.5

> <PUBCHEM_MONOISOTOPIC_WEIGHT>
262.156895

> <PUBCHEM_TOTAL_CHARGE>
0

> <PUBCHEM_HEAVY_ATOM_COUNT>
19

> <PUBCHEM_ATOM_DEF_STEREO_COUNT>
0

> <PUBCHEM_ATOM_UDEF_STEREO_COUNT>
2

> <PUBCHEM_BOND_DEF_STEREO_COUNT>
0

> <PUBCHEM_BOND_UDEF_STEREO_COUNT>
0

> <PUBCHEM_ISOTOPIC_ATOM_COUNT>
0

> <PUBCHEM_COMPONENT_COUNT>
1

> <PUBCHEM_CACTVS_TAUTO_COUNT>
1

> <PUBCHEM_COORDINATE_TYPE>
1
5
255

> <PUBCHEM_BONDANNOTATIONS>
14  15  8
14  16  8
15  17  8
16  18  8
17  19  8
18  19  8
4  10  3
6  20  3

$$$$

