3081924
  -OEChem-07051213133D

 28 29  0     0  0  0  0  0  0999 V2000
   -1.3586   -3.1934   -0.0303 Br  0  0  0  0  0  0  0  0  0  0  0  0
    1.5292   -2.3961    0.0710 O   0  0  0  0  0  0  0  0  0  0  0  0
   -3.1032    1.7583   -0.6960 O   0  0  0  0  0  0  0  0  0  0  0  0
   -5.6668    1.5366   -0.4990 O   0  0  0  0  0  0  0  0  0  0  0  0
   -5.4469   -0.5325    0.4478 O   0  0  0  0  0  0  0  0  0  0  0  0
    1.4053   -0.0597    0.1176 N   0  0  0  0  0  0  0  0  0  0  0  0
    0.6187    1.0525    0.2704 N   0  0  0  0  0  0  0  0  0  0  0  0
   -2.7367   -0.3470    0.2606 N   0  0  0  0  0  0  0  0  0  0  0  0
    2.8115    0.2498    0.0206 C   0  0  0  0  0  0  0  0  0  0  0  0
   -1.3758   -0.3739    0.2224 C   0  0  0  0  0  0  0  0  0  0  0  0
    0.8709   -1.3555    0.0873 C   0  0  0  0  0  0  0  0  0  0  0  0
   -0.6259   -1.4714    0.1045 C   0  0  0  0  0  0  0  0  0  0  0  0
    3.6611   -0.5866   -0.7033 C   0  0  0  0  0  0  0  0  0  0  0  0
    3.3208    1.3856    0.6502 C   0  0  0  0  0  0  0  0  0  0  0  0
   -0.6580    0.8952    0.3217 C   0  0  0  0  0  0  0  0  0  0  0  0
    5.0203   -0.2874   -0.7975 C   0  0  0  0  0  0  0  0  0  0  0  0
    4.6799    1.6847    0.5559 C   0  0  0  0  0  0  0  0  0  0  0  0
    5.5296    0.8482   -0.1680 C   0  0  0  0  0  0  0  0  0  0  0  0
   -3.4940    0.7129   -0.1991 C   0  0  0  0  0  0  0  0  0  0  0  0
   -4.9814    0.4798   -0.0366 C   0  0  0  0  0  0  0  0  0  0  0  0
   -1.2387    1.8026    0.5329 H   0  0  0  0  0  0  0  0  0  0  0  0
    3.2972   -1.4573   -1.2393 H   0  0  0  0  0  0  0  0  0  0  0  0
    2.6899    2.0500    1.2343 H   0  0  0  0  0  0  0  0  0  0  0  0
   -3.2121   -1.2250    0.4551 H   0  0  0  0  0  0  0  0  0  0  0  0
    5.6808   -0.9336   -1.3684 H   0  0  0  0  0  0  0  0  0  0  0  0
    5.0776    2.5672    1.0484 H   0  0  0  0  0  0  0  0  0  0  0  0
    6.5875    1.0820   -0.2425 H   0  0  0  0  0  0  0  0  0  0  0  0
   -6.6364    1.4184   -0.4086 H   0  0  0  0  0  0  0  0  0  0  0  0
  1 12  1  0  0  0  0
  2 11  2  0  0  0  0
  3 19  2  0  0  0  0
  4 20  1  0  0  0  0
  4 28  1  0  0  0  0
  5 20  2  0  0  0  0
  6  7  1  0  0  0  0
  6  9  1  0  0  0  0
  6 11  1  0  0  0  0
  7 15  2  0  0  0  0
  8 10  1  0  0  0  0
  8 19  1  0  0  0  0
  8 24  1  0  0  0  0
  9 13  2  0  0  0  0
  9 14  1  0  0  0  0
 10 12  2  0  0  0  0
 10 15  1  0  0  0  0
 11 12  1  0  0  0  0
 13 16  1  0  0  0  0
 13 22  1  0  0  0  0
 14 17  2  0  0  0  0
 14 23  1  0  0  0  0
 15 21  1  0  0  0  0
 16 18  2  0  0  0  0
 16 25  1  0  0  0  0
 17 18  1  0  0  0  0
 17 26  1  0  0  0  0
 18 27  1  0  0  0  0
 19 20  1  0  0  0  0
M  END
> <PUBCHEM_COMPOUND_CID>
3081924

> <PUBCHEM_CONFORMER_RMSD>
0.6

> <PUBCHEM_CONFORMER_DIVERSEORDER>
1
3
4
2

> <PUBCHEM_MMFF94_PARTIAL_CHARGES>
28
1 -0.11
10 0.12
11 0.62
12 0.12
13 -0.15
14 -0.15
15 0.38
16 -0.15
17 -0.15
18 -0.15
19 0.63
2 -0.57
20 0.72
21 0.06
22 0.15
23 0.15
24 0.37
25 0.15
26 0.15
27 0.15
28 0.5
3 -0.57
4 -0.65
5 -0.57
6 -0.11
7 -0.51
8 -0.54
9 0.12

> <PUBCHEM_EFFECTIVE_ROTOR_COUNT>
4

> <PUBCHEM_PHARMACOPHORE_FEATURES>
10
1 1 hydrophobe
1 2 acceptor
1 3 acceptor
1 4 acceptor
1 5 acceptor
1 7 acceptor
1 8 donor
3 4 5 20 anion
6 6 7 10 11 12 15 rings
6 9 13 14 16 17 18 rings

> <PUBCHEM_HEAVY_ATOM_COUNT>
20

> <PUBCHEM_ATOM_DEF_STEREO_COUNT>
0

> <PUBCHEM_ATOM_UDEF_STEREO_COUNT>
0

> <PUBCHEM_BOND_DEF_STEREO_COUNT>
0

> <PUBCHEM_BOND_UDEF_STEREO_COUNT>
0

> <PUBCHEM_ISOTOPIC_ATOM_COUNT>
0

> <PUBCHEM_COMPONENT_COUNT>
1

> <PUBCHEM_CACTVS_TAUTO_COUNT>
3

> <PUBCHEM_CONFORMER_ID>
002F06C400000001

> <PUBCHEM_MMFF94_ENERGY>
68.0089

> <PUBCHEM_FEATURE_SELFOVERLAP>
50.811

> <PUBCHEM_SHAPE_FINGERPRINT>
10014705 185 18337953389921213736
10411042 1 17474950926401286003
11578080 2 16445332061841915082
11796584 16 5039946343139511509
12236239 1 17203610376317880408
12403259 415 18410015433376987993
12596602 18 15697710437458707420
12730499 353 18409722984690153867
12916748 109 18411697690367273160
12969540 114 18340220651648813645
13081056 2 18409729564595745588
13533116 47 17676202511756085918
13544592 145 18335132107915025646
14528608 73 18334861623248013301
14790565 3 18263639722683084481
14911166 2 18333729122023818372
15099037 51 18409165498145830724
15196674 1 18336546019464736850
200 152 16515399681820403848
20602899 9 15719389512481598631
20645477 56 18411982429529392380
20645477 70 17676197009918772078
21033648 29 18337121106727212001
21236236 1 18262800649509231903
21279426 13 18263359372950628876
21521239 73 17749396970319892655
221357 26 18040436624281946992
22182313 1 18265027215899631103
22224240 67 18410567376320623643
23227448 37 18337954471983947341
23402539 116 18334581222055350821
23402655 69 18187649136939678277
23536379 177 16008743628181749121
23559900 14 18260545603132092376
2916195 48 18335988588196280889
293599 30 18411418418940569029
3004659 81 18341890832024973022
335352 9 18409447003867983222
34934 24 18410859837238173042
3545911 37 18335416847019499080
3759504 43 17988639666610820939
4072396 5 18340780324837697474
474229 33 18412262826870329339
495365 180 17313394383779979650
4990 188 17967529094812161582
5104073 3 18200871907094218865
9709674 26 18188202114243081446

> <PUBCHEM_SHAPE_MULTIPOLES>
379.11
12.13
2.42
0.75
2.57
1.91
-0.03
-6.38
-1.34
1.01
0.03
-0.24
-0.06
0.97

> <PUBCHEM_SHAPE_SELFOVERLAP>
801.737

> <PUBCHEM_SHAPE_VOLUME>
213.8

> <PUBCHEM_COORDINATE_TYPE>
2
5
10

$$$$

