17395811
  -OEChem-06241222523D

 45 47  0     0  0  0  0  0  0999 V2000
    2.9673    0.2715   -1.8872 F   0  0  0  0  0  0  0  0  0  0  0  0
   -0.9321   -1.6424    0.8667 O   0  0  0  0  0  0  0  0  0  0  0  0
    2.2327   -2.7150    0.6281 O   0  0  0  0  0  0  0  0  0  0  0  0
   -3.3242    0.2836    0.1962 N   0  0  0  0  0  0  0  0  0  0  0  0
   -2.4614    1.6638    1.7097 N   0  0  0  0  0  0  0  0  0  0  0  0
   -2.2719   -2.2256   -0.9419 N   0  0  0  0  0  0  0  0  0  0  0  0
    1.1832   -1.3047   -0.8861 N   0  0  0  0  0  0  0  0  0  0  0  0
   -4.1609   -0.7471   -0.3762 C   0  0  0  0  0  0  0  0  0  0  0  0
   -2.3679    1.0061   -0.4703 C   0  0  0  0  0  0  0  0  0  0  0  0
   -3.3422    0.7125    1.4941 C   0  0  0  0  0  0  0  0  0  0  0  0
   -3.5455   -2.1389   -0.2800 C   0  0  0  0  0  0  0  0  0  0  0  0
   -1.8440    1.8606    0.4959 C   0  0  0  0  0  0  0  0  0  0  0  0
   -1.9296    0.9861   -1.7948 C   0  0  0  0  0  0  0  0  0  0  0  0
   -4.2644    0.1419    2.4976 C   0  0  0  0  0  0  0  0  0  0  0  0
   -0.8216    2.7551    0.1370 C   0  0  0  0  0  0  0  0  0  0  0  0
   -0.9113    1.8829   -2.1345 C   0  0  0  0  0  0  0  0  0  0  0  0
   -0.3659    2.7525   -1.1873 C   0  0  0  0  0  0  0  0  0  0  0  0
   -1.0587   -1.9685   -0.3108 C   0  0  0  0  0  0  0  0  0  0  0  0
    0.1156   -2.1929   -1.2395 C   0  0  0  0  0  0  0  0  0  0  0  0
    2.1724   -1.6418    0.0340 C   0  0  0  0  0  0  0  0  0  0  0  0
    3.1950   -0.6003    0.3112 C   0  0  0  0  0  0  0  0  0  0  0  0
    3.5459    0.3177   -0.6787 C   0  0  0  0  0  0  0  0  0  0  0  0
    3.8042   -0.5413    1.5647 C   0  0  0  0  0  0  0  0  0  0  0  0
    4.5060    1.2948   -0.4148 C   0  0  0  0  0  0  0  0  0  0  0  0
    4.7642    0.4357    1.8283 C   0  0  0  0  0  0  0  0  0  0  0  0
    5.1152    1.3537    0.8386 C   0  0  0  0  0  0  0  0  0  0  0  0
   -4.3453   -0.4821   -1.4238 H   0  0  0  0  0  0  0  0  0  0  0  0
   -5.1347   -0.7254    0.1237 H   0  0  0  0  0  0  0  0  0  0  0  0
   -3.4166   -2.4314    0.7677 H   0  0  0  0  0  0  0  0  0  0  0  0
   -4.2089   -2.8700   -0.7535 H   0  0  0  0  0  0  0  0  0  0  0  0
   -2.3497    0.3155   -2.5356 H   0  0  0  0  0  0  0  0  0  0  0  0
   -4.0674    0.5751    3.4838 H   0  0  0  0  0  0  0  0  0  0  0  0
   -4.1400   -0.9415    2.5837 H   0  0  0  0  0  0  0  0  0  0  0  0
   -5.3058    0.3613    2.2429 H   0  0  0  0  0  0  0  0  0  0  0  0
   -2.2726   -2.4930   -1.9218 H   0  0  0  0  0  0  0  0  0  0  0  0
   -0.3904    3.4340    0.8656 H   0  0  0  0  0  0  0  0  0  0  0  0
   -0.5369    1.9017   -3.1550 H   0  0  0  0  0  0  0  0  0  0  0  0
    0.4257    3.4371   -1.4810 H   0  0  0  0  0  0  0  0  0  0  0  0
   -0.1576   -1.9824   -2.2776 H   0  0  0  0  0  0  0  0  0  0  0  0
    0.4377   -3.2353   -1.1542 H   0  0  0  0  0  0  0  0  0  0  0  0
    1.1758   -0.3789   -1.3032 H   0  0  0  0  0  0  0  0  0  0  0  0
    3.5405   -1.2447    2.3502 H   0  0  0  0  0  0  0  0  0  0  0  0
    4.7786    2.0098   -1.1855 H   0  0  0  0  0  0  0  0  0  0  0  0
    5.2376    0.4826    2.8047 H   0  0  0  0  0  0  0  0  0  0  0  0
    5.8623    2.1147    1.0440 H   0  0  0  0  0  0  0  0  0  0  0  0
  1 22  1  0  0  0  0
  2 18  2  0  0  0  0
  3 20  2  0  0  0  0
  4  8  1  0  0  0  0
  4  9  1  0  0  0  0
  4 10  1  0  0  0  0
  5 10  2  0  0  0  0
  5 12  1  0  0  0  0
  6 11  1  0  0  0  0
  6 18  1  0  0  0  0
  6 35  1  0  0  0  0
  7 19  1  0  0  0  0
  7 20  1  0  0  0  0
  7 41  1  0  0  0  0
  8 11  1  0  0  0  0
  8 27  1  0  0  0  0
  8 28  1  0  0  0  0
  9 12  1  0  0  0  0
  9 13  2  0  0  0  0
 10 14  1  0  0  0  0
 11 29  1  0  0  0  0
 11 30  1  0  0  0  0
 12 15  2  0  0  0  0
 13 16  1  0  0  0  0
 13 31  1  0  0  0  0
 14 32  1  0  0  0  0
 14 33  1  0  0  0  0
 14 34  1  0  0  0  0
 15 17  1  0  0  0  0
 15 36  1  0  0  0  0
 16 17  2  0  0  0  0
 16 37  1  0  0  0  0
 17 38  1  0  0  0  0
 18 19  1  0  0  0  0
 19 39  1  0  0  0  0
 19 40  1  0  0  0  0
 20 21  1  0  0  0  0
 21 22  1  0  0  0  0
 21 23  2  0  0  0  0
 22 24  2  0  0  0  0
 23 25  1  0  0  0  0
 23 42  1  0  0  0  0
 24 26  1  0  0  0  0
 24 43  1  0  0  0  0
 25 26  2  0  0  0  0
 25 44  1  0  0  0  0
 26 45  1  0  0  0  0
M  END
> <PUBCHEM_COMPOUND_CID>
17395811

> <PUBCHEM_CONFORMER_RMSD>
1.4

> <PUBCHEM_CONFORMER_DIVERSEORDER>
1
21
47
60
77
40
71
11
12
63
4
45
73
78
13
56
15
28
59
19
54
9
34
70
39
52
8
5
6
48
17
65
43
49
18
38
51
75
14
58
25
27
53
55
74
72
31
37
7
23
22
79
2
41
46
29
35
66
67
36
24
76
3
20
68
44
10
42
32
30
57
50
26
64
61
62
16
33
69

> <PUBCHEM_MMFF94_PARTIAL_CHARGES>
36
1 -0.19
10 0.01
11 0.3
12 0.23
13 -0.15
14 0.18
15 -0.15
16 -0.15
17 -0.15
18 0.57
19 0.36
2 -0.57
20 0.54
21 0.09
22 0.19
23 -0.15
24 -0.15
25 -0.15
26 -0.15
3 -0.57
31 0.15
35 0.37
36 0.15
37 0.15
38 0.15
4 0.05
41 0.37
42 0.15
43 0.15
44 0.15
45 0.15
5 -0.57
6 -0.73
7 -0.73
8 0.26
9 -0.15

> <PUBCHEM_EFFECTIVE_ROTOR_COUNT>
8

> <PUBCHEM_PHARMACOPHORE_FEATURES>
8
1 2 acceptor
1 3 acceptor
1 6 donor
1 7 donor
3 4 5 10 cation
5 4 5 9 10 12 rings
6 21 22 23 24 25 26 rings
6 9 12 13 15 16 17 rings

> <PUBCHEM_HEAVY_ATOM_COUNT>
26

> <PUBCHEM_ATOM_DEF_STEREO_COUNT>
0

> <PUBCHEM_ATOM_UDEF_STEREO_COUNT>
0

> <PUBCHEM_BOND_DEF_STEREO_COUNT>
0

> <PUBCHEM_BOND_UDEF_STEREO_COUNT>
0

> <PUBCHEM_ISOTOPIC_ATOM_COUNT>
0

> <PUBCHEM_COMPONENT_COUNT>
1

> <PUBCHEM_CACTVS_TAUTO_COUNT>
4

> <PUBCHEM_CONFORMER_ID>
0109706300000001

> <PUBCHEM_MMFF94_ENERGY>
48.3848

> <PUBCHEM_FEATURE_SELFOVERLAP>
40.702

> <PUBCHEM_SHAPE_FINGERPRINT>
10498660 4 18408608062808987918
10670039 82 18410569557947459292
107951 10 5978113491667206749
11595378 159 18060136561632249522
12173636 292 17967816106223379483
12403814 3 18202006533889432813
12422481 6 17771042068426774753
12553582 1 18271511040126015005
12633257 1 18333733498764779240
128993 33 17605838250970384596
13224815 77 18411141372154372332
13583140 156 17488192684652532194
14081887 123 18335144189199255460
14142880 1 18334299786060269677
14279260 333 16807273938871153030
14840074 17 18270667684801053565
15163728 17 14418953212019383411
20261772 1 18342173367357361292
20715895 44 17699311041847111509
21304303 282 15839057171515126045
21623110 236 18337392621590048593
21864079 5 17823982431715649760
22749437 52 18195825161291246900
23419403 2 17756181932268564925
3027735 51 11239731780955013745
392239 28 18335144142202847168
445580 44 17845951691898539756
469060 322 18272093742681165338
5265222 85 16323442191663227397
6287921 2 18043795683785797030
7064713 232 18261666047481364649
9925002 15 17029670729048789599

> <PUBCHEM_SHAPE_MULTIPOLES>
496.13
9.46
3.08
1.99
7.96
0.14
-0.4
-0.63
-4.41
-0.98
0.78
-0.76
-0.62
-0.46

> <PUBCHEM_SHAPE_SELFOVERLAP>
1071.648

> <PUBCHEM_SHAPE_VOLUME>
273.1

> <PUBCHEM_COORDINATE_TYPE>
2
5
10

$$$$

