2149
  -OEChem-07051212482D

 17 16  0     1  0  0  0  0  0999 V2000
    4.2690   -0.5950    0.0000 O   0  0  0  0  0  0  0  0  0  0  0  0
    6.8671    0.9050    0.0000 O   0  0  0  0  0  0  0  0  0  0  0  0
    6.0010   -0.5950    0.0000 O   0  0  0  0  0  0  0  0  0  0  0  0
    2.5369    0.4050    0.0000 N   0  0  0  0  0  0  0  0  0  0  0  0
    4.2690    0.4050    0.0000 C   0  0  3  0  0  0  0  0  0  0  0  0
    5.1350    0.9050    0.0000 C   0  0  0  0  0  0  0  0  0  0  0  0
    3.4030    0.9050    0.0000 C   0  0  0  0  0  0  0  0  0  0  0  0
    6.0010    0.4050    0.0000 C   0  0  0  0  0  0  0  0  0  0  0  0
    4.8059    0.0950    0.0000 H   0  0  0  0  0  0  0  0  0  0  0  0
    5.5335    1.3800    0.0000 H   0  0  0  0  0  0  0  0  0  0  0  0
    4.7365    1.3800    0.0000 H   0  0  0  0  0  0  0  0  0  0  0  0
    3.8015    1.3800    0.0000 H   0  0  0  0  0  0  0  0  0  0  0  0
    3.0044    1.3800    0.0000 H   0  0  0  0  0  0  0  0  0  0  0  0
    2.0000    0.7150    0.0000 H   0  0  0  0  0  0  0  0  0  0  0  0
    2.5369   -0.2150    0.0000 H   0  0  0  0  0  0  0  0  0  0  0  0
    3.7320   -0.9050    0.0000 H   0  0  0  0  0  0  0  0  0  0  0  0
    7.4040    0.5950    0.0000 H   0  0  0  0  0  0  0  0  0  0  0  0
  1  5  1  0  0  0  0
  1 16  1  0  0  0  0
  2  8  1  0  0  0  0
  2 17  1  0  0  0  0
  3  8  2  0  0  0  0
  4  7  1  0  0  0  0
  4 14  1  0  0  0  0
  4 15  1  0  0  0  0
  5  6  1  0  0  0  0
  5  7  1  0  0  0  0
  5  9  1  0  0  0  0
  6  8  1  0  0  0  0
  6 10  1  0  0  0  0
  6 11  1  0  0  0  0
  7 12  1  0  0  0  0
  7 13  1  0  0  0  0
M  END
> <PUBCHEM_COMPOUND_CID>
2149

> <PUBCHEM_COMPOUND_CANONICALIZED>
1

> <PUBCHEM_CACTVS_COMPLEXITY>
83.4

> <PUBCHEM_CACTVS_HBOND_ACCEPTOR>
4

> <PUBCHEM_CACTVS_HBOND_DONOR>
3

> <PUBCHEM_CACTVS_ROTATABLE_BOND>
3

> <PUBCHEM_CACTVS_SUBSKEYS>
AAADccBiMAAAAAAAAAAAAAAAAAAAAAAAAAAAAAAAAAAAAAAAAAAAHgAQCAAACBThgAYACABAAgAIAACQCAAAAAAAAAAAAIEAAAACEBQAgAAAQAAFMAAAAAAkAAAAAAAAAAAAAAAAAAAAAAAAAAAAAAAAAA==

> <PUBCHEM_IUPAC_OPENEYE_NAME>
4-amino-3-hydroxy-butanoic acid

> <PUBCHEM_IUPAC_CAS_NAME>
4-amino-3-hydroxybutanoic acid

> <PUBCHEM_IUPAC_NAME>
4-amino-3-hydroxybutanoic acid

> <PUBCHEM_IUPAC_SYSTEMATIC_NAME>
4-azanyl-3-oxidanyl-butanoic acid

> <PUBCHEM_IUPAC_TRADITIONAL_NAME>
4-amino-3-hydroxy-butyric acid

> <PUBCHEM_IUPAC_INCHI>
InChI=1S/C4H9NO3/c5-2-3(6)1-4(7)8/h3,6H,1-2,5H2,(H,7,8)

> <PUBCHEM_IUPAC_INCHIKEY>
YQGDEPYYFWUPGO-UHFFFAOYSA-N

> <PUBCHEM_XLOGP3_AA>
-4.1

> <PUBCHEM_EXACT_MASS>
119.058243

> <PUBCHEM_MOLECULAR_FORMULA>
C4H9NO3

> <PUBCHEM_MOLECULAR_WEIGHT>
119.11916

> <PUBCHEM_OPENEYE_CAN_SMILES>
C(C(CN)O)C(=O)O

> <PUBCHEM_OPENEYE_ISO_SMILES>
C(C(CN)O)C(=O)O

> <PUBCHEM_CACTVS_TPSA>
83.6

> <PUBCHEM_MONOISOTOPIC_WEIGHT>
119.058243

> <PUBCHEM_TOTAL_CHARGE>
0

> <PUBCHEM_HEAVY_ATOM_COUNT>
8

> <PUBCHEM_ATOM_DEF_STEREO_COUNT>
0

> <PUBCHEM_ATOM_UDEF_STEREO_COUNT>
1

> <PUBCHEM_BOND_DEF_STEREO_COUNT>
0

> <PUBCHEM_BOND_UDEF_STEREO_COUNT>
0

> <PUBCHEM_ISOTOPIC_ATOM_COUNT>
0

> <PUBCHEM_COMPONENT_COUNT>
1

> <PUBCHEM_CACTVS_TAUTO_COUNT>
1

> <PUBCHEM_COORDINATE_TYPE>
1
5
255

> <PUBCHEM_BONDANNOTATIONS>
5  1  3

$$$$

