443387
  -OEChem-07051213023D

 50 53  0     1  0  0  0  0  0999 V2000
   -0.9884   -0.3890   -1.6805 S   0  0  0  0  0  0  0  0  0  0  0  0
   -1.8373    1.4240    2.2443 O   0  0  0  0  0  0  0  0  0  0  0  0
    0.3824   -0.1769    1.3716 O   0  0  0  0  0  0  0  0  0  0  0  0
   -4.5167   -2.2661    0.8752 O   0  0  0  0  0  0  0  0  0  0  0  0
   -5.0346   -0.0505    0.7373 O   0  0  0  0  0  0  0  0  0  0  0  0
   -2.5375    0.6211    0.1383 N   0  0  0  0  0  0  0  0  0  0  0  0
    0.4433    1.7382    0.0142 N   0  0  0  0  0  0  0  0  0  0  0  0
    2.6919    1.7635   -0.4536 N   0  0  0  0  0  0  0  0  0  0  0  0
   -1.8212    1.1108   -1.0432 C   0  0  1  0  0  0  0  0  0  0  0  0
   -1.0066    2.0052   -0.0986 C   0  0  1  0  0  0  0  0  0  0  0  0
   -2.7876   -0.8000    0.2701 C   0  0  2  0  0  0  0  0  0  0  0  0
   -2.3724   -1.4689   -1.0579 C   0  0  0  0  0  0  0  0  0  0  0  0
   -1.8479    1.3852    1.0348 C   0  0  0  0  0  0  0  0  0  0  0  0
    1.4700    2.5725   -0.5727 C   0  0  0  0  0  0  0  0  0  0  0  0
    0.9834    0.6819    0.7428 C   0  0  0  0  0  0  0  0  0  0  0  0
    2.4859    0.8083    0.6418 C   0  0  1  0  0  0  0  0  0  0  0  0
   -3.4709   -1.4933   -2.1295 C   0  0  0  0  0  0  0  0  0  0  0  0
   -1.8348   -2.8823   -0.8263 C   0  0  0  0  0  0  0  0  0  0  0  0
   -4.2260   -0.9622    0.6455 C   0  0  0  0  0  0  0  0  0  0  0  0
    1.2255    2.8430   -2.0591 C   0  0  0  0  0  0  0  0  0  0  0  0
    1.6278    3.8885    0.2000 C   0  0  0  0  0  0  0  0  0  0  0  0
    3.1827   -0.5063    0.3957 C   0  0  0  0  0  0  0  0  0  0  0  0
    3.6012   -1.2911    1.4730 C   0  0  0  0  0  0  0  0  0  0  0  0
    3.4124   -0.9451   -0.9107 C   0  0  0  0  0  0  0  0  0  0  0  0
    4.2455   -2.5072    1.2455 C   0  0  0  0  0  0  0  0  0  0  0  0
    4.0567   -2.1612   -1.1381 C   0  0  0  0  0  0  0  0  0  0  0  0
    4.4733   -2.9422   -0.0599 C   0  0  0  0  0  0  0  0  0  0  0  0
   -2.4737    1.6300   -1.7509 H   0  0  0  0  0  0  0  0  0  0  0  0
   -1.2176    3.0745   -0.2181 H   0  0  0  0  0  0  0  0  0  0  0  0
   -2.1832   -1.1608    1.1128 H   0  0  0  0  0  0  0  0  0  0  0  0
    2.8434    1.2605    1.5759 H   0  0  0  0  0  0  0  0  0  0  0  0
    3.5162    2.3378   -0.2867 H   0  0  0  0  0  0  0  0  0  0  0  0
   -4.2874   -2.1666   -1.8456 H   0  0  0  0  0  0  0  0  0  0  0  0
   -3.9089   -0.5029   -2.2972 H   0  0  0  0  0  0  0  0  0  0  0  0
   -3.0852   -1.8559   -3.0899 H   0  0  0  0  0  0  0  0  0  0  0  0
   -1.4525   -3.3237   -1.7543 H   0  0  0  0  0  0  0  0  0  0  0  0
   -1.0209   -2.8930   -0.0920 H   0  0  0  0  0  0  0  0  0  0  0  0
   -2.6199   -3.5482   -0.4528 H   0  0  0  0  0  0  0  0  0  0  0  0
    1.1274    1.9114   -2.6284 H   0  0  0  0  0  0  0  0  0  0  0  0
    0.3041    3.4157   -2.2132 H   0  0  0  0  0  0  0  0  0  0  0  0
    2.0486    3.4172   -2.5003 H   0  0  0  0  0  0  0  0  0  0  0  0
    2.4587    4.4859   -0.1925 H   0  0  0  0  0  0  0  0  0  0  0  0
    0.7198    4.4977    0.1298 H   0  0  0  0  0  0  0  0  0  0  0  0
    1.8142    3.7116    1.2659 H   0  0  0  0  0  0  0  0  0  0  0  0
   -5.4573   -2.3938    1.1223 H   0  0  0  0  0  0  0  0  0  0  0  0
    3.4279   -0.9641    2.4949 H   0  0  0  0  0  0  0  0  0  0  0  0
    3.0859   -0.3723   -1.7742 H   0  0  0  0  0  0  0  0  0  0  0  0
    4.5691   -3.1157    2.0849 H   0  0  0  0  0  0  0  0  0  0  0  0
    4.2302   -2.5025   -2.1544 H   0  0  0  0  0  0  0  0  0  0  0  0
    4.9738   -3.8896   -0.2371 H   0  0  0  0  0  0  0  0  0  0  0  0
  1  9  1  0  0  0  0
  1 12  1  0  0  0  0
  2 13  2  0  0  0  0
  3 15  2  0  0  0  0
  4 19  1  0  0  0  0
  4 45  1  0  0  0  0
  5 19  2  0  0  0  0
  6  9  1  0  0  0  0
  6 11  1  0  0  0  0
  6 13  1  0  0  0  0
  7 10  1  0  0  0  0
  7 14  1  0  0  0  0
  7 15  1  0  0  0  0
  8 14  1  0  0  0  0
  8 16  1  0  0  0  0
  8 32  1  0  0  0  0
  9 10  1  0  0  0  0
  9 28  1  0  0  0  0
 10 13  1  0  0  0  0
 10 29  1  0  0  0  0
 11 12  1  0  0  0  0
 11 19  1  0  0  0  0
 11 30  1  0  0  0  0
 12 17  1  0  0  0  0
 12 18  1  0  0  0  0
 14 20  1  0  0  0  0
 14 21  1  0  0  0  0
 15 16  1  0  0  0  0
 16 22  1  0  0  0  0
 16 31  1  0  0  0  0
 17 33  1  0  0  0  0
 17 34  1  0  0  0  0
 17 35  1  0  0  0  0
 18 36  1  0  0  0  0
 18 37  1  0  0  0  0
 18 38  1  0  0  0  0
 20 39  1  0  0  0  0
 20 40  1  0  0  0  0
 20 41  1  0  0  0  0
 21 42  1  0  0  0  0
 21 43  1  0  0  0  0
 21 44  1  0  0  0  0
 22 23  2  0  0  0  0
 22 24  1  0  0  0  0
 23 25  1  0  0  0  0
 23 46  1  0  0  0  0
 24 26  2  0  0  0  0
 24 47  1  0  0  0  0
 25 27  2  0  0  0  0
 25 48  1  0  0  0  0
 26 27  1  0  0  0  0
 26 49  1  0  0  0  0
 27 50  1  0  0  0  0
M  END
> <PUBCHEM_COMPOUND_CID>
443387

> <PUBCHEM_CONFORMER_RMSD>
0.8

> <PUBCHEM_CONFORMER_DIVERSEORDER>
1
2

> <PUBCHEM_MMFF94_PARTIAL_CHARGES>
30
1 -0.45
10 0.28
11 0.36
12 0.23
13 0.58
14 0.57
15 0.57
16 0.47
19 0.66
2 -0.57
22 -0.14
23 -0.15
24 -0.15
25 -0.15
26 -0.15
27 -0.15
3 -0.57
32 0.36
4 -0.65
45 0.5
46 0.15
47 0.15
48 0.15
49 0.15
5 -0.57
50 0.15
6 -0.59
7 -0.59
8 -0.9
9 0.44

> <PUBCHEM_EFFECTIVE_ROTOR_COUNT>
4.6

> <PUBCHEM_PHARMACOPHORE_FEATURES>
12
1 2 acceptor
1 3 acceptor
1 4 acceptor
1 5 acceptor
1 8 cation
1 8 donor
3 12 17 18 hydrophobe
3 14 20 21 hydrophobe
3 4 5 19 anion
5 7 8 14 15 16 rings
6 22 23 24 25 26 27 rings
7 1 6 9 10 11 12 13 rings

> <PUBCHEM_HEAVY_ATOM_COUNT>
27

> <PUBCHEM_ATOM_DEF_STEREO_COUNT>
4

> <PUBCHEM_ATOM_UDEF_STEREO_COUNT>
0

> <PUBCHEM_BOND_DEF_STEREO_COUNT>
0

> <PUBCHEM_BOND_UDEF_STEREO_COUNT>
0

> <PUBCHEM_ISOTOPIC_ATOM_COUNT>
0

> <PUBCHEM_COMPONENT_COUNT>
1

> <PUBCHEM_CACTVS_TAUTO_COUNT>
1

> <PUBCHEM_CONFORMER_ID>
0006C3FB00000001

> <PUBCHEM_MMFF94_ENERGY>
72.1064

> <PUBCHEM_FEATURE_SELFOVERLAP>
60.95

> <PUBCHEM_SHAPE_FINGERPRINT>
10928967 22 18340767160468412938
11135926 11 18268155249661379044
11578080 2 17972348177501146929
12107183 9 18336816607094965809
12422481 6 17825641569556721315
12553582 1 18410016558990625214
12623949 98 17341793544902382675
12633257 1 16081381755911743618
12788726 201 17387387113476701657
13140716 1 18266181806514584576
13533116 47 18195807367627270707
13911987 19 17200477821068225492
14251764 38 8069214114570628411
14863182 85 17981887445841332916
17349148 13 17749108890015731437
17492 89 18410289173254722747
17818456 19 17968365840741974537
1813 80 18413107285964923582
20291156 8 18411702118858090590
20693207 138 17418092075177928779
20775530 9 18336271210309074166
21421861 104 18263075539883820208
235170 7 15122926513707989914
23559900 14 18413673495940953945
23566358 27 18268703914031009452
238 59 17773593806911693812
3027735 51 17471874952443314492
392239 28 17532959111846882408
463206 1 18339637820534612078
56633871 153 18114464556347960183
6992083 37 18262233460021890072
7097593 13 18335141938435880508
7808743 9 8356526437647627914
7970288 3 18270397325326890530

> <PUBCHEM_SHAPE_MULTIPOLES>
521.08
8.65
3.95
1.77
0.06
1.56
0.25
-8.38
-1.45
-2.5
0.73
0.49
-0.02
-0.94

> <PUBCHEM_SHAPE_SELFOVERLAP>
1114.722

> <PUBCHEM_SHAPE_VOLUME>
293.2

> <PUBCHEM_COORDINATE_TYPE>
2
5
10

$$$$

