20055020
  -OEChem-07051212572D

 45 49  0     1  0  0  0  0  0999 V2000
    9.8676    2.5905    0.0000 O   0  0  0  0  0  0  0  0  0  0  0  0
    2.5369    1.4083    0.0000 O   0  0  0  0  0  0  0  0  0  0  0  0
    7.9146    0.0400    0.0000 N   0  0  3  0  0  0  0  0  0  0  0  0
    5.6588   -0.3942    0.0000 N   0  0  0  0  0  0  0  0  0  0  0  0
    7.9146    0.9083    0.0000 C   0  0  2  0  0  0  0  0  0  0  0  0
    7.9146   -1.6966    0.0000 C   0  0  1  0  0  0  0  0  0  0  0  0
    8.6666    1.3424    0.0000 C   0  0  3  0  0  0  0  0  0  0  0  0
    7.1627   -0.3942    0.0000 C   0  0  1  0  0  0  0  0  0  0  0  0
    7.1627   -1.2624    0.0000 C   0  0  0  0  0  0  0  0  0  0  0  0
    7.1627    1.3424    0.0000 C   0  0  0  0  0  0  0  0  0  0  0  0
    8.6666   -0.3942    0.0000 C   0  0  0  0  0  0  0  0  0  0  0  0
    8.6666   -1.2624    0.0000 C   0  0  0  0  0  0  0  0  0  0  0  0
    6.4108    0.0400    0.0000 C   0  0  0  0  0  0  0  0  0  0  0  0
    6.4108    0.9083    0.0000 C   0  0  0  0  0  0  0  0  0  0  0  0
    9.6274    1.6197    0.0000 C   0  0  0  0  0  0  0  0  0  0  0  0
    4.9069    0.9083    0.0000 C   0  0  0  0  0  0  0  0  0  0  0  0
    9.5326   -1.7624    0.0000 C   0  0  0  0  0  0  0  0  0  0  0  0
    4.9069    0.0400    0.0000 C   0  0  0  0  0  0  0  0  0  0  0  0
    4.1549    1.3424    0.0000 C   0  0  0  0  0  0  0  0  0  0  0  0
    9.5326   -2.7624    0.0000 C   0  0  0  0  0  0  0  0  0  0  0  0
    4.1549   -0.3942    0.0000 C   0  0  0  0  0  0  0  0  0  0  0  0
    3.4030    0.9083    0.0000 C   0  0  0  0  0  0  0  0  0  0  0  0
    3.4030    0.0400    0.0000 C   0  0  0  0  0  0  0  0  0  0  0  0
    7.9146    1.7583    0.0000 H   0  0  0  0  0  0  0  0  0  0  0  0
    7.9146   -2.5466    0.0000 H   0  0  0  0  0  0  0  0  0  0  0  0
    8.4238    1.9129    0.0000 H   0  0  0  0  0  0  0  0  0  0  0  0
    6.4931   -0.9177    0.0000 H   0  0  0  0  0  0  0  0  0  0  0  0
    6.5521   -1.1548    0.0000 H   0  0  0  0  0  0  0  0  0  0  0  0
    6.9506   -1.8450    0.0000 H   0  0  0  0  0  0  0  0  0  0  0  0
    7.5612    1.8173    0.0000 H   0  0  0  0  0  0  0  0  0  0  0  0
    6.7642    1.8173    0.0000 H   0  0  0  0  0  0  0  0  0  0  0  0
    9.2772   -0.5018    0.0000 H   0  0  0  0  0  0  0  0  0  0  0  0
    8.8786    0.1885    0.0000 H   0  0  0  0  0  0  0  0  0  0  0  0
    9.6933    1.0032    0.0000 H   0  0  0  0  0  0  0  0  0  0  0  0
   10.2459    1.5776    0.0000 H   0  0  0  0  0  0  0  0  0  0  0  0
    5.6588   -1.0142    0.0000 H   0  0  0  0  0  0  0  0  0  0  0  0
   10.0696   -1.4524    0.0000 H   0  0  0  0  0  0  0  0  0  0  0  0
   10.4632    2.7624    0.0000 H   0  0  0  0  0  0  0  0  0  0  0  0
    4.1549    1.9624    0.0000 H   0  0  0  0  0  0  0  0  0  0  0  0
    8.9126   -2.7624    0.0000 H   0  0  0  0  0  0  0  0  0  0  0  0
    9.5326   -3.3824    0.0000 H   0  0  0  0  0  0  0  0  0  0  0  0
   10.1526   -2.7624    0.0000 H   0  0  0  0  0  0  0  0  0  0  0  0
    4.1549   -1.0142    0.0000 H   0  0  0  0  0  0  0  0  0  0  0  0
    2.8660   -0.2700    0.0000 H   0  0  0  0  0  0  0  0  0  0  0  0
    2.0000    1.0983    0.0000 H   0  0  0  0  0  0  0  0  0  0  0  0
  1 15  1  0  0  0  0
  1 38  1  0  0  0  0
  2 22  1  0  0  0  0
  2 45  1  0  0  0  0
  3  5  1  0  0  0  0
  3  8  1  0  0  0  0
  3 11  1  0  0  0  0
  4 13  1  0  0  0  0
  4 18  1  0  0  0  0
  4 36  1  0  0  0  0
  5  7  1  0  0  0  0
  5 10  1  0  0  0  0
  5 24  1  6  0  0  0
  6  7  1  0  0  0  0
  6  9  1  0  0  0  0
  6 12  1  0  0  0  0
  6 25  1  1  0  0  0
  7 15  1  0  0  0  0
  7 26  1  0  0  0  0
  8  9  1  0  0  0  0
  8 13  1  0  0  0  0
  8 27  1  6  0  0  0
  9 28  1  0  0  0  0
  9 29  1  0  0  0  0
 10 14  1  0  0  0  0
 10 30  1  0  0  0  0
 10 31  1  0  0  0  0
 11 12  1  0  0  0  0
 11 32  1  0  0  0  0
 11 33  1  0  0  0  0
 12 17  2  0  0  0  0
 13 14  2  0  0  0  0
 14 16  1  0  0  0  0
 15 34  1  0  0  0  0
 15 35  1  0  0  0  0
 16 18  2  0  0  0  0
 16 19  1  0  0  0  0
 17 20  1  0  0  0  0
 17 37  1  0  0  0  0
 18 21  1  0  0  0  0
 19 22  2  0  0  0  0
 19 39  1  0  0  0  0
 20 40  1  0  0  0  0
 20 41  1  0  0  0  0
 20 42  1  0  0  0  0
 21 23  2  0  0  0  0
 21 43  1  0  0  0  0
 22 23  1  0  0  0  0
 23 44  1  0  0  0  0
M  END
> <PUBCHEM_COMPOUND_CID>
20055020

> <PUBCHEM_COMPOUND_CANONICALIZED>
1

> <PUBCHEM_CACTVS_COMPLEXITY>
522

> <PUBCHEM_CACTVS_HBOND_ACCEPTOR>
3

> <PUBCHEM_CACTVS_HBOND_DONOR>
3

> <PUBCHEM_CACTVS_ROTATABLE_BOND>
1

> <PUBCHEM_CACTVS_SUBSKEYS>
AAADceB7MAAAAAAAAAAAAAAAAAAAAWAAAAA8WLFiAAAYAFgB8AAAHgAQCAAADSzhngYyxvPJkgCgAyRiRACCgCAhIiAImSA+bJgIduLCkZOUcAhm0BHI2Aew0PMOgEABAAACAAAAgAIAAAQAAAAAAAAAAA==

> <PUBCHEM_IUPAC_INCHI>
InChI=1S/C19H22N2O2/c1-2-10-8-21-17-7-14-13-5-11(23)3-4-16(13)20-19(14)18(21)6-12(10)15(17)9-22/h2-5,12,15,17-18,20,22-23H,6-9H2,1H3/b10-2-/t12-,15?,17-,18-/m0/s1

> <PUBCHEM_IUPAC_INCHIKEY>
VTVQHYQGTTVKDE-BZDYDHNVSA-N

> <PUBCHEM_XLOGP3_AA>
1.7

> <PUBCHEM_EXACT_MASS>
310.168128

> <PUBCHEM_MOLECULAR_FORMULA>
C19H22N2O2

> <PUBCHEM_MOLECULAR_WEIGHT>
310.39018

> <PUBCHEM_OPENEYE_CAN_SMILES>
CC=C1CN2C3CC1C(C2CC4=C3NC5=C4C=C(C=C5)O)CO

> <PUBCHEM_OPENEYE_ISO_SMILES>
C/C=C\1/CN2[C@H]3C[C@@H]1C([C@@H]2CC4=C3NC5=C4C=C(C=C5)O)CO

> <PUBCHEM_CACTVS_TPSA>
59.5

> <PUBCHEM_MONOISOTOPIC_WEIGHT>
310.168128

> <PUBCHEM_TOTAL_CHARGE>
0

> <PUBCHEM_HEAVY_ATOM_COUNT>
23

> <PUBCHEM_ATOM_DEF_STEREO_COUNT>
3

> <PUBCHEM_ATOM_UDEF_STEREO_COUNT>
1

> <PUBCHEM_BOND_DEF_STEREO_COUNT>
1

> <PUBCHEM_BOND_UDEF_STEREO_COUNT>
0

> <PUBCHEM_ISOTOPIC_ATOM_COUNT>
0

> <PUBCHEM_COMPONENT_COUNT>
1

> <PUBCHEM_CACTVS_TAUTO_COUNT>
9

> <PUBCHEM_COORDINATE_TYPE>
1
5
255

> <PUBCHEM_BONDANNOTATIONS>
13  14  8
14  16  8
16  18  8
16  19  8
18  21  8
19  22  8
21  23  8
22  23  8
4  13  8
4  18  8
5  24  6
6  25  5
7  15  3
8  27  6

$$$$

