46173777
  -OEChem-07051212563D

 48 52  0     1  0  0  0  0  0999 V2000
   -5.0755    0.6870   -0.7266 O   0  0  0  0  0  0  0  0  0  0  0  0
   -1.6225   -2.0318    1.6842 O   0  0  0  0  0  0  0  0  0  0  0  0
   -3.9486    1.5368    1.6788 O   0  0  0  0  0  0  0  0  0  0  0  0
   -1.6382   -2.5472   -1.2715 O   0  0  0  0  0  0  0  0  0  0  0  0
    2.2163   -2.0313   -0.1390 O   0  0  0  0  0  0  0  0  0  0  0  0
    6.4068    0.1635   -0.1878 O   0  0  0  0  0  0  0  0  0  0  0  0
   -1.5768    1.3983    0.0490 C   0  0  1  0  0  0  0  0  0  0  0  0
   -1.9483    0.2924    1.0822 C   0  0  2  0  0  0  0  0  0  0  0  0
   -0.0934    1.3581   -0.4916 C   0  0  0  0  0  0  0  0  0  0  0  0
   -3.7371    0.3399   -0.4167 C   0  0  2  0  0  0  0  0  0  0  0  0
   -1.3856   -1.0739    0.6565 C   0  0  1  0  0  0  0  0  0  0  0  0
   -3.4799    0.3305    1.0841 C   0  0  2  0  0  0  0  0  0  0  0  0
   -2.7422    1.3801   -0.9684 C   0  0  0  0  0  0  0  0  0  0  0  0
    0.7421    0.4277    0.4738 C   0  0  1  0  0  0  0  0  0  0  0  0
    0.1178   -0.9698    0.4343 C   0  0  0  0  0  0  0  0  0  0  0  0
   -3.4617   -1.0589   -0.9708 C   0  0  0  0  0  0  0  0  0  0  0  0
   -2.0949   -1.6130   -0.6073 C   0  0  0  0  0  0  0  0  0  0  0  0
    0.0373    0.8751   -1.9562 C   0  0  0  0  0  0  0  0  0  0  0  0
    0.3969    2.8264   -0.4939 C   0  0  0  0  0  0  0  0  0  0  0  0
    2.2544    0.3685    0.2902 C   0  0  0  0  0  0  0  0  0  0  0  0
    0.8814   -2.0425    0.1671 C   0  0  0  0  0  0  0  0  0  0  0  0
    2.8903   -0.8394   -0.0312 C   0  0  0  0  0  0  0  0  0  0  0  0
    3.0704    1.4843    0.5306 C   0  0  0  0  0  0  0  0  0  0  0  0
    4.2765   -0.9081   -0.2085 C   0  0  0  0  0  0  0  0  0  0  0  0
    4.4564    1.4202    0.3616 C   0  0  0  0  0  0  0  0  0  0  0  0
    5.0581    0.2271   -0.0230 C   0  0  0  0  0  0  0  0  0  0  0  0
   -1.6875    2.3418    0.6066 H   0  0  0  0  0  0  0  0  0  0  0  0
   -1.5805    0.5647    2.0806 H   0  0  0  0  0  0  0  0  0  0  0  0
   -3.9622   -0.5046    1.6000 H   0  0  0  0  0  0  0  0  0  0  0  0
   -3.2051    2.3742   -1.0140 H   0  0  0  0  0  0  0  0  0  0  0  0
   -2.4600    1.1350   -1.9938 H   0  0  0  0  0  0  0  0  0  0  0  0
    0.6146    0.7998    1.5019 H   0  0  0  0  0  0  0  0  0  0  0  0
   -4.2139   -1.7638   -0.5948 H   0  0  0  0  0  0  0  0  0  0  0  0
   -3.5540   -1.0527   -2.0638 H   0  0  0  0  0  0  0  0  0  0  0  0
    1.0893    0.7997   -2.2543 H   0  0  0  0  0  0  0  0  0  0  0  0
   -0.3075    3.4703   -1.0352 H   0  0  0  0  0  0  0  0  0  0  0  0
    1.3628    2.9389   -0.9960 H   0  0  0  0  0  0  0  0  0  0  0  0
    0.4823    3.2204    0.5247 H   0  0  0  0  0  0  0  0  0  0  0  0
   -0.4289    1.5806   -2.6534 H   0  0  0  0  0  0  0  0  0  0  0  0
   -0.4170   -0.1039   -2.1231 H   0  0  0  0  0  0  0  0  0  0  0  0
   -5.1511    0.7463   -1.6944 H   0  0  0  0  0  0  0  0  0  0  0  0
   -2.5784   -2.0871    1.8465 H   0  0  0  0  0  0  0  0  0  0  0  0
   -3.6716    1.5267    2.6108 H   0  0  0  0  0  0  0  0  0  0  0  0
    0.5073   -3.0565    0.1206 H   0  0  0  0  0  0  0  0  0  0  0  0
    2.6437    2.4222    0.8726 H   0  0  0  0  0  0  0  0  0  0  0  0
    4.7402   -1.8562   -0.4708 H   0  0  0  0  0  0  0  0  0  0  0  0
    5.0595    2.3061    0.5418 H   0  0  0  0  0  0  0  0  0  0  0  0
    6.6503   -0.7411   -0.4497 H   0  0  0  0  0  0  0  0  0  0  0  0
  1 10  1  0  0  0  0
  1 41  1  0  0  0  0
  2 11  1  0  0  0  0
  2 42  1  0  0  0  0
  3 12  1  0  0  0  0
  3 43  1  0  0  0  0
  4 17  2  0  0  0  0
  5 21  1  0  0  0  0
  5 22  1  0  0  0  0
  6 26  1  0  0  0  0
  6 48  1  0  0  0  0
  7  8  1  0  0  0  0
  7  9  1  0  0  0  0
  7 13  1  0  0  0  0
  7 27  1  0  0  0  0
  8 11  1  0  0  0  0
  8 12  1  0  0  0  0
  8 28  1  0  0  0  0
  9 14  1  0  0  0  0
  9 18  1  0  0  0  0
  9 19  1  0  0  0  0
 10 12  1  0  0  0  0
 10 13  1  0  0  0  0
 10 16  1  0  0  0  0
 11 15  1  0  0  0  0
 11 17  1  0  0  0  0
 12 29  1  0  0  0  0
 13 30  1  0  0  0  0
 13 31  1  0  0  0  0
 14 15  1  0  0  0  0
 14 20  1  0  0  0  0
 14 32  1  0  0  0  0
 15 21  2  0  0  0  0
 16 17  1  0  0  0  0
 16 33  1  0  0  0  0
 16 34  1  0  0  0  0
 18 35  1  0  0  0  0
 18 39  1  0  0  0  0
 18 40  1  0  0  0  0
 19 36  1  0  0  0  0
 19 37  1  0  0  0  0
 19 38  1  0  0  0  0
 20 22  2  0  0  0  0
 20 23  1  0  0  0  0
 21 44  1  0  0  0  0
 22 24  1  0  0  0  0
 23 25  2  0  0  0  0
 23 45  1  0  0  0  0
 24 26  2  0  0  0  0
 24 46  1  0  0  0  0
 25 26  1  0  0  0  0
 25 47  1  0  0  0  0
M  END
> <PUBCHEM_COMPOUND_CID>
46173777

> <PUBCHEM_CONFORMER_RMSD>
0.6

> <PUBCHEM_CONFORMER_DIVERSEORDER>
2
1

> <PUBCHEM_MMFF94_PARTIAL_CHARGES>
28
1 -0.68
10 0.28
11 0.48
12 0.28
14 0.28
15 -0.28
16 0.06
17 0.45
2 -0.68
20 -0.14
21 -0.07
22 0.08
23 -0.15
24 -0.15
25 -0.15
26 0.08
3 -0.68
4 -0.57
41 0.4
42 0.4
43 0.4
44 0.15
45 0.15
46 0.15
47 0.15
48 0.45
5 -0.16
6 -0.53

> <PUBCHEM_EFFECTIVE_ROTOR_COUNT>
1

> <PUBCHEM_PHARMACOPHORE_FEATURES>
14
1 1 acceptor
1 1 donor
1 2 acceptor
1 2 donor
1 3 acceptor
1 3 donor
1 4 acceptor
1 5 acceptor
1 6 donor
3 9 18 19 hydrophobe
6 20 22 23 24 25 26 rings
6 5 14 15 20 21 22 rings
6 7 8 9 11 14 15 rings
8 7 8 10 11 12 13 16 17 rings

> <PUBCHEM_HEAVY_ATOM_COUNT>
26

> <PUBCHEM_ATOM_DEF_STEREO_COUNT>
4

> <PUBCHEM_ATOM_UDEF_STEREO_COUNT>
2

> <PUBCHEM_BOND_DEF_STEREO_COUNT>
0

> <PUBCHEM_BOND_UDEF_STEREO_COUNT>
0

> <PUBCHEM_ISOTOPIC_ATOM_COUNT>
0

> <PUBCHEM_COMPONENT_COUNT>
1

> <PUBCHEM_CACTVS_TAUTO_COUNT>
6

> <PUBCHEM_CONFORMER_ID>
02C08E5100000002

> <PUBCHEM_MMFF94_ENERGY>
107.7459

> <PUBCHEM_FEATURE_SELFOVERLAP>
71.359

> <PUBCHEM_SHAPE_FINGERPRINT>
10366900 7 18335141999003441584
10863032 1 18040439875729899831
10948715 1 18041275569212902625
11132069 177 18342464716253012328
11315181 36 18187365403063566032
11578080 2 14563905132401788673
12011746 2 18412548721020351596
12236239 1 17676209091155437889
12403814 3 17846221085047734037
12633257 1 18335704991890503794
12788726 201 18341056332158094720
12969540 114 18130243634837656575
13140716 1 18198049292509198465
13224815 77 18343864403239862962
13402501 40 18413110558972875404
13583140 156 15698005102205747896
14790565 3 18192990650216776177
14955137 171 18270661100573945449
15163728 17 15432825064350437129
15196674 1 18338519642883794704
15788980 27 17418375783711511416
15848702 151 17967526917670002406
16945 1 18120098535474325731
17349148 13 18202008698515870812
17492 54 18197242363207732175
1813 80 17632853127364088260
200 152 17676490536109348194
21033648 29 18201451288817898225
21267235 1 18336824199900968119
22182313 1 17915737776670731749
23227448 37 18410295778650361679
23402539 116 18202287987739323686
23559900 14 18115317670102050240
238 59 16115461406324685013
296302 2 18333730221313906622
335352 9 18411141333235974940
34797466 226 16443343127133172928
34934 24 18343305893855455371
350125 39 18197768904649486251
3633792 109 18261966232100676909
4028521 119 18342464763165076991
404807 14 16016874731270384230
474 4 18341612594493319392
5104073 3 18410577241554320544
69090 78 18408044021902309195
9709674 26 18268994185142979178

> <PUBCHEM_SHAPE_MULTIPOLES>
499.85
9.34
2.38
1.26
8.6
0.23
0.03
-1.38
-0.07
-0.32
0.22
-1.12
-0.03
-0.09

> <PUBCHEM_SHAPE_SELFOVERLAP>
1126.25

> <PUBCHEM_SHAPE_VOLUME>
261.7

> <PUBCHEM_COORDINATE_TYPE>
2
5
10

$$$$

