7847053
  -OEChem-06241222482D

 51 53  0     0  0  0  0  0  0999 V2000
    5.4641    0.5000    0.0000 O   0  0  0  0  0  0  0  0  0  0  0  0
    7.1962    0.5000    0.0000 O   0  0  0  0  0  0  0  0  0  0  0  0
    3.7320   -0.5000    0.0000 O   0  0  0  0  0  0  0  0  0  0  0  0
    4.5981   -5.0000    0.0000 O   0  5  0  0  0  0  0  0  0  0  0  0
    5.4641   -3.5000    0.0000 O   0  0  0  0  0  0  0  0  0  0  0  0
    6.3301    4.0000    0.0000 N   0  0  0  0  0  0  0  0  0  0  0  0
    4.5981   -2.0000    0.0000 N   0  0  0  0  0  0  0  0  0  0  0  0
    4.5981   -4.0000    0.0000 N   0  3  0  0  0  0  0  0  0  0  0  0
    5.4641    2.5000    0.0000 C   0  0  0  0  0  0  0  0  0  0  0  0
    6.3301    2.0000    0.0000 C   0  0  0  0  0  0  0  0  0  0  0  0
    5.4641    3.5000    0.0000 C   0  0  0  0  0  0  0  0  0  0  0  0
    7.1962    2.5000    0.0000 C   0  0  0  0  0  0  0  0  0  0  0  0
    7.1962    3.5000    0.0000 C   0  0  0  0  0  0  0  0  0  0  0  0
    4.5981    4.0000    0.0000 C   0  0  0  0  0  0  0  0  0  0  0  0
    4.5981    2.0000    0.0000 C   0  0  0  0  0  0  0  0  0  0  0  0
    8.0901    1.9653    0.0000 C   0  0  0  0  0  0  0  0  0  0  0  0
    6.3301    1.0000    0.0000 C   0  0  0  0  0  0  0  0  0  0  0  0
    8.0901    4.0347    0.0000 C   0  0  0  0  0  0  0  0  0  0  0  0
    4.5981    5.0000    0.0000 C   0  0  0  0  0  0  0  0  0  0  0  0
    8.9962    2.4792    0.0000 C   0  0  0  0  0  0  0  0  0  0  0  0
    8.9962    3.5208    0.0000 C   0  0  0  0  0  0  0  0  0  0  0  0
    3.7320   -2.5000    0.0000 C   0  0  0  0  0  0  0  0  0  0  0  0
    2.8660   -2.0000    0.0000 C   0  0  0  0  0  0  0  0  0  0  0  0
    5.4641   -0.5000    0.0000 C   0  0  0  0  0  0  0  0  0  0  0  0
    3.7320   -3.5000    0.0000 C   0  0  0  0  0  0  0  0  0  0  0  0
    4.5981   -1.0000    0.0000 C   0  0  0  0  0  0  0  0  0  0  0  0
    2.0000   -2.5000    0.0000 C   0  0  0  0  0  0  0  0  0  0  0  0
    2.8660   -4.0000    0.0000 C   0  0  0  0  0  0  0  0  0  0  0  0
    2.8660   -1.0000    0.0000 C   0  0  0  0  0  0  0  0  0  0  0  0
    2.0000   -3.5000    0.0000 C   0  0  0  0  0  0  0  0  0  0  0  0
    3.9875    4.1077    0.0000 H   0  0  0  0  0  0  0  0  0  0  0  0
    4.3860    3.4174    0.0000 H   0  0  0  0  0  0  0  0  0  0  0  0
    4.2881    2.5369    0.0000 H   0  0  0  0  0  0  0  0  0  0  0  0
    4.0611    1.6900    0.0000 H   0  0  0  0  0  0  0  0  0  0  0  0
    4.9081    1.4631    0.0000 H   0  0  0  0  0  0  0  0  0  0  0  0
    8.0829    1.3454    0.0000 H   0  0  0  0  0  0  0  0  0  0  0  0
    8.0829    4.6546    0.0000 H   0  0  0  0  0  0  0  0  0  0  0  0
    5.2181    5.0000    0.0000 H   0  0  0  0  0  0  0  0  0  0  0  0
    4.5981    5.6200    0.0000 H   0  0  0  0  0  0  0  0  0  0  0  0
    3.9781    5.0000    0.0000 H   0  0  0  0  0  0  0  0  0  0  0  0
    9.5319    2.1671    0.0000 H   0  0  0  0  0  0  0  0  0  0  0  0
    9.5319    3.8329    0.0000 H   0  0  0  0  0  0  0  0  0  0  0  0
    5.6762   -1.0826    0.0000 H   0  0  0  0  0  0  0  0  0  0  0  0
    6.0747   -0.3923    0.0000 H   0  0  0  0  0  0  0  0  0  0  0  0
    5.1350   -2.3100    0.0000 H   0  0  0  0  0  0  0  0  0  0  0  0
    1.4631   -2.1900    0.0000 H   0  0  0  0  0  0  0  0  0  0  0  0
    2.8660   -4.6200    0.0000 H   0  0  0  0  0  0  0  0  0  0  0  0
    3.4860   -1.0000    0.0000 H   0  0  0  0  0  0  0  0  0  0  0  0
    2.8660   -0.3800    0.0000 H   0  0  0  0  0  0  0  0  0  0  0  0
    2.2460   -1.0000    0.0000 H   0  0  0  0  0  0  0  0  0  0  0  0
    1.4631   -3.8100    0.0000 H   0  0  0  0  0  0  0  0  0  0  0  0
  1 17  1  0  0  0  0
  1 24  1  0  0  0  0
  2 17  2  0  0  0  0
  3 26  2  0  0  0  0
  4  8  1  0  0  0  0
  5  8  2  0  0  0  0
  6 11  2  0  0  0  0
  6 13  1  0  0  0  0
  7 22  1  0  0  0  0
  7 26  1  0  0  0  0
  7 45  1  0  0  0  0
  8 25  1  0  0  0  0
  9 10  2  0  0  0  0
  9 11  1  0  0  0  0
  9 15  1  0  0  0  0
 10 12  1  0  0  0  0
 10 17  1  0  0  0  0
 11 14  1  0  0  0  0
 12 13  1  0  0  0  0
 12 16  2  0  0  0  0
 13 18  2  0  0  0  0
 14 19  1  0  0  0  0
 14 31  1  0  0  0  0
 14 32  1  0  0  0  0
 15 33  1  0  0  0  0
 15 34  1  0  0  0  0
 15 35  1  0  0  0  0
 16 20  1  0  0  0  0
 16 36  1  0  0  0  0
 18 21  1  0  0  0  0
 18 37  1  0  0  0  0
 19 38  1  0  0  0  0
 19 39  1  0  0  0  0
 19 40  1  0  0  0  0
 20 21  2  0  0  0  0
 20 41  1  0  0  0  0
 21 42  1  0  0  0  0
 22 23  2  0  0  0  0
 22 25  1  0  0  0  0
 23 27  1  0  0  0  0
 23 29  1  0  0  0  0
 24 26  1  0  0  0  0
 24 43  1  0  0  0  0
 24 44  1  0  0  0  0
 25 28  2  0  0  0  0
 27 30  2  0  0  0  0
 27 46  1  0  0  0  0
 28 30  1  0  0  0  0
 28 47  1  0  0  0  0
 29 48  1  0  0  0  0
 29 49  1  0  0  0  0
 29 50  1  0  0  0  0
 30 51  1  0  0  0  0
M  CHG  2   4  -1   8   1
M  END
> <PUBCHEM_COMPOUND_CID>
7847053

> <PUBCHEM_COMPOUND_CANONICALIZED>
1

> <PUBCHEM_CACTVS_COMPLEXITY>
637

> <PUBCHEM_CACTVS_HBOND_ACCEPTOR>
6

> <PUBCHEM_CACTVS_HBOND_DONOR>
1

> <PUBCHEM_CACTVS_ROTATABLE_BOND>
6

> <PUBCHEM_CACTVS_SUBSKEYS>
AAADceB7OAAAAAAAAAAAAAAAAAAAAAAAAAA8YIAAAAAAAACx9AAAHgAUAAAADAihngIyyPLYVACpAyXyXwKCgCAlAiAomCFwfNoKZvLAtZ2XMQhk1IHY6Qe8yOCOgAAAQAACACAAAACAAAQAQAAAAAAAAA==

> <PUBCHEM_IUPAC_OPENEYE_NAME>
[2-(2-methyl-6-nitro-anilino)-2-oxo-ethyl] 2-ethyl-3-methyl-quinoline-4-carboxylate

> <PUBCHEM_IUPAC_CAS_NAME>
2-ethyl-3-methyl-4-quinolinecarboxylic acid [2-(2-methyl-6-nitroanilino)-2-oxoethyl] ester

> <PUBCHEM_IUPAC_NAME>
[2-(2-methyl-6-nitroanilino)-2-oxoethyl] 2-ethyl-3-methylquinoline-4-carboxylate

> <PUBCHEM_IUPAC_SYSTEMATIC_NAME>
[2-[(2-methyl-6-nitro-phenyl)amino]-2-oxidanylidene-ethyl] 2-ethyl-3-methyl-quinoline-4-carboxylate

> <PUBCHEM_IUPAC_TRADITIONAL_NAME>
2-ethyl-3-methyl-cinchoninic acid [2-keto-2-(2-methyl-6-nitro-anilino)ethyl] ester

> <PUBCHEM_IUPAC_INCHI>
InChI=1S/C22H21N3O5/c1-4-16-14(3)20(15-9-5-6-10-17(15)23-16)22(27)30-12-19(26)24-21-13(2)8-7-11-18(21)25(28)29/h5-11H,4,12H2,1-3H3,(H,24,26)

> <PUBCHEM_IUPAC_INCHIKEY>
AFNMVSPMIIPCMY-UHFFFAOYSA-N

> <PUBCHEM_XLOGP3_AA>
4.9

> <PUBCHEM_EXACT_MASS>
407.148121

> <PUBCHEM_MOLECULAR_FORMULA>
C22H21N3O5

> <PUBCHEM_MOLECULAR_WEIGHT>
407.41924

> <PUBCHEM_OPENEYE_CAN_SMILES>
CCC1=NC2=CC=CC=C2C(=C1C)C(=O)OCC(=O)NC3=C(C=CC=C3[N+](=O)[O-])C

> <PUBCHEM_OPENEYE_ISO_SMILES>
CCC1=NC2=CC=CC=C2C(=C1C)C(=O)OCC(=O)NC3=C(C=CC=C3[N+](=O)[O-])C

> <PUBCHEM_CACTVS_TPSA>
114

> <PUBCHEM_MONOISOTOPIC_WEIGHT>
407.148121

> <PUBCHEM_TOTAL_CHARGE>
0

> <PUBCHEM_HEAVY_ATOM_COUNT>
30

> <PUBCHEM_ATOM_DEF_STEREO_COUNT>
0

> <PUBCHEM_ATOM_UDEF_STEREO_COUNT>
0

> <PUBCHEM_BOND_DEF_STEREO_COUNT>
0

> <PUBCHEM_BOND_UDEF_STEREO_COUNT>
0

> <PUBCHEM_ISOTOPIC_ATOM_COUNT>
0

> <PUBCHEM_COMPONENT_COUNT>
1

> <PUBCHEM_CACTVS_TAUTO_COUNT>
18

> <PUBCHEM_COORDINATE_TYPE>
1
5
255

> <PUBCHEM_BONDANNOTATIONS>
10  12  8
12  13  8
12  16  8
13  18  8
16  20  8
18  21  8
20  21  8
22  23  8
22  25  8
23  27  8
25  28  8
27  30  8
28  30  8
6  11  8
6  13  8
9  10  8
9  11  8

$$$$

