12784329
  -OEChem-07051213123D

111113  0     1  0  0  0  0  0999 V2000
    5.4164    0.0134    0.8279 O   0  0  0  0  0  0  0  0  0  0  0  0
    4.9051   -1.0571   -1.1812 O   0  0  0  0  0  0  0  0  0  0  0  0
    6.8044    2.0126   -0.6047 O   0  0  0  0  0  0  0  0  0  0  0  0
   -6.9130    1.2026   -0.1880 O   0  0  0  0  0  0  0  0  0  0  0  0
   -4.7470    0.3831    0.1821 O   0  0  0  0  0  0  0  0  0  0  0  0
   -8.2284   -2.3102   -1.7549 O   0  0  0  0  0  0  0  0  0  0  0  0
   -5.6453   -1.5885   -2.0368 O   0  0  0  0  0  0  0  0  0  0  0  0
   -7.7615    0.1300   -3.1746 O   0  0  0  0  0  0  0  0  0  0  0  0
   -0.7232    2.4298    1.8497 O   0  0  0  0  0  0  0  0  0  0  0  0
   -3.3466    1.3477    2.3831 O   0  0  0  0  0  0  0  0  0  0  0  0
    0.8474   -4.7445    2.2271 O   0  0  0  0  0  0  0  0  0  0  0  0
    0.7997    3.1068    0.2458 O   0  0  0  0  0  0  0  0  0  0  0  0
    7.8560    1.0888   -3.2238 N   0  0  0  0  0  0  0  0  0  0  0  0
    6.5338    0.7811   -2.6768 C   0  0  2  0  0  0  0  0  0  0  0  0
    6.5807    0.7108   -1.1444 C   0  0  2  0  0  0  0  0  0  0  0  0
    5.2557    0.1876   -0.5797 C   0  0  2  0  0  0  0  0  0  0  0  0
    4.2098   -0.4672    1.4316 C   0  0  1  0  0  0  0  0  0  0  0  0
    6.0352   -0.5442   -3.2581 C   0  0  0  0  0  0  0  0  0  0  0  0
    4.4761   -1.8758    2.0327 C   0  0  2  0  0  0  0  0  0  0  0  0
    4.7190   -0.9513   -2.5945 C   0  0  1  0  0  0  0  0  0  0  0  0
    3.6630    0.6057    2.4181 C   0  0  1  0  0  0  0  0  0  0  0  0
    3.1912   -2.6335    2.4429 C   0  0  0  0  0  0  0  0  0  0  0  0
    2.2287   -2.9854    1.2900 C   0  0  1  0  0  0  0  0  0  0  0  0
    5.4467   -1.8392    3.2194 C   0  0  0  0  0  0  0  0  0  0  0  0
    4.2444   -2.3055   -3.1034 C   0  0  0  0  0  0  0  0  0  0  0  0
   -7.8578   -1.0996   -1.1102 C   0  0  1  0  0  0  0  0  0  0  0  0
   -6.3368   -1.0381   -0.9142 C   0  0  2  0  0  0  0  0  0  0  0  0
   -8.3658    0.1220   -1.8771 C   0  0  1  0  0  0  0  0  0  0  0  0
   -5.8553    0.4068   -0.7151 C   0  0  1  0  0  0  0  0  0  0  0  0
   -7.9759    1.4176   -1.1347 C   0  0  1  0  0  0  0  0  0  0  0  0
    4.7421    1.4889    3.0554 C   0  0  0  0  0  0  0  0  0  0  0  0
    2.6897    1.5119    1.6876 C   0  0  0  0  0  0  0  0  0  0  0  0
    7.9324    0.6897   -4.6283 C   0  0  0  0  0  0  0  0  0  0  0  0
    8.1485    2.5140   -3.0797 C   0  0  0  0  0  0  0  0  0  0  0  0
   -2.7967    1.4462    1.0663 C   0  0  1  0  0  0  0  0  0  0  0  0
    2.8285   -3.9869    0.3045 C   0  0  0  0  0  0  0  0  0  0  0  0
   -3.9637    1.5566    0.0800 C   0  0  0  0  0  0  0  0  0  0  0  0
    0.9447   -3.5639    1.8936 C   0  0  0  0  0  0  0  0  0  0  0  0
   -1.8788    2.7017    1.0108 C   0  0  1  0  0  0  0  0  0  0  0  0
   -9.1522    1.9670   -0.3350 C   0  0  0  0  0  0  0  0  0  0  0  0
    1.4396    1.7397    2.1143 C   0  0  0  0  0  0  0  0  0  0  0  0
   -2.5219    3.9816    1.5354 C   0  0  0  0  0  0  0  0  0  0  0  0
   -1.9551    0.2214    0.7356 C   0  0  0  0  0  0  0  0  0  0  0  0
   -0.1769   -2.6356    2.1980 C   0  0  0  0  0  0  0  0  0  0  0  0
    0.5097    2.5379    1.2855 C   0  0  0  0  0  0  0  0  0  0  0  0
   -8.1742   -3.4050   -0.8564 C   0  0  0  0  0  0  0  0  0  0  0  0
   -4.3158   -1.9561   -1.6984 C   0  0  0  0  0  0  0  0  0  0  0  0
   -1.5901   -0.7339    1.6067 C   0  0  0  0  0  0  0  0  0  0  0  0
   -0.5991   -1.7398    1.2972 C   0  0  0  0  0  0  0  0  0  0  0  0
   -1.5678    5.1580    1.4488 C   0  0  0  0  0  0  0  0  0  0  0  0
    5.8168    1.5585   -2.9803 H   0  0  0  0  0  0  0  0  0  0  0  0
    7.4043    0.0667   -0.8116 H   0  0  0  0  0  0  0  0  0  0  0  0
    4.4579    0.9213   -0.7521 H   0  0  0  0  0  0  0  0  0  0  0  0
    3.4456   -0.6082    0.6585 H   0  0  0  0  0  0  0  0  0  0  0  0
    6.7766   -1.3346   -3.0748 H   0  0  0  0  0  0  0  0  0  0  0  0
    5.8369   -0.4878   -4.3343 H   0  0  0  0  0  0  0  0  0  0  0  0
    4.9884   -2.4652    1.2615 H   0  0  0  0  0  0  0  0  0  0  0  0
    3.9385   -0.2070   -2.7970 H   0  0  0  0  0  0  0  0  0  0  0  0
    3.1174    0.1042    3.2255 H   0  0  0  0  0  0  0  0  0  0  0  0
    2.6515   -2.0547    3.2025 H   0  0  0  0  0  0  0  0  0  0  0  0
    3.4782   -3.5678    2.9456 H   0  0  0  0  0  0  0  0  0  0  0  0
    1.9740   -2.0860    0.7260 H   0  0  0  0  0  0  0  0  0  0  0  0
    5.7263   -2.8564    3.5157 H   0  0  0  0  0  0  0  0  0  0  0  0
    4.9988   -1.3563    4.0933 H   0  0  0  0  0  0  0  0  0  0  0  0
    6.3698   -1.3110    2.9610 H   0  0  0  0  0  0  0  0  0  0  0  0
    4.0903   -2.2934   -4.1866 H   0  0  0  0  0  0  0  0  0  0  0  0
    3.3000   -2.5818   -2.6220 H   0  0  0  0  0  0  0  0  0  0  0  0
    4.9645   -3.0937   -2.8576 H   0  0  0  0  0  0  0  0  0  0  0  0
   -8.3424   -1.0596   -0.1235 H   0  0  0  0  0  0  0  0  0  0  0  0
   -6.0998   -1.6409   -0.0271 H   0  0  0  0  0  0  0  0  0  0  0  0
   -9.4454    0.0529   -2.0508 H   0  0  0  0  0  0  0  0  0  0  0  0
   -5.5269    0.8303   -1.6750 H   0  0  0  0  0  0  0  0  0  0  0  0
   -7.6414    2.1880   -1.8400 H   0  0  0  0  0  0  0  0  0  0  0  0
    5.2606    2.1048    2.3115 H   0  0  0  0  0  0  0  0  0  0  0  0
    4.2963    2.1721    3.7878 H   0  0  0  0  0  0  0  0  0  0  0  0
    5.4931    0.8956    3.5826 H   0  0  0  0  0  0  0  0  0  0  0  0
    6.0689    2.5847   -0.8833 H   0  0  0  0  0  0  0  0  0  0  0  0
    3.0415    1.9718    0.7678 H   0  0  0  0  0  0  0  0  0  0  0  0
    7.9774   -0.3965   -4.7612 H   0  0  0  0  0  0  0  0  0  0  0  0
    7.1278    1.1182   -5.2380 H   0  0  0  0  0  0  0  0  0  0  0  0
    8.8769    1.0419   -5.0634 H   0  0  0  0  0  0  0  0  0  0  0  0
    7.3449    3.1549   -3.4601 H   0  0  0  0  0  0  0  0  0  0  0  0
    8.3770    2.7905   -2.0485 H   0  0  0  0  0  0  0  0  0  0  0  0
    9.0594    2.7735   -3.6339 H   0  0  0  0  0  0  0  0  0  0  0  0
    3.6757   -3.5558   -0.2354 H   0  0  0  0  0  0  0  0  0  0  0  0
    2.0829   -4.2932   -0.4376 H   0  0  0  0  0  0  0  0  0  0  0  0
    3.1766   -4.8918    0.8144 H   0  0  0  0  0  0  0  0  0  0  0  0
   -3.5928    1.6761   -0.9457 H   0  0  0  0  0  0  0  0  0  0  0  0
   -4.5977    2.4140    0.3308 H   0  0  0  0  0  0  0  0  0  0  0  0
   -1.5619    2.8556   -0.0298 H   0  0  0  0  0  0  0  0  0  0  0  0
   -9.9978    2.2078   -0.9864 H   0  0  0  0  0  0  0  0  0  0  0  0
   -8.8581    2.8750    0.2028 H   0  0  0  0  0  0  0  0  0  0  0  0
   -9.4841    1.2474    0.4215 H   0  0  0  0  0  0  0  0  0  0  0  0
    1.0646    1.2903    3.0277 H   0  0  0  0  0  0  0  0  0  0  0  0
   -3.4233    4.2207    0.9623 H   0  0  0  0  0  0  0  0  0  0  0  0
   -2.8170    3.8641    2.5846 H   0  0  0  0  0  0  0  0  0  0  0  0
   -8.1201    0.8937   -3.6581 H   0  0  0  0  0  0  0  0  0  0  0  0
   -1.5399    0.1993   -0.2718 H   0  0  0  0  0  0  0  0  0  0  0  0
   -0.6198   -2.7209    3.1849 H   0  0  0  0  0  0  0  0  0  0  0  0
   -7.1508   -3.6055   -0.5278 H   0  0  0  0  0  0  0  0  0  0  0  0
   -8.8262   -3.2401    0.0073 H   0  0  0  0  0  0  0  0  0  0  0  0
   -8.5336   -4.2926   -1.3851 H   0  0  0  0  0  0  0  0  0  0  0  0
   -4.0082    0.6345    2.3802 H   0  0  0  0  0  0  0  0  0  0  0  0
   -3.9146   -2.5504   -2.5248 H   0  0  0  0  0  0  0  0  0  0  0  0
   -4.2801   -2.5713   -0.7940 H   0  0  0  0  0  0  0  0  0  0  0  0
   -3.6797   -1.0744   -1.5939 H   0  0  0  0  0  0  0  0  0  0  0  0
   -1.9640   -0.7153    2.6266 H   0  0  0  0  0  0  0  0  0  0  0  0
   -0.1605   -1.7052    0.3037 H   0  0  0  0  0  0  0  0  0  0  0  0
   -1.2050    5.3010    0.4259 H   0  0  0  0  0  0  0  0  0  0  0  0
   -2.0804    6.0769    1.7522 H   0  0  0  0  0  0  0  0  0  0  0  0
   -0.7057    5.0336    2.1110 H   0  0  0  0  0  0  0  0  0  0  0  0
  1 16  1  0  0  0  0
  1 17  1  0  0  0  0
  2 16  1  0  0  0  0
  2 20  1  0  0  0  0
  3 15  1  0  0  0  0
  3 77  1  0  0  0  0
  4 29  1  0  0  0  0
  4 30  1  0  0  0  0
  5 29  1  0  0  0  0
  5 37  1  0  0  0  0
  6 26  1  0  0  0  0
  6 46  1  0  0  0  0
  7 27  1  0  0  0  0
  7 47  1  0  0  0  0
  8 28  1  0  0  0  0
  8 97  1  0  0  0  0
  9 39  1  0  0  0  0
  9 45  1  0  0  0  0
 10 35  1  0  0  0  0
 10103  1  0  0  0  0
 11 38  2  0  0  0  0
 12 45  2  0  0  0  0
 13 14  1  0  0  0  0
 13 33  1  0  0  0  0
 13 34  1  0  0  0  0
 14 15  1  0  0  0  0
 14 18  1  0  0  0  0
 14 51  1  0  0  0  0
 15 16  1  0  0  0  0
 15 52  1  0  0  0  0
 16 53  1  0  0  0  0
 17 19  1  0  0  0  0
 17 21  1  0  0  0  0
 17 54  1  0  0  0  0
 18 20  1  0  0  0  0
 18 55  1  0  0  0  0
 18 56  1  0  0  0  0
 19 22  1  0  0  0  0
 19 24  1  0  0  0  0
 19 57  1  0  0  0  0
 20 25  1  0  0  0  0
 20 58  1  0  0  0  0
 21 31  1  0  0  0  0
 21 32  1  0  0  0  0
 21 59  1  0  0  0  0
 22 23  1  0  0  0  0
 22 60  1  0  0  0  0
 22 61  1  0  0  0  0
 23 36  1  0  0  0  0
 23 38  1  0  0  0  0
 23 62  1  0  0  0  0
 24 63  1  0  0  0  0
 24 64  1  0  0  0  0
 24 65  1  0  0  0  0
 25 66  1  0  0  0  0
 25 67  1  0  0  0  0
 25 68  1  0  0  0  0
 26 27  1  0  0  0  0
 26 28  1  0  0  0  0
 26 69  1  0  0  0  0
 27 29  1  0  0  0  0
 27 70  1  0  0  0  0
 28 30  1  0  0  0  0
 28 71  1  0  0  0  0
 29 72  1  0  0  0  0
 30 40  1  0  0  0  0
 30 73  1  0  0  0  0
 31 74  1  0  0  0  0
 31 75  1  0  0  0  0
 31 76  1  0  0  0  0
 32 41  2  0  0  0  0
 32 78  1  0  0  0  0
 33 79  1  0  0  0  0
 33 80  1  0  0  0  0
 33 81  1  0  0  0  0
 34 82  1  0  0  0  0
 34 83  1  0  0  0  0
 34 84  1  0  0  0  0
 35 37  1  0  0  0  0
 35 39  1  0  0  0  0
 35 43  1  0  0  0  0
 36 85  1  0  0  0  0
 36 86  1  0  0  0  0
 36 87  1  0  0  0  0
 37 88  1  0  0  0  0
 37 89  1  0  0  0  0
 38 44  1  0  0  0  0
 39 42  1  0  0  0  0
 39 90  1  0  0  0  0
 40 91  1  0  0  0  0
 40 92  1  0  0  0  0
 40 93  1  0  0  0  0
 41 45  1  0  0  0  0
 41 94  1  0  0  0  0
 42 50  1  0  0  0  0
 42 95  1  0  0  0  0
 42 96  1  0  0  0  0
 43 48  2  0  0  0  0
 43 98  1  0  0  0  0
 44 49  2  0  0  0  0
 44 99  1  0  0  0  0
 46100  1  0  0  0  0
 46101  1  0  0  0  0
 46102  1  0  0  0  0
 47104  1  0  0  0  0
 47105  1  0  0  0  0
 47106  1  0  0  0  0
 48 49  1  0  0  0  0
 48107  1  0  0  0  0
 49108  1  0  0  0  0
 50109  1  0  0  0  0
 50110  1  0  0  0  0
 50111  1  0  0  0  0
M  END
> <PUBCHEM_COMPOUND_CID>
12784329

> <PUBCHEM_CONFORMER_RMSD>
1.4

> <PUBCHEM_CONFORMER_DIVERSEORDER>
1
30
10
22
5
46
39
42
27
33
21
7
19
15
36
40
18
44
28
13
41
12
14
38
3
11
24
37
9
23
25
34
32
6
26
4
29
31
16
35
45
43
17
8
20
2

> <PUBCHEM_MMFF94_PARTIAL_CHARGES>
49
1 -0.56
10 -0.68
103 0.4
107 0.15
108 0.15
11 -0.57
12 -0.57
13 -0.81
14 0.27
15 0.28
16 0.56
17 0.28
2 -0.56
20 0.28
21 0.14
23 0.06
26 0.28
27 0.28
28 0.28
29 0.56
3 -0.68
30 0.28
32 -0.29
33 0.27
34 0.27
35 0.42
37 0.28
38 0.49
39 0.28
4 -0.56
41 -0.14
43 -0.29
44 -0.14
45 0.71
46 0.28
47 0.28
48 -0.15
49 -0.15
5 -0.56
6 -0.56
7 -0.56
77 0.4
78 0.15
8 -0.68
9 -0.43
94 0.15
97 0.4
98 0.15
99 0.15

> <PUBCHEM_EFFECTIVE_ROTOR_COUNT>
13

> <PUBCHEM_PHARMACOPHORE_FEATURES>
18
1 1 acceptor
1 10 acceptor
1 10 donor
1 11 acceptor
1 12 acceptor
1 13 cation
1 2 acceptor
1 3 acceptor
1 3 donor
1 4 acceptor
1 5 acceptor
1 50 hydrophobe
1 6 acceptor
1 7 acceptor
1 8 acceptor
1 8 donor
6 2 14 15 16 18 20 rings
6 4 26 27 28 29 30 rings

> <PUBCHEM_HEAVY_ATOM_COUNT>
50

> <PUBCHEM_ATOM_DEF_STEREO_COUNT>
15

> <PUBCHEM_ATOM_UDEF_STEREO_COUNT>
0

> <PUBCHEM_BOND_DEF_STEREO_COUNT>
3

> <PUBCHEM_BOND_UDEF_STEREO_COUNT>
0

> <PUBCHEM_ISOTOPIC_ATOM_COUNT>
0

> <PUBCHEM_COMPONENT_COUNT>
1

> <PUBCHEM_CACTVS_TAUTO_COUNT>
2

> <PUBCHEM_CONFORMER_ID>
00C312C900000001

> <PUBCHEM_MMFF94_ENERGY>
160.3987

> <PUBCHEM_FEATURE_SELFOVERLAP>
91.445

> <PUBCHEM_SHAPE_FINGERPRINT>
117089 54 16660914561110116516
12124843 1 18410845573567355278
13617811 41 18272093820239373896
13782708 43 15140968391280795533
13947947 140 14129603507023804908
15160629 131 17967540090683079639
21033648 29 13110670628741011472
21814621 53 15719397256565661283
24893989 43 17897182224993295622
437795 70 18113613456863926814
9831232 110 17894070705749461821

> <PUBCHEM_SHAPE_MULTIPOLES>
953.56
27.14
5.1
4.44
32.05
0.42
-2.95
-2.36
-31.7
1.21
3.29
-10.1
0.29
-5.64

> <PUBCHEM_SHAPE_SELFOVERLAP>
1930.386

> <PUBCHEM_SHAPE_VOLUME>
549.5

> <PUBCHEM_COORDINATE_TYPE>
2
5
10

$$$$

