46173923
  -OEChem-07051213102D

 39 41  0     1  0  0  0  0  0999 V2000
    2.4788    1.2650    0.0000 O   0  0  0  0  0  0  0  0  0  0  0  0
    3.0291   -2.4287    0.0000 O   0  0  0  0  0  0  0  0  0  0  0  0
    4.5772   -0.3664    0.0000 C   0  0  3  0  0  0  0  0  0  0  0  0
    4.6841    0.8104    0.0000 C   0  0  0  0  0  0  0  0  0  0  0  0
    4.0772    1.8243    0.0000 C   0  0  1  0  0  0  0  0  0  0  0  0
    5.4782    0.0675    0.0000 C   0  0  1  0  0  0  0  0  0  0  0  0
    3.6763    0.0675    0.0000 C   0  0  0  0  0  0  0  0  0  0  0  0
    3.4538    1.0424    0.0000 C   0  0  1  0  0  0  0  0  0  0  0  0
    5.0772    1.8243    0.0000 C   0  0  0  0  0  0  0  0  0  0  0  0
    4.4413   -1.3511    0.0000 C   0  0  0  0  0  0  0  0  0  0  0  0
    5.7007    1.0424    0.0000 C   0  0  0  0  0  0  0  0  0  0  0  0
    5.5796    1.5319    0.0000 C   0  0  0  0  0  0  0  0  0  0  0  0
    5.8040    0.5489    0.0000 C   0  0  0  0  0  0  0  0  0  0  0  0
    2.9912   -0.6528    0.0000 C   0  0  0  0  0  0  0  0  0  0  0  0
    3.4630   -1.5278    0.0000 C   0  0  0  0  0  0  0  0  0  0  0  0
    6.2600   -0.5560    0.0000 C   0  0  0  0  0  0  0  0  0  0  0  0
    2.0000   -0.5203    0.0000 C   0  0  0  0  0  0  0  0  0  0  0  0
    3.8881    2.6530    0.0000 H   0  0  0  0  0  0  0  0  0  0  0  0
    5.4088   -0.5486    0.0000 H   0  0  0  0  0  0  0  0  0  0  0  0
    3.2490    1.6276    0.0000 H   0  0  0  0  0  0  0  0  0  0  0  0
    5.6358    2.0933    0.0000 H   0  0  0  0  0  0  0  0  0  0  0  0
    4.9393    2.4287    0.0000 H   0  0  0  0  0  0  0  0  0  0  0  0
    4.4867   -1.9694    0.0000 H   0  0  0  0  0  0  0  0  0  0  0  0
    5.0609   -1.3709    0.0000 H   0  0  0  0  0  0  0  0  0  0  0  0
    6.2593    0.7734    0.0000 H   0  0  0  0  0  0  0  0  0  0  0  0
    6.0873    1.5272    0.0000 H   0  0  0  0  0  0  0  0  0  0  0  0
    5.9686    1.0491    0.0000 H   0  0  0  0  0  0  0  0  0  0  0  0
    6.0624    1.9209    0.0000 H   0  0  0  0  0  0  0  0  0  0  0  0
    5.1906    2.0147    0.0000 H   0  0  0  0  0  0  0  0  0  0  0  0
    5.6630   -0.0548    0.0000 H   0  0  0  0  0  0  0  0  0  0  0  0
    6.4077    0.4079    0.0000 H   0  0  0  0  0  0  0  0  0  0  0  0
    5.9450    1.1527    0.0000 H   0  0  0  0  0  0  0  0  0  0  0  0
    5.8735   -1.0407    0.0000 H   0  0  0  0  0  0  0  0  0  0  0  0
    6.7448   -0.9425    0.0000 H   0  0  0  0  0  0  0  0  0  0  0  0
    6.6466   -0.0712    0.0000 H   0  0  0  0  0  0  0  0  0  0  0  0
    2.2961    1.8574    0.0000 H   0  0  0  0  0  0  0  0  0  0  0  0
    2.0822    0.0943    0.0000 H   0  0  0  0  0  0  0  0  0  0  0  0
    1.3855   -0.4381    0.0000 H   0  0  0  0  0  0  0  0  0  0  0  0
    1.9178   -1.1348    0.0000 H   0  0  0  0  0  0  0  0  0  0  0  0
  8  1  1  1  0  0  0
  1 36  1  0  0  0  0
  2 15  2  0  0  0  0
  3  4  1  0  0  0  0
  3  6  1  0  0  0  0
  3  7  1  0  0  0  0
  3 10  1  0  0  0  0
  4  5  1  0  0  0  0
  4 12  1  0  0  0  0
  4 13  1  0  0  0  0
  5  8  1  0  0  0  0
  5  9  1  0  0  0  0
  5 18  1  6  0  0  0
  6 11  1  0  0  0  0
  6 16  1  1  0  0  0
  6 19  1  0  0  0  0
  7  8  1  0  0  0  0
  7 14  2  0  0  0  0
  8 20  1  0  0  0  0
  9 11  1  0  0  0  0
  9 21  1  0  0  0  0
  9 22  1  0  0  0  0
 10 15  1  0  0  0  0
 10 23  1  0  0  0  0
 10 24  1  0  0  0  0
 11 25  1  0  0  0  0
 11 26  1  0  0  0  0
 12 27  1  0  0  0  0
 12 28  1  0  0  0  0
 12 29  1  0  0  0  0
 13 30  1  0  0  0  0
 13 31  1  0  0  0  0
 13 32  1  0  0  0  0
 14 15  1  0  0  0  0
 14 17  1  0  0  0  0
 16 33  1  0  0  0  0
 16 34  1  0  0  0  0
 16 35  1  0  0  0  0
 17 37  1  0  0  0  0
 17 38  1  0  0  0  0
 17 39  1  0  0  0  0
M  END
> <PUBCHEM_COMPOUND_CID>
46173923

> <PUBCHEM_COMPOUND_CANONICALIZED>
1

> <PUBCHEM_CACTVS_COMPLEXITY>
432

> <PUBCHEM_CACTVS_HBOND_ACCEPTOR>
2

> <PUBCHEM_CACTVS_HBOND_DONOR>
1

> <PUBCHEM_CACTVS_ROTATABLE_BOND>
0

> <PUBCHEM_CACTVS_SUBSKEYS>
AAADceBwMAAAAAAAAAAAAAAAAAAAAYIAAAAwAAAABgAQAACAAAAAGgAACAAADxSggAICAAAAAgCIAoBQAAAAAAAgAAAACAEAAEgAFBIAAAAAUAAEgAAIEQOIzPDPgAAAAAAAAACAAAQAACAAAYAADAAAAA==

> <PUBCHEM_IUPAC_INCHI>
InChI=1S/C15H22O2/c1-8-5-6-10-13(17)12-9(2)11(16)7-15(8,12)14(10,3)4/h8,10,13,17H,5-7H2,1-4H3/t8-,10-,13+,15?/m1/s1

> <PUBCHEM_IUPAC_INCHIKEY>
BOBZQUWDNGGBHD-PYXYLQBXSA-N

> <PUBCHEM_XLOGP3_AA>
2.1

> <PUBCHEM_EXACT_MASS>
234.16198

> <PUBCHEM_MOLECULAR_FORMULA>
C15H22O2

> <PUBCHEM_MOLECULAR_WEIGHT>
234.33398

> <PUBCHEM_OPENEYE_CAN_SMILES>
CC1CCC2C(C3=C(C(=O)CC13C2(C)C)C)O

> <PUBCHEM_OPENEYE_ISO_SMILES>
C[C@@H]1CC[C@@H]2[C@@H](C3=C(C(=O)CC13C2(C)C)C)O

> <PUBCHEM_CACTVS_TPSA>
37.3

> <PUBCHEM_MONOISOTOPIC_WEIGHT>
234.16198

> <PUBCHEM_TOTAL_CHARGE>
0

> <PUBCHEM_HEAVY_ATOM_COUNT>
17

> <PUBCHEM_ATOM_DEF_STEREO_COUNT>
3

> <PUBCHEM_ATOM_UDEF_STEREO_COUNT>
1

> <PUBCHEM_BOND_DEF_STEREO_COUNT>
0

> <PUBCHEM_BOND_UDEF_STEREO_COUNT>
0

> <PUBCHEM_ISOTOPIC_ATOM_COUNT>
0

> <PUBCHEM_COMPONENT_COUNT>
1

> <PUBCHEM_CACTVS_TAUTO_COUNT>
2

> <PUBCHEM_COORDINATE_TYPE>
1
5
255

> <PUBCHEM_BONDANNOTATIONS>
8  1  5
3  4  3
5  18  6
6  16  5

$$$$

