5281932
  -OEChem-07051213013D

 21 20  0     0  0  0  0  0  0999 V2000
   -2.8142    0.3505    0.5923 O   0  0  0  0  0  0  0  0  0  0  0  0
   -1.5373   -0.0447   -1.2874 O   0  0  0  0  0  0  0  0  0  0  0  0
   -0.0262   -2.7049   -0.1979 O   0  0  0  0  0  0  0  0  0  0  0  0
    2.2167   -2.4429    0.0568 O   0  0  0  0  0  0  0  0  0  0  0  0
    2.6676    2.3752   -0.5044 O   0  0  0  0  0  0  0  0  0  0  0  0
    0.6119    2.4249    0.4743 O   0  0  0  0  0  0  0  0  0  0  0  0
   -0.5708   -0.2252    0.9457 C   0  0  0  0  0  0  0  0  0  0  0  0
    0.7395   -0.5443    0.2769 C   0  0  0  0  0  0  0  0  0  0  0  0
   -1.6642    0.0278   -0.0726 C   0  0  0  0  0  0  0  0  0  0  0  0
    1.6854    0.3340   -0.1032 C   0  0  0  0  0  0  0  0  0  0  0  0
    1.0884   -1.9754    0.0444 C   0  0  0  0  0  0  0  0  0  0  0  0
    1.5526    1.8043    0.0116 C   0  0  0  0  0  0  0  0  0  0  0  0
   -3.9493    0.6208   -0.2364 C   0  0  0  0  0  0  0  0  0  0  0  0
   -0.8802   -1.0640    1.5809 H   0  0  0  0  0  0  0  0  0  0  0  0
   -0.4822    0.6432    1.6046 H   0  0  0  0  0  0  0  0  0  0  0  0
    2.6078   -0.0144   -0.5631 H   0  0  0  0  0  0  0  0  0  0  0  0
   -4.2041   -0.2626   -0.8296 H   0  0  0  0  0  0  0  0  0  0  0  0
   -3.7485    1.4784   -0.8856 H   0  0  0  0  0  0  0  0  0  0  0  0
   -4.7946    0.8628    0.4133 H   0  0  0  0  0  0  0  0  0  0  0  0
    0.1812   -3.6503   -0.3577 H   0  0  0  0  0  0  0  0  0  0  0  0
    2.6330    3.3546   -0.4591 H   0  0  0  0  0  0  0  0  0  0  0  0
  1  9  1  0  0  0  0
  1 13  1  0  0  0  0
  2  9  2  0  0  0  0
  3 11  1  0  0  0  0
  3 20  1  0  0  0  0
  4 11  2  0  0  0  0
  5 12  1  0  0  0  0
  5 21  1  0  0  0  0
  6 12  2  0  0  0  0
  7  8  1  0  0  0  0
  7  9  1  0  0  0  0
  7 14  1  0  0  0  0
  7 15  1  0  0  0  0
  8 10  2  0  0  0  0
  8 11  1  0  0  0  0
 10 12  1  0  0  0  0
 10 16  1  0  0  0  0
 13 17  1  0  0  0  0
 13 18  1  0  0  0  0
 13 19  1  0  0  0  0
M  END
> <PUBCHEM_COMPOUND_CID>
5281932

> <PUBCHEM_CONFORMER_RMSD>
0.6

> <PUBCHEM_CONFORMER_DIVERSEORDER>
1
43
33
38
34
18
57
62
55
22
67
2
59
65
42
46
37
15
50
63
17
53
29
52
41
14
24
8
36
28
47
51
21
32
45
35
64
44
66
58
16
56
49
11
61
48
40
3
23
54
39
10
26
31
19
30
7
60
12
5
6
20
4
27
13
25
9

> <PUBCHEM_MMFF94_PARTIAL_CHARGES>
16
1 -0.43
10 -0.14
11 0.71
12 0.71
13 0.28
16 0.15
2 -0.57
20 0.5
21 0.5
3 -0.65
4 -0.57
5 -0.65
6 -0.57
7 0.2
8 -0.12
9 0.66

> <PUBCHEM_EFFECTIVE_ROTOR_COUNT>
5

> <PUBCHEM_PHARMACOPHORE_FEATURES>
7
1 2 acceptor
1 3 acceptor
1 4 acceptor
1 5 acceptor
1 6 acceptor
3 3 4 11 anion
3 5 6 12 anion

> <PUBCHEM_HEAVY_ATOM_COUNT>
13

> <PUBCHEM_ATOM_DEF_STEREO_COUNT>
0

> <PUBCHEM_ATOM_UDEF_STEREO_COUNT>
0

> <PUBCHEM_BOND_DEF_STEREO_COUNT>
1

> <PUBCHEM_BOND_UDEF_STEREO_COUNT>
0

> <PUBCHEM_ISOTOPIC_ATOM_COUNT>
0

> <PUBCHEM_COMPONENT_COUNT>
1

> <PUBCHEM_CACTVS_TAUTO_COUNT>
1

> <PUBCHEM_CONFORMER_ID>
0050988C00000001

> <PUBCHEM_MMFF94_ENERGY>
23.4764

> <PUBCHEM_FEATURE_SELFOVERLAP>
35.635

> <PUBCHEM_SHAPE_FINGERPRINT>
1 1 18340768152488865156
10980938 120 18410576184623482953
11031198 65 18341041939495448837
14251717 144 18410581699377042519
14648413 74 18342174513971094345
15775835 57 18198625432233261117
16945 1 18411981390099788506
193761 8 18266458702824334786
20645477 70 18340777013686963287
20708731 107 18410575119260252591
21524375 3 18127700330871531529
23598291 2 18041284352510804677
25 1 18411975832438858001
2748010 2 18195231227290641504
305870 269 18337961090549954528
528862 383 18411422821155583427
7364860 26 18409730694303740385
81228 2 17329996209767557880

> <PUBCHEM_SHAPE_MULTIPOLES>
232.32
4.28
2.86
0.82
4.56
0.35
-0.04
-1.35
-0.45
-2.86
-0.12
0.23
-0.04
-0.17

> <PUBCHEM_SHAPE_SELFOVERLAP>
460.206

> <PUBCHEM_SHAPE_VOLUME>
136.9

> <PUBCHEM_COORDINATE_TYPE>
2
5
10

$$$$

