53297439
  -OEChem-07051213143D

 29 29  0     1  0  0  0  0  0999 V2000
    3.8686   -1.5805    0.7086 O   0  0  0  0  0  0  0  0  0  0  0  0
   -0.9180   -2.0449   -0.8149 O   0  0  0  0  0  0  0  0  0  0  0  0
    3.3213    1.7782   -1.6294 O   0  0  0  0  0  0  0  0  0  0  0  0
    3.1804    0.6979    0.1768 N   0  0  0  0  0  0  0  0  0  0  0  0
    3.1920    0.6496   -1.1405 N   0  0  0  0  0  0  0  0  0  0  0  0
   -3.4995    1.6030    0.8248 N   0  0  0  0  0  0  0  0  0  0  0  0
    1.5416   -1.2214    0.2559 C   0  0  0  0  0  0  0  0  0  0  0  0
    2.8370   -0.5913    0.8162 C   0  0  1  0  0  0  0  0  0  0  0  0
    0.2853   -0.3622    0.4275 C   0  0  0  0  0  0  0  0  0  0  0  0
   -0.9534   -0.9796   -0.2038 C   0  0  0  0  0  0  0  0  0  0  0  0
   -2.2569   -0.2772   -0.0504 C   0  0  0  0  0  0  0  0  0  0  0  0
    4.4043    1.2606    0.7648 C   0  0  0  0  0  0  0  0  0  0  0  0
   -3.4205   -0.7967   -0.6068 C   0  0  0  0  0  0  0  0  0  0  0  0
   -2.3490    0.9150    0.6498 C   0  0  0  0  0  0  0  0  0  0  0  0
   -4.6235   -0.1177   -0.4483 C   0  0  0  0  0  0  0  0  0  0  0  0
   -4.6097    1.0673    0.2697 C   0  0  0  0  0  0  0  0  0  0  0  0
    1.3815   -2.1840    0.7621 H   0  0  0  0  0  0  0  0  0  0  0  0
    1.6760   -1.4965   -0.7990 H   0  0  0  0  0  0  0  0  0  0  0  0
    2.6734   -0.4196    1.8882 H   0  0  0  0  0  0  0  0  0  0  0  0
    0.4401    0.6170   -0.0376 H   0  0  0  0  0  0  0  0  0  0  0  0
    0.1048   -0.2286    1.5000 H   0  0  0  0  0  0  0  0  0  0  0  0
    5.3041    0.7029    0.4780 H   0  0  0  0  0  0  0  0  0  0  0  0
    4.3389    1.2685    1.8592 H   0  0  0  0  0  0  0  0  0  0  0  0
    4.5464    2.3069    0.4670 H   0  0  0  0  0  0  0  0  0  0  0  0
    4.6193   -1.2788    1.2464 H   0  0  0  0  0  0  0  0  0  0  0  0
   -3.4132   -1.7273   -1.1674 H   0  0  0  0  0  0  0  0  0  0  0  0
   -1.4937    1.3932    1.1138 H   0  0  0  0  0  0  0  0  0  0  0  0
   -5.5430   -0.5035   -0.8733 H   0  0  0  0  0  0  0  0  0  0  0  0
   -5.5218    1.6350    0.4219 H   0  0  0  0  0  0  0  0  0  0  0  0
  1  8  1  0  0  0  0
  1 25  1  0  0  0  0
  2 10  2  0  0  0  0
  3  5  2  0  0  0  0
  4  5  1  0  0  0  0
  4  8  1  0  0  0  0
  4 12  1  0  0  0  0
  6 14  1  0  0  0  0
  6 16  2  0  0  0  0
  7  8  1  0  0  0  0
  7  9  1  0  0  0  0
  7 17  1  0  0  0  0
  7 18  1  0  0  0  0
  8 19  1  0  0  0  0
  9 10  1  0  0  0  0
  9 20  1  0  0  0  0
  9 21  1  0  0  0  0
 10 11  1  0  0  0  0
 11 13  1  0  0  0  0
 11 14  2  0  0  0  0
 12 22  1  0  0  0  0
 12 23  1  0  0  0  0
 12 24  1  0  0  0  0
 13 15  2  0  0  0  0
 13 26  1  0  0  0  0
 14 27  1  0  0  0  0
 15 16  1  0  0  0  0
 15 28  1  0  0  0  0
 16 29  1  0  0  0  0
M  END
> <PUBCHEM_COMPOUND_CID>
53297439

> <PUBCHEM_CONFORMER_RMSD>
1.2

> <PUBCHEM_CONFORMER_DIVERSEORDER>
1
47
14
42
36
19
41
37
38
7
21
9
35
48
22
12
32
50
46
33
2
23
17
13
40
49
28
31
18
43
20
3
30
6
34
11
27
5
39
15
44
8
16
10
4
26
24
25
45
29

> <PUBCHEM_MMFF94_PARTIAL_CHARGES>
20
1 -0.68
10 0.42
11 0.09
12 0.27
13 -0.15
14 0.16
15 -0.15
16 0.16
2 -0.57
25 0.4
26 0.15
27 0.15
28 0.15
29 0.15
3 -0.16
4 -0.36
5 -0.01
6 -0.62
8 0.55
9 0.06

> <PUBCHEM_EFFECTIVE_ROTOR_COUNT>
6

> <PUBCHEM_PHARMACOPHORE_FEATURES>
5
1 1 acceptor
1 1 donor
1 2 acceptor
1 6 acceptor
6 6 11 13 14 15 16 rings

> <PUBCHEM_HEAVY_ATOM_COUNT>
16

> <PUBCHEM_ATOM_DEF_STEREO_COUNT>
0

> <PUBCHEM_ATOM_UDEF_STEREO_COUNT>
1

> <PUBCHEM_BOND_DEF_STEREO_COUNT>
0

> <PUBCHEM_BOND_UDEF_STEREO_COUNT>
0

> <PUBCHEM_ISOTOPIC_ATOM_COUNT>
0

> <PUBCHEM_COMPONENT_COUNT>
1

> <PUBCHEM_CACTVS_TAUTO_COUNT>
2

> <PUBCHEM_CONFORMER_ID>
032D411F00000001

> <PUBCHEM_MMFF94_ENERGY>
38.974

> <PUBCHEM_FEATURE_SELFOVERLAP>
25.371

> <PUBCHEM_SHAPE_FINGERPRINT>
10366900 7 15841551911426047896
10498660 4 18113617910771568745
12173636 292 18333455322227791959
12616999 72 14707207691406415708
12633257 1 16630253506890730664
12670545 47 16056873632843139946
12916748 109 18113334198195524331
14123260 362 18410283697107681433
14251764 38 17774450506816745341
15239191 94 8214146243816319781
15342168 16 17560512885701727326
17834072 32 18195247943615262957
18186145 218 18060421343428082986
20279233 1 14851610968508210022
212847 35 18261396675727515808
21503847 285 17918270991479174248
21524375 3 18335986458129937227
21652331 79 18409732871958024985
2255824 54 18131633417767793458
22854114 59 16917351445847052979
23048698 100 18131635594746051915
23366157 5 18048026660897615879
23402539 116 17749404679543296327
235170 7 15864066572437160613
23557571 272 17459474333961347998
23559900 14 17750230473222381462
4409770 3 15892215543266320926
474 4 17988644064809714986
4990 188 16515404075276516039
5104073 3 18410015437682310835
537710 114 18408603664931587161
633830 44 18271241720276055719
9971528 1 18343025532071768434

> <PUBCHEM_SHAPE_MULTIPOLES>
296.72
10.24
1.75
1.05
0.19
0.05
0.29
-3.66
-0.15
0.49
0.11
0.81
-0.29
-1.32

> <PUBCHEM_SHAPE_SELFOVERLAP>
601.26

> <PUBCHEM_SHAPE_VOLUME>
170.4

> <PUBCHEM_COORDINATE_TYPE>
2
5
10

$$$$

