5281387
  -OEChem-07051212563D

 65 68  0     1  0  0  0  0  0999 V2000
    2.8349   -0.2382   -0.8724 O   0  0  0  0  0  0  0  0  0  0  0  0
   -4.0134    0.3638   -1.9625 O   0  0  0  0  0  0  0  0  0  0  0  0
   -4.7495    1.4634    1.9372 O   0  0  0  0  0  0  0  0  0  0  0  0
   -3.9791    2.7565   -0.4993 O   0  0  0  0  0  0  0  0  0  0  0  0
   -0.4138   -1.5595   -0.1883 C   0  0  2  0  0  0  0  0  0  0  0  0
    1.9984   -0.9624    0.0794 C   0  0  1  0  0  0  0  0  0  0  0  0
    0.5649   -0.3501   -0.0217 C   0  0  2  0  0  0  0  0  0  0  0  0
    0.4611   -2.4535   -1.1025 C   0  0  0  0  0  0  0  0  0  0  0  0
    1.8615   -2.3946   -0.4912 C   0  0  0  0  0  0  0  0  0  0  0  0
   -1.7280   -1.1918   -0.9460 C   0  0  0  0  0  0  0  0  0  0  0  0
    2.8008   -0.8292    1.3849 C   0  0  2  0  0  0  0  0  0  0  0  0
   -2.9749   -0.8366   -0.1042 C   0  0  1  0  0  0  0  0  0  0  0  0
    0.1839    0.7122    1.0175 C   0  0  0  0  0  0  0  0  0  0  0  0
   -0.7202   -2.3438    1.1026 C   0  0  0  0  0  0  0  0  0  0  0  0
    4.2227   -1.0356    0.8864 C   0  0  0  0  0  0  0  0  0  0  0  0
   -2.8705    0.3910    0.8327 C   0  0  1  0  0  0  0  0  0  0  0  0
   -4.2639   -0.5894   -0.9320 C   0  0  1  0  0  0  0  0  0  0  0  0
    4.2092   -0.2929   -0.4435 C   0  0  2  0  0  0  0  0  0  0  0  0
    2.4511   -1.7199    2.5623 C   0  0  0  0  0  0  0  0  0  0  0  0
   -5.2490   -0.0024    0.0882 C   0  0  0  0  0  0  0  0  0  0  0  0
   -0.7760    1.7203    0.4426 C   0  0  0  0  0  0  0  0  0  0  0  0
   -2.1074    1.5833    0.3357 C   0  0  0  0  0  0  0  0  0  0  0  0
   -4.3397    0.7099    1.0615 C   0  0  0  0  0  0  0  0  0  0  0  0
   -4.8199   -1.8541   -1.5822 C   0  0  0  0  0  0  0  0  0  0  0  0
    4.7239    1.1040   -0.3348 C   0  0  0  0  0  0  0  0  0  0  0  0
   -2.7717    2.7205   -0.3211 C   0  0  0  0  0  0  0  0  0  0  0  0
    5.9750    1.5524   -0.5505 C   0  0  0  0  0  0  0  0  0  0  0  0
    6.4243    2.9803   -0.4217 C   0  0  0  0  0  0  0  0  0  0  0  0
    7.0654    0.5961   -0.9571 C   0  0  0  0  0  0  0  0  0  0  0  0
    0.5580    0.1775   -0.9911 H   0  0  0  0  0  0  0  0  0  0  0  0
    0.4922   -2.0510   -2.1237 H   0  0  0  0  0  0  0  0  0  0  0  0
    0.0941   -3.4837   -1.1660 H   0  0  0  0  0  0  0  0  0  0  0  0
    1.9421   -3.1599    0.2845 H   0  0  0  0  0  0  0  0  0  0  0  0
    2.6130   -2.6274   -1.2538 H   0  0  0  0  0  0  0  0  0  0  0  0
   -2.0016   -2.0646   -1.5539 H   0  0  0  0  0  0  0  0  0  0  0  0
   -1.5192   -0.3966   -1.6718 H   0  0  0  0  0  0  0  0  0  0  0  0
    2.7559    0.2059    1.7435 H   0  0  0  0  0  0  0  0  0  0  0  0
   -3.1966   -1.7024    0.5375 H   0  0  0  0  0  0  0  0  0  0  0  0
    1.0646    1.2958    1.3051 H   0  0  0  0  0  0  0  0  0  0  0  0
   -0.1950    0.2737    1.9441 H   0  0  0  0  0  0  0  0  0  0  0  0
    0.1666   -2.7916    1.5518 H   0  0  0  0  0  0  0  0  0  0  0  0
   -1.1848   -1.7253    1.8725 H   0  0  0  0  0  0  0  0  0  0  0  0
   -1.4008   -3.1771    0.8900 H   0  0  0  0  0  0  0  0  0  0  0  0
    4.4206   -2.1014    0.7162 H   0  0  0  0  0  0  0  0  0  0  0  0
    4.9811   -0.6726    1.5882 H   0  0  0  0  0  0  0  0  0  0  0  0
   -2.4791    0.0743    1.8058 H   0  0  0  0  0  0  0  0  0  0  0  0
    4.7511   -0.8570   -1.2083 H   0  0  0  0  0  0  0  0  0  0  0  0
    2.5351   -2.7839    2.3268 H   0  0  0  0  0  0  0  0  0  0  0  0
    3.1332   -1.5234    3.3973 H   0  0  0  0  0  0  0  0  0  0  0  0
    1.4384   -1.5153    2.9197 H   0  0  0  0  0  0  0  0  0  0  0  0
   -5.7859   -0.7801    0.6400 H   0  0  0  0  0  0  0  0  0  0  0  0
   -5.9435    0.7100   -0.3647 H   0  0  0  0  0  0  0  0  0  0  0  0
   -0.2904    2.6136    0.0511 H   0  0  0  0  0  0  0  0  0  0  0  0
   -5.7663   -1.6369   -2.0907 H   0  0  0  0  0  0  0  0  0  0  0  0
   -4.1433   -2.2440   -2.3497 H   0  0  0  0  0  0  0  0  0  0  0  0
   -4.9999   -2.6436   -0.8456 H   0  0  0  0  0  0  0  0  0  0  0  0
    3.9874    1.8443   -0.0216 H   0  0  0  0  0  0  0  0  0  0  0  0
   -3.4790   -0.0628   -2.6531 H   0  0  0  0  0  0  0  0  0  0  0  0
   -2.1269    3.5515   -0.6528 H   0  0  0  0  0  0  0  0  0  0  0  0
    5.5956    3.6388   -0.1413 H   0  0  0  0  0  0  0  0  0  0  0  0
    7.1981    3.0705    0.3472 H   0  0  0  0  0  0  0  0  0  0  0  0
    6.8302    3.3398   -1.3727 H   0  0  0  0  0  0  0  0  0  0  0  0
    7.3389    0.7635   -2.0041 H   0  0  0  0  0  0  0  0  0  0  0  0
    7.9567    0.7646   -0.3419 H   0  0  0  0  0  0  0  0  0  0  0  0
    6.8081   -0.4585   -0.8365 H   0  0  0  0  0  0  0  0  0  0  0  0
  1  6  1  0  0  0  0
  1 18  1  0  0  0  0
  2 17  1  0  0  0  0
  2 58  1  0  0  0  0
  3 23  2  0  0  0  0
  4 26  2  0  0  0  0
  5  7  1  0  0  0  0
  5  8  1  0  0  0  0
  5 10  1  0  0  0  0
  5 14  1  0  0  0  0
  6  7  1  0  0  0  0
  6  9  1  0  0  0  0
  6 11  1  0  0  0  0
  7 13  1  0  0  0  0
  7 30  1  0  0  0  0
  8  9  1  0  0  0  0
  8 31  1  0  0  0  0
  8 32  1  0  0  0  0
  9 33  1  0  0  0  0
  9 34  1  0  0  0  0
 10 12  1  0  0  0  0
 10 35  1  0  0  0  0
 10 36  1  0  0  0  0
 11 15  1  0  0  0  0
 11 19  1  0  0  0  0
 11 37  1  0  0  0  0
 12 16  1  0  0  0  0
 12 17  1  0  0  0  0
 12 38  1  0  0  0  0
 13 21  1  0  0  0  0
 13 39  1  0  0  0  0
 13 40  1  0  0  0  0
 14 41  1  0  0  0  0
 14 42  1  0  0  0  0
 14 43  1  0  0  0  0
 15 18  1  0  0  0  0
 15 44  1  0  0  0  0
 15 45  1  0  0  0  0
 16 22  1  0  0  0  0
 16 23  1  0  0  0  0
 16 46  1  0  0  0  0
 17 20  1  0  0  0  0
 17 24  1  0  0  0  0
 18 25  1  0  0  0  0
 18 47  1  0  0  0  0
 19 48  1  0  0  0  0
 19 49  1  0  0  0  0
 19 50  1  0  0  0  0
 20 23  1  0  0  0  0
 20 51  1  0  0  0  0
 20 52  1  0  0  0  0
 21 22  2  0  0  0  0
 21 53  1  0  0  0  0
 22 26  1  0  0  0  0
 24 54  1  0  0  0  0
 24 55  1  0  0  0  0
 24 56  1  0  0  0  0
 25 27  2  0  0  0  0
 25 57  1  0  0  0  0
 26 59  1  0  0  0  0
 27 28  1  0  0  0  0
 27 29  1  0  0  0  0
 28 60  1  0  0  0  0
 28 61  1  0  0  0  0
 28 62  1  0  0  0  0
 29 63  1  0  0  0  0
 29 64  1  0  0  0  0
 29 65  1  0  0  0  0
M  END
> <PUBCHEM_COMPOUND_CID>
5281387

> <PUBCHEM_CONFORMER_RMSD>
0.8

> <PUBCHEM_CONFORMER_DIVERSEORDER>
1
2

> <PUBCHEM_MMFF94_PARTIAL_CHARGES>
22
1 -0.56
13 0.14
16 0.2
17 0.28
18 0.42
2 -0.68
20 0.06
21 -0.29
22 -0.12
23 0.45
25 -0.29
26 0.5
27 -0.28
28 0.14
29 0.14
3 -0.57
4 -0.57
53 0.15
57 0.15
58 0.4
59 0.06
6 0.28

> <PUBCHEM_EFFECTIVE_ROTOR_COUNT>
4

> <PUBCHEM_PHARMACOPHORE_FEATURES>
9
1 1 acceptor
1 2 acceptor
1 2 donor
1 3 acceptor
1 4 acceptor
3 27 28 29 hydrophobe
5 1 6 11 15 18 rings
5 12 16 17 20 23 rings
5 5 6 7 8 9 rings

> <PUBCHEM_HEAVY_ATOM_COUNT>
29

> <PUBCHEM_ATOM_DEF_STEREO_COUNT>
8

> <PUBCHEM_ATOM_UDEF_STEREO_COUNT>
0

> <PUBCHEM_BOND_DEF_STEREO_COUNT>
1

> <PUBCHEM_BOND_UDEF_STEREO_COUNT>
0

> <PUBCHEM_ISOTOPIC_ATOM_COUNT>
0

> <PUBCHEM_COMPONENT_COUNT>
1

> <PUBCHEM_CACTVS_TAUTO_COUNT>
5

> <PUBCHEM_CONFORMER_ID>
0050966B00000001

> <PUBCHEM_MMFF94_ENERGY>
105.7185

> <PUBCHEM_FEATURE_SELFOVERLAP>
45.691

> <PUBCHEM_SHAPE_FINGERPRINT>
10498660 4 18187369882102461016
10670039 82 18260831488507563708
10759866 29 18340773744736978730
10906281 52 18335969913625483538
11578080 2 17273715319441269269
11961588 58 18340211778552328306
12236239 1 18343587339310850142
12403259 118 18198919178464241232
12553582 1 18334020514491504817
12596602 18 17917713495675523851
12788726 201 18335140920544780768
13140716 1 18117290164066210187
13224815 77 18042977643156444155
13583140 156 17060338513401955523
13726171 33 18336539507872908409
13782708 43 16009037146537162214
13911987 19 18341627996752841911
14341114 328 18409449210774245907
14739800 52 18269008513929560160
14787075 74 18408605863791007243
14790565 3 18334006181806297728
14840074 17 18411697673366830197
14856354 85 16878215399161848045
15183329 4 18335134290111963414
15219462 58 17201054140378885952
15575132 122 18411420622053525253
17349148 13 18342182218836922843
17492 54 18339090310703692327
17980427 23 18131343137475019717
20511986 3 18130240310100465549
20715895 44 17550682440054247613
21033648 144 18273217461003227686
21033648 29 15410898512889560821
21365058 113 14635143478797466504
21756936 100 18343017749580563098
23559900 14 16878232956692619232
255183 451 17104824517908734527
2838139 119 18413668007389773228
350125 39 18260267434964020041
4098825 35 17894900859341455070
4325135 7 18408319990710100972
4340502 62 17275100622334823058
5104073 3 17131273587598775120
550186 72 18411982442552522981
633830 44 18198623431052879163
7808743 9 18335983086796530434
9981440 41 18342450431234296154

> <PUBCHEM_SHAPE_MULTIPOLES>
573.33
13.97
2.95
1.59
13.85
0.87
0.51
8.08
-3.46
0.33
-0.17
-0.53
-0.57
-1.98

> <PUBCHEM_SHAPE_SELFOVERLAP>
1218.053

> <PUBCHEM_SHAPE_VOLUME>
322.6

> <PUBCHEM_COORDINATE_TYPE>
2
5
10

$$$$

