13617
  -OEChem-06241222393D

 22 22  0     0  0  0  0  0  0999 V2000
   -0.0004   -2.2731   -0.0009 O   0  0  0  0  0  0  0  0  0  0  0  0
    0.0003    2.2730   -0.0004 O   0  0  0  0  0  0  0  0  0  0  0  0
    1.1259   -0.0002   -0.0001 C   0  0  0  0  0  0  0  0  0  0  0  0
   -1.1259    0.0001    0.0002 C   0  0  0  0  0  0  0  0  0  0  0  0
   -0.0001   -1.0584   -0.0003 C   0  0  0  0  0  0  0  0  0  0  0  0
    0.0001    1.0583   -0.0001 C   0  0  0  0  0  0  0  0  0  0  0  0
    1.9757   -0.0002   -1.2480 C   0  0  0  0  0  0  0  0  0  0  0  0
    1.9754   -0.0001    1.2487 C   0  0  0  0  0  0  0  0  0  0  0  0
   -1.9759    0.0008   -1.2480 C   0  0  0  0  0  0  0  0  0  0  0  0
   -1.9752   -0.0003    1.2488 C   0  0  0  0  0  0  0  0  0  0  0  0
    1.3621   -0.0001   -2.1560 H   0  0  0  0  0  0  0  0  0  0  0  0
    2.6201    0.8851   -1.2891 H   0  0  0  0  0  0  0  0  0  0  0  0
    2.6200   -0.8854   -1.2892 H   0  0  0  0  0  0  0  0  0  0  0  0
    2.6196    0.8852    1.2899 H   0  0  0  0  0  0  0  0  0  0  0  0
    1.3611    0.0000    2.1563 H   0  0  0  0  0  0  0  0  0  0  0  0
    2.6197   -0.8853    1.2902 H   0  0  0  0  0  0  0  0  0  0  0  0
   -2.6199    0.8862   -1.2888 H   0  0  0  0  0  0  0  0  0  0  0  0
   -1.3621    0.0009   -2.1559 H   0  0  0  0  0  0  0  0  0  0  0  0
   -2.6204   -0.8842   -1.2894 H   0  0  0  0  0  0  0  0  0  0  0  0
   -2.6194    0.8851    1.2906 H   0  0  0  0  0  0  0  0  0  0  0  0
   -2.6196   -0.8854    1.2899 H   0  0  0  0  0  0  0  0  0  0  0  0
   -1.3609   -0.0006    2.1565 H   0  0  0  0  0  0  0  0  0  0  0  0
  1  5  2  0  0  0  0
  2  6  2  0  0  0  0
  3  5  1  0  0  0  0
  3  6  1  0  0  0  0
  3  7  1  0  0  0  0
  3  8  1  0  0  0  0
  4  5  1  0  0  0  0
  4  6  1  0  0  0  0
  4  9  1  0  0  0  0
  4 10  1  0  0  0  0
  7 11  1  0  0  0  0
  7 12  1  0  0  0  0
  7 13  1  0  0  0  0
  8 14  1  0  0  0  0
  8 15  1  0  0  0  0
  8 16  1  0  0  0  0
  9 17  1  0  0  0  0
  9 18  1  0  0  0  0
  9 19  1  0  0  0  0
 10 20  1  0  0  0  0
 10 21  1  0  0  0  0
 10 22  1  0  0  0  0
M  END
> <PUBCHEM_COMPOUND_CID>
13617

> <PUBCHEM_CONFORMER_RMSD>
0.4

> <PUBCHEM_CONFORMER_DIVERSEORDER>
1

> <PUBCHEM_MMFF94_PARTIAL_CHARGES>
6
1 -0.57
2 -0.57
3 0.11
4 0.11
5 0.46
6 0.46

> <PUBCHEM_EFFECTIVE_ROTOR_COUNT>
0.4

> <PUBCHEM_PHARMACOPHORE_FEATURES>
5
1 1 acceptor
1 2 acceptor
3 3 7 8 hydrophobe
3 4 9 10 hydrophobe
4 3 4 5 6 rings

> <PUBCHEM_HEAVY_ATOM_COUNT>
10

> <PUBCHEM_ATOM_DEF_STEREO_COUNT>
0

> <PUBCHEM_ATOM_UDEF_STEREO_COUNT>
0

> <PUBCHEM_BOND_DEF_STEREO_COUNT>
0

> <PUBCHEM_BOND_UDEF_STEREO_COUNT>
0

> <PUBCHEM_ISOTOPIC_ATOM_COUNT>
0

> <PUBCHEM_COMPONENT_COUNT>
1

> <PUBCHEM_CACTVS_TAUTO_COUNT>
1

> <PUBCHEM_CONFORMER_ID>
0000353100000001

> <PUBCHEM_MMFF94_ENERGY>
6.8393

> <PUBCHEM_FEATURE_SELFOVERLAP>
25.371

> <PUBCHEM_SHAPE_FINGERPRINT>
12423570 1 12677510505894149523
13024252 1 14833843826981242518
137420 1 5866567293857551039
16945 1 18410575084663078918
21040471 1 18410575080426296294
241688 4 18114179769528541707
24536 1 17825381882173395560
29004967 10 18341326773120475041
5084963 1 18040716969560270261
528886 8 18193811886380262160

> <PUBCHEM_SHAPE_MULTIPOLES>
194.06
2.52
1.62
1.26
0
0
0
0
0
0
0
0
0
0

> <PUBCHEM_SHAPE_SELFOVERLAP>
392.269

> <PUBCHEM_SHAPE_VOLUME>
113.1

> <PUBCHEM_COORDINATE_TYPE>
2
5
10

$$$$

