257434
  -OEChem-07051213063D

 60 63  0     0  0  0  0  0  0999 V2000
   -0.9192   -0.6792    0.9260 O   0  0  0  0  0  0  0  0  0  0  0  0
   -4.7476    2.0535    0.3521 O   0  0  0  0  0  0  0  0  0  0  0  0
    6.8474   -0.9283    0.0494 O   0  0  0  0  0  0  0  0  0  0  0  0
   -4.0987   -1.3047    0.0299 N   0  0  0  0  0  0  0  0  0  0  0  0
   -4.9261   -0.5900   -0.9417 C   0  0  0  0  0  0  0  0  0  0  0  0
   -4.9323   -2.4121    0.4968 C   0  0  0  0  0  0  0  0  0  0  0  0
   -5.5748   -1.7176   -1.7309 C   0  0  0  0  0  0  0  0  0  0  0  0
   -5.5821   -2.9140   -0.7843 C   0  0  0  0  0  0  0  0  0  0  0  0
    0.3842   -1.0524    0.4209 C   0  0  0  0  0  0  0  0  0  0  0  0
   -3.6537   -0.4469    1.1182 C   0  0  0  0  0  0  0  0  0  0  0  0
   -2.8013    0.6841    0.6343 C   0  0  0  0  0  0  0  0  0  0  0  0
    1.3295    0.1392    0.2434 C   0  0  0  0  0  0  0  0  0  0  0  0
   -1.4133    0.5342    0.5421 C   0  0  0  0  0  0  0  0  0  0  0  0
    0.8714    1.4029    0.1008 C   0  0  0  0  0  0  0  0  0  0  0  0
   -0.5959    1.5893    0.1251 C   0  0  0  0  0  0  0  0  0  0  0  0
    0.1538   -1.7835   -0.9141 C   0  0  0  0  0  0  0  0  0  0  0  0
    0.8907   -2.0708    1.4595 C   0  0  0  0  0  0  0  0  0  0  0  0
    1.7330    2.6242   -0.1007 C   0  0  0  0  0  0  0  0  0  0  0  0
   -3.3975    1.8905    0.2820 C   0  0  0  0  0  0  0  0  0  0  0  0
    2.7806   -0.1421    0.1927 C   0  0  0  0  0  0  0  0  0  0  0  0
   -1.2169    2.7998   -0.2251 C   0  0  0  0  0  0  0  0  0  0  0  0
   -2.6053    2.9476   -0.1513 C   0  0  0  0  0  0  0  0  0  0  0  0
    1.9807    2.8902   -1.5700 C   0  0  0  0  0  0  0  0  0  0  0  0
    3.5323   -0.1123    1.3637 C   0  0  0  0  0  0  0  0  0  0  0  0
    3.3858   -0.4343   -1.0263 C   0  0  0  0  0  0  0  0  0  0  0  0
    4.9010   -0.3770    1.3153 C   0  0  0  0  0  0  0  0  0  0  0  0
    4.7545   -0.6990   -1.0745 C   0  0  0  0  0  0  0  0  0  0  0  0
    5.5120   -0.6704    0.0963 C   0  0  0  0  0  0  0  0  0  0  0  0
    7.4080   -1.2210   -1.2298 C   0  0  0  0  0  0  0  0  0  0  0  0
   -4.3543    0.0568   -1.6136 H   0  0  0  0  0  0  0  0  0  0  0  0
   -5.7254   -0.0150   -0.4596 H   0  0  0  0  0  0  0  0  0  0  0  0
   -5.7074   -2.0726    1.1958 H   0  0  0  0  0  0  0  0  0  0  0  0
   -4.3429   -3.1957    0.9833 H   0  0  0  0  0  0  0  0  0  0  0  0
   -4.9857   -1.9570   -2.6241 H   0  0  0  0  0  0  0  0  0  0  0  0
   -6.5855   -1.4523   -2.0571 H   0  0  0  0  0  0  0  0  0  0  0  0
   -6.5973   -3.2806   -0.6022 H   0  0  0  0  0  0  0  0  0  0  0  0
   -5.0010   -3.7352   -1.2201 H   0  0  0  0  0  0  0  0  0  0  0  0
   -3.0981   -1.0440    1.8531 H   0  0  0  0  0  0  0  0  0  0  0  0
   -4.5069   -0.0528    1.6884 H   0  0  0  0  0  0  0  0  0  0  0  0
   -0.2129   -1.0962   -1.6856 H   0  0  0  0  0  0  0  0  0  0  0  0
    1.0660   -2.2596   -1.2873 H   0  0  0  0  0  0  0  0  0  0  0  0
   -0.6140   -2.5589   -0.8043 H   0  0  0  0  0  0  0  0  0  0  0  0
    1.8196   -2.5616    1.1516 H   0  0  0  0  0  0  0  0  0  0  0  0
    1.0494   -1.5916    2.4328 H   0  0  0  0  0  0  0  0  0  0  0  0
    0.1425   -2.8554    1.6278 H   0  0  0  0  0  0  0  0  0  0  0  0
    1.3039    3.5066    0.3874 H   0  0  0  0  0  0  0  0  0  0  0  0
    2.7024    2.5008    0.3963 H   0  0  0  0  0  0  0  0  0  0  0  0
   -0.6499    3.6605   -0.5671 H   0  0  0  0  0  0  0  0  0  0  0  0
   -3.0512    3.8980   -0.4325 H   0  0  0  0  0  0  0  0  0  0  0  0
    2.5928    3.7910   -1.6864 H   0  0  0  0  0  0  0  0  0  0  0  0
    1.0511    3.0513   -2.1246 H   0  0  0  0  0  0  0  0  0  0  0  0
    2.5166    2.0691   -2.0537 H   0  0  0  0  0  0  0  0  0  0  0  0
    3.0714    0.1185    2.3208 H   0  0  0  0  0  0  0  0  0  0  0  0
    2.8093   -0.4601   -1.9475 H   0  0  0  0  0  0  0  0  0  0  0  0
   -4.9746    2.9541    0.0634 H   0  0  0  0  0  0  0  0  0  0  0  0
    5.4861   -0.3522    2.2306 H   0  0  0  0  0  0  0  0  0  0  0  0
    5.1647   -0.9193   -2.0541 H   0  0  0  0  0  0  0  0  0  0  0  0
    7.3189   -0.3691   -1.9125 H   0  0  0  0  0  0  0  0  0  0  0  0
    6.9860   -2.1386   -1.6535 H   0  0  0  0  0  0  0  0  0  0  0  0
    8.4777   -1.4004   -1.0804 H   0  0  0  0  0  0  0  0  0  0  0  0
  1  9  1  0  0  0  0
  1 13  1  0  0  0  0
  2 19  1  0  0  0  0
  2 55  1  0  0  0  0
  3 28  1  0  0  0  0
  3 29  1  0  0  0  0
  4  5  1  0  0  0  0
  4  6  1  0  0  0  0
  4 10  1  0  0  0  0
  5  7  1  0  0  0  0
  5 30  1  0  0  0  0
  5 31  1  0  0  0  0
  6  8  1  0  0  0  0
  6 32  1  0  0  0  0
  6 33  1  0  0  0  0
  7  8  1  0  0  0  0
  7 34  1  0  0  0  0
  7 35  1  0  0  0  0
  8 36  1  0  0  0  0
  8 37  1  0  0  0  0
  9 12  1  0  0  0  0
  9 16  1  0  0  0  0
  9 17  1  0  0  0  0
 10 11  1  0  0  0  0
 10 38  1  0  0  0  0
 10 39  1  0  0  0  0
 11 13  1  0  0  0  0
 11 19  2  0  0  0  0
 12 14  2  0  0  0  0
 12 20  1  0  0  0  0
 13 15  2  0  0  0  0
 14 15  1  0  0  0  0
 14 18  1  0  0  0  0
 15 21  1  0  0  0  0
 16 40  1  0  0  0  0
 16 41  1  0  0  0  0
 16 42  1  0  0  0  0
 17 43  1  0  0  0  0
 17 44  1  0  0  0  0
 17 45  1  0  0  0  0
 18 23  1  0  0  0  0
 18 46  1  0  0  0  0
 18 47  1  0  0  0  0
 19 22  1  0  0  0  0
 20 24  2  0  0  0  0
 20 25  1  0  0  0  0
 21 22  2  0  0  0  0
 21 48  1  0  0  0  0
 22 49  1  0  0  0  0
 23 50  1  0  0  0  0
 23 51  1  0  0  0  0
 23 52  1  0  0  0  0
 24 26  1  0  0  0  0
 24 53  1  0  0  0  0
 25 27  2  0  0  0  0
 25 54  1  0  0  0  0
 26 28  2  0  0  0  0
 26 56  1  0  0  0  0
 27 28  1  0  0  0  0
 27 57  1  0  0  0  0
 29 58  1  0  0  0  0
 29 59  1  0  0  0  0
 29 60  1  0  0  0  0
M  END
> <PUBCHEM_COMPOUND_CID>
257434

> <PUBCHEM_CONFORMER_RMSD>
0.8

> <PUBCHEM_CONFORMER_DIVERSEORDER>
1
7
3
9
5
8
6
2
4

> <PUBCHEM_MMFF94_PARTIAL_CHARGES>
31
1 -0.36
10 0.41
11 -0.14
12 -0.17
13 0.08
14 -0.17
15 0.03
18 0.14
19 0.08
2 -0.53
20 0.03
21 -0.15
22 -0.15
24 -0.15
25 -0.15
26 -0.15
27 -0.15
28 0.08
29 0.28
3 -0.36
4 -0.81
48 0.15
49 0.15
5 0.27
53 0.15
54 0.15
55 0.45
56 0.15
57 0.15
6 0.27
9 0.42

> <PUBCHEM_EFFECTIVE_ROTOR_COUNT>
6.4

> <PUBCHEM_PHARMACOPHORE_FEATURES>
10
1 1 acceptor
1 2 donor
1 23 hydrophobe
1 3 acceptor
1 4 cation
3 9 16 17 hydrophobe
5 4 5 6 7 8 rings
6 1 9 12 13 14 15 rings
6 11 13 15 19 21 22 rings
6 20 24 25 26 27 28 rings

> <PUBCHEM_HEAVY_ATOM_COUNT>
29

> <PUBCHEM_ATOM_DEF_STEREO_COUNT>
0

> <PUBCHEM_ATOM_UDEF_STEREO_COUNT>
0

> <PUBCHEM_BOND_DEF_STEREO_COUNT>
0

> <PUBCHEM_BOND_UDEF_STEREO_COUNT>
0

> <PUBCHEM_ISOTOPIC_ATOM_COUNT>
0

> <PUBCHEM_COMPONENT_COUNT>
1

> <PUBCHEM_CACTVS_TAUTO_COUNT>
3

> <PUBCHEM_CONFORMER_ID>
0003ED9A00000001

> <PUBCHEM_MMFF94_ENERGY>
101.7706

> <PUBCHEM_FEATURE_SELFOVERLAP>
50.772

> <PUBCHEM_SHAPE_FINGERPRINT>
10076449 9 17676479541858298798
10411042 1 18338514132562066899
10693767 8 18118412735357860207
11578080 2 13986051363000676616
11607047 403 16740608014151953721
11963148 33 18408892823663871726
12166972 35 18334010562873179080
12236239 1 17417801894929912008
12403260 363 18341895168929131089
12422481 6 17385716963882809063
13140716 1 18413101758421888745
13583140 156 15357693132584569931
13782708 43 17894631474534775470
13862211 1 18411984654697368610
14068700 675 18411703179314573364
14294032 229 18126848424958469189
14955137 171 18040155119540963848
15131766 46 15766634398125618021
15183329 4 16128665149367673863
16087824 20 18267588082931618901
17349148 13 18202560670422165915
17980427 23 17917135186945309021
18222031 100 18341900675462021288
18681886 176 18336553737262349418
18927931 339 18411695496119019915
20028762 73 18261395507507753294
20775438 99 17615708240552083519
21033648 144 16271345423482531614
21033648 29 17822869661792915376
21236236 1 18409448111135777243
21267235 1 18412258416302874507
21709351 56 18343023293998311357
22393880 68 18343032085959734101
23402539 116 18341330076071612262
23559900 14 18411426085426382193
23576562 1 18060416911275438325
23622692 118 18409732829161319757
24771293 8 18341333315105513032
249057 3 18411421743963350253
25147074 1 18340472401331630129
3004659 81 18272379620611322991
335352 9 18342174510014334749
3380486 145 18266158703732596969
397830 11 17676784089098572234
4280585 95 18410863127146257023
484989 97 17773020969627566251

> <PUBCHEM_SHAPE_MULTIPOLES>
574.22
14.62
3.29
1.34
9.51
1.68
-0.16
-10.53
-3.9
-3.63
-0.69
0.34
-0.39
-0.92

> <PUBCHEM_SHAPE_SELFOVERLAP>
1244.518

> <PUBCHEM_SHAPE_VOLUME>
317.6

> <PUBCHEM_COORDINATE_TYPE>
2
5
10

$$$$

