5281450
  -OEChem-07051212573D

 58 59  0     1  0  0  0  0  0999 V2000
   -2.1543    2.1527    0.1332 O   0  0  0  0  0  0  0  0  0  0  0  0
    1.7129    0.9196    0.1627 O   0  0  0  0  0  0  0  0  0  0  0  0
   -1.5345   -0.9760   -1.7316 O   0  0  0  0  0  0  0  0  0  0  0  0
    2.0110   -2.7170   -0.4094 O   0  0  0  0  0  0  0  0  0  0  0  0
   -1.9480    4.4380   -0.0125 O   0  0  0  0  0  0  0  0  0  0  0  0
   -4.1812   -2.7268    0.5948 O   0  0  0  0  0  0  0  0  0  0  0  0
    3.6314   -0.0212    1.0204 O   0  0  0  0  0  0  0  0  0  0  0  0
   -3.7956   -0.5061   -1.6719 O   0  0  0  0  0  0  0  0  0  0  0  0
   -0.2460    1.6262    1.4324 C   0  0  1  0  0  0  0  0  0  0  0  0
   -1.2650    1.0578    0.4370 C   0  0  1  0  0  0  0  0  0  0  0  0
    1.1140    0.9000    1.4519 C   0  0  1  0  0  0  0  0  0  0  0  0
   -0.2372    3.0545    0.9873 C   0  0  0  0  0  0  0  0  0  0  0  0
   -2.0895   -0.0601    1.0144 C   0  0  0  0  0  0  0  0  0  0  0  0
   -1.6988   -1.9432   -0.6980 C   0  0  1  0  0  0  0  0  0  0  0  0
   -0.4032   -2.7559   -0.5301 C   0  0  0  0  0  0  0  0  0  0  0  0
   -2.2528   -1.3245    0.5732 C   0  0  0  0  0  0  0  0  0  0  0  0
    0.8382   -1.9763   -0.0465 C   0  0  1  0  0  0  0  0  0  0  0  0
    1.0025   -0.4918    2.0299 C   0  0  0  0  0  0  0  0  0  0  0  0
    0.9018   -1.7054    1.4473 C   0  0  0  0  0  0  0  0  0  0  0  0
   -1.5177    3.3455    0.3098 C   0  0  0  0  0  0  0  0  0  0  0  0
   -3.1038   -2.2738    1.3858 C   0  0  0  0  0  0  0  0  0  0  0  0
    0.8610   -2.9226    2.3471 C   0  0  0  0  0  0  0  0  0  0  0  0
    0.7113    3.9878    1.1014 C   0  0  0  0  0  0  0  0  0  0  0  0
    2.9839    0.4263    0.0847 C   0  0  0  0  0  0  0  0  0  0  0  0
   -2.6721   -0.3292   -2.1234 C   0  0  0  0  0  0  0  0  0  0  0  0
    3.4770    0.5189   -1.3232 C   0  0  0  0  0  0  0  0  0  0  0  0
   -2.3489    0.6523   -3.2089 C   0  0  0  0  0  0  0  0  0  0  0  0
    2.9280    1.6053   -2.1996 C   0  0  0  0  0  0  0  0  0  0  0  0
    4.3663   -0.4196   -1.6967 C   0  0  0  0  0  0  0  0  0  0  0  0
    4.9094   -1.5355   -0.8615 C   0  0  0  0  0  0  0  0  0  0  0  0
   -0.6681    1.6165    2.4485 H   0  0  0  0  0  0  0  0  0  0  0  0
   -0.7648    0.7857   -0.4929 H   0  0  0  0  0  0  0  0  0  0  0  0
    1.7796    1.4629    2.1218 H   0  0  0  0  0  0  0  0  0  0  0  0
   -2.5977    0.2111    1.9406 H   0  0  0  0  0  0  0  0  0  0  0  0
   -2.4331   -2.6597   -1.0912 H   0  0  0  0  0  0  0  0  0  0  0  0
   -0.5845   -3.6264    0.1111 H   0  0  0  0  0  0  0  0  0  0  0  0
   -0.1596   -3.1798   -1.5151 H   0  0  0  0  0  0  0  0  0  0  0  0
    0.8731   -1.0571   -0.6286 H   0  0  0  0  0  0  0  0  0  0  0  0
    1.0067   -0.4725    3.1213 H   0  0  0  0  0  0  0  0  0  0  0  0
   -3.5102   -1.8151    2.2933 H   0  0  0  0  0  0  0  0  0  0  0  0
   -2.5137   -3.1416    1.6953 H   0  0  0  0  0  0  0  0  0  0  0  0
   -0.1221   -3.3995    2.3127 H   0  0  0  0  0  0  0  0  0  0  0  0
    1.0652   -2.6759    3.3948 H   0  0  0  0  0  0  0  0  0  0  0  0
    1.6158   -3.6533    2.0392 H   0  0  0  0  0  0  0  0  0  0  0  0
    1.6543    3.7741    1.5920 H   0  0  0  0  0  0  0  0  0  0  0  0
    0.5748    4.9913    0.7120 H   0  0  0  0  0  0  0  0  0  0  0  0
    2.0268   -2.7869   -1.3792 H   0  0  0  0  0  0  0  0  0  0  0  0
   -4.7202   -1.9538    0.3541 H   0  0  0  0  0  0  0  0  0  0  0  0
   -1.9823    0.1204   -4.0903 H   0  0  0  0  0  0  0  0  0  0  0  0
   -1.6037    1.3693   -2.8554 H   0  0  0  0  0  0  0  0  0  0  0  0
   -3.2545    1.2016   -3.4818 H   0  0  0  0  0  0  0  0  0  0  0  0
    3.4436    1.6379   -3.1651 H   0  0  0  0  0  0  0  0  0  0  0  0
    1.8629    1.4453   -2.3961 H   0  0  0  0  0  0  0  0  0  0  0  0
    3.0555    2.5826   -1.7229 H   0  0  0  0  0  0  0  0  0  0  0  0
    4.7500   -0.3781   -2.7145 H   0  0  0  0  0  0  0  0  0  0  0  0
    5.0919   -2.3990   -1.5118 H   0  0  0  0  0  0  0  0  0  0  0  0
    4.2603   -1.8981   -0.0675 H   0  0  0  0  0  0  0  0  0  0  0  0
    5.8725   -1.2439   -0.4310 H   0  0  0  0  0  0  0  0  0  0  0  0
  1 10  1  0  0  0  0
  1 20  1  0  0  0  0
  2 11  1  0  0  0  0
  2 24  1  0  0  0  0
  3 14  1  0  0  0  0
  3 25  1  0  0  0  0
  4 17  1  0  0  0  0
  4 47  1  0  0  0  0
  5 20  2  0  0  0  0
  6 21  1  0  0  0  0
  6 48  1  0  0  0  0
  7 24  2  0  0  0  0
  8 25  2  0  0  0  0
  9 10  1  0  0  0  0
  9 11  1  0  0  0  0
  9 12  1  0  0  0  0
  9 31  1  0  0  0  0
 10 13  1  0  0  0  0
 10 32  1  0  0  0  0
 11 18  1  0  0  0  0
 11 33  1  0  0  0  0
 12 20  1  0  0  0  0
 12 23  2  0  0  0  0
 13 16  2  0  0  0  0
 13 34  1  0  0  0  0
 14 15  1  0  0  0  0
 14 16  1  0  0  0  0
 14 35  1  0  0  0  0
 15 17  1  0  0  0  0
 15 36  1  0  0  0  0
 15 37  1  0  0  0  0
 16 21  1  0  0  0  0
 17 19  1  0  0  0  0
 17 38  1  0  0  0  0
 18 19  2  0  0  0  0
 18 39  1  0  0  0  0
 19 22  1  0  0  0  0
 21 40  1  0  0  0  0
 21 41  1  0  0  0  0
 22 42  1  0  0  0  0
 22 43  1  0  0  0  0
 22 44  1  0  0  0  0
 23 45  1  0  0  0  0
 23 46  1  0  0  0  0
 24 26  1  0  0  0  0
 25 27  1  0  0  0  0
 26 28  1  0  0  0  0
 26 29  2  0  0  0  0
 27 49  1  0  0  0  0
 27 50  1  0  0  0  0
 27 51  1  0  0  0  0
 28 52  1  0  0  0  0
 28 53  1  0  0  0  0
 28 54  1  0  0  0  0
 29 30  1  0  0  0  0
 29 55  1  0  0  0  0
 30 56  1  0  0  0  0
 30 57  1  0  0  0  0
 30 58  1  0  0  0  0
M  END
> <PUBCHEM_COMPOUND_CID>
5281450

> <PUBCHEM_CONFORMER_RMSD>
0.8

> <PUBCHEM_CONFORMER_DIVERSEORDER>
2
6
7
9
8
3
5
4
1

> <PUBCHEM_MMFF94_PARTIAL_CHARGES>
36
1 -0.43
10 0.42
11 0.42
12 -0.12
13 -0.29
14 0.42
16 -0.28
17 0.42
18 -0.29
19 -0.28
2 -0.43
20 0.71
21 0.42
22 0.14
23 -0.3
24 0.71
25 0.66
26 -0.12
27 0.06
28 0.14
29 -0.29
3 -0.43
30 0.14
34 0.15
39 0.15
4 -0.68
45 0.15
46 0.15
47 0.4
48 0.4
5 -0.57
55 0.15
6 -0.68
7 -0.57
8 -0.57
9 0.14

> <PUBCHEM_EFFECTIVE_ROTOR_COUNT>
7

> <PUBCHEM_PHARMACOPHORE_FEATURES>
10
1 28 hydrophobe
1 30 hydrophobe
1 4 acceptor
1 4 donor
1 5 acceptor
1 6 acceptor
1 6 donor
1 7 acceptor
1 8 acceptor
5 1 9 10 12 20 rings

> <PUBCHEM_HEAVY_ATOM_COUNT>
30

> <PUBCHEM_ATOM_DEF_STEREO_COUNT>
5

> <PUBCHEM_ATOM_UDEF_STEREO_COUNT>
0

> <PUBCHEM_BOND_DEF_STEREO_COUNT>
3

> <PUBCHEM_BOND_UDEF_STEREO_COUNT>
0

> <PUBCHEM_ISOTOPIC_ATOM_COUNT>
0

> <PUBCHEM_COMPONENT_COUNT>
1

> <PUBCHEM_CACTVS_TAUTO_COUNT>
1

> <PUBCHEM_CONFORMER_ID>
005096AA00000002

> <PUBCHEM_MMFF94_ENERGY>
70.9307

> <PUBCHEM_FEATURE_SELFOVERLAP>
50.744

> <PUBCHEM_SHAPE_FINGERPRINT>
11513181 2 16817971795118721047
12156800 1 16107740236199680481
12422481 6 17173446472800228226
12553582 1 18116425951931348212
12788726 201 18193004926961725137
13140716 1 18267037071937254833
13149001 5 17835234550230507098
14251751 93 18194384805353671710
16945 1 18262238807213891170
1813 80 17897148157180204388
18981168 100 14044318890760556732
19930381 70 17903343823746302998
20600515 1 16882495763379546883
20645476 183 18053653960891264297
20691752 17 18113905918219514938
22907989 373 18341885299136613196
229495 10 17203049719998347337
23419403 2 16835407897892750459
238 59 16823394659875735029
2748010 2 17978816522633383465
35225 105 18049121666676989188
3797600 57 14690625848677890835
7226269 152 18269289975978917312

> <PUBCHEM_SHAPE_MULTIPOLES>
570.43
6.41
4.58
2.49
4.29
3.59
-1.25
-2.78
-3.47
-2.02
1.78
-0.45
-0.19
0.1

> <PUBCHEM_SHAPE_SELFOVERLAP>
1184.623

> <PUBCHEM_SHAPE_VOLUME>
322

> <PUBCHEM_COORDINATE_TYPE>
2
5
10

$$$$

