9543075
  -OEChem-07051213082D

 26 26  0     0  0  0  0  0  0999 V2000
    6.0010   -1.8450    0.0000 S   0  0  0  0  0  0  0  0  0  0  0  0
    2.5369    0.1550    0.0000 O   0  0  0  0  0  0  0  0  0  0  0  0
    6.8671   -2.3450    0.0000 O   0  0  0  0  0  0  0  0  0  0  0  0
    5.5010   -2.7110    0.0000 O   0  0  0  0  0  0  0  0  0  0  0  0
    6.5010   -0.9790    0.0000 O   0  0  0  0  0  0  0  0  0  0  0  0
    6.0010    0.1550    0.0000 O   0  0  0  0  0  0  0  0  0  0  0  0
    6.8671    2.6550    0.0000 O   0  0  0  0  0  0  0  0  0  0  0  0
    7.7331    1.1550    0.0000 O   0  0  0  0  0  0  0  0  0  0  0  0
    5.1350   -1.3450    0.0000 C   0  0  0  0  0  0  0  0  0  0  0  0
    4.2690    0.1550    0.0000 C   0  0  0  0  0  0  0  0  0  0  0  0
    5.1350   -0.3450    0.0000 C   0  0  0  0  0  0  0  0  0  0  0  0
    3.4030   -0.3450    0.0000 C   0  0  0  0  0  0  0  0  0  0  0  0
    4.2690   -1.8450    0.0000 C   0  0  0  0  0  0  0  0  0  0  0  0
    3.4030   -1.3450    0.0000 C   0  0  0  0  0  0  0  0  0  0  0  0
    4.2690    1.1550    0.0000 C   0  0  0  0  0  0  0  0  0  0  0  0
    5.1350    1.6550    0.0000 C   0  0  0  0  0  0  0  0  0  0  0  0
    6.0010    1.1550    0.0000 C   0  0  0  0  0  0  0  0  0  0  0  0
    6.8671    1.6550    0.0000 C   0  0  0  0  0  0  0  0  0  0  0  0
    5.6720   -0.0350    0.0000 H   0  0  0  0  0  0  0  0  0  0  0  0
    4.2690   -2.4650    0.0000 H   0  0  0  0  0  0  0  0  0  0  0  0
    2.8660   -1.6550    0.0000 H   0  0  0  0  0  0  0  0  0  0  0  0
    3.7320    1.4650    0.0000 H   0  0  0  0  0  0  0  0  0  0  0  0
    5.1350    2.2750    0.0000 H   0  0  0  0  0  0  0  0  0  0  0  0
    2.0000   -0.1550    0.0000 H   0  0  0  0  0  0  0  0  0  0  0  0
    6.8671   -2.9650    0.0000 H   0  0  0  0  0  0  0  0  0  0  0  0
    7.4040    2.9650    0.0000 H   0  0  0  0  0  0  0  0  0  0  0  0
  1  3  1  0  0  0  0
  1  4  2  0  0  0  0
  1  5  2  0  0  0  0
  1  9  1  0  0  0  0
  2 12  1  0  0  0  0
  2 24  1  0  0  0  0
  3 25  1  0  0  0  0
  6 17  2  0  0  0  0
  7 18  1  0  0  0  0
  7 26  1  0  0  0  0
  8 18  2  0  0  0  0
  9 11  2  0  0  0  0
  9 13  1  0  0  0  0
 10 11  1  0  0  0  0
 10 12  2  0  0  0  0
 10 15  1  0  0  0  0
 11 19  1  0  0  0  0
 12 14  1  0  0  0  0
 13 14  2  0  0  0  0
 13 20  1  0  0  0  0
 14 21  1  0  0  0  0
 15 16  2  0  0  0  0
 15 22  1  0  0  0  0
 16 17  1  0  0  0  0
 16 23  1  0  0  0  0
 17 18  1  0  0  0  0
M  END
> <PUBCHEM_COMPOUND_CID>
9543075

> <PUBCHEM_COMPOUND_CANONICALIZED>
1

> <PUBCHEM_CACTVS_COMPLEXITY>
459

> <PUBCHEM_CACTVS_HBOND_ACCEPTOR>
7

> <PUBCHEM_CACTVS_HBOND_DONOR>
3

> <PUBCHEM_CACTVS_ROTATABLE_BOND>
4

> <PUBCHEM_CACTVS_SUBSKEYS>
AAADccBwOABAAAAAAAAAAAAAAAAAAAAAAAAwAAAAAAAAAAABAAAAGgQACAAADASA2AAwD4AAAoKIAqDSCHJCAEAgIAAIiBlGCMgIJiKCERKAcAAkwBEImYeAwCAOAIAAgAAIAAABAAEAABAAAAAAAAAAAA==

> <PUBCHEM_IUPAC_OPENEYE_NAME>
(Z)-4-(2-hydroxy-5-sulfo-phenyl)-2-oxo-but-3-enoic acid

> <PUBCHEM_IUPAC_CAS_NAME>
(Z)-4-(2-hydroxy-5-sulfophenyl)-2-oxo-3-butenoic acid

> <PUBCHEM_IUPAC_NAME>
(Z)-4-(2-hydroxy-5-sulfophenyl)-2-oxobut-3-enoic acid

> <PUBCHEM_IUPAC_SYSTEMATIC_NAME>
(Z)-2-oxidanylidene-4-(2-oxidanyl-5-sulfo-phenyl)but-3-enoic acid

> <PUBCHEM_IUPAC_TRADITIONAL_NAME>
(Z)-4-(2-hydroxy-5-sulfo-phenyl)-2-keto-but-3-enoic acid

> <PUBCHEM_IUPAC_INCHI>
InChI=1S/C10H8O7S/c11-8-4-2-7(18(15,16)17)5-6(8)1-3-9(12)10(13)14/h1-5,11H,(H,13,14)(H,15,16,17)/b3-1-

> <PUBCHEM_IUPAC_INCHIKEY>
ZRICKMGOUHGYSD-IWQZZHSRSA-N

> <PUBCHEM_XLOGP3_AA>
0.1

> <PUBCHEM_EXACT_MASS>
271.999074

> <PUBCHEM_MOLECULAR_FORMULA>
C10H8O7S

> <PUBCHEM_MOLECULAR_WEIGHT>
272.23132

> <PUBCHEM_OPENEYE_CAN_SMILES>
C1=CC(=C(C=C1S(=O)(=O)O)C=CC(=O)C(=O)O)O

> <PUBCHEM_OPENEYE_ISO_SMILES>
C1=CC(=C(C=C1S(=O)(=O)O)/C=C\C(=O)C(=O)O)O

> <PUBCHEM_CACTVS_TPSA>
137

> <PUBCHEM_MONOISOTOPIC_WEIGHT>
271.999074

> <PUBCHEM_TOTAL_CHARGE>
0

> <PUBCHEM_HEAVY_ATOM_COUNT>
18

> <PUBCHEM_ATOM_DEF_STEREO_COUNT>
0

> <PUBCHEM_ATOM_UDEF_STEREO_COUNT>
0

> <PUBCHEM_BOND_DEF_STEREO_COUNT>
1

> <PUBCHEM_BOND_UDEF_STEREO_COUNT>
0

> <PUBCHEM_ISOTOPIC_ATOM_COUNT>
0

> <PUBCHEM_COMPONENT_COUNT>
1

> <PUBCHEM_CACTVS_TAUTO_COUNT>
5

> <PUBCHEM_COORDINATE_TYPE>
1
5
255

> <PUBCHEM_BONDANNOTATIONS>
10  11  8
10  12  8
12  14  8
13  14  8
9  11  8
9  13  8

$$$$

