147311
  -OEChem-07051213103D

 20 21  0     0  0  0  0  0  0999 V2000
    2.7264    1.3744   -0.0245 O   0  0  0  0  0  0  0  0  0  0  0  0
    2.6996   -1.4005   -0.0070 O   0  0  0  0  0  0  0  0  0  0  0  0
   -2.1594   -1.1862    0.0753 N   0  0  0  0  0  0  0  0  0  0  0  0
   -2.2416    1.2275    0.0921 C   0  0  0  0  0  0  0  0  0  0  0  0
   -0.8412    0.7139    0.0153 C   0  0  0  0  0  0  0  0  0  0  0  0
   -3.0555   -0.0604   -0.1595 C   0  0  0  0  0  0  0  0  0  0  0  0
   -0.8619   -0.6830    0.0031 C   0  0  0  0  0  0  0  0  0  0  0  0
    0.3469    1.4227    0.0059 C   0  0  0  0  0  0  0  0  0  0  0  0
    0.3185   -1.4051    0.0151 C   0  0  0  0  0  0  0  0  0  0  0  0
    1.5410    0.7004   -0.0118 C   0  0  0  0  0  0  0  0  0  0  0  0
    1.5271   -0.7036   -0.0039 C   0  0  0  0  0  0  0  0  0  0  0  0
   -2.4426    1.6262    1.0918 H   0  0  0  0  0  0  0  0  0  0  0  0
   -2.4546    1.9889   -0.6634 H   0  0  0  0  0  0  0  0  0  0  0  0
   -3.9355   -0.1102    0.4896 H   0  0  0  0  0  0  0  0  0  0  0  0
   -3.4028   -0.0873   -1.1998 H   0  0  0  0  0  0  0  0  0  0  0  0
   -2.3810   -2.1351   -0.1915 H   0  0  0  0  0  0  0  0  0  0  0  0
    0.3493    2.5075    0.0202 H   0  0  0  0  0  0  0  0  0  0  0  0
    0.3003   -2.4904    0.0354 H   0  0  0  0  0  0  0  0  0  0  0  0
    3.4485    0.7223   -0.0325 H   0  0  0  0  0  0  0  0  0  0  0  0
    2.5019   -2.3529    0.0007 H   0  0  0  0  0  0  0  0  0  0  0  0
  1 10  1  0  0  0  0
  1 19  1  0  0  0  0
  2 11  1  0  0  0  0
  2 20  1  0  0  0  0
  3  6  1  0  0  0  0
  3  7  1  0  0  0  0
  3 16  1  0  0  0  0
  4  5  1  0  0  0  0
  4  6  1  0  0  0  0
  4 12  1  0  0  0  0
  4 13  1  0  0  0  0
  5  7  1  0  0  0  0
  5  8  2  0  0  0  0
  6 14  1  0  0  0  0
  6 15  1  0  0  0  0
  7  9  2  0  0  0  0
  8 10  1  0  0  0  0
  8 17  1  0  0  0  0
  9 11  1  0  0  0  0
  9 18  1  0  0  0  0
 10 11  2  0  0  0  0
M  END
> <PUBCHEM_COMPOUND_CID>
147311

> <PUBCHEM_CONFORMER_RMSD>
0.4

> <PUBCHEM_CONFORMER_DIVERSEORDER>
1

> <PUBCHEM_MMFF94_PARTIAL_CHARGES>
16
1 -0.53
10 0.08
11 0.08
16 0.4
17 0.15
18 0.15
19 0.45
2 -0.53
20 0.45
3 -0.87
4 0.14
5 -0.14
6 0.37
7 0.1
8 -0.15
9 -0.15

> <PUBCHEM_EFFECTIVE_ROTOR_COUNT>
0.6

> <PUBCHEM_PHARMACOPHORE_FEATURES>
6
1 1 donor
1 2 donor
1 3 cation
1 3 donor
5 3 4 5 6 7 rings
6 5 7 8 9 10 11 rings

> <PUBCHEM_HEAVY_ATOM_COUNT>
11

> <PUBCHEM_ATOM_DEF_STEREO_COUNT>
0

> <PUBCHEM_ATOM_UDEF_STEREO_COUNT>
0

> <PUBCHEM_BOND_DEF_STEREO_COUNT>
0

> <PUBCHEM_BOND_UDEF_STEREO_COUNT>
0

> <PUBCHEM_ISOTOPIC_ATOM_COUNT>
0

> <PUBCHEM_COMPONENT_COUNT>
1

> <PUBCHEM_CACTVS_TAUTO_COUNT>
25

> <PUBCHEM_CONFORMER_ID>
00023F6F00000001

> <PUBCHEM_MMFF94_ENERGY>
38.2511

> <PUBCHEM_FEATURE_SELFOVERLAP>
30.542

> <PUBCHEM_SHAPE_FINGERPRINT>
12423570 1 13083895806200161734
12897270 3 18410292467335973853
12932764 1 17489310840495956363
13380535 76 18339647724523370922
14128692 85 18337106860320008670
14325111 11 18410856559793017229
16945 1 18265895744127439353
19973954 147 18411134744803563217
20201158 50 18337956808536099663
21040471 1 18338797797513266376
21501502 16 18409729577575365601
23235685 24 18340211769329637645
23402655 69 18336280006897800117
23552423 10 18343863320454501622
241688 4 18341049734655297992
2748010 2 18411136935110147359
369184 2 18409730664312789865
5084963 1 18261114118413752075
528886 8 18410297982031725489
53812653 166 18188776028699461240
7364860 26 18261111876920734864

> <PUBCHEM_SHAPE_MULTIPOLES>
209.66
4
1.7
0.6
0.33
0.03
0
0.01
0.09
-0.45
-0.02
0.04
0.01
-0.02

> <PUBCHEM_SHAPE_SELFOVERLAP>
456.844

> <PUBCHEM_SHAPE_VOLUME>
117.3

> <PUBCHEM_COORDINATE_TYPE>
2
5
10

$$$$

