76738
  -OEChem-07051213102D

 19 19  0     0  0  0  0  0  0999 V2000
    4.2690    1.7500    0.0000 O   0  0  0  0  0  0  0  0  0  0  0  0
    2.5369    0.7500    0.0000 O   0  0  0  0  0  0  0  0  0  0  0  0
    6.0010   -2.2500    0.0000 O   0  5  0  0  0  0  0  0  0  0  0  0
    6.8671   -0.7500    0.0000 O   0  0  0  0  0  0  0  0  0  0  0  0
    6.0010   -1.2500    0.0000 N   0  3  0  0  0  0  0  0  0  0  0  0
    4.2690    0.7500    0.0000 C   0  0  0  0  0  0  0  0  0  0  0  0
    5.1350   -0.7500    0.0000 C   0  0  0  0  0  0  0  0  0  0  0  0
    5.1350    0.2500    0.0000 C   0  0  0  0  0  0  0  0  0  0  0  0
    3.4030    0.2500    0.0000 C   0  0  0  0  0  0  0  0  0  0  0  0
    4.2690   -1.2500    0.0000 C   0  0  0  0  0  0  0  0  0  0  0  0
    3.4030   -0.7500    0.0000 C   0  0  0  0  0  0  0  0  0  0  0  0
    5.1350    2.2500    0.0000 C   0  0  0  0  0  0  0  0  0  0  0  0
    5.6720    0.5600    0.0000 H   0  0  0  0  0  0  0  0  0  0  0  0
    4.2690   -1.8700    0.0000 H   0  0  0  0  0  0  0  0  0  0  0  0
    2.8660   -1.0600    0.0000 H   0  0  0  0  0  0  0  0  0  0  0  0
    5.4450    1.7131    0.0000 H   0  0  0  0  0  0  0  0  0  0  0  0
    5.6720    2.5600    0.0000 H   0  0  0  0  0  0  0  0  0  0  0  0
    4.8250    2.7869    0.0000 H   0  0  0  0  0  0  0  0  0  0  0  0
    2.0000    0.4400    0.0000 H   0  0  0  0  0  0  0  0  0  0  0  0
  1  6  1  0  0  0  0
  1 12  1  0  0  0  0
  2  9  1  0  0  0  0
  2 19  1  0  0  0  0
  3  5  1  0  0  0  0
  4  5  2  0  0  0  0
  5  7  1  0  0  0  0
  6  8  1  0  0  0  0
  6  9  2  0  0  0  0
  7  8  2  0  0  0  0
  7 10  1  0  0  0  0
  8 13  1  0  0  0  0
  9 11  1  0  0  0  0
 10 11  2  0  0  0  0
 10 14  1  0  0  0  0
 11 15  1  0  0  0  0
 12 16  1  0  0  0  0
 12 17  1  0  0  0  0
 12 18  1  0  0  0  0
M  CHG  2   3  -1   5   1
M  END
> <PUBCHEM_COMPOUND_CID>
76738

> <PUBCHEM_COMPOUND_CANONICALIZED>
1

> <PUBCHEM_CACTVS_COMPLEXITY>
167

> <PUBCHEM_CACTVS_HBOND_ACCEPTOR>
4

> <PUBCHEM_CACTVS_HBOND_DONOR>
1

> <PUBCHEM_CACTVS_ROTATABLE_BOND>
1

> <PUBCHEM_CACTVS_SUBSKEYS>
AAADcYBiOAAAAAAAAAAAAAAAAAAAAAAAAAAwAAAAAAAAAAABAAAAHgAECAAACAyBkAIyxoAQRgCBACRCQwCCCAAgIgAoiAAG7IoNJiKGsZuAcCNmwBkL+AewUAEAAEAAAgAAQAAAgAAEAACAAAAAAAAAAA==

> <PUBCHEM_IUPAC_OPENEYE_NAME>
2-methoxy-4-nitro-phenol

> <PUBCHEM_IUPAC_CAS_NAME>
2-methoxy-4-nitrophenol

> <PUBCHEM_IUPAC_NAME>
2-methoxy-4-nitrophenol

> <PUBCHEM_IUPAC_SYSTEMATIC_NAME>
2-methoxy-4-nitro-phenol

> <PUBCHEM_IUPAC_TRADITIONAL_NAME>
2-methoxy-4-nitro-phenol

> <PUBCHEM_IUPAC_INCHI>
InChI=1S/C7H7NO4/c1-12-7-4-5(8(10)11)2-3-6(7)9/h2-4,9H,1H3

> <PUBCHEM_IUPAC_INCHIKEY>
IZLVFLOBTPURLP-UHFFFAOYSA-N

> <PUBCHEM_XLOGP3>
0.7

> <PUBCHEM_EXACT_MASS>
169.037508

> <PUBCHEM_MOLECULAR_FORMULA>
C7H7NO4

> <PUBCHEM_MOLECULAR_WEIGHT>
169.13478

> <PUBCHEM_OPENEYE_CAN_SMILES>
COC1=C(C=CC(=C1)[N+](=O)[O-])O

> <PUBCHEM_OPENEYE_ISO_SMILES>
COC1=C(C=CC(=C1)[N+](=O)[O-])O

> <PUBCHEM_CACTVS_TPSA>
75.3

> <PUBCHEM_MONOISOTOPIC_WEIGHT>
169.037508

> <PUBCHEM_TOTAL_CHARGE>
0

> <PUBCHEM_HEAVY_ATOM_COUNT>
12

> <PUBCHEM_ATOM_DEF_STEREO_COUNT>
0

> <PUBCHEM_ATOM_UDEF_STEREO_COUNT>
0

> <PUBCHEM_BOND_DEF_STEREO_COUNT>
0

> <PUBCHEM_BOND_UDEF_STEREO_COUNT>
0

> <PUBCHEM_ISOTOPIC_ATOM_COUNT>
0

> <PUBCHEM_COMPONENT_COUNT>
1

> <PUBCHEM_CACTVS_TAUTO_COUNT>
3

> <PUBCHEM_COORDINATE_TYPE>
1
5
255

> <PUBCHEM_BONDANNOTATIONS>
10  11  8
6  8  8
6  9  8
7  10  8
7  8  8
9  11  8

$$$$

