108109
  -OEChem-07051212503D

 75 79  0     1  0  0  0  0  0999 V2000
   -4.0013   -1.6786    0.2044 O   0  0  0  0  0  0  0  0  0  0  0  0
   -6.7400    2.2029   -0.4869 O   0  0  0  0  0  0  0  0  0  0  0  0
   -3.9518   -0.2845   -0.2063 C   0  0  1  0  0  0  0  0  0  0  0  0
   -2.8745    0.5255    0.5472 C   0  0  1  0  0  0  0  0  0  0  0  0
   -1.4067    0.1564    0.0574 C   0  0  2  0  0  0  0  0  0  0  0  0
   -1.2109   -1.3635   -0.2304 C   0  0  2  0  0  0  0  0  0  0  0  0
   -3.5654   -1.4259   -1.1243 C   0  0  1  0  0  0  0  0  0  0  0  0
    0.2469   -1.6315   -0.6272 C   0  0  1  0  0  0  0  0  0  0  0  0
    1.2673   -1.1797    0.4346 C   0  0  2  0  0  0  0  0  0  0  0  0
   -2.1475   -1.7977   -1.3699 C   0  0  0  0  0  0  0  0  0  0  0  0
   -0.2931    0.7438    0.9737 C   0  0  0  0  0  0  0  0  0  0  0  0
   -5.3580    0.2665   -0.2505 C   0  0  0  0  0  0  0  0  0  0  0  0
    1.1351    0.3416    0.5744 C   0  0  0  0  0  0  0  0  0  0  0  0
   -3.0704    2.0497    0.2598 C   0  0  0  0  0  0  0  0  0  0  0  0
    2.5715   -1.6532   -0.2520 C   0  0  2  0  0  0  0  0  0  0  0  0
    0.6683   -3.0641   -0.9452 C   0  0  0  0  0  0  0  0  0  0  0  0
   -3.0531    0.2777    2.0654 C   0  0  0  0  0  0  0  0  0  0  0  0
    2.2025   -3.0436   -0.8188 C   0  0  0  0  0  0  0  0  0  0  0  0
   -5.3963    1.7464   -0.5943 C   0  0  2  0  0  0  0  0  0  0  0  0
   -4.5109    2.5361    0.3589 C   0  0  0  0  0  0  0  0  0  0  0  0
    1.0824   -1.8590    1.8138 C   0  0  0  0  0  0  0  0  0  0  0  0
    3.8244   -1.6792    0.6117 C   0  0  2  0  0  0  0  0  0  0  0  0
    4.2010   -0.2859    1.1577 C   0  0  0  0  0  0  0  0  0  0  0  0
    5.0023   -2.2476   -0.1899 C   0  0  0  0  0  0  0  0  0  0  0  0
    4.5543    0.7755    0.1074 C   0  0  0  0  0  0  0  0  0  0  0  0
    4.9908    2.1132    0.7131 C   0  0  0  0  0  0  0  0  0  0  0  0
    5.2766    3.2000   -0.3417 C   0  0  0  0  0  0  0  0  0  0  0  0
    4.0749    3.4682   -1.2490 C   0  0  0  0  0  0  0  0  0  0  0  0
    6.4817    2.7906   -1.1929 C   0  0  0  0  0  0  0  0  0  0  0  0
   -1.2676    0.6471   -0.9192 H   0  0  0  0  0  0  0  0  0  0  0  0
   -1.4608   -1.9400    0.6674 H   0  0  0  0  0  0  0  0  0  0  0  0
   -4.2219   -1.6976   -1.9397 H   0  0  0  0  0  0  0  0  0  0  0  0
    0.4314   -1.0511   -1.5474 H   0  0  0  0  0  0  0  0  0  0  0  0
   -1.8308   -1.3405   -2.3154 H   0  0  0  0  0  0  0  0  0  0  0  0
   -2.0889   -2.8836   -1.5081 H   0  0  0  0  0  0  0  0  0  0  0  0
   -0.4526    0.4380    2.0120 H   0  0  0  0  0  0  0  0  0  0  0  0
   -0.3496    1.8382    0.9654 H   0  0  0  0  0  0  0  0  0  0  0  0
   -5.8478    0.1008    0.7185 H   0  0  0  0  0  0  0  0  0  0  0  0
   -5.9702   -0.2843   -0.9766 H   0  0  0  0  0  0  0  0  0  0  0  0
    1.3770    0.8343   -0.3755 H   0  0  0  0  0  0  0  0  0  0  0  0
    1.7900    0.7709    1.3292 H   0  0  0  0  0  0  0  0  0  0  0  0
   -2.7202    2.2776   -0.7561 H   0  0  0  0  0  0  0  0  0  0  0  0
   -2.4544    2.6504    0.9391 H   0  0  0  0  0  0  0  0  0  0  0  0
    2.7584   -1.0086   -1.1232 H   0  0  0  0  0  0  0  0  0  0  0  0
    0.3581   -3.3689   -1.9500 H   0  0  0  0  0  0  0  0  0  0  0  0
    0.2355   -3.7765   -0.2340 H   0  0  0  0  0  0  0  0  0  0  0  0
   -4.1000    0.3806    2.3711 H   0  0  0  0  0  0  0  0  0  0  0  0
   -2.7377   -0.7334    2.3442 H   0  0  0  0  0  0  0  0  0  0  0  0
   -2.4781    0.9884    2.6677 H   0  0  0  0  0  0  0  0  0  0  0  0
    2.5220   -3.8599   -0.1610 H   0  0  0  0  0  0  0  0  0  0  0  0
    2.6749   -3.2020   -1.7947 H   0  0  0  0  0  0  0  0  0  0  0  0
   -5.0689    1.8974   -1.6299 H   0  0  0  0  0  0  0  0  0  0  0  0
   -4.8837    2.4554    1.3872 H   0  0  0  0  0  0  0  0  0  0  0  0
   -4.5599    3.6035    0.1103 H   0  0  0  0  0  0  0  0  0  0  0  0
    0.0766   -1.7209    2.2198 H   0  0  0  0  0  0  0  0  0  0  0  0
    1.2568   -2.9390    1.7742 H   0  0  0  0  0  0  0  0  0  0  0  0
    1.7748   -1.4454    2.5545 H   0  0  0  0  0  0  0  0  0  0  0  0
    3.6804   -2.3437    1.4725 H   0  0  0  0  0  0  0  0  0  0  0  0
    3.4718    0.0778    1.8796 H   0  0  0  0  0  0  0  0  0  0  0  0
    5.1021   -0.4242    1.7744 H   0  0  0  0  0  0  0  0  0  0  0  0
    5.1189   -1.7545   -1.1606 H   0  0  0  0  0  0  0  0  0  0  0  0
    4.8684   -3.3177   -0.3806 H   0  0  0  0  0  0  0  0  0  0  0  0
    5.9424   -2.1417    0.3623 H   0  0  0  0  0  0  0  0  0  0  0  0
   -6.7468    3.1490   -0.7115 H   0  0  0  0  0  0  0  0  0  0  0  0
    5.3632    0.3944   -0.5223 H   0  0  0  0  0  0  0  0  0  0  0  0
    3.6915    0.9319   -0.5422 H   0  0  0  0  0  0  0  0  0  0  0  0
    5.8807    1.9614    1.3364 H   0  0  0  0  0  0  0  0  0  0  0  0
    4.1993    2.4745    1.3820 H   0  0  0  0  0  0  0  0  0  0  0  0
    5.5255    4.1263    0.1907 H   0  0  0  0  0  0  0  0  0  0  0  0
    3.1743    3.6609   -0.6567 H   0  0  0  0  0  0  0  0  0  0  0  0
    4.2605    4.3529   -1.8682 H   0  0  0  0  0  0  0  0  0  0  0  0
    3.8698    2.6363   -1.9300 H   0  0  0  0  0  0  0  0  0  0  0  0
    7.3397    2.5330   -0.5630 H   0  0  0  0  0  0  0  0  0  0  0  0
    6.7856    3.6223   -1.8385 H   0  0  0  0  0  0  0  0  0  0  0  0
    6.2638    1.9392   -1.8451 H   0  0  0  0  0  0  0  0  0  0  0  0
  1  3  1  0  0  0  0
  1  7  1  0  0  0  0
  2 19  1  0  0  0  0
  2 64  1  0  0  0  0
  3  4  1  0  0  0  0
  3  7  1  0  0  0  0
  3 12  1  0  0  0  0
  4  5  1  0  0  0  0
  4 14  1  0  0  0  0
  4 17  1  0  0  0  0
  5  6  1  0  0  0  0
  5 11  1  0  0  0  0
  5 30  1  0  0  0  0
  6  8  1  0  0  0  0
  6 10  1  0  0  0  0
  6 31  1  0  0  0  0
  7 10  1  0  0  0  0
  7 32  1  0  0  0  0
  8  9  1  0  0  0  0
  8 16  1  0  0  0  0
  8 33  1  0  0  0  0
  9 13  1  0  0  0  0
  9 15  1  0  0  0  0
  9 21  1  0  0  0  0
 10 34  1  0  0  0  0
 10 35  1  0  0  0  0
 11 13  1  0  0  0  0
 11 36  1  0  0  0  0
 11 37  1  0  0  0  0
 12 19  1  0  0  0  0
 12 38  1  0  0  0  0
 12 39  1  0  0  0  0
 13 40  1  0  0  0  0
 13 41  1  0  0  0  0
 14 20  1  0  0  0  0
 14 42  1  0  0  0  0
 14 43  1  0  0  0  0
 15 18  1  0  0  0  0
 15 22  1  0  0  0  0
 15 44  1  0  0  0  0
 16 18  1  0  0  0  0
 16 45  1  0  0  0  0
 16 46  1  0  0  0  0
 17 47  1  0  0  0  0
 17 48  1  0  0  0  0
 17 49  1  0  0  0  0
 18 50  1  0  0  0  0
 18 51  1  0  0  0  0
 19 20  1  0  0  0  0
 19 52  1  0  0  0  0
 20 53  1  0  0  0  0
 20 54  1  0  0  0  0
 21 55  1  0  0  0  0
 21 56  1  0  0  0  0
 21 57  1  0  0  0  0
 22 23  1  0  0  0  0
 22 24  1  0  0  0  0
 22 58  1  0  0  0  0
 23 25  1  0  0  0  0
 23 59  1  0  0  0  0
 23 60  1  0  0  0  0
 24 61  1  0  0  0  0
 24 62  1  0  0  0  0
 24 63  1  0  0  0  0
 25 26  1  0  0  0  0
 25 65  1  0  0  0  0
 25 66  1  0  0  0  0
 26 27  1  0  0  0  0
 26 67  1  0  0  0  0
 26 68  1  0  0  0  0
 27 28  1  0  0  0  0
 27 29  1  0  0  0  0
 27 69  1  0  0  0  0
 28 70  1  0  0  0  0
 28 71  1  0  0  0  0
 28 72  1  0  0  0  0
 29 73  1  0  0  0  0
 29 74  1  0  0  0  0
 29 75  1  0  0  0  0
M  END
> <PUBCHEM_COMPOUND_CID>
108109

> <PUBCHEM_CONFORMER_RMSD>
0.8

> <PUBCHEM_CONFORMER_DIVERSEORDER>
1
2

> <PUBCHEM_MMFF94_PARTIAL_CHARGES>
10
1 -0.3
10 0.09
12 0.09
19 0.28
2 -0.68
3 -0.04
32 0.1
4 0.09
64 0.4
7 -0.05

> <PUBCHEM_EFFECTIVE_ROTOR_COUNT>
7.2

> <PUBCHEM_PHARMACOPHORE_FEATURES>
10
1 1 acceptor
1 2 acceptor
1 2 donor
1 24 hydrophobe
3 27 28 29 hydrophobe
5 22 23 25 26 27 hydrophobe
5 8 9 15 16 18 rings
6 3 4 12 14 19 20 rings
6 5 6 8 9 11 13 rings
7 1 3 4 5 6 7 10 rings

> <PUBCHEM_HEAVY_ATOM_COUNT>
29

> <PUBCHEM_ATOM_DEF_STEREO_COUNT>
10

> <PUBCHEM_ATOM_UDEF_STEREO_COUNT>
0

> <PUBCHEM_BOND_DEF_STEREO_COUNT>
0

> <PUBCHEM_BOND_UDEF_STEREO_COUNT>
0

> <PUBCHEM_ISOTOPIC_ATOM_COUNT>
0

> <PUBCHEM_COMPONENT_COUNT>
1

> <PUBCHEM_CACTVS_TAUTO_COUNT>
1

> <PUBCHEM_CONFORMER_ID>
0001A64D00000001

> <PUBCHEM_MMFF94_ENERGY>
93.2955

> <PUBCHEM_FEATURE_SELFOVERLAP>
50.835

> <PUBCHEM_SHAPE_FINGERPRINT>
10763959 59 18339076116237588870
10906281 52 17749942371711928345
11578080 2 17774179992617133757
12422481 6 17846226557121321892
12633257 1 15410053933984372900
12788726 201 17604136074211736648
13583140 156 17986381398528623243
13617811 41 18048333149515464165
14117953 113 18336549412947992924
14713325 29 17981036415156352962
14790565 3 18335985264149790104
14840074 17 17773878597883063876
14849402 71 18202286927283556018
15082195 135 18264227858287773917
15196674 1 18260835916207824307
15575132 122 18336264544271677101
15840311 113 18343020034360960973
15961568 22 18130787850128720484
20715895 44 18408327704940459978
21033648 144 18131077008431833606
21033648 29 15554180232465253917
21298829 104 18340770322223595796
21315764 268 18127698333922800629
21709351 56 18337113483534417966
23522609 53 17604133935708757761
23559900 14 17896608468944277330
245318 6 17843952659880396428
249057 3 18262520420125661230
27425 322 18131637785269219307
2838139 119 18265336114975197548
3004659 81 18188778378310400610
335352 9 18115312318683724982
34797466 226 18041271132205763727
397830 11 18059840758961261729
4058900 60 18341609305049894418
474 4 18343304726315317442
5104073 3 18131633387154058779
6034566 193 18196359334890146308
6036956 94 17334210131242919924
633830 44 18272094906997526618
7288768 16 17845375449485431514

> <PUBCHEM_SHAPE_MULTIPOLES>
585.07
14.35
4.11
1.34
0.34
1.32
0.3
13.21
-2.47
4.61
-1.45
0.15
-0.12
-1.53

> <PUBCHEM_SHAPE_SELFOVERLAP>
1223.089

> <PUBCHEM_SHAPE_VOLUME>
331.8

> <PUBCHEM_COORDINATE_TYPE>
2
5
10

$$$$

