136152
  -OEChem-07051213052D

 15 14  0     1  0  0  0  0  0999 V2000
    6.3301   -0.3170    0.0000 Cl  0  0  0  0  0  0  0  0  0  0  0  0
    4.0981    0.5490    0.0000 F   0  0  0  0  0  0  0  0  0  0  0  0
    5.0981   -1.1830    0.0000 F   0  0  0  0  0  0  0  0  0  0  0  0
    5.4641    1.1830    0.0000 F   0  0  0  0  0  0  0  0  0  0  0  0
    3.7320   -0.8170    0.0000 O   0  0  0  0  0  0  0  0  0  0  0  0
    4.5981   -0.3170    0.0000 C   0  0  0  0  0  0  0  0  0  0  0  0
    2.8660   -0.3170    0.0000 C   0  0  0  0  0  0  0  0  0  0  0  0
    5.4641    0.1830    0.0000 C   0  0  3  0  0  0  0  0  0  0  0  0
    2.0000   -0.8170    0.0000 C   0  0  0  0  0  0  0  0  0  0  0  0
    3.2646    0.1580    0.0000 H   0  0  0  0  0  0  0  0  0  0  0  0
    2.4675    0.1580    0.0000 H   0  0  0  0  0  0  0  0  0  0  0  0
    5.4641   -0.6670    0.0000 H   0  0  0  0  0  0  0  0  0  0  0  0
    1.6900   -0.2801    0.0000 H   0  0  0  0  0  0  0  0  0  0  0  0
    1.4631   -1.1270    0.0000 H   0  0  0  0  0  0  0  0  0  0  0  0
    2.3100   -1.3539    0.0000 H   0  0  0  0  0  0  0  0  0  0  0  0
  1  8  1  0  0  0  0
  2  6  1  0  0  0  0
  3  6  1  0  0  0  0
  4  8  1  0  0  0  0
  5  6  1  0  0  0  0
  5  7  1  0  0  0  0
  6  8  1  0  0  0  0
  7  9  1  0  0  0  0
  7 10  1  0  0  0  0
  7 11  1  0  0  0  0
  8 12  1  0  0  0  0
  9 13  1  0  0  0  0
  9 14  1  0  0  0  0
  9 15  1  0  0  0  0
M  END
> <PUBCHEM_COMPOUND_CID>
136152

> <PUBCHEM_COMPOUND_CANONICALIZED>
1

> <PUBCHEM_CACTVS_COMPLEXITY>
87.9

> <PUBCHEM_CACTVS_HBOND_ACCEPTOR>
4

> <PUBCHEM_CACTVS_HBOND_DONOR>
0

> <PUBCHEM_CACTVS_ROTATABLE_BOND>
3

> <PUBCHEM_CACTVS_SUBSKEYS>
AAADcYBgIYAEAAAAAAAAAAAAAAAAAAAAAAAAAAAAAAAAAAAAAAAAGwIAAAAAAAOggFICAAAABAAAAAAAAAAAAAAAAAAAAAAAAQAAAAAAAAACAAAAAAAAAAAAAAAAAAAAAAAAAAAAAAAAAAAAAAAAAAAAAA==

> <PUBCHEM_IUPAC_OPENEYE_NAME>
2-chloro-1-ethoxy-1,1,2-trifluoro-ethane

> <PUBCHEM_IUPAC_CAS_NAME>
2-chloro-1-ethoxy-1,1,2-trifluoroethane

> <PUBCHEM_IUPAC_NAME>
2-chloro-1-ethoxy-1,1,2-trifluoroethane

> <PUBCHEM_IUPAC_SYSTEMATIC_NAME>
2-chloranyl-1-ethoxy-1,1,2-tris(fluoranyl)ethane

> <PUBCHEM_IUPAC_TRADITIONAL_NAME>
2-chloro-1-ethoxy-1,1,2-trifluoro-ethane

> <PUBCHEM_IUPAC_INCHI>
InChI=1S/C4H6ClF3O/c1-2-9-4(7,8)3(5)6/h3H,2H2,1H3

> <PUBCHEM_IUPAC_INCHIKEY>
WOKICPFFJCXEDW-UHFFFAOYSA-N

> <PUBCHEM_XLOGP3_AA>
2.3

> <PUBCHEM_EXACT_MASS>
162.005927

> <PUBCHEM_MOLECULAR_FORMULA>
C4H6ClF3O

> <PUBCHEM_MOLECULAR_WEIGHT>
162.53805

> <PUBCHEM_OPENEYE_CAN_SMILES>
CCOC(C(F)Cl)(F)F

> <PUBCHEM_OPENEYE_ISO_SMILES>
CCOC(C(F)Cl)(F)F

> <PUBCHEM_CACTVS_TPSA>
9.2

> <PUBCHEM_MONOISOTOPIC_WEIGHT>
162.005927

> <PUBCHEM_TOTAL_CHARGE>
0

> <PUBCHEM_HEAVY_ATOM_COUNT>
9

> <PUBCHEM_ATOM_DEF_STEREO_COUNT>
0

> <PUBCHEM_ATOM_UDEF_STEREO_COUNT>
1

> <PUBCHEM_BOND_DEF_STEREO_COUNT>
0

> <PUBCHEM_BOND_UDEF_STEREO_COUNT>
0

> <PUBCHEM_ISOTOPIC_ATOM_COUNT>
0

> <PUBCHEM_COMPONENT_COUNT>
1

> <PUBCHEM_CACTVS_TAUTO_COUNT>
1

> <PUBCHEM_COORDINATE_TYPE>
1
5
255

> <PUBCHEM_BONDANNOTATIONS>
8  12  3

$$$$

