3308
  -OEChem-07051212523D

 42 44  0     1  0  0  0  0  0999 V2000
   -2.4010    1.1785   -0.6286 O   0  0  0  0  0  0  0  0  0  0  0  0
   -4.1917   -2.1084    1.1506 O   0  0  0  0  0  0  0  0  0  0  0  0
   -4.7322    0.0319    0.5957 O   0  0  0  0  0  0  0  0  0  0  0  0
    0.6384   -0.8171    0.0896 N   0  0  0  0  0  0  0  0  0  0  0  0
   -1.7856   -0.0799   -0.2428 C   0  0  2  0  0  0  0  0  0  0  0  0
   -0.3129    0.1487   -0.0874 C   0  0  0  0  0  0  0  0  0  0  0  0
    0.3135    1.3762   -0.0655 C   0  0  0  0  0  0  0  0  0  0  0  0
   -0.4678    2.6270   -0.2318 C   0  0  0  0  0  0  0  0  0  0  0  0
   -2.0809   -1.0562   -1.3848 C   0  0  0  0  0  0  0  0  0  0  0  0
   -2.4194   -0.5850    1.0565 C   0  0  0  0  0  0  0  0  0  0  0  0
    1.7040    1.1531    0.1167 C   0  0  0  0  0  0  0  0  0  0  0  0
   -1.9436    2.3420    0.0819 C   0  0  0  0  0  0  0  0  0  0  0  0
    1.8811   -0.2316    0.2116 C   0  0  0  0  0  0  0  0  0  0  0  0
    3.1375   -0.8192    0.3977 C   0  0  0  0  0  0  0  0  0  0  0  0
   -1.5288   -0.5458   -2.6999 C   0  0  0  0  0  0  0  0  0  0  0  0
    2.8348    1.9886    0.2112 C   0  0  0  0  0  0  0  0  0  0  0  0
   -3.8974   -0.8067    0.9002 C   0  0  0  0  0  0  0  0  0  0  0  0
    3.3319   -2.2953    0.5012 C   0  0  0  0  0  0  0  0  0  0  0  0
    4.2435    0.0303    0.4884 C   0  0  0  0  0  0  0  0  0  0  0  0
    4.0968    1.4128    0.3968 C   0  0  0  0  0  0  0  0  0  0  0  0
    3.5800   -2.9440   -0.8577 C   0  0  0  0  0  0  0  0  0  0  0  0
   -0.0912    3.4254    0.4153 H   0  0  0  0  0  0  0  0  0  0  0  0
   -0.3733    2.9564   -1.2734 H   0  0  0  0  0  0  0  0  0  0  0  0
   -3.1612   -1.1796   -1.5265 H   0  0  0  0  0  0  0  0  0  0  0  0
   -1.6660   -2.0499   -1.1760 H   0  0  0  0  0  0  0  0  0  0  0  0
   -1.9401   -1.5198    1.3760 H   0  0  0  0  0  0  0  0  0  0  0  0
   -2.2899    0.1187    1.8868 H   0  0  0  0  0  0  0  0  0  0  0  0
   -2.1083    2.2118    1.1570 H   0  0  0  0  0  0  0  0  0  0  0  0
   -2.5573    3.1895   -0.2404 H   0  0  0  0  0  0  0  0  0  0  0  0
    0.4596   -1.8113    0.1221 H   0  0  0  0  0  0  0  0  0  0  0  0
   -1.9373    0.4329   -2.9706 H   0  0  0  0  0  0  0  0  0  0  0  0
   -0.4370   -0.4772   -2.6982 H   0  0  0  0  0  0  0  0  0  0  0  0
   -1.8004   -1.2396   -3.5035 H   0  0  0  0  0  0  0  0  0  0  0  0
    2.7363    3.0682    0.1416 H   0  0  0  0  0  0  0  0  0  0  0  0
    4.1744   -2.5162    1.1685 H   0  0  0  0  0  0  0  0  0  0  0  0
    2.4557   -2.7599    0.9690 H   0  0  0  0  0  0  0  0  0  0  0  0
    5.2399   -0.3822    0.6309 H   0  0  0  0  0  0  0  0  0  0  0  0
    4.9719    2.0532    0.4698 H   0  0  0  0  0  0  0  0  0  0  0  0
    2.7354   -2.7794   -1.5353 H   0  0  0  0  0  0  0  0  0  0  0  0
    3.7174   -4.0236   -0.7414 H   0  0  0  0  0  0  0  0  0  0  0  0
    4.4780   -2.5357   -1.3336 H   0  0  0  0  0  0  0  0  0  0  0  0
   -5.1509   -2.2910    1.0563 H   0  0  0  0  0  0  0  0  0  0  0  0
  1  5  1  0  0  0  0
  1 12  1  0  0  0  0
  2 17  1  0  0  0  0
  2 42  1  0  0  0  0
  3 17  2  0  0  0  0
  4  6  1  0  0  0  0
  4 13  1  0  0  0  0
  4 30  1  0  0  0  0
  5  6  1  0  0  0  0
  5  9  1  0  0  0  0
  5 10  1  0  0  0  0
  6  7  2  0  0  0  0
  7  8  1  0  0  0  0
  7 11  1  0  0  0  0
  8 12  1  0  0  0  0
  8 22  1  0  0  0  0
  8 23  1  0  0  0  0
  9 15  1  0  0  0  0
  9 24  1  0  0  0  0
  9 25  1  0  0  0  0
 10 17  1  0  0  0  0
 10 26  1  0  0  0  0
 10 27  1  0  0  0  0
 11 13  1  0  0  0  0
 11 16  2  0  0  0  0
 12 28  1  0  0  0  0
 12 29  1  0  0  0  0
 13 14  2  0  0  0  0
 14 18  1  0  0  0  0
 14 19  1  0  0  0  0
 15 31  1  0  0  0  0
 15 32  1  0  0  0  0
 15 33  1  0  0  0  0
 16 20  1  0  0  0  0
 16 34  1  0  0  0  0
 18 21  1  0  0  0  0
 18 35  1  0  0  0  0
 18 36  1  0  0  0  0
 19 20  2  0  0  0  0
 19 37  1  0  0  0  0
 20 38  1  0  0  0  0
 21 39  1  0  0  0  0
 21 40  1  0  0  0  0
 21 41  1  0  0  0  0
M  END
> <PUBCHEM_COMPOUND_CID>
3308

> <PUBCHEM_CONFORMER_RMSD>
0.8

> <PUBCHEM_CONFORMER_DIVERSEORDER>
1
3
5
8
10
9
6
2
4
7

> <PUBCHEM_MMFF94_PARTIAL_CHARGES>
22
1 -0.56
10 0.06
12 0.28
13 -0.15
14 -0.14
16 -0.15
17 0.66
18 0.14
19 -0.15
2 -0.65
20 -0.15
3 -0.57
30 0.27
34 0.15
37 0.15
38 0.15
4 0.03
42 0.5
5 0.46
6 -0.33
7 -0.18
8 0.18

> <PUBCHEM_EFFECTIVE_ROTOR_COUNT>
4.8

> <PUBCHEM_PHARMACOPHORE_FEATURES>
11
1 1 acceptor
1 15 hydrophobe
1 2 acceptor
1 21 hydrophobe
1 3 acceptor
1 4 cation
1 4 donor
3 2 3 17 anion
5 4 6 7 11 13 rings
6 1 5 6 7 8 12 rings
6 11 13 14 16 19 20 rings

> <PUBCHEM_HEAVY_ATOM_COUNT>
21

> <PUBCHEM_ATOM_DEF_STEREO_COUNT>
0

> <PUBCHEM_ATOM_UDEF_STEREO_COUNT>
1

> <PUBCHEM_BOND_DEF_STEREO_COUNT>
0

> <PUBCHEM_BOND_UDEF_STEREO_COUNT>
0

> <PUBCHEM_ISOTOPIC_ATOM_COUNT>
0

> <PUBCHEM_COMPONENT_COUNT>
1

> <PUBCHEM_CACTVS_TAUTO_COUNT>
1

> <PUBCHEM_CONFORMER_ID>
00000CEC00000001

> <PUBCHEM_MMFF94_ENERGY>
41.7456

> <PUBCHEM_FEATURE_SELFOVERLAP>
56.059

> <PUBCHEM_SHAPE_FINGERPRINT>
10967382 1 18411422769974665496
1100329 8 14377305403275416819
11552529 35 17896877656383668099
11578080 2 17130722732837456668
12236239 1 17749671784028939447
12403814 3 18259990362054377065
12553582 1 18335992986701312030
12633257 1 16298395672931634826
12892183 10 18188198815444122977
13140716 1 18122068860596104880
13296908 3 18342741861886689090
13544653 18 18059568049680414395
13583140 156 18115306653589576499
14223421 5 18412545435660273528
14252887 29 18340477894298831306
14787075 74 17843962546572656264
14790565 3 17836072386602770276
15375462 189 18114184090434576760
15422964 175 18343299232382096291
16945 1 18337685096431496368
17492 89 18339081596252485378
1813 80 16845565384316418559
18186145 218 17560526217501850554
20261772 1 18113617850383076277
20600515 1 16916495935796279459
20645477 70 18338251426096990134
20681651 13 17023772055239226646
21267235 1 18411694401039158690
21279426 13 18199474432216102085
22112679 90 17460880583822166773
221490 88 18338796836042089322
2334 1 18338525239400443136
23557571 272 16773805796199143580
23559900 14 18341899657523292408
23566358 27 18408598141877795494
26918003 58 18130795529207777489
2748010 2 18265909136410572244
45790113 50 18413102879149181805
5104073 3 18338524144189220784
7364860 26 18334300898799736272
9709674 26 18339366386864151476

> <PUBCHEM_SHAPE_MULTIPOLES>
409.58
8.17
2.78
1.32
0.3
0.09
-0.86
3.21
2.42
-1.56
-0.12
1.23
0.64
0.73

> <PUBCHEM_SHAPE_SELFOVERLAP>
886.434

> <PUBCHEM_SHAPE_VOLUME>
225.4

> <PUBCHEM_COORDINATE_TYPE>
2
5
10

$$$$

