2566
  -OEChem-07051213043D

 31 32  0     0  0  0  0  0  0999 V2000
    0.7988    1.1247    0.5150 O   0  0  0  0  0  0  0  0  0  0  0  0
   -1.6331   -0.3237    0.9428 O   0  0  0  0  0  0  0  0  0  0  0  0
   -2.2284    0.0732   -1.2693 O   0  0  0  0  0  0  0  0  0  0  0  0
   -3.5982    0.7696    0.4688 N   0  0  0  0  0  0  0  0  0  0  0  0
    2.1143    1.4652   -0.0105 C   0  0  0  0  0  0  0  0  0  0  0  0
    2.9196    0.1614   -0.2205 C   0  0  0  0  0  0  0  0  0  0  0  0
    1.8257   -0.8329   -0.1445 C   0  0  0  0  0  0  0  0  0  0  0  0
    0.6653   -0.2215    0.2989 C   0  0  0  0  0  0  0  0  0  0  0  0
    1.9073    2.2197   -1.3299 C   0  0  0  0  0  0  0  0  0  0  0  0
    2.7963    2.3780    1.0098 C   0  0  0  0  0  0  0  0  0  0  0  0
    1.8580   -2.1918   -0.4009 C   0  0  0  0  0  0  0  0  0  0  0  0
   -0.5023   -0.9312    0.5043 C   0  0  0  0  0  0  0  0  0  0  0  0
    0.6867   -2.9288   -0.2088 C   0  0  0  0  0  0  0  0  0  0  0  0
   -0.4864   -2.3021    0.2420 C   0  0  0  0  0  0  0  0  0  0  0  0
   -2.4786    0.1714   -0.0716 C   0  0  0  0  0  0  0  0  0  0  0  0
   -4.6453    1.3688   -0.3255 C   0  0  0  0  0  0  0  0  0  0  0  0
    3.6367   -0.0166    0.5883 H   0  0  0  0  0  0  0  0  0  0  0  0
    3.4443    0.1388   -1.1804 H   0  0  0  0  0  0  0  0  0  0  0  0
    2.8608    2.5360   -1.7651 H   0  0  0  0  0  0  0  0  0  0  0  0
    1.3820    1.5966   -2.0627 H   0  0  0  0  0  0  0  0  0  0  0  0
    1.2829    3.1072   -1.1759 H   0  0  0  0  0  0  0  0  0  0  0  0
    3.7966    2.6750    0.6783 H   0  0  0  0  0  0  0  0  0  0  0  0
    2.2026    3.2829    1.1822 H   0  0  0  0  0  0  0  0  0  0  0  0
    2.8847    1.8784    1.9813 H   0  0  0  0  0  0  0  0  0  0  0  0
    2.7668   -2.6786   -0.7376 H   0  0  0  0  0  0  0  0  0  0  0  0
    0.6835   -3.9977   -0.4043 H   0  0  0  0  0  0  0  0  0  0  0  0
   -1.3844   -2.8971    0.3881 H   0  0  0  0  0  0  0  0  0  0  0  0
   -3.6913    0.7895    1.4796 H   0  0  0  0  0  0  0  0  0  0  0  0
   -4.4351    1.2818   -1.3940 H   0  0  0  0  0  0  0  0  0  0  0  0
   -4.7236    2.4225   -0.0472 H   0  0  0  0  0  0  0  0  0  0  0  0
   -5.5843    0.8622   -0.0896 H   0  0  0  0  0  0  0  0  0  0  0  0
  1  5  1  0  0  0  0
  1  8  1  0  0  0  0
  2 12  1  0  0  0  0
  2 15  1  0  0  0  0
  3 15  2  0  0  0  0
  4 15  1  0  0  0  0
  4 16  1  0  0  0  0
  4 28  1  0  0  0  0
  5  6  1  0  0  0  0
  5  9  1  0  0  0  0
  5 10  1  0  0  0  0
  6  7  1  0  0  0  0
  6 17  1  0  0  0  0
  6 18  1  0  0  0  0
  7  8  2  0  0  0  0
  7 11  1  0  0  0  0
  8 12  1  0  0  0  0
  9 19  1  0  0  0  0
  9 20  1  0  0  0  0
  9 21  1  0  0  0  0
 10 22  1  0  0  0  0
 10 23  1  0  0  0  0
 10 24  1  0  0  0  0
 11 13  2  0  0  0  0
 11 25  1  0  0  0  0
 12 14  2  0  0  0  0
 13 14  1  0  0  0  0
 13 26  1  0  0  0  0
 14 27  1  0  0  0  0
 16 29  1  0  0  0  0
 16 30  1  0  0  0  0
 16 31  1  0  0  0  0
M  END
> <PUBCHEM_COMPOUND_CID>
2566

> <PUBCHEM_CONFORMER_RMSD>
0.6

> <PUBCHEM_CONFORMER_DIVERSEORDER>
1
22
9
26
23
21
8
24
18
3
20
19
25
10
7
4
5
13
6
11
17
27
12
16
15
2
14

> <PUBCHEM_MMFF94_PARTIAL_CHARGES>
18
1 -0.36
11 -0.15
12 0.08
13 -0.15
14 -0.15
15 0.78
16 0.3
2 -0.23
25 0.15
26 0.15
27 0.15
28 0.37
3 -0.57
4 -0.73
5 0.28
6 0.14
7 -0.14
8 0.08

> <PUBCHEM_EFFECTIVE_ROTOR_COUNT>
3.6

> <PUBCHEM_PHARMACOPHORE_FEATURES>
6
1 1 acceptor
1 3 acceptor
1 4 donor
3 5 9 10 hydrophobe
5 1 5 6 7 8 rings
6 7 8 11 12 13 14 rings

> <PUBCHEM_HEAVY_ATOM_COUNT>
16

> <PUBCHEM_ATOM_DEF_STEREO_COUNT>
0

> <PUBCHEM_ATOM_UDEF_STEREO_COUNT>
0

> <PUBCHEM_BOND_DEF_STEREO_COUNT>
0

> <PUBCHEM_BOND_UDEF_STEREO_COUNT>
0

> <PUBCHEM_ISOTOPIC_ATOM_COUNT>
0

> <PUBCHEM_COMPONENT_COUNT>
1

> <PUBCHEM_CACTVS_TAUTO_COUNT>
2

> <PUBCHEM_CONFORMER_ID>
00000A0600000001

> <PUBCHEM_MMFF94_ENERGY>
47.2871

> <PUBCHEM_FEATURE_SELFOVERLAP>
30.546

> <PUBCHEM_SHAPE_FINGERPRINT>
1 1 18410575089127137182
11471102 20 18338799047496449111
12500047 106 18191868912444083584
12654215 9 18269834375267051182
12730499 353 18411973672787362867
13140716 1 18411986823481630538
13380536 305 18409726304720894602
14614273 12 17685769125821152258
15279308 100 18339633435267261084
16945 1 18334849541790008682
17134986 127 18269545070596732220
18186145 218 18334002891855716777
20511035 2 18266175037767393174
20606313 2 18267866262285629391
20645477 70 18262520433073567983
20820808 20 18334861618979316075
21041028 32 17976543041497609929
21524375 3 18270689640583829619
21639500 275 18337961181044642751
21947302 44 18343017817598335347
22289505 5 18053953037129153525
2334 1 18121210979264441314
23558518 356 18127132978614035874
25 1 18411135857089271167
2748010 2 18192978336655736650
3060560 45 18336264655772275406
350125 39 18195232335260724866
474 4 18342175566312246541
7364860 26 18263083369398087299
7832392 63 17686335778052363081
81228 2 17255392722436555890
8272917 22 18191298480757352631
84936 182 18113623390981098737

> <PUBCHEM_SHAPE_MULTIPOLES>
306.68
5.69
3.03
0.98
7.29
1.06
-0.12
-4.28
-0.32
-1.89
-0.18
-0.14
-0.39
0.39

> <PUBCHEM_SHAPE_SELFOVERLAP>
651.798

> <PUBCHEM_SHAPE_VOLUME>
172.2

> <PUBCHEM_COORDINATE_TYPE>
2
5
10

$$$$

