12784329
  -OEChem-07051213122D

111113  0     1  0  0  0  0  0999 V2000
    4.5981    0.7247    0.0000 O   0  0  0  0  0  0  0  0  0  0  0  0
    5.4641    2.2247    0.0000 O   0  0  0  0  0  0  0  0  0  0  0  0
    2.8660    1.7247    0.0000 O   0  0  0  0  0  0  0  0  0  0  0  0
   13.1403   -1.3787    0.0000 O   0  0  0  0  0  0  0  0  0  0  0  0
   11.4673   -1.8270    0.0000 O   0  0  0  0  0  0  0  0  0  0  0  0
   13.9168   -4.2765    0.0000 O   0  0  0  0  0  0  0  0  0  0  0  0
   11.9849   -3.7588    0.0000 O   0  0  0  0  0  0  0  0  0  0  0  0
   15.3310   -2.8622    0.0000 O   0  0  0  0  0  0  0  0  0  0  0  0
    8.9282   -0.7753    0.0000 O   0  0  0  0  0  0  0  0  0  0  0  0
   10.2168   -3.1816    0.0000 O   0  0  0  0  0  0  0  0  0  0  0  0
    5.4641   -3.7753    0.0000 O   0  0  0  0  0  0  0  0  0  0  0  0
    9.7942    0.7247    0.0000 O   0  0  0  0  0  0  0  0  0  0  0  0
    2.8660    3.7247    0.0000 N   0  0  0  0  0  0  0  0  0  0  0  0
    3.7320    3.2247    0.0000 C   0  0  2  0  0  0  0  0  0  0  0  0
    3.7320    2.2247    0.0000 C   0  0  2  0  0  0  0  0  0  0  0  0
    4.5981    1.7247    0.0000 C   0  0  2  0  0  0  0  0  0  0  0  0
    5.4641    0.2247    0.0000 C   0  0  1  0  0  0  0  0  0  0  0  0
    4.5981    3.7247    0.0000 C   0  0  0  0  0  0  0  0  0  0  0  0
    5.4641   -0.7753    0.0000 C   0  0  2  0  0  0  0  0  0  0  0  0
    5.4641    3.2247    0.0000 C   0  0  1  0  0  0  0  0  0  0  0  0
    6.3301    0.7247    0.0000 C   0  0  1  0  0  0  0  0  0  0  0  0
    4.5981   -1.2753    0.0000 C   0  0  0  0  0  0  0  0  0  0  0  0
    4.5981   -2.2753    0.0000 C   0  0  1  0  0  0  0  0  0  0  0  0
    6.4641   -0.7753    0.0000 C   0  0  0  0  0  0  0  0  0  0  0  0
    6.3301    3.7247    0.0000 C   0  0  0  0  0  0  0  0  0  0  0  0
   13.6579   -3.3105    0.0000 C   0  0  1  0  0  0  0  0  0  0  0  0
   12.6920   -3.0517    0.0000 C   0  0  2  0  0  0  0  0  0  0  0  0
   14.3650   -2.6034    0.0000 C   0  0  1  0  0  0  0  0  0  0  0  0
   12.4332   -2.0858    0.0000 C   0  0  1  0  0  0  0  0  0  0  0  0
   14.1062   -1.6375    0.0000 C   0  0  1  0  0  0  0  0  0  0  0  0
    6.3301    1.7247    0.0000 C   0  0  0  0  0  0  0  0  0  0  0  0
    7.1962    0.2247    0.0000 C   0  0  0  0  0  0  0  0  0  0  0  0
    2.8660    4.7247    0.0000 C   0  0  0  0  0  0  0  0  0  0  0  0
    2.0000    3.2247    0.0000 C   0  0  0  0  0  0  0  0  0  0  0  0
    9.7942   -2.2753    0.0000 C   0  0  1  0  0  0  0  0  0  0  0  0
    3.7320   -2.7753    0.0000 C   0  0  0  0  0  0  0  0  0  0  0  0
   10.7602   -2.5341    0.0000 C   0  0  0  0  0  0  0  0  0  0  0  0
    5.4641   -2.7753    0.0000 C   0  0  0  0  0  0  0  0  0  0  0  0
    9.7942   -1.2753    0.0000 C   0  0  1  0  0  0  0  0  0  0  0  0
   14.8133   -0.9304    0.0000 C   0  0  0  0  0  0  0  0  0  0  0  0
    8.0622    0.7247    0.0000 C   0  0  0  0  0  0  0  0  0  0  0  0
   10.6603   -0.7753    0.0000 C   0  0  0  0  0  0  0  0  0  0  0  0
    8.9282   -2.7753    0.0000 C   0  0  0  0  0  0  0  0  0  0  0  0
    6.3301   -2.2753    0.0000 C   0  0  0  0  0  0  0  0  0  0  0  0
    8.9282    0.2247    0.0000 C   0  0  0  0  0  0  0  0  0  0  0  0
   14.8827   -4.5353    0.0000 C   0  0  0  0  0  0  0  0  0  0  0  0
   12.2437   -4.7247    0.0000 C   0  0  0  0  0  0  0  0  0  0  0  0
    8.0622   -2.2753    0.0000 C   0  0  0  0  0  0  0  0  0  0  0  0
    7.1962   -2.7753    0.0000 C   0  0  0  0  0  0  0  0  0  0  0  0
   10.6603    0.2247    0.0000 C   0  0  0  0  0  0  0  0  0  0  0  0
    3.7320    3.8447    0.0000 H   0  0  0  0  0  0  0  0  0  0  0  0
    3.7320    1.6047    0.0000 H   0  0  0  0  0  0  0  0  0  0  0  0
    4.0611    1.4147    0.0000 H   0  0  0  0  0  0  0  0  0  0  0  0
    5.4641    0.8447    0.0000 H   0  0  0  0  0  0  0  0  0  0  0  0
    4.9966    4.1997    0.0000 H   0  0  0  0  0  0  0  0  0  0  0  0
    4.1996    4.1997    0.0000 H   0  0  0  0  0  0  0  0  0  0  0  0
    5.6246   -1.3741    0.0000 H   0  0  0  0  0  0  0  0  0  0  0  0
    6.0010    2.9147    0.0000 H   0  0  0  0  0  0  0  0  0  0  0  0
    6.8671    1.0347    0.0000 H   0  0  0  0  0  0  0  0  0  0  0  0
    4.3860   -0.6926    0.0000 H   0  0  0  0  0  0  0  0  0  0  0  0
    3.9875   -1.3829    0.0000 H   0  0  0  0  0  0  0  0  0  0  0  0
    4.5981   -2.8953    0.0000 H   0  0  0  0  0  0  0  0  0  0  0  0
    6.4641   -1.3953    0.0000 H   0  0  0  0  0  0  0  0  0  0  0  0
    7.0841   -0.7753    0.0000 H   0  0  0  0  0  0  0  0  0  0  0  0
    6.4641   -0.1553    0.0000 H   0  0  0  0  0  0  0  0  0  0  0  0
   14.2568   -3.4710    0.0000 H   0  0  0  0  0  0  0  0  0  0  0  0
    6.6401    3.1878    0.0000 H   0  0  0  0  0  0  0  0  0  0  0  0
    6.8671    4.0347    0.0000 H   0  0  0  0  0  0  0  0  0  0  0  0
    6.0201    4.2617    0.0000 H   0  0  0  0  0  0  0  0  0  0  0  0
   12.0931   -2.8912    0.0000 H   0  0  0  0  0  0  0  0  0  0  0  0
   14.8034   -2.1650    0.0000 H   0  0  0  0  0  0  0  0  0  0  0  0
   12.2727   -1.4869    0.0000 H   0  0  0  0  0  0  0  0  0  0  0  0
   13.9458   -1.0386    0.0000 H   0  0  0  0  0  0  0  0  0  0  0  0
    6.9501    1.7247    0.0000 H   0  0  0  0  0  0  0  0  0  0  0  0
    6.3301    2.3447    0.0000 H   0  0  0  0  0  0  0  0  0  0  0  0
    5.7101    1.7247    0.0000 H   0  0  0  0  0  0  0  0  0  0  0  0
    2.3291    2.0347    0.0000 H   0  0  0  0  0  0  0  0  0  0  0  0
    7.1962   -0.3953    0.0000 H   0  0  0  0  0  0  0  0  0  0  0  0
    1.6900    3.7617    0.0000 H   0  0  0  0  0  0  0  0  0  0  0  0
    1.4631    2.9147    0.0000 H   0  0  0  0  0  0  0  0  0  0  0  0
    2.3100    2.6878    0.0000 H   0  0  0  0  0  0  0  0  0  0  0  0
    3.4860    4.7247    0.0000 H   0  0  0  0  0  0  0  0  0  0  0  0
    2.8660    5.3447    0.0000 H   0  0  0  0  0  0  0  0  0  0  0  0
    2.2460    4.7247    0.0000 H   0  0  0  0  0  0  0  0  0  0  0  0
    3.4220   -2.2383    0.0000 H   0  0  0  0  0  0  0  0  0  0  0  0
    3.1951   -3.0853    0.0000 H   0  0  0  0  0  0  0  0  0  0  0  0
    4.0420   -3.3122    0.0000 H   0  0  0  0  0  0  0  0  0  0  0  0
   10.4981   -3.0960    0.0000 H   0  0  0  0  0  0  0  0  0  0  0  0
   11.2680   -2.8897    0.0000 H   0  0  0  0  0  0  0  0  0  0  0  0
    9.7942   -0.6553    0.0000 H   0  0  0  0  0  0  0  0  0  0  0  0
   15.2517   -1.3688    0.0000 H   0  0  0  0  0  0  0  0  0  0  0  0
   15.2517   -0.4920    0.0000 H   0  0  0  0  0  0  0  0  0  0  0  0
   14.3749   -0.4920    0.0000 H   0  0  0  0  0  0  0  0  0  0  0  0
    8.0622    1.3447    0.0000 H   0  0  0  0  0  0  0  0  0  0  0  0
   15.7694   -2.4238    0.0000 H   0  0  0  0  0  0  0  0  0  0  0  0
   10.8723   -1.3579    0.0000 H   0  0  0  0  0  0  0  0  0  0  0  0
   11.2708   -0.6676    0.0000 H   0  0  0  0  0  0  0  0  0  0  0  0
    8.9282   -3.3953    0.0000 H   0  0  0  0  0  0  0  0  0  0  0  0
    6.3301   -1.6553    0.0000 H   0  0  0  0  0  0  0  0  0  0  0  0
   14.7222   -5.1342    0.0000 H   0  0  0  0  0  0  0  0  0  0  0  0
   15.4816   -4.6957    0.0000 H   0  0  0  0  0  0  0  0  0  0  0  0
   15.0431   -3.9364    0.0000 H   0  0  0  0  0  0  0  0  0  0  0  0
    9.8612   -3.6894    0.0000 H   0  0  0  0  0  0  0  0  0  0  0  0
   11.6448   -4.8852    0.0000 H   0  0  0  0  0  0  0  0  0  0  0  0
   12.4042   -5.3236    0.0000 H   0  0  0  0  0  0  0  0  0  0  0  0
   12.8426   -4.5643    0.0000 H   0  0  0  0  0  0  0  0  0  0  0  0
    8.0622   -1.6553    0.0000 H   0  0  0  0  0  0  0  0  0  0  0  0
    7.1962   -3.3953    0.0000 H   0  0  0  0  0  0  0  0  0  0  0  0
   11.2803    0.2247    0.0000 H   0  0  0  0  0  0  0  0  0  0  0  0
   10.6603    0.8447    0.0000 H   0  0  0  0  0  0  0  0  0  0  0  0
   10.0403    0.2247    0.0000 H   0  0  0  0  0  0  0  0  0  0  0  0
 16  1  1  1  0  0  0
 17  1  1  6  0  0  0
  2 16  1  0  0  0  0
  2 20  1  0  0  0  0
 15  3  1  6  0  0  0
  3 77  1  0  0  0  0
  4 29  1  0  0  0  0
  4 30  1  0  0  0  0
 29  5  1  6  0  0  0
  5 37  1  0  0  0  0
 26  6  1  1  0  0  0
  6 46  1  0  0  0  0
 27  7  1  1  0  0  0
  7 47  1  0  0  0  0
 28  8  1  1  0  0  0
  8 95  1  0  0  0  0
  9 39  1  0  0  0  0
  9 45  1  0  0  0  0
 35 10  1  6  0  0  0
 10103  1  0  0  0  0
 11 38  2  0  0  0  0
 12 45  2  0  0  0  0
 14 13  1  1  0  0  0
 13 33  1  0  0  0  0
 13 34  1  0  0  0  0
 14 15  1  0  0  0  0
 14 18  1  0  0  0  0
 14 51  1  0  0  0  0
 15 16  1  0  0  0  0
 15 52  1  0  0  0  0
 16 53  1  0  0  0  0
 17 19  1  0  0  0  0
 17 21  1  0  0  0  0
 17 54  1  0  0  0  0
 18 20  1  0  0  0  0
 18 55  1  0  0  0  0
 18 56  1  0  0  0  0
 19 22  1  0  0  0  0
 19 24  1  1  0  0  0
 19 57  1  0  0  0  0
 20 25  1  1  0  0  0
 20 58  1  0  0  0  0
 21 31  1  1  0  0  0
 21 32  1  0  0  0  0
 21 59  1  0  0  0  0
 22 23  1  0  0  0  0
 22 60  1  0  0  0  0
 22 61  1  0  0  0  0
 23 36  1  6  0  0  0
 23 38  1  0  0  0  0
 23 62  1  0  0  0  0
 24 63  1  0  0  0  0
 24 64  1  0  0  0  0
 24 65  1  0  0  0  0
 25 67  1  0  0  0  0
 25 68  1  0  0  0  0
 25 69  1  0  0  0  0
 26 27  1  0  0  0  0
 26 28  1  0  0  0  0
 26 66  1  0  0  0  0
 27 29  1  0  0  0  0
 27 70  1  0  0  0  0
 28 30  1  0  0  0  0
 28 71  1  0  0  0  0
 29 72  1  0  0  0  0
 30 40  1  6  0  0  0
 30 73  1  0  0  0  0
 31 74  1  0  0  0  0
 31 75  1  0  0  0  0
 31 76  1  0  0  0  0
 32 41  2  0  0  0  0
 32 78  1  0  0  0  0
 33 82  1  0  0  0  0
 33 83  1  0  0  0  0
 33 84  1  0  0  0  0
 34 79  1  0  0  0  0
 34 80  1  0  0  0  0
 34 81  1  0  0  0  0
 35 37  1  0  0  0  0
 35 39  1  0  0  0  0
 35 43  1  0  0  0  0
 36 85  1  0  0  0  0
 36 86  1  0  0  0  0
 36 87  1  0  0  0  0
 37 88  1  0  0  0  0
 37 89  1  0  0  0  0
 38 44  1  0  0  0  0
 39 42  1  6  0  0  0
 39 90  1  0  0  0  0
 40 91  1  0  0  0  0
 40 92  1  0  0  0  0
 40 93  1  0  0  0  0
 41 45  1  0  0  0  0
 41 94  1  0  0  0  0
 42 50  1  0  0  0  0
 42 96  1  0  0  0  0
 42 97  1  0  0  0  0
 43 48  2  0  0  0  0
 43 98  1  0  0  0  0
 44 49  2  0  0  0  0
 44 99  1  0  0  0  0
 46100  1  0  0  0  0
 46101  1  0  0  0  0
 46102  1  0  0  0  0
 47104  1  0  0  0  0
 47105  1  0  0  0  0
 47106  1  0  0  0  0
 48 49  1  0  0  0  0
 48107  1  0  0  0  0
 49108  1  0  0  0  0
 50109  1  0  0  0  0
 50110  1  0  0  0  0
 50111  1  0  0  0  0
M  END
> <PUBCHEM_COMPOUND_CID>
12784329

> <PUBCHEM_COMPOUND_CANONICALIZED>
1

> <PUBCHEM_CACTVS_COMPLEXITY>
1180

> <PUBCHEM_CACTVS_HBOND_ACCEPTOR>
13

> <PUBCHEM_CACTVS_HBOND_DONOR>
3

> <PUBCHEM_CACTVS_ROTATABLE_BOND>
9

> <PUBCHEM_CACTVS_SUBSKEYS>
AAADcfB+PAAAAAAAAAAAAAAAAAAAAAAAAAAkSAAAAAAAAAAAAAAAHgAACAAADXzxgAcCCAMABgCIAKDSCAAAAAAgAAAICAEIAEgbFBIAoQAmUAAHwAAfsYPI7MzOAAAAAAAAAAAAAAAAAAAAAAAAAAAAAA==

> <PUBCHEM_IUPAC_OPENEYE_NAME>
(3E,5S,6S,7S,9R,11E,13E,15S,16R)-6-[(2S,3R,4S,6R)-4-(dimethylamino)-3-hydroxy-6-methyl-tetrahydropyran-2-yl]oxy-16-ethyl-15-hydroxy-15-[[(2R,3R,4R,5R,6R)-5-hydroxy-3,4-dimethoxy-6-methyl-tetrahydropyran-2-yl]oxymethyl]-5,7,9-trimethyl-1-oxacyclohexadeca-3,11,13-triene-2,10-dione

> <PUBCHEM_IUPAC_CAS_NAME>
(3E,5S,6S,7S,9R,11E,13E,15S,16R)-6-[[(2S,3R,4S,6R)-4-(dimethylamino)-3-hydroxy-6-methyl-2-oxanyl]oxy]-16-ethyl-15-hydroxy-15-[[(2R,3R,4R,5R,6R)-5-hydroxy-3,4-dimethoxy-6-methyl-2-oxanyl]oxymethyl]-5,7,9-trimethyl-1-oxacyclohexadeca-3,11,13-triene-2,10-dione

> <PUBCHEM_IUPAC_NAME>
(3E,5S,6S,7S,9R,11E,13E,15S,16R)-6-[(2S,3R,4S,6R)-4-(dimethylamino)-3-hydroxy-6-methyloxan-2-yl]oxy-16-ethyl-15-hydroxy-15-[[(2R,3R,4R,5R,6R)-5-hydroxy-3,4-dimethoxy-6-methyloxan-2-yl]oxymethyl]-5,7,9-trimethyl-1-oxacyclohexadeca-3,11,13-triene-2,10-dione

> <PUBCHEM_IUPAC_SYSTEMATIC_NAME>
(3E,5S,6S,7S,9R,11E,13E,15S,16R)-15-[[(2R,3R,4R,5R,6R)-3,4-dimethoxy-6-methyl-5-oxidanyl-oxan-2-yl]oxymethyl]-6-[(2S,3R,4S,6R)-4-(dimethylamino)-6-methyl-3-oxidanyl-oxan-2-yl]oxy-16-ethyl-5,7,9-trimethyl-15-oxidanyl-1-oxacyclohexadeca-3,11,13-triene-2,10-dione

> <PUBCHEM_IUPAC_TRADITIONAL_NAME>
(3E,5S,6S,7S,9R,11E,13E,15S,16R)-6-[(2S,3R,4S,6R)-4-(dimethylamino)-3-hydroxy-6-methyl-tetrahydropyran-2-yl]oxy-16-ethyl-15-hydroxy-15-[[(2R,3R,4R,5R,6R)-5-hydroxy-3,4-dimethoxy-6-methyl-tetrahydropyran-2-yl]oxymethyl]-5,7,9-trimethyl-1-oxacyclohexadeca-3,11,13-triene-2,10-quinone

> <PUBCHEM_IUPAC_INCHI>
InChI=1S/C37H61NO12/c1-11-28-37(43,20-46-36-34(45-10)33(44-9)30(41)25(6)48-36)17-13-12-14-27(39)22(3)18-23(4)32(21(2)15-16-29(40)49-28)50-35-31(42)26(38(7)8)19-24(5)47-35/h12-17,21-26,28,30-36,41-43H,11,18-20H2,1-10H3/b14-12+,16-15+,17-13+/t21-,22+,23-,24+,25+,26-,28+,30+,31+,32+,33+,34+,35-,36+,37-/m0/s1

> <PUBCHEM_IUPAC_INCHIKEY>
YZYNKVRRUWKKRX-JGPZLTFNSA-N

> <PUBCHEM_XLOGP3_AA>
3

> <PUBCHEM_EXACT_MASS>
711.419376

> <PUBCHEM_MOLECULAR_FORMULA>
C37H61NO12

> <PUBCHEM_MOLECULAR_WEIGHT>
711.87974

> <PUBCHEM_OPENEYE_CAN_SMILES>
CCC1C(C=CC=CC(=O)C(CC(C(C(C=CC(=O)O1)C)OC2C(C(CC(O2)C)N(C)C)O)C)C)(COC3C(C(C(C(O3)C)O)OC)OC)O

> <PUBCHEM_OPENEYE_ISO_SMILES>
CC[C@@H]1[C@](/C=C/C=C/C(=O)[C@@H](C[C@@H]([C@@H]([C@H](/C=C/C(=O)O1)C)O[C@H]2[C@@H]([C@H](C[C@H](O2)C)N(C)C)O)C)C)(CO[C@H]3[C@@H]([C@@H]([C@@H]([C@H](O3)C)O)OC)OC)O

> <PUBCHEM_CACTVS_TPSA>
163

> <PUBCHEM_MONOISOTOPIC_WEIGHT>
711.419376

> <PUBCHEM_TOTAL_CHARGE>
0

> <PUBCHEM_HEAVY_ATOM_COUNT>
50

> <PUBCHEM_ATOM_DEF_STEREO_COUNT>
15

> <PUBCHEM_ATOM_UDEF_STEREO_COUNT>
0

> <PUBCHEM_BOND_DEF_STEREO_COUNT>
3

> <PUBCHEM_BOND_UDEF_STEREO_COUNT>
0

> <PUBCHEM_ISOTOPIC_ATOM_COUNT>
0

> <PUBCHEM_COMPONENT_COUNT>
1

> <PUBCHEM_CACTVS_TAUTO_COUNT>
2

> <PUBCHEM_COORDINATE_TYPE>
1
5
255

> <PUBCHEM_BONDANNOTATIONS>
16  1  5
17  1  6
35  10  6
14  13  5
19  24  5
20  25  5
21  31  5
23  36  6
15  3  6
30  40  6
39  42  6
29  5  6
26  6  5
27  7  5
28  8  5

$$$$

