442041
  -OEChem-07051212563D

 63 66  0     1  0  0  0  0  0999 V2000
   -0.6401   -2.0656   -0.6114 O   0  0  0  0  0  0  0  0  0  0  0  0
    1.2246   -2.3651    1.4887 O   0  0  0  0  0  0  0  0  0  0  0  0
   -4.2048    0.9886    0.0012 O   0  0  0  0  0  0  0  0  0  0  0  0
    0.5550    3.5520   -0.2144 O   0  0  0  0  0  0  0  0  0  0  0  0
    3.8160   -0.0677   -2.2523 O   0  0  0  0  0  0  0  0  0  0  0  0
   -2.2916   -3.5244    0.0821 O   0  0  0  0  0  0  0  0  0  0  0  0
   -4.9932   -0.6632    1.4108 O   0  0  0  0  0  0  0  0  0  0  0  0
    0.0261    0.1150    0.4557 C   0  0  1  0  0  0  0  0  0  0  0  0
    1.4811   -0.3790   -0.0148 C   0  0  1  0  0  0  0  0  0  0  0  0
    2.5187    0.7537   -0.3268 C   0  0  2  0  0  0  0  0  0  0  0  0
   -0.4488    1.3265   -0.4315 C   0  0  1  0  0  0  0  0  0  0  0  0
   -1.9003    1.8968   -0.1452 C   0  0  0  0  0  0  0  0  0  0  0  0
    3.2555    1.2465    0.9339 C   0  0  0  0  0  0  0  0  0  0  0  0
    2.1584   -1.5279    0.8211 C   0  0  1  0  0  0  0  0  0  0  0  0
   -1.0496   -1.0407    0.2986 C   0  0  1  0  0  0  0  0  0  0  0  0
    1.9453    1.8852   -1.1593 C   0  0  0  0  0  0  0  0  0  0  0  0
    4.1347    0.0530    1.3061 C   0  0  1  0  0  0  0  0  0  0  0  0
    3.2326   -1.0696    1.8298 C   0  0  0  0  0  0  0  0  0  0  0  0
    0.6635    2.3753   -0.5463 C   0  0  0  0  0  0  0  0  0  0  0  0
   -2.8430    0.7614    0.3655 C   0  0  2  0  0  0  0  0  0  0  0  0
    3.7126    0.1219   -1.0517 C   0  0  0  0  0  0  0  0  0  0  0  0
   -2.4385   -0.5949   -0.1760 C   0  0  0  0  0  0  0  0  0  0  0  0
    0.0562    0.5436    1.9432 C   0  0  0  0  0  0  0  0  0  0  0  0
    4.7297   -0.2832   -0.0334 C   0  0  0  0  0  0  0  0  0  0  0  0
   -2.4353    2.4871   -1.4788 C   0  0  0  0  0  0  0  0  0  0  0  0
   -1.9716    3.0425    0.8940 C   0  0  0  0  0  0  0  0  0  0  0  0
    5.9287   -0.7859   -0.3259 C   0  0  0  0  0  0  0  0  0  0  0  0
   -1.5149   -3.1021   -0.7638 C   0  0  0  0  0  0  0  0  0  0  0  0
   -5.0893    0.0338    0.4097 C   0  0  0  0  0  0  0  0  0  0  0  0
   -1.3912   -3.6673   -2.1463 C   0  0  0  0  0  0  0  0  0  0  0  0
   -6.2268   -0.0464   -0.5626 C   0  0  0  0  0  0  0  0  0  0  0  0
    1.2950   -0.8344   -1.0005 H   0  0  0  0  0  0  0  0  0  0  0  0
   -0.5021    0.9162   -1.4543 H   0  0  0  0  0  0  0  0  0  0  0  0
    2.5962    1.5400    1.7508 H   0  0  0  0  0  0  0  0  0  0  0  0
    3.8846    2.1197    0.7078 H   0  0  0  0  0  0  0  0  0  0  0  0
    2.6587   -2.1831    0.0948 H   0  0  0  0  0  0  0  0  0  0  0  0
   -1.1681   -1.5150    1.2827 H   0  0  0  0  0  0  0  0  0  0  0  0
    1.7229    1.5639   -2.1840 H   0  0  0  0  0  0  0  0  0  0  0  0
    2.6510    2.7203   -1.2431 H   0  0  0  0  0  0  0  0  0  0  0  0
    4.8921    0.3309    2.0456 H   0  0  0  0  0  0  0  0  0  0  0  0
    3.8434   -1.9380    2.1106 H   0  0  0  0  0  0  0  0  0  0  0  0
    2.7534   -0.7467    2.7622 H   0  0  0  0  0  0  0  0  0  0  0  0
   -2.8125    0.7292    1.4608 H   0  0  0  0  0  0  0  0  0  0  0  0
   -2.4802   -0.5685   -1.2748 H   0  0  0  0  0  0  0  0  0  0  0  0
   -3.1659   -1.3626    0.0908 H   0  0  0  0  0  0  0  0  0  0  0  0
    0.5582    1.5026    2.0854 H   0  0  0  0  0  0  0  0  0  0  0  0
   -0.9430    0.6502    2.3697 H   0  0  0  0  0  0  0  0  0  0  0  0
    0.5563   -0.1922    2.5759 H   0  0  0  0  0  0  0  0  0  0  0  0
   -1.7519    3.2437   -1.8803 H   0  0  0  0  0  0  0  0  0  0  0  0
   -2.5537    1.7091   -2.2408 H   0  0  0  0  0  0  0  0  0  0  0  0
   -3.4087    2.9727   -1.3451 H   0  0  0  0  0  0  0  0  0  0  0  0
   -3.0095    3.2202    1.2026 H   0  0  0  0  0  0  0  0  0  0  0  0
   -1.4010    2.8226    1.7985 H   0  0  0  0  0  0  0  0  0  0  0  0
   -1.6181    3.9964    0.4916 H   0  0  0  0  0  0  0  0  0  0  0  0
    1.7226   -3.0742    1.9299 H   0  0  0  0  0  0  0  0  0  0  0  0
    6.6295   -1.0379    0.4628 H   0  0  0  0  0  0  0  0  0  0  0  0
    6.2391   -0.9588   -1.3505 H   0  0  0  0  0  0  0  0  0  0  0  0
   -0.3763   -4.0407   -2.3043 H   0  0  0  0  0  0  0  0  0  0  0  0
   -1.6385   -2.8992   -2.8834 H   0  0  0  0  0  0  0  0  0  0  0  0
   -2.0911   -4.4998   -2.2619 H   0  0  0  0  0  0  0  0  0  0  0  0
   -5.8500   -0.3225   -1.5507 H   0  0  0  0  0  0  0  0  0  0  0  0
   -6.7483    0.9131   -0.6031 H   0  0  0  0  0  0  0  0  0  0  0  0
   -6.9329   -0.8137   -0.2323 H   0  0  0  0  0  0  0  0  0  0  0  0
  1 15  1  0  0  0  0
  1 28  1  0  0  0  0
  2 14  1  0  0  0  0
  2 55  1  0  0  0  0
  3 20  1  0  0  0  0
  3 29  1  0  0  0  0
  4 19  2  0  0  0  0
  5 21  2  0  0  0  0
  6 28  2  0  0  0  0
  7 29  2  0  0  0  0
  8  9  1  0  0  0  0
  8 11  1  0  0  0  0
  8 15  1  0  0  0  0
  8 23  1  0  0  0  0
  9 10  1  0  0  0  0
  9 14  1  0  0  0  0
  9 32  1  0  0  0  0
 10 13  1  0  0  0  0
 10 16  1  0  0  0  0
 10 21  1  0  0  0  0
 11 12  1  0  0  0  0
 11 19  1  0  0  0  0
 11 33  1  0  0  0  0
 12 20  1  0  0  0  0
 12 25  1  0  0  0  0
 12 26  1  0  0  0  0
 13 17  1  0  0  0  0
 13 34  1  0  0  0  0
 13 35  1  0  0  0  0
 14 18  1  0  0  0  0
 14 36  1  0  0  0  0
 15 22  1  0  0  0  0
 15 37  1  0  0  0  0
 16 19  1  0  0  0  0
 16 38  1  0  0  0  0
 16 39  1  0  0  0  0
 17 18  1  0  0  0  0
 17 24  1  0  0  0  0
 17 40  1  0  0  0  0
 18 41  1  0  0  0  0
 18 42  1  0  0  0  0
 20 22  1  0  0  0  0
 20 43  1  0  0  0  0
 21 24  1  0  0  0  0
 22 44  1  0  0  0  0
 22 45  1  0  0  0  0
 23 46  1  0  0  0  0
 23 47  1  0  0  0  0
 23 48  1  0  0  0  0
 24 27  2  0  0  0  0
 25 49  1  0  0  0  0
 25 50  1  0  0  0  0
 25 51  1  0  0  0  0
 26 52  1  0  0  0  0
 26 53  1  0  0  0  0
 26 54  1  0  0  0  0
 27 56  1  0  0  0  0
 27 57  1  0  0  0  0
 28 30  1  0  0  0  0
 29 31  1  0  0  0  0
 30 58  1  0  0  0  0
 30 59  1  0  0  0  0
 30 60  1  0  0  0  0
 31 61  1  0  0  0  0
 31 62  1  0  0  0  0
 31 63  1  0  0  0  0
M  END
> <PUBCHEM_COMPOUND_CID>
442041

> <PUBCHEM_CONFORMER_RMSD>
0.8

> <PUBCHEM_CONFORMER_DIVERSEORDER>
1
2
3

> <PUBCHEM_MMFF94_PARTIAL_CHARGES>
25
1 -0.43
10 0.06
11 0.06
14 0.28
15 0.28
16 0.06
17 0.14
19 0.45
2 -0.68
20 0.28
21 0.49
24 -0.12
27 -0.3
28 0.66
29 0.66
3 -0.43
30 0.06
31 0.06
4 -0.57
5 -0.57
55 0.4
56 0.15
57 0.15
6 -0.57
7 -0.57

> <PUBCHEM_EFFECTIVE_ROTOR_COUNT>
5.6

> <PUBCHEM_PHARMACOPHORE_FEATURES>
10
1 2 acceptor
1 2 donor
1 4 acceptor
1 5 acceptor
1 6 acceptor
1 7 acceptor
3 12 25 26 hydrophobe
6 8 11 12 15 20 22 rings
6 8 9 10 11 16 19 rings
8 9 10 13 14 17 18 21 24 rings

> <PUBCHEM_HEAVY_ATOM_COUNT>
31

> <PUBCHEM_ATOM_DEF_STEREO_COUNT>
8

> <PUBCHEM_ATOM_UDEF_STEREO_COUNT>
0

> <PUBCHEM_BOND_DEF_STEREO_COUNT>
0

> <PUBCHEM_BOND_UDEF_STEREO_COUNT>
0

> <PUBCHEM_ISOTOPIC_ATOM_COUNT>
0

> <PUBCHEM_COMPONENT_COUNT>
1

> <PUBCHEM_CACTVS_TAUTO_COUNT>
3

> <PUBCHEM_CONFORMER_ID>
0006BEB900000001

> <PUBCHEM_MMFF94_ENERGY>
137.4838

> <PUBCHEM_FEATURE_SELFOVERLAP>
50.773

> <PUBCHEM_SHAPE_FINGERPRINT>
10906281 52 18198330940233965225
1100329 8 18340205176749861329
11488393 25 17900246804697923447
11578080 2 17534349941930959385
11963148 33 18202566155286425083
12236239 1 17775000224117747292
12422481 6 18198610224629837641
12553582 1 18341342123117299910
12715332 25 18335419041431217909
12788726 201 18271519879290087952
13140716 1 18195811764976975537
13224815 77 18129660945025041048
13583140 156 17775283842446708259
13782708 43 17604147159538099942
14117953 113 18410292545420826285
14787075 74 17704346684510587145
14790565 3 18410566310488836333
14955137 171 18341041956469291114
15042514 8 18338514136736227931
15131766 46 15840123508936755878
15439362 3 17257937524829893220
15927050 60 17836073473265860828
1601671 61 18411415137622458873
16728300 4 17700433625801876523
16752209 62 18411133675267185132
16945 1 18343869896123473212
17349148 13 18259701194722667501
18603816 31 17023192643119714246
18681886 176 18409735058075409641
19319366 153 17989487416109286746
19591789 44 18267020737717295118
20028762 73 18113621158241637695
20261772 1 18411700971790690331
20691752 17 17701557116416149088
21033648 29 18041859400881210192
21267235 1 18271799155506903632
22113638 7 18411705352894942989
22182313 1 18265612267727624223
23419403 2 17111906549643531996
23558518 356 17693097366424818783
23559900 14 17968093071901303760
335352 9 18411699867983939607
340366 18 18339356362315557093
3493558 16 15051717708254766879
350125 39 18340769346659046225
4340502 62 15502377824549331020
463206 1 18270964544308043779
6287921 2 17901376020345041115
7471813 234 17758984535625857582

> <PUBCHEM_SHAPE_MULTIPOLES>
596.88
9.93
3.62
1.61
2.23
1.34
-0.1
1.03
0.22
2.45
-1.22
-0.71
0.43
-0.62

> <PUBCHEM_SHAPE_SELFOVERLAP>
1282.191

> <PUBCHEM_SHAPE_VOLUME>
324

> <PUBCHEM_COORDINATE_TYPE>
2
5
10

$$$$

