17396299
  -OEChem-06241222553D

 40 43  0     1  0  0  0  0  0999 V2000
   -4.9949   -1.3069   -1.2004 S   0  0  0  0  0  0  0  0  0  0  0  0
   -6.5582    1.0771    1.3162 O   0  0  0  0  0  0  0  0  0  0  0  0
    0.5023    2.2882    0.1830 O   0  0  0  0  0  0  0  0  0  0  0  0
   -4.3469    0.9693    0.7770 N   0  0  0  0  0  0  0  0  0  0  0  0
    1.5310    0.2465   -0.3656 N   0  0  0  0  0  0  0  0  0  0  0  0
    3.4144   -1.6731    0.3090 N   0  0  0  0  0  0  0  0  0  0  0  0
   -5.7783   -1.0129    0.4048 C   0  0  1  0  0  0  0  0  0  0  0  0
   -3.2476    0.4171    0.0913 C   0  0  0  0  0  0  0  0  0  0  0  0
   -3.3927   -0.6339   -0.8216 C   0  0  0  0  0  0  0  0  0  0  0  0
   -0.8720    0.5014   -0.3793 C   0  0  0  0  0  0  0  0  0  0  0  0
   -5.6206    0.4385    0.8324 C   0  0  0  0  0  0  0  0  0  0  0  0
   -1.9876    0.9918    0.2984 C   0  0  0  0  0  0  0  0  0  0  0  0
   -2.2693   -1.1135   -1.5065 C   0  0  0  0  0  0  0  0  0  0  0  0
   -1.0122   -0.5524   -1.2787 C   0  0  0  0  0  0  0  0  0  0  0  0
   -7.2431   -1.4297    0.3278 C   0  0  0  0  0  0  0  0  0  0  0  0
    2.8853    0.5730   -0.2443 C   0  0  0  0  0  0  0  0  0  0  0  0
    0.4362    1.0946   -0.1525 C   0  0  0  0  0  0  0  0  0  0  0  0
    3.8153   -0.4055    0.0963 C   0  0  0  0  0  0  0  0  0  0  0  0
    5.1689   -0.0242    0.2078 C   0  0  0  0  0  0  0  0  0  0  0  0
    3.2661    1.8977   -0.4721 C   0  0  0  0  0  0  0  0  0  0  0  0
    5.5521    1.3082   -0.0213 C   0  0  0  0  0  0  0  0  0  0  0  0
    4.6010    2.2662   -0.3606 C   0  0  0  0  0  0  0  0  0  0  0  0
    6.1055   -1.0087    0.5506 C   0  0  0  0  0  0  0  0  0  0  0  0
    5.6954   -2.3157    0.7705 C   0  0  0  0  0  0  0  0  0  0  0  0
    4.3499   -2.5931    0.6381 C   0  0  0  0  0  0  0  0  0  0  0  0
   -5.2770   -1.6342    1.1569 H   0  0  0  0  0  0  0  0  0  0  0  0
   -1.8836    1.8164    1.0009 H   0  0  0  0  0  0  0  0  0  0  0  0
   -4.1944    1.8583    1.2463 H   0  0  0  0  0  0  0  0  0  0  0  0
   -2.3602   -1.9181   -2.2328 H   0  0  0  0  0  0  0  0  0  0  0  0
   -0.1764   -0.9413   -1.8536 H   0  0  0  0  0  0  0  0  0  0  0  0
   -7.8045   -0.8164   -0.3868 H   0  0  0  0  0  0  0  0  0  0  0  0
   -7.3480   -2.4820    0.0411 H   0  0  0  0  0  0  0  0  0  0  0  0
   -7.7278   -1.3101    1.3036 H   0  0  0  0  0  0  0  0  0  0  0  0
    1.3455   -0.7527   -0.4150 H   0  0  0  0  0  0  0  0  0  0  0  0
    2.5670    2.6648   -0.7871 H   0  0  0  0  0  0  0  0  0  0  0  0
    6.5950    1.6067    0.0609 H   0  0  0  0  0  0  0  0  0  0  0  0
    4.9032    3.2921   -0.5479 H   0  0  0  0  0  0  0  0  0  0  0  0
    7.1602   -0.7621    0.6481 H   0  0  0  0  0  0  0  0  0  0  0  0
    6.4061   -3.0893    1.0363 H   0  0  0  0  0  0  0  0  0  0  0  0
    3.9708   -3.5972    0.7979 H   0  0  0  0  0  0  0  0  0  0  0  0
  1  7  1  0  0  0  0
  1  9  1  0  0  0  0
  2 11  2  0  0  0  0
  3 17  2  0  0  0  0
  4  8  1  0  0  0  0
  4 11  1  0  0  0  0
  4 28  1  0  0  0  0
  5 16  1  0  0  0  0
  5 17  1  0  0  0  0
  5 34  1  0  0  0  0
  6 18  1  0  0  0  0
  6 25  2  0  0  0  0
  7 11  1  0  0  0  0
  7 15  1  0  0  0  0
  7 26  1  0  0  0  0
  8  9  2  0  0  0  0
  8 12  1  0  0  0  0
  9 13  1  0  0  0  0
 10 12  2  0  0  0  0
 10 14  1  0  0  0  0
 10 17  1  0  0  0  0
 12 27  1  0  0  0  0
 13 14  2  0  0  0  0
 13 29  1  0  0  0  0
 14 30  1  0  0  0  0
 15 31  1  0  0  0  0
 15 32  1  0  0  0  0
 15 33  1  0  0  0  0
 16 18  1  0  0  0  0
 16 20  2  0  0  0  0
 18 19  2  0  0  0  0
 19 21  1  0  0  0  0
 19 23  1  0  0  0  0
 20 22  1  0  0  0  0
 20 35  1  0  0  0  0
 21 22  2  0  0  0  0
 21 36  1  0  0  0  0
 22 37  1  0  0  0  0
 23 24  2  0  0  0  0
 23 38  1  0  0  0  0
 24 25  1  0  0  0  0
 24 39  1  0  0  0  0
 25 40  1  0  0  0  0
M  END
> <PUBCHEM_COMPOUND_CID>
17396299

> <PUBCHEM_CONFORMER_RMSD>
0.8

> <PUBCHEM_CONFORMER_DIVERSEORDER>
3
10
5
18
17
22
14
21
7
24
16
4
2
25
19
23
1
15
12
13
8
9
6
20
11

> <PUBCHEM_MMFF94_PARTIAL_CHARGES>
34
1 -0.33
10 0.09
11 0.57
12 -0.15
13 -0.15
14 -0.15
16 0.12
17 0.54
18 0.31
2 -0.57
20 -0.15
21 -0.15
22 -0.15
23 -0.15
24 -0.15
25 0.16
27 0.15
28 0.37
29 0.15
3 -0.57
30 0.15
34 0.37
35 0.15
36 0.15
37 0.15
38 0.15
39 0.15
4 -0.55
40 0.15
5 -0.55
6 -0.62
7 0.29
8 0.12
9 0.1

> <PUBCHEM_EFFECTIVE_ROTOR_COUNT>
3.6

> <PUBCHEM_PHARMACOPHORE_FEATURES>
9
1 2 acceptor
1 3 acceptor
1 4 donor
1 5 donor
1 6 acceptor
6 1 4 7 8 9 11 rings
6 16 18 19 20 21 22 rings
6 6 18 19 23 24 25 rings
6 8 9 10 12 13 14 rings

> <PUBCHEM_HEAVY_ATOM_COUNT>
25

> <PUBCHEM_ATOM_DEF_STEREO_COUNT>
0

> <PUBCHEM_ATOM_UDEF_STEREO_COUNT>
1

> <PUBCHEM_BOND_DEF_STEREO_COUNT>
0

> <PUBCHEM_BOND_UDEF_STEREO_COUNT>
0

> <PUBCHEM_ISOTOPIC_ATOM_COUNT>
0

> <PUBCHEM_COMPONENT_COUNT>
1

> <PUBCHEM_CACTVS_TAUTO_COUNT>
4

> <PUBCHEM_CONFORMER_ID>
0109724B00000003

> <PUBCHEM_MMFF94_ENERGY>
85.9471

> <PUBCHEM_FEATURE_SELFOVERLAP>
45.719

> <PUBCHEM_SHAPE_FINGERPRINT>
10 15 17748824094913002723
10299344 5 18407757023671476446
10595046 47 18409728430703442833
12107183 9 17904197379718871480
12236239 1 18334011683553564361
12516196 113 18408887321551198176
12596602 18 18409445882401185459
12616971 3 18333456438803017062
12788726 201 17604137199039565584
13073987 5 18409730651359790465
13533116 47 18413107256174524056
13551218 46 18409731789415178847
13668630 136 17418373567761789515
13685833 64 18202283606208205962
13782708 43 17203614804075845618
13785724 45 17829318426313050958
14251764 18 18259703376792718943
15183329 4 18186522090176568637
15250474 111 18188503379807067918
15352257 5 17917989456157163907
15537594 2 18335983086728010990
1577012 14 18260265235497659301
15799311 1 18271230651781350090
17492 89 18267306628637908242
17844677 252 18202001053184421309
17857418 61 18335707134773268103
1813 80 17847056701079180652
1979834 28 17312817208504886974
20028762 73 18337397131960415194
20511986 3 18187378609650216108
20554085 129 16081369708892377607
20567600 75 17917999386458584221
20645477 70 18131638885408295288
21065198 48 18334577927604425092
21267235 1 18410291450278076758
21315763 178 18260555493845760796
21623969 137 18202843244789548922
21792964 463 18128230386067241324
220451 1 18409163286016127508
22061861 79 17632864126522014927
22950370 63 18410014320874515021
2303208 19 17132117944004329279
23081809 10 18187087226289234581
23522609 53 18192124084714590937
23559900 14 18129102217530711577
23569914 152 16763997229246880735
23569943 247 17773605003591223043
3004659 81 18187638107601013900
314194 84 18409732820138543546
3633792 109 18200890530262603919
3663271 9 18335416851098059115
3680242 22 18335980947660509734
4073 2 18127406761535817498
46194498 28 17132120109105612900
465052 167 18409448107352766366
5104073 3 18187086117918627539
513202 73 18059295473886782813
54039377 194 18339642356495369598
5758199 1 18265055744063967120
7226269 152 16732697255997820755

> <PUBCHEM_SHAPE_MULTIPOLES>
491.66
18.9
2.33
1.07
10.27
0.34
-0.16
5.79
5.07
-3.3
0.26
1.18
0.19
-2.08

> <PUBCHEM_SHAPE_SELFOVERLAP>
1079.417

> <PUBCHEM_SHAPE_VOLUME>
265.6

> <PUBCHEM_COORDINATE_TYPE>
2
5
10

$$$$

