99613
  -OEChem-07051212473D

 37 38  0     0  0  0  0  0  0999 V2000
    0.4156    0.0100    0.6461 O   0  0  0  0  0  0  0  0  0  0  0  0
   -3.6557    2.4134    0.0662 O   0  0  0  0  0  0  0  0  0  0  0  0
    2.6188    2.4009   -0.2496 O   0  0  0  0  0  0  0  0  0  0  0  0
    6.6669    0.0165    0.5352 O   0  0  0  0  0  0  0  0  0  0  0  0
    0.6993    0.0024   -1.6672 O   0  0  0  0  0  0  0  0  0  0  0  0
   -5.8247    0.0302    1.0514 O   0  0  0  0  0  0  0  0  0  0  0  0
   -5.7075    0.0177   -1.2186 O   0  0  0  0  0  0  0  0  0  0  0  0
    2.6185    0.0006   -0.2521 C   0  0  0  0  0  0  0  0  0  0  0  0
   -3.0072   -1.1953    0.1799 C   0  0  0  0  0  0  0  0  0  0  0  0
    3.2818   -1.2048   -0.1243 C   0  0  0  0  0  0  0  0  0  0  0  0
   -3.6959    0.0133    0.0765 C   0  0  0  0  0  0  0  0  0  0  0  0
   -0.9326    0.0110    0.4593 C   0  0  0  0  0  0  0  0  0  0  0  0
   -1.6256   -1.1964    0.3713 C   0  0  0  0  0  0  0  0  0  0  0  0
   -3.0030    1.2207    0.1646 C   0  0  0  0  0  0  0  0  0  0  0  0
    3.2723    1.2112   -0.1236 C   0  0  0  0  0  0  0  0  0  0  0  0
   -1.6214    1.2196    0.3560 C   0  0  0  0  0  0  0  0  0  0  0  0
    4.6509   -1.1995    0.1419 C   0  0  0  0  0  0  0  0  0  0  0  0
    1.1605    0.0011   -0.5356 C   0  0  0  0  0  0  0  0  0  0  0  0
   -3.7226   -2.5041    0.0901 C   0  0  0  0  0  0  0  0  0  0  0  0
    5.3309    0.0112    0.2753 C   0  0  0  0  0  0  0  0  0  0  0  0
    4.6415    1.2165    0.1426 C   0  0  0  0  0  0  0  0  0  0  0  0
    2.5802   -2.5170   -0.2616 C   0  0  0  0  0  0  0  0  0  0  0  0
   -5.1409    0.0207   -0.1238 C   0  0  0  0  0  0  0  0  0  0  0  0
   -1.0788   -2.1327    0.4539 H   0  0  0  0  0  0  0  0  0  0  0  0
   -1.0810    2.1605    0.4250 H   0  0  0  0  0  0  0  0  0  0  0  0
    5.1985   -2.1329    0.2477 H   0  0  0  0  0  0  0  0  0  0  0  0
   -4.4511   -2.5999    0.9018 H   0  0  0  0  0  0  0  0  0  0  0  0
   -4.2372   -2.5956   -0.8722 H   0  0  0  0  0  0  0  0  0  0  0  0
   -3.0332   -3.3518    0.1700 H   0  0  0  0  0  0  0  0  0  0  0  0
    5.1660    2.1634    0.2456 H   0  0  0  0  0  0  0  0  0  0  0  0
    1.8132   -2.6242    0.5125 H   0  0  0  0  0  0  0  0  0  0  0  0
    2.1134   -2.6020   -1.2484 H   0  0  0  0  0  0  0  0  0  0  0  0
    3.2699   -3.3616   -0.1560 H   0  0  0  0  0  0  0  0  0  0  0  0
   -4.6073    2.2725   -0.0633 H   0  0  0  0  0  0  0  0  0  0  0  0
    1.6758    2.2541   -0.4271 H   0  0  0  0  0  0  0  0  0  0  0  0
    6.9728    0.9378    0.5957 H   0  0  0  0  0  0  0  0  0  0  0  0
   -6.7953    0.0340    0.9091 H   0  0  0  0  0  0  0  0  0  0  0  0
  1 12  1  0  0  0  0
  1 18  1  0  0  0  0
  2 14  1  0  0  0  0
  2 34  1  0  0  0  0
  3 15  1  0  0  0  0
  3 35  1  0  0  0  0
  4 20  1  0  0  0  0
  4 36  1  0  0  0  0
  5 18  2  0  0  0  0
  6 23  1  0  0  0  0
  6 37  1  0  0  0  0
  7 23  2  0  0  0  0
  8 10  1  0  0  0  0
  8 15  2  0  0  0  0
  8 18  1  0  0  0  0
  9 11  1  0  0  0  0
  9 13  2  0  0  0  0
  9 19  1  0  0  0  0
 10 17  2  0  0  0  0
 10 22  1  0  0  0  0
 11 14  2  0  0  0  0
 11 23  1  0  0  0  0
 12 13  1  0  0  0  0
 12 16  2  0  0  0  0
 13 24  1  0  0  0  0
 14 16  1  0  0  0  0
 15 21  1  0  0  0  0
 16 25  1  0  0  0  0
 17 20  1  0  0  0  0
 17 26  1  0  0  0  0
 19 27  1  0  0  0  0
 19 28  1  0  0  0  0
 19 29  1  0  0  0  0
 20 21  2  0  0  0  0
 21 30  1  0  0  0  0
 22 31  1  0  0  0  0
 22 32  1  0  0  0  0
 22 33  1  0  0  0  0
M  END
> <PUBCHEM_COMPOUND_CID>
99613

> <PUBCHEM_CONFORMER_RMSD>
0.8

> <PUBCHEM_CONFORMER_DIVERSEORDER>
1
30
37
25
54
55
7
44
19
45
56
26
28
17
31
33
29
12
47
6
27
51
36
57
40
52
34
4
21
23
15
20
53
16
2
14
38
50
18
24
32
10
39
5
22
3
9
35
13
8
46
41
49
42
11
48
43

> <PUBCHEM_MMFF94_PARTIAL_CHARGES>
31
1 -0.23
10 -0.14
11 0.09
12 0.08
13 -0.15
14 0.08
15 0.08
16 -0.15
17 -0.15
18 0.63
19 0.14
2 -0.53
20 0.08
21 -0.15
22 0.14
23 0.63
24 0.15
25 0.15
26 0.15
3 -0.53
30 0.15
34 0.45
35 0.45
36 0.45
37 0.5
4 -0.53
5 -0.57
6 -0.65
7 -0.57
8 0.09
9 -0.14

> <PUBCHEM_EFFECTIVE_ROTOR_COUNT>
4

> <PUBCHEM_PHARMACOPHORE_FEATURES>
9
1 2 donor
1 3 donor
1 4 donor
1 5 acceptor
1 6 acceptor
1 7 acceptor
3 6 7 23 anion
6 8 10 15 17 20 21 rings
6 9 11 12 13 14 16 rings

> <PUBCHEM_HEAVY_ATOM_COUNT>
23

> <PUBCHEM_ATOM_DEF_STEREO_COUNT>
0

> <PUBCHEM_ATOM_UDEF_STEREO_COUNT>
0

> <PUBCHEM_BOND_DEF_STEREO_COUNT>
0

> <PUBCHEM_BOND_UDEF_STEREO_COUNT>
0

> <PUBCHEM_ISOTOPIC_ATOM_COUNT>
0

> <PUBCHEM_COMPONENT_COUNT>
1

> <PUBCHEM_CACTVS_TAUTO_COUNT>
325

> <PUBCHEM_CONFORMER_ID>
0001851D00000001

> <PUBCHEM_MMFF94_ENERGY>
82.9485

> <PUBCHEM_FEATURE_SELFOVERLAP>
45.727

> <PUBCHEM_SHAPE_FINGERPRINT>
10 15 18187378589087756568
10595046 47 18410012108945161072
11315181 36 18272367560074189000
11370993 70 18411138039186358842
11405975 8 18412540977236268171
12107183 9 17762619894597207490
12166972 35 18187081754712513384
12236239 1 17704072893314517841
12670546 56 18340771528227638761
128620 24 15430034374578509120
13073987 5 18340767164530297379
13167823 11 18411700976244094898
13533116 47 18336828688147223138
13583140 156 17968102997016719898
13675066 3 17846210038914009939
14341114 176 18409161125884817720
15788980 27 18131631162265884403
17349148 13 17967812786071202381
17492 89 18410288103602579222
17857418 61 18410859862522569666
1813 80 16845285081739147198
18681886 176 18334861572431014522
19489759 90 18410013238574366057
200 152 18040999548438541073
20645477 70 18187361090705579822
21033648 29 17988659483822143725
21267235 1 18412254047540360546
21709351 56 18411986832366645982
23402539 116 18411423873681020975
23557571 272 18113613521067091713
23559900 14 18410016498480976104
26918003 58 18411138017600317354
300161 21 18411425002898879347
34797466 226 17967805034114325260
351380 180 18410012126156815213
3545911 37 18409446994613098240
4073 2 18131345272712030202
4214541 1 18411418427356625257
4325135 7 18113903766904785813
5104073 3 18339075020366840370
5283173 99 18270689774150341797
542803 24 17313100864981786723
7495541 125 17749112140725537337
9709674 26 18335975467076680719

> <PUBCHEM_SHAPE_MULTIPOLES>
432.24
13.93
2.13
0.85
0.96
0.3
0.16
-0.22
-1.03
-0.16
0.02
-0.33
0.01
0.04

> <PUBCHEM_SHAPE_SELFOVERLAP>
941.928

> <PUBCHEM_SHAPE_VOLUME>
234.3

> <PUBCHEM_COORDINATE_TYPE>
2
5
10

$$$$

