8573
  -OEChem-06261202552D

 32 32  0     1  0  0  0  0  0999 V2000
    6.0010   -0.0600    0.0000 O   0  0  0  0  0  0  0  0  0  0  0  0
    4.2690   -0.0600    0.0000 O   0  0  0  0  0  0  0  0  0  0  0  0
    2.5369   -2.0600    0.0000 O   0  0  0  0  0  0  0  0  0  0  0  0
    3.4030   -0.5600    0.0000 O   0  0  0  0  0  0  0  0  0  0  0  0
    6.0010    0.9400    0.0000 C   0  0  3  0  0  0  0  0  0  0  0  0
    7.0010    0.9400    0.0000 C   0  0  0  0  0  0  0  0  0  0  0  0
    5.0010    0.9400    0.0000 C   0  0  0  0  0  0  0  0  0  0  0  0
    7.5010    1.8060    0.0000 C   0  0  0  0  0  0  0  0  0  0  0  0
    5.1350   -1.5600    0.0000 C   0  0  0  0  0  0  0  0  0  0  0  0
    5.1350   -0.5600    0.0000 C   0  0  0  0  0  0  0  0  0  0  0  0
    6.0010    1.9400    0.0000 C   0  0  0  0  0  0  0  0  0  0  0  0
    4.2690   -2.0600    0.0000 C   0  0  0  0  0  0  0  0  0  0  0  0
    6.0010   -2.0600    0.0000 C   0  0  0  0  0  0  0  0  0  0  0  0
    4.2690   -3.0600    0.0000 C   0  0  0  0  0  0  0  0  0  0  0  0
    6.0010   -3.0600    0.0000 C   0  0  0  0  0  0  0  0  0  0  0  0
    5.1350   -3.5600    0.0000 C   0  0  0  0  0  0  0  0  0  0  0  0
    3.4030   -1.5600    0.0000 C   0  0  0  0  0  0  0  0  0  0  0  0
    6.0010    2.9400    0.0000 C   0  0  0  0  0  0  0  0  0  0  0  0
    6.8934    0.3294    0.0000 H   0  0  0  0  0  0  0  0  0  0  0  0
    7.5836    0.7279    0.0000 H   0  0  0  0  0  0  0  0  0  0  0  0
    5.0010    1.5600    0.0000 H   0  0  0  0  0  0  0  0  0  0  0  0
    4.3810    0.9400    0.0000 H   0  0  0  0  0  0  0  0  0  0  0  0
    5.0010    0.3200    0.0000 H   0  0  0  0  0  0  0  0  0  0  0  0
    8.0380    1.4960    0.0000 H   0  0  0  0  0  0  0  0  0  0  0  0
    7.8110    2.3430    0.0000 H   0  0  0  0  0  0  0  0  0  0  0  0
    6.9641    2.1160    0.0000 H   0  0  0  0  0  0  0  0  0  0  0  0
    6.5380   -1.7500    0.0000 H   0  0  0  0  0  0  0  0  0  0  0  0
    3.7320   -3.3700    0.0000 H   0  0  0  0  0  0  0  0  0  0  0  0
    6.5380   -3.3700    0.0000 H   0  0  0  0  0  0  0  0  0  0  0  0
    5.1350   -4.1800    0.0000 H   0  0  0  0  0  0  0  0  0  0  0  0
    6.0010    3.5600    0.0000 H   0  0  0  0  0  0  0  0  0  0  0  0
    2.0000   -1.7500    0.0000 H   0  0  0  0  0  0  0  0  0  0  0  0
  1  5  1  0  0  0  0
  1 10  1  0  0  0  0
  2 10  2  0  0  0  0
  3 17  1  0  0  0  0
  3 32  1  0  0  0  0
  4 17  2  0  0  0  0
  5  6  1  0  0  0  0
  5  7  1  0  0  0  0
  5 11  1  0  0  0  0
  6  8  1  0  0  0  0
  6 19  1  0  0  0  0
  6 20  1  0  0  0  0
  7 21  1  0  0  0  0
  7 22  1  0  0  0  0
  7 23  1  0  0  0  0
  8 24  1  0  0  0  0
  8 25  1  0  0  0  0
  8 26  1  0  0  0  0
  9 10  1  0  0  0  0
  9 12  1  0  0  0  0
  9 13  2  0  0  0  0
 11 18  3  0  0  0  0
 12 14  2  0  0  0  0
 12 17  1  0  0  0  0
 13 15  1  0  0  0  0
 13 27  1  0  0  0  0
 14 16  1  0  0  0  0
 14 28  1  0  0  0  0
 15 16  2  0  0  0  0
 15 29  1  0  0  0  0
 16 30  1  0  0  0  0
 18 31  1  0  0  0  0
M  END
> <PUBCHEM_COMPOUND_CID>
8573

> <PUBCHEM_COMPOUND_CANONICALIZED>
1

> <PUBCHEM_CACTVS_COMPLEXITY>
379

> <PUBCHEM_CACTVS_HBOND_ACCEPTOR>
4

> <PUBCHEM_CACTVS_HBOND_DONOR>
1

> <PUBCHEM_CACTVS_ROTATABLE_BOND>
6

> <PUBCHEM_CACTVS_SUBSKEYS>
AAADccBwOAAAAAAAAAAAAAAAAAAAAAAAAAAwAAAAAAAAAAABAAAAGgAACAAADESAmAAyCIAABgDIGiDSCAgCAAAkAAAIiAEACMgIJjKANRiCcQAkwAEIuYfLyKCOgAAAAAAQAAAAAAAAACAAAAAAAAAAAA==

> <PUBCHEM_IUPAC_OPENEYE_NAME>
2-(1-ethyl-1-methyl-prop-2-ynoxy)carbonylbenzoic acid

> <PUBCHEM_IUPAC_CAS_NAME>
2-[3-methylpent-1-yn-3-yloxy(oxo)methyl]benzoic acid

> <PUBCHEM_IUPAC_NAME>
2-(3-methylpent-1-yn-3-yloxycarbonyl)benzoic acid

> <PUBCHEM_IUPAC_SYSTEMATIC_NAME>
2-(3-methylpent-1-yn-3-yloxycarbonyl)benzoic acid

> <PUBCHEM_IUPAC_TRADITIONAL_NAME>
2-(1-ethyl-1-methyl-prop-2-ynoxy)carbonylbenzoic acid

> <PUBCHEM_IUPAC_INCHI>
InChI=1S/C14H14O4/c1-4-14(3,5-2)18-13(17)11-9-7-6-8-10(11)12(15)16/h1,6-9H,5H2,2-3H3,(H,15,16)

> <PUBCHEM_IUPAC_INCHIKEY>
CZGIRAWWWHPJHM-UHFFFAOYSA-N

> <PUBCHEM_XLOGP3_AA>
2.5

> <PUBCHEM_EXACT_MASS>
246.089209

> <PUBCHEM_MOLECULAR_FORMULA>
C14H14O4

> <PUBCHEM_MOLECULAR_WEIGHT>
246.25856

> <PUBCHEM_OPENEYE_CAN_SMILES>
CCC(C)(C#C)OC(=O)C1=CC=CC=C1C(=O)O

> <PUBCHEM_OPENEYE_ISO_SMILES>
CCC(C)(C#C)OC(=O)C1=CC=CC=C1C(=O)O

> <PUBCHEM_CACTVS_TPSA>
63.6

> <PUBCHEM_MONOISOTOPIC_WEIGHT>
246.089209

> <PUBCHEM_TOTAL_CHARGE>
0

> <PUBCHEM_HEAVY_ATOM_COUNT>
18

> <PUBCHEM_ATOM_DEF_STEREO_COUNT>
0

> <PUBCHEM_ATOM_UDEF_STEREO_COUNT>
1

> <PUBCHEM_BOND_DEF_STEREO_COUNT>
0

> <PUBCHEM_BOND_UDEF_STEREO_COUNT>
0

> <PUBCHEM_ISOTOPIC_ATOM_COUNT>
0

> <PUBCHEM_COMPONENT_COUNT>
1

> <PUBCHEM_CACTVS_TAUTO_COUNT>
1

> <PUBCHEM_COORDINATE_TYPE>
1
5
255

> <PUBCHEM_BONDANNOTATIONS>
12  14  8
13  15  8
14  16  8
15  16  8
5  7  3
9  12  8
9  13  8

$$$$

