6386307
  -OEChem-07051213122D

 39 38  0     0  0  0  0  0  0999 V2000
    7.1962    0.5000    0.0000 S   0  0  0  0  0  0  0  0  0  0  0  0
   11.5263   -1.0000    0.0000 S   0  0  0  0  0  0  0  0  0  0  0  0
    2.8660   -1.0000    0.0000 S   0  0  0  0  0  0  0  0  0  0  0  0
    9.7942    0.0000    0.0000 O   0  0  0  0  0  0  0  0  0  0  0  0
    4.5981    0.0000    0.0000 O   0  0  0  0  0  0  0  0  0  0  0  0
    8.9282    1.5000    0.0000 O   0  0  0  0  0  0  0  0  0  0  0  0
    5.4641    1.5000    0.0000 O   0  0  0  0  0  0  0  0  0  0  0  0
    8.0622    0.0000    0.0000 N   0  0  0  0  0  0  0  0  0  0  0  0
    6.3301    0.0000    0.0000 N   0  0  0  0  0  0  0  0  0  0  0  0
   10.6603    0.5000    0.0000 N   0  0  0  0  0  0  0  0  0  0  0  0
    3.7320    0.5000    0.0000 N   0  0  0  0  0  0  0  0  0  0  0  0
    6.3301   -1.0000    0.0000 C   0  0  0  0  0  0  0  0  0  0  0  0
    8.0622   -1.0000    0.0000 C   0  0  0  0  0  0  0  0  0  0  0  0
    5.4641    0.5000    0.0000 C   0  0  0  0  0  0  0  0  0  0  0  0
    8.9282    0.5000    0.0000 C   0  0  0  0  0  0  0  0  0  0  0  0
   11.5263    0.0000    0.0000 C   0  0  0  0  0  0  0  0  0  0  0  0
    2.8660    0.0000    0.0000 C   0  0  0  0  0  0  0  0  0  0  0  0
   12.3923    0.5000    0.0000 C   0  0  0  0  0  0  0  0  0  0  0  0
    2.0000    0.5000    0.0000 C   0  0  0  0  0  0  0  0  0  0  0  0
   12.3923   -1.5000    0.0000 C   0  0  0  0  0  0  0  0  0  0  0  0
    2.0000   -1.5000    0.0000 C   0  0  0  0  0  0  0  0  0  0  0  0
    5.7101   -1.0000    0.0000 H   0  0  0  0  0  0  0  0  0  0  0  0
    6.3301   -1.6200    0.0000 H   0  0  0  0  0  0  0  0  0  0  0  0
    6.9501   -1.0000    0.0000 H   0  0  0  0  0  0  0  0  0  0  0  0
    7.4422   -1.0000    0.0000 H   0  0  0  0  0  0  0  0  0  0  0  0
    8.0622   -1.6200    0.0000 H   0  0  0  0  0  0  0  0  0  0  0  0
    8.6822   -1.0000    0.0000 H   0  0  0  0  0  0  0  0  0  0  0  0
   12.7023   -0.0369    0.0000 H   0  0  0  0  0  0  0  0  0  0  0  0
   12.9292    0.8100    0.0000 H   0  0  0  0  0  0  0  0  0  0  0  0
   12.0823    1.0369    0.0000 H   0  0  0  0  0  0  0  0  0  0  0  0
    2.3100    1.0369    0.0000 H   0  0  0  0  0  0  0  0  0  0  0  0
    1.4631    0.8100    0.0000 H   0  0  0  0  0  0  0  0  0  0  0  0
    1.6900   -0.0369    0.0000 H   0  0  0  0  0  0  0  0  0  0  0  0
   12.0823   -2.0369    0.0000 H   0  0  0  0  0  0  0  0  0  0  0  0
   12.9292   -1.8100    0.0000 H   0  0  0  0  0  0  0  0  0  0  0  0
   12.7023   -0.9631    0.0000 H   0  0  0  0  0  0  0  0  0  0  0  0
    1.6900   -0.9631    0.0000 H   0  0  0  0  0  0  0  0  0  0  0  0
    1.4631   -1.8100    0.0000 H   0  0  0  0  0  0  0  0  0  0  0  0
    2.3100   -2.0369    0.0000 H   0  0  0  0  0  0  0  0  0  0  0  0
  1  8  1  0  0  0  0
  1  9  1  0  0  0  0
  2 16  1  0  0  0  0
  2 20  1  0  0  0  0
  3 17  1  0  0  0  0
  3 21  1  0  0  0  0
  4 10  1  0  0  0  0
  4 15  1  0  0  0  0
  5 11  1  0  0  0  0
  5 14  1  0  0  0  0
  6 15  2  0  0  0  0
  7 14  2  0  0  0  0
  8 13  1  0  0  0  0
  8 15  1  0  0  0  0
  9 12  1  0  0  0  0
  9 14  1  0  0  0  0
 10 16  2  0  0  0  0
 11 17  2  0  0  0  0
 12 22  1  0  0  0  0
 12 23  1  0  0  0  0
 12 24  1  0  0  0  0
 13 25  1  0  0  0  0
 13 26  1  0  0  0  0
 13 27  1  0  0  0  0
 16 18  1  0  0  0  0
 17 19  1  0  0  0  0
 18 28  1  0  0  0  0
 18 29  1  0  0  0  0
 18 30  1  0  0  0  0
 19 31  1  0  0  0  0
 19 32  1  0  0  0  0
 19 33  1  0  0  0  0
 20 34  1  0  0  0  0
 20 35  1  0  0  0  0
 20 36  1  0  0  0  0
 21 37  1  0  0  0  0
 21 38  1  0  0  0  0
 21 39  1  0  0  0  0
M  END
> <PUBCHEM_COMPOUND_CID>
6386307

> <PUBCHEM_COMPOUND_CANONICALIZED>
1

> <PUBCHEM_CACTVS_COMPLEXITY>
393

> <PUBCHEM_CACTVS_HBOND_ACCEPTOR>
9

> <PUBCHEM_CACTVS_HBOND_DONOR>
0

> <PUBCHEM_CACTVS_ROTATABLE_BOND>
8

> <PUBCHEM_CACTVS_SUBSKEYS>
AAADceBzuABgAAAAAAAAAAAAAAAAAAAAAAAAAAAAAAAAAAAAAAAAHgQEQAAAAACBQASCCAIQAAgoAAAgGAAAAAAAABAAAAAYAAAAAAAAAAAAAAAAAgAAAAAAAAAAAAAAAAAAAAAAAAAAAAAAAAAAAAAAAA==

> <PUBCHEM_IUPAC_OPENEYE_NAME>
methyl (1Z)-N-[methyl-[methyl-[(Z)-1-methylsulfanylethylideneamino]oxycarbonyl-amino]sulfanyl-carbamoyl]oxyethanimidothioate

> <PUBCHEM_IUPAC_CAS_NAME>
(1Z)-N-[[methyl-[[methyl-[[(Z)-1-(methylthio)ethylideneamino]oxy-oxomethyl]amino]thio]amino]-oxomethoxy]ethanimidothioic acid methyl ester

> <PUBCHEM_IUPAC_NAME>
methyl (1Z)-N-[methyl-[methyl-[(Z)-1-methylsulfanylethylideneamino]oxycarbonylamino]sulfanylcarbamoyl]oxyethanimidothioate

> <PUBCHEM_IUPAC_SYSTEMATIC_NAME>
methyl (1Z)-N-[methyl-[methyl-[(Z)-1-methylsulfanylethylideneamino]oxycarbonyl-amino]sulfanyl-carbamoyl]oxyethanimidothioate

> <PUBCHEM_IUPAC_TRADITIONAL_NAME>
(1Z)-N-[methyl-[[methyl-[(Z)-1-(methylthio)ethylideneamino]oxycarbonyl-amino]thio]carbamoyl]oxythioacetimidic acid methyl ester

> <PUBCHEM_IUPAC_INCHI>
InChI=1S/C10H18N4O4S3/c1-7(19-5)11-17-9(15)13(3)21-14(4)10(16)18-12-8(2)20-6/h1-6H3/b11-7-,12-8-

> <PUBCHEM_IUPAC_INCHIKEY>
XDOTVMNBCQVZKG-OXAWKVHCSA-N

> <PUBCHEM_XLOGP3>
1.7

> <PUBCHEM_EXACT_MASS>
354.049018

> <PUBCHEM_MOLECULAR_FORMULA>
C10H18N4O4S3

> <PUBCHEM_MOLECULAR_WEIGHT>
354.46932

> <PUBCHEM_OPENEYE_CAN_SMILES>
CC(=NOC(=O)N(C)SN(C)C(=O)ON=C(C)SC)SC

> <PUBCHEM_OPENEYE_ISO_SMILES>
C/C(=N/OC(=O)N(SN(C(=O)O/N=C(\SC)/C)C)C)/SC

> <PUBCHEM_CACTVS_TPSA>
160

> <PUBCHEM_MONOISOTOPIC_WEIGHT>
354.049018

> <PUBCHEM_TOTAL_CHARGE>
0

> <PUBCHEM_HEAVY_ATOM_COUNT>
21

> <PUBCHEM_ATOM_DEF_STEREO_COUNT>
0

> <PUBCHEM_ATOM_UDEF_STEREO_COUNT>
0

> <PUBCHEM_BOND_DEF_STEREO_COUNT>
2

> <PUBCHEM_BOND_UDEF_STEREO_COUNT>
0

> <PUBCHEM_ISOTOPIC_ATOM_COUNT>
0

> <PUBCHEM_COMPONENT_COUNT>
1

> <PUBCHEM_CACTVS_TAUTO_COUNT>
3

> <PUBCHEM_COORDINATE_TYPE>
1
5
255

$$$$

