5281762
  -OEChem-07051212592D

 40 41  0     1  0  0  0  0  0999 V2000
    4.2690   -1.0000    0.0000 O   0  0  0  0  0  0  0  0  0  0  0  0
    2.5369   -2.0000    0.0000 O   0  0  0  0  0  0  0  0  0  0  0  0
    2.5369   -4.0000    0.0000 O   0  0  0  0  0  0  0  0  0  0  0  0
    6.0010   -5.0000    0.0000 O   0  0  0  0  0  0  0  0  0  0  0  0
    6.8671   -3.5000    0.0000 O   0  0  0  0  0  0  0  0  0  0  0  0
    6.0010   -1.0000    0.0000 O   0  0  0  0  0  0  0  0  0  0  0  0
    7.7331    4.0000    0.0000 O   0  0  0  0  0  0  0  0  0  0  0  0
    6.0010    5.0000    0.0000 O   0  0  0  0  0  0  0  0  0  0  0  0
    4.2690   -2.0000    0.0000 C   0  0  1  0  0  0  0  0  0  0  0  0
    3.4030   -2.5000    0.0000 C   0  0  1  0  0  0  0  0  0  0  0  0
    3.4030   -3.5000    0.0000 C   0  0  1  0  0  0  0  0  0  0  0  0
    5.1350   -2.5000    0.0000 C   0  0  0  0  0  0  0  0  0  0  0  0
    5.1350   -3.5000    0.0000 C   0  0  0  0  0  0  0  0  0  0  0  0
    4.2690   -4.0000    0.0000 C   0  0  0  0  0  0  0  0  0  0  0  0
    6.0010   -4.0000    0.0000 C   0  0  0  0  0  0  0  0  0  0  0  0
    5.1350   -0.5000    0.0000 C   0  0  0  0  0  0  0  0  0  0  0  0
    5.1350    0.5000    0.0000 C   0  0  0  0  0  0  0  0  0  0  0  0
    6.0010    1.0000    0.0000 C   0  0  0  0  0  0  0  0  0  0  0  0
    6.0010    2.0000    0.0000 C   0  0  0  0  0  0  0  0  0  0  0  0
    6.8671    2.5000    0.0000 C   0  0  0  0  0  0  0  0  0  0  0  0
    5.1350    2.5000    0.0000 C   0  0  0  0  0  0  0  0  0  0  0  0
    6.8671    3.5000    0.0000 C   0  0  0  0  0  0  0  0  0  0  0  0
    5.1350    3.5000    0.0000 C   0  0  0  0  0  0  0  0  0  0  0  0
    6.0010    4.0000    0.0000 C   0  0  0  0  0  0  0  0  0  0  0  0
    4.8059   -1.6900    0.0000 H   0  0  0  0  0  0  0  0  0  0  0  0
    3.4030   -1.8800    0.0000 H   0  0  0  0  0  0  0  0  0  0  0  0
    3.4030   -4.1200    0.0000 H   0  0  0  0  0  0  0  0  0  0  0  0
    5.7456   -2.6077    0.0000 H   0  0  0  0  0  0  0  0  0  0  0  0
    5.3471   -1.9174    0.0000 H   0  0  0  0  0  0  0  0  0  0  0  0
    4.2690   -4.6200    0.0000 H   0  0  0  0  0  0  0  0  0  0  0  0
    2.0000   -2.3100    0.0000 H   0  0  0  0  0  0  0  0  0  0  0  0
    2.5369   -4.6200    0.0000 H   0  0  0  0  0  0  0  0  0  0  0  0
    4.5981    0.8100    0.0000 H   0  0  0  0  0  0  0  0  0  0  0  0
    6.5380   -5.3100    0.0000 H   0  0  0  0  0  0  0  0  0  0  0  0
    6.5380    0.6900    0.0000 H   0  0  0  0  0  0  0  0  0  0  0  0
    7.4040    2.1900    0.0000 H   0  0  0  0  0  0  0  0  0  0  0  0
    4.5981    2.1900    0.0000 H   0  0  0  0  0  0  0  0  0  0  0  0
    4.5981    3.8100    0.0000 H   0  0  0  0  0  0  0  0  0  0  0  0
    8.2700    3.6900    0.0000 H   0  0  0  0  0  0  0  0  0  0  0  0
    5.4641    5.3100    0.0000 H   0  0  0  0  0  0  0  0  0  0  0  0
  9  1  1  6  0  0  0
  1 16  1  0  0  0  0
 10  2  1  1  0  0  0
  2 31  1  0  0  0  0
 11  3  1  1  0  0  0
  3 32  1  0  0  0  0
  4 15  1  0  0  0  0
  4 34  1  0  0  0  0
  5 15  2  0  0  0  0
  6 16  2  0  0  0  0
  7 22  1  0  0  0  0
  7 39  1  0  0  0  0
  8 24  1  0  0  0  0
  8 40  1  0  0  0  0
  9 10  1  0  0  0  0
  9 12  1  0  0  0  0
  9 25  1  0  0  0  0
 10 11  1  0  0  0  0
 10 26  1  0  0  0  0
 11 14  1  0  0  0  0
 11 27  1  0  0  0  0
 12 13  1  0  0  0  0
 12 28  1  0  0  0  0
 12 29  1  0  0  0  0
 13 14  2  0  0  0  0
 13 15  1  0  0  0  0
 14 30  1  0  0  0  0
 16 17  1  0  0  0  0
 17 18  2  0  0  0  0
 17 33  1  0  0  0  0
 18 19  1  0  0  0  0
 18 35  1  0  0  0  0
 19 20  2  0  0  0  0
 19 21  1  0  0  0  0
 20 22  1  0  0  0  0
 20 36  1  0  0  0  0
 21 23  2  0  0  0  0
 21 37  1  0  0  0  0
 22 24  2  0  0  0  0
 23 24  1  0  0  0  0
 23 38  1  0  0  0  0
M  END
> <PUBCHEM_COMPOUND_CID>
5281762

> <PUBCHEM_COMPOUND_CANONICALIZED>
1

> <PUBCHEM_CACTVS_COMPLEXITY>
540

> <PUBCHEM_CACTVS_HBOND_ACCEPTOR>
8

> <PUBCHEM_CACTVS_HBOND_DONOR>
5

> <PUBCHEM_CACTVS_ROTATABLE_BOND>
5

> <PUBCHEM_CACTVS_SUBSKEYS>
AAADceB4PAAAAAAAAAAAAAAAAAAAAAAAAAAwQAAAAAAAAAABAAAAGgAACAAADBSgmAIwDoAABgCIAiDSCAACAAAgIAAIiAEGiMgJNjKCMRKCcAElwBELuYfK7DTOIAABAAAAQABAAAIAAACAAAAAAAAAAA==

> <PUBCHEM_IUPAC_OPENEYE_NAME>
(3R,4R,5R)-5-[(E)-3-(3,4-dihydroxyphenyl)prop-2-enoyl]oxy-3,4-dihydroxy-cyclohexene-1-carboxylic acid

> <PUBCHEM_IUPAC_CAS_NAME>
(3R,4R,5R)-5-[(E)-3-(3,4-dihydroxyphenyl)-1-oxoprop-2-enoxy]-3,4-dihydroxy-1-cyclohexenecarboxylic acid

> <PUBCHEM_IUPAC_NAME>
(3R,4R,5R)-5-[(E)-3-(3,4-dihydroxyphenyl)prop-2-enoyl]oxy-3,4-dihydroxycyclohexene-1-carboxylic acid

> <PUBCHEM_IUPAC_SYSTEMATIC_NAME>
(3R,4R,5R)-5-[(E)-3-[3,4-bis(oxidanyl)phenyl]prop-2-enoyl]oxy-3,4-bis(oxidanyl)cyclohexene-1-carboxylic acid

> <PUBCHEM_IUPAC_TRADITIONAL_NAME>
(3R,4R,5R)-5-[(E)-3-(3,4-dihydroxyphenyl)acryloyl]oxy-3,4-dihydroxy-cyclohexene-1-carboxylic acid

> <PUBCHEM_IUPAC_INCHI>
InChI=1S/C16H16O8/c17-10-3-1-8(5-11(10)18)2-4-14(20)24-13-7-9(16(22)23)6-12(19)15(13)21/h1-6,12-13,15,17-19,21H,7H2,(H,22,23)/b4-2+/t12-,13-,15-/m1/s1

> <PUBCHEM_IUPAC_INCHIKEY>
QMPHZIPNNJOWQI-GDDAOPKQSA-N

> <PUBCHEM_XLOGP3_AA>
0.2

> <PUBCHEM_EXACT_MASS>
336.084517

> <PUBCHEM_MOLECULAR_FORMULA>
C16H16O8

> <PUBCHEM_MOLECULAR_WEIGHT>
336.29344

> <PUBCHEM_OPENEYE_CAN_SMILES>
C1C(C(C(C=C1C(=O)O)O)O)OC(=O)C=CC2=CC(=C(C=C2)O)O

> <PUBCHEM_OPENEYE_ISO_SMILES>
C1[C@H]([C@@H]([C@@H](C=C1C(=O)O)O)O)OC(=O)/C=C/C2=CC(=C(C=C2)O)O

> <PUBCHEM_CACTVS_TPSA>
145

> <PUBCHEM_MONOISOTOPIC_WEIGHT>
336.084517

> <PUBCHEM_TOTAL_CHARGE>
0

> <PUBCHEM_HEAVY_ATOM_COUNT>
24

> <PUBCHEM_ATOM_DEF_STEREO_COUNT>
3

> <PUBCHEM_ATOM_UDEF_STEREO_COUNT>
0

> <PUBCHEM_BOND_DEF_STEREO_COUNT>
1

> <PUBCHEM_BOND_UDEF_STEREO_COUNT>
0

> <PUBCHEM_ISOTOPIC_ATOM_COUNT>
0

> <PUBCHEM_COMPONENT_COUNT>
1

> <PUBCHEM_CACTVS_TAUTO_COUNT>
16

> <PUBCHEM_COORDINATE_TYPE>
1
5
255

> <PUBCHEM_BONDANNOTATIONS>
9  1  6
19  20  8
19  21  8
10  2  5
20  22  8
21  23  8
22  24  8
23  24  8
11  3  5

$$$$

