17395568
  -OEChem-06241222513D

 65 68  0     1  0  0  0  0  0999 V2000
   -3.5152    0.2338   -1.9662 S   0  0  0  0  0  0  0  0  0  0  0  0
   -1.5787   -4.6819    0.3636 O   0  0  0  0  0  0  0  0  0  0  0  0
   -4.8108    0.8787   -1.7877 O   0  0  0  0  0  0  0  0  0  0  0  0
   -3.3237   -0.6532   -3.1072 O   0  0  0  0  0  0  0  0  0  0  0  0
    2.9690   -1.9011   -0.2580 N   0  0  2  0  0  0  0  0  0  0  0  0
    0.2991   -3.3494    0.7921 N   0  0  0  0  0  0  0  0  0  0  0  0
   -2.3050    1.4600   -1.9799 N   0  0  0  0  0  0  0  0  0  0  0  0
    3.0532   -3.3343   -0.5733 C   0  0  0  0  0  0  0  0  0  0  0  0
    1.5944   -1.4162   -0.0737 C   0  0  0  0  0  0  0  0  0  0  0  0
    2.6817   -4.2323    0.6093 C   0  0  0  0  0  0  0  0  0  0  0  0
    0.8755   -2.0416    1.1229 C   0  0  0  0  0  0  0  0  0  0  0  0
    1.1870   -4.5075    0.7414 C   0  0  0  0  0  0  0  0  0  0  0  0
    3.6278   -1.1215   -1.3117 C   0  0  0  0  0  0  0  0  0  0  0  0
   -1.0699   -3.5832    0.5842 C   0  0  0  0  0  0  0  0  0  0  0  0
    4.0012    0.2580   -0.8383 C   0  0  0  0  0  0  0  0  0  0  0  0
   -1.9905   -2.4402    0.6251 C   0  0  0  0  0  0  0  0  0  0  0  0
    4.6055    0.4290    0.4072 C   0  0  0  0  0  0  0  0  0  0  0  0
    3.7442    1.3654   -1.6465 C   0  0  0  0  0  0  0  0  0  0  0  0
   -2.2779   -1.7339   -0.5429 C   0  0  0  0  0  0  0  0  0  0  0  0
   -2.5798   -2.0625    1.8315 C   0  0  0  0  0  0  0  0  0  0  0  0
   -3.1548   -0.6498   -0.5044 C   0  0  0  0  0  0  0  0  0  0  0  0
    4.9526    1.7071    0.8446 C   0  0  0  0  0  0  0  0  0  0  0  0
    4.0912    2.6436   -1.2092 C   0  0  0  0  0  0  0  0  0  0  0  0
    4.6954    2.8145    0.0363 C   0  0  0  0  0  0  0  0  0  0  0  0
   -3.4566   -0.9783    1.8701 C   0  0  0  0  0  0  0  0  0  0  0  0
   -3.7441   -0.2721    0.7022 C   0  0  0  0  0  0  0  0  0  0  0  0
    5.0664    4.1812    0.5043 C   0  0  0  0  0  0  0  0  0  0  0  0
   -2.1469    2.2683   -0.8009 C   0  0  0  0  0  0  0  0  0  0  0  0
   -3.2127    3.0379   -0.3348 C   0  0  0  0  0  0  0  0  0  0  0  0
   -0.9277    2.2824   -0.1234 C   0  0  0  0  0  0  0  0  0  0  0  0
   -1.8402    3.8361    1.4860 C   0  0  0  0  0  0  0  0  0  0  0  0
   -3.0594    3.8219    0.8087 C   0  0  0  0  0  0  0  0  0  0  0  0
   -0.7743    3.0665    1.0200 C   0  0  0  0  0  0  0  0  0  0  0  0
   -1.6761    4.6744    2.7084 C   0  0  0  0  0  0  0  0  0  0  0  0
    2.4591   -3.5873   -1.4608 H   0  0  0  0  0  0  0  0  0  0  0  0
    4.0969   -3.5759   -0.8144 H   0  0  0  0  0  0  0  0  0  0  0  0
    1.0020   -1.5558   -0.9877 H   0  0  0  0  0  0  0  0  0  0  0  0
    1.6178   -0.3377    0.1245 H   0  0  0  0  0  0  0  0  0  0  0  0
    3.0812   -3.8156    1.5424 H   0  0  0  0  0  0  0  0  0  0  0  0
    3.1845   -5.1998    0.4810 H   0  0  0  0  0  0  0  0  0  0  0  0
    1.5340   -2.1493    1.9928 H   0  0  0  0  0  0  0  0  0  0  0  0
    0.0875   -1.3539    1.4401 H   0  0  0  0  0  0  0  0  0  0  0  0
    1.0080   -5.0827    1.6582 H   0  0  0  0  0  0  0  0  0  0  0  0
    0.8635   -5.1463   -0.0901 H   0  0  0  0  0  0  0  0  0  0  0  0
    4.5736   -1.5943   -1.6101 H   0  0  0  0  0  0  0  0  0  0  0  0
    3.0064   -1.0806   -2.2163 H   0  0  0  0  0  0  0  0  0  0  0  0
    4.8266   -0.4207    1.0477 H   0  0  0  0  0  0  0  0  0  0  0  0
    3.2746    1.2469   -2.6194 H   0  0  0  0  0  0  0  0  0  0  0  0
   -1.8077   -2.0324   -1.4766 H   0  0  0  0  0  0  0  0  0  0  0  0
   -2.3630   -2.6062    2.7473 H   0  0  0  0  0  0  0  0  0  0  0  0
    5.4268    1.8270    1.8151 H   0  0  0  0  0  0  0  0  0  0  0  0
    3.8870    3.4984   -1.8485 H   0  0  0  0  0  0  0  0  0  0  0  0
   -3.9166   -0.6852    2.8093 H   0  0  0  0  0  0  0  0  0  0  0  0
   -4.4371    0.5618    0.7598 H   0  0  0  0  0  0  0  0  0  0  0  0
    5.0132    4.2530    1.5960 H   0  0  0  0  0  0  0  0  0  0  0  0
    4.3831    4.9360    0.1004 H   0  0  0  0  0  0  0  0  0  0  0  0
    6.0850    4.4236    0.1859 H   0  0  0  0  0  0  0  0  0  0  0  0
   -1.4260    1.2190   -2.4565 H   0  0  0  0  0  0  0  0  0  0  0  0
   -4.1621    3.0737   -0.8593 H   0  0  0  0  0  0  0  0  0  0  0  0
   -0.0910    1.6851   -0.4763 H   0  0  0  0  0  0  0  0  0  0  0  0
   -3.8954    4.4213    1.1591 H   0  0  0  0  0  0  0  0  0  0  0  0
    0.1800    3.0671    1.5400 H   0  0  0  0  0  0  0  0  0  0  0  0
   -2.3041    5.5706    2.6602 H   0  0  0  0  0  0  0  0  0  0  0  0
   -0.6408    5.0146    2.8184 H   0  0  0  0  0  0  0  0  0  0  0  0
   -1.9527    4.0995    3.5978 H   0  0  0  0  0  0  0  0  0  0  0  0
  1  3  2  0  0  0  0
  1  4  2  0  0  0  0
  1  7  1  0  0  0  0
  1 21  1  0  0  0  0
  2 14  2  0  0  0  0
  5  8  1  0  0  0  0
  5  9  1  0  0  0  0
  5 13  1  0  0  0  0
  6 11  1  0  0  0  0
  6 12  1  0  0  0  0
  6 14  1  0  0  0  0
  7 28  1  0  0  0  0
  7 58  1  0  0  0  0
  8 10  1  0  0  0  0
  8 35  1  0  0  0  0
  8 36  1  0  0  0  0
  9 11  1  0  0  0  0
  9 37  1  0  0  0  0
  9 38  1  0  0  0  0
 10 12  1  0  0  0  0
 10 39  1  0  0  0  0
 10 40  1  0  0  0  0
 11 41  1  0  0  0  0
 11 42  1  0  0  0  0
 12 43  1  0  0  0  0
 12 44  1  0  0  0  0
 13 15  1  0  0  0  0
 13 45  1  0  0  0  0
 13 46  1  0  0  0  0
 14 16  1  0  0  0  0
 15 17  2  0  0  0  0
 15 18  1  0  0  0  0
 16 19  2  0  0  0  0
 16 20  1  0  0  0  0
 17 22  1  0  0  0  0
 17 47  1  0  0  0  0
 18 23  2  0  0  0  0
 18 48  1  0  0  0  0
 19 21  1  0  0  0  0
 19 49  1  0  0  0  0
 20 25  2  0  0  0  0
 20 50  1  0  0  0  0
 21 26  2  0  0  0  0
 22 24  2  0  0  0  0
 22 51  1  0  0  0  0
 23 24  1  0  0  0  0
 23 52  1  0  0  0  0
 24 27  1  0  0  0  0
 25 26  1  0  0  0  0
 25 53  1  0  0  0  0
 26 54  1  0  0  0  0
 27 55  1  0  0  0  0
 27 56  1  0  0  0  0
 27 57  1  0  0  0  0
 28 29  2  0  0  0  0
 28 30  1  0  0  0  0
 29 32  1  0  0  0  0
 29 59  1  0  0  0  0
 30 33  2  0  0  0  0
 30 60  1  0  0  0  0
 31 32  2  0  0  0  0
 31 33  1  0  0  0  0
 31 34  1  0  0  0  0
 32 61  1  0  0  0  0
 33 62  1  0  0  0  0
 34 63  1  0  0  0  0
 34 64  1  0  0  0  0
 34 65  1  0  0  0  0
M  END
> <PUBCHEM_COMPOUND_CID>
17395568

> <PUBCHEM_CONFORMER_RMSD>
1.8

> <PUBCHEM_CONFORMER_DIVERSEORDER>
1
16
32
10
75
35
18
48
67
4
72
40
28
25
76
49
39
71
29
44
12
73
70
52
63
55
30
66
3
34
68
53
27
69
42
51
41
45
59
8
46
13
74
62
57
36
11
43
61
5
65
56
26
37
20
33
7
58
64
21
2
19
31
38
6
23
9
60
17
47
14
50
54
22
15
24

> <PUBCHEM_MMFF94_PARTIAL_CHARGES>
46
1 1.45
11 0.3
12 0.3
13 0.41
14 0.54
15 -0.14
16 0.09
17 -0.15
18 -0.15
19 -0.15
2 -0.57
20 -0.15
21 -0.01
22 -0.15
23 -0.15
24 -0.14
25 -0.15
26 -0.15
27 0.14
28 0.2
29 -0.15
3 -0.65
30 -0.15
31 -0.14
32 -0.15
33 -0.15
34 0.14
4 -0.65
47 0.15
48 0.15
49 0.15
5 -0.81
50 0.15
51 0.15
52 0.15
53 0.15
54 0.15
58 0.42
59 0.15
6 -0.66
60 0.15
61 0.15
62 0.15
7 -0.76
8 0.27
9 0.27

> <PUBCHEM_EFFECTIVE_ROTOR_COUNT>
8.4

> <PUBCHEM_PHARMACOPHORE_FEATURES>
9
1 2 acceptor
1 3 acceptor
1 4 acceptor
1 5 cation
1 7 donor
6 15 17 18 22 23 24 rings
6 16 19 20 21 25 26 rings
6 28 29 30 31 32 33 rings
7 5 6 8 9 10 11 12 rings

> <PUBCHEM_HEAVY_ATOM_COUNT>
34

> <PUBCHEM_ATOM_DEF_STEREO_COUNT>
0

> <PUBCHEM_ATOM_UDEF_STEREO_COUNT>
0

> <PUBCHEM_BOND_DEF_STEREO_COUNT>
0

> <PUBCHEM_BOND_UDEF_STEREO_COUNT>
0

> <PUBCHEM_ISOTOPIC_ATOM_COUNT>
0

> <PUBCHEM_COMPONENT_COUNT>
1

> <PUBCHEM_CACTVS_TAUTO_COUNT>
1

> <PUBCHEM_CONFORMER_ID>
01096F7000000001

> <PUBCHEM_MMFF94_ENERGY>
90.7733

> <PUBCHEM_FEATURE_SELFOVERLAP>
45.687

> <PUBCHEM_SHAPE_FINGERPRINT>
10439779 11 18268439108540514034
10842077 115 18272099317875899996
11059048 146 18266721645301668668
12156800 1 15759989932788370807
12788726 201 18041849540184859165
13165054 411 18409175407384463560
14026016 164 17256802820650666992
14725015 67 17404874648184653954
150020 26 17193453328355929484
16112460 7 17978789339832514738
161222 619 17320156216735035216
19246450 95 18127159441072780362
19319366 153 18338815480173342487
20764821 26 18265350425209914808
21133410 221 17106804742787484752
21795232 40 17978232651741697785
23558518 356 18263925621080003168
437795 96 17254572495637428664
469060 322 16342835704091255345
50150288 127 17169804855934603400
6004065 56 18048876291470340175

> <PUBCHEM_SHAPE_MULTIPOLES>
671
10.14
7.69
2.08
9.2
0.74
0.57
-6.88
2.26
1.35
-4.16
-2.22
-1.03
-0.23

> <PUBCHEM_SHAPE_SELFOVERLAP>
1419.996

> <PUBCHEM_SHAPE_VOLUME>
375.1

> <PUBCHEM_COORDINATE_TYPE>
2
5
10

$$$$

