443148
  -OEChem-07051213012D

 51 54  0     1  0  0  0  0  0999 V2000
    4.4404   -1.6351    0.0000 O   0  0  0  0  0  0  0  0  0  0  0  0
    4.4453    2.4804    0.0000 O   0  0  0  0  0  0  0  0  0  0  0  0
    2.7614    1.9270    0.0000 O   0  0  0  0  0  0  0  0  0  0  0  0
    3.3402   -2.6635    0.0000 O   0  5  0  0  0  0  0  0  0  0  0  0
    2.0496   -1.5083    0.0000 O   0  0  0  0  0  0  0  0  0  0  0  0
   11.7041    0.4366    0.0000 O   0  0  0  0  0  0  0  0  0  0  0  0
    5.7517    1.2938    0.0000 N   0  0  0  0  0  0  0  0  0  0  0  0
    7.7213   -0.3976    0.0000 N   0  0  0  0  0  0  0  0  0  0  0  0
    7.3611    1.2966    0.0000 C   0  0  0  0  0  0  0  0  0  0  0  0
    6.5554    1.8788    0.0000 C   0  0  0  0  0  0  0  0  0  0  0  0
    6.0580    0.3481    0.0000 C   0  0  0  0  0  0  0  0  0  0  0  0
    7.0521    0.3455    0.0000 C   0  0  0  0  0  0  0  0  0  0  0  0
    4.3622   -0.2230    0.0000 C   0  0  0  0  0  0  0  0  0  0  0  0
    8.3393    1.5045    0.0000 C   0  0  0  0  0  0  0  0  0  0  0  0
    3.6953   -0.9682    0.0000 C   0  0  2  0  0  0  0  0  0  0  0  0
    5.3765   -0.4314    0.0000 C   0  0  0  0  0  0  0  0  0  0  0  0
    4.0430    0.7620    0.0000 C   0  0  0  0  0  0  0  0  0  0  0  0
    4.7425    1.5255    0.0000 C   0  0  0  0  0  0  0  0  0  0  0  0
    9.0084    0.7613    0.0000 C   0  0  0  0  0  0  0  0  0  0  0  0
    8.6483    2.4556    0.0000 C   0  0  0  0  0  0  0  0  0  0  0  0
    2.9501   -0.3013    0.0000 C   0  0  0  0  0  0  0  0  0  0  0  0
    8.6994   -0.1897    0.0000 C   0  0  0  0  0  0  0  0  0  0  0  0
    3.0659    0.9745    0.0000 C   0  0  0  0  0  0  0  0  0  0  0  0
    3.0284   -1.7133    0.0000 C   0  0  0  0  0  0  0  0  0  0  0  0
   10.0238    0.9936    0.0000 C   0  0  0  0  0  0  0  0  0  0  0  0
    9.6265    2.6635    0.0000 C   0  0  0  0  0  0  0  0  0  0  0  0
    2.0000   -0.6131    0.0000 C   0  0  0  0  0  0  0  0  0  0  0  0
    9.3844   -0.9744    0.0000 C   0  0  0  0  0  0  0  0  0  0  0  0
   10.7268    0.2249    0.0000 C   0  0  0  0  0  0  0  0  0  0  0  0
   10.4049   -0.7657    0.0000 C   0  0  0  0  0  0  0  0  0  0  0  0
    6.9693    2.3404    0.0000 H   0  0  0  0  0  0  0  0  0  0  0  0
    6.1399    2.3390    0.0000 H   0  0  0  0  0  0  0  0  0  0  0  0
    5.5744   -1.0190    0.0000 H   0  0  0  0  0  0  0  0  0  0  0  0
    8.6267    3.0752    0.0000 H   0  0  0  0  0  0  0  0  0  0  0  0
    8.0343    2.5418    0.0000 H   0  0  0  0  0  0  0  0  0  0  0  0
    3.4376    0.0819    0.0000 H   0  0  0  0  0  0  0  0  0  0  0  0
    2.6574    0.2453    0.0000 H   0  0  0  0  0  0  0  0  0  0  0  0
    2.4515    0.8912    0.0000 H   0  0  0  0  0  0  0  0  0  0  0  0
    3.0413    0.3550    0.0000 H   0  0  0  0  0  0  0  0  0  0  0  0
   10.2086    1.5854    0.0000 H   0  0  0  0  0  0  0  0  0  0  0  0
    9.7554    2.0570    0.0000 H   0  0  0  0  0  0  0  0  0  0  0  0
   10.2329    2.7924    0.0000 H   0  0  0  0  0  0  0  0  0  0  0  0
    9.4976    3.2699    0.0000 H   0  0  0  0  0  0  0  0  0  0  0  0
    1.8066   -0.0241    0.0000 H   0  0  0  0  0  0  0  0  0  0  0  0
    1.4109   -0.8065    0.0000 H   0  0  0  0  0  0  0  0  0  0  0  0
    2.1934   -1.2022    0.0000 H   0  0  0  0  0  0  0  0  0  0  0  0
    9.1860   -1.5618    0.0000 H   0  0  0  0  0  0  0  0  0  0  0  0
    4.3133   -2.2419    0.0000 H   0  0  0  0  0  0  0  0  0  0  0  0
   10.8180   -1.2281    0.0000 H   0  0  0  0  0  0  0  0  0  0  0  0
    2.1555    2.0588    0.0000 H   0  0  0  0  0  0  0  0  0  0  0  0
   12.1207   -0.0226    0.0000 H   0  0  0  0  0  0  0  0  0  0  0  0
 15  1  1  1  0  0  0
  1 48  1  0  0  0  0
  2 18  2  0  0  0  0
  3 23  1  0  0  0  0
  3 50  1  0  0  0  0
  4 24  1  0  0  0  0
  5 24  2  0  0  0  0
  6 29  1  0  0  0  0
  6 51  1  0  0  0  0
  7 10  1  0  0  0  0
  7 11  1  0  0  0  0
  7 18  1  0  0  0  0
  8 12  1  0  0  0  0
  8 22  2  0  0  0  0
  9 10  1  0  0  0  0
  9 12  2  0  0  0  0
  9 14  1  0  0  0  0
 10 31  1  0  0  0  0
 10 32  1  0  0  0  0
 11 12  1  0  0  0  0
 11 16  2  0  0  0  0
 13 15  1  0  0  0  0
 13 16  1  0  0  0  0
 13 17  2  0  0  0  0
 14 19  2  0  0  0  0
 14 20  1  0  0  0  0
 15 21  1  0  0  0  0
 15 24  1  0  0  0  0
 16 33  1  0  0  0  0
 17 18  1  0  0  0  0
 17 23  1  0  0  0  0
 19 22  1  0  0  0  0
 19 25  1  0  0  0  0
 20 26  1  0  0  0  0
 20 34  1  0  0  0  0
 20 35  1  0  0  0  0
 21 27  1  0  0  0  0
 21 36  1  0  0  0  0
 21 37  1  0  0  0  0
 22 28  1  0  0  0  0
 23 38  1  0  0  0  0
 23 39  1  0  0  0  0
 25 29  2  0  0  0  0
 25 40  1  0  0  0  0
 26 41  1  0  0  0  0
 26 42  1  0  0  0  0
 26 43  1  0  0  0  0
 27 44  1  0  0  0  0
 27 45  1  0  0  0  0
 27 46  1  0  0  0  0
 28 30  2  0  0  0  0
 28 47  1  0  0  0  0
 29 30  1  0  0  0  0
 30 49  1  0  0  0  0
M  CHG  1   4  -1
M  END
> <PUBCHEM_COMPOUND_CID>
443148

> <PUBCHEM_COMPOUND_CANONICALIZED>
1

> <PUBCHEM_CACTVS_COMPLEXITY>
802

> <PUBCHEM_CACTVS_HBOND_ACCEPTOR>
7

> <PUBCHEM_CACTVS_HBOND_DONOR>
3

> <PUBCHEM_CACTVS_ROTATABLE_BOND>
4

> <PUBCHEM_CACTVS_SUBSKEYS>
AAADceB7OAAAAAAAAAAAAAAAAAAAAWAAAAA8QIAAAAAAAFix8AAAHgAACAAADEzhngYyzvMIEgCoAyXyXAKCgCAhIiAImCF+bNgJdvbC0ZOUcAhm5hHJ2QewwPAOgEABAAACAAAAgAIAAAQAAAAAAAAAAA==

> <PUBCHEM_IUPAC_OPENEYE_NAME>
(2S)-2-[12-ethyl-2-hydroxy-8-(hydroxymethyl)-9-oxo-11H-indolizino[1,2-b]quinolin-7-yl]-2-hydroxy-butanoate

> <PUBCHEM_IUPAC_CAS_NAME>
(2S)-2-[12-ethyl-2-hydroxy-8-(hydroxymethyl)-9-oxo-11H-indolizino[1,2-b]quinolin-7-yl]-2-hydroxybutanoate

> <PUBCHEM_IUPAC_NAME>
(2S)-2-[12-ethyl-2-hydroxy-8-(hydroxymethyl)-9-oxo-11H-indolizino[1,2-b]quinolin-7-yl]-2-hydroxybutanoate

> <PUBCHEM_IUPAC_SYSTEMATIC_NAME>
(2S)-2-[12-ethyl-8-(hydroxymethyl)-2-oxidanyl-9-oxidanylidene-11H-indolizino[1,2-b]quinolin-7-yl]-2-oxidanyl-butanoate

> <PUBCHEM_IUPAC_TRADITIONAL_NAME>
(2S)-2-(12-ethyl-2-hydroxy-9-keto-8-methylol-11H-indolizino[1,2-b]quinolin-7-yl)-2-hydroxy-butyrate

> <PUBCHEM_IUPAC_INCHI>
InChI=1S/C22H22N2O6/c1-3-12-13-7-11(26)5-6-17(13)23-19-14(12)9-24-18(19)8-16(15(10-25)20(24)27)22(30,4-2)21(28)29/h5-8,25-26,30H,3-4,9-10H2,1-2H3,(H,28,29)/p-1/t22-/m0/s1

> <PUBCHEM_IUPAC_INCHIKEY>
IRKZFHZUIBLGKU-QFIPXVFZSA-M

> <PUBCHEM_XLOGP3_AA>
1.8

> <PUBCHEM_EXACT_MASS>
409.139961

> <PUBCHEM_MOLECULAR_FORMULA>
C22H21N2O6-

> <PUBCHEM_MOLECULAR_WEIGHT>
409.41194

> <PUBCHEM_OPENEYE_CAN_SMILES>
CCC1=C2C=C(C=CC2=NC3=C1CN4C3=CC(=C(C4=O)CO)C(CC)(C(=O)[O-])O)O

> <PUBCHEM_OPENEYE_ISO_SMILES>
CCC1=C2C=C(C=CC2=NC3=C1CN4C3=CC(=C(C4=O)CO)[C@@](CC)(C(=O)[O-])O)O

> <PUBCHEM_CACTVS_TPSA>
134

> <PUBCHEM_MONOISOTOPIC_WEIGHT>
409.139961

> <PUBCHEM_TOTAL_CHARGE>
-1

> <PUBCHEM_HEAVY_ATOM_COUNT>
30

> <PUBCHEM_ATOM_DEF_STEREO_COUNT>
1

> <PUBCHEM_ATOM_UDEF_STEREO_COUNT>
0

> <PUBCHEM_BOND_DEF_STEREO_COUNT>
0

> <PUBCHEM_BOND_UDEF_STEREO_COUNT>
0

> <PUBCHEM_ISOTOPIC_ATOM_COUNT>
0

> <PUBCHEM_COMPONENT_COUNT>
1

> <PUBCHEM_CACTVS_TAUTO_COUNT>
3

> <PUBCHEM_COORDINATE_TYPE>
1
5
255

> <PUBCHEM_BONDANNOTATIONS>
15  1  5
11  16  8
13  16  8
13  17  8
14  19  8
17  18  8
19  22  8
19  25  8
22  28  8
25  29  8
28  30  8
29  30  8
7  11  8
7  18  8
8  12  8
8  22  8
9  12  8
9  14  8

$$$$

