87752
  -OEChem-07051213003D

 43 45  0     1  0  0  0  0  0999 V2000
    1.8070    2.4172   -0.7704 O   0  0  0  0  0  0  0  0  0  0  0  0
    2.2086   -1.5225    1.7144 O   0  0  0  0  0  0  0  0  0  0  0  0
   -2.8242   -0.6314   -0.5341 N   0  0  1  0  0  0  0  0  0  0  0  0
    1.9340    0.4031    0.4160 N   0  0  0  0  0  0  0  0  0  0  0  0
   -1.9097    0.0899    0.3838 C   0  0  1  0  0  0  0  0  0  0  0  0
   -0.4289   -0.1127   -0.0500 C   0  0  2  0  0  0  0  0  0  0  0  0
   -2.2672    1.5919    0.4133 C   0  0  0  0  0  0  0  0  0  0  0  0
   -0.0930   -1.6065   -0.1632 C   0  0  0  0  0  0  0  0  0  0  0  0
   -2.5186   -2.0684   -0.5930 C   0  0  0  0  0  0  0  0  0  0  0  0
   -1.0909   -2.3145   -1.0657 C   0  0  0  0  0  0  0  0  0  0  0  0
   -4.2354   -0.4478   -0.1600 C   0  0  0  0  0  0  0  0  0  0  0  0
   -3.7336    1.8301    0.7549 C   0  0  0  0  0  0  0  0  0  0  0  0
    0.5678    0.5511    0.9059 C   0  0  0  0  0  0  0  0  0  0  0  0
   -4.6308    1.0252   -0.1704 C   0  0  0  0  0  0  0  0  0  0  0  0
    2.4284    1.4034   -0.4445 C   0  0  0  0  0  0  0  0  0  0  0  0
    2.6479   -0.7160    0.8914 C   0  0  0  0  0  0  0  0  0  0  0  0
    3.8497    1.2143   -0.9219 C   0  0  0  0  0  0  0  0  0  0  0  0
    4.0641   -0.8570    0.3846 C   0  0  0  0  0  0  0  0  0  0  0  0
    4.2249   -0.2493   -0.9912 C   0  0  0  0  0  0  0  0  0  0  0  0
   -2.0329   -0.3110    1.4006 H   0  0  0  0  0  0  0  0  0  0  0  0
   -0.3020    0.3329   -1.0478 H   0  0  0  0  0  0  0  0  0  0  0  0
   -2.0434    2.0485   -0.5596 H   0  0  0  0  0  0  0  0  0  0  0  0
   -1.6685    2.1203    1.1618 H   0  0  0  0  0  0  0  0  0  0  0  0
   -0.1134   -2.0804    0.8254 H   0  0  0  0  0  0  0  0  0  0  0  0
    0.8948   -1.7679   -0.6042 H   0  0  0  0  0  0  0  0  0  0  0  0
   -3.1968   -2.5637   -1.2988 H   0  0  0  0  0  0  0  0  0  0  0  0
   -2.6698   -2.5395    0.3873 H   0  0  0  0  0  0  0  0  0  0  0  0
   -0.9748   -1.9592   -2.0975 H   0  0  0  0  0  0  0  0  0  0  0  0
   -0.8843   -3.3908   -1.0736 H   0  0  0  0  0  0  0  0  0  0  0  0
   -4.4335   -0.8759    0.8316 H   0  0  0  0  0  0  0  0  0  0  0  0
   -4.8800   -0.9738   -0.8749 H   0  0  0  0  0  0  0  0  0  0  0  0
    0.4763    0.1220    1.9109 H   0  0  0  0  0  0  0  0  0  0  0  0
    0.3641    1.6210    1.0027 H   0  0  0  0  0  0  0  0  0  0  0  0
   -3.9695    2.8968    0.6732 H   0  0  0  0  0  0  0  0  0  0  0  0
   -3.9199    1.5378    1.7957 H   0  0  0  0  0  0  0  0  0  0  0  0
   -5.6759    1.1312    0.1420 H   0  0  0  0  0  0  0  0  0  0  0  0
   -4.5596    1.4213   -1.1912 H   0  0  0  0  0  0  0  0  0  0  0  0
    3.9419    1.6623   -1.9175 H   0  0  0  0  0  0  0  0  0  0  0  0
    4.5130    1.7598   -0.2411 H   0  0  0  0  0  0  0  0  0  0  0  0
    4.7342   -0.3793    1.1081 H   0  0  0  0  0  0  0  0  0  0  0  0
    4.3116   -1.9234    0.3442 H   0  0  0  0  0  0  0  0  0  0  0  0
    3.5808   -0.7699   -1.7107 H   0  0  0  0  0  0  0  0  0  0  0  0
    5.2598   -0.3577   -1.3327 H   0  0  0  0  0  0  0  0  0  0  0  0
  1 15  2  0  0  0  0
  2 16  2  0  0  0  0
  3  5  1  0  0  0  0
  3  9  1  0  0  0  0
  3 11  1  0  0  0  0
  4 13  1  0  0  0  0
  4 15  1  0  0  0  0
  4 16  1  0  0  0  0
  5  6  1  0  0  0  0
  5  7  1  0  0  0  0
  5 20  1  0  0  0  0
  6  8  1  0  0  0  0
  6 13  1  0  0  0  0
  6 21  1  0  0  0  0
  7 12  1  0  0  0  0
  7 22  1  0  0  0  0
  7 23  1  0  0  0  0
  8 10  1  0  0  0  0
  8 24  1  0  0  0  0
  8 25  1  0  0  0  0
  9 10  1  0  0  0  0
  9 26  1  0  0  0  0
  9 27  1  0  0  0  0
 10 28  1  0  0  0  0
 10 29  1  0  0  0  0
 11 14  1  0  0  0  0
 11 30  1  0  0  0  0
 11 31  1  0  0  0  0
 12 14  1  0  0  0  0
 12 34  1  0  0  0  0
 12 35  1  0  0  0  0
 13 32  1  0  0  0  0
 13 33  1  0  0  0  0
 14 36  1  0  0  0  0
 14 37  1  0  0  0  0
 15 17  1  0  0  0  0
 16 18  1  0  0  0  0
 17 19  1  0  0  0  0
 17 38  1  0  0  0  0
 17 39  1  0  0  0  0
 18 19  1  0  0  0  0
 18 40  1  0  0  0  0
 18 41  1  0  0  0  0
 19 42  1  0  0  0  0
 19 43  1  0  0  0  0
M  END
> <PUBCHEM_COMPOUND_CID>
87752

> <PUBCHEM_CONFORMER_RMSD>
0.6

> <PUBCHEM_CONFORMER_DIVERSEORDER>
1
6
3
7
5
2
8
4

> <PUBCHEM_MMFF94_PARTIAL_CHARGES>
12
1 -0.57
11 0.27
13 0.3
15 0.57
16 0.57
17 0.06
18 0.06
2 -0.57
3 -0.81
4 -0.42
5 0.27
9 0.27

> <PUBCHEM_EFFECTIVE_ROTOR_COUNT>
4.4

> <PUBCHEM_PHARMACOPHORE_FEATURES>
6
1 1 acceptor
1 2 acceptor
1 3 cation
6 3 5 6 8 9 10 rings
6 3 5 7 11 12 14 rings
6 4 15 16 17 18 19 rings

> <PUBCHEM_HEAVY_ATOM_COUNT>
19

> <PUBCHEM_ATOM_DEF_STEREO_COUNT>
2

> <PUBCHEM_ATOM_UDEF_STEREO_COUNT>
0

> <PUBCHEM_BOND_DEF_STEREO_COUNT>
0

> <PUBCHEM_BOND_UDEF_STEREO_COUNT>
0

> <PUBCHEM_ISOTOPIC_ATOM_COUNT>
0

> <PUBCHEM_COMPONENT_COUNT>
1

> <PUBCHEM_CACTVS_TAUTO_COUNT>
1

> <PUBCHEM_CONFORMER_ID>
000156C800000001

> <PUBCHEM_MMFF94_ENERGY>
19.5962

> <PUBCHEM_FEATURE_SELFOVERLAP>
30.465

> <PUBCHEM_SHAPE_FINGERPRINT>
10062212 137 18335709351050395127
10616163 171 18335981974073407983
10759866 29 18342173375393427571
11578080 2 17981927182842007448
12173636 292 18334300820904723821
12236239 1 18342178877763414058
12363563 72 15574705898463548352
12592029 89 18337664317232194515
13538477 17 18337678516045603306
13583140 156 17703785947087594417
14115302 16 18187364324451696792
14251764 3 16225771838826297973
14289901 80 15985388884616510119
15342168 16 16987704698225497356
15442244 35 18411140238288241924
15669948 3 18261680268376421119
1601671 61 18338233894198489628
16752209 62 18114754754302541151
17804303 29 18114185215889912651
1813 80 17699579340191458650
18186145 218 18272097075533524068
19422 9 18342459218431129434
19862831 5 18334853905117935720
20233049 118 18113903779520655992
20279233 1 16081088168963461486
20645476 183 18412544275956111871
21524375 3 18334579079236012871
21634736 98 18267020557771611580
2255824 54 18131071502805992536
23366157 5 17979347883208357047
23402539 116 18040443208798737981
23402655 69 18341326717618417436
23557571 272 17751091205926577770
23558518 356 17912077249106098536
23559900 14 17821727222320527400
23598291 2 18342183249692098166
25 1 17703785908332596962
2637199 183 18342166778661439806
3082319 5 18412545375230083432
34934 24 18410573947182892116
4409770 3 15602294139811427591
474 4 17630884911340400460
5104073 3 18411419483934203824
633830 44 17917423190752194670
74978 22 18335141942815269648
7832392 63 18411698751667190020
8272917 22 17987517176897215067
90525 40 18335417967520712271
9981440 41 17404304002024566704

> <PUBCHEM_SHAPE_MULTIPOLES>
369.31
8.79
2.31
1.1
0.49
0.21
0.17
-1.89
-0.91
0.88
-0.41
-0.75
0.16
-1.38

> <PUBCHEM_SHAPE_SELFOVERLAP>
764.835

> <PUBCHEM_SHAPE_VOLUME>
207.3

> <PUBCHEM_COORDINATE_TYPE>
2
5
10

$$$$

