5356754
  -OEChem-07051213072D

 34 36  0     0  0  0  0  0  0999 V2000
    9.0043   -1.4592    0.0000 O   0  0  0  0  0  0  0  0  0  0  0  0
   10.7364   -1.4592    0.0000 O   0  0  0  0  0  0  0  0  0  0  0  0
    4.6024    0.0133    0.0000 O   0  0  0  0  0  0  0  0  0  0  0  0
    2.0024    0.5033    0.0000 O   0  0  0  0  0  0  0  0  0  0  0  0
    3.7344    0.5099    0.0000 O   0  0  0  0  0  0  0  0  0  0  0  0
    5.4742   -1.4834    0.0000 N   0  0  0  0  0  0  0  0  0  0  0  0
    8.1383    0.0408    0.0000 C   0  0  0  0  0  0  0  0  0  0  0  0
    9.0043    0.5408    0.0000 C   0  0  0  0  0  0  0  0  0  0  0  0
    8.1383   -0.9592    0.0000 C   0  0  0  0  0  0  0  0  0  0  0  0
    9.8703    0.0408    0.0000 C   0  0  0  0  0  0  0  0  0  0  0  0
    7.2443    0.5754    0.0000 C   0  0  0  0  0  0  0  0  0  0  0  0
    7.2443   -1.4939    0.0000 C   0  0  0  0  0  0  0  0  0  0  0  0
    6.3383   -0.9800    0.0000 C   0  0  0  0  0  0  0  0  0  0  0  0
    8.9882    1.5823    0.0000 C   0  0  0  0  0  0  0  0  0  0  0  0
    6.3383    0.0616    0.0000 C   0  0  0  0  0  0  0  0  0  0  0  0
    9.8703   -0.9592    0.0000 C   0  0  0  0  0  0  0  0  0  0  0  0
   10.7803    0.5476    0.0000 C   0  0  0  0  0  0  0  0  0  0  0  0
    9.8863    2.1100    0.0000 C   0  0  0  0  0  0  0  0  0  0  0  0
   10.7884    1.5892    0.0000 C   0  0  0  0  0  0  0  0  0  0  0  0
    4.6062   -0.9867    0.0000 C   0  0  0  0  0  0  0  0  0  0  0  0
    3.7421   -1.4901    0.0000 C   0  0  0  0  0  0  0  0  0  0  0  0
    2.8742   -0.9934    0.0000 C   0  0  0  0  0  0  0  0  0  0  0  0
    2.8703    0.0066    0.0000 C   0  0  0  0  0  0  0  0  0  0  0  0
    7.2515    1.1954    0.0000 H   0  0  0  0  0  0  0  0  0  0  0  0
    7.2515   -2.1138    0.0000 H   0  0  0  0  0  0  0  0  0  0  0  0
    8.4478    1.8861    0.0000 H   0  0  0  0  0  0  0  0  0  0  0  0
    5.8025    0.3737    0.0000 H   0  0  0  0  0  0  0  0  0  0  0  0
   11.3136    0.2314    0.0000 H   0  0  0  0  0  0  0  0  0  0  0  0
    9.8839    2.7300    0.0000 H   0  0  0  0  0  0  0  0  0  0  0  0
   11.3265    1.8972    0.0000 H   0  0  0  0  0  0  0  0  0  0  0  0
    5.4766   -2.1034    0.0000 H   0  0  0  0  0  0  0  0  0  0  0  0
    3.7445   -2.1100    0.0000 H   0  0  0  0  0  0  0  0  0  0  0  0
    2.3384   -1.3054    0.0000 H   0  0  0  0  0  0  0  0  0  0  0  0
    2.0000    1.1233    0.0000 H   0  0  0  0  0  0  0  0  0  0  0  0
  1  9  1  0  0  0  0
  1 16  1  0  0  0  0
  2 16  2  0  0  0  0
  3 20  2  0  0  0  0
  4 23  1  0  0  0  0
  4 34  1  0  0  0  0
  5 23  2  0  0  0  0
  6 13  1  0  0  0  0
  6 20  1  0  0  0  0
  6 31  1  0  0  0  0
  7  8  1  0  0  0  0
  7  9  2  0  0  0  0
  7 11  1  0  0  0  0
  8 10  1  0  0  0  0
  8 14  2  0  0  0  0
  9 12  1  0  0  0  0
 10 16  1  0  0  0  0
 10 17  2  0  0  0  0
 11 15  2  0  0  0  0
 11 24  1  0  0  0  0
 12 13  2  0  0  0  0
 12 25  1  0  0  0  0
 13 15  1  0  0  0  0
 14 18  1  0  0  0  0
 14 26  1  0  0  0  0
 15 27  1  0  0  0  0
 17 19  1  0  0  0  0
 17 28  1  0  0  0  0
 18 19  2  0  0  0  0
 18 29  1  0  0  0  0
 19 30  1  0  0  0  0
 20 21  1  0  0  0  0
 21 22  2  0  0  0  0
 21 32  1  0  0  0  0
 22 23  1  0  0  0  0
 22 33  1  0  0  0  0
M  END
> <PUBCHEM_COMPOUND_CID>
5356754

> <PUBCHEM_COMPOUND_CANONICALIZED>
1

> <PUBCHEM_CACTVS_COMPLEXITY>
529

> <PUBCHEM_CACTVS_HBOND_ACCEPTOR>
5

> <PUBCHEM_CACTVS_HBOND_DONOR>
2

> <PUBCHEM_CACTVS_ROTATABLE_BOND>
3

> <PUBCHEM_CACTVS_SUBSKEYS>
AAADccB6OAAAAAAAAAAAAAAAAAAAAAAAAAA0YIAAAAAAAACRQAAAHgAQCAAADAyBmAAwzoLABgCIAiXSWACCCAAlIgAIiAEGbMgMJjLEtZuGOyjm1BnI+YeY3OPOiAAAAgAYAAAQAAAEADAAAAAAAAAAAA==

> <PUBCHEM_IUPAC_OPENEYE_NAME>
(Z)-4-oxo-4-[(6-oxobenzo[c]chromen-3-yl)amino]but-2-enoic acid

> <PUBCHEM_IUPAC_CAS_NAME>
(Z)-4-oxo-4-[(6-oxo-3-benzo[c][1]benzopyranyl)amino]-2-butenoic acid

> <PUBCHEM_IUPAC_NAME>
(Z)-4-oxo-4-[(6-oxobenzo[c]chromen-3-yl)amino]but-2-enoic acid

> <PUBCHEM_IUPAC_SYSTEMATIC_NAME>
(Z)-4-oxidanylidene-4-[(6-oxidanylidenebenzo[c]chromen-3-yl)amino]but-2-enoic acid

> <PUBCHEM_IUPAC_TRADITIONAL_NAME>
(Z)-4-keto-4-[(6-ketobenzo[c]chromen-3-yl)amino]but-2-enoic acid

> <PUBCHEM_IUPAC_INCHI>
InChI=1S/C17H11NO5/c19-15(7-8-16(20)21)18-10-5-6-12-11-3-1-2-4-13(11)17(22)23-14(12)9-10/h1-9H,(H,18,19)(H,20,21)/b8-7-

> <PUBCHEM_IUPAC_INCHIKEY>
HHGLRTMNBJCNJN-FPLPWBNLSA-N

> <PUBCHEM_XLOGP3_AA>
2

> <PUBCHEM_EXACT_MASS>
309.063722

> <PUBCHEM_MOLECULAR_FORMULA>
C17H11NO5

> <PUBCHEM_MOLECULAR_WEIGHT>
309.27294

> <PUBCHEM_OPENEYE_CAN_SMILES>
C1=CC=C2C(=C1)C3=C(C=C(C=C3)NC(=O)C=CC(=O)O)OC2=O

> <PUBCHEM_OPENEYE_ISO_SMILES>
C1=CC=C2C(=C1)C3=C(C=C(C=C3)NC(=O)/C=C\C(=O)O)OC2=O

> <PUBCHEM_CACTVS_TPSA>
92.7

> <PUBCHEM_MONOISOTOPIC_WEIGHT>
309.063722

> <PUBCHEM_TOTAL_CHARGE>
0

> <PUBCHEM_HEAVY_ATOM_COUNT>
23

> <PUBCHEM_ATOM_DEF_STEREO_COUNT>
0

> <PUBCHEM_ATOM_UDEF_STEREO_COUNT>
0

> <PUBCHEM_BOND_DEF_STEREO_COUNT>
1

> <PUBCHEM_BOND_UDEF_STEREO_COUNT>
0

> <PUBCHEM_ISOTOPIC_ATOM_COUNT>
0

> <PUBCHEM_COMPONENT_COUNT>
1

> <PUBCHEM_CACTVS_TAUTO_COUNT>
7

> <PUBCHEM_COORDINATE_TYPE>
1
5
255

> <PUBCHEM_BONDANNOTATIONS>
1  16  8
1  9  8
10  16  8
10  17  8
11  15  8
12  13  8
13  15  8
14  18  8
17  19  8
18  19  8
7  11  8
7  8  8
7  9  8
8  10  8
8  14  8
9  12  8

$$$$

