5524
  -OEChem-06261200433D

 33 35  0     0  0  0  0  0  0999 V2000
    1.1065   -0.5699    0.4664 N   0  0  0  0  0  0  0  0  0  0  0  0
    3.2895   -1.3154    0.3928 N   0  0  0  0  0  0  0  0  0  0  0  0
    2.8530    0.7408   -0.4628 N   0  0  0  0  0  0  0  0  0  0  0  0
   -1.4986   -1.7226    0.1148 C   0  0  0  0  0  0  0  0  0  0  0  0
   -2.8381   -2.1578   -0.4763 C   0  0  0  0  0  0  0  0  0  0  0  0
   -1.2958   -0.2280    0.0931 C   0  0  0  0  0  0  0  0  0  0  0  0
   -3.9700   -1.3086    0.0877 C   0  0  0  0  0  0  0  0  0  0  0  0
   -3.7805    0.1577   -0.2964 C   0  0  0  0  0  0  0  0  0  0  0  0
   -2.3774    0.6588   -0.0610 C   0  0  0  0  0  0  0  0  0  0  0  0
   -0.0053    0.2871    0.2889 C   0  0  0  0  0  0  0  0  0  0  0  0
   -2.1407    2.0418   -0.0528 C   0  0  0  0  0  0  0  0  0  0  0  0
    0.2151    1.6639    0.3051 C   0  0  0  0  0  0  0  0  0  0  0  0
   -0.8517    2.5408    0.1318 C   0  0  0  0  0  0  0  0  0  0  0  0
    2.3818   -0.3369    0.1179 C   0  0  0  0  0  0  0  0  0  0  0  0
    4.5978   -0.9206   -0.0323 C   0  0  0  0  0  0  0  0  0  0  0  0
    4.3145    0.4691   -0.6169 C   0  0  0  0  0  0  0  0  0  0  0  0
   -0.7123   -2.2284   -0.4579 H   0  0  0  0  0  0  0  0  0  0  0  0
   -1.4357   -2.0647    1.1555 H   0  0  0  0  0  0  0  0  0  0  0  0
   -2.8149   -2.0587   -1.5691 H   0  0  0  0  0  0  0  0  0  0  0  0
   -3.0123   -3.2165   -0.2535 H   0  0  0  0  0  0  0  0  0  0  0  0
   -3.9941   -1.4084    1.1803 H   0  0  0  0  0  0  0  0  0  0  0  0
   -4.9351   -1.6657   -0.2889 H   0  0  0  0  0  0  0  0  0  0  0  0
   -4.4943    0.7652    0.2728 H   0  0  0  0  0  0  0  0  0  0  0  0
   -4.0121    0.2854   -1.3613 H   0  0  0  0  0  0  0  0  0  0  0  0
   -2.9642    2.7389   -0.1877 H   0  0  0  0  0  0  0  0  0  0  0  0
    1.1848    2.1055    0.5064 H   0  0  0  0  0  0  0  0  0  0  0  0
    0.8815   -1.4936    0.8210 H   0  0  0  0  0  0  0  0  0  0  0  0
   -0.6838    3.6136    0.1534 H   0  0  0  0  0  0  0  0  0  0  0  0
    4.9959   -1.6018   -0.7900 H   0  0  0  0  0  0  0  0  0  0  0  0
    5.2938   -0.8678    0.8098 H   0  0  0  0  0  0  0  0  0  0  0  0
    4.8858    1.2402   -0.0894 H   0  0  0  0  0  0  0  0  0  0  0  0
    4.5823    0.5102   -1.6780 H   0  0  0  0  0  0  0  0  0  0  0  0
    3.0874   -2.2019    0.8381 H   0  0  0  0  0  0  0  0  0  0  0  0
  1 10  1  0  0  0  0
  1 14  1  0  0  0  0
  1 27  1  0  0  0  0
  2 14  1  0  0  0  0
  2 15  1  0  0  0  0
  2 33  1  0  0  0  0
  3 14  2  0  0  0  0
  3 16  1  0  0  0  0
  4  5  1  0  0  0  0
  4  6  1  0  0  0  0
  4 17  1  0  0  0  0
  4 18  1  0  0  0  0
  5  7  1  0  0  0  0
  5 19  1  0  0  0  0
  5 20  1  0  0  0  0
  6  9  2  0  0  0  0
  6 10  1  0  0  0  0
  7  8  1  0  0  0  0
  7 21  1  0  0  0  0
  7 22  1  0  0  0  0
  8  9  1  0  0  0  0
  8 23  1  0  0  0  0
  8 24  1  0  0  0  0
  9 11  1  0  0  0  0
 10 12  2  0  0  0  0
 11 13  2  0  0  0  0
 11 25  1  0  0  0  0
 12 13  1  0  0  0  0
 12 26  1  0  0  0  0
 13 28  1  0  0  0  0
 15 16  1  0  0  0  0
 15 29  1  0  0  0  0
 15 30  1  0  0  0  0
 16 31  1  0  0  0  0
 16 32  1  0  0  0  0
M  END
> <PUBCHEM_COMPOUND_CID>
5524

> <PUBCHEM_CONFORMER_RMSD>
0.6

> <PUBCHEM_CONFORMER_DIVERSEORDER>
1
8
9
10
7
6
5
3
2
4

> <PUBCHEM_MMFF94_PARTIAL_CHARGES>
19
1 -0.55
10 0.1
11 -0.15
12 -0.15
13 -0.15
14 0.55
15 0.37
16 0.25
2 -0.82
25 0.15
26 0.15
27 0.4
28 0.15
3 -0.7
33 0.4
4 0.14
6 -0.14
8 0.14
9 -0.14

> <PUBCHEM_EFFECTIVE_ROTOR_COUNT>
3.4

> <PUBCHEM_PHARMACOPHORE_FEATURES>
6
1 1 donor
1 2 donor
4 1 2 3 14 cation
5 2 3 14 15 16 rings
6 4 5 6 7 8 9 rings
6 6 9 10 11 12 13 rings

> <PUBCHEM_HEAVY_ATOM_COUNT>
16

> <PUBCHEM_ATOM_DEF_STEREO_COUNT>
0

> <PUBCHEM_ATOM_UDEF_STEREO_COUNT>
0

> <PUBCHEM_BOND_DEF_STEREO_COUNT>
0

> <PUBCHEM_BOND_UDEF_STEREO_COUNT>
0

> <PUBCHEM_ISOTOPIC_ATOM_COUNT>
0

> <PUBCHEM_COMPONENT_COUNT>
1

> <PUBCHEM_CACTVS_TAUTO_COUNT>
2

> <PUBCHEM_CONFORMER_ID>
0000159400000001

> <PUBCHEM_MMFF94_ENERGY>
51.6537

> <PUBCHEM_FEATURE_SELFOVERLAP>
30.516

> <PUBCHEM_SHAPE_FINGERPRINT>
10493431 412 18045491169998930505
10616163 171 18409165549648969862
11680986 33 18121504544784970017
12032990 46 18410292463320516451
12173636 292 18193844974745656924
12553582 1 18338244756218728307
13288520 33 18335418002297175558
13862211 1 18408890620682323231
14115302 16 18060130995011833767
14790565 3 18048591814074632665
14911166 2 18410867564084590965
15099037 51 18410299116688964847
15196674 1 18411138021731611341
15442244 35 18125724736727032162
15536298 74 18189899716650712416
15669948 3 18410862091774152594
16752209 62 18267039395487479345
16945 1 18337404798265145553
17492 89 18341050830241977122
17804303 29 18260266326551019897
18186145 218 16845577491433522026
19141452 34 18040714732547389207
200 152 18272370862898719306
20300324 65 18410852174895100152
20510252 161 18261110841243176032
20871998 184 18187083979151494991
20871999 31 18342465833097217533
21029758 11 18334863792512706161
21029758 27 18343013355628351073
21267235 1 18411972555352437427
21634736 98 18341328886350048580
221490 88 18053660270335151299
22213442 358 18336829684600338437
2297311 6 18261943111827115510
23402539 116 18408892857684661719
23557571 272 18186793708398448468
23559900 14 18335709355798906824
2748010 2 18194137217764060385
4214541 1 18339079401755636396
474 4 17274248445463585780
5104073 3 18409730694604519136
559249 180 18126853935126683578
573450 72 18199479916546240074
7364860 26 17901951842215546689
83771 10 18336544924057951563
8809292 202 18340768156736606651
9709674 26 18262513822807942438

> <PUBCHEM_SHAPE_MULTIPOLES>
314.33
8.04
2.33
0.69
6.81
0.63
-0.02
-3.12
-1.06
-1.67
0.01
0.08
-0.01
-0.32

> <PUBCHEM_SHAPE_SELFOVERLAP>
675.027

> <PUBCHEM_SHAPE_VOLUME>
168.6

> <PUBCHEM_COORDINATE_TYPE>
2
5
10

$$$$

