3246291
  -OEChem-07051213063D

 40 41  0     1  0  0  0  0  0999 V2000
   -4.2894   -1.0621    1.2292 O   0  0  0  0  0  0  0  0  0  0  0  0
   -5.0541   -0.3632   -0.7869 O   0  0  0  0  0  0  0  0  0  0  0  0
    5.9435   -0.1854   -0.3874 O   0  0  0  0  0  0  0  0  0  0  0  0
   -1.8529    0.3281    0.4531 C   0  0  2  0  0  0  0  0  0  0  0  0
   -2.6366   -0.6824   -0.4709 C   0  0  0  0  0  0  0  0  0  0  0  0
   -2.5188    1.7308    0.5202 C   0  0  0  0  0  0  0  0  0  0  0  0
   -0.3593    0.4145    0.1415 C   0  0  0  0  0  0  0  0  0  0  0  0
   -2.1220   -2.1304   -0.3091 C   0  0  0  0  0  0  0  0  0  0  0  0
   -2.5569   -0.3273   -1.9694 C   0  0  0  0  0  0  0  0  0  0  0  0
   -4.1196   -0.6815   -0.0635 C   0  0  0  0  0  0  0  0  0  0  0  0
    0.4930   -0.4862    0.7402 C   0  0  0  0  0  0  0  0  0  0  0  0
   -1.9177    2.6268    1.5999 C   0  0  0  0  0  0  0  0  0  0  0  0
    0.0775    1.3866   -0.7252 C   0  0  0  0  0  0  0  0  0  0  0  0
    1.8684   -0.4210    0.4637 C   0  0  0  0  0  0  0  0  0  0  0  0
    2.3493    0.5697   -0.4252 C   0  0  0  0  0  0  0  0  0  0  0  0
    1.4408    1.4661   -1.0113 C   0  0  0  0  0  0  0  0  0  0  0  0
    2.7770   -1.3172    1.0497 C   0  0  0  0  0  0  0  0  0  0  0  0
    3.7246    0.6351   -0.7018 C   0  0  0  0  0  0  0  0  0  0  0  0
    4.1402   -1.2377    0.7636 C   0  0  0  0  0  0  0  0  0  0  0  0
    4.6131   -0.2634   -0.1104 C   0  0  0  0  0  0  0  0  0  0  0  0
   -1.9275   -0.0615    1.4807 H   0  0  0  0  0  0  0  0  0  0  0  0
   -3.5788    1.6204    0.7762 H   0  0  0  0  0  0  0  0  0  0  0  0
   -2.5087    2.2499   -0.4430 H   0  0  0  0  0  0  0  0  0  0  0  0
   -1.1326   -2.2653   -0.7578 H   0  0  0  0  0  0  0  0  0  0  0  0
   -2.0611   -2.4208    0.7456 H   0  0  0  0  0  0  0  0  0  0  0  0
   -2.7987   -2.8424   -0.7973 H   0  0  0  0  0  0  0  0  0  0  0  0
   -3.1714   -1.0088   -2.5703 H   0  0  0  0  0  0  0  0  0  0  0  0
   -2.9219    0.6867   -2.1639 H   0  0  0  0  0  0  0  0  0  0  0  0
   -1.5333   -0.3990   -2.3509 H   0  0  0  0  0  0  0  0  0  0  0  0
    0.1143   -1.2384    1.4280 H   0  0  0  0  0  0  0  0  0  0  0  0
   -0.8826    2.9047    1.3860 H   0  0  0  0  0  0  0  0  0  0  0  0
   -1.9477    2.1353    2.5778 H   0  0  0  0  0  0  0  0  0  0  0  0
   -2.4954    3.5541    1.6754 H   0  0  0  0  0  0  0  0  0  0  0  0
   -0.5820    2.0845   -1.2267 H   0  0  0  0  0  0  0  0  0  0  0  0
    1.7878    2.2316   -1.7023 H   0  0  0  0  0  0  0  0  0  0  0  0
    2.4295   -2.0869    1.7359 H   0  0  0  0  0  0  0  0  0  0  0  0
   -5.2343   -1.0508    1.4923 H   0  0  0  0  0  0  0  0  0  0  0  0
    4.1106    1.3914   -1.3829 H   0  0  0  0  0  0  0  0  0  0  0  0
    4.8223   -1.9432    1.2308 H   0  0  0  0  0  0  0  0  0  0  0  0
    6.4099   -0.8813    0.1068 H   0  0  0  0  0  0  0  0  0  0  0  0
  1 10  1  0  0  0  0
  1 37  1  0  0  0  0
  2 10  2  0  0  0  0
  3 20  1  0  0  0  0
  3 40  1  0  0  0  0
  4  5  1  0  0  0  0
  4  6  1  0  0  0  0
  4  7  1  0  0  0  0
  4 21  1  0  0  0  0
  5  8  1  0  0  0  0
  5  9  1  0  0  0  0
  5 10  1  0  0  0  0
  6 12  1  0  0  0  0
  6 22  1  0  0  0  0
  6 23  1  0  0  0  0
  7 11  2  0  0  0  0
  7 13  1  0  0  0  0
  8 24  1  0  0  0  0
  8 25  1  0  0  0  0
  8 26  1  0  0  0  0
  9 27  1  0  0  0  0
  9 28  1  0  0  0  0
  9 29  1  0  0  0  0
 11 14  1  0  0  0  0
 11 30  1  0  0  0  0
 12 31  1  0  0  0  0
 12 32  1  0  0  0  0
 12 33  1  0  0  0  0
 13 16  2  0  0  0  0
 13 34  1  0  0  0  0
 14 15  2  0  0  0  0
 14 17  1  0  0  0  0
 15 16  1  0  0  0  0
 15 18  1  0  0  0  0
 16 35  1  0  0  0  0
 17 19  2  0  0  0  0
 17 36  1  0  0  0  0
 18 20  2  0  0  0  0
 18 38  1  0  0  0  0
 19 20  1  0  0  0  0
 19 39  1  0  0  0  0
M  END
> <PUBCHEM_COMPOUND_CID>
3246291

> <PUBCHEM_CONFORMER_RMSD>
0.6

> <PUBCHEM_CONFORMER_DIVERSEORDER>
1
6
4
3
2
5

> <PUBCHEM_MMFF94_PARTIAL_CHARGES>
22
1 -0.65
10 0.66
11 -0.15
13 -0.15
16 -0.15
17 -0.15
18 -0.15
19 -0.15
2 -0.57
20 0.08
3 -0.53
30 0.15
34 0.15
35 0.15
36 0.15
37 0.5
38 0.15
39 0.15
4 0.14
40 0.45
5 0.06
7 -0.14

> <PUBCHEM_EFFECTIVE_ROTOR_COUNT>
4

> <PUBCHEM_PHARMACOPHORE_FEATURES>
8
1 1 acceptor
1 12 hydrophobe
1 2 acceptor
1 3 donor
3 1 2 10 anion
3 5 8 9 hydrophobe
6 14 15 17 18 19 20 rings
6 7 11 13 14 15 16 rings

> <PUBCHEM_HEAVY_ATOM_COUNT>
20

> <PUBCHEM_ATOM_DEF_STEREO_COUNT>
1

> <PUBCHEM_ATOM_UDEF_STEREO_COUNT>
0

> <PUBCHEM_BOND_DEF_STEREO_COUNT>
0

> <PUBCHEM_BOND_UDEF_STEREO_COUNT>
0

> <PUBCHEM_ISOTOPIC_ATOM_COUNT>
0

> <PUBCHEM_COMPONENT_COUNT>
1

> <PUBCHEM_CACTVS_TAUTO_COUNT>
3

> <PUBCHEM_CONFORMER_ID>
003188D300000001

> <PUBCHEM_MMFF94_ENERGY>
61.6464

> <PUBCHEM_FEATURE_SELFOVERLAP>
40.681

> <PUBCHEM_SHAPE_FINGERPRINT>
10366900 7 17603591819781559642
11045515 52 17632579336147427197
11315181 36 18342173363099356312
11578080 2 18268174039521592501
12107183 9 17616247422398276866
12236239 1 18411698798489687612
12553582 1 18260557692647736387
12633257 1 16298383522537726315
12670546 56 18260268542501183952
12714826 92 17676209091070925281
12788726 201 18187915179993756793
128620 24 17917997165707478958
13288520 33 18260828211273359062
13581323 91 17967533488590137349
13583140 156 16589168184760266354
14289901 80 17385448726190092960
14576447 43 18272937094260149146
15238133 3 14418397867841347587
15375358 24 13840258187136353455
15653759 3 16587744248155726560
16752209 62 18262812855784512529
16945 1 18186527596118731359
17349148 13 17847066567051445800
19862831 5 18059582372916259375
200 152 18342178856061659113
20281475 54 18270122452067412410
20600515 1 16878212061967082081
20645477 70 16845021220660967058
21033648 29 15502949643826360130
21267235 1 18271798025972962570
221490 88 17630315351078668354
22646028 28 18343023297981938058
2297311 6 17821721741282783624
23402539 116 18113339717397590621
23402655 69 17917717919839751254
23557571 272 17458620142492031904
23559900 14 18262526883718944120
23598288 3 18186800253823320765
2871803 45 17846784035491732994
312423 11 18339063943941997988
34797466 226 17458897151309526524
5104073 3 18340772654099849952
602551 16 17168151104863183670

> <PUBCHEM_SHAPE_MULTIPOLES>
393.98
9.82
1.92
1.31
5.12
0.67
-0.12
-3.03
-0.43
-1.24
0.55
-0.63
0.2
-1.23

> <PUBCHEM_SHAPE_SELFOVERLAP>
841.146

> <PUBCHEM_SHAPE_VOLUME>
220.1

> <PUBCHEM_COORDINATE_TYPE>
2
5
10

$$$$

