115152
  -OEChem-07051213003D

 24 25  0     0  0  0  0  0  0999 V2000
   -5.0294    0.5802   -0.0004 O   0  0  0  0  0  0  0  0  0  0  0  0
    4.3674    0.6730   -0.0010 O   0  0  0  0  0  0  0  0  0  0  0  0
    3.2346   -1.3111    0.0009 O   0  0  0  0  0  0  0  0  0  0  0  0
   -0.1909    1.3348    0.0009 N   0  0  0  0  0  0  0  0  0  0  0  0
    0.2998   -0.8329    0.0007 N   0  0  0  0  0  0  0  0  0  0  0  0
    2.1127    0.7545    0.0002 N   0  0  0  0  0  0  0  0  0  0  0  0
   -1.3990    0.6860    0.0003 C   0  0  0  0  0  0  0  0  0  0  0  0
   -1.0659   -0.6655    0.0002 C   0  0  0  0  0  0  0  0  0  0  0  0
    0.7928    0.3854    0.0010 C   0  0  0  0  0  0  0  0  0  0  0  0
   -2.7144    1.1513   -0.0001 C   0  0  0  0  0  0  0  0  0  0  0  0
   -2.0933   -1.6240   -0.0002 C   0  0  0  0  0  0  0  0  0  0  0  0
   -3.7244    0.1835   -0.0007 C   0  0  0  0  0  0  0  0  0  0  0  0
   -3.4216   -1.1800   -0.0007 C   0  0  0  0  0  0  0  0  0  0  0  0
    3.2268   -0.0864    0.0002 C   0  0  0  0  0  0  0  0  0  0  0  0
    5.6047   -0.0489   -0.0012 C   0  0  0  0  0  0  0  0  0  0  0  0
   -0.0520    2.3364    0.0009 H   0  0  0  0  0  0  0  0  0  0  0  0
   -2.9417    2.2117    0.0001 H   0  0  0  0  0  0  0  0  0  0  0  0
   -1.8682   -2.6857   -0.0003 H   0  0  0  0  0  0  0  0  0  0  0  0
   -4.2188   -1.9198   -0.0009 H   0  0  0  0  0  0  0  0  0  0  0  0
    2.2994    1.7542   -0.0003 H   0  0  0  0  0  0  0  0  0  0  0  0
   -5.5994   -0.2078   -0.0007 H   0  0  0  0  0  0  0  0  0  0  0  0
    5.6835   -0.6648    0.8996 H   0  0  0  0  0  0  0  0  0  0  0  0
    6.4215    0.6778   -0.0022 H   0  0  0  0  0  0  0  0  0  0  0  0
    5.6824   -0.6660   -0.9014 H   0  0  0  0  0  0  0  0  0  0  0  0
  1 12  1  0  0  0  0
  1 21  1  0  0  0  0
  2 14  1  0  0  0  0
  2 15  1  0  0  0  0
  3 14  2  0  0  0  0
  4  7  1  0  0  0  0
  4  9  1  0  0  0  0
  4 16  1  0  0  0  0
  5  8  1  0  0  0  0
  5  9  2  0  0  0  0
  6  9  1  0  0  0  0
  6 14  1  0  0  0  0
  6 20  1  0  0  0  0
  7  8  2  0  0  0  0
  7 10  1  0  0  0  0
  8 11  1  0  0  0  0
 10 12  2  0  0  0  0
 10 17  1  0  0  0  0
 11 13  2  0  0  0  0
 11 18  1  0  0  0  0
 12 13  1  0  0  0  0
 13 19  1  0  0  0  0
 15 22  1  0  0  0  0
 15 23  1  0  0  0  0
 15 24  1  0  0  0  0
M  END
> <PUBCHEM_COMPOUND_CID>
115152

> <PUBCHEM_CONFORMER_RMSD>
0.6

> <PUBCHEM_CONFORMER_DIVERSEORDER>
1
4
2
3

> <PUBCHEM_MMFF94_PARTIAL_CHARGES>
21
1 -0.53
10 -0.15
11 -0.15
12 0.08
13 -0.15
14 0.78
15 0.28
16 0.27
17 0.15
18 0.15
19 0.15
2 -0.43
20 0.37
21 0.45
3 -0.57
4 0.03
5 -0.57
6 -0.49
7 -0.15
8 0.23
9 0.25

> <PUBCHEM_EFFECTIVE_ROTOR_COUNT>
3

> <PUBCHEM_PHARMACOPHORE_FEATURES>
6
1 1 donor
1 3 acceptor
1 4 donor
1 6 donor
5 4 5 7 8 9 rings
6 7 8 10 11 12 13 rings

> <PUBCHEM_HEAVY_ATOM_COUNT>
15

> <PUBCHEM_ATOM_DEF_STEREO_COUNT>
0

> <PUBCHEM_ATOM_UDEF_STEREO_COUNT>
0

> <PUBCHEM_BOND_DEF_STEREO_COUNT>
0

> <PUBCHEM_BOND_UDEF_STEREO_COUNT>
0

> <PUBCHEM_ISOTOPIC_ATOM_COUNT>
0

> <PUBCHEM_COMPONENT_COUNT>
1

> <PUBCHEM_CACTVS_TAUTO_COUNT>
24

> <PUBCHEM_CONFORMER_ID>
0001C1D000000001

> <PUBCHEM_MMFF94_ENERGY>
26.4291

> <PUBCHEM_FEATURE_SELFOVERLAP>
30.589

> <PUBCHEM_SHAPE_FINGERPRINT>
11315181 36 18114176424487639672
11401426 45 18409169904782159525
12032990 46 18411133615385361499
12236239 1 17775003488129193004
124424 183 17967250879889747233
13214271 11 18334296448633492583
13288520 33 18408884027258268198
13380535 76 18408602582805634815
14911166 2 18410300203115425501
15196674 1 18410856572651714247
15242433 33 18413670218844126446
15375358 24 18333166163544039030
15536298 74 18335983168337969238
17804303 29 18335700503385993489
18186145 218 16917074304371044068
200 152 17530686502225524607
20279233 1 17894904127226134510
20510252 161 18188770677112266153
20645477 56 18341896307385647373
20645477 70 17968093192028760142
21267235 1 18411973637721034827
22485316 2 18410013230211323610
23402539 116 18259992573983685821
23463225 33 18412544318631224894
23557571 272 18335977670927549852
23559900 14 18334862667273609272
3545911 37 18410854369217018126
366044 4 18410856573073558051
42 15 18341894091087291154
4214541 1 18410855481824869152
42788 4 18410575084726531844
5104073 3 18339079293959546216
69090 78 18261115170881342599
7364860 26 18193556662539758836
77779 3 18410572881809040738
9709674 26 18410287000101627558

> <PUBCHEM_SHAPE_MULTIPOLES>
276.14
9.93
1.37
0.58
8.92
0.24
0
-0.19
0
-0.71
0
-0.03
0.01
0

> <PUBCHEM_SHAPE_SELFOVERLAP>
596.982

> <PUBCHEM_SHAPE_VOLUME>
153

> <PUBCHEM_COORDINATE_TYPE>
2
5
10

$$$$

