43385
  -OEChem-07051213113D

 36 40  0     1  0  0  0  0  0999 V2000
    0.1796    2.3379   -1.6344 O   0  0  0  0  0  0  0  0  0  0  0  0
   -1.2294    2.5089    1.6728 O   0  0  0  0  0  0  0  0  0  0  0  0
    0.1580    2.0192   -0.2400 C   0  0  2  0  0  0  0  0  0  0  0  0
    0.6890    0.6069   -0.0379 C   0  0  0  0  0  0  0  0  0  0  0  0
   -0.2513   -0.4596    0.0081 C   0  0  0  0  0  0  0  0  0  0  0  0
   -1.2729    2.2428    0.2687 C   0  0  1  0  0  0  0  0  0  0  0  0
   -1.6526   -0.2348   -0.0240 C   0  0  0  0  0  0  0  0  0  0  0  0
   -2.1855    1.0689    0.0282 C   0  0  0  0  0  0  0  0  0  0  0  0
    0.2251   -1.7877    0.0592 C   0  0  0  0  0  0  0  0  0  0  0  0
    2.0958    0.3483   -0.0034 C   0  0  0  0  0  0  0  0  0  0  0  0
   -2.5507   -1.3296   -0.0859 C   0  0  0  0  0  0  0  0  0  0  0  0
    2.5363   -0.9921    0.0958 C   0  0  0  0  0  0  0  0  0  0  0  0
    1.6014   -2.0333    0.1221 C   0  0  0  0  0  0  0  0  0  0  0  0
   -3.5720    1.2753   -0.0345 C   0  0  0  0  0  0  0  0  0  0  0  0
   -0.6776   -2.8577    0.0303 C   0  0  0  0  0  0  0  0  0  0  0  0
   -2.0481   -2.6324   -0.0605 C   0  0  0  0  0  0  0  0  0  0  0  0
   -3.9334   -1.1009   -0.1567 C   0  0  0  0  0  0  0  0  0  0  0  0
    3.0960    1.3497   -0.0744 C   0  0  0  0  0  0  0  0  0  0  0  0
   -4.4403    0.1952   -0.1407 C   0  0  0  0  0  0  0  0  0  0  0  0
    3.9097   -1.2884    0.1458 C   0  0  0  0  0  0  0  0  0  0  0  0
    4.4579    1.0417   -0.0268 C   0  0  0  0  0  0  0  0  0  0  0  0
    4.8650   -0.2782    0.0881 C   0  0  0  0  0  0  0  0  0  0  0  0
    0.8020    2.7418    0.2708 H   0  0  0  0  0  0  0  0  0  0  0  0
   -1.6962    3.1299   -0.2201 H   0  0  0  0  0  0  0  0  0  0  0  0
    1.9548   -3.0639    0.1760 H   0  0  0  0  0  0  0  0  0  0  0  0
   -3.9802    2.2816    0.0169 H   0  0  0  0  0  0  0  0  0  0  0  0
   -0.3211   -3.8856    0.0611 H   0  0  0  0  0  0  0  0  0  0  0  0
   -2.7180   -3.4890   -0.0968 H   0  0  0  0  0  0  0  0  0  0  0  0
   -4.6308   -1.9340   -0.2153 H   0  0  0  0  0  0  0  0  0  0  0  0
    2.8341    2.3999   -0.1719 H   0  0  0  0  0  0  0  0  0  0  0  0
   -5.5124    0.3608   -0.1880 H   0  0  0  0  0  0  0  0  0  0  0  0
   -0.1518    1.5703   -2.1309 H   0  0  0  0  0  0  0  0  0  0  0  0
   -0.7202    3.3274    1.8011 H   0  0  0  0  0  0  0  0  0  0  0  0
    4.2501   -2.3194    0.2243 H   0  0  0  0  0  0  0  0  0  0  0  0
    5.1957    1.8370   -0.0807 H   0  0  0  0  0  0  0  0  0  0  0  0
    5.9219   -0.5237    0.1256 H   0  0  0  0  0  0  0  0  0  0  0  0
  1  3  1  0  0  0  0
  1 32  1  0  0  0  0
  2  6  1  0  0  0  0
  2 33  1  0  0  0  0
  3  4  1  0  0  0  0
  3  6  1  0  0  0  0
  3 23  1  0  0  0  0
  4  5  2  0  0  0  0
  4 10  1  0  0  0  0
  5  7  1  0  0  0  0
  5  9  1  0  0  0  0
  6  8  1  0  0  0  0
  6 24  1  0  0  0  0
  7  8  1  0  0  0  0
  7 11  2  0  0  0  0
  8 14  2  0  0  0  0
  9 13  2  0  0  0  0
  9 15  1  0  0  0  0
 10 12  1  0  0  0  0
 10 18  2  0  0  0  0
 11 16  1  0  0  0  0
 11 17  1  0  0  0  0
 12 13  1  0  0  0  0
 12 20  2  0  0  0  0
 13 25  1  0  0  0  0
 14 19  1  0  0  0  0
 14 26  1  0  0  0  0
 15 16  2  0  0  0  0
 15 27  1  0  0  0  0
 16 28  1  0  0  0  0
 17 19  2  0  0  0  0
 17 29  1  0  0  0  0
 18 21  1  0  0  0  0
 18 30  1  0  0  0  0
 19 31  1  0  0  0  0
 20 22  1  0  0  0  0
 20 34  1  0  0  0  0
 21 22  2  0  0  0  0
 21 35  1  0  0  0  0
 22 36  1  0  0  0  0
M  END
> <PUBCHEM_COMPOUND_CID>
43385

> <PUBCHEM_CONFORMER_RMSD>
0.6

> <PUBCHEM_CONFORMER_DIVERSEORDER>
1

> <PUBCHEM_MMFF94_PARTIAL_CHARGES>
28
1 -0.68
13 -0.15
14 -0.15
15 -0.15
16 -0.15
17 -0.15
18 -0.15
19 -0.15
2 -0.68
20 -0.15
21 -0.15
22 -0.15
25 0.15
26 0.15
27 0.15
28 0.15
29 0.15
3 0.42
30 0.15
31 0.15
32 0.4
33 0.4
34 0.15
35 0.15
36 0.15
4 -0.14
6 0.42
8 -0.14

> <PUBCHEM_EFFECTIVE_ROTOR_COUNT>
0.4

> <PUBCHEM_PHARMACOPHORE_FEATURES>
9
1 1 acceptor
1 1 donor
1 2 acceptor
1 2 donor
6 10 12 18 20 21 22 rings
6 3 4 5 6 7 8 rings
6 4 5 9 10 12 13 rings
6 5 7 9 11 15 16 rings
6 7 8 11 14 17 19 rings

> <PUBCHEM_HEAVY_ATOM_COUNT>
22

> <PUBCHEM_ATOM_DEF_STEREO_COUNT>
2

> <PUBCHEM_ATOM_UDEF_STEREO_COUNT>
0

> <PUBCHEM_BOND_DEF_STEREO_COUNT>
0

> <PUBCHEM_BOND_UDEF_STEREO_COUNT>
0

> <PUBCHEM_ISOTOPIC_ATOM_COUNT>
0

> <PUBCHEM_COMPONENT_COUNT>
1

> <PUBCHEM_CACTVS_TAUTO_COUNT>
1

> <PUBCHEM_CONFORMER_ID>
0000A97900000001

> <PUBCHEM_MMFF94_ENERGY>
76.8299

> <PUBCHEM_FEATURE_SELFOVERLAP>
45.812

> <PUBCHEM_SHAPE_FINGERPRINT>
10319926 262 18190766214551617338
10411042 1 17762338011536293358
10493431 412 18336256946849200417
10616163 171 18409728422398338446
10863032 1 18409450275688524474
10906281 52 18335403678570498959
10967382 1 18411138056107394831
1100329 8 18338231544946291945
11112241 14 16519085076987530600
11132069 177 18410580591169842184
12011746 2 18410858771584929143
12236239 1 17846781797993009386
12403814 3 17775571939872358957
12788726 201 18040984159560794040
12838862 33 18339381711223444357
12954195 1 18042946831472324572
13027679 85 18335423405234119585
13132413 78 18338797801776507557
13140716 1 18122617254673290339
138480 1 17113537580501147619
13862211 1 18410862035992656519
14081887 123 18260843557196977712
14223421 5 18194683897869642166
14787075 74 18261117344087282445
14790565 3 18336819909556012033
15196674 1 18411138034632538871
15442244 35 18267025132096794386
15536298 74 18335421279172554014
16945 1 18262509432981704243
1813 80 17203612579788954772
19591789 44 18123187080906613254
200 152 18333737918148521669
20510252 161 18261392286160117489
20715895 44 17839476810026103973
20739085 24 17981296170551973905
20775438 99 16600172883068899687
21029758 11 18262244326510305097
21267235 1 18411692175655775171
21421861 104 17844538905667560522
2334 1 18411419509873058567
23402539 116 18335430057732448358
23557571 272 18262227838205072854
23559900 14 18261676965926684040
238 59 16546117004053037861
2748010 2 18339919428381125847
3178227 256 18340475679056049307
335352 9 18339081592036256286
34934 24 18341338824582682946
350125 39 18339081618069608946
474 4 17489020441057376268
484989 97 18126010352485350127
5104073 3 18411420604978937234
7471813 234 17610922087874119391
9709674 26 18334571360974417710

> <PUBCHEM_SHAPE_MULTIPOLES>
441.01
7.69
3.04
0.8
3.7
0.29
-0.02
0.06
0.03
-0.98
-0.09
-0.1
-0.45
-0.37

> <PUBCHEM_SHAPE_SELFOVERLAP>
1026.316

> <PUBCHEM_SHAPE_VOLUME>
224.6

> <PUBCHEM_COORDINATE_TYPE>
2
5
10

$$$$

