119105
  -OEChem-07051213082D

 23 23  0     1  0  0  0  0  0999 V2000
    2.0000   -0.2985    0.0000 Cl  0  0  0  0  0  0  0  0  0  0  0  0
    5.4641   -0.2985    0.0000 P   0  0  3  0  0  0  0  0  0  0  0  0
    6.3301    0.2015    0.0000 O   0  0  0  0  0  0  0  0  0  0  0  0
    5.9641   -1.1645    0.0000 O   0  0  0  0  0  0  0  0  0  0  0  0
    4.5981    0.2015    0.0000 N   0  0  3  0  0  0  0  0  0  0  0  0
    4.9641   -1.1645    0.0000 N   0  0  0  0  0  0  0  0  0  0  0  0
    4.5981    1.2015    0.0000 C   0  0  0  0  0  0  0  0  0  0  0  0
    5.4641    1.7015    0.0000 C   0  0  0  0  0  0  0  0  0  0  0  0
    6.3301    1.2015    0.0000 C   0  0  0  0  0  0  0  0  0  0  0  0
    3.7320   -0.2985    0.0000 C   0  0  0  0  0  0  0  0  0  0  0  0
    2.8660    0.2015    0.0000 C   0  0  0  0  0  0  0  0  0  0  0  0
    4.3860    1.7841    0.0000 H   0  0  0  0  0  0  0  0  0  0  0  0
    3.9875    1.0938    0.0000 H   0  0  0  0  0  0  0  0  0  0  0  0
    5.8626    2.1764    0.0000 H   0  0  0  0  0  0  0  0  0  0  0  0
    5.0656    2.1764    0.0000 H   0  0  0  0  0  0  0  0  0  0  0  0
    6.9407    1.0938    0.0000 H   0  0  0  0  0  0  0  0  0  0  0  0
    6.5422    1.7841    0.0000 H   0  0  0  0  0  0  0  0  0  0  0  0
    3.3335   -0.7735    0.0000 H   0  0  0  0  0  0  0  0  0  0  0  0
    4.1306   -0.7735    0.0000 H   0  0  0  0  0  0  0  0  0  0  0  0
    3.2646    0.6764    0.0000 H   0  0  0  0  0  0  0  0  0  0  0  0
    2.4675    0.6764    0.0000 H   0  0  0  0  0  0  0  0  0  0  0  0
    5.2741   -1.7015    0.0000 H   0  0  0  0  0  0  0  0  0  0  0  0
    4.3441   -1.1645    0.0000 H   0  0  0  0  0  0  0  0  0  0  0  0
  1 11  1  0  0  0  0
  2  3  1  0  0  0  0
  2  4  2  0  0  0  0
  2  5  1  0  0  0  0
  2  6  1  0  0  0  0
  3  9  1  0  0  0  0
  5  7  1  0  0  0  0
  5 10  1  0  0  0  0
  6 22  1  0  0  0  0
  6 23  1  0  0  0  0
  7  8  1  0  0  0  0
  7 12  1  0  0  0  0
  7 13  1  0  0  0  0
  8  9  1  0  0  0  0
  8 14  1  0  0  0  0
  8 15  1  0  0  0  0
  9 16  1  0  0  0  0
  9 17  1  0  0  0  0
 10 11  1  0  0  0  0
 10 18  1  0  0  0  0
 10 19  1  0  0  0  0
 11 20  1  0  0  0  0
 11 21  1  0  0  0  0
M  END
> <PUBCHEM_COMPOUND_CID>
119105

> <PUBCHEM_COMPOUND_CANONICALIZED>
1

> <PUBCHEM_CACTVS_COMPLEXITY>
178

> <PUBCHEM_CACTVS_HBOND_ACCEPTOR>
4

> <PUBCHEM_CACTVS_HBOND_DONOR>
1

> <PUBCHEM_CACTVS_ROTATABLE_BOND>
2

> <PUBCHEM_CACTVS_SUBSKEYS>
AAADccBjMAIEAAAAAAAAAAAAAAAAAAAAAAAsAAAAAAAAAAAAAAAAHgIQgCAACAPhgEYAAAIAARAAQAAAAIAAAAAAAAAAAAAIAAAAAAAAAABEAAACAACAAAAAAAAAAAAAAAAAAAAAAAAAAAAAAAAAAAAAAA==

> <PUBCHEM_IUPAC_OPENEYE_NAME>
3-(2-chloroethyl)-2-oxo-1,3,2$l^{5}-oxazaphosphinan-2-amine

> <PUBCHEM_IUPAC_CAS_NAME>
3-(2-chloroethyl)-2-oxo-1,3,2$l^{5}-oxazaphosphorinan-2-amine

> <PUBCHEM_IUPAC_NAME>
3-(2-chloroethyl)-2-oxo-1,3,2$l^{5}-oxazaphosphinan-2-amine

> <PUBCHEM_IUPAC_SYSTEMATIC_NAME>
3-(2-chloroethyl)-2-oxidanylidene-1,3,2$l^{5}-oxazaphosphinan-2-amine

> <PUBCHEM_IUPAC_TRADITIONAL_NAME>
[3-(2-chloroethyl)-2-keto-1,3,2$l^{5}-oxazaphosphorinan-2-yl]amine

> <PUBCHEM_IUPAC_INCHI>
InChI=1S/C5H12ClN2O2P/c6-2-4-8-3-1-5-10-11(8,7)9/h1-5H2,(H2,7,9)

> <PUBCHEM_IUPAC_INCHIKEY>
ROGLJLJCDSTWBN-UHFFFAOYSA-N

> <PUBCHEM_XLOGP3>
-0.2

> <PUBCHEM_EXACT_MASS>
198.032492

> <PUBCHEM_MOLECULAR_FORMULA>
C5H12ClN2O2P

> <PUBCHEM_MOLECULAR_WEIGHT>
198.587742

> <PUBCHEM_OPENEYE_CAN_SMILES>
C1CN(P(=O)(OC1)N)CCCl

> <PUBCHEM_OPENEYE_ISO_SMILES>
C1CN(P(=O)(OC1)N)CCCl

> <PUBCHEM_CACTVS_TPSA>
55.6

> <PUBCHEM_MONOISOTOPIC_WEIGHT>
198.032492

> <PUBCHEM_TOTAL_CHARGE>
0

> <PUBCHEM_HEAVY_ATOM_COUNT>
11

> <PUBCHEM_ATOM_DEF_STEREO_COUNT>
0

> <PUBCHEM_ATOM_UDEF_STEREO_COUNT>
1

> <PUBCHEM_BOND_DEF_STEREO_COUNT>
0

> <PUBCHEM_BOND_UDEF_STEREO_COUNT>
0

> <PUBCHEM_ISOTOPIC_ATOM_COUNT>
0

> <PUBCHEM_COMPONENT_COUNT>
1

> <PUBCHEM_CACTVS_TAUTO_COUNT>
2

> <PUBCHEM_COORDINATE_TYPE>
1
5
255

> <PUBCHEM_BONDANNOTATIONS>
2  6  3

$$$$

