185623
  -OEChem-07051212573D

 45 49  0     1  0  0  0  0  0999 V2000
   -0.7893   -0.9176   -1.8455 O   0  0  0  0  0  0  0  0  0  0  0  0
   -3.4922    0.4952   -1.8628 O   0  0  0  0  0  0  0  0  0  0  0  0
   -5.1223    1.5426   -0.4284 O   0  0  0  0  0  0  0  0  0  0  0  0
    5.0211    1.7052   -0.5793 O   0  0  0  0  0  0  0  0  0  0  0  0
    2.6923    3.0922    0.0302 O   0  0  0  0  0  0  0  0  0  0  0  0
    0.3256   -2.6177    0.4587 N   0  0  2  0  0  0  0  0  0  0  0  0
    0.1600   -1.1378    0.4278 C   0  0  1  0  0  0  0  0  0  0  0  0
   -0.4914   -0.6610    1.7780 C   0  0  0  0  0  0  0  0  0  0  0  0
    1.4681   -0.3740    0.1596 C   0  0  0  0  0  0  0  0  0  0  0  0
   -0.8701   -0.7420   -0.6422 C   0  0  0  0  0  0  0  0  0  0  0  0
    1.2679   -3.1203   -0.5437 C   0  0  0  0  0  0  0  0  0  0  0  0
   -1.7797   -0.0143    1.3638 C   0  0  0  0  0  0  0  0  0  0  0  0
   -1.9964   -0.0720   -0.0089 C   0  0  0  0  0  0  0  0  0  0  0  0
    2.6462   -1.0605   -0.1870 C   0  0  0  0  0  0  0  0  0  0  0  0
    2.6583   -2.5600   -0.2700 C   0  0  0  0  0  0  0  0  0  0  0  0
   -0.9142   -3.3976    0.4227 C   0  0  0  0  0  0  0  0  0  0  0  0
    1.5100    1.0331    0.2114 C   0  0  0  0  0  0  0  0  0  0  0  0
   -3.1294    0.4634   -0.5578 C   0  0  0  0  0  0  0  0  0  0  0  0
   -2.7194    0.5903    2.2007 C   0  0  0  0  0  0  0  0  0  0  0  0
    3.8350   -0.3515   -0.4204 C   0  0  0  0  0  0  0  0  0  0  0  0
   -4.0547    1.0597    0.2666 C   0  0  0  0  0  0  0  0  0  0  0  0
    2.6928    1.7316   -0.0366 C   0  0  0  0  0  0  0  0  0  0  0  0
   -3.8807    1.1396    1.6420 C   0  0  0  0  0  0  0  0  0  0  0  0
    3.8570    1.0388   -0.3469 C   0  0  0  0  0  0  0  0  0  0  0  0
   -4.7575    1.1825   -1.7773 C   0  0  0  0  0  0  0  0  0  0  0  0
    5.8631    1.9519    0.5454 C   0  0  0  0  0  0  0  0  0  0  0  0
    0.1366    0.0460    2.3314 H   0  0  0  0  0  0  0  0  0  0  0  0
   -0.7040   -1.4931    2.4593 H   0  0  0  0  0  0  0  0  0  0  0  0
    0.9415   -2.8699   -1.5607 H   0  0  0  0  0  0  0  0  0  0  0  0
    1.3367   -4.2143   -0.4918 H   0  0  0  0  0  0  0  0  0  0  0  0
    3.3311   -2.8868   -1.0721 H   0  0  0  0  0  0  0  0  0  0  0  0
    3.0485   -2.9594    0.6747 H   0  0  0  0  0  0  0  0  0  0  0  0
   -1.6273   -3.0801    1.1891 H   0  0  0  0  0  0  0  0  0  0  0  0
   -0.6995   -4.4516    0.6348 H   0  0  0  0  0  0  0  0  0  0  0  0
   -1.4114   -3.3514   -0.5524 H   0  0  0  0  0  0  0  0  0  0  0  0
    0.6129    1.6006    0.4482 H   0  0  0  0  0  0  0  0  0  0  0  0
   -2.5570    0.6356    3.2730 H   0  0  0  0  0  0  0  0  0  0  0  0
    4.7473   -0.8906   -0.6666 H   0  0  0  0  0  0  0  0  0  0  0  0
   -4.6239    1.6143    2.2736 H   0  0  0  0  0  0  0  0  0  0  0  0
   -5.5382    0.5333   -2.1903 H   0  0  0  0  0  0  0  0  0  0  0  0
   -4.7028    2.0954   -2.3815 H   0  0  0  0  0  0  0  0  0  0  0  0
    3.5799    3.4136   -0.2045 H   0  0  0  0  0  0  0  0  0  0  0  0
    6.2109    1.0076    0.9759 H   0  0  0  0  0  0  0  0  0  0  0  0
    5.3359    2.5386    1.3044 H   0  0  0  0  0  0  0  0  0  0  0  0
    6.7318    2.5216    0.2043 H   0  0  0  0  0  0  0  0  0  0  0  0
  1 10  2  0  0  0  0
  2 18  1  0  0  0  0
  2 25  1  0  0  0  0
  3 21  1  0  0  0  0
  3 25  1  0  0  0  0
  4 24  1  0  0  0  0
  4 26  1  0  0  0  0
  5 22  1  0  0  0  0
  5 42  1  0  0  0  0
  6  7  1  0  0  0  0
  6 11  1  0  0  0  0
  6 16  1  0  0  0  0
  7  8  1  0  0  0  0
  7  9  1  0  0  0  0
  7 10  1  0  0  0  0
  8 12  1  0  0  0  0
  8 27  1  0  0  0  0
  8 28  1  0  0  0  0
  9 14  1  0  0  0  0
  9 17  2  0  0  0  0
 10 13  1  0  0  0  0
 11 15  1  0  0  0  0
 11 29  1  0  0  0  0
 11 30  1  0  0  0  0
 12 13  2  0  0  0  0
 12 19  1  0  0  0  0
 13 18  1  0  0  0  0
 14 15  1  0  0  0  0
 14 20  2  0  0  0  0
 15 31  1  0  0  0  0
 15 32  1  0  0  0  0
 16 33  1  0  0  0  0
 16 34  1  0  0  0  0
 16 35  1  0  0  0  0
 17 22  1  0  0  0  0
 17 36  1  0  0  0  0
 18 21  2  0  0  0  0
 19 23  2  0  0  0  0
 19 37  1  0  0  0  0
 20 24  1  0  0  0  0
 20 38  1  0  0  0  0
 21 23  1  0  0  0  0
 22 24  2  0  0  0  0
 23 39  1  0  0  0  0
 25 40  1  0  0  0  0
 25 41  1  0  0  0  0
 26 43  1  0  0  0  0
 26 44  1  0  0  0  0
 26 45  1  0  0  0  0
M  END
> <PUBCHEM_COMPOUND_CID>
185623

> <PUBCHEM_CONFORMER_RMSD>
0.6

> <PUBCHEM_CONFORMER_DIVERSEORDER>
1
3
2

> <PUBCHEM_MMFF94_PARTIAL_CHARGES>
31
1 -0.57
10 0.42
11 0.27
12 -0.14
13 0.09
14 -0.14
15 0.14
16 0.27
17 -0.15
18 0.08
19 -0.15
2 -0.36
20 -0.15
21 0.08
22 0.08
23 -0.15
24 0.08
25 0.56
26 0.28
3 -0.36
36 0.15
37 0.15
38 0.15
39 0.15
4 -0.36
42 0.45
5 -0.53
6 -0.81
7 0.47
8 0.14
9 -0.14

> <PUBCHEM_EFFECTIVE_ROTOR_COUNT>
2.4

> <PUBCHEM_PHARMACOPHORE_FEATURES>
11
1 1 acceptor
1 2 acceptor
1 3 acceptor
1 4 acceptor
1 5 donor
1 6 cation
5 2 3 18 21 25 rings
5 7 8 10 12 13 rings
6 12 13 18 19 21 23 rings
6 6 7 9 11 14 15 rings
6 9 14 17 20 22 24 rings

> <PUBCHEM_HEAVY_ATOM_COUNT>
26

> <PUBCHEM_ATOM_DEF_STEREO_COUNT>
1

> <PUBCHEM_ATOM_UDEF_STEREO_COUNT>
0

> <PUBCHEM_BOND_DEF_STEREO_COUNT>
0

> <PUBCHEM_BOND_UDEF_STEREO_COUNT>
0

> <PUBCHEM_ISOTOPIC_ATOM_COUNT>
0

> <PUBCHEM_COMPONENT_COUNT>
1

> <PUBCHEM_CACTVS_TAUTO_COUNT>
3

> <PUBCHEM_CONFORMER_ID>
0002D51700000001

> <PUBCHEM_MMFF94_ENERGY>
92.7258

> <PUBCHEM_FEATURE_SELFOVERLAP>
56.07

> <PUBCHEM_SHAPE_FINGERPRINT>
10319926 262 16486970730478653008
10411042 1 17618502529174372798
105312 117 18342454799215522828
11582403 64 17488767647645674707
11640471 11 17821719559286377625
11725454 13 17632307799661390923
11796584 16 14129890530981996548
12236239 1 17604998189721912891
12403259 415 17987785419395840323
12730499 353 18271519892659987507
12788726 201 17973741185297088742
12969540 114 18413106169146832620
13009979 54 17025716155117220315
13134695 92 18125156297283199526
13140716 1 18410846664901037298
13402501 40 17988929997683638581
13583140 156 18342448262370613971
14142880 1 18126572223689232478
16752209 62 16371015143407844575
16945 1 18265606765811571571
17980427 23 16845282805638634415
17980427 26 17629505213437092439
1813 80 17393315933313431294
18219364 16 18341884160933135408
21033648 144 18411417323465497989
21033648 29 17560794481148921037
21033650 10 15430307066305012259
21475661 188 17847064397729458293
21756936 100 17749933501792040274
22122407 14 18047453811260849169
22907989 373 17762335821196970070
23227448 37 18338794498883489630
23559900 14 16485840513929769659
23566358 2 18260819371994047215
238 59 18340493360528791747
25 1 18410852170526227906
283562 15 17978230457018853346
335352 9 18410853279355836398
350125 39 18049993407788734898
474 4 18335983150767541154
495365 180 17988086719736211827
53917941 68 18188780422888419328
574716 61 18113903805343057909
6034566 193 18198048184729409180
633830 44 18042949055680035603
77492 1 17604994899935226387
8272917 22 18264765639632379799

> <PUBCHEM_SHAPE_MULTIPOLES>
500.74
9.76
3.12
1.55
1.73
1.96
-0.15
-8.8
1.63
2.75
0.03
-2.17
-0.23
0.43

> <PUBCHEM_SHAPE_SELFOVERLAP>
1131.694

> <PUBCHEM_SHAPE_VOLUME>
263.3

> <PUBCHEM_COORDINATE_TYPE>
2
5
10

$$$$

