21350393
  -OEChem-07051213092D

 23 24  0     1  0  0  0  0  0999 V2000
    6.3301    0.0600    0.0000 O   0  0  0  0  0  0  0  0  0  0  0  0
    3.7320   -1.4400    0.0000 O   0  0  0  0  0  0  0  0  0  0  0  0
    7.1962   -1.4400    0.0000 O   0  0  0  0  0  0  0  0  0  0  0  0
    5.4641   -1.4400    0.0000 N   0  0  0  0  0  0  0  0  0  0  0  0
    4.5981    0.0600    0.0000 C   0  0  3  0  0  0  0  0  0  0  0  0
    5.4641    0.5600    0.0000 C   0  0  0  0  0  0  0  0  0  0  0  0
    3.7320    0.5600    0.0000 C   0  0  0  0  0  0  0  0  0  0  0  0
    4.5981   -0.9400    0.0000 C   0  0  0  0  0  0  0  0  0  0  0  0
    3.7320    1.5600    0.0000 C   0  0  0  0  0  0  0  0  0  0  0  0
    2.8660    0.0600    0.0000 C   0  0  0  0  0  0  0  0  0  0  0  0
    6.3301   -0.9400    0.0000 C   0  0  0  0  0  0  0  0  0  0  0  0
    2.8660    2.0600    0.0000 C   0  0  0  0  0  0  0  0  0  0  0  0
    2.0000    0.5600    0.0000 C   0  0  0  0  0  0  0  0  0  0  0  0
    2.0000    1.5600    0.0000 C   0  0  0  0  0  0  0  0  0  0  0  0
    4.5981    0.6800    0.0000 H   0  0  0  0  0  0  0  0  0  0  0  0
    5.8626    1.0350    0.0000 H   0  0  0  0  0  0  0  0  0  0  0  0
    5.0656    1.0350    0.0000 H   0  0  0  0  0  0  0  0  0  0  0  0
    4.2690    1.8700    0.0000 H   0  0  0  0  0  0  0  0  0  0  0  0
    2.8660   -0.5600    0.0000 H   0  0  0  0  0  0  0  0  0  0  0  0
    5.4641   -2.0600    0.0000 H   0  0  0  0  0  0  0  0  0  0  0  0
    2.8660    2.6800    0.0000 H   0  0  0  0  0  0  0  0  0  0  0  0
    1.4631    0.2500    0.0000 H   0  0  0  0  0  0  0  0  0  0  0  0
    1.4631    1.8700    0.0000 H   0  0  0  0  0  0  0  0  0  0  0  0
  1  6  1  0  0  0  0
  1 11  1  0  0  0  0
  2  8  2  0  0  0  0
  3 11  2  0  0  0  0
  4  8  1  0  0  0  0
  4 11  1  0  0  0  0
  4 20  1  0  0  0  0
  5  6  1  0  0  0  0
  5  7  1  0  0  0  0
  5  8  1  0  0  0  0
  5 15  1  0  0  0  0
  6 16  1  0  0  0  0
  6 17  1  0  0  0  0
  7  9  2  0  0  0  0
  7 10  1  0  0  0  0
  9 12  1  0  0  0  0
  9 18  1  0  0  0  0
 10 13  2  0  0  0  0
 10 19  1  0  0  0  0
 12 14  2  0  0  0  0
 12 21  1  0  0  0  0
 13 14  1  0  0  0  0
 13 22  1  0  0  0  0
 14 23  1  0  0  0  0
M  END
> <PUBCHEM_COMPOUND_CID>
21350393

> <PUBCHEM_COMPOUND_CANONICALIZED>
1

> <PUBCHEM_CACTVS_COMPLEXITY>
246

> <PUBCHEM_CACTVS_HBOND_ACCEPTOR>
3

> <PUBCHEM_CACTVS_HBOND_DONOR>
1

> <PUBCHEM_CACTVS_ROTATABLE_BOND>
1

> <PUBCHEM_CACTVS_SUBSKEYS>
AAADccByMAAAAAAAAAAAAAAAAAAAAAAAAAA8QAAAAAAAAAABAAAAHgAQAAAADQChmAIwCILABACIAiFSGAACAAAgAAAIiAEAAIkIIDaAlRGMIAAm9CEIiAeYyOCOgAAAAAAAAAAAAAAAAAAAAAAAAAAAAA==

> <PUBCHEM_IUPAC_OPENEYE_NAME>
5-phenyl-1,3-oxazinane-2,4-dione

> <PUBCHEM_IUPAC_CAS_NAME>
5-phenyl-1,3-oxazinane-2,4-dione

> <PUBCHEM_IUPAC_NAME>
5-phenyl-1,3-oxazinane-2,4-dione

> <PUBCHEM_IUPAC_SYSTEMATIC_NAME>
5-phenyl-1,3-oxazinane-2,4-dione

> <PUBCHEM_IUPAC_TRADITIONAL_NAME>
5-phenyl-1,3-oxazinane-2,4-quinone

> <PUBCHEM_IUPAC_INCHI>
InChI=1S/C10H9NO3/c12-9-8(6-14-10(13)11-9)7-4-2-1-3-5-7/h1-5,8H,6H2,(H,11,12,13)

> <PUBCHEM_IUPAC_INCHIKEY>
YPIQXPKZXKWWSZ-UHFFFAOYSA-N

> <PUBCHEM_XLOGP3_AA>
1.1

> <PUBCHEM_EXACT_MASS>
191.058243

> <PUBCHEM_MOLECULAR_FORMULA>
C10H9NO3

> <PUBCHEM_MOLECULAR_WEIGHT>
191.18336

> <PUBCHEM_OPENEYE_CAN_SMILES>
C1C(C(=O)NC(=O)O1)C2=CC=CC=C2

> <PUBCHEM_OPENEYE_ISO_SMILES>
C1C(C(=O)NC(=O)O1)C2=CC=CC=C2

> <PUBCHEM_CACTVS_TPSA>
55.4

> <PUBCHEM_MONOISOTOPIC_WEIGHT>
191.058243

> <PUBCHEM_TOTAL_CHARGE>
0

> <PUBCHEM_HEAVY_ATOM_COUNT>
14

> <PUBCHEM_ATOM_DEF_STEREO_COUNT>
0

> <PUBCHEM_ATOM_UDEF_STEREO_COUNT>
1

> <PUBCHEM_BOND_DEF_STEREO_COUNT>
0

> <PUBCHEM_BOND_UDEF_STEREO_COUNT>
0

> <PUBCHEM_ISOTOPIC_ATOM_COUNT>
0

> <PUBCHEM_COMPONENT_COUNT>
1

> <PUBCHEM_CACTVS_TAUTO_COUNT>
5

> <PUBCHEM_COORDINATE_TYPE>
1
5
255

> <PUBCHEM_BONDANNOTATIONS>
10  13  8
12  14  8
13  14  8
5  7  3
7  10  8
7  9  8
9  12  8

$$$$

