442695
  -OEChem-07051212593D

 60 65  0     0  0  0  0  0  0999 V2000
    4.3272    1.3576    2.2493 O   0  0  0  0  0  0  0  0  0  0  0  0
   -0.1211    2.8329    1.9449 O   0  0  0  0  0  0  0  0  0  0  0  0
    0.0744    3.0144   -1.7089 O   0  0  0  0  0  0  0  0  0  0  0  0
   -4.3085    1.4742   -2.2173 O   0  0  0  0  0  0  0  0  0  0  0  0
    7.0194   -2.8437   -1.8045 O   0  0  0  0  0  0  0  0  0  0  0  0
   -6.8272   -3.3104    1.3527 O   0  0  0  0  0  0  0  0  0  0  0  0
    1.6919    0.4215   -0.1643 C   0  0  0  0  0  0  0  0  0  0  0  0
    1.4464   -0.4494   -1.3730 C   0  0  0  0  0  0  0  0  0  0  0  0
    2.9818    0.4642    0.4164 C   0  0  0  0  0  0  0  0  0  0  0  0
    2.2695   -1.7360   -1.3102 C   0  0  0  0  0  0  0  0  0  0  0  0
    0.6537    1.2223    0.3348 C   0  0  0  0  0  0  0  0  0  0  0  0
    4.0621   -0.3769   -0.1554 C   0  0  0  0  0  0  0  0  0  0  0  0
    3.7222   -1.4473   -1.0165 C   0  0  0  0  0  0  0  0  0  0  0  0
   -0.6647    1.2245   -0.2786 C   0  0  0  0  0  0  0  0  0  0  0  0
    3.1685    1.3033    1.5293 C   0  0  0  0  0  0  0  0  0  0  0  0
   -1.6782    0.3373    0.1297 C   0  0  0  0  0  0  0  0  0  0  0  0
    0.8707    2.0497    1.4321 C   0  0  0  0  0  0  0  0  0  0  0  0
   -2.9560    0.3619   -0.4879 C   0  0  0  0  0  0  0  0  0  0  0  0
    2.1248    2.0867    2.0310 C   0  0  0  0  0  0  0  0  0  0  0  0
    4.7161   -2.2785   -1.5545 C   0  0  0  0  0  0  0  0  0  0  0  0
    5.4265   -0.1568    0.1041 C   0  0  0  0  0  0  0  0  0  0  0  0
   -0.8935    2.1461   -1.2983 C   0  0  0  0  0  0  0  0  0  0  0  0
   -3.9686   -0.5606   -0.0441 C   0  0  0  0  0  0  0  0  0  0  0  0
   -3.1454    1.3147   -1.5202 C   0  0  0  0  0  0  0  0  0  0  0  0
   -1.4169   -0.5752    1.1550 C   0  0  0  0  0  0  0  0  0  0  0  0
   -3.6645   -1.4727    1.0002 C   0  0  0  0  0  0  0  0  0  0  0  0
   -2.1324    2.1912   -1.9186 C   0  0  0  0  0  0  0  0  0  0  0  0
    6.0577   -2.0417   -1.2726 C   0  0  0  0  0  0  0  0  0  0  0  0
    6.4124   -0.9796   -0.4485 C   0  0  0  0  0  0  0  0  0  0  0  0
   -2.3950   -1.4666    1.5835 C   0  0  0  0  0  0  0  0  0  0  0  0
   -5.2770   -0.6266   -0.5855 C   0  0  0  0  0  0  0  0  0  0  0  0
   -4.6307   -2.3858    1.4559 C   0  0  0  0  0  0  0  0  0  0  0  0
   -6.2284   -1.5396   -0.1228 C   0  0  0  0  0  0  0  0  0  0  0  0
   -5.9049   -2.4197    0.8982 C   0  0  0  0  0  0  0  0  0  0  0  0
    4.4427    0.4653    3.3542 C   0  0  0  0  0  0  0  0  0  0  0  0
   -5.2551    2.3991   -1.6895 C   0  0  0  0  0  0  0  0  0  0  0  0
    0.3998   -0.7476   -1.4812 H   0  0  0  0  0  0  0  0  0  0  0  0
    1.7179    0.1269   -2.2672 H   0  0  0  0  0  0  0  0  0  0  0  0
    2.1679   -2.2675   -2.2639 H   0  0  0  0  0  0  0  0  0  0  0  0
    1.8851   -2.3946   -0.5208 H   0  0  0  0  0  0  0  0  0  0  0  0
    2.2887    2.7224    2.8985 H   0  0  0  0  0  0  0  0  0  0  0  0
    4.4408   -3.1113   -2.1973 H   0  0  0  0  0  0  0  0  0  0  0  0
    5.7858    0.6826    0.6879 H   0  0  0  0  0  0  0  0  0  0  0  0
   -0.4558   -0.6349    1.6591 H   0  0  0  0  0  0  0  0  0  0  0  0
   -2.3110    2.9091   -2.7159 H   0  0  0  0  0  0  0  0  0  0  0  0
    7.4573   -0.7712   -0.2325 H   0  0  0  0  0  0  0  0  0  0  0  0
   -2.1489   -2.1610    2.3849 H   0  0  0  0  0  0  0  0  0  0  0  0
   -5.6198   -0.0392   -1.4213 H   0  0  0  0  0  0  0  0  0  0  0  0
   -4.3903   -3.0828    2.2576 H   0  0  0  0  0  0  0  0  0  0  0  0
   -0.9579    2.7083    1.4713 H   0  0  0  0  0  0  0  0  0  0  0  0
   -7.2138   -1.5584   -0.5811 H   0  0  0  0  0  0  0  0  0  0  0  0
    0.9073    2.8824   -1.2314 H   0  0  0  0  0  0  0  0  0  0  0  0
    4.2515   -0.5684    3.0482 H   0  0  0  0  0  0  0  0  0  0  0  0
    3.7485    0.7532    4.1499 H   0  0  0  0  0  0  0  0  0  0  0  0
    5.4629    0.5308    3.7420 H   0  0  0  0  0  0  0  0  0  0  0  0
    7.8908   -2.5334   -1.5036 H   0  0  0  0  0  0  0  0  0  0  0  0
   -6.2226    2.2171   -2.1660 H   0  0  0  0  0  0  0  0  0  0  0  0
   -4.9420    3.4208   -1.9271 H   0  0  0  0  0  0  0  0  0  0  0  0
   -5.3680    2.2976   -0.6050 H   0  0  0  0  0  0  0  0  0  0  0  0
   -7.6533   -3.1917    0.8530 H   0  0  0  0  0  0  0  0  0  0  0  0
  1 15  1  0  0  0  0
  1 35  1  0  0  0  0
  2 17  1  0  0  0  0
  2 50  1  0  0  0  0
  3 22  1  0  0  0  0
  3 52  1  0  0  0  0
  4 24  1  0  0  0  0
  4 36  1  0  0  0  0
  5 28  1  0  0  0  0
  5 56  1  0  0  0  0
  6 34  1  0  0  0  0
  6 60  1  0  0  0  0
  7  8  1  0  0  0  0
  7  9  1  0  0  0  0
  7 11  2  0  0  0  0
  8 10  1  0  0  0  0
  8 37  1  0  0  0  0
  8 38  1  0  0  0  0
  9 12  1  0  0  0  0
  9 15  2  0  0  0  0
 10 13  1  0  0  0  0
 10 39  1  0  0  0  0
 10 40  1  0  0  0  0
 11 14  1  0  0  0  0
 11 17  1  0  0  0  0
 12 13  2  0  0  0  0
 12 21  1  0  0  0  0
 13 20  1  0  0  0  0
 14 16  2  0  0  0  0
 14 22  1  0  0  0  0
 15 19  1  0  0  0  0
 16 18  1  0  0  0  0
 16 25  1  0  0  0  0
 17 19  2  0  0  0  0
 18 23  1  0  0  0  0
 18 24  2  0  0  0  0
 19 41  1  0  0  0  0
 20 28  2  0  0  0  0
 20 42  1  0  0  0  0
 21 29  2  0  0  0  0
 21 43  1  0  0  0  0
 22 27  2  0  0  0  0
 23 26  2  0  0  0  0
 23 31  1  0  0  0  0
 24 27  1  0  0  0  0
 25 30  2  0  0  0  0
 25 44  1  0  0  0  0
 26 30  1  0  0  0  0
 26 32  1  0  0  0  0
 27 45  1  0  0  0  0
 28 29  1  0  0  0  0
 29 46  1  0  0  0  0
 30 47  1  0  0  0  0
 31 33  2  0  0  0  0
 31 48  1  0  0  0  0
 32 34  2  0  0  0  0
 32 49  1  0  0  0  0
 33 34  1  0  0  0  0
 33 51  1  0  0  0  0
 35 53  1  0  0  0  0
 35 54  1  0  0  0  0
 35 55  1  0  0  0  0
 36 57  1  0  0  0  0
 36 58  1  0  0  0  0
 36 59  1  0  0  0  0
M  END
> <PUBCHEM_COMPOUND_CID>
442695

> <PUBCHEM_CONFORMER_RMSD>
0.8

> <PUBCHEM_CONFORMER_DIVERSEORDER>
2
1

> <PUBCHEM_MMFF94_PARTIAL_CHARGES>
42
1 -0.36
10 0.14
13 -0.14
15 0.08
17 0.08
19 -0.15
2 -0.53
20 -0.15
21 -0.15
22 0.08
24 0.08
25 -0.15
27 -0.15
28 0.08
29 -0.15
3 -0.53
30 -0.15
31 -0.15
32 -0.15
33 -0.15
34 0.08
35 0.28
36 0.28
4 -0.36
41 0.15
42 0.15
43 0.15
44 0.15
45 0.15
46 0.15
47 0.15
48 0.15
49 0.15
5 -0.53
50 0.45
51 0.15
52 0.45
56 0.45
6 -0.53
60 0.45
7 -0.14
8 0.14

> <PUBCHEM_EFFECTIVE_ROTOR_COUNT>
3.4

> <PUBCHEM_PHARMACOPHORE_FEATURES>
12
1 1 acceptor
1 2 donor
1 3 donor
1 4 acceptor
1 5 donor
1 6 donor
6 12 13 20 21 28 29 rings
6 14 16 18 22 24 27 rings
6 16 18 23 25 26 30 rings
6 23 26 31 32 33 34 rings
6 7 8 9 10 12 13 rings
6 7 9 11 15 17 19 rings

> <PUBCHEM_HEAVY_ATOM_COUNT>
36

> <PUBCHEM_ATOM_DEF_STEREO_COUNT>
0

> <PUBCHEM_ATOM_UDEF_STEREO_COUNT>
0

> <PUBCHEM_BOND_DEF_STEREO_COUNT>
0

> <PUBCHEM_BOND_UDEF_STEREO_COUNT>
0

> <PUBCHEM_ISOTOPIC_ATOM_COUNT>
0

> <PUBCHEM_COMPONENT_COUNT>
1

> <PUBCHEM_CACTVS_TAUTO_COUNT>
982

> <PUBCHEM_CONFORMER_ID>
0006C14700000002

> <PUBCHEM_MMFF94_ENERGY>
162.2859

> <PUBCHEM_FEATURE_SELFOVERLAP>
60.986

> <PUBCHEM_SHAPE_FINGERPRINT>
10076449 9 18187071846644467222
11227688 84 17389371934160804798
11796584 16 18272093854761921122
12128747 34 17823689949197026729
12236239 1 15502672476290942380
12342043 65 18338511925033487427
12422481 6 18116149970455660383
12616971 3 16081087069356914051
12788726 201 17275107253537571889
13402501 40 18410005533382607062
13673619 4 18409437085870468686
13782708 43 18410296891200157691
13947920 75 17203606025426092404
14040221 97 18192992618076441932
14117953 113 17988658363858468471
14294032 229 17273986916642221429
14790565 3 17480027831939051957
14950920 106 17022617550993046387
15131766 46 16518517738194906233
15183329 4 16056879117548642415
15324884 4 18193585357010710852
15361156 5 18335710463552933901
15419008 47 18410852161656724957
15484559 13 14601056071242176507
15629462 23 17895480345056843281
17980427 23 14779269687485252441
19246450 95 16227156201597183755
20511986 3 15984829250699445948
21033648 29 18335997414306341368
21033650 10 17703503402078828233
23559900 14 18271528684268359500
244849 19 18260844686757883377
25269216 80 17560786736858701791
3004659 81 17418092070788054695
437815 12 18335697239405936515
46194498 28 18270963436523356308
484989 97 18409160044149736670
508706 21 18272656727553916319
563151 74 17242458209227930314
6009941 240 18116145748376045417
6608658 132 16128378224398829269
6700243 42 18058730346426653910
6823239 73 18272937098143698728
86090 222 18334287648457272746

> <PUBCHEM_SHAPE_MULTIPOLES>
705.65
15.89
3.36
2.45
0.88
0.14
-0.96
14.09
1.75
-2.04
0.31
1.53
-0.84
6.31

> <PUBCHEM_SHAPE_SELFOVERLAP>
1612.59

> <PUBCHEM_SHAPE_VOLUME>
365.8

> <PUBCHEM_COORDINATE_TYPE>
2
5
10

$$$$

