66067
  -OEChem-07051213032D

 31 31  0     1  0  0  0  0  0999 V2000
    3.7320    1.5000    0.0000 P   0  0  3  0  0  0  0  0  0  0  0  0
    2.8660    1.0000    0.0000 O   0  0  0  0  0  0  0  0  0  0  0  0
    4.5981    2.0000    0.0000 O   0  0  0  0  0  0  0  0  0  0  0  0
    4.2320    0.6340    0.0000 O   0  0  0  0  0  0  0  0  0  0  0  0
    2.0000   -3.5000    0.0000 O   0  5  0  0  0  0  0  0  0  0  0  0
    3.7320   -3.5000    0.0000 O   0  0  0  0  0  0  0  0  0  0  0  0
    2.8660   -3.0000    0.0000 N   0  3  0  0  0  0  0  0  0  0  0  0
    3.2320    2.3660    0.0000 C   0  0  0  0  0  0  0  0  0  0  0  0
    2.2320    2.3660    0.0000 C   0  0  0  0  0  0  0  0  0  0  0  0
    2.8660    0.0000    0.0000 C   0  0  0  0  0  0  0  0  0  0  0  0
    4.5981    3.0000    0.0000 C   0  0  0  0  0  0  0  0  0  0  0  0
    2.0000   -0.5000    0.0000 C   0  0  0  0  0  0  0  0  0  0  0  0
    3.7320   -0.5000    0.0000 C   0  0  0  0  0  0  0  0  0  0  0  0
    5.4641    3.5000    0.0000 C   0  0  0  0  0  0  0  0  0  0  0  0
    2.8660   -2.0000    0.0000 C   0  0  0  0  0  0  0  0  0  0  0  0
    2.0000   -1.5000    0.0000 C   0  0  0  0  0  0  0  0  0  0  0  0
    3.7320   -1.5000    0.0000 C   0  0  0  0  0  0  0  0  0  0  0  0
    3.8147    2.5781    0.0000 H   0  0  0  0  0  0  0  0  0  0  0  0
    3.1244    2.9766    0.0000 H   0  0  0  0  0  0  0  0  0  0  0  0
    2.2320    2.9860    0.0000 H   0  0  0  0  0  0  0  0  0  0  0  0
    1.6120    2.3660    0.0000 H   0  0  0  0  0  0  0  0  0  0  0  0
    2.2320    1.7460    0.0000 H   0  0  0  0  0  0  0  0  0  0  0  0
    4.3860    3.5826    0.0000 H   0  0  0  0  0  0  0  0  0  0  0  0
    3.9875    2.8923    0.0000 H   0  0  0  0  0  0  0  0  0  0  0  0
    1.4631   -0.1900    0.0000 H   0  0  0  0  0  0  0  0  0  0  0  0
    4.2690   -0.1900    0.0000 H   0  0  0  0  0  0  0  0  0  0  0  0
    5.7741    2.9631    0.0000 H   0  0  0  0  0  0  0  0  0  0  0  0
    6.0010    3.8100    0.0000 H   0  0  0  0  0  0  0  0  0  0  0  0
    5.1541    4.0369    0.0000 H   0  0  0  0  0  0  0  0  0  0  0  0
    1.4631   -1.8100    0.0000 H   0  0  0  0  0  0  0  0  0  0  0  0
    4.2690   -1.8100    0.0000 H   0  0  0  0  0  0  0  0  0  0  0  0
  1  2  1  0  0  0  0
  1  3  1  0  0  0  0
  1  4  2  0  0  0  0
  1  8  1  0  0  0  0
  2 10  1  0  0  0  0
  3 11  1  0  0  0  0
  5  7  1  0  0  0  0
  6  7  2  0  0  0  0
  7 15  1  0  0  0  0
  8  9  1  0  0  0  0
  8 18  1  0  0  0  0
  8 19  1  0  0  0  0
  9 20  1  0  0  0  0
  9 21  1  0  0  0  0
  9 22  1  0  0  0  0
 10 12  2  0  0  0  0
 10 13  1  0  0  0  0
 11 14  1  0  0  0  0
 11 23  1  0  0  0  0
 11 24  1  0  0  0  0
 12 16  1  0  0  0  0
 12 25  1  0  0  0  0
 13 17  2  0  0  0  0
 13 26  1  0  0  0  0
 14 27  1  0  0  0  0
 14 28  1  0  0  0  0
 14 29  1  0  0  0  0
 15 16  2  0  0  0  0
 15 17  1  0  0  0  0
 16 30  1  0  0  0  0
 17 31  1  0  0  0  0
M  CHG  2   5  -1   7   1
M  END
> <PUBCHEM_COMPOUND_CID>
66067

> <PUBCHEM_COMPOUND_CANONICALIZED>
1

> <PUBCHEM_CACTVS_COMPLEXITY>
296

> <PUBCHEM_CACTVS_HBOND_ACCEPTOR>
5

> <PUBCHEM_CACTVS_HBOND_DONOR>
0

> <PUBCHEM_CACTVS_ROTATABLE_BOND>
5

> <PUBCHEM_CACTVS_SUBSKEYS>
AAADccByOAIAAAAAAAAAAAAAAAAAAAAAAAAwAAAAAAAAAAABAAAAHggEACAACAypkAIyxoAQQRCBQCRCQ4CCAAAgIgAoiAAGbIoIJiKAkZOAMABkwBEIyAewQAAAAEAAAAAAAAAAgAAAAAAAAAAAAAAAAA==

> <PUBCHEM_IUPAC_OPENEYE_NAME>
1-[ethoxy(ethyl)phosphoryl]oxy-4-nitro-benzene

> <PUBCHEM_IUPAC_CAS_NAME>
1-[ethoxy(ethyl)phosphoryl]oxy-4-nitrobenzene

> <PUBCHEM_IUPAC_NAME>
1-[ethoxy(ethyl)phosphoryl]oxy-4-nitrobenzene

> <PUBCHEM_IUPAC_SYSTEMATIC_NAME>
1-[ethoxy(ethyl)phosphoryl]oxy-4-nitro-benzene

> <PUBCHEM_IUPAC_TRADITIONAL_NAME>
1-[ethoxy(ethyl)phosphoryl]oxy-4-nitro-benzene

> <PUBCHEM_IUPAC_INCHI>
InChI=1S/C10H14NO5P/c1-3-15-17(14,4-2)16-10-7-5-9(6-8-10)11(12)13/h5-8H,3-4H2,1-2H3

> <PUBCHEM_IUPAC_INCHIKEY>
XXUJMEYKYHETBZ-UHFFFAOYSA-N

> <PUBCHEM_XLOGP3>
1.7

> <PUBCHEM_EXACT_MASS>
259.060959

> <PUBCHEM_MOLECULAR_FORMULA>
C10H14NO5P

> <PUBCHEM_MOLECULAR_WEIGHT>
259.195622

> <PUBCHEM_OPENEYE_CAN_SMILES>
CCOP(=O)(CC)OC1=CC=C(C=C1)[N+](=O)[O-]

> <PUBCHEM_OPENEYE_ISO_SMILES>
CCOP(=O)(CC)OC1=CC=C(C=C1)[N+](=O)[O-]

> <PUBCHEM_CACTVS_TPSA>
81.4

> <PUBCHEM_MONOISOTOPIC_WEIGHT>
259.060959

> <PUBCHEM_TOTAL_CHARGE>
0

> <PUBCHEM_HEAVY_ATOM_COUNT>
17

> <PUBCHEM_ATOM_DEF_STEREO_COUNT>
0

> <PUBCHEM_ATOM_UDEF_STEREO_COUNT>
1

> <PUBCHEM_BOND_DEF_STEREO_COUNT>
0

> <PUBCHEM_BOND_UDEF_STEREO_COUNT>
0

> <PUBCHEM_ISOTOPIC_ATOM_COUNT>
0

> <PUBCHEM_COMPONENT_COUNT>
1

> <PUBCHEM_CACTVS_TAUTO_COUNT>
1

> <PUBCHEM_COORDINATE_TYPE>
1
5
255

> <PUBCHEM_BONDANNOTATIONS>
1  8  3
10  12  8
10  13  8
12  16  8
13  17  8
15  16  8
15  17  8

$$$$

