18170
  -OEChem-07051212473D

 17 17  0     0  0  0  0  0  0999 V2000
    1.9931   -0.0604    0.9209 S   0  0  0  0  0  0  0  0  0  0  0  0
    4.5726    0.0476   -0.2853 N   0  0  0  0  0  0  0  0  0  0  0  0
   -0.4766   -0.0136   -0.3078 C   0  0  0  0  0  0  0  0  0  0  0  0
    0.9870   -0.0360   -0.5941 C   0  0  0  0  0  0  0  0  0  0  0  0
   -1.1412    1.2048   -0.1675 C   0  0  0  0  0  0  0  0  0  0  0  0
   -1.1809   -1.2110   -0.1807 C   0  0  0  0  0  0  0  0  0  0  0  0
   -2.5100    1.2260    0.1000 C   0  0  0  0  0  0  0  0  0  0  0  0
   -2.5498   -1.1897    0.0867 C   0  0  0  0  0  0  0  0  0  0  0  0
   -3.2143    0.0287    0.2271 C   0  0  0  0  0  0  0  0  0  0  0  0
    3.5201    0.0036    0.2007 C   0  0  0  0  0  0  0  0  0  0  0  0
    1.2355   -0.9136   -1.2034 H   0  0  0  0  0  0  0  0  0  0  0  0
    1.2602    0.8407   -1.1944 H   0  0  0  0  0  0  0  0  0  0  0  0
   -0.6044    2.1449   -0.2632 H   0  0  0  0  0  0  0  0  0  0  0  0
   -0.6753   -2.1671   -0.2868 H   0  0  0  0  0  0  0  0  0  0  0  0
   -3.0275    2.1745    0.2096 H   0  0  0  0  0  0  0  0  0  0  0  0
   -3.0984   -2.1218    0.1861 H   0  0  0  0  0  0  0  0  0  0  0  0
   -4.2800    0.0452    0.4354 H   0  0  0  0  0  0  0  0  0  0  0  0
  1  4  1  0  0  0  0
  1 10  1  0  0  0  0
  2 10  3  0  0  0  0
  3  4  1  0  0  0  0
  3  5  2  0  0  0  0
  3  6  1  0  0  0  0
  4 11  1  0  0  0  0
  4 12  1  0  0  0  0
  5  7  1  0  0  0  0
  5 13  1  0  0  0  0
  6  8  2  0  0  0  0
  6 14  1  0  0  0  0
  7  9  2  0  0  0  0
  7 15  1  0  0  0  0
  8  9  1  0  0  0  0
  8 16  1  0  0  0  0
  9 17  1  0  0  0  0
M  END
> <PUBCHEM_COMPOUND_CID>
18170

> <PUBCHEM_CONFORMER_RMSD>
0.4

> <PUBCHEM_CONFORMER_DIVERSEORDER>
1
8
7
6
5
2
3
4

> <PUBCHEM_MMFF94_PARTIAL_CHARGES>
15
1 -0.27
10 0.59
13 0.15
14 0.15
15 0.15
16 0.15
17 0.15
2 -0.56
3 -0.14
4 0.37
5 -0.15
6 -0.15
7 -0.15
8 -0.15
9 -0.15

> <PUBCHEM_EFFECTIVE_ROTOR_COUNT>
2

> <PUBCHEM_PHARMACOPHORE_FEATURES>
2
1 2 acceptor
6 3 5 6 7 8 9 rings

> <PUBCHEM_HEAVY_ATOM_COUNT>
10

> <PUBCHEM_ATOM_DEF_STEREO_COUNT>
0

> <PUBCHEM_ATOM_UDEF_STEREO_COUNT>
0

> <PUBCHEM_BOND_DEF_STEREO_COUNT>
0

> <PUBCHEM_BOND_UDEF_STEREO_COUNT>
0

> <PUBCHEM_ISOTOPIC_ATOM_COUNT>
0

> <PUBCHEM_COMPONENT_COUNT>
1

> <PUBCHEM_CACTVS_TAUTO_COUNT>
1

> <PUBCHEM_CONFORMER_ID>
000046FA00000001

> <PUBCHEM_MMFF94_ENERGY>
17.3449

> <PUBCHEM_FEATURE_SELFOVERLAP>
10.148

> <PUBCHEM_SHAPE_FINGERPRINT>
10857977 72 18335145263046431721
11062470 55 13758077402436865098
12932764 1 17676783014897941554
13024252 1 15123511423913078117
14325111 11 18410576218872100658
15219456 202 17895748616427905606
15775835 57 18342458187570153520
190213 19 17917993880162797630
20645464 45 17821441365907228799
20871998 184 18261108522319733599
23402539 116 18187936066878211591
369184 2 18410582790203653675
6333449 129 18260270750282899735
75552 356 18412545392457392883

> <PUBCHEM_SHAPE_MULTIPOLES>
204.66
6.64
1.21
0.79
7.08
0.01
0.08
0.09
0.27
-1.06
-0.01
0.23
-0.01
-0.03

> <PUBCHEM_SHAPE_SELFOVERLAP>
403.665

> <PUBCHEM_SHAPE_VOLUME>
120.8

> <PUBCHEM_COORDINATE_TYPE>
2
5
10

$$$$

