11954031
  -OEChem-07051213053D

 37 39  0     1  0  0  0  0  0999 V2000
   -5.6307   -0.1829    0.1228 O   0  0  0  0  0  0  0  0  0  0  0  0
    0.7774   -1.4553    0.0230 C   0  0  2  0  0  0  0  0  0  0  0  0
   -0.0256   -0.1582    0.0932 C   0  0  0  0  0  0  0  0  0  0  0  0
    2.1824   -0.9194    0.0808 C   0  0  0  0  0  0  0  0  0  0  0  0
    0.7626    0.9344    0.1948 C   0  0  0  0  0  0  0  0  0  0  0  0
    2.1549    0.4781    0.1792 C   0  0  0  0  0  0  0  0  0  0  0  0
    0.3932    2.3697    0.3080 C   0  0  0  0  0  0  0  0  0  0  0  0
    0.5152   -2.2538   -1.2508 C   0  0  0  0  0  0  0  0  0  0  0  0
   -1.4735   -0.1646    0.1007 C   0  0  0  0  0  0  0  0  0  0  0  0
    3.3802   -1.6172    0.0610 C   0  0  0  0  0  0  0  0  0  0  0  0
    3.3353    1.2036    0.2494 C   0  0  0  0  0  0  0  0  0  0  0  0
    0.2802    3.0048   -1.0649 C   0  0  0  0  0  0  0  0  0  0  0  0
    4.5699   -0.8908    0.1310 C   0  0  0  0  0  0  0  0  0  0  0  0
    4.5477    0.5090    0.2231 C   0  0  0  0  0  0  0  0  0  0  0  0
   -2.1844   -0.0511   -1.0978 C   0  0  0  0  0  0  0  0  0  0  0  0
   -2.1704   -0.2839    1.3067 C   0  0  0  0  0  0  0  0  0  0  0  0
   -3.5792   -0.0568   -1.0903 C   0  0  0  0  0  0  0  0  0  0  0  0
   -3.5653   -0.2895    1.3143 C   0  0  0  0  0  0  0  0  0  0  0  0
   -4.2697   -0.1759    0.1158 C   0  0  0  0  0  0  0  0  0  0  0  0
    0.5809   -2.0667    0.9120 H   0  0  0  0  0  0  0  0  0  0  0  0
   -0.5687    2.4723    0.8245 H   0  0  0  0  0  0  0  0  0  0  0  0
    1.1155    2.9187    0.9222 H   0  0  0  0  0  0  0  0  0  0  0  0
    0.6831   -1.6516   -2.1516 H   0  0  0  0  0  0  0  0  0  0  0  0
    1.1769   -3.1249   -1.3106 H   0  0  0  0  0  0  0  0  0  0  0  0
   -0.5149   -2.6244   -1.2788 H   0  0  0  0  0  0  0  0  0  0  0  0
    3.3999   -2.6994   -0.0065 H   0  0  0  0  0  0  0  0  0  0  0  0
    3.3368    2.2860    0.3217 H   0  0  0  0  0  0  0  0  0  0  0  0
   -0.0019    4.0584   -0.9684 H   0  0  0  0  0  0  0  0  0  0  0  0
   -0.4812    2.5123   -1.6783 H   0  0  0  0  0  0  0  0  0  0  0  0
    1.2317    2.9631   -1.6059 H   0  0  0  0  0  0  0  0  0  0  0  0
    5.5228   -1.4130    0.1152 H   0  0  0  0  0  0  0  0  0  0  0  0
    5.4841    1.0579    0.2765 H   0  0  0  0  0  0  0  0  0  0  0  0
   -1.6624    0.0431   -2.0473 H   0  0  0  0  0  0  0  0  0  0  0  0
   -1.6366   -0.3736    2.2501 H   0  0  0  0  0  0  0  0  0  0  0  0
   -4.1162    0.0323   -2.0309 H   0  0  0  0  0  0  0  0  0  0  0  0
   -4.0975   -0.3829    2.2570 H   0  0  0  0  0  0  0  0  0  0  0  0
   -5.9509   -0.0956   -0.7915 H   0  0  0  0  0  0  0  0  0  0  0  0
  1 19  1  0  0  0  0
  1 37  1  0  0  0  0
  2  3  1  0  0  0  0
  2  4  1  0  0  0  0
  2  8  1  0  0  0  0
  2 20  1  0  0  0  0
  3  5  2  0  0  0  0
  3  9  1  0  0  0  0
  4  6  1  0  0  0  0
  4 10  2  0  0  0  0
  5  6  1  0  0  0  0
  5  7  1  0  0  0  0
  6 11  2  0  0  0  0
  7 12  1  0  0  0  0
  7 21  1  0  0  0  0
  7 22  1  0  0  0  0
  8 23  1  0  0  0  0
  8 24  1  0  0  0  0
  8 25  1  0  0  0  0
  9 15  2  0  0  0  0
  9 16  1  0  0  0  0
 10 13  1  0  0  0  0
 10 26  1  0  0  0  0
 11 14  1  0  0  0  0
 11 27  1  0  0  0  0
 12 28  1  0  0  0  0
 12 29  1  0  0  0  0
 12 30  1  0  0  0  0
 13 14  2  0  0  0  0
 13 31  1  0  0  0  0
 14 32  1  0  0  0  0
 15 17  1  0  0  0  0
 15 33  1  0  0  0  0
 16 18  2  0  0  0  0
 16 34  1  0  0  0  0
 17 19  2  0  0  0  0
 17 35  1  0  0  0  0
 18 19  1  0  0  0  0
 18 36  1  0  0  0  0
M  END
> <PUBCHEM_COMPOUND_CID>
11954031

> <PUBCHEM_CONFORMER_RMSD>
0.6

> <PUBCHEM_CONFORMER_DIVERSEORDER>
1
2

> <PUBCHEM_MMFF94_PARTIAL_CHARGES>
26
1 -0.53
10 -0.15
11 -0.15
13 -0.15
14 -0.15
15 -0.15
16 -0.15
17 -0.15
18 -0.15
19 0.08
2 0.28
26 0.15
27 0.15
3 -0.17
31 0.15
32 0.15
33 0.15
34 0.15
35 0.15
36 0.15
37 0.45
4 -0.14
5 -0.17
6 0.03
7 0.14
9 0.03

> <PUBCHEM_EFFECTIVE_ROTOR_COUNT>
2.2

> <PUBCHEM_PHARMACOPHORE_FEATURES>
5
1 1 donor
1 12 hydrophobe
5 2 3 4 5 6 rings
6 4 6 10 11 13 14 rings
6 9 15 16 17 18 19 rings

> <PUBCHEM_HEAVY_ATOM_COUNT>
19

> <PUBCHEM_ATOM_DEF_STEREO_COUNT>
1

> <PUBCHEM_ATOM_UDEF_STEREO_COUNT>
0

> <PUBCHEM_BOND_DEF_STEREO_COUNT>
0

> <PUBCHEM_BOND_UDEF_STEREO_COUNT>
0

> <PUBCHEM_ISOTOPIC_ATOM_COUNT>
0

> <PUBCHEM_COMPONENT_COUNT>
1

> <PUBCHEM_CACTVS_TAUTO_COUNT>
2

> <PUBCHEM_CONFORMER_ID>
00B6676F00000001

> <PUBCHEM_MMFF94_ENERGY>
55.7138

> <PUBCHEM_FEATURE_SELFOVERLAP>
25.455

> <PUBCHEM_SHAPE_FINGERPRINT>
104564 63 18265332983226873796
10688039 33 18060419153042507901
10906281 52 18269251586938999409
11471102 20 18410575076431847074
11578080 2 12893686303228372335
12236239 1 17530965782864389067
13134695 92 18412829062067914133
13140716 1 18193283996993867378
14170010 4 18411420579736679281
14386348 63 18060416919659013571
15309172 13 18334294257968225118
15848702 151 17386277817913204238
16945 1 18335140873911615024
17357779 13 18341907310870521861
1813 80 18262785363356239244
18785283 64 17843673362093375549
200 152 18186805781667406107
20600515 1 17560784568242693263
20645477 70 18410577326842307470
20739085 24 18337934779722776048
21267235 1 18336540599284620038
21421861 104 17769654535558360923
21641784 216 17987500650274913668
22182313 1 18191880122550942612
23175994 123 18201997737733230573
23184049 59 18335137574981086226
23402539 116 18410300241232073799
23493267 7 17703238424103059120
23557571 272 17346317154291066559
23559900 14 17274824705304483282
26918003 58 18060701697607973866
2748010 2 17974856369945258062
3060560 45 18187363220666291982
34797466 226 16702006587520804702
34934 24 18339930303670556730
350125 39 17762051043205649120
4340502 62 14273455886018695742
465052 167 18411414029611197330
537710 114 18411132520369375524
7495541 125 17774432785786130883
77492 1 17530965774147801939
81228 2 17982434198966431873

> <PUBCHEM_SHAPE_MULTIPOLES>
385.14
8.79
2.17
1.09
3.81
1.22
0.06
-1.6
-1.11
-1.47
0.69
0.82
-0.05
0.2

> <PUBCHEM_SHAPE_SELFOVERLAP>
845.964

> <PUBCHEM_SHAPE_VOLUME>
211.9

> <PUBCHEM_COORDINATE_TYPE>
2
5
10

$$$$

