441710
  -OEChem-07051212552D

100106  0     1  0  0  0  0  0999 V2000
    3.4806    1.6143    0.0000 O   0  0  0  0  0  0  0  0  0  0  0  0
    3.0393    2.4524    0.0000 O   0  0  0  0  0  0  0  0  0  0  0  0
    4.5569    1.2836    0.0000 O   0  0  0  0  0  0  0  0  0  0  0  0
    6.3796    5.0454    0.0000 O   0  0  0  0  0  0  0  0  0  0  0  0
    2.6627    4.6195    0.0000 O   0  0  0  0  0  0  0  0  0  0  0  0
    2.2619    5.5033    0.0000 O   0  0  0  0  0  0  0  0  0  0  0  0
    7.2456    0.8102    0.0000 O   0  0  0  0  0  0  0  0  0  0  0  0
    6.3796   -0.6898    0.0000 O   0  0  0  0  0  0  0  0  0  0  0  0
    8.1116   -3.6898    0.0000 O   0  0  0  0  0  0  0  0  0  0  0  0
    4.6475   -4.6898    0.0000 O   0  0  0  0  0  0  0  0  0  0  0  0
    7.5749    3.2163    0.0000 N   0  0  3  0  0  0  0  0  0  0  0  0
    7.2456   -2.1898    0.0000 N   0  0  0  0  0  0  0  0  0  0  0  0
    5.5135   -6.1898    0.0000 N   0  0  0  0  0  0  0  0  0  0  0  0
    5.6282    3.6116    0.0000 C   0  0  2  0  0  0  0  0  0  0  0  0
    5.6282    2.7440    0.0000 C   0  0  2  0  0  0  0  0  0  0  0  0
    6.6302    3.5055    0.0000 C   0  0  3  0  0  0  0  0  0  0  0  0
    4.9499    4.1525    0.0000 C   0  0  1  0  0  0  0  0  0  0  0  0
    4.1041    2.3961    0.0000 C   0  0  2  0  0  0  0  0  0  0  0  0
    4.1041    3.9594    0.0000 C   0  0  1  0  0  0  0  0  0  0  0  0
    3.7277    3.1778    0.0000 C   0  0  1  0  0  0  0  0  0  0  0  0
    4.9499    2.2031    0.0000 C   0  0  2  0  0  0  0  0  0  0  0  0
    6.3796    2.3102    0.0000 C   0  0  2  0  0  0  0  0  0  0  0  0
    6.3796    4.0454    0.0000 C   0  0  2  0  0  0  0  0  0  0  0  0
    5.0277    5.0166    0.0000 C   0  0  0  0  0  0  0  0  0  0  0  0
    4.2299    5.3576    0.0000 C   0  0  1  0  0  0  0  0  0  0  0  0
    3.6591    4.7042    0.0000 C   0  0  2  0  0  0  0  0  0  0  0  0
    3.0828    3.4477    0.0000 C   0  0  0  0  0  0  0  0  0  0  0  0
    7.5749    2.4644    0.0000 C   0  0  0  0  0  0  0  0  0  0  0  0
    7.1309    2.7440    0.0000 C   0  0  0  0  0  0  0  0  0  0  0  0
    3.0828    4.9322    0.0000 C   0  0  2  0  0  0  0  0  0  0  0  0
    7.1309    3.6116    0.0000 C   0  0  0  0  0  0  0  0  0  0  0  0
    6.3796    1.3102    0.0000 C   0  0  0  0  0  0  0  0  0  0  0  0
    8.3788    3.8110    0.0000 C   0  0  0  0  0  0  0  0  0  0  0  0
    5.1567    0.4834    0.0000 C   0  0  0  0  0  0  0  0  0  0  0  0
    9.2958    3.4121    0.0000 C   0  0  0  0  0  0  0  0  0  0  0  0
    7.2456    5.5454    0.0000 C   0  0  0  0  0  0  0  0  0  0  0  0
    2.2378    3.7143    0.0000 C   0  0  0  0  0  0  0  0  0  0  0  0
    2.3461    6.4998    0.0000 C   0  0  0  0  0  0  0  0  0  0  0  0
    7.2456   -0.1898    0.0000 C   0  0  0  0  0  0  0  0  0  0  0  0
    8.1116   -0.6898    0.0000 C   0  0  0  0  0  0  0  0  0  0  0  0
    8.1116   -1.6898    0.0000 C   0  0  0  0  0  0  0  0  0  0  0  0
    8.9776   -0.1898    0.0000 C   0  0  0  0  0  0  0  0  0  0  0  0
    8.9776   -2.1898    0.0000 C   0  0  0  0  0  0  0  0  0  0  0  0
    9.8437   -0.6898    0.0000 C   0  0  0  0  0  0  0  0  0  0  0  0
    9.8437   -1.6898    0.0000 C   0  0  0  0  0  0  0  0  0  0  0  0
    7.2456   -3.1898    0.0000 C   0  0  0  0  0  0  0  0  0  0  0  0
    6.3796   -3.6898    0.0000 C   0  0  0  0  0  0  0  0  0  0  0  0
    6.3796   -4.6898    0.0000 C   0  0  0  0  0  0  0  0  0  0  0  0
    5.5135   -5.1898    0.0000 C   0  0  0  0  0  0  0  0  0  0  0  0
    5.6917    1.8964    0.0000 H   0  0  0  0  0  0  0  0  0  0  0  0
    6.7541    4.1130    0.0000 H   0  0  0  0  0  0  0  0  0  0  0  0
    5.7315    4.4866    0.0000 H   0  0  0  0  0  0  0  0  0  0  0  0
    3.2549    3.9213    0.0000 H   0  0  0  0  0  0  0  0  0  0  0  0
    5.1503    1.6164    0.0000 H   0  0  0  0  0  0  0  0  0  0  0  0
    5.8426    4.3554    0.0000 H   0  0  0  0  0  0  0  0  0  0  0  0
    5.2104    5.6090    0.0000 H   0  0  0  0  0  0  0  0  0  0  0  0
    5.6360    4.8968    0.0000 H   0  0  0  0  0  0  0  0  0  0  0  0
    4.2507    6.2073    0.0000 H   0  0  0  0  0  0  0  0  0  0  0  0
    3.3790    5.2573    0.0000 H   0  0  0  0  0  0  0  0  0  0  0  0
    2.9208    2.8492    0.0000 H   0  0  0  0  0  0  0  0  0  0  0  0
    2.4682    3.5294    0.0000 H   0  0  0  0  0  0  0  0  0  0  0  0
    8.1943    2.4910    0.0000 H   0  0  0  0  0  0  0  0  0  0  0  0
    7.6279    1.8467    0.0000 H   0  0  0  0  0  0  0  0  0  0  0  0
    7.7415    2.8516    0.0000 H   0  0  0  0  0  0  0  0  0  0  0  0
    7.3430    2.1614    0.0000 H   0  0  0  0  0  0  0  0  0  0  0  0
    3.1609    5.5473    0.0000 H   0  0  0  0  0  0  0  0  0  0  0  0
    7.3430    4.1942    0.0000 H   0  0  0  0  0  0  0  0  0  0  0  0
    7.7415    3.5039    0.0000 H   0  0  0  0  0  0  0  0  0  0  0  0
    6.1675    0.7276    0.0000 H   0  0  0  0  0  0  0  0  0  0  0  0
    5.7690    1.4179    0.0000 H   0  0  0  0  0  0  0  0  0  0  0  0
    3.7071    1.0372    0.0000 H   0  0  0  0  0  0  0  0  0  0  0  0
    2.4365    2.5971    0.0000 H   0  0  0  0  0  0  0  0  0  0  0  0
    7.9292    4.2379    0.0000 H   0  0  0  0  0  0  0  0  0  0  0  0
    8.7212    4.3280    0.0000 H   0  0  0  0  0  0  0  0  0  0  0  0
    5.6528    0.8553    0.0000 H   0  0  0  0  0  0  0  0  0  0  0  0
    5.5286   -0.0127    0.0000 H   0  0  0  0  0  0  0  0  0  0  0  0
    4.6606    0.1115    0.0000 H   0  0  0  0  0  0  0  0  0  0  0  0
    9.5432    3.9806    0.0000 H   0  0  0  0  0  0  0  0  0  0  0  0
    9.8644    3.1648    0.0000 H   0  0  0  0  0  0  0  0  0  0  0  0
    9.0485    2.8436    0.0000 H   0  0  0  0  0  0  0  0  0  0  0  0
    6.9356    6.0823    0.0000 H   0  0  0  0  0  0  0  0  0  0  0  0
    7.7825    5.8554    0.0000 H   0  0  0  0  0  0  0  0  0  0  0  0
    7.5556    5.0084    0.0000 H   0  0  0  0  0  0  0  0  0  0  0  0
    2.7991    3.4509    0.0000 H   0  0  0  0  0  0  0  0  0  0  0  0
    1.9744    3.1530    0.0000 H   0  0  0  0  0  0  0  0  0  0  0  0
    1.6766    3.9777    0.0000 H   0  0  0  0  0  0  0  0  0  0  0  0
    1.7283    6.5520    0.0000 H   0  0  0  0  0  0  0  0  0  0  0  0
    2.3982    7.1176    0.0000 H   0  0  0  0  0  0  0  0  0  0  0  0
    2.9639    6.4476    0.0000 H   0  0  0  0  0  0  0  0  0  0  0  0
    8.9776    0.4302    0.0000 H   0  0  0  0  0  0  0  0  0  0  0  0
    8.9776   -2.8098    0.0000 H   0  0  0  0  0  0  0  0  0  0  0  0
   10.3806   -0.3798    0.0000 H   0  0  0  0  0  0  0  0  0  0  0  0
    6.7086   -1.8798    0.0000 H   0  0  0  0  0  0  0  0  0  0  0  0
   10.3806   -1.9998    0.0000 H   0  0  0  0  0  0  0  0  0  0  0  0
    5.7690   -3.7974    0.0000 H   0  0  0  0  0  0  0  0  0  0  0  0
    6.1675   -3.1072    0.0000 H   0  0  0  0  0  0  0  0  0  0  0  0
    6.9901   -4.5821    0.0000 H   0  0  0  0  0  0  0  0  0  0  0  0
    6.5916   -5.2724    0.0000 H   0  0  0  0  0  0  0  0  0  0  0  0
    4.9766   -6.4998    0.0000 H   0  0  0  0  0  0  0  0  0  0  0  0
    6.0505   -6.4998    0.0000 H   0  0  0  0  0  0  0  0  0  0  0  0
 18  1  1  1  0  0  0
  1 71  1  0  0  0  0
 20  2  1  6  0  0  0
  2 72  1  0  0  0  0
 21  3  1  1  0  0  0
  3 34  1  0  0  0  0
 23  4  1  1  0  0  0
  4 36  1  0  0  0  0
 26  5  1  1  0  0  0
  5 37  1  0  0  0  0
 30  6  1  6  0  0  0
  6 38  1  0  0  0  0
  7 32  1  0  0  0  0
  7 39  1  0  0  0  0
  8 39  2  0  0  0  0
  9 46  2  0  0  0  0
 10 49  2  0  0  0  0
 11 16  1  0  0  0  0
 11 28  1  0  0  0  0
 11 33  1  0  0  0  0
 12 41  1  0  0  0  0
 12 46  1  0  0  0  0
 12 93  1  0  0  0  0
 13 49  1  0  0  0  0
 13 99  1  0  0  0  0
 13100  1  0  0  0  0
 14 15  1  0  0  0  0
 14 16  1  0  0  0  0
 14 17  1  0  0  0  0
 14 23  1  6  0  0  0
 15 21  1  0  0  0  0
 15 22  1  0  0  0  0
 15 50  1  6  0  0  0
 16 18  1  0  0  0  0
 16 51  1  0  0  0  0
 17 19  1  0  0  0  0
 17 24  1  0  0  0  0
 17 52  1  6  0  0  0
 18 20  1  0  0  0  0
 18 21  1  0  0  0  0
 19 20  1  0  0  0  0
 19 26  1  0  0  0  0
 19 53  1  6  0  0  0
 20 27  1  0  0  0  0
 21 54  1  0  0  0  0
 22 28  1  0  0  0  0
 22 29  1  0  0  0  0
 22 32  1  6  0  0  0
 23 31  1  0  0  0  0
 23 55  1  0  0  0  0
 24 25  1  0  0  0  0
 24 56  1  0  0  0  0
 24 57  1  0  0  0  0
 25 26  1  0  0  0  0
 25 30  1  0  0  0  0
 25 58  1  6  0  0  0
 26 59  1  0  0  0  0
 27 30  1  0  0  0  0
 27 60  1  0  0  0  0
 27 61  1  0  0  0  0
 28 62  1  0  0  0  0
 28 63  1  0  0  0  0
 29 31  1  0  0  0  0
 29 64  1  0  0  0  0
 29 65  1  0  0  0  0
 30 66  1  0  0  0  0
 31 67  1  0  0  0  0
 31 68  1  0  0  0  0
 32 69  1  0  0  0  0
 32 70  1  0  0  0  0
 33 35  1  0  0  0  0
 33 73  1  0  0  0  0
 33 74  1  0  0  0  0
 34 75  1  0  0  0  0
 34 76  1  0  0  0  0
 34 77  1  0  0  0  0
 35 78  1  0  0  0  0
 35 79  1  0  0  0  0
 35 80  1  0  0  0  0
 36 81  1  0  0  0  0
 36 82  1  0  0  0  0
 36 83  1  0  0  0  0
 37 84  1  0  0  0  0
 37 85  1  0  0  0  0
 37 86  1  0  0  0  0
 38 87  1  0  0  0  0
 38 88  1  0  0  0  0
 38 89  1  0  0  0  0
 39 40  1  0  0  0  0
 40 41  1  0  0  0  0
 40 42  2  0  0  0  0
 41 43  2  0  0  0  0
 42 44  1  0  0  0  0
 42 90  1  0  0  0  0
 43 45  1  0  0  0  0
 43 91  1  0  0  0  0
 44 45  2  0  0  0  0
 44 92  1  0  0  0  0
 45 94  1  0  0  0  0
 46 47  1  0  0  0  0
 47 48  1  0  0  0  0
 47 95  1  0  0  0  0
 47 96  1  0  0  0  0
 48 49  1  0  0  0  0
 48 97  1  0  0  0  0
 48 98  1  0  0  0  0
M  END
> <PUBCHEM_COMPOUND_CID>
441710

> <PUBCHEM_COMPOUND_CANONICALIZED>
1

> <PUBCHEM_CACTVS_COMPLEXITY>
1320

> <PUBCHEM_CACTVS_HBOND_ACCEPTOR>
11

> <PUBCHEM_CACTVS_HBOND_DONOR>
4

> <PUBCHEM_CACTVS_ROTATABLE_BOND>
13

> <PUBCHEM_CACTVS_SUBSKEYS>
AAADcfB/PAAAAAAAAAAAAAAAAAAAAYMAAAA8YMGCB4gWAGABAAAAHgAQCAAAD3zhmAYyyIPABgCIAiXSWACCAAAlAgAIiAEIbMgLJjrAtZmGcYhn1AHb6cf9+P+PgAAAAAACAADQAAaUADSgAaEADSgAAA==

> <PUBCHEM_IUPAC_INCHI>
InChI=1S/C36H51N3O10/c1-6-39-17-33(18-49-31(42)19-9-7-8-10-22(19)38-26(41)12-11-25(37)40)14-13-24(46-3)35-21-15-20-23(45-2)16-34(43,27(21)28(20)47-4)36(44,32(35)39)30(48-5)29(33)35/h7-10,20-21,23-24,27-30,32,43-44H,6,11-18H2,1-5H3,(H2,37,40)(H,38,41)/t20-,21-,23+,24+,27-,28+,29-,30-,32?,33+,34-,35+,36-/m1/s1

> <PUBCHEM_IUPAC_INCHIKEY>
ZBALYAJAWGGUCX-OVHFASGNSA-N

> <PUBCHEM_XLOGP3_AA>
0.2

> <PUBCHEM_EXACT_MASS>
685.357445

> <PUBCHEM_MOLECULAR_FORMULA>
C36H51N3O10

> <PUBCHEM_MOLECULAR_WEIGHT>
685.80424

> <PUBCHEM_OPENEYE_CAN_SMILES>
CCN1CC2(CCC(C34C2C(C(C31)(C5(CC(C6CC4C5C6OC)OC)O)O)OC)OC)COC(=O)C7=CC=CC=C7NC(=O)CCC(=O)N

> <PUBCHEM_OPENEYE_ISO_SMILES>
CCN1C[C@@]2(CC[C@@H]([C@@]34[C@@H]2[C@H]([C@@](C31)([C@]5(C[C@@H]([C@H]6C[C@@H]4[C@@H]5[C@H]6OC)OC)O)O)OC)OC)COC(=O)C7=CC=CC=C7NC(=O)CCC(=O)N

> <PUBCHEM_CACTVS_TPSA>
179

> <PUBCHEM_MONOISOTOPIC_WEIGHT>
685.357445

> <PUBCHEM_TOTAL_CHARGE>
0

> <PUBCHEM_HEAVY_ATOM_COUNT>
49

> <PUBCHEM_ATOM_DEF_STEREO_COUNT>
12

> <PUBCHEM_ATOM_UDEF_STEREO_COUNT>
1

> <PUBCHEM_BOND_DEF_STEREO_COUNT>
0

> <PUBCHEM_BOND_UDEF_STEREO_COUNT>
0

> <PUBCHEM_ISOTOPIC_ATOM_COUNT>
0

> <PUBCHEM_COMPONENT_COUNT>
1

> <PUBCHEM_CACTVS_TAUTO_COUNT>
27

> <PUBCHEM_COORDINATE_TYPE>
1
5
255

> <PUBCHEM_BONDANNOTATIONS>
18  1  5
16  11  3
14  23  6
15  50  6
17  52  6
19  53  6
20  2  6
22  32  6
25  58  6
21  3  5
23  4  5
40  41  8
40  42  8
41  43  8
42  44  8
43  45  8
44  45  8
26  5  5
30  6  6

$$$$

