97627
  -OEChem-07051213012D

 31 33  0     1  0  0  0  0  0999 V2000
    4.4026    0.8919    0.0000 O   0  0  0  0  0  0  0  0  0  0  0  0
    6.7485   -0.2000    0.0000 O   0  0  0  0  0  0  0  0  0  0  0  0
    6.7523    1.9756    0.0000 O   0  0  0  0  0  0  0  0  0  0  0  0
    5.3548    3.3934    0.0000 O   0  0  0  0  0  0  0  0  0  0  0  0
    3.7066    2.8611    0.0000 O   0  0  0  0  0  0  0  0  0  0  0  0
    4.6783   -0.8687    0.0000 N   0  0  0  0  0  0  0  0  0  0  0  0
    4.6783   -2.4782    0.0000 N   0  0  0  0  0  0  0  0  0  0  0  0
    2.8660   -0.6734    0.0000 N   0  0  0  0  0  0  0  0  0  0  0  0
    2.0000   -2.1734    0.0000 N   0  0  0  0  0  0  0  0  0  0  0  0
    2.8660   -3.6734    0.0000 N   0  0  0  0  0  0  0  0  0  0  0  0
    5.9405    0.3892    0.0000 C   0  0  1  0  0  0  0  0  0  0  0  0
    4.9889    0.0818    0.0000 C   0  0  1  0  0  0  0  0  0  0  0  0
    5.9422    1.3892    0.0000 C   0  0  1  0  0  0  0  0  0  0  0  0
    4.9917    1.6999    0.0000 C   0  0  1  0  0  0  0  0  0  0  0  0
    3.7320   -1.1734    0.0000 C   0  0  0  0  0  0  0  0  0  0  0  0
    4.6844    2.6514    0.0000 C   0  0  0  0  0  0  0  0  0  0  0  0
    5.2619   -1.6734    0.0000 C   0  0  0  0  0  0  0  0  0  0  0  0
    3.7320   -2.1734    0.0000 C   0  0  0  0  0  0  0  0  0  0  0  0
    2.8660   -2.6734    0.0000 C   0  0  0  0  0  0  0  0  0  0  0  0
    2.0000   -1.1734    0.0000 C   0  0  0  0  0  0  0  0  0  0  0  0
    5.4266   -0.3573    0.0000 H   0  0  0  0  0  0  0  0  0  0  0  0
    6.4934    0.6697    0.0000 H   0  0  0  0  0  0  0  0  0  0  0  0
    6.4942    1.1068    0.0000 H   0  0  0  0  0  0  0  0  0  0  0  0
    4.3795    1.7979    0.0000 H   0  0  0  0  0  0  0  0  0  0  0  0
    7.3154    0.0512    0.0000 H   0  0  0  0  0  0  0  0  0  0  0  0
    5.8819   -1.6734    0.0000 H   0  0  0  0  0  0  0  0  0  0  0  0
    7.3182    1.7224    0.0000 H   0  0  0  0  0  0  0  0  0  0  0  0
    5.1642    3.9834    0.0000 H   0  0  0  0  0  0  0  0  0  0  0  0
    1.4631   -0.8634    0.0000 H   0  0  0  0  0  0  0  0  0  0  0  0
    2.3291   -3.9834    0.0000 H   0  0  0  0  0  0  0  0  0  0  0  0
    3.4030   -3.9834    0.0000 H   0  0  0  0  0  0  0  0  0  0  0  0
  1 12  1  0  0  0  0
  1 14  1  0  0  0  0
 11  2  1  1  0  0  0
  2 25  1  0  0  0  0
 13  3  1  1  0  0  0
  3 27  1  0  0  0  0
  4 16  1  0  0  0  0
  4 28  1  0  0  0  0
  5 16  2  0  0  0  0
 12  6  1  6  0  0  0
  6 15  1  0  0  0  0
  6 17  1  0  0  0  0
  7 17  2  0  0  0  0
  7 18  1  0  0  0  0
  8 15  1  0  0  0  0
  8 20  2  0  0  0  0
  9 19  2  0  0  0  0
  9 20  1  0  0  0  0
 10 19  1  0  0  0  0
 10 30  1  0  0  0  0
 10 31  1  0  0  0  0
 11 12  1  0  0  0  0
 11 13  1  0  0  0  0
 11 22  1  0  0  0  0
 12 21  1  0  0  0  0
 13 14  1  0  0  0  0
 13 23  1  0  0  0  0
 14 16  1  6  0  0  0
 14 24  1  0  0  0  0
 15 18  2  0  0  0  0
 17 26  1  0  0  0  0
 18 19  1  0  0  0  0
 20 29  1  0  0  0  0
M  END
> <PUBCHEM_COMPOUND_CID>
97627

> <PUBCHEM_COMPOUND_CANONICALIZED>
1

> <PUBCHEM_CACTVS_COMPLEXITY>
398

> <PUBCHEM_CACTVS_HBOND_ACCEPTOR>
9

> <PUBCHEM_CACTVS_HBOND_DONOR>
4

> <PUBCHEM_CACTVS_ROTATABLE_BOND>
2

> <PUBCHEM_CACTVS_SUBSKEYS>
AAADccBzuAAAAAAAAAAAAAAAAAAAAWJAAAAsAAAAAAAAAFgB+AAAHgAQCAAACBzhlwYF+L9MFgCoAQbxbAKAgC0REKABUCFoVBCDWBZAyEQeRAgPIALTACD6NQIAAAAAAAAAAAAAAAAAAAAAAAAAAAAAAA==

> <PUBCHEM_IUPAC_OPENEYE_NAME>
(2S,3S,4R,5R)-5-(6-aminopurin-9-yl)-3,4-dihydroxy-tetrahydrofuran-2-carboxylic acid

> <PUBCHEM_IUPAC_CAS_NAME>
(2S,3S,4R,5R)-5-(6-aminopurin-9-yl)-3,4-dihydroxy-2-oxolanecarboxylic acid

> <PUBCHEM_IUPAC_NAME>
(2S,3S,4R,5R)-5-(6-aminopurin-9-yl)-3,4-dihydroxyoxolane-2-carboxylic acid

> <PUBCHEM_IUPAC_SYSTEMATIC_NAME>
(2S,3S,4R,5R)-5-(6-aminopurin-9-yl)-3,4-bis(oxidanyl)oxolane-2-carboxylic acid

> <PUBCHEM_IUPAC_TRADITIONAL_NAME>
(2S,3S,4R,5R)-5-adenin-9-yl-3,4-dihydroxy-tetrahydrofuran-2-carboxylic acid

> <PUBCHEM_IUPAC_INCHI>
InChI=1S/C10H11N5O5/c11-7-3-8(13-1-12-7)15(2-14-3)9-5(17)4(16)6(20-9)10(18)19/h1-2,4-6,9,16-17H,(H,18,19)(H2,11,12,13)/t4-,5+,6-,9+/m0/s1

> <PUBCHEM_IUPAC_INCHIKEY>
IBYWUFHJUDTSOC-SOVPELCUSA-N

> <PUBCHEM_XLOGP3>
-0.8

> <PUBCHEM_EXACT_MASS>
281.076018

> <PUBCHEM_MOLECULAR_FORMULA>
C10H11N5O5

> <PUBCHEM_MOLECULAR_WEIGHT>
281.22484

> <PUBCHEM_OPENEYE_CAN_SMILES>
C1=NC2=C(C(=N1)N)N=CN2C3C(C(C(O3)C(=O)O)O)O

> <PUBCHEM_OPENEYE_ISO_SMILES>
C1=NC2=C(C(=N1)N)N=CN2[C@H]3[C@@H]([C@@H]([C@H](O3)C(=O)O)O)O

> <PUBCHEM_CACTVS_TPSA>
157

> <PUBCHEM_MONOISOTOPIC_WEIGHT>
281.076018

> <PUBCHEM_TOTAL_CHARGE>
0

> <PUBCHEM_HEAVY_ATOM_COUNT>
20

> <PUBCHEM_ATOM_DEF_STEREO_COUNT>
4

> <PUBCHEM_ATOM_UDEF_STEREO_COUNT>
0

> <PUBCHEM_BOND_DEF_STEREO_COUNT>
0

> <PUBCHEM_BOND_UDEF_STEREO_COUNT>
0

> <PUBCHEM_ISOTOPIC_ATOM_COUNT>
0

> <PUBCHEM_COMPONENT_COUNT>
1

> <PUBCHEM_CACTVS_TAUTO_COUNT>
3

> <PUBCHEM_COORDINATE_TYPE>
1
5
255

> <PUBCHEM_BONDANNOTATIONS>
14  16  6
15  18  8
18  19  8
11  2  5
13  3  5
12  6  6
6  15  8
6  17  8
7  17  8
7  18  8
8  15  8
8  20  8
9  19  8
9  20  8

$$$$

