5281623
  -OEChem-07051212583D

 30 32  0     0  0  0  0  0  0999 V2000
   -0.1168    1.4478    0.0008 O   0  0  0  0  0  0  0  0  0  0  0  0
    4.5826    0.8175   -0.0007 O   0  0  0  0  0  0  0  0  0  0  0  0
    1.7943   -3.0233    0.0002 O   0  0  0  0  0  0  0  0  0  0  0  0
   -0.7840   -2.5892    0.0014 O   0  0  0  0  0  0  0  0  0  0  0  0
   -3.3649   -2.1708   -0.0010 O   0  0  0  0  0  0  0  0  0  0  0  0
   -2.1680    3.2169    0.0002 O   0  0  0  0  0  0  0  0  0  0  0  0
    0.7761   -0.8252    0.0001 C   0  0  0  0  0  0  0  0  0  0  0  0
   -1.6934   -0.4172   -0.0002 C   0  0  0  0  0  0  0  0  0  0  0  0
    0.9314    0.5607    0.0006 C   0  0  0  0  0  0  0  0  0  0  0  0
   -1.3947    0.9450    0.0004 C   0  0  0  0  0  0  0  0  0  0  0  0
   -0.5846   -1.3837   -0.0002 C   0  0  0  0  0  0  0  0  0  0  0  0
    1.8932   -1.6648   -0.0002 C   0  0  0  0  0  0  0  0  0  0  0  0
   -3.0212   -0.8529   -0.0008 C   0  0  0  0  0  0  0  0  0  0  0  0
    2.2142    1.1123    0.0007 C   0  0  0  0  0  0  0  0  0  0  0  0
   -2.4319    1.8799    0.0004 C   0  0  0  0  0  0  0  0  0  0  0  0
    3.3327    0.2780    0.0003 C   0  0  0  0  0  0  0  0  0  0  0  0
    3.1722   -1.1078   -0.0001 C   0  0  0  0  0  0  0  0  0  0  0  0
   -4.0530    0.0859   -0.0007 C   0  0  0  0  0  0  0  0  0  0  0  0
   -3.7593    1.4497   -0.0001 C   0  0  0  0  0  0  0  0  0  0  0  0
    4.6751    2.2412   -0.0012 C   0  0  0  0  0  0  0  0  0  0  0  0
    2.2781    2.1957    0.0009 H   0  0  0  0  0  0  0  0  0  0  0  0
    4.0530   -1.7456   -0.0004 H   0  0  0  0  0  0  0  0  0  0  0  0
   -5.0906   -0.2378   -0.0012 H   0  0  0  0  0  0  0  0  0  0  0  0
   -4.5758    2.1671   -0.0002 H   0  0  0  0  0  0  0  0  0  0  0  0
    2.6850   -3.4137    0.0001 H   0  0  0  0  0  0  0  0  0  0  0  0
   -2.5721   -2.7287   -0.0018 H   0  0  0  0  0  0  0  0  0  0  0  0
   -3.0083    3.7067    0.0001 H   0  0  0  0  0  0  0  0  0  0  0  0
    4.2448    2.6732    0.9087 H   0  0  0  0  0  0  0  0  0  0  0  0
    4.2434    2.6725   -0.9108 H   0  0  0  0  0  0  0  0  0  0  0  0
    5.7401    2.4955   -0.0021 H   0  0  0  0  0  0  0  0  0  0  0  0
  1  9  1  0  0  0  0
  1 10  1  0  0  0  0
  2 16  1  0  0  0  0
  2 20  1  0  0  0  0
  3 12  1  0  0  0  0
  3 25  1  0  0  0  0
  4 11  2  0  0  0  0
  5 13  1  0  0  0  0
  5 26  1  0  0  0  0
  6 15  1  0  0  0  0
  6 27  1  0  0  0  0
  7  9  1  0  0  0  0
  7 11  1  0  0  0  0
  7 12  2  0  0  0  0
  8 10  1  0  0  0  0
  8 11  1  0  0  0  0
  8 13  2  0  0  0  0
  9 14  2  0  0  0  0
 10 15  2  0  0  0  0
 12 17  1  0  0  0  0
 13 18  1  0  0  0  0
 14 16  1  0  0  0  0
 14 21  1  0  0  0  0
 15 19  1  0  0  0  0
 16 17  2  0  0  0  0
 17 22  1  0  0  0  0
 18 19  2  0  0  0  0
 18 23  1  0  0  0  0
 19 24  1  0  0  0  0
 20 28  1  0  0  0  0
 20 29  1  0  0  0  0
 20 30  1  0  0  0  0
M  END
> <PUBCHEM_COMPOUND_CID>
5281623

> <PUBCHEM_CONFORMER_RMSD>
0.6

> <PUBCHEM_CONFORMER_DIVERSEORDER>
1

> <PUBCHEM_MMFF94_PARTIAL_CHARGES>
27
1 -0.17
10 0.08
11 0.4
12 0.08
13 0.08
14 -0.15
15 0.08
16 0.08
17 -0.15
18 -0.15
19 -0.15
2 -0.36
20 0.28
21 0.15
22 0.15
23 0.15
24 0.15
25 0.45
26 0.45
27 0.45
3 -0.53
4 -0.57
5 -0.53
6 -0.53
7 0.09
8 0.09
9 0.08

> <PUBCHEM_EFFECTIVE_ROTOR_COUNT>
1

> <PUBCHEM_PHARMACOPHORE_FEATURES>
9
1 1 acceptor
1 2 acceptor
1 3 donor
1 4 acceptor
1 5 donor
1 6 donor
6 1 7 8 9 10 11 rings
6 7 9 12 14 16 17 rings
6 8 10 13 15 18 19 rings

> <PUBCHEM_HEAVY_ATOM_COUNT>
20

> <PUBCHEM_ATOM_DEF_STEREO_COUNT>
0

> <PUBCHEM_ATOM_UDEF_STEREO_COUNT>
0

> <PUBCHEM_BOND_DEF_STEREO_COUNT>
0

> <PUBCHEM_BOND_UDEF_STEREO_COUNT>
0

> <PUBCHEM_ISOTOPIC_ATOM_COUNT>
0

> <PUBCHEM_COMPONENT_COUNT>
1

> <PUBCHEM_CACTVS_TAUTO_COUNT>
40

> <PUBCHEM_CONFORMER_ID>
0050975700000001

> <PUBCHEM_MMFF94_ENERGY>
71.2577

> <PUBCHEM_FEATURE_SELFOVERLAP>
45.726

> <PUBCHEM_SHAPE_FINGERPRINT>
10411042 1 17041480515324809582
10498660 4 18411700984575514836
10608611 8 18338518650303478036
10616163 171 18410291393552140199
10670039 82 18271794680705558492
10967382 1 18338797934836084357
12173636 292 18410857697938330085
12390115 104 18189315966165609784
13140716 1 17979347556447152371
138480 1 17762338419721378978
14223421 5 18410853299912800607
14790565 3 18338224951950745433
15196674 1 18410573985209674790
15442244 35 18122627429123844634
15536298 74 18335420218257629158
16087824 20 18264772061664230511
16945 1 18410573950860433959
17492 89 18339643438067797771
18186145 218 18116426136314144528
19591789 44 18049721810983636185
20510252 161 18334573529563370793
21267235 1 18338508750393564594
21501502 16 18338520849331936939
221490 88 18339070601109755730
2334 1 18338517546544154339
23366157 5 18058727043676436866
23402539 116 18336272227793921127
23463225 33 18268430307434475759
23558518 356 18272926150334981715
23559900 14 18262520433042088110
238 59 16762013770399596877
2748010 2 18339076115720721615
335352 9 17689999354921917759
34934 24 18410580578459169431
350125 39 18339357599282137428
474 4 17703783683465996404
5104073 3 18412262852270771466
7097593 13 17626682831144063754
7364860 26 18263925608733574318
7808743 9 17977390439410852592
9709674 26 18336824302853660750
9981440 41 18342179921387986434

> <PUBCHEM_SHAPE_MULTIPOLES>
376.37
7.86
3.03
0.59
3.17
0.21
0
-3.21
0
-0.12
0
0
-0.01
0

> <PUBCHEM_SHAPE_SELFOVERLAP>
849.18

> <PUBCHEM_SHAPE_VOLUME>
197

> <PUBCHEM_COORDINATE_TYPE>
2
5
10

$$$$

