9830
  -OEChem-06261204063D

 19 19  0     0  0  0  0  0  0999 V2000
    5.1616   -0.2852   -0.0004 Cl  0  0  0  0  0  0  0  0  0  0  0  0
   -3.0161    1.4962   -0.0015 F   0  0  0  0  0  0  0  0  0  0  0  0
   -3.7873   -0.2296   -1.0896 F   0  0  0  0  0  0  0  0  0  0  0  0
   -3.7907   -0.2237    1.0896 F   0  0  0  0  0  0  0  0  0  0  0  0
   -1.5526   -1.6943   -0.0013 O   0  0  0  0  0  0  0  0  0  0  0  0
   -0.6918    0.4999    0.0000 N   0  0  0  0  0  0  0  0  0  0  0  0
    0.6909    0.3144    0.0004 C   0  0  0  0  0  0  0  0  0  0  0  0
    1.5426    1.4189   -0.0009 C   0  0  0  0  0  0  0  0  0  0  0  0
    1.2215   -0.9757    0.0017 C   0  0  0  0  0  0  0  0  0  0  0  0
   -1.6959   -0.4763    0.0012 C   0  0  0  0  0  0  0  0  0  0  0  0
    2.9251    1.2335   -0.0011 C   0  0  0  0  0  0  0  0  0  0  0  0
    2.6040   -1.1612    0.0016 C   0  0  0  0  0  0  0  0  0  0  0  0
    3.4559   -0.0565    0.0002 C   0  0  0  0  0  0  0  0  0  0  0  0
   -3.0671    0.1397    0.0003 C   0  0  0  0  0  0  0  0  0  0  0  0
   -0.9999    1.4701   -0.0004 H   0  0  0  0  0  0  0  0  0  0  0  0
    1.1428    2.4299   -0.0021 H   0  0  0  0  0  0  0  0  0  0  0  0
    0.6264   -1.8782    0.0030 H   0  0  0  0  0  0  0  0  0  0  0  0
    3.5768    2.1035   -0.0023 H   0  0  0  0  0  0  0  0  0  0  0  0
    3.0048   -2.1718    0.0025 H   0  0  0  0  0  0  0  0  0  0  0  0
  1 13  1  0  0  0  0
  2 14  1  0  0  0  0
  3 14  1  0  0  0  0
  4 14  1  0  0  0  0
  5 10  2  0  0  0  0
  6  7  1  0  0  0  0
  6 10  1  0  0  0  0
  6 15  1  0  0  0  0
  7  8  2  0  0  0  0
  7  9  1  0  0  0  0
  8 11  1  0  0  0  0
  8 16  1  0  0  0  0
  9 12  2  0  0  0  0
  9 17  1  0  0  0  0
 10 14  1  0  0  0  0
 11 13  2  0  0  0  0
 11 18  1  0  0  0  0
 12 13  1  0  0  0  0
 12 19  1  0  0  0  0
M  END
> <PUBCHEM_COMPOUND_CID>
9830

> <PUBCHEM_CONFORMER_RMSD>
0.6

> <PUBCHEM_CONFORMER_DIVERSEORDER>
1
2

> <PUBCHEM_MMFF94_PARTIAL_CHARGES>
19
1 -0.18
10 0.57
11 -0.15
12 -0.15
13 0.18
14 1.08
15 0.37
16 0.15
17 0.15
18 0.15
19 0.15
2 -0.34
3 -0.34
4 -0.34
5 -0.57
6 -0.55
7 0.12
8 -0.15
9 -0.15

> <PUBCHEM_EFFECTIVE_ROTOR_COUNT>
3

> <PUBCHEM_PHARMACOPHORE_FEATURES>
3
1 5 acceptor
1 6 donor
6 7 8 9 11 12 13 rings

> <PUBCHEM_HEAVY_ATOM_COUNT>
14

> <PUBCHEM_ATOM_DEF_STEREO_COUNT>
0

> <PUBCHEM_ATOM_UDEF_STEREO_COUNT>
0

> <PUBCHEM_BOND_DEF_STEREO_COUNT>
0

> <PUBCHEM_BOND_UDEF_STEREO_COUNT>
0

> <PUBCHEM_ISOTOPIC_ATOM_COUNT>
0

> <PUBCHEM_COMPONENT_COUNT>
1

> <PUBCHEM_CACTVS_TAUTO_COUNT>
2

> <PUBCHEM_CONFORMER_ID>
0000266600000001

> <PUBCHEM_MMFF94_ENERGY>
29.9074

> <PUBCHEM_FEATURE_SELFOVERLAP>
15.223

> <PUBCHEM_SHAPE_FINGERPRINT>
10130415 120 18335140890790894992
10608611 8 18411704265930665164
11062470 55 17967532380667864578
11132069 177 18410301281067638770
11401426 45 18409735049933296018
11471102 20 18411141325131226268
12251169 10 18410854352137473162
124424 183 18272936020270009066
13380535 76 18409730655570381214
13922767 16 18333735702256769816
14144814 61 18410855477392498649
14252887 29 18186793717162482222
14325111 11 18410856546765586592
15442244 35 18192992853481413616
17802600 8 18409737256855831437
18186145 218 17917711322474533272
190213 19 17632577149565460989
200 152 18041007236820371725
20201158 50 18410855473303460890
20279233 1 17917992780466696555
20645477 70 18339932630810199326
21267235 1 18410002230641952910
23402539 116 18113905974275395709
23402655 69 18335709385452351349
5104073 3 18410010996585536160
69090 78 18335143068334279495
8809292 202 18272928280855337314
93112 12 18411420570560902916

> <PUBCHEM_SHAPE_MULTIPOLES>
257.31
8.39
1.38
0.7
0.5
0.08
0
-0.19
0
0.17
0
-0.38
-0.03
0

> <PUBCHEM_SHAPE_SELFOVERLAP>
530.691

> <PUBCHEM_SHAPE_VOLUME>
148.4

> <PUBCHEM_COORDINATE_TYPE>
2
5
10

$$$$

