129395
  -OEChem-07051213032D

 57 60  0     1  0  0  0  0  0999 V2000
    5.5320    1.3031    0.0000 O   0  0  0  0  0  0  0  0  0  0  0  0
    5.5320   -1.6969    0.0000 O   0  0  0  0  0  0  0  0  0  0  0  0
    4.1482   -2.1033    0.0000 O   0  0  0  0  0  0  0  0  0  0  0  0
    2.8680   -1.2211    0.0000 O   0  0  0  0  0  0  0  0  0  0  0  0
    6.3981   -2.1969    0.0000 O   0  0  0  0  0  0  0  0  0  0  0  0
    6.3981    1.8031    0.0000 O   0  0  0  0  0  0  0  0  0  0  0  0
    4.0042    1.6112    0.0000 O   0  0  0  0  0  0  0  0  0  0  0  0
    8.1465    1.8377    0.0000 O   0  0  0  0  0  0  0  0  0  0  0  0
   11.8031   -1.2428    0.0000 O   0  0  0  0  0  0  0  0  0  0  0  0
   12.6711    0.3522    0.0000 O   0  0  0  0  0  0  0  0  0  0  0  0
   11.7993    1.8489    0.0000 O   0  0  0  0  0  0  0  0  0  0  0  0
    5.5320   -0.6969    0.0000 C   0  0  1  0  0  0  0  0  0  0  0  0
    5.5320    0.3031    0.0000 C   0  0  1  0  0  0  0  0  0  0  0  0
    4.6381   -1.2316    0.0000 C   0  0  1  0  0  0  0  0  0  0  0  0
    6.3981   -1.1969    0.0000 C   0  0  0  0  0  0  0  0  0  0  0  0
    6.3981    0.8031    0.0000 C   0  0  0  0  0  0  0  0  0  0  0  0
    7.2641   -0.6969    0.0000 C   0  0  0  0  0  0  0  0  0  0  0  0
    7.2641    0.3031    0.0000 C   0  0  0  0  0  0  0  0  0  0  0  0
    4.6381    0.8377    0.0000 C   0  0  0  0  0  0  0  0  0  0  0  0
    3.7320   -0.7178    0.0000 C   0  0  0  0  0  0  0  0  0  0  0  0
    3.7320    0.3239    0.0000 C   0  0  0  0  0  0  0  0  0  0  0  0
    8.1580    0.8377    0.0000 C   0  0  0  0  0  0  0  0  0  0  0  0
    8.1580   -1.2316    0.0000 C   0  0  0  0  0  0  0  0  0  0  0  0
    9.0641    0.3239    0.0000 C   0  0  0  0  0  0  0  0  0  0  0  0
    9.0641   -0.7178    0.0000 C   0  0  0  0  0  0  0  0  0  0  0  0
    9.9953    0.8808    0.0000 C   0  0  0  0  0  0  0  0  0  0  0  0
    5.1900    2.2428    0.0000 C   0  0  0  0  0  0  0  0  0  0  0  0
    9.9953   -1.2747    0.0000 C   0  0  0  0  0  0  0  0  0  0  0  0
   10.9391    0.3456    0.0000 C   0  0  0  0  0  0  0  0  0  0  0  0
   10.9391   -0.7394    0.0000 C   0  0  0  0  0  0  0  0  0  0  0  0
    9.9837    1.8807    0.0000 C   0  0  0  0  0  0  0  0  0  0  0  0
    2.0000   -0.7244    0.0000 C   0  0  0  0  0  0  0  0  0  0  0  0
   11.8031    0.8489    0.0000 C   0  0  0  0  0  0  0  0  0  0  0  0
   11.7993   -2.2428    0.0000 C   0  0  0  0  0  0  0  0  0  0  0  0
   13.5352    0.8556    0.0000 C   0  0  0  0  0  0  0  0  0  0  0  0
    5.0824   -1.6640    0.0000 H   0  0  0  0  0  0  0  0  0  0  0  0
    3.1963    0.6359    0.0000 H   0  0  0  0  0  0  0  0  0  0  0  0
    5.2220   -2.2338    0.0000 H   0  0  0  0  0  0  0  0  0  0  0  0
    8.1509   -1.8516    0.0000 H   0  0  0  0  0  0  0  0  0  0  0  0
    3.5282   -2.1106    0.0000 H   0  0  0  0  0  0  0  0  0  0  0  0
    5.7726    2.4548    0.0000 H   0  0  0  0  0  0  0  0  0  0  0  0
    4.9780    2.8254    0.0000 H   0  0  0  0  0  0  0  0  0  0  0  0
    4.6074    2.0307    0.0000 H   0  0  0  0  0  0  0  0  0  0  0  0
    9.9881   -1.8946    0.0000 H   0  0  0  0  0  0  0  0  0  0  0  0
    8.6798    2.1538    0.0000 H   0  0  0  0  0  0  0  0  0  0  0  0
   10.6037    1.8879    0.0000 H   0  0  0  0  0  0  0  0  0  0  0  0
    9.9765    2.5007    0.0000 H   0  0  0  0  0  0  0  0  0  0  0  0
    9.3637    1.8736    0.0000 H   0  0  0  0  0  0  0  0  0  0  0  0
    2.3079   -0.1863    0.0000 H   0  0  0  0  0  0  0  0  0  0  0  0
    1.4619   -0.4165    0.0000 H   0  0  0  0  0  0  0  0  0  0  0  0
    1.6921   -1.2626    0.0000 H   0  0  0  0  0  0  0  0  0  0  0  0
   11.1793   -2.2404    0.0000 H   0  0  0  0  0  0  0  0  0  0  0  0
   11.7969   -2.8628    0.0000 H   0  0  0  0  0  0  0  0  0  0  0  0
   12.4193   -2.2452    0.0000 H   0  0  0  0  0  0  0  0  0  0  0  0
   13.8472    0.3198    0.0000 H   0  0  0  0  0  0  0  0  0  0  0  0
   14.0709    1.1676    0.0000 H   0  0  0  0  0  0  0  0  0  0  0  0
   13.2231    1.3913    0.0000 H   0  0  0  0  0  0  0  0  0  0  0  0
 13  1  1  6  0  0  0
  1 27  1  0  0  0  0
 12  2  1  6  0  0  0
  2 38  1  0  0  0  0
 14  3  1  6  0  0  0
  3 40  1  0  0  0  0
  4 20  1  0  0  0  0
  4 32  1  0  0  0  0
  5 15  2  0  0  0  0
  6 16  2  0  0  0  0
  7 19  2  0  0  0  0
  8 22  1  0  0  0  0
  8 45  1  0  0  0  0
  9 30  1  0  0  0  0
  9 34  1  0  0  0  0
 10 33  1  0  0  0  0
 10 35  1  0  0  0  0
 11 33  2  0  0  0  0
 12 13  1  0  0  0  0
 12 14  1  0  0  0  0
 12 15  1  0  0  0  0
 13 16  1  0  0  0  0
 13 19  1  0  0  0  0
 14 20  1  0  0  0  0
 14 36  1  0  0  0  0
 15 17  1  0  0  0  0
 16 18  1  0  0  0  0
 17 18  2  0  0  0  0
 17 23  1  0  0  0  0
 18 22  1  0  0  0  0
 19 21  1  0  0  0  0
 20 21  2  0  0  0  0
 21 37  1  0  0  0  0
 22 24  2  0  0  0  0
 23 25  2  0  0  0  0
 23 39  1  0  0  0  0
 24 25  1  0  0  0  0
 24 26  1  0  0  0  0
 25 28  1  0  0  0  0
 26 29  2  0  0  0  0
 26 31  1  0  0  0  0
 27 41  1  0  0  0  0
 27 42  1  0  0  0  0
 27 43  1  0  0  0  0
 28 30  2  0  0  0  0
 28 44  1  0  0  0  0
 29 30  1  0  0  0  0
 29 33  1  0  0  0  0
 31 46  1  0  0  0  0
 31 47  1  0  0  0  0
 31 48  1  0  0  0  0
 32 49  1  0  0  0  0
 32 50  1  0  0  0  0
 32 51  1  0  0  0  0
 34 52  1  0  0  0  0
 34 53  1  0  0  0  0
 34 54  1  0  0  0  0
 35 55  1  0  0  0  0
 35 56  1  0  0  0  0
 35 57  1  0  0  0  0
M  END
> <PUBCHEM_COMPOUND_CID>
129395

> <PUBCHEM_COMPOUND_CANONICALIZED>
1

> <PUBCHEM_CACTVS_COMPLEXITY>
975

> <PUBCHEM_CACTVS_HBOND_ACCEPTOR>
11

> <PUBCHEM_CACTVS_HBOND_DONOR>
3

> <PUBCHEM_CACTVS_ROTATABLE_BOND>
5

> <PUBCHEM_CACTVS_SUBSKEYS>
AAADceB4PAAAAAAAAAAAAAAAAAAAAAAAAAAwYMEAAAAAAADBUAAAGgAACAAADFSgmAIyDsAABgCIAqDSCAICCAAkIAAAiAFGCMgNNzaONR6AcWAl4BELuYfL7PzO4AADAAAYAADAAAYAADCAAAAAAAAAAA==

> <PUBCHEM_IUPAC_OPENEYE_NAME>
methyl (6aR,7S,10aR)-6a,7,12-trihydroxy-3,8,10a-trimethoxy-1-methyl-6,10,11-trioxo-7H-tetracene-2-carboxylate

> <PUBCHEM_IUPAC_CAS_NAME>
(6aR,7S,10aR)-6a,7,12-trihydroxy-3,8,10a-trimethoxy-1-methyl-6,10,11-trioxo-7H-tetracene-2-carboxylic acid methyl ester

> <PUBCHEM_IUPAC_NAME>
methyl (6aR,7S,10aR)-6a,7,12-trihydroxy-3,8,10a-trimethoxy-1-methyl-6,10,11-trioxo-7H-tetracene-2-carboxylate

> <PUBCHEM_IUPAC_SYSTEMATIC_NAME>
methyl (6aR,7S,10aR)-3,8,10a-trimethoxy-1-methyl-6a,7,12-tris(oxidanyl)-6,10,11-tris(oxidanylidene)-7H-tetracene-2-carboxylate

> <PUBCHEM_IUPAC_TRADITIONAL_NAME>
(6aR,7S,10aR)-6a,7,12-trihydroxy-6,10,11-triketo-3,8,10a-trimethoxy-1-methyl-7H-tetracene-2-carboxylic acid methyl ester

> <PUBCHEM_IUPAC_INCHI>
InChI=1S/C24H22O11/c1-9-15-10(7-12(32-2)16(9)22(30)34-4)6-11-17(18(15)26)21(29)24(35-5)14(25)8-13(33-3)20(28)23(24,31)19(11)27/h6-8,20,26,28,31H,1-5H3/t20-,23-,24-/m1/s1

> <PUBCHEM_IUPAC_INCHIKEY>
QSPIPUXWSNFXCK-AGILITTLSA-N

> <PUBCHEM_XLOGP3_AA>
1

> <PUBCHEM_EXACT_MASS>
486.116212

> <PUBCHEM_MOLECULAR_FORMULA>
C24H22O11

> <PUBCHEM_MOLECULAR_WEIGHT>
486.42488

> <PUBCHEM_OPENEYE_CAN_SMILES>
CC1=C(C(=CC2=CC3=C(C(=C12)O)C(=O)C4(C(=O)C=C(C(C4(C3=O)O)O)OC)OC)OC)C(=O)OC

> <PUBCHEM_OPENEYE_ISO_SMILES>
CC1=C(C(=CC2=CC3=C(C(=C12)O)C(=O)[C@@]4(C(=O)C=C([C@H]([C@@]4(C3=O)O)O)OC)OC)OC)C(=O)OC

> <PUBCHEM_CACTVS_TPSA>
166

> <PUBCHEM_MONOISOTOPIC_WEIGHT>
486.116212

> <PUBCHEM_TOTAL_CHARGE>
0

> <PUBCHEM_HEAVY_ATOM_COUNT>
35

> <PUBCHEM_ATOM_DEF_STEREO_COUNT>
3

> <PUBCHEM_ATOM_UDEF_STEREO_COUNT>
0

> <PUBCHEM_BOND_DEF_STEREO_COUNT>
0

> <PUBCHEM_BOND_UDEF_STEREO_COUNT>
0

> <PUBCHEM_ISOTOPIC_ATOM_COUNT>
0

> <PUBCHEM_COMPONENT_COUNT>
1

> <PUBCHEM_CACTVS_TAUTO_COUNT>
28

> <PUBCHEM_COORDINATE_TYPE>
1
5
255

> <PUBCHEM_BONDANNOTATIONS>
13  1  6
17  18  8
17  23  8
18  22  8
12  2  6
22  24  8
23  25  8
24  25  8
24  26  8
25  28  8
26  29  8
28  30  8
29  30  8
14  3  6

$$$$

