11526601
  -OEChem-07051213103D

 68 70  0     1  0  0  0  0  0999 V2000
   -5.9790    0.9622   -0.2636 O   0  0  0  0  0  0  0  0  0  0  0  0
   -8.9030    2.6027   -1.7375 O   0  0  0  0  0  0  0  0  0  0  0  0
   -9.9615    1.3696    0.6530 O   0  0  0  0  0  0  0  0  0  0  0  0
   -5.7481   -0.8330    1.2088 O   0  0  0  0  0  0  0  0  0  0  0  0
   -8.5590   -1.1593    1.2170 O   0  0  0  0  0  0  0  0  0  0  0  0
   -4.7207    2.3026   -2.3071 O   0  0  0  0  0  0  0  0  0  0  0  0
   -3.5083    0.2654    2.4395 O   0  0  0  0  0  0  0  0  0  0  0  0
    2.0800   -3.1249   -1.3252 O   0  0  0  0  0  0  0  0  0  0  0  0
   11.2871    0.5082    0.2629 O   0  0  0  0  0  0  0  0  0  0  0  0
   10.6178    3.1282    0.9030 O   0  0  0  0  0  0  0  0  0  0  0  0
    4.6662   -2.4286   -1.3478 O   0  0  0  0  0  0  0  0  0  0  0  0
   -8.1044    2.0437   -0.6979 C   0  0  1  0  0  0  0  0  0  0  0  0
   -8.8430    0.8593   -0.0743 C   0  0  1  0  0  0  0  0  0  0  0  0
   -6.7584    1.6008   -1.2764 C   0  0  1  0  0  0  0  0  0  0  0  0
   -7.9337    0.0769    0.8734 C   0  0  2  0  0  0  0  0  0  0  0  0
   -6.5862   -0.2330    0.2215 C   0  0  1  0  0  0  0  0  0  0  0  0
   -5.9516    2.7848   -1.7997 C   0  0  0  0  0  0  0  0  0  0  0  0
   -4.4888   -1.1876    0.8093 C   0  0  0  0  0  0  0  0  0  0  0  0
   -3.3669   -0.6346    1.4269 C   0  0  0  0  0  0  0  0  0  0  0  0
   -4.3316   -2.1096   -0.2256 C   0  0  0  0  0  0  0  0  0  0  0  0
   -2.0881   -1.0034    1.0094 C   0  0  0  0  0  0  0  0  0  0  0  0
   -3.0528   -2.4782   -0.6432 C   0  0  0  0  0  0  0  0  0  0  0  0
   -1.9310   -1.9252   -0.0257 C   0  0  0  0  0  0  0  0  0  0  0  0
   -0.5976   -2.3094   -0.4611 C   0  0  0  0  0  0  0  0  0  0  0  0
   -2.3119    0.7838    3.0178 C   0  0  0  0  0  0  0  0  0  0  0  0
    0.5325   -1.5970   -0.2344 C   0  0  0  0  0  0  0  0  0  0  0  0
    1.8891   -1.9345   -0.6492 C   0  0  0  0  0  0  0  0  0  0  0  0
    2.9203   -1.1253   -0.3507 C   0  0  0  0  0  0  0  0  0  0  0  0
    7.6605    0.4261   -0.1894 C   0  0  0  0  0  0  0  0  0  0  0  0
    4.3315   -1.4243   -0.7326 C   0  0  0  0  0  0  0  0  0  0  0  0
    8.9930    0.0158   -0.1451 C   0  0  0  0  0  0  0  0  0  0  0  0
    9.9895    0.9204    0.2218 C   0  0  0  0  0  0  0  0  0  0  0  0
    6.6078   -0.5294   -0.5775 C   0  0  0  0  0  0  0  0  0  0  0  0
    7.3246    1.7409    0.1333 C   0  0  0  0  0  0  0  0  0  0  0  0
    5.3044   -0.3830   -0.2973 C   0  0  0  0  0  0  0  0  0  0  0  0
    9.6535    2.2351    0.5445 C   0  0  0  0  0  0  0  0  0  0  0  0
    8.3210    2.6453    0.5004 C   0  0  0  0  0  0  0  0  0  0  0  0
   11.5467   -0.8514   -0.0813 C   0  0  0  0  0  0  0  0  0  0  0  0
   -7.9571    2.8252    0.0575 H   0  0  0  0  0  0  0  0  0  0  0  0
   -9.2567    0.2045   -0.8501 H   0  0  0  0  0  0  0  0  0  0  0  0
   -6.8989    0.8937   -2.1054 H   0  0  0  0  0  0  0  0  0  0  0  0
   -7.7887    0.6289    1.8097 H   0  0  0  0  0  0  0  0  0  0  0  0
   -6.7342   -0.9381   -0.6069 H   0  0  0  0  0  0  0  0  0  0  0  0
   -5.7258    3.4899   -0.9928 H   0  0  0  0  0  0  0  0  0  0  0  0
   -6.4808    3.3090   -2.6011 H   0  0  0  0  0  0  0  0  0  0  0  0
   -9.0280    1.9211   -2.4198 H   0  0  0  0  0  0  0  0  0  0  0  0
   -9.6248    1.9429    1.3626 H   0  0  0  0  0  0  0  0  0  0  0  0
   -8.6969   -1.6655    0.3982 H   0  0  0  0  0  0  0  0  0  0  0  0
   -4.2218    3.0724   -2.6297 H   0  0  0  0  0  0  0  0  0  0  0  0
   -5.1915   -2.5664   -0.7070 H   0  0  0  0  0  0  0  0  0  0  0  0
   -1.2044   -0.6139    1.4973 H   0  0  0  0  0  0  0  0  0  0  0  0
   -2.9499   -3.2003   -1.4497 H   0  0  0  0  0  0  0  0  0  0  0  0
   -0.5309   -3.2444   -1.0132 H   0  0  0  0  0  0  0  0  0  0  0  0
   -1.7285   -0.0008    3.5117 H   0  0  0  0  0  0  0  0  0  0  0  0
   -1.7222    1.3514    2.2896 H   0  0  0  0  0  0  0  0  0  0  0  0
   -2.6134    1.4905    3.7982 H   0  0  0  0  0  0  0  0  0  0  0  0
    0.4682   -0.6442    0.2867 H   0  0  0  0  0  0  0  0  0  0  0  0
    2.7469   -0.2004    0.1936 H   0  0  0  0  0  0  0  0  0  0  0  0
    9.1990   -1.0179   -0.4035 H   0  0  0  0  0  0  0  0  0  0  0  0
    6.9556   -1.4067   -1.1179 H   0  0  0  0  0  0  0  0  0  0  0  0
    3.0190   -3.2389   -1.5391 H   0  0  0  0  0  0  0  0  0  0  0  0
    6.3043    2.1106    0.0929 H   0  0  0  0  0  0  0  0  0  0  0  0
    4.9148    0.4607    0.2598 H   0  0  0  0  0  0  0  0  0  0  0  0
    8.0465    3.6680    0.7449 H   0  0  0  0  0  0  0  0  0  0  0  0
   10.2005    3.9866    1.0905 H   0  0  0  0  0  0  0  0  0  0  0  0
   12.6277   -1.0040    0.0043 H   0  0  0  0  0  0  0  0  0  0  0  0
   11.2784   -1.0631   -1.1220 H   0  0  0  0  0  0  0  0  0  0  0  0
   11.0724   -1.5439    0.6223 H   0  0  0  0  0  0  0  0  0  0  0  0
  1 14  1  0  0  0  0
  1 16  1  0  0  0  0
  2 12  1  0  0  0  0
  2 46  1  0  0  0  0
  3 13  1  0  0  0  0
  3 47  1  0  0  0  0
  4 16  1  0  0  0  0
  4 18  1  0  0  0  0
  5 15  1  0  0  0  0
  5 48  1  0  0  0  0
  6 17  1  0  0  0  0
  6 49  1  0  0  0  0
  7 19  1  0  0  0  0
  7 25  1  0  0  0  0
  8 27  1  0  0  0  0
  8 61  1  0  0  0  0
  9 32  1  0  0  0  0
  9 38  1  0  0  0  0
 10 36  1  0  0  0  0
 10 65  1  0  0  0  0
 11 30  2  0  0  0  0
 12 13  1  0  0  0  0
 12 14  1  0  0  0  0
 12 39  1  0  0  0  0
 13 15  1  0  0  0  0
 13 40  1  0  0  0  0
 14 17  1  0  0  0  0
 14 41  1  0  0  0  0
 15 16  1  0  0  0  0
 15 42  1  0  0  0  0
 16 43  1  0  0  0  0
 17 44  1  0  0  0  0
 17 45  1  0  0  0  0
 18 19  2  0  0  0  0
 18 20  1  0  0  0  0
 19 21  1  0  0  0  0
 20 22  2  0  0  0  0
 20 50  1  0  0  0  0
 21 23  2  0  0  0  0
 21 51  1  0  0  0  0
 22 23  1  0  0  0  0
 22 52  1  0  0  0  0
 23 24  1  0  0  0  0
 24 26  2  0  0  0  0
 24 53  1  0  0  0  0
 25 54  1  0  0  0  0
 25 55  1  0  0  0  0
 25 56  1  0  0  0  0
 26 27  1  0  0  0  0
 26 57  1  0  0  0  0
 27 28  2  0  0  0  0
 28 30  1  0  0  0  0
 28 58  1  0  0  0  0
 29 31  2  0  0  0  0
 29 33  1  0  0  0  0
 29 34  1  0  0  0  0
 30 35  1  0  0  0  0
 31 32  1  0  0  0  0
 31 59  1  0  0  0  0
 32 36  2  0  0  0  0
 33 35  2  0  0  0  0
 33 60  1  0  0  0  0
 34 37  2  0  0  0  0
 34 62  1  0  0  0  0
 35 63  1  0  0  0  0
 36 37  1  0  0  0  0
 37 64  1  0  0  0  0
 38 66  1  0  0  0  0
 38 67  1  0  0  0  0
 38 68  1  0  0  0  0
M  END
> <PUBCHEM_COMPOUND_CID>
11526601

> <PUBCHEM_CONFORMER_RMSD>
1.2

> <PUBCHEM_CONFORMER_DIVERSEORDER>
3
56
31
53
47
48
40
55
35
57
50
42
9
45
24
18
38
58
10
43
52
34
44
19
13
29
20
54
4
36
6
30
17
28
37
11
15
23
12
22
7
26
49
39
14
2
27
46
16
51
25
33
41
21
32
8
1
5

> <PUBCHEM_MMFF94_PARTIAL_CHARGES>
55
1 -0.56
10 -0.53
11 -0.57
12 0.28
13 0.28
14 0.28
15 0.28
16 0.56
17 0.28
18 0.08
19 0.08
2 -0.68
20 -0.15
21 -0.15
22 -0.15
23 0.03
24 -0.18
25 0.28
26 -0.15
27 0.08
28 -0.14
29 0.03
3 -0.68
30 0.54
31 -0.15
32 0.08
33 -0.18
34 -0.15
35 -0.14
36 0.08
37 -0.15
38 0.28
4 -0.36
46 0.4
47 0.4
48 0.4
49 0.4
5 -0.68
50 0.15
51 0.15
52 0.15
53 0.15
57 0.15
58 0.15
59 0.15
6 -0.68
60 0.15
61 0.45
62 0.15
63 0.15
64 0.15
65 0.45
7 -0.36
8 -0.53
9 -0.36

> <PUBCHEM_EFFECTIVE_ROTOR_COUNT>
11.2

> <PUBCHEM_PHARMACOPHORE_FEATURES>
18
1 1 acceptor
1 10 donor
1 11 acceptor
1 2 acceptor
1 2 donor
1 3 acceptor
1 3 donor
1 4 acceptor
1 5 acceptor
1 5 donor
1 6 acceptor
1 6 donor
1 7 acceptor
1 8 donor
1 9 acceptor
6 1 12 13 14 15 16 rings
6 18 19 20 21 22 23 rings
6 29 31 32 34 36 37 rings

> <PUBCHEM_HEAVY_ATOM_COUNT>
38

> <PUBCHEM_ATOM_DEF_STEREO_COUNT>
5

> <PUBCHEM_ATOM_UDEF_STEREO_COUNT>
0

> <PUBCHEM_BOND_DEF_STEREO_COUNT>
3

> <PUBCHEM_BOND_UDEF_STEREO_COUNT>
0

> <PUBCHEM_ISOTOPIC_ATOM_COUNT>
0

> <PUBCHEM_COMPONENT_COUNT>
1

> <PUBCHEM_CACTVS_TAUTO_COUNT>
17

> <PUBCHEM_CONFORMER_ID>
00AFE1C900000003

> <PUBCHEM_MMFF94_ENERGY>
137.2109

> <PUBCHEM_FEATURE_SELFOVERLAP>
91.405

> <PUBCHEM_SHAPE_FINGERPRINT>
10429389 143 18409729564526907707
10625338 86 18272934929264205709
10930396 42 17418376887555088589
11409948 8 18272079501788079761
11456790 92 15339112442431310765
11578821 258 18334010583958210032
11607047 141 18272094951007905858
11607047 74 8213554733407703282
11621639 254 17386001793640408657
12013929 2 18409725176463495630
12098696 120 18261387837455213366
12539745 222 12031796863945969887
12559415 43 18334019384963365064
13165054 146 17240486862790119604
13553643 46 18335136484745949368
13726171 33 17912647097759036593
13911987 19 17895760733754909607
14251920 17 18335420163314571787
15289351 153 17821723958667797450
15604295 49 18411420592083803404
15890870 6 18186800266534194482
1818759 1 10231759985623423022
19315958 150 18333726940386998918
20105231 36 10087634897310398393
20766409 102 17749096817026550769
306946 40 18343305876965691221
3918712 181 18187647973446536160
4403749 210 18335135337183040110
44280117 145 18261393305450163807
4516262 110 18259702307547030606
5028188 123 4895554069928513275
5372103 7 18335422391215708127
54039377 194 10447929464575339314
6126387 218 18412262822311832296
6201320 215 18059582446036712101
9937071 3 10592046843653793124
999808 66 9727631709090405359

> <PUBCHEM_SHAPE_MULTIPOLES>
717.46
44.75
3.33
1.67
73.35
0.77
0.59
34.15
1.29
0.21
-1.32
-3.53
0.71
5.18

> <PUBCHEM_SHAPE_SELFOVERLAP>
1518.727

> <PUBCHEM_SHAPE_VOLUME>
397.8

> <PUBCHEM_COORDINATE_TYPE>
2
5
10

$$$$

