9543293
  -OEChem-07051213113D

 17 17  0     0  0  0  0  0  0999 V2000
   -2.6219   -1.8906    0.0000 Cl  0  0  0  0  0  0  0  0  0  0  0  0
    2.7443   -1.7333    0.0000 Cl  0  0  0  0  0  0  0  0  0  0  0  0
   -0.0547    2.5373    0.0002 O   0  0  0  0  0  0  0  0  0  0  0  0
    2.3582    1.2367    0.0000 O   0  0  0  0  0  0  0  0  0  0  0  0
   -1.2116    0.4431   -0.0001 C   0  0  0  0  0  0  0  0  0  0  0  0
   -0.0230    1.1734    0.0000 C   0  0  0  0  0  0  0  0  0  0  0  0
   -1.1732   -0.9513    0.0000 C   0  0  0  0  0  0  0  0  0  0  0  0
    1.2036    0.5095   -0.0001 C   0  0  0  0  0  0  0  0  0  0  0  0
   -2.5171    1.1751   -0.0002 C   0  0  0  0  0  0  0  0  0  0  0  0
    0.0535   -1.6152    0.0001 C   0  0  0  0  0  0  0  0  0  0  0  0
    1.2419   -0.8849    0.0000 C   0  0  0  0  0  0  0  0  0  0  0  0
    0.0839   -2.7028    0.0002 H   0  0  0  0  0  0  0  0  0  0  0  0
   -2.6963    1.6222    0.9836 H   0  0  0  0  0  0  0  0  0  0  0  0
   -2.5170    1.9649   -0.7605 H   0  0  0  0  0  0  0  0  0  0  0  0
   -3.3840    0.5564   -0.2420 H   0  0  0  0  0  0  0  0  0  0  0  0
   -0.9316    2.8672    0.2497 H   0  0  0  0  0  0  0  0  0  0  0  0
    2.1277    2.1821    0.0001 H   0  0  0  0  0  0  0  0  0  0  0  0
  1  7  1  0  0  0  0
  2 11  1  0  0  0  0
  3  6  1  0  0  0  0
  3 16  1  0  0  0  0
  4  8  1  0  0  0  0
  4 17  1  0  0  0  0
  5  6  2  0  0  0  0
  5  7  1  0  0  0  0
  5  9  1  0  0  0  0
  6  8  1  0  0  0  0
  7 10  2  0  0  0  0
  8 11  2  0  0  0  0
  9 13  1  0  0  0  0
  9 14  1  0  0  0  0
  9 15  1  0  0  0  0
 10 11  1  0  0  0  0
 10 12  1  0  0  0  0
M  END
> <PUBCHEM_COMPOUND_CID>
9543293

> <PUBCHEM_CONFORMER_RMSD>
0.4

> <PUBCHEM_CONFORMER_DIVERSEORDER>
1

> <PUBCHEM_MMFF94_PARTIAL_CHARGES>
14
1 -0.18
10 -0.15
11 0.18
12 0.15
16 0.45
17 0.45
2 -0.18
3 -0.53
4 -0.53
5 -0.14
6 0.08
7 0.18
8 0.08
9 0.14

> <PUBCHEM_EFFECTIVE_ROTOR_COUNT>
0

> <PUBCHEM_PHARMACOPHORE_FEATURES>
3
1 3 donor
1 4 donor
6 5 6 7 8 10 11 rings

> <PUBCHEM_HEAVY_ATOM_COUNT>
11

> <PUBCHEM_ATOM_DEF_STEREO_COUNT>
0

> <PUBCHEM_ATOM_UDEF_STEREO_COUNT>
0

> <PUBCHEM_BOND_DEF_STEREO_COUNT>
0

> <PUBCHEM_BOND_UDEF_STEREO_COUNT>
0

> <PUBCHEM_ISOTOPIC_ATOM_COUNT>
0

> <PUBCHEM_COMPONENT_COUNT>
1

> <PUBCHEM_CACTVS_TAUTO_COUNT>
12

> <PUBCHEM_CONFORMER_ID>
00919E7D00000001

> <PUBCHEM_MMFF94_ENERGY>
27.9608

> <PUBCHEM_FEATURE_SELFOVERLAP>
15.228

> <PUBCHEM_SHAPE_FINGERPRINT>
11206711 2 18268146448930199437
12423570 1 11808217882722214936
16945 1 18194682806895227270
193761 8 18410855434411125029
20588541 1 18118962748273290335
20871998 184 18187650266089251174
21040471 1 18410856576862071141
21501502 16 18410854352047906327
2334 1 18410855421484265479
23552423 10 18272366468962650174
23559900 14 18119247509902698734
241688 4 18411419535378917227
2748010 2 18410014329443383159
5084963 1 17825960495862035024

> <PUBCHEM_SHAPE_MULTIPOLES>
218.38
3.61
2.5
0.61
0.45
0.35
0
-1.23
0
-0.35
0
-0.02
-0.05
0

> <PUBCHEM_SHAPE_SELFOVERLAP>
441.719

> <PUBCHEM_SHAPE_VOLUME>
130.8

> <PUBCHEM_COORDINATE_TYPE>
2
5
10

$$$$

