5281453
  -OEChem-07051212572D

 58 59  0     1  0  0  0  0  0999 V2000
    6.2000   -2.6420    0.0000 O   0  0  0  0  0  0  0  0  0  0  0  0
    5.1350    0.0950    0.0000 O   0  0  0  0  0  0  0  0  0  0  0  0
    9.4651   -3.4050    0.0000 O   0  0  0  0  0  0  0  0  0  0  0  0
    4.3660   -3.0890    0.0000 O   0  0  0  0  0  0  0  0  0  0  0  0
    6.0010    1.5950    0.0000 O   0  0  0  0  0  0  0  0  0  0  0  0
   10.3312   -1.9050    0.0000 O   0  0  0  0  0  0  0  0  0  0  0  0
    2.5369    1.5950    0.0000 O   0  0  0  0  0  0  0  0  0  0  0  0
    3.4030    4.0950    0.0000 O   0  0  0  0  0  0  0  0  0  0  0  0
    6.0010   -1.4050    0.0000 C   0  0  2  0  0  0  0  0  0  0  0  0
    6.0010   -0.4050    0.0000 C   0  0  1  0  0  0  0  0  0  0  0  0
    6.8671   -1.9050    0.0000 C   0  0  1  0  0  0  0  0  0  0  0  0
    6.8671    0.0950    0.0000 C   0  0  0  0  0  0  0  0  0  0  0  0
    5.0292   -1.6142    0.0000 C   0  0  0  0  0  0  0  0  0  0  0  0
    6.8671   -2.9050    0.0000 C   0  0  0  0  0  0  0  0  0  0  0  0
    7.7331   -0.4050    0.0000 C   0  0  0  0  0  0  0  0  0  0  0  0
    7.7331   -3.4050    0.0000 C   0  0  0  0  0  0  0  0  0  0  0  0
    5.1092   -2.4199    0.0000 C   0  0  0  0  0  0  0  0  0  0  0  0
    8.5991   -2.9050    0.0000 C   0  0  1  0  0  0  0  0  0  0  0  0
    8.5991   -1.9050    0.0000 C   0  0  0  0  0  0  0  0  0  0  0  0
    7.7331   -1.4050    0.0000 C   0  0  0  0  0  0  0  0  0  0  0  0
    4.1623   -1.1157    0.0000 C   0  0  0  0  0  0  0  0  0  0  0  0
    8.5991    0.0950    0.0000 C   0  0  0  0  0  0  0  0  0  0  0  0
    7.7331   -4.4050    0.0000 C   0  0  0  0  0  0  0  0  0  0  0  0
    5.1350    1.0950    0.0000 C   0  0  0  0  0  0  0  0  0  0  0  0
    4.2690    1.5950    0.0000 C   0  0  0  0  0  0  0  0  0  0  0  0
   10.3312   -2.9050    0.0000 C   0  0  0  0  0  0  0  0  0  0  0  0
    3.4030    1.0950    0.0000 C   0  0  0  0  0  0  0  0  0  0  0  0
    4.2690    2.5950    0.0000 C   0  0  0  0  0  0  0  0  0  0  0  0
   11.1972   -3.4050    0.0000 C   0  0  0  0  0  0  0  0  0  0  0  0
    3.4030    3.0950    0.0000 C   0  0  0  0  0  0  0  0  0  0  0  0
    5.3398   -0.8709    0.0000 H   0  0  0  0  0  0  0  0  0  0  0  0
    5.4641   -0.7150    0.0000 H   0  0  0  0  0  0  0  0  0  0  0  0
    7.6032   -1.4800    0.0000 H   0  0  0  0  0  0  0  0  0  0  0  0
    7.2656    0.5699    0.0000 H   0  0  0  0  0  0  0  0  0  0  0  0
    6.4685    0.5699    0.0000 H   0  0  0  0  0  0  0  0  0  0  0  0
    6.3921   -3.3035    0.0000 H   0  0  0  0  0  0  0  0  0  0  0  0
    8.5991   -3.5250    0.0000 H   0  0  0  0  0  0  0  0  0  0  0  0
    9.2097   -2.0127    0.0000 H   0  0  0  0  0  0  0  0  0  0  0  0
    8.8112   -1.3224    0.0000 H   0  0  0  0  0  0  0  0  0  0  0  0
    7.1225   -1.2972    0.0000 H   0  0  0  0  0  0  0  0  0  0  0  0
    4.1613   -0.4957    0.0000 H   0  0  0  0  0  0  0  0  0  0  0  0
    3.6259   -1.4266    0.0000 H   0  0  0  0  0  0  0  0  0  0  0  0
    8.9091   -0.4419    0.0000 H   0  0  0  0  0  0  0  0  0  0  0  0
    9.1360    0.4050    0.0000 H   0  0  0  0  0  0  0  0  0  0  0  0
    8.2891    0.6319    0.0000 H   0  0  0  0  0  0  0  0  0  0  0  0
    7.1131   -4.4050    0.0000 H   0  0  0  0  0  0  0  0  0  0  0  0
    7.7331   -5.0250    0.0000 H   0  0  0  0  0  0  0  0  0  0  0  0
    8.3531   -4.4050    0.0000 H   0  0  0  0  0  0  0  0  0  0  0  0
    3.0044    0.6201    0.0000 H   0  0  0  0  0  0  0  0  0  0  0  0
    3.8015    0.6201    0.0000 H   0  0  0  0  0  0  0  0  0  0  0  0
    4.8059    2.9050    0.0000 H   0  0  0  0  0  0  0  0  0  0  0  0
   10.8872   -3.9419    0.0000 H   0  0  0  0  0  0  0  0  0  0  0  0
   11.7341   -3.7150    0.0000 H   0  0  0  0  0  0  0  0  0  0  0  0
   11.5072   -2.8681    0.0000 H   0  0  0  0  0  0  0  0  0  0  0  0
    2.7924    3.2027    0.0000 H   0  0  0  0  0  0  0  0  0  0  0  0
    3.1909    2.5124    0.0000 H   0  0  0  0  0  0  0  0  0  0  0  0
    2.0000    1.2850    0.0000 H   0  0  0  0  0  0  0  0  0  0  0  0
    2.8660    4.4050    0.0000 H   0  0  0  0  0  0  0  0  0  0  0  0
  1 11  1  0  0  0  0
  1 17  1  0  0  0  0
 10  2  1  6  0  0  0
  2 24  1  0  0  0  0
 18  3  1  1  0  0  0
  3 26  1  0  0  0  0
  4 17  2  0  0  0  0
  5 24  2  0  0  0  0
  6 26  2  0  0  0  0
  7 27  1  0  0  0  0
  7 57  1  0  0  0  0
  8 30  1  0  0  0  0
  8 58  1  0  0  0  0
  9 10  1  0  0  0  0
  9 11  1  0  0  0  0
  9 13  1  0  0  0  0
  9 31  1  1  0  0  0
 10 12  1  0  0  0  0
 10 32  1  0  0  0  0
 11 14  1  0  0  0  0
 11 33  1  6  0  0  0
 12 15  1  0  0  0  0
 12 34  1  0  0  0  0
 12 35  1  0  0  0  0
 13 17  1  0  0  0  0
 13 21  2  0  0  0  0
 14 16  2  0  0  0  0
 14 36  1  0  0  0  0
 15 20  2  0  0  0  0
 15 22  1  0  0  0  0
 16 18  1  0  0  0  0
 16 23  1  0  0  0  0
 18 19  1  0  0  0  0
 18 37  1  0  0  0  0
 19 20  1  0  0  0  0
 19 38  1  0  0  0  0
 19 39  1  0  0  0  0
 20 40  1  0  0  0  0
 21 41  1  0  0  0  0
 21 42  1  0  0  0  0
 22 43  1  0  0  0  0
 22 44  1  0  0  0  0
 22 45  1  0  0  0  0
 23 46  1  0  0  0  0
 23 47  1  0  0  0  0
 23 48  1  0  0  0  0
 24 25  1  0  0  0  0
 25 27  1  0  0  0  0
 25 28  2  0  0  0  0
 26 29  1  0  0  0  0
 27 49  1  0  0  0  0
 27 50  1  0  0  0  0
 28 30  1  0  0  0  0
 28 51  1  0  0  0  0
 29 52  1  0  0  0  0
 29 53  1  0  0  0  0
 29 54  1  0  0  0  0
 30 55  1  0  0  0  0
 30 56  1  0  0  0  0
M  END
> <PUBCHEM_COMPOUND_CID>
5281453

> <PUBCHEM_COMPOUND_CANONICALIZED>
1

> <PUBCHEM_CACTVS_COMPLEXITY>
804

> <PUBCHEM_CACTVS_HBOND_ACCEPTOR>
8

> <PUBCHEM_CACTVS_HBOND_DONOR>
2

> <PUBCHEM_CACTVS_ROTATABLE_BOND>
7

> <PUBCHEM_CACTVS_SUBSKEYS>
AAADceB4PAAAAAAAAAAAAAAAAAAAASAAAAAAAAAAAAAAAACAAAAAGgAACAAADRSggAICCAAABgCIAiDSCAAAAAAgAAAACAEAAEgAFBYAIQACUAAF4AAIMYPKyCCOAAAAAAAAAAAAAAAAAAAAAAAAAAAAAA==

> <PUBCHEM_IUPAC_OPENEYE_NAME>
[(3aR,4R,6E,9R,10Z,11aR)-9-acetoxy-6,10-dimethyl-3-methylene-2-oxo-3a,4,5,8,9,11a-hexahydrocyclodeca[b]furan-4-yl] (E)-4-hydroxy-2-(hydroxymethyl)but-2-enoate

> <PUBCHEM_IUPAC_CAS_NAME>
(E)-4-hydroxy-2-(hydroxymethyl)-2-butenoic acid [(3aR,4R,6E,9R,10Z,11aR)-9-acetyloxy-6,10-dimethyl-3-methylene-2-oxo-3a,4,5,8,9,11a-hexahydrocyclodeca[b]furan-4-yl] ester

> <PUBCHEM_IUPAC_NAME>
[(3aR,4R,6E,9R,10Z,11aR)-9-acetyloxy-6,10-dimethyl-3-methylidene-2-oxo-3a,4,5,8,9,11a-hexahydrocyclodeca[b]furan-4-yl] (E)-4-hydroxy-2-(hydroxymethyl)but-2-enoate

> <PUBCHEM_IUPAC_SYSTEMATIC_NAME>
[(3aR,4R,6E,9R,10Z,11aR)-9-acetyloxy-6,10-dimethyl-3-methylidene-2-oxidanylidene-3a,4,5,8,9,11a-hexahydrocyclodeca[b]furan-4-yl] (E)-2-(hydroxymethyl)-4-oxidanyl-but-2-enoate

> <PUBCHEM_IUPAC_TRADITIONAL_NAME>
(E)-4-hydroxy-2-methylol-but-2-enoic acid [(3aR,4R,6E,9R,10Z,11aR)-9-acetoxy-2-keto-6,10-dimethyl-3-methylene-3a,4,5,8,9,11a-hexahydrocyclodeca[b]furan-4-yl] ester

> <PUBCHEM_IUPAC_INCHI>
InChI=1S/C22H28O8/c1-12-5-6-17(28-15(4)25)13(2)10-19-20(14(3)21(26)29-19)18(9-12)30-22(27)16(11-24)7-8-23/h5,7,10,17-20,23-24H,3,6,8-9,11H2,1-2,4H3/b12-5+,13-10-,16-7+/t17-,18-,19-,20-/m1/s1

> <PUBCHEM_IUPAC_INCHIKEY>
XYPJAWWDSQFSQA-OZZXCXKDSA-N

> <PUBCHEM_XLOGP3_AA>
0.6

> <PUBCHEM_EXACT_MASS>
420.178418

> <PUBCHEM_MOLECULAR_FORMULA>
C22H28O8

> <PUBCHEM_MOLECULAR_WEIGHT>
420.45292

> <PUBCHEM_OPENEYE_CAN_SMILES>
CC1=CCC(C(=CC2C(C(C1)OC(=O)C(=CCO)CO)C(=C)C(=O)O2)C)OC(=O)C

> <PUBCHEM_OPENEYE_ISO_SMILES>
C/C/1=C\C[C@H](/C(=C\[C@@H]2[C@@H]([C@@H](C1)OC(=O)/C(=C/CO)/CO)C(=C)C(=O)O2)/C)OC(=O)C

> <PUBCHEM_CACTVS_TPSA>
119

> <PUBCHEM_MONOISOTOPIC_WEIGHT>
420.178418

> <PUBCHEM_TOTAL_CHARGE>
0

> <PUBCHEM_HEAVY_ATOM_COUNT>
30

> <PUBCHEM_ATOM_DEF_STEREO_COUNT>
4

> <PUBCHEM_ATOM_UDEF_STEREO_COUNT>
0

> <PUBCHEM_BOND_DEF_STEREO_COUNT>
3

> <PUBCHEM_BOND_UDEF_STEREO_COUNT>
0

> <PUBCHEM_ISOTOPIC_ATOM_COUNT>
0

> <PUBCHEM_COMPONENT_COUNT>
1

> <PUBCHEM_CACTVS_TAUTO_COUNT>
1

> <PUBCHEM_COORDINATE_TYPE>
1
5
255

> <PUBCHEM_BONDANNOTATIONS>
11  33  6
10  2  6
18  3  5
9  31  5

$$$$

