5281292
  -OEChem-07051212562D

 31 33  0     0  0  0  0  0  0999 V2000
    6.0812   -0.3182    0.0000 O   0  0  0  0  0  0  0  0  0  0  0  0
    4.2690    0.8771    0.0000 O   0  0  0  0  0  0  0  0  0  0  0  0
    6.3919   -2.8781    0.0000 O   0  0  0  0  0  0  0  0  0  0  0  0
    2.5369   -0.1229    0.0000 O   0  0  0  0  0  0  0  0  0  0  0  0
   10.6648    0.6092    0.0000 O   0  0  0  0  0  0  0  0  0  0  0  0
    9.6648    2.3412    0.0000 O   0  0  0  0  0  0  0  0  0  0  0  0
    5.1350   -1.6229    0.0000 C   0  0  0  0  0  0  0  0  0  0  0  0
    5.1350   -0.6229    0.0000 C   0  0  0  0  0  0  0  0  0  0  0  0
    6.6648   -1.1229    0.0000 C   0  0  0  0  0  0  0  0  0  0  0  0
    6.0812   -1.9276    0.0000 C   0  0  0  0  0  0  0  0  0  0  0  0
    4.2690   -0.1229    0.0000 C   0  0  0  0  0  0  0  0  0  0  0  0
    4.2690   -2.1229    0.0000 C   0  0  0  0  0  0  0  0  0  0  0  0
    7.6648   -1.1229    0.0000 C   0  0  0  0  0  0  0  0  0  0  0  0
    8.1648   -0.2569    0.0000 C   0  0  0  0  0  0  0  0  0  0  0  0
    3.4030   -0.6229    0.0000 C   0  0  0  0  0  0  0  0  0  0  0  0
    3.4030   -1.6229    0.0000 C   0  0  0  0  0  0  0  0  0  0  0  0
    9.1648   -0.2569    0.0000 C   0  0  0  0  0  0  0  0  0  0  0  0
    7.6648    0.6092    0.0000 C   0  0  0  0  0  0  0  0  0  0  0  0
    9.6648    0.6092    0.0000 C   0  0  0  0  0  0  0  0  0  0  0  0
    8.1648    1.4752    0.0000 C   0  0  0  0  0  0  0  0  0  0  0  0
    9.1648    1.4752    0.0000 C   0  0  0  0  0  0  0  0  0  0  0  0
    4.2690   -2.7429    0.0000 H   0  0  0  0  0  0  0  0  0  0  0  0
    7.9748   -1.6598    0.0000 H   0  0  0  0  0  0  0  0  0  0  0  0
    2.8660   -1.9329    0.0000 H   0  0  0  0  0  0  0  0  0  0  0  0
    9.4748   -0.7938    0.0000 H   0  0  0  0  0  0  0  0  0  0  0  0
    7.0448    0.6092    0.0000 H   0  0  0  0  0  0  0  0  0  0  0  0
    7.8548    2.0121    0.0000 H   0  0  0  0  0  0  0  0  0  0  0  0
    3.7320    1.1871    0.0000 H   0  0  0  0  0  0  0  0  0  0  0  0
    2.0000   -0.4329    0.0000 H   0  0  0  0  0  0  0  0  0  0  0  0
   10.9748    0.0722    0.0000 H   0  0  0  0  0  0  0  0  0  0  0  0
    9.3548    2.8781    0.0000 H   0  0  0  0  0  0  0  0  0  0  0  0
  1  8  1  0  0  0  0
  1  9  1  0  0  0  0
  2 11  1  0  0  0  0
  2 28  1  0  0  0  0
  3 10  2  0  0  0  0
  4 15  1  0  0  0  0
  4 29  1  0  0  0  0
  5 19  1  0  0  0  0
  5 30  1  0  0  0  0
  6 21  1  0  0  0  0
  6 31  1  0  0  0  0
  7  8  2  0  0  0  0
  7 10  1  0  0  0  0
  7 12  1  0  0  0  0
  8 11  1  0  0  0  0
  9 10  1  0  0  0  0
  9 13  2  0  0  0  0
 11 15  2  0  0  0  0
 12 16  2  0  0  0  0
 12 22  1  0  0  0  0
 13 14  1  0  0  0  0
 13 23  1  0  0  0  0
 14 17  2  0  0  0  0
 14 18  1  0  0  0  0
 15 16  1  0  0  0  0
 16 24  1  0  0  0  0
 17 19  1  0  0  0  0
 17 25  1  0  0  0  0
 18 20  2  0  0  0  0
 18 26  1  0  0  0  0
 19 21  2  0  0  0  0
 20 21  1  0  0  0  0
 20 27  1  0  0  0  0
M  END
> <PUBCHEM_COMPOUND_CID>
5281292

> <PUBCHEM_COMPOUND_CANONICALIZED>
1

> <PUBCHEM_CACTVS_COMPLEXITY>
447

> <PUBCHEM_CACTVS_HBOND_ACCEPTOR>
6

> <PUBCHEM_CACTVS_HBOND_DONOR>
4

> <PUBCHEM_CACTVS_ROTATABLE_BOND>
1

> <PUBCHEM_CACTVS_SUBSKEYS>
AAADccBwOAAAAAAAAAAAAAAAAAAAASAAAAAwYAAAAAAAAEgBQAAAGgAACAAADASAmAAwBoAABgCIAqBSAAICCAAkIAAIiAFGiMgNJzaGNR6CeWOl4BULuYeK7LzOIAABCAAIQABAAAIQABCAAAAAAAAAAA==

> <PUBCHEM_IUPAC_OPENEYE_NAME>
(2Z)-2-[(3,4-dihydroxyphenyl)methylene]-6,7-dihydroxy-benzofuran-3-one

> <PUBCHEM_IUPAC_CAS_NAME>
(2Z)-2-[(3,4-dihydroxyphenyl)methylidene]-6,7-dihydroxy-3-benzofuranone

> <PUBCHEM_IUPAC_NAME>
(2Z)-2-[(3,4-dihydroxyphenyl)methylidene]-6,7-dihydroxy-1-benzofuran-3-one

> <PUBCHEM_IUPAC_SYSTEMATIC_NAME>
(2Z)-2-[[3,4-bis(oxidanyl)phenyl]methylidene]-6,7-bis(oxidanyl)-1-benzofuran-3-one

> <PUBCHEM_IUPAC_TRADITIONAL_NAME>
(2Z)-2-(3,4-dihydroxybenzylidene)-6,7-dihydroxy-coumaran-3-one

> <PUBCHEM_IUPAC_INCHI>
InChI=1S/C15H10O6/c16-9-3-1-7(5-11(9)18)6-12-13(19)8-2-4-10(17)14(20)15(8)21-12/h1-6,16-18,20H/b12-6-

> <PUBCHEM_IUPAC_INCHIKEY>
PNIFOHGQPKXLJE-SDQBBNPISA-N

> <PUBCHEM_XLOGP3_AA>
2.2

> <PUBCHEM_EXACT_MASS>
286.047738

> <PUBCHEM_MOLECULAR_FORMULA>
C15H10O6

> <PUBCHEM_MOLECULAR_WEIGHT>
286.2363

> <PUBCHEM_OPENEYE_CAN_SMILES>
C1=CC(=C(C=C1C=C2C(=O)C3=C(O2)C(=C(C=C3)O)O)O)O

> <PUBCHEM_OPENEYE_ISO_SMILES>
C1=CC(=C(C=C1/C=C\2/C(=O)C3=C(O2)C(=C(C=C3)O)O)O)O

> <PUBCHEM_CACTVS_TPSA>
107

> <PUBCHEM_MONOISOTOPIC_WEIGHT>
286.047738

> <PUBCHEM_TOTAL_CHARGE>
0

> <PUBCHEM_HEAVY_ATOM_COUNT>
21

> <PUBCHEM_ATOM_DEF_STEREO_COUNT>
0

> <PUBCHEM_ATOM_UDEF_STEREO_COUNT>
0

> <PUBCHEM_BOND_DEF_STEREO_COUNT>
1

> <PUBCHEM_BOND_UDEF_STEREO_COUNT>
0

> <PUBCHEM_ISOTOPIC_ATOM_COUNT>
0

> <PUBCHEM_COMPONENT_COUNT>
1

> <PUBCHEM_CACTVS_TAUTO_COUNT>
264

> <PUBCHEM_COORDINATE_TYPE>
1
5
255

> <PUBCHEM_BONDANNOTATIONS>
11  15  8
12  16  8
14  17  8
14  18  8
15  16  8
17  19  8
18  20  8
19  21  8
20  21  8
7  12  8
7  8  8
8  11  8

$$$$

