10033203
  -OEChem-07051213112D

110111  0     1  0  0  0  0  0999 V2000
    6.8671    5.0950    0.0000 O   0  0  0  0  0  0  0  0  0  0  0  0
    6.0010    1.5950    0.0000 O   0  0  0  0  0  0  0  0  0  0  0  0
    3.4030    6.0950    0.0000 O   0  0  0  0  0  0  0  0  0  0  0  0
    9.4651    0.5950    0.0000 O   0  0  0  0  0  0  0  0  0  0  0  0
    8.5991   -2.9050    0.0000 O   0  0  0  0  0  0  0  0  0  0  0  0
    9.4651    4.5950    0.0000 O   0  0  0  0  0  0  0  0  0  0  0  0
   10.3312    3.0950    0.0000 O   0  0  0  0  0  0  0  0  0  0  0  0
    5.1350   -3.9050    0.0000 O   0  0  0  0  0  0  0  0  0  0  0  0
    4.2690    9.5950    0.0000 O   0  0  0  0  0  0  0  0  0  0  0  0
    5.1350   -9.9050    0.0000 O   0  0  0  0  0  0  0  0  0  0  0  0
    6.8671    3.0950    0.0000 N   0  0  0  0  0  0  0  0  0  0  0  0
    5.1350    5.0950    0.0000 N   0  0  0  0  0  0  0  0  0  0  0  0
    7.7331    0.5950    0.0000 N   0  0  0  0  0  0  0  0  0  0  0  0
    7.7331   -1.4050    0.0000 N   0  0  0  0  0  0  0  0  0  0  0  0
    4.2690    7.5950    0.0000 N   0  0  0  0  0  0  0  0  0  0  0  0
    6.8671   -3.9050    0.0000 N   0  0  0  0  0  0  0  0  0  0  0  0
    6.8671   -5.9050    0.0000 N   0  0  0  0  0  0  0  0  0  0  0  0
    2.5369    9.5950    0.0000 N   0  0  0  0  0  0  0  0  0  0  0  0
    6.0010    3.5950    0.0000 C   0  0  1  0  0  0  0  0  0  0  0  0
    5.1350    3.0950    0.0000 C   0  0  0  0  0  0  0  0  0  0  0  0
    5.1350    6.0950    0.0000 C   0  0  1  0  0  0  0  0  0  0  0  0
    6.0010    6.5950    0.0000 C   0  0  0  0  0  0  0  0  0  0  0  0
    7.7331    1.5950    0.0000 C   0  0  2  0  0  0  0  0  0  0  0  0
    6.0010    4.5950    0.0000 C   0  0  0  0  0  0  0  0  0  0  0  0
    6.8671    2.0950    0.0000 C   0  0  0  0  0  0  0  0  0  0  0  0
    4.2690    3.5950    0.0000 C   0  0  0  0  0  0  0  0  0  0  0  0
    5.1350    2.0950    0.0000 C   0  0  0  0  0  0  0  0  0  0  0  0
    8.5991    2.0950    0.0000 C   0  0  0  0  0  0  0  0  0  0  0  0
    8.5991   -0.9050    0.0000 C   0  0  2  0  0  0  0  0  0  0  0  0
    6.0010    7.5950    0.0000 C   0  0  0  0  0  0  0  0  0  0  0  0
    6.8671    6.0950    0.0000 C   0  0  0  0  0  0  0  0  0  0  0  0
    4.2690    6.5950    0.0000 C   0  0  0  0  0  0  0  0  0  0  0  0
    8.5991    0.0950    0.0000 C   0  0  0  0  0  0  0  0  0  0  0  0
    8.5991    3.0950    0.0000 C   0  0  0  0  0  0  0  0  0  0  0  0
    9.4651   -1.4050    0.0000 C   0  0  0  0  0  0  0  0  0  0  0  0
   10.3312   -0.9050    0.0000 C   0  0  0  0  0  0  0  0  0  0  0  0
    6.8671   -2.9050    0.0000 C   0  0  1  0  0  0  0  0  0  0  0  0
    7.7331   -2.4050    0.0000 C   0  0  0  0  0  0  0  0  0  0  0  0
    9.4651    3.5950    0.0000 C   0  0  0  0  0  0  0  0  0  0  0  0
    3.4030    8.0950    0.0000 C   0  0  0  0  0  0  0  0  0  0  0  0
   11.1972   -1.4050    0.0000 C   0  0  0  0  0  0  0  0  0  0  0  0
   10.3312    0.0950    0.0000 C   0  0  0  0  0  0  0  0  0  0  0  0
    6.0010   -2.4050    0.0000 C   0  0  0  0  0  0  0  0  0  0  0  0
    6.0010   -5.4050    0.0000 C   0  0  2  0  0  0  0  0  0  0  0  0
    6.0010   -4.4050    0.0000 C   0  0  0  0  0  0  0  0  0  0  0  0
    5.1350   -5.9050    0.0000 C   0  0  0  0  0  0  0  0  0  0  0  0
   12.0632   -0.9050    0.0000 C   0  0  0  0  0  0  0  0  0  0  0  0
   11.1972    0.5950    0.0000 C   0  0  0  0  0  0  0  0  0  0  0  0
    3.4030    9.0950    0.0000 C   0  0  0  0  0  0  0  0  0  0  0  0
   12.0632    0.0950    0.0000 C   0  0  0  0  0  0  0  0  0  0  0  0
    5.1350   -6.9050    0.0000 C   0  0  0  0  0  0  0  0  0  0  0  0
    4.2690   -7.4050    0.0000 C   0  0  0  0  0  0  0  0  0  0  0  0
    6.0010   -7.4050    0.0000 C   0  0  0  0  0  0  0  0  0  0  0  0
    4.2690   -8.4050    0.0000 C   0  0  0  0  0  0  0  0  0  0  0  0
    6.0010   -8.4050    0.0000 C   0  0  0  0  0  0  0  0  0  0  0  0
    5.1350   -8.9050    0.0000 C   0  0  0  0  0  0  0  0  0  0  0  0
    6.5380    3.9050    0.0000 H   0  0  0  0  0  0  0  0  0  0  0  0
    5.1350    3.7150    0.0000 H   0  0  0  0  0  0  0  0  0  0  0  0
    5.6720    5.7850    0.0000 H   0  0  0  0  0  0  0  0  0  0  0  0
    6.5380    6.9050    0.0000 H   0  0  0  0  0  0  0  0  0  0  0  0
    8.2700    1.2850    0.0000 H   0  0  0  0  0  0  0  0  0  0  0  0
    7.4040    3.4050    0.0000 H   0  0  0  0  0  0  0  0  0  0  0  0
    4.5981    4.7850    0.0000 H   0  0  0  0  0  0  0  0  0  0  0  0
    4.5150    2.0950    0.0000 H   0  0  0  0  0  0  0  0  0  0  0  0
    5.1350    1.4750    0.0000 H   0  0  0  0  0  0  0  0  0  0  0  0
    5.7550    2.0950    0.0000 H   0  0  0  0  0  0  0  0  0  0  0  0
    4.5790    4.1319    0.0000 H   0  0  0  0  0  0  0  0  0  0  0  0
    3.7320    3.9050    0.0000 H   0  0  0  0  0  0  0  0  0  0  0  0
    3.9590    3.0581    0.0000 H   0  0  0  0  0  0  0  0  0  0  0  0
    8.8112    1.5124    0.0000 H   0  0  0  0  0  0  0  0  0  0  0  0
    9.2097    2.2027    0.0000 H   0  0  0  0  0  0  0  0  0  0  0  0
    7.1962    0.2850    0.0000 H   0  0  0  0  0  0  0  0  0  0  0  0
    8.5991   -1.5250    0.0000 H   0  0  0  0  0  0  0  0  0  0  0  0
    6.5571    5.5581    0.0000 H   0  0  0  0  0  0  0  0  0  0  0  0
    7.4040    5.7850    0.0000 H   0  0  0  0  0  0  0  0  0  0  0  0
    7.1771    6.6319    0.0000 H   0  0  0  0  0  0  0  0  0  0  0  0
    6.6210    7.5950    0.0000 H   0  0  0  0  0  0  0  0  0  0  0  0
    6.0010    8.2150    0.0000 H   0  0  0  0  0  0  0  0  0  0  0  0
    5.3810    7.5950    0.0000 H   0  0  0  0  0  0  0  0  0  0  0  0
    8.3871    3.6776    0.0000 H   0  0  0  0  0  0  0  0  0  0  0  0
    7.9885    2.9873    0.0000 H   0  0  0  0  0  0  0  0  0  0  0  0
    9.0666   -1.8800    0.0000 H   0  0  0  0  0  0  0  0  0  0  0  0
    9.8637   -1.8800    0.0000 H   0  0  0  0  0  0  0  0  0  0  0  0
    7.1962   -1.0950    0.0000 H   0  0  0  0  0  0  0  0  0  0  0  0
    4.8059    7.9050    0.0000 H   0  0  0  0  0  0  0  0  0  0  0  0
    6.3301   -3.2150    0.0000 H   0  0  0  0  0  0  0  0  0  0  0  0
    2.7924    8.2027    0.0000 H   0  0  0  0  0  0  0  0  0  0  0  0
    3.1909    7.5124    0.0000 H   0  0  0  0  0  0  0  0  0  0  0  0
    7.4040   -4.2150    0.0000 H   0  0  0  0  0  0  0  0  0  0  0  0
   11.1972   -2.0250    0.0000 H   0  0  0  0  0  0  0  0  0  0  0  0
    9.7942    0.4050    0.0000 H   0  0  0  0  0  0  0  0  0  0  0  0
    6.3110   -1.8681    0.0000 H   0  0  0  0  0  0  0  0  0  0  0  0
    5.4641   -2.0950    0.0000 H   0  0  0  0  0  0  0  0  0  0  0  0
    5.6910   -2.9419    0.0000 H   0  0  0  0  0  0  0  0  0  0  0  0
    6.5380   -5.0950    0.0000 H   0  0  0  0  0  0  0  0  0  0  0  0
    4.9230   -5.3224    0.0000 H   0  0  0  0  0  0  0  0  0  0  0  0
    4.5244   -6.0127    0.0000 H   0  0  0  0  0  0  0  0  0  0  0  0
   12.6002   -1.2150    0.0000 H   0  0  0  0  0  0  0  0  0  0  0  0
   11.1972    1.2150    0.0000 H   0  0  0  0  0  0  0  0  0  0  0  0
   12.6002    0.4050    0.0000 H   0  0  0  0  0  0  0  0  0  0  0  0
   10.0021    4.9050    0.0000 H   0  0  0  0  0  0  0  0  0  0  0  0
    7.4040   -5.5950    0.0000 H   0  0  0  0  0  0  0  0  0  0  0  0
    6.8671   -6.5250    0.0000 H   0  0  0  0  0  0  0  0  0  0  0  0
    3.7320   -7.0950    0.0000 H   0  0  0  0  0  0  0  0  0  0  0  0
    6.5380   -7.0950    0.0000 H   0  0  0  0  0  0  0  0  0  0  0  0
    2.5369   10.2150    0.0000 H   0  0  0  0  0  0  0  0  0  0  0  0
    2.0000    9.2850    0.0000 H   0  0  0  0  0  0  0  0  0  0  0  0
    3.7320   -8.7150    0.0000 H   0  0  0  0  0  0  0  0  0  0  0  0
    6.5380   -8.7150    0.0000 H   0  0  0  0  0  0  0  0  0  0  0  0
    4.5981  -10.2150    0.0000 H   0  0  0  0  0  0  0  0  0  0  0  0
  1 24  2  0  0  0  0
  2 25  2  0  0  0  0
  3 32  2  0  0  0  0
  4 33  2  0  0  0  0
  5 38  2  0  0  0  0
  6 39  1  0  0  0  0
  6101  1  0  0  0  0
  7 39  2  0  0  0  0
  8 45  2  0  0  0  0
  9 49  2  0  0  0  0
 10 56  1  0  0  0  0
 10110  1  0  0  0  0
 19 11  1  1  0  0  0
 11 25  1  0  0  0  0
 11 62  1  0  0  0  0
 21 12  1  6  0  0  0
 12 24  1  0  0  0  0
 12 63  1  0  0  0  0
 23 13  1  6  0  0  0
 13 33  1  0  0  0  0
 13 72  1  0  0  0  0
 29 14  1  6  0  0  0
 14 38  1  0  0  0  0
 14 84  1  0  0  0  0
 15 32  1  0  0  0  0
 15 40  1  0  0  0  0
 15 85  1  0  0  0  0
 37 16  1  6  0  0  0
 16 45  1  0  0  0  0
 16 89  1  0  0  0  0
 44 17  1  1  0  0  0
 17102  1  0  0  0  0
 17103  1  0  0  0  0
 18 49  1  0  0  0  0
 18106  1  0  0  0  0
 18107  1  0  0  0  0
 19 20  1  0  0  0  0
 19 24  1  0  0  0  0
 19 57  1  0  0  0  0
 20 26  1  0  0  0  0
 20 27  1  0  0  0  0
 20 58  1  0  0  0  0
 21 22  1  0  0  0  0
 21 32  1  0  0  0  0
 21 59  1  0  0  0  0
 22 30  1  0  0  0  0
 22 31  1  0  0  0  0
 22 60  1  0  0  0  0
 23 25  1  0  0  0  0
 23 28  1  0  0  0  0
 23 61  1  0  0  0  0
 26 67  1  0  0  0  0
 26 68  1  0  0  0  0
 26 69  1  0  0  0  0
 27 64  1  0  0  0  0
 27 65  1  0  0  0  0
 27 66  1  0  0  0  0
 28 34  1  0  0  0  0
 28 70  1  0  0  0  0
 28 71  1  0  0  0  0
 29 33  1  0  0  0  0
 29 35  1  0  0  0  0
 29 73  1  0  0  0  0
 30 77  1  0  0  0  0
 30 78  1  0  0  0  0
 30 79  1  0  0  0  0
 31 74  1  0  0  0  0
 31 75  1  0  0  0  0
 31 76  1  0  0  0  0
 34 39  1  0  0  0  0
 34 80  1  0  0  0  0
 34 81  1  0  0  0  0
 35 36  1  0  0  0  0
 35 82  1  0  0  0  0
 35 83  1  0  0  0  0
 36 41  2  0  0  0  0
 36 42  1  0  0  0  0
 37 38  1  0  0  0  0
 37 43  1  0  0  0  0
 37 86  1  0  0  0  0
 40 49  1  0  0  0  0
 40 87  1  0  0  0  0
 40 88  1  0  0  0  0
 41 47  1  0  0  0  0
 41 90  1  0  0  0  0
 42 48  2  0  0  0  0
 42 91  1  0  0  0  0
 43 92  1  0  0  0  0
 43 93  1  0  0  0  0
 43 94  1  0  0  0  0
 44 45  1  0  0  0  0
 44 46  1  0  0  0  0
 44 95  1  0  0  0  0
 46 51  1  0  0  0  0
 46 96  1  0  0  0  0
 46 97  1  0  0  0  0
 47 50  2  0  0  0  0
 47 98  1  0  0  0  0
 48 50  1  0  0  0  0
 48 99  1  0  0  0  0
 50100  1  0  0  0  0
 51 52  2  0  0  0  0
 51 53  1  0  0  0  0
 52 54  1  0  0  0  0
 52104  1  0  0  0  0
 53 55  2  0  0  0  0
 53105  1  0  0  0  0
 54 56  2  0  0  0  0
 54108  1  0  0  0  0
 55 56  1  0  0  0  0
 55109  1  0  0  0  0
M  END
> <PUBCHEM_COMPOUND_CID>
10033203

> <PUBCHEM_COMPOUND_CANONICALIZED>
1

> <PUBCHEM_CACTVS_COMPLEXITY>
1360

> <PUBCHEM_CACTVS_HBOND_ACCEPTOR>
11

> <PUBCHEM_CACTVS_HBOND_DONOR>
10

> <PUBCHEM_CACTVS_ROTATABLE_BOND>
22

> <PUBCHEM_CACTVS_SUBSKEYS>
AAADcfB//AAAAAAAAAAAAAAAAAAAAAAAAAAwYAAAAAAAAAABQAAAHgAQCAAADSzBmAQyDoLAAgCIAiHSGAACAAAgIAAIiIGOCIgIZjKCkTOUcAAk1hGImAe836KOIAAAAAAAAABAAAAAAAAAAAAAAAAAAA==

> <PUBCHEM_IUPAC_OPENEYE_NAME>
(4S)-4-[[(2S)-2-[[(2R)-2-[[(2S)-2-amino-3-(4-hydroxyphenyl)propanoyl]amino]propanoyl]amino]-3-phenyl-propanoyl]amino]-5-[[(1S)-1-[[(1S)-1-[(2-amino-2-oxo-ethyl)carbamoyl]-2-methyl-propyl]carbamoyl]-2-methyl-propyl]amino]-5-oxo-pentanoic acid

> <PUBCHEM_IUPAC_CAS_NAME>
(4S)-4-[[(2S)-2-[[(2R)-2-[[(2S)-2-amino-3-(4-hydroxyphenyl)-1-oxopropyl]amino]-1-oxopropyl]amino]-1-oxo-3-phenylpropyl]amino]-5-[[(2S)-1-[[(2S)-1-[(2-amino-2-oxoethyl)amino]-3-methyl-1-oxobutan-2-yl]amino]-3-methyl-1-oxobutan-2-yl]amino]-5-oxopentanoic acid

> <PUBCHEM_IUPAC_NAME>
(4S)-4-[[(2S)-2-[[(2R)-2-[[(2S)-2-amino-3-(4-hydroxyphenyl)propanoyl]amino]propanoyl]amino]-3-phenylpropanoyl]amino]-5-[[(2S)-1-[[(2S)-1-[(2-amino-2-oxoethyl)amino]-3-methyl-1-oxobutan-2-yl]amino]-3-methyl-1-oxobutan-2-yl]amino]-5-oxopentanoic acid

> <PUBCHEM_IUPAC_SYSTEMATIC_NAME>
(4S)-4-[[(2S)-2-[[(2R)-2-[[(2S)-2-azanyl-3-(4-hydroxyphenyl)propanoyl]amino]propanoyl]amino]-3-phenyl-propanoyl]amino]-5-[[(2S)-1-[[(2S)-1-[(2-azanyl-2-oxidanylidene-ethyl)amino]-3-methyl-1-oxidanylidene-butan-2-yl]amino]-3-methyl-1-oxidanylidene-butan-2-yl]amino]-5-oxidanylidene-pentanoic acid

> <PUBCHEM_IUPAC_TRADITIONAL_NAME>
(4S)-4-[[(2S)-2-[[(2R)-2-[[(2S)-2-amino-3-(4-hydroxyphenyl)propanoyl]amino]propanoyl]amino]-3-phenyl-propanoyl]amino]-5-[[(1S)-1-[[(1S)-1-[(2-amino-2-keto-ethyl)carbamoyl]-2-methyl-propyl]carbamoyl]-2-methyl-propyl]amino]-5-keto-valeric acid

> <PUBCHEM_IUPAC_INCHI>
InChI=1S/C38H54N8O10/c1-20(2)31(37(55)41-19-29(40)48)46-38(56)32(21(3)4)45-35(53)27(15-16-30(49)50)43-36(54)28(18-23-9-7-6-8-10-23)44-33(51)22(5)42-34(52)26(39)17-24-11-13-25(47)14-12-24/h6-14,20-22,26-28,31-32,47H,15-19,39H2,1-5H3,(H2,40,48)(H,41,55)(H,42,52)(H,43,54)(H,44,51)(H,45,53)(H,46,56)(H,49,50)/t22-,26+,27+,28+,31+,32+/m1/s1

> <PUBCHEM_IUPAC_INCHIKEY>
NUNBRHVOPFWRRG-RCEFDBTISA-N

> <PUBCHEM_XLOGP3_AA>
-1.3

> <PUBCHEM_EXACT_MASS>
782.39629

> <PUBCHEM_MOLECULAR_FORMULA>
C38H54N8O10

> <PUBCHEM_MOLECULAR_WEIGHT>
782.88296

> <PUBCHEM_OPENEYE_CAN_SMILES>
CC(C)C(C(=O)NC(C(C)C)C(=O)NCC(=O)N)NC(=O)C(CCC(=O)O)NC(=O)C(CC1=CC=CC=C1)NC(=O)C(C)NC(=O)C(CC2=CC=C(C=C2)O)N

> <PUBCHEM_OPENEYE_ISO_SMILES>
C[C@H](C(=O)N[C@@H](CC1=CC=CC=C1)C(=O)N[C@@H](CCC(=O)O)C(=O)N[C@@H](C(C)C)C(=O)N[C@@H](C(C)C)C(=O)NCC(=O)N)NC(=O)[C@H](CC2=CC=C(C=C2)O)N

> <PUBCHEM_CACTVS_TPSA>
301

> <PUBCHEM_MONOISOTOPIC_WEIGHT>
782.39629

> <PUBCHEM_TOTAL_CHARGE>
0

> <PUBCHEM_HEAVY_ATOM_COUNT>
56

> <PUBCHEM_ATOM_DEF_STEREO_COUNT>
6

> <PUBCHEM_ATOM_UDEF_STEREO_COUNT>
0

> <PUBCHEM_BOND_DEF_STEREO_COUNT>
0

> <PUBCHEM_BOND_UDEF_STEREO_COUNT>
0

> <PUBCHEM_ISOTOPIC_ATOM_COUNT>
0

> <PUBCHEM_COMPONENT_COUNT>
1

> <PUBCHEM_CACTVS_TAUTO_COUNT>
384

> <PUBCHEM_COORDINATE_TYPE>
1
5
255

> <PUBCHEM_BONDANNOTATIONS>
19  11  5
21  12  6
23  13  6
29  14  6
37  16  6
44  17  5
36  41  8
36  42  8
41  47  8
42  48  8
47  50  8
48  50  8
51  52  8
51  53  8
52  54  8
53  55  8
54  56  8
55  56  8

$$$$

