9045
  -OEChem-06261203212D

 78 79  0     0  0  0  0  0  0999 V2000
    4.5981    0.2500    0.0000 O   0  0  0  0  0  0  0  0  0  0  0  0
    7.1962   -0.2500    0.0000 O   0  0  0  0  0  0  0  0  0  0  0  0
    3.7320   -3.2500    0.0000 N   0  3  0  0  0  0  0  0  0  0  0  0
    8.0622    3.2500    0.0000 N   0  3  0  0  0  0  0  0  0  0  0  0
    5.4641   -1.2500    0.0000 N   0  0  0  0  0  0  0  0  0  0  0  0
    6.3301    1.2500    0.0000 N   0  0  0  0  0  0  0  0  0  0  0  0
    4.5981   -2.7500    0.0000 C   0  0  0  0  0  0  0  0  0  0  0  0
    7.1962    2.7500    0.0000 C   0  0  0  0  0  0  0  0  0  0  0  0
    2.8660   -3.7500    0.0000 C   0  0  0  0  0  0  0  0  0  0  0  0
    8.9282    3.7500    0.0000 C   0  0  0  0  0  0  0  0  0  0  0  0
    3.2320   -2.3840    0.0000 C   0  0  0  0  0  0  0  0  0  0  0  0
    4.2320   -4.1160    0.0000 C   0  0  0  0  0  0  0  0  0  0  0  0
    7.5622    4.1160    0.0000 C   0  0  0  0  0  0  0  0  0  0  0  0
    8.5622    2.3840    0.0000 C   0  0  0  0  0  0  0  0  0  0  0  0
    4.5981   -1.7500    0.0000 C   0  0  0  0  0  0  0  0  0  0  0  0
    7.1962    1.7500    0.0000 C   0  0  0  0  0  0  0  0  0  0  0  0
    2.8660   -4.7500    0.0000 C   0  0  0  0  0  0  0  0  0  0  0  0
    8.9282    4.7500    0.0000 C   0  0  0  0  0  0  0  0  0  0  0  0
    6.5622    4.1160    0.0000 C   0  0  0  0  0  0  0  0  0  0  0  0
    9.5622    2.3840    0.0000 C   0  0  0  0  0  0  0  0  0  0  0  0
    5.2320   -4.1160    0.0000 C   0  0  0  0  0  0  0  0  0  0  0  0
    2.2320   -2.3840    0.0000 C   0  0  0  0  0  0  0  0  0  0  0  0
    9.7942    5.2500    0.0000 C   0  0  0  0  0  0  0  0  0  0  0  0
    2.0000   -5.2500    0.0000 C   0  0  0  0  0  0  0  0  0  0  0  0
    8.0622    5.2500    0.0000 C   0  0  0  0  0  0  0  0  0  0  0  0
    3.7320   -5.2500    0.0000 C   0  0  0  0  0  0  0  0  0  0  0  0
    5.4641   -0.2500    0.0000 C   0  0  0  0  0  0  0  0  0  0  0  0
    6.3301    0.2500    0.0000 C   0  0  0  0  0  0  0  0  0  0  0  0
    9.7942    6.2500    0.0000 C   0  0  0  0  0  0  0  0  0  0  0  0
    2.0000   -6.2500    0.0000 C   0  0  0  0  0  0  0  0  0  0  0  0
    8.0622    6.2500    0.0000 C   0  0  0  0  0  0  0  0  0  0  0  0
    3.7320   -6.2500    0.0000 C   0  0  0  0  0  0  0  0  0  0  0  0
    2.8660   -6.7500    0.0000 C   0  0  0  0  0  0  0  0  0  0  0  0
    8.9282    6.7500    0.0000 C   0  0  0  0  0  0  0  0  0  0  0  0
    4.8101   -3.3326    0.0000 H   0  0  0  0  0  0  0  0  0  0  0  0
    5.2087   -2.6423    0.0000 H   0  0  0  0  0  0  0  0  0  0  0  0
    6.9841    3.3326    0.0000 H   0  0  0  0  0  0  0  0  0  0  0  0
    6.5856    2.6423    0.0000 H   0  0  0  0  0  0  0  0  0  0  0  0
    9.1403    3.1674    0.0000 H   0  0  0  0  0  0  0  0  0  0  0  0
    9.5388    3.8577    0.0000 H   0  0  0  0  0  0  0  0  0  0  0  0
    2.6540   -3.1674    0.0000 H   0  0  0  0  0  0  0  0  0  0  0  0
    2.2554   -3.8577    0.0000 H   0  0  0  0  0  0  0  0  0  0  0  0
    8.1448    4.3281    0.0000 H   0  0  0  0  0  0  0  0  0  0  0  0
    7.4545    4.7266    0.0000 H   0  0  0  0  0  0  0  0  0  0  0  0
    7.9796    2.1719    0.0000 H   0  0  0  0  0  0  0  0  0  0  0  0
    8.6698    1.7734    0.0000 H   0  0  0  0  0  0  0  0  0  0  0  0
    3.6494   -4.3281    0.0000 H   0  0  0  0  0  0  0  0  0  0  0  0
    4.3397   -4.7266    0.0000 H   0  0  0  0  0  0  0  0  0  0  0  0
    3.8147   -2.1719    0.0000 H   0  0  0  0  0  0  0  0  0  0  0  0
    3.1244   -1.7734    0.0000 H   0  0  0  0  0  0  0  0  0  0  0  0
    7.4082    1.1674    0.0000 H   0  0  0  0  0  0  0  0  0  0  0  0
    7.8067    1.8577    0.0000 H   0  0  0  0  0  0  0  0  0  0  0  0
    4.3860   -1.1674    0.0000 H   0  0  0  0  0  0  0  0  0  0  0  0
    3.9875   -1.8577    0.0000 H   0  0  0  0  0  0  0  0  0  0  0  0
    6.5622    4.7360    0.0000 H   0  0  0  0  0  0  0  0  0  0  0  0
    5.9422    4.1160    0.0000 H   0  0  0  0  0  0  0  0  0  0  0  0
    6.5622    3.4960    0.0000 H   0  0  0  0  0  0  0  0  0  0  0  0
    9.5622    1.7640    0.0000 H   0  0  0  0  0  0  0  0  0  0  0  0
   10.1822    2.3840    0.0000 H   0  0  0  0  0  0  0  0  0  0  0  0
    9.5622    3.0040    0.0000 H   0  0  0  0  0  0  0  0  0  0  0  0
    5.2320   -4.7360    0.0000 H   0  0  0  0  0  0  0  0  0  0  0  0
    5.8520   -4.1160    0.0000 H   0  0  0  0  0  0  0  0  0  0  0  0
    5.2320   -3.4960    0.0000 H   0  0  0  0  0  0  0  0  0  0  0  0
    2.2320   -1.7640    0.0000 H   0  0  0  0  0  0  0  0  0  0  0  0
    1.6120   -2.3840    0.0000 H   0  0  0  0  0  0  0  0  0  0  0  0
    2.2320   -3.0040    0.0000 H   0  0  0  0  0  0  0  0  0  0  0  0
    6.0010   -1.5600    0.0000 H   0  0  0  0  0  0  0  0  0  0  0  0
    5.7932    1.5600    0.0000 H   0  0  0  0  0  0  0  0  0  0  0  0
   10.3312    4.9400    0.0000 H   0  0  0  0  0  0  0  0  0  0  0  0
    1.4631   -4.9400    0.0000 H   0  0  0  0  0  0  0  0  0  0  0  0
    7.5252    4.9400    0.0000 H   0  0  0  0  0  0  0  0  0  0  0  0
    4.2690   -4.9400    0.0000 H   0  0  0  0  0  0  0  0  0  0  0  0
   10.3312    6.5600    0.0000 H   0  0  0  0  0  0  0  0  0  0  0  0
    1.4631   -6.5600    0.0000 H   0  0  0  0  0  0  0  0  0  0  0  0
    7.5252    6.5600    0.0000 H   0  0  0  0  0  0  0  0  0  0  0  0
    4.2690   -6.5600    0.0000 H   0  0  0  0  0  0  0  0  0  0  0  0
    8.9282    7.3700    0.0000 H   0  0  0  0  0  0  0  0  0  0  0  0
    2.8660   -7.3700    0.0000 H   0  0  0  0  0  0  0  0  0  0  0  0
  1 27  2  0  0  0  0
  2 28  2  0  0  0  0
  3  7  1  0  0  0  0
  3  9  1  0  0  0  0
  3 11  1  0  0  0  0
  3 12  1  0  0  0  0
  4  8  1  0  0  0  0
  4 10  1  0  0  0  0
  4 13  1  0  0  0  0
  4 14  1  0  0  0  0
  5 15  1  0  0  0  0
  5 27  1  0  0  0  0
  5 67  1  0  0  0  0
  6 16  1  0  0  0  0
  6 28  1  0  0  0  0
  6 68  1  0  0  0  0
  7 15  1  0  0  0  0
  7 35  1  0  0  0  0
  7 36  1  0  0  0  0
  8 16  1  0  0  0  0
  8 37  1  0  0  0  0
  8 38  1  0  0  0  0
  9 17  1  0  0  0  0
  9 41  1  0  0  0  0
  9 42  1  0  0  0  0
 10 18  1  0  0  0  0
 10 39  1  0  0  0  0
 10 40  1  0  0  0  0
 11 22  1  0  0  0  0
 11 49  1  0  0  0  0
 11 50  1  0  0  0  0
 12 21  1  0  0  0  0
 12 47  1  0  0  0  0
 12 48  1  0  0  0  0
 13 19  1  0  0  0  0
 13 43  1  0  0  0  0
 13 44  1  0  0  0  0
 14 20  1  0  0  0  0
 14 45  1  0  0  0  0
 14 46  1  0  0  0  0
 15 53  1  0  0  0  0
 15 54  1  0  0  0  0
 16 51  1  0  0  0  0
 16 52  1  0  0  0  0
 17 24  2  0  0  0  0
 17 26  1  0  0  0  0
 18 23  2  0  0  0  0
 18 25  1  0  0  0  0
 19 55  1  0  0  0  0
 19 56  1  0  0  0  0
 19 57  1  0  0  0  0
 20 58  1  0  0  0  0
 20 59  1  0  0  0  0
 20 60  1  0  0  0  0
 21 61  1  0  0  0  0
 21 62  1  0  0  0  0
 21 63  1  0  0  0  0
 22 64  1  0  0  0  0
 22 65  1  0  0  0  0
 22 66  1  0  0  0  0
 23 29  1  0  0  0  0
 23 69  1  0  0  0  0
 24 30  1  0  0  0  0
 24 70  1  0  0  0  0
 25 31  2  0  0  0  0
 25 71  1  0  0  0  0
 26 32  2  0  0  0  0
 26 72  1  0  0  0  0
 27 28  1  0  0  0  0
 29 34  2  0  0  0  0
 29 73  1  0  0  0  0
 30 33  2  0  0  0  0
 30 74  1  0  0  0  0
 31 34  1  0  0  0  0
 31 75  1  0  0  0  0
 32 33  1  0  0  0  0
 32 76  1  0  0  0  0
 33 78  1  0  0  0  0
 34 77  1  0  0  0  0
M  CHG  2   3   1   4   1
M  END
> <PUBCHEM_COMPOUND_CID>
9045

> <PUBCHEM_COMPOUND_CANONICALIZED>
1

> <PUBCHEM_CACTVS_COMPLEXITY>
537

> <PUBCHEM_CACTVS_HBOND_ACCEPTOR>
2

> <PUBCHEM_CACTVS_HBOND_DONOR>
2

> <PUBCHEM_CACTVS_ROTATABLE_BOND>
14

> <PUBCHEM_CACTVS_SUBSKEYS>
AAADcfB7sAAAAAAAAAAAAAAAAAAAAAAAAAAwYAAAAAAAAAABQAAAHgAQAAAADADBmAQyAIPAAACIAiFSEACCAAAgAAAIiICIBIgIYCKAkTGUIAhglgCIiAcQgAAOAAAAAAAAAAAAAAAAAAAAAAAAAAAAAA==

> <PUBCHEM_IUPAC_OPENEYE_NAME>
benzyl-[2-[[2-[2-[benzyl(diethyl)ammonio]ethylamino]-2-oxo-acetyl]amino]ethyl]-diethyl-ammonium

> <PUBCHEM_IUPAC_CAS_NAME>
2-[[2-[2-[diethyl-(phenylmethyl)ammonio]ethylamino]-1,2-dioxoethyl]amino]ethyl-diethyl-(phenylmethyl)ammonium

> <PUBCHEM_IUPAC_NAME>
benzyl-[2-[[2-[2-[benzyl(diethyl)azaniumyl]ethylamino]-2-oxoacetyl]amino]ethyl]-diethylazanium

> <PUBCHEM_IUPAC_SYSTEMATIC_NAME>
2-[[2-[2-[diethyl-(phenylmethyl)azaniumyl]ethylamino]-2-oxidanylidene-ethanoyl]amino]ethyl-diethyl-(phenylmethyl)azanium

> <PUBCHEM_IUPAC_TRADITIONAL_NAME>
benzyl-[2-[[2-[2-[benzyl(diethyl)ammonio]ethylamino]-2-keto-acetyl]amino]ethyl]-diethyl-ammonium

> <PUBCHEM_IUPAC_INCHI>
InChI=1S/C28H42N4O2/c1-5-31(6-2,23-25-15-11-9-12-16-25)21-19-29-27(33)28(34)30-20-22-32(7-3,8-4)24-26-17-13-10-14-18-26/h9-18H,5-8,19-24H2,1-4H3/p+2

> <PUBCHEM_IUPAC_INCHIKEY>
RSNNGKAJXGTEOW-UHFFFAOYSA-P

> <PUBCHEM_XLOGP3_AA>
3.8

> <PUBCHEM_EXACT_MASS>
468.346427

> <PUBCHEM_MOLECULAR_FORMULA>
C28H44N4O2+2

> <PUBCHEM_MOLECULAR_WEIGHT>
468.67456

> <PUBCHEM_OPENEYE_CAN_SMILES>
CC[N+](CC)(CCNC(=O)C(=O)NCC[N+](CC)(CC)CC1=CC=CC=C1)CC2=CC=CC=C2

> <PUBCHEM_OPENEYE_ISO_SMILES>
CC[N+](CC)(CCNC(=O)C(=O)NCC[N+](CC)(CC)CC1=CC=CC=C1)CC2=CC=CC=C2

> <PUBCHEM_CACTVS_TPSA>
58.2

> <PUBCHEM_MONOISOTOPIC_WEIGHT>
468.346427

> <PUBCHEM_TOTAL_CHARGE>
2

> <PUBCHEM_HEAVY_ATOM_COUNT>
34

> <PUBCHEM_ATOM_DEF_STEREO_COUNT>
0

> <PUBCHEM_ATOM_UDEF_STEREO_COUNT>
0

> <PUBCHEM_BOND_DEF_STEREO_COUNT>
0

> <PUBCHEM_BOND_UDEF_STEREO_COUNT>
0

> <PUBCHEM_ISOTOPIC_ATOM_COUNT>
0

> <PUBCHEM_COMPONENT_COUNT>
1

> <PUBCHEM_CACTVS_TAUTO_COUNT>
3

> <PUBCHEM_COORDINATE_TYPE>
1
5
255

> <PUBCHEM_BONDANNOTATIONS>
17  24  8
17  26  8
18  23  8
18  25  8
23  29  8
24  30  8
25  31  8
26  32  8
29  34  8
30  33  8
31  34  8
32  33  8

$$$$

