54691342
  -OEChem-07051213033D

 24 25  0     0  0  0  0  0  0999 V2000
   -0.5421   -1.4874    0.0240 O   0  0  0  0  0  0  0  0  0  0  0  0
   -1.7770    2.5032    0.0384 O   0  0  0  0  0  0  0  0  0  0  0  0
    4.0512   -0.1647   -0.0149 O   0  0  0  0  0  0  0  0  0  0  0  0
   -2.7107   -2.1751   -0.0487 O   0  0  0  0  0  0  0  0  0  0  0  0
   -3.7034    0.3471   -0.0084 N   0  0  0  0  0  0  0  0  0  0  0  0
   -0.0001    0.8887    0.0088 C   0  0  0  0  0  0  0  0  0  0  0  0
    0.4039   -0.4452    0.0215 C   0  0  0  0  0  0  0  0  0  0  0  0
    1.7482   -0.8231    0.0173 C   0  0  0  0  0  0  0  0  0  0  0  0
   -1.4410    1.1655    0.0196 C   0  0  0  0  0  0  0  0  0  0  0  0
    1.0046    1.8654   -0.0303 C   0  0  0  0  0  0  0  0  0  0  0  0
    2.7290    0.1616   -0.0089 C   0  0  0  0  0  0  0  0  0  0  0  0
   -2.3465    0.1733   -0.0020 C   0  0  0  0  0  0  0  0  0  0  0  0
    2.3576    1.5040   -0.0361 C   0  0  0  0  0  0  0  0  0  0  0  0
    2.1344   -2.2663    0.0347 C   0  0  0  0  0  0  0  0  0  0  0  0
   -1.9082   -1.2470   -0.0149 C   0  0  0  0  0  0  0  0  0  0  0  0
    0.7525    2.9231   -0.0516 H   0  0  0  0  0  0  0  0  0  0  0  0
    3.1110    2.2873   -0.0618 H   0  0  0  0  0  0  0  0  0  0  0  0
    1.9374   -2.7182   -0.9429 H   0  0  0  0  0  0  0  0  0  0  0  0
    3.1919   -2.4207    0.2703 H   0  0  0  0  0  0  0  0  0  0  0  0
    1.5668   -2.8091    0.7986 H   0  0  0  0  0  0  0  0  0  0  0  0
   -4.1110    1.2722   -0.0003 H   0  0  0  0  0  0  0  0  0  0  0  0
   -4.3109   -0.4631   -0.0228 H   0  0  0  0  0  0  0  0  0  0  0  0
   -2.7447    2.5814    0.0424 H   0  0  0  0  0  0  0  0  0  0  0  0
    4.5798    0.6515   -0.0354 H   0  0  0  0  0  0  0  0  0  0  0  0
  1  7  1  0  0  0  0
  1 15  1  0  0  0  0
  2  9  1  0  0  0  0
  2 23  1  0  0  0  0
  3 11  1  0  0  0  0
  3 24  1  0  0  0  0
  4 15  2  0  0  0  0
  5 12  1  0  0  0  0
  5 21  1  0  0  0  0
  5 22  1  0  0  0  0
  6  7  2  0  0  0  0
  6  9  1  0  0  0  0
  6 10  1  0  0  0  0
  7  8  1  0  0  0  0
  8 11  2  0  0  0  0
  8 14  1  0  0  0  0
  9 12  2  0  0  0  0
 10 13  2  0  0  0  0
 10 16  1  0  0  0  0
 11 13  1  0  0  0  0
 12 15  1  0  0  0  0
 13 17  1  0  0  0  0
 14 18  1  0  0  0  0
 14 19  1  0  0  0  0
 14 20  1  0  0  0  0
M  END
> <PUBCHEM_COMPOUND_CID>
54691342

> <PUBCHEM_CONFORMER_RMSD>
0.4

> <PUBCHEM_CONFORMER_DIVERSEORDER>
1

> <PUBCHEM_MMFF94_PARTIAL_CHARGES>
21
1 -0.23
10 -0.15
11 0.08
12 0.11
13 -0.15
14 0.14
15 0.71
16 0.15
17 0.15
2 -0.53
21 0.4
22 0.4
23 0.45
24 0.45
3 -0.53
4 -0.57
5 -0.9
6 0.03
7 0.08
8 -0.14
9 0.05

> <PUBCHEM_EFFECTIVE_ROTOR_COUNT>
0

> <PUBCHEM_PHARMACOPHORE_FEATURES>
7
1 2 donor
1 3 donor
1 4 acceptor
1 5 cation
1 5 donor
6 1 6 7 9 12 15 rings
6 6 7 8 10 11 13 rings

> <PUBCHEM_HEAVY_ATOM_COUNT>
15

> <PUBCHEM_ATOM_DEF_STEREO_COUNT>
0

> <PUBCHEM_ATOM_UDEF_STEREO_COUNT>
0

> <PUBCHEM_BOND_DEF_STEREO_COUNT>
0

> <PUBCHEM_BOND_UDEF_STEREO_COUNT>
0

> <PUBCHEM_ISOTOPIC_ATOM_COUNT>
0

> <PUBCHEM_COMPONENT_COUNT>
1

> <PUBCHEM_CACTVS_TAUTO_COUNT>
28

> <PUBCHEM_CONFORMER_ID>
0342860E00000001

> <PUBCHEM_MMFF94_ENERGY>
49.928

> <PUBCHEM_FEATURE_SELFOVERLAP>
35.548

> <PUBCHEM_SHAPE_FINGERPRINT>
10608611 8 18410016524251078400
10967382 1 18410574028111673603
11132069 177 18410299086065199896
11471102 20 18411142407035755965
12382932 28 18335702710835471627
13140716 1 18266176136719676801
13221675 6 18410853269747711794
13380535 76 18410576197065221143
13897977 150 18410015390590423029
14144814 61 18338516446979792216
14325111 11 18338797793149909196
14790565 3 14525639435295939811
15196674 1 18338797805965966468
15442244 35 18194403513957153378
15536298 74 18261955137793689664
16945 1 18410856568277352840
193761 8 18338516459833006440
19591789 44 15812544930643188622
20201158 50 18410857663504582318
21267235 1 18338789027195680015
21501502 16 18339359660713315788
22721475 48 18411133619458776188
2334 1 17978509732697144161
23402539 116 18334305287834527805
23463225 33 18413673521789807266
23552423 10 18342455885446551095
23559900 14 17974287922687594238
2748010 2 18050569542964648572
3312278 4 18410853239661796339
528886 8 18410016519897666738
53812653 166 18334862705780219080
7364860 26 18334295396588050814
8809292 202 18272084959504947026

> <PUBCHEM_SHAPE_MULTIPOLES>
280.23
5.19
2.42
0.59
0.18
0.14
0
0.6
0.04
-0.29
0
0.03
-0.01
-0.06

> <PUBCHEM_SHAPE_SELFOVERLAP>
614.809

> <PUBCHEM_SHAPE_VOLUME>
151.5

> <PUBCHEM_COORDINATE_TYPE>
2
5
10

$$$$

