9688
  -OEChem-06261203563D

 22 23  0     0  0  0  0  0  0999 V2000
    0.3981    2.4040    0.0296 O   0  0  0  0  0  0  0  0  0  0  0  0
    3.3115   -2.0511    0.0041 O   0  0  0  0  0  0  0  0  0  0  0  0
    0.4011    0.0210    0.0117 C   0  0  0  0  0  0  0  0  0  0  0  0
   -1.0678   -0.1047    0.0038 C   0  0  0  0  0  0  0  0  0  0  0  0
    1.0495    1.3641    0.0063 C   0  0  0  0  0  0  0  0  0  0  0  0
    1.1582   -1.0858    0.0069 C   0  0  0  0  0  0  0  0  0  0  0  0
   -1.7685   -0.1732    1.2079 C   0  0  0  0  0  0  0  0  0  0  0  0
   -1.7568   -0.1553   -1.2079 C   0  0  0  0  0  0  0  0  0  0  0  0
    2.6353   -1.0284   -0.0008 C   0  0  0  0  0  0  0  0  0  0  0  0
    2.5265    1.4144   -0.0166 C   0  0  0  0  0  0  0  0  0  0  0  0
   -3.1583   -0.2923    1.2003 C   0  0  0  0  0  0  0  0  0  0  0  0
   -3.1465   -0.2743   -1.2155 C   0  0  0  0  0  0  0  0  0  0  0  0
    3.2650    0.3043   -0.0185 C   0  0  0  0  0  0  0  0  0  0  0  0
   -3.8473   -0.3427   -0.0114 C   0  0  0  0  0  0  0  0  0  0  0  0
    0.7171   -2.0785    0.0064 H   0  0  0  0  0  0  0  0  0  0  0  0
   -1.2457   -0.1341    2.1606 H   0  0  0  0  0  0  0  0  0  0  0  0
   -1.2248   -0.1021   -2.1548 H   0  0  0  0  0  0  0  0  0  0  0  0
    2.9948    2.3925   -0.0278 H   0  0  0  0  0  0  0  0  0  0  0  0
   -3.7040   -0.3454    2.1377 H   0  0  0  0  0  0  0  0  0  0  0  0
   -3.6832   -0.3134   -2.1589 H   0  0  0  0  0  0  0  0  0  0  0  0
    4.3478    0.3530   -0.0321 H   0  0  0  0  0  0  0  0  0  0  0  0
   -4.9294   -0.4353   -0.0174 H   0  0  0  0  0  0  0  0  0  0  0  0
  1  5  2  0  0  0  0
  2  9  2  0  0  0  0
  3  4  1  0  0  0  0
  3  5  1  0  0  0  0
  3  6  2  0  0  0  0
  4  7  2  0  0  0  0
  4  8  1  0  0  0  0
  5 10  1  0  0  0  0
  6  9  1  0  0  0  0
  6 15  1  0  0  0  0
  7 11  1  0  0  0  0
  7 16  1  0  0  0  0
  8 12  2  0  0  0  0
  8 17  1  0  0  0  0
  9 13  1  0  0  0  0
 10 13  2  0  0  0  0
 10 18  1  0  0  0  0
 11 14  2  0  0  0  0
 11 19  1  0  0  0  0
 12 14  1  0  0  0  0
 12 20  1  0  0  0  0
 13 21  1  0  0  0  0
 14 22  1  0  0  0  0
M  END
> <PUBCHEM_COMPOUND_CID>
9688

> <PUBCHEM_CONFORMER_RMSD>
0.4

> <PUBCHEM_CONFORMER_DIVERSEORDER>
1
3
2

> <PUBCHEM_MMFF94_PARTIAL_CHARGES>
22
1 -0.57
10 -0.14
11 -0.15
12 -0.15
13 -0.14
14 -0.15
15 0.15
16 0.15
17 0.15
18 0.15
19 0.15
2 -0.57
20 0.15
21 0.15
22 0.15
3 -0.01
4 0.03
5 0.54
6 -0.14
7 -0.15
8 -0.15
9 0.54

> <PUBCHEM_EFFECTIVE_ROTOR_COUNT>
1

> <PUBCHEM_PHARMACOPHORE_FEATURES>
4
1 1 acceptor
1 2 acceptor
6 3 5 6 9 10 13 rings
6 4 7 8 11 12 14 rings

> <PUBCHEM_HEAVY_ATOM_COUNT>
14

> <PUBCHEM_ATOM_DEF_STEREO_COUNT>
0

> <PUBCHEM_ATOM_UDEF_STEREO_COUNT>
0

> <PUBCHEM_BOND_DEF_STEREO_COUNT>
0

> <PUBCHEM_BOND_UDEF_STEREO_COUNT>
0

> <PUBCHEM_ISOTOPIC_ATOM_COUNT>
0

> <PUBCHEM_COMPONENT_COUNT>
1

> <PUBCHEM_CACTVS_TAUTO_COUNT>
1

> <PUBCHEM_CONFORMER_ID>
000025D800000001

> <PUBCHEM_MMFF94_ENERGY>
39.0547

> <PUBCHEM_FEATURE_SELFOVERLAP>
20.297

> <PUBCHEM_SHAPE_FINGERPRINT>
10219947 1 18335137596271436390
10980938 120 18409730621389568620
11031198 65 18271521983818515356
11471102 20 18412547591454326708
11578080 2 17388574667512627249
12236239 1 17676485029929619627
12932764 1 17749108872292536481
13296908 3 18202282515333979043
13538477 17 17313670343570497055
14144814 61 18113898247470760079
14251717 144 18409735036331294254
14993402 34 18113336388328197534
15219456 202 17988644068983375893
15775835 57 17604141541414895137
16945 1 18338517439391732388
17844478 74 17917990572864068973
1813 80 17970611086641235998
18186145 218 18408319977782812543
19049666 15 17845947332553999117
19422 9 17967250892759097711
200 152 18260555506883740823
20201158 50 18202565076937324786
20279233 1 17775006769146740131
20361792 2 18335143128131239558
204376 136 18122066395301084192
20645477 70 18411427236350672743
20715346 28 17775002345509649731
20871998 22 18116707620366437518
21639500 275 18265341607415507861
22802520 49 17916876827472152693
23557571 272 16773795870413781964
23559900 14 16988569034866761978
2748010 2 18266751357922352172
474 4 17752780021575303352
77492 1 17676485025624089827
81228 2 17980762958799077232

> <PUBCHEM_SHAPE_MULTIPOLES>
276.37
6.3
1.62
1.04
1.37
0.38
0.01
-1.49
0.03
-1.79
-0.01
1.06
-0.07
0.01

> <PUBCHEM_SHAPE_SELFOVERLAP>
600.759

> <PUBCHEM_SHAPE_VOLUME>
149.7

> <PUBCHEM_COORDINATE_TYPE>
2
5
10

$$$$

