442651
  -OEChem-07051212593D

 31 32  0     1  0  0  0  0  0999 V2000
    0.9451    2.0723    0.0727 O   0  0  0  0  0  0  0  0  0  0  0  0
   -2.3853    0.9384   -0.3604 N   0  0  0  0  0  0  0  0  0  0  0  0
   -0.0919   -0.1149   -0.3785 C   0  0  1  0  0  0  0  0  0  0  0  0
    0.5485    0.8390    0.6798 C   0  0  1  0  0  0  0  0  0  0  0  0
    1.0043   -0.5519   -1.3883 C   0  0  0  0  0  0  0  0  0  0  0  0
   -0.7136   -1.3685    0.2987 C   0  0  0  0  0  0  0  0  0  0  0  0
   -1.2259    0.5832   -1.1835 C   0  0  0  0  0  0  0  0  0  0  0  0
    1.7994    0.2458    1.3400 C   0  0  0  0  0  0  0  0  0  0  0  0
    2.2431   -1.1485   -0.7215 C   0  0  0  0  0  0  0  0  0  0  0  0
    2.8381   -0.2037    0.3147 C   0  0  0  0  0  0  0  0  0  0  0  0
   -1.9809   -1.0350    1.0883 C   0  0  0  0  0  0  0  0  0  0  0  0
   -2.9809   -0.2561    0.2381 C   0  0  0  0  0  0  0  0  0  0  0  0
   -0.1671    1.0960    1.4678 H   0  0  0  0  0  0  0  0  0  0  0  0
    1.3156    0.3128   -1.9895 H   0  0  0  0  0  0  0  0  0  0  0  0
    0.5965   -1.2839   -2.0970 H   0  0  0  0  0  0  0  0  0  0  0  0
   -0.0025   -1.8712    0.9617 H   0  0  0  0  0  0  0  0  0  0  0  0
   -0.9774   -2.1032   -0.4744 H   0  0  0  0  0  0  0  0  0  0  0  0
   -0.8501    1.4929   -1.6651 H   0  0  0  0  0  0  0  0  0  0  0  0
   -1.5577   -0.0679   -2.0042 H   0  0  0  0  0  0  0  0  0  0  0  0
    1.5255   -0.6002    1.9798 H   0  0  0  0  0  0  0  0  0  0  0  0
    2.2629    0.9981    1.9902 H   0  0  0  0  0  0  0  0  0  0  0  0
    2.9964   -1.3695   -1.4866 H   0  0  0  0  0  0  0  0  0  0  0  0
    1.9916   -2.1046   -0.2484 H   0  0  0  0  0  0  0  0  0  0  0  0
    3.6713   -0.6971    0.8281 H   0  0  0  0  0  0  0  0  0  0  0  0
    3.2576    0.6737   -0.1927 H   0  0  0  0  0  0  0  0  0  0  0  0
   -2.4457   -1.9639    1.4390 H   0  0  0  0  0  0  0  0  0  0  0  0
   -1.7246   -0.4583    1.9844 H   0  0  0  0  0  0  0  0  0  0  0  0
   -3.3884   -0.9036   -0.5482 H   0  0  0  0  0  0  0  0  0  0  0  0
   -3.8251    0.0472    0.8669 H   0  0  0  0  0  0  0  0  0  0  0  0
   -3.0812    1.4033   -0.9429 H   0  0  0  0  0  0  0  0  0  0  0  0
    0.1410    2.5968   -0.0795 H   0  0  0  0  0  0  0  0  0  0  0  0
  1  4  1  0  0  0  0
  1 31  1  0  0  0  0
  2  7  1  0  0  0  0
  2 12  1  0  0  0  0
  2 30  1  0  0  0  0
  3  4  1  0  0  0  0
  3  5  1  0  0  0  0
  3  6  1  0  0  0  0
  3  7  1  0  0  0  0
  4  8  1  0  0  0  0
  4 13  1  0  0  0  0
  5  9  1  0  0  0  0
  5 14  1  0  0  0  0
  5 15  1  0  0  0  0
  6 11  1  0  0  0  0
  6 16  1  0  0  0  0
  6 17  1  0  0  0  0
  7 18  1  0  0  0  0
  7 19  1  0  0  0  0
  8 10  1  0  0  0  0
  8 20  1  0  0  0  0
  8 21  1  0  0  0  0
  9 10  1  0  0  0  0
  9 22  1  0  0  0  0
  9 23  1  0  0  0  0
 10 24  1  0  0  0  0
 10 25  1  0  0  0  0
 11 12  1  0  0  0  0
 11 26  1  0  0  0  0
 11 27  1  0  0  0  0
 12 28  1  0  0  0  0
 12 29  1  0  0  0  0
M  END
> <PUBCHEM_COMPOUND_CID>
442651

> <PUBCHEM_CONFORMER_RMSD>
0.6

> <PUBCHEM_CONFORMER_DIVERSEORDER>
1
2
4
3

> <PUBCHEM_MMFF94_PARTIAL_CHARGES>
7
1 -0.68
12 0.27
2 -0.9
30 0.36
31 0.4
4 0.28
7 0.27

> <PUBCHEM_EFFECTIVE_ROTOR_COUNT>
2

> <PUBCHEM_PHARMACOPHORE_FEATURES>
6
1 1 acceptor
1 1 donor
1 2 cation
1 2 donor
6 2 3 6 7 11 12 rings
6 3 4 5 8 9 10 rings

> <PUBCHEM_HEAVY_ATOM_COUNT>
12

> <PUBCHEM_ATOM_DEF_STEREO_COUNT>
2

> <PUBCHEM_ATOM_UDEF_STEREO_COUNT>
0

> <PUBCHEM_BOND_DEF_STEREO_COUNT>
0

> <PUBCHEM_BOND_UDEF_STEREO_COUNT>
0

> <PUBCHEM_ISOTOPIC_ATOM_COUNT>
0

> <PUBCHEM_COMPONENT_COUNT>
1

> <PUBCHEM_CACTVS_TAUTO_COUNT>
1

> <PUBCHEM_CONFORMER_ID>
0006C11B00000001

> <PUBCHEM_MMFF94_ENERGY>
18.0792

> <PUBCHEM_FEATURE_SELFOVERLAP>
30.447

> <PUBCHEM_SHAPE_FINGERPRINT>
10219947 1 17821730541681166766
10857977 72 18341896290052550455
12326174 3 17604140532118920086
12423570 1 9364763210769357686
12716758 59 18057322996759138999
12897270 3 9223237355338996795
14128692 85 16702300139744714490
14993402 34 16081087095306117996
15775835 57 17632018636519075841
16945 1 18335422339633791790
20201158 50 18407759261175546206
20645464 45 18339093617649052018
20711985 344 17830158461754249360
21501502 16 18193838145831519447
23552423 10 16486115190067799951
2748010 2 17969506102882226628
29004967 10 18187079581068144734
369184 2 16950288394699207451
5084963 1 17968105161743475587
528886 8 17168441431461353982

> <PUBCHEM_SHAPE_MULTIPOLES>
236.1
3.86
1.43
1.28
0.68
0.32
0.06
-0.46
-0.45
-0.12
-0.03
-0.17
-0.08
0.66

> <PUBCHEM_SHAPE_SELFOVERLAP>
476.392

> <PUBCHEM_SHAPE_VOLUME>
134.4

> <PUBCHEM_COORDINATE_TYPE>
2
5
10

$$$$

