73419
  -OEChem-07051213003D

 77 82  0     1  0  0  0  0  0999 V2000
   -3.1065   -1.4897    0.0704 O   0  0  0  0  0  0  0  0  0  0  0  0
   -4.6792   -0.7833   -1.5500 O   0  0  0  0  0  0  0  0  0  0  0  0
   -5.4773    1.4142    0.0875 N   0  0  0  0  0  0  0  0  0  0  0  0
    8.3372   -0.3649    0.8017 N   0  0  0  0  0  0  0  0  0  0  0  0
   -0.3125    0.8109   -0.4732 C   0  0  1  0  0  0  0  0  0  0  0  0
    0.3151   -0.5543   -0.0642 C   0  0  2  0  0  0  0  0  0  0  0  0
    1.7845   -0.6844   -0.4778 C   0  0  1  0  0  0  0  0  0  0  0  0
   -1.7587    0.5258   -0.0089 C   0  0  2  0  0  0  0  0  0  0  0  0
    2.5978    0.4358    0.2475 C   0  0  1  0  0  0  0  0  0  0  0  0
    4.1353    0.3520   -0.0803 C   0  0  2  0  0  0  0  0  0  0  0  0
   -2.0213   -0.8704   -0.6069 C   0  0  1  0  0  0  0  0  0  0  0  0
   -0.6900   -1.6249   -0.5085 C   0  0  0  0  0  0  0  0  0  0  0  0
    0.4540    1.8938    0.3052 C   0  0  0  0  0  0  0  0  0  0  0  0
    1.9722    1.8389    0.0403 C   0  0  0  0  0  0  0  0  0  0  0  0
    4.6171   -1.0816    0.3126 C   0  0  1  0  0  0  0  0  0  0  0  0
   -2.9710    1.4200   -0.3398 C   0  0  1  0  0  0  0  0  0  0  0  0
    2.3455   -2.0759   -0.1507 C   0  0  0  0  0  0  0  0  0  0  0  0
    3.8441   -2.1805   -0.4254 C   0  0  0  0  0  0  0  0  0  0  0  0
   -0.2540    1.1170   -1.9872 C   0  0  0  0  0  0  0  0  0  0  0  0
   -4.2054    0.7123    0.3167 C   0  0  2  0  0  0  0  0  0  0  0  0
    4.9354    1.3707    0.7800 C   0  0  0  0  0  0  0  0  0  0  0  0
   -4.3333   -0.7666   -0.1572 C   0  0  2  0  0  0  0  0  0  0  0  0
    6.1352   -1.2670    0.1631 C   0  0  0  0  0  0  0  0  0  0  0  0
    4.3966    0.6635   -1.5765 C   0  0  0  0  0  0  0  0  0  0  0  0
    6.4554    1.1981    0.6817 C   0  0  0  0  0  0  0  0  0  0  0  0
    6.8944   -0.2324    1.0031 C   0  0  2  0  0  0  0  0  0  0  0  0
   -2.7828    2.8509    0.1642 C   0  0  0  0  0  0  0  0  0  0  0  0
   -5.4511   -1.4568    0.6385 C   0  0  0  0  0  0  0  0  0  0  0  0
   -6.7700   -0.6781    0.5184 C   0  0  2  0  0  0  0  0  0  0  0  0
   -6.5623    0.8040    0.8654 C   0  0  0  0  0  0  0  0  0  0  0  0
   -7.8447   -1.2969    1.4103 C   0  0  0  0  0  0  0  0  0  0  0  0
    0.3067   -0.6091    1.0384 H   0  0  0  0  0  0  0  0  0  0  0  0
    1.8549   -0.5519   -1.5625 H   0  0  0  0  0  0  0  0  0  0  0  0
   -1.7407    0.4334    1.0900 H   0  0  0  0  0  0  0  0  0  0  0  0
    2.5026    0.2366    1.3272 H   0  0  0  0  0  0  0  0  0  0  0  0
   -2.2744   -0.8097   -1.6729 H   0  0  0  0  0  0  0  0  0  0  0  0
   -0.4195   -2.0329   -1.4890 H   0  0  0  0  0  0  0  0  0  0  0  0
   -0.7349   -2.4578    0.2010 H   0  0  0  0  0  0  0  0  0  0  0  0
    0.2822    1.7744    1.3828 H   0  0  0  0  0  0  0  0  0  0  0  0
    0.0950    2.8942    0.0448 H   0  0  0  0  0  0  0  0  0  0  0  0
    2.1687    2.1988   -0.9739 H   0  0  0  0  0  0  0  0  0  0  0  0
    2.4490    2.5588    0.7151 H   0  0  0  0  0  0  0  0  0  0  0  0
    4.3996   -1.2177    1.3838 H   0  0  0  0  0  0  0  0  0  0  0  0
   -3.1209    1.4630   -1.4265 H   0  0  0  0  0  0  0  0  0  0  0  0
    1.8261   -2.8410   -0.7391 H   0  0  0  0  0  0  0  0  0  0  0  0
    2.1586   -2.3115    0.9050 H   0  0  0  0  0  0  0  0  0  0  0  0
    4.1927   -3.1666   -0.0943 H   0  0  0  0  0  0  0  0  0  0  0  0
    4.0321   -2.1326   -1.5040 H   0  0  0  0  0  0  0  0  0  0  0  0
   -0.7974    2.0408   -2.2137 H   0  0  0  0  0  0  0  0  0  0  0  0
    0.7681    1.2546   -2.3501 H   0  0  0  0  0  0  0  0  0  0  0  0
   -0.6867    0.3227   -2.6011 H   0  0  0  0  0  0  0  0  0  0  0  0
   -4.0097    0.7117    1.3998 H   0  0  0  0  0  0  0  0  0  0  0  0
    4.6422    1.2687    1.8332 H   0  0  0  0  0  0  0  0  0  0  0  0
    4.6907    2.3986    0.4872 H   0  0  0  0  0  0  0  0  0  0  0  0
    6.4124   -2.2756    0.4975 H   0  0  0  0  0  0  0  0  0  0  0  0
    6.4303   -1.2042   -0.8912 H   0  0  0  0  0  0  0  0  0  0  0  0
    4.1503    1.7036   -1.8141 H   0  0  0  0  0  0  0  0  0  0  0  0
    5.4449    0.5252   -1.8547 H   0  0  0  0  0  0  0  0  0  0  0  0
    3.8125    0.0301   -2.2485 H   0  0  0  0  0  0  0  0  0  0  0  0
    6.7956    1.4864   -0.3206 H   0  0  0  0  0  0  0  0  0  0  0  0
    6.9343    1.8986    1.3779 H   0  0  0  0  0  0  0  0  0  0  0  0
    6.6850   -0.4276    2.0629 H   0  0  0  0  0  0  0  0  0  0  0  0
   -2.5194    2.8689    1.2267 H   0  0  0  0  0  0  0  0  0  0  0  0
   -1.9976    3.3627   -0.3976 H   0  0  0  0  0  0  0  0  0  0  0  0
   -3.6953    3.4411    0.0331 H   0  0  0  0  0  0  0  0  0  0  0  0
   -5.1518   -1.5476    1.6912 H   0  0  0  0  0  0  0  0  0  0  0  0
   -5.5944   -2.4821    0.2737 H   0  0  0  0  0  0  0  0  0  0  0  0
   -5.7076    1.3698   -0.9052 H   0  0  0  0  0  0  0  0  0  0  0  0
   -7.1228   -0.7443   -0.5196 H   0  0  0  0  0  0  0  0  0  0  0  0
   -7.4851    1.3610    0.6657 H   0  0  0  0  0  0  0  0  0  0  0  0
   -6.3550    0.9256    1.9361 H   0  0  0  0  0  0  0  0  0  0  0  0
   -5.1106   -1.6321   -1.7446 H   0  0  0  0  0  0  0  0  0  0  0  0
    8.6367   -1.3007    1.0723 H   0  0  0  0  0  0  0  0  0  0  0  0
    8.8305    0.2842    1.4132 H   0  0  0  0  0  0  0  0  0  0  0  0
   -7.5557   -1.2611    2.4662 H   0  0  0  0  0  0  0  0  0  0  0  0
   -8.7944   -0.7627    1.3009 H   0  0  0  0  0  0  0  0  0  0  0  0
   -8.0160   -2.3445    1.1413 H   0  0  0  0  0  0  0  0  0  0  0  0
  1 11  1  0  0  0  0
  1 22  1  0  0  0  0
  2 22  1  0  0  0  0
  2 72  1  0  0  0  0
  3 20  1  0  0  0  0
  3 30  1  0  0  0  0
  3 68  1  0  0  0  0
  4 26  1  0  0  0  0
  4 73  1  0  0  0  0
  4 74  1  0  0  0  0
  5  6  1  0  0  0  0
  5  8  1  0  0  0  0
  5 13  1  0  0  0  0
  5 19  1  0  0  0  0
  6  7  1  0  0  0  0
  6 12  1  0  0  0  0
  6 32  1  0  0  0  0
  7  9  1  0  0  0  0
  7 17  1  0  0  0  0
  7 33  1  0  0  0  0
  8 11  1  0  0  0  0
  8 16  1  0  0  0  0
  8 34  1  0  0  0  0
  9 10  1  0  0  0  0
  9 14  1  0  0  0  0
  9 35  1  0  0  0  0
 10 15  1  0  0  0  0
 10 21  1  0  0  0  0
 10 24  1  0  0  0  0
 11 12  1  0  0  0  0
 11 36  1  0  0  0  0
 12 37  1  0  0  0  0
 12 38  1  0  0  0  0
 13 14  1  0  0  0  0
 13 39  1  0  0  0  0
 13 40  1  0  0  0  0
 14 41  1  0  0  0  0
 14 42  1  0  0  0  0
 15 18  1  0  0  0  0
 15 23  1  0  0  0  0
 15 43  1  0  0  0  0
 16 20  1  0  0  0  0
 16 27  1  0  0  0  0
 16 44  1  0  0  0  0
 17 18  1  0  0  0  0
 17 45  1  0  0  0  0
 17 46  1  0  0  0  0
 18 47  1  0  0  0  0
 18 48  1  0  0  0  0
 19 49  1  0  0  0  0
 19 50  1  0  0  0  0
 19 51  1  0  0  0  0
 20 22  1  0  0  0  0
 20 52  1  0  0  0  0
 21 25  1  0  0  0  0
 21 53  1  0  0  0  0
 21 54  1  0  0  0  0
 22 28  1  0  0  0  0
 23 26  1  0  0  0  0
 23 55  1  0  0  0  0
 23 56  1  0  0  0  0
 24 57  1  0  0  0  0
 24 58  1  0  0  0  0
 24 59  1  0  0  0  0
 25 26  1  0  0  0  0
 25 60  1  0  0  0  0
 25 61  1  0  0  0  0
 26 62  1  0  0  0  0
 27 63  1  0  0  0  0
 27 64  1  0  0  0  0
 27 65  1  0  0  0  0
 28 29  1  0  0  0  0
 28 66  1  0  0  0  0
 28 67  1  0  0  0  0
 29 30  1  0  0  0  0
 29 31  1  0  0  0  0
 29 69  1  0  0  0  0
 30 70  1  0  0  0  0
 30 71  1  0  0  0  0
 31 75  1  0  0  0  0
 31 76  1  0  0  0  0
 31 77  1  0  0  0  0
M  END
> <PUBCHEM_COMPOUND_CID>
73419

> <PUBCHEM_CONFORMER_RMSD>
0.8

> <PUBCHEM_CONFORMER_DIVERSEORDER>
1

> <PUBCHEM_MMFF94_PARTIAL_CHARGES>
13
1 -0.56
11 0.28
2 -0.68
20 0.27
22 0.56
26 0.27
3 -0.9
30 0.27
4 -0.99
68 0.36
72 0.4
73 0.36
74 0.36

> <PUBCHEM_EFFECTIVE_ROTOR_COUNT>
3

> <PUBCHEM_PHARMACOPHORE_FEATURES>
13
1 1 acceptor
1 2 acceptor
1 2 donor
1 3 cation
1 3 donor
1 4 cation
1 4 donor
5 5 6 8 11 12 rings
6 1 8 11 16 20 22 rings
6 10 15 21 23 25 26 rings
6 3 20 22 28 29 30 rings
6 5 6 7 9 13 14 rings
6 7 9 10 15 17 18 rings

> <PUBCHEM_HEAVY_ATOM_COUNT>
31

> <PUBCHEM_ATOM_DEF_STEREO_COUNT>
13

> <PUBCHEM_ATOM_UDEF_STEREO_COUNT>
0

> <PUBCHEM_BOND_DEF_STEREO_COUNT>
0

> <PUBCHEM_BOND_UDEF_STEREO_COUNT>
0

> <PUBCHEM_ISOTOPIC_ATOM_COUNT>
0

> <PUBCHEM_COMPONENT_COUNT>
1

> <PUBCHEM_CACTVS_TAUTO_COUNT>
1

> <PUBCHEM_CONFORMER_ID>
00011ECB00000001

> <PUBCHEM_MMFF94_ENERGY>
99.5239

> <PUBCHEM_FEATURE_SELFOVERLAP>
66.202

> <PUBCHEM_SHAPE_FINGERPRINT>
10 15 18410575059405173328
10100884 174 18052258398144721843
10299344 5 18131348605374068530
11456790 92 18334580161699472466
11578080 2 5183246724716877145
11646440 116 17967811643757868200
12166972 35 17203604869948346117
12236239 1 17988921171583431981
12516196 113 18334856121300007025
12596602 18 17168147814775809874
13073987 5 18335983176521247880
13685833 64 18343862204111125515
13782708 43 17560803268340662114
13811026 1 18341895195405719147
14028597 1 17531235197663065483
14251764 18 18408885118179915815
14341114 176 18335417980379201301
14394314 77 18334291019990724225
14849402 71 18115591426817172144
15064986 96 17532369949771909094
15183329 4 18334301967428896015
15196674 1 18408889568277698476
15247644 1 16128655241547971523
15927050 60 17685776818397996180
1813 80 17418371410912695244
18335252 114 10015588276581771514
18608769 82 18409168792206392483
19841028 212 17417540227683709722
20105231 36 18260257573746047774
21130935 74 18333728048361875971
21150785 3 12391511988508082410
21236236 1 18336550499047139317
21267235 1 18410006663602031974
21623969 137 18410570695365134834
21781051 124 18058996320904043506
21792934 111 18410862070383959097
22149856 69 18262501698072691377
23522609 53 18125970898372515117
23559900 14 18336555914816556321
23569943 247 17128471019213638594
23576562 1 7637100577292045819
24771293 8 17896897469415821416
3004659 81 18272366495333548470
3178227 256 18408599236603754530
335352 9 18409168787821605132
3383291 50 18130504158959415515
34797466 226 17385998464644971860
350125 39 18408604759858201089
4073 2 18272366426039773706
4093350 32 16443337711110613910
4340502 62 18335420171266248526
5104073 3 18336827618620738962
6086070 43 16878527686513872673
6691757 9 16298666102418538151

> <PUBCHEM_SHAPE_MULTIPOLES>
616.26
20.05
2.24
1.14
0.83
0.35
0.3
-4.13
-8.34
0.39
-0.03
0.08
0.08
0.5

> <PUBCHEM_SHAPE_SELFOVERLAP>
1316.125

> <PUBCHEM_SHAPE_VOLUME>
336.8

> <PUBCHEM_COORDINATE_TYPE>
2
5
10

$$$$

