8394
  -OEChem-07051213053D

 17 18  0     0  0  0  0  0  0999 V2000
   -1.6364   -2.1270   -0.0003 O   0  0  0  0  0  0  0  0  0  0  0  0
   -2.3102    0.0707    0.0002 N   0  0  0  0  0  0  0  0  0  0  0  0
   -2.0571    1.4051    0.0000 N   0  0  0  0  0  0  0  0  0  0  0  0
    0.0475   -0.4950    0.0000 C   0  0  0  0  0  0  0  0  0  0  0  0
    0.3155    0.8671   -0.0001 C   0  0  0  0  0  0  0  0  0  0  0  0
    1.1010   -1.4099    0.0003 C   0  0  0  0  0  0  0  0  0  0  0  0
    1.6230    1.3461   -0.0002 C   0  0  0  0  0  0  0  0  0  0  0  0
   -1.3584   -0.9315    0.0000 C   0  0  0  0  0  0  0  0  0  0  0  0
   -0.8186    1.7824    0.0001 C   0  0  0  0  0  0  0  0  0  0  0  0
    2.4169   -0.9408    0.0001 C   0  0  0  0  0  0  0  0  0  0  0  0
    2.6769    0.4326   -0.0001 C   0  0  0  0  0  0  0  0  0  0  0  0
    0.9205   -2.4809    0.0003 H   0  0  0  0  0  0  0  0  0  0  0  0
    1.8331    2.4115   -0.0003 H   0  0  0  0  0  0  0  0  0  0  0  0
   -0.6052    2.8643    0.0000 H   0  0  0  0  0  0  0  0  0  0  0  0
    3.2426   -1.6468    0.0002 H   0  0  0  0  0  0  0  0  0  0  0  0
    3.7032    0.7888   -0.0001 H   0  0  0  0  0  0  0  0  0  0  0  0
   -3.2973   -0.1659    0.0002 H   0  0  0  0  0  0  0  0  0  0  0  0
  1  8  2  0  0  0  0
  2  3  1  0  0  0  0
  2  8  1  0  0  0  0
  2 17  1  0  0  0  0
  3  9  2  0  0  0  0
  4  5  1  0  0  0  0
  4  6  2  0  0  0  0
  4  8  1  0  0  0  0
  5  7  2  0  0  0  0
  5  9  1  0  0  0  0
  6 10  1  0  0  0  0
  6 12  1  0  0  0  0
  7 11  1  0  0  0  0
  7 13  1  0  0  0  0
  9 14  1  0  0  0  0
 10 11  2  0  0  0  0
 10 15  1  0  0  0  0
 11 16  1  0  0  0  0
M  END
> <PUBCHEM_COMPOUND_CID>
8394

> <PUBCHEM_CONFORMER_RMSD>
0.4

> <PUBCHEM_CONFORMER_DIVERSEORDER>
1

> <PUBCHEM_MMFF94_PARTIAL_CHARGES>
17
1 -0.57
10 -0.15
11 -0.15
12 0.15
13 0.15
14 0.06
15 0.15
16 0.15
17 0.37
2 -0.37
3 -0.51
4 0.09
5 0.09
6 -0.15
7 -0.15
8 0.54
9 0.3

> <PUBCHEM_EFFECTIVE_ROTOR_COUNT>
0

> <PUBCHEM_PHARMACOPHORE_FEATURES>
5
1 1 acceptor
1 2 donor
1 3 acceptor
6 2 3 4 5 8 9 rings
6 4 5 6 7 10 11 rings

> <PUBCHEM_HEAVY_ATOM_COUNT>
11

> <PUBCHEM_ATOM_DEF_STEREO_COUNT>
0

> <PUBCHEM_ATOM_UDEF_STEREO_COUNT>
0

> <PUBCHEM_BOND_DEF_STEREO_COUNT>
0

> <PUBCHEM_BOND_UDEF_STEREO_COUNT>
0

> <PUBCHEM_ISOTOPIC_ATOM_COUNT>
0

> <PUBCHEM_COMPONENT_COUNT>
1

> <PUBCHEM_CACTVS_TAUTO_COUNT>
2

> <PUBCHEM_CONFORMER_ID>
000020CA00000001

> <PUBCHEM_MMFF94_ENERGY>
32.2704

> <PUBCHEM_FEATURE_SELFOVERLAP>
25.397

> <PUBCHEM_SHAPE_FINGERPRINT>
12524768 44 18336541715522352046
12897270 3 18338235960014338662
16945 1 18410855490351285860
18185500 45 18193839245248201638
193761 8 18338798909888813956
19973954 147 18410853239851654844
20871998 184 18187643570319463863
21040471 1 18338516477218753344
23552423 10 18272368629394243742
23559900 14 18189327039746197062
241688 4 18267022756430798993
2748010 2 18194121815483653908
5084963 1 17970637508631025105
528886 8 18410016507134116602
66348 1 18410294674922666750

> <PUBCHEM_SHAPE_MULTIPOLES>
210.54
3.37
2.02
0.59
0.56
0.17
0
0.04
0
-0.56
0
0.05
-0.01
0

> <PUBCHEM_SHAPE_SELFOVERLAP>
462.574

> <PUBCHEM_SHAPE_VOLUME>
112.9

> <PUBCHEM_COORDINATE_TYPE>
2
5
10

$$$$

