443040
  -OEChem-07051213003D

 30 32  0     0  0  0  0  0  0999 V2000
    6.1160    0.0000   -0.0005 Br  0  0  0  0  0  0  0  0  0  0  0  0
   -0.5104    2.3093    0.2313 O   0  0  0  0  0  0  0  0  0  0  0  0
   -0.5106   -2.3098   -0.2284 O   0  0  0  0  0  0  0  0  0  0  0  0
   -0.0009   -0.0001    0.0001 N   0  0  0  0  0  0  0  0  0  0  0  0
   -2.1857    0.6642    0.0467 C   0  0  0  0  0  0  0  0  0  0  0  0
   -2.1857   -0.6640   -0.0477 C   0  0  0  0  0  0  0  0  0  0  0  0
   -3.4051    1.5078    0.1284 C   0  0  0  0  0  0  0  0  0  0  0  0
   -3.4051   -1.5077   -0.1298 C   0  0  0  0  0  0  0  0  0  0  0  0
   -4.6528    0.6526    0.4047 C   0  0  0  0  0  0  0  0  0  0  0  0
   -4.6531   -0.6523   -0.4046 C   0  0  0  0  0  0  0  0  0  0  0  0
   -0.7943    1.1308    0.0936 C   0  0  0  0  0  0  0  0  0  0  0  0
   -0.7944   -1.1310   -0.0931 C   0  0  0  0  0  0  0  0  0  0  0  0
    1.4316    0.0000    0.0000 C   0  0  0  0  0  0  0  0  0  0  0  0
    2.1336    1.0924   -0.5156 C   0  0  0  0  0  0  0  0  0  0  0  0
    2.1338   -1.0924    0.5155 C   0  0  0  0  0  0  0  0  0  0  0  0
    3.5284    1.0925   -0.5157 C   0  0  0  0  0  0  0  0  0  0  0  0
    3.5286   -1.0924    0.5154 C   0  0  0  0  0  0  0  0  0  0  0  0
    4.2260    0.0001   -0.0003 C   0  0  0  0  0  0  0  0  0  0  0  0
   -3.3028    2.2607    0.9177 H   0  0  0  0  0  0  0  0  0  0  0  0
   -3.5311    2.0424   -0.8205 H   0  0  0  0  0  0  0  0  0  0  0  0
   -3.3030   -2.2599   -0.9198 H   0  0  0  0  0  0  0  0  0  0  0  0
   -3.5306   -2.0433    0.8186 H   0  0  0  0  0  0  0  0  0  0  0  0
   -4.6958    0.4082    1.4741 H   0  0  0  0  0  0  0  0  0  0  0  0
   -5.5531    1.2342    0.1765 H   0  0  0  0  0  0  0  0  0  0  0  0
   -4.6971   -0.4079   -1.4740 H   0  0  0  0  0  0  0  0  0  0  0  0
   -5.5533   -1.2340   -0.1756 H   0  0  0  0  0  0  0  0  0  0  0  0
    1.6243    1.9470   -0.9504 H   0  0  0  0  0  0  0  0  0  0  0  0
    1.6246   -1.9470    0.9505 H   0  0  0  0  0  0  0  0  0  0  0  0
    4.0569    1.9489   -0.9267 H   0  0  0  0  0  0  0  0  0  0  0  0
    4.0573   -1.9486    0.9264 H   0  0  0  0  0  0  0  0  0  0  0  0
  1 18  1  0  0  0  0
  2 11  2  0  0  0  0
  3 12  2  0  0  0  0
  4 11  1  0  0  0  0
  4 12  1  0  0  0  0
  4 13  1  0  0  0  0
  5  6  2  0  0  0  0
  5  7  1  0  0  0  0
  5 11  1  0  0  0  0
  6  8  1  0  0  0  0
  6 12  1  0  0  0  0
  7  9  1  0  0  0  0
  7 19  1  0  0  0  0
  7 20  1  0  0  0  0
  8 10  1  0  0  0  0
  8 21  1  0  0  0  0
  8 22  1  0  0  0  0
  9 10  1  0  0  0  0
  9 23  1  0  0  0  0
  9 24  1  0  0  0  0
 10 25  1  0  0  0  0
 10 26  1  0  0  0  0
 13 14  2  0  0  0  0
 13 15  1  0  0  0  0
 14 16  1  0  0  0  0
 14 27  1  0  0  0  0
 15 17  2  0  0  0  0
 15 28  1  0  0  0  0
 16 18  2  0  0  0  0
 16 29  1  0  0  0  0
 17 18  1  0  0  0  0
 17 30  1  0  0  0  0
M  END
> <PUBCHEM_COMPOUND_CID>
443040

> <PUBCHEM_CONFORMER_RMSD>
0.6

> <PUBCHEM_CONFORMER_DIVERSEORDER>
1

> <PUBCHEM_MMFF94_PARTIAL_CHARGES>
20
1 -0.11
11 0.62
12 0.62
13 0.12
14 -0.15
15 -0.15
16 -0.15
17 -0.15
18 0.11
2 -0.57
27 0.15
28 0.15
29 0.15
3 -0.57
30 0.15
4 -0.24
5 -0.12
6 -0.12
7 0.14
8 0.14

> <PUBCHEM_EFFECTIVE_ROTOR_COUNT>
2

> <PUBCHEM_PHARMACOPHORE_FEATURES>
6
1 1 hydrophobe
1 2 acceptor
1 3 acceptor
5 4 5 6 11 12 rings
6 13 14 15 16 17 18 rings
6 5 6 7 8 9 10 rings

> <PUBCHEM_HEAVY_ATOM_COUNT>
18

> <PUBCHEM_ATOM_DEF_STEREO_COUNT>
0

> <PUBCHEM_ATOM_UDEF_STEREO_COUNT>
0

> <PUBCHEM_BOND_DEF_STEREO_COUNT>
0

> <PUBCHEM_BOND_UDEF_STEREO_COUNT>
0

> <PUBCHEM_ISOTOPIC_ATOM_COUNT>
0

> <PUBCHEM_COMPONENT_COUNT>
1

> <PUBCHEM_CACTVS_TAUTO_COUNT>
1

> <PUBCHEM_CONFORMER_ID>
0006C2A000000001

> <PUBCHEM_MMFF94_ENERGY>
35.6682

> <PUBCHEM_FEATURE_SELFOVERLAP>
30.518

> <PUBCHEM_SHAPE_FINGERPRINT>
10062212 137 18409453570456136663
10616163 171 18410009901443481359
10968037 39 18341611499714430820
11132069 177 18335702771255163921
11315181 36 17967809436624446320
12107183 9 17692537027700757312
12236239 1 18202283606661613714
12403814 3 17989489645439744013
13288520 33 18335137596471727606
13760787 5 18343019978394101141
13862211 1 18409733941172727479
15042514 8 18265893554106289631
15196674 1 18410856594274009938
15536298 74 18409729564922442374
16945 1 17022621974893165837
17804303 29 18260267417541349849
17834072 33 18413106148125631236
1813 80 17131546258746934830
18186145 218 17489593346043323979
18522853 276 18410856564462446520
18681886 176 18336830802035504136
200 152 18412829079352758496
20510252 161 18187644768573193480
21267235 1 18412255117077089306
2297311 6 18187072971630499508
23175994 123 16732979821474361392
23402539 116 18260553315912284964
23463225 33 18412826914773741255
23557571 272 18113050541396597596
23559900 14 18261396616178423520
26918003 58 17775564230168724712
335352 9 18411136935115545836
34797466 226 17604419701510627940
3545911 37 18411135853284771306
4214541 1 18411419522499465165
474 4 17488456378639145940
5104073 3 18411982434198952440
537710 114 18411134727586952661
542803 24 17313100852302697600
69090 78 18410858754415758502
77779 3 18412543214787615498
9709674 26 18410285921996231990

> <PUBCHEM_SHAPE_MULTIPOLES>
359.65
10.88
1.83
0.7
6.73
0
0
0
0
-0.86
0
0.1
0
-0.63

> <PUBCHEM_SHAPE_SELFOVERLAP>
774.741

> <PUBCHEM_SHAPE_VOLUME>
203.9

> <PUBCHEM_COORDINATE_TYPE>
2
5
10

$$$$

