9879368
  -OEChem-07051213093D

 41 43  0     1  0  0  0  0  0999 V2000
    0.2880   -2.6539   -0.2105 N   0  0  0  0  0  0  0  0  0  0  0  0
   -0.0090   -0.2982    0.2821 C   0  0  0  0  0  0  0  0  0  0  0  0
   -0.0979   -1.1380    1.5805 C   0  0  0  0  0  0  0  0  0  0  0  0
    0.5761   -2.4548    1.2198 C   0  0  1  0  0  0  0  0  0  0  0  0
   -0.0048   -1.4814   -0.6907 C   0  0  0  0  0  0  0  0  0  0  0  0
    1.2911    0.4993    0.0665 C   0  0  0  0  0  0  0  0  0  0  0  0
   -1.2759    0.5767    0.2646 C   0  0  0  0  0  0  0  0  0  0  0  0
   -0.2146   -1.3253   -2.1716 C   0  0  0  0  0  0  0  0  0  0  0  0
    0.0379   -3.6308    2.0172 C   0  0  0  0  0  0  0  0  0  0  0  0
    1.4775    1.2295   -1.1086 C   0  0  0  0  0  0  0  0  0  0  0  0
   -1.2159    1.9064    0.6883 C   0  0  0  0  0  0  0  0  0  0  0  0
    2.2861    0.4933    1.0457 C   0  0  0  0  0  0  0  0  0  0  0  0
   -2.4901    0.0440   -0.1746 C   0  0  0  0  0  0  0  0  0  0  0  0
   -0.8389   -2.5768   -2.7468 C   0  0  0  0  0  0  0  0  0  0  0  0
    2.6550    1.9512   -1.3040 C   0  0  0  0  0  0  0  0  0  0  0  0
   -2.3637    2.6990    0.6728 C   0  0  0  0  0  0  0  0  0  0  0  0
    3.4635    1.2152    0.8504 C   0  0  0  0  0  0  0  0  0  0  0  0
   -3.6378    0.8365   -0.1902 C   0  0  0  0  0  0  0  0  0  0  0  0
    3.6480    1.9441   -0.3245 C   0  0  0  0  0  0  0  0  0  0  0  0
   -3.5746    2.1640    0.2336 C   0  0  0  0  0  0  0  0  0  0  0  0
   -1.1473   -1.3502    1.8351 H   0  0  0  0  0  0  0  0  0  0  0  0
    0.3158   -0.6685    2.4774 H   0  0  0  0  0  0  0  0  0  0  0  0
    1.6619   -2.3947    1.3573 H   0  0  0  0  0  0  0  0  0  0  0  0
   -0.8555   -0.4655   -2.3801 H   0  0  0  0  0  0  0  0  0  0  0  0
    0.7565   -1.1478   -2.6448 H   0  0  0  0  0  0  0  0  0  0  0  0
    0.5329   -4.5595    1.7136 H   0  0  0  0  0  0  0  0  0  0  0  0
    0.2094   -3.4859    3.0885 H   0  0  0  0  0  0  0  0  0  0  0  0
   -1.0371   -3.7673    1.8556 H   0  0  0  0  0  0  0  0  0  0  0  0
    0.7133    1.2696   -1.8786 H   0  0  0  0  0  0  0  0  0  0  0  0
   -0.2973    2.3500    1.0605 H   0  0  0  0  0  0  0  0  0  0  0  0
    2.2022   -0.0576    1.9743 H   0  0  0  0  0  0  0  0  0  0  0  0
   -2.5784   -0.9914   -0.4894 H   0  0  0  0  0  0  0  0  0  0  0  0
   -1.0641   -2.4308   -3.8083 H   0  0  0  0  0  0  0  0  0  0  0  0
   -1.7735   -2.8301   -2.2351 H   0  0  0  0  0  0  0  0  0  0  0  0
   -0.1667   -3.4381   -2.6698 H   0  0  0  0  0  0  0  0  0  0  0  0
    2.7969    2.5227   -2.2166 H   0  0  0  0  0  0  0  0  0  0  0  0
   -2.3162    3.7309    1.0083 H   0  0  0  0  0  0  0  0  0  0  0  0
    4.2378    1.2094    1.6121 H   0  0  0  0  0  0  0  0  0  0  0  0
   -4.5821    0.4187   -0.5270 H   0  0  0  0  0  0  0  0  0  0  0  0
    4.5644    2.5068   -0.4762 H   0  0  0  0  0  0  0  0  0  0  0  0
   -4.4689    2.7802    0.2239 H   0  0  0  0  0  0  0  0  0  0  0  0
  1  4  1  0  0  0  0
  1  5  2  0  0  0  0
  2  3  1  0  0  0  0
  2  5  1  0  0  0  0
  2  6  1  0  0  0  0
  2  7  1  0  0  0  0
  3  4  1  0  0  0  0
  3 21  1  0  0  0  0
  3 22  1  0  0  0  0
  4  9  1  0  0  0  0
  4 23  1  0  0  0  0
  5  8  1  0  0  0  0
  6 10  2  0  0  0  0
  6 12  1  0  0  0  0
  7 11  2  0  0  0  0
  7 13  1  0  0  0  0
  8 14  1  0  0  0  0
  8 24  1  0  0  0  0
  8 25  1  0  0  0  0
  9 26  1  0  0  0  0
  9 27  1  0  0  0  0
  9 28  1  0  0  0  0
 10 15  1  0  0  0  0
 10 29  1  0  0  0  0
 11 16  1  0  0  0  0
 11 30  1  0  0  0  0
 12 17  2  0  0  0  0
 12 31  1  0  0  0  0
 13 18  2  0  0  0  0
 13 32  1  0  0  0  0
 14 33  1  0  0  0  0
 14 34  1  0  0  0  0
 14 35  1  0  0  0  0
 15 19  2  0  0  0  0
 15 36  1  0  0  0  0
 16 20  2  0  0  0  0
 16 37  1  0  0  0  0
 17 19  1  0  0  0  0
 17 38  1  0  0  0  0
 18 20  1  0  0  0  0
 18 39  1  0  0  0  0
 19 40  1  0  0  0  0
 20 41  1  0  0  0  0
M  END
> <PUBCHEM_COMPOUND_CID>
9879368

> <PUBCHEM_CONFORMER_RMSD>
0.6

> <PUBCHEM_CONFORMER_DIVERSEORDER>
1
3
6
9
4
5
7
10
8
12
2
11

> <PUBCHEM_MMFF94_PARTIAL_CHARGES>
27
1 -0.7
10 -0.15
11 -0.15
12 -0.15
13 -0.15
15 -0.15
16 -0.15
17 -0.15
18 -0.15
19 -0.15
2 0.35
20 -0.15
29 0.15
30 0.15
31 0.15
32 0.15
36 0.15
37 0.15
38 0.15
39 0.15
4 0.25
40 0.15
41 0.15
5 0.33
6 -0.14
7 -0.14
8 0.06

> <PUBCHEM_EFFECTIVE_ROTOR_COUNT>
3.6

> <PUBCHEM_PHARMACOPHORE_FEATURES>
5
1 1 acceptor
1 14 hydrophobe
5 1 2 3 4 5 rings
6 6 10 12 15 17 19 rings
6 7 11 13 16 18 20 rings

> <PUBCHEM_HEAVY_ATOM_COUNT>
20

> <PUBCHEM_ATOM_DEF_STEREO_COUNT>
0

> <PUBCHEM_ATOM_UDEF_STEREO_COUNT>
1

> <PUBCHEM_BOND_DEF_STEREO_COUNT>
0

> <PUBCHEM_BOND_UDEF_STEREO_COUNT>
0

> <PUBCHEM_ISOTOPIC_ATOM_COUNT>
0

> <PUBCHEM_COMPONENT_COUNT>
1

> <PUBCHEM_CACTVS_TAUTO_COUNT>
1

> <PUBCHEM_CONFORMER_ID>
0096BF4800000001

> <PUBCHEM_MMFF94_ENERGY>
62.1509

> <PUBCHEM_FEATURE_SELFOVERLAP>
25.371

> <PUBCHEM_SHAPE_FINGERPRINT>
10090160 65 18272660030478283745
107951 10 18198877298354195646
10906281 52 16678688948251823873
12173636 292 17983576308548886664
12788726 201 17981604866677796818
13132413 78 17477761746377622912
13134695 92 17480591880775690741
13538477 17 17914050894032265056
13681431 1 17468177281885187998
14004458 79 17608378938710751668
14142880 1 16911997709030961860
14181834 199 17904770229703882261
14787075 74 18054232025325080567
14817 1 8847130006943923567
15420108 30 17756170103643911744
15906896 17 18267299820518482710
16945 1 18266169539713213337
17980427 23 17396172447553033137
18721546 61 18044944467315400262
20510252 161 18195796384583239121
20600515 1 14261342609323332725
20602899 9 16660910111312553566
20645476 183 18129373817902952348
20905425 154 17691121956468190508
21524375 3 18408603681874189872
21731228 192 18342167860782338640
2255824 54 18053936540006372787
229495 10 16270266772273496155
23419403 2 17035219079259759047
23559900 14 17463979321454063997
23598288 3 17908404876095867364
298252 57 18186803564810127552
3091708 16 9337083993261138994
394222 165 18336550537553977249
404807 14 15726396962832898550
430814 3 18341619217253878788
4340502 62 17917423255699216609
474 4 18200588211039692953
5845 1 16594194855179298848
6138700 20 18050277370137553054
68419 9 17755908265046831127
7364860 26 17826793934419057821
81228 2 17902242112947500609
81539 233 18341897445504520973
9841814 1 17619053376109609025
9999458 23 18058441165893705878

> <PUBCHEM_SHAPE_MULTIPOLES>
406.61
4.84
3.86
1.97
0.18
2.55
0.97
-5.69
-0.13
-0.61
-0.7
0.13
2
-1.1

> <PUBCHEM_SHAPE_SELFOVERLAP>
878.513

> <PUBCHEM_SHAPE_VOLUME>
223.5

> <PUBCHEM_COORDINATE_TYPE>
2
5
10

$$$$

