360901
  -OEChem-07051212592D

 65 70  0     1  0  0  0  0  0999 V2000
    3.3523   -2.7581    0.0000 O   0  0  0  0  0  0  0  0  0  0  0  0
    4.8838   -3.6424    0.0000 O   0  0  0  0  0  0  0  0  0  0  0  0
    4.7105    2.5671    0.0000 O   0  0  0  0  0  0  0  0  0  0  0  0
    8.8166    0.1964    0.0000 O   0  0  0  0  0  0  0  0  0  0  0  0
    2.9378    1.6596    0.0000 O   0  0  0  0  0  0  0  0  0  0  0  0
    8.9170   -1.7925    0.0000 O   0  0  0  0  0  0  0  0  0  0  0  0
    5.6030    3.0236    0.0000 O   0  0  0  0  0  0  0  0  0  0  0  0
    8.7656    1.1976    0.0000 O   0  0  0  0  0  0  0  0  0  0  0  0
    2.0000    0.2592    0.0000 O   0  0  0  0  0  0  0  0  0  0  0  0
    8.1730   -3.3049    0.0000 O   0  0  0  0  0  0  0  0  0  0  0  0
    5.4142    0.0447    0.0000 C   0  0  0  0  0  0  0  0  0  0  0  0
    6.2802   -0.4553    0.0000 C   0  0  0  0  0  0  0  0  0  0  0  0
    4.5482   -0.4553    0.0000 C   0  0  0  0  0  0  0  0  0  0  0  0
    6.2802   -1.4553    0.0000 C   0  0  0  0  0  0  0  0  0  0  0  0
    4.5482   -1.4553    0.0000 C   0  0  0  0  0  0  0  0  0  0  0  0
    5.4142   -1.9553    0.0000 C   0  0  0  0  0  0  0  0  0  0  0  0
    5.4790    1.0274    0.0000 C   0  0  0  0  0  0  0  0  0  0  0  0
    7.0989    0.0922    0.0000 C   0  0  0  0  0  0  0  0  0  0  0  0
    3.7375    0.1358    0.0000 C   0  0  0  0  0  0  0  0  0  0  0  0
    7.1975   -1.8618    0.0000 C   0  0  0  0  0  0  0  0  0  0  0  0
    3.6376   -1.8198    0.0000 C   0  0  0  0  0  0  0  0  0  0  0  0
    5.5538   -2.9261    0.0000 C   0  0  0  0  0  0  0  0  0  0  0  0
    6.3744    1.4728    0.0000 C   0  0  0  0  0  0  0  0  0  0  0  0
    7.0369    1.0903    0.0000 C   0  0  0  0  0  0  0  0  0  0  0  0
    4.6562    1.5686    0.0000 C   0  0  0  0  0  0  0  0  0  0  0  0
    7.9789   -0.3498    0.0000 C   0  0  0  0  0  0  0  0  0  0  0  0
    3.7796    1.1198    0.0000 C   0  0  0  0  0  0  0  0  0  0  0  0
    8.0286   -1.3334    0.0000 C   0  0  0  0  0  0  0  0  0  0  0  0
    2.8318   -0.2959    0.0000 C   0  0  0  0  0  0  0  0  0  0  0  0
    7.2764   -2.8620    0.0000 C   0  0  0  0  0  0  0  0  0  0  0  0
    2.7806   -1.2980    0.0000 C   0  0  0  0  0  0  0  0  0  0  0  0
    6.4342   -3.4074    0.0000 C   0  0  0  0  0  0  0  0  0  0  0  0
    6.4363    2.4708    0.0000 C   0  0  2  0  0  0  0  0  0  0  0  0
    7.8703    1.6430    0.0000 C   0  0  2  0  0  0  0  0  0  0  0  0
    3.9059   -3.5678    0.0000 C   0  0  0  0  0  0  0  0  0  0  0  0
    6.9890    3.3042    0.0000 C   0  0  0  0  0  0  0  0  0  0  0  0
    8.3156    2.5383    0.0000 C   0  0  0  0  0  0  0  0  0  0  0  0
    3.8729    3.1134    0.0000 C   0  0  0  0  0  0  0  0  0  0  0  0
    9.7084   -0.2558    0.0000 C   0  0  0  0  0  0  0  0  0  0  0  0
    6.5499    0.8781    0.0000 H   0  0  0  0  0  0  0  0  0  0  0  0
    6.9904    1.5424    0.0000 H   0  0  0  0  0  0  0  0  0  0  0  0
    6.7891    1.6586    0.0000 H   0  0  0  0  0  0  0  0  0  0  0  0
    6.4342    0.9450    0.0000 H   0  0  0  0  0  0  0  0  0  0  0  0
    2.2325   -1.5878    0.0000 H   0  0  0  0  0  0  0  0  0  0  0  0
    6.4573   -4.0270    0.0000 H   0  0  0  0  0  0  0  0  0  0  0  0
    5.8812    2.1947    0.0000 H   0  0  0  0  0  0  0  0  0  0  0  0
    7.9087    1.0242    0.0000 H   0  0  0  0  0  0  0  0  0  0  0  0
    3.3289   -3.7945    0.0000 H   0  0  0  0  0  0  0  0  0  0  0  0
    3.9980   -4.1809    0.0000 H   0  0  0  0  0  0  0  0  0  0  0  0
    7.5057    2.9616    0.0000 H   0  0  0  0  0  0  0  0  0  0  0  0
    7.3317    3.8209    0.0000 H   0  0  0  0  0  0  0  0  0  0  0  0
    6.4724    3.6469    0.0000 H   0  0  0  0  0  0  0  0  0  0  0  0
    8.8707    2.2622    0.0000 H   0  0  0  0  0  0  0  0  0  0  0  0
    8.5918    3.0934    0.0000 H   0  0  0  0  0  0  0  0  0  0  0  0
    7.7605    2.8144    0.0000 H   0  0  0  0  0  0  0  0  0  0  0  0
    2.9666    2.2789    0.0000 H   0  0  0  0  0  0  0  0  0  0  0  0
    9.4389   -1.4579    0.0000 H   0  0  0  0  0  0  0  0  0  0  0  0
    5.6414    3.6424    0.0000 H   0  0  0  0  0  0  0  0  0  0  0  0
    9.2823    1.5403    0.0000 H   0  0  0  0  0  0  0  0  0  0  0  0
    4.2115    3.6327    0.0000 H   0  0  0  0  0  0  0  0  0  0  0  0
    3.3535    3.4520    0.0000 H   0  0  0  0  0  0  0  0  0  0  0  0
    3.5342    2.5940    0.0000 H   0  0  0  0  0  0  0  0  0  0  0  0
    9.4280   -0.8088    0.0000 H   0  0  0  0  0  0  0  0  0  0  0  0
   10.2614   -0.5362    0.0000 H   0  0  0  0  0  0  0  0  0  0  0  0
    9.9888    0.2972    0.0000 H   0  0  0  0  0  0  0  0  0  0  0  0
  1 21  1  0  0  0  0
  1 35  1  0  0  0  0
  2 22  1  0  0  0  0
  2 35  1  0  0  0  0
  3 25  1  0  0  0  0
  3 38  1  0  0  0  0
  4 26  1  0  0  0  0
  4 39  1  0  0  0  0
  5 27  1  0  0  0  0
  5 56  1  0  0  0  0
  6 28  1  0  0  0  0
  6 57  1  0  0  0  0
 33  7  1  1  0  0  0
  7 58  1  0  0  0  0
 34  8  1  6  0  0  0
  8 59  1  0  0  0  0
  9 29  2  0  0  0  0
 10 30  2  0  0  0  0
 11 12  1  0  0  0  0
 11 13  1  0  0  0  0
 11 17  2  0  0  0  0
 12 14  1  0  0  0  0
 12 18  2  0  0  0  0
 13 15  1  0  0  0  0
 13 19  2  0  0  0  0
 14 16  1  0  0  0  0
 14 20  2  0  0  0  0
 15 16  2  0  0  0  0
 15 21  1  0  0  0  0
 16 22  1  0  0  0  0
 17 23  1  0  0  0  0
 17 25  1  0  0  0  0
 18 24  1  0  0  0  0
 18 26  1  0  0  0  0
 19 27  1  0  0  0  0
 19 29  1  0  0  0  0
 20 28  1  0  0  0  0
 20 30  1  0  0  0  0
 21 31  2  0  0  0  0
 22 32  2  0  0  0  0
 23 33  1  0  0  0  0
 23 40  1  0  0  0  0
 23 41  1  0  0  0  0
 24 34  1  0  0  0  0
 24 42  1  0  0  0  0
 24 43  1  0  0  0  0
 25 27  2  0  0  0  0
 26 28  2  0  0  0  0
 29 31  1  0  0  0  0
 30 32  1  0  0  0  0
 31 44  1  0  0  0  0
 32 45  1  0  0  0  0
 33 36  1  0  0  0  0
 33 46  1  0  0  0  0
 34 37  1  0  0  0  0
 34 47  1  0  0  0  0
 35 48  1  0  0  0  0
 35 49  1  0  0  0  0
 36 50  1  0  0  0  0
 36 51  1  0  0  0  0
 36 52  1  0  0  0  0
 37 53  1  0  0  0  0
 37 54  1  0  0  0  0
 37 55  1  0  0  0  0
 38 60  1  0  0  0  0
 38 61  1  0  0  0  0
 38 62  1  0  0  0  0
 39 63  1  0  0  0  0
 39 64  1  0  0  0  0
 39 65  1  0  0  0  0
M  END
> <PUBCHEM_COMPOUND_CID>
360901

> <PUBCHEM_COMPOUND_CANONICALIZED>
1

> <PUBCHEM_CACTVS_COMPLEXITY>
988

> <PUBCHEM_CACTVS_HBOND_ACCEPTOR>
10

> <PUBCHEM_CACTVS_HBOND_DONOR>
4

> <PUBCHEM_CACTVS_ROTATABLE_BOND>
6

> <PUBCHEM_CACTVS_SUBSKEYS>
AAADceB4PAAAAAAAAAAAAAAAAAAAAAAAAAAwYMECBIAAAADBVAAAGgAACAAADBSgmAMCDsAABgCIAqBSAAACCAAkIAAAiAEEiMgdNjaGNBqgcWMk4BEPuQfK7PyO4AADAAAYQADAAAYAADCAAAAAAAAAAA==

> <PUBCHEM_IUPAC_INCHI>
InChI=1S/C29H26O10/c1-10(30)5-12-18-19-13(6-11(2)31)29(37-4)27(35)21-15(33)8-17-23(25(19)21)22-16(38-9-39-17)7-14(32)20(24(18)22)26(34)28(12)36-3/h7-8,10-11,30-31,34-35H,5-6,9H2,1-4H3/t10-,11-/m0/s1

> <PUBCHEM_IUPAC_INCHIKEY>
MXLWQNCWIIZUQT-QWRGUYRKSA-N

> <PUBCHEM_XLOGP3_AA>
4

> <PUBCHEM_EXACT_MASS>
534.152597

> <PUBCHEM_MOLECULAR_FORMULA>
C29H26O10

> <PUBCHEM_MOLECULAR_WEIGHT>
534.51074

> <PUBCHEM_OPENEYE_CAN_SMILES>
CC(CC1=C(C(=C2C(=O)C=C3C4=C5C(=CC(=O)C6=C(C(=C(C(=C56)C1=C42)CC(C)O)OC)O)OCO3)O)OC)O

> <PUBCHEM_OPENEYE_ISO_SMILES>
C[C@@H](CC1=C(C(=C2C(=O)C=C3C4=C5C(=CC(=O)C6=C(C(=C(C(=C56)C1=C42)C[C@H](C)O)OC)O)OCO3)O)OC)O

> <PUBCHEM_CACTVS_TPSA>
152

> <PUBCHEM_MONOISOTOPIC_WEIGHT>
534.152597

> <PUBCHEM_TOTAL_CHARGE>
0

> <PUBCHEM_HEAVY_ATOM_COUNT>
39

> <PUBCHEM_ATOM_DEF_STEREO_COUNT>
2

> <PUBCHEM_ATOM_UDEF_STEREO_COUNT>
0

> <PUBCHEM_BOND_DEF_STEREO_COUNT>
0

> <PUBCHEM_BOND_UDEF_STEREO_COUNT>
0

> <PUBCHEM_ISOTOPIC_ATOM_COUNT>
0

> <PUBCHEM_COMPONENT_COUNT>
1

> <PUBCHEM_CACTVS_TAUTO_COUNT>
153

> <PUBCHEM_COORDINATE_TYPE>
1
5
255

> <PUBCHEM_BONDANNOTATIONS>
11  12  8
11  13  8
11  17  8
12  14  8
12  18  8
13  15  8
13  19  8
14  16  8
14  20  8
15  16  8
15  21  8
16  22  8
17  25  8
18  26  8
19  27  8
19  29  8
20  28  8
20  30  8
21  31  8
22  32  8
25  27  8
26  28  8
29  31  8
30  32  8
33  7  5
34  8  6

$$$$

