3032285
  -OEChem-07051212543D

 35 35  0     1  0  0  0  0  0999 V2000
    2.7612    3.3131    0.1542 S   0  0  0  0  0  0  0  0  0  0  0  0
    1.5497   -1.2159    1.7470 O   0  0  0  0  0  0  0  0  0  0  0  0
   -0.2868    0.2903   -2.3132 O   0  0  0  0  0  0  0  0  0  0  0  0
    1.9641    0.9068    0.9822 N   0  0  0  0  0  0  0  0  0  0  0  0
    1.0467    1.6591   -1.0441 N   0  0  0  0  0  0  0  0  0  0  0  0
    0.1120   -0.3618   -0.0107 C   0  0  0  0  0  0  0  0  0  0  0  0
   -1.1358    0.1378    0.7393 C   0  0  1  0  0  0  0  0  0  0  0  0
   -2.3991    0.1217   -0.1412 C   0  0  0  0  0  0  0  0  0  0  0  0
   -0.1084   -1.8163   -0.4508 C   0  0  0  0  0  0  0  0  0  0  0  0
   -1.3661   -0.7193    1.9866 C   0  0  0  0  0  0  0  0  0  0  0  0
    1.2782   -0.2983    0.9730 C   0  0  0  0  0  0  0  0  0  0  0  0
    0.2753    0.5242   -1.2436 C   0  0  0  0  0  0  0  0  0  0  0  0
   -3.6400    0.6760    0.5626 C   0  0  0  0  0  0  0  0  0  0  0  0
    1.1357   -2.3823   -1.0503 C   0  0  0  0  0  0  0  0  0  0  0  0
    1.8711    1.9031    0.0337 C   0  0  0  0  0  0  0  0  0  0  0  0
   -4.8407    0.7043   -0.3714 C   0  0  0  0  0  0  0  0  0  0  0  0
    1.7829   -3.4423   -0.5534 C   0  0  0  0  0  0  0  0  0  0  0  0
   -0.9707    1.1716    1.0741 H   0  0  0  0  0  0  0  0  0  0  0  0
   -2.6316   -0.8943   -0.4783 H   0  0  0  0  0  0  0  0  0  0  0  0
   -2.2519    0.7341   -1.0353 H   0  0  0  0  0  0  0  0  0  0  0  0
   -0.8923   -1.9040   -1.2117 H   0  0  0  0  0  0  0  0  0  0  0  0
   -0.4105   -2.4642    0.3775 H   0  0  0  0  0  0  0  0  0  0  0  0
   -2.1370   -0.2549    2.6132 H   0  0  0  0  0  0  0  0  0  0  0  0
   -0.5083   -0.7897    2.6557 H   0  0  0  0  0  0  0  0  0  0  0  0
   -1.7318   -1.7255    1.7633 H   0  0  0  0  0  0  0  0  0  0  0  0
   -3.4418    1.6900    0.9281 H   0  0  0  0  0  0  0  0  0  0  0  0
   -3.9069    0.0595    1.4266 H   0  0  0  0  0  0  0  0  0  0  0  0
    2.6568    1.0344    1.7145 H   0  0  0  0  0  0  0  0  0  0  0  0
    1.0663    2.3388   -1.7991 H   0  0  0  0  0  0  0  0  0  0  0  0
    1.5253   -1.9222   -1.9546 H   0  0  0  0  0  0  0  0  0  0  0  0
   -4.6480    1.3423   -1.2398 H   0  0  0  0  0  0  0  0  0  0  0  0
   -5.0833   -0.3012   -0.7300 H   0  0  0  0  0  0  0  0  0  0  0  0
   -5.7177    1.0994    0.1510 H   0  0  0  0  0  0  0  0  0  0  0  0
    2.6775   -3.8156   -1.0398 H   0  0  0  0  0  0  0  0  0  0  0  0
    1.4394   -3.9538    0.3388 H   0  0  0  0  0  0  0  0  0  0  0  0
  1 15  2  0  0  0  0
  2 11  2  0  0  0  0
  3 12  2  0  0  0  0
  4 11  1  0  0  0  0
  4 15  1  0  0  0  0
  4 28  1  0  0  0  0
  5 12  1  0  0  0  0
  5 15  1  0  0  0  0
  5 29  1  0  0  0  0
  6  7  1  0  0  0  0
  6  9  1  0  0  0  0
  6 11  1  0  0  0  0
  6 12  1  0  0  0  0
  7  8  1  0  0  0  0
  7 10  1  0  0  0  0
  7 18  1  0  0  0  0
  8 13  1  0  0  0  0
  8 19  1  0  0  0  0
  8 20  1  0  0  0  0
  9 14  1  0  0  0  0
  9 21  1  0  0  0  0
  9 22  1  0  0  0  0
 10 23  1  0  0  0  0
 10 24  1  0  0  0  0
 10 25  1  0  0  0  0
 13 16  1  0  0  0  0
 13 26  1  0  0  0  0
 13 27  1  0  0  0  0
 14 17  2  0  0  0  0
 14 30  1  0  0  0  0
 16 31  1  0  0  0  0
 16 32  1  0  0  0  0
 16 33  1  0  0  0  0
 17 34  1  0  0  0  0
 17 35  1  0  0  0  0
M  END
> <PUBCHEM_COMPOUND_CID>
3032285

> <PUBCHEM_CONFORMER_RMSD>
0.8

> <PUBCHEM_CONFORMER_DIVERSEORDER>
1
7
14
6
5
11
9
13
12
8
2
4
10
3

> <PUBCHEM_MMFF94_PARTIAL_CHARGES>
17
1 -0.38
11 0.57
12 0.57
14 -0.29
15 0.5
17 -0.3
2 -0.57
28 0.37
29 0.37
3 -0.57
30 0.15
34 0.15
35 0.15
4 -0.49
5 -0.49
6 0.12
9 0.14

> <PUBCHEM_EFFECTIVE_ROTOR_COUNT>
5.6

> <PUBCHEM_PHARMACOPHORE_FEATURES>
9
1 1 acceptor
1 10 hydrophobe
1 16 hydrophobe
1 17 hydrophobe
1 2 acceptor
1 3 acceptor
1 4 donor
1 5 donor
6 4 5 6 11 12 15 rings

> <PUBCHEM_HEAVY_ATOM_COUNT>
17

> <PUBCHEM_ATOM_DEF_STEREO_COUNT>
0

> <PUBCHEM_ATOM_UDEF_STEREO_COUNT>
1

> <PUBCHEM_BOND_DEF_STEREO_COUNT>
0

> <PUBCHEM_BOND_UDEF_STEREO_COUNT>
0

> <PUBCHEM_ISOTOPIC_ATOM_COUNT>
0

> <PUBCHEM_COMPONENT_COUNT>
1

> <PUBCHEM_CACTVS_TAUTO_COUNT>
5

> <PUBCHEM_CONFORMER_ID>
002E44DD00000001

> <PUBCHEM_MMFF94_ENERGY>
44.7782

> <PUBCHEM_FEATURE_SELFOVERLAP>
45.709

> <PUBCHEM_SHAPE_FINGERPRINT>
10948715 1 18266178318547439928
12138202 97 17462551819799860708
12173636 292 17829619357317136108
12423570 1 18122096270439175026
12725867 57 18120085336738988983
13134695 92 18122615313284684511
13380537 58 17903625298707059684
14142880 1 17551815628246018396
14817 1 10910200836091603966
15852999 172 18200583701534450731
15906896 17 17623284966567398234
16945 1 18337405940330742311
19765921 60 17749947744109484081
20473742 2 18410290349996328806
20511035 2 17916013560604694032
20671657 53 17900537088731107767
21524375 3 18126286333175054385
23419403 2 17194542738330836186
23526113 38 18056743554326785299
23557571 272 17773575175754832505
576247 118 17906456876124506758
7364860 26 18336540607599994733
81228 2 10516100164459818694

> <PUBCHEM_SHAPE_MULTIPOLES>
332
4.94
3.28
1.63
7.06
1.3
0.06
-3.82
0.14
-4.08
-0.64
-0.01
0.27
0.27

> <PUBCHEM_SHAPE_SELFOVERLAP>
664.136

> <PUBCHEM_SHAPE_VOLUME>
197.9

> <PUBCHEM_COORDINATE_TYPE>
2
5
10

$$$$

