656873
  -OEChem-07051213043D

 23 24  0     0  0  0  0  0  0999 V2000
   -0.4223   -2.1805   -0.0307 O   0  0  0  0  0  0  0  0  0  0  0  0
   -3.1069   -1.8182   -0.0003 O   0  0  0  0  0  0  0  0  0  0  0  0
    2.3090   -1.6572    1.2088 O   0  0  0  0  0  0  0  0  0  0  0  0
    2.3895   -1.8323   -1.0467 O   0  0  0  0  0  0  0  0  0  0  0  0
   -0.0412    0.2201   -0.0161 C   0  0  0  0  0  0  0  0  0  0  0  0
   -0.6036    1.5187   -0.0003 C   0  0  0  0  0  0  0  0  0  0  0  0
    1.3558    0.0768   -0.0319 C   0  0  0  0  0  0  0  0  0  0  0  0
   -0.8924   -0.8970   -0.0155 C   0  0  0  0  0  0  0  0  0  0  0  0
   -2.0006    1.6619    0.0154 C   0  0  0  0  0  0  0  0  0  0  0  0
    0.2476    2.6358   -0.0010 C   0  0  0  0  0  0  0  0  0  0  0  0
   -2.2781   -0.7360    0.0004 C   0  0  0  0  0  0  0  0  0  0  0  0
    2.1864    1.1978   -0.0322 C   0  0  0  0  0  0  0  0  0  0  0  0
   -2.8311    0.5410    0.0158 C   0  0  0  0  0  0  0  0  0  0  0  0
    1.6333    2.4748   -0.0168 C   0  0  0  0  0  0  0  0  0  0  0  0
    2.0546   -1.2057   -0.0490 C   0  0  0  0  0  0  0  0  0  0  0  0
   -2.4547    2.6505    0.0275 H   0  0  0  0  0  0  0  0  0  0  0  0
   -0.1627    3.6434    0.0109 H   0  0  0  0  0  0  0  0  0  0  0  0
    3.2686    1.0917   -0.0447 H   0  0  0  0  0  0  0  0  0  0  0  0
   -3.9097    0.6729    0.0279 H   0  0  0  0  0  0  0  0  0  0  0  0
    2.2803    3.3472   -0.0171 H   0  0  0  0  0  0  0  0  0  0  0  0
    0.1095   -2.3002    0.7752 H   0  0  0  0  0  0  0  0  0  0  0  0
   -2.5591   -2.6222   -0.0116 H   0  0  0  0  0  0  0  0  0  0  0  0
    2.7774   -2.5191    1.1994 H   0  0  0  0  0  0  0  0  0  0  0  0
  1  8  1  0  0  0  0
  1 21  1  0  0  0  0
  2 11  1  0  0  0  0
  2 22  1  0  0  0  0
  3 15  1  0  0  0  0
  3 23  1  0  0  0  0
  4 15  2  0  0  0  0
  5  6  2  0  0  0  0
  5  7  1  0  0  0  0
  5  8  1  0  0  0  0
  6  9  1  0  0  0  0
  6 10  1  0  0  0  0
  7 12  2  0  0  0  0
  7 15  1  0  0  0  0
  8 11  2  0  0  0  0
  9 13  2  0  0  0  0
  9 16  1  0  0  0  0
 10 14  2  0  0  0  0
 10 17  1  0  0  0  0
 11 13  1  0  0  0  0
 12 14  1  0  0  0  0
 12 18  1  0  0  0  0
 13 19  1  0  0  0  0
 14 20  1  0  0  0  0
M  END
> <PUBCHEM_COMPOUND_CID>
656873

> <PUBCHEM_CONFORMER_RMSD>
0.4

> <PUBCHEM_CONFORMER_DIVERSEORDER>
1
3
2

> <PUBCHEM_MMFF94_PARTIAL_CHARGES>
21
1 -0.53
10 -0.15
11 0.08
12 -0.15
13 -0.15
14 -0.15
15 0.63
16 0.15
17 0.15
18 0.15
19 0.15
2 -0.53
20 0.15
21 0.45
22 0.45
23 0.5
3 -0.65
4 -0.57
7 0.09
8 0.08
9 -0.15

> <PUBCHEM_EFFECTIVE_ROTOR_COUNT>
1

> <PUBCHEM_PHARMACOPHORE_FEATURES>
7
1 1 donor
1 2 donor
1 3 acceptor
1 4 acceptor
3 3 4 15 anion
6 5 6 7 10 12 14 rings
6 5 6 8 9 11 13 rings

> <PUBCHEM_HEAVY_ATOM_COUNT>
15

> <PUBCHEM_ATOM_DEF_STEREO_COUNT>
0

> <PUBCHEM_ATOM_UDEF_STEREO_COUNT>
0

> <PUBCHEM_BOND_DEF_STEREO_COUNT>
0

> <PUBCHEM_BOND_UDEF_STEREO_COUNT>
0

> <PUBCHEM_ISOTOPIC_ATOM_COUNT>
0

> <PUBCHEM_COMPONENT_COUNT>
1

> <PUBCHEM_CACTVS_TAUTO_COUNT>
16

> <PUBCHEM_CONFORMER_ID>
000A05E900000001

> <PUBCHEM_MMFF94_ENERGY>
55.6786

> <PUBCHEM_FEATURE_SELFOVERLAP>
35.613

> <PUBCHEM_SHAPE_FINGERPRINT>
10967382 1 18338516472860430589
11578080 2 17058111006582673588
12382932 28 18337121124038430216
12524768 44 18409165506503520389
13140716 1 18338517550971146809
13172582 1 18193554699412137497
13380535 76 17979358564269081123
14790565 3 17688004815302960376
15001771 113 18335690672053028080
16945 1 18194118517038733597
17990270 104 18408882923451712054
193761 8 18410573963845770517
19868273 325 18267298927064818158
20588541 1 17979914917469136377
20645477 70 18265619771658463119
21501502 16 18410573963966940401
22802520 49 17393879991505045078
2334 1 18410856546918560909
23419403 2 17037892000674637801
23463225 33 18412546547830014769
23552423 10 18342736278234129333
23559900 14 17830171669386054526
241688 4 18338796848225455888
2748010 2 18410858784564964677
2897 32 18267584598314540037
7364860 26 18262235521637710532
81228 2 17976259363239612952

> <PUBCHEM_SHAPE_MULTIPOLES>
285.22
3.97
2.94
0.72
1.39
0.51
-0.03
-1.23
-0.01
-0.85
0.02
-0.3
-0.21
-0.01

> <PUBCHEM_SHAPE_SELFOVERLAP>
635.041

> <PUBCHEM_SHAPE_VOLUME>
152.2

> <PUBCHEM_COORDINATE_TYPE>
2
5
10

$$$$

