9859
  -OEChem-06261204083D

 50 49  0     0  0  0  0  0  0999 V2000
   10.6394   -0.3335    0.0452 F   0  0  0  0  0  0  0  0  0  0  0  0
  -10.6207    0.2999   -0.0955 F   0  0  0  0  0  0  0  0  0  0  0  0
    0.6265   -0.4127    0.0018 C   0  0  0  0  0  0  0  0  0  0  0  0
   -0.6423    0.4397    0.0888 C   0  0  0  0  0  0  0  0  0  0  0  0
    1.9165    0.4144    0.0117 C   0  0  0  0  0  0  0  0  0  0  0  0
   -1.9318   -0.3882    0.0773 C   0  0  0  0  0  0  0  0  0  0  0  0
    3.1882   -0.4370    0.0028 C   0  0  0  0  0  0  0  0  0  0  0  0
   -3.2040    0.4623    0.0865 C   0  0  0  0  0  0  0  0  0  0  0  0
    4.4425    0.4415   -0.0176 C   0  0  0  0  0  0  0  0  0  0  0  0
   -4.4570   -0.4161    0.0516 C   0  0  0  0  0  0  0  0  0  0  0  0
    5.7135   -0.4091   -0.0635 C   0  0  0  0  0  0  0  0  0  0  0  0
   -5.7311    0.4317    0.0275 C   0  0  0  0  0  0  0  0  0  0  0  0
    7.0014    0.4200   -0.0782 C   0  0  0  0  0  0  0  0  0  0  0  0
   -6.9822   -0.4493    0.0253 C   0  0  0  0  0  0  0  0  0  0  0  0
    8.3049   -0.3787   -0.0648 C   0  0  0  0  0  0  0  0  0  0  0  0
   -8.2833    0.3472   -0.0672 C   0  0  0  0  0  0  0  0  0  0  0  0
    9.5521    0.4841    0.0099 C   0  0  0  0  0  0  0  0  0  0  0  0
   -9.5326   -0.5161   -0.0415 C   0  0  0  0  0  0  0  0  0  0  0  0
    0.5955   -1.0179   -0.9125 H   0  0  0  0  0  0  0  0  0  0  0  0
    0.6433   -1.1140    0.8453 H   0  0  0  0  0  0  0  0  0  0  0  0
   -0.6586    1.1415   -0.7542 H   0  0  0  0  0  0  0  0  0  0  0  0
   -0.6120    1.0440    1.0037 H   0  0  0  0  0  0  0  0  0  0  0  0
    1.9225    1.0571    0.9010 H   0  0  0  0  0  0  0  0  0  0  0  0
    1.9178    1.0807   -0.8599 H   0  0  0  0  0  0  0  0  0  0  0  0
   -1.9351   -1.0283   -0.8139 H   0  0  0  0  0  0  0  0  0  0  0  0
   -1.9349   -1.0573    0.9468 H   0  0  0  0  0  0  0  0  0  0  0  0
    3.1818   -1.0913   -0.8774 H   0  0  0  0  0  0  0  0  0  0  0  0
    3.2034   -1.0842    0.8879 H   0  0  0  0  0  0  0  0  0  0  0  0
   -3.2004    1.1336   -0.7807 H   0  0  0  0  0  0  0  0  0  0  0  0
   -3.2177    1.0922    0.9839 H   0  0  0  0  0  0  0  0  0  0  0  0
    4.4162    1.1040   -0.8911 H   0  0  0  0  0  0  0  0  0  0  0  0
    4.4595    1.0803    0.8734 H   0  0  0  0  0  0  0  0  0  0  0  0
   -4.4301   -1.0615   -0.8348 H   0  0  0  0  0  0  0  0  0  0  0  0
   -4.4680   -1.0729    0.9299 H   0  0  0  0  0  0  0  0  0  0  0  0
    5.6932   -1.0493   -0.9541 H   0  0  0  0  0  0  0  0  0  0  0  0
    5.7316   -1.0775    0.8063 H   0  0  0  0  0  0  0  0  0  0  0  0
   -5.7300    1.0700   -0.8643 H   0  0  0  0  0  0  0  0  0  0  0  0
   -5.7531    1.0948    0.9007 H   0  0  0  0  0  0  0  0  0  0  0  0
    6.9936    1.0873    0.7932 H   0  0  0  0  0  0  0  0  0  0  0  0
    6.9943    1.0690   -0.9632 H   0  0  0  0  0  0  0  0  0  0  0  0
   -6.9333   -1.1476   -0.8195 H   0  0  0  0  0  0  0  0  0  0  0  0
   -6.9965   -1.0577    0.9381 H   0  0  0  0  0  0  0  0  0  0  0  0
    8.3606   -1.0112   -0.9590 H   0  0  0  0  0  0  0  0  0  0  0  0
    8.3049   -1.0681    0.7882 H   0  0  0  0  0  0  0  0  0  0  0  0
   -8.2878    0.9480   -0.9849 H   0  0  0  0  0  0  0  0  0  0  0  0
   -8.3364    1.0658    0.7599 H   0  0  0  0  0  0  0  0  0  0  0  0
    9.6442    1.1336   -0.8652 H   0  0  0  0  0  0  0  0  0  0  0  0
    9.5628    1.0982    0.9148 H   0  0  0  0  0  0  0  0  0  0  0  0
   -9.5721   -1.1917   -0.9006 H   0  0  0  0  0  0  0  0  0  0  0  0
   -9.5967   -1.1029    0.8793 H   0  0  0  0  0  0  0  0  0  0  0  0
  1 17  1  0  0  0  0
  2 18  1  0  0  0  0
  3  4  1  0  0  0  0
  3  5  1  0  0  0  0
  3 19  1  0  0  0  0
  3 20  1  0  0  0  0
  4  6  1  0  0  0  0
  4 21  1  0  0  0  0
  4 22  1  0  0  0  0
  5  7  1  0  0  0  0
  5 23  1  0  0  0  0
  5 24  1  0  0  0  0
  6  8  1  0  0  0  0
  6 25  1  0  0  0  0
  6 26  1  0  0  0  0
  7  9  1  0  0  0  0
  7 27  1  0  0  0  0
  7 28  1  0  0  0  0
  8 10  1  0  0  0  0
  8 29  1  0  0  0  0
  8 30  1  0  0  0  0
  9 11  1  0  0  0  0
  9 31  1  0  0  0  0
  9 32  1  0  0  0  0
 10 12  1  0  0  0  0
 10 33  1  0  0  0  0
 10 34  1  0  0  0  0
 11 13  1  0  0  0  0
 11 35  1  0  0  0  0
 11 36  1  0  0  0  0
 12 14  1  0  0  0  0
 12 37  1  0  0  0  0
 12 38  1  0  0  0  0
 13 15  1  0  0  0  0
 13 39  1  0  0  0  0
 13 40  1  0  0  0  0
 14 16  1  0  0  0  0
 14 41  1  0  0  0  0
 14 42  1  0  0  0  0
 15 17  1  0  0  0  0
 15 43  1  0  0  0  0
 15 44  1  0  0  0  0
 16 18  1  0  0  0  0
 16 45  1  0  0  0  0
 16 46  1  0  0  0  0
 17 47  1  0  0  0  0
 17 48  1  0  0  0  0
 18 49  1  0  0  0  0
 18 50  1  0  0  0  0
M  END
> <PUBCHEM_COMPOUND_CID>
9859

> <PUBCHEM_CONFORMER_RMSD>
1.4

> <PUBCHEM_CONFORMER_DIVERSEORDER>
1
28
32
2
40
36
4
15
12
11
22
19
5
35
31
37
10
13
27
8
3
20
34
16
26
25
7
18
33
17
29
30
6
38
24
23
14
9
39
21

> <PUBCHEM_MMFF94_PARTIAL_CHARGES>
4
1 -0.34
17 0.34
18 0.34
2 -0.34

> <PUBCHEM_EFFECTIVE_ROTOR_COUNT>
15

> <PUBCHEM_PHARMACOPHORE_FEATURES>
0

> <PUBCHEM_HEAVY_ATOM_COUNT>
18

> <PUBCHEM_ATOM_DEF_STEREO_COUNT>
0

> <PUBCHEM_ATOM_UDEF_STEREO_COUNT>
0

> <PUBCHEM_BOND_DEF_STEREO_COUNT>
0

> <PUBCHEM_BOND_UDEF_STEREO_COUNT>
0

> <PUBCHEM_ISOTOPIC_ATOM_COUNT>
0

> <PUBCHEM_COMPONENT_COUNT>
1

> <PUBCHEM_CACTVS_TAUTO_COUNT>
1

> <PUBCHEM_CONFORMER_ID>
0000268300000001

> <PUBCHEM_MMFF94_ENERGY>
-1.5556

> <PUBCHEM_FEATURE_SELFOVERLAP>
0

> <PUBCHEM_SHAPE_FINGERPRINT>
14123256 10 18410573989446418439
14251764 46 18410856559639789574
14251920 1 18410575093253020003
15510794 2 18410569587190044158
232437 2 18409449185025508503
23521765 1 18335420166369705989
23581129 1 18411981360035004423
33684 2 18411138038916742282
67123 10 18410573980856483845
8209 1 18410855460128161792

> <PUBCHEM_SHAPE_MULTIPOLES>
355.88
40.93
0.78
0.61
0.82
0
0
-0.45
-1.04
-0.01
0
-0.01
0
0.02

> <PUBCHEM_SHAPE_SELFOVERLAP>
639.846

> <PUBCHEM_SHAPE_VOLUME>
229.1

> <PUBCHEM_COORDINATE_TYPE>
2
5
10

$$$$

