10295
  -OEChem-06261204262D

 23 25  0     0  0  0  0  0  0999 V2000
    4.6660   -1.4827    0.0000 S   0  0  0  0  0  0  0  0  0  0  0  0
    4.6660    1.5173    0.0000 O   0  0  0  0  0  0  0  0  0  0  0  0
    5.5321    0.0173    0.0000 C   0  0  0  0  0  0  0  0  0  0  0  0
    3.8000    0.0173    0.0000 C   0  0  0  0  0  0  0  0  0  0  0  0
    5.5321   -0.9827    0.0000 C   0  0  0  0  0  0  0  0  0  0  0  0
    3.8000   -0.9827    0.0000 C   0  0  0  0  0  0  0  0  0  0  0  0
    4.6660    0.5173    0.0000 C   0  0  0  0  0  0  0  0  0  0  0  0
    6.4260    0.5520    0.0000 C   0  0  0  0  0  0  0  0  0  0  0  0
    2.9061    0.5520    0.0000 C   0  0  0  0  0  0  0  0  0  0  0  0
    6.4260   -1.5173    0.0000 C   0  0  0  0  0  0  0  0  0  0  0  0
    2.9061   -1.5173    0.0000 C   0  0  0  0  0  0  0  0  0  0  0  0
    2.0000    0.0381    0.0000 C   0  0  0  0  0  0  0  0  0  0  0  0
    7.3321    0.0381    0.0000 C   0  0  0  0  0  0  0  0  0  0  0  0
    7.3321   -1.0035    0.0000 C   0  0  0  0  0  0  0  0  0  0  0  0
    2.0000   -1.0035    0.0000 C   0  0  0  0  0  0  0  0  0  0  0  0
    6.4188    1.1720    0.0000 H   0  0  0  0  0  0  0  0  0  0  0  0
    2.9132    1.1720    0.0000 H   0  0  0  0  0  0  0  0  0  0  0  0
    6.4188   -2.1373    0.0000 H   0  0  0  0  0  0  0  0  0  0  0  0
    2.9132   -2.1373    0.0000 H   0  0  0  0  0  0  0  0  0  0  0  0
    7.8678    0.3502    0.0000 H   0  0  0  0  0  0  0  0  0  0  0  0
    1.4643    0.3502    0.0000 H   0  0  0  0  0  0  0  0  0  0  0  0
    7.8678   -1.3156    0.0000 H   0  0  0  0  0  0  0  0  0  0  0  0
    1.4643   -1.3156    0.0000 H   0  0  0  0  0  0  0  0  0  0  0  0
  1  5  1  0  0  0  0
  1  6  1  0  0  0  0
  2  7  2  0  0  0  0
  3  5  1  0  0  0  0
  3  7  1  0  0  0  0
  3  8  2  0  0  0  0
  4  6  1  0  0  0  0
  4  7  1  0  0  0  0
  4  9  2  0  0  0  0
  5 10  2  0  0  0  0
  6 11  2  0  0  0  0
  8 13  1  0  0  0  0
  8 16  1  0  0  0  0
  9 12  1  0  0  0  0
  9 17  1  0  0  0  0
 10 14  1  0  0  0  0
 10 18  1  0  0  0  0
 11 15  1  0  0  0  0
 11 19  1  0  0  0  0
 12 15  2  0  0  0  0
 12 21  1  0  0  0  0
 13 14  2  0  0  0  0
 13 20  1  0  0  0  0
 14 22  1  0  0  0  0
 15 23  1  0  0  0  0
M  END
> <PUBCHEM_COMPOUND_CID>
10295

> <PUBCHEM_COMPOUND_CANONICALIZED>
1

> <PUBCHEM_CACTVS_COMPLEXITY>
239

> <PUBCHEM_CACTVS_HBOND_ACCEPTOR>
2

> <PUBCHEM_CACTVS_HBOND_DONOR>
0

> <PUBCHEM_CACTVS_ROTATABLE_BOND>
0

> <PUBCHEM_CACTVS_SUBSKEYS>
AAADccBwIABAAAAAAAAAAAAAAAAAAAAAAAA0YIAAAAAAAACRQAAAGgQAAAAADASA2AAwAYAAAAiIAqBSAAACAAAkCBAIiBkAAMgIIDKgFRCAIQAggAAoiYcIiMCOAAAAAAAEAAAAAAAAAAgAAAAAAAAAAA==

> <PUBCHEM_IUPAC_OPENEYE_NAME>
thioxanthen-9-one

> <PUBCHEM_IUPAC_CAS_NAME>
9-thioxanthenone

> <PUBCHEM_IUPAC_NAME>
thioxanthen-9-one

> <PUBCHEM_IUPAC_SYSTEMATIC_NAME>
thioxanthen-9-one

> <PUBCHEM_IUPAC_TRADITIONAL_NAME>
thioxanthen-9-one

> <PUBCHEM_IUPAC_INCHI>
InChI=1S/C13H8OS/c14-13-9-5-1-3-7-11(9)15-12-8-4-2-6-10(12)13/h1-8H

> <PUBCHEM_IUPAC_INCHIKEY>
YRHRIQCWCFGUEQ-UHFFFAOYSA-N

> <PUBCHEM_XLOGP3>
4

> <PUBCHEM_EXACT_MASS>
212.029586

> <PUBCHEM_MOLECULAR_FORMULA>
C13H8OS

> <PUBCHEM_MOLECULAR_WEIGHT>
212.26702

> <PUBCHEM_OPENEYE_CAN_SMILES>
C1=CC=C2C(=C1)C(=O)C3=CC=CC=C3S2

> <PUBCHEM_OPENEYE_ISO_SMILES>
C1=CC=C2C(=C1)C(=O)C3=CC=CC=C3S2

> <PUBCHEM_CACTVS_TPSA>
42.4

> <PUBCHEM_MONOISOTOPIC_WEIGHT>
212.029586

> <PUBCHEM_TOTAL_CHARGE>
0

> <PUBCHEM_HEAVY_ATOM_COUNT>
15

> <PUBCHEM_ATOM_DEF_STEREO_COUNT>
0

> <PUBCHEM_ATOM_UDEF_STEREO_COUNT>
0

> <PUBCHEM_BOND_DEF_STEREO_COUNT>
0

> <PUBCHEM_BOND_UDEF_STEREO_COUNT>
0

> <PUBCHEM_ISOTOPIC_ATOM_COUNT>
0

> <PUBCHEM_COMPONENT_COUNT>
1

> <PUBCHEM_CACTVS_TAUTO_COUNT>
1

> <PUBCHEM_COORDINATE_TYPE>
1
5
255

> <PUBCHEM_BONDANNOTATIONS>
1  5  8
1  6  8
10  14  8
11  15  8
12  15  8
13  14  8
3  5  8
3  7  8
3  8  8
4  6  8
4  7  8
4  9  8
5  10  8
6  11  8
8  13  8
9  12  8

$$$$

