441797
  -OEChem-07051212562D

 54 58  0     1  0  0  0  0  0999 V2000
    5.4633    0.9165    0.0000 O   0  0  0  0  0  0  0  0  0  0  0  0
    4.2947   -1.9492    0.0000 O   0  0  0  0  0  0  0  0  0  0  0  0
    6.5427    1.9861    0.0000 O   0  0  0  0  0  0  0  0  0  0  0  0
    5.1767    2.6201    0.0000 O   0  0  0  0  0  0  0  0  0  0  0  0
    2.5405    0.1232    0.0000 O   0  0  0  0  0  0  0  0  0  0  0  0
    7.8271    1.2050    0.0000 O   0  0  0  0  0  0  0  0  0  0  0  0
    2.5247   -1.9250    0.0000 O   0  0  0  0  0  0  0  0  0  0  0  0
    9.6618    0.2208    0.0000 O   0  0  0  0  0  0  0  0  0  0  0  0
    5.1767   -0.3799    0.0000 C   0  0  2  0  0  0  0  0  0  0  0  0
    6.0427    0.1201    0.0000 C   0  0  1  0  0  0  0  0  0  0  0  0
    6.9525   -0.3679    0.0000 C   0  0  2  0  0  0  0  0  0  0  0  0
    4.3107    0.1201    0.0000 C   0  0  2  0  0  0  0  0  0  0  0  0
    6.0427    1.1201    0.0000 C   0  0  2  0  0  0  0  0  0  0  0  0
    5.1928   -1.4214    0.0000 C   0  0  1  0  0  0  0  0  0  0  0  0
    6.9768   -1.4000    0.0000 C   0  0  1  0  0  0  0  0  0  0  0  0
    4.3107    1.1201    0.0000 C   0  0  2  0  0  0  0  0  0  0  0  0
    5.0633    0.2237    0.0000 C   0  0  0  0  0  0  0  0  0  0  0  0
    5.1767    1.6201    0.0000 C   0  0  1  0  0  0  0  0  0  0  0  0
    6.0910   -1.9303    0.0000 C   0  0  0  0  0  0  0  0  0  0  0  0
    3.4007   -0.3868    0.0000 C   0  0  2  0  0  0  0  0  0  0  0  0
    7.8622    0.2056    0.0000 C   0  0  1  0  0  0  0  0  0  0  0  0
    6.9290    0.6318    0.0000 C   0  0  0  0  0  0  0  0  0  0  0  0
    7.9125   -1.9302    0.0000 C   0  0  0  0  0  0  0  0  0  0  0  0
    3.4446    1.6201    0.0000 C   0  0  0  0  0  0  0  0  0  0  0  0
    3.3926   -1.4284    0.0000 C   0  0  0  0  0  0  0  0  0  0  0  0
    8.8098   -0.3027    0.0000 C   0  0  0  0  0  0  0  0  0  0  0  0
    8.8351   -1.3778    0.0000 C   0  0  0  0  0  0  0  0  0  0  0  0
    7.9244   -2.9301    0.0000 C   0  0  0  0  0  0  0  0  0  0  0  0
    6.4677   -0.6160    0.0000 H   0  0  0  0  0  0  0  0  0  0  0  0
    3.5746    0.5451    0.0000 H   0  0  0  0  0  0  0  0  0  0  0  0
    5.1995   -2.2714    0.0000 H   0  0  0  0  0  0  0  0  0  0  0  0
    6.9870   -2.2500    0.0000 H   0  0  0  0  0  0  0  0  0  0  0  0
    3.7737    0.8101    0.0000 H   0  0  0  0  0  0  0  0  0  0  0  0
    4.6362    0.6731    0.0000 H   0  0  0  0  0  0  0  0  0  0  0  0
    4.5113   -0.0587    0.0000 H   0  0  0  0  0  0  0  0  0  0  0  0
    5.7136    1.9301    0.0000 H   0  0  0  0  0  0  0  0  0  0  0  0
    5.6976   -2.4095    0.0000 H   0  0  0  0  0  0  0  0  0  0  0  0
    6.4958   -2.4000    0.0000 H   0  0  0  0  0  0  0  0  0  0  0  0
    2.8608   -0.6916    0.0000 H   0  0  0  0  0  0  0  0  0  0  0  0
    7.3141    0.4955    0.0000 H   0  0  0  0  0  0  0  0  0  0  0  0
    7.5488    0.6464    0.0000 H   0  0  0  0  0  0  0  0  0  0  0  0
    6.9144    1.2516    0.0000 H   0  0  0  0  0  0  0  0  0  0  0  0
    6.3091    0.6172    0.0000 H   0  0  0  0  0  0  0  0  0  0  0  0
    3.7546    2.1570    0.0000 H   0  0  0  0  0  0  0  0  0  0  0  0
    2.9077    1.9301    0.0000 H   0  0  0  0  0  0  0  0  0  0  0  0
    3.1346    1.0831    0.0000 H   0  0  0  0  0  0  0  0  0  0  0  0
    6.2327    2.5230    0.0000 H   0  0  0  0  0  0  0  0  0  0  0  0
    4.6398    2.9301    0.0000 H   0  0  0  0  0  0  0  0  0  0  0  0
    9.3781   -1.6772    0.0000 H   0  0  0  0  0  0  0  0  0  0  0  0
    2.0000   -0.1806    0.0000 H   0  0  0  0  0  0  0  0  0  0  0  0
    8.3528    1.5337    0.0000 H   0  0  0  0  0  0  0  0  0  0  0  0
    7.3045   -2.9375    0.0000 H   0  0  0  0  0  0  0  0  0  0  0  0
    7.9319   -3.5500    0.0000 H   0  0  0  0  0  0  0  0  0  0  0  0
    8.5444   -2.9226    0.0000 H   0  0  0  0  0  0  0  0  0  0  0  0
  1 13  1  0  0  0  0
  1 17  1  0  0  0  0
  2 14  1  0  0  0  0
  2 25  1  0  0  0  0
 13  3  1  6  0  0  0
  3 47  1  0  0  0  0
 18  4  1  1  0  0  0
  4 48  1  0  0  0  0
 20  5  1  6  0  0  0
  5 50  1  0  0  0  0
 21  6  1  6  0  0  0
  6 51  1  0  0  0  0
  7 25  2  0  0  0  0
  8 26  2  0  0  0  0
  9 10  1  0  0  0  0
  9 12  1  0  0  0  0
  9 14  1  0  0  0  0
  9 17  1  6  0  0  0
 10 11  1  0  0  0  0
 10 13  1  0  0  0  0
 10 29  1  1  0  0  0
 11 15  1  0  0  0  0
 11 21  1  0  0  0  0
 11 22  1  6  0  0  0
 12 16  1  0  0  0  0
 12 20  1  0  0  0  0
 12 30  1  6  0  0  0
 13 18  1  0  0  0  0
 14 19  1  0  0  0  0
 14 31  1  6  0  0  0
 15 19  1  0  0  0  0
 15 23  1  0  0  0  0
 15 32  1  1  0  0  0
 16 18  1  0  0  0  0
 16 24  1  1  0  0  0
 16 33  1  0  0  0  0
 17 34  1  0  0  0  0
 17 35  1  0  0  0  0
 18 36  1  0  0  0  0
 19 37  1  0  0  0  0
 19 38  1  0  0  0  0
 20 25  1  0  0  0  0
 20 39  1  0  0  0  0
 21 26  1  0  0  0  0
 21 40  1  0  0  0  0
 22 41  1  0  0  0  0
 22 42  1  0  0  0  0
 22 43  1  0  0  0  0
 23 27  2  0  0  0  0
 23 28  1  0  0  0  0
 24 44  1  0  0  0  0
 24 45  1  0  0  0  0
 24 46  1  0  0  0  0
 26 27  1  0  0  0  0
 27 49  1  0  0  0  0
 28 52  1  0  0  0  0
 28 53  1  0  0  0  0
 28 54  1  0  0  0  0
M  END
> <PUBCHEM_COMPOUND_CID>
441797

> <PUBCHEM_COMPOUND_CANONICALIZED>
1

> <PUBCHEM_CACTVS_COMPLEXITY>
808

> <PUBCHEM_CACTVS_HBOND_ACCEPTOR>
8

> <PUBCHEM_CACTVS_HBOND_DONOR>
4

> <PUBCHEM_CACTVS_ROTATABLE_BOND>
0

> <PUBCHEM_CACTVS_SUBSKEYS>
AAADceB4PAAAAAAAAAAAAAAAAAAAASAAAAA0YIEABIAAAEiQAAAAGgAACAAADxSggAICCAAABgCIAqDSCAIAAAAgAAAACAFAAEgREBIAAQACQAAFwAAPAQPI7PzPgAAAAAAAAADAAAYAADCAAAAAAAAAAA==

> <PUBCHEM_IUPAC_INCHI>
InChI=1S/C20H26O8/c1-7-4-10(21)15(24)18(3)9(7)5-11-19-6-27-20(26,17(18)19)14(23)8(2)12(19)13(22)16(25)28-11/h4,8-9,11-15,17,22-24,26H,5-6H2,1-3H3/t8-,9+,11-,12-,13-,14-,15-,17-,18-,19+,20+/m1/s1

> <PUBCHEM_IUPAC_INCHIKEY>
FJHVIRYYVWNHSM-FOSMHHDRSA-N

> <PUBCHEM_XLOGP3_AA>
-0.9

> <PUBCHEM_EXACT_MASS>
394.162768

> <PUBCHEM_MOLECULAR_FORMULA>
C20H26O8

> <PUBCHEM_MOLECULAR_WEIGHT>
394.41564

> <PUBCHEM_OPENEYE_CAN_SMILES>
CC1C2C(C(=O)OC3C24COC(C1O)(C4C5(C(C3)C(=CC(=O)C5O)C)C)O)O

> <PUBCHEM_OPENEYE_ISO_SMILES>
C[C@@H]1[C@@H]2[C@H](C(=O)O[C@H]3[C@@]24CO[C@@]([C@@H]1O)([C@@H]4[C@@]5([C@@H](C3)C(=CC(=O)[C@H]5O)C)C)O)O

> <PUBCHEM_CACTVS_TPSA>
134

> <PUBCHEM_MONOISOTOPIC_WEIGHT>
394.162768

> <PUBCHEM_TOTAL_CHARGE>
0

> <PUBCHEM_HEAVY_ATOM_COUNT>
28

> <PUBCHEM_ATOM_DEF_STEREO_COUNT>
11

> <PUBCHEM_ATOM_UDEF_STEREO_COUNT>
0

> <PUBCHEM_BOND_DEF_STEREO_COUNT>
0

> <PUBCHEM_BOND_UDEF_STEREO_COUNT>
0

> <PUBCHEM_ISOTOPIC_ATOM_COUNT>
0

> <PUBCHEM_COMPONENT_COUNT>
1

> <PUBCHEM_CACTVS_TAUTO_COUNT>
39

> <PUBCHEM_COORDINATE_TYPE>
1
5
255

> <PUBCHEM_BONDANNOTATIONS>
10  29  5
11  22  6
12  30  6
14  31  6
15  32  5
16  24  5
13  3  6
18  4  5
20  5  6
21  6  6
9  17  6

$$$$

