11228693
  -OEChem-07051213092D

 54 56  0     1  0  0  0  0  0999 V2000
    8.6671    0.7892    0.0000 O   0  0  0  0  0  0  0  0  0  0  0  0
    6.0010   -0.6900    0.0000 O   0  0  0  0  0  0  0  0  0  0  0  0
    5.1350    0.8100    0.0000 O   0  0  0  0  0  0  0  0  0  0  0  0
    5.1350   -2.1900    0.0000 O   0  0  0  0  0  0  0  0  0  0  0  0
    9.5312    2.3342    0.0000 O   0  0  0  0  0  0  0  0  0  0  0  0
    4.2690    0.3100    0.0000 O   0  0  0  0  0  0  0  0  0  0  0  0
    2.5369   -0.6900    0.0000 O   0  0  0  0  0  0  0  0  0  0  0  0
    2.5369   -2.6900    0.0000 O   0  0  0  0  0  0  0  0  0  0  0  0
    5.1350    3.8100    0.0000 O   0  0  0  0  0  0  0  0  0  0  0  0
    5.1350   -4.1900    0.0000 O   0  0  0  0  0  0  0  0  0  0  0  0
    6.8671    3.8100    0.0000 O   0  0  0  0  0  0  0  0  0  0  0  0
    6.8671    0.8100    0.0000 C   0  0  1  0  0  0  0  0  0  0  0  0
    6.8671    1.8100    0.0000 C   0  0  2  0  0  0  0  0  0  0  0  0
    7.7610    0.2753    0.0000 C   0  0  2  0  0  0  0  0  0  0  0  0
    6.0010    0.3100    0.0000 C   0  0  2  0  0  0  0  0  0  0  0  0
    7.7610    2.3447    0.0000 C   0  0  0  0  0  0  0  0  0  0  0  0
    8.6671    1.8308    0.0000 C   0  0  1  0  0  0  0  0  0  0  0  0
    6.0010    2.3100    0.0000 C   0  0  0  0  0  0  0  0  0  0  0  0
    5.1350   -1.1900    0.0000 C   0  0  2  0  0  0  0  0  0  0  0  0
    4.2690   -0.6900    0.0000 C   0  0  1  0  0  0  0  0  0  0  0  0
    3.4030   -1.1900    0.0000 C   0  0  2  0  0  0  0  0  0  0  0  0
    7.7494   -0.7246    0.0000 C   0  0  0  0  0  0  0  0  0  0  0  0
    3.4030   -2.1900    0.0000 C   0  0  1  0  0  0  0  0  0  0  0  0
    4.2690   -2.6900    0.0000 C   0  0  1  0  0  0  0  0  0  0  0  0
    5.1350    1.8100    0.0000 C   0  0  0  0  0  0  0  0  0  0  0  0
    6.0010    3.3100    0.0000 C   0  0  0  0  0  0  0  0  0  0  0  0
    4.2690   -3.6900    0.0000 C   0  0  0  0  0  0  0  0  0  0  0  0
    5.1350    4.8100    0.0000 C   0  0  0  0  0  0  0  0  0  0  0  0
    6.8605   -0.0400    0.0000 H   0  0  0  0  0  0  0  0  0  0  0  0
    6.8605    2.6600    0.0000 H   0  0  0  0  0  0  0  0  0  0  0  0
    8.2949   -0.0398    0.0000 H   0  0  0  0  0  0  0  0  0  0  0  0
    6.5380    0.0000    0.0000 H   0  0  0  0  0  0  0  0  0  0  0  0
    8.1546    2.8237    0.0000 H   0  0  0  0  0  0  0  0  0  0  0  0
    7.3564    2.8144    0.0000 H   0  0  0  0  0  0  0  0  0  0  0  0
    8.6635    2.4508    0.0000 H   0  0  0  0  0  0  0  0  0  0  0  0
    5.1350   -0.5700    0.0000 H   0  0  0  0  0  0  0  0  0  0  0  0
    4.8059   -0.3800    0.0000 H   0  0  0  0  0  0  0  0  0  0  0  0
    2.8660   -1.5000    0.0000 H   0  0  0  0  0  0  0  0  0  0  0  0
    3.4030   -2.8100    0.0000 H   0  0  0  0  0  0  0  0  0  0  0  0
    7.1295   -0.7174    0.0000 H   0  0  0  0  0  0  0  0  0  0  0  0
    7.7423   -1.3446    0.0000 H   0  0  0  0  0  0  0  0  0  0  0  0
    8.3694   -0.7318    0.0000 H   0  0  0  0  0  0  0  0  0  0  0  0
    4.8059   -3.0000    0.0000 H   0  0  0  0  0  0  0  0  0  0  0  0
    4.5981    2.1200    0.0000 H   0  0  0  0  0  0  0  0  0  0  0  0
    3.6584   -3.5823    0.0000 H   0  0  0  0  0  0  0  0  0  0  0  0
    4.0569   -4.2726    0.0000 H   0  0  0  0  0  0  0  0  0  0  0  0
   10.0693    2.0262    0.0000 H   0  0  0  0  0  0  0  0  0  0  0  0
    3.7320    0.6200    0.0000 H   0  0  0  0  0  0  0  0  0  0  0  0
    2.0000   -1.0000    0.0000 H   0  0  0  0  0  0  0  0  0  0  0  0
    2.5369   -3.3100    0.0000 H   0  0  0  0  0  0  0  0  0  0  0  0
    5.1350   -4.8100    0.0000 H   0  0  0  0  0  0  0  0  0  0  0  0
    5.7550    4.8100    0.0000 H   0  0  0  0  0  0  0  0  0  0  0  0
    5.1350    5.4300    0.0000 H   0  0  0  0  0  0  0  0  0  0  0  0
    4.5150    4.8100    0.0000 H   0  0  0  0  0  0  0  0  0  0  0  0
  1 14  1  0  0  0  0
  1 17  1  0  0  0  0
 15  2  1  6  0  0  0
 19  2  1  6  0  0  0
  3 15  1  0  0  0  0
  3 25  1  0  0  0  0
  4 19  1  0  0  0  0
  4 24  1  0  0  0  0
 17  5  1  6  0  0  0
  5 47  1  0  0  0  0
 20  6  1  1  0  0  0
  6 48  1  0  0  0  0
 21  7  1  6  0  0  0
  7 49  1  0  0  0  0
 23  8  1  1  0  0  0
  8 50  1  0  0  0  0
  9 26  1  0  0  0  0
  9 28  1  0  0  0  0
 10 27  1  0  0  0  0
 10 51  1  0  0  0  0
 11 26  2  0  0  0  0
 12 13  1  0  0  0  0
 12 14  1  0  0  0  0
 12 15  1  0  0  0  0
 12 29  1  6  0  0  0
 13 16  1  0  0  0  0
 13 18  1  0  0  0  0
 13 30  1  6  0  0  0
 14 22  1  1  0  0  0
 14 31  1  0  0  0  0
 15 32  1  0  0  0  0
 16 17  1  0  0  0  0
 16 33  1  0  0  0  0
 16 34  1  0  0  0  0
 17 35  1  0  0  0  0
 18 25  2  0  0  0  0
 18 26  1  0  0  0  0
 19 20  1  0  0  0  0
 19 36  1  0  0  0  0
 20 21  1  0  0  0  0
 20 37  1  0  0  0  0
 21 23  1  0  0  0  0
 21 38  1  0  0  0  0
 22 40  1  0  0  0  0
 22 41  1  0  0  0  0
 22 42  1  0  0  0  0
 23 24  1  0  0  0  0
 23 39  1  0  0  0  0
 24 27  1  6  0  0  0
 24 43  1  0  0  0  0
 25 44  1  0  0  0  0
 27 45  1  0  0  0  0
 27 46  1  0  0  0  0
 28 52  1  0  0  0  0
 28 53  1  0  0  0  0
 28 54  1  0  0  0  0
M  END
> <PUBCHEM_COMPOUND_CID>
11228693

> <PUBCHEM_COMPOUND_CANONICALIZED>
1

> <PUBCHEM_CACTVS_COMPLEXITY>
596

> <PUBCHEM_CACTVS_HBOND_ACCEPTOR>
11

> <PUBCHEM_CACTVS_HBOND_DONOR>
5

> <PUBCHEM_CACTVS_ROTATABLE_BOND>
5

> <PUBCHEM_CACTVS_SUBSKEYS>
AAADceB4PAAAAAAAAAAAAAAAAAAAAAAAAAAkSIAAAAAAAACAAAAAGgAACAAADRSwgAMCCAAABgCIAgDSCAAACAAgIAAAAAEAAEgRFBIAIQAiQAAFgAAHIIHIbAxOgAAAAAAAAAAAAAAAAAAAAAAAAAAAAA==

> <PUBCHEM_IUPAC_OPENEYE_NAME>
methyl (1S,3R,4aS,8S,8aS)-3-hydroxy-1-methyl-8-[(2S,3R,4S,5S,6R)-3,4,5-trihydroxy-6-(hydroxymethyl)tetrahydropyran-2-yl]oxy-1,3,4,4a,8,8a-hexahydropyrano[3,4-c]pyran-5-carboxylate

> <PUBCHEM_IUPAC_CAS_NAME>
(1S,3R,4aS,8S,8aS)-3-hydroxy-1-methyl-8-[[(2S,3R,4S,5S,6R)-3,4,5-trihydroxy-6-(hydroxymethyl)-2-oxanyl]oxy]-1,3,4,4a,8,8a-hexahydropyrano[3,4-c]pyran-5-carboxylic acid methyl ester

> <PUBCHEM_IUPAC_NAME>
methyl (1S,3R,4aS,8S,8aS)-3-hydroxy-1-methyl-8-[(2S,3R,4S,5S,6R)-3,4,5-trihydroxy-6-(hydroxymethyl)oxan-2-yl]oxy-1,3,4,4a,8,8a-hexahydropyrano[3,4-c]pyran-5-carboxylate

> <PUBCHEM_IUPAC_SYSTEMATIC_NAME>
methyl (1S,3R,4aS,8S,8aS)-8-[(2S,3R,4S,5S,6R)-6-(hydroxymethyl)-3,4,5-tris(oxidanyl)oxan-2-yl]oxy-1-methyl-3-oxidanyl-1,3,4,4a,8,8a-hexahydropyrano[3,4-c]pyran-5-carboxylate

> <PUBCHEM_IUPAC_TRADITIONAL_NAME>
(1S,3R,4aS,8S,8aS)-3-hydroxy-1-methyl-8-[(2S,3R,4S,5S,6R)-3,4,5-trihydroxy-6-methylol-tetrahydropyran-2-yl]oxy-1,3,4,4a,8,8a-hexahydropyrano[3,4-c]pyran-5-carboxylic acid methyl ester

> <PUBCHEM_IUPAC_INCHI>
InChI=1S/C17H26O11/c1-6-11-7(3-10(19)26-6)8(15(23)24-2)5-25-16(11)28-17-14(22)13(21)12(20)9(4-18)27-17/h5-7,9-14,16-22H,3-4H2,1-2H3/t6-,7+,9+,10+,11+,12+,13-,14+,16-,17-/m0/s1

> <PUBCHEM_IUPAC_INCHIKEY>
YTZSBJLNMIQROD-SFBCHFHNSA-N

> <PUBCHEM_XLOGP3_AA>
-1.8

> <PUBCHEM_EXACT_MASS>
406.147512

> <PUBCHEM_MOLECULAR_FORMULA>
C17H26O11

> <PUBCHEM_MOLECULAR_WEIGHT>
406.38174

> <PUBCHEM_OPENEYE_CAN_SMILES>
CC1C2C(CC(O1)O)C(=COC2OC3C(C(C(C(O3)CO)O)O)O)C(=O)OC

> <PUBCHEM_OPENEYE_ISO_SMILES>
C[C@H]1[C@@H]2[C@H](C[C@@H](O1)O)C(=CO[C@H]2O[C@H]3[C@@H]([C@H]([C@@H]([C@H](O3)CO)O)O)O)C(=O)OC

> <PUBCHEM_CACTVS_TPSA>
164

> <PUBCHEM_MONOISOTOPIC_WEIGHT>
406.147512

> <PUBCHEM_TOTAL_CHARGE>
0

> <PUBCHEM_HEAVY_ATOM_COUNT>
28

> <PUBCHEM_ATOM_DEF_STEREO_COUNT>
10

> <PUBCHEM_ATOM_UDEF_STEREO_COUNT>
0

> <PUBCHEM_BOND_DEF_STEREO_COUNT>
0

> <PUBCHEM_BOND_UDEF_STEREO_COUNT>
0

> <PUBCHEM_ISOTOPIC_ATOM_COUNT>
0

> <PUBCHEM_COMPONENT_COUNT>
1

> <PUBCHEM_CACTVS_TAUTO_COUNT>
1

> <PUBCHEM_COORDINATE_TYPE>
1
5
255

> <PUBCHEM_BONDANNOTATIONS>
12  29  6
13  30  6
14  22  5
15  2  6
19  2  6
24  27  6
17  5  6
20  6  5
21  7  6
23  8  5

$$$$

