3534
  -OEChem-06251223293D

 44 47  0     0  0  0  0  0  0999 V2000
    1.0948    2.3464   -0.1638 S   0  0  0  0  0  0  0  0  0  0  0  0
   -6.8081   -1.4429    0.1917 O   0  0  0  0  0  0  0  0  0  0  0  0
   -4.2812   -0.2148    0.2664 N   0  0  0  0  0  0  0  0  0  0  0  0
    4.6878   -1.5332   -0.2559 N   0  0  0  0  0  0  0  0  0  0  0  0
    4.6818    0.0124    1.5927 N   0  0  0  0  0  0  0  0  0  0  0  0
    3.1708    1.7410    1.7468 N   0  0  0  0  0  0  0  0  0  0  0  0
    6.2456   -1.7289    1.4878 N   0  0  0  0  0  0  0  0  0  0  0  0
   -4.4094   -1.6273   -0.1176 C   0  0  0  0  0  0  0  0  0  0  0  0
   -5.4927    0.5931    0.0889 C   0  0  0  0  0  0  0  0  0  0  0  0
   -5.6590   -2.2231    0.5210 C   0  0  0  0  0  0  0  0  0  0  0  0
   -6.6847   -0.1213    0.7160 C   0  0  0  0  0  0  0  0  0  0  0  0
   -3.0217    0.3850    0.1655 C   0  0  0  0  0  0  0  0  0  0  0  0
   -1.9469   -0.1225    0.8954 C   0  0  0  0  0  0  0  0  0  0  0  0
   -2.8407    1.4910   -0.6650 C   0  0  0  0  0  0  0  0  0  0  0  0
   -0.5104    1.5817   -0.0355 C   0  0  0  0  0  0  0  0  0  0  0  0
   -0.6909    0.4760    0.7948 C   0  0  0  0  0  0  0  0  0  0  0  0
   -1.5847    2.0895   -0.7655 C   0  0  0  0  0  0  0  0  0  0  0  0
    1.9773    0.8998   -0.7796 C   0  0  0  0  0  0  0  0  0  0  0  0
    3.0677    0.2341   -0.1929 C   0  0  0  0  0  0  0  0  0  0  0  0
    3.6448   -0.8889   -0.8082 C   0  0  0  0  0  0  0  0  0  0  0  0
    1.4542    0.4481   -1.9873 C   0  0  0  0  0  0  0  0  0  0  0  0
    3.6379    0.6340    1.0124 C   0  0  0  0  0  0  0  0  0  0  0  0
    3.1012   -1.3193   -2.0161 C   0  0  0  0  0  0  0  0  0  0  0  0
    2.0169   -0.6627   -2.6060 C   0  0  0  0  0  0  0  0  0  0  0  0
    5.1498   -1.0474    0.9140 C   0  0  0  0  0  0  0  0  0  0  0  0
   -3.5411   -2.2210    0.1878 H   0  0  0  0  0  0  0  0  0  0  0  0
   -4.4876   -1.6847   -1.2104 H   0  0  0  0  0  0  0  0  0  0  0  0
   -5.6790    0.7333   -0.9830 H   0  0  0  0  0  0  0  0  0  0  0  0
   -5.3873    1.5779    0.5593 H   0  0  0  0  0  0  0  0  0  0  0  0
   -5.8227   -3.2379    0.1449 H   0  0  0  0  0  0  0  0  0  0  0  0
   -5.5600   -2.2845    1.6115 H   0  0  0  0  0  0  0  0  0  0  0  0
   -6.5921   -0.1698    1.8077 H   0  0  0  0  0  0  0  0  0  0  0  0
   -7.6079    0.4200    0.4857 H   0  0  0  0  0  0  0  0  0  0  0  0
   -2.0717   -0.9738    1.5595 H   0  0  0  0  0  0  0  0  0  0  0  0
   -3.6516    1.9037   -1.2582 H   0  0  0  0  0  0  0  0  0  0  0  0
    0.1274    0.0693    1.3838 H   0  0  0  0  0  0  0  0  0  0  0  0
   -1.4613    2.9485   -1.4204 H   0  0  0  0  0  0  0  0  0  0  0  0
    0.6290    0.9399   -2.4965 H   0  0  0  0  0  0  0  0  0  0  0  0
    3.5242   -2.1855   -2.5214 H   0  0  0  0  0  0  0  0  0  0  0  0
    1.6185   -1.0191   -3.5516 H   0  0  0  0  0  0  0  0  0  0  0  0
    2.2251    1.6304    2.1017 H   0  0  0  0  0  0  0  0  0  0  0  0
    3.2832    2.6301    1.2679 H   0  0  0  0  0  0  0  0  0  0  0  0
    6.6286   -1.4043    2.3649 H   0  0  0  0  0  0  0  0  0  0  0  0
    6.6332   -2.5334    1.0148 H   0  0  0  0  0  0  0  0  0  0  0  0
  1 15  1  0  0  0  0
  1 18  1  0  0  0  0
  2 10  1  0  0  0  0
  2 11  1  0  0  0  0
  3  8  1  0  0  0  0
  3  9  1  0  0  0  0
  3 12  1  0  0  0  0
  4 20  1  0  0  0  0
  4 25  2  0  0  0  0
  5 22  2  0  0  0  0
  5 25  1  0  0  0  0
  6 22  1  0  0  0  0
  6 41  1  0  0  0  0
  6 42  1  0  0  0  0
  7 25  1  0  0  0  0
  7 43  1  0  0  0  0
  7 44  1  0  0  0  0
  8 10  1  0  0  0  0
  8 26  1  0  0  0  0
  8 27  1  0  0  0  0
  9 11  1  0  0  0  0
  9 28  1  0  0  0  0
  9 29  1  0  0  0  0
 10 30  1  0  0  0  0
 10 31  1  0  0  0  0
 11 32  1  0  0  0  0
 11 33  1  0  0  0  0
 12 13  2  0  0  0  0
 12 14  1  0  0  0  0
 13 16  1  0  0  0  0
 13 34  1  0  0  0  0
 14 17  2  0  0  0  0
 14 35  1  0  0  0  0
 15 16  2  0  0  0  0
 15 17  1  0  0  0  0
 16 36  1  0  0  0  0
 17 37  1  0  0  0  0
 18 19  1  0  0  0  0
 18 21  2  0  0  0  0
 19 20  2  0  0  0  0
 19 22  1  0  0  0  0
 20 23  1  0  0  0  0
 21 24  1  0  0  0  0
 21 38  1  0  0  0  0
 23 24  2  0  0  0  0
 23 39  1  0  0  0  0
 24 40  1  0  0  0  0
M  END
> <PUBCHEM_COMPOUND_CID>
3534

> <PUBCHEM_CONFORMER_RMSD>
0.8

> <PUBCHEM_CONFORMER_DIVERSEORDER>
1
15
17
4
12
6
13
14
16
5
2
7
11
9
3
8
10

> <PUBCHEM_MMFF94_PARTIAL_CHARGES>
35
1 -0.2
10 0.28
11 0.28
12 0.1
13 -0.15
14 -0.15
15 0.1
16 -0.15
17 -0.15
18 0.1
2 -0.56
20 0.31
21 -0.15
22 0.41
23 -0.15
24 -0.15
25 0.72
3 -0.84
34 0.15
35 0.15
36 0.15
37 0.15
38 0.15
39 0.15
4 -0.62
40 0.15
41 0.4
42 0.4
43 0.4
44 0.4
5 -0.62
6 -0.9
7 -0.9
8 0.37
9 0.37

> <PUBCHEM_EFFECTIVE_ROTOR_COUNT>
4.2

> <PUBCHEM_PHARMACOPHORE_FEATURES>
9
1 2 acceptor
1 3 cation
1 6 donor
1 7 donor
4 4 5 7 25 cation
6 12 13 14 15 16 17 rings
6 18 19 20 21 23 24 rings
6 2 3 8 9 10 11 rings
6 4 5 19 20 22 25 rings

> <PUBCHEM_HEAVY_ATOM_COUNT>
25

> <PUBCHEM_ATOM_DEF_STEREO_COUNT>
0

> <PUBCHEM_ATOM_UDEF_STEREO_COUNT>
0

> <PUBCHEM_BOND_DEF_STEREO_COUNT>
0

> <PUBCHEM_BOND_UDEF_STEREO_COUNT>
0

> <PUBCHEM_ISOTOPIC_ATOM_COUNT>
0

> <PUBCHEM_COMPONENT_COUNT>
1

> <PUBCHEM_CACTVS_TAUTO_COUNT>
9

> <PUBCHEM_CONFORMER_ID>
00000DCE00000001

> <PUBCHEM_MMFF94_ENERGY>
114.0712

> <PUBCHEM_FEATURE_SELFOVERLAP>
45.701

> <PUBCHEM_SHAPE_FINGERPRINT>
10165383 225 9079115566346942848
10378564 45 13254807823427113495
10670039 82 9871479724267668255
11720765 8 11383576476960605316
11796584 16 18056487385629347612
12035758 1 16516254071760874878
12166972 35 17346880056920687116
12236239 1 17203324545938461149
12363563 72 18342166782819354500
12422481 6 17822011973824626391
12633257 1 17822301171384357358
12661589 4 17487608625088267619
12778500 126 6266630759023539956
12892183 10 16443613701424773057
12895836 83 8502359049504607008
12895837 130 7059219290800170546
13533116 47 17704069577731861476
13583140 156 18191606322190394068
13955234 65 5039409759958932012
14068700 675 17988644129466690484
14211702 104 18195804069155795163
14251751 18 18342740719435898815
14251752 14 17489311910660296685
14294032 229 16986322840244622133
14341114 328 14345802659930388892
14347332 77 17703795855318774277
14528608 73 10879996826896958153
146900 427 14851607669572530187
14840074 17 13840268078609547435
15183329 4 14548741728872151303
15188451 53 18343871030036907471
15210252 30 9151169853213184318
15419008 42 18043811107910403181
15475509 35 18271259321653357522
15575132 122 7204507593411426035
17349148 13 17561079224336871859
1813 80 18201996591415079253
19377110 9 15430040942084476485
19784866 240 17275101764500587652
1979834 28 17313373526738425471
20374829 77 18343016697165765485
20403669 9 18410851058161392351
20626108 58 17917991685334594908
21304304 249 18410575106676680838
21623969 137 17458345242893836983
22061861 79 15123790669801950699
221357 26 13686301279091509943
22224240 67 16805334279615283822
23253445 4 16515683351351238429
23522609 53 17984951969041583773
23557571 272 18335983163821436465
23559900 14 18262785303005241957
3004659 81 18271512135479442541
3009799 131 13039180421584106718
3178227 256 17458069270745990506
3388396 114 15984234384321952711
340366 18 15410887423157733538
3472631 163 6915968288418777434
34797466 226 12319738055928136217
376196 1 13970551260195065252
392239 28 16443359662577849390
4340502 62 16298384652040038287
463206 1 18130785633809317339
465052 167 18333734628725818880
5104073 3 16951395693145006507
5718773 13 18271531987061540146
76465 3 18272652341917261277
7808743 9 7565052861530977388
8988823 20 17167859751572422601
960060 61 16773789269069971349

> <PUBCHEM_SHAPE_MULTIPOLES>
487.56
15.44
2.17
1.75
14.75
0.18
0.71
-10.12
-5.59
0.41
-0.02
-2.79
-0.26
0.57

> <PUBCHEM_SHAPE_SELFOVERLAP>
1056.181

> <PUBCHEM_SHAPE_VOLUME>
268.1

> <PUBCHEM_COORDINATE_TYPE>
2
5
10

$$$$

