656498
  -OEChem-07051212462D

 45 46  0     1  0  0  0  0  0999 V2000
    6.0010   -0.5950    0.0000 S   0  0  0  0  0  0  0  0  0  0  0  0
    4.2690    2.4050    0.0000 S   0  0  0  0  0  0  0  0  0  0  0  0
    4.2690   -0.5950    0.0000 O   0  0  0  0  0  0  0  0  0  0  0  0
    4.2690   -3.5950    0.0000 O   0  0  0  0  0  0  0  0  0  0  0  0
    2.5369   -2.5950    0.0000 O   0  0  0  0  0  0  0  0  0  0  0  0
    6.0010   -2.5950    0.0000 O   0  0  0  0  0  0  0  0  0  0  0  0
    2.5369    0.4050    0.0000 O   0  0  0  0  0  0  0  0  0  0  0  0
    5.1350    1.9050    0.0000 O   0  0  0  0  0  0  0  0  0  0  0  0
    3.4030    2.9050    0.0000 O   0  0  0  0  0  0  0  0  0  0  0  0
    4.7690    3.2710    0.0000 O   0  0  0  0  0  0  0  0  0  0  0  0
    3.7690    1.5390    0.0000 O   0  0  0  0  0  0  0  0  0  0  0  0
    5.1350    0.9050    0.0000 N   0  0  0  0  0  0  0  0  0  0  0  0
    4.2690   -2.5950    0.0000 C   0  0  1  0  0  0  0  0  0  0  0  0
    3.4030   -2.0950    0.0000 C   0  0  1  0  0  0  0  0  0  0  0  0
    3.4030   -1.0950    0.0000 C   0  0  1  0  0  0  0  0  0  0  0  0
    5.1350   -2.0950    0.0000 C   0  0  2  0  0  0  0  0  0  0  0  0
    5.1350   -1.0950    0.0000 C   0  0  2  0  0  0  0  0  0  0  0  0
    2.5369   -0.5950    0.0000 C   0  0  0  0  0  0  0  0  0  0  0  0
    6.0010    0.4050    0.0000 C   0  0  0  0  0  0  0  0  0  0  0  0
    6.8671    0.9050    0.0000 C   0  0  0  0  0  0  0  0  0  0  0  0
    6.8671    1.9050    0.0000 C   0  0  0  0  0  0  0  0  0  0  0  0
    7.7331    2.4050    0.0000 C   0  0  0  0  0  0  0  0  0  0  0  0
    6.0010    2.4050    0.0000 C   0  0  0  0  0  0  0  0  0  0  0  0
    7.7331    3.4050    0.0000 C   0  0  0  0  0  0  0  0  0  0  0  0
    6.0010    3.4050    0.0000 C   0  0  0  0  0  0  0  0  0  0  0  0
    6.8671    3.9050    0.0000 C   0  0  0  0  0  0  0  0  0  0  0  0
    4.8059   -2.9050    0.0000 H   0  0  0  0  0  0  0  0  0  0  0  0
    3.4030   -2.7150    0.0000 H   0  0  0  0  0  0  0  0  0  0  0  0
    5.1350   -2.7150    0.0000 H   0  0  0  0  0  0  0  0  0  0  0  0
    3.4030   -0.4750    0.0000 H   0  0  0  0  0  0  0  0  0  0  0  0
    5.1350   -0.4750    0.0000 H   0  0  0  0  0  0  0  0  0  0  0  0
    1.9264   -0.4873    0.0000 H   0  0  0  0  0  0  0  0  0  0  0  0
    2.3249   -1.1776    0.0000 H   0  0  0  0  0  0  0  0  0  0  0  0
    3.7320   -3.9050    0.0000 H   0  0  0  0  0  0  0  0  0  0  0  0
    2.0000   -2.2850    0.0000 H   0  0  0  0  0  0  0  0  0  0  0  0
    6.5380   -2.2850    0.0000 H   0  0  0  0  0  0  0  0  0  0  0  0
    2.0000    0.7150    0.0000 H   0  0  0  0  0  0  0  0  0  0  0  0
    7.0791    0.3224    0.0000 H   0  0  0  0  0  0  0  0  0  0  0  0
    7.4776    1.0127    0.0000 H   0  0  0  0  0  0  0  0  0  0  0  0
    8.2700    2.0950    0.0000 H   0  0  0  0  0  0  0  0  0  0  0  0
    5.4641    2.0950    0.0000 H   0  0  0  0  0  0  0  0  0  0  0  0
    8.2700    3.7150    0.0000 H   0  0  0  0  0  0  0  0  0  0  0  0
    5.4641    3.7150    0.0000 H   0  0  0  0  0  0  0  0  0  0  0  0
    6.8671    4.5250    0.0000 H   0  0  0  0  0  0  0  0  0  0  0  0
    3.4030    3.5250    0.0000 H   0  0  0  0  0  0  0  0  0  0  0  0
 17  1  1  1  0  0  0
  1 19  1  0  0  0  0
  2  8  1  0  0  0  0
  2  9  1  0  0  0  0
  2 10  2  0  0  0  0
  2 11  2  0  0  0  0
  3 15  1  0  0  0  0
  3 17  1  0  0  0  0
 13  4  1  1  0  0  0
  4 34  1  0  0  0  0
 14  5  1  6  0  0  0
  5 35  1  0  0  0  0
 16  6  1  6  0  0  0
  6 36  1  0  0  0  0
  7 18  1  0  0  0  0
  7 37  1  0  0  0  0
  8 12  1  0  0  0  0
  9 45  1  0  0  0  0
 12 19  2  3  0  0  0
 13 14  1  0  0  0  0
 13 16  1  0  0  0  0
 13 27  1  0  0  0  0
 14 15  1  0  0  0  0
 14 28  1  0  0  0  0
 15 18  1  1  0  0  0
 15 30  1  0  0  0  0
 16 17  1  0  0  0  0
 16 29  1  0  0  0  0
 17 31  1  0  0  0  0
 18 32  1  0  0  0  0
 18 33  1  0  0  0  0
 19 20  1  0  0  0  0
 20 21  1  0  0  0  0
 20 38  1  0  0  0  0
 20 39  1  0  0  0  0
 21 22  2  0  0  0  0
 21 23  1  0  0  0  0
 22 24  1  0  0  0  0
 22 40  1  0  0  0  0
 23 25  2  0  0  0  0
 23 41  1  0  0  0  0
 24 26  2  0  0  0  0
 24 42  1  0  0  0  0
 25 26  1  0  0  0  0
 25 43  1  0  0  0  0
 26 44  1  0  0  0  0
M  END
> <PUBCHEM_COMPOUND_CID>
656498

> <PUBCHEM_COMPOUND_CANONICALIZED>
1

> <PUBCHEM_CACTVS_COMPLEXITY>
574

> <PUBCHEM_CACTVS_HBOND_ACCEPTOR>
11

> <PUBCHEM_CACTVS_HBOND_DONOR>
5

> <PUBCHEM_CACTVS_ROTATABLE_BOND>
7

> <PUBCHEM_CACTVS_SUBSKEYS>
AAADceByPABgAAAAAAAAAAAAAAAAAAAAAAA0QAAAAAAAAAABAAAAHgQECAAADBSl2AKwAIAQBoigAiBiADACAAAgABAIiAAwAIgJMCKgERCCYAAlgAAriAfA4IQOAAAAAAAAAAAAAAAAAAAAAAAAAAAAAA==

> <PUBCHEM_IUPAC_OPENEYE_NAME>
[(2S,3R,4S,5S,6R)-3,4,5-trihydroxy-6-(hydroxymethyl)tetrahydropyran-2-yl] 2-phenyl-N-sulfooxy-ethanimidothioate

> <PUBCHEM_IUPAC_CAS_NAME>
2-phenyl-N-sulfooxyethanimidothioic acid [(2S,3R,4S,5S,6R)-3,4,5-trihydroxy-6-(hydroxymethyl)-2-oxanyl] ester

> <PUBCHEM_IUPAC_NAME>
[(2S,3R,4S,5S,6R)-3,4,5-trihydroxy-6-(hydroxymethyl)oxan-2-yl] 2-phenyl-N-sulfooxyethanimidothioate

> <PUBCHEM_IUPAC_SYSTEMATIC_NAME>
[(2S,3R,4S,5S,6R)-6-(hydroxymethyl)-3,4,5-tris(oxidanyl)oxan-2-yl] 2-phenyl-N-sulfooxy-ethanimidothioate

> <PUBCHEM_IUPAC_TRADITIONAL_NAME>
2-phenyl-N-sulfoxy-thioacetimidic acid [(2S,3R,4S,5S,6R)-3,4,5-trihydroxy-6-methylol-tetrahydropyran-2-yl] ester

> <PUBCHEM_IUPAC_INCHI>
InChI=1S/C14H19NO9S2/c16-7-9-11(17)12(18)13(19)14(23-9)25-10(15-24-26(20,21)22)6-8-4-2-1-3-5-8/h1-5,9,11-14,16-19H,6-7H2,(H,20,21,22)/t9-,11-,12+,13-,14+/m1/s1

> <PUBCHEM_IUPAC_INCHIKEY>
QQGLQYQXUKHWPX-LPUQOGTASA-N

> <PUBCHEM_XLOGP3_AA>
-0.2

> <PUBCHEM_EXACT_MASS>
409.050123

> <PUBCHEM_MOLECULAR_FORMULA>
C14H19NO9S2

> <PUBCHEM_MOLECULAR_WEIGHT>
409.43196

> <PUBCHEM_OPENEYE_CAN_SMILES>
C1=CC=C(C=C1)CC(=NOS(=O)(=O)O)SC2C(C(C(C(O2)CO)O)O)O

> <PUBCHEM_OPENEYE_ISO_SMILES>
C1=CC=C(C=C1)CC(=NOS(=O)(=O)O)S[C@H]2[C@@H]([C@H]([C@@H]([C@H](O2)CO)O)O)O

> <PUBCHEM_CACTVS_TPSA>
200

> <PUBCHEM_MONOISOTOPIC_WEIGHT>
409.050123

> <PUBCHEM_TOTAL_CHARGE>
0

> <PUBCHEM_HEAVY_ATOM_COUNT>
26

> <PUBCHEM_ATOM_DEF_STEREO_COUNT>
5

> <PUBCHEM_ATOM_UDEF_STEREO_COUNT>
0

> <PUBCHEM_BOND_DEF_STEREO_COUNT>
0

> <PUBCHEM_BOND_UDEF_STEREO_COUNT>
1

> <PUBCHEM_ISOTOPIC_ATOM_COUNT>
0

> <PUBCHEM_COMPONENT_COUNT>
1

> <PUBCHEM_CACTVS_TAUTO_COUNT>
2

> <PUBCHEM_COORDINATE_TYPE>
1
5
255

> <PUBCHEM_BONDANNOTATIONS>
17  1  5
12  19  1
15  18  5
21  22  8
21  23  8
22  24  8
23  25  8
24  26  8
25  26  8
13  4  5
14  5  6
16  6  6

$$$$

