5525
  -OEChem-06261200433D

 65 67  0     1  0  0  0  0  0999 V2000
   -0.4418   -1.7291   -0.8908 O   0  0  0  0  0  0  0  0  0  0  0  0
   -2.9299    2.9479    0.0802 O   0  0  0  0  0  0  0  0  0  0  0  0
   -1.8858    1.4932    1.4907 O   0  0  0  0  0  0  0  0  0  0  0  0
    0.9637    3.0882    0.6163 O   0  0  0  0  0  0  0  0  0  0  0  0
    1.4807    3.1488   -1.6295 O   0  0  0  0  0  0  0  0  0  0  0  0
   -2.3391   -0.5320   -0.3227 N   0  0  0  0  0  0  0  0  0  0  0  0
    0.8239    0.4493   -1.7087 N   0  0  0  0  0  0  0  0  0  0  0  0
   -4.1124   -0.9248    1.1897 C   0  0  1  0  0  0  0  0  0  0  0  0
   -2.9885   -1.6279    0.4131 C   0  0  1  0  0  0  0  0  0  0  0  0
   -4.5316    0.1931    0.2232 C   0  0  0  0  0  0  0  0  0  0  0  0
   -3.1958    0.6551   -0.3614 C   0  0  1  0  0  0  0  0  0  0  0  0
   -5.2509   -1.8259    1.6576 C   0  0  0  0  0  0  0  0  0  0  0  0
   -3.4961   -2.7019   -0.5639 C   0  0  0  0  0  0  0  0  0  0  0  0
   -5.7047   -2.8400    0.6154 C   0  0  0  0  0  0  0  0  0  0  0  0
   -4.5230   -3.6300    0.0696 C   0  0  0  0  0  0  0  0  0  0  0  0
   -1.1191   -0.7012   -0.9621 C   0  0  0  0  0  0  0  0  0  0  0  0
   -2.5893    1.7102    0.5153 C   0  0  0  0  0  0  0  0  0  0  0  0
   -0.6272    0.4684   -1.7771 C   0  0  2  0  0  0  0  0  0  0  0  0
   -1.1072    0.3400   -3.2088 C   0  0  0  0  0  0  0  0  0  0  0  0
    1.2975    1.0173   -0.4522 C   0  0  1  0  0  0  0  0  0  0  0  0
    2.7263    0.5558   -0.1224 C   0  0  0  0  0  0  0  0  0  0  0  0
    1.2699    2.5301   -0.5943 C   0  0  0  0  0  0  0  0  0  0  0  0
    2.9123   -0.9630    0.0017 C   0  0  0  0  0  0  0  0  0  0  0  0
    4.3368   -1.3818    0.2646 C   0  0  0  0  0  0  0  0  0  0  0  0
    0.8926    4.5175    0.6369 C   0  0  0  0  0  0  0  0  0  0  0  0
    4.7978   -1.5025    1.5757 C   0  0  0  0  0  0  0  0  0  0  0  0
    5.1939   -1.6479   -0.8033 C   0  0  0  0  0  0  0  0  0  0  0  0
    6.1158   -1.8896    1.8186 C   0  0  0  0  0  0  0  0  0  0  0  0
    6.5117   -2.0350   -0.5603 C   0  0  0  0  0  0  0  0  0  0  0  0
    0.5470    4.9737    2.0383 C   0  0  0  0  0  0  0  0  0  0  0  0
    6.9727   -2.1558    0.7506 C   0  0  0  0  0  0  0  0  0  0  0  0
   -3.6815   -0.4477    2.0811 H   0  0  0  0  0  0  0  0  0  0  0  0
   -2.2628   -2.0791    1.1004 H   0  0  0  0  0  0  0  0  0  0  0  0
   -5.1694   -0.2010   -0.5764 H   0  0  0  0  0  0  0  0  0  0  0  0
   -5.0823    0.9904    0.7330 H   0  0  0  0  0  0  0  0  0  0  0  0
   -3.2951    1.0224   -1.3859 H   0  0  0  0  0  0  0  0  0  0  0  0
   -4.9095   -2.3775    2.5434 H   0  0  0  0  0  0  0  0  0  0  0  0
   -6.1049   -1.2191    1.9804 H   0  0  0  0  0  0  0  0  0  0  0  0
   -3.9426   -2.2290   -1.4488 H   0  0  0  0  0  0  0  0  0  0  0  0
   -2.6516   -3.2941   -0.9359 H   0  0  0  0  0  0  0  0  0  0  0  0
   -6.4294   -3.5273    1.0663 H   0  0  0  0  0  0  0  0  0  0  0  0
   -6.2219   -2.3294   -0.2054 H   0  0  0  0  0  0  0  0  0  0  0  0
   -4.0544   -4.2069    0.8760 H   0  0  0  0  0  0  0  0  0  0  0  0
   -4.8764   -4.3501   -0.6771 H   0  0  0  0  0  0  0  0  0  0  0  0
   -0.9978    1.4241   -1.4057 H   0  0  0  0  0  0  0  0  0  0  0  0
    1.2399    0.9426   -2.4977 H   0  0  0  0  0  0  0  0  0  0  0  0
   -0.7668    1.1857   -3.8166 H   0  0  0  0  0  0  0  0  0  0  0  0
   -2.1997    0.3053   -3.2672 H   0  0  0  0  0  0  0  0  0  0  0  0
   -0.7356   -0.5801   -3.6756 H   0  0  0  0  0  0  0  0  0  0  0  0
   -2.5393    3.6527    0.6397 H   0  0  0  0  0  0  0  0  0  0  0  0
    0.6493    0.7203    0.3816 H   0  0  0  0  0  0  0  0  0  0  0  0
    3.0457    1.0334    0.8141 H   0  0  0  0  0  0  0  0  0  0  0  0
    3.4150    0.9385   -0.8893 H   0  0  0  0  0  0  0  0  0  0  0  0
    2.2673   -1.3448    0.8038 H   0  0  0  0  0  0  0  0  0  0  0  0
    2.5676   -1.4628   -0.9123 H   0  0  0  0  0  0  0  0  0  0  0  0
    4.1402   -1.2959    2.4158 H   0  0  0  0  0  0  0  0  0  0  0  0
    4.8471   -1.5551   -1.8291 H   0  0  0  0  0  0  0  0  0  0  0  0
    0.1192    4.8538   -0.0627 H   0  0  0  0  0  0  0  0  0  0  0  0
    1.8604    4.9358    0.3391 H   0  0  0  0  0  0  0  0  0  0  0  0
    6.4750   -1.9831    2.8393 H   0  0  0  0  0  0  0  0  0  0  0  0
    7.1792   -2.2417   -1.3917 H   0  0  0  0  0  0  0  0  0  0  0  0
   -0.4105    4.5479    2.3561 H   0  0  0  0  0  0  0  0  0  0  0  0
    1.3013    4.6283    2.7530 H   0  0  0  0  0  0  0  0  0  0  0  0
    0.4836    6.0641    2.0904 H   0  0  0  0  0  0  0  0  0  0  0  0
    7.9989   -2.4568    0.9398 H   0  0  0  0  0  0  0  0  0  0  0  0
  1 16  2  0  0  0  0
  2 17  1  0  0  0  0
  2 50  1  0  0  0  0
  3 17  2  0  0  0  0
  4 22  1  0  0  0  0
  4 25  1  0  0  0  0
  5 22  2  0  0  0  0
  6  9  1  0  0  0  0
  6 11  1  0  0  0  0
  6 16  1  0  0  0  0
  7 18  1  0  0  0  0
  7 20  1  0  0  0  0
  7 46  1  0  0  0  0
  8  9  1  0  0  0  0
  8 10  1  0  0  0  0
  8 12  1  0  0  0  0
  8 32  1  0  0  0  0
  9 13  1  0  0  0  0
  9 33  1  0  0  0  0
 10 11  1  0  0  0  0
 10 34  1  0  0  0  0
 10 35  1  0  0  0  0
 11 17  1  0  0  0  0
 11 36  1  0  0  0  0
 12 14  1  0  0  0  0
 12 37  1  0  0  0  0
 12 38  1  0  0  0  0
 13 15  1  0  0  0  0
 13 39  1  0  0  0  0
 13 40  1  0  0  0  0
 14 15  1  0  0  0  0
 14 41  1  0  0  0  0
 14 42  1  0  0  0  0
 15 43  1  0  0  0  0
 15 44  1  0  0  0  0
 16 18  1  0  0  0  0
 18 19  1  0  0  0  0
 18 45  1  0  0  0  0
 19 47  1  0  0  0  0
 19 48  1  0  0  0  0
 19 49  1  0  0  0  0
 20 21  1  0  0  0  0
 20 22  1  0  0  0  0
 20 51  1  0  0  0  0
 21 23  1  0  0  0  0
 21 52  1  0  0  0  0
 21 53  1  0  0  0  0
 23 24  1  0  0  0  0
 23 54  1  0  0  0  0
 23 55  1  0  0  0  0
 24 26  2  0  0  0  0
 24 27  1  0  0  0  0
 25 30  1  0  0  0  0
 25 58  1  0  0  0  0
 25 59  1  0  0  0  0
 26 28  1  0  0  0  0
 26 56  1  0  0  0  0
 27 29  2  0  0  0  0
 27 57  1  0  0  0  0
 28 31  2  0  0  0  0
 28 60  1  0  0  0  0
 29 31  1  0  0  0  0
 29 61  1  0  0  0  0
 30 62  1  0  0  0  0
 30 63  1  0  0  0  0
 30 64  1  0  0  0  0
 31 65  1  0  0  0  0
M  END
> <PUBCHEM_COMPOUND_CID>
5525

> <PUBCHEM_CONFORMER_RMSD>
1.4

> <PUBCHEM_CONFORMER_DIVERSEORDER>
1
217
244
161
74
227
199
225
247
178
197
155
205
167
88
96
157
136
63
195
188
186
266
184
68
248
93
158
148
177
162
209
75
127
57
99
89
108
76
11
185
172
183
242
154
265
212
180
235
25
236
203
220
106
16
41
146
202
267
56
27
47
156
50
152
173
171
65
272
24
149
164
71
239
181
124
166
163
198
80
262
40
131
196
138
140
250
213
192
36
141
123
174
128
182
168
73
113
121
234
153
215
59
222
104
134
125
229
189
28
101
94
83
110
85
49
109
249
259
137
142
246
257
122
20
72
252
165
211
34
271
258
79
70
102
84
179
255
200
38
214
169
111
228
224
129
87
97
133
116
26
35
270
219
193
160
256
187
78
48
107
19
268
112
145
207
64
105
22
14
238
31
43
92
86
12
82
69
135
139
223
251
29
143
53
201
204
216
237
190
42
44
61
226
30
21
5
55
9
147
254
120
98
218
151
95
67
253
54
90
231
144
126
261
32
13
175
241
232
10
7
245
132
46
118
23
191
176
260
58
269
230
3
194
52
66
100
221
119
60
91
51
8
240
45
233
37
18
62
263
208
33
77
15
115
150
103
264
4
114
130
170
206
159
39
2
81
117
17
6
243
210

> <PUBCHEM_MMFF94_PARTIAL_CHARGES>
29
1 -0.57
11 0.36
16 0.57
17 0.66
18 0.33
2 -0.65
20 0.33
22 0.66
23 0.14
24 -0.14
25 0.28
26 -0.15
27 -0.15
28 -0.15
29 -0.15
3 -0.57
31 -0.15
4 -0.43
46 0.36
5 -0.57
50 0.5
56 0.15
57 0.15
6 -0.66
60 0.15
61 0.15
65 0.15
7 -0.9
9 0.3

> <PUBCHEM_EFFECTIVE_ROTOR_COUNT>
12.4

> <PUBCHEM_PHARMACOPHORE_FEATURES>
10
1 1 acceptor
1 2 acceptor
1 3 acceptor
1 5 acceptor
1 7 cation
1 7 donor
3 2 3 17 anion
5 6 8 9 10 11 rings
6 24 26 27 28 29 31 rings
6 8 9 12 13 14 15 rings

> <PUBCHEM_HEAVY_ATOM_COUNT>
31

> <PUBCHEM_ATOM_DEF_STEREO_COUNT>
0

> <PUBCHEM_ATOM_UDEF_STEREO_COUNT>
5

> <PUBCHEM_BOND_DEF_STEREO_COUNT>
0

> <PUBCHEM_BOND_UDEF_STEREO_COUNT>
0

> <PUBCHEM_ISOTOPIC_ATOM_COUNT>
0

> <PUBCHEM_COMPONENT_COUNT>
1

> <PUBCHEM_CACTVS_TAUTO_COUNT>
1

> <PUBCHEM_CONFORMER_ID>
0000159500000001

> <PUBCHEM_MMFF94_ENERGY>
59.0882

> <PUBCHEM_FEATURE_SELFOVERLAP>
50.947

> <PUBCHEM_SHAPE_FINGERPRINT>
10074138 170 17973723872431293720
11456790 92 18339063974887686137
11578080 2 18056777438072993797
12107183 9 18341043125249171257
12633257 1 18262782030756710915
12788726 201 18337094779310436060
13009979 54 18409439298074194048
13103583 49 18337663213156112810
13135754 10 18118112813554115564
13533116 47 18125718985750206251
13673619 4 17989205927878408926
14068700 675 18412825759554568315
14114206 34 14548743940606229765
14251764 30 18131351908209785138
14955137 171 18407755932908194814
17492 89 18270115687309584035
17780758 139 18339648931235387138
19319366 153 17835230152422100764
19841028 212 17984702217437308451
20775530 9 18060143115346453947
21033648 29 16515673489795142476
23522609 53 17629733890644324980
23559900 14 18339649928036662161
2747138 104 18336272319191137858
2838139 119 6915964968763043590
3418910 222 18411983599301413240
4409770 3 17914343634407909701
469060 322 18128246977904252168
474113 269 18262527996749145967
484985 159 17912656988102556150
5104073 3 18333726888445756681
5486654 36 18202277017844425115
7288768 16 16602385027048548345

> <PUBCHEM_SHAPE_MULTIPOLES>
598.66
14.08
5.29
1.94
15.16
6.64
-0.74
-19.24
5.89
-0.62
2.37
0.14
0.64
-0.16

> <PUBCHEM_SHAPE_SELFOVERLAP>
1242.671

> <PUBCHEM_SHAPE_VOLUME>
340

> <PUBCHEM_COORDINATE_TYPE>
2
5
10

$$$$

