46173922
  -OEChem-07051213103D

 42 44  0     1  0  0  0  0  0999 V2000
   -0.5904   -0.1822   -2.7082 O   0  0  0  0  0  0  0  0  0  0  0  0
   -3.2383   -1.7391    0.3665 O   0  0  0  0  0  0  0  0  0  0  0  0
    3.6820   -0.1398    0.9884 O   0  0  0  0  0  0  0  0  0  0  0  0
    0.0829    0.0944    0.7092 C   0  0  1  0  0  0  0  0  0  0  0  0
   -0.6231    1.4860    0.5809 C   0  0  0  0  0  0  0  0  0  0  0  0
   -1.3136    1.2599   -0.8079 C   0  0  1  0  0  0  0  0  0  0  0  0
   -0.9587   -1.0589    0.9471 C   0  0  1  0  0  0  0  0  0  0  0  0
    0.6899    0.0070   -0.6744 C   0  0  0  0  0  0  0  0  0  0  0  0
   -0.1577    0.7004   -1.6948 C   0  0  1  0  0  0  0  0  0  0  0  0
    1.3367    0.0048    1.5936 C   0  0  0  0  0  0  0  0  0  0  0  0
   -2.4882    0.2726   -0.6776 C   0  0  0  0  0  0  0  0  0  0  0  0
   -2.0654   -1.0997   -0.1401 C   0  0  2  0  0  0  0  0  0  0  0  0
    2.4054   -0.7024    0.7314 C   0  0  1  0  0  0  0  0  0  0  0  0
    1.9588   -0.4149   -0.6755 C   0  0  0  0  0  0  0  0  0  0  0  0
    0.3360    2.7075    0.4954 C   0  0  0  0  0  0  0  0  0  0  0  0
   -1.5904    1.8059    1.7354 C   0  0  0  0  0  0  0  0  0  0  0  0
   -0.3412   -2.4669    1.0692 C   0  0  0  0  0  0  0  0  0  0  0  0
    2.8755   -0.5347   -1.8385 C   0  0  0  0  0  0  0  0  0  0  0  0
   -1.6926    2.1987   -1.2290 H   0  0  0  0  0  0  0  0  0  0  0  0
   -1.4373   -0.8861    1.9198 H   0  0  0  0  0  0  0  0  0  0  0  0
    0.4026    1.5205   -2.1576 H   0  0  0  0  0  0  0  0  0  0  0  0
    1.7006    0.9891    1.9072 H   0  0  0  0  0  0  0  0  0  0  0  0
    1.1575   -0.5391    2.5274 H   0  0  0  0  0  0  0  0  0  0  0  0
   -2.9709    0.1358   -1.6543 H   0  0  0  0  0  0  0  0  0  0  0  0
   -3.2780    0.7044   -0.0510 H   0  0  0  0  0  0  0  0  0  0  0  0
   -1.7181   -1.7155   -0.9786 H   0  0  0  0  0  0  0  0  0  0  0  0
    2.4490   -1.7806    0.9134 H   0  0  0  0  0  0  0  0  0  0  0  0
   -1.0425    1.9009    2.6800 H   0  0  0  0  0  0  0  0  0  0  0  0
   -2.3641    1.0527    1.8957 H   0  0  0  0  0  0  0  0  0  0  0  0
   -2.1082    2.7546    1.5522 H   0  0  0  0  0  0  0  0  0  0  0  0
    0.7720    2.9405    1.4732 H   0  0  0  0  0  0  0  0  0  0  0  0
   -0.2124    3.5997    0.1701 H   0  0  0  0  0  0  0  0  0  0  0  0
    1.1671    2.5693   -0.2017 H   0  0  0  0  0  0  0  0  0  0  0  0
    0.1968   -2.7549    0.1608 H   0  0  0  0  0  0  0  0  0  0  0  0
   -1.1247   -3.2149    1.2359 H   0  0  0  0  0  0  0  0  0  0  0  0
    0.3431   -2.5383    1.9189 H   0  0  0  0  0  0  0  0  0  0  0  0
   -1.1894    0.3155   -3.2904 H   0  0  0  0  0  0  0  0  0  0  0  0
    3.2655   -1.5549   -1.9085 H   0  0  0  0  0  0  0  0  0  0  0  0
    2.3688   -0.3067   -2.7815 H   0  0  0  0  0  0  0  0  0  0  0  0
    3.7197    0.1542   -1.7380 H   0  0  0  0  0  0  0  0  0  0  0  0
   -3.8839   -1.7867   -0.3593 H   0  0  0  0  0  0  0  0  0  0  0  0
    3.8749   -0.2756    1.9318 H   0  0  0  0  0  0  0  0  0  0  0  0
  1  9  1  0  0  0  0
  1 37  1  0  0  0  0
  2 12  1  0  0  0  0
  2 41  1  0  0  0  0
  3 13  1  0  0  0  0
  3 42  1  0  0  0  0
  4  5  1  0  0  0  0
  4  7  1  0  0  0  0
  4  8  1  0  0  0  0
  4 10  1  0  0  0  0
  5  6  1  0  0  0  0
  5 15  1  0  0  0  0
  5 16  1  0  0  0  0
  6  9  1  0  0  0  0
  6 11  1  0  0  0  0
  6 19  1  0  0  0  0
  7 12  1  0  0  0  0
  7 17  1  0  0  0  0
  7 20  1  0  0  0  0
  8  9  1  0  0  0  0
  8 14  2  0  0  0  0
  9 21  1  0  0  0  0
 10 13  1  0  0  0  0
 10 22  1  0  0  0  0
 10 23  1  0  0  0  0
 11 12  1  0  0  0  0
 11 24  1  0  0  0  0
 11 25  1  0  0  0  0
 12 26  1  0  0  0  0
 13 14  1  0  0  0  0
 13 27  1  0  0  0  0
 14 18  1  0  0  0  0
 15 31  1  0  0  0  0
 15 32  1  0  0  0  0
 15 33  1  0  0  0  0
 16 28  1  0  0  0  0
 16 29  1  0  0  0  0
 16 30  1  0  0  0  0
 17 34  1  0  0  0  0
 17 35  1  0  0  0  0
 17 36  1  0  0  0  0
 18 38  1  0  0  0  0
 18 39  1  0  0  0  0
 18 40  1  0  0  0  0
M  END
> <PUBCHEM_COMPOUND_CID>
46173922

> <PUBCHEM_CONFORMER_RMSD>
0.6

> <PUBCHEM_CONFORMER_DIVERSEORDER>
1
2

> <PUBCHEM_MMFF94_PARTIAL_CHARGES>
13
1 -0.68
12 0.28
13 0.42
14 -0.28
18 0.14
2 -0.68
3 -0.68
37 0.4
4 0.14
41 0.4
42 0.4
8 -0.28
9 0.42

> <PUBCHEM_EFFECTIVE_ROTOR_COUNT>
1.4

> <PUBCHEM_PHARMACOPHORE_FEATURES>
9
1 1 acceptor
1 1 donor
1 2 acceptor
1 2 donor
1 3 acceptor
1 3 donor
3 5 15 16 hydrophobe
5 4 8 10 13 14 rings
8 4 5 6 7 8 9 11 12 rings

> <PUBCHEM_HEAVY_ATOM_COUNT>
18

> <PUBCHEM_ATOM_DEF_STEREO_COUNT>
5

> <PUBCHEM_ATOM_UDEF_STEREO_COUNT>
1

> <PUBCHEM_BOND_DEF_STEREO_COUNT>
0

> <PUBCHEM_BOND_UDEF_STEREO_COUNT>
0

> <PUBCHEM_ISOTOPIC_ATOM_COUNT>
0

> <PUBCHEM_COMPONENT_COUNT>
1

> <PUBCHEM_CACTVS_TAUTO_COUNT>
1

> <PUBCHEM_CONFORMER_ID>
02C08EE200000001

> <PUBCHEM_MMFF94_ENERGY>
75.2493

> <PUBCHEM_FEATURE_SELFOVERLAP>
45.731

> <PUBCHEM_SHAPE_FINGERPRINT>
10863032 1 18340778103711779649
10948715 1 17975427024416289817
11578080 2 17773900634679907389
12403814 3 17168726183745907912
12423570 1 9901527654703828608
13024252 1 13038901204652430744
141345 1 16964870341128956121
144361 1 17275102803935316801
14817 1 4783079622064037853
16945 1 18116143557472959481
17844478 74 17458345251583777396
22344851 262 16485302857143658116
22344851 341 17338419091527464874
22802520 49 17823689966033588406
23419403 2 17981076048713419237
23559900 14 18268166391117593058
2748010 2 17842864147700073303
427121 178 17394408796769027265
430814 3 17621012688265392296
528886 8 16630257973313579819
81228 2 18261382407825221921

> <PUBCHEM_SHAPE_MULTIPOLES>
352.82
3.75
2.14
1.97
1.79
0.26
-0.82
-1.12
-0.03
-1.16
0.89
0.38
0.11
-0.01

> <PUBCHEM_SHAPE_SELFOVERLAP>
760.074

> <PUBCHEM_SHAPE_VOLUME>
198.8

> <PUBCHEM_COORDINATE_TYPE>
2
5
10

$$$$

