440938
  -OEChem-07051212512D

 43 44  0     1  0  0  0  0  0999 V2000
    3.4030    0.1550    0.0000 P   0  0  0  0  0  0  0  0  0  0  0  0
    6.8671    0.1550    0.0000 O   0  0  0  0  0  0  0  0  0  0  0  0
    8.5991    0.1550    0.0000 O   0  0  0  0  0  0  0  0  0  0  0  0
    5.1350   -1.8450    0.0000 O   0  0  0  0  0  0  0  0  0  0  0  0
    6.8671   -2.8450    0.0000 O   0  0  0  0  0  0  0  0  0  0  0  0
    8.5991   -1.8450    0.0000 O   0  0  0  0  0  0  0  0  0  0  0  0
    4.2690   -0.3450    0.0000 O   0  0  0  0  0  0  0  0  0  0  0  0
    2.5369    0.6550    0.0000 O   0  0  0  0  0  0  0  0  0  0  0  0
    2.9030   -0.7110    0.0000 O   0  0  0  0  0  0  0  0  0  0  0  0
    3.9030    1.0210    0.0000 O   0  0  0  0  0  0  0  0  0  0  0  0
   11.1972    1.6550    0.0000 O   0  0  0  0  0  0  0  0  0  0  0  0
    6.0010   -1.3450    0.0000 C   0  0  1  0  0  0  0  0  0  0  0  0
    6.8671   -1.8450    0.0000 C   0  0  1  0  0  0  0  0  0  0  0  0
    6.0010   -0.3450    0.0000 C   0  0  1  0  0  0  0  0  0  0  0  0
    7.7331   -1.3450    0.0000 C   0  0  2  0  0  0  0  0  0  0  0  0
    7.7331   -0.3450    0.0000 C   0  0  1  0  0  0  0  0  0  0  0  0
    5.1350    0.1550    0.0000 C   0  0  0  0  0  0  0  0  0  0  0  0
    8.5991    1.1550    0.0000 C   0  0  0  0  0  0  0  0  0  0  0  0
    9.4651    1.6550    0.0000 C   0  0  0  0  0  0  0  0  0  0  0  0
    7.7331    1.6550    0.0000 C   0  0  0  0  0  0  0  0  0  0  0  0
    9.4651    2.6550    0.0000 C   0  0  0  0  0  0  0  0  0  0  0  0
   10.3312    1.1550    0.0000 C   0  0  0  0  0  0  0  0  0  0  0  0
    7.7331    2.6550    0.0000 C   0  0  0  0  0  0  0  0  0  0  0  0
    8.5991    3.1550    0.0000 C   0  0  0  0  0  0  0  0  0  0  0  0
    5.4641   -1.0350    0.0000 H   0  0  0  0  0  0  0  0  0  0  0  0
    6.3301   -2.1550    0.0000 H   0  0  0  0  0  0  0  0  0  0  0  0
    6.0010    0.2750    0.0000 H   0  0  0  0  0  0  0  0  0  0  0  0
    7.7331   -1.9650    0.0000 H   0  0  0  0  0  0  0  0  0  0  0  0
    7.7331    0.2750    0.0000 H   0  0  0  0  0  0  0  0  0  0  0  0
    5.5335    0.6299    0.0000 H   0  0  0  0  0  0  0  0  0  0  0  0
    4.7365    0.6299    0.0000 H   0  0  0  0  0  0  0  0  0  0  0  0
    5.1350   -2.4650    0.0000 H   0  0  0  0  0  0  0  0  0  0  0  0
    6.3301   -3.1550    0.0000 H   0  0  0  0  0  0  0  0  0  0  0  0
    8.5991   -2.4650    0.0000 H   0  0  0  0  0  0  0  0  0  0  0  0
    7.1962    1.3450    0.0000 H   0  0  0  0  0  0  0  0  0  0  0  0
   10.0021    2.9650    0.0000 H   0  0  0  0  0  0  0  0  0  0  0  0
    9.9326    0.6801    0.0000 H   0  0  0  0  0  0  0  0  0  0  0  0
   10.7297    0.6801    0.0000 H   0  0  0  0  0  0  0  0  0  0  0  0
    7.1962    2.9650    0.0000 H   0  0  0  0  0  0  0  0  0  0  0  0
    8.5991    3.7750    0.0000 H   0  0  0  0  0  0  0  0  0  0  0  0
    2.0000    0.3450    0.0000 H   0  0  0  0  0  0  0  0  0  0  0  0
    2.2830   -0.7110    0.0000 H   0  0  0  0  0  0  0  0  0  0  0  0
   11.7341    1.3450    0.0000 H   0  0  0  0  0  0  0  0  0  0  0  0
  1  7  1  0  0  0  0
  1  8  1  0  0  0  0
  1  9  1  0  0  0  0
  1 10  2  0  0  0  0
  2 14  1  0  0  0  0
  2 16  1  0  0  0  0
 16  3  1  1  0  0  0
  3 18  1  0  0  0  0
 12  4  1  6  0  0  0
  4 32  1  0  0  0  0
 13  5  1  1  0  0  0
  5 33  1  0  0  0  0
 15  6  1  6  0  0  0
  6 34  1  0  0  0  0
  7 17  1  0  0  0  0
  8 41  1  0  0  0  0
  9 42  1  0  0  0  0
 11 22  1  0  0  0  0
 11 43  1  0  0  0  0
 12 13  1  0  0  0  0
 12 14  1  0  0  0  0
 12 25  1  0  0  0  0
 13 15  1  0  0  0  0
 13 26  1  0  0  0  0
 14 17  1  1  0  0  0
 14 27  1  0  0  0  0
 15 16  1  0  0  0  0
 15 28  1  0  0  0  0
 16 29  1  0  0  0  0
 17 30  1  0  0  0  0
 17 31  1  0  0  0  0
 18 19  1  0  0  0  0
 18 20  2  0  0  0  0
 19 21  2  0  0  0  0
 19 22  1  0  0  0  0
 20 23  1  0  0  0  0
 20 35  1  0  0  0  0
 21 24  1  0  0  0  0
 21 36  1  0  0  0  0
 22 37  1  0  0  0  0
 22 38  1  0  0  0  0
 23 24  2  0  0  0  0
 23 39  1  0  0  0  0
 24 40  1  0  0  0  0
M  END
> <PUBCHEM_COMPOUND_CID>
440938

> <PUBCHEM_COMPOUND_CANONICALIZED>
1

> <PUBCHEM_CACTVS_COMPLEXITY>
443

> <PUBCHEM_CACTVS_HBOND_ACCEPTOR>
10

> <PUBCHEM_CACTVS_HBOND_DONOR>
6

> <PUBCHEM_CACTVS_ROTATABLE_BOND>
6

> <PUBCHEM_CACTVS_SUBSKEYS>
AAADceBwPAIAAAAAAAAAAAAAAAAAAAAAAAA0QAAAAAAAAAABAAAAGgAACCAADBSwmAMwDoAABxCAQiBCAIACCAAgIAAIiAAGCIgdNyKEMRqieCClwBEPuAfA4CwOAAAAAAAIAAAAAAAAABAAAAAAAAAAAA==

> <PUBCHEM_IUPAC_OPENEYE_NAME>
[(2R,3S,4S,5R,6S)-3,4,5-trihydroxy-6-[2-(hydroxymethyl)phenoxy]tetrahydropyran-2-yl]methyl dihydrogen phosphate

> <PUBCHEM_IUPAC_CAS_NAME>
[(2R,3S,4S,5R,6S)-3,4,5-trihydroxy-6-[2-(hydroxymethyl)phenoxy]-2-oxanyl]methyl dihydrogen phosphate

> <PUBCHEM_IUPAC_NAME>
[(2R,3S,4S,5R,6S)-3,4,5-trihydroxy-6-[2-(hydroxymethyl)phenoxy]oxan-2-yl]methyl dihydrogen phosphate

> <PUBCHEM_IUPAC_SYSTEMATIC_NAME>
[(2R,3S,4S,5R,6S)-6-[2-(hydroxymethyl)phenoxy]-3,4,5-tris(oxidanyl)oxan-2-yl]methyl dihydrogen phosphate

> <PUBCHEM_IUPAC_TRADITIONAL_NAME>
[(2R,3S,4S,5R,6S)-3,4,5-trihydroxy-6-(2-methylolphenoxy)tetrahydropyran-2-yl]methyl dihydrogen phosphate

> <PUBCHEM_IUPAC_INCHI>
InChI=1S/C13H19O10P/c14-5-7-3-1-2-4-8(7)22-13-12(17)11(16)10(15)9(23-13)6-21-24(18,19)20/h1-4,9-17H,5-6H2,(H2,18,19,20)/t9-,10-,11+,12-,13-/m1/s1

> <PUBCHEM_IUPAC_INCHIKEY>
FSJKOMDYZYBBLV-UJPOAAIJSA-N

> <PUBCHEM_XLOGP3>
-2.9

> <PUBCHEM_EXACT_MASS>
366.071583

> <PUBCHEM_MOLECULAR_FORMULA>
C13H19O10P

> <PUBCHEM_MOLECULAR_WEIGHT>
366.257722

> <PUBCHEM_OPENEYE_CAN_SMILES>
C1=CC=C(C(=C1)CO)OC2C(C(C(C(O2)COP(=O)(O)O)O)O)O

> <PUBCHEM_OPENEYE_ISO_SMILES>
C1=CC=C(C(=C1)CO)O[C@H]2[C@@H]([C@H]([C@@H]([C@H](O2)COP(=O)(O)O)O)O)O

> <PUBCHEM_CACTVS_TPSA>
166

> <PUBCHEM_MONOISOTOPIC_WEIGHT>
366.071583

> <PUBCHEM_TOTAL_CHARGE>
0

> <PUBCHEM_HEAVY_ATOM_COUNT>
24

> <PUBCHEM_ATOM_DEF_STEREO_COUNT>
5

> <PUBCHEM_ATOM_UDEF_STEREO_COUNT>
0

> <PUBCHEM_BOND_DEF_STEREO_COUNT>
0

> <PUBCHEM_BOND_UDEF_STEREO_COUNT>
0

> <PUBCHEM_ISOTOPIC_ATOM_COUNT>
0

> <PUBCHEM_COMPONENT_COUNT>
1

> <PUBCHEM_CACTVS_TAUTO_COUNT>
1

> <PUBCHEM_COORDINATE_TYPE>
1
5
255

> <PUBCHEM_BONDANNOTATIONS>
14  17  5
18  19  8
18  20  8
19  21  8
20  23  8
21  24  8
23  24  8
16  3  5
12  4  6
13  5  5
15  6  6

$$$$

