439968
  -OEChem-07051212483D

 37 36  0     1  0  0  0  0  0999 V2000
   -0.0765    2.7497   -1.7285 O   0  0  0  0  0  0  0  0  0  0  0  0
    1.2192    3.9374   -0.2933 O   0  0  0  0  0  0  0  0  0  0  0  0
   -2.1809    0.7018    1.8449 O   0  0  0  0  0  0  0  0  0  0  0  0
   -5.9477   -2.3304    0.3528 O   0  0  0  0  0  0  0  0  0  0  0  0
   -4.7830   -1.9285   -1.5552 O   0  0  0  0  0  0  0  0  0  0  0  0
   -0.9411    1.1039   -0.0798 N   0  0  0  0  0  0  0  0  0  0  0  0
    3.8318   -1.1892   -0.5081 N   0  0  0  0  0  0  0  0  0  0  0  0
    5.5381   -2.6395   -1.1048 N   0  0  0  0  0  0  0  0  0  0  0  0
    5.3895   -2.0665    1.0962 N   0  0  0  0  0  0  0  0  0  0  0  0
    1.2640    1.1510    1.0353 C   0  0  0  0  0  0  0  0  0  0  0  0
    0.0653    1.9477    0.5130 C   0  0  1  0  0  0  0  0  0  0  0  0
    2.0077    0.3539   -0.0430 C   0  0  0  0  0  0  0  0  0  0  0  0
    3.1594   -0.4448    0.5581 C   0  0  0  0  0  0  0  0  0  0  0  0
    0.4682    2.9949   -0.5081 C   0  0  0  0  0  0  0  0  0  0  0  0
   -1.9894    0.5464    0.6419 C   0  0  0  0  0  0  0  0  0  0  0  0
   -2.8918   -0.2976   -0.2404 C   0  0  0  0  0  0  0  0  0  0  0  0
   -4.0495   -0.9186    0.5343 C   0  0  0  0  0  0  0  0  0  0  0  0
   -4.9355   -1.7614   -0.3531 C   0  0  0  0  0  0  0  0  0  0  0  0
    4.8522   -1.9104   -0.1622 C   0  0  0  0  0  0  0  0  0  0  0  0
    0.9188    0.4590    1.8142 H   0  0  0  0  0  0  0  0  0  0  0  0
    1.9702    1.8406    1.5151 H   0  0  0  0  0  0  0  0  0  0  0  0
   -0.4012    2.4861    1.3469 H   0  0  0  0  0  0  0  0  0  0  0  0
    2.3983    1.0305   -0.8125 H   0  0  0  0  0  0  0  0  0  0  0  0
    1.3190   -0.3339   -0.5484 H   0  0  0  0  0  0  0  0  0  0  0  0
   -0.8634    0.8884   -1.0701 H   0  0  0  0  0  0  0  0  0  0  0  0
    3.8610    0.2448    1.0430 H   0  0  0  0  0  0  0  0  0  0  0  0
    2.7654   -1.1361    1.3130 H   0  0  0  0  0  0  0  0  0  0  0  0
   -3.2766    0.3377   -1.0476 H   0  0  0  0  0  0  0  0  0  0  0  0
   -2.2832   -1.0846   -0.7026 H   0  0  0  0  0  0  0  0  0  0  0  0
   -4.6646   -0.1302    0.9827 H   0  0  0  0  0  0  0  0  0  0  0  0
   -3.6608   -1.5573    1.3356 H   0  0  0  0  0  0  0  0  0  0  0  0
    0.1990    3.4173   -2.3924 H   0  0  0  0  0  0  0  0  0  0  0  0
    5.2607   -2.6270   -2.0803 H   0  0  0  0  0  0  0  0  0  0  0  0
    6.3382   -3.2104   -0.8548 H   0  0  0  0  0  0  0  0  0  0  0  0
    5.0052   -1.6003    1.9102 H   0  0  0  0  0  0  0  0  0  0  0  0
    6.1963   -2.6618    1.2496 H   0  0  0  0  0  0  0  0  0  0  0  0
   -6.5267   -2.8800   -0.2171 H   0  0  0  0  0  0  0  0  0  0  0  0
  1 14  1  0  0  0  0
  1 32  1  0  0  0  0
  2 14  2  0  0  0  0
  3 15  2  0  0  0  0
  4 18  1  0  0  0  0
  4 37  1  0  0  0  0
  5 18  2  0  0  0  0
  6 11  1  0  0  0  0
  6 15  1  0  0  0  0
  6 25  1  0  0  0  0
  7 13  1  0  0  0  0
  7 19  2  0  0  0  0
  8 19  1  0  0  0  0
  8 33  1  0  0  0  0
  8 34  1  0  0  0  0
  9 19  1  0  0  0  0
  9 35  1  0  0  0  0
  9 36  1  0  0  0  0
 10 11  1  0  0  0  0
 10 12  1  0  0  0  0
 10 20  1  0  0  0  0
 10 21  1  0  0  0  0
 11 14  1  0  0  0  0
 11 22  1  0  0  0  0
 12 13  1  0  0  0  0
 12 23  1  0  0  0  0
 12 24  1  0  0  0  0
 13 26  1  0  0  0  0
 13 27  1  0  0  0  0
 15 16  1  0  0  0  0
 16 17  1  0  0  0  0
 16 28  1  0  0  0  0
 16 29  1  0  0  0  0
 17 18  1  0  0  0  0
 17 30  1  0  0  0  0
 17 31  1  0  0  0  0
M  END
> <PUBCHEM_COMPOUND_CID>
439968

> <PUBCHEM_CONFORMER_RMSD>
1

> <PUBCHEM_CONFORMER_DIVERSEORDER>
1
28
20
41
34
35
52
56
8
7
68
36
30
37
58
23
61
43
25
32
45
24
53
66
65
17
27
63
54
11
67
6
57
48
2
10
14
26
46
64
5
44
12
60
47
3
9
33
15
39
18
19
38
13
16
21
40
29
62
49
55
69
59
31
51
42
22
4
50

> <PUBCHEM_MMFF94_PARTIAL_CHARGES>
24
1 -0.65
11 0.36
13 0.25
14 0.66
15 0.57
16 0.06
17 0.06
18 0.66
19 0.55
2 -0.57
25 0.37
3 -0.57
32 0.5
33 0.4
34 0.4
35 0.4
36 0.4
37 0.5
4 -0.65
5 -0.57
6 -0.73
7 -0.7
8 -0.85
9 -0.85

> <PUBCHEM_EFFECTIVE_ROTOR_COUNT>
10

> <PUBCHEM_PHARMACOPHORE_FEATURES>
11
1 1 acceptor
1 2 acceptor
1 3 acceptor
1 4 acceptor
1 5 acceptor
1 6 donor
1 8 donor
1 9 donor
3 1 2 14 anion
3 4 5 18 anion
4 7 8 9 19 cation

> <PUBCHEM_HEAVY_ATOM_COUNT>
19

> <PUBCHEM_ATOM_DEF_STEREO_COUNT>
1

> <PUBCHEM_ATOM_UDEF_STEREO_COUNT>
0

> <PUBCHEM_BOND_DEF_STEREO_COUNT>
0

> <PUBCHEM_BOND_UDEF_STEREO_COUNT>
0

> <PUBCHEM_ISOTOPIC_ATOM_COUNT>
0

> <PUBCHEM_COMPONENT_COUNT>
1

> <PUBCHEM_CACTVS_TAUTO_COUNT>
4

> <PUBCHEM_CONFORMER_ID>
0006B6A000000001

> <PUBCHEM_MMFF94_ENERGY>
31.1574

> <PUBCHEM_FEATURE_SELFOVERLAP>
55.991

> <PUBCHEM_SHAPE_FINGERPRINT>
10042902 136 18260537948878340406
10692045 39 8718555974146981724
10753850 27 18412830187581441507
12107183 9 18262787580224047897
12633257 1 15068629253304002483
13533116 47 18191867817501489539
13955234 65 17975411317900360417
13968360 50 17908426857633610164
14178000 29 18411136926567958232
1420 369 18333732424796153594
14251731 5 18409450305990652878
15342816 4 18336532872643638884
17539 30 18127135383864325972
1813 80 18409718569537328060
193927 3 18408038507175136723
19784866 240 18409161100458015907
19784866 34 9511463312095915815
20374829 77 18340771536717418234
20388580 30 18339638949588888377
20621476 91 18337689602163556898
20645477 70 18056203475516904777
20671657 53 18412823556272982525
21728266 224 17915472803496488330
22620623 9 17987244502287648293
270888 7 9943804478166858610
2838139 119 11815895639396613002
3057174 1 17265515964622114260
3421961 26 18337112259009666224
4463277 69 18336271154257994117
5207 123 18410016533278382351
77188 2 18409729551859147432
7970288 3 18410857676427297554

> <PUBCHEM_SHAPE_MULTIPOLES>
341.74
12.35
3.96
1.25
0.57
2.61
0.06
-18.68
1.05
-1.93
1.31
0.21
0.13
-0.31

> <PUBCHEM_SHAPE_SELFOVERLAP>
664.153

> <PUBCHEM_SHAPE_VOLUME>
202.9

> <PUBCHEM_COORDINATE_TYPE>
2
5
10

$$$$

