25092366
  -OEChem-07051212553D

 45 49  0     1  0  0  0  0  0999 V2000
   -0.3304    0.4393    3.0118 O   0  0  0  0  0  0  0  0  0  0  0  0
   -3.8627   -0.8499   -1.8741 O   0  0  0  0  0  0  0  0  0  0  0  0
    2.9969    1.8675   -1.0022 O   0  0  0  0  0  0  0  0  0  0  0  0
    3.1959   -2.5401    0.4411 O   0  0  0  0  0  0  0  0  0  0  0  0
    4.3166   -0.6232   -0.4924 O   0  0  0  0  0  0  0  0  0  0  0  0
   -1.1889    2.1560    0.0791 N   0  0  1  0  0  0  0  0  0  0  0  0
   -1.1896   -0.0981    0.7596 C   0  0  2  0  0  0  0  0  0  0  0  0
   -1.8054    0.8597   -0.2935 C   0  0  1  0  0  0  0  0  0  0  0  0
   -1.3194    0.7532    2.0457 C   0  0  2  0  0  0  0  0  0  0  0  0
   -1.2107    2.2026    1.5615 C   0  0  0  0  0  0  0  0  0  0  0  0
    0.2977   -0.2692    0.3913 C   0  0  0  0  0  0  0  0  0  0  0  0
   -3.3422    0.8927   -0.2603 C   0  0  0  0  0  0  0  0  0  0  0  0
    0.2107    2.1513   -0.4125 C   0  0  0  0  0  0  0  0  0  0  0  0
   -1.9867   -1.3777    0.8785 C   0  0  0  0  0  0  0  0  0  0  0  0
    0.9764    0.8672   -0.1474 C   0  0  0  0  0  0  0  0  0  0  0  0
   -3.9053   -0.5156   -0.4897 C   0  0  2  0  0  0  0  0  0  0  0  0
   -3.1815   -1.5676    0.2970 C   0  0  0  0  0  0  0  0  0  0  0  0
    1.0182   -1.4529    0.6180 C   0  0  0  0  0  0  0  0  0  0  0  0
    2.3393    0.8035   -0.4734 C   0  0  0  0  0  0  0  0  0  0  0  0
    2.3598   -1.4762    0.2877 C   0  0  0  0  0  0  0  0  0  0  0  0
    3.0007   -0.3823   -0.2425 C   0  0  0  0  0  0  0  0  0  0  0  0
   -4.8375   -1.8293   -2.2008 C   0  0  0  0  0  0  0  0  0  0  0  0
    4.4335   -1.9927   -0.0570 C   0  0  0  0  0  0  0  0  0  0  0  0
    3.0145    1.9818   -2.4257 C   0  0  0  0  0  0  0  0  0  0  0  0
   -1.5224    0.5782   -1.3197 H   0  0  0  0  0  0  0  0  0  0  0  0
   -2.2985    0.6045    2.5197 H   0  0  0  0  0  0  0  0  0  0  0  0
   -2.1062    2.7548    1.8711 H   0  0  0  0  0  0  0  0  0  0  0  0
   -0.3547    2.7382    1.9885 H   0  0  0  0  0  0  0  0  0  0  0  0
   -3.7074    1.5765   -1.0366 H   0  0  0  0  0  0  0  0  0  0  0  0
   -3.7087    1.2735    0.7007 H   0  0  0  0  0  0  0  0  0  0  0  0
    0.7496    3.0082    0.0107 H   0  0  0  0  0  0  0  0  0  0  0  0
    0.1708    2.3109   -1.4969 H   0  0  0  0  0  0  0  0  0  0  0  0
   -1.5937   -2.1824    1.4937 H   0  0  0  0  0  0  0  0  0  0  0  0
   -4.9519   -0.4847   -0.1573 H   0  0  0  0  0  0  0  0  0  0  0  0
   -3.6802   -2.5218    0.4444 H   0  0  0  0  0  0  0  0  0  0  0  0
    0.5615   -2.3361    1.0481 H   0  0  0  0  0  0  0  0  0  0  0  0
   -0.4384    1.0601    3.7524 H   0  0  0  0  0  0  0  0  0  0  0  0
   -4.7806   -2.0151   -3.2772 H   0  0  0  0  0  0  0  0  0  0  0  0
   -5.8455   -1.4686   -1.9727 H   0  0  0  0  0  0  0  0  0  0  0  0
   -4.6469   -2.7754   -1.6865 H   0  0  0  0  0  0  0  0  0  0  0  0
    5.1859   -2.0453    0.7383 H   0  0  0  0  0  0  0  0  0  0  0  0
    4.7718   -2.6023   -0.9027 H   0  0  0  0  0  0  0  0  0  0  0  0
    3.4048    2.9699   -2.6842 H   0  0  0  0  0  0  0  0  0  0  0  0
    2.0116    1.8786   -2.8502 H   0  0  0  0  0  0  0  0  0  0  0  0
    3.6768    1.2217   -2.8516 H   0  0  0  0  0  0  0  0  0  0  0  0
  1  9  1  0  0  0  0
  1 37  1  0  0  0  0
  2 16  1  0  0  0  0
  2 22  1  0  0  0  0
  3 19  1  0  0  0  0
  3 24  1  0  0  0  0
  4 20  1  0  0  0  0
  4 23  1  0  0  0  0
  5 21  1  0  0  0  0
  5 23  1  0  0  0  0
  6  8  1  0  0  0  0
  6 10  1  0  0  0  0
  6 13  1  0  0  0  0
  7  8  1  0  0  0  0
  7  9  1  0  0  0  0
  7 11  1  0  0  0  0
  7 14  1  0  0  0  0
  8 12  1  0  0  0  0
  8 25  1  0  0  0  0
  9 10  1  0  0  0  0
  9 26  1  0  0  0  0
 10 27  1  0  0  0  0
 10 28  1  0  0  0  0
 11 15  1  0  0  0  0
 11 18  2  0  0  0  0
 12 16  1  0  0  0  0
 12 29  1  0  0  0  0
 12 30  1  0  0  0  0
 13 15  1  0  0  0  0
 13 31  1  0  0  0  0
 13 32  1  0  0  0  0
 14 17  2  0  0  0  0
 14 33  1  0  0  0  0
 15 19  2  0  0  0  0
 16 17  1  0  0  0  0
 16 34  1  0  0  0  0
 17 35  1  0  0  0  0
 18 20  1  0  0  0  0
 18 36  1  0  0  0  0
 19 21  1  0  0  0  0
 20 21  2  0  0  0  0
 22 38  1  0  0  0  0
 22 39  1  0  0  0  0
 22 40  1  0  0  0  0
 23 41  1  0  0  0  0
 23 42  1  0  0  0  0
 24 43  1  0  0  0  0
 24 44  1  0  0  0  0
 24 45  1  0  0  0  0
M  END
> <PUBCHEM_COMPOUND_CID>
25092366

> <PUBCHEM_CONFORMER_RMSD>
0.6

> <PUBCHEM_CONFORMER_DIVERSEORDER>
1

> <PUBCHEM_MMFF94_PARTIAL_CHARGES>
27
1 -0.68
10 0.27
11 -0.14
13 0.41
14 -0.29
15 -0.14
16 0.42
17 -0.29
18 -0.15
19 0.08
2 -0.56
20 0.08
21 0.08
22 0.28
23 0.56
24 0.28
3 -0.36
33 0.15
35 0.15
36 0.15
37 0.4
4 -0.36
5 -0.36
6 -0.81
7 0.28
8 0.27
9 0.28

> <PUBCHEM_EFFECTIVE_ROTOR_COUNT>
3.6

> <PUBCHEM_PHARMACOPHORE_FEATURES>
11
1 1 acceptor
1 1 donor
1 2 acceptor
1 3 acceptor
1 4 acceptor
1 5 acceptor
1 6 cation
5 4 5 20 21 23 rings
6 11 15 18 19 20 21 rings
6 7 8 12 14 16 17 rings
8 6 7 8 9 10 11 13 15 rings

> <PUBCHEM_HEAVY_ATOM_COUNT>
24

> <PUBCHEM_ATOM_DEF_STEREO_COUNT>
4

> <PUBCHEM_ATOM_UDEF_STEREO_COUNT>
0

> <PUBCHEM_BOND_DEF_STEREO_COUNT>
0

> <PUBCHEM_BOND_UDEF_STEREO_COUNT>
0

> <PUBCHEM_ISOTOPIC_ATOM_COUNT>
0

> <PUBCHEM_COMPONENT_COUNT>
1

> <PUBCHEM_CACTVS_TAUTO_COUNT>
1

> <PUBCHEM_CONFORMER_ID>
017EE10E00000001

> <PUBCHEM_MMFF94_ENERGY>
88.9103

> <PUBCHEM_FEATURE_SELFOVERLAP>
56.014

> <PUBCHEM_SHAPE_FINGERPRINT>
10062212 137 18334858355094373063
10863032 1 18341888546274053509
11578080 2 17969244328863085137
11582403 64 16911463359175346448
11725454 13 16628291891714909788
11796584 16 17169274741833958119
12553582 1 17749659685053618151
12788726 201 17969481836554745201
12892183 10 6122509033749133007
13140716 1 18199165426050572920
13544653 18 18113625564366171923
13583140 156 15431458349996257018
13911987 19 17552895365981741780
14251757 17 17560819748151204879
14617773 55 18261657255598810057
14787075 74 17316484994342788216
15342816 4 17677054525418475287
16945 1 18198622138446921889
17349148 13 18342463672660297258
17357779 13 17560519607341389372
1813 80 16515683287106167981
18186145 218 16917350337829892977
192875 21 18271814565818127578
19862831 5 17775283893384974378
200 152 18408885148207913050
20600515 1 16588021342424162025
20626108 58 18041857124875233103
20645477 70 18059849537394320574
20775438 99 17180006967232592471
21267235 1 18341600551489794203
21634736 98 18342450457082915598
22112679 90 18041822000279356121
23114952 82 17775283824628431980
23402539 116 18339084898828809911
23419403 2 17335684820952970848
23526113 38 17631445666470347793
23557571 272 15864344817629691352
23559900 14 18272933804494132816
238 59 18057879156664710252
25147074 1 18337092558026503272
2748010 2 17844220987935274264
394222 165 17200235820872479856
46194498 28 17487065462191558207
463206 1 18115599149342463023
633830 44 17418095442638198837
7471813 234 18335710446409188300
9709674 26 18131342003861810538
9981440 41 17841984491238316632

> <PUBCHEM_SHAPE_MULTIPOLES>
459.58
7.82
2.6
1.95
0.22
0.18
-0.12
-4.62
4.75
-1.06
0.3
1.13
0.5
-2.15

> <PUBCHEM_SHAPE_SELFOVERLAP>
1027.087

> <PUBCHEM_SHAPE_VOLUME>
244

> <PUBCHEM_COORDINATE_TYPE>
2
5
10

$$$$

