441320
  -OEChem-07051212542D

 26 28  0     1  0  0  0  0  0999 V2000
    5.3923   -1.9027    0.0000 O   0  0  0  0  0  0  0  0  0  0  0  0
    7.3991   -1.4923    0.0000 O   0  0  0  0  0  0  0  0  0  0  0  0
    4.5274    2.3683    0.0000 O   0  0  0  0  0  0  0  0  0  0  0  0
    5.0274   -0.1706    0.0000 C   0  0  0  0  0  0  0  0  0  0  0  0
    5.7123   -0.9553    0.0000 C   0  0  3  0  0  0  0  0  0  0  0  0
    5.3364    0.7805    0.0000 C   0  0  0  0  0  0  0  0  0  0  0  0
    6.7328   -0.7466    0.0000 C   0  0  3  0  0  0  0  0  0  0  0  0
    4.0274   -0.1706    0.0000 C   0  0  0  0  0  0  0  0  0  0  0  0
    3.7183    0.7805    0.0000 C   0  0  0  0  0  0  0  0  0  0  0  0
    4.5274    1.3683    0.0000 C   0  0  0  0  0  0  0  0  0  0  0  0
    6.3518    1.0127    0.0000 C   0  0  0  0  0  0  0  0  0  0  0  0
    7.0547    0.2440    0.0000 C   0  0  0  0  0  0  0  0  0  0  0  0
    3.3424   -0.9553    0.0000 C   0  0  0  0  0  0  0  0  0  0  0  0
    2.7029    1.0127    0.0000 C   0  0  0  0  0  0  0  0  0  0  0  0
    2.3219   -0.7466    0.0000 C   0  0  0  0  0  0  0  0  0  0  0  0
    2.0000    0.2440    0.0000 C   0  0  0  0  0  0  0  0  0  0  0  0
    6.1227   -1.4200    0.0000 H   0  0  0  0  0  0  0  0  0  0  0  0
    6.5378   -1.3352    0.0000 H   0  0  0  0  0  0  0  0  0  0  0  0
    6.5365    1.6046    0.0000 H   0  0  0  0  0  0  0  0  0  0  0  0
    7.6607    0.3753    0.0000 H   0  0  0  0  0  0  0  0  0  0  0  0
    3.5408   -1.5427    0.0000 H   0  0  0  0  0  0  0  0  0  0  0  0
    2.5182    1.6046    0.0000 H   0  0  0  0  0  0  0  0  0  0  0  0
    5.8018   -2.3683    0.0000 H   0  0  0  0  0  0  0  0  0  0  0  0
    1.9088   -1.2090    0.0000 H   0  0  0  0  0  0  0  0  0  0  0  0
    1.3940    0.3753    0.0000 H   0  0  0  0  0  0  0  0  0  0  0  0
    8.0060   -1.3658    0.0000 H   0  0  0  0  0  0  0  0  0  0  0  0
  1  5  1  0  0  0  0
  1 23  1  0  0  0  0
  2  7  1  0  0  0  0
  2 26  1  0  0  0  0
  3 10  2  0  0  0  0
  4  5  1  0  0  0  0
  4  6  2  0  0  0  0
  4  8  1  0  0  0  0
  5  7  1  0  0  0  0
  5 17  1  0  0  0  0
  6 10  1  0  0  0  0
  6 11  1  0  0  0  0
  7 12  1  0  0  0  0
  7 18  1  0  0  0  0
  8  9  1  0  0  0  0
  8 13  2  0  0  0  0
  9 10  1  0  0  0  0
  9 14  2  0  0  0  0
 11 12  2  0  0  0  0
 11 19  1  0  0  0  0
 12 20  1  0  0  0  0
 13 15  1  0  0  0  0
 13 21  1  0  0  0  0
 14 16  1  0  0  0  0
 14 22  1  0  0  0  0
 15 16  2  0  0  0  0
 15 24  1  0  0  0  0
 16 25  1  0  0  0  0
M  END
> <PUBCHEM_COMPOUND_CID>
441320

> <PUBCHEM_COMPOUND_CANONICALIZED>
1

> <PUBCHEM_CACTVS_COMPLEXITY>
394

> <PUBCHEM_CACTVS_HBOND_ACCEPTOR>
3

> <PUBCHEM_CACTVS_HBOND_DONOR>
2

> <PUBCHEM_CACTVS_ROTATABLE_BOND>
0

> <PUBCHEM_CACTVS_SUBSKEYS>
AAADccBwMAAAAAAAAAAAAAAAAAAAAQAAAAAwQAAAAAAAAEABAAAAGgAACAAADBSgmAIwAIAAAgCIAqBSAAACAAAkAAAIiAEAAMgJNDKAFRCAcQAkwAEJmYeIzPDOgAAAAAAQAAAAAAAAACAAAAAAAAAAAA==

> <PUBCHEM_IUPAC_OPENEYE_NAME>
3,4-dihydroxy-3,4-dihydrofluoren-9-one

> <PUBCHEM_IUPAC_CAS_NAME>
3,4-dihydroxy-3,4-dihydrofluoren-9-one

> <PUBCHEM_IUPAC_NAME>
3,4-dihydroxy-3,4-dihydrofluoren-9-one

> <PUBCHEM_IUPAC_SYSTEMATIC_NAME>
3,4-bis(oxidanyl)-3,4-dihydrofluoren-9-one

> <PUBCHEM_IUPAC_TRADITIONAL_NAME>
3,4-dihydroxy-3,4-dihydrofluoren-9-one

> <PUBCHEM_IUPAC_INCHI>
InChI=1S/C13H10O3/c14-10-6-5-9-11(13(10)16)7-3-1-2-4-8(7)12(9)15/h1-6,10,13-14,16H

> <PUBCHEM_IUPAC_INCHIKEY>
NAUFEDHPWOGKDO-UHFFFAOYSA-N

> <PUBCHEM_XLOGP3_AA>
0.4

> <PUBCHEM_EXACT_MASS>
214.062994

> <PUBCHEM_MOLECULAR_FORMULA>
C13H10O3

> <PUBCHEM_MOLECULAR_WEIGHT>
214.2167

> <PUBCHEM_OPENEYE_CAN_SMILES>
C1=CC=C2C(=C1)C3=C(C2=O)C=CC(C3O)O

> <PUBCHEM_OPENEYE_ISO_SMILES>
C1=CC=C2C(=C1)C3=C(C2=O)C=CC(C3O)O

> <PUBCHEM_CACTVS_TPSA>
57.5

> <PUBCHEM_MONOISOTOPIC_WEIGHT>
214.062994

> <PUBCHEM_TOTAL_CHARGE>
0

> <PUBCHEM_HEAVY_ATOM_COUNT>
16

> <PUBCHEM_ATOM_DEF_STEREO_COUNT>
0

> <PUBCHEM_ATOM_UDEF_STEREO_COUNT>
2

> <PUBCHEM_BOND_DEF_STEREO_COUNT>
0

> <PUBCHEM_BOND_UDEF_STEREO_COUNT>
0

> <PUBCHEM_ISOTOPIC_ATOM_COUNT>
0

> <PUBCHEM_COMPONENT_COUNT>
1

> <PUBCHEM_CACTVS_TAUTO_COUNT>
1

> <PUBCHEM_COORDINATE_TYPE>
1
5
255

> <PUBCHEM_BONDANNOTATIONS>
5  1  3
13  15  8
14  16  8
15  16  8
7  2  3
8  13  8
8  9  8
9  14  8

$$$$

