7231
  -OEChem-06261201552D

 29 31  0     0  0  0  0  0  0999 V2000
    6.7619   -0.5000    0.0000 S   0  0  0  0  0  0  0  0  0  0  0  0
    6.2619    0.3660    0.0000 S   0  0  0  0  0  0  0  0  0  0  0  0
    4.6783    1.1708    0.0000 S   0  0  0  0  0  0  0  0  0  0  0  0
    9.7619   -0.5000    0.0000 O   0  0  0  0  0  0  0  0  0  0  0  0
    7.7619   -0.5000    0.0000 N   0  0  0  0  0  0  0  0  0  0  0  0
    4.6783   -0.4387    0.0000 N   0  0  0  0  0  0  0  0  0  0  0  0
    8.2619   -1.3660    0.0000 C   0  0  0  0  0  0  0  0  0  0  0  0
    8.2619    0.3660    0.0000 C   0  0  0  0  0  0  0  0  0  0  0  0
    9.2619   -1.3660    0.0000 C   0  0  0  0  0  0  0  0  0  0  0  0
    9.2619    0.3660    0.0000 C   0  0  0  0  0  0  0  0  0  0  0  0
    3.7320    0.8660    0.0000 C   0  0  0  0  0  0  0  0  0  0  0  0
    3.7320   -0.1340    0.0000 C   0  0  0  0  0  0  0  0  0  0  0  0
    5.2619    0.3660    0.0000 C   0  0  0  0  0  0  0  0  0  0  0  0
    2.8660    1.3660    0.0000 C   0  0  0  0  0  0  0  0  0  0  0  0
    2.8660   -0.6340    0.0000 C   0  0  0  0  0  0  0  0  0  0  0  0
    2.0000    0.8660    0.0000 C   0  0  0  0  0  0  0  0  0  0  0  0
    2.0000   -0.1340    0.0000 C   0  0  0  0  0  0  0  0  0  0  0  0
    7.6793   -1.5781    0.0000 H   0  0  0  0  0  0  0  0  0  0  0  0
    8.3695   -1.9766    0.0000 H   0  0  0  0  0  0  0  0  0  0  0  0
    8.3695    0.9766    0.0000 H   0  0  0  0  0  0  0  0  0  0  0  0
    7.6793    0.5781    0.0000 H   0  0  0  0  0  0  0  0  0  0  0  0
    9.1542   -1.9766    0.0000 H   0  0  0  0  0  0  0  0  0  0  0  0
    9.8445   -1.5781    0.0000 H   0  0  0  0  0  0  0  0  0  0  0  0
    9.8445    0.5781    0.0000 H   0  0  0  0  0  0  0  0  0  0  0  0
    9.1542    0.9766    0.0000 H   0  0  0  0  0  0  0  0  0  0  0  0
    2.8660    1.9860    0.0000 H   0  0  0  0  0  0  0  0  0  0  0  0
    2.8660   -1.2540    0.0000 H   0  0  0  0  0  0  0  0  0  0  0  0
    1.4631    1.1760    0.0000 H   0  0  0  0  0  0  0  0  0  0  0  0
    1.4631   -0.4440    0.0000 H   0  0  0  0  0  0  0  0  0  0  0  0
  1  2  1  0  0  0  0
  1  5  1  0  0  0  0
  2 13  1  0  0  0  0
  3 11  1  0  0  0  0
  3 13  1  0  0  0  0
  4  9  1  0  0  0  0
  4 10  1  0  0  0  0
  5  7  1  0  0  0  0
  5  8  1  0  0  0  0
  6 12  1  0  0  0  0
  6 13  2  0  0  0  0
  7  9  1  0  0  0  0
  7 18  1  0  0  0  0
  7 19  1  0  0  0  0
  8 10  1  0  0  0  0
  8 20  1  0  0  0  0
  8 21  1  0  0  0  0
  9 22  1  0  0  0  0
  9 23  1  0  0  0  0
 10 24  1  0  0  0  0
 10 25  1  0  0  0  0
 11 12  1  0  0  0  0
 11 14  2  0  0  0  0
 12 15  2  0  0  0  0
 14 16  1  0  0  0  0
 14 26  1  0  0  0  0
 15 17  1  0  0  0  0
 15 27  1  0  0  0  0
 16 17  2  0  0  0  0
 16 28  1  0  0  0  0
 17 29  1  0  0  0  0
M  END
> <PUBCHEM_COMPOUND_CID>
7231

> <PUBCHEM_COMPOUND_CANONICALIZED>
1

> <PUBCHEM_CACTVS_COMPLEXITY>
251

> <PUBCHEM_CACTVS_HBOND_ACCEPTOR>
6

> <PUBCHEM_CACTVS_HBOND_DONOR>
0

> <PUBCHEM_CACTVS_ROTATABLE_BOND>
3

> <PUBCHEM_CACTVS_SUBSKEYS>
AAADccBzIABgAAAAAAAAAAAAAAAAAWAAAAA8QAAAAAAAAFgB8AAAHgQAQAAACAjh1gYwwbIIFAikASRiRACD8aBhCjhImDw4ZJgKIKLgkZGHIAhggADYyAcQAAAAAAAAAAAAAQAAAAAAAAACAAAAAAAAAA==

> <PUBCHEM_IUPAC_OPENEYE_NAME>
4-(1,3-benzothiazol-2-yldisulfanyl)morpholine

> <PUBCHEM_IUPAC_CAS_NAME>
4-(1,3-benzothiazol-2-yldisulfanyl)morpholine

> <PUBCHEM_IUPAC_NAME>
4-(1,3-benzothiazol-2-yldisulfanyl)morpholine

> <PUBCHEM_IUPAC_SYSTEMATIC_NAME>
4-(1,3-benzothiazol-2-yldisulfanyl)morpholine

> <PUBCHEM_IUPAC_TRADITIONAL_NAME>
4-(1,3-benzothiazol-2-yldisulfanyl)morpholine

> <PUBCHEM_IUPAC_INCHI>
InChI=1S/C11H12N2OS3/c1-2-4-10-9(3-1)12-11(15-10)16-17-13-5-7-14-8-6-13/h1-4H,5-8H2

> <PUBCHEM_IUPAC_INCHIKEY>
QRYFCNPYGUORTK-UHFFFAOYSA-N

> <PUBCHEM_XLOGP3_AA>
3.1

> <PUBCHEM_EXACT_MASS>
284.011176

> <PUBCHEM_MOLECULAR_FORMULA>
C11H12N2OS3

> <PUBCHEM_MOLECULAR_WEIGHT>
284.42078

> <PUBCHEM_OPENEYE_CAN_SMILES>
C1COCCN1SSC2=NC3=CC=CC=C3S2

> <PUBCHEM_OPENEYE_ISO_SMILES>
C1COCCN1SSC2=NC3=CC=CC=C3S2

> <PUBCHEM_CACTVS_TPSA>
104

> <PUBCHEM_MONOISOTOPIC_WEIGHT>
284.011176

> <PUBCHEM_TOTAL_CHARGE>
0

> <PUBCHEM_HEAVY_ATOM_COUNT>
17

> <PUBCHEM_ATOM_DEF_STEREO_COUNT>
0

> <PUBCHEM_ATOM_UDEF_STEREO_COUNT>
0

> <PUBCHEM_BOND_DEF_STEREO_COUNT>
0

> <PUBCHEM_BOND_UDEF_STEREO_COUNT>
0

> <PUBCHEM_ISOTOPIC_ATOM_COUNT>
0

> <PUBCHEM_COMPONENT_COUNT>
1

> <PUBCHEM_CACTVS_TAUTO_COUNT>
1

> <PUBCHEM_COORDINATE_TYPE>
1
5
255

> <PUBCHEM_BONDANNOTATIONS>
11  12  8
11  14  8
12  15  8
14  16  8
15  17  8
16  17  8
3  11  8
3  13  8
6  12  8
6  13  8

$$$$

