46173981
  -OEChem-07051213103D

 75 77  0     1  0  0  0  0  0999 V2000
    1.6383   -0.5182    0.1914 O   0  0  0  0  0  0  0  0  0  0  0  0
   -1.2104   -0.6976    0.2055 O   0  0  0  0  0  0  0  0  0  0  0  0
    3.7089    0.2679    1.0244 O   0  0  0  0  0  0  0  0  0  0  0  0
    0.4169   -3.4415    1.9722 O   0  0  0  0  0  0  0  0  0  0  0  0
   -3.0909   -0.0175    1.4338 O   0  0  0  0  0  0  0  0  0  0  0  0
   -2.0076    1.8266   -0.5783 O   0  0  0  0  0  0  0  0  0  0  0  0
   -6.2899    1.5060    0.4432 O   0  0  0  0  0  0  0  0  0  0  0  0
    1.7444    3.8171    0.2299 O   0  0  0  0  0  0  0  0  0  0  0  0
    3.8724    2.9491   -1.4974 O   0  0  0  0  0  0  0  0  0  0  0  0
    1.9492   -4.1323   -0.5040 N   0  0  0  0  0  0  0  0  0  0  0  0
   -1.0946   -4.3211   -0.4862 N   0  0  0  0  0  0  0  0  0  0  0  0
   -5.1061    0.1613   -1.6364 N   0  0  0  0  0  0  0  0  0  0  0  0
    0.2870    1.6368    1.4886 N   0  0  0  0  0  0  0  0  0  0  0  0
    6.1010    1.4501   -1.5060 N   0  0  0  0  0  0  0  0  0  0  0  0
    1.5824   -1.9088    0.5169 C   0  0  1  0  0  0  0  0  0  0  0  0
   -0.9783   -2.0704    0.5294 C   0  0  2  0  0  0  0  0  0  0  0  0
    0.3175   -2.1625    1.3539 C   0  0  1  0  0  0  0  0  0  0  0  0
    1.6412   -2.7299   -0.7855 C   0  0  2  0  0  0  0  0  0  0  0  0
   -0.9462   -2.8934   -0.7726 C   0  0  1  0  0  0  0  0  0  0  0  0
    0.3309   -2.6024   -1.5836 C   0  0  0  0  0  0  0  0  0  0  0  0
    2.2917    0.2259    1.2175 C   0  0  1  0  0  0  0  0  0  0  0  0
   -2.6054   -0.4099    0.1496 C   0  0  1  0  0  0  0  0  0  0  0  0
    1.7372    1.6537    1.2938 C   0  0  1  0  0  0  0  0  0  0  0  0
   -4.3040    1.1639   -0.9175 C   0  0  2  0  0  0  0  0  0  0  0  0
   -2.8345    0.7023   -0.8839 C   0  0  1  0  0  0  0  0  0  0  0  0
   -4.8647    1.3897    0.5148 C   0  0  2  0  0  0  0  0  0  0  0  0
    2.1018    2.4475    0.0347 C   0  0  2  0  0  0  0  0  0  0  0  0
    4.1009    0.9133   -0.1920 C   0  0  1  0  0  0  0  0  0  0  0  0
    3.6106    2.3660   -0.2232 C   0  0  1  0  0  0  0  0  0  0  0  0
   -4.4996    0.2129    1.4306 C   0  0  0  0  0  0  0  0  0  0  0  0
    5.6220    0.8207   -0.2762 C   0  0  1  0  0  0  0  0  0  0  0  0
   -4.3542    2.7065    1.1227 C   0  0  0  0  0  0  0  0  0  0  0  0
    6.0858   -0.6319   -0.2372 C   0  0  0  0  0  0  0  0  0  0  0  0
   -4.9539    0.3200   -3.0727 C   0  0  0  0  0  0  0  0  0  0  0  0
    2.4746   -2.1754    1.1026 H   0  0  0  0  0  0  0  0  0  0  0  0
   -1.7933   -2.4361    1.1716 H   0  0  0  0  0  0  0  0  0  0  0  0
    0.2478   -1.4254    2.1617 H   0  0  0  0  0  0  0  0  0  0  0  0
    2.4479   -2.3319   -1.4145 H   0  0  0  0  0  0  0  0  0  0  0  0
   -1.7925   -2.6069   -1.4085 H   0  0  0  0  0  0  0  0  0  0  0  0
    0.3668   -3.2468   -2.4724 H   0  0  0  0  0  0  0  0  0  0  0  0
    0.2641   -1.5766   -1.9717 H   0  0  0  0  0  0  0  0  0  0  0  0
    2.1299   -0.2407    2.1975 H   0  0  0  0  0  0  0  0  0  0  0  0
   -3.1642   -1.2982   -0.1745 H   0  0  0  0  0  0  0  0  0  0  0  0
    2.1863    2.1582    2.1600 H   0  0  0  0  0  0  0  0  0  0  0  0
   -4.3897    2.1239   -1.4457 H   0  0  0  0  0  0  0  0  0  0  0  0
   -2.4798    0.3515   -1.8583 H   0  0  0  0  0  0  0  0  0  0  0  0
    1.5427    2.0917   -0.8395 H   0  0  0  0  0  0  0  0  0  0  0  0
    3.6731    0.3599   -1.0402 H   0  0  0  0  0  0  0  0  0  0  0  0
    4.1417    2.9655    0.5263 H   0  0  0  0  0  0  0  0  0  0  0  0
   -4.8094    0.4198    2.4617 H   0  0  0  0  0  0  0  0  0  0  0  0
   -5.0268   -0.7045    1.1397 H   0  0  0  0  0  0  0  0  0  0  0  0
    2.0309   -4.6481   -1.3791 H   0  0  0  0  0  0  0  0  0  0  0  0
    2.8560   -4.1996   -0.0440 H   0  0  0  0  0  0  0  0  0  0  0  0
   -1.9897   -4.4883   -0.0286 H   0  0  0  0  0  0  0  0  0  0  0  0
   -1.1141   -4.8460   -1.3595 H   0  0  0  0  0  0  0  0  0  0  0  0
    1.2139   -3.4387    2.5292 H   0  0  0  0  0  0  0  0  0  0  0  0
    6.0713    1.3340    0.5833 H   0  0  0  0  0  0  0  0  0  0  0  0
   -4.5713    3.5509    0.4588 H   0  0  0  0  0  0  0  0  0  0  0  0
   -3.2819    2.6943    1.3324 H   0  0  0  0  0  0  0  0  0  0  0  0
   -4.8712    2.9210    2.0658 H   0  0  0  0  0  0  0  0  0  0  0  0
   -6.0901    0.2898   -1.4002 H   0  0  0  0  0  0  0  0  0  0  0  0
    0.0627    1.1599    2.3607 H   0  0  0  0  0  0  0  0  0  0  0  0
   -0.0572    2.5914    1.5829 H   0  0  0  0  0  0  0  0  0  0  0  0
   -2.1402    2.4881   -1.2786 H   0  0  0  0  0  0  0  0  0  0  0  0
   -6.6321    1.5819    1.3503 H   0  0  0  0  0  0  0  0  0  0  0  0
    2.2280    4.1484    1.0057 H   0  0  0  0  0  0  0  0  0  0  0  0
    7.1765   -0.6976   -0.3248 H   0  0  0  0  0  0  0  0  0  0  0  0
    5.8109   -1.1150    0.7063 H   0  0  0  0  0  0  0  0  0  0  0  0
    5.6486   -1.2163   -1.0549 H   0  0  0  0  0  0  0  0  0  0  0  0
    3.4308    2.4065   -2.1728 H   0  0  0  0  0  0  0  0  0  0  0  0
    5.9081    2.4502   -1.4834 H   0  0  0  0  0  0  0  0  0  0  0  0
    7.1148    1.3609   -1.5653 H   0  0  0  0  0  0  0  0  0  0  0  0
   -3.9338    0.1283   -3.4157 H   0  0  0  0  0  0  0  0  0  0  0  0
   -5.2640    1.3152   -3.4085 H   0  0  0  0  0  0  0  0  0  0  0  0
   -5.5960   -0.4078   -3.5799 H   0  0  0  0  0  0  0  0  0  0  0  0
  1 15  1  0  0  0  0
  1 21  1  0  0  0  0
  2 16  1  0  0  0  0
  2 22  1  0  0  0  0
  3 21  1  0  0  0  0
  3 28  1  0  0  0  0
  4 17  1  0  0  0  0
  4 56  1  0  0  0  0
  5 22  1  0  0  0  0
  5 30  1  0  0  0  0
  6 25  1  0  0  0  0
  6 64  1  0  0  0  0
  7 26  1  0  0  0  0
  7 65  1  0  0  0  0
  8 27  1  0  0  0  0
  8 66  1  0  0  0  0
  9 29  1  0  0  0  0
  9 70  1  0  0  0  0
 10 18  1  0  0  0  0
 10 52  1  0  0  0  0
 10 53  1  0  0  0  0
 11 19  1  0  0  0  0
 11 54  1  0  0  0  0
 11 55  1  0  0  0  0
 12 24  1  0  0  0  0
 12 34  1  0  0  0  0
 12 61  1  0  0  0  0
 13 23  1  0  0  0  0
 13 62  1  0  0  0  0
 13 63  1  0  0  0  0
 14 31  1  0  0  0  0
 14 71  1  0  0  0  0
 14 72  1  0  0  0  0
 15 17  1  0  0  0  0
 15 18  1  0  0  0  0
 15 35  1  0  0  0  0
 16 17  1  0  0  0  0
 16 19  1  0  0  0  0
 16 36  1  0  0  0  0
 17 37  1  0  0  0  0
 18 20  1  0  0  0  0
 18 38  1  0  0  0  0
 19 20  1  0  0  0  0
 19 39  1  0  0  0  0
 20 40  1  0  0  0  0
 20 41  1  0  0  0  0
 21 23  1  0  0  0  0
 21 42  1  0  0  0  0
 22 25  1  0  0  0  0
 22 43  1  0  0  0  0
 23 27  1  0  0  0  0
 23 44  1  0  0  0  0
 24 25  1  0  0  0  0
 24 26  1  0  0  0  0
 24 45  1  0  0  0  0
 25 46  1  0  0  0  0
 26 30  1  0  0  0  0
 26 32  1  0  0  0  0
 27 29  1  0  0  0  0
 27 47  1  0  0  0  0
 28 29  1  0  0  0  0
 28 31  1  0  0  0  0
 28 48  1  0  0  0  0
 29 49  1  0  0  0  0
 30 50  1  0  0  0  0
 30 51  1  0  0  0  0
 31 33  1  0  0  0  0
 31 57  1  0  0  0  0
 32 58  1  0  0  0  0
 32 59  1  0  0  0  0
 32 60  1  0  0  0  0
 33 67  1  0  0  0  0
 33 68  1  0  0  0  0
 33 69  1  0  0  0  0
 34 73  1  0  0  0  0
 34 74  1  0  0  0  0
 34 75  1  0  0  0  0
M  END
> <PUBCHEM_COMPOUND_CID>
46173981

> <PUBCHEM_CONFORMER_RMSD>
1

> <PUBCHEM_CONFORMER_DIVERSEORDER>
1
29
55
82
47
20
32
56
28
83
54
77
59
48
38
46
66
43
11
84
31
27
12
65
19
41
53
75
5
52
42
73
23
61
72
51
18
45
40
68
67
15
78
21
57
3
7
14
79
39
26
37
50
70
44
71
2
69
63
76
9
62
74
58
36
16
4
30
64
22
49
8
60
33
35
24
17
10
34
6
80
25
81
13

> <PUBCHEM_MMFF94_PARTIAL_CHARGES>
45
1 -0.56
10 -0.99
11 -0.99
12 -0.9
13 -0.99
14 -0.99
15 0.28
16 0.28
17 0.28
18 0.27
19 0.27
2 -0.56
21 0.56
22 0.56
23 0.27
24 0.27
25 0.28
26 0.28
27 0.28
28 0.28
29 0.28
3 -0.56
30 0.28
31 0.27
34 0.27
4 -0.68
5 -0.56
52 0.36
53 0.36
54 0.36
55 0.36
56 0.4
6 -0.68
61 0.36
62 0.36
63 0.36
64 0.4
65 0.4
66 0.4
7 -0.68
70 0.4
71 0.36
72 0.36
8 -0.68
9 -0.68

> <PUBCHEM_EFFECTIVE_ROTOR_COUNT>
9.6

> <PUBCHEM_PHARMACOPHORE_FEATURES>
27
1 1 acceptor
1 10 cation
1 10 donor
1 11 cation
1 11 donor
1 12 cation
1 12 donor
1 13 cation
1 13 donor
1 14 cation
1 14 donor
1 2 acceptor
1 3 acceptor
1 4 acceptor
1 4 donor
1 5 acceptor
1 6 acceptor
1 6 donor
1 7 acceptor
1 7 donor
1 8 acceptor
1 8 donor
1 9 acceptor
1 9 donor
6 15 16 17 18 19 20 rings
6 3 21 23 27 28 29 rings
6 5 22 24 25 26 30 rings

> <PUBCHEM_HEAVY_ATOM_COUNT>
34

> <PUBCHEM_ATOM_DEF_STEREO_COUNT>
15

> <PUBCHEM_ATOM_UDEF_STEREO_COUNT>
0

> <PUBCHEM_BOND_DEF_STEREO_COUNT>
0

> <PUBCHEM_BOND_UDEF_STEREO_COUNT>
0

> <PUBCHEM_ISOTOPIC_ATOM_COUNT>
0

> <PUBCHEM_COMPONENT_COUNT>
1

> <PUBCHEM_CACTVS_TAUTO_COUNT>
1

> <PUBCHEM_CONFORMER_ID>
02C08F1D00000001

> <PUBCHEM_MMFF94_ENERGY>
82.113

> <PUBCHEM_FEATURE_SELFOVERLAP>
137.123

> <PUBCHEM_SHAPE_FINGERPRINT>
10165383 225 18411974763129164357
10483366 6 18191570043139831942
107951 10 17988074500791846346
11513181 2 17970065754047323743
11578080 2 17345487066589438109
11763715 3 17188111407100052366
12788726 201 17475814051728748955
13583140 156 17703519869294697355
13944108 23 18123751125924298857
14251751 93 18267023851832179514
14747281 78 17700425951275502589
14790565 3 18409439315302004064
15183329 4 18412825789919954548
20775438 99 16742033007075848821
21033648 144 18201449017001634637
22393880 68 17241058664375991321
22907989 373 17905896872729439551
238 59 18267043759253399317
2838139 119 18261114084259683458
3298306 158 18412545418237817620
340366 18 18270396088729158812
3411729 13 18339917242358570033
3459 83 18041272262204434830
350125 39 18192705653113337619
38695281 34 18334288794759197174
4058900 60 18270952565797275353
469060 322 12965732889343572760
474 4 18336269032939613427
5265222 85 18122886661293254300

> <PUBCHEM_SHAPE_MULTIPOLES>
621.98
12.32
4.66
1.8
0.97
3.24
-0.65
-9.44
-3.77
-2.14
-0.14
1.7
0.1
-1.02

> <PUBCHEM_SHAPE_SELFOVERLAP>
1277.004

> <PUBCHEM_SHAPE_VOLUME>
353.3

> <PUBCHEM_COORDINATE_TYPE>
2
5
10

$$$$

