10028
  -OEChem-06261204152D

 14 13  0     0  0  0  0  0  0999 V2000
    2.5369   -0.5000    0.0000 O   0  0  0  0  0  0  0  0  0  0  0  0
    3.4030   -2.0000    0.0000 O   0  0  0  0  0  0  0  0  0  0  0  0
   10.3312    2.0000    0.0000 N   0  0  0  0  0  0  0  0  0  0  0  0
    4.2690   -0.5000    0.0000 C   0  0  0  0  0  0  0  0  0  0  0  0
    5.1350   -1.0000    0.0000 C   0  0  0  0  0  0  0  0  0  0  0  0
    3.4030   -1.0000    0.0000 C   0  0  0  0  0  0  0  0  0  0  0  0
    6.0010   -0.5000    0.0000 C   0  0  0  0  0  0  0  0  0  0  0  0
    6.8671    0.0000    0.0000 C   0  0  0  0  0  0  0  0  0  0  0  0
    7.7331    0.5000    0.0000 C   0  0  0  0  0  0  0  0  0  0  0  0
    8.5991    1.0000    0.0000 C   0  0  0  0  0  0  0  0  0  0  0  0
    9.4651    1.5000    0.0000 C   0  0  0  0  0  0  0  0  0  0  0  0
    4.2690    0.1200    0.0000 H   0  0  0  0  0  0  0  0  0  0  0  0
    5.1350   -1.6200    0.0000 H   0  0  0  0  0  0  0  0  0  0  0  0
    2.0000   -0.8100    0.0000 H   0  0  0  0  0  0  0  0  0  0  0  0
  1  6  1  0  0  0  0
  1 14  1  0  0  0  0
  2  6  2  0  0  0  0
  3 11  3  0  0  0  0
  4  5  2  3  0  0  0
  4  6  1  0  0  0  0
  4 12  1  0  0  0  0
  5  7  1  0  0  0  0
  5 13  1  0  0  0  0
  7  8  3  0  0  0  0
  8  9  1  0  0  0  0
  9 10  3  0  0  0  0
 10 11  1  0  0  0  0
M  END
> <PUBCHEM_COMPOUND_CID>
10028

> <PUBCHEM_COMPOUND_CANONICALIZED>
1

> <PUBCHEM_CACTVS_COMPLEXITY>
355

> <PUBCHEM_CACTVS_HBOND_ACCEPTOR>
3

> <PUBCHEM_CACTVS_HBOND_DONOR>
1

> <PUBCHEM_CACTVS_ROTATABLE_BOND>
2

> <PUBCHEM_CACTVS_SUBSKEYS>
AAADcQByMAAAAAAAAAAAAAAAAAAAAAAAAAAAAAAAAAAAAAAAAAAAHgAACAAACACBgAAACAAAAgDYFCDSCAAAAAAAAAAICAAAAEAABAAAAAAAEAAAAAAAEYAAAAAAAAAAAAAAAAAAAAAAAAAAAAAAAAAAAA==

> <PUBCHEM_IUPAC_OPENEYE_NAME>
7-cyanohept-2-en-4,6-diynoic acid

> <PUBCHEM_IUPAC_CAS_NAME>
7-cyanohept-2-en-4,6-diynoic acid

> <PUBCHEM_IUPAC_NAME>
7-cyanohept-2-en-4,6-diynoic acid

> <PUBCHEM_IUPAC_SYSTEMATIC_NAME>
7-cyanohept-2-en-4,6-diynoic acid

> <PUBCHEM_IUPAC_TRADITIONAL_NAME>
7-cyanohept-2-en-4,6-diynoic acid

> <PUBCHEM_IUPAC_INCHI>
InChI=1S/C8H3NO2/c9-7-5-3-1-2-4-6-8(10)11/h4,6H,(H,10,11)

> <PUBCHEM_IUPAC_INCHIKEY>
DMGKNZBGIHCAMP-UHFFFAOYSA-N

> <PUBCHEM_XLOGP3_AA>
1

> <PUBCHEM_EXACT_MASS>
145.016378

> <PUBCHEM_MOLECULAR_FORMULA>
C8H3NO2

> <PUBCHEM_MOLECULAR_WEIGHT>
145.11492

> <PUBCHEM_OPENEYE_CAN_SMILES>
C(=CC(=O)O)C#CC#CC#N

> <PUBCHEM_OPENEYE_ISO_SMILES>
C(=CC(=O)O)C#CC#CC#N

> <PUBCHEM_CACTVS_TPSA>
61.1

> <PUBCHEM_MONOISOTOPIC_WEIGHT>
145.016378

> <PUBCHEM_TOTAL_CHARGE>
0

> <PUBCHEM_HEAVY_ATOM_COUNT>
11

> <PUBCHEM_ATOM_DEF_STEREO_COUNT>
0

> <PUBCHEM_ATOM_UDEF_STEREO_COUNT>
0

> <PUBCHEM_BOND_DEF_STEREO_COUNT>
0

> <PUBCHEM_BOND_UDEF_STEREO_COUNT>
1

> <PUBCHEM_ISOTOPIC_ATOM_COUNT>
0

> <PUBCHEM_COMPONENT_COUNT>
1

> <PUBCHEM_CACTVS_TAUTO_COUNT>
1

> <PUBCHEM_COORDINATE_TYPE>
1
5
255

> <PUBCHEM_BONDANNOTATIONS>
4  5  1

$$$$

