10646
  -OEChem-06261204472D

 41 44  0     0  0  0  0  0  0999 V2000
    4.6660   -3.0021    0.0000 S   0  0  0  0  0  0  0  0  0  0  0  0
    5.5321    1.4979    0.0000 N   0  0  0  0  0  0  0  0  0  0  0  0
    4.6660   -1.0021    0.0000 N   0  0  0  0  0  0  0  0  0  0  0  0
    6.3411    2.0857    0.0000 C   0  0  0  0  0  0  0  0  0  0  0  0
    4.7230    2.0857    0.0000 C   0  0  0  0  0  0  0  0  0  0  0  0
    5.0321    3.0368    0.0000 C   0  0  0  0  0  0  0  0  0  0  0  0
    6.0321    3.0368    0.0000 C   0  0  0  0  0  0  0  0  0  0  0  0
    5.5321    0.4979    0.0000 C   0  0  0  0  0  0  0  0  0  0  0  0
    4.6660   -0.0021    0.0000 C   0  0  0  0  0  0  0  0  0  0  0  0
    5.5321   -1.5021    0.0000 C   0  0  0  0  0  0  0  0  0  0  0  0
    3.8000   -1.5021    0.0000 C   0  0  0  0  0  0  0  0  0  0  0  0
    5.5321   -2.5021    0.0000 C   0  0  0  0  0  0  0  0  0  0  0  0
    3.8000   -2.5021    0.0000 C   0  0  0  0  0  0  0  0  0  0  0  0
    2.9061   -0.9674    0.0000 C   0  0  0  0  0  0  0  0  0  0  0  0
    6.4260   -0.9674    0.0000 C   0  0  0  0  0  0  0  0  0  0  0  0
    2.9061   -3.0368    0.0000 C   0  0  0  0  0  0  0  0  0  0  0  0
    6.4260   -3.0368    0.0000 C   0  0  0  0  0  0  0  0  0  0  0  0
    2.0000   -1.4813    0.0000 C   0  0  0  0  0  0  0  0  0  0  0  0
    7.3321   -1.4813    0.0000 C   0  0  0  0  0  0  0  0  0  0  0  0
    2.0000   -2.5229    0.0000 C   0  0  0  0  0  0  0  0  0  0  0  0
    7.3321   -2.5229    0.0000 C   0  0  0  0  0  0  0  0  0  0  0  0
    4.1566    2.3379    0.0000 H   0  0  0  0  0  0  0  0  0  0  0  0
    4.4130    1.5488    0.0000 H   0  0  0  0  0  0  0  0  0  0  0  0
    6.6511    1.5488    0.0000 H   0  0  0  0  0  0  0  0  0  0  0  0
    6.9075    2.3379    0.0000 H   0  0  0  0  0  0  0  0  0  0  0  0
    5.0969    3.6534    0.0000 H   0  0  0  0  0  0  0  0  0  0  0  0
    4.4256    3.1657    0.0000 H   0  0  0  0  0  0  0  0  0  0  0  0
    6.6385    3.1657    0.0000 H   0  0  0  0  0  0  0  0  0  0  0  0
    5.9672    3.6534    0.0000 H   0  0  0  0  0  0  0  0  0  0  0  0
    5.7441   -0.0847    0.0000 H   0  0  0  0  0  0  0  0  0  0  0  0
    6.1426    0.6056    0.0000 H   0  0  0  0  0  0  0  0  0  0  0  0
    4.4540    0.5805    0.0000 H   0  0  0  0  0  0  0  0  0  0  0  0
    4.0555   -0.1098    0.0000 H   0  0  0  0  0  0  0  0  0  0  0  0
    6.4188   -0.3475    0.0000 H   0  0  0  0  0  0  0  0  0  0  0  0
    2.9132   -0.3475    0.0000 H   0  0  0  0  0  0  0  0  0  0  0  0
    6.4188   -3.6567    0.0000 H   0  0  0  0  0  0  0  0  0  0  0  0
    2.9132   -3.6567    0.0000 H   0  0  0  0  0  0  0  0  0  0  0  0
    1.4643   -1.1692    0.0000 H   0  0  0  0  0  0  0  0  0  0  0  0
    7.8678   -1.1692    0.0000 H   0  0  0  0  0  0  0  0  0  0  0  0
    1.4643   -2.8350    0.0000 H   0  0  0  0  0  0  0  0  0  0  0  0
    7.8678   -2.8350    0.0000 H   0  0  0  0  0  0  0  0  0  0  0  0
  1 12  1  0  0  0  0
  1 13  1  0  0  0  0
  2  4  1  0  0  0  0
  2  5  1  0  0  0  0
  2  8  1  0  0  0  0
  3  9  1  0  0  0  0
  3 10  1  0  0  0  0
  3 11  1  0  0  0  0
  4  7  1  0  0  0  0
  4 24  1  0  0  0  0
  4 25  1  0  0  0  0
  5  6  1  0  0  0  0
  5 22  1  0  0  0  0
  5 23  1  0  0  0  0
  6  7  1  0  0  0  0
  6 26  1  0  0  0  0
  6 27  1  0  0  0  0
  7 28  1  0  0  0  0
  7 29  1  0  0  0  0
  8  9  1  0  0  0  0
  8 30  1  0  0  0  0
  8 31  1  0  0  0  0
  9 32  1  0  0  0  0
  9 33  1  0  0  0  0
 10 12  1  0  0  0  0
 10 15  2  0  0  0  0
 11 13  1  0  0  0  0
 11 14  2  0  0  0  0
 12 17  2  0  0  0  0
 13 16  2  0  0  0  0
 14 18  1  0  0  0  0
 14 35  1  0  0  0  0
 15 19  1  0  0  0  0
 15 34  1  0  0  0  0
 16 20  1  0  0  0  0
 16 37  1  0  0  0  0
 17 21  1  0  0  0  0
 17 36  1  0  0  0  0
 18 20  2  0  0  0  0
 18 38  1  0  0  0  0
 19 21  2  0  0  0  0
 19 39  1  0  0  0  0
 20 40  1  0  0  0  0
 21 41  1  0  0  0  0
M  END
> <PUBCHEM_COMPOUND_CID>
10646

> <PUBCHEM_COMPOUND_CANONICALIZED>
1

> <PUBCHEM_CACTVS_COMPLEXITY>
320

> <PUBCHEM_CACTVS_HBOND_ACCEPTOR>
3

> <PUBCHEM_CACTVS_HBOND_DONOR>
0

> <PUBCHEM_CACTVS_ROTATABLE_BOND>
3

> <PUBCHEM_CACTVS_SUBSKEYS>
AAADceB7AABAAAAAAAAAAAAAAAAAAWAAAAA8YIAAAAAAAACxQAAAHAQAAAAACAjBUAQwwYMAAAiAACRCQACCAAAhChAIiBwIZIgIYGLgkZGUIAhggADoyAcQAAAAAAAAAAAAAQAAAAAAAAACAAAAAAAAAA==

> <PUBCHEM_IUPAC_OPENEYE_NAME>
10-(2-pyrrolidin-1-ylethyl)phenothiazine

> <PUBCHEM_IUPAC_CAS_NAME>
10-[2-(1-pyrrolidinyl)ethyl]phenothiazine

> <PUBCHEM_IUPAC_NAME>
10-(2-pyrrolidin-1-ylethyl)phenothiazine

> <PUBCHEM_IUPAC_SYSTEMATIC_NAME>
10-(2-pyrrolidin-1-ylethyl)phenothiazine

> <PUBCHEM_IUPAC_TRADITIONAL_NAME>
10-(2-pyrrolidinoethyl)phenothiazine

> <PUBCHEM_IUPAC_INCHI>
InChI=1S/C18H20N2S/c1-3-9-17-15(7-1)20(14-13-19-11-5-6-12-19)16-8-2-4-10-18(16)21-17/h1-4,7-10H,5-6,11-14H2

> <PUBCHEM_IUPAC_INCHIKEY>
KJKJUXGEMYCCJN-UHFFFAOYSA-N

> <PUBCHEM_XLOGP3>
4.7

> <PUBCHEM_EXACT_MASS>
296.13472

> <PUBCHEM_MOLECULAR_FORMULA>
C18H20N2S

> <PUBCHEM_MOLECULAR_WEIGHT>
296.4298

> <PUBCHEM_OPENEYE_CAN_SMILES>
C1CCN(C1)CCN2C3=CC=CC=C3SC4=CC=CC=C42

> <PUBCHEM_OPENEYE_ISO_SMILES>
C1CCN(C1)CCN2C3=CC=CC=C3SC4=CC=CC=C42

> <PUBCHEM_CACTVS_TPSA>
31.8

> <PUBCHEM_MONOISOTOPIC_WEIGHT>
296.13472

> <PUBCHEM_TOTAL_CHARGE>
0

> <PUBCHEM_HEAVY_ATOM_COUNT>
21

> <PUBCHEM_ATOM_DEF_STEREO_COUNT>
0

> <PUBCHEM_ATOM_UDEF_STEREO_COUNT>
0

> <PUBCHEM_BOND_DEF_STEREO_COUNT>
0

> <PUBCHEM_BOND_UDEF_STEREO_COUNT>
0

> <PUBCHEM_ISOTOPIC_ATOM_COUNT>
0

> <PUBCHEM_COMPONENT_COUNT>
1

> <PUBCHEM_CACTVS_TAUTO_COUNT>
1

> <PUBCHEM_COORDINATE_TYPE>
1
5
255

> <PUBCHEM_BONDANNOTATIONS>
10  12  8
10  15  8
11  13  8
11  14  8
12  17  8
13  16  8
14  18  8
15  19  8
16  20  8
17  21  8
18  20  8
19  21  8

$$$$

