53025
  -OEChem-07051212522D

 53 56  0     1  0  0  0  0  0999 V2000
    7.0468   -1.3724    0.0000 S   0  0  0  0  0  0  0  0  0  0  0  0
    4.4487    0.1277    0.0000 S   0  0  0  0  0  0  0  0  0  0  0  0
   11.4214   -0.7477    0.0000 S   0  0  0  0  0  0  0  0  0  0  0  0
   12.4193   -1.7497    0.0000 S   0  0  0  0  0  0  0  0  0  0  0  0
    8.9190   -1.8765    0.0000 O   0  0  0  0  0  0  0  0  0  0  0  0
    9.6267    0.8404    0.0000 O   0  0  0  0  0  0  0  0  0  0  0  0
    6.1808    2.1276    0.0000 O   0  0  0  0  0  0  0  0  0  0  0  0
    9.9175   -2.6106    0.0000 O   0  0  0  0  0  0  0  0  0  0  0  0
    7.9128    2.1276    0.0000 O   0  0  0  0  0  0  0  0  0  0  0  0
   13.5816    1.6280    0.0000 O   0  0  0  0  0  0  0  0  0  0  0  0
   14.3521   -1.2713    0.0000 O   0  0  0  0  0  0  0  0  0  0  0  0
   11.9077    1.1832    0.0000 O   0  0  0  0  0  0  0  0  0  0  0  0
    7.9128    0.1277    0.0000 N   0  0  0  0  0  0  0  0  0  0  0  0
    9.9211   -0.8785    0.0000 N   0  0  0  0  0  0  0  0  0  0  0  0
    3.4782    1.6222    0.0000 N   0  0  0  0  0  0  0  0  0  0  0  0
    2.6691    0.2209    0.0000 N   0  0  0  0  0  0  0  0  0  0  0  0
    2.5000    1.8301    0.0000 N   0  0  0  0  0  0  0  0  0  0  0  0
    2.0000    0.9641    0.0000 N   0  0  0  0  0  0  0  0  0  0  0  0
   14.8039    0.4008    0.0000 N   0  0  0  0  0  0  0  0  0  0  0  0
    8.9211   -0.8765    0.0000 C   0  0  2  0  0  0  0  0  0  0  0  0
    7.9128   -0.8723    0.0000 C   0  0  1  0  0  0  0  0  0  0  0  0
    8.9211    0.1318    0.0000 C   0  0  0  0  0  0  0  0  0  0  0  0
    7.0468    0.6277    0.0000 C   0  0  0  0  0  0  0  0  0  0  0  0
    6.1808    0.1277    0.0000 C   0  0  0  0  0  0  0  0  0  0  0  0
    6.1808   -0.8723    0.0000 C   0  0  0  0  0  0  0  0  0  0  0  0
   10.4193   -1.7456    0.0000 C   0  0  0  0  0  0  0  0  0  0  0  0
    5.3147    0.6277    0.0000 C   0  0  0  0  0  0  0  0  0  0  0  0
    7.0468    1.6276    0.0000 C   0  0  0  0  0  0  0  0  0  0  0  0
    8.0520   -2.3747    0.0000 C   0  0  0  0  0  0  0  0  0  0  0  0
   11.4193   -1.7476    0.0000 C   0  0  0  0  0  0  0  0  0  0  0  0
   12.4214   -0.7497    0.0000 C   0  0  0  0  0  0  0  0  0  0  0  0
    3.5827    0.6277    0.0000 C   0  0  0  0  0  0  0  0  0  0  0  0
   13.1299   -0.0441    0.0000 C   0  0  0  0  0  0  0  0  0  0  0  0
   14.0953   -0.3049    0.0000 C   0  0  0  0  0  0  0  0  0  0  0  0
   12.8731    0.9224    0.0000 C   0  0  0  0  0  0  0  0  0  0  0  0
    4.2213    2.2913    0.0000 C   0  0  0  0  0  0  0  0  0  0  0  0
    8.1311   -1.6938    0.0000 H   0  0  0  0  0  0  0  0  0  0  0  0
   10.2322   -0.3422    0.0000 H   0  0  0  0  0  0  0  0  0  0  0  0
    5.5702   -0.7647    0.0000 H   0  0  0  0  0  0  0  0  0  0  0  0
    5.9687   -1.4550    0.0000 H   0  0  0  0  0  0  0  0  0  0  0  0
    5.7133    1.1026    0.0000 H   0  0  0  0  0  0  0  0  0  0  0  0
    4.9162    1.1026    0.0000 H   0  0  0  0  0  0  0  0  0  0  0  0
    7.7431   -1.8371    0.0000 H   0  0  0  0  0  0  0  0  0  0  0  0
    7.5144   -2.6836    0.0000 H   0  0  0  0  0  0  0  0  0  0  0  0
    8.3609   -2.9123    0.0000 H   0  0  0  0  0  0  0  0  0  0  0  0
   11.4172   -2.7476    0.0000 H   0  0  0  0  0  0  0  0  0  0  0  0
    6.1808    2.7476    0.0000 H   0  0  0  0  0  0  0  0  0  0  0  0
    4.6362    1.8306    0.0000 H   0  0  0  0  0  0  0  0  0  0  0  0
    4.6820    2.7062    0.0000 H   0  0  0  0  0  0  0  0  0  0  0  0
    3.8064    2.7520    0.0000 H   0  0  0  0  0  0  0  0  0  0  0  0
   15.4024    0.2391    0.0000 H   0  0  0  0  0  0  0  0  0  0  0  0
   14.6446    1.0000    0.0000 H   0  0  0  0  0  0  0  0  0  0  0  0
   13.4224    2.2272    0.0000 H   0  0  0  0  0  0  0  0  0  0  0  0
  1 21  1  0  0  0  0
  1 25  1  0  0  0  0
  2 27  1  0  0  0  0
  2 32  1  0  0  0  0
  3 30  1  0  0  0  0
  3 31  1  0  0  0  0
  4 30  1  0  0  0  0
  4 31  1  0  0  0  0
 20  5  1  6  0  0  0
  5 29  1  0  0  0  0
  6 22  2  0  0  0  0
  7 28  1  0  0  0  0
  7 47  1  0  0  0  0
  8 26  2  0  0  0  0
  9 28  2  0  0  0  0
 10 35  1  0  0  0  0
 10 53  1  0  0  0  0
 11 34  2  0  0  0  0
 12 35  2  0  0  0  0
 13 21  1  0  0  0  0
 13 22  1  0  0  0  0
 13 23  1  0  0  0  0
 14 20  1  0  0  0  0
 14 26  1  0  0  0  0
 14 38  1  0  0  0  0
 15 17  1  0  0  0  0
 15 32  1  0  0  0  0
 15 36  1  0  0  0  0
 16 18  1  0  0  0  0
 16 32  2  0  0  0  0
 17 18  2  0  0  0  0
 19 34  1  0  0  0  0
 19 51  1  0  0  0  0
 19 52  1  0  0  0  0
 20 21  1  0  0  0  0
 20 22  1  0  0  0  0
 21 37  1  6  0  0  0
 23 24  2  0  0  0  0
 23 28  1  0  0  0  0
 24 25  1  0  0  0  0
 24 27  1  0  0  0  0
 25 39  1  0  0  0  0
 25 40  1  0  0  0  0
 26 30  1  0  0  0  0
 27 41  1  0  0  0  0
 27 42  1  0  0  0  0
 29 43  1  0  0  0  0
 29 44  1  0  0  0  0
 29 45  1  0  0  0  0
 30 46  1  0  0  0  0
 31 33  2  0  0  0  0
 33 34  1  0  0  0  0
 33 35  1  0  0  0  0
 36 48  1  0  0  0  0
 36 49  1  0  0  0  0
 36 50  1  0  0  0  0
M  END
> <PUBCHEM_COMPOUND_CID>
53025

> <PUBCHEM_COMPOUND_CANONICALIZED>
1

> <PUBCHEM_CACTVS_COMPLEXITY>
1090

> <PUBCHEM_CACTVS_HBOND_ACCEPTOR>
15

> <PUBCHEM_CACTVS_HBOND_DONOR>
4

> <PUBCHEM_CACTVS_ROTATABLE_BOND>
9

> <PUBCHEM_CACTVS_SUBSKEYS>
AAADceB7vABwAAAAAAAAAAAAAABYkWAAAAAgAAAAAAAQAAABgAAAHgQYCAAADAzFwAaDGAfIBgiqAgXQfAKAEQNAgJAFSAHIAEGCRAwoACQVUAACNgCwEQAAAAAAAAAAAAAAAAAAAAAAAAAAAAAAAAAAAA==

> <PUBCHEM_IUPAC_OPENEYE_NAME>
(6R,7S)-7-[[4-(2-amino-1-carboxy-2-oxo-ethylidene)-1,3-dithietane-2-carbonyl]amino]-7-methoxy-3-[(1-methyltetrazol-5-yl)sulfanylmethyl]-8-oxo-5-thia-1-azabicyclo[4.2.0]oct-2-ene-2-carboxylic acid

> <PUBCHEM_IUPAC_CAS_NAME>
(6R,7S)-7-[[[4-(2-amino-1-carboxy-2-oxoethylidene)-1,3-dithietan-2-yl]-oxomethyl]amino]-7-methoxy-3-[[(1-methyl-5-tetrazolyl)thio]methyl]-8-oxo-5-thia-1-azabicyclo[4.2.0]oct-2-ene-2-carboxylic acid

> <PUBCHEM_IUPAC_NAME>
(6R,7S)-7-[[4-(2-amino-1-carboxy-2-oxoethylidene)-1,3-dithietane-2-carbonyl]amino]-7-methoxy-3-[(1-methyltetrazol-5-yl)sulfanylmethyl]-8-oxo-5-thia-1-azabicyclo[4.2.0]oct-2-ene-2-carboxylic acid

> <PUBCHEM_IUPAC_SYSTEMATIC_NAME>
(6R,7S)-7-[[4-[1-azanyl-3-oxidanyl-1,3-bis(oxidanylidene)propan-2-ylidene]-1,3-dithietan-2-yl]carbonylamino]-7-methoxy-3-[(1-methyl-1,2,3,4-tetrazol-5-yl)sulfanylmethyl]-8-oxidanylidene-5-thia-1-azabicyclo[4.2.0]oct-2-ene-2-carboxylic acid

> <PUBCHEM_IUPAC_TRADITIONAL_NAME>
(6R,7S)-7-[[4-(2-amino-1-carboxy-2-keto-ethylidene)-1,3-dithietane-2-carbonyl]amino]-8-keto-7-methoxy-3-[[(1-methyltetrazol-5-yl)thio]methyl]-5-thia-1-azabicyclo[4.2.0]oct-2-ene-2-carboxylic acid

> <PUBCHEM_IUPAC_INCHI>
InChI=1S/C17H17N7O8S4/c1-23-16(20-21-22-23)34-4-5-3-33-15-17(32-2,14(31)24(15)7(5)11(29)30)19-9(26)13-35-12(36-13)6(8(18)25)10(27)28/h13,15H,3-4H2,1-2H3,(H2,18,25)(H,19,26)(H,27,28)(H,29,30)/t13?,15-,17+/m1/s1

> <PUBCHEM_IUPAC_INCHIKEY>
SRZNHPXWXCNNDU-RHBCBLIFSA-N

> <PUBCHEM_XLOGP3>
0.1

> <PUBCHEM_EXACT_MASS>
575.002145

> <PUBCHEM_MOLECULAR_FORMULA>
C17H17N7O8S4

> <PUBCHEM_MOLECULAR_WEIGHT>
575.61898

> <PUBCHEM_OPENEYE_CAN_SMILES>
CN1C(=NN=N1)SCC2=C(N3C(C(C3=O)(NC(=O)C4SC(=C(C(=O)N)C(=O)O)S4)OC)SC2)C(=O)O

> <PUBCHEM_OPENEYE_ISO_SMILES>
CN1C(=NN=N1)SCC2=C(N3[C@@H]([C@@](C3=O)(NC(=O)C4SC(=C(C(=O)N)C(=O)O)S4)OC)SC2)C(=O)O

> <PUBCHEM_CACTVS_TPSA>
321

> <PUBCHEM_MONOISOTOPIC_WEIGHT>
575.002145

> <PUBCHEM_TOTAL_CHARGE>
0

> <PUBCHEM_HEAVY_ATOM_COUNT>
36

> <PUBCHEM_ATOM_DEF_STEREO_COUNT>
2

> <PUBCHEM_ATOM_UDEF_STEREO_COUNT>
0

> <PUBCHEM_BOND_DEF_STEREO_COUNT>
0

> <PUBCHEM_BOND_UDEF_STEREO_COUNT>
0

> <PUBCHEM_ISOTOPIC_ATOM_COUNT>
0

> <PUBCHEM_COMPONENT_COUNT>
1

> <PUBCHEM_CACTVS_TAUTO_COUNT>
4

> <PUBCHEM_COORDINATE_TYPE>
1
5
255

> <PUBCHEM_BONDANNOTATIONS>
15  17  8
15  32  8
16  18  8
16  32  8
17  18  8
21  37  6
20  5  6

$$$$

