440717
  -OEChem-07051212503D

 14 13  0     0  0  0  0  0  0999 V2000
   -1.8969   -0.0285   -0.0067 S   0  0  0  0  0  0  0  0  0  0  0  0
   -2.7995    1.3200    0.1642 O   0  0  0  0  0  0  0  0  0  0  0  0
   -2.0103   -0.8206    1.2058 O   0  0  0  0  0  0  0  0  0  0  0  0
   -2.1657   -0.6043   -1.3134 O   0  0  0  0  0  0  0  0  0  0  0  0
    0.6853   -1.4669    0.0013 O   0  0  0  0  0  0  0  0  0  0  0  0
    3.0871   -0.6983    0.0110 O   0  0  0  0  0  0  0  0  0  0  0  0
    2.4182    1.4964    0.0120 O   0  0  0  0  0  0  0  0  0  0  0  0
   -0.3177    0.7505   -0.0395 C   0  0  0  0  0  0  0  0  0  0  0  0
    0.8016   -0.2509   -0.0192 C   0  0  0  0  0  0  0  0  0  0  0  0
    2.1979    0.3026   -0.0155 C   0  0  0  0  0  0  0  0  0  0  0  0
   -0.2423    1.3809    0.8511 H   0  0  0  0  0  0  0  0  0  0  0  0
   -0.2575    1.3551   -0.9479 H   0  0  0  0  0  0  0  0  0  0  0  0
   -2.7452    1.7579    1.0461 H   0  0  0  0  0  0  0  0  0  0  0  0
    4.0121   -0.3733    0.0387 H   0  0  0  0  0  0  0  0  0  0  0  0
  1  2  1  0  0  0  0
  1  3  2  0  0  0  0
  1  4  2  0  0  0  0
  1  8  1  0  0  0  0
  2 13  1  0  0  0  0
  5  9  2  0  0  0  0
  6 10  1  0  0  0  0
  6 14  1  0  0  0  0
  7 10  2  0  0  0  0
  8  9  1  0  0  0  0
  8 11  1  0  0  0  0
  8 12  1  0  0  0  0
  9 10  1  0  0  0  0
M  END
> <PUBCHEM_COMPOUND_CID>
440717

> <PUBCHEM_CONFORMER_RMSD>
0.6

> <PUBCHEM_CONFORMER_DIVERSEORDER>
1
3
2

> <PUBCHEM_MMFF94_PARTIAL_CHARGES>
12
1 1.38
10 0.72
13 0.5
14 0.5
2 -0.68
3 -0.65
4 -0.65
5 -0.57
6 -0.65
7 -0.57
8 0.17
9 0.51

> <PUBCHEM_EFFECTIVE_ROTOR_COUNT>
3

> <PUBCHEM_PHARMACOPHORE_FEATURES>
8
1 2 acceptor
1 3 acceptor
1 4 acceptor
1 5 acceptor
1 6 acceptor
1 7 acceptor
3 6 7 10 anion
4 1 2 3 4 anion

> <PUBCHEM_HEAVY_ATOM_COUNT>
10

> <PUBCHEM_ATOM_DEF_STEREO_COUNT>
0

> <PUBCHEM_ATOM_UDEF_STEREO_COUNT>
0

> <PUBCHEM_BOND_DEF_STEREO_COUNT>
0

> <PUBCHEM_BOND_UDEF_STEREO_COUNT>
0

> <PUBCHEM_ISOTOPIC_ATOM_COUNT>
0

> <PUBCHEM_COMPONENT_COUNT>
1

> <PUBCHEM_CACTVS_TAUTO_COUNT>
2

> <PUBCHEM_CONFORMER_ID>
0006B98D00000001

> <PUBCHEM_MMFF94_ENERGY>
10.4622

> <PUBCHEM_FEATURE_SELFOVERLAP>
40.72

> <PUBCHEM_SHAPE_FINGERPRINT>
10857977 72 17845371055132455225
12897270 3 18412268332580455605
12932741 1 17846783983561644382
12932764 1 17894907387011418336
14325111 11 18410573963966888424
14390081 3 18409168805117817289
15775835 57 18041277681851820912
19973954 147 18272082764766180444
21040471 1 18338797793524208716
23235685 24 18130788988088545481
23552423 10 18335704970057068446
29004967 10 18343013389386741888
3248919 1 18202289069596452008
369184 2 18411135818671870889
5084963 1 17895200973779942970

> <PUBCHEM_SHAPE_MULTIPOLES>
174.43
4.46
1.29
0.83
0.81
0.14
-0.05
0.53
0.01
0.12
0.05
-0.58
-0.18
-0.02

> <PUBCHEM_SHAPE_SELFOVERLAP>
330.183

> <PUBCHEM_SHAPE_VOLUME>
107

> <PUBCHEM_COORDINATE_TYPE>
2
5
10

$$$$

