126540
  -OEChem-07051212593D

 48 51  0     1  0  0  0  0  0999 V2000
    0.0689   -0.4567    0.0195 O   0  0  0  0  0  0  0  0  0  0  0  0
   -2.9941    2.0695    0.0721 O   0  0  0  0  0  0  0  0  0  0  0  0
   -1.0188    2.1661   -2.1354 O   0  0  0  0  0  0  0  0  0  0  0  0
    4.5856    1.0956    0.7233 O   0  0  0  0  0  0  0  0  0  0  0  0
   -6.1190   -1.3469    1.0783 O   0  0  0  0  0  0  0  0  0  0  0  0
   -0.7600    1.6559   -0.8374 C   0  0  1  0  0  0  0  0  0  0  0  0
   -0.9754    0.1313   -0.8024 C   0  0  2  0  0  0  0  0  0  0  0  0
    0.6919    1.6991   -0.5218 C   0  0  0  0  0  0  0  0  0  0  0  0
   -1.6038    2.3848    0.2031 C   0  0  0  0  0  0  0  0  0  0  0  0
    1.0849    0.4648   -0.0227 C   0  0  0  0  0  0  0  0  0  0  0  0
   -2.3258   -0.2504   -0.2556 C   0  0  0  0  0  0  0  0  0  0  0  0
   -3.2534    0.7246    0.1323 C   0  0  0  0  0  0  0  0  0  0  0  0
    2.3743    0.2261    0.4110 C   0  0  0  0  0  0  0  0  0  0  0  0
    1.5949    2.7441   -0.6129 C   0  0  0  0  0  0  0  0  0  0  0  0
   -2.6909   -1.6021   -0.1728 C   0  0  0  0  0  0  0  0  0  0  0  0
    3.2953    1.2708    0.3172 C   0  0  0  0  0  0  0  0  0  0  0  0
    2.9089    2.5211   -0.1932 C   0  0  0  0  0  0  0  0  0  0  0  0
    2.7656   -1.1039    0.9559 C   0  0  0  0  0  0  0  0  0  0  0  0
   -4.5298    0.3577    0.5662 C   0  0  0  0  0  0  0  0  0  0  0  0
   -3.9587   -1.9689    0.2806 C   0  0  0  0  0  0  0  0  0  0  0  0
   -4.8790   -0.9891    0.6459 C   0  0  0  0  0  0  0  0  0  0  0  0
    3.2727   -2.0507   -0.1053 C   0  0  0  0  0  0  0  0  0  0  0  0
    2.7532   -3.2359   -0.4785 C   0  0  0  0  0  0  0  0  0  0  0  0
    4.8812    1.3961    2.0851 C   0  0  0  0  0  0  0  0  0  0  0  0
    3.3129   -4.1306   -1.5478 C   0  0  0  0  0  0  0  0  0  0  0  0
    1.5183   -3.7724    0.1956 C   0  0  0  0  0  0  0  0  0  0  0  0
   -0.8805   -0.2949   -1.8125 H   0  0  0  0  0  0  0  0  0  0  0  0
   -1.2897    2.1603    1.2317 H   0  0  0  0  0  0  0  0  0  0  0  0
   -1.5148    3.4695    0.0707 H   0  0  0  0  0  0  0  0  0  0  0  0
    1.2950    3.7152   -0.9918 H   0  0  0  0  0  0  0  0  0  0  0  0
   -1.9626    2.0284   -2.3254 H   0  0  0  0  0  0  0  0  0  0  0  0
   -1.9903   -2.3781   -0.4719 H   0  0  0  0  0  0  0  0  0  0  0  0
    3.6333    3.3292   -0.2583 H   0  0  0  0  0  0  0  0  0  0  0  0
    3.5663   -0.9975    1.6969 H   0  0  0  0  0  0  0  0  0  0  0  0
    1.9411   -1.5127    1.5463 H   0  0  0  0  0  0  0  0  0  0  0  0
   -5.2451    1.1267    0.8483 H   0  0  0  0  0  0  0  0  0  0  0  0
   -4.2250   -3.0209    0.3374 H   0  0  0  0  0  0  0  0  0  0  0  0
    4.1761   -1.7200   -0.6175 H   0  0  0  0  0  0  0  0  0  0  0  0
    5.8446    0.9436    2.3351 H   0  0  0  0  0  0  0  0  0  0  0  0
    4.1201    1.0005    2.7653 H   0  0  0  0  0  0  0  0  0  0  0  0
    4.9601    2.4801    2.2135 H   0  0  0  0  0  0  0  0  0  0  0  0
   -6.6242   -0.5426    1.2879 H   0  0  0  0  0  0  0  0  0  0  0  0
    4.2225   -3.7097   -1.9889 H   0  0  0  0  0  0  0  0  0  0  0  0
    3.5657   -5.1109   -1.1313 H   0  0  0  0  0  0  0  0  0  0  0  0
    2.5838   -4.2679   -2.3526 H   0  0  0  0  0  0  0  0  0  0  0  0
    0.9220   -3.0307    0.7273 H   0  0  0  0  0  0  0  0  0  0  0  0
    0.8465   -4.2065   -0.5543 H   0  0  0  0  0  0  0  0  0  0  0  0
    1.7919   -4.5652    0.8995 H   0  0  0  0  0  0  0  0  0  0  0  0
  1  7  1  0  0  0  0
  1 10  1  0  0  0  0
  2  9  1  0  0  0  0
  2 12  1  0  0  0  0
  3  6  1  0  0  0  0
  3 31  1  0  0  0  0
  4 16  1  0  0  0  0
  4 24  1  0  0  0  0
  5 21  1  0  0  0  0
  5 42  1  0  0  0  0
  6  7  1  0  0  0  0
  6  8  1  0  0  0  0
  6  9  1  0  0  0  0
  7 11  1  0  0  0  0
  7 27  1  0  0  0  0
  8 10  2  0  0  0  0
  8 14  1  0  0  0  0
  9 28  1  0  0  0  0
  9 29  1  0  0  0  0
 10 13  1  0  0  0  0
 11 12  2  0  0  0  0
 11 15  1  0  0  0  0
 12 19  1  0  0  0  0
 13 16  2  0  0  0  0
 13 18  1  0  0  0  0
 14 17  2  0  0  0  0
 14 30  1  0  0  0  0
 15 20  2  0  0  0  0
 15 32  1  0  0  0  0
 16 17  1  0  0  0  0
 17 33  1  0  0  0  0
 18 22  1  0  0  0  0
 18 34  1  0  0  0  0
 18 35  1  0  0  0  0
 19 21  2  0  0  0  0
 19 36  1  0  0  0  0
 20 21  1  0  0  0  0
 20 37  1  0  0  0  0
 22 23  2  0  0  0  0
 22 38  1  0  0  0  0
 23 25  1  0  0  0  0
 23 26  1  0  0  0  0
 24 39  1  0  0  0  0
 24 40  1  0  0  0  0
 24 41  1  0  0  0  0
 25 43  1  0  0  0  0
 25 44  1  0  0  0  0
 25 45  1  0  0  0  0
 26 46  1  0  0  0  0
 26 47  1  0  0  0  0
 26 48  1  0  0  0  0
M  END
> <PUBCHEM_COMPOUND_CID>
126540

> <PUBCHEM_CONFORMER_RMSD>
0.8

> <PUBCHEM_CONFORMER_DIVERSEORDER>
3
11
4
12
9
8
15
2
10
1
7
6
13
5
14

> <PUBCHEM_MMFF94_PARTIAL_CHARGES>
34
1 -0.36
10 0.08
11 -0.14
12 0.08
13 -0.14
14 -0.15
15 -0.15
16 0.08
17 -0.15
18 0.28
19 -0.15
2 -0.36
20 -0.15
21 0.08
22 -0.29
23 -0.28
24 0.28
25 0.14
26 0.14
3 -0.68
30 0.15
31 0.4
32 0.15
33 0.15
36 0.15
37 0.15
38 0.15
4 -0.36
42 0.45
5 -0.53
6 0.42
7 0.42
8 -0.14
9 0.28

> <PUBCHEM_EFFECTIVE_ROTOR_COUNT>
3.6

> <PUBCHEM_PHARMACOPHORE_FEATURES>
11
1 1 acceptor
1 2 acceptor
1 3 acceptor
1 3 donor
1 4 acceptor
1 5 donor
3 23 25 26 hydrophobe
5 1 6 7 8 10 rings
6 11 12 15 19 20 21 rings
6 2 6 7 9 11 12 rings
6 8 10 13 14 16 17 rings

> <PUBCHEM_HEAVY_ATOM_COUNT>
26

> <PUBCHEM_ATOM_DEF_STEREO_COUNT>
2

> <PUBCHEM_ATOM_UDEF_STEREO_COUNT>
0

> <PUBCHEM_BOND_DEF_STEREO_COUNT>
0

> <PUBCHEM_BOND_UDEF_STEREO_COUNT>
0

> <PUBCHEM_ISOTOPIC_ATOM_COUNT>
0

> <PUBCHEM_COMPONENT_COUNT>
1

> <PUBCHEM_CACTVS_TAUTO_COUNT>
3

> <PUBCHEM_CONFORMER_ID>
0001EE4C00000003

> <PUBCHEM_MMFF94_ENERGY>
89.3947

> <PUBCHEM_FEATURE_SELFOVERLAP>
56.095

> <PUBCHEM_SHAPE_FINGERPRINT>
10616163 171 18267866073307295811
10906281 52 17988066786856294560
114674 6 18343579659461471642
11513181 2 17968089785788009135
12107183 9 17974273624302940833
12422481 6 18191895451252838466
12553582 1 18341900657902421934
12596602 18 17023180462265193603
12623949 98 18262784242517903279
12839892 36 18338249158691465098
12892183 10 18259984890118576529
13140716 1 17909274585450861688
13533116 47 18187652444254341753
13540713 4 18268439107859551244
13583140 156 17894927216981400009
14178342 30 18339371854621874256
14223421 5 18340492256479577644
14790565 3 18051967026713372308
14863182 85 18341325609622200798
15664445 248 17845069814922360916
17492 89 18410570717198829947
17974551 9 16520200342776303114
1813 80 17418369203647424157
18681886 176 18125720094057815308
1979834 28 18337670819580325298
20028762 73 18118124662825988750
20739085 24 18058167219826347652
21197605 99 17909821047041678171
21267235 1 18271238326929930769
21279426 13 18270967972667814253
21421861 104 18411975862677507835
22182313 1 18270132338728784652
23559900 14 18338518654688031725
2748010 2 18125740104024974380
2818148 4 18049137141771060804
3117164 225 18047454897797488337
3421961 26 18336543927778993802
392239 28 17969510307397059096
465052 167 17631738162349029168
5104073 3 18336830900144792329
6287921 2 18408603664894767678
6371380 46 17472705100907721152
6442390 28 18117563929565750264
6823239 73 18264768942763326562
7097593 13 18408601491604158753
9709674 26 18342171172423663339

> <PUBCHEM_SHAPE_MULTIPOLES>
505.72
9.89
4.39
1.24
7.51
3.72
-0.04
2.98
4.32
-4.49
-1.34
-0.78
-0.2
1.97

> <PUBCHEM_SHAPE_SELFOVERLAP>
1114.489

> <PUBCHEM_SHAPE_VOLUME>
273

> <PUBCHEM_COORDINATE_TYPE>
2
5
10

$$$$

