440474
  -OEChem-07051212493D

 22 22  0     0  0  0  0  0  0999 V2000
    2.0958    1.7295   -0.3783 O   0  0  0  0  0  0  0  0  0  0  0  0
   -0.9929    2.5619    0.7494 O   0  0  0  0  0  0  0  0  0  0  0  0
   -2.6664   -1.7965   -0.4541 O   0  0  0  0  0  0  0  0  0  0  0  0
   -2.9336    0.3380    0.2803 O   0  0  0  0  0  0  0  0  0  0  0  0
    1.3340   -1.7765    0.2819 N   0  0  0  0  0  0  0  0  0  0  0  0
   -0.0180    0.6191   -0.2155 C   0  0  0  0  0  0  0  0  0  0  0  0
    1.3718    0.5968   -0.1771 C   0  0  0  0  0  0  0  0  0  0  0  0
   -0.7326   -0.5551   -0.0055 C   0  0  0  0  0  0  0  0  0  0  0  0
    1.9944   -0.6154    0.0732 C   0  0  0  0  0  0  0  0  0  0  0  0
   -0.7350    1.9037   -0.4833 C   0  0  0  0  0  0  0  0  0  0  0  0
   -0.0159   -1.7159    0.2371 C   0  0  0  0  0  0  0  0  0  0  0  0
    3.4849   -0.6955    0.1254 C   0  0  0  0  0  0  0  0  0  0  0  0
   -2.1865   -0.5942   -0.0335 C   0  0  0  0  0  0  0  0  0  0  0  0
   -0.1176    2.5701   -1.0972 H   0  0  0  0  0  0  0  0  0  0  0  0
   -1.6609    1.7775   -1.0516 H   0  0  0  0  0  0  0  0  0  0  0  0
   -0.5018   -2.6690    0.4222 H   0  0  0  0  0  0  0  0  0  0  0  0
    3.8805   -0.0601    0.9242 H   0  0  0  0  0  0  0  0  0  0  0  0
    3.8108   -1.7209    0.3321 H   0  0  0  0  0  0  0  0  0  0  0  0
    3.9237   -0.4008   -0.8333 H   0  0  0  0  0  0  0  0  0  0  0  0
    3.0478    1.5546   -0.3217 H   0  0  0  0  0  0  0  0  0  0  0  0
   -1.4402    3.3991    0.5380 H   0  0  0  0  0  0  0  0  0  0  0  0
   -3.6472   -1.8125   -0.4699 H   0  0  0  0  0  0  0  0  0  0  0  0
  1  7  1  0  0  0  0
  1 20  1  0  0  0  0
  2 10  1  0  0  0  0
  2 21  1  0  0  0  0
  3 13  1  0  0  0  0
  3 22  1  0  0  0  0
  4 13  2  0  0  0  0
  5  9  2  0  0  0  0
  5 11  1  0  0  0  0
  6  7  2  0  0  0  0
  6  8  1  0  0  0  0
  6 10  1  0  0  0  0
  7  9  1  0  0  0  0
  8 11  2  0  0  0  0
  8 13  1  0  0  0  0
  9 12  1  0  0  0  0
 10 14  1  0  0  0  0
 10 15  1  0  0  0  0
 11 16  1  0  0  0  0
 12 17  1  0  0  0  0
 12 18  1  0  0  0  0
 12 19  1  0  0  0  0
M  END
> <PUBCHEM_COMPOUND_CID>
440474

> <PUBCHEM_CONFORMER_RMSD>
0.6

> <PUBCHEM_CONFORMER_DIVERSEORDER>
2
4
1
3

> <PUBCHEM_MMFF94_PARTIAL_CHARGES>
17
1 -0.53
10 0.42
11 0.16
12 0.14
13 0.63
16 0.15
2 -0.68
20 0.45
21 0.4
22 0.5
3 -0.65
4 -0.57
5 -0.62
6 -0.14
7 0.08
8 0.09
9 0.17

> <PUBCHEM_EFFECTIVE_ROTOR_COUNT>
2

> <PUBCHEM_PHARMACOPHORE_FEATURES>
8
1 1 donor
1 2 acceptor
1 2 donor
1 3 acceptor
1 4 acceptor
1 5 acceptor
3 3 4 13 anion
6 5 6 7 8 9 11 rings

> <PUBCHEM_HEAVY_ATOM_COUNT>
13

> <PUBCHEM_ATOM_DEF_STEREO_COUNT>
0

> <PUBCHEM_ATOM_UDEF_STEREO_COUNT>
0

> <PUBCHEM_BOND_DEF_STEREO_COUNT>
0

> <PUBCHEM_BOND_UDEF_STEREO_COUNT>
0

> <PUBCHEM_ISOTOPIC_ATOM_COUNT>
0

> <PUBCHEM_COMPONENT_COUNT>
1

> <PUBCHEM_CACTVS_TAUTO_COUNT>
3

> <PUBCHEM_CONFORMER_ID>
0006B89A00000002

> <PUBCHEM_MMFF94_ENERGY>
39.2885

> <PUBCHEM_FEATURE_SELFOVERLAP>
40.654

> <PUBCHEM_SHAPE_FINGERPRINT>
11206711 2 18271242823982015294
12423570 1 7466957840215850104
13380535 21 17905035203553157902
16945 1 18338516455553999894
193761 8 17907581685099145478
2334 1 18195807358214104394
23552423 10 18272088283746096598
2748010 2 18196367009827821246
5084963 1 18260548939556991898
528886 8 18411425011583772579
53812654 25 18190471454249438246

> <PUBCHEM_SHAPE_MULTIPOLES>
239.08
4.04
2.34
0.68
0.88
0.82
0.01
-1.03
0.04
-0.58
0.11
-0.07
0.11
-0.39

> <PUBCHEM_SHAPE_SELFOVERLAP>
504.94

> <PUBCHEM_SHAPE_VOLUME>
133.5

> <PUBCHEM_COORDINATE_TYPE>
2
5
10

$$$$

