3035162
  -OEChem-07051213072D

 20 19  0     0  0  0  0  0  0999 V2000
    2.2020    0.0000    0.0000 Cl  0  0  0  0  0  0  0  0  0  0  0  0
    1.4030    4.6200    0.0000 S   0  0  0  0  0  0  0  0  0  0  0  0
    4.0010    3.1200    0.0000 N   0  0  0  0  0  0  0  0  0  0  0  0
    0.5369    3.1200    0.0000 N   0  0  0  0  0  0  0  0  0  0  0  0
    2.2690    3.1200    0.0000 C   0  0  0  0  0  0  0  0  0  0  0  0
    3.1350    3.6200    0.0000 C   0  0  0  0  0  0  0  0  0  0  0  0
    3.1350    4.6200    0.0000 C   0  0  0  0  0  0  0  0  0  0  0  0
    1.4030    3.6200    0.0000 C   0  0  0  0  0  0  0  0  0  0  0  0
    4.0010    5.1200    0.0000 C   0  0  0  0  0  0  0  0  0  0  0  0
    4.8671    4.6200    0.0000 C   0  0  0  0  0  0  0  0  0  0  0  0
    4.8671    3.6200    0.0000 C   0  0  0  0  0  0  0  0  0  0  0  0
    1.8705    2.6450    0.0000 H   0  0  0  0  0  0  0  0  0  0  0  0
    2.6675    2.6450    0.0000 H   0  0  0  0  0  0  0  0  0  0  0  0
    2.5981    4.9300    0.0000 H   0  0  0  0  0  0  0  0  0  0  0  0
    4.0010    5.7400    0.0000 H   0  0  0  0  0  0  0  0  0  0  0  0
    5.4040    4.9300    0.0000 H   0  0  0  0  0  0  0  0  0  0  0  0
    5.4040    3.3100    0.0000 H   0  0  0  0  0  0  0  0  0  0  0  0
    0.0000    3.4300    0.0000 H   0  0  0  0  0  0  0  0  0  0  0  0
    0.5369    2.5000    0.0000 H   0  0  0  0  0  0  0  0  0  0  0  0
    3.2020    0.0000    0.0000 H   0  0  0  0  0  0  0  0  0  0  0  0
  1 20  1  0  0  0  0
  2  8  2  0  0  0  0
  3  6  1  0  0  0  0
  3 11  2  0  0  0  0
  4  8  1  0  0  0  0
  4 18  1  0  0  0  0
  4 19  1  0  0  0  0
  5  6  1  0  0  0  0
  5  8  1  0  0  0  0
  5 12  1  0  0  0  0
  5 13  1  0  0  0  0
  6  7  2  0  0  0  0
  7  9  1  0  0  0  0
  7 14  1  0  0  0  0
  9 10  2  0  0  0  0
  9 15  1  0  0  0  0
 10 11  1  0  0  0  0
 10 16  1  0  0  0  0
 11 17  1  0  0  0  0
M  END
> <PUBCHEM_COMPOUND_CID>
3035162

> <PUBCHEM_COMPOUND_CANONICALIZED>
1

> <PUBCHEM_CACTVS_COMPLEXITY>
125

> <PUBCHEM_CACTVS_HBOND_ACCEPTOR>
2

> <PUBCHEM_CACTVS_HBOND_DONOR>
2

> <PUBCHEM_CACTVS_ROTATABLE_BOND>
2

> <PUBCHEM_CACTVS_SUBSKEYS>
AAADccBjAABEAAAAAAAAAAAAAAAAAAAAAAAsAAAAAAAAAAABgAAAHAQQAAAACAjBVgQ8gJJIEACkATRnRACCgCAxAiEI2CA4ZJgIIOLA0ZGEIAhgkADIyAcQgAAAAAAAAAAAAAAAAAAAAAAAAAAAAAAAAA==

> <PUBCHEM_IUPAC_OPENEYE_NAME>
2-(2-pyridyl)thioacetamide hydrochloride

> <PUBCHEM_IUPAC_CAS_NAME>
2-(2-pyridinyl)ethanethioamide hydrochloride

> <PUBCHEM_IUPAC_NAME>
2-pyridin-2-ylethanethioamide hydrochloride

> <PUBCHEM_IUPAC_SYSTEMATIC_NAME>
2-pyridin-2-ylethanethioamide hydrochloride

> <PUBCHEM_IUPAC_TRADITIONAL_NAME>
2-(2-pyridyl)thioacetamide hydrochloride

> <PUBCHEM_IUPAC_INCHI>
InChI=1S/C7H8N2S.ClH/c8-7(10)5-6-3-1-2-4-9-6;/h1-4H,5H2,(H2,8,10);1H

> <PUBCHEM_IUPAC_INCHIKEY>
NVUGKLNAYJKCMZ-UHFFFAOYSA-N

> <PUBCHEM_EXACT_MASS>
188.017497

> <PUBCHEM_MOLECULAR_FORMULA>
C7H9ClN2S

> <PUBCHEM_MOLECULAR_WEIGHT>
188.67776

> <PUBCHEM_OPENEYE_CAN_SMILES>
C1=CC=NC(=C1)CC(=S)N.Cl

> <PUBCHEM_OPENEYE_ISO_SMILES>
C1=CC=NC(=C1)CC(=S)N.Cl

> <PUBCHEM_CACTVS_TPSA>
71

> <PUBCHEM_MONOISOTOPIC_WEIGHT>
188.017497

> <PUBCHEM_TOTAL_CHARGE>
0

> <PUBCHEM_HEAVY_ATOM_COUNT>
11

> <PUBCHEM_ATOM_DEF_STEREO_COUNT>
0

> <PUBCHEM_ATOM_UDEF_STEREO_COUNT>
0

> <PUBCHEM_BOND_DEF_STEREO_COUNT>
0

> <PUBCHEM_BOND_UDEF_STEREO_COUNT>
0

> <PUBCHEM_ISOTOPIC_ATOM_COUNT>
0

> <PUBCHEM_COMPONENT_COUNT>
2

> <PUBCHEM_CACTVS_TAUTO_COUNT>
5

> <PUBCHEM_COORDINATE_TYPE>
1
5
255

> <PUBCHEM_BONDANNOTATIONS>
10  11  8
3  11  8
3  6  8
6  7  8
7  9  8
9  10  8

$$$$

