43547
  -OEChem-07051213012D

 28 30  0     0  0  0  0  0  0999 V2000
    2.9176   -2.0469    0.0000 O   0  0  0  0  0  0  0  0  0  0  0  0
    3.8000    0.4877    0.0000 C   0  0  0  0  0  0  0  0  0  0  0  0
    4.6660    0.9877    0.0000 C   0  0  0  0  0  0  0  0  0  0  0  0
    3.8000   -0.5123    0.0000 C   0  0  0  0  0  0  0  0  0  0  0  0
    5.5321    0.4877    0.0000 C   0  0  0  0  0  0  0  0  0  0  0  0
    4.6660   -1.0123    0.0000 C   0  0  0  0  0  0  0  0  0  0  0  0
    2.9061   -1.0470    0.0000 C   0  0  0  0  0  0  0  0  0  0  0  0
    5.5321   -0.5123    0.0000 C   0  0  0  0  0  0  0  0  0  0  0  0
    2.9061    1.0223    0.0000 C   0  0  0  0  0  0  0  0  0  0  0  0
    4.6500    2.0292    0.0000 C   0  0  0  0  0  0  0  0  0  0  0  0
    6.4421    0.9945    0.0000 C   0  0  0  0  0  0  0  0  0  0  0  0
    2.0000   -0.5332    0.0000 C   0  0  0  0  0  0  0  0  0  0  0  0
    2.0000    0.5085    0.0000 C   0  0  0  0  0  0  0  0  0  0  0  0
    5.5480    2.5569    0.0000 C   0  0  0  0  0  0  0  0  0  0  0  0
    6.4501    2.0361    0.0000 C   0  0  0  0  0  0  0  0  0  0  0  0
    2.0574   -2.5569    0.0000 C   0  0  0  0  0  0  0  0  0  0  0  0
    4.6660   -1.6323    0.0000 H   0  0  0  0  0  0  0  0  0  0  0  0
    6.0690   -0.8223    0.0000 H   0  0  0  0  0  0  0  0  0  0  0  0
    2.9132    1.6423    0.0000 H   0  0  0  0  0  0  0  0  0  0  0  0
    4.1095    2.3329    0.0000 H   0  0  0  0  0  0  0  0  0  0  0  0
    6.9754    0.6783    0.0000 H   0  0  0  0  0  0  0  0  0  0  0  0
    1.4643   -0.8452    0.0000 H   0  0  0  0  0  0  0  0  0  0  0  0
    1.4643    0.8205    0.0000 H   0  0  0  0  0  0  0  0  0  0  0  0
    5.5456    3.1769    0.0000 H   0  0  0  0  0  0  0  0  0  0  0  0
    6.9882    2.3440    0.0000 H   0  0  0  0  0  0  0  0  0  0  0  0
    1.7413   -2.0236    0.0000 H   0  0  0  0  0  0  0  0  0  0  0  0
    1.5241   -2.8731    0.0000 H   0  0  0  0  0  0  0  0  0  0  0  0
    2.3736   -3.0902    0.0000 H   0  0  0  0  0  0  0  0  0  0  0  0
  1  7  1  0  0  0  0
  1 16  1  0  0  0  0
  2  3  1  0  0  0  0
  2  4  2  0  0  0  0
  2  9  1  0  0  0  0
  3  5  1  0  0  0  0
  3 10  2  0  0  0  0
  4  6  1  0  0  0  0
  4  7  1  0  0  0  0
  5  8  1  0  0  0  0
  5 11  2  0  0  0  0
  6  8  2  0  0  0  0
  6 17  1  0  0  0  0
  7 12  2  0  0  0  0
  8 18  1  0  0  0  0
  9 13  2  0  0  0  0
  9 19  1  0  0  0  0
 10 14  1  0  0  0  0
 10 20  1  0  0  0  0
 11 15  1  0  0  0  0
 11 21  1  0  0  0  0
 12 13  1  0  0  0  0
 12 22  1  0  0  0  0
 13 23  1  0  0  0  0
 14 15  2  0  0  0  0
 14 24  1  0  0  0  0
 15 25  1  0  0  0  0
 16 26  1  0  0  0  0
 16 27  1  0  0  0  0
 16 28  1  0  0  0  0
M  END
> <PUBCHEM_COMPOUND_CID>
43547

> <PUBCHEM_COMPOUND_CANONICALIZED>
1

> <PUBCHEM_CACTVS_COMPLEXITY>
238

> <PUBCHEM_CACTVS_HBOND_ACCEPTOR>
1

> <PUBCHEM_CACTVS_HBOND_DONOR>
0

> <PUBCHEM_CACTVS_ROTATABLE_BOND>
1

> <PUBCHEM_CACTVS_SUBSKEYS>
AAADccBwIAAAAAAAAAAAAAAAAAAAAAAAAAAwYMAAAAAAAADBVAAAGgAAAAAADASAmAIyBsAABACAAiBCAAACCAAgIAAIiAAGCIgMJiKEMRqAMCAkwBEIqAeAwPAOwAADAAAYAACAAAYAADAAAAAAAAAAAA==

> <PUBCHEM_IUPAC_OPENEYE_NAME>
1-methoxyphenanthrene

> <PUBCHEM_IUPAC_CAS_NAME>
1-methoxyphenanthrene

> <PUBCHEM_IUPAC_NAME>
1-methoxyphenanthrene

> <PUBCHEM_IUPAC_SYSTEMATIC_NAME>
1-methoxyphenanthrene

> <PUBCHEM_IUPAC_TRADITIONAL_NAME>
1-methoxyphenanthrene

> <PUBCHEM_IUPAC_INCHI>
InChI=1S/C15H12O/c1-16-15-8-4-7-13-12-6-3-2-5-11(12)9-10-14(13)15/h2-10H,1H3

> <PUBCHEM_IUPAC_INCHIKEY>
ONMKCYMMGBIVPT-UHFFFAOYSA-N

> <PUBCHEM_XLOGP3>
4.9

> <PUBCHEM_EXACT_MASS>
208.088815

> <PUBCHEM_MOLECULAR_FORMULA>
C15H12O

> <PUBCHEM_MOLECULAR_WEIGHT>
208.25518

> <PUBCHEM_OPENEYE_CAN_SMILES>
COC1=CC=CC2=C1C=CC3=CC=CC=C32

> <PUBCHEM_OPENEYE_ISO_SMILES>
COC1=CC=CC2=C1C=CC3=CC=CC=C32

> <PUBCHEM_CACTVS_TPSA>
9.2

> <PUBCHEM_MONOISOTOPIC_WEIGHT>
208.088815

> <PUBCHEM_TOTAL_CHARGE>
0

> <PUBCHEM_HEAVY_ATOM_COUNT>
16

> <PUBCHEM_ATOM_DEF_STEREO_COUNT>
0

> <PUBCHEM_ATOM_UDEF_STEREO_COUNT>
0

> <PUBCHEM_BOND_DEF_STEREO_COUNT>
0

> <PUBCHEM_BOND_UDEF_STEREO_COUNT>
0

> <PUBCHEM_ISOTOPIC_ATOM_COUNT>
0

> <PUBCHEM_COMPONENT_COUNT>
1

> <PUBCHEM_CACTVS_TAUTO_COUNT>
1

> <PUBCHEM_COORDINATE_TYPE>
1
5
255

> <PUBCHEM_BONDANNOTATIONS>
10  14  8
11  15  8
12  13  8
14  15  8
2  3  8
2  4  8
2  9  8
3  10  8
3  5  8
4  6  8
4  7  8
5  11  8
5  8  8
6  8  8
7  12  8
9  13  8

$$$$

