61899
  -OEChem-07051213122D

 55 56  0     1  0  0  0  0  0999 V2000
    7.8301    1.7320    0.0000 O   0  0  0  0  0  0  0  0  0  0  0  0
    6.0981    0.7321    0.0000 N   0  0  0  0  0  0  0  0  0  0  0  0
    5.2320    0.2321    0.0000 C   0  0  0  0  0  0  0  0  0  0  0  0
    4.3660    0.7321    0.0000 C   0  0  0  0  0  0  0  0  0  0  0  0
    5.2320   -0.7679    0.0000 C   0  0  0  0  0  0  0  0  0  0  0  0
    6.9641    0.2321    0.0000 C   0  0  0  0  0  0  0  0  0  0  0  0
    6.0981    1.7320    0.0000 C   0  0  0  0  0  0  0  0  0  0  0  0
    7.8301    0.7321    0.0000 C   0  0  3  0  0  0  0  0  0  0  0  0
    6.9641    2.2320    0.0000 C   0  0  3  0  0  0  0  0  0  0  0  0
    3.5000    0.2321    0.0000 C   0  0  0  0  0  0  0  0  0  0  0  0
    4.8660   -1.8660    0.0000 C   0  0  0  0  0  0  0  0  0  0  0  0
    2.5000    0.2321    0.0000 C   0  0  0  0  0  0  0  0  0  0  0  0
    4.0000   -2.3660    0.0000 C   0  0  0  0  0  0  0  0  0  0  0  0
    2.0000   -0.6340    0.0000 C   0  0  0  0  0  0  0  0  0  0  0  0
    3.5000   -3.2320    0.0000 C   0  0  0  0  0  0  0  0  0  0  0  0
    2.5000   -1.5000    0.0000 C   0  0  0  0  0  0  0  0  0  0  0  0
    2.5000   -3.2320    0.0000 C   0  0  0  0  0  0  0  0  0  0  0  0
    2.0000   -2.3660    0.0000 C   0  0  0  0  0  0  0  0  0  0  0  0
    6.9641    3.2320    0.0000 C   0  0  0  0  0  0  0  0  0  0  0  0
    8.6962    0.2321    0.0000 C   0  0  0  0  0  0  0  0  0  0  0  0
    5.2320    0.8521    0.0000 H   0  0  0  0  0  0  0  0  0  0  0  0
    4.7646    1.2070    0.0000 H   0  0  0  0  0  0  0  0  0  0  0  0
    3.9675    1.2070    0.0000 H   0  0  0  0  0  0  0  0  0  0  0  0
    5.6907   -1.1851    0.0000 H   0  0  0  0  0  0  0  0  0  0  0  0
    4.6201   -0.6686    0.0000 H   0  0  0  0  0  0  0  0  0  0  0  0
    6.5656   -0.2429    0.0000 H   0  0  0  0  0  0  0  0  0  0  0  0
    7.3626   -0.2429    0.0000 H   0  0  0  0  0  0  0  0  0  0  0  0
    5.8860    2.3147    0.0000 H   0  0  0  0  0  0  0  0  0  0  0  0
    5.4875    1.6244    0.0000 H   0  0  0  0  0  0  0  0  0  0  0  0
    7.5010    2.5420    0.0000 H   0  0  0  0  0  0  0  0  0  0  0  0
    8.3671    1.0420    0.0000 H   0  0  0  0  0  0  0  0  0  0  0  0
    3.2880   -0.3506    0.0000 H   0  0  0  0  0  0  0  0  0  0  0  0
    3.3395    0.8309    0.0000 H   0  0  0  0  0  0  0  0  0  0  0  0
    5.0145   -2.4680    0.0000 H   0  0  0  0  0  0  0  0  0  0  0  0
    5.4855   -1.8908    0.0000 H   0  0  0  0  0  0  0  0  0  0  0  0
    2.6077    0.8426    0.0000 H   0  0  0  0  0  0  0  0  0  0  0  0
    1.9174    0.4441    0.0000 H   0  0  0  0  0  0  0  0  0  0  0  0
    3.8923   -1.7554    0.0000 H   0  0  0  0  0  0  0  0  0  0  0  0
    4.4384   -2.8044    0.0000 H   0  0  0  0  0  0  0  0  0  0  0  0
    1.5250   -0.2354    0.0000 H   0  0  0  0  0  0  0  0  0  0  0  0
    1.5250   -1.0325    0.0000 H   0  0  0  0  0  0  0  0  0  0  0  0
    3.3923   -3.8426    0.0000 H   0  0  0  0  0  0  0  0  0  0  0  0
    4.0826   -3.4441    0.0000 H   0  0  0  0  0  0  0  0  0  0  0  0
    2.9750   -1.8985    0.0000 H   0  0  0  0  0  0  0  0  0  0  0  0
    1.9174   -3.4441    0.0000 H   0  0  0  0  0  0  0  0  0  0  0  0
    2.6077   -3.8426    0.0000 H   0  0  0  0  0  0  0  0  0  0  0  0
    2.9750   -1.1015    0.0000 H   0  0  0  0  0  0  0  0  0  0  0  0
    1.5250   -1.9675    0.0000 H   0  0  0  0  0  0  0  0  0  0  0  0
    1.5250   -2.7646    0.0000 H   0  0  0  0  0  0  0  0  0  0  0  0
    7.5841    3.2320    0.0000 H   0  0  0  0  0  0  0  0  0  0  0  0
    6.9641    3.8520    0.0000 H   0  0  0  0  0  0  0  0  0  0  0  0
    6.3441    3.2320    0.0000 H   0  0  0  0  0  0  0  0  0  0  0  0
    8.3862   -0.3049    0.0000 H   0  0  0  0  0  0  0  0  0  0  0  0
    9.2331   -0.0779    0.0000 H   0  0  0  0  0  0  0  0  0  0  0  0
    9.0062    0.7690    0.0000 H   0  0  0  0  0  0  0  0  0  0  0  0
  1  8  1  0  0  0  0
  1  9  1  0  0  0  0
  2  3  1  0  0  0  0
  2  6  1  0  0  0  0
  2  7  1  0  0  0  0
  3  4  1  0  0  0  0
  3  5  1  0  0  0  0
  3 21  1  0  0  0  0
  4 10  1  0  0  0  0
  4 22  1  0  0  0  0
  4 23  1  0  0  0  0
  5 11  1  0  0  0  0
  5 24  1  0  0  0  0
  5 25  1  0  0  0  0
  6  8  1  0  0  0  0
  6 26  1  0  0  0  0
  6 27  1  0  0  0  0
  7  9  1  0  0  0  0
  7 28  1  0  0  0  0
  7 29  1  0  0  0  0
  8 20  1  0  0  0  0
  8 31  1  0  0  0  0
  9 19  1  0  0  0  0
  9 30  1  0  0  0  0
 10 12  1  0  0  0  0
 10 32  1  0  0  0  0
 10 33  1  0  0  0  0
 11 13  1  0  0  0  0
 11 34  1  0  0  0  0
 11 35  1  0  0  0  0
 12 14  1  0  0  0  0
 12 36  1  0  0  0  0
 12 37  1  0  0  0  0
 13 15  1  0  0  0  0
 13 38  1  0  0  0  0
 13 39  1  0  0  0  0
 14 16  1  0  0  0  0
 14 40  1  0  0  0  0
 14 41  1  0  0  0  0
 15 17  1  0  0  0  0
 15 42  1  0  0  0  0
 15 43  1  0  0  0  0
 16 18  1  0  0  0  0
 16 44  1  0  0  0  0
 16 47  1  0  0  0  0
 17 18  1  0  0  0  0
 17 45  1  0  0  0  0
 17 46  1  0  0  0  0
 18 48  1  0  0  0  0
 18 49  1  0  0  0  0
 19 50  1  0  0  0  0
 19 51  1  0  0  0  0
 19 52  1  0  0  0  0
 20 53  1  0  0  0  0
 20 54  1  0  0  0  0
 20 55  1  0  0  0  0
M  END
> <PUBCHEM_COMPOUND_CID>
61899

> <PUBCHEM_COMPOUND_CANONICALIZED>
1

> <PUBCHEM_CACTVS_COMPLEXITY>
234

> <PUBCHEM_CACTVS_HBOND_ACCEPTOR>
2

> <PUBCHEM_CACTVS_HBOND_DONOR>
0

> <PUBCHEM_CACTVS_ROTATABLE_BOND>
1

> <PUBCHEM_CACTVS_SUBSKEYS>
AAADcfB6IAAAAAAAAAAAAAAAAAAAAAAAAAAsAAAAAAAAAAAAAAAAHgAAAAAACDzhgAYCAAMABAAAAAAAAAAAAAAAAAAAAAAIAAACAAIAgAAHAAAAAACQAAEQgIAAAAAAAAAAAAAAAAAAAAAAAAAAAAAAAA==

> <PUBCHEM_IUPAC_OPENEYE_NAME>
4-cyclododecyl-2,6-dimethyl-morpholine

> <PUBCHEM_IUPAC_CAS_NAME>
4-cyclododecyl-2,6-dimethylmorpholine

> <PUBCHEM_IUPAC_NAME>
4-cyclododecyl-2,6-dimethylmorpholine

> <PUBCHEM_IUPAC_SYSTEMATIC_NAME>
4-cyclododecyl-2,6-dimethyl-morpholine

> <PUBCHEM_IUPAC_TRADITIONAL_NAME>
4-cyclododecyl-2,6-dimethyl-morpholine

> <PUBCHEM_IUPAC_INCHI>
InChI=1S/C18H35NO/c1-16-14-19(15-17(2)20-16)18-12-10-8-6-4-3-5-7-9-11-13-18/h16-18H,3-15H2,1-2H3

> <PUBCHEM_IUPAC_INCHIKEY>
JMXKCYUTURMERF-UHFFFAOYSA-N

> <PUBCHEM_XLOGP3_AA>
5.8

> <PUBCHEM_EXACT_MASS>
281.271865

> <PUBCHEM_MOLECULAR_FORMULA>
C18H35NO

> <PUBCHEM_MOLECULAR_WEIGHT>
281.4766

> <PUBCHEM_OPENEYE_CAN_SMILES>
CC1CN(CC(O1)C)C2CCCCCCCCCCC2

> <PUBCHEM_OPENEYE_ISO_SMILES>
CC1CN(CC(O1)C)C2CCCCCCCCCCC2

> <PUBCHEM_CACTVS_TPSA>
12.5

> <PUBCHEM_MONOISOTOPIC_WEIGHT>
281.271865

> <PUBCHEM_TOTAL_CHARGE>
0

> <PUBCHEM_HEAVY_ATOM_COUNT>
20

> <PUBCHEM_ATOM_DEF_STEREO_COUNT>
0

> <PUBCHEM_ATOM_UDEF_STEREO_COUNT>
2

> <PUBCHEM_BOND_DEF_STEREO_COUNT>
0

> <PUBCHEM_BOND_UDEF_STEREO_COUNT>
0

> <PUBCHEM_ISOTOPIC_ATOM_COUNT>
0

> <PUBCHEM_COMPONENT_COUNT>
1

> <PUBCHEM_CACTVS_TAUTO_COUNT>
1

> <PUBCHEM_COORDINATE_TYPE>
1
5
255

> <PUBCHEM_BONDANNOTATIONS>
8  20  3
9  19  3

$$$$

