247863
  -OEChem-07051213063D

 54 57  0     1  0  0  0  0  0999 V2000
   -4.4918   -0.4159   -1.6645 O   0  0  0  0  0  0  0  0  0  0  0  0
    5.0535    1.3841   -0.7891 O   0  0  0  0  0  0  0  0  0  0  0  0
   -0.0210    0.3331   -0.1239 C   0  0  2  0  0  0  0  0  0  0  0  0
   -1.4839    0.1777    0.4375 C   0  0  2  0  0  0  0  0  0  0  0  0
    0.8969   -0.8624    0.3009 C   0  0  2  0  0  0  0  0  0  0  0  0
    2.2751   -0.6513   -0.3323 C   0  0  1  0  0  0  0  0  0  0  0  0
   -2.0266   -1.1995   -0.0605 C   0  0  1  0  0  0  0  0  0  0  0  0
    2.9341    0.6548    0.1575 C   0  0  2  0  0  0  0  0  0  0  0  0
    0.6379    1.7097    0.1658 C   0  0  0  0  0  0  0  0  0  0  0  0
    0.2842   -2.2094   -0.1055 C   0  0  0  0  0  0  0  0  0  0  0  0
   -1.1500   -2.3723    0.3943 C   0  0  0  0  0  0  0  0  0  0  0  0
   -2.4118    1.2889   -0.1350 C   0  0  0  0  0  0  0  0  0  0  0  0
    2.0879    1.8213   -0.3422 C   0  0  0  0  0  0  0  0  0  0  0  0
    3.3624   -1.7059   -0.1595 C   0  0  0  0  0  0  0  0  0  0  0  0
   -3.5037   -1.4280    0.3019 C   0  0  0  0  0  0  0  0  0  0  0  0
   -3.9055    1.0796    0.1918 C   0  0  2  0  0  0  0  0  0  0  0  0
   -1.4899    0.2818    1.9846 C   0  0  0  0  0  0  0  0  0  0  0  0
   -4.3970   -0.3109   -0.2454 C   0  0  1  0  0  0  0  0  0  0  0  0
    4.2927    0.4718   -0.4950 C   0  0  0  0  0  0  0  0  0  0  0  0
    4.6101   -0.9987   -0.7094 C   0  0  0  0  0  0  0  0  0  0  0  0
    3.1860    0.7564    1.6733 C   0  0  0  0  0  0  0  0  0  0  0  0
   -4.7396    2.1950   -0.4454 C   0  0  0  0  0  0  0  0  0  0  0  0
   -0.1054    0.2817   -1.2214 H   0  0  0  0  0  0  0  0  0  0  0  0
    1.0087   -0.8744    1.3899 H   0  0  0  0  0  0  0  0  0  0  0  0
    2.1123   -0.5747   -1.4216 H   0  0  0  0  0  0  0  0  0  0  0  0
   -1.9797   -1.1908   -1.1607 H   0  0  0  0  0  0  0  0  0  0  0  0
    0.6247    1.9173    1.2403 H   0  0  0  0  0  0  0  0  0  0  0  0
    0.0576    2.5079   -0.3102 H   0  0  0  0  0  0  0  0  0  0  0  0
    0.8909   -3.0328    0.2889 H   0  0  0  0  0  0  0  0  0  0  0  0
    0.2948   -2.3063   -1.1988 H   0  0  0  0  0  0  0  0  0  0  0  0
   -1.5532   -3.3130   -0.0005 H   0  0  0  0  0  0  0  0  0  0  0  0
   -1.1591   -2.4663    1.4861 H   0  0  0  0  0  0  0  0  0  0  0  0
   -2.2869    1.3365   -1.2253 H   0  0  0  0  0  0  0  0  0  0  0  0
   -2.1083    2.2689    0.2536 H   0  0  0  0  0  0  0  0  0  0  0  0
    2.0857    1.8456   -1.4398 H   0  0  0  0  0  0  0  0  0  0  0  0
    2.5179    2.7781   -0.0219 H   0  0  0  0  0  0  0  0  0  0  0  0
    3.1528   -2.6228   -0.7193 H   0  0  0  0  0  0  0  0  0  0  0  0
    3.4963   -1.9807    0.8923 H   0  0  0  0  0  0  0  0  0  0  0  0
   -3.8269   -2.3876   -0.1213 H   0  0  0  0  0  0  0  0  0  0  0  0
   -3.6259   -1.5067    1.3877 H   0  0  0  0  0  0  0  0  0  0  0  0
   -4.0394    1.1607    1.2774 H   0  0  0  0  0  0  0  0  0  0  0  0
   -2.4736    0.0749    2.4142 H   0  0  0  0  0  0  0  0  0  0  0  0
   -0.7951   -0.4157    2.4585 H   0  0  0  0  0  0  0  0  0  0  0  0
   -1.2145    1.2889    2.3148 H   0  0  0  0  0  0  0  0  0  0  0  0
   -5.4134   -0.4580    0.1402 H   0  0  0  0  0  0  0  0  0  0  0  0
    4.7262   -1.1821   -1.7814 H   0  0  0  0  0  0  0  0  0  0  0  0
    5.5105   -1.2895   -0.1642 H   0  0  0  0  0  0  0  0  0  0  0  0
    2.2650    0.7196    2.2610 H   0  0  0  0  0  0  0  0  0  0  0  0
    3.8422   -0.0392    2.0421 H   0  0  0  0  0  0  0  0  0  0  0  0
    3.6864    1.7030    1.9110 H   0  0  0  0  0  0  0  0  0  0  0  0
   -4.4366    3.1727   -0.0555 H   0  0  0  0  0  0  0  0  0  0  0  0
   -4.6224    2.2186   -1.5339 H   0  0  0  0  0  0  0  0  0  0  0  0
   -5.8027    2.0607   -0.2197 H   0  0  0  0  0  0  0  0  0  0  0  0
   -4.8370   -1.3008   -1.8722 H   0  0  0  0  0  0  0  0  0  0  0  0
  1 18  1  0  0  0  0
  1 54  1  0  0  0  0
  2 19  2  0  0  0  0
  3  4  1  0  0  0  0
  3  5  1  0  0  0  0
  3  9  1  0  0  0  0
  3 23  1  0  0  0  0
  4  7  1  0  0  0  0
  4 12  1  0  0  0  0
  4 17  1  0  0  0  0
  5  6  1  0  0  0  0
  5 10  1  0  0  0  0
  5 24  1  0  0  0  0
  6  8  1  0  0  0  0
  6 14  1  0  0  0  0
  6 25  1  0  0  0  0
  7 11  1  0  0  0  0
  7 15  1  0  0  0  0
  7 26  1  0  0  0  0
  8 13  1  0  0  0  0
  8 19  1  0  0  0  0
  8 21  1  0  0  0  0
  9 13  1  0  0  0  0
  9 27  1  0  0  0  0
  9 28  1  0  0  0  0
 10 11  1  0  0  0  0
 10 29  1  0  0  0  0
 10 30  1  0  0  0  0
 11 31  1  0  0  0  0
 11 32  1  0  0  0  0
 12 16  1  0  0  0  0
 12 33  1  0  0  0  0
 12 34  1  0  0  0  0
 13 35  1  0  0  0  0
 13 36  1  0  0  0  0
 14 20  1  0  0  0  0
 14 37  1  0  0  0  0
 14 38  1  0  0  0  0
 15 18  1  0  0  0  0
 15 39  1  0  0  0  0
 15 40  1  0  0  0  0
 16 18  1  0  0  0  0
 16 22  1  0  0  0  0
 16 41  1  0  0  0  0
 17 42  1  0  0  0  0
 17 43  1  0  0  0  0
 17 44  1  0  0  0  0
 18 45  1  0  0  0  0
 19 20  1  0  0  0  0
 20 46  1  0  0  0  0
 20 47  1  0  0  0  0
 21 48  1  0  0  0  0
 21 49  1  0  0  0  0
 21 50  1  0  0  0  0
 22 51  1  0  0  0  0
 22 52  1  0  0  0  0
 22 53  1  0  0  0  0
M  END
> <PUBCHEM_COMPOUND_CID>
247863

> <PUBCHEM_CONFORMER_RMSD>
0.6

> <PUBCHEM_CONFORMER_DIVERSEORDER>
1

> <PUBCHEM_MMFF94_PARTIAL_CHARGES>
7
1 -0.68
18 0.28
19 0.45
2 -0.57
20 0.06
54 0.4
8 0.06

> <PUBCHEM_EFFECTIVE_ROTOR_COUNT>
2

> <PUBCHEM_PHARMACOPHORE_FEATURES>
7
1 1 acceptor
1 1 donor
1 2 acceptor
5 6 8 14 19 20 rings
6 3 4 5 7 10 11 rings
6 3 5 6 8 9 13 rings
6 4 7 12 15 16 18 rings

> <PUBCHEM_HEAVY_ATOM_COUNT>
22

> <PUBCHEM_ATOM_DEF_STEREO_COUNT>
8

> <PUBCHEM_ATOM_UDEF_STEREO_COUNT>
0

> <PUBCHEM_BOND_DEF_STEREO_COUNT>
0

> <PUBCHEM_BOND_UDEF_STEREO_COUNT>
0

> <PUBCHEM_ISOTOPIC_ATOM_COUNT>
0

> <PUBCHEM_COMPONENT_COUNT>
1

> <PUBCHEM_CACTVS_TAUTO_COUNT>
2

> <PUBCHEM_CONFORMER_ID>
0003C83700000001

> <PUBCHEM_MMFF94_ENERGY>
71.9244

> <PUBCHEM_FEATURE_SELFOVERLAP>
35.612

> <PUBCHEM_SHAPE_FINGERPRINT>
10366900 7 17530958060629131722
10498660 4 18411132546002009636
10646746 165 18412545418111100117
10967382 1 18338794619406408842
1100329 8 16896517091880171624
11315181 36 17749102297446400200
11370993 70 18336553737220092627
12011746 2 18335133202999836854
12236239 1 17894625968227829281
12403259 226 18264210214767577281
12403259 415 18333450919801995489
12500047 106 18409448055491073866
12592029 89 18343864446189802875
12788726 201 17896876749602035792
13224815 77 17821447945570318443
14790565 3 18267857466282836677
15099037 51 18412261756980205172
15196674 1 18411134749019383310
15375358 24 18410572860292084210
15420108 30 16529461632117011744
15536298 74 18333170570069558898
15788980 27 17385443224057490061
1601671 61 18343581845894782476
16752209 62 18336834099832091107
16945 1 18264774246514764906
17349148 13 17967811647809864987
18186145 218 18411142463075942035
19862831 5 18113336435641422313
200 152 17749107781565859491
20645477 70 18336260232467598302
20775438 99 16670260182540079583
20871999 31 18411696569533555868
21033648 29 18410015424781655713
21267235 1 18337942433280650799
21279426 13 18338513170088765102
21421861 104 17630901571855846914
221357 26 18334581222524751685
22393880 68 18335988657121304175
23402539 116 18334298698879727564
23402655 69 18333731355264576029
23493267 7 18060415798466957819
23559900 14 18261112993585929648
25 1 18342460386936455987
2748010 2 18336817632911777274
2838139 119 16413824629030877951
296302 2 17060338500553859986
3004659 81 18343016740363533702
3286 77 17386009507243175826
335352 9 18267302208409367518
34934 24 18342457024325060496
350125 39 18339353085856922545
4028521 119 18408039610928730675
4214541 1 18411134749188253341
4280585 95 17322099478772094518
474 4 18271522091530307585
495365 180 17458920279322897514
5104073 3 18411417327765675707
543358 83 18340201998568975240
633830 44 17846778524568514427
69090 78 18335422352608585319
9709674 26 18337670789436581971

> <PUBCHEM_SHAPE_MULTIPOLES>
441.01
9.86
2.29
1.12
0.02
0.34
-0.37
-2.35
2.75
-0.47
0.12
-0.11
-0.13
0.25

> <PUBCHEM_SHAPE_SELFOVERLAP>
936.791

> <PUBCHEM_SHAPE_VOLUME>
245.2

> <PUBCHEM_COORDINATE_TYPE>
2
5
10

$$$$

