17395473
  -OEChem-06241222503D

 32 32  0     0  0  0  0  0  0999 V2000
    6.3128   -1.4611   -0.1742 F   0  0  0  0  0  0  0  0  0  0  0  0
   -5.2555   -1.2241    0.9249 O   0  0  0  0  0  0  0  0  0  0  0  0
   -1.1380    2.3771    0.6714 O   0  0  0  0  0  0  0  0  0  0  0  0
   -3.9552   -1.3284   -0.9777 O   0  0  0  0  0  0  0  0  0  0  0  0
   -2.0853    0.9312   -0.8842 N   0  0  0  0  0  0  0  0  0  0  0  0
   -3.4217    1.4633   -0.8592 C   0  0  0  0  0  0  0  0  0  0  0  0
   -4.2949    0.7826    0.1872 C   0  0  0  0  0  0  0  0  0  0  0  0
    2.6426    0.3935    0.2012 C   0  0  0  0  0  0  0  0  0  0  0  0
   -1.0484    1.4367   -0.1111 C   0  0  0  0  0  0  0  0  0  0  0  0
   -4.4545   -0.7035   -0.0524 C   0  0  0  0  0  0  0  0  0  0  0  0
    1.3332    1.0562    0.3348 C   0  0  0  0  0  0  0  0  0  0  0  0
    0.2271    0.6980   -0.3338 C   0  0  0  0  0  0  0  0  0  0  0  0
    2.9209   -0.3807   -0.9253 C   0  0  0  0  0  0  0  0  0  0  0  0
    3.6039    0.5409    1.2010 C   0  0  0  0  0  0  0  0  0  0  0  0
    4.1605   -1.0074   -1.0520 C   0  0  0  0  0  0  0  0  0  0  0  0
    4.8437   -0.0858    1.0744 C   0  0  0  0  0  0  0  0  0  0  0  0
    5.1219   -0.8600   -0.0520 C   0  0  0  0  0  0  0  0  0  0  0  0
   -5.5132   -2.6285    0.8272 C   0  0  0  0  0  0  0  0  0  0  0  0
   -3.3756    2.5391   -0.6587 H   0  0  0  0  0  0  0  0  0  0  0  0
   -3.8420    1.3223   -1.8609 H   0  0  0  0  0  0  0  0  0  0  0  0
   -5.2908    1.2389    0.1725 H   0  0  0  0  0  0  0  0  0  0  0  0
   -3.8555    0.9184    1.1821 H   0  0  0  0  0  0  0  0  0  0  0  0
   -1.9122    0.1426   -1.5009 H   0  0  0  0  0  0  0  0  0  0  0  0
    1.3029    1.8810    1.0430 H   0  0  0  0  0  0  0  0  0  0  0  0
    0.2022   -0.1332   -1.0289 H   0  0  0  0  0  0  0  0  0  0  0  0
    2.2120   -0.5070   -1.7382 H   0  0  0  0  0  0  0  0  0  0  0  0
    3.4042    1.1395    2.0864 H   0  0  0  0  0  0  0  0  0  0  0  0
    4.3800   -1.6064   -1.9308 H   0  0  0  0  0  0  0  0  0  0  0  0
    5.5925    0.0286    1.8525 H   0  0  0  0  0  0  0  0  0  0  0  0
   -6.1595   -2.9144    1.6613 H   0  0  0  0  0  0  0  0  0  0  0  0
   -4.5775   -3.1911    0.8992 H   0  0  0  0  0  0  0  0  0  0  0  0
   -6.0295   -2.8544   -0.1107 H   0  0  0  0  0  0  0  0  0  0  0  0
  1 17  1  0  0  0  0
  2 10  1  0  0  0  0
  2 18  1  0  0  0  0
  3  9  2  0  0  0  0
  4 10  2  0  0  0  0
  5  6  1  0  0  0  0
  5  9  1  0  0  0  0
  5 23  1  0  0  0  0
  6  7  1  0  0  0  0
  6 19  1  0  0  0  0
  6 20  1  0  0  0  0
  7 10  1  0  0  0  0
  7 21  1  0  0  0  0
  7 22  1  0  0  0  0
  8 11  1  0  0  0  0
  8 13  2  0  0  0  0
  8 14  1  0  0  0  0
  9 12  1  0  0  0  0
 11 12  2  0  0  0  0
 11 24  1  0  0  0  0
 12 25  1  0  0  0  0
 13 15  1  0  0  0  0
 13 26  1  0  0  0  0
 14 16  2  0  0  0  0
 14 27  1  0  0  0  0
 15 17  2  0  0  0  0
 15 28  1  0  0  0  0
 16 17  1  0  0  0  0
 16 29  1  0  0  0  0
 18 30  1  0  0  0  0
 18 31  1  0  0  0  0
 18 32  1  0  0  0  0
M  END
> <PUBCHEM_COMPOUND_CID>
17395473

> <PUBCHEM_CONFORMER_RMSD>
0.8

> <PUBCHEM_CONFORMER_DIVERSEORDER>
1
18
10
27
28
8
5
21
19
14
32
29
30
4
22
7
13
24
31
6
16
23
25
12
2
17
11
26
3
15
20
9

> <PUBCHEM_MMFF94_PARTIAL_CHARGES>
25
1 -0.19
10 0.66
11 -0.18
12 -0.14
13 -0.15
14 -0.15
15 -0.15
16 -0.15
17 0.19
18 0.28
2 -0.43
23 0.37
24 0.15
25 0.15
26 0.15
27 0.15
28 0.15
29 0.15
3 -0.57
4 -0.57
5 -0.73
6 0.3
7 0.06
8 0.03
9 0.62

> <PUBCHEM_EFFECTIVE_ROTOR_COUNT>
7

> <PUBCHEM_PHARMACOPHORE_FEATURES>
4
1 3 acceptor
1 4 acceptor
1 5 donor
6 8 13 14 15 16 17 rings

> <PUBCHEM_HEAVY_ATOM_COUNT>
18

> <PUBCHEM_ATOM_DEF_STEREO_COUNT>
0

> <PUBCHEM_ATOM_UDEF_STEREO_COUNT>
0

> <PUBCHEM_BOND_DEF_STEREO_COUNT>
1

> <PUBCHEM_BOND_UDEF_STEREO_COUNT>
0

> <PUBCHEM_ISOTOPIC_ATOM_COUNT>
0

> <PUBCHEM_COMPONENT_COUNT>
1

> <PUBCHEM_CACTVS_TAUTO_COUNT>
2

> <PUBCHEM_CONFORMER_ID>
01096F1100000001

> <PUBCHEM_MMFF94_ENERGY>
32.2036

> <PUBCHEM_FEATURE_SELFOVERLAP>
20.297

> <PUBCHEM_SHAPE_FINGERPRINT>
11046707 91 18343867714738990309
11089746 13 10952050031367546132
11128504 68 16917061153197034316
11552529 35 16010175076594510535
11796584 16 18055078915597926570
12633257 1 15357700768915251953
13740256 8 18411417302059499305
14123255 352 8935005867144079131
1420 363 18187085083300987724
1420 369 18411417280879828179
14216079 64 18341048507397633075
14251718 22 18201999937178401412
14251732 14 18340752785333159982
14251732 16 18412263900918342288
14251751 18 18341892982764143935
14251757 5 15983960537534336811
14251764 30 18342172212001116139
14252887 29 17167862002214322852
14455015 7 18113619019046755996
15537594 2 17917709141153373963
17780758 139 17968090937281238193
17844677 252 18187364341684865712
193927 3 18342453708372905189
200 152 16486971838485659156
20281389 69 7637401830355672983
20621476 21 18410003330080097999
20645477 56 10807921691854228509
21054139 6 17704072906627051778
21150785 3 17418368091789139838
21623969 137 17894347787322574142
220451 1 17774720982202296832
23402539 116 16271647892027601356
23402655 69 13039189220996331916
23559900 14 18410020943888711008
23590187 135 18412827975430118885
26918003 58 17967819383072702585
270888 7 7997429199990999035
2748736 6 6843106874626312099
2838139 119 9222961331061003995
3014063 24 18043536019655965583
351380 3 18272933812767803203
5104073 3 17677338354601675994
5924683 9 16806179752712713191
633830 44 14044907091175390421
7062679 13 18271527511816159979
7495541 125 18260552225655509048
8863177 126 18335138644333432754

> <PUBCHEM_SHAPE_MULTIPOLES>
340.57
15.07
2.08
1.1
0.69
0.45
0.02
10.38
1.68
3
0.26
-0.32
0.1
1.47

> <PUBCHEM_SHAPE_SELFOVERLAP>
695.383

> <PUBCHEM_SHAPE_VOLUME>
196.8

> <PUBCHEM_COORDINATE_TYPE>
2
5
10

$$$$

