9342
  -OEChem-06261203382D

 62 63  0     1  0  0  0  0  0999 V2000
    4.5743    0.7312    0.0000 O   0  0  0  0  0  0  0  0  0  0  0  0
    8.0698    0.5298    0.0000 O   0  0  0  0  0  0  0  0  0  0  0  0
    9.5652    0.3516    0.0000 O   0  0  0  0  0  0  0  0  0  0  0  0
   11.3160   -1.0394    0.0000 O   0  0  0  0  0  0  0  0  0  0  0  0
    9.4634   -2.5560    0.0000 O   0  0  0  0  0  0  0  0  0  0  0  0
    7.7126   -1.1650    0.0000 O   0  0  0  0  0  0  0  0  0  0  0  0
    2.9271    1.2664    0.0000 O   0  0  0  0  0  0  0  0  0  0  0  0
    5.8344    2.9913    0.0000 N   0  0  3  0  0  0  0  0  0  0  0  0
    5.8344    1.9913    0.0000 C   0  0  1  0  0  0  0  0  0  0  0  0
    4.8833    1.6822    0.0000 C   0  0  2  0  0  0  0  0  0  0  0  0
    4.2956    2.4913    0.0000 C   0  0  0  0  0  0  0  0  0  0  0  0
    4.8833    3.3003    0.0000 C   0  0  0  0  0  0  0  0  0  0  0  0
    6.7806    1.6865    0.0000 C   0  0  0  0  0  0  0  0  0  0  0  0
    6.7806    3.2960    0.0000 C   0  0  0  0  0  0  0  0  0  0  0  0
    7.3642    2.4913    0.0000 C   0  0  0  0  0  0  0  0  0  0  0  0
    7.0913    0.7360    0.0000 C   0  0  0  0  0  0  0  0  0  0  0  0
    9.3590   -0.6269    0.0000 C   0  0  1  0  0  0  0  0  0  0  0  0
   10.3375   -0.8332    0.0000 C   0  0  0  0  0  0  0  0  0  0  0  0
    9.1527   -1.6055    0.0000 C   0  0  1  0  0  0  0  0  0  0  0  0
    8.3805   -0.4207    0.0000 C   0  0  0  0  0  0  0  0  0  0  0  0
    3.5962    0.5233    0.0000 C   0  0  0  0  0  0  0  0  0  0  0  0
   10.6482   -1.7837    0.0000 C   0  0  0  0  0  0  0  0  0  0  0  0
   10.5437    0.1453    0.0000 C   0  0  0  0  0  0  0  0  0  0  0  0
    8.2022   -1.9161    0.0000 C   0  0  0  0  0  0  0  0  0  0  0  0
    3.2872   -0.4278    0.0000 C   0  0  0  0  0  0  0  0  0  0  0  0
    3.9563   -1.1709    0.0000 C   0  0  0  0  0  0  0  0  0  0  0  0
    8.7956   -3.3003    0.0000 C   0  0  0  0  0  0  0  0  0  0  0  0
    2.3090   -0.6357    0.0000 C   0  0  0  0  0  0  0  0  0  0  0  0
    2.0000   -1.5867    0.0000 C   0  0  0  0  0  0  0  0  0  0  0  0
    5.8354    1.1913    0.0000 H   0  0  0  0  0  0  0  0  0  0  0  0
    4.2710    1.5853    0.0000 H   0  0  0  0  0  0  0  0  0  0  0  0
    3.8348    2.0764    0.0000 H   0  0  0  0  0  0  0  0  0  0  0  0
    3.8348    2.9061    0.0000 H   0  0  0  0  0  0  0  0  0  0  0  0
    4.3464    3.6103    0.0000 H   0  0  0  0  0  0  0  0  0  0  0  0
    5.1355    3.8667    0.0000 H   0  0  0  0  0  0  0  0  0  0  0  0
    7.3180    3.6052    0.0000 H   0  0  0  0  0  0  0  0  0  0  0  0
    6.5296    3.8629    0.0000 H   0  0  0  0  0  0  0  0  0  0  0  0
    7.9842    2.4913    0.0000 H   0  0  0  0  0  0  0  0  0  0  0  0
    7.0707    0.1163    0.0000 H   0  0  0  0  0  0  0  0  0  0  0  0
    6.4775    0.6487    0.0000 H   0  0  0  0  0  0  0  0  0  0  0  0
    9.7718   -1.5719    0.0000 H   0  0  0  0  0  0  0  0  0  0  0  0
   11.2375   -1.5910    0.0000 H   0  0  0  0  0  0  0  0  0  0  0  0
   10.8409   -2.3730    0.0000 H   0  0  0  0  0  0  0  0  0  0  0  0
   10.0589   -1.9763    0.0000 H   0  0  0  0  0  0  0  0  0  0  0  0
   10.6715    0.7520    0.0000 H   0  0  0  0  0  0  0  0  0  0  0  0
   11.1504    0.0175    0.0000 H   0  0  0  0  0  0  0  0  0  0  0  0
    9.9370    0.2732    0.0000 H   0  0  0  0  0  0  0  0  0  0  0  0
    8.3948   -2.5054    0.0000 H   0  0  0  0  0  0  0  0  0  0  0  0
    7.6129   -2.1087    0.0000 H   0  0  0  0  0  0  0  0  0  0  0  0
    8.0096   -1.3268    0.0000 H   0  0  0  0  0  0  0  0  0  0  0  0
    9.1037    0.7656    0.0000 H   0  0  0  0  0  0  0  0  0  0  0  0
   11.7300   -0.5779    0.0000 H   0  0  0  0  0  0  0  0  0  0  0  0
    9.2570   -3.7143    0.0000 H   0  0  0  0  0  0  0  0  0  0  0  0
    8.3815   -3.7617    0.0000 H   0  0  0  0  0  0  0  0  0  0  0  0
    8.3341   -2.8862    0.0000 H   0  0  0  0  0  0  0  0  0  0  0  0
    3.4955   -1.5858    0.0000 H   0  0  0  0  0  0  0  0  0  0  0  0
    4.3712   -1.6317    0.0000 H   0  0  0  0  0  0  0  0  0  0  0  0
    4.4170   -0.7561    0.0000 H   0  0  0  0  0  0  0  0  0  0  0  0
    1.8942   -0.1749    0.0000 H   0  0  0  0  0  0  0  0  0  0  0  0
    2.5897   -1.7783    0.0000 H   0  0  0  0  0  0  0  0  0  0  0  0
    1.8084   -2.1764    0.0000 H   0  0  0  0  0  0  0  0  0  0  0  0
    1.4103   -1.3952    0.0000 H   0  0  0  0  0  0  0  0  0  0  0  0
 10  1  1  1  0  0  0
  1 21  1  0  0  0  0
  2 16  1  0  0  0  0
  2 20  1  0  0  0  0
 17  3  1  1  0  0  0
  3 51  1  0  0  0  0
  4 18  1  0  0  0  0
  4 52  1  0  0  0  0
 19  5  1  6  0  0  0
  5 27  1  0  0  0  0
  6 20  2  0  0  0  0
  7 21  2  0  0  0  0
  8  9  1  0  0  0  0
  8 12  1  0  0  0  0
  8 14  1  0  0  0  0
  9 10  1  0  0  0  0
  9 13  1  0  0  0  0
  9 30  1  1  0  0  0
 10 11  1  0  0  0  0
 10 31  1  0  0  0  0
 11 12  1  0  0  0  0
 11 32  1  0  0  0  0
 11 33  1  0  0  0  0
 12 34  1  0  0  0  0
 12 35  1  0  0  0  0
 13 15  2  0  0  0  0
 13 16  1  0  0  0  0
 14 15  1  0  0  0  0
 14 36  1  0  0  0  0
 14 37  1  0  0  0  0
 15 38  1  0  0  0  0
 16 39  1  0  0  0  0
 16 40  1  0  0  0  0
 17 18  1  0  0  0  0
 17 19  1  0  0  0  0
 17 20  1  0  0  0  0
 18 22  1  0  0  0  0
 18 23  1  0  0  0  0
 19 24  1  0  0  0  0
 19 41  1  0  0  0  0
 21 25  1  0  0  0  0
 22 42  1  0  0  0  0
 22 43  1  0  0  0  0
 22 44  1  0  0  0  0
 23 45  1  0  0  0  0
 23 46  1  0  0  0  0
 23 47  1  0  0  0  0
 24 48  1  0  0  0  0
 24 49  1  0  0  0  0
 24 50  1  0  0  0  0
 25 26  1  0  0  0  0
 25 28  2  3  0  0  0
 26 56  1  0  0  0  0
 26 57  1  0  0  0  0
 26 58  1  0  0  0  0
 27 53  1  0  0  0  0
 27 54  1  0  0  0  0
 27 55  1  0  0  0  0
 28 29  1  0  0  0  0
 28 59  1  0  0  0  0
 29 60  1  0  0  0  0
 29 61  1  0  0  0  0
 29 62  1  0  0  0  0
M  END
> <PUBCHEM_COMPOUND_CID>
9342

> <PUBCHEM_COMPOUND_CANONICALIZED>
1

> <PUBCHEM_CACTVS_COMPLEXITY>
699

> <PUBCHEM_CACTVS_HBOND_ACCEPTOR>
8

> <PUBCHEM_CACTVS_HBOND_DONOR>
2

> <PUBCHEM_CACTVS_ROTATABLE_BOND>
10

> <PUBCHEM_CACTVS_SUBSKEYS>
AAADcfB6OAAAAAAAAAAAAAAAAAAAAWIAAAAAAAAAAAAQAAAAAAAAHgAACAAADHzhgAYCCAMABgCIAiDSCAKAAAAgAAAACAFIAEgDBBYAoQAHUAAH4ACbIYPQQAAOgAAAAAAAAAAAAAAAAAAAAAAAAAAAAA==

> <PUBCHEM_IUPAC_OPENEYE_NAME>
[(7S,8R)-7-(2-methylbut-2-enoyloxy)-5,6,7,8-tetrahydro-3H-pyrrolizin-1-yl]methyl (2R)-2,3-dihydroxy-2-[(1R)-1-methoxyethyl]-3-methyl-butanoate

> <PUBCHEM_IUPAC_CAS_NAME>
(2R)-2,3-dihydroxy-2-[(1R)-1-methoxyethyl]-3-methylbutanoic acid [(7S,8R)-7-(2-methyl-1-oxobut-2-enoxy)-5,6,7,8-tetrahydro-3H-pyrrolizin-1-yl]methyl ester

> <PUBCHEM_IUPAC_NAME>
[(7S,8R)-7-(2-methylbut-2-enoyloxy)-5,6,7,8-tetrahydro-3H-pyrrolizin-1-yl]methyl (2R)-2,3-dihydroxy-2-[(1R)-1-methoxyethyl]-3-methylbutanoate

> <PUBCHEM_IUPAC_SYSTEMATIC_NAME>
[(7S,8R)-7-(2-methylbut-2-enoyloxy)-5,6,7,8-tetrahydro-3H-pyrrolizin-1-yl]methyl (2R)-2-[(1R)-1-methoxyethyl]-3-methyl-2,3-bis(oxidanyl)butanoate

> <PUBCHEM_IUPAC_TRADITIONAL_NAME>
(2R)-2,3-dihydroxy-2-[(1R)-1-methoxyethyl]-3-methyl-butyric acid [(7S,8R)-7-(2-methylbut-2-enoyloxy)-5,6,7,8-tetrahydro-3H-pyrrolizin-1-yl]methyl ester

> <PUBCHEM_IUPAC_INCHI>
InChI=1S/C21H33NO7/c1-7-13(2)18(23)29-16-9-11-22-10-8-15(17(16)22)12-28-19(24)21(26,14(3)27-6)20(4,5)25/h7-8,14,16-17,25-26H,9-12H2,1-6H3/t14-,16+,17-,21+/m1/s1

> <PUBCHEM_IUPAC_INCHIKEY>
QHOZSLCIKHUPSU-GAYYXQCQSA-N

> <PUBCHEM_XLOGP3_AA>
0.5

> <PUBCHEM_EXACT_MASS>
411.225702

> <PUBCHEM_MOLECULAR_FORMULA>
C21H33NO7

> <PUBCHEM_MOLECULAR_WEIGHT>
411.48922

> <PUBCHEM_OPENEYE_CAN_SMILES>
CC=C(C)C(=O)OC1CCN2C1C(=CC2)COC(=O)C(C(C)OC)(C(C)(C)O)O

> <PUBCHEM_OPENEYE_ISO_SMILES>
CC=C(C)C(=O)O[C@H]1CCN2[C@@H]1C(=CC2)COC(=O)[C@@]([C@@H](C)OC)(C(C)(C)O)O

> <PUBCHEM_CACTVS_TPSA>
106

> <PUBCHEM_MONOISOTOPIC_WEIGHT>
411.225702

> <PUBCHEM_TOTAL_CHARGE>
0

> <PUBCHEM_HEAVY_ATOM_COUNT>
29

> <PUBCHEM_ATOM_DEF_STEREO_COUNT>
4

> <PUBCHEM_ATOM_UDEF_STEREO_COUNT>
0

> <PUBCHEM_BOND_DEF_STEREO_COUNT>
0

> <PUBCHEM_BOND_UDEF_STEREO_COUNT>
1

> <PUBCHEM_ISOTOPIC_ATOM_COUNT>
0

> <PUBCHEM_COMPONENT_COUNT>
1

> <PUBCHEM_CACTVS_TAUTO_COUNT>
1

> <PUBCHEM_COORDINATE_TYPE>
1
5
255

> <PUBCHEM_BONDANNOTATIONS>
10  1  5
25  28  1
17  3  5
19  5  6
9  30  5

$$$$

