51263
  -OEChem-07051212542D

 62 64  0     0  0  0  0  0  0999 V2000
    3.1261    3.0147    0.0000 O   0  0  0  0  0  0  0  0  0  0  0  0
    3.6261    3.8807    0.0000 O   0  0  0  0  0  0  0  0  0  0  0  0
    2.0000   -2.6301    0.0000 O   0  0  0  0  0  0  0  0  0  0  0  0
    4.6261    0.1487    0.0000 N   0  0  0  0  0  0  0  0  0  0  0  0
    5.1261    3.0147    0.0000 N   0  0  0  0  0  0  0  0  0  0  0  0
    3.7601   -2.3514    0.0000 N   0  0  0  0  0  0  0  0  0  0  0  0
    4.5691   -2.9391    0.0000 N   0  0  0  0  0  0  0  0  0  0  0  0
    3.2601   -3.8902    0.0000 N   0  0  0  0  0  0  0  0  0  0  0  0
    4.2601   -3.8902    0.0000 N   0  0  0  0  0  0  0  0  0  0  0  0
    4.6261    2.1486    0.0000 C   0  0  0  0  0  0  0  0  0  0  0  0
    5.4921    1.6486    0.0000 C   0  0  0  0  0  0  0  0  0  0  0  0
    3.7601    1.6486    0.0000 C   0  0  0  0  0  0  0  0  0  0  0  0
    5.4921    0.6487    0.0000 C   0  0  0  0  0  0  0  0  0  0  0  0
    3.7601    0.6487    0.0000 C   0  0  0  0  0  0  0  0  0  0  0  0
    4.1261    3.0147    0.0000 C   0  0  0  0  0  0  0  0  0  0  0  0
    4.6261   -0.8513    0.0000 C   0  0  0  0  0  0  0  0  0  0  0  0
    6.1261    3.0147    0.0000 C   0  0  0  0  0  0  0  0  0  0  0  0
    4.6261    3.8807    0.0000 C   0  0  0  0  0  0  0  0  0  0  0  0
    3.7601   -1.3514    0.0000 C   0  0  0  0  0  0  0  0  0  0  0  0
    5.1261    4.7467    0.0000 C   0  0  0  0  0  0  0  0  0  0  0  0
    6.6261    2.1486    0.0000 C   0  0  0  0  0  0  0  0  0  0  0  0
    6.6261    3.8807    0.0000 C   0  0  0  0  0  0  0  0  0  0  0  0
    2.6261    3.8807    0.0000 C   0  0  0  0  0  0  0  0  0  0  0  0
    4.6261    5.6128    0.0000 C   0  0  0  0  0  0  0  0  0  0  0  0
    7.6261    2.1486    0.0000 C   0  0  0  0  0  0  0  0  0  0  0  0
    7.6261    3.8807    0.0000 C   0  0  0  0  0  0  0  0  0  0  0  0
    2.9511   -2.9391    0.0000 C   0  0  0  0  0  0  0  0  0  0  0  0
    8.1261    3.0147    0.0000 C   0  0  0  0  0  0  0  0  0  0  0  0
    2.6723   -4.6992    0.0000 C   0  0  0  0  0  0  0  0  0  0  0  0
    3.0790   -5.6128    0.0000 C   0  0  0  0  0  0  0  0  0  0  0  0
    6.1027    1.5410    0.0000 H   0  0  0  0  0  0  0  0  0  0  0  0
    5.7042    2.2313    0.0000 H   0  0  0  0  0  0  0  0  0  0  0  0
    3.5480    2.2313    0.0000 H   0  0  0  0  0  0  0  0  0  0  0  0
    3.1495    1.5410    0.0000 H   0  0  0  0  0  0  0  0  0  0  0  0
    5.7042    0.0660    0.0000 H   0  0  0  0  0  0  0  0  0  0  0  0
    6.1027    0.7563    0.0000 H   0  0  0  0  0  0  0  0  0  0  0  0
    3.1495    0.7563    0.0000 H   0  0  0  0  0  0  0  0  0  0  0  0
    3.5480    0.0660    0.0000 H   0  0  0  0  0  0  0  0  0  0  0  0
    4.7087    3.2267    0.0000 H   0  0  0  0  0  0  0  0  0  0  0  0
    4.0184    3.6253    0.0000 H   0  0  0  0  0  0  0  0  0  0  0  0
    4.8382   -1.4340    0.0000 H   0  0  0  0  0  0  0  0  0  0  0  0
    5.2367   -0.7437    0.0000 H   0  0  0  0  0  0  0  0  0  0  0  0
    3.5480   -0.7687    0.0000 H   0  0  0  0  0  0  0  0  0  0  0  0
    3.1495   -1.4590    0.0000 H   0  0  0  0  0  0  0  0  0  0  0  0
    5.6010    4.3482    0.0000 H   0  0  0  0  0  0  0  0  0  0  0  0
    5.6010    5.1453    0.0000 H   0  0  0  0  0  0  0  0  0  0  0  0
    6.3161    1.6117    0.0000 H   0  0  0  0  0  0  0  0  0  0  0  0
    6.3161    4.4176    0.0000 H   0  0  0  0  0  0  0  0  0  0  0  0
    3.1630    4.1907    0.0000 H   0  0  0  0  0  0  0  0  0  0  0  0
    2.3161    4.4176    0.0000 H   0  0  0  0  0  0  0  0  0  0  0  0
    2.0892    3.5707    0.0000 H   0  0  0  0  0  0  0  0  0  0  0  0
    5.1630    5.9228    0.0000 H   0  0  0  0  0  0  0  0  0  0  0  0
    4.3161    6.1497    0.0000 H   0  0  0  0  0  0  0  0  0  0  0  0
    4.0892    5.3027    0.0000 H   0  0  0  0  0  0  0  0  0  0  0  0
    7.9361    1.6117    0.0000 H   0  0  0  0  0  0  0  0  0  0  0  0
    7.9361    4.4176    0.0000 H   0  0  0  0  0  0  0  0  0  0  0  0
    8.7461    3.0147    0.0000 H   0  0  0  0  0  0  0  0  0  0  0  0
    2.2416   -4.2532    0.0000 H   0  0  0  0  0  0  0  0  0  0  0  0
    2.1583   -5.0459    0.0000 H   0  0  0  0  0  0  0  0  0  0  0  0
    2.5126   -5.8649    0.0000 H   0  0  0  0  0  0  0  0  0  0  0  0
    3.3312   -6.1792    0.0000 H   0  0  0  0  0  0  0  0  0  0  0  0
    3.6454   -5.3606    0.0000 H   0  0  0  0  0  0  0  0  0  0  0  0
  1 15  1  0  0  0  0
  1 23  1  0  0  0  0
  2 18  2  0  0  0  0
  3 27  2  0  0  0  0
  4 13  1  0  0  0  0
  4 14  1  0  0  0  0
  4 16  1  0  0  0  0
  5 10  1  0  0  0  0
  5 17  1  0  0  0  0
  5 18  1  0  0  0  0
  6  7  1  0  0  0  0
  6 19  1  0  0  0  0
  6 27  1  0  0  0  0
  7  9  2  0  0  0  0
  8  9  1  0  0  0  0
  8 27  1  0  0  0  0
  8 29  1  0  0  0  0
 10 11  1  0  0  0  0
 10 12  1  0  0  0  0
 10 15  1  0  0  0  0
 11 13  1  0  0  0  0
 11 31  1  0  0  0  0
 11 32  1  0  0  0  0
 12 14  1  0  0  0  0
 12 33  1  0  0  0  0
 12 34  1  0  0  0  0
 13 35  1  0  0  0  0
 13 36  1  0  0  0  0
 14 37  1  0  0  0  0
 14 38  1  0  0  0  0
 15 39  1  0  0  0  0
 15 40  1  0  0  0  0
 16 19  1  0  0  0  0
 16 41  1  0  0  0  0
 16 42  1  0  0  0  0
 17 21  2  0  0  0  0
 17 22  1  0  0  0  0
 18 20  1  0  0  0  0
 19 43  1  0  0  0  0
 19 44  1  0  0  0  0
 20 24  1  0  0  0  0
 20 45  1  0  0  0  0
 20 46  1  0  0  0  0
 21 25  1  0  0  0  0
 21 47  1  0  0  0  0
 22 26  2  0  0  0  0
 22 48  1  0  0  0  0
 23 49  1  0  0  0  0
 23 50  1  0  0  0  0
 23 51  1  0  0  0  0
 24 52  1  0  0  0  0
 24 53  1  0  0  0  0
 24 54  1  0  0  0  0
 25 28  2  0  0  0  0
 25 55  1  0  0  0  0
 26 28  1  0  0  0  0
 26 56  1  0  0  0  0
 28 57  1  0  0  0  0
 29 30  1  0  0  0  0
 29 58  1  0  0  0  0
 29 59  1  0  0  0  0
 30 60  1  0  0  0  0
 30 61  1  0  0  0  0
 30 62  1  0  0  0  0
M  END
> <PUBCHEM_COMPOUND_CID>
51263

> <PUBCHEM_COMPOUND_CANONICALIZED>
1

> <PUBCHEM_CACTVS_COMPLEXITY>
614

> <PUBCHEM_CACTVS_HBOND_ACCEPTOR>
6

> <PUBCHEM_CACTVS_HBOND_DONOR>
0

> <PUBCHEM_CACTVS_ROTATABLE_BOND>
9

> <PUBCHEM_CACTVS_SUBSKEYS>
AAADcfB7sAAAAAAAAAAAAAAAAAAAAQAAAAA8QAAAAAAAAAABAAAAHgAIAAAADIjhkAYzwIMABACKACVSUACCAAAhAgAeiAEIZIiKYCLA0ZGVIAhshgLYyAcwAAAKAAAAAAAAAAAAAAAAAAAAAAAAAAAAAA==

> <PUBCHEM_IUPAC_OPENEYE_NAME>
N-[1-[2-(4-ethyl-5-oxo-tetrazol-1-yl)ethyl]-4-(methoxymethyl)-4-piperidyl]-N-phenyl-propanamide

> <PUBCHEM_IUPAC_CAS_NAME>
N-[1-[2-(4-ethyl-5-oxo-1-tetrazolyl)ethyl]-4-(methoxymethyl)-4-piperidinyl]-N-phenylpropanamide

> <PUBCHEM_IUPAC_NAME>
N-[1-[2-(4-ethyl-5-oxotetrazol-1-yl)ethyl]-4-(methoxymethyl)piperidin-4-yl]-N-phenylpropanamide

> <PUBCHEM_IUPAC_SYSTEMATIC_NAME>
N-[1-[2-(4-ethyl-5-oxidanylidene-1,2,3,4-tetrazol-1-yl)ethyl]-4-(methoxymethyl)piperidin-4-yl]-N-phenyl-propanamide

> <PUBCHEM_IUPAC_TRADITIONAL_NAME>
N-[1-[2-(4-ethyl-5-keto-tetrazol-1-yl)ethyl]-4-(methoxymethyl)-4-piperidyl]-N-phenyl-propionamide

> <PUBCHEM_IUPAC_INCHI>
InChI=1S/C21H32N6O3/c1-4-19(28)27(18-9-7-6-8-10-18)21(17-30-3)11-13-24(14-12-21)15-16-26-20(29)25(5-2)22-23-26/h6-10H,4-5,11-17H2,1-3H3

> <PUBCHEM_IUPAC_INCHIKEY>
IDBPHNDTYPBSNI-UHFFFAOYSA-N

> <PUBCHEM_XLOGP3>
2.2

> <PUBCHEM_EXACT_MASS>
416.253589

> <PUBCHEM_MOLECULAR_FORMULA>
C21H32N6O3

> <PUBCHEM_MOLECULAR_WEIGHT>
416.51718

> <PUBCHEM_OPENEYE_CAN_SMILES>
CCC(=O)N(C1=CC=CC=C1)C2(CCN(CC2)CCN3C(=O)N(N=N3)CC)COC

> <PUBCHEM_OPENEYE_ISO_SMILES>
CCC(=O)N(C1=CC=CC=C1)C2(CCN(CC2)CCN3C(=O)N(N=N3)CC)COC

> <PUBCHEM_CACTVS_TPSA>
81

> <PUBCHEM_MONOISOTOPIC_WEIGHT>
416.253589

> <PUBCHEM_TOTAL_CHARGE>
0

> <PUBCHEM_HEAVY_ATOM_COUNT>
30

> <PUBCHEM_ATOM_DEF_STEREO_COUNT>
0

> <PUBCHEM_ATOM_UDEF_STEREO_COUNT>
0

> <PUBCHEM_BOND_DEF_STEREO_COUNT>
0

> <PUBCHEM_BOND_UDEF_STEREO_COUNT>
0

> <PUBCHEM_ISOTOPIC_ATOM_COUNT>
0

> <PUBCHEM_COMPONENT_COUNT>
1

> <PUBCHEM_CACTVS_TAUTO_COUNT>
1

> <PUBCHEM_COORDINATE_TYPE>
1
5
255

> <PUBCHEM_BONDANNOTATIONS>
17  21  8
17  22  8
21  25  8
22  26  8
25  28  8
26  28  8
6  27  8
6  7  8
7  9  8
8  27  8
8  9  8

$$$$

