441106
  -OEChem-07051212522D

 43 46  0     0  0  0  0  0  0999 V2000
    6.9338    1.9722    0.0000 O   0  0  0  0  0  0  0  0  0  0  0  0
    8.6822    2.0068    0.0000 O   0  0  0  0  0  0  0  0  0  0  0  0
    5.1854    2.0068    0.0000 O   0  0  0  0  0  0  0  0  0  0  0  0
    5.1854   -2.0623    0.0000 O   0  0  0  0  0  0  0  0  0  0  0  0
   10.5194    2.0499    0.0000 O   0  0  0  0  0  0  0  0  0  0  0  0
    3.4037   -1.0519    0.0000 O   0  0  0  0  0  0  0  0  0  0  0  0
    3.4075    1.9964    0.0000 O   0  0  0  0  0  0  0  0  0  0  0  0
    2.5357    0.4997    0.0000 N   0  0  0  0  0  0  0  0  0  0  0  0
    7.7998   -0.5277    0.0000 C   0  0  0  0  0  0  0  0  0  0  0  0
    7.7998    0.4723    0.0000 C   0  0  0  0  0  0  0  0  0  0  0  0
    8.6938   -1.0624    0.0000 C   0  0  0  0  0  0  0  0  0  0  0  0
    6.0678    0.4723    0.0000 C   0  0  0  0  0  0  0  0  0  0  0  0
    6.0678   -0.5277    0.0000 C   0  0  0  0  0  0  0  0  0  0  0  0
    9.5998   -0.5486    0.0000 C   0  0  0  0  0  0  0  0  0  0  0  0
    9.5998    0.4931    0.0000 C   0  0  0  0  0  0  0  0  0  0  0  0
    6.9338    0.9723    0.0000 C   0  0  0  0  0  0  0  0  0  0  0  0
    6.9338   -1.0278    0.0000 C   0  0  0  0  0  0  0  0  0  0  0  0
    8.6938    1.0069    0.0000 C   0  0  0  0  0  0  0  0  0  0  0  0
    5.1738    1.0069    0.0000 C   0  0  0  0  0  0  0  0  0  0  0  0
    5.1738   -1.0624    0.0000 C   0  0  0  0  0  0  0  0  0  0  0  0
    8.6822   -2.0623    0.0000 C   0  0  0  0  0  0  0  0  0  0  0  0
   10.5310    1.0500    0.0000 C   0  0  0  0  0  0  0  0  0  0  0  0
   10.5310   -1.1055    0.0000 C   0  0  0  0  0  0  0  0  0  0  0  0
    4.2678    0.4931    0.0000 C   0  0  0  0  0  0  0  0  0  0  0  0
    4.2678   -0.5486    0.0000 C   0  0  0  0  0  0  0  0  0  0  0  0
   11.4748    0.5148    0.0000 C   0  0  0  0  0  0  0  0  0  0  0  0
   11.4748   -0.5702    0.0000 C   0  0  0  0  0  0  0  0  0  0  0  0
    3.4037    0.9964    0.0000 C   0  0  0  0  0  0  0  0  0  0  0  0
    6.9338   -1.6478    0.0000 H   0  0  0  0  0  0  0  0  0  0  0  0
    8.0622   -2.0552    0.0000 H   0  0  0  0  0  0  0  0  0  0  0  0
    8.6750   -2.6823    0.0000 H   0  0  0  0  0  0  0  0  0  0  0  0
    9.3022   -2.0695    0.0000 H   0  0  0  0  0  0  0  0  0  0  0  0
   10.5238   -1.7254    0.0000 H   0  0  0  0  0  0  0  0  0  0  0  0
   12.0105    0.8268    0.0000 H   0  0  0  0  0  0  0  0  0  0  0  0
   12.0105   -0.8823    0.0000 H   0  0  0  0  0  0  0  0  0  0  0  0
    7.4707    2.2822    0.0000 H   0  0  0  0  0  0  0  0  0  0  0  0
    9.2155    2.3230    0.0000 H   0  0  0  0  0  0  0  0  0  0  0  0
    4.6521    2.3230    0.0000 H   0  0  0  0  0  0  0  0  0  0  0  0
    5.7259   -2.3661    0.0000 H   0  0  0  0  0  0  0  0  0  0  0  0
   11.0528    2.3661    0.0000 H   0  0  0  0  0  0  0  0  0  0  0  0
    3.4061   -1.6719    0.0000 H   0  0  0  0  0  0  0  0  0  0  0  0
    2.0000    0.8118    0.0000 H   0  0  0  0  0  0  0  0  0  0  0  0
    2.5334   -0.1202    0.0000 H   0  0  0  0  0  0  0  0  0  0  0  0
  1 16  1  0  0  0  0
  1 36  1  0  0  0  0
  2 18  1  0  0  0  0
  2 37  1  0  0  0  0
  3 19  1  0  0  0  0
  3 38  1  0  0  0  0
  4 20  1  0  0  0  0
  4 39  1  0  0  0  0
  5 22  1  0  0  0  0
  5 40  1  0  0  0  0
  6 25  1  0  0  0  0
  6 41  1  0  0  0  0
  7 28  2  0  0  0  0
  8 28  1  0  0  0  0
  8 42  1  0  0  0  0
  8 43  1  0  0  0  0
  9 10  1  0  0  0  0
  9 11  1  0  0  0  0
  9 17  2  0  0  0  0
 10 16  2  0  0  0  0
 10 18  1  0  0  0  0
 11 14  2  0  0  0  0
 11 21  1  0  0  0  0
 12 13  2  0  0  0  0
 12 16  1  0  0  0  0
 12 19  1  0  0  0  0
 13 17  1  0  0  0  0
 13 20  1  0  0  0  0
 14 15  1  0  0  0  0
 14 23  1  0  0  0  0
 15 18  2  0  0  0  0
 15 22  1  0  0  0  0
 17 29  1  0  0  0  0
 19 24  2  0  0  0  0
 20 25  2  0  0  0  0
 21 30  1  0  0  0  0
 21 31  1  0  0  0  0
 21 32  1  0  0  0  0
 22 26  2  0  0  0  0
 23 27  2  0  0  0  0
 23 33  1  0  0  0  0
 24 25  1  0  0  0  0
 24 28  1  0  0  0  0
 26 27  1  0  0  0  0
 26 34  1  0  0  0  0
 27 35  1  0  0  0  0
M  END
> <PUBCHEM_COMPOUND_CID>
441106

> <PUBCHEM_COMPOUND_CANONICALIZED>
1

> <PUBCHEM_CACTVS_COMPLEXITY>
617

> <PUBCHEM_CACTVS_HBOND_ACCEPTOR>
7

> <PUBCHEM_CACTVS_HBOND_DONOR>
7

> <PUBCHEM_CACTVS_ROTATABLE_BOND>
1

> <PUBCHEM_CACTVS_SUBSKEYS>
AAADccB6OAAAAAAAAAAAAAAAAAAAAAAAAAAwYMGAAAAAAADBVAAAHgAQCAAADASBmAAyBsBAAgCIAiFSEACCAAAkIAAIiAEGjMgJJzaClROAcUFn4BUJmQf6/PTO4QADCAAYQADCAAYQADCAAAAAAAAAAA==

> <PUBCHEM_IUPAC_OPENEYE_NAME>
1,3,4,10,11,12-hexahydroxy-6-methyl-tetracene-2-carboxamide

> <PUBCHEM_IUPAC_CAS_NAME>
1,3,4,10,11,12-hexahydroxy-6-methyl-2-tetracenecarboxamide

> <PUBCHEM_IUPAC_NAME>
1,3,4,10,11,12-hexahydroxy-6-methyltetracene-2-carboxamide

> <PUBCHEM_IUPAC_SYSTEMATIC_NAME>
6-methyl-1,3,4,10,11,12-hexakis(oxidanyl)tetracene-2-carboxamide

> <PUBCHEM_IUPAC_TRADITIONAL_NAME>
1,3,4,10,11,12-hexahydroxy-6-methyl-tetracene-2-carboxamide

> <PUBCHEM_IUPAC_INCHI>
InChI=1S/C20H15NO7/c1-6-7-3-2-4-10(22)11(7)16(24)12-8(6)5-9-13(17(12)25)18(26)14(20(21)28)19(27)15(9)23/h2-5,22-27H,1H3,(H2,21,28)

> <PUBCHEM_IUPAC_INCHIKEY>
WSYJHDYOVBGOSR-UHFFFAOYSA-N

> <PUBCHEM_XLOGP3_AA>
4.4

> <PUBCHEM_EXACT_MASS>
381.084852

> <PUBCHEM_MOLECULAR_FORMULA>
C20H15NO7

> <PUBCHEM_MOLECULAR_WEIGHT>
381.3356

> <PUBCHEM_OPENEYE_CAN_SMILES>
CC1=C2C=CC=C(C2=C(C3=C(C4=C(C=C13)C(=C(C(=C4O)C(=O)N)O)O)O)O)O

> <PUBCHEM_OPENEYE_ISO_SMILES>
CC1=C2C=CC=C(C2=C(C3=C(C4=C(C=C13)C(=C(C(=C4O)C(=O)N)O)O)O)O)O

> <PUBCHEM_CACTVS_TPSA>
165

> <PUBCHEM_MONOISOTOPIC_WEIGHT>
381.084852

> <PUBCHEM_TOTAL_CHARGE>
0

> <PUBCHEM_HEAVY_ATOM_COUNT>
28

> <PUBCHEM_ATOM_DEF_STEREO_COUNT>
0

> <PUBCHEM_ATOM_UDEF_STEREO_COUNT>
0

> <PUBCHEM_BOND_DEF_STEREO_COUNT>
0

> <PUBCHEM_BOND_UDEF_STEREO_COUNT>
0

> <PUBCHEM_ISOTOPIC_ATOM_COUNT>
0

> <PUBCHEM_COMPONENT_COUNT>
1

> <PUBCHEM_CACTVS_TAUTO_COUNT>
997

> <PUBCHEM_COORDINATE_TYPE>
1
5
255

> <PUBCHEM_BONDANNOTATIONS>
10  16  8
10  18  8
11  14  8
12  13  8
12  16  8
12  19  8
13  17  8
13  20  8
14  15  8
14  23  8
15  18  8
15  22  8
19  24  8
20  25  8
22  26  8
23  27  8
24  25  8
26  27  8
9  10  8
9  11  8
9  17  8

$$$$

