441893
  -OEChem-07051212563D

 73 78  0     1  0  0  0  0  0999 V2000
    3.5114    0.9105   -0.3382 O   0  0  0  0  0  0  0  0  0  0  0  0
    4.9827   -0.3061    1.1015 O   0  0  0  0  0  0  0  0  0  0  0  0
   -4.6602   -2.4619    0.2820 O   0  0  0  0  0  0  0  0  0  0  0  0
   -7.9618    0.9988    0.2079 O   0  0  0  0  0  0  0  0  0  0  0  0
    0.6062   -0.8620   -0.0900 C   0  0  1  0  0  0  0  0  0  0  0  0
    0.0143    0.5037    0.3246 C   0  0  2  0  0  0  0  0  0  0  0  0
    2.0298   -0.7495    0.5326 C   0  0  2  0  0  0  0  0  0  0  0  0
   -1.4028    0.7405   -0.2038 C   0  0  1  0  0  0  0  0  0  0  0  0
    2.3572    0.7583    0.4824 C   0  0  2  0  0  0  0  0  0  0  0  0
   -2.3537   -0.3892    0.3018 C   0  0  2  0  0  0  0  0  0  0  0  0
    1.1215    1.4832   -0.0505 C   0  0  0  0  0  0  0  0  0  0  0  0
   -0.2752   -1.9399    0.5537 C   0  0  0  0  0  0  0  0  0  0  0  0
    3.2226   -1.4058   -0.1721 C   0  0  1  0  0  0  0  0  0  0  0  0
   -1.7460   -1.8099    0.1179 C   0  0  0  0  0  0  0  0  0  0  0  0
   -3.8261   -0.2041   -0.2761 C   0  0  2  0  0  0  0  0  0  0  0  0
    4.2906   -0.2931   -0.1557 C   0  0  1  0  0  0  0  0  0  0  0  0
    0.6403   -1.0709   -1.6244 C   0  0  0  0  0  0  0  0  0  0  0  0
   -1.9224    2.1107    0.2525 C   0  0  0  0  0  0  0  0  0  0  0  0
   -4.2541    1.2732   -0.1807 C   0  0  0  0  0  0  0  0  0  0  0  0
   -4.8282   -1.0730    0.5631 C   0  0  1  0  0  0  0  0  0  0  0  0
    3.6331   -2.7200    0.4810 C   0  0  0  0  0  0  0  0  0  0  0  0
    5.2883   -0.4395   -1.3103 C   0  0  0  0  0  0  0  0  0  0  0  0
   -3.3947    2.2757    0.0714 C   0  0  0  0  0  0  0  0  0  0  0  0
   -3.8860   -0.6077   -1.7713 C   0  0  0  0  0  0  0  0  0  0  0  0
   -5.7181    1.5865   -0.3806 C   0  0  0  0  0  0  0  0  0  0  0  0
   -6.3053   -0.7437    0.3214 C   0  0  0  0  0  0  0  0  0  0  0  0
   -6.5985    0.7355    0.5240 C   0  0  2  0  0  0  0  0  0  0  0  0
    6.3854    0.6198   -1.2332 C   0  0  0  0  0  0  0  0  0  0  0  0
    7.0325    0.6160    0.1539 C   0  0  2  0  0  0  0  0  0  0  0  0
    5.9540    0.7316    1.2310 C   0  0  0  0  0  0  0  0  0  0  0  0
    8.0631    1.7323    0.2843 C   0  0  0  0  0  0  0  0  0  0  0  0
   -0.0578    0.5270    1.4258 H   0  0  0  0  0  0  0  0  0  0  0  0
    1.9884   -1.0487    1.5891 H   0  0  0  0  0  0  0  0  0  0  0  0
   -1.3856    0.7441   -1.2991 H   0  0  0  0  0  0  0  0  0  0  0  0
    2.6004    1.1232    1.4887 H   0  0  0  0  0  0  0  0  0  0  0  0
   -2.4267   -0.2506    1.3930 H   0  0  0  0  0  0  0  0  0  0  0  0
    1.1821    1.6650   -1.1285 H   0  0  0  0  0  0  0  0  0  0  0  0
    0.9965    2.4546    0.4386 H   0  0  0  0  0  0  0  0  0  0  0  0
   -0.2297   -1.8636    1.6480 H   0  0  0  0  0  0  0  0  0  0  0  0
    0.0958   -2.9403    0.3000 H   0  0  0  0  0  0  0  0  0  0  0  0
    2.9868   -1.6211   -1.2170 H   0  0  0  0  0  0  0  0  0  0  0  0
   -1.8256   -2.1323   -0.9236 H   0  0  0  0  0  0  0  0  0  0  0  0
   -2.3151   -2.5338    0.7094 H   0  0  0  0  0  0  0  0  0  0  0  0
    1.3150   -0.3692   -2.1250 H   0  0  0  0  0  0  0  0  0  0  0  0
    0.9714   -2.0868   -1.8691 H   0  0  0  0  0  0  0  0  0  0  0  0
   -0.3386   -0.9507   -2.0955 H   0  0  0  0  0  0  0  0  0  0  0  0
   -1.4095    2.8959   -0.3160 H   0  0  0  0  0  0  0  0  0  0  0  0
   -1.6902    2.2820    1.3109 H   0  0  0  0  0  0  0  0  0  0  0  0
   -4.6159   -0.9304    1.6308 H   0  0  0  0  0  0  0  0  0  0  0  0
    4.5163   -3.1406   -0.0096 H   0  0  0  0  0  0  0  0  0  0  0  0
    3.8636   -2.5951    1.5440 H   0  0  0  0  0  0  0  0  0  0  0  0
    2.8237   -3.4534    0.4014 H   0  0  0  0  0  0  0  0  0  0  0  0
    4.7784   -0.3500   -2.2766 H   0  0  0  0  0  0  0  0  0  0  0  0
    5.7628   -1.4275   -1.2692 H   0  0  0  0  0  0  0  0  0  0  0  0
   -3.7662    3.2950    0.1476 H   0  0  0  0  0  0  0  0  0  0  0  0
   -3.1880   -0.0216   -2.3783 H   0  0  0  0  0  0  0  0  0  0  0  0
   -3.6519   -1.6646   -1.9276 H   0  0  0  0  0  0  0  0  0  0  0  0
   -4.8824   -0.4512   -2.1985 H   0  0  0  0  0  0  0  0  0  0  0  0
   -5.9344    2.6464   -0.1925 H   0  0  0  0  0  0  0  0  0  0  0  0
   -5.9907    1.4270   -1.4316 H   0  0  0  0  0  0  0  0  0  0  0  0
   -6.9365   -1.3401    0.9935 H   0  0  0  0  0  0  0  0  0  0  0  0
   -6.6136   -1.0627   -0.6833 H   0  0  0  0  0  0  0  0  0  0  0  0
   -6.4406    1.0026    1.5760 H   0  0  0  0  0  0  0  0  0  0  0  0
    7.1395    0.4254   -2.0049 H   0  0  0  0  0  0  0  0  0  0  0  0
    5.9572    1.6071   -1.4477 H   0  0  0  0  0  0  0  0  0  0  0  0
    7.5430   -0.3479    0.2817 H   0  0  0  0  0  0  0  0  0  0  0  0
    6.4043    0.6320    2.2245 H   0  0  0  0  0  0  0  0  0  0  0  0
    5.4529    1.7065    1.2006 H   0  0  0  0  0  0  0  0  0  0  0  0
   -5.2487   -2.9574    0.8768 H   0  0  0  0  0  0  0  0  0  0  0  0
    8.8447    1.6295   -0.4757 H   0  0  0  0  0  0  0  0  0  0  0  0
    7.6007    2.7178    0.1632 H   0  0  0  0  0  0  0  0  0  0  0  0
    8.5446    1.7029    1.2674 H   0  0  0  0  0  0  0  0  0  0  0  0
   -8.1220    1.9453    0.3633 H   0  0  0  0  0  0  0  0  0  0  0  0
  1  9  1  0  0  0  0
  1 16  1  0  0  0  0
  2 16  1  0  0  0  0
  2 30  1  0  0  0  0
  3 20  1  0  0  0  0
  3 69  1  0  0  0  0
  4 27  1  0  0  0  0
  4 73  1  0  0  0  0
  5  6  1  0  0  0  0
  5  7  1  0  0  0  0
  5 12  1  0  0  0  0
  5 17  1  0  0  0  0
  6  8  1  0  0  0  0
  6 11  1  0  0  0  0
  6 32  1  0  0  0  0
  7  9  1  0  0  0  0
  7 13  1  0  0  0  0
  7 33  1  0  0  0  0
  8 10  1  0  0  0  0
  8 18  1  0  0  0  0
  8 34  1  0  0  0  0
  9 11  1  0  0  0  0
  9 35  1  0  0  0  0
 10 14  1  0  0  0  0
 10 15  1  0  0  0  0
 10 36  1  0  0  0  0
 11 37  1  0  0  0  0
 11 38  1  0  0  0  0
 12 14  1  0  0  0  0
 12 39  1  0  0  0  0
 12 40  1  0  0  0  0
 13 16  1  0  0  0  0
 13 21  1  0  0  0  0
 13 41  1  0  0  0  0
 14 42  1  0  0  0  0
 14 43  1  0  0  0  0
 15 19  1  0  0  0  0
 15 20  1  0  0  0  0
 15 24  1  0  0  0  0
 16 22  1  0  0  0  0
 17 44  1  0  0  0  0
 17 45  1  0  0  0  0
 17 46  1  0  0  0  0
 18 23  1  0  0  0  0
 18 47  1  0  0  0  0
 18 48  1  0  0  0  0
 19 23  2  0  0  0  0
 19 25  1  0  0  0  0
 20 26  1  0  0  0  0
 20 49  1  0  0  0  0
 21 50  1  0  0  0  0
 21 51  1  0  0  0  0
 21 52  1  0  0  0  0
 22 28  1  0  0  0  0
 22 53  1  0  0  0  0
 22 54  1  0  0  0  0
 23 55  1  0  0  0  0
 24 56  1  0  0  0  0
 24 57  1  0  0  0  0
 24 58  1  0  0  0  0
 25 27  1  0  0  0  0
 25 59  1  0  0  0  0
 25 60  1  0  0  0  0
 26 27  1  0  0  0  0
 26 61  1  0  0  0  0
 26 62  1  0  0  0  0
 27 63  1  0  0  0  0
 28 29  1  0  0  0  0
 28 64  1  0  0  0  0
 28 65  1  0  0  0  0
 29 30  1  0  0  0  0
 29 31  1  0  0  0  0
 29 66  1  0  0  0  0
 30 67  1  0  0  0  0
 30 68  1  0  0  0  0
 31 70  1  0  0  0  0
 31 71  1  0  0  0  0
 31 72  1  0  0  0  0
M  END
> <PUBCHEM_COMPOUND_CID>
441893

> <PUBCHEM_CONFORMER_RMSD>
0.8

> <PUBCHEM_CONFORMER_DIVERSEORDER>
1

> <PUBCHEM_MMFF94_PARTIAL_CHARGES>
17
1 -0.56
15 0.14
16 0.56
18 0.14
19 -0.28
2 -0.56
20 0.28
23 -0.29
25 0.14
27 0.28
3 -0.68
30 0.28
4 -0.68
55 0.15
69 0.4
73 0.4
9 0.28

> <PUBCHEM_EFFECTIVE_ROTOR_COUNT>
3

> <PUBCHEM_PHARMACOPHORE_FEATURES>
12
1 1 acceptor
1 2 acceptor
1 3 acceptor
1 3 donor
1 4 acceptor
1 4 donor
5 1 7 9 13 16 rings
5 5 6 7 9 11 rings
6 15 19 20 25 26 27 rings
6 2 16 22 28 29 30 rings
6 5 6 8 10 12 14 rings
6 8 10 15 18 19 23 rings

> <PUBCHEM_HEAVY_ATOM_COUNT>
31

> <PUBCHEM_ATOM_DEF_STEREO_COUNT>
12

> <PUBCHEM_ATOM_UDEF_STEREO_COUNT>
0

> <PUBCHEM_BOND_DEF_STEREO_COUNT>
0

> <PUBCHEM_BOND_UDEF_STEREO_COUNT>
0

> <PUBCHEM_ISOTOPIC_ATOM_COUNT>
0

> <PUBCHEM_COMPONENT_COUNT>
1

> <PUBCHEM_CACTVS_TAUTO_COUNT>
1

> <PUBCHEM_CONFORMER_ID>
0006BE2500000001

> <PUBCHEM_MMFF94_ENERGY>
109.6953

> <PUBCHEM_FEATURE_SELFOVERLAP>
61.306

> <PUBCHEM_SHAPE_FINGERPRINT>
10 15 18202563986442912721
10290309 65 18269278031591042359
10411042 1 17907578022315715539
10906281 52 18336250314849684051
11135926 11 18201730564755373238
11181472 205 15792557716875025649
11315181 36 17988645169054218293
11488393 25 16952235754383513926
11578080 2 16879372003679153266
11963148 33 18341336599975286034
12166972 35 17560797697620665917
12236239 1 17632859736896457899
12403259 415 18040723558061461584
12516196 113 18333168370914746448
12788726 201 17895471547992675984
12838862 33 18340221733743617061
13073987 5 18342175617398004706
13533116 47 18340488983904902498
14251764 18 18060420200771265474
14341114 176 18339640139700822875
14394314 77 18335415829160743249
14849402 71 18058444318701161500
14856354 85 18272644611593592943
14933364 13 18408039619450009057
15131766 46 14347517820987182104
15183329 4 18342455945607813137
15196674 1 18339643450751453491
15419008 47 17822013107802020680
15461852 350 16805329873448427949
1577012 14 18342745117324407666
15849732 13 18113616768552789860
16087824 20 18339359790913808009
18335252 98 18342733018807749571
18608769 82 18411136900877146059
18681886 176 18410016494233767417
19377110 9 17775570857588138032
20105231 36 18114731685811791567
20511986 3 17988654024585933039
21033648 29 17749969773297224778
21267235 1 18411412874945008971
21792961 116 17821720655679184322
23402539 116 18409735045395755255
23559900 14 18335145254177429217
23569914 152 16596174448804177580
23576562 1 16951426338248742689
24771293 8 18116449046577758160
3004659 81 18272084989896876004
335352 9 18410857656017201109
34797466 226 17748824125152282364
34934 24 18409735062823855930
350125 39 18411982455352313977
3545911 37 18410574002363157288
4073 2 18202558471230683898
4093350 32 17386001814677193350
4325135 7 18342735225845809700
4340502 62 17275105046414992378
5104073 3 18265054806673868274
5758199 1 18411698794173589177

> <PUBCHEM_SHAPE_MULTIPOLES>
614.49
19.78
2.26
1.08
6.58
0.43
0.33
-6.77
-0.99
-0.67
-0.25
0.62
0.16
0.22

> <PUBCHEM_SHAPE_SELFOVERLAP>
1325.236

> <PUBCHEM_SHAPE_VOLUME>
336.2

> <PUBCHEM_COORDINATE_TYPE>
2
5
10

$$$$

