5281575
  -OEChem-07051212583D

 33 34  0     0  0  0  0  0  0999 V2000
    2.0688   -1.1421    0.1051 O   0  0  0  0  0  0  0  0  0  0  0  0
   -6.0929    0.6173    0.0342 O   0  0  0  0  0  0  0  0  0  0  0  0
    5.0483    1.7287   -0.1886 O   0  0  0  0  0  0  0  0  0  0  0  0
    3.6418   -2.7793    0.2189 O   0  0  0  0  0  0  0  0  0  0  0  0
   -2.0288   -0.1264    0.0596 C   0  0  0  0  0  0  0  0  0  0  0  0
   -0.5797   -0.3921    0.0693 C   0  0  0  0  0  0  0  0  0  0  0  0
    1.7789    0.2377   -0.0080 C   0  0  0  0  0  0  0  0  0  0  0  0
   -2.4886    1.1412    0.3777 C   0  0  0  0  0  0  0  0  0  0  0  0
   -2.9039   -1.1498   -0.2670 C   0  0  0  0  0  0  0  0  0  0  0  0
    0.3777    0.5455   -0.0118 C   0  0  0  0  0  0  0  0  0  0  0  0
   -4.7544    0.3722    0.0423 C   0  0  0  0  0  0  0  0  0  0  0  0
   -3.8608    1.3922    0.3691 C   0  0  0  0  0  0  0  0  0  0  0  0
   -4.2759   -0.8988   -0.2758 C   0  0  0  0  0  0  0  0  0  0  0  0
    2.7474    1.1567   -0.1015 C   0  0  0  0  0  0  0  0  0  0  0  0
    4.1151    0.7242   -0.0874 C   0  0  0  0  0  0  0  0  0  0  0  0
    4.4306   -0.5715    0.0174 C   0  0  0  0  0  0  0  0  0  0  0  0
    3.3638   -1.5885    0.1219 C   0  0  0  0  0  0  0  0  0  0  0  0
   -6.9504   -0.4704   -0.3090 C   0  0  0  0  0  0  0  0  0  0  0  0
    6.3630    1.2033   -0.1664 C   0  0  0  0  0  0  0  0  0  0  0  0
   -0.3193   -1.4459    0.1408 H   0  0  0  0  0  0  0  0  0  0  0  0
   -1.8328    1.9585    0.6599 H   0  0  0  0  0  0  0  0  0  0  0  0
   -2.5457   -2.1447   -0.5185 H   0  0  0  0  0  0  0  0  0  0  0  0
    0.1309    1.5984   -0.1108 H   0  0  0  0  0  0  0  0  0  0  0  0
   -4.2286    2.3828    0.6225 H   0  0  0  0  0  0  0  0  0  0  0  0
   -4.9137   -1.7357   -0.5389 H   0  0  0  0  0  0  0  0  0  0  0  0
    2.5322    2.2165   -0.1883 H   0  0  0  0  0  0  0  0  0  0  0  0
    5.4314   -0.9842    0.0357 H   0  0  0  0  0  0  0  0  0  0  0  0
   -6.7773   -0.8108   -1.3355 H   0  0  0  0  0  0  0  0  0  0  0  0
   -7.9789   -0.0975   -0.2652 H   0  0  0  0  0  0  0  0  0  0  0  0
   -6.8751   -1.2868    0.4174 H   0  0  0  0  0  0  0  0  0  0  0  0
    6.5730    0.5640   -1.0321 H   0  0  0  0  0  0  0  0  0  0  0  0
    6.6041    0.7187    0.7874 H   0  0  0  0  0  0  0  0  0  0  0  0
    7.0463    2.0561   -0.2505 H   0  0  0  0  0  0  0  0  0  0  0  0
  1  7  1  0  0  0  0
  1 17  1  0  0  0  0
  2 11  1  0  0  0  0
  2 18  1  0  0  0  0
  3 15  1  0  0  0  0
  3 19  1  0  0  0  0
  4 17  2  0  0  0  0
  5  6  1  0  0  0  0
  5  8  2  0  0  0  0
  5  9  1  0  0  0  0
  6 10  2  0  0  0  0
  6 20  1  0  0  0  0
  7 10  1  0  0  0  0
  7 14  2  0  0  0  0
  8 12  1  0  0  0  0
  8 21  1  0  0  0  0
  9 13  2  0  0  0  0
  9 22  1  0  0  0  0
 10 23  1  0  0  0  0
 11 12  2  0  0  0  0
 11 13  1  0  0  0  0
 12 24  1  0  0  0  0
 13 25  1  0  0  0  0
 14 15  1  0  0  0  0
 14 26  1  0  0  0  0
 15 16  2  0  0  0  0
 16 17  1  0  0  0  0
 16 27  1  0  0  0  0
 18 28  1  0  0  0  0
 18 29  1  0  0  0  0
 18 30  1  0  0  0  0
 19 31  1  0  0  0  0
 19 32  1  0  0  0  0
 19 33  1  0  0  0  0
M  END
> <PUBCHEM_COMPOUND_CID>
5281575

> <PUBCHEM_CONFORMER_RMSD>
0.6

> <PUBCHEM_CONFORMER_DIVERSEORDER>
1
12
6
9
7
10
8
5
11
3
2
13
4

> <PUBCHEM_MMFF94_PARTIAL_CHARGES>
27
1 -0.23
10 -0.15
11 0.08
12 -0.15
13 -0.15
14 -0.15
15 0.08
16 -0.14
17 0.71
18 0.28
19 0.28
2 -0.36
20 0.15
21 0.15
22 0.15
23 0.15
24 0.15
25 0.15
26 0.15
27 0.15
3 -0.36
4 -0.57
5 0.03
6 -0.18
7 0.08
8 -0.15
9 -0.15

> <PUBCHEM_EFFECTIVE_ROTOR_COUNT>
4

> <PUBCHEM_PHARMACOPHORE_FEATURES>
5
1 2 acceptor
1 3 acceptor
1 4 acceptor
6 1 7 14 15 16 17 rings
6 5 8 9 11 12 13 rings

> <PUBCHEM_HEAVY_ATOM_COUNT>
19

> <PUBCHEM_ATOM_DEF_STEREO_COUNT>
0

> <PUBCHEM_ATOM_UDEF_STEREO_COUNT>
0

> <PUBCHEM_BOND_DEF_STEREO_COUNT>
1

> <PUBCHEM_BOND_UDEF_STEREO_COUNT>
0

> <PUBCHEM_ISOTOPIC_ATOM_COUNT>
0

> <PUBCHEM_COMPONENT_COUNT>
1

> <PUBCHEM_CACTVS_TAUTO_COUNT>
1

> <PUBCHEM_CONFORMER_ID>
0050972700000001

> <PUBCHEM_MMFF94_ENERGY>
69.7704

> <PUBCHEM_FEATURE_SELFOVERLAP>
25.371

> <PUBCHEM_SHAPE_FINGERPRINT>
10411042 1 18051694640931886602
10595046 47 18408323289482010113
10912923 1 18114178678970806891
10968037 39 18408604739163690205
12107183 9 17688024631869646777
12236239 1 18409730681856623473
12788726 201 17385997420783166785
13073987 5 18410008879567760537
13167823 11 18408324414610772631
13533116 47 18335142024409352323
13760787 19 18260268525405639342
14251732 16 18410854322489453059
14251764 18 18409450284304787441
14341114 176 18410848876207080143
14461889 52 18271526381807141114
14528608 73 18408321056325941124
15196674 1 18338234972356658697
15242433 33 18408323285044793415
15250474 111 18261690206731102911
17834072 33 18408324384376878238
17844677 252 18339073908023349685
1813 80 17060333054408826260
18335252 98 18342451501182189211
19427546 62 18271804554592069890
200 152 18187086161453790993
20645477 70 18337390547437388174
21065198 48 18334572490233922129
21150785 3 16153708691628056924
21267235 1 18336258032906181318
220451 1 17967251988408229407
22224240 67 18271812277101608256
23081809 10 18040720298972249465
23402539 116 18113907083009889461
23402655 69 18335421253392168310
23536379 177 18410575111108064153
23559900 14 18335989653516975553
239999 70 18260823835182258854
29717793 49 17894344510372952846
300161 21 18412831273975571197
3004659 81 18410854408346834730
335352 9 18412258442510580230
33824 294 18343584062419712514
34797466 226 17458618987130154324
3545911 37 18411418392959957069
4073 2 18059569153049510626
4214541 1 18337390538815610073
42630746 31 18410573998933281782
4325135 7 18409167692610420628
474 4 18059570244414107012
5104073 3 18411416254087161721
542803 24 17385439929801801721
6025842 7 18409729582382445278
77779 3 18410574011016258963
8272917 22 18409727387574847398
90127 26 17988353896745688601
9971528 1 17917988404026774188

> <PUBCHEM_SHAPE_MULTIPOLES>
367.53
16.25
1.79
0.63
6.46
0.73
0
-2.29
-1.15
-2.01
0.1
0.09
-0.01
-0.67

> <PUBCHEM_SHAPE_SELFOVERLAP>
783.415

> <PUBCHEM_SHAPE_VOLUME>
204.6

> <PUBCHEM_COORDINATE_TYPE>
2
5
10

$$$$

