4634
  -OEChem-07051212533D

 57 58  0     1  0  0  0  0  0999 V2000
   -3.5726   -0.3106    1.1643 O   0  0  0  0  0  0  0  0  0  0  0  0
   -0.1076    0.6048    1.3569 O   0  0  0  0  0  0  0  0  0  0  0  0
   -1.6706    0.1163    2.9786 O   0  0  0  0  0  0  0  0  0  0  0  0
    4.7279    0.1795   -0.4583 N   0  0  0  0  0  0  0  0  0  0  0  0
   -1.8230   -1.2976   -0.1049 C   0  0  0  0  0  0  0  0  0  0  0  0
   -2.7980   -1.6560   -1.2344 C   0  0  0  0  0  0  0  0  0  0  0  0
   -1.6784   -2.4634    0.8826 C   0  0  0  0  0  0  0  0  0  0  0  0
   -2.2773   -0.0312    0.6184 C   0  0  1  0  0  0  0  0  0  0  0  0
   -2.3941   -2.9492   -1.9387 C   0  0  0  0  0  0  0  0  0  0  0  0
   -1.2761   -3.7552    0.1747 C   0  0  0  0  0  0  0  0  0  0  0  0
   -2.2428   -4.1035   -0.9529 C   0  0  0  0  0  0  0  0  0  0  0  0
   -2.4263    1.2244   -0.2360 C   0  0  0  0  0  0  0  0  0  0  0  0
   -1.3432    0.2276    1.8032 C   0  0  0  0  0  0  0  0  0  0  0  0
   -3.4361    2.1134    0.0623 C   0  0  0  0  0  0  0  0  0  0  0  0
   -1.5463    1.4263   -1.2769 C   0  0  0  0  0  0  0  0  0  0  0  0
   -3.5724    3.2609   -0.7190 C   0  0  0  0  0  0  0  0  0  0  0  0
   -1.6824    2.5738   -2.0580 C   0  0  0  0  0  0  0  0  0  0  0  0
   -2.6954    3.4910   -1.7792 C   0  0  0  0  0  0  0  0  0  0  0  0
    0.8580    0.8850    2.3751 C   0  0  0  0  0  0  0  0  0  0  0  0
    2.1991    0.5755    1.8811 C   0  0  0  0  0  0  0  0  0  0  0  0
    4.6484    0.0135    0.9874 C   0  0  0  0  0  0  0  0  0  0  0  0
    3.7824   -0.7120   -1.1330 C   0  0  0  0  0  0  0  0  0  0  0  0
    6.0900   -0.0733   -0.9327 C   0  0  0  0  0  0  0  0  0  0  0  0
    3.3014    0.3228    1.4763 C   0  0  0  0  0  0  0  0  0  0  0  0
    3.8552   -0.5490   -2.6418 C   0  0  0  0  0  0  0  0  0  0  0  0
    7.0803    0.8863   -0.2950 C   0  0  0  0  0  0  0  0  0  0  0  0
   -0.8292   -1.1497   -0.5480 H   0  0  0  0  0  0  0  0  0  0  0  0
   -2.8554   -0.8642   -1.9877 H   0  0  0  0  0  0  0  0  0  0  0  0
   -3.8139   -1.7966   -0.8463 H   0  0  0  0  0  0  0  0  0  0  0  0
   -2.6200   -2.6386    1.4179 H   0  0  0  0  0  0  0  0  0  0  0  0
   -0.9147   -2.2526    1.6393 H   0  0  0  0  0  0  0  0  0  0  0  0
   -3.1442   -3.2076   -2.6949 H   0  0  0  0  0  0  0  0  0  0  0  0
   -1.4464   -2.7948   -2.4692 H   0  0  0  0  0  0  0  0  0  0  0  0
   -0.2632   -3.6481   -0.2328 H   0  0  0  0  0  0  0  0  0  0  0  0
   -1.2432   -4.5776    0.8983 H   0  0  0  0  0  0  0  0  0  0  0  0
   -3.2234   -4.3522   -0.5289 H   0  0  0  0  0  0  0  0  0  0  0  0
   -1.8876   -4.9955   -1.4810 H   0  0  0  0  0  0  0  0  0  0  0  0
   -4.2500   -0.2199    0.4732 H   0  0  0  0  0  0  0  0  0  0  0  0
   -4.1188    1.9814    0.8954 H   0  0  0  0  0  0  0  0  0  0  0  0
   -0.7363    0.7449   -1.5101 H   0  0  0  0  0  0  0  0  0  0  0  0
   -4.3568    3.9789   -0.4981 H   0  0  0  0  0  0  0  0  0  0  0  0
   -0.9968    2.7557   -2.8805 H   0  0  0  0  0  0  0  0  0  0  0  0
   -2.7999    4.3858   -2.3859 H   0  0  0  0  0  0  0  0  0  0  0  0
    0.7840    1.9478    2.6279 H   0  0  0  0  0  0  0  0  0  0  0  0
    0.6709    0.2983    3.2816 H   0  0  0  0  0  0  0  0  0  0  0  0
    4.9303   -1.0028    1.2911 H   0  0  0  0  0  0  0  0  0  0  0  0
    5.3191    0.7048    1.5081 H   0  0  0  0  0  0  0  0  0  0  0  0
    2.7513   -0.4730   -0.8492 H   0  0  0  0  0  0  0  0  0  0  0  0
    3.9571   -1.7639   -0.8722 H   0  0  0  0  0  0  0  0  0  0  0  0
    6.1693    0.1093   -2.0090 H   0  0  0  0  0  0  0  0  0  0  0  0
    6.4036   -1.1085   -0.7483 H   0  0  0  0  0  0  0  0  0  0  0  0
    3.8370    0.5049   -2.9399 H   0  0  0  0  0  0  0  0  0  0  0  0
    4.7374   -1.0304   -3.0749 H   0  0  0  0  0  0  0  0  0  0  0  0
    2.9846   -1.0303   -3.1021 H   0  0  0  0  0  0  0  0  0  0  0  0
    6.7298    1.9232   -0.3414 H   0  0  0  0  0  0  0  0  0  0  0  0
    7.3008    0.6306    0.7458 H   0  0  0  0  0  0  0  0  0  0  0  0
    8.0336    0.8408   -0.8340 H   0  0  0  0  0  0  0  0  0  0  0  0
  1  8  1  0  0  0  0
  1 38  1  0  0  0  0
  2 13  1  0  0  0  0
  2 19  1  0  0  0  0
  3 13  2  0  0  0  0
  4 21  1  0  0  0  0
  4 22  1  0  0  0  0
  4 23  1  0  0  0  0
  5  6  1  0  0  0  0
  5  7  1  0  0  0  0
  5  8  1  0  0  0  0
  5 27  1  0  0  0  0
  6  9  1  0  0  0  0
  6 28  1  0  0  0  0
  6 29  1  0  0  0  0
  7 10  1  0  0  0  0
  7 30  1  0  0  0  0
  7 31  1  0  0  0  0
  8 12  1  0  0  0  0
  8 13  1  0  0  0  0
  9 11  1  0  0  0  0
  9 32  1  0  0  0  0
  9 33  1  0  0  0  0
 10 11  1  0  0  0  0
 10 34  1  0  0  0  0
 10 35  1  0  0  0  0
 11 36  1  0  0  0  0
 11 37  1  0  0  0  0
 12 14  2  0  0  0  0
 12 15  1  0  0  0  0
 14 16  1  0  0  0  0
 14 39  1  0  0  0  0
 15 17  2  0  0  0  0
 15 40  1  0  0  0  0
 16 18  2  0  0  0  0
 16 41  1  0  0  0  0
 17 18  1  0  0  0  0
 17 42  1  0  0  0  0
 18 43  1  0  0  0  0
 19 20  1  0  0  0  0
 19 44  1  0  0  0  0
 19 45  1  0  0  0  0
 20 24  3  0  0  0  0
 21 24  1  0  0  0  0
 21 46  1  0  0  0  0
 21 47  1  0  0  0  0
 22 25  1  0  0  0  0
 22 48  1  0  0  0  0
 22 49  1  0  0  0  0
 23 26  1  0  0  0  0
 23 50  1  0  0  0  0
 23 51  1  0  0  0  0
 25 52  1  0  0  0  0
 25 53  1  0  0  0  0
 25 54  1  0  0  0  0
 26 55  1  0  0  0  0
 26 56  1  0  0  0  0
 26 57  1  0  0  0  0
M  END
> <PUBCHEM_COMPOUND_CID>
4634

> <PUBCHEM_CONFORMER_RMSD>
1.2

> <PUBCHEM_CONFORMER_DIVERSEORDER>
3
82
77
93
63
105
96
80
33
27
72
59
43
99
103
70
109
75
124
86
1
110
51
113
83
69
111
100
76
119
47
88
108
5
30
61
62
94
41
64
32
68
89
127
46
34
42
39
21
84
90
28
92
57
14
126
36
121
58
53
22
107
115
125
114
9
54
74
13
122
56
40
35
23
12
25
67
116
117
26
71
49
79
129
95
112
73
85
101
98
55
91
52
2
106
10
102
24
17
15
50
87
7
128
66
81
38
120
19
123
6
118
29
60
31
20
45
11
104
37
78
8
4
44
18
48
16
65
97

> <PUBCHEM_MMFF94_PARTIAL_CHARGES>
24
1 -0.68
12 -0.14
13 0.66
14 -0.15
15 -0.15
16 -0.15
17 -0.15
18 -0.15
19 0.48
2 -0.43
20 -0.2
21 0.47
22 0.27
23 0.27
24 -0.2
3 -0.57
38 0.4
39 0.15
4 -0.81
40 0.15
41 0.15
42 0.15
43 0.15
8 0.48

> <PUBCHEM_EFFECTIVE_ROTOR_COUNT>
9.2

> <PUBCHEM_PHARMACOPHORE_FEATURES>
6
1 1 acceptor
1 1 donor
1 3 acceptor
1 4 cation
6 12 14 15 16 17 18 rings
6 5 6 7 9 10 11 rings

> <PUBCHEM_HEAVY_ATOM_COUNT>
26

> <PUBCHEM_ATOM_DEF_STEREO_COUNT>
0

> <PUBCHEM_ATOM_UDEF_STEREO_COUNT>
1

> <PUBCHEM_BOND_DEF_STEREO_COUNT>
0

> <PUBCHEM_BOND_UDEF_STEREO_COUNT>
0

> <PUBCHEM_ISOTOPIC_ATOM_COUNT>
0

> <PUBCHEM_COMPONENT_COUNT>
1

> <PUBCHEM_CACTVS_TAUTO_COUNT>
1

> <PUBCHEM_CONFORMER_ID>
0000121A00000003

> <PUBCHEM_MMFF94_ENERGY>
54.5134

> <PUBCHEM_FEATURE_SELFOVERLAP>
30.454

> <PUBCHEM_SHAPE_FINGERPRINT>
10165383 225 18262513805865346321
105312 117 18337396049142528452
10764073 3 17023450951380010627
107951 10 18188215411113345589
10803635 8 18409730699094599786
11578080 2 17760905726701805865
12539773 59 17060049316021617895
12895836 83 18342178916091611168
12895837 130 18059562578198547876
13257819 37 18340502157101823293
13761468 95 17628361781574286772
14468879 13 17986377004703043779
14910302 57 18189065208952755584
14955137 171 18054800490554580299
15163728 17 17981042226120646529
15463212 79 18202009845330330458
15475509 8 18121242895778874351
15664445 248 17476080120747653709
1813 80 17979641130711317251
20600515 1 17478372688549077135
20693207 138 17969514722950044880
21285901 2 17610938627988036343
21756936 100 17346316037800445248
22907989 373 17916048861278373567
23559900 14 17313110713874716288
312425 83 18343293795797486228
3729539 64 17827637268274711031
4394409 98 17904485460915114862
469060 322 18054765339477198010
484985 159 17167859742571265398
508706 21 18334018272265745982
531348 171 18272654597513700170

> <PUBCHEM_SHAPE_MULTIPOLES>
512.48
11
4.25
2.63
26.72
2.35
-0.5
-3.17
3.66
-7.77
2.62
0.37
-0.42
0.95

> <PUBCHEM_SHAPE_SELFOVERLAP>
1049.083

> <PUBCHEM_SHAPE_VOLUME>
292

> <PUBCHEM_COORDINATE_TYPE>
2
5
10

$$$$

