17395396
  -OEChem-06241222502D

 39 40  0     0  0  0  0  0  0999 V2000
    8.1678   -0.1593    0.0000 O   0  0  0  0  0  0  0  0  0  0  0  0
    3.5823    1.1362    0.0000 O   0  0  0  0  0  0  0  0  0  0  0  0
    4.9836    2.1542    0.0000 O   0  0  0  0  0  0  0  0  0  0  0  0
    7.6326   -1.8066    0.0000 N   0  0  0  0  0  0  0  0  0  0  0  0
    5.6646   -1.1072    0.0000 N   0  0  0  0  0  0  0  0  0  0  0  0
    8.5837   -2.1156    0.0000 C   0  0  0  0  0  0  0  0  0  0  0  0
    9.2528   -2.8587    0.0000 C   0  0  0  0  0  0  0  0  0  0  0  0
    9.5618   -1.9077    0.0000 C   0  0  0  0  0  0  0  0  0  0  0  0
    7.4247   -0.8284    0.0000 C   0  0  0  0  0  0  0  0  0  0  0  0
    6.4736   -0.5194    0.0000 C   0  0  0  0  0  0  0  0  0  0  0  0
    6.1646    0.4317    0.0000 C   0  0  0  0  0  0  0  0  0  0  0  0
    5.1646    0.4317    0.0000 C   0  0  0  0  0  0  0  0  0  0  0  0
    4.8556   -0.5194    0.0000 C   0  0  0  0  0  0  0  0  0  0  0  0
    6.7524    1.2407    0.0000 C   0  0  0  0  0  0  0  0  0  0  0  0
    4.5768    1.2407    0.0000 C   0  0  0  0  0  0  0  0  0  0  0  0
    3.9045   -0.8284    0.0000 C   0  0  0  0  0  0  0  0  0  0  0  0
    2.9945    1.9452    0.0000 C   0  0  0  0  0  0  0  0  0  0  0  0
    2.0000    1.8406    0.0000 C   0  0  0  0  0  0  0  0  0  0  0  0
    3.4013    2.8587    0.0000 C   0  0  0  0  0  0  0  0  0  0  0  0
    8.6161   -1.4964    0.0000 H   0  0  0  0  0  0  0  0  0  0  0  0
   10.1758   -1.9940    0.0000 H   0  0  0  0  0  0  0  0  0  0  0  0
    8.8711   -3.3473    0.0000 H   0  0  0  0  0  0  0  0  0  0  0  0
    9.8002   -3.1498    0.0000 H   0  0  0  0  0  0  0  0  0  0  0  0
    9.5402   -1.2880    0.0000 H   0  0  0  0  0  0  0  0  0  0  0  0
    7.1718   -2.2214    0.0000 H   0  0  0  0  0  0  0  0  0  0  0  0
    5.6646   -1.7272    0.0000 H   0  0  0  0  0  0  0  0  0  0  0  0
    7.2540    0.8763    0.0000 H   0  0  0  0  0  0  0  0  0  0  0  0
    7.1168    1.7423    0.0000 H   0  0  0  0  0  0  0  0  0  0  0  0
    6.2508    1.6051    0.0000 H   0  0  0  0  0  0  0  0  0  0  0  0
    3.7130   -0.2388    0.0000 H   0  0  0  0  0  0  0  0  0  0  0  0
    3.3149   -1.0200    0.0000 H   0  0  0  0  0  0  0  0  0  0  0  0
    4.0961   -1.4181    0.0000 H   0  0  0  0  0  0  0  0  0  0  0  0
    2.7424    1.3788    0.0000 H   0  0  0  0  0  0  0  0  0  0  0  0
    1.9352    2.4572    0.0000 H   0  0  0  0  0  0  0  0  0  0  0  0
    1.3834    1.7758    0.0000 H   0  0  0  0  0  0  0  0  0  0  0  0
    2.0648    1.2240    0.0000 H   0  0  0  0  0  0  0  0  0  0  0  0
    3.9677    2.6065    0.0000 H   0  0  0  0  0  0  0  0  0  0  0  0
    3.6534    3.4251    0.0000 H   0  0  0  0  0  0  0  0  0  0  0  0
    2.8349    3.1109    0.0000 H   0  0  0  0  0  0  0  0  0  0  0  0
  1  9  2  0  0  0  0
  2 15  1  0  0  0  0
  2 17  1  0  0  0  0
  3 15  2  0  0  0  0
  4  6  1  0  0  0  0
  4  9  1  0  0  0  0
  4 25  1  0  0  0  0
  5 10  1  0  0  0  0
  5 13  1  0  0  0  0
  5 26  1  0  0  0  0
  6  7  1  0  0  0  0
  6  8  1  0  0  0  0
  6 20  1  0  0  0  0
  7  8  1  0  0  0  0
  7 22  1  0  0  0  0
  7 23  1  0  0  0  0
  8 21  1  0  0  0  0
  8 24  1  0  0  0  0
  9 10  1  0  0  0  0
 10 11  2  0  0  0  0
 11 12  1  0  0  0  0
 11 14  1  0  0  0  0
 12 13  2  0  0  0  0
 12 15  1  0  0  0  0
 13 16  1  0  0  0  0
 14 27  1  0  0  0  0
 14 28  1  0  0  0  0
 14 29  1  0  0  0  0
 16 30  1  0  0  0  0
 16 31  1  0  0  0  0
 16 32  1  0  0  0  0
 17 18  1  0  0  0  0
 17 19  1  0  0  0  0
 17 33  1  0  0  0  0
 18 34  1  0  0  0  0
 18 35  1  0  0  0  0
 18 36  1  0  0  0  0
 19 37  1  0  0  0  0
 19 38  1  0  0  0  0
 19 39  1  0  0  0  0
M  END
> <PUBCHEM_COMPOUND_CID>
17395396

> <PUBCHEM_COMPOUND_CANONICALIZED>
1

> <PUBCHEM_CACTVS_COMPLEXITY>
366

> <PUBCHEM_CACTVS_HBOND_ACCEPTOR>
3

> <PUBCHEM_CACTVS_HBOND_DONOR>
2

> <PUBCHEM_CACTVS_ROTATABLE_BOND>
5

> <PUBCHEM_CACTVS_SUBSKEYS>
AAADceBzMAAAAAAAAAAAAAAAGAAAAWAAAAAAAAAAAAAAAAABgAAAHgAQAAAADDzhngYCiJLJlACoAwXwXACCgCAnACAAmaG4TNgIZnrAtLmWEYhm1gHI6Ue8HwIegAAAAAAAAAAAAAAAAAAAAAAAAAAAAA==

> <PUBCHEM_IUPAC_OPENEYE_NAME>
isopropyl 5-(cyclopropylcarbamoyl)-2,4-dimethyl-1H-pyrrole-3-carboxylate

> <PUBCHEM_IUPAC_CAS_NAME>
5-[(cyclopropylamino)-oxomethyl]-2,4-dimethyl-1H-pyrrole-3-carboxylic acid propan-2-yl ester

> <PUBCHEM_IUPAC_NAME>
propan-2-yl 5-(cyclopropylcarbamoyl)-2,4-dimethyl-1H-pyrrole-3-carboxylate

> <PUBCHEM_IUPAC_SYSTEMATIC_NAME>
propan-2-yl 5-(cyclopropylcarbamoyl)-2,4-dimethyl-1H-pyrrole-3-carboxylate

> <PUBCHEM_IUPAC_TRADITIONAL_NAME>
5-(cyclopropylcarbamoyl)-2,4-dimethyl-1H-pyrrole-3-carboxylic acid isopropyl ester

> <PUBCHEM_IUPAC_INCHI>
InChI=1S/C14H20N2O3/c1-7(2)19-14(18)11-8(3)12(15-9(11)4)13(17)16-10-5-6-10/h7,10,15H,5-6H2,1-4H3,(H,16,17)

> <PUBCHEM_IUPAC_INCHIKEY>
NZICKFGIRHNBHB-UHFFFAOYSA-N

> <PUBCHEM_XLOGP3_AA>
2.3

> <PUBCHEM_EXACT_MASS>
264.147393

> <PUBCHEM_MOLECULAR_FORMULA>
C14H20N2O3

> <PUBCHEM_MOLECULAR_WEIGHT>
264.3202

> <PUBCHEM_OPENEYE_CAN_SMILES>
CC1=C(NC(=C1C(=O)OC(C)C)C)C(=O)NC2CC2

> <PUBCHEM_OPENEYE_ISO_SMILES>
CC1=C(NC(=C1C(=O)OC(C)C)C)C(=O)NC2CC2

> <PUBCHEM_CACTVS_TPSA>
71.2

> <PUBCHEM_MONOISOTOPIC_WEIGHT>
264.147393

> <PUBCHEM_TOTAL_CHARGE>
0

> <PUBCHEM_HEAVY_ATOM_COUNT>
19

> <PUBCHEM_ATOM_DEF_STEREO_COUNT>
0

> <PUBCHEM_ATOM_UDEF_STEREO_COUNT>
0

> <PUBCHEM_BOND_DEF_STEREO_COUNT>
0

> <PUBCHEM_BOND_UDEF_STEREO_COUNT>
0

> <PUBCHEM_ISOTOPIC_ATOM_COUNT>
0

> <PUBCHEM_COMPONENT_COUNT>
1

> <PUBCHEM_CACTVS_TAUTO_COUNT>
18

> <PUBCHEM_COORDINATE_TYPE>
1
5
255

> <PUBCHEM_BONDANNOTATIONS>
10  11  8
11  12  8
12  13  8
5  10  8
5  13  8

$$$$

