9364
  -OEChem-06261203393D

 19 20  0     0  0  0  0  0  0999 V2000
    1.6568   -1.1155    0.0010 O   0  0  0  0  0  0  0  0  0  0  0  0
   -3.5223    1.1215   -0.0011 O   0  0  0  0  0  0  0  0  0  0  0  0
    4.0058   -0.7885   -0.0019 O   0  0  0  0  0  0  0  0  0  0  0  0
   -3.0501   -1.6351   -0.0003 O   0  0  0  0  0  0  0  0  0  0  0  0
    0.1726    0.8448    0.0005 C   0  0  0  0  0  0  0  0  0  0  0  0
    0.3601   -0.6054    0.0006 C   0  0  0  0  0  0  0  0  0  0  0  0
   -1.1698    1.3996   -0.0001 C   0  0  0  0  0  0  0  0  0  0  0  0
    1.2513    1.6479    0.0006 C   0  0  0  0  0  0  0  0  0  0  0  0
   -0.6957   -1.4302    0.0003 C   0  0  0  0  0  0  0  0  0  0  0  0
   -2.2465    0.6012   -0.0001 C   0  0  0  0  0  0  0  0  0  0  0  0
   -2.0805   -0.8835    0.0002 C   0  0  0  0  0  0  0  0  0  0  0  0
    2.5783    1.0870    0.0002 C   0  0  0  0  0  0  0  0  0  0  0  0
    2.7400   -0.2438    0.0001 C   0  0  0  0  0  0  0  0  0  0  0  0
   -1.2903    2.4791   -0.0005 H   0  0  0  0  0  0  0  0  0  0  0  0
    1.1684    2.7301    0.0004 H   0  0  0  0  0  0  0  0  0  0  0  0
   -0.5797   -2.5083    0.0004 H   0  0  0  0  0  0  0  0  0  0  0  0
    3.4191    1.7717   -0.0009 H   0  0  0  0  0  0  0  0  0  0  0  0
   -4.1417    0.3712   -0.0012 H   0  0  0  0  0  0  0  0  0  0  0  0
    4.6552   -0.0643   -0.0026 H   0  0  0  0  0  0  0  0  0  0  0  0
  1  6  1  0  0  0  0
  1 13  1  0  0  0  0
  2 10  1  0  0  0  0
  2 18  1  0  0  0  0
  3 13  1  0  0  0  0
  3 19  1  0  0  0  0
  4 11  2  0  0  0  0
  5  6  1  0  0  0  0
  5  7  1  0  0  0  0
  5  8  2  0  0  0  0
  6  9  2  0  0  0  0
  7 10  2  0  0  0  0
  7 14  1  0  0  0  0
  8 12  1  0  0  0  0
  8 15  1  0  0  0  0
  9 11  1  0  0  0  0
  9 16  1  0  0  0  0
 10 11  1  0  0  0  0
 12 13  2  0  0  0  0
 12 17  1  0  0  0  0
M  END
> <PUBCHEM_COMPOUND_CID>
9364

> <PUBCHEM_CONFORMER_RMSD>
0.4

> <PUBCHEM_CONFORMER_DIVERSEORDER>
1

> <PUBCHEM_MMFF94_PARTIAL_CHARGES>
18
1 -0.15
10 0.09
11 0.54
12 -0.15
13 0.15
14 0.15
15 0.15
16 0.15
17 0.15
18 0.45
19 0.45
2 -0.53
3 -0.53
4 -0.57
6 0.08
7 -0.15
8 -0.15
9 -0.14

> <PUBCHEM_EFFECTIVE_ROTOR_COUNT>
0

> <PUBCHEM_PHARMACOPHORE_FEATURES>
6
1 1 acceptor
1 2 donor
1 3 donor
1 4 acceptor
6 1 5 6 8 12 13 rings
6 5 6 7 9 10 11 rings

> <PUBCHEM_HEAVY_ATOM_COUNT>
13

> <PUBCHEM_ATOM_DEF_STEREO_COUNT>
0

> <PUBCHEM_ATOM_UDEF_STEREO_COUNT>
0

> <PUBCHEM_BOND_DEF_STEREO_COUNT>
0

> <PUBCHEM_BOND_UDEF_STEREO_COUNT>
0

> <PUBCHEM_ISOTOPIC_ATOM_COUNT>
0

> <PUBCHEM_COMPONENT_COUNT>
1

> <PUBCHEM_CACTVS_TAUTO_COUNT>
3

> <PUBCHEM_CONFORMER_ID>
0000249400000001

> <PUBCHEM_MMFF94_ENERGY>
30.934

> <PUBCHEM_FEATURE_SELFOVERLAP>
30.475

> <PUBCHEM_SHAPE_FINGERPRINT>
10608611 8 18409735023441318952
10967382 1 18266741457484391623
11132069 177 18409735083813090544
11769659 78 18410297973468222974
12032990 46 18411132502746381594
12932764 1 17459471048258547548
13380535 76 18336547222066031919
14144814 61 18411138013315750194
14325111 11 18410573950839484352
14911166 2 18339085994266899845
15219456 202 18334299721377518424
15536298 74 18334575703365363944
15775835 57 18272647986688417740
16945 1 18338799038632292321
17844478 74 18130498635635889289
193761 8 4863746791447398560
19973954 147 18339078185757860033
200 152 17967824816707122023
20201158 50 18335420209419761766
20871998 184 18187080624914126527
21501502 16 18339075991003217597
21501925 9 18338811009064712706
2334 1 18338797788865413453
23402539 116 18114753728179858445
23402655 69 18263940993659934917
23463225 33 18413108381297582934
23552423 10 18272370815311109732
23559900 14 18335140925857397870
2748010 2 18338519642514731077
5084963 1 18261391100743842899
528886 8 18410017670954209305
53812653 166 18335988644083323984
6333449 129 18408888442700893767
7364860 26 18191303771973049072
8809292 202 18343297067703034354

> <PUBCHEM_SHAPE_MULTIPOLES>
244.06
5.32
1.79
0.59
0.94
0.05
0
-0.63
0
-0.42
0
0.01
0.02
0

> <PUBCHEM_SHAPE_SELFOVERLAP>
532.967

> <PUBCHEM_SHAPE_VOLUME>
130.9

> <PUBCHEM_COORDINATE_TYPE>
2
5
10

$$$$

