267436
  -OEChem-07051212562D

 67 71  0     1  0  0  0  0  0999 V2000
    9.1251   -2.1263    0.0000 O   0  0  0  0  0  0  0  0  0  0  0  0
    6.4673   -3.6747    0.0000 O   0  0  0  0  0  0  0  0  0  0  0  0
    3.7320   -3.1786    0.0000 O   0  0  0  0  0  0  0  0  0  0  0  0
    5.1649   -0.5096    0.0000 O   0  0  0  0  0  0  0  0  0  0  0  0
   10.0248    2.8238    0.0000 O   0  0  0  0  0  0  0  0  0  0  0  0
    2.8718   -1.6753    0.0000 O   0  0  0  0  0  0  0  0  0  0  0  0
   11.3140    3.9805    0.0000 O   0  0  0  0  0  0  0  0  0  0  0  0
    9.1251   -1.1263    0.0000 C   0  0  1  0  0  0  0  0  0  0  0  0
    8.2591   -1.6263    0.0000 C   0  0  1  0  0  0  0  0  0  0  0  0
    9.1251   -0.1263    0.0000 C   0  0  2  0  0  0  0  0  0  0  0  0
    7.3931   -1.1263    0.0000 C   0  0  1  0  0  0  0  0  0  0  0  0
    6.4831   -1.6331    0.0000 C   0  0  2  0  0  0  0  0  0  0  0  0
    6.4750   -2.6747    0.0000 C   0  0  1  0  0  0  0  0  0  0  0  0
    8.2591    0.3737    0.0000 C   0  0  0  0  0  0  0  0  0  0  0  0
    7.3931   -0.1263    0.0000 C   0  0  0  0  0  0  0  0  0  0  0  0
   10.0713    0.1785    0.0000 C   0  0  2  0  0  0  0  0  0  0  0  0
    8.2752   -2.6678    0.0000 C   0  0  0  0  0  0  0  0  0  0  0  0
   10.0713   -1.4310    0.0000 C   0  0  0  0  0  0  0  0  0  0  0  0
    7.3771   -3.1955    0.0000 C   0  0  0  0  0  0  0  0  0  0  0  0
   10.6550   -0.6263    0.0000 C   0  0  0  0  0  0  0  0  0  0  0  0
    5.5562   -1.0690    0.0000 C   0  0  0  0  0  0  0  0  0  0  0  0
    5.5396   -3.2244    0.0000 C   0  0  0  0  0  0  0  0  0  0  0  0
    9.1251    0.8737    0.0000 C   0  0  0  0  0  0  0  0  0  0  0  0
    4.6084   -1.5970    0.0000 C   0  0  0  0  0  0  0  0  0  0  0  0
    4.6000   -2.6820    0.0000 C   0  0  2  0  0  0  0  0  0  0  0  0
    6.1483   -0.6908    0.0000 C   0  0  0  0  0  0  0  0  0  0  0  0
   10.3820    1.1290    0.0000 C   0  0  0  0  0  0  0  0  0  0  0  0
   11.3605    1.3352    0.0000 C   0  0  0  0  0  0  0  0  0  0  0  0
    9.7142    1.8733    0.0000 C   0  0  0  0  0  0  0  0  0  0  0  0
   11.6712    2.2857    0.0000 C   0  0  0  0  0  0  0  0  0  0  0  0
    2.8680   -2.6753    0.0000 C   0  0  0  0  0  0  0  0  0  0  0  0
   11.0033    3.0300    0.0000 C   0  0  0  0  0  0  0  0  0  0  0  0
    2.0000   -3.1719    0.0000 C   0  0  0  0  0  0  0  0  0  0  0  0
    8.9985   -2.0456    0.0000 H   0  0  0  0  0  0  0  0  0  0  0  0
    8.1292   -0.7013    0.0000 H   0  0  0  0  0  0  0  0  0  0  0  0
    8.6576    0.8487    0.0000 H   0  0  0  0  0  0  0  0  0  0  0  0
    7.8606    0.8487    0.0000 H   0  0  0  0  0  0  0  0  0  0  0  0
    7.1810    0.4563    0.0000 H   0  0  0  0  0  0  0  0  0  0  0  0
    6.7825   -0.2339    0.0000 H   0  0  0  0  0  0  0  0  0  0  0  0
   10.6838    0.2747    0.0000 H   0  0  0  0  0  0  0  0  0  0  0  0
    8.4932   -3.2482    0.0000 H   0  0  0  0  0  0  0  0  0  0  0  0
    8.8843   -2.5523    0.0000 H   0  0  0  0  0  0  0  0  0  0  0  0
    9.8203   -1.9979    0.0000 H   0  0  0  0  0  0  0  0  0  0  0  0
   10.6087   -1.7402    0.0000 H   0  0  0  0  0  0  0  0  0  0  0  0
    6.9798   -3.6715    0.0000 H   0  0  0  0  0  0  0  0  0  0  0  0
    7.7781   -3.6684    0.0000 H   0  0  0  0  0  0  0  0  0  0  0  0
   11.1158   -1.0410    0.0000 H   0  0  0  0  0  0  0  0  0  0  0  0
   11.1158   -0.2115    0.0000 H   0  0  0  0  0  0  0  0  0  0  0  0
    5.9644   -0.6024    0.0000 H   0  0  0  0  0  0  0  0  0  0  0  0
    5.1663   -0.5870    0.0000 H   0  0  0  0  0  0  0  0  0  0  0  0
    5.1423   -3.7004    0.0000 H   0  0  0  0  0  0  0  0  0  0  0  0
    5.9406   -3.6973    0.0000 H   0  0  0  0  0  0  0  0  0  0  0  0
    9.7451    0.8737    0.0000 H   0  0  0  0  0  0  0  0  0  0  0  0
    9.1251    1.4937    0.0000 H   0  0  0  0  0  0  0  0  0  0  0  0
    8.5051    0.8737    0.0000 H   0  0  0  0  0  0  0  0  0  0  0  0
    4.4038   -1.0117    0.0000 H   0  0  0  0  0  0  0  0  0  0  0  0
    3.9967   -1.6984    0.0000 H   0  0  0  0  0  0  0  0  0  0  0  0
    4.0648   -2.3688    0.0000 H   0  0  0  0  0  0  0  0  0  0  0  0
    9.6621   -2.4363    0.0000 H   0  0  0  0  0  0  0  0  0  0  0  0
    6.5505   -0.2190    0.0000 H   0  0  0  0  0  0  0  0  0  0  0  0
    5.9280   -3.9805    0.0000 H   0  0  0  0  0  0  0  0  0  0  0  0
   11.7746    0.8737    0.0000 H   0  0  0  0  0  0  0  0  0  0  0  0
    9.1075    1.7454    0.0000 H   0  0  0  0  0  0  0  0  0  0  0  0
   12.2778    2.4136    0.0000 H   0  0  0  0  0  0  0  0  0  0  0  0
    1.6921   -2.6338    0.0000 H   0  0  0  0  0  0  0  0  0  0  0  0
    1.4619   -3.4799    0.0000 H   0  0  0  0  0  0  0  0  0  0  0  0
    2.3079   -3.7100    0.0000 H   0  0  0  0  0  0  0  0  0  0  0  0
  8  1  1  1  0  0  0
  1 59  1  0  0  0  0
 13  2  1  1  0  0  0
  2 61  1  0  0  0  0
 25  3  1  1  0  0  0
  3 31  1  0  0  0  0
  4 26  2  0  0  0  0
  5 29  1  0  0  0  0
  5 32  1  0  0  0  0
  6 31  2  0  0  0  0
  7 32  2  0  0  0  0
  8  9  1  0  0  0  0
  8 10  1  0  0  0  0
  8 18  1  0  0  0  0
  9 11  1  0  0  0  0
  9 17  1  0  0  0  0
  9 34  1  1  0  0  0
 10 14  1  0  0  0  0
 10 16  1  0  0  0  0
 10 23  1  1  0  0  0
 11 12  1  0  0  0  0
 11 15  1  0  0  0  0
 11 35  1  6  0  0  0
 12 13  1  0  0  0  0
 12 21  1  0  0  0  0
 12 26  1  1  0  0  0
 13 19  1  0  0  0  0
 13 22  1  0  0  0  0
 14 15  1  0  0  0  0
 14 36  1  0  0  0  0
 14 37  1  0  0  0  0
 15 38  1  0  0  0  0
 15 39  1  0  0  0  0
 16 20  1  0  0  0  0
 16 27  1  1  0  0  0
 16 40  1  0  0  0  0
 17 19  1  0  0  0  0
 17 41  1  0  0  0  0
 17 42  1  0  0  0  0
 18 20  1  0  0  0  0
 18 43  1  0  0  0  0
 18 44  1  0  0  0  0
 19 45  1  0  0  0  0
 19 46  1  0  0  0  0
 20 47  1  0  0  0  0
 20 48  1  0  0  0  0
 21 24  1  0  0  0  0
 21 49  1  0  0  0  0
 21 50  1  0  0  0  0
 22 25  1  0  0  0  0
 22 51  1  0  0  0  0
 22 52  1  0  0  0  0
 23 53  1  0  0  0  0
 23 54  1  0  0  0  0
 23 55  1  0  0  0  0
 24 25  1  0  0  0  0
 24 56  1  0  0  0  0
 24 57  1  0  0  0  0
 25 58  1  0  0  0  0
 26 60  1  0  0  0  0
 27 28  1  0  0  0  0
 27 29  2  0  0  0  0
 28 30  2  0  0  0  0
 28 62  1  0  0  0  0
 29 63  1  0  0  0  0
 30 32  1  0  0  0  0
 30 64  1  0  0  0  0
 31 33  1  0  0  0  0
 33 65  1  0  0  0  0
 33 66  1  0  0  0  0
 33 67  1  0  0  0  0
M  END
> <PUBCHEM_COMPOUND_CID>
267436

> <PUBCHEM_COMPOUND_CANONICALIZED>
1

> <PUBCHEM_CACTVS_COMPLEXITY>
939

> <PUBCHEM_CACTVS_HBOND_ACCEPTOR>
7

> <PUBCHEM_CACTVS_HBOND_DONOR>
2

> <PUBCHEM_CACTVS_ROTATABLE_BOND>
4

> <PUBCHEM_CACTVS_SUBSKEYS>
AAADcfB4OAAAAAAAAAAAAAAAAAAAAYAAAAAwYMEAAAAAAGDAAAAAGgAACAAAD1SggAICCAAABgCIAijSiAAACAAgIAAICAEAAEgIBBYAIQACUAAFoAAIoYOI7PzPgAAAAAAAAADAAAYQADAAAYAADAAAAA==

> <PUBCHEM_IUPAC_OPENEYE_NAME>
[(3S,5S,8R,9S,10S,13R,14S,17R)-10-formyl-5,14-dihydroxy-13-methyl-17-(6-oxopyran-3-yl)-2,3,4,6,7,8,9,11,12,15,16,17-dodecahydro-1H-cyclopenta[a]phenanthren-3-yl] acetate

> <PUBCHEM_IUPAC_CAS_NAME>
acetic acid [(3S,5S,8R,9S,10S,13R,14S,17R)-10-formyl-5,14-dihydroxy-13-methyl-17-(6-oxo-3-pyranyl)-2,3,4,6,7,8,9,11,12,15,16,17-dodecahydro-1H-cyclopenta[a]phenanthren-3-yl] ester

> <PUBCHEM_IUPAC_NAME>
[(3S,5S,8R,9S,10S,13R,14S,17R)-10-formyl-5,14-dihydroxy-13-methyl-17-(6-oxopyran-3-yl)-2,3,4,6,7,8,9,11,12,15,16,17-dodecahydro-1H-cyclopenta[a]phenanthren-3-yl] acetate

> <PUBCHEM_IUPAC_SYSTEMATIC_NAME>
[(3S,5S,8R,9S,10S,13R,14S,17R)-10-methanoyl-13-methyl-5,14-bis(oxidanyl)-17-(6-oxidanylidenepyran-3-yl)-2,3,4,6,7,8,9,11,12,15,16,17-dodecahydro-1H-cyclopenta[a]phenanthren-3-yl] ethanoate

> <PUBCHEM_IUPAC_TRADITIONAL_NAME>
acetic acid [(3S,5S,8R,9S,10S,13R,14S,17R)-10-formyl-5,14-dihydroxy-17-(6-ketopyran-3-yl)-13-methyl-2,3,4,6,7,8,9,11,12,15,16,17-dodecahydro-1H-cyclopenta[a]phenanthren-3-yl] ester

> <PUBCHEM_IUPAC_INCHI>
InChI=1S/C26H34O7/c1-16(28)33-18-5-10-24(15-27)20-6-9-23(2)19(17-3-4-22(29)32-14-17)8-12-26(23,31)21(20)7-11-25(24,30)13-18/h3-4,14-15,18-21,30-31H,5-13H2,1-2H3/t18-,19+,20-,21+,23+,24-,25-,26-/m0/s1

> <PUBCHEM_IUPAC_INCHIKEY>
VIOBLZMEZRNYRR-XDFZRXKSSA-N

> <PUBCHEM_XLOGP3>
1.8

> <PUBCHEM_EXACT_MASS>
458.230453

> <PUBCHEM_MOLECULAR_FORMULA>
C26H34O7

> <PUBCHEM_MOLECULAR_WEIGHT>
458.54396

> <PUBCHEM_OPENEYE_CAN_SMILES>
CC(=O)OC1CCC2(C3CCC4(C(CCC4(C3CCC2(C1)O)O)C5=COC(=O)C=C5)C)C=O

> <PUBCHEM_OPENEYE_ISO_SMILES>
CC(=O)O[C@H]1CC[C@@]2([C@H]3CC[C@@]4([C@H](CC[C@@]4([C@@H]3CC[C@@]2(C1)O)O)C5=COC(=O)C=C5)C)C=O

> <PUBCHEM_CACTVS_TPSA>
110

> <PUBCHEM_MONOISOTOPIC_WEIGHT>
458.230453

> <PUBCHEM_TOTAL_CHARGE>
0

> <PUBCHEM_HEAVY_ATOM_COUNT>
33

> <PUBCHEM_ATOM_DEF_STEREO_COUNT>
8

> <PUBCHEM_ATOM_UDEF_STEREO_COUNT>
0

> <PUBCHEM_BOND_DEF_STEREO_COUNT>
0

> <PUBCHEM_BOND_UDEF_STEREO_COUNT>
0

> <PUBCHEM_ISOTOPIC_ATOM_COUNT>
0

> <PUBCHEM_COMPONENT_COUNT>
1

> <PUBCHEM_CACTVS_TAUTO_COUNT>
1

> <PUBCHEM_COORDINATE_TYPE>
1
5
255

> <PUBCHEM_BONDANNOTATIONS>
8  1  5
10  23  5
11  35  6
12  26  5
16  27  5
13  2  5
27  28  8
27  29  8
28  30  8
25  3  5
30  32  8
5  29  8
5  32  8
9  34  5

$$$$

