247301
  -OEChem-07051213072D

 83 88  0     1  0  0  0  0  0999 V2000
    3.9933    5.6784    0.0000 N   0  0  0  0  0  0  0  0  0  0  0  0
    3.8334   -0.4901    0.0000 C   0  0  1  0  0  0  0  0  0  0  0  0
    2.8937    0.0524    0.0000 C   0  0  2  0  0  0  0  0  0  0  0  0
    2.9021    1.1374    0.0000 C   0  0  1  0  0  0  0  0  0  0  0  0
    3.8001    1.6651    0.0000 C   0  0  1  0  0  0  0  0  0  0  0  0
    3.7841    2.7066    0.0000 C   0  0  2  0  0  0  0  0  0  0  0  0
    3.6064   -1.5445    0.0000 C   0  0  2  0  0  0  0  0  0  0  0  0
    4.7688    0.0596    0.0000 C   0  0  0  0  0  0  0  0  0  0  0  0
    4.7520    1.1445    0.0000 C   0  0  0  0  0  0  0  0  0  0  0  0
    2.0941   -0.6714    0.0000 C   0  0  0  0  0  0  0  0  0  0  0  0
    2.9180    3.2066    0.0000 C   0  0  1  0  0  0  0  0  0  0  0  0
    2.0000    1.6582    0.0000 C   0  0  0  0  0  0  0  0  0  0  0  0
    2.5336   -1.6563    0.0000 C   0  0  0  0  0  0  0  0  0  0  0  0
    2.0080    2.6998    0.0000 C   0  0  0  0  0  0  0  0  0  0  0  0
    4.6501    3.2066    0.0000 C   0  0  0  0  0  0  0  0  0  0  0  0
    4.6994   -0.9901    0.0000 C   0  0  0  0  0  0  0  0  0  0  0  0
    4.2742   -2.2888    0.0000 C   0  0  1  0  0  0  0  0  0  0  0  0
    2.9180    4.2066    0.0000 C   0  0  0  0  0  0  0  0  0  0  0  0
    4.6501    2.2066    0.0000 C   0  0  0  0  0  0  0  0  0  0  0  0
    4.6501    4.2066    0.0000 C   0  0  0  0  0  0  0  0  0  0  0  0
    3.7841    4.7066    0.0000 C   0  0  0  0  0  0  0  0  0  0  0  0
    3.9635   -3.2394    0.0000 C   0  0  0  0  0  0  0  0  0  0  0  0
    5.2527   -2.0826    0.0000 C   0  0  0  0  0  0  0  0  0  0  0  0
    5.3871    4.8737    0.0000 C   0  0  0  0  0  0  0  0  0  0  0  0
    4.6314   -3.9836    0.0000 C   0  0  0  0  0  0  0  0  0  0  0  0
    4.9820    5.7815    0.0000 C   0  0  0  0  0  0  0  0  0  0  0  0
    4.3207   -4.9342    0.0000 C   0  0  0  0  0  0  0  0  0  0  0  0
    6.4152    4.7505    0.0000 C   0  0  0  0  0  0  0  0  0  0  0  0
    5.5769    6.6290    0.0000 C   0  0  0  0  0  0  0  0  0  0  0  0
    4.9886   -5.6785    0.0000 C   0  0  0  0  0  0  0  0  0  0  0  0
    7.0296    5.5840    0.0000 C   0  0  0  0  0  0  0  0  0  0  0  0
    6.6076    6.5296    0.0000 C   0  0  0  0  0  0  0  0  0  0  0  0
    4.6779   -6.6290    0.0000 C   0  0  0  0  0  0  0  0  0  0  0  0
    5.9671   -5.4722    0.0000 C   0  0  0  0  0  0  0  0  0  0  0  0
    2.1181    0.4001    0.0000 H   0  0  0  0  0  0  0  0  0  0  0  0
    2.1643    0.7152    0.0000 H   0  0  0  0  0  0  0  0  0  0  0  0
    4.5279    2.1042    0.0000 H   0  0  0  0  0  0  0  0  0  0  0  0
    3.3007   -2.3377    0.0000 H   0  0  0  0  0  0  0  0  0  0  0  0
    4.9868   -0.5208    0.0000 H   0  0  0  0  0  0  0  0  0  0  0  0
    5.3779    0.1751    0.0000 H   0  0  0  0  0  0  0  0  0  0  0  0
    5.3645    1.0478    0.0000 H   0  0  0  0  0  0  0  0  0  0  0  0
    4.9521    1.7313    0.0000 H   0  0  0  0  0  0  0  0  0  0  0  0
    1.7286   -0.1705    0.0000 H   0  0  0  0  0  0  0  0  0  0  0  0
    1.5576   -0.9822    0.0000 H   0  0  0  0  0  0  0  0  0  0  0  0
    2.1852    3.6373    0.0000 H   0  0  0  0  0  0  0  0  0  0  0  0
    1.3900    1.7690    0.0000 H   0  0  0  0  0  0  0  0  0  0  0  0
    1.7864    1.0761    0.0000 H   0  0  0  0  0  0  0  0  0  0  0  0
    1.9440   -1.8481    0.0000 H   0  0  0  0  0  0  0  0  0  0  0  0
    2.6623   -2.2628    0.0000 H   0  0  0  0  0  0  0  0  0  0  0  0
    1.8035    3.2850    0.0000 H   0  0  0  0  0  0  0  0  0  0  0  0
    1.3964    2.5984    0.0000 H   0  0  0  0  0  0  0  0  0  0  0  0
    4.8621    2.6240    0.0000 H   0  0  0  0  0  0  0  0  0  0  0  0
    5.2607    3.3143    0.0000 H   0  0  0  0  0  0  0  0  0  0  0  0
    4.3894   -1.5270    0.0000 H   0  0  0  0  0  0  0  0  0  0  0  0
    5.2363   -1.3001    0.0000 H   0  0  0  0  0  0  0  0  0  0  0  0
    5.0094   -0.4532    0.0000 H   0  0  0  0  0  0  0  0  0  0  0  0
    4.6883   -2.7503    0.0000 H   0  0  0  0  0  0  0  0  0  0  0  0
    2.7060    4.7892    0.0000 H   0  0  0  0  0  0  0  0  0  0  0  0
    2.3074    4.0990    0.0000 H   0  0  0  0  0  0  0  0  0  0  0  0
    4.3401    1.6697    0.0000 H   0  0  0  0  0  0  0  0  0  0  0  0
    5.1870    1.8966    0.0000 H   0  0  0  0  0  0  0  0  0  0  0  0
    4.9601    2.7436    0.0000 H   0  0  0  0  0  0  0  0  0  0  0  0
    3.4166   -2.9473    0.0000 H   0  0  0  0  0  0  0  0  0  0  0  0
    3.5810   -3.7272    0.0000 H   0  0  0  0  0  0  0  0  0  0  0  0
    5.3806   -2.6893    0.0000 H   0  0  0  0  0  0  0  0  0  0  0  0
    5.8594   -1.9548    0.0000 H   0  0  0  0  0  0  0  0  0  0  0  0
    5.1249   -1.4759    0.0000 H   0  0  0  0  0  0  0  0  0  0  0  0
    3.5792    6.1399    0.0000 H   0  0  0  0  0  0  0  0  0  0  0  0
    5.1783   -4.2757    0.0000 H   0  0  0  0  0  0  0  0  0  0  0  0
    5.0139   -3.4957    0.0000 H   0  0  0  0  0  0  0  0  0  0  0  0
    3.7738   -4.6422    0.0000 H   0  0  0  0  0  0  0  0  0  0  0  0
    3.9382   -5.4221    0.0000 H   0  0  0  0  0  0  0  0  0  0  0  0
    6.6613    4.1814    0.0000 H   0  0  0  0  0  0  0  0  0  0  0  0
    5.3177    7.1922    0.0000 H   0  0  0  0  0  0  0  0  0  0  0  0
    5.1812   -5.0892    0.0000 H   0  0  0  0  0  0  0  0  0  0  0  0
    7.6460    5.5174    0.0000 H   0  0  0  0  0  0  0  0  0  0  0  0
    6.9696    7.0329    0.0000 H   0  0  0  0  0  0  0  0  0  0  0  0
    4.0886   -6.4364    0.0000 H   0  0  0  0  0  0  0  0  0  0  0  0
    4.4853   -7.2183    0.0000 H   0  0  0  0  0  0  0  0  0  0  0  0
    5.2672   -6.8216    0.0000 H   0  0  0  0  0  0  0  0  0  0  0  0
    6.0949   -6.0789    0.0000 H   0  0  0  0  0  0  0  0  0  0  0  0
    6.5738   -5.3444    0.0000 H   0  0  0  0  0  0  0  0  0  0  0  0
    5.8392   -4.8656    0.0000 H   0  0  0  0  0  0  0  0  0  0  0  0
  1 21  1  0  0  0  0
  1 26  1  0  0  0  0
  1 68  1  0  0  0  0
  2  3  1  0  0  0  0
  2  7  1  0  0  0  0
  2  8  1  0  0  0  0
  2 16  1  1  0  0  0
  3  4  1  0  0  0  0
  3 10  1  0  0  0  0
  3 35  1  6  0  0  0
  4  5  1  0  0  0  0
  4 12  1  0  0  0  0
  4 36  1  1  0  0  0
  5  6  1  0  0  0  0
  5  9  1  0  0  0  0
  5 37  1  6  0  0  0
  6 11  1  0  0  0  0
  6 15  1  0  0  0  0
  6 19  1  1  0  0  0
  7 13  1  0  0  0  0
  7 17  1  0  0  0  0
  7 38  1  6  0  0  0
  8  9  1  0  0  0  0
  8 39  1  0  0  0  0
  8 40  1  0  0  0  0
  9 41  1  0  0  0  0
  9 42  1  0  0  0  0
 10 13  1  0  0  0  0
 10 43  1  0  0  0  0
 10 44  1  0  0  0  0
 11 14  1  0  0  0  0
 11 18  1  0  0  0  0
 11 45  1  6  0  0  0
 12 14  1  0  0  0  0
 12 46  1  0  0  0  0
 12 47  1  0  0  0  0
 13 48  1  0  0  0  0
 13 49  1  0  0  0  0
 14 50  1  0  0  0  0
 14 51  1  0  0  0  0
 15 20  1  0  0  0  0
 15 52  1  0  0  0  0
 15 53  1  0  0  0  0
 16 54  1  0  0  0  0
 16 55  1  0  0  0  0
 16 56  1  0  0  0  0
 17 22  1  0  0  0  0
 17 23  1  6  0  0  0
 17 57  1  0  0  0  0
 18 21  1  0  0  0  0
 18 58  1  0  0  0  0
 18 59  1  0  0  0  0
 19 60  1  0  0  0  0
 19 61  1  0  0  0  0
 19 62  1  0  0  0  0
 20 21  2  0  0  0  0
 20 24  1  0  0  0  0
 22 25  1  0  0  0  0
 22 63  1  0  0  0  0
 22 64  1  0  0  0  0
 23 65  1  0  0  0  0
 23 66  1  0  0  0  0
 23 67  1  0  0  0  0
 24 26  1  0  0  0  0
 24 28  2  0  0  0  0
 25 27  1  0  0  0  0
 25 69  1  0  0  0  0
 25 70  1  0  0  0  0
 26 29  2  0  0  0  0
 27 30  1  0  0  0  0
 27 71  1  0  0  0  0
 27 72  1  0  0  0  0
 28 31  1  0  0  0  0
 28 73  1  0  0  0  0
 29 32  1  0  0  0  0
 29 74  1  0  0  0  0
 30 33  1  0  0  0  0
 30 34  1  0  0  0  0
 30 75  1  0  0  0  0
 31 32  2  0  0  0  0
 31 76  1  0  0  0  0
 32 77  1  0  0  0  0
 33 78  1  0  0  0  0
 33 79  1  0  0  0  0
 33 80  1  0  0  0  0
 34 81  1  0  0  0  0
 34 82  1  0  0  0  0
 34 83  1  0  0  0  0
M  END
> <PUBCHEM_COMPOUND_CID>
247301

> <PUBCHEM_COMPOUND_CANONICALIZED>
1

> <PUBCHEM_CACTVS_COMPLEXITY>
728

> <PUBCHEM_CACTVS_HBOND_ACCEPTOR>
0

> <PUBCHEM_CACTVS_HBOND_DONOR>
1

> <PUBCHEM_CACTVS_ROTATABLE_BOND>
5

> <PUBCHEM_CACTVS_SUBSKEYS>
AAADcfB+AAAAAAAAAAAAAAAAAAAAAeIAAAAwYMGAAAAAAHjB8AAAHAAQAAAADwiBHgAywPLJkACgAyRiRACCgCAhAiAImSAwZJgIIOLAkZGEIAhgkADIyAcQgMAPgAAAAAACAACQAASAACQAAQAACAAAAA==

> <PUBCHEM_IUPAC_INCHI>
InChI=1S/C33H49N/c1-21(2)9-8-10-22(3)27-15-16-28-25-14-13-23-19-31-26(24-11-6-7-12-30(24)34-31)20-33(23,5)29(25)17-18-32(27,28)4/h6-7,11-12,21-23,25,27-29,34H,8-10,13-20H2,1-5H3/t22-,23+,25+,27-,28+,29+,32-,33+/m1/s1

> <PUBCHEM_IUPAC_INCHIKEY>
UJPMSSIEJPGKGY-YHPMGPRQSA-N

> <PUBCHEM_XLOGP3_AA>
11.3

> <PUBCHEM_EXACT_MASS>
459.386501

> <PUBCHEM_MOLECULAR_FORMULA>
C33H49N

> <PUBCHEM_MOLECULAR_WEIGHT>
459.74886

> <PUBCHEM_OPENEYE_CAN_SMILES>
CC(C)CCCC(C)C1CCC2C1(CCC3C2CCC4C3(CC5=C(C4)NC6=CC=CC=C56)C)C

> <PUBCHEM_OPENEYE_ISO_SMILES>
C[C@H](CCCC(C)C)[C@H]1CC[C@@H]2[C@@]1(CC[C@H]3[C@H]2CC[C@@H]4[C@@]3(CC5=C(C4)NC6=CC=CC=C56)C)C

> <PUBCHEM_CACTVS_TPSA>
15.8

> <PUBCHEM_MONOISOTOPIC_WEIGHT>
459.386501

> <PUBCHEM_TOTAL_CHARGE>
0

> <PUBCHEM_HEAVY_ATOM_COUNT>
34

> <PUBCHEM_ATOM_DEF_STEREO_COUNT>
8

> <PUBCHEM_ATOM_UDEF_STEREO_COUNT>
0

> <PUBCHEM_BOND_DEF_STEREO_COUNT>
0

> <PUBCHEM_BOND_UDEF_STEREO_COUNT>
0

> <PUBCHEM_ISOTOPIC_ATOM_COUNT>
0

> <PUBCHEM_COMPONENT_COUNT>
1

> <PUBCHEM_CACTVS_TAUTO_COUNT>
1

> <PUBCHEM_COORDINATE_TYPE>
1
5
255

> <PUBCHEM_BONDANNOTATIONS>
1  21  8
1  26  8
11  45  6
17  23  6
2  16  5
20  21  8
20  24  8
24  26  8
24  28  8
26  29  8
28  31  8
29  32  8
3  35  6
31  32  8
4  36  5
5  37  6
6  19  5
7  38  6

$$$$

