6558437
  -OEChem-07051213153D

 19 19  0     1  0  0  0  0  0999 V2000
   -2.4099    1.0694   -0.3271 O   0  0  0  0  0  0  0  0  0  0  0  0
   -2.2464   -1.0341    0.5357 O   0  0  0  0  0  0  0  0  0  0  0  0
    0.3192   -1.2426   -0.0733 N   0  0  0  0  0  0  0  0  0  0  0  0
    1.8101    1.2527    0.0104 N   0  0  0  0  0  0  0  0  0  0  0  0
   -0.3029    0.0401   -0.4122 C   0  0  2  0  0  0  0  0  0  0  0  0
    0.3763    1.2039    0.3121 C   0  0  0  0  0  0  0  0  0  0  0  0
    1.7531   -1.1955   -0.3764 C   0  0  0  0  0  0  0  0  0  0  0  0
    2.4394   -0.0300    0.3381 C   0  0  0  0  0  0  0  0  0  0  0  0
   -1.7389   -0.0640   -0.0072 C   0  0  0  0  0  0  0  0  0  0  0  0
   -0.2697    0.1817   -1.5005 H   0  0  0  0  0  0  0  0  0  0  0  0
   -0.0701    2.1547   -0.0013 H   0  0  0  0  0  0  0  0  0  0  0  0
    0.2240    1.1329    1.3975 H   0  0  0  0  0  0  0  0  0  0  0  0
    1.9034   -1.1179   -1.4607 H   0  0  0  0  0  0  0  0  0  0  0  0
    2.2127   -2.1366   -0.0553 H   0  0  0  0  0  0  0  0  0  0  0  0
    2.4198   -0.1873    1.4239 H   0  0  0  0  0  0  0  0  0  0  0  0
    3.4925    0.0069    0.0385 H   0  0  0  0  0  0  0  0  0  0  0  0
   -0.1132   -1.9911   -0.6146 H   0  0  0  0  0  0  0  0  0  0  0  0
    2.2479    1.9958    0.5539 H   0  0  0  0  0  0  0  0  0  0  0  0
   -3.3552    1.0207   -0.0696 H   0  0  0  0  0  0  0  0  0  0  0  0
  1  9  1  0  0  0  0
  1 19  1  0  0  0  0
  2  9  2  0  0  0  0
  3  5  1  0  0  0  0
  3  7  1  0  0  0  0
  3 17  1  0  0  0  0
  4  6  1  0  0  0  0
  4  8  1  0  0  0  0
  4 18  1  0  0  0  0
  5  6  1  0  0  0  0
  5  9  1  0  0  0  0
  5 10  1  0  0  0  0
  6 11  1  0  0  0  0
  6 12  1  0  0  0  0
  7  8  1  0  0  0  0
  7 13  1  0  0  0  0
  7 14  1  0  0  0  0
  8 15  1  0  0  0  0
  8 16  1  0  0  0  0
M  END
> <PUBCHEM_COMPOUND_CID>
6558437

> <PUBCHEM_CONFORMER_RMSD>
0.4

> <PUBCHEM_CONFORMER_DIVERSEORDER>
1
6
3
4
2
5
9
12
11
8
7
10

> <PUBCHEM_MMFF94_PARTIAL_CHARGES>
12
1 -0.65
17 0.36
18 0.36
19 0.5
2 -0.57
3 -0.9
4 -0.9
5 0.33
6 0.27
7 0.27
8 0.27
9 0.66

> <PUBCHEM_EFFECTIVE_ROTOR_COUNT>
2.2

> <PUBCHEM_PHARMACOPHORE_FEATURES>
8
1 1 acceptor
1 2 acceptor
1 3 cation
1 3 donor
1 4 cation
1 4 donor
3 1 2 9 anion
6 3 4 5 6 7 8 rings

> <PUBCHEM_HEAVY_ATOM_COUNT>
9

> <PUBCHEM_ATOM_DEF_STEREO_COUNT>
1

> <PUBCHEM_ATOM_UDEF_STEREO_COUNT>
0

> <PUBCHEM_BOND_DEF_STEREO_COUNT>
0

> <PUBCHEM_BOND_UDEF_STEREO_COUNT>
0

> <PUBCHEM_ISOTOPIC_ATOM_COUNT>
0

> <PUBCHEM_COMPONENT_COUNT>
1

> <PUBCHEM_CACTVS_TAUTO_COUNT>
1

> <PUBCHEM_CONFORMER_ID>
006412E500000001

> <PUBCHEM_MMFF94_ENERGY>
7.2963

> <PUBCHEM_FEATURE_SELFOVERLAP>
40.654

> <PUBCHEM_SHAPE_FINGERPRINT>
10857977 72 18412270501586484410
19973954 147 18411416219790972797
21040471 1 18264211314046979364
23552423 10 18272646861528338022
29004967 10 18408321103195969978
5084963 1 18115025190928042211

> <PUBCHEM_SHAPE_MULTIPOLES>
163.52
3.41
1.43
0.67
0.63
0.04
0
-0.02
-0.18
-0.21
-0.01
0.02
-0.03
0.3

> <PUBCHEM_SHAPE_SELFOVERLAP>
321.256

> <PUBCHEM_SHAPE_VOLUME>
97

> <PUBCHEM_COORDINATE_TYPE>
2
5
10

$$$$

