585207
  -OEChem-06241222452D

 67 67  0     1  0  0  0  0  0999 V2000
    3.0000   -3.7500    0.0000 Si  0  0  0  0  0  0  0  0  0  0  0  0
    3.0000   -2.7500    0.0000 O   0  0  0  0  0  0  0  0  0  0  0  0
    3.8660   -2.2500    0.0000 C   0  0  3  0  0  0  0  0  0  0  0  0
    3.8660   -1.2500    0.0000 C   0  0  0  0  0  0  0  0  0  0  0  0
    4.7320   -0.7500    0.0000 C   0  0  0  0  0  0  0  0  0  0  0  0
    4.7320    0.2500    0.0000 C   0  0  0  0  0  0  0  0  0  0  0  0
    5.5981    0.7500    0.0000 C   0  0  0  0  0  0  0  0  0  0  0  0
    5.5981    1.7500    0.0000 C   0  0  0  0  0  0  0  0  0  0  0  0
    6.4641    2.2500    0.0000 C   0  0  0  0  0  0  0  0  0  0  0  0
    4.7320   -2.7500    0.0000 C   0  0  0  0  0  0  0  0  0  0  0  0
    6.4641    3.2500    0.0000 C   0  0  0  0  0  0  0  0  0  0  0  0
    7.3301    3.7500    0.0000 C   0  0  0  0  0  0  0  0  0  0  0  0
    7.3301    4.7500    0.0000 C   0  0  0  0  0  0  0  0  0  0  0  0
    3.0000   -4.7500    0.0000 C   0  0  0  0  0  0  0  0  0  0  0  0
    4.0000   -3.7500    0.0000 C   0  0  0  0  0  0  0  0  0  0  0  0
    2.0000   -3.7500    0.0000 C   0  0  0  0  0  0  0  0  0  0  0  0
    5.5981   -2.2500    0.0000 C   0  0  0  0  0  0  0  0  0  0  0  0
    8.1962    5.2500    0.0000 C   0  0  0  0  0  0  0  0  0  0  0  0
    8.1962    6.2500    0.0000 C   0  0  0  0  0  0  0  0  0  0  0  0
    2.1340   -5.2500    0.0000 C   0  0  0  0  0  0  0  0  0  0  0  0
    3.8660   -5.2500    0.0000 C   0  0  0  0  0  0  0  0  0  0  0  0
    2.1340   -6.2500    0.0000 C   0  0  0  0  0  0  0  0  0  0  0  0
    3.8660   -6.2500    0.0000 C   0  0  0  0  0  0  0  0  0  0  0  0
    9.0622    6.7500    0.0000 C   0  0  0  0  0  0  0  0  0  0  0  0
    3.0000   -6.7500    0.0000 C   0  0  0  0  0  0  0  0  0  0  0  0
    3.8660   -3.1000    0.0000 H   0  0  0  0  0  0  0  0  0  0  0  0
    3.6540   -0.6674    0.0000 H   0  0  0  0  0  0  0  0  0  0  0  0
    3.2554   -1.3577    0.0000 H   0  0  0  0  0  0  0  0  0  0  0  0
    4.9441   -1.3326    0.0000 H   0  0  0  0  0  0  0  0  0  0  0  0
    5.3426   -0.6423    0.0000 H   0  0  0  0  0  0  0  0  0  0  0  0
    4.5200    0.8326    0.0000 H   0  0  0  0  0  0  0  0  0  0  0  0
    4.1215    0.1423    0.0000 H   0  0  0  0  0  0  0  0  0  0  0  0
    5.8101    0.1674    0.0000 H   0  0  0  0  0  0  0  0  0  0  0  0
    6.2087    0.8577    0.0000 H   0  0  0  0  0  0  0  0  0  0  0  0
    5.3860    2.3326    0.0000 H   0  0  0  0  0  0  0  0  0  0  0  0
    4.9875    1.6423    0.0000 H   0  0  0  0  0  0  0  0  0  0  0  0
    6.6762    1.6674    0.0000 H   0  0  0  0  0  0  0  0  0  0  0  0
    7.0747    2.3577    0.0000 H   0  0  0  0  0  0  0  0  0  0  0  0
    4.3335   -3.2250    0.0000 H   0  0  0  0  0  0  0  0  0  0  0  0
    5.1306   -3.2250    0.0000 H   0  0  0  0  0  0  0  0  0  0  0  0
    6.2520    3.8326    0.0000 H   0  0  0  0  0  0  0  0  0  0  0  0
    5.8535    3.1423    0.0000 H   0  0  0  0  0  0  0  0  0  0  0  0
    7.5422    3.1674    0.0000 H   0  0  0  0  0  0  0  0  0  0  0  0
    7.9407    3.8577    0.0000 H   0  0  0  0  0  0  0  0  0  0  0  0
    7.1181    5.3326    0.0000 H   0  0  0  0  0  0  0  0  0  0  0  0
    6.7196    4.6423    0.0000 H   0  0  0  0  0  0  0  0  0  0  0  0
    4.0000   -4.3700    0.0000 H   0  0  0  0  0  0  0  0  0  0  0  0
    4.6200   -3.7500    0.0000 H   0  0  0  0  0  0  0  0  0  0  0  0
    4.0000   -3.1300    0.0000 H   0  0  0  0  0  0  0  0  0  0  0  0
    2.0000   -3.1300    0.0000 H   0  0  0  0  0  0  0  0  0  0  0  0
    1.3800   -3.7500    0.0000 H   0  0  0  0  0  0  0  0  0  0  0  0
    2.0000   -4.3700    0.0000 H   0  0  0  0  0  0  0  0  0  0  0  0
    5.9081   -2.7869    0.0000 H   0  0  0  0  0  0  0  0  0  0  0  0
    6.1350   -1.9400    0.0000 H   0  0  0  0  0  0  0  0  0  0  0  0
    5.2881   -1.7131    0.0000 H   0  0  0  0  0  0  0  0  0  0  0  0
    8.4082    4.6674    0.0000 H   0  0  0  0  0  0  0  0  0  0  0  0
    8.8067    5.3577    0.0000 H   0  0  0  0  0  0  0  0  0  0  0  0
    7.9841    6.8326    0.0000 H   0  0  0  0  0  0  0  0  0  0  0  0
    7.5856    6.1423    0.0000 H   0  0  0  0  0  0  0  0  0  0  0  0
    1.5970   -4.9400    0.0000 H   0  0  0  0  0  0  0  0  0  0  0  0
    4.4030   -4.9400    0.0000 H   0  0  0  0  0  0  0  0  0  0  0  0
    1.5970   -6.5600    0.0000 H   0  0  0  0  0  0  0  0  0  0  0  0
    4.4030   -6.5600    0.0000 H   0  0  0  0  0  0  0  0  0  0  0  0
    9.3722    6.2131    0.0000 H   0  0  0  0  0  0  0  0  0  0  0  0
    9.5991    7.0600    0.0000 H   0  0  0  0  0  0  0  0  0  0  0  0
    8.7522    7.2869    0.0000 H   0  0  0  0  0  0  0  0  0  0  0  0
    3.0000   -7.3700    0.0000 H   0  0  0  0  0  0  0  0  0  0  0  0
  1  2  1  0  0  0  0
  1 14  1  0  0  0  0
  1 15  1  0  0  0  0
  1 16  1  0  0  0  0
  2  3  1  0  0  0  0
  3  4  1  0  0  0  0
  3 10  1  0  0  0  0
  3 26  1  0  0  0  0
  4  5  1  0  0  0  0
  4 27  1  0  0  0  0
  4 28  1  0  0  0  0
  5  6  1  0  0  0  0
  5 29  1  0  0  0  0
  5 30  1  0  0  0  0
  6  7  1  0  0  0  0
  6 31  1  0  0  0  0
  6 32  1  0  0  0  0
  7  8  1  0  0  0  0
  7 33  1  0  0  0  0
  7 34  1  0  0  0  0
  8  9  1  0  0  0  0
  8 35  1  0  0  0  0
  8 36  1  0  0  0  0
  9 11  1  0  0  0  0
  9 37  1  0  0  0  0
  9 38  1  0  0  0  0
 10 17  1  0  0  0  0
 10 39  1  0  0  0  0
 10 40  1  0  0  0  0
 11 12  1  0  0  0  0
 11 41  1  0  0  0  0
 11 42  1  0  0  0  0
 12 13  1  0  0  0  0
 12 43  1  0  0  0  0
 12 44  1  0  0  0  0
 13 18  1  0  0  0  0
 13 45  1  0  0  0  0
 13 46  1  0  0  0  0
 14 20  2  0  0  0  0
 14 21  1  0  0  0  0
 15 47  1  0  0  0  0
 15 48  1  0  0  0  0
 15 49  1  0  0  0  0
 16 50  1  0  0  0  0
 16 51  1  0  0  0  0
 16 52  1  0  0  0  0
 17 53  1  0  0  0  0
 17 54  1  0  0  0  0
 17 55  1  0  0  0  0
 18 19  1  0  0  0  0
 18 56  1  0  0  0  0
 18 57  1  0  0  0  0
 19 24  1  0  0  0  0
 19 58  1  0  0  0  0
 19 59  1  0  0  0  0
 20 22  1  0  0  0  0
 20 60  1  0  0  0  0
 21 23  2  0  0  0  0
 21 61  1  0  0  0  0
 22 25  2  0  0  0  0
 22 62  1  0  0  0  0
 23 25  1  0  0  0  0
 23 63  1  0  0  0  0
 24 64  1  0  0  0  0
 24 65  1  0  0  0  0
 24 66  1  0  0  0  0
 25 67  1  0  0  0  0
M  END
> <PUBCHEM_COMPOUND_CID>
585207

> <PUBCHEM_COMPOUND_CANONICALIZED>
1

> <PUBCHEM_CACTVS_COMPLEXITY>
297

> <PUBCHEM_CACTVS_HBOND_ACCEPTOR>
1

> <PUBCHEM_CACTVS_HBOND_DONOR>
0

> <PUBCHEM_CACTVS_ROTATABLE_BOND>
15

> <PUBCHEM_CACTVS_SUBSKEYS>
AAADcfB4IAgAAAAAAAAAAAAAAAAAAAAAAAAwAAAAAAAAAAABAAAAGhAAAEAACBSgsAJyAIAAAAGAACBCAAACAAAgAAAIiAAAAIgIICKAERCAIAAkgAAIiAeAwKAAAAAAAAAAAAAAAAAAAAAAAAAAAAAAAA==

> <PUBCHEM_IUPAC_OPENEYE_NAME>
1-ethyltridecoxy-dimethyl-phenyl-silane

> <PUBCHEM_IUPAC_CAS_NAME>
dimethyl-pentadecan-3-yloxy-phenylsilane

> <PUBCHEM_IUPAC_NAME>
dimethyl-pentadecan-3-yloxy-phenylsilane

> <PUBCHEM_IUPAC_SYSTEMATIC_NAME>
dimethyl-pentadecan-3-yloxy-phenyl-silane

> <PUBCHEM_IUPAC_TRADITIONAL_NAME>
1-ethyltridecoxy-dimethyl-phenyl-silane

> <PUBCHEM_IUPAC_INCHI>
InChI=1S/C23H42OSi/c1-5-7-8-9-10-11-12-13-14-16-19-22(6-2)24-25(3,4)23-20-17-15-18-21-23/h15,17-18,20-22H,5-14,16,19H2,1-4H3

> <PUBCHEM_IUPAC_INCHIKEY>
ISVHELLEEAXBJL-UHFFFAOYSA-N

> <PUBCHEM_EXACT_MASS>
362.300492

> <PUBCHEM_MOLECULAR_FORMULA>
C23H42OSi

> <PUBCHEM_MOLECULAR_WEIGHT>
362.66448

> <PUBCHEM_OPENEYE_CAN_SMILES>
CCCCCCCCCCCCC(CC)O[Si](C)(C)C1=CC=CC=C1

> <PUBCHEM_OPENEYE_ISO_SMILES>
CCCCCCCCCCCCC(CC)O[Si](C)(C)C1=CC=CC=C1

> <PUBCHEM_CACTVS_TPSA>
9.2

> <PUBCHEM_MONOISOTOPIC_WEIGHT>
362.300492

> <PUBCHEM_TOTAL_CHARGE>
0

> <PUBCHEM_HEAVY_ATOM_COUNT>
25

> <PUBCHEM_ATOM_DEF_STEREO_COUNT>
0

> <PUBCHEM_ATOM_UDEF_STEREO_COUNT>
1

> <PUBCHEM_BOND_DEF_STEREO_COUNT>
0

> <PUBCHEM_BOND_UDEF_STEREO_COUNT>
0

> <PUBCHEM_ISOTOPIC_ATOM_COUNT>
0

> <PUBCHEM_COMPONENT_COUNT>
1

> <PUBCHEM_CACTVS_TAUTO_COUNT>
1

> <PUBCHEM_COORDINATE_TYPE>
1
5
255

> <PUBCHEM_BONDANNOTATIONS>
14  20  8
14  21  8
20  22  8
21  23  8
22  25  8
23  25  8
3  26  3

$$$$

