5126
  -OEChem-06261200323D

 14 13  0     1  0  0  0  0  0999 V2000
    1.9433    0.0527   -0.1163 O   0  0  0  0  0  0  0  0  0  0  0  0
   -1.6424   -0.7963    0.0291 N   0  0  0  0  0  0  0  0  0  0  0  0
   -0.4603   -0.0144   -0.3292 C   0  0  2  0  0  0  0  0  0  0  0  0
    0.7825   -0.6721    0.2716 C   0  0  0  0  0  0  0  0  0  0  0  0
   -0.6231    1.4301    0.1448 C   0  0  0  0  0  0  0  0  0  0  0  0
   -0.3683    0.0018   -1.4217 H   0  0  0  0  0  0  0  0  0  0  0  0
    0.7428   -0.6823    1.3662 H   0  0  0  0  0  0  0  0  0  0  0  0
    0.8966   -1.7056   -0.0732 H   0  0  0  0  0  0  0  0  0  0  0  0
    0.2242    2.0469   -0.1726 H   0  0  0  0  0  0  0  0  0  0  0  0
   -0.6934    1.4885    1.2368 H   0  0  0  0  0  0  0  0  0  0  0  0
   -1.5304    1.8779   -0.2759 H   0  0  0  0  0  0  0  0  0  0  0  0
   -1.7456   -0.8227    1.0431 H   0  0  0  0  0  0  0  0  0  0  0  0
   -1.5178   -1.7636   -0.2670 H   0  0  0  0  0  0  0  0  0  0  0  0
    1.9867    0.0381   -1.0876 H   0  0  0  0  0  0  0  0  0  0  0  0
  1  4  1  0  0  0  0
  1 14  1  0  0  0  0
  2  3  1  0  0  0  0
  2 12  1  0  0  0  0
  2 13  1  0  0  0  0
  3  4  1  0  0  0  0
  3  5  1  0  0  0  0
  3  6  1  0  0  0  0
  4  7  1  0  0  0  0
  4  8  1  0  0  0  0
  5  9  1  0  0  0  0
  5 10  1  0  0  0  0
  5 11  1  0  0  0  0
M  END
> <PUBCHEM_COMPOUND_CID>
5126

> <PUBCHEM_CONFORMER_RMSD>
0.4

> <PUBCHEM_CONFORMER_DIVERSEORDER>
1
6
5
3
4
2

> <PUBCHEM_MMFF94_PARTIAL_CHARGES>
7
1 -0.68
12 0.36
13 0.36
14 0.4
2 -0.99
3 0.27
4 0.28

> <PUBCHEM_EFFECTIVE_ROTOR_COUNT>
1

> <PUBCHEM_PHARMACOPHORE_FEATURES>
4
1 1 acceptor
1 1 donor
1 2 cation
1 2 donor

> <PUBCHEM_HEAVY_ATOM_COUNT>
5

> <PUBCHEM_ATOM_DEF_STEREO_COUNT>
0

> <PUBCHEM_ATOM_UDEF_STEREO_COUNT>
1

> <PUBCHEM_BOND_DEF_STEREO_COUNT>
0

> <PUBCHEM_BOND_UDEF_STEREO_COUNT>
0

> <PUBCHEM_ISOTOPIC_ATOM_COUNT>
0

> <PUBCHEM_COMPONENT_COUNT>
1

> <PUBCHEM_CACTVS_TAUTO_COUNT>
1

> <PUBCHEM_CONFORMER_ID>
0000140600000001

> <PUBCHEM_MMFF94_ENERGY>
-2.1203

> <PUBCHEM_FEATURE_SELFOVERLAP>
20.297

> <PUBCHEM_SHAPE_FINGERPRINT>
139733 1 9223242852960432479
16714656 1 18261386728593827014
20096714 4 17978510067873554232
21015797 1 8790588334486744655
21040471 1 17905048405966192616
29004967 10 18340201873814593707
5943 1 12961570344410748573

> <PUBCHEM_SHAPE_MULTIPOLES>
92.05
1.92
1.24
0.63
0.65
0.33
0
-0.18
-0.02
-0.47
0.08
-0.01
0.01
-0.06

> <PUBCHEM_SHAPE_SELFOVERLAP>
155.57

> <PUBCHEM_SHAPE_VOLUME>
63.1

> <PUBCHEM_COORDINATE_TYPE>
2
5
10

$$$$

