17395887
  -OEChem-06241222532D

 37 39  0     1  0  0  0  0  0999 V2000
    2.6691   -1.9920    0.0000 S   0  0  0  0  0  0  0  0  0  0  0  0
    6.1808   -0.8988    0.0000 O   0  0  0  0  0  0  0  0  0  0  0  0
    5.3147    3.6012    0.0000 O   0  0  0  0  0  0  0  0  0  0  0  0
    4.4487   -0.8988    0.0000 N   0  0  0  0  0  0  0  0  0  0  0  0
    4.4487    2.1012    0.0000 N   0  0  0  0  0  0  0  0  0  0  0  0
    4.4487    1.1012    0.0000 N   0  0  0  0  0  0  0  0  0  0  0  0
    4.4487   -1.8988    0.0000 C   0  0  3  0  0  0  0  0  0  0  0  0
    6.1808    1.1012    0.0000 C   0  0  0  0  0  0  0  0  0  0  0  0
    5.3147    0.6012    0.0000 C   0  0  0  0  0  0  0  0  0  0  0  0
    6.1808    2.1012    0.0000 C   0  0  0  0  0  0  0  0  0  0  0  0
    3.5827   -2.3988    0.0000 C   0  0  0  0  0  0  0  0  0  0  0  0
    5.3147   -0.3988    0.0000 C   0  0  0  0  0  0  0  0  0  0  0  0
    5.3147   -2.3988    0.0000 C   0  0  0  0  0  0  0  0  0  0  0  0
    5.3147    2.6012    0.0000 C   0  0  0  0  0  0  0  0  0  0  0  0
    7.0747    0.5666    0.0000 C   0  0  0  0  0  0  0  0  0  0  0  0
    7.0747    2.6359    0.0000 C   0  0  0  0  0  0  0  0  0  0  0  0
    3.4782   -3.3933    0.0000 C   0  0  0  0  0  0  0  0  0  0  0  0
    7.9808    1.0804    0.0000 C   0  0  0  0  0  0  0  0  0  0  0  0
    7.9808    2.1220    0.0000 C   0  0  0  0  0  0  0  0  0  0  0  0
    3.5827    2.6012    0.0000 C   0  0  0  0  0  0  0  0  0  0  0  0
    2.5000   -3.6012    0.0000 C   0  0  0  0  0  0  0  0  0  0  0  0
    2.0000   -2.7352    0.0000 C   0  0  0  0  0  0  0  0  0  0  0  0
    3.9118   -1.5888    0.0000 H   0  0  0  0  0  0  0  0  0  0  0  0
    3.9118   -0.5888    0.0000 H   0  0  0  0  0  0  0  0  0  0  0  0
    5.0047   -2.9357    0.0000 H   0  0  0  0  0  0  0  0  0  0  0  0
    5.8517   -2.7088    0.0000 H   0  0  0  0  0  0  0  0  0  0  0  0
    5.6247   -1.8618    0.0000 H   0  0  0  0  0  0  0  0  0  0  0  0
    7.0675   -0.0534    0.0000 H   0  0  0  0  0  0  0  0  0  0  0  0
    7.0675    3.2558    0.0000 H   0  0  0  0  0  0  0  0  0  0  0  0
    3.9389   -3.8082    0.0000 H   0  0  0  0  0  0  0  0  0  0  0  0
    8.5165    0.7683    0.0000 H   0  0  0  0  0  0  0  0  0  0  0  0
    8.5165    2.4341    0.0000 H   0  0  0  0  0  0  0  0  0  0  0  0
    3.8927    3.1382    0.0000 H   0  0  0  0  0  0  0  0  0  0  0  0
    3.0457    2.9112    0.0000 H   0  0  0  0  0  0  0  0  0  0  0  0
    3.2727    2.0643    0.0000 H   0  0  0  0  0  0  0  0  0  0  0  0
    2.2478   -4.1676    0.0000 H   0  0  0  0  0  0  0  0  0  0  0  0
    1.3834   -2.6704    0.0000 H   0  0  0  0  0  0  0  0  0  0  0  0
  1 11  1  0  0  0  0
  1 22  1  0  0  0  0
  2 12  2  0  0  0  0
  3 14  2  0  0  0  0
  4  7  1  0  0  0  0
  4 12  1  0  0  0  0
  4 24  1  0  0  0  0
  5  6  1  0  0  0  0
  5 14  1  0  0  0  0
  5 20  1  0  0  0  0
  6  9  2  0  0  0  0
  7 11  1  0  0  0  0
  7 13  1  0  0  0  0
  7 23  1  0  0  0  0
  8  9  1  0  0  0  0
  8 10  1  0  0  0  0
  8 15  2  0  0  0  0
  9 12  1  0  0  0  0
 10 14  1  0  0  0  0
 10 16  2  0  0  0  0
 11 17  2  0  0  0  0
 13 25  1  0  0  0  0
 13 26  1  0  0  0  0
 13 27  1  0  0  0  0
 15 18  1  0  0  0  0
 15 28  1  0  0  0  0
 16 19  1  0  0  0  0
 16 29  1  0  0  0  0
 17 21  1  0  0  0  0
 17 30  1  0  0  0  0
 18 19  2  0  0  0  0
 18 31  1  0  0  0  0
 19 32  1  0  0  0  0
 20 33  1  0  0  0  0
 20 34  1  0  0  0  0
 20 35  1  0  0  0  0
 21 22  2  0  0  0  0
 21 36  1  0  0  0  0
 22 37  1  0  0  0  0
M  END
> <PUBCHEM_COMPOUND_CID>
17395887

> <PUBCHEM_COMPOUND_CANONICALIZED>
1

> <PUBCHEM_CACTVS_COMPLEXITY>
494

> <PUBCHEM_CACTVS_HBOND_ACCEPTOR>
4

> <PUBCHEM_CACTVS_HBOND_DONOR>
1

> <PUBCHEM_CACTVS_ROTATABLE_BOND>
3

> <PUBCHEM_CACTVS_SUBSKEYS>
AAADccB7MABAAAAAAAAAAAAAAAAAASAAAAAwQAAAAAAAAACBwAAAHgQYAAAADCjF2ASyAYLAAAisAyFyEACTAIAkCBBaiJkoBNgIILKglRGEIQhgngCoiYcYi4COgAAAAAAQAAAAAAAAACAAAAAAAAAAAA==

> <PUBCHEM_IUPAC_OPENEYE_NAME>
3-methyl-4-oxo-N-[1-(2-thienyl)ethyl]phthalazine-1-carboxamide

> <PUBCHEM_IUPAC_CAS_NAME>
3-methyl-4-oxo-N-(1-thiophen-2-ylethyl)-1-phthalazinecarboxamide

> <PUBCHEM_IUPAC_NAME>
3-methyl-4-oxo-N-(1-thiophen-2-ylethyl)phthalazine-1-carboxamide

> <PUBCHEM_IUPAC_SYSTEMATIC_NAME>
3-methyl-4-oxidanylidene-N-(1-thiophen-2-ylethyl)phthalazine-1-carboxamide

> <PUBCHEM_IUPAC_TRADITIONAL_NAME>
4-keto-3-methyl-N-[1-(2-thienyl)ethyl]phthalazine-1-carboxamide

> <PUBCHEM_IUPAC_INCHI>
InChI=1S/C16H15N3O2S/c1-10(13-8-5-9-22-13)17-15(20)14-11-6-3-4-7-12(11)16(21)19(2)18-14/h3-10H,1-2H3,(H,17,20)

> <PUBCHEM_IUPAC_INCHIKEY>
HHXXNVHODVJHKA-UHFFFAOYSA-N

> <PUBCHEM_XLOGP3_AA>
2.2

> <PUBCHEM_EXACT_MASS>
313.088498

> <PUBCHEM_MOLECULAR_FORMULA>
C16H15N3O2S

> <PUBCHEM_MOLECULAR_WEIGHT>
313.3742

> <PUBCHEM_OPENEYE_CAN_SMILES>
CC(C1=CC=CS1)NC(=O)C2=NN(C(=O)C3=CC=CC=C32)C

> <PUBCHEM_OPENEYE_ISO_SMILES>
CC(C1=CC=CS1)NC(=O)C2=NN(C(=O)C3=CC=CC=C32)C

> <PUBCHEM_CACTVS_TPSA>
90

> <PUBCHEM_MONOISOTOPIC_WEIGHT>
313.088498

> <PUBCHEM_TOTAL_CHARGE>
0

> <PUBCHEM_HEAVY_ATOM_COUNT>
22

> <PUBCHEM_ATOM_DEF_STEREO_COUNT>
0

> <PUBCHEM_ATOM_UDEF_STEREO_COUNT>
1

> <PUBCHEM_BOND_DEF_STEREO_COUNT>
0

> <PUBCHEM_BOND_UDEF_STEREO_COUNT>
0

> <PUBCHEM_ISOTOPIC_ATOM_COUNT>
0

> <PUBCHEM_COMPONENT_COUNT>
1

> <PUBCHEM_CACTVS_TAUTO_COUNT>
2

> <PUBCHEM_COORDINATE_TYPE>
1
5
255

> <PUBCHEM_BONDANNOTATIONS>
1  11  8
1  22  8
10  14  8
10  16  8
11  17  8
15  18  8
16  19  8
17  21  8
18  19  8
21  22  8
5  14  8
5  6  8
6  9  8
7  13  3
8  10  8
8  15  8
8  9  8

$$$$

