5281838
  -OEChem-07051213002D

 47 49  0     0  0  0  0  0  0999 V2000
    7.8167    2.1315    0.0000 O   0  0  0  0  0  0  0  0  0  0  0  0
    4.3198   -1.9377    0.0000 O   0  0  0  0  0  0  0  0  0  0  0  0
    6.0682    2.0969    0.0000 O   0  0  0  0  0  0  0  0  0  0  0  0
    9.5984   -0.9273    0.0000 O   0  0  0  0  0  0  0  0  0  0  0  0
    2.5381   -0.9273    0.0000 O   0  0  0  0  0  0  0  0  0  0  0  0
    6.0682   -0.9031    0.0000 N   0  0  0  0  0  0  0  0  0  0  0  0
    6.9343   -0.4031    0.0000 C   0  0  0  0  0  0  0  0  0  0  0  0
    6.9343    0.5969    0.0000 C   0  0  0  0  0  0  0  0  0  0  0  0
    5.2022   -0.4031    0.0000 C   0  0  0  0  0  0  0  0  0  0  0  0
    5.2022    0.5969    0.0000 C   0  0  0  0  0  0  0  0  0  0  0  0
    6.0682    1.0969    0.0000 C   0  0  0  0  0  0  0  0  0  0  0  0
    7.8282    1.1316    0.0000 C   0  0  0  0  0  0  0  0  0  0  0  0
    8.7343    0.6177    0.0000 C   0  0  0  0  0  0  0  0  0  0  0  0
    7.8282   -0.9378    0.0000 C   0  0  0  0  0  0  0  0  0  0  0  0
    8.7343   -0.4239    0.0000 C   0  0  0  0  0  0  0  0  0  0  0  0
    4.3083   -0.9378    0.0000 C   0  0  0  0  0  0  0  0  0  0  0  0
    9.5984    1.1211    0.0000 C   0  0  0  0  0  0  0  0  0  0  0  0
    6.0682   -1.9031    0.0000 C   0  0  0  0  0  0  0  0  0  0  0  0
    4.3083    1.1316    0.0000 C   0  0  0  0  0  0  0  0  0  0  0  0
    3.4022   -0.4239    0.0000 C   0  0  0  0  0  0  0  0  0  0  0  0
    3.4022    0.6177    0.0000 C   0  0  0  0  0  0  0  0  0  0  0  0
   10.4663    0.6244    0.0000 C   0  0  0  0  0  0  0  0  0  0  0  0
   11.3304    1.1277    0.0000 C   0  0  0  0  0  0  0  0  0  0  0  0
    3.4597   -2.4477    0.0000 C   0  0  0  0  0  0  0  0  0  0  0  0
   12.1984    0.6311    0.0000 C   0  0  0  0  0  0  0  0  0  0  0  0
   11.3266    2.1277    0.0000 C   0  0  0  0  0  0  0  0  0  0  0  0
    7.8210   -1.5577    0.0000 H   0  0  0  0  0  0  0  0  0  0  0  0
    9.9951    1.5975    0.0000 H   0  0  0  0  0  0  0  0  0  0  0  0
    9.1980    1.5944    0.0000 H   0  0  0  0  0  0  0  0  0  0  0  0
    5.4482   -1.9031    0.0000 H   0  0  0  0  0  0  0  0  0  0  0  0
    6.0682   -2.5231    0.0000 H   0  0  0  0  0  0  0  0  0  0  0  0
    6.6882   -1.9031    0.0000 H   0  0  0  0  0  0  0  0  0  0  0  0
    4.3154    1.7515    0.0000 H   0  0  0  0  0  0  0  0  0  0  0  0
    2.8665    0.9298    0.0000 H   0  0  0  0  0  0  0  0  0  0  0  0
   10.4687    0.0044    0.0000 H   0  0  0  0  0  0  0  0  0  0  0  0
    8.3500    2.4477    0.0000 H   0  0  0  0  0  0  0  0  0  0  0  0
    9.5960   -1.5472    0.0000 H   0  0  0  0  0  0  0  0  0  0  0  0
    2.0000   -0.6193    0.0000 H   0  0  0  0  0  0  0  0  0  0  0  0
    3.1435   -1.9144    0.0000 H   0  0  0  0  0  0  0  0  0  0  0  0
    2.9263   -2.7639    0.0000 H   0  0  0  0  0  0  0  0  0  0  0  0
    3.7758   -2.9810    0.0000 H   0  0  0  0  0  0  0  0  0  0  0  0
   11.8904    0.0929    0.0000 H   0  0  0  0  0  0  0  0  0  0  0  0
   11.9466    2.1301    0.0000 H   0  0  0  0  0  0  0  0  0  0  0  0
   11.3242    2.7477    0.0000 H   0  0  0  0  0  0  0  0  0  0  0  0
   10.7066    2.1253    0.0000 H   0  0  0  0  0  0  0  0  0  0  0  0
   12.7365    0.3231    0.0000 H   0  0  0  0  0  0  0  0  0  0  0  0
   12.5063    1.1692    0.0000 H   0  0  0  0  0  0  0  0  0  0  0  0
  1 12  1  0  0  0  0
  1 36  1  0  0  0  0
  2 16  1  0  0  0  0
  2 24  1  0  0  0  0
  3 11  2  0  0  0  0
  4 15  1  0  0  0  0
  4 37  1  0  0  0  0
  5 20  1  0  0  0  0
  5 38  1  0  0  0  0
  6  7  1  0  0  0  0
  6  9  1  0  0  0  0
  6 18  1  0  0  0  0
  7  8  1  0  0  0  0
  7 14  2  0  0  0  0
  8 11  1  0  0  0  0
  8 12  2  0  0  0  0
  9 10  2  0  0  0  0
  9 16  1  0  0  0  0
 10 11  1  0  0  0  0
 10 19  1  0  0  0  0
 12 13  1  0  0  0  0
 13 15  2  0  0  0  0
 13 17  1  0  0  0  0
 14 15  1  0  0  0  0
 14 27  1  0  0  0  0
 16 20  2  0  0  0  0
 17 22  1  0  0  0  0
 17 28  1  0  0  0  0
 17 29  1  0  0  0  0
 18 30  1  0  0  0  0
 18 31  1  0  0  0  0
 18 32  1  0  0  0  0
 19 21  2  0  0  0  0
 19 33  1  0  0  0  0
 20 21  1  0  0  0  0
 21 34  1  0  0  0  0
 22 23  2  0  0  0  0
 22 35  1  0  0  0  0
 23 25  1  0  0  0  0
 23 26  1  0  0  0  0
 24 39  1  0  0  0  0
 24 40  1  0  0  0  0
 24 41  1  0  0  0  0
 25 42  1  0  0  0  0
 25 46  1  0  0  0  0
 25 47  1  0  0  0  0
 26 43  1  0  0  0  0
 26 44  1  0  0  0  0
 26 45  1  0  0  0  0
M  END
> <PUBCHEM_COMPOUND_CID>
5281838

> <PUBCHEM_COMPOUND_CANONICALIZED>
1

> <PUBCHEM_CACTVS_COMPLEXITY>
560

> <PUBCHEM_CACTVS_HBOND_ACCEPTOR>
6

> <PUBCHEM_CACTVS_HBOND_DONOR>
3

> <PUBCHEM_CACTVS_ROTATABLE_BOND>
3

> <PUBCHEM_CACTVS_SUBSKEYS>
AAADceB6OAAAAAAAAAAAAAAAAAAAAAAAAAA8YIAAAAAAAACxQAAAHgAACAAADAyBmAYyxoMABgCIAqRSQACCCAAlIgAIiAEP7MgPJ37GtZuFcetn4B3b+cea/PfOKAADCgAKUABQAAYUABSgAAAAAAAAAA==

> <PUBCHEM_IUPAC_OPENEYE_NAME>
1,3,6-trihydroxy-5-methoxy-10-methyl-2-(3-methylbut-2-enyl)acridin-9-one

> <PUBCHEM_IUPAC_CAS_NAME>
1,3,6-trihydroxy-5-methoxy-10-methyl-2-(3-methylbut-2-enyl)-9-acridinone

> <PUBCHEM_IUPAC_NAME>
1,3,6-trihydroxy-5-methoxy-10-methyl-2-(3-methylbut-2-enyl)acridin-9-one

> <PUBCHEM_IUPAC_SYSTEMATIC_NAME>
5-methoxy-10-methyl-2-(3-methylbut-2-enyl)-1,3,6-tris(oxidanyl)acridin-9-one

> <PUBCHEM_IUPAC_TRADITIONAL_NAME>
1,3,6-trihydroxy-5-methoxy-10-methyl-2-(3-methylbut-2-enyl)acridin-9-one

> <PUBCHEM_IUPAC_INCHI>
InChI=1S/C20H21NO5/c1-10(2)5-6-11-15(23)9-13-16(18(11)24)19(25)12-7-8-14(22)20(26-4)17(12)21(13)3/h5,7-9,22-24H,6H2,1-4H3

> <PUBCHEM_IUPAC_INCHIKEY>
XUUGIWDILRFFER-UHFFFAOYSA-N

> <PUBCHEM_XLOGP3_AA>
4.5

> <PUBCHEM_EXACT_MASS>
355.141973

> <PUBCHEM_MOLECULAR_FORMULA>
C20H21NO5

> <PUBCHEM_MOLECULAR_WEIGHT>
355.38444

> <PUBCHEM_OPENEYE_CAN_SMILES>
CC(=CCC1=C(C=C2C(=C1O)C(=O)C3=C(N2C)C(=C(C=C3)O)OC)O)C

> <PUBCHEM_OPENEYE_ISO_SMILES>
CC(=CCC1=C(C=C2C(=C1O)C(=O)C3=C(N2C)C(=C(C=C3)O)OC)O)C

> <PUBCHEM_CACTVS_TPSA>
90.2

> <PUBCHEM_MONOISOTOPIC_WEIGHT>
355.141973

> <PUBCHEM_TOTAL_CHARGE>
0

> <PUBCHEM_HEAVY_ATOM_COUNT>
26

> <PUBCHEM_ATOM_DEF_STEREO_COUNT>
0

> <PUBCHEM_ATOM_UDEF_STEREO_COUNT>
0

> <PUBCHEM_BOND_DEF_STEREO_COUNT>
0

> <PUBCHEM_BOND_UDEF_STEREO_COUNT>
0

> <PUBCHEM_ISOTOPIC_ATOM_COUNT>
0

> <PUBCHEM_COMPONENT_COUNT>
1

> <PUBCHEM_CACTVS_TAUTO_COUNT>
57

> <PUBCHEM_COORDINATE_TYPE>
1
5
255

> <PUBCHEM_BONDANNOTATIONS>
10  11  8
10  19  8
12  13  8
13  15  8
14  15  8
16  20  8
19  21  8
20  21  8
6  7  8
6  9  8
7  14  8
7  8  8
8  11  8
8  12  8
9  10  8
9  16  8

$$$$

