442220
  -OEChem-07051212572D

 49 52  0     1  0  0  0  0  0999 V2000
    3.9030   -0.5817    0.0000 O   0  0  0  0  0  0  0  0  0  0  0  0
    4.3759   -2.5131    0.0000 O   0  0  0  0  0  0  0  0  0  0  0  0
    2.8698    0.0328    0.0000 O   0  0  0  0  0  0  0  0  0  0  0  0
    2.8660    2.0854    0.0000 O   0  0  0  0  0  0  0  0  0  0  0  0
    7.2787    0.5603    0.0000 N   0  0  3  0  0  0  0  0  0  0  0  0
    6.4091    0.0583    0.0000 C   0  0  2  0  0  0  0  0  0  0  0  0
    6.6192   -0.9175    0.0000 C   0  0  0  0  0  0  0  0  0  0  0  0
    5.3894   -0.1449    0.0000 C   0  0  0  0  0  0  0  0  0  0  0  0
    8.0187   -0.1095    0.0000 C   0  0  0  0  0  0  0  0  0  0  0  0
    7.6119   -1.0211    0.0000 C   0  0  0  0  0  0  0  0  0  0  0  0
    5.5395    0.5603    0.0000 C   0  0  0  0  0  0  0  0  0  0  0  0
    4.8699   -0.8370    0.0000 C   0  0  2  0  0  0  0  0  0  0  0  0
    7.2787    1.5645    0.0000 C   0  0  0  0  0  0  0  0  0  0  0  0
    4.9828   -1.7183    0.0000 C   0  0  2  0  0  0  0  0  0  0  0  0
    6.1128   -1.5602    0.0000 C   0  0  0  0  0  0  0  0  0  0  0  0
    6.4091    2.0665    0.0000 C   0  0  0  0  0  0  0  0  0  0  0  0
    5.5395    1.5645    0.0000 C   0  0  0  0  0  0  0  0  0  0  0  0
    4.6418    0.0234    0.0000 C   0  0  0  0  0  0  0  0  0  0  0  0
    4.6418    2.1014    0.0000 C   0  0  0  0  0  0  0  0  0  0  0  0
    3.7320    0.5394    0.0000 C   0  0  0  0  0  0  0  0  0  0  0  0
    3.7320    1.5854    0.0000 C   0  0  0  0  0  0  0  0  0  0  0  0
    3.1985   -1.2913    0.0000 C   0  0  0  0  0  0  0  0  0  0  0  0
    2.0000    0.5262    0.0000 C   0  0  0  0  0  0  0  0  0  0  0  0
    2.8660    3.0854    0.0000 C   0  0  0  0  0  0  0  0  0  0  0  0
    5.4411    0.4730    0.0000 H   0  0  0  0  0  0  0  0  0  0  0  0
    4.8100    0.0757    0.0000 H   0  0  0  0  0  0  0  0  0  0  0  0
    8.5552   -0.4203    0.0000 H   0  0  0  0  0  0  0  0  0  0  0  0
    8.3841    0.3913    0.0000 H   0  0  0  0  0  0  0  0  0  0  0  0
    7.4832   -1.6276    0.0000 H   0  0  0  0  0  0  0  0  0  0  0  0
    8.2015   -1.2128    0.0000 H   0  0  0  0  0  0  0  0  0  0  0  0
    4.6664   -0.2513    0.0000 H   0  0  0  0  0  0  0  0  0  0  0  0
    7.8892    1.4568    0.0000 H   0  0  0  0  0  0  0  0  0  0  0  0
    7.4907    2.1471    0.0000 H   0  0  0  0  0  0  0  0  0  0  0  0
    5.2957   -2.2536    0.0000 H   0  0  0  0  0  0  0  0  0  0  0  0
    6.4215   -2.0978    0.0000 H   0  0  0  0  0  0  0  0  0  0  0  0
    6.8076    2.5415    0.0000 H   0  0  0  0  0  0  0  0  0  0  0  0
    6.0106    2.5415    0.0000 H   0  0  0  0  0  0  0  0  0  0  0  0
    4.6490   -0.5965    0.0000 H   0  0  0  0  0  0  0  0  0  0  0  0
    4.6490    2.7213    0.0000 H   0  0  0  0  0  0  0  0  0  0  0  0
    4.6146   -3.0854    0.0000 H   0  0  0  0  0  0  0  0  0  0  0  0
    2.7585   -0.8545    0.0000 H   0  0  0  0  0  0  0  0  0  0  0  0
    2.7616   -1.7313    0.0000 H   0  0  0  0  0  0  0  0  0  0  0  0
    3.6384   -1.7281    0.0000 H   0  0  0  0  0  0  0  0  0  0  0  0
    2.3059    1.0655    0.0000 H   0  0  0  0  0  0  0  0  0  0  0  0
    1.4607    0.8321    0.0000 H   0  0  0  0  0  0  0  0  0  0  0  0
    1.6941   -0.0131    0.0000 H   0  0  0  0  0  0  0  0  0  0  0  0
    3.4860    3.0854    0.0000 H   0  0  0  0  0  0  0  0  0  0  0  0
    2.8660    3.7054    0.0000 H   0  0  0  0  0  0  0  0  0  0  0  0
    2.2460    3.0854    0.0000 H   0  0  0  0  0  0  0  0  0  0  0  0
 12  1  1  6  0  0  0
  1 22  1  0  0  0  0
 14  2  1  6  0  0  0
  2 40  1  0  0  0  0
  3 20  1  0  0  0  0
  3 23  1  0  0  0  0
  4 21  1  0  0  0  0
  4 24  1  0  0  0  0
  5  6  1  0  0  0  0
  5  9  1  0  0  0  0
  5 13  1  0  0  0  0
  6  7  1  0  0  0  0
  6  8  1  6  0  0  0
  6 11  1  0  0  0  0
  7 10  1  0  0  0  0
  7 15  2  0  0  0  0
  8 12  1  0  0  0  0
  8 25  1  0  0  0  0
  8 26  1  0  0  0  0
  9 10  1  0  0  0  0
  9 27  1  0  0  0  0
  9 28  1  0  0  0  0
 10 29  1  0  0  0  0
 10 30  1  0  0  0  0
 11 17  1  0  0  0  0
 11 18  2  0  0  0  0
 12 14  1  0  0  0  0
 12 31  1  0  0  0  0
 13 16  1  0  0  0  0
 13 32  1  0  0  0  0
 13 33  1  0  0  0  0
 14 15  1  0  0  0  0
 14 34  1  0  0  0  0
 15 35  1  0  0  0  0
 16 17  1  0  0  0  0
 16 36  1  0  0  0  0
 16 37  1  0  0  0  0
 17 19  2  0  0  0  0
 18 20  1  0  0  0  0
 18 38  1  0  0  0  0
 19 21  1  0  0  0  0
 19 39  1  0  0  0  0
 20 21  2  0  0  0  0
 22 41  1  0  0  0  0
 22 42  1  0  0  0  0
 22 43  1  0  0  0  0
 23 44  1  0  0  0  0
 23 45  1  0  0  0  0
 23 46  1  0  0  0  0
 24 47  1  0  0  0  0
 24 48  1  0  0  0  0
 24 49  1  0  0  0  0
M  END
> <PUBCHEM_COMPOUND_CID>
442220

> <PUBCHEM_COMPOUND_CANONICALIZED>
1

> <PUBCHEM_CACTVS_COMPLEXITY>
510

> <PUBCHEM_CACTVS_HBOND_ACCEPTOR>
5

> <PUBCHEM_CACTVS_HBOND_DONOR>
1

> <PUBCHEM_CACTVS_ROTATABLE_BOND>
3

> <PUBCHEM_CACTVS_SUBSKEYS>
AAADceB6OAAAAAAAAAAAAAAAAAAAAWAAAAA8QIAAAAAAAFixAAAAHgAACAAADJzhmAYyBoMABgCAAiBCAACCCAAgIAAAiAAOjIgNNiKEsRuEcCpmwBGLuAew0PMOoAABAAAQQABAAAIAACCAAAAAAAAAAA==

> <PUBCHEM_IUPAC_OPENEYE_NAME>
(2R,3S,13bS)-2,11,12-trimethoxy-2,3,5,6,8,9-hexahydro-1H-indolo[7a,1-a]isoquinolin-3-ol

> <PUBCHEM_IUPAC_CAS_NAME>
(2R,3S,13bS)-2,11,12-trimethoxy-2,3,5,6,8,9-hexahydro-1H-indolo[7a,1-a]isoquinolin-3-ol

> <PUBCHEM_IUPAC_NAME>
(2R,3S,13bS)-2,11,12-trimethoxy-2,3,5,6,8,9-hexahydro-1H-indolo[7a,1-a]isoquinolin-3-ol

> <PUBCHEM_IUPAC_SYSTEMATIC_NAME>
(2R,3S,13bS)-2,11,12-trimethoxy-2,3,5,6,8,9-hexahydro-1H-indolo[7a,1-a]isoquinolin-3-ol

> <PUBCHEM_IUPAC_TRADITIONAL_NAME>
(2R,3S,13bS)-2,11,12-trimethoxy-2,3,5,6,8,9-hexahydro-1H-indol[7a,1-a]isoquinolin-3-ol

> <PUBCHEM_IUPAC_INCHI>
InChI=1S/C19H25NO4/c1-22-16-8-12-4-6-20-7-5-13-9-15(21)18(24-3)11-19(13,20)14(12)10-17(16)23-2/h8-10,15,18,21H,4-7,11H2,1-3H3/t15-,18+,19-/m0/s1

> <PUBCHEM_IUPAC_INCHIKEY>
YUWBVDCNLWYPIU-IPELMVKDSA-N

> <PUBCHEM_XLOGP3_AA>
1.2

> <PUBCHEM_EXACT_MASS>
331.178358

> <PUBCHEM_MOLECULAR_FORMULA>
C19H25NO4

> <PUBCHEM_MOLECULAR_WEIGHT>
331.4061

> <PUBCHEM_OPENEYE_CAN_SMILES>
COC1CC23C(=CC1O)CCN2CCC4=CC(=C(C=C34)OC)OC

> <PUBCHEM_OPENEYE_ISO_SMILES>
CO[C@@H]1C[C@@]23C(=C[C@@H]1O)CCN2CCC4=CC(=C(C=C34)OC)OC

> <PUBCHEM_CACTVS_TPSA>
51.2

> <PUBCHEM_MONOISOTOPIC_WEIGHT>
331.178358

> <PUBCHEM_TOTAL_CHARGE>
0

> <PUBCHEM_HEAVY_ATOM_COUNT>
24

> <PUBCHEM_ATOM_DEF_STEREO_COUNT>
3

> <PUBCHEM_ATOM_UDEF_STEREO_COUNT>
0

> <PUBCHEM_BOND_DEF_STEREO_COUNT>
0

> <PUBCHEM_BOND_UDEF_STEREO_COUNT>
0

> <PUBCHEM_ISOTOPIC_ATOM_COUNT>
0

> <PUBCHEM_COMPONENT_COUNT>
1

> <PUBCHEM_CACTVS_TAUTO_COUNT>
1

> <PUBCHEM_COORDINATE_TYPE>
1
5
255

> <PUBCHEM_BONDANNOTATIONS>
12  1  6
11  17  8
11  18  8
17  19  8
18  20  8
19  21  8
14  2  6
20  21  8
6  8  6

$$$$

