8426
  -OEChem-06261202493D

 32 33  0     0  0  0  0  0  0999 V2000
    4.8727    0.9126   -0.2666 O   0  0  0  0  0  0  0  0  0  0  0  0
   -0.7728   -1.7914    0.5106 O   0  0  0  0  0  0  0  0  0  0  0  0
   -1.4438    0.3652   -0.1249 N   0  0  0  0  0  0  0  0  0  0  0  0
    4.1813   -1.7864   -0.6624 N   0  0  0  0  0  0  0  0  0  0  0  0
    0.8945   -0.2374    0.0458 C   0  0  0  0  0  0  0  0  0  0  0  0
    3.2060   -0.8112   -0.3597 C   0  0  0  0  0  0  0  0  0  0  0  0
    1.8680   -1.1906   -0.2534 C   0  0  0  0  0  0  0  0  0  0  0  0
    3.5708    0.5213   -0.1672 C   0  0  0  0  0  0  0  0  0  0  0  0
    1.2593    1.0952    0.2386 C   0  0  0  0  0  0  0  0  0  0  0  0
   -0.5005   -0.6323    0.1585 C   0  0  0  0  0  0  0  0  0  0  0  0
    2.5973    1.4745    0.1319 C   0  0  0  0  0  0  0  0  0  0  0  0
   -2.8570    0.2820   -0.0765 C   0  0  0  0  0  0  0  0  0  0  0  0
   -3.4516   -0.9127    0.2917 C   0  0  0  0  0  0  0  0  0  0  0  0
   -3.6115    1.3970   -0.3988 C   0  0  0  0  0  0  0  0  0  0  0  0
   -4.8433   -0.9948    0.3391 C   0  0  0  0  0  0  0  0  0  0  0  0
   -5.0032    1.3149   -0.3510 C   0  0  0  0  0  0  0  0  0  0  0  0
   -5.6191    0.1190    0.0179 C   0  0  0  0  0  0  0  0  0  0  0  0
    5.6527    0.8751    0.9265 C   0  0  0  0  0  0  0  0  0  0  0  0
    1.5910   -2.2310   -0.4099 H   0  0  0  0  0  0  0  0  0  0  0  0
    0.5443    1.8656    0.5113 H   0  0  0  0  0  0  0  0  0  0  0  0
    2.8755    2.5130    0.2909 H   0  0  0  0  0  0  0  0  0  0  0  0
   -1.1050    1.2682   -0.4456 H   0  0  0  0  0  0  0  0  0  0  0  0
   -2.9227   -1.8166    0.5542 H   0  0  0  0  0  0  0  0  0  0  0  0
   -3.1422    2.3334   -0.6872 H   0  0  0  0  0  0  0  0  0  0  0  0
   -5.3243   -1.9255    0.6262 H   0  0  0  0  0  0  0  0  0  0  0  0
   -5.6074    2.1822   -0.6011 H   0  0  0  0  0  0  0  0  0  0  0  0
    3.9084   -2.7498   -0.8043 H   0  0  0  0  0  0  0  0  0  0  0  0
    5.1514   -1.5166   -0.7574 H   0  0  0  0  0  0  0  0  0  0  0  0
   -6.7027    0.0551    0.0550 H   0  0  0  0  0  0  0  0  0  0  0  0
    5.6804   -0.1367    1.3430 H   0  0  0  0  0  0  0  0  0  0  0  0
    5.2512    1.5741    1.6669 H   0  0  0  0  0  0  0  0  0  0  0  0
    6.6734    1.1781    0.6778 H   0  0  0  0  0  0  0  0  0  0  0  0
  1  8  1  0  0  0  0
  1 18  1  0  0  0  0
  2 10  2  0  0  0  0
  3 10  1  0  0  0  0
  3 12  1  0  0  0  0
  3 22  1  0  0  0  0
  4  6  1  0  0  0  0
  4 27  1  0  0  0  0
  4 28  1  0  0  0  0
  5  7  2  0  0  0  0
  5  9  1  0  0  0  0
  5 10  1  0  0  0  0
  6  7  1  0  0  0  0
  6  8  2  0  0  0  0
  7 19  1  0  0  0  0
  8 11  1  0  0  0  0
  9 11  2  0  0  0  0
  9 20  1  0  0  0  0
 11 21  1  0  0  0  0
 12 13  2  0  0  0  0
 12 14  1  0  0  0  0
 13 15  1  0  0  0  0
 13 23  1  0  0  0  0
 14 16  2  0  0  0  0
 14 24  1  0  0  0  0
 15 17  2  0  0  0  0
 15 25  1  0  0  0  0
 16 17  1  0  0  0  0
 16 26  1  0  0  0  0
 17 29  1  0  0  0  0
 18 30  1  0  0  0  0
 18 31  1  0  0  0  0
 18 32  1  0  0  0  0
M  END
> <PUBCHEM_COMPOUND_CID>
8426

> <PUBCHEM_CONFORMER_RMSD>
0.6

> <PUBCHEM_CONFORMER_DIVERSEORDER>
1
12
2
3
5
11
6
9
10
4
8
7

> <PUBCHEM_MMFF94_PARTIAL_CHARGES>
29
1 -0.36
10 0.54
11 -0.15
12 0.12
13 -0.15
14 -0.15
15 -0.15
16 -0.15
17 -0.15
18 0.28
19 0.15
2 -0.57
20 0.15
21 0.15
22 0.37
23 0.15
24 0.15
25 0.15
26 0.15
27 0.4
28 0.4
29 0.15
3 -0.55
4 -0.9
5 0.09
6 0.1
7 -0.15
8 0.08
9 -0.15

> <PUBCHEM_EFFECTIVE_ROTOR_COUNT>
4

> <PUBCHEM_PHARMACOPHORE_FEATURES>
7
1 1 acceptor
1 2 acceptor
1 3 donor
1 4 cation
1 4 donor
6 12 13 14 15 16 17 rings
6 5 6 7 8 9 11 rings

> <PUBCHEM_HEAVY_ATOM_COUNT>
18

> <PUBCHEM_ATOM_DEF_STEREO_COUNT>
0

> <PUBCHEM_ATOM_UDEF_STEREO_COUNT>
0

> <PUBCHEM_BOND_DEF_STEREO_COUNT>
0

> <PUBCHEM_BOND_UDEF_STEREO_COUNT>
0

> <PUBCHEM_ISOTOPIC_ATOM_COUNT>
0

> <PUBCHEM_COMPONENT_COUNT>
1

> <PUBCHEM_CACTVS_TAUTO_COUNT>
2

> <PUBCHEM_CONFORMER_ID>
000020EA00000001

> <PUBCHEM_MMFF94_ENERGY>
78.6288

> <PUBCHEM_FEATURE_SELFOVERLAP>
35.52

> <PUBCHEM_SHAPE_FINGERPRINT>
10 15 18269281179786103648
11128504 68 14923945622232989744
11287383 113 18411980251954560635
11471102 20 18335419088670518382
12107183 9 17692817407698294745
12236239 1 16515681147800932969
12507557 5 18335701620283485329
12616971 3 13326851110923762355
12916748 109 18343860030783866033
13073987 5 18260826037856513625
13081056 2 18412824698802777197
13533116 47 16298381405688659190
14251764 18 18060145310939561176
14341114 176 18410847785543966701
14573314 32 18413103978655424517
15196674 1 18411135861563547541
17834072 33 18187086143767552287
17844677 252 18336255834173063125
18186145 218 18272938249474099831
19489759 90 17346601863794875473
200 152 17894349986540624993
20645477 56 18411703153633998537
20645477 70 18114739438549416734
21267235 1 18337099142142601375
21279426 13 18267021845818630445
221357 26 18334579066309179365
23402539 116 18411426076782939957
23402655 69 18260267460137562397
23559900 14 18409447012136105550
2916195 48 18409455756177954008
29717793 49 17095798931765901940
300161 21 17749115478010104070
3004659 81 18271522096199970702
34934 24 18334019359208735462
351380 180 18412545405526956513
3545911 37 18335137574775429376
4047638 21 18342736325805719710
4072396 5 18335431171041276282
4214541 1 18411417336962368285
4990 188 18336823181961960199
5104073 3 18411697724969423563
5281201 14 18411695500028800605
542803 24 15267055961053642999
633830 44 18343024402020771911
69090 78 18335702715442123367
77779 3 18410853270190687093
9709674 26 18340198596892040979

> <PUBCHEM_SHAPE_MULTIPOLES>
348.73
13.17
1.65
0.73
2.3
0.18
0.03
-2.43
0.43
-0.34
-0.05
-0.26
0.01
0.99

> <PUBCHEM_SHAPE_SELFOVERLAP>
748.3

> <PUBCHEM_SHAPE_VOLUME>
192.3

> <PUBCHEM_COORDINATE_TYPE>
2
5
10

$$$$

