9890450
  -OEChem-07051213023D

 52 55  0     1  0  0  0  0  0999 V2000
   -2.6644    3.0080    0.1296 S   0  0  0  0  0  0  0  0  0  0  0  0
   -0.2517    4.3322    1.4132 S   0  0  0  0  0  0  0  0  0  0  0  0
   -1.2144   -2.1871   -1.5055 O   0  0  0  0  0  0  0  0  0  0  0  0
   -4.0173   -3.8165    0.1458 O   0  0  0  0  0  0  0  0  0  0  0  0
   -2.8455    0.0696   -3.2506 O   0  0  0  0  0  0  0  0  0  0  0  0
   -1.5348    1.8293   -2.6060 O   0  0  0  0  0  0  0  0  0  0  0  0
    4.2591   -2.6838    0.5819 O   0  0  0  0  0  0  0  0  0  0  0  0
   -2.9399   -0.7945   -0.7021 N   0  0  0  0  0  0  0  0  0  0  0  0
   -0.1411    2.1082    0.1000 N   0  0  0  0  0  0  0  0  0  0  0  0
    4.3564   -0.1025   -0.3166 N   0  3  0  0  0  0  0  0  0  0  0  0
    6.3149   -3.2045   -0.3063 N   0  0  0  0  0  0  0  0  0  0  0  0
   -3.3723   -0.9426    0.7027 C   0  0  1  0  0  0  0  0  0  0  0  0
   -2.3958   -2.1595    0.7605 C   0  0  2  0  0  0  0  0  0  0  0  0
   -3.1843    0.4682    1.2995 C   0  0  2  0  0  0  0  0  0  0  0  0
   -2.0355   -1.8114   -0.6998 C   0  0  0  0  0  0  0  0  0  0  0  0
   -2.8728   -3.5750    0.9656 C   0  0  1  0  0  0  0  0  0  0  0  0
   -2.6900    0.5133   -0.9985 C   0  0  0  0  0  0  0  0  0  0  0  0
   -2.8391    1.2996    0.0762 C   0  0  0  0  0  0  0  0  0  0  0  0
   -2.1576    0.5430    2.4175 C   0  0  0  0  0  0  0  0  0  0  0  0
   -3.2454   -3.8289    2.4227 C   0  0  0  0  0  0  0  0  0  0  0  0
   -2.2792    0.8974   -2.3450 C   0  0  0  0  0  0  0  0  0  0  0  0
   -0.9378    3.0578    0.5091 C   0  0  0  0  0  0  0  0  0  0  0  0
    1.1369    2.4010    0.5345 C   0  0  0  0  0  0  0  0  0  0  0  0
    1.2746    3.5649    1.2614 C   0  0  0  0  0  0  0  0  0  0  0  0
    2.2455    1.5391    0.2413 C   0  0  0  0  0  0  0  0  0  0  0  0
    2.2506    0.7803   -0.9261 C   0  0  0  0  0  0  0  0  0  0  0  0
    3.3198    1.4585    1.1234 C   0  0  0  0  0  0  0  0  0  0  0  0
    3.3361   -0.0448   -1.1835 C   0  0  0  0  0  0  0  0  0  0  0  0
    4.3782    0.6162    0.8142 C   0  0  0  0  0  0  0  0  0  0  0  0
    5.4844   -0.9805   -0.6145 C   0  0  0  0  0  0  0  0  0  0  0  0
    5.2623   -2.3548   -0.0444 C   0  0  0  0  0  0  0  0  0  0  0  0
   -4.4300   -1.2394    0.7494 H   0  0  0  0  0  0  0  0  0  0  0  0
   -1.5284   -1.9729    1.4105 H   0  0  0  0  0  0  0  0  0  0  0  0
   -4.1513    0.8098    1.6925 H   0  0  0  0  0  0  0  0  0  0  0  0
   -2.0917   -4.2831    0.6659 H   0  0  0  0  0  0  0  0  0  0  0  0
   -2.1252    1.5402    2.8677 H   0  0  0  0  0  0  0  0  0  0  0  0
   -2.4095   -0.1691    3.2110 H   0  0  0  0  0  0  0  0  0  0  0  0
   -1.1508    0.2947    2.0655 H   0  0  0  0  0  0  0  0  0  0  0  0
   -2.3924   -3.6561    3.0861 H   0  0  0  0  0  0  0  0  0  0  0  0
   -3.5946   -4.8579    2.5582 H   0  0  0  0  0  0  0  0  0  0  0  0
   -4.0635   -3.1711    2.7368 H   0  0  0  0  0  0  0  0  0  0  0  0
   -4.2914   -4.7383    0.2902 H   0  0  0  0  0  0  0  0  0  0  0  0
   -2.5899    0.2991   -4.1695 H   0  0  0  0  0  0  0  0  0  0  0  0
    2.1566    4.0148    1.6958 H   0  0  0  0  0  0  0  0  0  0  0  0
    1.4319    0.8182   -1.6388 H   0  0  0  0  0  0  0  0  0  0  0  0
    3.3567    2.0146    2.0551 H   0  0  0  0  0  0  0  0  0  0  0  0
    3.3958   -0.6620   -2.0719 H   0  0  0  0  0  0  0  0  0  0  0  0
    5.2375    0.5038    1.4645 H   0  0  0  0  0  0  0  0  0  0  0  0
    6.3955   -0.5402   -0.1938 H   0  0  0  0  0  0  0  0  0  0  0  0
    5.6094   -1.0390   -1.7015 H   0  0  0  0  0  0  0  0  0  0  0  0
    6.3027   -4.1657    0.0182 H   0  0  0  0  0  0  0  0  0  0  0  0
    7.1345   -2.9090   -0.8271 H   0  0  0  0  0  0  0  0  0  0  0  0
  1 18  1  0  0  0  0
  1 22  1  0  0  0  0
  2 22  1  0  0  0  0
  2 24  1  0  0  0  0
  3 15  2  0  0  0  0
  4 16  1  0  0  0  0
  4 42  1  0  0  0  0
  5 21  1  0  0  0  0
  5 43  1  0  0  0  0
  6 21  2  0  0  0  0
  7 31  2  0  0  0  0
  8 12  1  0  0  0  0
  8 15  1  0  0  0  0
  8 17  1  0  0  0  0
  9 22  2  0  0  0  0
  9 23  1  0  0  0  0
 10 28  2  0  0  0  0
 10 29  1  0  0  0  0
 10 30  1  0  0  0  0
 11 31  1  0  0  0  0
 11 51  1  0  0  0  0
 11 52  1  0  0  0  0
 12 13  1  0  0  0  0
 12 14  1  0  0  0  0
 12 32  1  0  0  0  0
 13 15  1  0  0  0  0
 13 16  1  0  0  0  0
 13 33  1  0  0  0  0
 14 18  1  0  0  0  0
 14 19  1  0  0  0  0
 14 34  1  0  0  0  0
 16 20  1  0  0  0  0
 16 35  1  0  0  0  0
 17 18  2  0  0  0  0
 17 21  1  0  0  0  0
 19 36  1  0  0  0  0
 19 37  1  0  0  0  0
 19 38  1  0  0  0  0
 20 39  1  0  0  0  0
 20 40  1  0  0  0  0
 20 41  1  0  0  0  0
 23 24  2  0  0  0  0
 23 25  1  0  0  0  0
 24 44  1  0  0  0  0
 25 26  2  0  0  0  0
 25 27  1  0  0  0  0
 26 28  1  0  0  0  0
 26 45  1  0  0  0  0
 27 29  2  0  0  0  0
 27 46  1  0  0  0  0
 28 47  1  0  0  0  0
 29 48  1  0  0  0  0
 30 31  1  0  0  0  0
 30 49  1  0  0  0  0
 30 50  1  0  0  0  0
M  CHG  1  10   1
M  END
> <PUBCHEM_COMPOUND_CID>
9890450

> <PUBCHEM_CONFORMER_RMSD>
1

> <PUBCHEM_CONFORMER_DIVERSEORDER>
4
43
7
39
12
31
3
36
49
51
35
54
53
42
34
8
40
15
22
48
47
16
1
27
46
5
21
24
37
58
11
19
13
57
26
29
14
33
55
2
30
56
38
50
23
28
41
20
17
45
32
44
10
6
52
9
18
25

> <PUBCHEM_MMFF94_PARTIAL_CHARGES>
38
1 -0.16
10 -0.21
11 -0.8
12 0.22
13 0.05
14 0.14
15 0.58
16 0.28
17 0.12
18 -0.04
2 -0.08
21 0.71
22 0.43
23 0.17
24 -0.11
25 0.05
26 -0.15
27 -0.15
28 0.21
29 0.21
3 -0.57
30 0.55
31 0.57
4 -0.68
42 0.4
43 0.5
44 0.15
45 0.15
46 0.15
47 0.15
48 0.15
5 -0.65
51 0.37
52 0.37
6 -0.57
7 -0.57
8 -0.39
9 -0.57

> <PUBCHEM_EFFECTIVE_ROTOR_COUNT>
7.4

> <PUBCHEM_PHARMACOPHORE_FEATURES>
12
1 11 donor
1 3 acceptor
1 4 acceptor
1 4 donor
1 5 acceptor
1 6 acceptor
1 7 acceptor
1 9 acceptor
3 5 6 21 anion
5 2 9 22 23 24 rings
6 10 25 26 27 28 29 rings
7 8 12 13 14 15 17 18 rings

> <PUBCHEM_HEAVY_ATOM_COUNT>
31

> <PUBCHEM_ATOM_DEF_STEREO_COUNT>
4

> <PUBCHEM_ATOM_UDEF_STEREO_COUNT>
0

> <PUBCHEM_BOND_DEF_STEREO_COUNT>
0

> <PUBCHEM_BOND_UDEF_STEREO_COUNT>
0

> <PUBCHEM_ISOTOPIC_ATOM_COUNT>
0

> <PUBCHEM_COMPONENT_COUNT>
1

> <PUBCHEM_CACTVS_TAUTO_COUNT>
2

> <PUBCHEM_CONFORMER_ID>
0096EA9200000004

> <PUBCHEM_MMFF94_ENERGY>
93.3902

> <PUBCHEM_FEATURE_SELFOVERLAP>
60.947

> <PUBCHEM_SHAPE_FINGERPRINT>
10764073 3 18337372882895918883
10928967 22 18118389666813979446
11285246 1 17559948836210895994
11374522 58 17911218552443722491
12633257 1 18116408411337724009
12712778 12 18195544803290863922
12969540 37 17978786813996605896
14114207 22 16975054086461122317
14251757 5 18269271425625178330
14279260 333 18053945328222864226
14659021 117 18265064694279745472
14844126 61 17606137309844015628
14863182 85 17044284273774525713
14866123 147 18336538422026208945
15927050 60 17180523101731016401
16719943 64 18048876595900841240
17809404 112 17900292756298893248
19315092 285 15288499667458091084
20775530 9 18127690418108312778
21315759 227 18270690749070468594
23428019 142 18126572451533508438
23466295 7 18341884199545591177
3383291 50 18265334095971206323
3729539 64 18198079160233877879
3737641 26 18121204399417008124
445580 42 18265331892563305700
463206 1 18340198678675437146
484985 159 18268427004530635687
508706 21 18060427910396590502
613672 6 18264510450119466552

> <PUBCHEM_SHAPE_MULTIPOLES>
596.39
10.3
5.6
2.18
16.92
0.91
1.05
11.03
-0.22
-1.82
-2.89
-2.47
-0.03
1.96

> <PUBCHEM_SHAPE_SELFOVERLAP>
1273.821

> <PUBCHEM_SHAPE_VOLUME>
334.8

> <PUBCHEM_COORDINATE_TYPE>
2
5
10

$$$$

