36681
  -OEChem-07051212483D

 21 20  0     1  0  0  0  0  0999 V2000
    0.3516   -0.2526    0.1039 O   0  0  0  0  0  0  0  0  0  0  0  0
   -0.7247    2.9800   -0.7764 O   0  0  0  0  0  0  0  0  0  0  0  0
   -3.5268   -1.5723    0.4964 O   0  0  0  0  0  0  0  0  0  0  0  0
    0.3063    2.3077    1.1308 O   0  0  0  0  0  0  0  0  0  0  0  0
   -1.7198   -1.9591   -0.8311 O   0  0  0  0  0  0  0  0  0  0  0  0
    3.8685   -0.5718   -0.4979 O   0  0  0  0  0  0  0  0  0  0  0  0
    2.4753   -1.7951    0.8250 O   0  0  0  0  0  0  0  0  0  0  0  0
   -0.6670    0.6340   -0.3399 C   0  0  1  0  0  0  0  0  0  0  0  0
   -1.9912    0.1964    0.2839 C   0  0  0  0  0  0  0  0  0  0  0  0
   -0.2950    2.0357    0.0999 C   0  0  0  0  0  0  0  0  0  0  0  0
    1.6164    0.0887   -0.4466 C   0  0  0  0  0  0  0  0  0  0  0  0
   -2.3562   -1.2200   -0.0952 C   0  0  0  0  0  0  0  0  0  0  0  0
    2.6625   -0.8717    0.0471 C   0  0  0  0  0  0  0  0  0  0  0  0
   -0.7214    0.5881   -1.4348 H   0  0  0  0  0  0  0  0  0  0  0  0
   -2.7963    0.8663   -0.0372 H   0  0  0  0  0  0  0  0  0  0  0  0
   -1.9147    0.2325    1.3776 H   0  0  0  0  0  0  0  0  0  0  0  0
    1.5695    0.0095   -1.5384 H   0  0  0  0  0  0  0  0  0  0  0  0
    1.9470    1.0878   -0.1518 H   0  0  0  0  0  0  0  0  0  0  0  0
   -0.4891    3.8857   -0.4824 H   0  0  0  0  0  0  0  0  0  0  0  0
   -3.7932   -2.4873    0.2637 H   0  0  0  0  0  0  0  0  0  0  0  0
    4.5709   -1.1846   -0.1923 H   0  0  0  0  0  0  0  0  0  0  0  0
  1  8  1  0  0  0  0
  1 11  1  0  0  0  0
  2 10  1  0  0  0  0
  2 19  1  0  0  0  0
  3 12  1  0  0  0  0
  3 20  1  0  0  0  0
  4 10  2  0  0  0  0
  5 12  2  0  0  0  0
  6 13  1  0  0  0  0
  6 21  1  0  0  0  0
  7 13  2  0  0  0  0
  8  9  1  0  0  0  0
  8 10  1  0  0  0  0
  8 14  1  0  0  0  0
  9 12  1  0  0  0  0
  9 15  1  0  0  0  0
  9 16  1  0  0  0  0
 11 13  1  0  0  0  0
 11 17  1  0  0  0  0
 11 18  1  0  0  0  0
M  END
> <PUBCHEM_COMPOUND_CID>
36681

> <PUBCHEM_CONFORMER_RMSD>
0.6

> <PUBCHEM_CONFORMER_DIVERSEORDER>
1
7
116
82
61
32
111
24
38
18
30
81
65
100
9
106
107
98
118
26
74
104
28
80
71
25
59
53
8
69
87
99
52
70
97
102
27
31
23
101
34
47
45
66
86
96
60
91
105
115
46
110
43
49
37
57
55
112
2
103
77
90
79
95
48
109
39
68
42
62
29
51
20
114
63
75
50
117
64
19
67
44
56
36
16
108
88
13
78
17
22
93
92
76
73
15
5
35
10
113
12
83
72
40
58
85
84
14
4
21
6
89
33
54
41
11
3
94

> <PUBCHEM_MMFF94_PARTIAL_CHARGES>
16
1 -0.56
10 0.66
11 0.34
12 0.66
13 0.66
19 0.5
2 -0.65
20 0.5
21 0.5
3 -0.65
4 -0.57
5 -0.57
6 -0.65
7 -0.57
8 0.34
9 0.06

> <PUBCHEM_EFFECTIVE_ROTOR_COUNT>
6

> <PUBCHEM_PHARMACOPHORE_FEATURES>
10
1 1 acceptor
1 2 acceptor
1 3 acceptor
1 4 acceptor
1 5 acceptor
1 6 acceptor
1 7 acceptor
3 2 4 10 anion
3 3 5 12 anion
3 6 7 13 anion

> <PUBCHEM_HEAVY_ATOM_COUNT>
13

> <PUBCHEM_ATOM_DEF_STEREO_COUNT>
0

> <PUBCHEM_ATOM_UDEF_STEREO_COUNT>
1

> <PUBCHEM_BOND_DEF_STEREO_COUNT>
0

> <PUBCHEM_BOND_UDEF_STEREO_COUNT>
0

> <PUBCHEM_ISOTOPIC_ATOM_COUNT>
0

> <PUBCHEM_COMPONENT_COUNT>
1

> <PUBCHEM_CACTVS_TAUTO_COUNT>
1

> <PUBCHEM_CONFORMER_ID>
00008F4900000001

> <PUBCHEM_MMFF94_ENERGY>
17.2287

> <PUBCHEM_FEATURE_SELFOVERLAP>
50.931

> <PUBCHEM_SHAPE_FINGERPRINT>
15375462 189 18341884182355308971
15490181 8 17326615207101205916
19021347 4 17545321242578184409
20645477 70 17905617605788704583
20871998 184 18260828258222814759
21296965 67 18411135818671955279
23500284 5 18270680981893149643
23552423 10 17833268623730330239
23598291 2 18044089056233640575
23598294 1 18264487454521451378
2748010 2 18337970990576100893
7364860 26 17900540077700914729
81228 2 18265049313505777977

> <PUBCHEM_SHAPE_MULTIPOLES>
226.45
4.77
2.75
0.84
2.12
1.8
0.05
-3.9
0.09
-1.02
0.01
0.04
0.12
-0.07

> <PUBCHEM_SHAPE_SELFOVERLAP>
443.692

> <PUBCHEM_SHAPE_VOLUME>
134.3

> <PUBCHEM_COORDINATE_TYPE>
2
5
10

$$$$

