8335
  -OEChem-06261202453D

 36 38  0     1  0  0  0  0  0999 V2000
    1.9728    1.4777    1.5175 O   0  0  0  0  0  0  0  0  0  0  0  0
   -1.8710    0.5699   -1.6413 O   0  0  0  0  0  0  0  0  0  0  0  0
    0.3522    0.7105   -2.3166 O   0  0  0  0  0  0  0  0  0  0  0  0
   -0.8734   -1.1011    1.9227 O   0  0  0  0  0  0  0  0  0  0  0  0
    3.6767   -1.9866    0.9836 O   0  0  0  0  0  0  0  0  0  0  0  0
    1.2896   -0.4574    0.2674 C   0  0  1  0  0  0  0  0  0  0  0  0
   -0.1294   -0.2060   -0.1572 C   0  0  0  0  0  0  0  0  0  0  0  0
    1.9566   -1.5009   -0.6517 C   0  0  0  0  0  0  0  0  0  0  0  0
    2.0781    0.8423    0.3469 C   0  0  0  0  0  0  0  0  0  0  0  0
   -1.1653   -0.5930    0.8472 C   0  0  0  0  0  0  0  0  0  0  0  0
   -0.5390    0.3405   -1.3232 C   0  0  0  0  0  0  0  0  0  0  0  0
   -2.5662   -0.3417    0.4886 C   0  0  0  0  0  0  0  0  0  0  0  0
    3.3496   -1.9183   -0.2001 C   0  0  0  0  0  0  0  0  0  0  0  0
   -2.8461    0.2310   -0.7449 C   0  0  0  0  0  0  0  0  0  0  0  0
    2.8588    1.4630   -0.5479 C   0  0  0  0  0  0  0  0  0  0  0  0
   -3.6032   -0.6698    1.3667 C   0  0  0  0  0  0  0  0  0  0  0  0
    3.3061    2.6276    0.1204 C   0  0  0  0  0  0  0  0  0  0  0  0
   -4.1685    0.4824   -1.1138 C   0  0  0  0  0  0  0  0  0  0  0  0
    4.3142   -2.2993   -1.2931 C   0  0  0  0  0  0  0  0  0  0  0  0
    2.7396    2.5903    1.3733 C   0  0  0  0  0  0  0  0  0  0  0  0
   -4.9248   -0.4183    0.9972 C   0  0  0  0  0  0  0  0  0  0  0  0
   -5.2074    0.1571   -0.2417 C   0  0  0  0  0  0  0  0  0  0  0  0
    1.3231   -0.8781    1.2808 H   0  0  0  0  0  0  0  0  0  0  0  0
    1.3521   -2.4157   -0.6944 H   0  0  0  0  0  0  0  0  0  0  0  0
    2.0418   -1.1227   -1.6770 H   0  0  0  0  0  0  0  0  0  0  0  0
    3.1024    1.1556   -1.5543 H   0  0  0  0  0  0  0  0  0  0  0  0
   -3.4027   -1.1182    2.3356 H   0  0  0  0  0  0  0  0  0  0  0  0
    3.9601    3.3976   -0.2628 H   0  0  0  0  0  0  0  0  0  0  0  0
   -4.3967    0.9302   -2.0772 H   0  0  0  0  0  0  0  0  0  0  0  0
    4.4838   -1.4415   -1.9485 H   0  0  0  0  0  0  0  0  0  0  0  0
    3.9074   -3.1375   -1.8640 H   0  0  0  0  0  0  0  0  0  0  0  0
    5.2692   -2.6002   -0.8537 H   0  0  0  0  0  0  0  0  0  0  0  0
    2.7811    3.2440    2.2324 H   0  0  0  0  0  0  0  0  0  0  0  0
   -5.7350   -0.6709    1.6751 H   0  0  0  0  0  0  0  0  0  0  0  0
   -6.2370    0.3520   -0.5274 H   0  0  0  0  0  0  0  0  0  0  0  0
   -0.1943    1.0660   -3.0389 H   0  0  0  0  0  0  0  0  0  0  0  0
  1  9  1  0  0  0  0
  1 20  1  0  0  0  0
  2 11  1  0  0  0  0
  2 14  1  0  0  0  0
  3 11  1  0  0  0  0
  3 36  1  0  0  0  0
  4 10  2  0  0  0  0
  5 13  2  0  0  0  0
  6  7  1  0  0  0  0
  6  8  1  0  0  0  0
  6  9  1  0  0  0  0
  6 23  1  0  0  0  0
  7 10  1  0  0  0  0
  7 11  2  0  0  0  0
  8 13  1  0  0  0  0
  8 24  1  0  0  0  0
  8 25  1  0  0  0  0
  9 15  2  0  0  0  0
 10 12  1  0  0  0  0
 12 14  1  0  0  0  0
 12 16  2  0  0  0  0
 13 19  1  0  0  0  0
 14 18  2  0  0  0  0
 15 17  1  0  0  0  0
 15 26  1  0  0  0  0
 16 21  1  0  0  0  0
 16 27  1  0  0  0  0
 17 20  2  0  0  0  0
 17 28  1  0  0  0  0
 18 22  1  0  0  0  0
 18 29  1  0  0  0  0
 19 30  1  0  0  0  0
 19 31  1  0  0  0  0
 19 32  1  0  0  0  0
 20 33  1  0  0  0  0
 21 22  2  0  0  0  0
 21 34  1  0  0  0  0
 22 35  1  0  0  0  0
M  END
> <PUBCHEM_COMPOUND_CID>
8335

> <PUBCHEM_CONFORMER_RMSD>
0.6

> <PUBCHEM_CONFORMER_DIVERSEORDER>
1
95
8
50
119
68
117
81
70
30
100
126
16
122
94
38
64
127
123
97
55
116
34
128
56
18
60
59
104
57
62
61
86
124
39
110
120
41
67
28
121
14
125
40
54
85
102
46
65
115
51
118
82
35
53
49
26
52
3
10
71
2
113
83
66
93
98
130
31
19
74
87
103
36
99
5
107
32
114
43
69
101
111
75
6
90
33
58
11
45
96
17
109
106
76
88
84
78
15
7
42
129
89
112
44
79
91
108
72
80
105
73
37
131
77
21
92
27
23
4
9
22
20
48
25
13
24
29
63
12
47

> <PUBCHEM_MMFF94_PARTIAL_CHARGES>
30
1 -0.28
10 0.47
11 0.15
12 0.09
13 0.45
14 0.08
15 -0.15
16 -0.15
17 -0.15
18 -0.15
19 0.06
2 -0.16
20 -0.01
21 -0.15
22 -0.15
26 0.15
27 0.15
28 0.15
29 0.15
3 -0.53
33 0.15
34 0.15
35 0.15
36 0.45
4 -0.57
5 -0.57
6 0.32
7 -0.12
8 0.06
9 -0.04

> <PUBCHEM_EFFECTIVE_ROTOR_COUNT>
4

> <PUBCHEM_PHARMACOPHORE_FEATURES>
8
1 1 acceptor
1 2 acceptor
1 3 donor
1 4 acceptor
1 5 acceptor
5 1 9 15 17 20 rings
6 12 14 16 18 21 22 rings
6 2 7 10 11 12 14 rings

> <PUBCHEM_HEAVY_ATOM_COUNT>
22

> <PUBCHEM_ATOM_DEF_STEREO_COUNT>
0

> <PUBCHEM_ATOM_UDEF_STEREO_COUNT>
1

> <PUBCHEM_BOND_DEF_STEREO_COUNT>
0

> <PUBCHEM_BOND_UDEF_STEREO_COUNT>
0

> <PUBCHEM_ISOTOPIC_ATOM_COUNT>
0

> <PUBCHEM_COMPONENT_COUNT>
1

> <PUBCHEM_CACTVS_TAUTO_COUNT>
9

> <PUBCHEM_CONFORMER_ID>
0000208F00000001

> <PUBCHEM_MMFF94_ENERGY>
45.7817

> <PUBCHEM_FEATURE_SELFOVERLAP>
40.622

> <PUBCHEM_SHAPE_FINGERPRINT>
10165383 225 18195796376473631420
10369192 42 17985261868691842092
11132069 177 17203333291182588781
11405975 8 18411418440784710011
11578080 2 18125694847463771176
12236239 1 16877944936296518590
12403259 415 17988924496536770533
12616971 3 17603866719885701775
12633257 1 18113613512772536775
12644460 14 18113613469832912934
12895836 83 17696735681194733228
13134695 92 18261118516855953848
13533116 47 18335415764682608835
13544592 145 18131064961085841899
13583140 156 18043249046534851499
13631057 29 12101835690083710353
13675066 3 18059853935772959227
13911987 19 18266432435627338046
14289901 80 18337394842552019777
15219456 202 18272654527923551086
15536298 74 18131631175562229887
16752209 62 16272213007076841675
16945 1 14490194886825102935
17349148 13 16298385790216966639
17980427 23 5471698149776631122
1813 80 17532358958892231894
18186145 218 18131070463371126993
18222031 100 17969220204416638510
18785283 64 18341335488158049868
192875 21 17603863442155917755
19765921 60 16809283574884456984
20369508 70 18341896333250591762
20645477 70 18408040710366706775
20832881 197 18197777906363037547
21033648 29 18273221889373258153
21041028 32 18188209930830469296
21065201 7 17203328918679171315
22182313 1 17775017785874809933
23175994 123 18264486368116394814
23557571 272 17845084078703487315
23559900 14 17774999098292951663
312423 11 18040704892444706057
3286 77 18339922713735532710
394222 165 17241898588164267560
4409770 3 15154692731377945685
474 4 17825395084898284249
495365 180 18409736140201056618
5104073 3 18341607114811395683
5895379 119 16807549915235021857
6049 1 18130513019096540733
633830 44 18272100413350854005
6823239 73 17561075899958507204
7471813 234 17821728390076690176
7495541 125 18202562908358888678
7615 1 17313379041465792929
8272917 22 18186795876950549598
9841814 1 18338521940865742114
9971528 1 17822294643044870426

> <PUBCHEM_SHAPE_MULTIPOLES>
423.4
9.34
2.32
1.69
7.12
0.56
0.2
-1.3
-0.35
-5.06
-0.32
0.49
0.05
1.14

> <PUBCHEM_SHAPE_SELFOVERLAP>
928.735

> <PUBCHEM_SHAPE_VOLUME>
227.1

> <PUBCHEM_COORDINATE_TYPE>
2
5
10

$$$$

