5386
  -OEChem-06261200393D

 23 24  0     1  0  0  0  0  0999 V2000
    2.1760   -2.3572    0.1560 F   0  0  0  0  0  0  0  0  0  0  0  0
   -2.1345   -0.6788   -1.0254 O   0  0  0  0  0  0  0  0  0  0  0  0
    0.1642    2.6476   -0.2313 O   0  0  0  0  0  0  0  0  0  0  0  0
    3.7922   -0.1715    0.2052 O   0  0  0  0  0  0  0  0  0  0  0  0
   -0.2101    0.3426   -0.1653 N   0  0  0  0  0  0  0  0  0  0  0  0
    1.9693    1.2441   -0.0131 N   0  0  0  0  0  0  0  0  0  0  0  0
   -1.6333    0.4504   -0.2941 C   0  0  2  0  0  0  0  0  0  0  0  0
   -2.3490    0.4618    1.0443 C   0  0  0  0  0  0  0  0  0  0  0  0
   -3.6722   -0.1703    0.6946 C   0  0  0  0  0  0  0  0  0  0  0  0
   -3.2561   -1.2194   -0.3128 C   0  0  0  0  0  0  0  0  0  0  0  0
    0.5944    1.4954   -0.1440 C   0  0  0  0  0  0  0  0  0  0  0  0
    0.3326   -0.9223   -0.0647 C   0  0  0  0  0  0  0  0  0  0  0  0
    1.6426   -1.1260    0.0581 C   0  0  0  0  0  0  0  0  0  0  0  0
    2.5838    0.0037    0.0927 C   0  0  0  0  0  0  0  0  0  0  0  0
   -1.8906    1.3491   -0.8675 H   0  0  0  0  0  0  0  0  0  0  0  0
   -2.4437    1.4673    1.4644 H   0  0  0  0  0  0  0  0  0  0  0  0
   -1.8300   -0.1591    1.7853 H   0  0  0  0  0  0  0  0  0  0  0  0
   -4.2013   -0.5889    1.5545 H   0  0  0  0  0  0  0  0  0  0  0  0
   -4.3224    0.5718    0.2165 H   0  0  0  0  0  0  0  0  0  0  0  0
   -2.9290   -2.1394    0.1833 H   0  0  0  0  0  0  0  0  0  0  0  0
   -4.0552   -1.4673   -1.0169 H   0  0  0  0  0  0  0  0  0  0  0  0
   -0.3337   -1.7766   -0.0651 H   0  0  0  0  0  0  0  0  0  0  0  0
    2.5782    2.0575    0.0055 H   0  0  0  0  0  0  0  0  0  0  0  0
  1 13  1  0  0  0  0
  2  7  1  0  0  0  0
  2 10  1  0  0  0  0
  3 11  2  0  0  0  0
  4 14  2  0  0  0  0
  5  7  1  0  0  0  0
  5 11  1  0  0  0  0
  5 12  1  0  0  0  0
  6 11  1  0  0  0  0
  6 14  1  0  0  0  0
  6 23  1  0  0  0  0
  7  8  1  0  0  0  0
  7 15  1  0  0  0  0
  8  9  1  0  0  0  0
  8 16  1  0  0  0  0
  8 17  1  0  0  0  0
  9 10  1  0  0  0  0
  9 18  1  0  0  0  0
  9 19  1  0  0  0  0
 10 20  1  0  0  0  0
 10 21  1  0  0  0  0
 12 13  2  0  0  0  0
 12 22  1  0  0  0  0
 13 14  1  0  0  0  0
M  END
> <PUBCHEM_COMPOUND_CID>
5386

> <PUBCHEM_CONFORMER_RMSD>
0.6

> <PUBCHEM_CONFORMER_DIVERSEORDER>
1
6
4
8
5
3
2
7

> <PUBCHEM_MMFF94_PARTIAL_CHARGES>
14
1 -0.15
10 0.28
11 0.69
12 -0.04
13 0.16
14 0.62
2 -0.56
22 0.15
23 0.37
3 -0.57
4 -0.57
5 -0.47
6 -0.49
7 0.58

> <PUBCHEM_EFFECTIVE_ROTOR_COUNT>
2

> <PUBCHEM_PHARMACOPHORE_FEATURES>
6
1 2 acceptor
1 3 acceptor
1 4 acceptor
1 6 donor
5 2 7 8 9 10 rings
6 5 6 11 12 13 14 rings

> <PUBCHEM_HEAVY_ATOM_COUNT>
14

> <PUBCHEM_ATOM_DEF_STEREO_COUNT>
0

> <PUBCHEM_ATOM_UDEF_STEREO_COUNT>
1

> <PUBCHEM_BOND_DEF_STEREO_COUNT>
0

> <PUBCHEM_BOND_UDEF_STEREO_COUNT>
0

> <PUBCHEM_ISOTOPIC_ATOM_COUNT>
0

> <PUBCHEM_COMPONENT_COUNT>
1

> <PUBCHEM_CACTVS_TAUTO_COUNT>
3

> <PUBCHEM_CONFORMER_ID>
0000150A00000001

> <PUBCHEM_MMFF94_ENERGY>
28.0806

> <PUBCHEM_FEATURE_SELFOVERLAP>
30.446

> <PUBCHEM_SHAPE_FINGERPRINT>
10219947 1 18412262805105323000
11132069 177 18333740125814472378
11471102 20 18340492170865009981
11471102 22 18341037567097188683
12032990 46 18411696604078033910
12251169 10 18334849511846374979
12696612 119 18336819814865680173
14144814 61 18335138695988805459
14251717 144 18339928112667737807
14252887 29 18260535740943370414
15375462 189 18412261744127185819
15501101 241 18272088266555846957
16945 1 18412266099202723340
17844478 74 17917989490542781941
200 152 18187656760770502903
20201158 50 18202281398690013555
20645464 45 13912315768669142095
20645477 70 18341620291518182855
20871998 22 18264480848867063638
22445834 79 18334290976903173059
2255824 54 18195804076811695621
23388829 49 18408322172490164049
23463225 33 18409447007218444791
23552423 10 18264489473467167189
2748010 2 18050014582098700044
77492 1 17967811618093182061
81228 2 18057045937014733004

> <PUBCHEM_SHAPE_MULTIPOLES>
253.27
5.57
1.91
0.79
1.03
0.41
-0.04
-1.64
-0.77
-0.88
0.13
0.49
-0.01
-0.36

> <PUBCHEM_SHAPE_SELFOVERLAP>
537.106

> <PUBCHEM_SHAPE_VOLUME>
141.8

> <PUBCHEM_COORDINATE_TYPE>
2
5
10

$$$$

