5282148
  -OEChem-07051213033D

 62 65  0     1  0  0  0  0  0999 V2000
    3.8476    0.1682   -0.2293 O   0  0  0  0  0  0  0  0  0  0  0  0
    6.7937    1.6403    1.3727 O   0  0  0  0  0  0  0  0  0  0  0  0
    3.1727   -2.0385   -0.5747 O   0  0  0  0  0  0  0  0  0  0  0  0
    7.6898   -1.0042    0.6252 O   0  0  0  0  0  0  0  0  0  0  0  0
    5.4722   -2.9353    0.8093 O   0  0  0  0  0  0  0  0  0  0  0  0
    3.0326    2.9081    0.5247 O   0  0  0  0  0  0  0  0  0  0  0  0
   -1.0316   -1.5471    1.5882 O   0  0  0  0  0  0  0  0  0  0  0  0
   -0.6291   -0.9228   -3.2010 O   0  0  0  0  0  0  0  0  0  0  0  0
    2.0030    1.9974   -1.3261 O   0  0  0  0  0  0  0  0  0  0  0  0
   -2.8941   -0.7021   -1.9426 O   0  0  0  0  0  0  0  0  0  0  0  0
   -1.6367    3.3900    0.3454 O   0  0  0  0  0  0  0  0  0  0  0  0
   -0.7167    2.2902   -1.4194 O   0  0  0  0  0  0  0  0  0  0  0  0
   -8.5698    0.1988    0.7353 O   0  0  0  0  0  0  0  0  0  0  0  0
    6.0793    0.7623    0.5067 C   0  0  1  0  0  0  0  0  0  0  0  0
    6.3320   -0.6840    0.9327 C   0  0  1  0  0  0  0  0  0  0  0  0
    4.5864    1.0940    0.5694 C   0  0  1  0  0  0  0  0  0  0  0  0
    5.4022   -1.6483    0.1961 C   0  0  2  0  0  0  0  0  0  0  0  0
    3.9511   -1.1709    0.2490 C   0  0  1  0  0  0  0  0  0  0  0  0
    4.2962    2.4940    0.0379 C   0  0  0  0  0  0  0  0  0  0  0  0
    1.8335   -1.7706   -0.6525 C   0  0  0  0  0  0  0  0  0  0  0  0
    1.0516   -1.7893    0.5025 C   0  0  0  0  0  0  0  0  0  0  0  0
    1.2520   -1.4772   -1.8866 C   0  0  0  0  0  0  0  0  0  0  0  0
    1.9497    2.5951   -0.2607 C   0  0  0  0  0  0  0  0  0  0  0  0
   -0.3137   -1.5134    0.4204 C   0  0  0  0  0  0  0  0  0  0  0  0
   -0.8946   -1.2201   -0.8129 C   0  0  0  0  0  0  0  0  0  0  0  0
   -0.1134   -1.2013   -1.9713 C   0  0  0  0  0  0  0  0  0  0  0  0
    0.6927    3.1132    0.3946 C   0  0  0  0  0  0  0  0  0  0  0  0
   -2.3400   -0.9354   -0.8762 C   0  0  0  0  0  0  0  0  0  0  0  0
   -3.0774   -0.9627    0.4171 C   0  0  0  0  0  0  0  0  0  0  0  0
   -2.3733   -1.2596    1.5199 C   0  0  0  0  0  0  0  0  0  0  0  0
   -4.5153   -0.6586    0.5005 C   0  0  0  0  0  0  0  0  0  0  0  0
   -0.5926    2.8700   -0.3517 C   0  0  0  0  0  0  0  0  0  0  0  0
   -5.4011   -1.6097    1.0071 C   0  0  0  0  0  0  0  0  0  0  0  0
   -4.9920    0.5806    0.0731 C   0  0  0  0  0  0  0  0  0  0  0  0
   -6.7635   -1.3216    1.0860 C   0  0  0  0  0  0  0  0  0  0  0  0
   -6.3545    0.8687    0.1518 C   0  0  0  0  0  0  0  0  0  0  0  0
   -7.2402   -0.0824    0.6584 C   0  0  0  0  0  0  0  0  0  0  0  0
   -8.9888    1.4845    0.2808 C   0  0  0  0  0  0  0  0  0  0  0  0
    6.4624    0.9209   -0.5088 H   0  0  0  0  0  0  0  0  0  0  0  0
    6.2309   -0.7949    2.0187 H   0  0  0  0  0  0  0  0  0  0  0  0
    4.2244    1.0329    1.6052 H   0  0  0  0  0  0  0  0  0  0  0  0
    5.7262   -1.7754   -0.8436 H   0  0  0  0  0  0  0  0  0  0  0  0
    3.5842   -1.2264    1.2823 H   0  0  0  0  0  0  0  0  0  0  0  0
    5.0212    3.2180    0.4230 H   0  0  0  0  0  0  0  0  0  0  0  0
    4.3438    2.5393   -1.0570 H   0  0  0  0  0  0  0  0  0  0  0  0
    6.4517    1.5169    2.2746 H   0  0  0  0  0  0  0  0  0  0  0  0
    7.8072   -0.9313   -0.3373 H   0  0  0  0  0  0  0  0  0  0  0  0
    5.1879   -2.8445    1.7348 H   0  0  0  0  0  0  0  0  0  0  0  0
    1.4899   -2.0335    1.4665 H   0  0  0  0  0  0  0  0  0  0  0  0
    1.8670   -1.4626   -2.7834 H   0  0  0  0  0  0  0  0  0  0  0  0
    0.6058    2.6260    1.3721 H   0  0  0  0  0  0  0  0  0  0  0  0
    0.8053    4.1960    0.5172 H   0  0  0  0  0  0  0  0  0  0  0  0
   -2.7974   -1.3009    2.5157 H   0  0  0  0  0  0  0  0  0  0  0  0
   -1.5752   -0.7223   -3.1369 H   0  0  0  0  0  0  0  0  0  0  0  0
   -5.0502   -2.5834    1.3404 H   0  0  0  0  0  0  0  0  0  0  0  0
   -4.3144    1.3349   -0.3199 H   0  0  0  0  0  0  0  0  0  0  0  0
   -7.4491   -2.0668    1.4803 H   0  0  0  0  0  0  0  0  0  0  0  0
   -6.6566    1.8504   -0.1965 H   0  0  0  0  0  0  0  0  0  0  0  0
   -2.4915    3.2417   -0.1127 H   0  0  0  0  0  0  0  0  0  0  0  0
  -10.0744    1.5366    0.4143 H   0  0  0  0  0  0  0  0  0  0  0  0
   -8.7916    1.6175   -0.7884 H   0  0  0  0  0  0  0  0  0  0  0  0
   -8.5535    2.2869    0.8862 H   0  0  0  0  0  0  0  0  0  0  0  0
  1 16  1  0  0  0  0
  1 18  1  0  0  0  0
  2 14  1  0  0  0  0
  2 46  1  0  0  0  0
  3 18  1  0  0  0  0
  3 20  1  0  0  0  0
  4 15  1  0  0  0  0
  4 47  1  0  0  0  0
  5 17  1  0  0  0  0
  5 48  1  0  0  0  0
  6 19  1  0  0  0  0
  6 23  1  0  0  0  0
  7 24  1  0  0  0  0
  7 30  1  0  0  0  0
  8 26  1  0  0  0  0
  8 54  1  0  0  0  0
  9 23  2  0  0  0  0
 10 28  2  0  0  0  0
 11 32  1  0  0  0  0
 11 59  1  0  0  0  0
 12 32  2  0  0  0  0
 13 37  1  0  0  0  0
 13 38  1  0  0  0  0
 14 15  1  0  0  0  0
 14 16  1  0  0  0  0
 14 39  1  0  0  0  0
 15 17  1  0  0  0  0
 15 40  1  0  0  0  0
 16 19  1  0  0  0  0
 16 41  1  0  0  0  0
 17 18  1  0  0  0  0
 17 42  1  0  0  0  0
 18 43  1  0  0  0  0
 19 44  1  0  0  0  0
 19 45  1  0  0  0  0
 20 21  1  0  0  0  0
 20 22  2  0  0  0  0
 21 24  2  0  0  0  0
 21 49  1  0  0  0  0
 22 26  1  0  0  0  0
 22 50  1  0  0  0  0
 23 27  1  0  0  0  0
 24 25  1  0  0  0  0
 25 26  2  0  0  0  0
 25 28  1  0  0  0  0
 27 32  1  0  0  0  0
 27 51  1  0  0  0  0
 27 52  1  0  0  0  0
 28 29  1  0  0  0  0
 29 30  2  0  0  0  0
 29 31  1  0  0  0  0
 30 53  1  0  0  0  0
 31 33  2  0  0  0  0
 31 34  1  0  0  0  0
 33 35  1  0  0  0  0
 33 55  1  0  0  0  0
 34 36  2  0  0  0  0
 34 56  1  0  0  0  0
 35 37  2  0  0  0  0
 35 57  1  0  0  0  0
 36 37  1  0  0  0  0
 36 58  1  0  0  0  0
 38 60  1  0  0  0  0
 38 61  1  0  0  0  0
 38 62  1  0  0  0  0
M  END
> <PUBCHEM_COMPOUND_CID>
5282148

> <PUBCHEM_CONFORMER_RMSD>
1.2

> <PUBCHEM_CONFORMER_DIVERSEORDER>
1
8
19
13
31
5
4
15
32
17
25
38
22
23
27
26
24
6
11
3
35
21
2
30
10
37
33
7
12
9
28
14
36
29
20
34
18
16

> <PUBCHEM_MMFF94_PARTIAL_CHARGES>
50
1 -0.56
10 -0.57
11 -0.65
12 -0.57
13 -0.36
14 0.28
15 0.28
16 0.28
17 0.28
18 0.56
19 0.28
2 -0.68
20 0.08
21 -0.15
22 -0.15
23 0.66
24 0.08
25 0.09
26 0.08
27 0.12
28 0.47
29 -0.01
3 -0.36
30 -0.07
31 0.03
32 0.66
33 -0.15
34 -0.15
35 -0.15
36 -0.15
37 0.08
38 0.28
4 -0.68
46 0.4
47 0.4
48 0.4
49 0.15
5 -0.68
50 0.15
53 0.15
54 0.45
55 0.15
56 0.15
57 0.15
58 0.15
59 0.5
6 -0.43
7 -0.16
8 -0.53
9 -0.57

> <PUBCHEM_EFFECTIVE_ROTOR_COUNT>
10.2

> <PUBCHEM_PHARMACOPHORE_FEATURES>
21
1 1 acceptor
1 10 acceptor
1 11 acceptor
1 12 acceptor
1 13 acceptor
1 2 acceptor
1 2 donor
1 27 anion
1 3 acceptor
1 4 acceptor
1 4 donor
1 5 acceptor
1 5 donor
1 7 acceptor
1 8 donor
1 9 acceptor
3 11 12 32 anion
6 1 14 15 16 17 18 rings
6 20 21 22 24 25 26 rings
6 31 33 34 35 36 37 rings
6 7 24 25 28 29 30 rings

> <PUBCHEM_HEAVY_ATOM_COUNT>
38

> <PUBCHEM_ATOM_DEF_STEREO_COUNT>
5

> <PUBCHEM_ATOM_UDEF_STEREO_COUNT>
0

> <PUBCHEM_BOND_DEF_STEREO_COUNT>
0

> <PUBCHEM_BOND_UDEF_STEREO_COUNT>
0

> <PUBCHEM_ISOTOPIC_ATOM_COUNT>
0

> <PUBCHEM_COMPONENT_COUNT>
1

> <PUBCHEM_CACTVS_TAUTO_COUNT>
5

> <PUBCHEM_CONFORMER_ID>
0050996400000001

> <PUBCHEM_MMFF94_ENERGY>
120.5223

> <PUBCHEM_FEATURE_SELFOVERLAP>
106.983

> <PUBCHEM_SHAPE_FINGERPRINT>
10006869 2 18333730204466957620
10939801 23 18262236604407936368
11135609 12 18130794438766671260
11135926 11 17982461399886381172
11456790 92 18273496783905755552
11534866 41 17418368095968440451
11578080 2 16772417182550449269
11828532 37 17845358961496443963
12107698 1 18411139159908481523
12166972 35 17561074830369394878
12422481 6 18334011713486655065
13402501 40 18342177760602684952
13782708 43 17489592225046888907
13811026 1 18412829118387610061
14117953 113 18187640323656302718
14394314 77 18116438046443963008
14705955 166 17703519860277683061
14725015 67 18413111684080305608
14840074 17 18113899325887294700
15131766 46 17969796168257772600
15849732 13 17967813851086227662
15968369 153 18187085065652360796
18681886 176 7709161423216821595
20511986 3 17386859301109417640
20721686 56 18413669102848988161
21197605 99 18335137622094208480
21344244 181 11743844685784515080
21344244 246 9583529723818227704
22122407 14 18334846195540831472
22223350 30 17416384495081565891
24893992 56 17917704683689490203
27425 322 13912905111101898482
392239 28 18271800246412733779
397830 11 18339913815170580843
4112364 45 17677049036788088929
4144715 1 18340193168364648067
469060 322 16988278806677857956

> <PUBCHEM_SHAPE_MULTIPOLES>
705.72
20.19
3.43
1.59
19.27
2.76
1.06
0.74
-9.44
-2.9
-0.08
0.18
-0.65
0.51

> <PUBCHEM_SHAPE_SELFOVERLAP>
1531.446

> <PUBCHEM_SHAPE_VOLUME>
380.9

> <PUBCHEM_COORDINATE_TYPE>
2
5
10

$$$$

