6378383
  -OEChem-07051213083D

 54 56  0     0  0  0  0  0  0999 V2000
    3.5050    1.8068    0.5524 O   0  0  0  0  0  0  0  0  0  0  0  0
    6.7457    0.8514   -0.9088 N   0  0  0  0  0  0  0  0  0  0  0  0
   -2.0428   -1.2558    0.0245 C   0  0  0  0  0  0  0  0  0  0  0  0
   -1.8128    0.1014    0.0738 C   0  0  0  0  0  0  0  0  0  0  0  0
   -3.3997   -1.9403   -0.0500 C   0  0  0  0  0  0  0  0  0  0  0  0
   -0.3912    0.5583    0.2013 C   0  0  0  0  0  0  0  0  0  0  0  0
   -0.9092   -2.2112    0.1008 C   0  0  0  0  0  0  0  0  0  0  0  0
   -2.8976    1.0676    0.0019 C   0  0  0  0  0  0  0  0  0  0  0  0
    0.3295    0.7797   -0.9464 C   0  0  0  0  0  0  0  0  0  0  0  0
    0.1274    0.7340    1.4607 C   0  0  0  0  0  0  0  0  0  0  0  0
   -3.8679   -2.1633   -1.4830 C   0  0  0  0  0  0  0  0  0  0  0  0
   -3.3174    1.5542   -1.2361 C   0  0  0  0  0  0  0  0  0  0  0  0
   -3.5181    1.5076    1.1711 C   0  0  0  0  0  0  0  0  0  0  0  0
   -0.5024   -2.6670    1.3383 C   0  0  0  0  0  0  0  0  0  0  0  0
   -0.2963   -2.6143   -1.0683 C   0  0  0  0  0  0  0  0  0  0  0  0
    2.2136    1.3934    0.4359 C   0  0  0  0  0  0  0  0  0  0  0  0
    1.6530    1.2040   -0.8272 C   0  0  0  0  0  0  0  0  0  0  0  0
    1.4508    1.1583    1.5798 C   0  0  0  0  0  0  0  0  0  0  0  0
   -4.3577    2.4809   -1.3048 C   0  0  0  0  0  0  0  0  0  0  0  0
   -4.5584    2.4342    1.1023 C   0  0  0  0  0  0  0  0  0  0  0  0
    0.5630   -3.5646    1.4098 C   0  0  0  0  0  0  0  0  0  0  0  0
    0.7689   -3.5119   -0.9968 C   0  0  0  0  0  0  0  0  0  0  0  0
    4.4066    1.4202   -0.4837 C   0  0  0  0  0  0  0  0  0  0  0  0
   -4.9783    2.9209   -0.1356 C   0  0  0  0  0  0  0  0  0  0  0  0
    1.1986   -3.9870    0.2423 C   0  0  0  0  0  0  0  0  0  0  0  0
    5.8035    1.2752    0.0917 C   0  0  0  0  0  0  0  0  0  0  0  0
    8.0839    0.6674   -0.3458 C   0  0  0  0  0  0  0  0  0  0  0  0
   -4.1518   -1.3419    0.4773 H   0  0  0  0  0  0  0  0  0  0  0  0
   -3.3768   -2.9019    0.4782 H   0  0  0  0  0  0  0  0  0  0  0  0
   -0.1007    0.6420   -1.9341 H   0  0  0  0  0  0  0  0  0  0  0  0
   -0.4585    0.5546    2.3573 H   0  0  0  0  0  0  0  0  0  0  0  0
   -3.9284   -1.2252   -2.0419 H   0  0  0  0  0  0  0  0  0  0  0  0
   -3.1949   -2.8376   -2.0219 H   0  0  0  0  0  0  0  0  0  0  0  0
   -4.8639   -2.6181   -1.4837 H   0  0  0  0  0  0  0  0  0  0  0  0
   -2.8446    1.2224   -2.1574 H   0  0  0  0  0  0  0  0  0  0  0  0
   -3.2044    1.1372    2.1442 H   0  0  0  0  0  0  0  0  0  0  0  0
   -0.9916   -2.3467    2.2540 H   0  0  0  0  0  0  0  0  0  0  0  0
   -0.6213   -2.2510   -2.0392 H   0  0  0  0  0  0  0  0  0  0  0  0
    2.2020    1.4030   -1.7428 H   0  0  0  0  0  0  0  0  0  0  0  0
    1.8822    1.3037    2.5664 H   0  0  0  0  0  0  0  0  0  0  0  0
   -4.6847    2.8598   -2.2687 H   0  0  0  0  0  0  0  0  0  0  0  0
   -5.0419    2.7765    2.0126 H   0  0  0  0  0  0  0  0  0  0  0  0
    0.8976   -3.9346    2.3746 H   0  0  0  0  0  0  0  0  0  0  0  0
    1.2643   -3.8403   -1.9058 H   0  0  0  0  0  0  0  0  0  0  0  0
    4.3945    2.1880   -1.2667 H   0  0  0  0  0  0  0  0  0  0  0  0
    4.1218    0.4534   -0.9209 H   0  0  0  0  0  0  0  0  0  0  0  0
   -5.7884    3.6422   -0.1891 H   0  0  0  0  0  0  0  0  0  0  0  0
    2.0283   -4.6856    0.2979 H   0  0  0  0  0  0  0  0  0  0  0  0
    5.7652    0.5537    0.9182 H   0  0  0  0  0  0  0  0  0  0  0  0
    6.1057    2.2317    0.5371 H   0  0  0  0  0  0  0  0  0  0  0  0
    6.7889    1.5378   -1.6614 H   0  0  0  0  0  0  0  0  0  0  0  0
    8.0814   -0.1005    0.4344 H   0  0  0  0  0  0  0  0  0  0  0  0
    8.7663    0.3357   -1.1343 H   0  0  0  0  0  0  0  0  0  0  0  0
    8.4740    1.6023    0.0693 H   0  0  0  0  0  0  0  0  0  0  0  0
  1 16  1  0  0  0  0
  1 23  1  0  0  0  0
  2 26  1  0  0  0  0
  2 27  1  0  0  0  0
  2 51  1  0  0  0  0
  3  4  2  0  0  0  0
  3  5  1  0  0  0  0
  3  7  1  0  0  0  0
  4  6  1  0  0  0  0
  4  8  1  0  0  0  0
  5 11  1  0  0  0  0
  5 28  1  0  0  0  0
  5 29  1  0  0  0  0
  6  9  2  0  0  0  0
  6 10  1  0  0  0  0
  7 14  2  0  0  0  0
  7 15  1  0  0  0  0
  8 12  2  0  0  0  0
  8 13  1  0  0  0  0
  9 17  1  0  0  0  0
  9 30  1  0  0  0  0
 10 18  2  0  0  0  0
 10 31  1  0  0  0  0
 11 32  1  0  0  0  0
 11 33  1  0  0  0  0
 11 34  1  0  0  0  0
 12 19  1  0  0  0  0
 12 35  1  0  0  0  0
 13 20  2  0  0  0  0
 13 36  1  0  0  0  0
 14 21  1  0  0  0  0
 14 37  1  0  0  0  0
 15 22  2  0  0  0  0
 15 38  1  0  0  0  0
 16 17  2  0  0  0  0
 16 18  1  0  0  0  0
 17 39  1  0  0  0  0
 18 40  1  0  0  0  0
 19 24  2  0  0  0  0
 19 41  1  0  0  0  0
 20 24  1  0  0  0  0
 20 42  1  0  0  0  0
 21 25  2  0  0  0  0
 21 43  1  0  0  0  0
 22 25  1  0  0  0  0
 22 44  1  0  0  0  0
 23 26  1  0  0  0  0
 23 45  1  0  0  0  0
 23 46  1  0  0  0  0
 24 47  1  0  0  0  0
 25 48  1  0  0  0  0
 26 49  1  0  0  0  0
 26 50  1  0  0  0  0
 27 52  1  0  0  0  0
 27 53  1  0  0  0  0
 27 54  1  0  0  0  0
M  END
> <PUBCHEM_COMPOUND_CID>
6378383

> <PUBCHEM_CONFORMER_RMSD>
0.8

> <PUBCHEM_CONFORMER_DIVERSEORDER>
1
3
10
4
12
5
7
8
6
11
2
9

> <PUBCHEM_MMFF94_PARTIAL_CHARGES>
41
1 -0.36
10 -0.15
12 -0.15
13 -0.15
14 -0.15
15 -0.15
16 0.08
17 -0.15
18 -0.15
19 -0.15
2 -0.9
20 -0.15
21 -0.15
22 -0.15
23 0.28
24 -0.15
25 -0.15
26 0.27
27 0.27
3 -0.17
30 0.15
31 0.15
35 0.15
36 0.15
37 0.15
38 0.15
39 0.15
4 -0.06
40 0.15
41 0.15
42 0.15
43 0.15
44 0.15
47 0.15
48 0.15
5 0.14
51 0.36
6 0.03
7 0.03
8 0.03
9 -0.15

> <PUBCHEM_EFFECTIVE_ROTOR_COUNT>
8

> <PUBCHEM_PHARMACOPHORE_FEATURES>
7
1 1 acceptor
1 11 hydrophobe
1 2 cation
1 2 donor
6 6 9 10 16 17 18 rings
6 7 14 15 21 22 25 rings
6 8 12 13 19 20 24 rings

> <PUBCHEM_HEAVY_ATOM_COUNT>
27

> <PUBCHEM_ATOM_DEF_STEREO_COUNT>
0

> <PUBCHEM_ATOM_UDEF_STEREO_COUNT>
0

> <PUBCHEM_BOND_DEF_STEREO_COUNT>
1

> <PUBCHEM_BOND_UDEF_STEREO_COUNT>
0

> <PUBCHEM_ISOTOPIC_ATOM_COUNT>
0

> <PUBCHEM_COMPONENT_COUNT>
1

> <PUBCHEM_CACTVS_TAUTO_COUNT>
1

> <PUBCHEM_CONFORMER_ID>
0061538F00000001

> <PUBCHEM_MMFF94_ENERGY>
93.1543

> <PUBCHEM_FEATURE_SELFOVERLAP>
35.52

> <PUBCHEM_SHAPE_FINGERPRINT>
10165383 225 18336541707676852737
10369192 42 18273208724866226541
107951 10 18131347501615531346
11578080 2 17845110630471282823
11582403 64 15580687190263289657
12422481 6 17915760858014670328
12643181 29 18409164421121636142
12788726 201 17978526234119796731
12954195 1 18261116231949085837
13140716 1 18339923817863972291
13149001 5 18049995886465295679
133893 2 17912394153416123303
14251740 79 18264490594158394602
14659021 117 17757849823100276986
14713325 29 18270956839458689179
14856354 85 16200422555647000240
14955137 171 17540805523397246835
15042514 8 17907856206666657635
15230672 131 18343020030619945978
15439362 3 18124316270589658157
15664445 248 17396976237787145239
15927050 60 18408603699360144119
16752209 62 18194702388009715667
167882 2 18195813087700295427
20554085 129 18042987499916679912
20642791 178 18268445687797214162
20642791 35 18120643893136383246
21133665 82 18409726258684452310
21279426 13 18260818337655378854
21756936 100 17275384291966455840
23419403 2 17622117607578553355
23559900 14 18113902629145082736
283562 15 18265624174041788467
3298306 158 18408604781786484502
3383291 50 18193558866158987298
3411729 13 18197777910905807737
350125 39 18409166615291060403
4015057 19 17095809794150235296
5085150 59 18259993665359397222
5265222 85 18266730287155637476
5385378 56 18267011946199081681
559249 180 18410856543351470440
6669772 16 18339919432871337022
7226269 152 18114175346335304192

> <PUBCHEM_SHAPE_MULTIPOLES>
544.8
12.14
4.74
1.43
24.44
5.06
-0.14
-12.7
3.04
-2.21
-0.13
-0.61
0.15
-0.56

> <PUBCHEM_SHAPE_SELFOVERLAP>
1166.251

> <PUBCHEM_SHAPE_VOLUME>
302.8

> <PUBCHEM_COORDINATE_TYPE>
2
5
10

$$$$

