114899
  -OEChem-07051213073D

 64 68  0     1  0  0  0  0  0999 V2000
    2.3990   -0.5567   -1.8745 O   0  0  0  0  0  0  0  0  0  0  0  0
    0.4335   -4.1193   -1.6692 O   0  0  0  0  0  0  0  0  0  0  0  0
    0.9130   -3.6800    0.5156 O   0  0  0  0  0  0  0  0  0  0  0  0
    0.9573   -1.0110   -0.0979 N   0  0  0  0  0  0  0  0  0  0  0  0
   -2.8991   -1.4523    1.3021 N   0  0  0  0  0  0  0  0  0  0  0  0
   -1.3845   -0.8514    2.8289 N   0  0  0  0  0  0  0  0  0  0  0  0
   -6.8210    2.8414   -1.2812 N   0  0  0  0  0  0  0  0  0  0  0  0
    0.1109   -1.9099   -0.9282 C   0  0  2  0  0  0  0  0  0  0  0  0
   -1.4073   -1.7022   -0.7536 C   0  0  0  0  0  0  0  0  0  0  0  0
   -1.6971   -1.4165    0.6635 C   0  0  0  0  0  0  0  0  0  0  0  0
    0.6631   -0.8862    1.3586 C   0  0  0  0  0  0  0  0  0  0  0  0
   -0.7821   -1.0423    1.6144 C   0  0  0  0  0  0  0  0  0  0  0  0
    2.1185   -0.4755   -0.6759 C   0  0  0  0  0  0  0  0  0  0  0  0
    3.0617    0.2465    0.2553 C   0  0  0  0  0  0  0  0  0  0  0  0
   -4.1828   -1.7840    0.7337 C   0  0  0  0  0  0  0  0  0  0  0  0
    0.5315   -3.3113   -0.5852 C   0  0  0  0  0  0  0  0  0  0  0  0
   -2.6590   -1.1049    2.6072 C   0  0  0  0  0  0  0  0  0  0  0  0
    4.5079    0.0696   -0.1586 C   0  0  0  0  0  0  0  0  0  0  0  0
    2.6710    1.6950    0.4729 C   0  0  0  0  0  0  0  0  0  0  0  0
   -4.8777   -0.5622    0.1964 C   0  0  0  0  0  0  0  0  0  0  0  0
   -4.6721   -0.1826   -1.1230 C   0  0  0  0  0  0  0  0  0  0  0  0
    5.2279   -0.9984    0.3461 C   0  0  0  0  0  0  0  0  0  0  0  0
    2.9777    2.3009    1.6774 C   0  0  0  0  0  0  0  0  0  0  0  0
    5.0755    0.9800   -1.0322 C   0  0  0  0  0  0  0  0  0  0  0  0
    2.0178    2.3751   -0.5385 C   0  0  0  0  0  0  0  0  0  0  0  0
   -5.7151    0.1690    1.0277 C   0  0  0  0  0  0  0  0  0  0  0  0
   -5.3163    0.9500   -1.6208 C   0  0  0  0  0  0  0  0  0  0  0  0
   -6.3594    1.3016    0.5300 C   0  0  0  0  0  0  0  0  0  0  0  0
   -6.1600    1.6922   -0.7942 C   0  0  0  0  0  0  0  0  0  0  0  0
    6.5598   -1.1615   -0.0351 C   0  0  0  0  0  0  0  0  0  0  0  0
    2.6184    3.6338    1.8778 C   0  0  0  0  0  0  0  0  0  0  0  0
    6.4074    0.8168   -1.4136 C   0  0  0  0  0  0  0  0  0  0  0  0
    1.6586    3.7080   -0.3381 C   0  0  0  0  0  0  0  0  0  0  0  0
    7.1494   -0.2540   -0.9150 C   0  0  0  0  0  0  0  0  0  0  0  0
    1.9590    4.3373    0.8701 C   0  0  0  0  0  0  0  0  0  0  0  0
   -5.0855    1.3449   -3.0433 C   0  0  0  0  0  0  0  0  0  0  0  0
    0.3614   -1.7463   -1.9834 H   0  0  0  0  0  0  0  0  0  0  0  0
   -1.9611   -2.5742   -1.1161 H   0  0  0  0  0  0  0  0  0  0  0  0
   -1.7059   -0.8336   -1.3514 H   0  0  0  0  0  0  0  0  0  0  0  0
    0.9583    0.0992    1.7220 H   0  0  0  0  0  0  0  0  0  0  0  0
    1.2443   -1.6395    1.8988 H   0  0  0  0  0  0  0  0  0  0  0  0
    3.0011   -0.2408    1.2368 H   0  0  0  0  0  0  0  0  0  0  0  0
   -4.0411   -2.5381   -0.0484 H   0  0  0  0  0  0  0  0  0  0  0  0
   -4.7857   -2.2643    1.5144 H   0  0  0  0  0  0  0  0  0  0  0  0
   -3.4466   -1.0534    3.3469 H   0  0  0  0  0  0  0  0  0  0  0  0
   -4.0287   -0.7719   -1.7695 H   0  0  0  0  0  0  0  0  0  0  0  0
    4.7786   -1.7139    1.0286 H   0  0  0  0  0  0  0  0  0  0  0  0
    3.4918    1.7622    2.4680 H   0  0  0  0  0  0  0  0  0  0  0  0
    4.5270    1.8128   -1.4574 H   0  0  0  0  0  0  0  0  0  0  0  0
    1.7798    1.9248   -1.4960 H   0  0  0  0  0  0  0  0  0  0  0  0
   -5.8776   -0.1259    2.0605 H   0  0  0  0  0  0  0  0  0  0  0  0
    0.7047   -5.0397   -1.4656 H   0  0  0  0  0  0  0  0  0  0  0  0
   -7.0142    1.8708    1.1849 H   0  0  0  0  0  0  0  0  0  0  0  0
    7.1373   -1.9959    0.3519 H   0  0  0  0  0  0  0  0  0  0  0  0
    2.8527    4.1239    2.8183 H   0  0  0  0  0  0  0  0  0  0  0  0
    6.8656    1.5205   -2.1025 H   0  0  0  0  0  0  0  0  0  0  0  0
    1.1480    4.2573   -1.1237 H   0  0  0  0  0  0  0  0  0  0  0  0
    8.1859   -0.3818   -1.2130 H   0  0  0  0  0  0  0  0  0  0  0  0
    1.6801    5.3753    1.0257 H   0  0  0  0  0  0  0  0  0  0  0  0
   -6.0262    1.3298   -3.6038 H   0  0  0  0  0  0  0  0  0  0  0  0
   -4.3961    0.6600   -3.5492 H   0  0  0  0  0  0  0  0  0  0  0  0
   -4.6441    2.3456   -3.0974 H   0  0  0  0  0  0  0  0  0  0  0  0
   -6.6956    3.1494   -2.2353 H   0  0  0  0  0  0  0  0  0  0  0  0
   -7.4281    3.3672   -0.6662 H   0  0  0  0  0  0  0  0  0  0  0  0
  1 13  2  0  0  0  0
  2 16  1  0  0  0  0
  2 52  1  0  0  0  0
  3 16  2  0  0  0  0
  4  8  1  0  0  0  0
  4 11  1  0  0  0  0
  4 13  1  0  0  0  0
  5 10  1  0  0  0  0
  5 15  1  0  0  0  0
  5 17  1  0  0  0  0
  6 12  1  0  0  0  0
  6 17  2  0  0  0  0
  7 29  1  0  0  0  0
  7 63  1  0  0  0  0
  7 64  1  0  0  0  0
  8  9  1  0  0  0  0
  8 16  1  0  0  0  0
  8 37  1  0  0  0  0
  9 10  1  0  0  0  0
  9 38  1  0  0  0  0
  9 39  1  0  0  0  0
 10 12  2  0  0  0  0
 11 12  1  0  0  0  0
 11 40  1  0  0  0  0
 11 41  1  0  0  0  0
 13 14  1  0  0  0  0
 14 18  1  0  0  0  0
 14 19  1  0  0  0  0
 14 42  1  0  0  0  0
 15 20  1  0  0  0  0
 15 43  1  0  0  0  0
 15 44  1  0  0  0  0
 17 45  1  0  0  0  0
 18 22  2  0  0  0  0
 18 24  1  0  0  0  0
 19 23  2  0  0  0  0
 19 25  1  0  0  0  0
 20 21  2  0  0  0  0
 20 26  1  0  0  0  0
 21 27  1  0  0  0  0
 21 46  1  0  0  0  0
 22 30  1  0  0  0  0
 22 47  1  0  0  0  0
 23 31  1  0  0  0  0
 23 48  1  0  0  0  0
 24 32  2  0  0  0  0
 24 49  1  0  0  0  0
 25 33  2  0  0  0  0
 25 50  1  0  0  0  0
 26 28  2  0  0  0  0
 26 51  1  0  0  0  0
 27 29  2  0  0  0  0
 27 36  1  0  0  0  0
 28 29  1  0  0  0  0
 28 53  1  0  0  0  0
 30 34  2  0  0  0  0
 30 54  1  0  0  0  0
 31 35  2  0  0  0  0
 31 55  1  0  0  0  0
 32 34  1  0  0  0  0
 32 56  1  0  0  0  0
 33 35  1  0  0  0  0
 33 57  1  0  0  0  0
 34 58  1  0  0  0  0
 35 59  1  0  0  0  0
 36 60  1  0  0  0  0
 36 61  1  0  0  0  0
 36 62  1  0  0  0  0
M  END
> <PUBCHEM_COMPOUND_CID>
114899

> <PUBCHEM_CONFORMER_RMSD>
1

> <PUBCHEM_CONFORMER_DIVERSEORDER>
7
42
62
118
186
104
135
82
91
84
139
181
192
189
196
48
121
105
163
31
72
127
142
71
150
10
173
177
179
38
107
169
184
103
93
168
106
23
41
193
113
29
3
157
69
136
68
114
140
156
46
167
153
183
57
73
151
149
195
197
65
102
70
112
60
50
99
144
148
131
85
76
171
88
146
124
145
34
188
110
161
190
27
187
175
133
174
98
143
122
185
55
40
80
83
79
120
116
147
119
26
61
63
17
132
166
90
52
47
14
199
92
134
191
162
152
126
9
97
25
81
141
95
59
53
96
30
66
36
198
28
125
138
155
158
130
115
159
109
11
154
20
100
164
172
43
200
123
111
87
37
64
4
194
178
51
56
5
94
75
180
176
54
165
128
13
6
78
12
108
18
67
74
35
101
137
19
49
15
129
86
89
77
117
2
170
32
160
24
39
8
44
1
58
21
182
16
33
45
22

> <PUBCHEM_MMFF94_PARTIAL_CHARGES>
53
1 -0.57
10 -0.33
11 0.48
12 0.05
13 0.57
14 0.35
15 0.4
16 0.66
17 0.04
18 -0.14
19 -0.14
2 -0.65
20 -0.14
21 -0.15
22 -0.15
23 -0.15
24 -0.15
25 -0.15
26 -0.15
27 -0.14
28 -0.15
29 0.1
3 -0.57
30 -0.15
31 -0.15
32 -0.15
33 -0.15
34 -0.15
35 -0.15
36 0.14
4 -0.66
45 0.15
46 0.15
47 0.15
48 0.15
49 0.15
5 0.05
50 0.15
51 0.15
52 0.5
53 0.15
54 0.15
55 0.15
56 0.15
57 0.15
58 0.15
59 0.15
6 -0.57
63 0.4
64 0.4
7 -0.9
8 0.36
9 0.18

> <PUBCHEM_EFFECTIVE_ROTOR_COUNT>
7.8

> <PUBCHEM_PHARMACOPHORE_FEATURES>
12
1 1 acceptor
1 2 acceptor
1 3 acceptor
1 7 cation
1 7 donor
3 2 3 16 anion
3 5 6 17 cation
5 5 6 10 12 17 rings
6 18 22 24 30 32 34 rings
6 19 23 25 31 33 35 rings
6 20 21 26 27 28 29 rings
6 4 8 9 10 11 12 rings

> <PUBCHEM_HEAVY_ATOM_COUNT>
36

> <PUBCHEM_ATOM_DEF_STEREO_COUNT>
0

> <PUBCHEM_ATOM_UDEF_STEREO_COUNT>
1

> <PUBCHEM_BOND_DEF_STEREO_COUNT>
0

> <PUBCHEM_BOND_UDEF_STEREO_COUNT>
0

> <PUBCHEM_ISOTOPIC_ATOM_COUNT>
0

> <PUBCHEM_COMPONENT_COUNT>
1

> <PUBCHEM_CACTVS_TAUTO_COUNT>
1

> <PUBCHEM_CONFORMER_ID>
0001C0D300000007

> <PUBCHEM_MMFF94_ENERGY>
112.2539

> <PUBCHEM_FEATURE_SELFOVERLAP>
61.052

> <PUBCHEM_SHAPE_FINGERPRINT>
10674148 151 16343982516879547546
10763959 59 18340483370461508064
11578080 2 18196376910403055556
12128747 34 17703791431196777146
12166972 35 17895471419338627770
12664476 115 18341608205844176401
13402501 40 18343020003847874693
13583140 156 18126833916073400114
13636023 20 17824262820102538122
14068700 675 17458625644487829800
14347329 18 17418380181294279529
15183329 4 18335420183570680745
15537594 2 13038912079710143282
15975801 100 17202495574269707173
17349148 13 17241027822374087954
17980427 23 17096069313332729880
21033648 144 17827633660892299300
21033648 29 18270968929833708224
21133410 127 17693948392942679933
21223535 225 18114740559831754225
21859007 373 18339093622234760888
23576562 1 18192706740098324940
2838139 119 18413390930153222495
3178227 256 18410846668383030105
3459 39 17274835666287525245
4280585 95 14345799353280389611
4394409 98 18333725814931051894
508180 173 18408885135539685856
6009941 240 17632569436642889808
6086070 43 18409454665198011259
7226269 152 17917710231996153373

> <PUBCHEM_SHAPE_MULTIPOLES>
703.33
16.58
4.35
2.2
5.47
1.77
-0.19
6.74
6.55
-1.44
-0.23
2.03
0.26
2.9

> <PUBCHEM_SHAPE_SELFOVERLAP>
1552.07

> <PUBCHEM_SHAPE_VOLUME>
376

> <PUBCHEM_COORDINATE_TYPE>
2
5
10

$$$$

