46173817
  -OEChem-07051213092D

 64 69  0     1  0  0  0  0  0999 V2000
    4.6140    1.9937    0.0000 O   0  0  0  0  0  0  0  0  0  0  0  0
    6.3840    1.9696    0.0000 O   0  0  0  0  0  0  0  0  0  0  0  0
    5.5238    3.4729    0.0000 O   0  0  0  0  0  0  0  0  0  0  0  0
    2.0000    0.4245    0.0000 O   0  0  0  0  0  0  0  0  0  0  0  0
    8.1200    2.9629    0.0000 O   0  0  0  0  0  0  0  0  0  0  0  0
    8.1277    4.9629    0.0000 O   0  0  0  0  0  0  0  0  0  0  0  0
    6.3995    5.9696    0.0000 O   0  0  0  0  0  0  0  0  0  0  0  0
    4.6674    5.9762    0.0000 O   0  0  0  0  0  0  0  0  0  0  0  0
    2.8660   -1.0755    0.0000 N   0  0  0  0  0  0  0  0  0  0  0  0
    4.1436   -3.3761    0.0000 N   0  0  0  0  0  0  0  0  0  0  0  0
    4.5981   -0.0755    0.0000 C   0  0  1  0  0  0  0  0  0  0  0  0
    3.7320   -1.5755    0.0000 C   0  0  1  0  0  0  0  0  0  0  0  0
    4.5981   -1.0755    0.0000 C   0  0  0  0  0  0  0  0  0  0  0  0
    5.5081    0.4313    0.0000 C   0  0  2  0  0  0  0  0  0  0  0  0
    3.7320    0.4245    0.0000 C   0  0  0  0  0  0  0  0  0  0  0  0
    5.5161    1.4729    0.0000 C   0  0  1  0  0  0  0  0  0  0  0  0
    3.5228   -2.5473    0.0000 C   0  0  0  0  0  0  0  0  0  0  0  0
    2.1290   -1.7426    0.0000 C   0  0  0  0  0  0  0  0  0  0  0  0
    2.8660   -0.0755    0.0000 C   0  0  0  0  0  0  0  0  0  0  0  0
    2.5341   -2.6504    0.0000 C   0  0  0  0  0  0  0  0  0  0  0  0
    3.7160    1.4660    0.0000 C   0  0  0  0  0  0  0  0  0  0  0  0
    6.3879    2.9696    0.0000 C   0  0  2  0  0  0  0  0  0  0  0  0
    6.3683   -0.0787    0.0000 C   0  0  0  0  0  0  0  0  0  0  0  0
    7.2558    3.4662    0.0000 C   0  0  1  0  0  0  0  0  0  0  0  0
    7.2597    4.4662    0.0000 C   0  0  2  0  0  0  0  0  0  0  0  0
    6.3956    4.9696    0.0000 C   0  0  1  0  0  0  0  0  0  0  0  0
    5.5277    4.4729    0.0000 C   0  0  1  0  0  0  0  0  0  0  0  0
    2.0976   -3.5894    0.0000 C   0  0  0  0  0  0  0  0  0  0  0  0
    2.6990   -4.4322    0.0000 C   0  0  0  0  0  0  0  0  0  0  0  0
    3.7289   -4.3249    0.0000 C   0  0  0  0  0  0  0  0  0  0  0  0
    4.6636    4.9762    0.0000 C   0  0  0  0  0  0  0  0  0  0  0  0
    7.2400    0.4113    0.0000 C   0  0  0  0  0  0  0  0  0  0  0  0
    2.2444   -5.4103    0.0000 C   0  0  0  0  0  0  0  0  0  0  0  0
    4.3755   -5.1882    0.0000 C   0  0  0  0  0  0  0  0  0  0  0  0
    2.8708   -6.2883    0.0000 C   0  0  0  0  0  0  0  0  0  0  0  0
    3.9436   -6.1765    0.0000 C   0  0  0  0  0  0  0  0  0  0  0  0
    5.3309   -0.5062    0.0000 H   0  0  0  0  0  0  0  0  0  0  0  0
    4.4191   -2.0760    0.0000 H   0  0  0  0  0  0  0  0  0  0  0  0
    4.8101   -1.6581    0.0000 H   0  0  0  0  0  0  0  0  0  0  0  0
    5.2087   -0.9679    0.0000 H   0  0  0  0  0  0  0  0  0  0  0  0
    6.0480    0.7361    0.0000 H   0  0  0  0  0  0  0  0  0  0  0  0
    5.5173    2.0929    0.0000 H   0  0  0  0  0  0  0  0  0  0  0  0
    1.7636   -1.2418    0.0000 H   0  0  0  0  0  0  0  0  0  0  0  0
    1.5925   -2.0534    0.0000 H   0  0  0  0  0  0  0  0  0  0  0  0
    3.1755    1.7698    0.0000 H   0  0  0  0  0  0  0  0  0  0  0  0
    5.8498    2.6616    0.0000 H   0  0  0  0  0  0  0  0  0  0  0  0
    6.3611   -0.6986    0.0000 H   0  0  0  0  0  0  0  0  0  0  0  0
    7.7940    3.7742    0.0000 H   0  0  0  0  0  0  0  0  0  0  0  0
    7.2621    5.0862    0.0000 H   0  0  0  0  0  0  0  0  0  0  0  0
    5.8599    5.2816    0.0000 H   0  0  0  0  0  0  0  0  0  0  0  0
    4.9895    4.1650    0.0000 H   0  0  0  0  0  0  0  0  0  0  0  0
    1.4802   -3.6465    0.0000 H   0  0  0  0  0  0  0  0  0  0  0  0
    4.0534    5.0862    0.0000 H   0  0  0  0  0  0  0  0  0  0  0  0
    4.4493    4.3944    0.0000 H   0  0  0  0  0  0  0  0  0  0  0  0
    7.7733    0.0951    0.0000 H   0  0  0  0  0  0  0  0  0  0  0  0
    7.2472    1.0312    0.0000 H   0  0  0  0  0  0  0  0  0  0  0  0
    8.6581    3.2708    0.0000 H   0  0  0  0  0  0  0  0  0  0  0  0
    8.1300    5.5829    0.0000 H   0  0  0  0  0  0  0  0  0  0  0  0
    6.9376    6.2775    0.0000 H   0  0  0  0  0  0  0  0  0  0  0  0
    1.6270   -5.4674    0.0000 H   0  0  0  0  0  0  0  0  0  0  0  0
    4.9914   -5.1168    0.0000 H   0  0  0  0  0  0  0  0  0  0  0  0
    2.6160   -6.8535    0.0000 H   0  0  0  0  0  0  0  0  0  0  0  0
    4.3095   -6.6770    0.0000 H   0  0  0  0  0  0  0  0  0  0  0  0
    4.1317    6.2883    0.0000 H   0  0  0  0  0  0  0  0  0  0  0  0
  1 16  1  0  0  0  0
  1 21  1  0  0  0  0
 16  2  1  1  0  0  0
 22  2  1  6  0  0  0
  3 22  1  0  0  0  0
  3 27  1  0  0  0  0
  4 19  2  0  0  0  0
 24  5  1  1  0  0  0
  5 57  1  0  0  0  0
 25  6  1  6  0  0  0
  6 58  1  0  0  0  0
 26  7  1  1  0  0  0
  7 59  1  0  0  0  0
  8 31  1  0  0  0  0
  8 64  1  0  0  0  0
  9 12  1  0  0  0  0
  9 18  1  0  0  0  0
  9 19  1  0  0  0  0
 10 17  2  0  0  0  0
 10 30  1  0  0  0  0
 11 13  1  0  0  0  0
 11 14  1  0  0  0  0
 11 15  1  0  0  0  0
 11 37  1  1  0  0  0
 12 13  1  0  0  0  0
 12 17  1  0  0  0  0
 12 38  1  6  0  0  0
 13 39  1  0  0  0  0
 13 40  1  0  0  0  0
 14 16  1  0  0  0  0
 14 23  1  6  0  0  0
 14 41  1  0  0  0  0
 15 19  1  0  0  0  0
 15 21  2  0  0  0  0
 16 42  1  0  0  0  0
 17 20  1  0  0  0  0
 18 20  1  0  0  0  0
 18 43  1  0  0  0  0
 18 44  1  0  0  0  0
 20 28  2  0  0  0  0
 21 45  1  0  0  0  0
 22 24  1  0  0  0  0
 22 46  1  0  0  0  0
 23 32  2  0  0  0  0
 23 47  1  0  0  0  0
 24 25  1  0  0  0  0
 24 48  1  0  0  0  0
 25 26  1  0  0  0  0
 25 49  1  0  0  0  0
 26 27  1  0  0  0  0
 26 50  1  0  0  0  0
 27 31  1  6  0  0  0
 27 51  1  0  0  0  0
 28 29  1  0  0  0  0
 28 52  1  0  0  0  0
 29 30  1  0  0  0  0
 29 33  2  0  0  0  0
 30 34  2  0  0  0  0
 31 53  1  0  0  0  0
 31 54  1  0  0  0  0
 32 55  1  0  0  0  0
 32 56  1  0  0  0  0
 33 35  1  0  0  0  0
 33 60  1  0  0  0  0
 34 36  1  0  0  0  0
 34 61  1  0  0  0  0
 35 36  2  0  0  0  0
 35 62  1  0  0  0  0
 36 63  1  0  0  0  0
M  END
> <PUBCHEM_COMPOUND_CID>
46173817

> <PUBCHEM_COMPOUND_CANONICALIZED>
1

> <PUBCHEM_CACTVS_COMPLEXITY>
899

> <PUBCHEM_CACTVS_HBOND_ACCEPTOR>
9

> <PUBCHEM_CACTVS_HBOND_DONOR>
4

> <PUBCHEM_CACTVS_ROTATABLE_BOND>
4

> <PUBCHEM_CACTVS_SUBSKEYS>
AAADceB7PAAAAAAAAAAAAAAAAAAAAWAAAAA8WJECAAAAAFix8AAAHgAACAAADTzxngcwyPMIFgCoAyVyVACCiCAhIiAImCE4ZNgZcPLA0ZG2YAhlxgDPyIfY/e+egAAAAAACAAAAAAAAAAQAAAAAAAAAAA==

> <PUBCHEM_IUPAC_INCHI>
InChI=1S/C26H28N2O8/c1-2-14-15-8-18-20-13(7-12-5-3-4-6-17(12)27-20)9-28(18)24(33)16(15)11-34-25(14)36-26-23(32)22(31)21(30)19(10-29)35-26/h2-7,11,14-15,18-19,21-23,25-26,29-32H,1,8-10H2/t14-,15+,18+,19-,21-,22+,23-,25+,26+/m1/s1

> <PUBCHEM_IUPAC_INCHIKEY>
BNDDTTIRGZIQSE-ZEZHKYRDSA-N

> <PUBCHEM_XLOGP3_AA>
0.1

> <PUBCHEM_EXACT_MASS>
496.184566

> <PUBCHEM_MOLECULAR_FORMULA>
C26H28N2O8

> <PUBCHEM_MOLECULAR_WEIGHT>
496.50912

> <PUBCHEM_OPENEYE_CAN_SMILES>
C=CC1C2CC3C4=NC5=CC=CC=C5C=C4CN3C(=O)C2=COC1OC6C(C(C(C(O6)CO)O)O)O

> <PUBCHEM_OPENEYE_ISO_SMILES>
C=C[C@@H]1[C@@H]2C[C@H]3C4=NC5=CC=CC=C5C=C4CN3C(=O)C2=CO[C@H]1O[C@H]6[C@@H]([C@H]([C@@H]([C@H](O6)CO)O)O)O

> <PUBCHEM_CACTVS_TPSA>
142

> <PUBCHEM_MONOISOTOPIC_WEIGHT>
496.184566

> <PUBCHEM_TOTAL_CHARGE>
0

> <PUBCHEM_HEAVY_ATOM_COUNT>
36

> <PUBCHEM_ATOM_DEF_STEREO_COUNT>
9

> <PUBCHEM_ATOM_UDEF_STEREO_COUNT>
0

> <PUBCHEM_BOND_DEF_STEREO_COUNT>
0

> <PUBCHEM_BOND_UDEF_STEREO_COUNT>
0

> <PUBCHEM_ISOTOPIC_ATOM_COUNT>
0

> <PUBCHEM_COMPONENT_COUNT>
1

> <PUBCHEM_CACTVS_TAUTO_COUNT>
1

> <PUBCHEM_COORDINATE_TYPE>
1
5
255

> <PUBCHEM_BONDANNOTATIONS>
10  17  8
10  30  8
11  37  5
12  38  6
14  23  6
17  20  8
16  2  5
22  2  6
20  28  8
27  31  6
28  29  8
29  30  8
29  33  8
30  34  8
33  35  8
34  36  8
35  36  8
24  5  5
25  6  6
26  7  5

$$$$

