21632
  -OEChem-07051213073D

 25 25  0     0  0  0  0  0  0999 V2000
    1.9810   -1.6540   -0.5636 O   0  0  0  0  0  0  0  0  0  0  0  0
   -2.9418   -1.6776    0.5712 O   0  0  0  0  0  0  0  0  0  0  0  0
   -3.7380    0.9172   -0.0254 O   0  0  0  0  0  0  0  0  0  0  0  0
    2.7535    0.5580   -0.0037 C   0  0  0  0  0  0  0  0  0  0  0  0
    1.6817   -0.4930   -0.2865 C   0  0  0  0  0  0  0  0  0  0  0  0
    0.2380   -0.1208   -0.2149 C   0  0  0  0  0  0  0  0  0  0  0  0
    2.6011    1.0783    1.4222 C   0  0  0  0  0  0  0  0  0  0  0  0
    4.1451   -0.0434   -0.2076 C   0  0  0  0  0  0  0  0  0  0  0  0
   -0.6744   -1.0848    0.1484 C   0  0  0  0  0  0  0  0  0  0  0  0
   -0.1250    1.1720   -0.5166 C   0  0  0  0  0  0  0  0  0  0  0  0
   -2.0237   -0.7370    0.2137 C   0  0  0  0  0  0  0  0  0  0  0  0
   -1.4740    1.5198   -0.4513 C   0  0  0  0  0  0  0  0  0  0  0  0
   -2.4234    0.5654   -0.0860 C   0  0  0  0  0  0  0  0  0  0  0  0
    2.6541    1.3773   -0.7228 H   0  0  0  0  0  0  0  0  0  0  0  0
    2.6282    0.2575    2.1480 H   0  0  0  0  0  0  0  0  0  0  0  0
    1.6590    1.6140    1.5699 H   0  0  0  0  0  0  0  0  0  0  0  0
    3.4108    1.7736    1.6688 H   0  0  0  0  0  0  0  0  0  0  0  0
    4.9215    0.7104   -0.0386 H   0  0  0  0  0  0  0  0  0  0  0  0
    4.3280   -0.8767    0.4802 H   0  0  0  0  0  0  0  0  0  0  0  0
    4.2629   -0.4215   -1.2291 H   0  0  0  0  0  0  0  0  0  0  0  0
   -0.3703   -2.0996    0.3884 H   0  0  0  0  0  0  0  0  0  0  0  0
    0.5834    1.9337   -0.8209 H   0  0  0  0  0  0  0  0  0  0  0  0
   -1.7799    2.5349   -0.6896 H   0  0  0  0  0  0  0  0  0  0  0  0
   -3.8188   -1.4195    0.2448 H   0  0  0  0  0  0  0  0  0  0  0  0
   -4.2151    0.3018    0.5544 H   0  0  0  0  0  0  0  0  0  0  0  0
  1  5  2  0  0  0  0
  2 11  1  0  0  0  0
  2 24  1  0  0  0  0
  3 13  1  0  0  0  0
  3 25  1  0  0  0  0
  4  5  1  0  0  0  0
  4  7  1  0  0  0  0
  4  8  1  0  0  0  0
  4 14  1  0  0  0  0
  5  6  1  0  0  0  0
  6  9  2  0  0  0  0
  6 10  1  0  0  0  0
  7 15  1  0  0  0  0
  7 16  1  0  0  0  0
  7 17  1  0  0  0  0
  8 18  1  0  0  0  0
  8 19  1  0  0  0  0
  8 20  1  0  0  0  0
  9 11  1  0  0  0  0
  9 21  1  0  0  0  0
 10 12  2  0  0  0  0
 10 22  1  0  0  0  0
 11 13  2  0  0  0  0
 12 13  1  0  0  0  0
 12 23  1  0  0  0  0
M  END
> <PUBCHEM_COMPOUND_CID>
21632

> <PUBCHEM_CONFORMER_RMSD>
0.6

> <PUBCHEM_CONFORMER_DIVERSEORDER>
1
4
5
9
3
8
7
2
6

> <PUBCHEM_MMFF94_PARTIAL_CHARGES>
16
1 -0.57
10 -0.15
11 0.08
12 -0.15
13 0.08
2 -0.53
21 0.15
22 0.15
23 0.15
24 0.45
25 0.45
3 -0.53
4 0.06
5 0.42
6 0.09
9 -0.15

> <PUBCHEM_EFFECTIVE_ROTOR_COUNT>
2

> <PUBCHEM_PHARMACOPHORE_FEATURES>
5
1 1 acceptor
1 2 donor
1 3 donor
3 4 7 8 hydrophobe
6 6 9 10 11 12 13 rings

> <PUBCHEM_HEAVY_ATOM_COUNT>
13

> <PUBCHEM_ATOM_DEF_STEREO_COUNT>
0

> <PUBCHEM_ATOM_UDEF_STEREO_COUNT>
0

> <PUBCHEM_BOND_DEF_STEREO_COUNT>
0

> <PUBCHEM_BOND_UDEF_STEREO_COUNT>
0

> <PUBCHEM_ISOTOPIC_ATOM_COUNT>
0

> <PUBCHEM_COMPONENT_COUNT>
1

> <PUBCHEM_CACTVS_TAUTO_COUNT>
22

> <PUBCHEM_CONFORMER_ID>
0000548000000001

> <PUBCHEM_MMFF94_ENERGY>
34.4376

> <PUBCHEM_FEATURE_SELFOVERLAP>
25.376

> <PUBCHEM_SHAPE_FINGERPRINT>
10608611 8 18408609175263916448
107287 299 18113615690420760462
10857977 72 18341898445962615761
11132069 177 18341619191647780768
12382932 28 18412545401052693321
12500047 106 18411422842640878413
12932764 1 17894914001276878534
13214271 11 18410296878235621580
13380535 21 18338226171762921398
13380535 76 18410857693595922174
14325111 11 18411418410340104500
15219456 202 18334573559891768742
15775835 57 18272932764684805408
16945 1 18410576141267316341
17844478 74 18336260167589089752
18175812 5 18334859394170549212
200 152 17458634414499194125
20201158 50 18334576871248081470
20279233 1 18409164428472114327
20528008 55 18408890650266728093
20645464 45 18334574659223905559
20715346 28 18334290946537695551
20871998 184 18335978684318168583
21501502 16 18338801242209023498
21501925 9 18199188386887519723
23402539 116 18343029882071831654
23552423 10 18060129951208232095
23559900 14 18340768247405667070
2748010 2 18411693309732752991
369184 2 18410578409115478613
474 4 15069776010220933890
53812653 166 18407761456204274544
6333449 129 18410577283939600639
69090 78 18335426789721083559
7364860 26 18192998342582142634
75552 356 18272931596353525799
77492 1 16702304550834285520

> <PUBCHEM_SHAPE_MULTIPOLES>
249.93
6.02
1.58
0.86
1.5
0.19
-0.2
-0.25
-0.51
-0.59
-0.01
0.4
-0.14
0.76

> <PUBCHEM_SHAPE_SELFOVERLAP>
520.697

> <PUBCHEM_SHAPE_VOLUME>
143.3

> <PUBCHEM_COORDINATE_TYPE>
2
5
10

$$$$

