155335
  -OEChem-07051213092D

 47 51  0     1  0  0  0  0  0999 V2000
    4.6193   -3.6428    0.0000 Cl  0  0  0  0  0  0  0  0  0  0  0  0
    8.2865    1.1428    0.0000 S   0  0  0  0  0  0  0  0  0  0  0  0
    8.2865    2.1428    0.0000 S   0  0  0  0  0  0  0  0  0  0  0  0
    6.6300   -1.3453    0.0000 O   0  0  0  0  0  0  0  0  0  0  0  0
    7.8791   -1.0733    0.0000 O   0  0  0  0  0  0  0  0  0  0  0  0
    5.6884    2.6428    0.0000 O   0  0  0  0  0  0  0  0  0  0  0  0
    6.5978    0.3365    0.0000 O   0  0  0  0  0  0  0  0  0  0  0  0
    2.8718   -0.5888    0.0000 O   0  0  0  0  0  0  0  0  0  0  0  0
    2.8561   -2.6248    0.0000 O   0  0  0  0  0  0  0  0  0  0  0  0
    6.5544    1.1428    0.0000 N   0  0  0  0  0  0  0  0  0  0  0  0
    4.8350    0.3690    0.0000 N   0  0  0  0  0  0  0  0  0  0  0  0
    7.0204    2.0428    0.0000 N   0  0  0  0  0  0  0  0  0  0  0  0
    6.2225   -0.4321    0.0000 C   0  0  1  0  0  0  0  0  0  0  0  0
    7.4204    0.6428    0.0000 C   0  0  2  0  0  0  0  0  0  0  0  0
    5.8174    0.4757    0.0000 C   0  0  1  0  0  0  0  0  0  0  0  0
    7.2112   -0.3290    0.0000 C   0  0  2  0  0  0  0  0  0  0  0  0
    5.4870   -1.0920    0.0000 C   0  0  0  0  0  0  0  0  0  0  0  0
    7.4204    2.6428    0.0000 C   0  0  1  0  0  0  0  0  0  0  0  0
    6.5544    2.1428    0.0000 C   0  0  0  0  0  0  0  0  0  0  0  0
    7.0204    1.2428    0.0000 C   0  0  0  0  0  0  0  0  0  0  0  0
    4.6312   -0.5980    0.0000 C   0  0  0  0  0  0  0  0  0  0  0  0
    7.4204    3.6428    0.0000 C   0  0  0  0  0  0  0  0  0  0  0  0
    5.5029   -2.1213    0.0000 C   0  0  0  0  0  0  0  0  0  0  0  0
    3.7319   -1.0988    0.0000 C   0  0  0  0  0  0  0  0  0  0  0  0
    6.3133    2.7499    0.0000 C   0  0  0  0  0  0  0  0  0  0  0  0
    4.6154   -2.6428    0.0000 C   0  0  0  0  0  0  0  0  0  0  0  0
    3.7240   -2.1281    0.0000 C   0  0  0  0  0  0  0  0  0  0  0  0
    2.0000   -1.0788    0.0000 C   0  0  0  0  0  0  0  0  0  0  0  0
    2.8522   -3.6248    0.0000 C   0  0  0  0  0  0  0  0  0  0  0  0
    5.4693    1.2512    0.0000 H   0  0  0  0  0  0  0  0  0  0  0  0
    7.8104   -0.1699    0.0000 H   0  0  0  0  0  0  0  0  0  0  0  0
    4.4189    0.8287    0.0000 H   0  0  0  0  0  0  0  0  0  0  0  0
    6.2660   -1.8472    0.0000 H   0  0  0  0  0  0  0  0  0  0  0  0
    8.4858   -0.9455    0.0000 H   0  0  0  0  0  0  0  0  0  0  0  0
    8.0404    3.6428    0.0000 H   0  0  0  0  0  0  0  0  0  0  0  0
    7.4204    4.2628    0.0000 H   0  0  0  0  0  0  0  0  0  0  0  0
    6.8004    3.6428    0.0000 H   0  0  0  0  0  0  0  0  0  0  0  0
    6.0434   -2.4250    0.0000 H   0  0  0  0  0  0  0  0  0  0  0  0
    6.7517    3.1883    0.0000 H   0  0  0  0  0  0  0  0  0  0  0  0
    5.8749    3.1883    0.0000 H   0  0  0  0  0  0  0  0  0  0  0  0
    5.8749    2.3115    0.0000 H   0  0  0  0  0  0  0  0  0  0  0  0
    1.6962   -0.5383    0.0000 H   0  0  0  0  0  0  0  0  0  0  0  0
    1.4595   -1.3826    0.0000 H   0  0  0  0  0  0  0  0  0  0  0  0
    2.3038   -1.6193    0.0000 H   0  0  0  0  0  0  0  0  0  0  0  0
    2.2322   -3.6224    0.0000 H   0  0  0  0  0  0  0  0  0  0  0  0
    2.8498   -4.2448    0.0000 H   0  0  0  0  0  0  0  0  0  0  0  0
    3.4722   -3.6272    0.0000 H   0  0  0  0  0  0  0  0  0  0  0  0
  1 26  1  0  0  0  0
  2  3  1  0  0  0  0
  2 14  1  0  0  0  0
  3 18  1  0  0  0  0
 13  4  1  1  0  0  0
  4 33  1  0  0  0  0
 16  5  1  6  0  0  0
  5 34  1  0  0  0  0
  6 19  2  0  0  0  0
  7 20  2  0  0  0  0
  8 24  1  0  0  0  0
  8 28  1  0  0  0  0
  9 27  1  0  0  0  0
  9 29  1  0  0  0  0
 10 14  1  0  0  0  0
 10 15  1  0  0  0  0
 10 19  1  0  0  0  0
 11 15  1  0  0  0  0
 11 21  1  0  0  0  0
 11 32  1  0  0  0  0
 12 18  1  0  0  0  0
 12 20  1  0  0  0  0
 12 25  1  0  0  0  0
 13 15  1  0  0  0  0
 13 16  1  0  0  0  0
 13 17  1  0  0  0  0
 14 16  1  0  0  0  0
 14 20  1  6  0  0  0
 15 30  1  1  0  0  0
 16 31  1  0  0  0  0
 17 21  1  0  0  0  0
 17 23  2  0  0  0  0
 18 19  1  0  0  0  0
 18 22  1  6  0  0  0
 21 24  2  0  0  0  0
 22 35  1  0  0  0  0
 22 36  1  0  0  0  0
 22 37  1  0  0  0  0
 23 26  1  0  0  0  0
 23 38  1  0  0  0  0
 24 27  1  0  0  0  0
 25 39  1  0  0  0  0
 25 40  1  0  0  0  0
 25 41  1  0  0  0  0
 26 27  2  0  0  0  0
 28 42  1  0  0  0  0
 28 43  1  0  0  0  0
 28 44  1  0  0  0  0
 29 45  1  0  0  0  0
 29 46  1  0  0  0  0
 29 47  1  0  0  0  0
M  END
> <PUBCHEM_COMPOUND_CID>
155335

> <PUBCHEM_COMPOUND_CANONICALIZED>
1

> <PUBCHEM_CACTVS_COMPLEXITY>
794

> <PUBCHEM_CACTVS_HBOND_ACCEPTOR>
9

> <PUBCHEM_CACTVS_HBOND_DONOR>
3

> <PUBCHEM_CACTVS_ROTATABLE_BOND>
2

> <PUBCHEM_CACTVS_SUBSKEYS>
AAADceB7OABkAAAAAAAAAAAAAAAAAWLAAAA8WLEAAAAWAFgBAAAAHgYQCAAADF7h2CYzxoPABgCIAiVSUACCCAAhJUAAiIGNz4iPdjfFsruVcCpu5xvb+Cf6+f+OoABBIwACWABAAIJGAASwAAAAAAAAAA==

> <PUBCHEM_IUPAC_INCHI>
InChI=1S/C17H18ClN3O6S2/c1-15-13(23)21-12-16(25,11(22)17(21,29-28-15)14(24)20(15)2)6-5-7(18)9(26-3)10(27-4)8(6)19-12/h5,11-12,19,22,25H,1-4H3/t11-,12-,15-,16-,17-/m1/s1

> <PUBCHEM_IUPAC_INCHIKEY>
QMMDQXDENCYFDX-UNTBTUBKSA-N

> <PUBCHEM_XLOGP3_AA>
0.1

> <PUBCHEM_EXACT_MASS>
459.032555

> <PUBCHEM_MOLECULAR_FORMULA>
C17H18ClN3O6S2

> <PUBCHEM_MOLECULAR_WEIGHT>
459.92432

> <PUBCHEM_OPENEYE_CAN_SMILES>
CC12C(=O)N3C4C(C(C3(C(=O)N1C)SS2)O)(C5=CC(=C(C(=C5N4)OC)OC)Cl)O

> <PUBCHEM_OPENEYE_ISO_SMILES>
C[C@@]12C(=O)N3[C@@H]4[C@]([C@H]([C@]3(C(=O)N1C)SS2)O)(C5=CC(=C(C(=C5N4)OC)OC)Cl)O

> <PUBCHEM_CACTVS_TPSA>
162

> <PUBCHEM_MONOISOTOPIC_WEIGHT>
459.032555

> <PUBCHEM_TOTAL_CHARGE>
0

> <PUBCHEM_HEAVY_ATOM_COUNT>
29

> <PUBCHEM_ATOM_DEF_STEREO_COUNT>
5

> <PUBCHEM_ATOM_UDEF_STEREO_COUNT>
0

> <PUBCHEM_BOND_DEF_STEREO_COUNT>
0

> <PUBCHEM_BOND_UDEF_STEREO_COUNT>
0

> <PUBCHEM_ISOTOPIC_ATOM_COUNT>
0

> <PUBCHEM_COMPONENT_COUNT>
1

> <PUBCHEM_CACTVS_TAUTO_COUNT>
1

> <PUBCHEM_COORDINATE_TYPE>
1
5
255

> <PUBCHEM_BONDANNOTATIONS>
14  20  6
15  30  5
17  21  8
17  23  8
18  22  6
21  24  8
23  26  8
24  27  8
26  27  8
13  4  5
16  5  6

$$$$

