5035
  -OEChem-07051212533D

 61 65  0     0  0  0  0  0  0999 V2000
    4.0189    0.3111   -1.9135 S   0  0  0  0  0  0  0  0  0  0  0  0
   -3.2873   -1.0574    1.8254 O   0  0  0  0  0  0  0  0  0  0  0  0
    2.7782    0.4367    2.6086 O   0  0  0  0  0  0  0  0  0  0  0  0
    5.6953   -4.5966   -1.6723 O   0  0  0  0  0  0  0  0  0  0  0  0
    1.1669    6.0780   -0.5661 O   0  0  0  0  0  0  0  0  0  0  0  0
   -6.2556   -0.3140   -0.2296 N   0  0  0  0  0  0  0  0  0  0  0  0
   -6.3206   -1.5546   -1.0148 C   0  0  0  0  0  0  0  0  0  0  0  0
   -7.6008    0.1670    0.1158 C   0  0  0  0  0  0  0  0  0  0  0  0
   -7.1103   -1.3484   -2.3081 C   0  0  0  0  0  0  0  0  0  0  0  0
   -8.4324    0.4298   -1.1408 C   0  0  0  0  0  0  0  0  0  0  0  0
   -8.5081   -0.8099   -2.0246 C   0  0  0  0  0  0  0  0  0  0  0  0
   -5.4581   -0.5152    0.9798 C   0  0  0  0  0  0  0  0  0  0  0  0
   -4.0281   -0.8889    0.6238 C   0  0  0  0  0  0  0  0  0  0  0  0
   -1.9446   -0.7894    1.7662 C   0  0  0  0  0  0  0  0  0  0  0  0
    2.9652   -0.1693    0.3338 C   0  0  0  0  0  0  0  0  0  0  0  0
    3.6021   -1.3872   -0.0091 C   0  0  0  0  0  0  0  0  0  0  0  0
    3.0966    0.8282   -0.5767 C   0  0  0  0  0  0  0  0  0  0  0  0
    4.2367   -1.2652   -1.2490 C   0  0  0  0  0  0  0  0  0  0  0  0
    0.7801   -0.2489    1.6476 C   0  0  0  0  0  0  0  0  0  0  0  0
    2.2055    0.0328    1.5850 C   0  0  0  0  0  0  0  0  0  0  0  0
   -1.2550   -0.9880    0.5756 C   0  0  0  0  0  0  0  0  0  0  0  0
   -1.2858   -0.3234    2.8981 C   0  0  0  0  0  0  0  0  0  0  0  0
    0.1121   -0.7169    0.5161 C   0  0  0  0  0  0  0  0  0  0  0  0
    0.0811   -0.0522    2.8386 C   0  0  0  0  0  0  0  0  0  0  0  0
    2.5979    2.1856   -0.5741 C   0  0  0  0  0  0  0  0  0  0  0  0
    3.6887   -2.6278    0.6679 C   0  0  0  0  0  0  0  0  0  0  0  0
    4.9470   -2.3384   -1.8217 C   0  0  0  0  0  0  0  0  0  0  0  0
    4.3924   -3.6943    0.1024 C   0  0  0  0  0  0  0  0  0  0  0  0
    5.0146   -3.5488   -1.1293 C   0  0  0  0  0  0  0  0  0  0  0  0
    3.3680    3.2066   -0.0220 C   0  0  0  0  0  0  0  0  0  0  0  0
    1.3490    2.4667   -1.1236 C   0  0  0  0  0  0  0  0  0  0  0  0
    2.8866    4.5158   -0.0194 C   0  0  0  0  0  0  0  0  0  0  0  0
    0.8677    3.7760   -1.1210 C   0  0  0  0  0  0  0  0  0  0  0  0
    1.6365    4.8005   -0.5688 C   0  0  0  0  0  0  0  0  0  0  0  0
   -6.7712   -2.3677   -0.4308 H   0  0  0  0  0  0  0  0  0  0  0  0
   -5.3313   -1.8877   -1.3390 H   0  0  0  0  0  0  0  0  0  0  0  0
   -7.5271    1.1062    0.6774 H   0  0  0  0  0  0  0  0  0  0  0  0
   -8.1217   -0.5565    0.7570 H   0  0  0  0  0  0  0  0  0  0  0  0
   -7.1844   -2.2965   -2.8528 H   0  0  0  0  0  0  0  0  0  0  0  0
   -6.5741   -0.6463   -2.9594 H   0  0  0  0  0  0  0  0  0  0  0  0
   -7.9883    1.2571   -1.7088 H   0  0  0  0  0  0  0  0  0  0  0  0
   -9.4433    0.7435   -0.8569 H   0  0  0  0  0  0  0  0  0  0  0  0
   -9.1029   -1.5823   -1.5218 H   0  0  0  0  0  0  0  0  0  0  0  0
   -9.0176   -0.5716   -2.9647 H   0  0  0  0  0  0  0  0  0  0  0  0
   -5.4322    0.4078    1.5740 H   0  0  0  0  0  0  0  0  0  0  0  0
   -5.8940   -1.2831    1.6331 H   0  0  0  0  0  0  0  0  0  0  0  0
   -3.9680   -1.8436    0.0954 H   0  0  0  0  0  0  0  0  0  0  0  0
   -3.6106   -0.0893   -0.0030 H   0  0  0  0  0  0  0  0  0  0  0  0
   -1.7301   -1.3781   -0.3192 H   0  0  0  0  0  0  0  0  0  0  0  0
   -1.8267   -0.1689    3.8274 H   0  0  0  0  0  0  0  0  0  0  0  0
    0.6141   -0.8941   -0.4299 H   0  0  0  0  0  0  0  0  0  0  0  0
    0.5758    0.3116    3.7352 H   0  0  0  0  0  0  0  0  0  0  0  0
    3.2081   -2.7615    1.6341 H   0  0  0  0  0  0  0  0  0  0  0  0
    5.4325   -2.2221   -2.7870 H   0  0  0  0  0  0  0  0  0  0  0  0
    4.4474   -4.6392    0.6366 H   0  0  0  0  0  0  0  0  0  0  0  0
    4.3437    3.0011    0.4118 H   0  0  0  0  0  0  0  0  0  0  0  0
    0.7376    1.6810   -1.5604 H   0  0  0  0  0  0  0  0  0  0  0  0
    3.4898    5.3096    0.4126 H   0  0  0  0  0  0  0  0  0  0  0  0
   -0.1076    3.9845   -1.5525 H   0  0  0  0  0  0  0  0  0  0  0  0
    6.0644   -4.3235   -2.5297 H   0  0  0  0  0  0  0  0  0  0  0  0
    0.2891    6.0919   -0.9850 H   0  0  0  0  0  0  0  0  0  0  0  0
  1 17  1  0  0  0  0
  1 18  1  0  0  0  0
  2 13  1  0  0  0  0
  2 14  1  0  0  0  0
  3 20  2  0  0  0  0
  4 29  1  0  0  0  0
  4 60  1  0  0  0  0
  5 34  1  0  0  0  0
  5 61  1  0  0  0  0
  6  7  1  0  0  0  0
  6  8  1  0  0  0  0
  6 12  1  0  0  0  0
  7  9  1  0  0  0  0
  7 35  1  0  0  0  0
  7 36  1  0  0  0  0
  8 10  1  0  0  0  0
  8 37  1  0  0  0  0
  8 38  1  0  0  0  0
  9 11  1  0  0  0  0
  9 39  1  0  0  0  0
  9 40  1  0  0  0  0
 10 11  1  0  0  0  0
 10 41  1  0  0  0  0
 10 42  1  0  0  0  0
 11 43  1  0  0  0  0
 11 44  1  0  0  0  0
 12 13  1  0  0  0  0
 12 45  1  0  0  0  0
 12 46  1  0  0  0  0
 13 47  1  0  0  0  0
 13 48  1  0  0  0  0
 14 21  2  0  0  0  0
 14 22  1  0  0  0  0
 15 16  1  0  0  0  0
 15 17  2  0  0  0  0
 15 20  1  0  0  0  0
 16 18  2  0  0  0  0
 16 26  1  0  0  0  0
 17 25  1  0  0  0  0
 18 27  1  0  0  0  0
 19 20  1  0  0  0  0
 19 23  2  0  0  0  0
 19 24  1  0  0  0  0
 21 23  1  0  0  0  0
 21 49  1  0  0  0  0
 22 24  2  0  0  0  0
 22 50  1  0  0  0  0
 23 51  1  0  0  0  0
 24 52  1  0  0  0  0
 25 30  2  0  0  0  0
 25 31  1  0  0  0  0
 26 28  2  0  0  0  0
 26 53  1  0  0  0  0
 27 29  2  0  0  0  0
 27 54  1  0  0  0  0
 28 29  1  0  0  0  0
 28 55  1  0  0  0  0
 30 32  1  0  0  0  0
 30 56  1  0  0  0  0
 31 33  2  0  0  0  0
 31 57  1  0  0  0  0
 32 34  2  0  0  0  0
 32 58  1  0  0  0  0
 33 34  1  0  0  0  0
 33 59  1  0  0  0  0
M  END
> <PUBCHEM_COMPOUND_CID>
5035

> <PUBCHEM_CONFORMER_RMSD>
1

> <PUBCHEM_CONFORMER_DIVERSEORDER>
1
35
37
34
38
66
69
23
82
27
56
77
50
67
39
47
20
70
68
28
9
25
88
55
61
41
44
48
54
29
75
31
10
76
18
15
49
30
73
79
3
19
22
72
33
17
42
89
4
74
36
85
21
60
12
81
43
86
40
14
24
51
5
84
13
80
32
58
52
45
63
8
2
78
57
87
59
83
16
7
62
46
65
71
6
64
11
53
26

> <PUBCHEM_MMFF94_PARTIAL_CHARGES>
43
1 -0.08
12 0.27
13 0.28
14 0.08
15 -0.09
17 -0.01
18 0.04
19 0.09
2 -0.36
20 0.57
21 -0.15
22 -0.15
23 -0.15
24 -0.15
25 0.05
26 -0.15
27 -0.15
28 -0.15
29 0.08
3 -0.57
30 -0.15
31 -0.15
32 -0.15
33 -0.15
34 0.08
4 -0.53
49 0.15
5 -0.53
50 0.15
51 0.15
52 0.15
53 0.15
54 0.15
55 0.15
56 0.15
57 0.15
58 0.15
59 0.15
6 -0.81
60 0.45
61 0.45
7 0.27
8 0.27

> <PUBCHEM_EFFECTIVE_ROTOR_COUNT>
8.2

> <PUBCHEM_PHARMACOPHORE_FEATURES>
10
1 2 acceptor
1 3 acceptor
1 4 donor
1 5 donor
1 6 cation
5 1 15 16 17 18 rings
6 14 19 21 22 23 24 rings
6 16 18 26 27 28 29 rings
6 25 30 31 32 33 34 rings
6 6 7 8 9 10 11 rings

> <PUBCHEM_HEAVY_ATOM_COUNT>
34

> <PUBCHEM_ATOM_DEF_STEREO_COUNT>
0

> <PUBCHEM_ATOM_UDEF_STEREO_COUNT>
0

> <PUBCHEM_BOND_DEF_STEREO_COUNT>
0

> <PUBCHEM_BOND_UDEF_STEREO_COUNT>
0

> <PUBCHEM_ISOTOPIC_ATOM_COUNT>
0

> <PUBCHEM_COMPONENT_COUNT>
1

> <PUBCHEM_CACTVS_TAUTO_COUNT>
12

> <PUBCHEM_CONFORMER_ID>
000013AB00000001

> <PUBCHEM_MMFF94_ENERGY>
93.9643

> <PUBCHEM_FEATURE_SELFOVERLAP>
50.803

> <PUBCHEM_SHAPE_FINGERPRINT>
10985338 8 16481886356715856348
11115154 58 18269546294462107240
11135609 149 18337122245040595492
11386260 185 18413394224472656293
11720765 8 18411415116190404864
11966995 178 17917438623339958837
12166972 35 18114459045640635683
12788726 201 17554587858632889130
131258 38 17385736789505004350
13782708 43 16733274461370164375
14068700 675 17896031208254498714
14068700 686 17478878399494508931
14537116 161 17917717924598936143
15001296 14 18199762341143480093
15082195 135 18410012096561588425
15530120 55 18045229246060738391
15684393 108 18044105549673280199
16988056 13 18271236141076888196
19311894 1 18051977223092372517
20775438 99 18267594507030964763
21033648 29 16773237271926953961
21304303 282 17033042897405009036
21362857 166 18116170878731173103
21895439 516 18338803309133571367
21968339 14 18263924332590626696
21987440 362 16768431177025752260
22899556 56 17621081889601705016
23559900 14 18341039744698862283
376196 1 17625256408159686984
3918712 181 15913338966328654695
4066623 53 17988927820678083620
44317340 157 18268703927828411027
508180 173 17988074599565758873
513532 50 18059296456964405200
5223283 242 18342448279608258579
6677587 24 17979380589077965277
6697151 62 18341893021461593690
9658208 31 16702016431791368219

> <PUBCHEM_SHAPE_MULTIPOLES>
675.1
18.9
5.87
2.51
57.02
7.89
-1.09
-13.44
13.8
-13.28
2.95
1.03
-1.01
0.93

> <PUBCHEM_SHAPE_SELFOVERLAP>
1471.349

> <PUBCHEM_SHAPE_VOLUME>
369.9

> <PUBCHEM_COORDINATE_TYPE>
2
5
10

$$$$

