41539
  -OEChem-07051213153D

 22 22  0     1  0  0  0  0  0999 V2000
    3.9845   -1.0251    0.7909 Cl  0  0  0  0  0  0  0  0  0  0  0  0
    2.9226    0.6208   -1.4176 Cl  0  0  0  0  0  0  0  0  0  0  0  0
   -3.4733   -0.2581    0.6197 O   0  0  0  0  0  0  0  0  0  0  0  0
   -2.4233   -1.5356   -0.9589 O   0  0  0  0  0  0  0  0  0  0  0  0
   -0.5170    1.0077    0.1402 C   0  0  0  0  0  0  0  0  0  0  0  0
    0.0970   -0.2843   -0.2763 C   0  0  2  0  0  0  0  0  0  0  0  0
   -1.1224   -0.2928    0.5808 C   0  0  2  0  0  0  0  0  0  0  0  0
   -1.1972    1.8039   -0.9224 C   0  0  0  0  0  0  0  0  0  0  0  0
    0.1308    1.8542    1.1850 C   0  0  0  0  0  0  0  0  0  0  0  0
    1.3709   -0.7195    0.3301 C   0  0  0  0  0  0  0  0  0  0  0  0
   -2.3872   -0.7674   -0.0095 C   0  0  0  0  0  0  0  0  0  0  0  0
    2.6145   -0.4039   -0.0621 C   0  0  0  0  0  0  0  0  0  0  0  0
   -0.0088   -0.5884   -1.3132 H   0  0  0  0  0  0  0  0  0  0  0  0
   -1.0058   -0.5616    1.6274 H   0  0  0  0  0  0  0  0  0  0  0  0
   -2.0408    2.3633   -0.5037 H   0  0  0  0  0  0  0  0  0  0  0  0
   -0.5007    2.5255   -1.3638 H   0  0  0  0  0  0  0  0  0  0  0  0
   -1.5807    1.1880   -1.7432 H   0  0  0  0  0  0  0  0  0  0  0  0
    0.5291    1.2735    2.0241 H   0  0  0  0  0  0  0  0  0  0  0  0
    0.9553    2.4343    0.7567 H   0  0  0  0  0  0  0  0  0  0  0  0
   -0.5932    2.5617    1.6048 H   0  0  0  0  0  0  0  0  0  0  0  0
    1.2684   -1.3838    1.1877 H   0  0  0  0  0  0  0  0  0  0  0  0
   -4.3109   -0.5777    0.2217 H   0  0  0  0  0  0  0  0  0  0  0  0
  1 12  1  0  0  0  0
  2 12  1  0  0  0  0
  3 11  1  0  0  0  0
  3 22  1  0  0  0  0
  4 11  2  0  0  0  0
  5  6  1  0  0  0  0
  5  7  1  0  0  0  0
  5  8  1  0  0  0  0
  5  9  1  0  0  0  0
  6  7  1  0  0  0  0
  6 10  1  0  0  0  0
  6 13  1  0  0  0  0
  7 11  1  0  0  0  0
  7 14  1  0  0  0  0
  8 15  1  0  0  0  0
  8 16  1  0  0  0  0
  8 17  1  0  0  0  0
  9 18  1  0  0  0  0
  9 19  1  0  0  0  0
  9 20  1  0  0  0  0
 10 12  2  0  0  0  0
 10 21  1  0  0  0  0
M  END
> <PUBCHEM_COMPOUND_CID>
41539

> <PUBCHEM_CONFORMER_RMSD>
0.6

> <PUBCHEM_CONFORMER_DIVERSEORDER>
1
5
6
8
3
2
7
4

> <PUBCHEM_MMFF94_PARTIAL_CHARGES>
16
1 -0.14
10 -0.19
11 0.72
12 0.28
13 0.1
14 0.1
2 -0.14
21 0.15
22 0.5
3 -0.65
4 -0.57
5 -0.19
6 -0.06
7 -0.1
8 0.09
9 0.09

> <PUBCHEM_EFFECTIVE_ROTOR_COUNT>
2.6

> <PUBCHEM_PHARMACOPHORE_FEATURES>
4
1 3 acceptor
1 4 acceptor
3 3 4 11 anion
3 5 8 9 hydrophobe

> <PUBCHEM_HEAVY_ATOM_COUNT>
12

> <PUBCHEM_ATOM_DEF_STEREO_COUNT>
2

> <PUBCHEM_ATOM_UDEF_STEREO_COUNT>
0

> <PUBCHEM_BOND_DEF_STEREO_COUNT>
0

> <PUBCHEM_BOND_UDEF_STEREO_COUNT>
0

> <PUBCHEM_ISOTOPIC_ATOM_COUNT>
0

> <PUBCHEM_COMPONENT_COUNT>
1

> <PUBCHEM_CACTVS_TAUTO_COUNT>
1

> <PUBCHEM_CONFORMER_ID>
0000A24300000001

> <PUBCHEM_MMFF94_ENERGY>
21.823

> <PUBCHEM_FEATURE_SELFOVERLAP>
20.352

> <PUBCHEM_SHAPE_FINGERPRINT>
10857977 72 17748829609355715546
11132069 177 18186521007623250450
12932764 1 18409166610568578222
13024252 1 16988273291628645537
13214271 11 16226057677721928922
14128692 85 18116427046952647997
161256 15 18265343815176481953
16945 1 18412826863096905741
18186145 218 15339123433068023854
19837323 101 17388537400007228064
20653085 51 14836122173660912111
20711985 327 18040723523817501168
21061003 4 17821738238325858616
228727 97 18268970052043632876
23552423 10 18129377275319977154
23557571 272 18040712606559319208
25610 137 17845920845274367924
369184 2 17203035370253992280
5084963 1 18272930570320455376
8030462 33 17632279199663882870
81228 2 18042668671461520752

> <PUBCHEM_SHAPE_MULTIPOLES>
238.96
5.47
1.68
1.17
2.71
0.62
-0.08
-2.3
-0.06
-0.46
-0.03
0.32
0.31
-0.62

> <PUBCHEM_SHAPE_SELFOVERLAP>
463.036

> <PUBCHEM_SHAPE_VOLUME>
147.5

> <PUBCHEM_COORDINATE_TYPE>
2
5
10

$$$$

