442468
  -OEChem-07051212582D

 41 45  0     1  0  0  0  0  0999 V2000
    6.2175   -0.0736    0.0000 O   0  0  0  0  0  0  0  0  0  0  0  0
    3.6033    1.2868    0.0000 O   0  0  0  0  0  0  0  0  0  0  0  0
    7.1028    1.3401    0.0000 O   0  0  0  0  0  0  0  0  0  0  0  0
    2.8017   -1.1017    0.0000 N   0  0  3  0  0  0  0  0  0  0  0  0
    3.6033   -0.6388    0.0000 C   0  0  2  0  0  0  0  0  0  0  0  0
    3.6033    0.2868    0.0000 C   0  0  2  0  0  0  0  0  0  0  0  0
    4.4050    0.7497    0.0000 C   0  0  1  0  0  0  0  0  0  0  0  0
    5.0028    1.4902    0.0000 C   0  0  3  0  0  0  0  0  0  0  0  0
    4.4050   -1.1017    0.0000 C   0  0  1  0  0  0  0  0  0  0  0  0
    4.4050   -0.1760    0.0000 C   0  0  0  0  0  0  0  0  0  0  0  0
    5.2067   -0.6388    0.0000 C   0  0  1  0  0  0  0  0  0  0  0  0
    5.2067    0.2868    0.0000 C   0  0  0  0  0  0  0  0  0  0  0  0
    4.4050   -2.0274    0.0000 C   0  0  0  0  0  0  0  0  0  0  0  0
    6.2300    0.8520    0.0000 C   0  0  0  0  0  0  0  0  0  0  0  0
    2.8017    0.7497    0.0000 C   0  0  0  0  0  0  0  0  0  0  0  0
    2.8017   -2.0274    0.0000 C   0  0  0  0  0  0  0  0  0  0  0  0
    5.0028    2.4902    0.0000 C   0  0  0  0  0  0  0  0  0  0  0  0
    3.6033   -2.4902    0.0000 C   0  0  0  0  0  0  0  0  0  0  0  0
    2.0000   -0.6388    0.0000 C   0  0  0  0  0  0  0  0  0  0  0  0
    2.0000    0.2868    0.0000 C   0  0  0  0  0  0  0  0  0  0  0  0
    4.2767    1.5899    0.0000 H   0  0  0  0  0  0  0  0  0  0  0  0
    5.1411   -1.5267    0.0000 H   0  0  0  0  0  0  0  0  0  0  0  0
    4.5489   -0.7791    0.0000 H   0  0  0  0  0  0  0  0  0  0  0  0
    5.0241   -0.2102    0.0000 H   0  0  0  0  0  0  0  0  0  0  0  0
    5.9746   -1.0033    0.0000 H   0  0  0  0  0  0  0  0  0  0  0  0
    5.8173    0.1792    0.0000 H   0  0  0  0  0  0  0  0  0  0  0  0
    5.4187    0.8694    0.0000 H   0  0  0  0  0  0  0  0  0  0  0  0
    4.6171   -2.6100    0.0000 H   0  0  0  0  0  0  0  0  0  0  0  0
    5.0156   -1.9197    0.0000 H   0  0  0  0  0  0  0  0  0  0  0  0
    2.8017    1.3697    0.0000 H   0  0  0  0  0  0  0  0  0  0  0  0
    2.1911   -1.9197    0.0000 H   0  0  0  0  0  0  0  0  0  0  0  0
    2.5896   -2.6100    0.0000 H   0  0  0  0  0  0  0  0  0  0  0  0
    5.6228    2.4902    0.0000 H   0  0  0  0  0  0  0  0  0  0  0  0
    5.0027    3.1102    0.0000 H   0  0  0  0  0  0  0  0  0  0  0  0
    4.3828    2.4902    0.0000 H   0  0  0  0  0  0  0  0  0  0  0  0
    3.2048   -2.9652    0.0000 H   0  0  0  0  0  0  0  0  0  0  0  0
    4.0019   -2.9652    0.0000 H   0  0  0  0  0  0  0  0  0  0  0  0
    1.3894   -0.5312    0.0000 H   0  0  0  0  0  0  0  0  0  0  0  0
    1.7880   -1.2215    0.0000 H   0  0  0  0  0  0  0  0  0  0  0  0
    3.0664    1.5968    0.0000 H   0  0  0  0  0  0  0  0  0  0  0  0
    1.4631    0.5968    0.0000 H   0  0  0  0  0  0  0  0  0  0  0  0
  1 11  1  0  0  0  0
  1 14  1  0  0  0  0
  6  2  1  1  0  0  0
  2 40  1  0  0  0  0
  3 14  2  0  0  0  0
  5  4  1  1  0  0  0
  4 16  1  0  0  0  0
  4 19  1  0  0  0  0
  5  6  1  0  0  0  0
  5  9  1  0  0  0  0
  5 10  1  0  0  0  0
  6  7  1  0  0  0  0
  6 15  1  0  0  0  0
  7  8  1  0  0  0  0
  7 12  1  0  0  0  0
  7 21  1  6  0  0  0
  8 10  1  0  0  0  0
  8 14  1  0  0  0  0
  8 17  1  0  0  0  0
  9 11  1  0  0  0  0
  9 13  1  0  0  0  0
  9 22  1  6  0  0  0
 10 23  1  0  0  0  0
 10 24  1  0  0  0  0
 11 12  1  0  0  0  0
 11 25  1  6  0  0  0
 12 26  1  0  0  0  0
 12 27  1  0  0  0  0
 13 18  1  0  0  0  0
 13 28  1  0  0  0  0
 13 29  1  0  0  0  0
 15 20  2  0  0  0  0
 15 30  1  0  0  0  0
 16 18  1  0  0  0  0
 16 31  1  0  0  0  0
 16 32  1  0  0  0  0
 17 33  1  0  0  0  0
 17 34  1  0  0  0  0
 17 35  1  0  0  0  0
 18 36  1  0  0  0  0
 18 37  1  0  0  0  0
 19 20  1  0  0  0  0
 19 38  1  0  0  0  0
 19 39  1  0  0  0  0
 20 41  1  0  0  0  0
M  END
> <PUBCHEM_COMPOUND_CID>
442468

> <PUBCHEM_COMPOUND_CANONICALIZED>
1

> <PUBCHEM_CACTVS_COMPLEXITY>
546

> <PUBCHEM_CACTVS_HBOND_ACCEPTOR>
4

> <PUBCHEM_CACTVS_HBOND_DONOR>
1

> <PUBCHEM_CACTVS_ROTATABLE_BOND>
0

> <PUBCHEM_CACTVS_SUBSKEYS>
AAADceB6MAAAAAAAAAAAAAAAAAAAAYAAAAA8SIEABIAAAECwAAAAHgAACAAAD9zhgAYCCAMABgCIACDSCACAAAAgAAAICAEIAAgCBBIAgQAGUAAGgACYEAP+/f/fgAAAAAAAAADCAAaEADQgAaAADQgAAA==

> <PUBCHEM_IUPAC_INCHI>
InChI=1S/C16H21NO3/c1-14-9-15-10-4-2-6-17(15)7-3-5-16(15,19)12(14)8-11(10)20-13(14)18/h3,5,10-12,19H,2,4,6-9H2,1H3/t10-,11-,12-,14?,15+,16+/m1/s1

> <PUBCHEM_IUPAC_INCHIKEY>
AAZRLGLWPJJDGC-KPYWPBPJSA-N

> <PUBCHEM_XLOGP3_AA>
0.9

> <PUBCHEM_EXACT_MASS>
275.152144

> <PUBCHEM_MOLECULAR_FORMULA>
C16H21NO3

> <PUBCHEM_MOLECULAR_WEIGHT>
275.34284

> <PUBCHEM_OPENEYE_CAN_SMILES>
CC12CC34C5CCCN3CC=CC4(C1CC5OC2=O)O

> <PUBCHEM_OPENEYE_ISO_SMILES>
CC12C[C@@]34[C@@H]5CCCN3CC=C[C@@]4([C@@H]1C[C@H]5OC2=O)O

> <PUBCHEM_CACTVS_TPSA>
49.8

> <PUBCHEM_MONOISOTOPIC_WEIGHT>
275.152144

> <PUBCHEM_TOTAL_CHARGE>
0

> <PUBCHEM_HEAVY_ATOM_COUNT>
20

> <PUBCHEM_ATOM_DEF_STEREO_COUNT>
5

> <PUBCHEM_ATOM_UDEF_STEREO_COUNT>
1

> <PUBCHEM_BOND_DEF_STEREO_COUNT>
0

> <PUBCHEM_BOND_UDEF_STEREO_COUNT>
0

> <PUBCHEM_ISOTOPIC_ATOM_COUNT>
0

> <PUBCHEM_COMPONENT_COUNT>
1

> <PUBCHEM_CACTVS_TAUTO_COUNT>
1

> <PUBCHEM_COORDINATE_TYPE>
1
5
255

> <PUBCHEM_BONDANNOTATIONS>
11  25  6
6  2  5
5  4  5
7  21  6
8  17  3
9  22  6

$$$$

