4452
  -OEChem-06261200083D

 53 55  0     1  0  0  0  0  0999 V2000
    4.4043   -3.3202    0.4397 Cl  0  0  0  0  0  0  0  0  0  0  0  0
    1.6252    1.8496   -1.5062 O   0  0  0  0  0  0  0  0  0  0  0  0
    3.8367    2.4971   -0.1991 O   0  0  0  0  0  0  0  0  0  0  0  0
   -3.0425   -0.2409   -0.6188 N   0  0  2  0  0  0  0  0  0  0  0  0
    0.5054    0.0790   -0.5107 N   0  0  0  0  0  0  0  0  0  0  0  0
    6.5581   -1.2525    1.0288 N   0  0  0  0  0  0  0  0  0  0  0  0
   -1.7416   -0.7660   -1.0613 C   0  0  2  0  0  0  0  0  0  0  0  0
   -0.8187    0.4562   -0.9328 C   0  0  1  0  0  0  0  0  0  0  0  0
   -1.5074    1.3777    0.0754 C   0  0  0  0  0  0  0  0  0  0  0  0
   -2.7319    0.6041    0.5375 C   0  0  0  0  0  0  0  0  0  0  0  0
   -3.9986   -1.2860   -0.2726 C   0  0  0  0  0  0  0  0  0  0  0  0
   -1.7733   -1.3008   -2.4896 C   0  0  0  0  0  0  0  0  0  0  0  0
   -5.2850   -0.6820    0.2185 C   0  0  0  0  0  0  0  0  0  0  0  0
    1.6339    0.8190   -0.8379 C   0  0  0  0  0  0  0  0  0  0  0  0
   -5.4460   -0.4207    1.5731 C   0  0  0  0  0  0  0  0  0  0  0  0
   -6.2966   -0.3925   -0.6882 C   0  0  0  0  0  0  0  0  0  0  0  0
    2.9299    0.2823   -0.3486 C   0  0  0  0  0  0  0  0  0  0  0  0
   -6.6393    0.1398    2.0289 C   0  0  0  0  0  0  0  0  0  0  0  0
   -7.4897    0.1681   -0.2323 C   0  0  0  0  0  0  0  0  0  0  0  0
    3.9638    1.1480   -0.0548 C   0  0  0  0  0  0  0  0  0  0  0  0
    3.0536   -1.0852   -0.2022 C   0  0  0  0  0  0  0  0  0  0  0  0
   -7.6610    0.4342    1.1262 C   0  0  0  0  0  0  0  0  0  0  0  0
    5.1724    0.6252    0.4049 C   0  0  0  0  0  0  0  0  0  0  0  0
    4.2623   -1.6081    0.2575 C   0  0  0  0  0  0  0  0  0  0  0  0
    5.3218   -0.7529    0.5609 C   0  0  0  0  0  0  0  0  0  0  0  0
    3.3613    3.2274    0.9298 C   0  0  0  0  0  0  0  0  0  0  0  0
    7.8031   -0.5999    0.7738 C   0  0  0  0  0  0  0  0  0  0  0  0
   -1.4050   -1.5677   -0.3888 H   0  0  0  0  0  0  0  0  0  0  0  0
   -0.7374    0.9916   -1.8878 H   0  0  0  0  0  0  0  0  0  0  0  0
   -0.8683    1.6609    0.9185 H   0  0  0  0  0  0  0  0  0  0  0  0
   -1.8191    2.3000   -0.4310 H   0  0  0  0  0  0  0  0  0  0  0  0
   -3.5275    1.3115    0.7899 H   0  0  0  0  0  0  0  0  0  0  0  0
   -2.4712    0.0124    1.4246 H   0  0  0  0  0  0  0  0  0  0  0  0
   -3.5974   -1.9696    0.4884 H   0  0  0  0  0  0  0  0  0  0  0  0
   -4.2177   -1.9100   -1.1479 H   0  0  0  0  0  0  0  0  0  0  0  0
   -2.4016   -2.1937   -2.5677 H   0  0  0  0  0  0  0  0  0  0  0  0
   -2.1619   -0.5532   -3.1902 H   0  0  0  0  0  0  0  0  0  0  0  0
   -0.7654   -1.5760   -2.8186 H   0  0  0  0  0  0  0  0  0  0  0  0
    0.5814   -0.6987    0.1370 H   0  0  0  0  0  0  0  0  0  0  0  0
   -4.6669   -0.6581    2.2918 H   0  0  0  0  0  0  0  0  0  0  0  0
   -6.1733   -0.5936   -1.7487 H   0  0  0  0  0  0  0  0  0  0  0  0
   -6.7743    0.3438    3.0871 H   0  0  0  0  0  0  0  0  0  0  0  0
   -8.2852    0.3977   -0.9350 H   0  0  0  0  0  0  0  0  0  0  0  0
    2.2524   -1.7707   -0.4634 H   0  0  0  0  0  0  0  0  0  0  0  0
   -8.5904    0.8700    1.4812 H   0  0  0  0  0  0  0  0  0  0  0  0
    5.9774    1.3154    0.6422 H   0  0  0  0  0  0  0  0  0  0  0  0
    6.5820   -2.2453    1.2392 H   0  0  0  0  0  0  0  0  0  0  0  0
    3.2670    4.2782    0.6427 H   0  0  0  0  0  0  0  0  0  0  0  0
    2.3792    2.8621    1.2464 H   0  0  0  0  0  0  0  0  0  0  0  0
    4.0730    3.1536    1.7581 H   0  0  0  0  0  0  0  0  0  0  0  0
    7.9266   -0.3675   -0.2891 H   0  0  0  0  0  0  0  0  0  0  0  0
    7.9040    0.3191    1.3597 H   0  0  0  0  0  0  0  0  0  0  0  0
    8.6289   -1.2576    1.0645 H   0  0  0  0  0  0  0  0  0  0  0  0
  1 24  1  0  0  0  0
  2 14  2  0  0  0  0
  3 20  1  0  0  0  0
  3 26  1  0  0  0  0
  4  7  1  0  0  0  0
  4 10  1  0  0  0  0
  4 11  1  0  0  0  0
  5  8  1  0  0  0  0
  5 14  1  0  0  0  0
  5 39  1  0  0  0  0
  6 25  1  0  0  0  0
  6 27  1  0  0  0  0
  6 47  1  0  0  0  0
  7  8  1  0  0  0  0
  7 12  1  0  0  0  0
  7 28  1  0  0  0  0
  8  9  1  0  0  0  0
  8 29  1  0  0  0  0
  9 10  1  0  0  0  0
  9 30  1  0  0  0  0
  9 31  1  0  0  0  0
 10 32  1  0  0  0  0
 10 33  1  0  0  0  0
 11 13  1  0  0  0  0
 11 34  1  0  0  0  0
 11 35  1  0  0  0  0
 12 36  1  0  0  0  0
 12 37  1  0  0  0  0
 12 38  1  0  0  0  0
 13 15  2  0  0  0  0
 13 16  1  0  0  0  0
 14 17  1  0  0  0  0
 15 18  1  0  0  0  0
 15 40  1  0  0  0  0
 16 19  2  0  0  0  0
 16 41  1  0  0  0  0
 17 20  1  0  0  0  0
 17 21  2  0  0  0  0
 18 22  2  0  0  0  0
 18 42  1  0  0  0  0
 19 22  1  0  0  0  0
 19 43  1  0  0  0  0
 20 23  2  0  0  0  0
 21 24  1  0  0  0  0
 21 44  1  0  0  0  0
 22 45  1  0  0  0  0
 23 25  1  0  0  0  0
 23 46  1  0  0  0  0
 24 25  2  0  0  0  0
 26 48  1  0  0  0  0
 26 49  1  0  0  0  0
 26 50  1  0  0  0  0
 27 51  1  0  0  0  0
 27 52  1  0  0  0  0
 27 53  1  0  0  0  0
M  END
> <PUBCHEM_COMPOUND_CID>
4452

> <PUBCHEM_CONFORMER_RMSD>
0.8

> <PUBCHEM_CONFORMER_DIVERSEORDER>
20
196
95
199
82
151
172
219
127
48
214
139
51
62
4
226
269
239
243
2
38
256
161
222
213
171
13
158
277
249
170
160
70
90
192
163
59
200
246
101
155
46
253
166
240
23
227
228
41
147
275
242
230
122
257
126
206
35
260
279
165
225
204
186
17
150
99
142
113
89
39
64
92
124
255
268
121
63
77
44
175
45
143
247
58
236
262
207
185
57
208
168
109
15
156
69
212
36
223
148
169
67
233
162
117
267
215
157
107
65
211
40
25
224
266
55
29
252
270
114
140
115
259
154
216
231
210
241
263
144
123
108
254
280
72
104
149
75
195
133
60
56
119
189
232
43
130
217
153
278
164
100
53
203
37
271
190
49
132
183
54
178
176
66
235
250
94
220
145
50
111
68
261
248
8
24
265
229
264
34
272
129
76
42
258
274
71
118
125
16
128
136
3
131
273
237
27
19
47
197
159
112
137
218
1
120
135
80
26
31
198
30
141
234
201
73
85
146
6
106
78
187
18
5
188
245
12
116
205
180
81
33
152
83
88
32
79
209
22
87
91
7
244
138
52
9
194
10
86
238
103
28
191
221
110
276
74
102
193
14
61
202
98
174
97
84
182
181
167
134
93
251
179
96
105
21
184
281
11
177
173

> <PUBCHEM_MMFF94_PARTIAL_CHARGES>
34
1 -0.18
10 0.27
11 0.41
13 -0.14
14 0.54
15 -0.15
16 -0.15
17 0.09
18 -0.15
19 -0.15
2 -0.57
20 0.08
21 -0.15
22 -0.15
23 -0.15
24 0.18
25 0.1
26 0.28
27 0.37
3 -0.36
39 0.37
4 -0.81
40 0.15
41 0.15
42 0.15
43 0.15
44 0.15
45 0.15
46 0.15
47 0.4
5 -0.73
6 -0.87
7 0.27
8 0.3

> <PUBCHEM_EFFECTIVE_ROTOR_COUNT>
8

> <PUBCHEM_PHARMACOPHORE_FEATURES>
9
1 2 acceptor
1 3 acceptor
1 4 cation
1 5 donor
1 6 cation
1 6 donor
5 4 7 8 9 10 rings
6 13 15 16 18 19 22 rings
6 17 20 21 23 24 25 rings

> <PUBCHEM_HEAVY_ATOM_COUNT>
27

> <PUBCHEM_ATOM_DEF_STEREO_COUNT>
0

> <PUBCHEM_ATOM_UDEF_STEREO_COUNT>
2

> <PUBCHEM_BOND_DEF_STEREO_COUNT>
0

> <PUBCHEM_BOND_UDEF_STEREO_COUNT>
0

> <PUBCHEM_ISOTOPIC_ATOM_COUNT>
0

> <PUBCHEM_COMPONENT_COUNT>
1

> <PUBCHEM_CACTVS_TAUTO_COUNT>
3

> <PUBCHEM_CONFORMER_ID>
0000116400000014

> <PUBCHEM_MMFF94_ENERGY>
92.7209

> <PUBCHEM_FEATURE_SELFOVERLAP>
45.678

> <PUBCHEM_SHAPE_FINGERPRINT>
10 15 14923948950611188675
11135609 12 17489586732410925006
11524674 6 17632573830453106059
12236239 1 18334013857318615343
12596602 18 18336824191970274155
12616971 3 18187652366396447596
12633257 1 17095530569160821876
12778500 126 18260544541278418048
13150687 139 11167935901640564544
13533116 47 18412261744148102778
13540713 5 17752497459776421684
13668630 136 15554446305662958362
13673619 4 17418094334225017244
13685833 64 17846779624444152042
13782708 43 17203035272229491395
14251764 18 18186519883090736407
14347424 109 18409729573217244433
14849402 71 18190185594998011272
15064986 96 17460035308868468246
15183329 4 17894623747972668329
15238133 3 16950280676827547560
15348495 7 18200306611914502225
15352257 5 16343984719438434075
15475509 84 18260545675266569288
15510794 2 17274821334002699027
20554085 129 15647055992817920343
21130935 74 18412540986565278675
21150785 3 10087920774612607289
21267235 1 18342176704953125854
21792934 111 18335991925945312065
23081809 10 18188208702691031237
23559900 14 16987991696556673501
3178227 256 18343305860492703682
397830 11 17559667335996922905
4073 2 18200591376208868827
439807 62 16487263213525290506
46194498 28 16559030480922772134
6058803 2 17682694925822532596
86090 222 17560787892189659218

> <PUBCHEM_SHAPE_MULTIPOLES>
530.84
21.68
2.35
1.49
13.87
0.4
0.21
-3.71
-10.24
-4.78
-0.22
1.69
-0.2
-1.34

> <PUBCHEM_SHAPE_SELFOVERLAP>
1118.257

> <PUBCHEM_SHAPE_VOLUME>
301.2

> <PUBCHEM_COORDINATE_TYPE>
2
5
10

$$$$

