7782
  -OEChem-06261202193D

 37 36  0     0  0  0  0  0  0999 V2000
    1.5117   -0.2911    0.2826 O   0  0  0  0  0  0  0  0  0  0  0  0
    3.6766   -1.0829    0.3824 O   0  0  0  0  0  0  0  0  0  0  0  0
   -2.8728   -1.6066    0.0772 C   0  0  0  0  0  0  0  0  0  0  0  0
   -3.4192   -0.2306   -0.3257 C   0  0  0  0  0  0  0  0  0  0  0  0
   -1.3736   -1.7405   -0.0897 C   0  0  0  0  0  0  0  0  0  0  0  0
   -2.8330    0.8863    0.4929 C   0  0  0  0  0  0  0  0  0  0  0  0
   -0.4647   -1.4604    0.8646 C   0  0  0  0  0  0  0  0  0  0  0  0
   -0.9189   -2.1928   -1.4539 C   0  0  0  0  0  0  0  0  0  0  0  0
   -2.0335    1.8880    0.0804 C   0  0  0  0  0  0  0  0  0  0  0  0
    1.0257   -1.5360    0.7663 C   0  0  0  0  0  0  0  0  0  0  0  0
   -1.5366    2.9170    1.0610 C   0  0  0  0  0  0  0  0  0  0  0  0
   -1.5724    2.1067   -1.3325 C   0  0  0  0  0  0  0  0  0  0  0  0
    3.2208    1.1785   -0.3847 C   0  0  0  0  0  0  0  0  0  0  0  0
    2.8710   -0.1964    0.1346 C   0  0  0  0  0  0  0  0  0  0  0  0
    4.7189    1.3609   -0.5554 C   0  0  0  0  0  0  0  0  0  0  0  0
   -3.1351   -1.8034    1.1256 H   0  0  0  0  0  0  0  0  0  0  0  0
   -3.3792   -2.3878   -0.5031 H   0  0  0  0  0  0  0  0  0  0  0  0
   -4.5050   -0.2271   -0.1679 H   0  0  0  0  0  0  0  0  0  0  0  0
   -3.2771   -0.0795   -1.3991 H   0  0  0  0  0  0  0  0  0  0  0  0
   -3.1010    0.8495    1.5485 H   0  0  0  0  0  0  0  0  0  0  0  0
   -0.8381   -1.1151    1.8277 H   0  0  0  0  0  0  0  0  0  0  0  0
   -1.4272   -1.6095   -2.2297 H   0  0  0  0  0  0  0  0  0  0  0  0
   -1.1733   -3.2475   -1.6008 H   0  0  0  0  0  0  0  0  0  0  0  0
    0.1515   -2.0735   -1.6357 H   0  0  0  0  0  0  0  0  0  0  0  0
    1.3530   -2.3568    0.1193 H   0  0  0  0  0  0  0  0  0  0  0  0
    1.4334   -1.7235    1.7672 H   0  0  0  0  0  0  0  0  0  0  0  0
   -1.8704    3.9166    0.7635 H   0  0  0  0  0  0  0  0  0  0  0  0
   -1.8992    2.7348    2.0781 H   0  0  0  0  0  0  0  0  0  0  0  0
   -0.4421    2.9105    1.0934 H   0  0  0  0  0  0  0  0  0  0  0  0
   -0.4778    2.1383   -1.3670 H   0  0  0  0  0  0  0  0  0  0  0  0
   -1.8896    1.3260   -2.0261 H   0  0  0  0  0  0  0  0  0  0  0  0
   -1.9556    3.0605   -1.7096 H   0  0  0  0  0  0  0  0  0  0  0  0
    2.7247    1.3198   -1.3507 H   0  0  0  0  0  0  0  0  0  0  0  0
    2.8434    1.9227    0.3245 H   0  0  0  0  0  0  0  0  0  0  0  0
    5.1254    0.6326   -1.2650 H   0  0  0  0  0  0  0  0  0  0  0  0
    4.9403    2.3647   -0.9306 H   0  0  0  0  0  0  0  0  0  0  0  0
    5.2422    1.2281    0.3973 H   0  0  0  0  0  0  0  0  0  0  0  0
  1 10  1  0  0  0  0
  1 14  1  0  0  0  0
  2 14  2  0  0  0  0
  3  4  1  0  0  0  0
  3  5  1  0  0  0  0
  3 16  1  0  0  0  0
  3 17  1  0  0  0  0
  4  6  1  0  0  0  0
  4 18  1  0  0  0  0
  4 19  1  0  0  0  0
  5  7  2  0  0  0  0
  5  8  1  0  0  0  0
  6  9  2  0  0  0  0
  6 20  1  0  0  0  0
  7 10  1  0  0  0  0
  7 21  1  0  0  0  0
  8 22  1  0  0  0  0
  8 23  1  0  0  0  0
  8 24  1  0  0  0  0
  9 11  1  0  0  0  0
  9 12  1  0  0  0  0
 10 25  1  0  0  0  0
 10 26  1  0  0  0  0
 11 27  1  0  0  0  0
 11 28  1  0  0  0  0
 11 29  1  0  0  0  0
 12 30  1  0  0  0  0
 12 31  1  0  0  0  0
 12 32  1  0  0  0  0
 13 14  1  0  0  0  0
 13 15  1  0  0  0  0
 13 33  1  0  0  0  0
 13 34  1  0  0  0  0
 15 35  1  0  0  0  0
 15 36  1  0  0  0  0
 15 37  1  0  0  0  0
M  END
> <PUBCHEM_COMPOUND_CID>
7782

> <PUBCHEM_CONFORMER_RMSD>
0.8

> <PUBCHEM_CONFORMER_DIVERSEORDER>
9
3
102
199
180
189
192
161
182
188
178
58
146
35
177
218
91
137
206
19
195
44
61
17
134
211
20
85
111
143
156
121
14
135
175
67
154
15
84
187
153
138
82
198
33
95
48
213
145
18
122
186
2
205
55
42
164
209
69
144
24
94
127
38
157
163
59
155
123
114
16
212
203
130
30
101
174
25
64
191
215
90
217
204
76
184
136
117
210
71
29
73
11
148
54
109
34
106
141
125
8
179
173
147
119
194
120
47
176
128
31
132
151
53
162
107
46
78
190
112
202
88
208
214
63
172
103
87
22
37
99
105
12
133
72
124
100
80
152
181
97
139
65
193
77
50
56
116
27
142
68
220
62
201
115
126
207
79
49
113
197
51
74
104
129
40
131
66
83
26
185
166
149
108
6
57
81
10
200
216
86
75
171
110
219
167
89
60
170
1
93
96
32
168
43
45
98
21
70
39
41
7
140
160
23
150
36
196
158
28
13
52
165
92
159
118
5
183
169
4

> <PUBCHEM_MMFF94_PARTIAL_CHARGES>
16
1 -0.43
10 0.42
11 0.14
12 0.14
13 0.06
14 0.66
2 -0.57
20 0.15
21 0.15
3 0.14
4 0.14
5 -0.28
6 -0.29
7 -0.29
8 0.14
9 -0.28

> <PUBCHEM_EFFECTIVE_ROTOR_COUNT>
7

> <PUBCHEM_PHARMACOPHORE_FEATURES>
5
1 15 hydrophobe
1 2 acceptor
1 8 hydrophobe
3 9 11 12 hydrophobe
4 3 4 5 6 hydrophobe

> <PUBCHEM_HEAVY_ATOM_COUNT>
15

> <PUBCHEM_ATOM_DEF_STEREO_COUNT>
0

> <PUBCHEM_ATOM_UDEF_STEREO_COUNT>
0

> <PUBCHEM_BOND_DEF_STEREO_COUNT>
0

> <PUBCHEM_BOND_UDEF_STEREO_COUNT>
1

> <PUBCHEM_ISOTOPIC_ATOM_COUNT>
0

> <PUBCHEM_COMPONENT_COUNT>
1

> <PUBCHEM_CACTVS_TAUTO_COUNT>
1

> <PUBCHEM_CONFORMER_ID>
00001E6600000009

> <PUBCHEM_MMFF94_ENERGY>
11.6579

> <PUBCHEM_FEATURE_SELFOVERLAP>
25.378

> <PUBCHEM_SHAPE_FINGERPRINT>
10498660 4 18412267228916415237
12054548 360 18189340065253091720
14123250 116 18335976558109130928
14123260 362 17845639370883168092
14251745 187 18048321046334768464
14251757 17 17679276797775372526
15442244 35 18269559506409172818
15775835 57 18341046419077643409
17834072 32 18196936792984760621
20300324 65 18335700477542271710
20510252 161 18272086046163457955
20621476 13 16181300218568012876
21141583 151 18260543390581026152
21421566 26 17317327207238045558
21524375 3 18338240495452635867
21652331 79 18343017774553625753
23114952 82 17532915302537254902
23402539 116 18266182729542416486
23557571 272 18264757762620407934
23590187 71 18338235960215058640
23590187 85 18408036320936439137
4028521 119 18342745095717403789
4175511 318 17822007562845707774
44154327 71 18266738176652045849

> <PUBCHEM_SHAPE_MULTIPOLES>
296.95
7.05
3.13
1.11
8.65
1.2
-0.22
1.94
-0.69
-1.78
-0.01
-0.31
0.06
-0.78

> <PUBCHEM_SHAPE_SELFOVERLAP>
558.836

> <PUBCHEM_SHAPE_VOLUME>
185.2

> <PUBCHEM_COORDINATE_TYPE>
2
5
10

$$$$

