46174019
  -OEChem-07051213113D

 56 57  0     1  0  0  0  0  0999 V2000
   -0.7411    0.4772    0.6108 O   0  0  0  0  0  0  0  0  0  0  0  0
   -2.4662    0.2142   -0.9783 O   0  0  0  0  0  0  0  0  0  0  0  0
    4.5466   -1.0249   -0.3771 O   0  0  0  0  0  0  0  0  0  0  0  0
    1.0564    2.2259   -0.7948 O   0  0  0  0  0  0  0  0  0  0  0  0
    2.7520   -2.7742    1.0270 O   0  0  0  0  0  0  0  0  0  0  0  0
    3.8483    1.7647   -0.2681 N   0  0  0  0  0  0  0  0  0  0  0  0
   -0.0423   -2.3260    0.5023 N   0  0  0  0  0  0  0  0  0  0  0  0
   -1.5708    3.1703    1.0989 N   0  0  0  0  0  0  0  0  0  0  0  0
   -3.3334   -2.3557   -1.6517 N   0  0  0  0  0  0  0  0  0  0  0  0
    0.4565    0.0259   -0.0285 C   0  0  2  0  0  0  0  0  0  0  0  0
    2.8693    0.6879   -0.4684 C   0  0  2  0  0  0  0  0  0  0  0  0
    0.9322   -1.2425    0.6938 C   0  0  2  0  0  0  0  0  0  0  0  0
    1.4976    1.1486    0.0368 C   0  0  1  0  0  0  0  0  0  0  0  0
    3.3469   -0.5737    0.2586 C   0  0  1  0  0  0  0  0  0  0  0  0
    2.3092   -1.6997    0.1926 C   0  0  1  0  0  0  0  0  0  0  0  0
   -1.5964    1.1350   -0.3090 C   0  0  1  0  0  0  0  0  0  0  0  0
   -2.4261    2.2182    0.3957 C   0  0  1  0  0  0  0  0  0  0  0  0
   -3.3724   -0.4595   -0.0970 C   0  0  1  0  0  0  0  0  0  0  0  0
   -3.4283    1.5874    1.3658 C   0  0  0  0  0  0  0  0  0  0  0  0
   -4.2676    0.5435    0.6335 C   0  0  0  0  0  0  0  0  0  0  0  0
   -4.2030   -1.4211   -0.9367 C   0  0  2  0  0  0  0  0  0  0  0  0
    3.7266    2.7638   -1.3149 C   0  0  0  0  0  0  0  0  0  0  0  0
    5.2886   -1.8794    0.4769 C   0  0  0  0  0  0  0  0  0  0  0  0
   -5.1826   -2.2061   -0.0681 C   0  0  0  0  0  0  0  0  0  0  0  0
    0.2463   -0.2275   -1.0787 H   0  0  0  0  0  0  0  0  0  0  0  0
    2.8172    0.4471   -1.5401 H   0  0  0  0  0  0  0  0  0  0  0  0
    0.9766   -1.0515    1.7745 H   0  0  0  0  0  0  0  0  0  0  0  0
    1.5598    1.5395    1.0601 H   0  0  0  0  0  0  0  0  0  0  0  0
    3.5565   -0.3178    1.3076 H   0  0  0  0  0  0  0  0  0  0  0  0
    2.2484   -2.0932   -0.8298 H   0  0  0  0  0  0  0  0  0  0  0  0
   -1.0498    1.6261   -1.1152 H   0  0  0  0  0  0  0  0  0  0  0  0
   -2.9997    2.7615   -0.3670 H   0  0  0  0  0  0  0  0  0  0  0  0
   -2.7931   -1.0271    0.6409 H   0  0  0  0  0  0  0  0  0  0  0  0
   -2.9056    1.1109    2.2053 H   0  0  0  0  0  0  0  0  0  0  0  0
   -4.0864    2.3541    1.7923 H   0  0  0  0  0  0  0  0  0  0  0  0
    4.7854    1.3634   -0.3197 H   0  0  0  0  0  0  0  0  0  0  0  0
   -4.9126    1.0612   -0.0879 H   0  0  0  0  0  0  0  0  0  0  0  0
   -4.9154    0.0498    1.3645 H   0  0  0  0  0  0  0  0  0  0  0  0
    0.2815   -3.1625    0.9864 H   0  0  0  0  0  0  0  0  0  0  0  0
   -0.9247   -2.0674    0.9396 H   0  0  0  0  0  0  0  0  0  0  0  0
    1.0525    1.9124   -1.7157 H   0  0  0  0  0  0  0  0  0  0  0  0
   -4.7645   -0.8605   -1.6945 H   0  0  0  0  0  0  0  0  0  0  0  0
    2.7939   -2.4474    1.9420 H   0  0  0  0  0  0  0  0  0  0  0  0
    2.9436    3.4968   -1.1086 H   0  0  0  0  0  0  0  0  0  0  0  0
    3.5938    2.3379   -2.3150 H   0  0  0  0  0  0  0  0  0  0  0  0
    4.6569    3.3432   -1.3462 H   0  0  0  0  0  0  0  0  0  0  0  0
   -0.9384    3.6177    0.4367 H   0  0  0  0  0  0  0  0  0  0  0  0
   -2.1409    3.9127    1.5019 H   0  0  0  0  0  0  0  0  0  0  0  0
    5.2354   -1.5935    1.5322 H   0  0  0  0  0  0  0  0  0  0  0  0
    4.9942   -2.9218    0.3331 H   0  0  0  0  0  0  0  0  0  0  0  0
    6.3382   -1.8112    0.1730 H   0  0  0  0  0  0  0  0  0  0  0  0
   -5.6844   -2.9852   -0.6542 H   0  0  0  0  0  0  0  0  0  0  0  0
   -4.6772   -2.6965    0.7714 H   0  0  0  0  0  0  0  0  0  0  0  0
   -5.9751   -1.5652    0.3300 H   0  0  0  0  0  0  0  0  0  0  0  0
   -3.8930   -2.9481   -2.2637 H   0  0  0  0  0  0  0  0  0  0  0  0
   -2.6969   -1.8367   -2.2554 H   0  0  0  0  0  0  0  0  0  0  0  0
  1 10  1  0  0  0  0
  1 16  1  0  0  0  0
  2 16  1  0  0  0  0
  2 18  1  0  0  0  0
  3 14  1  0  0  0  0
  3 23  1  0  0  0  0
  4 13  1  0  0  0  0
  4 41  1  0  0  0  0
  5 15  1  0  0  0  0
  5 43  1  0  0  0  0
  6 11  1  0  0  0  0
  6 22  1  0  0  0  0
  6 36  1  0  0  0  0
  7 12  1  0  0  0  0
  7 39  1  0  0  0  0
  7 40  1  0  0  0  0
  8 17  1  0  0  0  0
  8 47  1  0  0  0  0
  8 48  1  0  0  0  0
  9 21  1  0  0  0  0
  9 55  1  0  0  0  0
  9 56  1  0  0  0  0
 10 12  1  0  0  0  0
 10 13  1  0  0  0  0
 10 25  1  0  0  0  0
 11 13  1  0  0  0  0
 11 14  1  0  0  0  0
 11 26  1  0  0  0  0
 12 15  1  0  0  0  0
 12 27  1  0  0  0  0
 13 28  1  0  0  0  0
 14 15  1  0  0  0  0
 14 29  1  0  0  0  0
 15 30  1  0  0  0  0
 16 17  1  0  0  0  0
 16 31  1  0  0  0  0
 17 19  1  0  0  0  0
 17 32  1  0  0  0  0
 18 20  1  0  0  0  0
 18 21  1  0  0  0  0
 18 33  1  0  0  0  0
 19 20  1  0  0  0  0
 19 34  1  0  0  0  0
 19 35  1  0  0  0  0
 20 37  1  0  0  0  0
 20 38  1  0  0  0  0
 21 24  1  0  0  0  0
 21 42  1  0  0  0  0
 22 44  1  0  0  0  0
 22 45  1  0  0  0  0
 22 46  1  0  0  0  0
 23 49  1  0  0  0  0
 23 50  1  0  0  0  0
 23 51  1  0  0  0  0
 24 52  1  0  0  0  0
 24 53  1  0  0  0  0
 24 54  1  0  0  0  0
M  END
> <PUBCHEM_COMPOUND_CID>
46174019

> <PUBCHEM_CONFORMER_RMSD>
0.8

> <PUBCHEM_CONFORMER_DIVERSEORDER>
1
12
13
9
10
6
2
4
3
8
11
7
5

> <PUBCHEM_MMFF94_PARTIAL_CHARGES>
30
1 -0.56
10 0.28
11 0.27
12 0.27
13 0.28
14 0.28
15 0.28
16 0.56
17 0.27
18 0.28
2 -0.56
21 0.27
22 0.27
23 0.28
3 -0.56
36 0.36
39 0.36
4 -0.68
40 0.36
41 0.4
43 0.4
47 0.36
48 0.36
5 -0.68
55 0.36
56 0.36
6 -0.9
7 -0.99
8 -0.99
9 -0.99

> <PUBCHEM_EFFECTIVE_ROTOR_COUNT>
7.4

> <PUBCHEM_PHARMACOPHORE_FEATURES>
17
1 1 acceptor
1 2 acceptor
1 3 acceptor
1 4 acceptor
1 4 donor
1 5 acceptor
1 5 donor
1 6 cation
1 6 donor
1 7 cation
1 7 donor
1 8 cation
1 8 donor
1 9 cation
1 9 donor
6 10 11 12 13 14 15 rings
6 2 16 17 18 19 20 rings

> <PUBCHEM_HEAVY_ATOM_COUNT>
24

> <PUBCHEM_ATOM_DEF_STEREO_COUNT>
10

> <PUBCHEM_ATOM_UDEF_STEREO_COUNT>
0

> <PUBCHEM_BOND_DEF_STEREO_COUNT>
0

> <PUBCHEM_BOND_UDEF_STEREO_COUNT>
0

> <PUBCHEM_ISOTOPIC_ATOM_COUNT>
0

> <PUBCHEM_COMPONENT_COUNT>
1

> <PUBCHEM_CACTVS_TAUTO_COUNT>
1

> <PUBCHEM_CONFORMER_ID>
02C08F4300000001

> <PUBCHEM_MMFF94_ENERGY>
55.3395

> <PUBCHEM_FEATURE_SELFOVERLAP>
86.313

> <PUBCHEM_SHAPE_FINGERPRINT>
10062212 137 18337111266835050715
10090160 65 18129945546537294660
10369192 42 15650460991408156488
10616163 171 18334295409336134095
11135609 187 18055915385864199997
11578080 2 18119278183847301497
12236239 1 18261392282060458665
12403260 363 18413672426599533698
12596599 1 18188478194039059893
12616971 3 18412255164284637641
12788726 201 18113888330728903385
12916754 54 18341896298558264549
13009979 54 18261954145550710600
13167823 11 18408884040116835271
13224815 77 18343586235166385265
13583140 156 17773588519833378289
13862211 1 18200880686071233474
14178342 30 18193009328817855258
14251751 93 18262519320054494127
14787075 74 18122344584252942333
15099037 8 18410015455083387313
15196674 1 18411981343092583567
15209289 33 18340763844478509362
17349148 13 18202569488116631922
17492 89 18408602595189727695
19377110 9 18335701594297209144
19422 9 18334856121352709085
200 152 18411984641827848981
20028762 73 18335706030946483574
20645477 70 17989212503694560188
21267235 1 18411129272994304603
21634736 98 18410580552362564943
21709351 56 18271809068201726268
221490 88 18343861104351844226
23402539 116 18339647836023923354
23557571 272 17386288829982491216
23559900 14 18337123348757642921
23566358 27 18338784732122681271
23598288 3 18186804695041024925
23598291 2 18409165515051387221
25147074 1 18410002243431941816
312423 11 18409442579181015708
350125 39 18412260670501497064
4409770 3 14878087900301005821
474 4 18201149971434807716
5104073 3 18333730212776811297
5312544 6 18270114613483169244
633830 44 17489303105123212977
7097593 13 18121499321577165355
9709674 26 18412254060589247498

> <PUBCHEM_SHAPE_MULTIPOLES>
444.64
10.37
3.46
1.12
0.29
0.52
-0.12
-4.16
-0.79
0.5
0.08
-0.5
0.1
-2.75

> <PUBCHEM_SHAPE_SELFOVERLAP>
896.984

> <PUBCHEM_SHAPE_VOLUME>
258.3

> <PUBCHEM_COORDINATE_TYPE>
2
5
10

$$$$

