854176
  -OEChem-06241222473D

 27 28  0     0  0  0  0  0  0999 V2000
    0.9137    1.6879   -0.0005 S   0  0  0  0  0  0  0  0  0  0  0  0
   -4.3694   -0.6211   -1.5948 O   0  0  0  0  0  0  0  0  0  0  0  0
    0.8671   -0.7409    0.8664 N   0  0  0  0  0  0  0  0  0  0  0  0
   -5.9844   -0.1443   -0.0293 N   0  0  0  0  0  0  0  0  0  0  0  0
   -1.2520    0.4849    1.1976 C   0  0  0  0  0  0  0  0  0  0  0  0
   -2.2403    0.0910    0.0969 C   0  0  0  0  0  0  0  0  0  0  0  0
    0.1761    0.3480    0.7337 C   0  0  0  0  0  0  0  0  0  0  0  0
   -3.6836    0.1919    0.5850 C   0  0  0  0  0  0  0  0  0  0  0  0
    2.3487    0.7504   -0.1870 C   0  0  0  0  0  0  0  0  0  0  0  0
    2.1318   -0.5272    0.3381 C   0  0  0  0  0  0  0  0  0  0  0  0
   -4.6824   -0.2362   -0.4720 C   0  0  0  0  0  0  0  0  0  0  0  0
    3.5777    1.1192   -0.7568 C   0  0  0  0  0  0  0  0  0  0  0  0
    3.1840   -1.4671    0.2900 C   0  0  0  0  0  0  0  0  0  0  0  0
    4.6025    0.1702   -0.7916 C   0  0  0  0  0  0  0  0  0  0  0  0
    4.4105   -1.1066   -0.2756 C   0  0  0  0  0  0  0  0  0  0  0  0
   -1.3953   -0.1657    2.0697 H   0  0  0  0  0  0  0  0  0  0  0  0
   -1.4520    1.5085    1.5381 H   0  0  0  0  0  0  0  0  0  0  0  0
   -2.1038    0.7339   -0.7821 H   0  0  0  0  0  0  0  0  0  0  0  0
   -2.0334   -0.9342   -0.2371 H   0  0  0  0  0  0  0  0  0  0  0  0
   -3.8269   -0.4447    1.4664 H   0  0  0  0  0  0  0  0  0  0  0  0
   -3.9101    1.2250    0.8744 H   0  0  0  0  0  0  0  0  0  0  0  0
    3.7350    2.1142   -1.1616 H   0  0  0  0  0  0  0  0  0  0  0  0
    3.0449   -2.4674    0.6901 H   0  0  0  0  0  0  0  0  0  0  0  0
    5.5619    0.4352   -1.2282 H   0  0  0  0  0  0  0  0  0  0  0  0
    5.2192   -1.8315   -0.3116 H   0  0  0  0  0  0  0  0  0  0  0  0
   -6.2188    0.1772    0.9046 H   0  0  0  0  0  0  0  0  0  0  0  0
   -6.7597   -0.3989   -0.6321 H   0  0  0  0  0  0  0  0  0  0  0  0
  1  7  1  0  0  0  0
  1  9  1  0  0  0  0
  2 11  2  0  0  0  0
  3  7  2  0  0  0  0
  3 10  1  0  0  0  0
  4 11  1  0  0  0  0
  4 26  1  0  0  0  0
  4 27  1  0  0  0  0
  5  6  1  0  0  0  0
  5  7  1  0  0  0  0
  5 16  1  0  0  0  0
  5 17  1  0  0  0  0
  6  8  1  0  0  0  0
  6 18  1  0  0  0  0
  6 19  1  0  0  0  0
  8 11  1  0  0  0  0
  8 20  1  0  0  0  0
  8 21  1  0  0  0  0
  9 10  1  0  0  0  0
  9 12  2  0  0  0  0
 10 13  2  0  0  0  0
 12 14  1  0  0  0  0
 12 22  1  0  0  0  0
 13 15  1  0  0  0  0
 13 23  1  0  0  0  0
 14 15  2  0  0  0  0
 14 24  1  0  0  0  0
 15 25  1  0  0  0  0
M  END
> <PUBCHEM_COMPOUND_CID>
854176

> <PUBCHEM_CONFORMER_RMSD>
0.6

> <PUBCHEM_CONFORMER_DIVERSEORDER>
1
24
68
60
46
28
56
67
41
54
50
49
69
62
19
70
61
8
55
58
12
20
10
4
66
64
59
15
32
29
43
63
7
17
31
22
65
30
3
53
38
16
21
9
44
25
14
6
26
45
18
13
47
2
48
5
51
11
39
34
40
33
23
35
27
57
36
52
37
42

> <PUBCHEM_MMFF94_PARTIAL_CHARGES>
20
1 -0.08
10 0.23
11 0.57
12 -0.15
13 -0.15
14 -0.15
15 -0.15
2 -0.57
22 0.15
23 0.15
24 0.15
25 0.15
26 0.37
27 0.37
3 -0.57
4 -0.8
5 0.18
7 0.2
8 0.06
9 0.04

> <PUBCHEM_EFFECTIVE_ROTOR_COUNT>
4

> <PUBCHEM_PHARMACOPHORE_FEATURES>
5
1 2 acceptor
1 3 acceptor
1 4 donor
5 1 3 7 9 10 rings
6 9 10 12 13 14 15 rings

> <PUBCHEM_HEAVY_ATOM_COUNT>
15

> <PUBCHEM_ATOM_DEF_STEREO_COUNT>
0

> <PUBCHEM_ATOM_UDEF_STEREO_COUNT>
0

> <PUBCHEM_BOND_DEF_STEREO_COUNT>
0

> <PUBCHEM_BOND_UDEF_STEREO_COUNT>
0

> <PUBCHEM_ISOTOPIC_ATOM_COUNT>
0

> <PUBCHEM_COMPONENT_COUNT>
1

> <PUBCHEM_CACTVS_TAUTO_COUNT>
4

> <PUBCHEM_CONFORMER_ID>
000D08A000000001

> <PUBCHEM_MMFF94_ENERGY>
23.1411

> <PUBCHEM_FEATURE_SELFOVERLAP>
25.445

> <PUBCHEM_SHAPE_FINGERPRINT>
10498660 4 15554182457659129997
11046707 91 17240484710816246561
11287383 113 17561076982527493339
114248 4 17704352165215650619
11471102 20 18202277005444702760
12236239 1 18186515518844814001
12251169 10 6844199844211059585
12507560 40 6915991330797150555
12596602 18 9367341540162314917
12730499 353 17132109161022946003
12916748 109 14836402549532085573
13675066 3 5400801648422699073
13760787 5 18339911684285897097
14251717 144 18413385454043721514
14252887 29 6194851366801818196
14576447 43 18334296465723658198
14911166 2 18202560674585193000
14993402 34 18408316683780091330
15188451 53 14129639726994481213
17834072 33 18260829289088831485
1798214 20 18334296474113009303
18186145 218 17346875663179842209
18915474 69 18114185194309717591
200 152 18408320007789535457
20432913 95 5689596100025541461
20645477 56 15769771347627547905
20645477 70 18202280342286561250
21256008 61 18334574637907571536
212847 35 13254799031776654300
221357 26 18131077043435591813
221490 88 18125432021382980259
22289505 5 17846505849980073108
22646028 1 17894912932003932625
22854114 59 7637400722459702529
231179 274 16415481540876108640
23402539 116 18335136535340797689
23402655 69 18202844357127633781
23557571 272 15285904914590235873
2871803 45 18131068264147495640
29717793 49 18187641439920538085
3060560 45 18202281403428170190
351380 3 17967253096388485503
4028521 119 16702306767148232277
4047638 21 15913326888310924416
4072396 5 17917722279854146512
42 15 5906051443584467153
465052 167 17894627028895016591
4990 188 17561082505486209811
522135 26 18342738524612626034
5281201 14 17775567567469155085
602551 16 16009037159063055950
7471813 234 18259983773469667312

> <PUBCHEM_SHAPE_MULTIPOLES>
296.71
11.54
1.3
1.05
12.77
0.15
0.11
-2.42
3.91
-1.38
0.01
0.57
-0.03
-0.63

> <PUBCHEM_SHAPE_SELFOVERLAP>
613.807

> <PUBCHEM_SHAPE_VOLUME>
170.5

> <PUBCHEM_COORDINATE_TYPE>
2
5
10

$$$$

