71485
  -OEChem-07051213032D

 42 43  0     1  0  0  0  0  0999 V2000
    4.2690   -3.5961    0.0000 Cl  0  0  0  0  0  0  0  0  0  0  0  0
    6.2940   -0.3833    0.0000 Cl  0  0  0  0  0  0  0  0  0  0  0  0
    7.9497    2.1063    0.0000 Cl  0  0  0  0  0  0  0  0  0  0  0  0
    6.1132    1.1118    0.0000 O   0  0  0  0  0  0  0  0  0  0  0  0
    4.2690    0.4039    0.0000 O   0  0  0  0  0  0  0  0  0  0  0  0
    5.1350   -1.0961    0.0000 O   0  0  0  0  0  0  0  0  0  0  0  0
    3.6405    1.8745    0.0000 O   0  0  0  0  0  0  0  0  0  0  0  0
    5.0962    3.4912    0.0000 O   0  0  0  0  0  0  0  0  0  0  0  0
    2.5369   -0.5961    0.0000 O   0  0  0  0  0  0  0  0  0  0  0  0
    2.5369   -2.5961    0.0000 O   0  0  0  0  0  0  0  0  0  0  0  0
    6.0010   -3.5961    0.0000 O   0  0  0  0  0  0  0  0  0  0  0  0
    5.1350    0.9039    0.0000 C   0  0  1  0  0  0  0  0  0  0  0  0
    4.6350    1.7699    0.0000 C   0  0  2  0  0  0  0  0  0  0  0  0
    5.3041    2.5131    0.0000 C   0  0  1  0  0  0  0  0  0  0  0  0
    6.2177    2.1063    0.0000 C   0  0  1  0  0  0  0  0  0  0  0  0
    4.2690   -0.5961    0.0000 C   0  0  1  0  0  0  0  0  0  0  0  0
    3.4030   -1.0961    0.0000 C   0  0  1  0  0  0  0  0  0  0  0  0
    3.4030   -2.0961    0.0000 C   0  0  2  0  0  0  0  0  0  0  0  0
    4.2690   -2.5961    0.0000 C   0  0  2  0  0  0  0  0  0  0  0  0
    5.1350   -2.0961    0.0000 C   0  0  1  0  0  0  0  0  0  0  0  0
    5.3429   -0.0742    0.0000 C   0  0  0  0  0  0  0  0  0  0  0  0
    7.0837    2.6063    0.0000 C   0  0  0  0  0  0  0  0  0  0  0  0
    6.0010   -2.5961    0.0000 C   0  0  0  0  0  0  0  0  0  0  0  0
    4.2973    1.2500    0.0000 H   0  0  0  0  0  0  0  0  0  0  0  0
    4.7053    2.6736    0.0000 H   0  0  0  0  0  0  0  0  0  0  0  0
    6.7377    1.7687    0.0000 H   0  0  0  0  0  0  0  0  0  0  0  0
    3.7320   -0.2861    0.0000 H   0  0  0  0  0  0  0  0  0  0  0  0
    3.4030   -0.4761    0.0000 H   0  0  0  0  0  0  0  0  0  0  0  0
    3.4030   -2.7161    0.0000 H   0  0  0  0  0  0  0  0  0  0  0  0
    4.8059   -2.9061    0.0000 H   0  0  0  0  0  0  0  0  0  0  0  0
    5.6720   -1.7861    0.0000 H   0  0  0  0  0  0  0  0  0  0  0  0
    4.7233   -0.0959    0.0000 H   0  0  0  0  0  0  0  0  0  0  0  0
    5.2566   -0.6882    0.0000 H   0  0  0  0  0  0  0  0  0  0  0  0
    7.4822    3.0813    0.0000 H   0  0  0  0  0  0  0  0  0  0  0  0
    6.6852    3.0813    0.0000 H   0  0  0  0  0  0  0  0  0  0  0  0
    6.6116   -2.7038    0.0000 H   0  0  0  0  0  0  0  0  0  0  0  0
    6.2131   -2.0135    0.0000 H   0  0  0  0  0  0  0  0  0  0  0  0
    3.3883    2.4409    0.0000 H   0  0  0  0  0  0  0  0  0  0  0  0
    5.5570    3.9061    0.0000 H   0  0  0  0  0  0  0  0  0  0  0  0
    2.0000   -0.9061    0.0000 H   0  0  0  0  0  0  0  0  0  0  0  0
    2.5369   -3.2161    0.0000 H   0  0  0  0  0  0  0  0  0  0  0  0
    6.5380   -3.9061    0.0000 H   0  0  0  0  0  0  0  0  0  0  0  0
 19  1  1  6  0  0  0
  2 21  1  0  0  0  0
  3 22  1  0  0  0  0
  4 12  1  0  0  0  0
  4 15  1  0  0  0  0
 12  5  1  1  0  0  0
 16  5  1  1  0  0  0
  6 16  1  0  0  0  0
  6 20  1  0  0  0  0
 13  7  1  1  0  0  0
  7 38  1  0  0  0  0
 14  8  1  6  0  0  0
  8 39  1  0  0  0  0
 17  9  1  1  0  0  0
  9 40  1  0  0  0  0
 18 10  1  6  0  0  0
 10 41  1  0  0  0  0
 11 23  1  0  0  0  0
 11 42  1  0  0  0  0
 12 13  1  0  0  0  0
 12 21  1  0  0  0  0
 13 14  1  0  0  0  0
 13 24  1  0  0  0  0
 14 15  1  0  0  0  0
 14 25  1  0  0  0  0
 15 22  1  1  0  0  0
 15 26  1  0  0  0  0
 16 17  1  0  0  0  0
 16 27  1  0  0  0  0
 17 18  1  0  0  0  0
 17 28  1  0  0  0  0
 18 19  1  0  0  0  0
 18 29  1  0  0  0  0
 19 20  1  0  0  0  0
 19 30  1  0  0  0  0
 20 23  1  6  0  0  0
 20 31  1  0  0  0  0
 21 32  1  0  0  0  0
 21 33  1  0  0  0  0
 22 34  1  0  0  0  0
 22 35  1  0  0  0  0
 23 36  1  0  0  0  0
 23 37  1  0  0  0  0
M  END
> <PUBCHEM_COMPOUND_CID>
71485

> <PUBCHEM_COMPOUND_CANONICALIZED>
1

> <PUBCHEM_CACTVS_COMPLEXITY>
405

> <PUBCHEM_CACTVS_HBOND_ACCEPTOR>
8

> <PUBCHEM_CACTVS_HBOND_DONOR>
5

> <PUBCHEM_CACTVS_ROTATABLE_BOND>
5

> <PUBCHEM_CACTVS_SUBSKEYS>
AAADceBwPAAGAAAAAAAAAAAAAAAAASAAAAAkAAAAAAAAAAAAAAAAGgIACAAACBewgEMACAAABgAAAAAAAAAAAAAAAAAAAAAAAwAREAIBAAAiQAAFAAAHAAHAYAwAAAAAAAAAAAAAAAAAAAAAAAAAAAAAAA==

> <PUBCHEM_IUPAC_OPENEYE_NAME>
(2R,3R,4R,5R,6R)-2-[(2R,3S,4S,5S)-2,5-bis(chloromethyl)-3,4-dihydroxy-tetrahydrofuran-2-yl]oxy-5-chloro-6-(hydroxymethyl)tetrahydropyran-3,4-diol

> <PUBCHEM_IUPAC_CAS_NAME>
(2R,3R,4R,5R,6R)-2-[[(2R,3S,4S,5S)-2,5-bis(chloromethyl)-3,4-dihydroxy-2-oxolanyl]oxy]-5-chloro-6-(hydroxymethyl)oxane-3,4-diol

> <PUBCHEM_IUPAC_NAME>
(2R,3R,4R,5R,6R)-2-[(2R,3S,4S,5S)-2,5-bis(chloromethyl)-3,4-dihydroxyoxolan-2-yl]oxy-5-chloro-6-(hydroxymethyl)oxane-3,4-diol

> <PUBCHEM_IUPAC_SYSTEMATIC_NAME>
(2R,3R,4R,5R,6R)-2-[(2R,3S,4S,5S)-2,5-bis(chloromethyl)-3,4-bis(oxidanyl)oxolan-2-yl]oxy-5-chloranyl-6-(hydroxymethyl)oxane-3,4-diol

> <PUBCHEM_IUPAC_TRADITIONAL_NAME>
(2R,3R,4R,5R,6R)-2-[(2R,3S,4S,5S)-2,5-bis(chloromethyl)-3,4-dihydroxy-tetrahydrofuran-2-yl]oxy-5-chloro-6-methylol-tetrahydropyran-3,4-diol

> <PUBCHEM_IUPAC_INCHI>
InChI=1S/C12H19Cl3O8/c13-1-4-7(17)10(20)12(3-14,22-4)23-11-9(19)8(18)6(15)5(2-16)21-11/h4-11,16-20H,1-3H2/t4-,5-,6+,7-,8+,9-,10+,11-,12+/m1/s1

> <PUBCHEM_IUPAC_INCHIKEY>
BAQAVOSOZGMPRM-QBMZZYIRSA-N

> <PUBCHEM_XLOGP3>
-1.5

> <PUBCHEM_EXACT_MASS>
396.014551

> <PUBCHEM_MOLECULAR_FORMULA>
C12H19Cl3O8

> <PUBCHEM_MOLECULAR_WEIGHT>
397.63346

> <PUBCHEM_OPENEYE_CAN_SMILES>
C(C1C(C(C(C(O1)OC2(C(C(C(O2)CCl)O)O)CCl)O)O)Cl)O

> <PUBCHEM_OPENEYE_ISO_SMILES>
C([C@@H]1[C@@H]([C@@H]([C@H]([C@H](O1)O[C@]2([C@H]([C@@H]([C@H](O2)CCl)O)O)CCl)O)O)Cl)O

> <PUBCHEM_CACTVS_TPSA>
129

> <PUBCHEM_MONOISOTOPIC_WEIGHT>
396.014551

> <PUBCHEM_TOTAL_CHARGE>
0

> <PUBCHEM_HEAVY_ATOM_COUNT>
23

> <PUBCHEM_ATOM_DEF_STEREO_COUNT>
9

> <PUBCHEM_ATOM_UDEF_STEREO_COUNT>
0

> <PUBCHEM_BOND_DEF_STEREO_COUNT>
0

> <PUBCHEM_BOND_UDEF_STEREO_COUNT>
0

> <PUBCHEM_ISOTOPIC_ATOM_COUNT>
0

> <PUBCHEM_COMPONENT_COUNT>
1

> <PUBCHEM_CACTVS_TAUTO_COUNT>
1

> <PUBCHEM_COORDINATE_TYPE>
1
5
255

> <PUBCHEM_BONDANNOTATIONS>
19  1  6
18  10  6
15  22  5
20  23  6
12  5  5
16  5  5
13  7  5
14  8  6
17  9  5

$$$$

