441245
  -OEChem-07051212533D

 27 28  0     1  0  0  0  0  0999 V2000
   -1.9221    0.9386   -0.8040 O   0  0  0  0  0  0  0  0  0  0  0  0
   -1.9947   -0.1850    0.0755 C   0  0  2  0  0  0  0  0  0  0  0  0
   -1.2828    1.0778    0.4803 C   0  0  1  0  0  0  0  0  0  0  0  0
   -1.2190   -1.3885   -0.3482 C   0  0  0  0  0  0  0  0  0  0  0  0
    0.2077    1.1925    0.3937 C   0  0  0  0  0  0  0  0  0  0  0  0
    0.8973   -0.1783    0.3223 C   0  0  1  0  0  0  0  0  0  0  0  0
    0.2278   -1.0729   -0.7319 C   0  0  0  0  0  0  0  0  0  0  0  0
   -3.3679   -0.4241    0.5927 C   0  0  0  0  0  0  0  0  0  0  0  0
    2.3572   -0.0084    0.0341 C   0  0  0  0  0  0  0  0  0  0  0  0
    3.3019   -0.5162    1.0825 C   0  0  0  0  0  0  0  0  0  0  0  0
    2.7946    0.5646   -1.0971 C   0  0  0  0  0  0  0  0  0  0  0  0
   -1.7333    1.7634    1.1841 H   0  0  0  0  0  0  0  0  0  0  0  0
   -1.7183   -1.8788   -1.1921 H   0  0  0  0  0  0  0  0  0  0  0  0
   -1.2109   -2.1107    0.4778 H   0  0  0  0  0  0  0  0  0  0  0  0
    0.5723    1.7316    1.2777 H   0  0  0  0  0  0  0  0  0  0  0  0
    0.4507    1.8241   -0.4694 H   0  0  0  0  0  0  0  0  0  0  0  0
    0.7755   -0.6685    1.2986 H   0  0  0  0  0  0  0  0  0  0  0  0
    0.7776   -2.0156   -0.8464 H   0  0  0  0  0  0  0  0  0  0  0  0
    0.2338   -0.5824   -1.7141 H   0  0  0  0  0  0  0  0  0  0  0  0
   -3.9668   -0.9728   -0.1417 H   0  0  0  0  0  0  0  0  0  0  0  0
   -3.3312   -1.0160    1.5131 H   0  0  0  0  0  0  0  0  0  0  0  0
   -3.8939    0.5101    0.8186 H   0  0  0  0  0  0  0  0  0  0  0  0
    3.1289    0.0001    2.0325 H   0  0  0  0  0  0  0  0  0  0  0  0
    3.1565   -1.5903    1.2372 H   0  0  0  0  0  0  0  0  0  0  0  0
    4.3495   -0.3591    0.8046 H   0  0  0  0  0  0  0  0  0  0  0  0
    3.8561    0.6804   -1.2909 H   0  0  0  0  0  0  0  0  0  0  0  0
    2.1169    0.9289   -1.8612 H   0  0  0  0  0  0  0  0  0  0  0  0
  1  2  1  0  0  0  0
  1  3  1  0  0  0  0
  2  3  1  0  0  0  0
  2  4  1  0  0  0  0
  2  8  1  0  0  0  0
  3  5  1  0  0  0  0
  3 12  1  0  0  0  0
  4  7  1  0  0  0  0
  4 13  1  0  0  0  0
  4 14  1  0  0  0  0
  5  6  1  0  0  0  0
  5 15  1  0  0  0  0
  5 16  1  0  0  0  0
  6  7  1  0  0  0  0
  6  9  1  0  0  0  0
  6 17  1  0  0  0  0
  7 18  1  0  0  0  0
  7 19  1  0  0  0  0
  8 20  1  0  0  0  0
  8 21  1  0  0  0  0
  8 22  1  0  0  0  0
  9 10  1  0  0  0  0
  9 11  2  0  0  0  0
 10 23  1  0  0  0  0
 10 24  1  0  0  0  0
 10 25  1  0  0  0  0
 11 26  1  0  0  0  0
 11 27  1  0  0  0  0
M  END
> <PUBCHEM_COMPOUND_CID>
441245

> <PUBCHEM_CONFORMER_RMSD>
0.4

> <PUBCHEM_CONFORMER_DIVERSEORDER>
1
14
6
7
9
3
5
4
2
12
10
11
8
13

> <PUBCHEM_MMFF94_PARTIAL_CHARGES>
13
1 -0.3
10 0.14
11 -0.3
12 0.1
2 -0.04
26 0.15
27 0.15
3 -0.05
4 0.09
5 0.09
6 0.14
8 0.09
9 -0.28

> <PUBCHEM_EFFECTIVE_ROTOR_COUNT>
2

> <PUBCHEM_PHARMACOPHORE_FEATURES>
2
1 1 acceptor
7 1 2 3 4 5 6 7 rings

> <PUBCHEM_HEAVY_ATOM_COUNT>
11

> <PUBCHEM_ATOM_DEF_STEREO_COUNT>
1

> <PUBCHEM_ATOM_UDEF_STEREO_COUNT>
2

> <PUBCHEM_BOND_DEF_STEREO_COUNT>
0

> <PUBCHEM_BOND_UDEF_STEREO_COUNT>
0

> <PUBCHEM_ISOTOPIC_ATOM_COUNT>
0

> <PUBCHEM_COMPONENT_COUNT>
1

> <PUBCHEM_CACTVS_TAUTO_COUNT>
1

> <PUBCHEM_CONFORMER_ID>
0006BB9D00000001

> <PUBCHEM_MMFF94_ENERGY>
20.5082

> <PUBCHEM_FEATURE_SELFOVERLAP>
10.148

> <PUBCHEM_SHAPE_FINGERPRINT>
10857977 72 18259987058844575571
11769659 78 17275107197671316227
12932764 1 18342459210046773652
13024252 1 16343704343846483505
14325111 11 18410291436601806008
15310529 11 17775284945562115604
15775835 57 18272362040977968732
16945 1 18259704497204189623
17846911 113 18113905978396003915
19026448 4 16271929290021636015
20645464 45 17313111838749951962
20645476 183 18129652011498288414
21040471 1 18188489193608443326
23235685 24 18113334223812373105
23552423 10 17981045215143084284
2748010 2 17972871733665271647
29004967 10 15502375621378683770
369184 2 17275385408435685293
5084963 1 18202566193697393384

> <PUBCHEM_SHAPE_MULTIPOLES>
220.51
4.92
1.27
1.01
0.89
0.02
0.03
0.31
-0.76
-0.36
0.08
0.51
0
-0.2

> <PUBCHEM_SHAPE_SELFOVERLAP>
447.395

> <PUBCHEM_SHAPE_VOLUME>
130.2

> <PUBCHEM_COORDINATE_TYPE>
2
5
10

$$$$

