5282170
  -OEChem-07051213032D

 16 15  0     0  0  0  0  0  0999 V2000
    3.7320   -1.2500    0.0000 Cl  0  0  0  0  0  0  0  0  0  0  0  0
    2.0000   -0.2500    0.0000 Cl  0  0  0  0  0  0  0  0  0  0  0  0
    6.3301    0.2500    0.0000 Cl  0  0  0  0  0  0  0  0  0  0  0  0
    2.0000    1.7500    0.0000 O   0  0  0  0  0  0  0  0  0  0  0  0
    6.3301   -1.7500    0.0000 O   0  0  0  0  0  0  0  0  0  0  0  0
    3.7320    1.7500    0.0000 O   0  0  0  0  0  0  0  0  0  0  0  0
    4.5981   -1.7500    0.0000 O   0  0  0  0  0  0  0  0  0  0  0  0
    3.7320   -0.2500    0.0000 C   0  0  0  0  0  0  0  0  0  0  0  0
    4.5981    0.2500    0.0000 C   0  0  0  0  0  0  0  0  0  0  0  0
    2.8660    0.2500    0.0000 C   0  0  0  0  0  0  0  0  0  0  0  0
    5.4641   -0.2500    0.0000 C   0  0  0  0  0  0  0  0  0  0  0  0
    2.8660    1.2500    0.0000 C   0  0  0  0  0  0  0  0  0  0  0  0
    5.4641   -1.2500    0.0000 C   0  0  0  0  0  0  0  0  0  0  0  0
    4.5981    0.8700    0.0000 H   0  0  0  0  0  0  0  0  0  0  0  0
    2.0000    2.3700    0.0000 H   0  0  0  0  0  0  0  0  0  0  0  0
    6.3301   -2.3700    0.0000 H   0  0  0  0  0  0  0  0  0  0  0  0
  1  8  1  0  0  0  0
  2 10  1  0  0  0  0
  3 11  1  0  0  0  0
  4 12  1  0  0  0  0
  4 15  1  0  0  0  0
  5 13  1  0  0  0  0
  5 16  1  0  0  0  0
  6 12  2  0  0  0  0
  7 13  2  0  0  0  0
  8  9  1  0  0  0  0
  8 10  2  0  0  0  0
  9 11  2  0  0  0  0
  9 14  1  0  0  0  0
 10 12  1  0  0  0  0
 11 13  1  0  0  0  0
M  END
> <PUBCHEM_COMPOUND_CID>
5282170

> <PUBCHEM_COMPOUND_CANONICALIZED>
1

> <PUBCHEM_CACTVS_COMPLEXITY>
305

> <PUBCHEM_CACTVS_HBOND_ACCEPTOR>
4

> <PUBCHEM_CACTVS_HBOND_DONOR>
2

> <PUBCHEM_CACTVS_ROTATABLE_BOND>
3

> <PUBCHEM_CACTVS_SUBSKEYS>
AAADcQBgOAAGAAAAAAAAAAAAAAAAAAAAAAAAAAAAAAAAAAAAAAAAGgIACAAACAKAgAAACAAAAgCIACDSCAAAAAAAAAAACAAAAUBIBAAAAAAAEAAAAAAAkYAAAAAAAAAAAAAAAAAAAAAAAAAAAAAAAAAAAA==

> <PUBCHEM_IUPAC_OPENEYE_NAME>
(2Z,4E)-2,3,5-trichlorohexa-2,4-dienedioic acid

> <PUBCHEM_IUPAC_CAS_NAME>
(2Z,4E)-2,3,5-trichlorohexa-2,4-dienedioic acid

> <PUBCHEM_IUPAC_NAME>
(2Z,4E)-2,3,5-trichlorohexa-2,4-dienedioic acid

> <PUBCHEM_IUPAC_SYSTEMATIC_NAME>
(2Z,4E)-2,3,5-tris(chloranyl)hexa-2,4-dienedioic acid

> <PUBCHEM_IUPAC_TRADITIONAL_NAME>
(2Z,4E)-2,3,5-trichloromuconic acid

> <PUBCHEM_IUPAC_INCHI>
InChI=1S/C6H3Cl3O4/c7-2(4(9)6(12)13)1-3(8)5(10)11/h1H,(H,10,11)(H,12,13)/b3-1+,4-2-

> <PUBCHEM_IUPAC_INCHIKEY>
AHDWVTPNJCBFTN-TZFCGSKZSA-N

> <PUBCHEM_XLOGP3_AA>
2.3

> <PUBCHEM_EXACT_MASS>
243.909692

> <PUBCHEM_MOLECULAR_FORMULA>
C6H3Cl3O4

> <PUBCHEM_MOLECULAR_WEIGHT>
245.44462

> <PUBCHEM_OPENEYE_CAN_SMILES>
C(=C(C(=O)O)Cl)C(=C(C(=O)O)Cl)Cl

> <PUBCHEM_OPENEYE_ISO_SMILES>
C(=C(\C(=O)O)/Cl)\C(=C(/C(=O)O)\Cl)\Cl

> <PUBCHEM_CACTVS_TPSA>
74.6

> <PUBCHEM_MONOISOTOPIC_WEIGHT>
243.909692

> <PUBCHEM_TOTAL_CHARGE>
0

> <PUBCHEM_HEAVY_ATOM_COUNT>
13

> <PUBCHEM_ATOM_DEF_STEREO_COUNT>
0

> <PUBCHEM_ATOM_UDEF_STEREO_COUNT>
0

> <PUBCHEM_BOND_DEF_STEREO_COUNT>
2

> <PUBCHEM_BOND_UDEF_STEREO_COUNT>
0

> <PUBCHEM_ISOTOPIC_ATOM_COUNT>
0

> <PUBCHEM_COMPONENT_COUNT>
1

> <PUBCHEM_CACTVS_TAUTO_COUNT>
1

> <PUBCHEM_COORDINATE_TYPE>
1
5
255

$$$$

