36159
  -OEChem-07051213113D

 23 24  0     0  0  0  0  0  0999 V2000
   -1.5868   -3.3411    0.0178 Br  0  0  0  0  0  0  0  0  0  0  0  0
    2.0978    0.5397   -2.9623 Br  0  0  0  0  0  0  0  0  0  0  0  0
   -2.7366    3.1407   -0.1286 Br  0  0  0  0  0  0  0  0  0  0  0  0
   -5.0886    0.9320    1.1261 Br  0  0  0  0  0  0  0  0  0  0  0  0
    5.2048    0.9799    1.7673 Br  0  0  0  0  0  0  0  0  0  0  0  0
    0.2265   -1.0206   -1.0125 O   0  0  0  0  0  0  0  0  0  0  0  0
   -0.9892   -0.5783   -0.5212 C   0  0  0  0  0  0  0  0  0  0  0  0
    1.3580   -0.5583   -0.4087 C   0  0  0  0  0  0  0  0  0  0  0  0
   -1.9188   -1.4751   -0.0232 C   0  0  0  0  0  0  0  0  0  0  0  0
   -1.2403    0.7835   -0.5474 C   0  0  0  0  0  0  0  0  0  0  0  0
    2.3183    0.1636   -1.1176 C   0  0  0  0  0  0  0  0  0  0  0  0
    1.5442   -0.8213    0.9484 C   0  0  0  0  0  0  0  0  0  0  0  0
   -2.4568    1.2618   -0.0608 C   0  0  0  0  0  0  0  0  0  0  0  0
   -3.1354   -0.9968    0.4633 C   0  0  0  0  0  0  0  0  0  0  0  0
   -3.4046    0.3718    0.4445 C   0  0  0  0  0  0  0  0  0  0  0  0
    3.4651    0.6223   -0.4694 C   0  0  0  0  0  0  0  0  0  0  0  0
    2.6910   -0.3627    1.5965 C   0  0  0  0  0  0  0  0  0  0  0  0
    3.6514    0.3591    0.8877 C   0  0  0  0  0  0  0  0  0  0  0  0
   -0.5057    1.4743   -0.9523 H   0  0  0  0  0  0  0  0  0  0  0  0
    0.8147   -1.3902    1.5178 H   0  0  0  0  0  0  0  0  0  0  0  0
   -3.8726   -1.6939    0.8567 H   0  0  0  0  0  0  0  0  0  0  0  0
    4.2151    1.1854   -1.0207 H   0  0  0  0  0  0  0  0  0  0  0  0
    2.8220   -0.5782    2.6539 H   0  0  0  0  0  0  0  0  0  0  0  0
  1  9  1  0  0  0  0
  2 11  1  0  0  0  0
  3 13  1  0  0  0  0
  4 15  1  0  0  0  0
  5 18  1  0  0  0  0
  6  7  1  0  0  0  0
  6  8  1  0  0  0  0
  7  9  1  0  0  0  0
  7 10  2  0  0  0  0
  8 11  2  0  0  0  0
  8 12  1  0  0  0  0
  9 14  2  0  0  0  0
 10 13  1  0  0  0  0
 10 19  1  0  0  0  0
 11 16  1  0  0  0  0
 12 17  2  0  0  0  0
 12 20  1  0  0  0  0
 13 15  2  0  0  0  0
 14 15  1  0  0  0  0
 14 21  1  0  0  0  0
 16 18  2  0  0  0  0
 16 22  1  0  0  0  0
 17 18  1  0  0  0  0
 17 23  1  0  0  0  0
M  END
> <PUBCHEM_COMPOUND_CID>
36159

> <PUBCHEM_CONFORMER_RMSD>
0.6

> <PUBCHEM_CONFORMER_DIVERSEORDER>
1
11
4
2
12
6
14
8
9
5
13
10
7
3

> <PUBCHEM_MMFF94_PARTIAL_CHARGES>
23
1 -0.11
10 -0.15
11 0.11
12 -0.15
13 0.11
14 -0.15
15 0.11
16 -0.15
17 -0.15
18 0.11
19 0.15
2 -0.11
20 0.15
21 0.15
22 0.15
23 0.15
3 -0.11
4 -0.11
5 -0.11
6 -0.17
7 0.08
8 0.08
9 0.11

> <PUBCHEM_EFFECTIVE_ROTOR_COUNT>
2

> <PUBCHEM_PHARMACOPHORE_FEATURES>
8
1 1 hydrophobe
1 2 hydrophobe
1 3 hydrophobe
1 4 hydrophobe
1 5 hydrophobe
1 6 acceptor
6 7 9 10 13 14 15 rings
6 8 11 12 16 17 18 rings

> <PUBCHEM_HEAVY_ATOM_COUNT>
18

> <PUBCHEM_ATOM_DEF_STEREO_COUNT>
0

> <PUBCHEM_ATOM_UDEF_STEREO_COUNT>
0

> <PUBCHEM_BOND_DEF_STEREO_COUNT>
0

> <PUBCHEM_BOND_UDEF_STEREO_COUNT>
0

> <PUBCHEM_ISOTOPIC_ATOM_COUNT>
0

> <PUBCHEM_COMPONENT_COUNT>
1

> <PUBCHEM_CACTVS_TAUTO_COUNT>
1

> <PUBCHEM_CONFORMER_ID>
00008D3F00000001

> <PUBCHEM_MMFF94_ENERGY>
53.0122

> <PUBCHEM_FEATURE_SELFOVERLAP>
40.595

> <PUBCHEM_SHAPE_FINGERPRINT>
11132069 177 18334286570451213637
11543360 7 15357985598672767005
11796584 16 11670412706564590224
12173636 292 18410295856402670205
12251169 10 18202567284508206292
12403259 415 18188768486731614365
12507560 40 18339368581713798146
12553582 1 17834940985090734951
12633257 1 18409173181636887720
12730499 353 16226042275858442295
12788726 201 17769635530798152475
12892183 10 18059302079108335624
13140716 1 18196369221888764769
13538477 17 18201434727455088503
13583140 156 17678201325222132634
13764800 53 18187078460129088539
13965767 371 17554329498332148340
14178342 30 18342461409149676706
14341114 328 17988915656861274289
14787075 74 16475404662386029310
15842332 3 17630318645529801942
16945 1 18411131412141128319
18186145 218 17677043676394486221
18219364 16 16298668253089182106
19050596 39 17917428696388591208
19862831 5 6266892480791567152
200 152 16630260116302125347
20510252 161 18335133245960306073
20600515 1 18336259046829836061
20645477 56 18260546727363841960
20715895 44 17343230928917716021
20739085 24 16845573128390321356
20871999 31 8790889588094036155
21486144 27 17095796685482175277
21650355 55 18267873770141748475
22112679 90 18058163929923285159
22149856 69 18051672633704306217
231179 274 17095527262626776386
23402539 116 18262248707715142151
23402655 69 14273452587146247560
23557571 272 17970049085310980518
23559900 14 18189597466895936694
23598291 2 17632285787742976902
25 1 15719391711894704462
26918003 58 16200436866424737209
27216 239 17677625167431619723
31174 14 15123502575937576894
3286 77 14836400341481032493
350125 39 18122612019087187127
4072396 5 18060413660480293449
633830 44 17024302127692887225
6992083 37 17846511334943356270
7097593 13 17845662576164401906
7615 1 17773597113704287198
77492 1 17774717546101970102
7808743 9 18337104571287497960
81228 2 18189896414290548615

> <PUBCHEM_SHAPE_MULTIPOLES>
394.27
9.14
2.64
1.93
2.07
0.72
1.11
-4.43
-5.26
-3.3
0.01
2.66
-0.48
0.03

> <PUBCHEM_SHAPE_SELFOVERLAP>
774.574

> <PUBCHEM_SHAPE_VOLUME>
248.3

> <PUBCHEM_COORDINATE_TYPE>
2
5
10

$$$$

