47205626
  -OEChem-06241222593D

 30 31  0     0  0  0  0  0  0999 V2000
   -6.2547    0.0338   -0.2389 F   0  0  0  0  0  0  0  0  0  0  0  0
   -5.2676    1.6318    0.8565 F   0  0  0  0  0  0  0  0  0  0  0  0
   -5.0785    1.5223   -1.3012 F   0  0  0  0  0  0  0  0  0  0  0  0
    2.3464    1.5119    0.4686 O   0  0  0  0  0  0  0  0  0  0  0  0
    3.3567   -0.5193   -0.1364 N   0  0  0  0  0  0  0  0  0  0  0  0
    6.9120   -0.3086   -0.3021 N   0  0  0  0  0  0  0  0  0  0  0  0
    6.6905    0.9686    0.0528 N   0  0  0  0  0  0  0  0  0  0  0  0
   -1.4974   -0.3504    0.1999 C   0  0  0  0  0  0  0  0  0  0  0  0
   -3.8916   -0.1154   -0.0243 C   0  0  0  0  0  0  0  0  0  0  0  0
   -2.6238    0.4603    0.0590 C   0  0  0  0  0  0  0  0  0  0  0  0
   -1.6389   -1.7370    0.2577 C   0  0  0  0  0  0  0  0  0  0  0  0
   -4.0330   -1.5020    0.0334 C   0  0  0  0  0  0  0  0  0  0  0  0
   -0.1752    0.2498    0.2875 C   0  0  0  0  0  0  0  0  0  0  0  0
   -2.9067   -2.3127    0.1747 C   0  0  0  0  0  0  0  0  0  0  0  0
   -5.0957    0.7516   -0.1737 C   0  0  0  0  0  0  0  0  0  0  0  0
    4.7368   -0.1998   -0.1367 C   0  0  0  0  0  0  0  0  0  0  0  0
    0.9901   -0.3914    0.0443 C   0  0  0  0  0  0  0  0  0  0  0  0
    2.2959    0.3284    0.1553 C   0  0  0  0  0  0  0  0  0  0  0  0
    5.7747   -1.0507   -0.4289 C   0  0  0  0  0  0  0  0  0  0  0  0
    5.3599    1.0290    0.1524 C   0  0  0  0  0  0  0  0  0  0  0  0
   -2.5232    1.5427    0.0121 H   0  0  0  0  0  0  0  0  0  0  0  0
   -0.7942   -2.4070    0.3879 H   0  0  0  0  0  0  0  0  0  0  0  0
   -5.0114   -1.9703   -0.0283 H   0  0  0  0  0  0  0  0  0  0  0  0
   -0.1587    1.3021    0.5629 H   0  0  0  0  0  0  0  0  0  0  0  0
   -3.0178   -3.3920    0.2247 H   0  0  0  0  0  0  0  0  0  0  0  0
    1.0247   -1.4318   -0.2589 H   0  0  0  0  0  0  0  0  0  0  0  0
    3.1621   -1.4874   -0.3824 H   0  0  0  0  0  0  0  0  0  0  0  0
    5.8084   -2.0939   -0.7097 H   0  0  0  0  0  0  0  0  0  0  0  0
    4.9133    1.9721    0.4321 H   0  0  0  0  0  0  0  0  0  0  0  0
    7.8687   -0.6086   -0.4421 H   0  0  0  0  0  0  0  0  0  0  0  0
  1 15  1  0  0  0  0
  2 15  1  0  0  0  0
  3 15  1  0  0  0  0
  4 18  2  0  0  0  0
  5 16  1  0  0  0  0
  5 18  1  0  0  0  0
  5 27  1  0  0  0  0
  6  7  1  0  0  0  0
  6 19  1  0  0  0  0
  6 30  1  0  0  0  0
  7 20  2  0  0  0  0
  8 10  2  0  0  0  0
  8 11  1  0  0  0  0
  8 13  1  0  0  0  0
  9 10  1  0  0  0  0
  9 12  2  0  0  0  0
  9 15  1  0  0  0  0
 10 21  1  0  0  0  0
 11 14  2  0  0  0  0
 11 22  1  0  0  0  0
 12 14  1  0  0  0  0
 12 23  1  0  0  0  0
 13 17  2  0  0  0  0
 13 24  1  0  0  0  0
 14 25  1  0  0  0  0
 16 19  2  0  0  0  0
 16 20  1  0  0  0  0
 17 18  1  0  0  0  0
 17 26  1  0  0  0  0
 19 28  1  0  0  0  0
 20 29  1  0  0  0  0
M  END
> <PUBCHEM_COMPOUND_CID>
47205626

> <PUBCHEM_CONFORMER_RMSD>
0.8

> <PUBCHEM_CONFORMER_DIVERSEORDER>
1
4
3
2

> <PUBCHEM_MMFF94_PARTIAL_CHARGES>
30
1 -0.34
10 -0.15
11 -0.15
12 -0.15
13 -0.18
14 -0.15
15 1.16
16 0.06
17 -0.14
18 0.62
19 -0.3
2 -0.34
20 0.14
21 0.15
22 0.15
23 0.15
24 0.15
25 0.15
26 0.15
27 0.37
28 0.15
29 0.15
3 -0.34
30 0.27
4 -0.57
5 -0.49
6 0.3
7 -0.71
8 0.03
9 -0.14

> <PUBCHEM_EFFECTIVE_ROTOR_COUNT>
5

> <PUBCHEM_PHARMACOPHORE_FEATURES>
6
1 4 acceptor
1 5 donor
1 6 donor
1 7 acceptor
5 6 7 16 19 20 rings
6 8 9 10 11 12 14 rings

> <PUBCHEM_HEAVY_ATOM_COUNT>
20

> <PUBCHEM_ATOM_DEF_STEREO_COUNT>
0

> <PUBCHEM_ATOM_UDEF_STEREO_COUNT>
0

> <PUBCHEM_BOND_DEF_STEREO_COUNT>
0

> <PUBCHEM_BOND_UDEF_STEREO_COUNT>
1

> <PUBCHEM_ISOTOPIC_ATOM_COUNT>
0

> <PUBCHEM_COMPONENT_COUNT>
1

> <PUBCHEM_CACTVS_TAUTO_COUNT>
4

> <PUBCHEM_CONFORMER_ID>
02D04CFA00000001

> <PUBCHEM_MMFF94_ENERGY>
37.4334

> <PUBCHEM_FEATURE_SELFOVERLAP>
30.446

> <PUBCHEM_SHAPE_FINGERPRINT>
10366900 7 15213014947527416974
10411042 1 18052255091182751707
10835480 77 18334580097275462400
11315181 36 17894625929462393138
11719270 70 18186523233434941390
11796584 16 18408039598724798018
11858739 19 18040991869796872686
12091667 2 17704352164936069337
12236239 1 17918275342323334218
12516196 113 17821730524881255464
12616971 3 16558745681451430862
12916748 109 10087644806258827530
13533116 47 17822573923483398126
13964095 4 18342455958983293126
14251731 8 18410012134714945370
14251752 14 18201442510283676442
14251764 18 18410291402600848283
14933364 13 18411979148654523596
15042514 8 18052815854739499587
15183329 4 18410012165038276978
15242439 84 18261112963130794530
15716309 27 10231755586896449449
16079462 125 18261122846241166712
17093844 174 18341615888622511347
17834072 8 18407761438765877475
17844677 252 18339353050985663096
18222031 100 14490189410778776066
18927931 339 8934999287512898113
19489759 90 15502372348539965883
200 152 16660362588944975451
20281389 69 18131635594656556452
20621476 66 18410006671970608913
20645477 56 18272374183040145613
20681677 155 18131352994583089450
21267235 1 18341326692017594075
21709351 56 18336834099731624287
220451 1 17418376887687152210
2215653 11 18113620092767578430
22224240 67 13830128386910768417
23081809 10 17561366150102133602
23198884 109 18260547840240497481
23402539 116 18408043996048018687
23536379 177 18342175566333079306
23559900 14 18260555480676282472
29717793 49 17676763245711961628
300161 21 18343588442974975066
3004659 81 18341893022410996522
335352 9 18410012130979361941
3545911 37 18410575084937444083
4073 2 18130501925992762762
4214541 1 18410573959386954674
42788 4 18409448081287257842
4463277 17 18411418397819296864
5104073 3 18340488863629377536
5283173 99 18335985345606937240
542803 24 17060621083948715510
559249 180 18411983554948539194
6327066 14 17844259638853017181
6328613 192 18341326721750309068
7226269 152 18187080693818395193

> <PUBCHEM_SHAPE_MULTIPOLES>
368.96
17.93
1.68
0.71
15.81
0.42
0.05
-3.52
2.02
-1.67
-0.06
-0.37
-0.12
0.61

> <PUBCHEM_SHAPE_SELFOVERLAP>
791.276

> <PUBCHEM_SHAPE_VOLUME>
204.2

> <PUBCHEM_COORDINATE_TYPE>
2
5
10

$$$$

