23724737
  -OEChem-07051213083D

 81 85  0     1  0  0  0  0  0999 V2000
    2.5630   -1.6950   -0.6154 O   0  0  0  0  0  0  0  0  0  0  0  0
   -1.0206   -1.7830    0.0915 O   0  0  0  0  0  0  0  0  0  0  0  0
    3.0647   -0.6191    1.3930 O   0  0  0  0  0  0  0  0  0  0  0  0
    1.9889   -4.5591   -0.2306 O   0  0  0  0  0  0  0  0  0  0  0  0
    0.5095   -0.0555    0.4351 O   0  0  0  0  0  0  0  0  0  0  0  0
   -0.6637   -5.1969   -1.1860 O   0  0  0  0  0  0  0  0  0  0  0  0
    5.3252   -1.8964   -1.1763 O   0  0  0  0  0  0  0  0  0  0  0  0
    6.8857    0.2238    0.1438 O   0  0  0  0  0  0  0  0  0  0  0  0
    6.2276    0.3170    2.9733 O   0  0  0  0  0  0  0  0  0  0  0  0
   -3.6620   -2.2985   -0.4681 O   0  0  0  0  0  0  0  0  0  0  0  0
    4.0307    0.7565    4.4754 O   0  0  0  0  0  0  0  0  0  0  0  0
    2.1632    0.9613    3.1845 O   0  0  0  0  0  0  0  0  0  0  0  0
   -1.1678    2.9330   -0.9584 O   0  3  0  0  0  0  0  0  0  0  0  0
   -5.4214   -3.5319    0.3676 O   0  0  0  0  0  0  0  0  0  0  0  0
   -3.9274    1.2345    2.6612 O   0  0  0  0  0  0  0  0  0  0  0  0
   -5.2175    5.1612    0.3057 O   0  0  0  0  0  0  0  0  0  0  0  0
   -7.8575   -0.1870   -0.5589 O   0  0  0  0  0  0  0  0  0  0  0  0
    4.2798    3.0737   -1.8440 O   0  0  0  0  0  0  0  0  0  0  0  0
   -7.8600   -2.2910    0.3037 O   0  0  0  0  0  0  0  0  0  0  0  0
    4.1245    1.6177   -4.2065 O   0  0  0  0  0  0  0  0  0  0  0  0
    1.3606   -2.2332   -0.0659 C   0  0  2  0  0  0  0  0  0  0  0  0
    1.0652   -3.5842   -0.7173 C   0  0  2  0  0  0  0  0  0  0  0  0
   -0.3476   -4.0629   -0.3826 C   0  0  1  0  0  0  0  0  0  0  0  0
   -1.3721   -2.9563   -0.6440 C   0  0  1  0  0  0  0  0  0  0  0  0
    0.2303   -1.2353   -0.3181 C   0  0  1  0  0  0  0  0  0  0  0  0
    3.5557   -1.5079    0.3927 C   0  0  2  0  0  0  0  0  0  0  0  0
    4.8006   -0.9223   -0.2743 C   0  0  1  0  0  0  0  0  0  0  0  0
    5.8668   -0.5642    0.7612 C   0  0  2  0  0  0  0  0  0  0  0  0
    5.2747    0.2475    1.9139 C   0  0  1  0  0  0  0  0  0  0  0  0
    4.0049   -0.4094    2.4404 C   0  0  1  0  0  0  0  0  0  0  0  0
   -2.7740   -3.3700   -0.2074 C   0  0  0  0  0  0  0  0  0  0  0  0
    3.2792    0.5020    3.3764 C   0  0  0  0  0  0  0  0  0  0  0  0
   -0.4701    0.8959    0.2669 C   0  0  0  0  0  0  0  0  0  0  0  0
   -0.3339    1.9444   -0.7932 C   0  0  0  0  0  0  0  0  0  0  0  0
   -1.5518    0.9746    1.0526 C   0  0  0  0  0  0  0  0  0  0  0  0
   -4.9774   -2.5073   -0.1307 C   0  0  0  0  0  0  0  0  0  0  0  0
   -2.5272    2.0440    0.8733 C   0  0  0  0  0  0  0  0  0  0  0  0
    0.8426    1.8600   -1.6899 C   0  0  0  0  0  0  0  0  0  0  0  0
   -2.2979    2.9999   -0.1218 C   0  0  0  0  0  0  0  0  0  0  0  0
   -5.7824   -1.2797   -0.4809 C   0  0  0  0  0  0  0  0  0  0  0  0
   -3.6664    2.1423    1.6776 C   0  0  0  0  0  0  0  0  0  0  0  0
   -3.2009    4.0464   -0.3124 C   0  0  0  0  0  0  0  0  0  0  0  0
    2.0206    2.5119   -1.3433 C   0  0  0  0  0  0  0  0  0  0  0  0
    0.7571    1.1304   -2.8703 C   0  0  0  0  0  0  0  0  0  0  0  0
   -4.5688    3.1898    1.4843 C   0  0  0  0  0  0  0  0  0  0  0  0
   -4.3360    4.1409    0.4910 C   0  0  0  0  0  0  0  0  0  0  0  0
   -7.2588   -1.3504   -0.1919 C   0  0  0  0  0  0  0  0  0  0  0  0
    3.1279    2.4331   -2.1879 C   0  0  0  0  0  0  0  0  0  0  0  0
    1.8643    1.0517   -3.7150 C   0  0  0  0  0  0  0  0  0  0  0  0
    3.0497    1.7029   -3.3739 C   0  0  0  0  0  0  0  0  0  0  0  0
    1.4562   -2.3992    1.0171 H   0  0  0  0  0  0  0  0  0  0  0  0
    1.2175   -3.5260   -1.8022 H   0  0  0  0  0  0  0  0  0  0  0  0
   -0.3848   -4.3834    0.6658 H   0  0  0  0  0  0  0  0  0  0  0  0
   -1.4119   -2.6996   -1.7115 H   0  0  0  0  0  0  0  0  0  0  0  0
    0.1874   -0.9908   -1.3840 H   0  0  0  0  0  0  0  0  0  0  0  0
    3.7823   -2.4868    0.8373 H   0  0  0  0  0  0  0  0  0  0  0  0
    4.5419   -0.0424   -0.8735 H   0  0  0  0  0  0  0  0  0  0  0  0
    6.3622   -1.4649    1.1444 H   0  0  0  0  0  0  0  0  0  0  0  0
    5.0817    1.2738    1.5751 H   0  0  0  0  0  0  0  0  0  0  0  0
    4.1960   -1.3549    2.9629 H   0  0  0  0  0  0  0  0  0  0  0  0
   -2.7840   -3.5790    0.8693 H   0  0  0  0  0  0  0  0  0  0  0  0
   -3.1020   -4.2610   -0.7545 H   0  0  0  0  0  0  0  0  0  0  0  0
    1.7679   -5.4062   -0.6541 H   0  0  0  0  0  0  0  0  0  0  0  0
   -0.6392   -4.9207   -2.1181 H   0  0  0  0  0  0  0  0  0  0  0  0
    5.5645   -2.6858   -0.6615 H   0  0  0  0  0  0  0  0  0  0  0  0
    7.2362   -0.2899   -0.6039 H   0  0  0  0  0  0  0  0  0  0  0  0
    5.8905    0.9425    3.6364 H   0  0  0  0  0  0  0  0  0  0  0  0
   -1.6790    0.2399    1.8378 H   0  0  0  0  0  0  0  0  0  0  0  0
    3.5722    1.3558    5.1021 H   0  0  0  0  0  0  0  0  0  0  0  0
   -5.6631   -1.1013   -1.5553 H   0  0  0  0  0  0  0  0  0  0  0  0
   -5.3713   -0.4408    0.0913 H   0  0  0  0  0  0  0  0  0  0  0  0
   -3.0083    4.7794   -1.0909 H   0  0  0  0  0  0  0  0  0  0  0  0
    2.0841    3.0808   -0.4189 H   0  0  0  0  0  0  0  0  0  0  0  0
   -0.1648    0.6278   -3.1501 H   0  0  0  0  0  0  0  0  0  0  0  0
   -5.4550    3.2657    2.1098 H   0  0  0  0  0  0  0  0  0  0  0  0
    1.7890    0.4808   -4.6366 H   0  0  0  0  0  0  0  0  0  0  0  0
   -3.1081    0.8217    2.9732 H   0  0  0  0  0  0  0  0  0  0  0  0
   -4.9002    5.7236   -0.4217 H   0  0  0  0  0  0  0  0  0  0  0  0
   -8.8218   -0.1998   -0.3792 H   0  0  0  0  0  0  0  0  0  0  0  0
    4.9407    2.9087   -2.5389 H   0  0  0  0  0  0  0  0  0  0  0  0
    3.8868    1.0716   -4.9754 H   0  0  0  0  0  0  0  0  0  0  0  0
  1 21  1  0  0  0  0
  1 26  1  0  0  0  0
  2 24  1  0  0  0  0
  2 25  1  0  0  0  0
  3 26  1  0  0  0  0
  3 30  1  0  0  0  0
  4 22  1  0  0  0  0
  4 63  1  0  0  0  0
  5 25  1  0  0  0  0
  5 33  1  0  0  0  0
  6 23  1  0  0  0  0
  6 64  1  0  0  0  0
  7 27  1  0  0  0  0
  7 65  1  0  0  0  0
  8 28  1  0  0  0  0
  8 66  1  0  0  0  0
  9 29  1  0  0  0  0
  9 67  1  0  0  0  0
 10 31  1  0  0  0  0
 10 36  1  0  0  0  0
 11 32  1  0  0  0  0
 11 69  1  0  0  0  0
 12 32  2  0  0  0  0
 13 34  2  0  0  0  0
 13 39  1  0  0  0  0
 14 36  2  0  0  0  0
 15 41  1  0  0  0  0
 15 77  1  0  0  0  0
 16 46  1  0  0  0  0
 16 78  1  0  0  0  0
 17 47  1  0  0  0  0
 17 79  1  0  0  0  0
 18 48  1  0  0  0  0
 18 80  1  0  0  0  0
 19 47  2  0  0  0  0
 20 50  1  0  0  0  0
 20 81  1  0  0  0  0
 21 22  1  0  0  0  0
 21 25  1  0  0  0  0
 21 51  1  0  0  0  0
 22 23  1  0  0  0  0
 22 52  1  0  0  0  0
 23 24  1  0  0  0  0
 23 53  1  0  0  0  0
 24 31  1  0  0  0  0
 24 54  1  0  0  0  0
 25 55  1  0  0  0  0
 26 27  1  0  0  0  0
 26 56  1  0  0  0  0
 27 28  1  0  0  0  0
 27 57  1  0  0  0  0
 28 29  1  0  0  0  0
 28 58  1  0  0  0  0
 29 30  1  0  0  0  0
 29 59  1  0  0  0  0
 30 32  1  0  0  0  0
 30 60  1  0  0  0  0
 31 61  1  0  0  0  0
 31 62  1  0  0  0  0
 33 34  1  0  0  0  0
 33 35  2  0  0  0  0
 34 38  1  0  0  0  0
 35 37  1  0  0  0  0
 35 68  1  0  0  0  0
 36 40  1  0  0  0  0
 37 39  1  0  0  0  0
 37 41  2  0  0  0  0
 38 43  2  0  0  0  0
 38 44  1  0  0  0  0
 39 42  2  0  0  0  0
 40 47  1  0  0  0  0
 40 70  1  0  0  0  0
 40 71  1  0  0  0  0
 41 45  1  0  0  0  0
 42 46  1  0  0  0  0
 42 72  1  0  0  0  0
 43 48  1  0  0  0  0
 43 73  1  0  0  0  0
 44 49  2  0  0  0  0
 44 74  1  0  0  0  0
 45 46  2  0  0  0  0
 45 75  1  0  0  0  0
 48 50  2  0  0  0  0
 49 50  1  0  0  0  0
 49 76  1  0  0  0  0
M  CHG  1  13   1
M  END
> <PUBCHEM_COMPOUND_CID>
23724737

> <PUBCHEM_CONFORMER_RMSD>
1.4

> <PUBCHEM_CONFORMER_DIVERSEORDER>
1
17
35
73
41
81
72
33
5
16
26
68
38
90
48
92
24
69
75
93
20
12
14
58
53
86
88
84
77
32
3
10
45
96
13
74
54
47
56
6
8
76
36
80
63
50
94
61
19
46
34
60
25
97
52
29
66
28
59
85
91
57
79
22
18
83
37
30
95
42
40
23
78
31
15
70
98
9
82
21
39
65
67
55
27
71
87
43
64
11
49
62
89
4
51
44
2
7

> <PUBCHEM_MMFF94_PARTIAL_CHARGES>
67
1 -0.56
10 -0.43
11 -0.65
12 -0.57
13 -0.87
14 -0.57
15 -0.53
16 -0.53
17 -0.65
18 -0.53
19 -0.57
2 -0.56
20 -0.53
21 0.28
22 0.28
23 0.28
24 0.28
25 0.56
26 0.56
27 0.28
28 0.28
29 0.28
3 -0.56
30 0.34
31 0.28
32 0.66
33 0.09
34 0.85
35 -0.18
36 0.66
37 0.03
38 0.09
39 0.92
4 -0.68
40 0.12
41 0.08
42 -0.15
43 -0.15
44 -0.15
45 -0.15
46 0.08
47 0.66
48 0.08
49 -0.15
5 -0.36
50 0.08
6 -0.68
63 0.4
64 0.4
65 0.4
66 0.4
67 0.4
68 0.15
69 0.5
7 -0.68
72 0.15
73 0.15
74 0.15
75 0.15
76 0.15
77 0.45
78 0.45
79 0.5
8 -0.68
80 0.45
81 0.45
9 -0.68

> <PUBCHEM_EFFECTIVE_ROTOR_COUNT>
13.4

> <PUBCHEM_PHARMACOPHORE_FEATURES>
31
1 1 acceptor
1 11 acceptor
1 12 acceptor
1 14 acceptor
1 15 donor
1 16 donor
1 17 acceptor
1 18 donor
1 19 acceptor
1 2 acceptor
1 20 donor
1 3 acceptor
1 4 acceptor
1 4 donor
1 40 anion
1 5 acceptor
1 6 acceptor
1 6 donor
1 7 acceptor
1 7 donor
1 8 acceptor
1 8 donor
1 9 acceptor
1 9 donor
3 11 12 32 anion
3 17 19 47 anion
6 13 33 34 35 37 39 rings
6 2 21 22 23 24 25 rings
6 3 26 27 28 29 30 rings
6 37 39 41 42 45 46 rings
6 38 43 44 48 49 50 rings

> <PUBCHEM_HEAVY_ATOM_COUNT>
50

> <PUBCHEM_ATOM_DEF_STEREO_COUNT>
10

> <PUBCHEM_ATOM_UDEF_STEREO_COUNT>
0

> <PUBCHEM_BOND_DEF_STEREO_COUNT>
0

> <PUBCHEM_BOND_UDEF_STEREO_COUNT>
0

> <PUBCHEM_ISOTOPIC_ATOM_COUNT>
0

> <PUBCHEM_COMPONENT_COUNT>
1

> <PUBCHEM_CACTVS_TAUTO_COUNT>
154

> <PUBCHEM_CONFORMER_ID>
016A02C100000001

> <PUBCHEM_MMFF94_ENERGY>
141.9132

> <PUBCHEM_FEATURE_SELFOVERLAP>
157.867

> <PUBCHEM_SHAPE_FINGERPRINT>
10165383 225 18120654897575545478
10675989 125 17696461889086307597
12788726 201 18265596702839912167
13111901 51 18411697725349640701
13560911 43 17846782884719994767
13636023 51 17767402748977711034
140371 6 18341608205322475767
15001296 14 18200026214357436839
15324884 4 17408521096824690069
15328829 1 18130506327611287784
15406563 185 17677592216964634149
21033648 29 18120102925026407144
22121540 332 18114759220741423054
23559900 14 17766539623696999505
244849 19 16588567786565283697
25223398 141 18335421291661875811
27425 322 17605297227342441748
44880168 125 17841446027019732498
469060 322 17560257915042228434

> <PUBCHEM_SHAPE_MULTIPOLES>
911.59
15.07
6.25
3.45
12.55
1.85
0.4
1.5
4.85
8.2
-1.9
-6.9
-2.81
-2.93

> <PUBCHEM_SHAPE_SELFOVERLAP>
1976.252

> <PUBCHEM_SHAPE_VOLUME>
488.6

> <PUBCHEM_COORDINATE_TYPE>
2
5
10

$$$$

