442677
  -OEChem-07051212593D

 68 73  0     1  0  0  0  0  0999 V2000
   -3.3565   -0.0719   -1.0000 O   0  0  0  0  0  0  0  0  0  0  0  0
    2.0556   -0.6443    0.2579 O   0  0  0  0  0  0  0  0  0  0  0  0
   -0.7941    1.1793   -1.5936 O   0  0  0  0  0  0  0  0  0  0  0  0
    3.4464    0.7179    2.3803 O   0  0  0  0  0  0  0  0  0  0  0  0
   -2.2156   -2.4468    1.2774 O   0  0  0  0  0  0  0  0  0  0  0  0
    1.3269   -3.0930    4.3744 O   0  0  0  0  0  0  0  0  0  0  0  0
   -0.1094   -3.6438   -1.4942 O   0  0  0  0  0  0  0  0  0  0  0  0
   -4.5659   -4.1505   -3.0677 O   0  0  0  0  0  0  0  0  0  0  0  0
   -3.2398    4.4191    2.9240 O   0  0  0  0  0  0  0  0  0  0  0  0
   -4.2426    5.8967    0.7938 O   0  0  0  0  0  0  0  0  0  0  0  0
    3.7242    3.5441   -1.8667 O   0  0  0  0  0  0  0  0  0  0  0  0
    6.1911    2.8584   -2.9492 O   0  0  0  0  0  0  0  0  0  0  0  0
   -0.5797   -0.9817   -0.5369 C   0  0  1  0  0  0  0  0  0  0  0  0
   -1.0415    0.4802   -0.3675 C   0  0  2  0  0  0  0  0  0  0  0  0
   -0.0519   -1.5421    0.7786 C   0  0  0  0  0  0  0  0  0  0  0  0
   -2.5325    0.5521   -0.0057 C   0  0  1  0  0  0  0  0  0  0  0  0
   -1.6627   -1.8250   -1.1836 C   0  0  0  0  0  0  0  0  0  0  0  0
    1.2850   -1.3565    1.1403 C   0  0  0  0  0  0  0  0  0  0  0  0
    1.7635   -1.8525    2.3596 C   0  0  0  0  0  0  0  0  0  0  0  0
    3.8659   -0.5702    1.9278 C   0  0  2  0  0  0  0  0  0  0  0  0
    3.4732   -0.7650    0.4574 C   0  0  2  0  0  0  0  0  0  0  0  0
    3.1937   -1.6451    2.7795 C   0  0  0  0  0  0  0  0  0  0  0  0
   -2.9604   -1.3300   -1.3715 C   0  0  0  0  0  0  0  0  0  0  0  0
   -0.9110   -2.2499    1.6180 C   0  0  0  0  0  0  0  0  0  0  0  0
   -2.9899    1.9835    0.2120 C   0  0  0  0  0  0  0  0  0  0  0  0
   -1.3617   -3.1200   -1.6378 C   0  0  0  0  0  0  0  0  0  0  0  0
    0.8936   -2.5718    3.1905 C   0  0  0  0  0  0  0  0  0  0  0  0
   -0.4376   -2.7682    2.8213 C   0  0  0  0  0  0  0  0  0  0  0  0
    4.1980    0.2074   -0.4545 C   0  0  0  0  0  0  0  0  0  0  0  0
   -3.9293   -2.1080   -2.0122 C   0  0  0  0  0  0  0  0  0  0  0  0
   -2.3349   -3.9003   -2.2626 C   0  0  0  0  0  0  0  0  0  0  0  0
   -2.9062    2.5548    1.4804 C   0  0  0  0  0  0  0  0  0  0  0  0
   -3.6179   -3.3936   -2.4510 C   0  0  0  0  0  0  0  0  0  0  0  0
   -3.4926    2.7228   -0.8573 C   0  0  0  0  0  0  0  0  0  0  0  0
    3.6258    1.4441   -0.7484 C   0  0  0  0  0  0  0  0  0  0  0  0
    5.4350   -0.1378   -0.9966 C   0  0  0  0  0  0  0  0  0  0  0  0
   -3.3260    3.8700    1.6804 C   0  0  0  0  0  0  0  0  0  0  0  0
   -3.9127    4.0378   -0.6573 C   0  0  0  0  0  0  0  0  0  0  0  0
   -3.8294    4.6114    0.6115 C   0  0  0  0  0  0  0  0  0  0  0  0
    4.2924    2.3381   -1.5863 C   0  0  0  0  0  0  0  0  0  0  0  0
    6.1014    0.7562   -1.8348 C   0  0  0  0  0  0  0  0  0  0  0  0
    5.5302    1.9941   -2.1296 C   0  0  0  0  0  0  0  0  0  0  0  0
    0.2409   -0.9644   -1.2688 H   0  0  0  0  0  0  0  0  0  0  0  0
   -0.4390    0.9947    0.3908 H   0  0  0  0  0  0  0  0  0  0  0  0
   -2.7185    0.0214    0.9364 H   0  0  0  0  0  0  0  0  0  0  0  0
    4.9536   -0.6205    2.0555 H   0  0  0  0  0  0  0  0  0  0  0  0
    3.7482   -1.7804    0.1358 H   0  0  0  0  0  0  0  0  0  0  0  0
    3.2393   -1.3406    3.8317 H   0  0  0  0  0  0  0  0  0  0  0  0
    3.7291   -2.5943    2.6573 H   0  0  0  0  0  0  0  0  0  0  0  0
   -1.1002   -3.3254    3.4790 H   0  0  0  0  0  0  0  0  0  0  0  0
   -1.3528    0.7837   -2.2838 H   0  0  0  0  0  0  0  0  0  0  0  0
   -4.9286   -1.7060   -2.1633 H   0  0  0  0  0  0  0  0  0  0  0  0
   -2.0899   -4.9010   -2.6097 H   0  0  0  0  0  0  0  0  0  0  0  0
   -2.5111    1.9764    2.3121 H   0  0  0  0  0  0  0  0  0  0  0  0
   -3.5589    2.3004   -1.8560 H   0  0  0  0  0  0  0  0  0  0  0  0
    3.7357    0.8132    3.3037 H   0  0  0  0  0  0  0  0  0  0  0  0
    2.6652    1.7245   -0.3233 H   0  0  0  0  0  0  0  0  0  0  0  0
    5.8914   -1.0981   -0.7725 H   0  0  0  0  0  0  0  0  0  0  0  0
   -2.6545   -2.9575    1.9790 H   0  0  0  0  0  0  0  0  0  0  0  0
    2.2957   -3.0883    4.4192 H   0  0  0  0  0  0  0  0  0  0  0  0
    0.5358   -2.9647   -1.2495 H   0  0  0  0  0  0  0  0  0  0  0  0
   -4.3020    4.6109   -1.4944 H   0  0  0  0  0  0  0  0  0  0  0  0
    7.0656    0.4825   -2.2543 H   0  0  0  0  0  0  0  0  0  0  0  0
   -5.3942   -3.6427   -3.1142 H   0  0  0  0  0  0  0  0  0  0  0  0
   -2.8688    3.7608    3.5363 H   0  0  0  0  0  0  0  0  0  0  0  0
   -4.1137    6.1294    1.7298 H   0  0  0  0  0  0  0  0  0  0  0  0
    2.8702    3.6077   -1.4058 H   0  0  0  0  0  0  0  0  0  0  0  0
    5.6522    3.6630   -3.0436 H   0  0  0  0  0  0  0  0  0  0  0  0
  1 16  1  0  0  0  0
  1 23  1  0  0  0  0
  2 18  1  0  0  0  0
  2 21  1  0  0  0  0
  3 14  1  0  0  0  0
  3 51  1  0  0  0  0
  4 20  1  0  0  0  0
  4 56  1  0  0  0  0
  5 24  1  0  0  0  0
  5 59  1  0  0  0  0
  6 27  1  0  0  0  0
  6 60  1  0  0  0  0
  7 26  1  0  0  0  0
  7 61  1  0  0  0  0
  8 33  1  0  0  0  0
  8 64  1  0  0  0  0
  9 37  1  0  0  0  0
  9 65  1  0  0  0  0
 10 39  1  0  0  0  0
 10 66  1  0  0  0  0
 11 40  1  0  0  0  0
 11 67  1  0  0  0  0
 12 42  1  0  0  0  0
 12 68  1  0  0  0  0
 13 14  1  0  0  0  0
 13 15  1  0  0  0  0
 13 17  1  0  0  0  0
 13 43  1  0  0  0  0
 14 16  1  0  0  0  0
 14 44  1  0  0  0  0
 15 18  1  0  0  0  0
 15 24  2  0  0  0  0
 16 25  1  0  0  0  0
 16 45  1  0  0  0  0
 17 23  1  0  0  0  0
 17 26  2  0  0  0  0
 18 19  2  0  0  0  0
 19 22  1  0  0  0  0
 19 27  1  0  0  0  0
 20 21  1  0  0  0  0
 20 22  1  0  0  0  0
 20 46  1  0  0  0  0
 21 29  1  0  0  0  0
 21 47  1  0  0  0  0
 22 48  1  0  0  0  0
 22 49  1  0  0  0  0
 23 30  2  0  0  0  0
 24 28  1  0  0  0  0
 25 32  2  0  0  0  0
 25 34  1  0  0  0  0
 26 31  1  0  0  0  0
 27 28  2  0  0  0  0
 28 50  1  0  0  0  0
 29 35  2  0  0  0  0
 29 36  1  0  0  0  0
 30 33  1  0  0  0  0
 30 52  1  0  0  0  0
 31 33  2  0  0  0  0
 31 53  1  0  0  0  0
 32 37  1  0  0  0  0
 32 54  1  0  0  0  0
 34 38  2  0  0  0  0
 34 55  1  0  0  0  0
 35 40  1  0  0  0  0
 35 57  1  0  0  0  0
 36 41  2  0  0  0  0
 36 58  1  0  0  0  0
 37 39  2  0  0  0  0
 38 39  1  0  0  0  0
 38 62  1  0  0  0  0
 40 42  2  0  0  0  0
 41 42  1  0  0  0  0
 41 63  1  0  0  0  0
M  END
> <PUBCHEM_COMPOUND_CID>
442677

> <PUBCHEM_CONFORMER_RMSD>
1

> <PUBCHEM_CONFORMER_DIVERSEORDER>
1
53
3
32
54
28
55
57
24
19
39
45
42
2
37
36
44
52
49
47
31
9
14
4
23
38
17
48
51
25
16
56
34
8
22
6
13
29
18
43
40
50
26
7
15
5
33
30
20
41
11
46
21
10
27
35
12

> <PUBCHEM_MMFF94_PARTIAL_CHARGES>
61
1 -0.36
10 -0.53
11 -0.53
12 -0.53
13 0.29
14 0.28
15 -0.14
16 0.42
17 -0.14
18 0.08
19 -0.14
2 -0.36
20 0.28
21 0.42
22 0.14
23 0.08
24 0.08
25 -0.14
26 0.08
27 0.08
28 -0.15
29 -0.14
3 -0.68
30 -0.15
31 -0.15
32 -0.15
33 0.08
34 -0.15
35 -0.15
36 -0.15
37 0.08
38 -0.15
39 0.08
4 -0.68
40 0.08
41 -0.15
42 0.08
5 -0.53
50 0.15
51 0.4
52 0.15
53 0.15
54 0.15
55 0.15
56 0.4
57 0.15
58 0.15
59 0.45
6 -0.53
60 0.45
61 0.45
62 0.15
63 0.15
64 0.45
65 0.45
66 0.45
67 0.45
68 0.45
7 -0.53
8 -0.53
9 -0.53

> <PUBCHEM_EFFECTIVE_ROTOR_COUNT>
4.6

> <PUBCHEM_PHARMACOPHORE_FEATURES>
20
1 1 acceptor
1 10 donor
1 11 donor
1 12 donor
1 2 acceptor
1 3 acceptor
1 3 donor
1 4 acceptor
1 4 donor
1 5 donor
1 6 donor
1 7 donor
1 8 donor
1 9 donor
6 1 13 14 16 17 23 rings
6 15 18 19 24 27 28 rings
6 17 23 26 30 31 33 rings
6 2 18 19 20 21 22 rings
6 25 32 34 37 38 39 rings
6 29 35 36 40 41 42 rings

> <PUBCHEM_HEAVY_ATOM_COUNT>
42

> <PUBCHEM_ATOM_DEF_STEREO_COUNT>
5

> <PUBCHEM_ATOM_UDEF_STEREO_COUNT>
0

> <PUBCHEM_BOND_DEF_STEREO_COUNT>
0

> <PUBCHEM_BOND_UDEF_STEREO_COUNT>
0

> <PUBCHEM_ISOTOPIC_ATOM_COUNT>
0

> <PUBCHEM_COMPONENT_COUNT>
1

> <PUBCHEM_CACTVS_TAUTO_COUNT>
986

> <PUBCHEM_CONFORMER_ID>
0006C13500000001

> <PUBCHEM_MMFF94_ENERGY>
137.0663

> <PUBCHEM_FEATURE_SELFOVERLAP>
101.56

> <PUBCHEM_SHAPE_FINGERPRINT>
11049842 53 17754186584488562534
11115154 58 17975137540048343943
11505856 67 18411693279836975301
11607047 403 17975654495070606171
11763715 3 17976575782324055835
12355185 1 18337113354674771865
12788726 201 18337404755373761191
13617811 41 17899714374665888255
13782708 43 16444193001928879375
14395042 70 17032715697837681689
15297060 5 17606404512248886481
15448158 71 18057608870305340860
15968369 153 18193831552977898240
16067690 210 18194113028112481204
16991981 162 18261382334832259697
19311894 1 18334566962959769732
21033650 10 18408606938034134266
21223535 225 18271228471061538532
21756936 100 18201425992029405762
21772528 278 17772439414160505364
21987440 362 16739761832627800434
22122407 14 17272862153925915117
3388396 114 17760355596746183068
3534868 343 18123506879766412247
50150288 127 18410851054013936147
6058803 2 18270136715168992842
6523845 18 17604703499420743097
6700243 42 17677618553345800382

> <PUBCHEM_SHAPE_MULTIPOLES>
793.91
11.31
7.04
3.84
12.74
5.51
2.1
11.01
-7.3
-10.86
-0.26
1.48
-2.92
-9.06

> <PUBCHEM_SHAPE_SELFOVERLAP>
1788.797

> <PUBCHEM_SHAPE_VOLUME>
411

> <PUBCHEM_COORDINATE_TYPE>
2
5
10

$$$$

