440238
  -OEChem-07051212492D

 33 33  0     1  0  0  0  0  0999 V2000
    6.7985    1.0930    0.0000 O   0  0  0  0  0  0  0  0  0  0  0  0
   11.3459    0.5260    0.0000 O   0  0  0  0  0  0  0  0  0  0  0  0
   10.1869    1.8132    0.0000 O   0  0  0  0  0  0  0  0  0  0  0  0
    6.2633   -0.5543    0.0000 N   0  0  0  0  0  0  0  0  0  0  0  0
    9.8596   -0.8122    0.0000 N   0  0  0  0  0  0  0  0  0  0  0  0
    2.8090   -1.1932    0.0000 N   0  0  0  0  0  0  0  0  0  0  0  0
    2.3090    0.3456    0.0000 N   0  0  0  0  0  0  0  0  0  0  0  0
    8.7006    0.4749    0.0000 C   0  0  0  0  0  0  0  0  0  0  0  0
    7.9575   -0.1942    0.0000 C   0  0  0  0  0  0  0  0  0  0  0  0
    9.6517    0.1659    0.0000 C   0  0  1  0  0  0  0  0  0  0  0  0
    5.3122   -0.2453    0.0000 C   0  0  0  0  0  0  0  0  0  0  0  0
    4.5691   -0.9144    0.0000 C   0  0  0  0  0  0  0  0  0  0  0  0
    7.0064    0.1148    0.0000 C   0  0  0  0  0  0  0  0  0  0  0  0
    3.6180   -0.6054    0.0000 C   0  0  0  0  0  0  0  0  0  0  0  0
   10.3948    0.8350    0.0000 C   0  0  0  0  0  0  0  0  0  0  0  0
    3.3090    0.3456    0.0000 C   0  0  0  0  0  0  0  0  0  0  0  0
    2.0000   -0.6054    0.0000 C   0  0  0  0  0  0  0  0  0  0  0  0
    8.9917    1.0224    0.0000 H   0  0  0  0  0  0  0  0  0  0  0  0
    8.2121    0.8566    0.0000 H   0  0  0  0  0  0  0  0  0  0  0  0
    7.6664   -0.7416    0.0000 H   0  0  0  0  0  0  0  0  0  0  0  0
    8.4461   -0.5759    0.0000 H   0  0  0  0  0  0  0  0  0  0  0  0
   10.2413   -0.0257    0.0000 H   0  0  0  0  0  0  0  0  0  0  0  0
    5.6033    0.3021    0.0000 H   0  0  0  0  0  0  0  0  0  0  0  0
    4.8237    0.1364    0.0000 H   0  0  0  0  0  0  0  0  0  0  0  0
    4.2780   -1.4619    0.0000 H   0  0  0  0  0  0  0  0  0  0  0  0
    5.0577   -1.2961    0.0000 H   0  0  0  0  0  0  0  0  0  0  0  0
    6.3922   -1.1608    0.0000 H   0  0  0  0  0  0  0  0  0  0  0  0
   10.4493   -1.0038    0.0000 H   0  0  0  0  0  0  0  0  0  0  0  0
    9.3989   -1.2271    0.0000 H   0  0  0  0  0  0  0  0  0  0  0  0
    2.8090   -1.8132    0.0000 H   0  0  0  0  0  0  0  0  0  0  0  0
    3.6734    0.8472    0.0000 H   0  0  0  0  0  0  0  0  0  0  0  0
    1.4103   -0.7970    0.0000 H   0  0  0  0  0  0  0  0  0  0  0  0
   11.8066    0.9409    0.0000 H   0  0  0  0  0  0  0  0  0  0  0  0
  1 13  2  0  0  0  0
  2 15  1  0  0  0  0
  2 33  1  0  0  0  0
  3 15  2  0  0  0  0
  4 11  1  0  0  0  0
  4 13  1  0  0  0  0
  4 27  1  0  0  0  0
 10  5  1  1  0  0  0
  5 28  1  0  0  0  0
  5 29  1  0  0  0  0
  6 14  1  0  0  0  0
  6 17  1  0  0  0  0
  6 30  1  0  0  0  0
  7 16  1  0  0  0  0
  7 17  2  0  0  0  0
  8  9  1  0  0  0  0
  8 10  1  0  0  0  0
  8 18  1  0  0  0  0
  8 19  1  0  0  0  0
  9 13  1  0  0  0  0
  9 20  1  0  0  0  0
  9 21  1  0  0  0  0
 10 15  1  0  0  0  0
 10 22  1  0  0  0  0
 11 12  1  0  0  0  0
 11 23  1  0  0  0  0
 11 24  1  0  0  0  0
 12 14  1  0  0  0  0
 12 25  1  0  0  0  0
 12 26  1  0  0  0  0
 14 16  2  0  0  0  0
 16 31  1  0  0  0  0
 17 32  1  0  0  0  0
M  END
> <PUBCHEM_COMPOUND_CID>
440238

> <PUBCHEM_COMPOUND_CANONICALIZED>
1

> <PUBCHEM_CACTVS_COMPLEXITY>
272

> <PUBCHEM_CACTVS_HBOND_ACCEPTOR>
5

> <PUBCHEM_CACTVS_HBOND_DONOR>
4

> <PUBCHEM_CACTVS_ROTATABLE_BOND>
7

> <PUBCHEM_CACTVS_SUBSKEYS>
AAADceBzsAAAAAAAAAAAAAAAAAAAAWAAAAAAAAAAAAAAAAABgAAAHgAQCAAACCjBlgQtmBbJkgCoARX3fAAAgC2xEqABUYG4cAiCaBJAyQEUQAAMFgLAQCCcFwIAAAAAAAAAAAAAAAAAAAAAAAAAAAAAAA==

> <PUBCHEM_IUPAC_OPENEYE_NAME>
(2S)-2-amino-5-[2-(1H-imidazol-5-yl)ethylamino]-5-oxo-pentanoic acid

> <PUBCHEM_IUPAC_CAS_NAME>
(2S)-2-amino-5-[2-(1H-imidazol-5-yl)ethylamino]-5-oxopentanoic acid

> <PUBCHEM_IUPAC_NAME>
(2S)-2-amino-5-[2-(1H-imidazol-5-yl)ethylamino]-5-oxopentanoic acid

> <PUBCHEM_IUPAC_SYSTEMATIC_NAME>
(2S)-2-azanyl-5-[2-(1H-imidazol-5-yl)ethylamino]-5-oxidanylidene-pentanoic acid

> <PUBCHEM_IUPAC_TRADITIONAL_NAME>
(2S)-2-amino-5-[2-(1H-imidazol-5-yl)ethylamino]-5-keto-valeric acid

> <PUBCHEM_IUPAC_INCHI>
InChI=1S/C10H16N4O3/c11-8(10(16)17)1-2-9(15)13-4-3-7-5-12-6-14-7/h5-6,8H,1-4,11H2,(H,12,14)(H,13,15)(H,16,17)/t8-/m0/s1

> <PUBCHEM_IUPAC_INCHIKEY>
BGNAGOFSEBNIJN-QMMMGPOBSA-N

> <PUBCHEM_XLOGP3_AA>
-3.6

> <PUBCHEM_EXACT_MASS>
240.12224

> <PUBCHEM_MOLECULAR_FORMULA>
C10H16N4O3

> <PUBCHEM_MOLECULAR_WEIGHT>
240.25904

> <PUBCHEM_OPENEYE_CAN_SMILES>
C1=C(NC=N1)CCNC(=O)CCC(C(=O)O)N

> <PUBCHEM_OPENEYE_ISO_SMILES>
C1=C(NC=N1)CCNC(=O)CC[C@@H](C(=O)O)N

> <PUBCHEM_CACTVS_TPSA>
121

> <PUBCHEM_MONOISOTOPIC_WEIGHT>
240.12224

> <PUBCHEM_TOTAL_CHARGE>
0

> <PUBCHEM_HEAVY_ATOM_COUNT>
17

> <PUBCHEM_ATOM_DEF_STEREO_COUNT>
1

> <PUBCHEM_ATOM_UDEF_STEREO_COUNT>
0

> <PUBCHEM_BOND_DEF_STEREO_COUNT>
0

> <PUBCHEM_BOND_UDEF_STEREO_COUNT>
0

> <PUBCHEM_ISOTOPIC_ATOM_COUNT>
0

> <PUBCHEM_COMPONENT_COUNT>
1

> <PUBCHEM_CACTVS_TAUTO_COUNT>
4

> <PUBCHEM_COORDINATE_TYPE>
1
5
255

> <PUBCHEM_BONDANNOTATIONS>
14  16  8
10  5  5
6  14  8
6  17  8
7  16  8
7  17  8

$$$$

