443777
  -OEChem-07051213032D

 26 27  0     1  0  0  0  0  0999 V2000
    3.7320    2.0204    0.0000 O   0  0  0  0  0  0  0  0  0  0  0  0
    3.7320   -1.9796    0.0000 O   0  0  0  0  0  0  0  0  0  0  0  0
    5.4804   -2.0142    0.0000 O   0  0  0  0  0  0  0  0  0  0  0  0
    2.8660    0.5204    0.0000 C   0  0  1  0  0  0  0  0  0  0  0  0
    3.7320    1.0204    0.0000 C   0  0  2  0  0  0  0  0  0  0  0  0
    2.8660   -0.4796    0.0000 C   0  0  0  0  0  0  0  0  0  0  0  0
    4.5981    0.5204    0.0000 C   0  0  0  0  0  0  0  0  0  0  0  0
    4.5981   -0.4796    0.0000 C   0  0  0  0  0  0  0  0  0  0  0  0
    3.7320   -0.9796    0.0000 C   0  0  0  0  0  0  0  0  0  0  0  0
    2.0000    1.0204    0.0000 C   0  0  0  0  0  0  0  0  0  0  0  0
    5.4920    1.0550    0.0000 C   0  0  0  0  0  0  0  0  0  0  0  0
    5.4920   -1.0143    0.0000 C   0  0  0  0  0  0  0  0  0  0  0  0
    6.3981    0.5412    0.0000 C   0  0  0  0  0  0  0  0  0  0  0  0
    6.3981   -0.5004    0.0000 C   0  0  0  0  0  0  0  0  0  0  0  0
    2.8660    1.1404    0.0000 H   0  0  0  0  0  0  0  0  0  0  0  0
    4.2690    1.3304    0.0000 H   0  0  0  0  0  0  0  0  0  0  0  0
    2.2554   -0.3719    0.0000 H   0  0  0  0  0  0  0  0  0  0  0  0
    2.6540   -1.0622    0.0000 H   0  0  0  0  0  0  0  0  0  0  0  0
    2.3100    1.5573    0.0000 H   0  0  0  0  0  0  0  0  0  0  0  0
    1.4631    1.3304    0.0000 H   0  0  0  0  0  0  0  0  0  0  0  0
    1.6900    0.4835    0.0000 H   0  0  0  0  0  0  0  0  0  0  0  0
    5.4848    1.6750    0.0000 H   0  0  0  0  0  0  0  0  0  0  0  0
    3.1951    2.3304    0.0000 H   0  0  0  0  0  0  0  0  0  0  0  0
    6.9338    0.8533    0.0000 H   0  0  0  0  0  0  0  0  0  0  0  0
    6.9338   -0.8125    0.0000 H   0  0  0  0  0  0  0  0  0  0  0  0
    6.0138   -2.3304    0.0000 H   0  0  0  0  0  0  0  0  0  0  0  0
  5  1  1  1  0  0  0
  1 23  1  0  0  0  0
  2  9  2  0  0  0  0
  3 12  1  0  0  0  0
  3 26  1  0  0  0  0
  4  5  1  0  0  0  0
  4  6  1  0  0  0  0
  4 10  1  1  0  0  0
  4 15  1  0  0  0  0
  5  7  1  0  0  0  0
  5 16  1  0  0  0  0
  6  9  1  0  0  0  0
  6 17  1  0  0  0  0
  6 18  1  0  0  0  0
  7  8  2  0  0  0  0
  7 11  1  0  0  0  0
  8  9  1  0  0  0  0
  8 12  1  0  0  0  0
 10 19  1  0  0  0  0
 10 20  1  0  0  0  0
 10 21  1  0  0  0  0
 11 13  2  0  0  0  0
 11 22  1  0  0  0  0
 12 14  2  0  0  0  0
 13 14  1  0  0  0  0
 13 24  1  0  0  0  0
 14 25  1  0  0  0  0
M  END
> <PUBCHEM_COMPOUND_CID>
443777

> <PUBCHEM_COMPOUND_CANONICALIZED>
1

> <PUBCHEM_CACTVS_COMPLEXITY>
239

> <PUBCHEM_CACTVS_HBOND_ACCEPTOR>
3

> <PUBCHEM_CACTVS_HBOND_DONOR>
2

> <PUBCHEM_CACTVS_ROTATABLE_BOND>
0

> <PUBCHEM_CACTVS_SUBSKEYS>
AAADccBwMAAAAAAAAAAAAAAAAAAAAAAAAAAwYAAAAAAAAADBAAAAGgAACAAADRSgmAIyBoAAAgCIAqBSAAACAAAkIAAIiAEGCMgINjaCFRKAcUAk4BEImQfKyPCOgAABAAAYAACAAAYAADAAAAAAAAAAAA==

> <PUBCHEM_IUPAC_OPENEYE_NAME>
(3R,4R)-4,8-dihydroxy-3-methyl-tetralin-1-one

> <PUBCHEM_IUPAC_CAS_NAME>
(3R,4R)-4,8-dihydroxy-3-methyl-3,4-dihydro-2H-naphthalen-1-one

> <PUBCHEM_IUPAC_NAME>
(3R,4R)-4,8-dihydroxy-3-methyl-3,4-dihydro-2H-naphthalen-1-one

> <PUBCHEM_IUPAC_SYSTEMATIC_NAME>
(3R,4R)-3-methyl-4,8-bis(oxidanyl)-3,4-dihydro-2H-naphthalen-1-one

> <PUBCHEM_IUPAC_TRADITIONAL_NAME>
(3R,4R)-4,8-dihydroxy-3-methyl-tetralin-1-one

> <PUBCHEM_IUPAC_INCHI>
InChI=1S/C11H12O3/c1-6-5-9(13)10-7(11(6)14)3-2-4-8(10)12/h2-4,6,11-12,14H,5H2,1H3/t6-,11-/m1/s1

> <PUBCHEM_IUPAC_INCHIKEY>
YUPNHTWYVBHLMG-KSBSHMNSSA-N

> <PUBCHEM_XLOGP3_AA>
1.5

> <PUBCHEM_EXACT_MASS>
192.078644

> <PUBCHEM_MOLECULAR_FORMULA>
C11H12O3

> <PUBCHEM_MOLECULAR_WEIGHT>
192.21118

> <PUBCHEM_OPENEYE_CAN_SMILES>
CC1CC(=O)C2=C(C1O)C=CC=C2O

> <PUBCHEM_OPENEYE_ISO_SMILES>
C[C@@H]1CC(=O)C2=C([C@@H]1O)C=CC=C2O

> <PUBCHEM_CACTVS_TPSA>
57.5

> <PUBCHEM_MONOISOTOPIC_WEIGHT>
192.078644

> <PUBCHEM_TOTAL_CHARGE>
0

> <PUBCHEM_HEAVY_ATOM_COUNT>
14

> <PUBCHEM_ATOM_DEF_STEREO_COUNT>
2

> <PUBCHEM_ATOM_UDEF_STEREO_COUNT>
0

> <PUBCHEM_BOND_DEF_STEREO_COUNT>
0

> <PUBCHEM_BOND_UDEF_STEREO_COUNT>
0

> <PUBCHEM_ISOTOPIC_ATOM_COUNT>
0

> <PUBCHEM_COMPONENT_COUNT>
1

> <PUBCHEM_CACTVS_TAUTO_COUNT>
9

> <PUBCHEM_COORDINATE_TYPE>
1
5
255

> <PUBCHEM_BONDANNOTATIONS>
5  1  5
11  13  8
12  14  8
13  14  8
4  10  5
7  11  8
7  8  8
8  12  8

$$$$

