67180
  -OEChem-07051212463D

 12 11  0     0  0  0  0  0  0999 V2000
    1.8278    0.0759    0.0018 O   0  0  0  0  0  0  0  0  0  0  0  0
    0.6338    0.8003   -0.0010 N   0  0  0  0  0  0  0  0  0  0  0  0
   -0.3926    0.0062   -0.0035 C   0  0  0  0  0  0  0  0  0  0  0  0
   -1.7696    0.6175    0.0022 C   0  0  0  0  0  0  0  0  0  0  0  0
   -0.2994   -1.5000    0.0005 C   0  0  0  0  0  0  0  0  0  0  0  0
   -1.7096    1.7092   -0.0070 H   0  0  0  0  0  0  0  0  0  0  0  0
   -2.3175    0.2820   -0.8824 H   0  0  0  0  0  0  0  0  0  0  0  0
   -2.3036    0.2959    0.9004 H   0  0  0  0  0  0  0  0  0  0  0  0
   -1.2984   -1.9436   -0.0267 H   0  0  0  0  0  0  0  0  0  0  0  0
    0.2574   -1.8380   -0.8777 H   0  0  0  0  0  0  0  0  0  0  0  0
    0.2083   -1.8339    0.9094 H   0  0  0  0  0  0  0  0  0  0  0  0
    2.4888    0.7887    0.0034 H   0  0  0  0  0  0  0  0  0  0  0  0
  1  2  1  0  0  0  0
  1 12  1  0  0  0  0
  2  3  2  0  0  0  0
  3  4  1  0  0  0  0
  3  5  1  0  0  0  0
  4  6  1  0  0  0  0
  4  7  1  0  0  0  0
  4  8  1  0  0  0  0
  5  9  1  0  0  0  0
  5 10  1  0  0  0  0
  5 11  1  0  0  0  0
M  END
> <PUBCHEM_COMPOUND_CID>
67180

> <PUBCHEM_CONFORMER_RMSD>
0.4

> <PUBCHEM_CONFORMER_DIVERSEORDER>
1

> <PUBCHEM_MMFF94_PARTIAL_CHARGES>
6
1 -0.34
12 0.4
2 -0.51
3 0.33
4 0.06
5 0.06

> <PUBCHEM_EFFECTIVE_ROTOR_COUNT>
0

> <PUBCHEM_PHARMACOPHORE_FEATURES>
2
1 1 anion
1 2 acceptor

> <PUBCHEM_HEAVY_ATOM_COUNT>
5

> <PUBCHEM_ATOM_DEF_STEREO_COUNT>
0

> <PUBCHEM_ATOM_UDEF_STEREO_COUNT>
0

> <PUBCHEM_BOND_DEF_STEREO_COUNT>
0

> <PUBCHEM_BOND_UDEF_STEREO_COUNT>
0

> <PUBCHEM_ISOTOPIC_ATOM_COUNT>
0

> <PUBCHEM_COMPONENT_COUNT>
1

> <PUBCHEM_CACTVS_TAUTO_COUNT>
2

> <PUBCHEM_CONFORMER_ID>
0001066C00000001

> <PUBCHEM_MMFF94_ENERGY>
9.9763

> <PUBCHEM_FEATURE_SELFOVERLAP>
10.148

> <PUBCHEM_SHAPE_FINGERPRINT>
139733 1 9292250393031805283
16714656 1 18342731927463816180
20096714 4 18411138043280469753
21015797 1 9581503306496844553
21040471 1 18410855473034227653
5943 1 16907845046812124035

> <PUBCHEM_SHAPE_MULTIPOLES>
92.05
1.92
1.27
0.58
0.1
0.59
0
-0.56
0
-0.07
0
-0.05
0.02
0

> <PUBCHEM_SHAPE_SELFOVERLAP>
158.7

> <PUBCHEM_SHAPE_VOLUME>
62.7

> <PUBCHEM_COORDINATE_TYPE>
2
5
10

$$$$

