9913
  -OEChem-06261204102D

 43 44  0     1  0  0  0  0  0999 V2000
    7.5013   -0.4595    0.0000 O   0  0  0  0  0  0  0  0  0  0  0  0
    3.7320    0.3233    0.0000 O   0  0  0  0  0  0  0  0  0  0  0  0
    2.0000   -2.6767    0.0000 O   0  0  0  0  0  0  0  0  0  0  0  0
    9.7225    3.5488    0.0000 O   0  0  0  0  0  0  0  0  0  0  0  0
    5.5443   -0.8719    0.0000 N   0  0  0  0  0  0  0  0  0  0  0  0
    8.1226    1.4416    0.0000 N   0  0  3  0  0  0  0  0  0  0  0  0
    3.7320   -2.6767    0.0000 N   0  0  0  0  0  0  0  0  0  0  0  0
    2.8660   -1.1767    0.0000 N   0  0  0  0  0  0  0  0  0  0  0  0
    5.5443   -2.4814    0.0000 N   0  0  0  0  0  0  0  0  0  0  0  0
    6.8335    0.2848    0.0000 C   0  0  3  0  0  0  0  0  0  0  0  0
    5.8550    0.0786    0.0000 C   0  0  0  0  0  0  0  0  0  0  0  0
    7.1441    1.2353    0.0000 C   0  0  0  0  0  0  0  0  0  0  0  0
    4.5981   -1.1767    0.0000 C   0  0  0  0  0  0  0  0  0  0  0  0
    4.5981   -2.1767    0.0000 C   0  0  0  0  0  0  0  0  0  0  0  0
    6.1279   -1.6767    0.0000 C   0  0  0  0  0  0  0  0  0  0  0  0
    8.4333    2.3921    0.0000 C   0  0  0  0  0  0  0  0  0  0  0  0
    3.7320   -0.6767    0.0000 C   0  0  0  0  0  0  0  0  0  0  0  0
    2.8660   -2.1767    0.0000 C   0  0  0  0  0  0  0  0  0  0  0  0
    8.7905    0.6972    0.0000 C   0  0  0  0  0  0  0  0  0  0  0  0
    9.4118    2.5983    0.0000 C   0  0  0  0  0  0  0  0  0  0  0  0
    3.7320   -3.6767    0.0000 C   0  0  0  0  0  0  0  0  0  0  0  0
    2.0000   -0.6767    0.0000 C   0  0  0  0  0  0  0  0  0  0  0  0
    6.5694   -0.5231    0.0000 H   0  0  0  0  0  0  0  0  0  0  0  0
    5.8344    0.6982    0.0000 H   0  0  0  0  0  0  0  0  0  0  0  0
    5.2411    0.1659    0.0000 H   0  0  0  0  0  0  0  0  0  0  0  0
    7.1236    1.8550    0.0000 H   0  0  0  0  0  0  0  0  0  0  0  0
    6.5303    1.3227    0.0000 H   0  0  0  0  0  0  0  0  0  0  0  0
    6.7479   -1.6767    0.0000 H   0  0  0  0  0  0  0  0  0  0  0  0
    8.4127    3.0117    0.0000 H   0  0  0  0  0  0  0  0  0  0  0  0
    7.8195    2.4794    0.0000 H   0  0  0  0  0  0  0  0  0  0  0  0
    8.3290    0.2832    0.0000 H   0  0  0  0  0  0  0  0  0  0  0  0
    9.2045    0.2358    0.0000 H   0  0  0  0  0  0  0  0  0  0  0  0
    9.2519    1.1113    0.0000 H   0  0  0  0  0  0  0  0  0  0  0  0
    8.1080   -0.3316    0.0000 H   0  0  0  0  0  0  0  0  0  0  0  0
    9.4324    1.9786    0.0000 H   0  0  0  0  0  0  0  0  0  0  0  0
   10.0256    2.5109    0.0000 H   0  0  0  0  0  0  0  0  0  0  0  0
    3.1120   -3.6767    0.0000 H   0  0  0  0  0  0  0  0  0  0  0  0
    3.7320   -4.2967    0.0000 H   0  0  0  0  0  0  0  0  0  0  0  0
    4.3520   -3.6767    0.0000 H   0  0  0  0  0  0  0  0  0  0  0  0
    2.3100   -0.1397    0.0000 H   0  0  0  0  0  0  0  0  0  0  0  0
    1.4631   -0.3667    0.0000 H   0  0  0  0  0  0  0  0  0  0  0  0
    1.6900   -1.2136    0.0000 H   0  0  0  0  0  0  0  0  0  0  0  0
   10.3291    3.6767    0.0000 H   0  0  0  0  0  0  0  0  0  0  0  0
  1 10  1  0  0  0  0
  1 34  1  0  0  0  0
  2 17  2  0  0  0  0
  3 18  2  0  0  0  0
  4 20  1  0  0  0  0
  4 43  1  0  0  0  0
  5 11  1  0  0  0  0
  5 13  1  0  0  0  0
  5 15  1  0  0  0  0
  6 12  1  0  0  0  0
  6 16  1  0  0  0  0
  6 19  1  0  0  0  0
  7 14  1  0  0  0  0
  7 18  1  0  0  0  0
  7 21  1  0  0  0  0
  8 17  1  0  0  0  0
  8 18  1  0  0  0  0
  8 22  1  0  0  0  0
  9 14  1  0  0  0  0
  9 15  2  0  0  0  0
 10 11  1  0  0  0  0
 10 12  1  0  0  0  0
 10 23  1  0  0  0  0
 11 24  1  0  0  0  0
 11 25  1  0  0  0  0
 12 26  1  0  0  0  0
 12 27  1  0  0  0  0
 13 14  2  0  0  0  0
 13 17  1  0  0  0  0
 15 28  1  0  0  0  0
 16 20  1  0  0  0  0
 16 29  1  0  0  0  0
 16 30  1  0  0  0  0
 19 31  1  0  0  0  0
 19 32  1  0  0  0  0
 19 33  1  0  0  0  0
 20 35  1  0  0  0  0
 20 36  1  0  0  0  0
 21 37  1  0  0  0  0
 21 38  1  0  0  0  0
 21 39  1  0  0  0  0
 22 40  1  0  0  0  0
 22 41  1  0  0  0  0
 22 42  1  0  0  0  0
M  END
> <PUBCHEM_COMPOUND_CID>
9913

> <PUBCHEM_COMPOUND_CANONICALIZED>
1

> <PUBCHEM_CACTVS_COMPLEXITY>
435

> <PUBCHEM_CACTVS_HBOND_ACCEPTOR>
6

> <PUBCHEM_CACTVS_HBOND_DONOR>
2

> <PUBCHEM_CACTVS_ROTATABLE_BOND>
6

> <PUBCHEM_CACTVS_SUBSKEYS>
AAADceBzuAAAAAAAAAAAAAAAAAAAAWAAAAAsAAAAAAAAAFgBgAAAHgAACAAACBzhlgYHsBcMEgCoAQdxdACAgC0XEKABUAGoVECCWAhASCAUAIgIByLQAGAAAAAAAAAAAAAAAAAAAAAAAAAAAAAAAAAAAA==

> <PUBCHEM_IUPAC_OPENEYE_NAME>
7-[2-hydroxy-3-[2-hydroxyethyl(methyl)amino]propyl]-1,3-dimethyl-purine-2,6-dione

> <PUBCHEM_IUPAC_CAS_NAME>
7-[2-hydroxy-3-[2-hydroxyethyl(methyl)amino]propyl]-1,3-dimethylpurine-2,6-dione

> <PUBCHEM_IUPAC_NAME>
7-[2-hydroxy-3-[2-hydroxyethyl(methyl)amino]propyl]-1,3-dimethylpurine-2,6-dione

> <PUBCHEM_IUPAC_SYSTEMATIC_NAME>
7-[3-[2-hydroxyethyl(methyl)amino]-2-oxidanyl-propyl]-1,3-dimethyl-purine-2,6-dione

> <PUBCHEM_IUPAC_TRADITIONAL_NAME>
7-[2-hydroxy-3-[2-hydroxyethyl(methyl)amino]propyl]-1,3-dimethyl-xanthine

> <PUBCHEM_IUPAC_INCHI>
InChI=1S/C13H21N5O4/c1-15(4-5-19)6-9(20)7-18-8-14-11-10(18)12(21)17(3)13(22)16(11)2/h8-9,19-20H,4-7H2,1-3H3

> <PUBCHEM_IUPAC_INCHIKEY>
DSFGXPJYDCSWTA-UHFFFAOYSA-N

> <PUBCHEM_XLOGP3>
-1.8

> <PUBCHEM_EXACT_MASS>
311.159354

> <PUBCHEM_MOLECULAR_FORMULA>
C13H21N5O4

> <PUBCHEM_MOLECULAR_WEIGHT>
311.33694

> <PUBCHEM_OPENEYE_CAN_SMILES>
CN1C2=C(C(=O)N(C1=O)C)N(C=N2)CC(CN(C)CCO)O

> <PUBCHEM_OPENEYE_ISO_SMILES>
CN1C2=C(C(=O)N(C1=O)C)N(C=N2)CC(CN(C)CCO)O

> <PUBCHEM_CACTVS_TPSA>
102

> <PUBCHEM_MONOISOTOPIC_WEIGHT>
311.159354

> <PUBCHEM_TOTAL_CHARGE>
0

> <PUBCHEM_HEAVY_ATOM_COUNT>
22

> <PUBCHEM_ATOM_DEF_STEREO_COUNT>
0

> <PUBCHEM_ATOM_UDEF_STEREO_COUNT>
1

> <PUBCHEM_BOND_DEF_STEREO_COUNT>
0

> <PUBCHEM_BOND_UDEF_STEREO_COUNT>
0

> <PUBCHEM_ISOTOPIC_ATOM_COUNT>
0

> <PUBCHEM_COMPONENT_COUNT>
1

> <PUBCHEM_CACTVS_TAUTO_COUNT>
1

> <PUBCHEM_COORDINATE_TYPE>
1
5
255

> <PUBCHEM_BONDANNOTATIONS>
10  23  3
13  14  8
13  17  8
5  13  8
5  15  8
7  14  8
7  18  8
8  17  8
8  18  8
9  14  8
9  15  8

$$$$

