10006
  -OEChem-07051212502D

 11 11  0     0  0  0  0  0  0999 V2000
    2.0000   -0.4314    0.0000 O   0  0  0  0  0  0  0  0  0  0  0  0
    5.5202   -0.4314    0.0000 O   0  0  0  0  0  0  0  0  0  0  0  0
    4.2601    0.8286    0.0000 N   0  0  0  0  0  0  0  0  0  0  0  0
    3.7601   -0.7102    0.0000 N   0  0  0  0  0  0  0  0  0  0  0  0
    3.2601    0.8286    0.0000 C   0  0  0  0  0  0  0  0  0  0  0  0
    2.9511   -0.1224    0.0000 C   0  0  0  0  0  0  0  0  0  0  0  0
    4.5691   -0.1224    0.0000 C   0  0  0  0  0  0  0  0  0  0  0  0
    3.3249    1.4452    0.0000 H   0  0  0  0  0  0  0  0  0  0  0  0
    2.6536    0.9575    0.0000 H   0  0  0  0  0  0  0  0  0  0  0  0
    4.6245    1.3302    0.0000 H   0  0  0  0  0  0  0  0  0  0  0  0
    3.7601   -1.3302    0.0000 H   0  0  0  0  0  0  0  0  0  0  0  0
  1  6  2  0  0  0  0
  2  7  2  0  0  0  0
  3  5  1  0  0  0  0
  3  7  1  0  0  0  0
  3 10  1  0  0  0  0
  4  6  1  0  0  0  0
  4  7  1  0  0  0  0
  4 11  1  0  0  0  0
  5  6  1  0  0  0  0
  5  8  1  0  0  0  0
  5  9  1  0  0  0  0
M  END
> <PUBCHEM_COMPOUND_CID>
10006

> <PUBCHEM_COMPOUND_CANONICALIZED>
1

> <PUBCHEM_CACTVS_COMPLEXITY>
120

> <PUBCHEM_CACTVS_HBOND_ACCEPTOR>
2

> <PUBCHEM_CACTVS_HBOND_DONOR>
2

> <PUBCHEM_CACTVS_ROTATABLE_BOND>
0

> <PUBCHEM_CACTVS_SUBSKEYS>
AAADcYBDMAAAAAAAAAAAAAAAAAAAAWAAAAAAAAAAAAAAAAAAAAAAHgAQAAAAAADBgAQBAALAAAAIAAEQEAAAAAAAAAAAAICIAACAQAAAACAQAAAIFyIAAAAAAAAAAAAAAAAAAAAAAAAAAAAAAAAAAAAAAA==

> <PUBCHEM_IUPAC_OPENEYE_NAME>
imidazolidine-2,4-dione

> <PUBCHEM_IUPAC_CAS_NAME>
imidazolidine-2,4-dione

> <PUBCHEM_IUPAC_NAME>
imidazolidine-2,4-dione

> <PUBCHEM_IUPAC_SYSTEMATIC_NAME>
imidazolidine-2,4-dione

> <PUBCHEM_IUPAC_TRADITIONAL_NAME>
hydantoin

> <PUBCHEM_IUPAC_INCHI>
InChI=1S/C3H4N2O2/c6-2-1-4-3(7)5-2/h1H2,(H2,4,5,6,7)

> <PUBCHEM_IUPAC_INCHIKEY>
WJRBRSLFGCUECM-UHFFFAOYSA-N

> <PUBCHEM_XLOGP3>
-1.7

> <PUBCHEM_EXACT_MASS>
100.027277

> <PUBCHEM_MOLECULAR_FORMULA>
C3H4N2O2

> <PUBCHEM_MOLECULAR_WEIGHT>
100.07606

> <PUBCHEM_OPENEYE_CAN_SMILES>
C1C(=O)NC(=O)N1

> <PUBCHEM_OPENEYE_ISO_SMILES>
C1C(=O)NC(=O)N1

> <PUBCHEM_CACTVS_TPSA>
58.2

> <PUBCHEM_MONOISOTOPIC_WEIGHT>
100.027277

> <PUBCHEM_TOTAL_CHARGE>
0

> <PUBCHEM_HEAVY_ATOM_COUNT>
7

> <PUBCHEM_ATOM_DEF_STEREO_COUNT>
0

> <PUBCHEM_ATOM_UDEF_STEREO_COUNT>
0

> <PUBCHEM_BOND_DEF_STEREO_COUNT>
0

> <PUBCHEM_BOND_UDEF_STEREO_COUNT>
0

> <PUBCHEM_ISOTOPIC_ATOM_COUNT>
0

> <PUBCHEM_COMPONENT_COUNT>
1

> <PUBCHEM_CACTVS_TAUTO_COUNT>
8

> <PUBCHEM_COORDINATE_TYPE>
1
5
255

$$$$

