5281254
  -OEChem-07051212553D

 29 31  0     0  0  0  0  0  0999 V2000
    0.4825    0.4013    0.0018 O   0  0  0  0  0  0  0  0  0  0  0  0
    1.5100   -2.9871   -0.0105 O   0  0  0  0  0  0  0  0  0  0  0  0
    4.7831    2.6054    0.0097 O   0  0  0  0  0  0  0  0  0  0  0  0
   -5.7956    1.5673    0.0036 O   0  0  0  0  0  0  0  0  0  0  0  0
    2.4640   -0.7860   -0.0024 C   0  0  0  0  0  0  0  0  0  0  0  0
    1.8568    0.4684    0.0019 C   0  0  0  0  0  0  0  0  0  0  0  0
    0.1710   -0.9531   -0.0030 C   0  0  0  0  0  0  0  0  0  0  0  0
    1.4003   -1.7823   -0.0055 C   0  0  0  0  0  0  0  0  0  0  0  0
    3.8333   -0.9466   -0.0025 C   0  0  0  0  0  0  0  0  0  0  0  0
   -1.0688   -1.4448   -0.0054 C   0  0  0  0  0  0  0  0  0  0  0  0
    2.6069    1.6247    0.0069 C   0  0  0  0  0  0  0  0  0  0  0  0
   -2.3131   -0.6529   -0.0030 C   0  0  0  0  0  0  0  0  0  0  0  0
    3.9991    1.4899    0.0075 C   0  0  0  0  0  0  0  0  0  0  0  0
    4.6059    0.2172    0.0025 C   0  0  0  0  0  0  0  0  0  0  0  0
   -2.8968   -0.3131    1.2057 C   0  0  0  0  0  0  0  0  0  0  0  0
   -2.8707   -0.2650   -1.2096 C   0  0  0  0  0  0  0  0  0  0  0  0
   -4.0731    0.4365    1.2081 C   0  0  0  0  0  0  0  0  0  0  0  0
   -4.0469    0.4847   -1.2073 C   0  0  0  0  0  0  0  0  0  0  0  0
   -4.6482    0.8355    0.0015 C   0  0  0  0  0  0  0  0  0  0  0  0
   -1.2254   -2.5213   -0.0079 H   0  0  0  0  0  0  0  0  0  0  0  0
    4.2971   -1.9257   -0.0060 H   0  0  0  0  0  0  0  0  0  0  0  0
    2.1365    2.6017    0.0101 H   0  0  0  0  0  0  0  0  0  0  0  0
    5.6899    0.1290    0.0022 H   0  0  0  0  0  0  0  0  0  0  0  0
   -2.4579   -0.6182    2.1519 H   0  0  0  0  0  0  0  0  0  0  0  0
   -2.4116   -0.5323   -2.1576 H   0  0  0  0  0  0  0  0  0  0  0  0
   -4.5315    0.7034    2.1566 H   0  0  0  0  0  0  0  0  0  0  0  0
   -4.4901    0.7927   -2.1504 H   0  0  0  0  0  0  0  0  0  0  0  0
    5.7172    2.3340    0.0089 H   0  0  0  0  0  0  0  0  0  0  0  0
   -6.0712    1.7184    0.9241 H   0  0  0  0  0  0  0  0  0  0  0  0
  1  6  1  0  0  0  0
  1  7  1  0  0  0  0
  2  8  2  0  0  0  0
  3 13  1  0  0  0  0
  3 28  1  0  0  0  0
  4 19  1  0  0  0  0
  4 29  1  0  0  0  0
  5  6  2  0  0  0  0
  5  8  1  0  0  0  0
  5  9  1  0  0  0  0
  6 11  1  0  0  0  0
  7  8  1  0  0  0  0
  7 10  2  0  0  0  0
  9 14  2  0  0  0  0
  9 21  1  0  0  0  0
 10 12  1  0  0  0  0
 10 20  1  0  0  0  0
 11 13  2  0  0  0  0
 11 22  1  0  0  0  0
 12 15  2  0  0  0  0
 12 16  1  0  0  0  0
 13 14  1  0  0  0  0
 14 23  1  0  0  0  0
 15 17  1  0  0  0  0
 15 24  1  0  0  0  0
 16 18  2  0  0  0  0
 16 25  1  0  0  0  0
 17 19  2  0  0  0  0
 17 26  1  0  0  0  0
 18 19  1  0  0  0  0
 18 27  1  0  0  0  0
M  END
> <PUBCHEM_COMPOUND_CID>
5281254

> <PUBCHEM_CONFORMER_RMSD>
0.6

> <PUBCHEM_CONFORMER_DIVERSEORDER>
1
2

> <PUBCHEM_MMFF94_PARTIAL_CHARGES>
29
1 -0.16
10 -0.18
11 -0.15
12 0.03
13 0.08
14 -0.15
15 -0.15
16 -0.15
17 -0.15
18 -0.15
19 0.08
2 -0.57
20 0.15
21 0.15
22 0.15
23 0.15
24 0.15
25 0.15
26 0.15
27 0.15
28 0.45
29 0.45
3 -0.53
4 -0.53
5 0.09
6 0.08
7 0.09
8 0.47
9 -0.15

> <PUBCHEM_EFFECTIVE_ROTOR_COUNT>
1.2

> <PUBCHEM_PHARMACOPHORE_FEATURES>
7
1 1 acceptor
1 2 acceptor
1 3 donor
1 4 donor
5 1 5 6 7 8 rings
6 12 15 16 17 18 19 rings
6 5 6 9 11 13 14 rings

> <PUBCHEM_HEAVY_ATOM_COUNT>
19

> <PUBCHEM_ATOM_DEF_STEREO_COUNT>
0

> <PUBCHEM_ATOM_UDEF_STEREO_COUNT>
0

> <PUBCHEM_BOND_DEF_STEREO_COUNT>
1

> <PUBCHEM_BOND_UDEF_STEREO_COUNT>
0

> <PUBCHEM_ISOTOPIC_ATOM_COUNT>
0

> <PUBCHEM_COMPONENT_COUNT>
1

> <PUBCHEM_CACTVS_TAUTO_COUNT>
10

> <PUBCHEM_CONFORMER_ID>
005095E600000001

> <PUBCHEM_MMFF94_ENERGY>
56.6152

> <PUBCHEM_FEATURE_SELFOVERLAP>
35.624

> <PUBCHEM_SHAPE_FINGERPRINT>
10014705 185 18411140212639660013
10411042 1 17689998259970092270
11089746 13 17894919533300335328
11471102 20 18410012165091173686
11543360 7 15502374470316924976
11796584 16 14346066560112038396
12236239 1 17749392602707189663
12403259 415 18342164536509007482
12730499 353 18342168995028244491
13583140 156 15912507709045519284
13675066 3 17846494824783037130
1420 369 10375876281131064776
14848178 96 18189340074080851520
15188451 53 14907614533445205929
15196674 1 18410575054603595590
15342168 16 18411134732245631333
15375358 24 18202282515539603491
1601671 61 18131347463187601084
17870717 6 13984658140614124445
1813 80 17463963927880540006
18186145 218 18336822014142214798
19784866 34 18409169878933208514
19784866 9 18410576205892377050
19862831 5 17385723595106364211
20157964 124 18338237180460225477
204376 136 18411417272052718026
20612939 158 18334853944052170886
20645477 56 18060418049646901415
20645477 70 18335702792540642246
21033648 29 17346608507982734405
22950370 63 9943538439655362184
231179 274 18272936033133980790
23402655 69 18187649072451832996
23559900 14 18336265730121039762
25 1 18411420600789561474
2838139 119 18052830436264083693
293599 30 18339638933126346580
335352 9 18410573994691224798
34797466 226 14707214266479100472
3545911 37 18412259549921032819
4072396 5 18339655533090718826
474 4 18408885131001650747
5104073 3 18272374144053384650
602551 16 16056585530874251923
633830 44 18334575724671421902
76465 3 8574447404209358220
8272917 22 18335420230810553214
9971528 1 17968379048061769270

> <PUBCHEM_SHAPE_MULTIPOLES>
367.53
11.24
2.14
0.92
4.77
0.27
0
-6.86
0.05
-2.24
0
1.13
-0.03
0.04

> <PUBCHEM_SHAPE_SELFOVERLAP>
822.067

> <PUBCHEM_SHAPE_VOLUME>
195.9

> <PUBCHEM_COORDINATE_TYPE>
2
5
10

$$$$

