73062
  -OEChem-07051213023D

 52 55  0     1  0  0  0  0  0999 V2000
   -2.8575    1.5954    1.5166 O   0  0  0  0  0  0  0  0  0  0  0  0
   -3.9635   -0.3978    1.4960 O   0  0  0  0  0  0  0  0  0  0  0  0
    1.6999    0.7980   -0.2837 C   0  0  2  0  0  0  0  0  0  0  0  0
    1.0507   -0.6078   -0.5759 C   0  0  2  0  0  0  0  0  0  0  0  0
   -0.4701   -0.7770   -0.1331 C   0  0  1  0  0  0  0  0  0  0  0  0
   -1.2736    0.4765   -0.6428 C   0  0  2  0  0  0  0  0  0  0  0  0
    2.2341    0.8963    1.1556 C   0  0  0  0  0  0  0  0  0  0  0  0
    0.7610    1.9550   -0.6408 C   0  0  0  0  0  0  0  0  0  0  0  0
    3.4090   -0.0771    1.1223 C   0  0  1  0  0  0  0  0  0  0  0  0
   -0.6592    1.7847   -0.1147 C   0  0  0  0  0  0  0  0  0  0  0  0
    1.9845   -1.7787   -0.1529 C   0  0  0  0  0  0  0  0  0  0  0  0
    3.0361    0.9537   -1.0775 C   0  0  0  0  0  0  0  0  0  0  0  0
   -2.8261    0.3777   -0.5011 C   0  0  2  0  0  0  0  0  0  0  0  0
   -1.0683   -2.0328   -0.8423 C   0  0  0  0  0  0  0  0  0  0  0  0
    2.8707   -1.5091    1.0722 C   0  0  0  0  0  0  0  0  0  0  0  0
    4.0599    0.3054   -0.1823 C   0  0  0  0  0  0  0  0  0  0  0  0
   -0.5984   -0.9948    1.3919 C   0  0  0  0  0  0  0  0  0  0  0  0
   -3.3302   -0.9297   -1.1494 C   0  0  0  0  0  0  0  0  0  0  0  0
   -2.5823   -2.1755   -0.6928 C   0  0  0  0  0  0  0  0  0  0  0  0
   -3.5378    1.5494   -1.2104 C   0  0  0  0  0  0  0  0  0  0  0  0
   -3.2894    0.4512    0.9320 C   0  0  0  0  0  0  0  0  0  0  0  0
    5.3506    0.1371   -0.4869 C   0  0  0  0  0  0  0  0  0  0  0  0
    1.0074   -0.6717   -1.6756 H   0  0  0  0  0  0  0  0  0  0  0  0
   -1.1080    0.5029   -1.7333 H   0  0  0  0  0  0  0  0  0  0  0  0
    1.5106    0.6427    1.9290 H   0  0  0  0  0  0  0  0  0  0  0  0
    2.5882    1.9131    1.3765 H   0  0  0  0  0  0  0  0  0  0  0  0
    0.7144    2.0556   -1.7339 H   0  0  0  0  0  0  0  0  0  0  0  0
    1.1663    2.9051   -0.2699 H   0  0  0  0  0  0  0  0  0  0  0  0
    4.0691    0.0669    1.9835 H   0  0  0  0  0  0  0  0  0  0  0  0
   -0.6194    1.8201    0.9764 H   0  0  0  0  0  0  0  0  0  0  0  0
   -1.2313    2.6561   -0.4456 H   0  0  0  0  0  0  0  0  0  0  0  0
    2.6516   -1.9876   -1.0014 H   0  0  0  0  0  0  0  0  0  0  0  0
    1.4397   -2.7138    0.0013 H   0  0  0  0  0  0  0  0  0  0  0  0
    3.2922    2.0123   -1.2089 H   0  0  0  0  0  0  0  0  0  0  0  0
    2.9882    0.4789   -2.0629 H   0  0  0  0  0  0  0  0  0  0  0  0
   -0.6087   -2.9518   -0.4630 H   0  0  0  0  0  0  0  0  0  0  0  0
   -0.8348   -1.9922   -1.9146 H   0  0  0  0  0  0  0  0  0  0  0  0
    2.3039   -1.7088    1.9888 H   0  0  0  0  0  0  0  0  0  0  0  0
    3.7041   -2.2228    1.0688 H   0  0  0  0  0  0  0  0  0  0  0  0
   -1.5930   -1.3240    1.6939 H   0  0  0  0  0  0  0  0  0  0  0  0
    0.0729   -1.7831    1.7418 H   0  0  0  0  0  0  0  0  0  0  0  0
   -0.3899   -0.0955    1.9705 H   0  0  0  0  0  0  0  0  0  0  0  0
   -3.2211   -0.8533   -2.2402 H   0  0  0  0  0  0  0  0  0  0  0  0
   -4.4028   -1.0725   -0.9642 H   0  0  0  0  0  0  0  0  0  0  0  0
   -2.8462   -2.4289    0.3383 H   0  0  0  0  0  0  0  0  0  0  0  0
   -2.9162   -3.0279   -1.2976 H   0  0  0  0  0  0  0  0  0  0  0  0
   -3.2299    1.6170   -2.2601 H   0  0  0  0  0  0  0  0  0  0  0  0
   -4.6262    1.4107   -1.1962 H   0  0  0  0  0  0  0  0  0  0  0  0
   -3.3485    2.5227   -0.7474 H   0  0  0  0  0  0  0  0  0  0  0  0
    6.0352   -0.3245    0.2162 H   0  0  0  0  0  0  0  0  0  0  0  0
    5.7445    0.4569   -1.4454 H   0  0  0  0  0  0  0  0  0  0  0  0
   -3.1472    1.6611    2.4514 H   0  0  0  0  0  0  0  0  0  0  0  0
  1 21  1  0  0  0  0
  1 52  1  0  0  0  0
  2 21  2  0  0  0  0
  3  4  1  0  0  0  0
  3  7  1  0  0  0  0
  3  8  1  0  0  0  0
  3 12  1  0  0  0  0
  4  5  1  0  0  0  0
  4 11  1  0  0  0  0
  4 23  1  0  0  0  0
  5  6  1  0  0  0  0
  5 14  1  0  0  0  0
  5 17  1  0  0  0  0
  6 10  1  0  0  0  0
  6 13  1  0  0  0  0
  6 24  1  0  0  0  0
  7  9  1  0  0  0  0
  7 25  1  0  0  0  0
  7 26  1  0  0  0  0
  8 10  1  0  0  0  0
  8 27  1  0  0  0  0
  8 28  1  0  0  0  0
  9 15  1  0  0  0  0
  9 16  1  0  0  0  0
  9 29  1  0  0  0  0
 10 30  1  0  0  0  0
 10 31  1  0  0  0  0
 11 15  1  0  0  0  0
 11 32  1  0  0  0  0
 11 33  1  0  0  0  0
 12 16  1  0  0  0  0
 12 34  1  0  0  0  0
 12 35  1  0  0  0  0
 13 18  1  0  0  0  0
 13 20  1  0  0  0  0
 13 21  1  0  0  0  0
 14 19  1  0  0  0  0
 14 36  1  0  0  0  0
 14 37  1  0  0  0  0
 15 38  1  0  0  0  0
 15 39  1  0  0  0  0
 16 22  2  0  0  0  0
 17 40  1  0  0  0  0
 17 41  1  0  0  0  0
 17 42  1  0  0  0  0
 18 19  1  0  0  0  0
 18 43  1  0  0  0  0
 18 44  1  0  0  0  0
 19 45  1  0  0  0  0
 19 46  1  0  0  0  0
 20 47  1  0  0  0  0
 20 48  1  0  0  0  0
 20 49  1  0  0  0  0
 22 50  1  0  0  0  0
 22 51  1  0  0  0  0
M  END
> <PUBCHEM_COMPOUND_CID>
73062

> <PUBCHEM_CONFORMER_RMSD>
0.6

> <PUBCHEM_CONFORMER_DIVERSEORDER>
1
2

> <PUBCHEM_MMFF94_PARTIAL_CHARGES>
11
1 -0.65
12 0.14
13 0.06
16 -0.28
2 -0.57
21 0.66
22 -0.3
50 0.15
51 0.15
52 0.5
9 0.14

> <PUBCHEM_EFFECTIVE_ROTOR_COUNT>
3

> <PUBCHEM_PHARMACOPHORE_FEATURES>
6
1 1 acceptor
1 2 acceptor
3 1 2 21 anion
6 3 4 5 6 8 10 rings
6 5 6 13 14 18 19 rings
8 3 4 7 9 11 12 15 16 rings

> <PUBCHEM_HEAVY_ATOM_COUNT>
22

> <PUBCHEM_ATOM_DEF_STEREO_COUNT>
6

> <PUBCHEM_ATOM_UDEF_STEREO_COUNT>
0

> <PUBCHEM_BOND_DEF_STEREO_COUNT>
0

> <PUBCHEM_BOND_UDEF_STEREO_COUNT>
0

> <PUBCHEM_ISOTOPIC_ATOM_COUNT>
0

> <PUBCHEM_COMPONENT_COUNT>
1

> <PUBCHEM_CACTVS_TAUTO_COUNT>
1

> <PUBCHEM_CONFORMER_ID>
00011D6600000001

> <PUBCHEM_MMFF94_ENERGY>
88.2773

> <PUBCHEM_FEATURE_SELFOVERLAP>
30.532

> <PUBCHEM_SHAPE_FINGERPRINT>
10062212 137 18341907276447193839
10498660 4 18410302410433346516
10616163 171 18411141307645746462
10646746 165 17675925387327908784
10863032 1 18114187457662647286
11132069 177 18410586080122365028
12011746 2 18335988644210035092
12077114 3 18202290242312447725
12173636 292 17821725074599262103
12236239 1 18411136930809905157
12403814 3 17988647406410485093
12491281 212 18333730230078018619
12553582 1 18341617001261913100
12633257 1 17967541202483179434
13140716 1 18266172825352898672
13172582 1 18411138047775773725
13221675 6 18343863316586763292
13224815 77 18342741810062205854
13296908 3 16774078483451298016
13583140 156 17561366184039755421
14004511 7 18186802473930658398
14289901 80 16845565400905560777
14787075 74 17774430586467528459
14955137 171 18268406010999836484
15196674 1 18341338863611746766
15209289 33 18186235117430429654
15209294 21 17895187844033491817
15309172 13 18409727374204395311
15375462 189 18343582923783601192
15788980 27 18202005438888868406
1601671 61 18407477769741354180
16752209 62 18340785774671031133
16945 1 18334581251888129997
17349148 13 18187944862501923847
18186145 218 17676211272787567992
200 152 18261121725238728887
20261772 1 18410004421001193651
20600515 1 17968363590242862604
21267235 1 18411697647475733118
23184049 59 18337950198565386011
2334 1 17907018378689786628
23402539 116 18060706095844382268
23493267 7 17775569766318570817
23557571 272 17240765026088860855
23559900 14 18113902642087584132
2748010 2 17979358877907273620
296302 2 15698000743109192172
3286 77 17603876533458861128
34934 24 18271252702232806876
350125 39 18337106748940866447
5104073 3 18335989679682132794
633830 44 17489313043698336010
6992083 37 18410296912859097477
74978 22 18335707078891278884
90525 40 18335425668423649439
9981440 41 17113544710337081888

> <PUBCHEM_SHAPE_MULTIPOLES>
441.01
7.96
2.08
1.38
3.47
0.27
-0.38
-0.54
0.02
-0.81
0.31
-0.61
-0.02
-0.59

> <PUBCHEM_SHAPE_SELFOVERLAP>
950.961

> <PUBCHEM_SHAPE_VOLUME>
240.9

> <PUBCHEM_COORDINATE_TYPE>
2
5
10

$$$$

