5281693
  -OEChem-07051212592D

 92 97  0     1  0  0  0  0  0999 V2000
    5.4641    0.0950    0.0000 O   0  0  0  0  0  0  0  0  0  0  0  0
    6.3301   -2.4050    0.0000 O   0  0  0  0  0  0  0  0  0  0  0  0
    8.0622   -2.4050    0.0000 O   0  0  0  0  0  0  0  0  0  0  0  0
    4.5981   -2.4050    0.0000 O   0  0  0  0  0  0  0  0  0  0  0  0
    4.5981    1.5950    0.0000 O   0  0  0  0  0  0  0  0  0  0  0  0
    2.8660   -1.4050    0.0000 O   0  0  0  0  0  0  0  0  0  0  0  0
    2.8660    0.5950    0.0000 O   0  0  0  0  0  0  0  0  0  0  0  0
   11.5923    3.6258    0.0000 O   0  0  0  0  0  0  0  0  0  0  0  0
    6.3301   -4.4050    0.0000 O   0  0  0  0  0  0  0  0  0  0  0  0
    8.0622   -5.4050    0.0000 O   0  0  0  0  0  0  0  0  0  0  0  0
    9.7942   -4.4050    0.0000 O   0  0  0  0  0  0  0  0  0  0  0  0
    9.8602    3.6192    0.0000 O   0  0  0  0  0  0  0  0  0  0  0  0
   11.6039    0.6258    0.0000 O   0  0  0  0  0  0  0  0  0  0  0  0
   13.3320    1.6325    0.0000 O   0  0  0  0  0  0  0  0  0  0  0  0
    9.8680    1.6192    0.0000 O   0  0  0  0  0  0  0  0  0  0  0  0
    6.3301    3.5950    0.0000 O   0  0  0  0  0  0  0  0  0  0  0  0
    6.3301    0.5950    0.0000 O   0  0  0  0  0  0  0  0  0  0  0  0
    8.0785    0.5604    0.0000 O   0  0  0  0  0  0  0  0  0  0  0  0
    2.0000    5.0950    0.0000 O   0  0  0  0  0  0  0  0  0  0  0  0
    5.4641   -0.9050    0.0000 C   0  0  1  0  0  0  0  0  0  0  0  0
    4.5981   -1.4050    0.0000 C   0  0  1  0  0  0  0  0  0  0  0  0
    3.7320   -0.9050    0.0000 C   0  0  1  0  0  0  0  0  0  0  0  0
    3.7320    0.0950    0.0000 C   0  0  2  0  0  0  0  0  0  0  0  0
    7.1962   -3.9050    0.0000 C   0  0  1  0  0  0  0  0  0  0  0  0
    7.1962   -2.9050    0.0000 C   0  0  2  0  0  0  0  0  0  0  0  0
    8.0622   -4.4050    0.0000 C   0  0  1  0  0  0  0  0  0  0  0  0
    8.9282   -3.9050    0.0000 C   0  0  2  0  0  0  0  0  0  0  0  0
    4.5981    0.5950    0.0000 C   0  0  1  0  0  0  0  0  0  0  0  0
    6.3301   -1.4050    0.0000 C   0  0  0  0  0  0  0  0  0  0  0  0
    8.9282   -2.9050    0.0000 C   0  0  2  0  0  0  0  0  0  0  0  0
   11.6000    1.6258    0.0000 C   0  0  2  0  0  0  0  0  0  0  0  0
   12.4641    2.1292    0.0000 C   0  0  2  0  0  0  0  0  0  0  0  0
   10.7321    2.1225    0.0000 C   0  0  2  0  0  0  0  0  0  0  0  0
   12.4602    3.1292    0.0000 C   0  0  2  0  0  0  0  0  0  0  0  0
   10.7282    3.1225    0.0000 C   0  0  1  0  0  0  0  0  0  0  0  0
    9.7942   -2.4050    0.0000 C   0  0  0  0  0  0  0  0  0  0  0  0
   13.3243    3.6325    0.0000 C   0  0  0  0  0  0  0  0  0  0  0  0
    5.4641    2.0950    0.0000 C   0  0  0  0  0  0  0  0  0  0  0  0
    5.4641    3.0950    0.0000 C   0  0  0  0  0  0  0  0  0  0  0  0
    6.3301    1.5950    0.0000 C   0  0  0  0  0  0  0  0  0  0  0  0
    8.9962    3.1158    0.0000 C   0  0  0  0  0  0  0  0  0  0  0  0
    7.1962    2.0950    0.0000 C   0  0  0  0  0  0  0  0  0  0  0  0
    7.1962    3.0950    0.0000 C   0  0  0  0  0  0  0  0  0  0  0  0
    8.0901    3.6297    0.0000 C   0  0  0  0  0  0  0  0  0  0  0  0
    8.9962    2.0742    0.0000 C   0  0  0  0  0  0  0  0  0  0  0  0
    8.0901    1.5603    0.0000 C   0  0  0  0  0  0  0  0  0  0  0  0
    4.5981    3.5950    0.0000 C   0  0  0  0  0  0  0  0  0  0  0  0
    4.5981    4.5950    0.0000 C   0  0  0  0  0  0  0  0  0  0  0  0
    3.7320    3.0950    0.0000 C   0  0  0  0  0  0  0  0  0  0  0  0
    3.7320    5.0950    0.0000 C   0  0  0  0  0  0  0  0  0  0  0  0
    2.8660    3.5950    0.0000 C   0  0  0  0  0  0  0  0  0  0  0  0
    2.8660    4.5950    0.0000 C   0  0  0  0  0  0  0  0  0  0  0  0
    6.0010   -0.5950    0.0000 H   0  0  0  0  0  0  0  0  0  0  0  0
    5.1350   -1.7150    0.0000 H   0  0  0  0  0  0  0  0  0  0  0  0
    3.7320   -1.5250    0.0000 H   0  0  0  0  0  0  0  0  0  0  0  0
    3.7320    0.7150    0.0000 H   0  0  0  0  0  0  0  0  0  0  0  0
    6.6592   -3.5950    0.0000 H   0  0  0  0  0  0  0  0  0  0  0  0
    6.6592   -3.2150    0.0000 H   0  0  0  0  0  0  0  0  0  0  0  0
    7.5252   -4.7150    0.0000 H   0  0  0  0  0  0  0  0  0  0  0  0
    9.4651   -3.5950    0.0000 H   0  0  0  0  0  0  0  0  0  0  0  0
    4.0611    0.9050    0.0000 H   0  0  0  0  0  0  0  0  0  0  0  0
    6.9407   -1.5127    0.0000 H   0  0  0  0  0  0  0  0  0  0  0  0
    6.5422   -0.8224    0.0000 H   0  0  0  0  0  0  0  0  0  0  0  0
    8.9282   -2.2850    0.0000 H   0  0  0  0  0  0  0  0  0  0  0  0
   12.1381    1.3179    0.0000 H   0  0  0  0  0  0  0  0  0  0  0  0
   12.4665    1.5092    0.0000 H   0  0  0  0  0  0  0  0  0  0  0  0
   10.7344    1.5025    0.0000 H   0  0  0  0  0  0  0  0  0  0  0  0
   12.4578    3.7492    0.0000 H   0  0  0  0  0  0  0  0  0  0  0  0
   10.1925    2.8104    0.0000 H   0  0  0  0  0  0  0  0  0  0  0  0
   10.1042   -2.9419    0.0000 H   0  0  0  0  0  0  0  0  0  0  0  0
   10.3312   -2.0950    0.0000 H   0  0  0  0  0  0  0  0  0  0  0  0
    9.4842   -1.8681    0.0000 H   0  0  0  0  0  0  0  0  0  0  0  0
    5.1350   -2.7150    0.0000 H   0  0  0  0  0  0  0  0  0  0  0  0
    2.8660   -2.0250    0.0000 H   0  0  0  0  0  0  0  0  0  0  0  0
    2.3291    0.2850    0.0000 H   0  0  0  0  0  0  0  0  0  0  0  0
    6.3301   -5.0250    0.0000 H   0  0  0  0  0  0  0  0  0  0  0  0
    8.5991   -5.7150    0.0000 H   0  0  0  0  0  0  0  0  0  0  0  0
   10.3312   -4.0950    0.0000 H   0  0  0  0  0  0  0  0  0  0  0  0
   13.6364    3.0968    0.0000 H   0  0  0  0  0  0  0  0  0  0  0  0
   13.8601    3.9446    0.0000 H   0  0  0  0  0  0  0  0  0  0  0  0
   13.0123    4.1682    0.0000 H   0  0  0  0  0  0  0  0  0  0  0  0
   12.1420    0.3179    0.0000 H   0  0  0  0  0  0  0  0  0  0  0  0
   13.8678    1.9446    0.0000 H   0  0  0  0  0  0  0  0  0  0  0  0
    9.8704    0.9992    0.0000 H   0  0  0  0  0  0  0  0  0  0  0  0
    8.0829    4.2496    0.0000 H   0  0  0  0  0  0  0  0  0  0  0  0
    9.5319    1.7621    0.0000 H   0  0  0  0  0  0  0  0  0  0  0  0
    5.1350    4.9050    0.0000 H   0  0  0  0  0  0  0  0  0  0  0  0
    3.7320    2.4750    0.0000 H   0  0  0  0  0  0  0  0  0  0  0  0
    8.6118    0.2442    0.0000 H   0  0  0  0  0  0  0  0  0  0  0  0
    3.7320    5.7150    0.0000 H   0  0  0  0  0  0  0  0  0  0  0  0
    2.3291    3.2850    0.0000 H   0  0  0  0  0  0  0  0  0  0  0  0
    2.0000    5.7150    0.0000 H   0  0  0  0  0  0  0  0  0  0  0  0
  1 20  1  0  0  0  0
  1 28  1  0  0  0  0
 25  2  1  6  0  0  0
  2 29  1  0  0  0  0
  3 25  1  0  0  0  0
  3 30  1  0  0  0  0
 21  4  1  6  0  0  0
  4 73  1  0  0  0  0
 28  5  1  6  0  0  0
  5 38  1  0  0  0  0
 22  6  1  6  0  0  0
  6 74  1  0  0  0  0
 23  7  1  1  0  0  0
  7 75  1  0  0  0  0
  8 34  1  0  0  0  0
  8 35  1  0  0  0  0
 24  9  1  1  0  0  0
  9 76  1  0  0  0  0
 26 10  1  1  0  0  0
 10 77  1  0  0  0  0
 27 11  1  6  0  0  0
 11 78  1  0  0  0  0
 35 12  1  6  0  0  0
 12 41  1  0  0  0  0
 31 13  1  1  0  0  0
 13 82  1  0  0  0  0
 32 14  1  6  0  0  0
 14 83  1  0  0  0  0
 33 15  1  1  0  0  0
 15 84  1  0  0  0  0
 16 39  1  0  0  0  0
 16 43  1  0  0  0  0
 17 40  2  0  0  0  0
 18 46  1  0  0  0  0
 18 89  1  0  0  0  0
 19 52  1  0  0  0  0
 19 92  1  0  0  0  0
 20 21  1  0  0  0  0
 20 29  1  6  0  0  0
 20 53  1  0  0  0  0
 21 22  1  0  0  0  0
 21 54  1  0  0  0  0
 22 23  1  0  0  0  0
 22 55  1  0  0  0  0
 23 28  1  0  0  0  0
 23 56  1  0  0  0  0
 24 25  1  0  0  0  0
 24 26  1  0  0  0  0
 24 57  1  0  0  0  0
 25 58  1  0  0  0  0
 26 27  1  0  0  0  0
 26 59  1  0  0  0  0
 27 30  1  0  0  0  0
 27 60  1  0  0  0  0
 28 61  1  0  0  0  0
 29 62  1  0  0  0  0
 29 63  1  0  0  0  0
 30 36  1  1  0  0  0
 30 64  1  0  0  0  0
 31 32  1  0  0  0  0
 31 33  1  0  0  0  0
 31 65  1  0  0  0  0
 32 34  1  0  0  0  0
 32 66  1  0  0  0  0
 33 35  1  0  0  0  0
 33 67  1  0  0  0  0
 34 37  1  1  0  0  0
 34 68  1  0  0  0  0
 35 69  1  0  0  0  0
 36 70  1  0  0  0  0
 36 71  1  0  0  0  0
 36 72  1  0  0  0  0
 37 79  1  0  0  0  0
 37 80  1  0  0  0  0
 37 81  1  0  0  0  0
 38 39  2  0  0  0  0
 38 40  1  0  0  0  0
 39 47  1  0  0  0  0
 40 42  1  0  0  0  0
 41 44  1  0  0  0  0
 41 45  2  0  0  0  0
 42 43  1  0  0  0  0
 42 46  2  0  0  0  0
 43 44  2  0  0  0  0
 44 85  1  0  0  0  0
 45 46  1  0  0  0  0
 45 86  1  0  0  0  0
 47 48  2  0  0  0  0
 47 49  1  0  0  0  0
 48 50  1  0  0  0  0
 48 87  1  0  0  0  0
 49 51  2  0  0  0  0
 49 88  1  0  0  0  0
 50 52  2  0  0  0  0
 50 90  1  0  0  0  0
 51 52  1  0  0  0  0
 51 91  1  0  0  0  0
M  END
> <PUBCHEM_COMPOUND_CID>
5281693

> <PUBCHEM_COMPOUND_CANONICALIZED>
1

> <PUBCHEM_CACTVS_COMPLEXITY>
1260

> <PUBCHEM_CACTVS_HBOND_ACCEPTOR>
19

> <PUBCHEM_CACTVS_HBOND_DONOR>
11

> <PUBCHEM_CACTVS_ROTATABLE_BOND>
8

> <PUBCHEM_CACTVS_SUBSKEYS>
AAADcfB8PgAAAAAAAAAAAAAAAAAAAAAAAAA0aJECAAAAAACBQAAAGgAACAAADBSwmAMyDoAABgCIAqBSAAICCAAkIAAIiAFGCMgdNzaGNR6ieWCl4BUPuQfI7KzOIAAACAAIAABAAAAQABAAAAAAAAAAAA==

> <PUBCHEM_IUPAC_OPENEYE_NAME>
5-hydroxy-2-(4-hydroxyphenyl)-7-[(2S,3R,4R,5R,6S)-3,4,5-trihydroxy-6-methyl-tetrahydropyran-2-yl]oxy-3-[(2S,3R,4S,5R,6R)-3,4,5-trihydroxy-6-[[(2S,3R,4R,5R,6S)-3,4,5-trihydroxy-6-methyl-tetrahydropyran-2-yl]oxymethyl]tetrahydropyran-2-yl]oxy-chromen-4-one

> <PUBCHEM_IUPAC_CAS_NAME>
5-hydroxy-2-(4-hydroxyphenyl)-7-[[(2S,3R,4R,5R,6S)-3,4,5-trihydroxy-6-methyl-2-oxanyl]oxy]-3-[[(2S,3R,4S,5R,6R)-3,4,5-trihydroxy-6-[[(2S,3R,4R,5R,6S)-3,4,5-trihydroxy-6-methyl-2-oxanyl]oxymethyl]-2-oxanyl]oxy]-1-benzopyran-4-one

> <PUBCHEM_IUPAC_NAME>
5-hydroxy-2-(4-hydroxyphenyl)-7-[(2S,3R,4R,5R,6S)-3,4,5-trihydroxy-6-methyloxan-2-yl]oxy-3-[(2S,3R,4S,5R,6R)-3,4,5-trihydroxy-6-[[(2S,3R,4R,5R,6S)-3,4,5-trihydroxy-6-methyloxan-2-yl]oxymethyl]oxan-2-yl]oxychromen-4-one

> <PUBCHEM_IUPAC_SYSTEMATIC_NAME>
2-(4-hydroxyphenyl)-7-[(2S,3R,4R,5R,6S)-6-methyl-3,4,5-tris(oxidanyl)oxan-2-yl]oxy-3-[(2S,3R,4S,5R,6R)-6-[[(2S,3R,4R,5R,6S)-6-methyl-3,4,5-tris(oxidanyl)oxan-2-yl]oxymethyl]-3,4,5-tris(oxidanyl)oxan-2-yl]oxy-5-oxidanyl-chromen-4-one

> <PUBCHEM_IUPAC_TRADITIONAL_NAME>
5-hydroxy-2-(4-hydroxyphenyl)-7-[(2S,3R,4R,5R,6S)-3,4,5-trihydroxy-6-methyl-tetrahydropyran-2-yl]oxy-3-[(2S,3R,4S,5R,6R)-3,4,5-trihydroxy-6-[[(2S,3R,4R,5R,6S)-3,4,5-trihydroxy-6-methyl-tetrahydropyran-2-yl]oxymethyl]tetrahydropyran-2-yl]oxy-chromone

> <PUBCHEM_IUPAC_INCHI>
InChI=1S/C33H40O19/c1-10-19(36)23(40)26(43)31(47-10)46-9-17-21(38)25(42)28(45)33(51-17)52-30-22(39)18-15(35)7-14(49-32-27(44)24(41)20(37)11(2)48-32)8-16(18)50-29(30)12-3-5-13(34)6-4-12/h3-8,10-11,17,19-21,23-28,31-38,40-45H,9H2,1-2H3/t10-,11-,17+,19-,20-,21-,23+,24+,25-,26+,27+,28+,31+,32-,33-/m0/s1

> <PUBCHEM_IUPAC_INCHIKEY>
PEFASEPMJYRQBW-HKWQTAEVSA-N

> <PUBCHEM_XLOGP3_AA>
-2.2

> <PUBCHEM_EXACT_MASS>
740.216379

> <PUBCHEM_MOLECULAR_FORMULA>
C33H40O19

> <PUBCHEM_MOLECULAR_WEIGHT>
740.6593

> <PUBCHEM_OPENEYE_CAN_SMILES>
CC1C(C(C(C(O1)OCC2C(C(C(C(O2)OC3=C(OC4=CC(=CC(=C4C3=O)O)OC5C(C(C(C(O5)C)O)O)O)C6=CC=C(C=C6)O)O)O)O)O)O)O

> <PUBCHEM_OPENEYE_ISO_SMILES>
C[C@H]1[C@@H]([C@H]([C@H]([C@@H](O1)OC[C@@H]2[C@@H]([C@@H]([C@H]([C@@H](O2)OC3=C(OC4=CC(=CC(=C4C3=O)O)O[C@H]5[C@@H]([C@@H]([C@H]([C@@H](O5)C)O)O)O)C6=CC=C(C=C6)O)O)O)O)O)O)O

> <PUBCHEM_CACTVS_TPSA>
304

> <PUBCHEM_MONOISOTOPIC_WEIGHT>
740.216379

> <PUBCHEM_TOTAL_CHARGE>
0

> <PUBCHEM_HEAVY_ATOM_COUNT>
52

> <PUBCHEM_ATOM_DEF_STEREO_COUNT>
15

> <PUBCHEM_ATOM_UDEF_STEREO_COUNT>
0

> <PUBCHEM_BOND_DEF_STEREO_COUNT>
0

> <PUBCHEM_BOND_UDEF_STEREO_COUNT>
0

> <PUBCHEM_ISOTOPIC_ATOM_COUNT>
0

> <PUBCHEM_COMPONENT_COUNT>
1

> <PUBCHEM_CACTVS_TAUTO_COUNT>
24

> <PUBCHEM_COORDINATE_TYPE>
1
5
255

> <PUBCHEM_BONDANNOTATIONS>
26  10  5
27  11  6
35  12  6
31  13  5
32  14  6
33  15  5
16  39  8
16  43  8
25  2  6
20  29  6
30  36  5
34  37  5
38  39  8
38  40  8
21  4  6
40  42  8
41  44  8
41  45  8
42  43  8
42  46  8
43  44  8
45  46  8
47  48  8
47  49  8
48  50  8
49  51  8
28  5  6
50  52  8
51  52  8
22  6  6
23  7  5
24  9  5

$$$$

