5020
  -OEChem-06261200283D

 38 41  0     1  0  0  0  0  0999 V2000
   -1.2412    4.2057   -0.3333 O   0  0  0  0  0  0  0  0  0  0  0  0
    2.6779    1.8584    0.6047 O   0  0  0  0  0  0  0  0  0  0  0  0
    4.9113    0.3715    0.4213 O   0  0  0  0  0  0  0  0  0  0  0  0
   -2.5362   -2.0824   -0.1006 N   0  0  2  0  0  0  0  0  0  0  0  0
   -1.2233   -1.4604    0.2129 C   0  0  2  0  0  0  0  0  0  0  0  0
   -1.2263    0.0620    0.0379 C   0  0  0  0  0  0  0  0  0  0  0  0
   -0.0919   -2.0584   -0.6540 C   0  0  0  0  0  0  0  0  0  0  0  0
   -2.4435    0.7711    0.0434 C   0  0  0  0  0  0  0  0  0  0  0  0
   -3.6068   -1.3862    0.6307 C   0  0  0  0  0  0  0  0  0  0  0  0
   -3.7558    0.0409    0.1116 C   0  0  0  0  0  0  0  0  0  0  0  0
    0.0077    0.7537   -0.0649 C   0  0  0  0  0  0  0  0  0  0  0  0
    1.2357   -1.3948   -0.3634 C   0  0  0  0  0  0  0  0  0  0  0  0
    1.2744   -0.0134   -0.0750 C   0  0  0  0  0  0  0  0  0  0  0  0
   -2.5719   -3.5078    0.2429 C   0  0  0  0  0  0  0  0  0  0  0  0
   -2.4397    2.1633   -0.0833 C   0  0  0  0  0  0  0  0  0  0  0  0
   -0.0288    2.1544   -0.1881 C   0  0  0  0  0  0  0  0  0  0  0  0
   -1.2377    2.8510   -0.1952 C   0  0  0  0  0  0  0  0  0  0  0  0
    2.4185   -2.1479   -0.4236 C   0  0  0  0  0  0  0  0  0  0  0  0
    2.5287    0.5636    0.1929 C   0  0  0  0  0  0  0  0  0  0  0  0
    3.7016   -0.1957    0.1483 C   0  0  0  0  0  0  0  0  0  0  0  0
    3.6473   -1.5487   -0.1654 C   0  0  0  0  0  0  0  0  0  0  0  0
   -0.9891   -1.6408    1.2736 H   0  0  0  0  0  0  0  0  0  0  0  0
   -0.3115   -1.9362   -1.7230 H   0  0  0  0  0  0  0  0  0  0  0  0
    0.0094   -3.1309   -0.4560 H   0  0  0  0  0  0  0  0  0  0  0  0
   -3.4031   -1.3819    1.7103 H   0  0  0  0  0  0  0  0  0  0  0  0
   -4.5683   -1.8948    0.4864 H   0  0  0  0  0  0  0  0  0  0  0  0
   -4.4507    0.5823    0.7647 H   0  0  0  0  0  0  0  0  0  0  0  0
   -4.1905    0.0227   -0.8960 H   0  0  0  0  0  0  0  0  0  0  0  0
   -2.3108   -3.6872    1.2920 H   0  0  0  0  0  0  0  0  0  0  0  0
   -1.8987   -4.0901   -0.3928 H   0  0  0  0  0  0  0  0  0  0  0  0
   -3.5712   -3.9224    0.0647 H   0  0  0  0  0  0  0  0  0  0  0  0
   -3.3824    2.7053   -0.1010 H   0  0  0  0  0  0  0  0  0  0  0  0
    0.8657    2.7470   -0.3451 H   0  0  0  0  0  0  0  0  0  0  0  0
    2.3851   -3.2069   -0.6663 H   0  0  0  0  0  0  0  0  0  0  0  0
    4.5558   -2.1431   -0.2051 H   0  0  0  0  0  0  0  0  0  0  0  0
   -2.1608    4.5224   -0.3221 H   0  0  0  0  0  0  0  0  0  0  0  0
    3.4438    1.9266    1.1987 H   0  0  0  0  0  0  0  0  0  0  0  0
    4.8642    1.3258    0.2454 H   0  0  0  0  0  0  0  0  0  0  0  0
  1 17  1  0  0  0  0
  1 36  1  0  0  0  0
  2 19  1  0  0  0  0
  2 37  1  0  0  0  0
  3 20  1  0  0  0  0
  3 38  1  0  0  0  0
  4  5  1  0  0  0  0
  4  9  1  0  0  0  0
  4 14  1  0  0  0  0
  5  6  1  0  0  0  0
  5  7  1  0  0  0  0
  5 22  1  0  0  0  0
  6  8  2  0  0  0  0
  6 11  1  0  0  0  0
  7 12  1  0  0  0  0
  7 23  1  0  0  0  0
  7 24  1  0  0  0  0
  8 10  1  0  0  0  0
  8 15  1  0  0  0  0
  9 10  1  0  0  0  0
  9 25  1  0  0  0  0
  9 26  1  0  0  0  0
 10 27  1  0  0  0  0
 10 28  1  0  0  0  0
 11 13  1  0  0  0  0
 11 16  2  0  0  0  0
 12 13  2  0  0  0  0
 12 18  1  0  0  0  0
 13 19  1  0  0  0  0
 14 29  1  0  0  0  0
 14 30  1  0  0  0  0
 14 31  1  0  0  0  0
 15 17  2  0  0  0  0
 15 32  1  0  0  0  0
 16 17  1  0  0  0  0
 16 33  1  0  0  0  0
 18 21  2  0  0  0  0
 18 34  1  0  0  0  0
 19 20  2  0  0  0  0
 20 21  1  0  0  0  0
 21 35  1  0  0  0  0
M  END
> <PUBCHEM_COMPOUND_CID>
5020

> <PUBCHEM_CONFORMER_RMSD>
0.6

> <PUBCHEM_CONFORMER_DIVERSEORDER>
1
2

> <PUBCHEM_MMFF94_PARTIAL_CHARGES>
26
1 -0.53
10 0.14
12 -0.14
14 0.27
15 -0.15
16 -0.15
17 0.08
18 -0.15
19 0.08
2 -0.53
20 0.08
21 -0.15
3 -0.53
32 0.15
33 0.15
34 0.15
35 0.15
36 0.45
37 0.45
38 0.45
4 -0.81
5 0.41
6 -0.14
7 0.14
8 -0.14
9 0.27

> <PUBCHEM_EFFECTIVE_ROTOR_COUNT>
0.8

> <PUBCHEM_PHARMACOPHORE_FEATURES>
8
1 1 donor
1 2 donor
1 3 donor
1 4 cation
6 12 13 18 19 20 21 rings
6 4 5 6 8 9 10 rings
6 5 6 7 11 12 13 rings
6 6 8 11 15 16 17 rings

> <PUBCHEM_HEAVY_ATOM_COUNT>
21

> <PUBCHEM_ATOM_DEF_STEREO_COUNT>
0

> <PUBCHEM_ATOM_UDEF_STEREO_COUNT>
1

> <PUBCHEM_BOND_DEF_STEREO_COUNT>
0

> <PUBCHEM_BOND_UDEF_STEREO_COUNT>
0

> <PUBCHEM_ISOTOPIC_ATOM_COUNT>
0

> <PUBCHEM_COMPONENT_COUNT>
1

> <PUBCHEM_CACTVS_TAUTO_COUNT>
250

> <PUBCHEM_CONFORMER_ID>
0000139C00000001

> <PUBCHEM_MMFF94_ENERGY>
67.2471

> <PUBCHEM_FEATURE_SELFOVERLAP>
40.69

> <PUBCHEM_SHAPE_FINGERPRINT>
10319926 262 18265354952965671762
10411042 1 18194964032738071639
10608611 8 18264491852731375476
10616163 171 18410008823622441702
10906281 52 18336811062165377717
10967382 1 17977946782838674911
11132069 177 18408604751262693114
11578080 2 17272883955158687436
11680986 33 18120944906203899985
12173636 292 18124033695974492173
12403259 226 18335423495196194312
12553582 1 18267289946568127831
12730499 353 17261592293360470325
12788726 201 18272652359181299632
13132413 78 18119526540076978245
13140716 1 18337390418202831824
138480 1 15889404096671365029
14081887 123 18410023142942985258
14178342 30 18269849747503610586
14223421 5 18409167735834205002
14787075 74 17843399579603058282
14790565 3 17475223601105876253
15042514 8 18412260640552790139
15196674 1 18337390551383786462
15442244 35 18196093472146099298
16945 1 18338799030031678374
17357779 13 18338816528277121015
17804303 29 18337102475290398262
19591789 44 17834390494709890211
20510252 161 18263082282956211841
20905425 154 18336542819471462950
21029758 11 18409454674426047725
21267235 1 18338787931831475867
23184049 29 18411701019183140322
2334 1 18265612082996700279
23402539 116 18335430071134184983
23463225 33 18411416168224861606
23557571 272 18261944219970869422
23558518 356 18199741625534743480
23559900 14 17830177171059734374
238 59 16330224614711001621
23845131 108 17403159891757141017
2748010 2 18336266747420951983
3091708 16 9277114507605859057
335352 9 17977664534847161078
34934 24 18411706473855111179
350125 39 18050276261149357877
5104073 3 18336829813823898138
54173680 148 18411698789878842383
7097593 13 17698178570693183178
7364860 26 17762616188262060881
81228 2 18272641381202945897
8809292 202 18266454489318583286
9709674 26 18263081166407269574

> <PUBCHEM_SHAPE_MULTIPOLES>
409.58
6.68
3.96
0.69
4.53
1.4
0
-1.56
0.98
-2.92
-0.3
0.02
-0.06
0.73

> <PUBCHEM_SHAPE_SELFOVERLAP>
916.925

> <PUBCHEM_SHAPE_VOLUME>
216.1

> <PUBCHEM_COORDINATE_TYPE>
2
5
10

$$$$

