17395543
  -OEChem-06241222512D

 42 44  0     0  0  0  0  0  0999 V2000
    2.0000   -2.6012    0.0000 O   0  0  0  0  0  0  0  0  0  0  0  0
    6.3301    1.8988    0.0000 O   0  0  0  0  0  0  0  0  0  0  0  0
    9.1448    3.1012    0.0000 O   0  0  0  0  0  0  0  0  0  0  0  0
    3.7320   -1.6012    0.0000 N   0  0  0  0  0  0  0  0  0  0  0  0
    7.1962    0.3988    0.0000 N   0  0  0  0  0  0  0  0  0  0  0  0
    3.7320   -2.6012    0.0000 C   0  0  0  0  0  0  0  0  0  0  0  0
    2.8660   -1.1012    0.0000 C   0  0  0  0  0  0  0  0  0  0  0  0
    4.5981   -1.1012    0.0000 C   0  0  0  0  0  0  0  0  0  0  0  0
    2.8660   -3.1012    0.0000 C   0  0  0  0  0  0  0  0  0  0  0  0
    2.0000   -1.6012    0.0000 C   0  0  0  0  0  0  0  0  0  0  0  0
    5.4641   -1.6012    0.0000 C   0  0  0  0  0  0  0  0  0  0  0  0
    6.3301   -1.1012    0.0000 C   0  0  0  0  0  0  0  0  0  0  0  0
    5.4641   -2.6012    0.0000 C   0  0  0  0  0  0  0  0  0  0  0  0
    6.3301   -0.1012    0.0000 C   0  0  0  0  0  0  0  0  0  0  0  0
    7.1962   -1.6012    0.0000 C   0  0  0  0  0  0  0  0  0  0  0  0
    6.3301   -3.1012    0.0000 C   0  0  0  0  0  0  0  0  0  0  0  0
    7.1962   -2.6012    0.0000 C   0  0  0  0  0  0  0  0  0  0  0  0
    7.1962    1.3988    0.0000 C   0  0  0  0  0  0  0  0  0  0  0  0
    8.0622    1.8988    0.0000 C   0  0  0  0  0  0  0  0  0  0  0  0
    8.9757    1.4921    0.0000 C   0  0  0  0  0  0  0  0  0  0  0  0
    8.1667    2.8933    0.0000 C   0  0  0  0  0  0  0  0  0  0  0  0
    9.6448    2.2352    0.0000 C   0  0  0  0  0  0  0  0  0  0  0  0
    3.2646   -0.6263    0.0000 H   0  0  0  0  0  0  0  0  0  0  0  0
    2.4675   -0.6263    0.0000 H   0  0  0  0  0  0  0  0  0  0  0  0
    3.9441   -3.1838    0.0000 H   0  0  0  0  0  0  0  0  0  0  0  0
    4.3426   -2.4936    0.0000 H   0  0  0  0  0  0  0  0  0  0  0  0
    4.9966   -0.6263    0.0000 H   0  0  0  0  0  0  0  0  0  0  0  0
    4.1996   -0.6263    0.0000 H   0  0  0  0  0  0  0  0  0  0  0  0
    1.7880   -1.0186    0.0000 H   0  0  0  0  0  0  0  0  0  0  0  0
    1.3894   -1.7089    0.0000 H   0  0  0  0  0  0  0  0  0  0  0  0
    2.4675   -3.5762    0.0000 H   0  0  0  0  0  0  0  0  0  0  0  0
    3.2646   -3.5762    0.0000 H   0  0  0  0  0  0  0  0  0  0  0  0
    4.9272   -2.9112    0.0000 H   0  0  0  0  0  0  0  0  0  0  0  0
    6.1181    0.4814    0.0000 H   0  0  0  0  0  0  0  0  0  0  0  0
    5.7196   -0.2089    0.0000 H   0  0  0  0  0  0  0  0  0  0  0  0
    7.7331   -1.2912    0.0000 H   0  0  0  0  0  0  0  0  0  0  0  0
    6.3301   -3.7212    0.0000 H   0  0  0  0  0  0  0  0  0  0  0  0
    7.7331   -2.9112    0.0000 H   0  0  0  0  0  0  0  0  0  0  0  0
    7.7331    0.0888    0.0000 H   0  0  0  0  0  0  0  0  0  0  0  0
    9.1046    0.8856    0.0000 H   0  0  0  0  0  0  0  0  0  0  0  0
    7.7060    3.3082    0.0000 H   0  0  0  0  0  0  0  0  0  0  0  0
   10.2615    2.1704    0.0000 H   0  0  0  0  0  0  0  0  0  0  0  0
  1  9  1  0  0  0  0
  1 10  1  0  0  0  0
  2 18  2  0  0  0  0
  3 21  1  0  0  0  0
  3 22  1  0  0  0  0
  4  6  1  0  0  0  0
  4  7  1  0  0  0  0
  4  8  1  0  0  0  0
  5 14  1  0  0  0  0
  5 18  1  0  0  0  0
  5 39  1  0  0  0  0
  6  9  1  0  0  0  0
  6 25  1  0  0  0  0
  6 26  1  0  0  0  0
  7 10  1  0  0  0  0
  7 23  1  0  0  0  0
  7 24  1  0  0  0  0
  8 11  1  0  0  0  0
  8 27  1  0  0  0  0
  8 28  1  0  0  0  0
  9 31  1  0  0  0  0
  9 32  1  0  0  0  0
 10 29  1  0  0  0  0
 10 30  1  0  0  0  0
 11 12  1  0  0  0  0
 11 13  2  0  0  0  0
 12 14  1  0  0  0  0
 12 15  2  0  0  0  0
 13 16  1  0  0  0  0
 13 33  1  0  0  0  0
 14 34  1  0  0  0  0
 14 35  1  0  0  0  0
 15 17  1  0  0  0  0
 15 36  1  0  0  0  0
 16 17  2  0  0  0  0
 16 37  1  0  0  0  0
 17 38  1  0  0  0  0
 18 19  1  0  0  0  0
 19 20  1  0  0  0  0
 19 21  2  0  0  0  0
 20 22  2  0  0  0  0
 20 40  1  0  0  0  0
 21 41  1  0  0  0  0
 22 42  1  0  0  0  0
M  END
> <PUBCHEM_COMPOUND_CID>
17395543

> <PUBCHEM_COMPOUND_CANONICALIZED>
1

> <PUBCHEM_CACTVS_COMPLEXITY>
358

> <PUBCHEM_CACTVS_HBOND_ACCEPTOR>
4

> <PUBCHEM_CACTVS_HBOND_DONOR>
1

> <PUBCHEM_CACTVS_ROTATABLE_BOND>
5

> <PUBCHEM_CACTVS_SUBSKEYS>
AAADceB7MAAAAAAAAAAAAAAAAAAAASAAAAA8QAAAAAAAAAABwAAAHgAQAAAADADhmAYwBIPABECIAilSkACCCAAkIAAIiIEODMgOJj6MtRuHOWjm5hGYqYc3gIAOgAAAAAAQAAAAAAAAACAAAAAAAAAAAA==

> <PUBCHEM_IUPAC_OPENEYE_NAME>
N-[[2-(morpholinomethyl)phenyl]methyl]furan-3-carboxamide

> <PUBCHEM_IUPAC_CAS_NAME>
N-[[2-(4-morpholinylmethyl)phenyl]methyl]-3-furancarboxamide

> <PUBCHEM_IUPAC_NAME>
N-[[2-(morpholin-4-ylmethyl)phenyl]methyl]furan-3-carboxamide

> <PUBCHEM_IUPAC_SYSTEMATIC_NAME>
N-[[2-(morpholin-4-ylmethyl)phenyl]methyl]furan-3-carboxamide

> <PUBCHEM_IUPAC_TRADITIONAL_NAME>
N-[2-(morpholinomethyl)benzyl]-3-furamide

> <PUBCHEM_IUPAC_INCHI>
InChI=1S/C17H20N2O3/c20-17(16-5-8-22-13-16)18-11-14-3-1-2-4-15(14)12-19-6-9-21-10-7-19/h1-5,8,13H,6-7,9-12H2,(H,18,20)

> <PUBCHEM_IUPAC_INCHIKEY>
QNSVHPCTPSHOAE-UHFFFAOYSA-N

> <PUBCHEM_XLOGP3_AA>
1.2

> <PUBCHEM_EXACT_MASS>
300.147393

> <PUBCHEM_MOLECULAR_FORMULA>
C17H20N2O3

> <PUBCHEM_MOLECULAR_WEIGHT>
300.3523

> <PUBCHEM_OPENEYE_CAN_SMILES>
C1COCCN1CC2=CC=CC=C2CNC(=O)C3=COC=C3

> <PUBCHEM_OPENEYE_ISO_SMILES>
C1COCCN1CC2=CC=CC=C2CNC(=O)C3=COC=C3

> <PUBCHEM_CACTVS_TPSA>
54.7

> <PUBCHEM_MONOISOTOPIC_WEIGHT>
300.147393

> <PUBCHEM_TOTAL_CHARGE>
0

> <PUBCHEM_HEAVY_ATOM_COUNT>
22

> <PUBCHEM_ATOM_DEF_STEREO_COUNT>
0

> <PUBCHEM_ATOM_UDEF_STEREO_COUNT>
0

> <PUBCHEM_BOND_DEF_STEREO_COUNT>
0

> <PUBCHEM_BOND_UDEF_STEREO_COUNT>
0

> <PUBCHEM_ISOTOPIC_ATOM_COUNT>
0

> <PUBCHEM_COMPONENT_COUNT>
1

> <PUBCHEM_CACTVS_TAUTO_COUNT>
2

> <PUBCHEM_COORDINATE_TYPE>
1
5
255

> <PUBCHEM_BONDANNOTATIONS>
11  12  8
11  13  8
12  15  8
13  16  8
15  17  8
16  17  8
19  20  8
19  21  8
20  22  8
3  21  8
3  22  8

$$$$

