160511
  -OEChem-07051212473D

 30 31  0     1  0  0  0  0  0999 V2000
    2.3618   -0.6529    1.8845 O   0  0  0  0  0  0  0  0  0  0  0  0
    3.0935   -1.5758   -0.0530 O   0  0  0  0  0  0  0  0  0  0  0  0
   -1.6398   -1.9771   -0.1988 N   0  0  0  0  0  0  0  0  0  0  0  0
    3.2067    1.3100   -0.6679 N   0  0  0  0  0  0  0  0  0  0  0  0
    1.0195    0.3023   -1.2307 C   0  0  0  0  0  0  0  0  0  0  0  0
   -0.2027   -0.3823   -0.7630 C   0  0  0  0  0  0  0  0  0  0  0  0
    2.0381    0.6226   -0.1121 C   0  0  1  0  0  0  0  0  0  0  0  0
   -1.4070    0.2380   -0.3271 C   0  0  0  0  0  0  0  0  0  0  0  0
   -2.2920   -0.7848    0.0211 C   0  0  0  0  0  0  0  0  0  0  0  0
   -0.3766   -1.7442   -0.6727 C   0  0  0  0  0  0  0  0  0  0  0  0
   -1.8302    1.5753   -0.1949 C   0  0  0  0  0  0  0  0  0  0  0  0
   -3.5843   -0.5358    0.4967 C   0  0  0  0  0  0  0  0  0  0  0  0
    2.5492   -0.6519    0.5385 C   0  0  0  0  0  0  0  0  0  0  0  0
   -3.1202    1.8395    0.2797 C   0  0  0  0  0  0  0  0  0  0  0  0
   -3.9820    0.7985    0.6196 C   0  0  0  0  0  0  0  0  0  0  0  0
    4.1657    1.6185    0.3800 C   0  0  0  0  0  0  0  0  0  0  0  0
    0.7407    1.2342   -1.7407 H   0  0  0  0  0  0  0  0  0  0  0  0
    1.5011   -0.3200   -1.9984 H   0  0  0  0  0  0  0  0  0  0  0  0
    1.5500    1.2510    0.6443 H   0  0  0  0  0  0  0  0  0  0  0  0
    0.2821   -2.5698   -0.9034 H   0  0  0  0  0  0  0  0  0  0  0  0
   -2.0370   -2.8917   -0.0341 H   0  0  0  0  0  0  0  0  0  0  0  0
    2.9029    2.1763   -1.1121 H   0  0  0  0  0  0  0  0  0  0  0  0
   -1.1708    2.3988   -0.4538 H   0  0  0  0  0  0  0  0  0  0  0  0
   -4.2559   -1.3454    0.7615 H   0  0  0  0  0  0  0  0  0  0  0  0
   -3.4519    2.8691    0.3842 H   0  0  0  0  0  0  0  0  0  0  0  0
   -4.9796    1.0265    0.9862 H   0  0  0  0  0  0  0  0  0  0  0  0
    4.6682    0.7285    0.7709 H   0  0  0  0  0  0  0  0  0  0  0  0
    3.7084    2.1727    1.2067 H   0  0  0  0  0  0  0  0  0  0  0  0
    4.9532    2.2544   -0.0388 H   0  0  0  0  0  0  0  0  0  0  0  0
    2.7044   -1.4726    2.3001 H   0  0  0  0  0  0  0  0  0  0  0  0
  1 13  1  0  0  0  0
  1 30  1  0  0  0  0
  2 13  2  0  0  0  0
  3  9  1  0  0  0  0
  3 10  1  0  0  0  0
  3 21  1  0  0  0  0
  4  7  1  0  0  0  0
  4 16  1  0  0  0  0
  4 22  1  0  0  0  0
  5  6  1  0  0  0  0
  5  7  1  0  0  0  0
  5 17  1  0  0  0  0
  5 18  1  0  0  0  0
  6  8  1  0  0  0  0
  6 10  2  0  0  0  0
  7 13  1  0  0  0  0
  7 19  1  0  0  0  0
  8  9  1  0  0  0  0
  8 11  2  0  0  0  0
  9 12  2  0  0  0  0
 10 20  1  0  0  0  0
 11 14  1  0  0  0  0
 11 23  1  0  0  0  0
 12 15  1  0  0  0  0
 12 24  1  0  0  0  0
 14 15  2  0  0  0  0
 14 25  1  0  0  0  0
 15 26  1  0  0  0  0
 16 27  1  0  0  0  0
 16 28  1  0  0  0  0
 16 29  1  0  0  0  0
M  END
> <PUBCHEM_COMPOUND_CID>
160511

> <PUBCHEM_CONFORMER_RMSD>
0.6

> <PUBCHEM_CONFORMER_DIVERSEORDER>
1
37
33
10
4
34
5
36
29
15
11
35
6
17
2
32
3
12
18
31
28
24
22
25
13
27
23
8
14
9
26
21
7
20
30
16
19

> <PUBCHEM_MMFF94_PARTIAL_CHARGES>
23
1 -0.65
10 -0.3
11 -0.15
12 -0.15
13 0.66
14 -0.15
15 -0.15
16 0.27
2 -0.57
20 0.15
21 0.27
22 0.36
23 0.15
24 0.15
25 0.15
26 0.15
3 0.03
30 0.5
4 -0.9
5 0.18
6 -0.18
7 0.33
9 -0.15

> <PUBCHEM_EFFECTIVE_ROTOR_COUNT>
4

> <PUBCHEM_PHARMACOPHORE_FEATURES>
9
1 1 acceptor
1 2 acceptor
1 3 cation
1 3 donor
1 4 cation
1 4 donor
3 1 2 13 anion
5 3 6 8 9 10 rings
6 8 9 11 12 14 15 rings

> <PUBCHEM_HEAVY_ATOM_COUNT>
16

> <PUBCHEM_ATOM_DEF_STEREO_COUNT>
1

> <PUBCHEM_ATOM_UDEF_STEREO_COUNT>
0

> <PUBCHEM_BOND_DEF_STEREO_COUNT>
0

> <PUBCHEM_BOND_UDEF_STEREO_COUNT>
0

> <PUBCHEM_ISOTOPIC_ATOM_COUNT>
0

> <PUBCHEM_COMPONENT_COUNT>
1

> <PUBCHEM_CACTVS_TAUTO_COUNT>
1

> <PUBCHEM_CONFORMER_ID>
000272FF00000001

> <PUBCHEM_MMFF94_ENERGY>
25.0831

> <PUBCHEM_FEATURE_SELFOVERLAP>
45.82

> <PUBCHEM_SHAPE_FINGERPRINT>
12202030 40 14261083128689190496
12251169 10 18342175548704953652
12346645 44 18269276768680266068
12507560 40 18273216429984352988
12892183 10 17989481935688507153
12932764 1 17168151104620395382
13764800 53 18114456790798343905
14144814 61 18412824685527472189
14787075 74 17484510145164690619
15536298 74 18411415120579804638
15669948 3 18262520286485491279
15775835 57 18410006619992930600
16945 1 18335973221372702791
17804303 29 18267577099417789974
18186145 218 17604419820962142357
19862831 5 6483356624918018852
201361 129 18341895165193267976
20510252 161 18260540117852395577
21524375 3 18114465677396974151
22445834 79 18060143132483826074
23402539 116 18188495649572394519
23463225 33 18343015622975516165
23559900 14 18116428343927724894
23598294 1 18263926544677722691
2748010 2 17547575237267812455
5104073 3 18411975888600169553
7097593 13 18128549334453300074
7364860 26 18335698369240928238
81228 2 16736950011585661383
90316 7 17846495993441936157

> <PUBCHEM_SHAPE_MULTIPOLES>
307.57
7.2
1.97
1.04
1.73
0.05
-0.2
-2.72
-1.87
-0.09
0.06
0.52
0.09
-0.34

> <PUBCHEM_SHAPE_SELFOVERLAP>
657.159

> <PUBCHEM_SHAPE_VOLUME>
171.7

> <PUBCHEM_COORDINATE_TYPE>
2
5
10

$$$$

