612239
  -OEChem-07051213112D

 24 26  0     0  0  0  0  0  0999 V2000
    3.7702   -1.6723    0.0000 O   0  0  0  0  0  0  0  0  0  0  0  0
    7.3424   -1.4424    0.0000 O   0  0  0  0  0  0  0  0  0  0  0  0
    5.5301    1.3623    0.0000 O   0  0  0  0  0  0  0  0  0  0  0  0
    3.7817    1.3969    0.0000 O   0  0  0  0  0  0  0  0  0  0  0  0
    4.6641   -0.1377    0.0000 C   0  0  0  0  0  0  0  0  0  0  0  0
    6.3961   -0.1377    0.0000 C   0  0  0  0  0  0  0  0  0  0  0  0
    4.6641   -1.1377    0.0000 C   0  0  0  0  0  0  0  0  0  0  0  0
    5.5301    0.3623    0.0000 C   0  0  0  0  0  0  0  0  0  0  0  0
    6.3961   -1.1377    0.0000 C   0  0  0  0  0  0  0  0  0  0  0  0
    5.5301   -1.6377    0.0000 C   0  0  0  0  0  0  0  0  0  0  0  0
    3.7702    0.3970    0.0000 C   0  0  0  0  0  0  0  0  0  0  0  0
    7.3424    0.1671    0.0000 C   0  0  0  0  0  0  0  0  0  0  0  0
    2.8641   -1.1585    0.0000 C   0  0  0  0  0  0  0  0  0  0  0  0
    2.8641   -0.1169    0.0000 C   0  0  0  0  0  0  0  0  0  0  0  0
    7.9260   -0.6377    0.0000 C   0  0  0  0  0  0  0  0  0  0  0  0
    2.0000   -1.6618    0.0000 C   0  0  0  0  0  0  0  0  0  0  0  0
    5.5301   -2.2577    0.0000 H   0  0  0  0  0  0  0  0  0  0  0  0
    7.5350    0.7564    0.0000 H   0  0  0  0  0  0  0  0  0  0  0  0
    2.3284    0.1952    0.0000 H   0  0  0  0  0  0  0  0  0  0  0  0
    8.5460   -0.6377    0.0000 H   0  0  0  0  0  0  0  0  0  0  0  0
    1.6879   -1.1261    0.0000 H   0  0  0  0  0  0  0  0  0  0  0  0
    1.4643   -1.9739    0.0000 H   0  0  0  0  0  0  0  0  0  0  0  0
    2.3121   -2.1976    0.0000 H   0  0  0  0  0  0  0  0  0  0  0  0
    6.0671    1.6723    0.0000 H   0  0  0  0  0  0  0  0  0  0  0  0
  1  7  1  0  0  0  0
  1 13  1  0  0  0  0
  2  9  1  0  0  0  0
  2 15  1  0  0  0  0
  3  8  1  0  0  0  0
  3 24  1  0  0  0  0
  4 11  2  0  0  0  0
  5  7  2  0  0  0  0
  5  8  1  0  0  0  0
  5 11  1  0  0  0  0
  6  8  2  0  0  0  0
  6  9  1  0  0  0  0
  6 12  1  0  0  0  0
  7 10  1  0  0  0  0
  9 10  2  0  0  0  0
 10 17  1  0  0  0  0
 11 14  1  0  0  0  0
 12 15  2  0  0  0  0
 12 18  1  0  0  0  0
 13 14  2  0  0  0  0
 13 16  1  0  0  0  0
 14 19  1  0  0  0  0
 15 20  1  0  0  0  0
 16 21  1  0  0  0  0
 16 22  1  0  0  0  0
 16 23  1  0  0  0  0
M  END
> <PUBCHEM_COMPOUND_CID>
612239

> <PUBCHEM_COMPOUND_CANONICALIZED>
1

> <PUBCHEM_CACTVS_COMPLEXITY>
349

> <PUBCHEM_CACTVS_HBOND_ACCEPTOR>
4

> <PUBCHEM_CACTVS_HBOND_DONOR>
1

> <PUBCHEM_CACTVS_ROTATABLE_BOND>
0

> <PUBCHEM_CACTVS_SUBSKEYS>
AAADccBwOAAAAAAAAAAAAAAAAAAAASAAAAAwQAAAAAAAAEiB8AAAGgAACAAADASgmAIyBsAABkCIAqhSgAACCAAkIAAIiAEGCMgMJzaGNRqCeWCl4BUIuYfK7vzuIAACCAAIAABAAAQQABAAAAAAAAAAAA==

> <PUBCHEM_IUPAC_OPENEYE_NAME>
4-hydroxy-7-methyl-furo[3,2-g]chromen-5-one

> <PUBCHEM_IUPAC_CAS_NAME>
4-hydroxy-7-methyl-5-furo[3,2-g][1]benzopyranone

> <PUBCHEM_IUPAC_NAME>
4-hydroxy-7-methylfuro[3,2-g]chromen-5-one

> <PUBCHEM_IUPAC_SYSTEMATIC_NAME>
7-methyl-4-oxidanyl-furo[3,2-g]chromen-5-one

> <PUBCHEM_IUPAC_TRADITIONAL_NAME>
4-hydroxy-7-methyl-furo[3,2-g]chromen-5-one

> <PUBCHEM_IUPAC_INCHI>
InChI=1S/C12H8O4/c1-6-4-8(13)11-10(16-6)5-9-7(12(11)14)2-3-15-9/h2-5,14H,1H3

> <PUBCHEM_IUPAC_INCHIKEY>
XNJXARQRJIOYLC-UHFFFAOYSA-N

> <PUBCHEM_XLOGP3_AA>
2.5

> <PUBCHEM_EXACT_MASS>
216.042259

> <PUBCHEM_MOLECULAR_FORMULA>
C12H8O4

> <PUBCHEM_MOLECULAR_WEIGHT>
216.18952

> <PUBCHEM_OPENEYE_CAN_SMILES>
CC1=CC(=O)C2=C(O1)C=C3C(=C2O)C=CO3

> <PUBCHEM_OPENEYE_ISO_SMILES>
CC1=CC(=O)C2=C(O1)C=C3C(=C2O)C=CO3

> <PUBCHEM_CACTVS_TPSA>
59.7

> <PUBCHEM_MONOISOTOPIC_WEIGHT>
216.042259

> <PUBCHEM_TOTAL_CHARGE>
0

> <PUBCHEM_HEAVY_ATOM_COUNT>
16

> <PUBCHEM_ATOM_DEF_STEREO_COUNT>
0

> <PUBCHEM_ATOM_UDEF_STEREO_COUNT>
0

> <PUBCHEM_BOND_DEF_STEREO_COUNT>
0

> <PUBCHEM_BOND_UDEF_STEREO_COUNT>
0

> <PUBCHEM_ISOTOPIC_ATOM_COUNT>
0

> <PUBCHEM_COMPONENT_COUNT>
1

> <PUBCHEM_CACTVS_TAUTO_COUNT>
11

> <PUBCHEM_COORDINATE_TYPE>
1
5
255

> <PUBCHEM_BONDANNOTATIONS>
1  13  8
1  7  8
11  14  8
12  15  8
13  14  8
2  15  8
2  9  8
5  11  8
5  7  8
5  8  8
6  12  8
6  8  8
6  9  8
7  10  8
9  10  8

$$$$

