17348
  -OEChem-07051213053D

 22 23  0     0  0  0  0  0  0999 V2000
   -0.2637    2.7120    0.0016 Cl  0  0  0  0  0  0  0  0  0  0  0  0
   -0.2638   -2.7118    0.0030 Cl  0  0  0  0  0  0  0  0  0  0  0  0
    2.8832   -2.7191   -0.0029 Cl  0  0  0  0  0  0  0  0  0  0  0  0
    2.8836    2.7189   -0.0035 Cl  0  0  0  0  0  0  0  0  0  0  0  0
    4.4552   -0.0001    0.0000 Cl  0  0  0  0  0  0  0  0  0  0  0  0
   -0.0889   -0.0003    0.0022 C   0  0  0  0  0  0  0  0  0  0  0  0
   -1.5358    0.0000    0.0006 C   0  0  0  0  0  0  0  0  0  0  0  0
    0.6189    1.2078    0.0013 C   0  0  0  0  0  0  0  0  0  0  0  0
    0.6195   -1.2081    0.0020 C   0  0  0  0  0  0  0  0  0  0  0  0
    2.0145   -1.2078    0.0010 C   0  0  0  0  0  0  0  0  0  0  0  0
    2.0139    1.2081    0.0002 C   0  0  0  0  0  0  0  0  0  0  0  0
   -2.2320   -0.0015   -1.2081 C   0  0  0  0  0  0  0  0  0  0  0  0
   -2.2344    0.0015    1.2078 C   0  0  0  0  0  0  0  0  0  0  0  0
    2.7115    0.0003    0.0002 C   0  0  0  0  0  0  0  0  0  0  0  0
   -3.6269   -0.0014   -1.2095 C   0  0  0  0  0  0  0  0  0  0  0  0
   -3.6293    0.0015    1.2065 C   0  0  0  0  0  0  0  0  0  0  0  0
   -4.3255    0.0000   -0.0023 C   0  0  0  0  0  0  0  0  0  0  0  0
   -1.7029   -0.0028   -2.1582 H   0  0  0  0  0  0  0  0  0  0  0  0
   -1.7072    0.0027    2.1590 H   0  0  0  0  0  0  0  0  0  0  0  0
   -4.1690   -0.0026   -2.1506 H   0  0  0  0  0  0  0  0  0  0  0  0
   -4.1734    0.0027    2.1464 H   0  0  0  0  0  0  0  0  0  0  0  0
   -5.4116    0.0000   -0.0033 H   0  0  0  0  0  0  0  0  0  0  0  0
  1  8  1  0  0  0  0
  2  9  1  0  0  0  0
  3 10  1  0  0  0  0
  4 11  1  0  0  0  0
  5 14  1  0  0  0  0
  6  7  1  0  0  0  0
  6  8  2  0  0  0  0
  6  9  1  0  0  0  0
  7 12  2  0  0  0  0
  7 13  1  0  0  0  0
  8 11  1  0  0  0  0
  9 10  2  0  0  0  0
 10 14  1  0  0  0  0
 11 14  2  0  0  0  0
 12 15  1  0  0  0  0
 12 18  1  0  0  0  0
 13 16  2  0  0  0  0
 13 19  1  0  0  0  0
 15 17  2  0  0  0  0
 15 20  1  0  0  0  0
 16 17  1  0  0  0  0
 16 21  1  0  0  0  0
 17 22  1  0  0  0  0
M  END
> <PUBCHEM_COMPOUND_CID>
17348

> <PUBCHEM_CONFORMER_RMSD>
0.6

> <PUBCHEM_CONFORMER_DIVERSEORDER>
1

> <PUBCHEM_MMFF94_PARTIAL_CHARGES>
20
1 -0.18
10 0.18
11 0.18
12 -0.15
13 -0.15
14 0.18
15 -0.15
16 -0.15
17 -0.15
18 0.15
19 0.15
2 -0.18
20 0.15
21 0.15
22 0.15
3 -0.18
4 -0.18
5 -0.18
8 0.18
9 0.18

> <PUBCHEM_EFFECTIVE_ROTOR_COUNT>
1

> <PUBCHEM_PHARMACOPHORE_FEATURES>
2
6 6 8 9 10 11 14 rings
6 7 12 13 15 16 17 rings

> <PUBCHEM_HEAVY_ATOM_COUNT>
17

> <PUBCHEM_ATOM_DEF_STEREO_COUNT>
0

> <PUBCHEM_ATOM_UDEF_STEREO_COUNT>
0

> <PUBCHEM_BOND_DEF_STEREO_COUNT>
0

> <PUBCHEM_BOND_UDEF_STEREO_COUNT>
0

> <PUBCHEM_ISOTOPIC_ATOM_COUNT>
0

> <PUBCHEM_COMPONENT_COUNT>
1

> <PUBCHEM_CACTVS_TAUTO_COUNT>
1

> <PUBCHEM_CONFORMER_ID>
000043C400000001

> <PUBCHEM_MMFF94_ENERGY>
54.5683

> <PUBCHEM_FEATURE_SELFOVERLAP>
10.149

> <PUBCHEM_SHAPE_FINGERPRINT>
10967382 1 18410575076505686978
10980938 120 18411702041205943752
11471102 20 18411700984918120212
11578080 2 12605734082275681927
12236239 1 17676487250723058795
12553582 1 18336826493751068886
13140716 1 18266743476794182914
13583140 156 16628867009542717320
13862211 1 18410579517824124618
14178342 30 18046919173166632128
14251717 144 18409452487807834439
14576447 43 18188224104101201231
14790565 3 18338781356843583964
14911166 2 18410289203719842414
15219456 202 18059857238312873821
15309172 13 18411696561054455995
15848702 151 17677322935131214198
16945 1 18410573989979168386
1813 80 17898275354594880630
18186145 218 18335419045414955389
19049666 15 17845662584996857733
19422 9 17894912936415210983
200 152 18260555532695606173
20279233 1 17846778516242499395
204376 136 18195808470869200880
20645477 70 18340778129840637119
21041028 32 18192424401506211032
21501502 16 18122624117957189008
21639500 275 18337400348383627741
22112679 90 17313105246128256817
22182313 1 18194695980261291004
2255824 54 18335136501313433710
23184049 59 18409726261691717104
2334 1 17978510828552017158
23402539 116 18260835903501789932
23419403 2 15972232278765487874
23493267 7 17346606295547322072
23557571 272 17132114650107188069
23559900 14 16773522165265141418
23598291 2 17968101884852266877
25 1 18340208488090577220
2748010 2 18122337974640911558
350125 39 17619341005268175689
474 4 18190184494573350816
633830 44 18115290212001404869
7364860 26 18408603660936897280
77492 1 17676487250675579521
81228 2 17402058184635282304
8272917 22 18335695096454626095
84936 182 17968945166968254961
9981440 41 16523597403972459864

> <PUBCHEM_SHAPE_MULTIPOLES>
359.2
7.13
2.81
0.96
1.89
0
0
0
0.01
-2.77
0
0.98
0
0

> <PUBCHEM_SHAPE_SELFOVERLAP>
735.489

> <PUBCHEM_SHAPE_VOLUME>
200.4

> <PUBCHEM_COORDINATE_TYPE>
2
5
10

$$$$

