439182
  -OEChem-07051212502D

 31 33  0     1  0  0  0  0  0999 V2000
    5.9405    0.8252    0.0000 O   0  0  0  0  0  0  0  0  0  0  0  0
    3.4026    1.3296    0.0000 O   0  0  0  0  0  0  0  0  0  0  0  0
    4.6844    3.0874    0.0000 O   0  0  0  0  0  0  0  0  0  0  0  0
    4.6783   -0.4327    0.0000 N   0  0  0  0  0  0  0  0  0  0  0  0
    4.6783   -2.0422    0.0000 N   0  0  0  0  0  0  0  0  0  0  0  0
    2.8660   -0.2375    0.0000 N   0  0  0  0  0  0  0  0  0  0  0  0
    2.0000   -1.7374    0.0000 N   0  0  0  0  0  0  0  0  0  0  0  0
    2.8660   -3.2374    0.0000 N   0  0  0  0  0  0  0  0  0  0  0  0
    4.4026    1.3278    0.0000 C   0  0  1  0  0  0  0  0  0  0  0  0
    4.9889    0.5178    0.0000 C   0  0  1  0  0  0  0  0  0  0  0  0
    4.9917    2.1358    0.0000 C   0  0  1  0  0  0  0  0  0  0  0  0
    5.9422    1.8252    0.0000 C   0  0  1  0  0  0  0  0  0  0  0  0
    6.7523    2.4116    0.0000 C   0  0  0  0  0  0  0  0  0  0  0  0
    3.7320   -0.7375    0.0000 C   0  0  0  0  0  0  0  0  0  0  0  0
    5.2619   -1.2374    0.0000 C   0  0  0  0  0  0  0  0  0  0  0  0
    3.7320   -1.7374    0.0000 C   0  0  0  0  0  0  0  0  0  0  0  0
    2.8660   -2.2374    0.0000 C   0  0  0  0  0  0  0  0  0  0  0  0
    2.0000   -0.7375    0.0000 C   0  0  0  0  0  0  0  0  0  0  0  0
    4.1220    1.8807    0.0000 H   0  0  0  0  0  0  0  0  0  0  0  0
    5.4266    0.0786    0.0000 H   0  0  0  0  0  0  0  0  0  0  0  0
    5.4309    2.5735    0.0000 H   0  0  0  0  0  0  0  0  0  0  0  0
    6.4942    1.5427    0.0000 H   0  0  0  0  0  0  0  0  0  0  0  0
    7.1158    1.9093    0.0000 H   0  0  0  0  0  0  0  0  0  0  0  0
    7.2545    2.7751    0.0000 H   0  0  0  0  0  0  0  0  0  0  0  0
    6.3887    2.9138    0.0000 H   0  0  0  0  0  0  0  0  0  0  0  0
    3.0935    1.8670    0.0000 H   0  0  0  0  0  0  0  0  0  0  0  0
    5.1000    3.5474    0.0000 H   0  0  0  0  0  0  0  0  0  0  0  0
    5.8819   -1.2374    0.0000 H   0  0  0  0  0  0  0  0  0  0  0  0
    1.4631   -0.4275    0.0000 H   0  0  0  0  0  0  0  0  0  0  0  0
    2.3291   -3.5474    0.0000 H   0  0  0  0  0  0  0  0  0  0  0  0
    3.4030   -3.5474    0.0000 H   0  0  0  0  0  0  0  0  0  0  0  0
  1 10  1  0  0  0  0
  1 12  1  0  0  0  0
  9  2  1  6  0  0  0
  2 26  1  0  0  0  0
 11  3  1  6  0  0  0
  3 27  1  0  0  0  0
 10  4  1  1  0  0  0
  4 14  1  0  0  0  0
  4 15  1  0  0  0  0
  5 15  2  0  0  0  0
  5 16  1  0  0  0  0
  6 14  2  0  0  0  0
  6 18  1  0  0  0  0
  7 17  1  0  0  0  0
  7 18  2  0  0  0  0
  8 17  1  0  0  0  0
  8 30  1  0  0  0  0
  8 31  1  0  0  0  0
  9 10  1  0  0  0  0
  9 11  1  0  0  0  0
  9 19  1  0  0  0  0
 10 20  1  0  0  0  0
 11 12  1  0  0  0  0
 11 21  1  0  0  0  0
 12 13  1  1  0  0  0
 12 22  1  0  0  0  0
 13 23  1  0  0  0  0
 13 24  1  0  0  0  0
 13 25  1  0  0  0  0
 14 16  1  0  0  0  0
 15 28  1  0  0  0  0
 16 17  2  0  0  0  0
 18 29  1  0  0  0  0
M  END
> <PUBCHEM_COMPOUND_CID>
439182

> <PUBCHEM_COMPOUND_CANONICALIZED>
1

> <PUBCHEM_CACTVS_COMPLEXITY>
320

> <PUBCHEM_CACTVS_HBOND_ACCEPTOR>
7

> <PUBCHEM_CACTVS_HBOND_DONOR>
3

> <PUBCHEM_CACTVS_ROTATABLE_BOND>
1

> <PUBCHEM_CACTVS_SUBSKEYS>
AAADccBzsAAAAAAAAAAAAAAAAAAAAWJAAAAsAAAAAAAAAFgB+AAAHgAQCAAACBzhlwYH8L9MFgCgAQZhZACAgC0REKABUCAoVBCDWAJAyEAeRAgPAALTACCwAAAAAAAAAAAAAAAAAAAAAAAAAAAAAAAAAA==

> <PUBCHEM_IUPAC_OPENEYE_NAME>
(2R,3R,4S,5R)-2-(6-aminopurin-9-yl)-5-methyl-tetrahydrofuran-3,4-diol

> <PUBCHEM_IUPAC_CAS_NAME>
(2R,3R,4S,5R)-2-(6-aminopurin-9-yl)-5-methyloxolane-3,4-diol

> <PUBCHEM_IUPAC_NAME>
(2R,3R,4S,5R)-2-(6-aminopurin-9-yl)-5-methyloxolane-3,4-diol

> <PUBCHEM_IUPAC_SYSTEMATIC_NAME>
(2R,3R,4S,5R)-2-(6-aminopurin-9-yl)-5-methyl-oxolane-3,4-diol

> <PUBCHEM_IUPAC_TRADITIONAL_NAME>
(2R,3R,4S,5R)-2-adenin-9-yl-5-methyl-tetrahydrofuran-3,4-diol

> <PUBCHEM_IUPAC_INCHI>
InChI=1S/C10H13N5O3/c1-4-6(16)7(17)10(18-4)15-3-14-5-8(11)12-2-13-9(5)15/h2-4,6-7,10,16-17H,1H3,(H2,11,12,13)/t4-,6-,7-,10-/m1/s1

> <PUBCHEM_IUPAC_INCHIKEY>
XGYIMTFOTBMPFP-KQYNXXCUSA-N

> <PUBCHEM_XLOGP3>
-0.6

> <PUBCHEM_EXACT_MASS>
251.101839

> <PUBCHEM_MOLECULAR_FORMULA>
C10H13N5O3

> <PUBCHEM_MOLECULAR_WEIGHT>
251.24192

> <PUBCHEM_OPENEYE_CAN_SMILES>
CC1C(C(C(O1)N2C=NC3=C2N=CN=C3N)O)O

> <PUBCHEM_OPENEYE_ISO_SMILES>
C[C@@H]1[C@H]([C@H]([C@@H](O1)N2C=NC3=C2N=CN=C3N)O)O

> <PUBCHEM_CACTVS_TPSA>
119

> <PUBCHEM_MONOISOTOPIC_WEIGHT>
251.101839

> <PUBCHEM_TOTAL_CHARGE>
0

> <PUBCHEM_HEAVY_ATOM_COUNT>
18

> <PUBCHEM_ATOM_DEF_STEREO_COUNT>
4

> <PUBCHEM_ATOM_UDEF_STEREO_COUNT>
0

> <PUBCHEM_BOND_DEF_STEREO_COUNT>
0

> <PUBCHEM_BOND_UDEF_STEREO_COUNT>
0

> <PUBCHEM_ISOTOPIC_ATOM_COUNT>
0

> <PUBCHEM_COMPONENT_COUNT>
1

> <PUBCHEM_CACTVS_TAUTO_COUNT>
3

> <PUBCHEM_COORDINATE_TYPE>
1
5
255

> <PUBCHEM_BONDANNOTATIONS>
12  13  5
14  16  8
16  17  8
9  2  6
11  3  6
10  4  5
4  14  8
4  15  8
5  15  8
5  16  8
6  14  8
6  18  8
7  17  8
7  18  8

$$$$

