439557
  -OEChem-07051212463D

 45 46  0     1  0  0  0  0  0999 V2000
    2.2846   -0.4790    1.2984 O   0  0  0  0  0  0  0  0  0  0  0  0
   -2.5103    0.8652    1.2164 O   0  0  0  0  0  0  0  0  0  0  0  0
    0.2379    0.6339    0.8464 O   0  0  0  0  0  0  0  0  0  0  0  0
   -1.3932   -2.1340   -0.5845 O   0  0  0  0  0  0  0  0  0  0  0  0
    3.5487    2.0977    1.1493 O   0  0  0  0  0  0  0  0  0  0  0  0
    3.3922    2.2670   -1.6085 O   0  0  0  0  0  0  0  0  0  0  0  0
    3.3290   -0.5831   -2.2209 O   0  0  0  0  0  0  0  0  0  0  0  0
   -3.2992   -0.9359   -2.4375 O   0  0  0  0  0  0  0  0  0  0  0  0
   -3.2858    1.6450   -1.4388 O   0  0  0  0  0  0  0  0  0  0  0  0
   -4.7327    0.0849    1.5053 O   0  0  0  0  0  0  0  0  0  0  0  0
    2.4355   -3.1901    0.9891 O   0  0  0  0  0  0  0  0  0  0  0  0
   -1.9018   -0.4143    1.0222 C   0  0  1  0  0  0  0  0  0  0  0  0
   -1.8969   -0.8067   -0.4607 C   0  0  2  0  0  0  0  0  0  0  0  0
    2.3121    1.8178    0.4907 C   0  0  1  0  0  0  0  0  0  0  0  0
    2.5790    1.3143   -0.9288 C   0  0  2  0  0  0  0  0  0  0  0  0
    1.5752    0.7646    1.3166 C   0  0  2  0  0  0  0  0  0  0  0  0
    3.2682   -0.0512   -0.9001 C   0  0  1  0  0  0  0  0  0  0  0  0
   -3.3170   -0.7426   -1.0257 C   0  0  1  0  0  0  0  0  0  0  0  0
    2.4795   -1.0206   -0.0106 C   0  0  1  0  0  0  0  0  0  0  0  0
   -3.9618    0.6106   -0.7217 C   0  0  1  0  0  0  0  0  0  0  0  0
   -0.4853   -0.3339    1.5845 C   0  0  0  0  0  0  0  0  0  0  0  0
   -3.8677    0.9411    0.7670 C   0  0  2  0  0  0  0  0  0  0  0  0
    3.2097   -2.3508    0.1520 C   0  0  0  0  0  0  0  0  0  0  0  0
   -2.4467   -1.1632    1.6117 H   0  0  0  0  0  0  0  0  0  0  0  0
   -1.2478   -0.1497   -1.0523 H   0  0  0  0  0  0  0  0  0  0  0  0
    1.7388    2.7514    0.4533 H   0  0  0  0  0  0  0  0  0  0  0  0
    1.6392    1.2449   -1.4892 H   0  0  0  0  0  0  0  0  0  0  0  0
    1.5482    1.0924    2.3633 H   0  0  0  0  0  0  0  0  0  0  0  0
    4.2976    0.0656   -0.5389 H   0  0  0  0  0  0  0  0  0  0  0  0
   -3.9218   -1.5542   -0.6044 H   0  0  0  0  0  0  0  0  0  0  0  0
    1.5012   -1.2300   -0.4573 H   0  0  0  0  0  0  0  0  0  0  0  0
   -5.0068    0.6081   -1.0527 H   0  0  0  0  0  0  0  0  0  0  0  0
   -0.0031   -1.3155    1.5476 H   0  0  0  0  0  0  0  0  0  0  0  0
   -0.5316   -0.0112    2.6319 H   0  0  0  0  0  0  0  0  0  0  0  0
   -4.1944    1.9747    0.9286 H   0  0  0  0  0  0  0  0  0  0  0  0
    4.1874   -2.2155    0.6262 H   0  0  0  0  0  0  0  0  0  0  0  0
    3.3487   -2.8630   -0.8036 H   0  0  0  0  0  0  0  0  0  0  0  0
   -0.4407   -2.1161   -0.4002 H   0  0  0  0  0  0  0  0  0  0  0  0
    3.9530    2.8588    0.6995 H   0  0  0  0  0  0  0  0  0  0  0  0
    4.2847    2.2338   -1.2250 H   0  0  0  0  0  0  0  0  0  0  0  0
    3.9633   -1.3194   -2.2166 H   0  0  0  0  0  0  0  0  0  0  0  0
   -2.6485   -0.3237   -2.8204 H   0  0  0  0  0  0  0  0  0  0  0  0
   -3.4607    1.5064   -2.3850 H   0  0  0  0  0  0  0  0  0  0  0  0
   -4.9832    0.5604    2.3155 H   0  0  0  0  0  0  0  0  0  0  0  0
    2.3125   -2.7286    1.8362 H   0  0  0  0  0  0  0  0  0  0  0  0
  1 16  1  0  0  0  0
  1 19  1  0  0  0  0
  2 12  1  0  0  0  0
  2 22  1  0  0  0  0
  3 16  1  0  0  0  0
  3 21  1  0  0  0  0
  4 13  1  0  0  0  0
  4 38  1  0  0  0  0
  5 14  1  0  0  0  0
  5 39  1  0  0  0  0
  6 15  1  0  0  0  0
  6 40  1  0  0  0  0
  7 17  1  0  0  0  0
  7 41  1  0  0  0  0
  8 18  1  0  0  0  0
  8 42  1  0  0  0  0
  9 20  1  0  0  0  0
  9 43  1  0  0  0  0
 10 22  1  0  0  0  0
 10 44  1  0  0  0  0
 11 23  1  0  0  0  0
 11 45  1  0  0  0  0
 12 13  1  0  0  0  0
 12 21  1  0  0  0  0
 12 24  1  0  0  0  0
 13 18  1  0  0  0  0
 13 25  1  0  0  0  0
 14 15  1  0  0  0  0
 14 16  1  0  0  0  0
 14 26  1  0  0  0  0
 15 17  1  0  0  0  0
 15 27  1  0  0  0  0
 16 28  1  0  0  0  0
 17 19  1  0  0  0  0
 17 29  1  0  0  0  0
 18 20  1  0  0  0  0
 18 30  1  0  0  0  0
 19 23  1  0  0  0  0
 19 31  1  0  0  0  0
 20 22  1  0  0  0  0
 20 32  1  0  0  0  0
 21 33  1  0  0  0  0
 21 34  1  0  0  0  0
 22 35  1  0  0  0  0
 23 36  1  0  0  0  0
 23 37  1  0  0  0  0
M  END
> <PUBCHEM_COMPOUND_CID>
439557

> <PUBCHEM_CONFORMER_RMSD>
0.8

> <PUBCHEM_CONFORMER_DIVERSEORDER>
1
30
37
39
12
35
43
2
49
38
13
34
25
33
20
10
50
46
42
23
19
31
45
14
15
32
29
48
18
24
9
3
41
40
22
7
21
44
16
4
47
6
36
28
17
26
5
27
8
11

> <PUBCHEM_MMFF94_PARTIAL_CHARGES>
31
1 -0.56
10 -0.68
11 -0.68
12 0.28
13 0.28
14 0.28
15 0.28
16 0.56
17 0.28
18 0.28
19 0.28
2 -0.56
20 0.28
21 0.28
22 0.56
23 0.28
3 -0.56
38 0.4
39 0.4
4 -0.68
40 0.4
41 0.4
42 0.4
43 0.4
44 0.4
45 0.4
5 -0.68
6 -0.68
7 -0.68
8 -0.68
9 -0.68

> <PUBCHEM_EFFECTIVE_ROTOR_COUNT>
6.4

> <PUBCHEM_PHARMACOPHORE_FEATURES>
21
1 1 acceptor
1 10 acceptor
1 10 donor
1 11 acceptor
1 11 donor
1 2 acceptor
1 3 acceptor
1 4 acceptor
1 4 donor
1 5 acceptor
1 5 donor
1 6 acceptor
1 6 donor
1 7 acceptor
1 7 donor
1 8 acceptor
1 8 donor
1 9 acceptor
1 9 donor
6 1 14 15 16 17 19 rings
6 2 12 13 18 20 22 rings

> <PUBCHEM_HEAVY_ATOM_COUNT>
23

> <PUBCHEM_ATOM_DEF_STEREO_COUNT>
10

> <PUBCHEM_ATOM_UDEF_STEREO_COUNT>
0

> <PUBCHEM_BOND_DEF_STEREO_COUNT>
0

> <PUBCHEM_BOND_UDEF_STEREO_COUNT>
0

> <PUBCHEM_ISOTOPIC_ATOM_COUNT>
0

> <PUBCHEM_COMPONENT_COUNT>
1

> <PUBCHEM_CACTVS_TAUTO_COUNT>
1

> <PUBCHEM_CONFORMER_ID>
0006B50500000001

> <PUBCHEM_MMFF94_ENERGY>
63.1527

> <PUBCHEM_FEATURE_SELFOVERLAP>
106.679

> <PUBCHEM_SHAPE_FINGERPRINT>
10062212 137 17603878835798949095
10366900 7 12535333585077380045
10498660 4 15123508125172655303
12173636 292 18412824664590680051
12553582 1 18115302418461938362
12707595 3 15357981101287983889
12788726 201 17604695806828698864
13004483 165 17767141056963789706
13134695 92 17845668052848967298
13224815 77 18336268955239903001
13296908 3 13912325664057592321
13693222 15 9511465493918229321
15163728 17 17700958960985457956
151778 21 18271234006282638223
16752209 62 17096913870921480313
18186145 218 18260830414512447531
18981168 100 16271935925508692631
19862831 5 17676762115207121833
20645477 70 17967807241326354650
21864079 5 17632583751236670037
22393880 68 18187082815431713620
23503958 25 15985106340240357477
23559900 14 13901365809556200609
251288 83 7781506019183852992
3082319 5 18114184111967331377
312423 11 18260271832715398391
5161694 15 18334851736085695909
5281201 14 17846211210923052099
5374978 207 12031790236678783185
633830 44 17988649639993867353
74978 22 18187082836500381003
7808743 9 15194134064955812598
81228 2 14346339243264697403
8988823 20 7565051732413449785
9709674 26 17531534165629816423
9882013 296 13398626126389276893

> <PUBCHEM_SHAPE_MULTIPOLES>
408.77
8.69
2.38
1.93
4.48
0.82
-0.62
-1.22
-1.67
-2.66
0.03
0.31
-0.09
-0.75

> <PUBCHEM_SHAPE_SELFOVERLAP>
838.158

> <PUBCHEM_SHAPE_VOLUME>
230.1

> <PUBCHEM_COORDINATE_TYPE>
2
5
10

$$$$

