13963836
  -OEChem-07051213102D

 80 83  0     1  0  0  0  0  0999 V2000
   10.3312    1.2500    0.0000 O   0  0  0  0  0  0  0  0  0  0  0  0
   11.1972   -1.2500    0.0000 O   0  0  0  0  0  0  0  0  0  0  0  0
   12.0632    1.2500    0.0000 O   0  0  0  0  0  0  0  0  0  0  0  0
    8.5991    0.2500    0.0000 O   0  0  0  0  0  0  0  0  0  0  0  0
   12.0632    0.2500    0.0000 O   0  0  0  0  0  0  0  0  0  0  0  0
    8.5991   -1.7500    0.0000 O   0  0  0  0  0  0  0  0  0  0  0  0
   10.3312    3.2500    0.0000 O   0  0  0  0  0  0  0  0  0  0  0  0
   12.0632    4.2500    0.0000 O   0  0  0  0  0  0  0  0  0  0  0  0
   13.7953    3.2500    0.0000 O   0  0  0  0  0  0  0  0  0  0  0  0
   11.1972   -3.2500    0.0000 O   0  0  0  0  0  0  0  0  0  0  0  0
    7.7331   -1.2500    0.0000 O   0  0  0  0  0  0  0  0  0  0  0  0
   14.6613   -4.2500    0.0000 O   0  0  0  0  0  0  0  0  0  0  0  0
   16.3933   -3.2500    0.0000 O   0  0  0  0  0  0  0  0  0  0  0  0
    4.2690    2.7500    0.0000 O   0  0  0  0  0  0  0  0  0  0  0  0
    2.5369    1.7500    0.0000 O   0  0  0  0  0  0  0  0  0  0  0  0
   10.3312    0.2500    0.0000 C   0  0  3  0  0  0  0  0  0  0  0  0
    9.4651   -0.2500    0.0000 C   0  0  3  0  0  0  0  0  0  0  0  0
    9.4651   -1.2500    0.0000 C   0  0  3  0  0  0  0  0  0  0  0  0
   11.1972   -0.2500    0.0000 C   0  0  3  0  0  0  0  0  0  0  0  0
   10.3312   -1.7500    0.0000 C   0  0  3  0  0  0  0  0  0  0  0  0
   11.1972    1.7500    0.0000 C   0  0  3  0  0  0  0  0  0  0  0  0
   11.1972    2.7500    0.0000 C   0  0  3  0  0  0  0  0  0  0  0  0
   12.0632    3.2500    0.0000 C   0  0  3  0  0  0  0  0  0  0  0  0
   12.9292    2.7500    0.0000 C   0  0  3  0  0  0  0  0  0  0  0  0
   12.9292    1.7500    0.0000 C   0  0  3  0  0  0  0  0  0  0  0  0
   10.3312   -2.7500    0.0000 C   0  0  0  0  0  0  0  0  0  0  0  0
   13.7953    1.2500    0.0000 C   0  0  0  0  0  0  0  0  0  0  0  0
   12.9292   -0.2500    0.0000 C   0  0  0  0  0  0  0  0  0  0  0  0
    7.7331   -0.2500    0.0000 C   0  0  0  0  0  0  0  0  0  0  0  0
   12.9292   -1.2500    0.0000 C   0  0  0  0  0  0  0  0  0  0  0  0
   13.7953   -1.7500    0.0000 C   0  0  0  0  0  0  0  0  0  0  0  0
    6.8671    0.2500    0.0000 C   0  0  0  0  0  0  0  0  0  0  0  0
   13.7953   -2.7500    0.0000 C   0  0  0  0  0  0  0  0  0  0  0  0
   14.6613   -1.2500    0.0000 C   0  0  0  0  0  0  0  0  0  0  0  0
    6.0010   -0.2500    0.0000 C   0  0  0  0  0  0  0  0  0  0  0  0
   14.6613   -3.2500    0.0000 C   0  0  0  0  0  0  0  0  0  0  0  0
   15.5273   -1.7500    0.0000 C   0  0  0  0  0  0  0  0  0  0  0  0
    5.1350    0.2500    0.0000 C   0  0  0  0  0  0  0  0  0  0  0  0
   15.5273   -2.7500    0.0000 C   0  0  0  0  0  0  0  0  0  0  0  0
    5.1350    1.2500    0.0000 C   0  0  0  0  0  0  0  0  0  0  0  0
    4.2690   -0.2500    0.0000 C   0  0  0  0  0  0  0  0  0  0  0  0
    4.2690    1.7500    0.0000 C   0  0  0  0  0  0  0  0  0  0  0  0
    3.4030    0.2500    0.0000 C   0  0  0  0  0  0  0  0  0  0  0  0
    3.4030    1.2500    0.0000 C   0  0  0  0  0  0  0  0  0  0  0  0
   10.8681    0.5600    0.0000 H   0  0  0  0  0  0  0  0  0  0  0  0
    9.4651    0.3700    0.0000 H   0  0  0  0  0  0  0  0  0  0  0  0
    9.4651   -1.8700    0.0000 H   0  0  0  0  0  0  0  0  0  0  0  0
   11.1972    0.3700    0.0000 H   0  0  0  0  0  0  0  0  0  0  0  0
   10.8681   -2.0600    0.0000 H   0  0  0  0  0  0  0  0  0  0  0  0
   10.6603    2.0600    0.0000 H   0  0  0  0  0  0  0  0  0  0  0  0
   10.6603    2.4400    0.0000 H   0  0  0  0  0  0  0  0  0  0  0  0
   12.6002    3.5600    0.0000 H   0  0  0  0  0  0  0  0  0  0  0  0
   12.9292    3.3700    0.0000 H   0  0  0  0  0  0  0  0  0  0  0  0
   12.9292    1.1300    0.0000 H   0  0  0  0  0  0  0  0  0  0  0  0
    9.7206   -2.6423    0.0000 H   0  0  0  0  0  0  0  0  0  0  0  0
   10.1191   -3.3326    0.0000 H   0  0  0  0  0  0  0  0  0  0  0  0
   13.4853    0.7131    0.0000 H   0  0  0  0  0  0  0  0  0  0  0  0
   14.3322    0.9400    0.0000 H   0  0  0  0  0  0  0  0  0  0  0  0
   14.1053    1.7869    0.0000 H   0  0  0  0  0  0  0  0  0  0  0  0
    8.5991   -2.3700    0.0000 H   0  0  0  0  0  0  0  0  0  0  0  0
   10.3312    3.8700    0.0000 H   0  0  0  0  0  0  0  0  0  0  0  0
   12.6002    4.5600    0.0000 H   0  0  0  0  0  0  0  0  0  0  0  0
   13.5398   -0.3577    0.0000 H   0  0  0  0  0  0  0  0  0  0  0  0
   13.1413    0.3326    0.0000 H   0  0  0  0  0  0  0  0  0  0  0  0
   14.3322    2.9400    0.0000 H   0  0  0  0  0  0  0  0  0  0  0  0
   12.3187   -1.1423    0.0000 H   0  0  0  0  0  0  0  0  0  0  0  0
   12.7172   -1.8326    0.0000 H   0  0  0  0  0  0  0  0  0  0  0  0
   11.1972   -3.8700    0.0000 H   0  0  0  0  0  0  0  0  0  0  0  0
    6.8671    0.8700    0.0000 H   0  0  0  0  0  0  0  0  0  0  0  0
   13.2583   -3.0600    0.0000 H   0  0  0  0  0  0  0  0  0  0  0  0
   14.6613   -0.6300    0.0000 H   0  0  0  0  0  0  0  0  0  0  0  0
    6.0010   -0.8700    0.0000 H   0  0  0  0  0  0  0  0  0  0  0  0
   16.0643   -1.4400    0.0000 H   0  0  0  0  0  0  0  0  0  0  0  0
    5.6720    1.5600    0.0000 H   0  0  0  0  0  0  0  0  0  0  0  0
    4.2690   -0.8700    0.0000 H   0  0  0  0  0  0  0  0  0  0  0  0
   15.1982   -4.5600    0.0000 H   0  0  0  0  0  0  0  0  0  0  0  0
   16.9303   -2.9400    0.0000 H   0  0  0  0  0  0  0  0  0  0  0  0
    2.8660   -0.0600    0.0000 H   0  0  0  0  0  0  0  0  0  0  0  0
    3.7320    3.0600    0.0000 H   0  0  0  0  0  0  0  0  0  0  0  0
    2.0000    1.4400    0.0000 H   0  0  0  0  0  0  0  0  0  0  0  0
  1 16  1  0  0  0  0
  1 21  1  0  0  0  0
  2 19  1  0  0  0  0
  2 20  1  0  0  0  0
  3 21  1  0  0  0  0
  3 25  1  0  0  0  0
  4 17  1  0  0  0  0
  4 29  1  0  0  0  0
  5 19  1  0  0  0  0
  5 28  1  0  0  0  0
  6 18  1  0  0  0  0
  6 60  1  0  0  0  0
  7 22  1  0  0  0  0
  7 61  1  0  0  0  0
  8 23  1  0  0  0  0
  8 62  1  0  0  0  0
  9 24  1  0  0  0  0
  9 65  1  0  0  0  0
 10 26  1  0  0  0  0
 10 68  1  0  0  0  0
 11 29  2  0  0  0  0
 12 36  1  0  0  0  0
 12 76  1  0  0  0  0
 13 39  1  0  0  0  0
 13 77  1  0  0  0  0
 14 42  1  0  0  0  0
 14 79  1  0  0  0  0
 15 44  1  0  0  0  0
 15 80  1  0  0  0  0
 16 17  1  0  0  0  0
 16 19  1  0  0  0  0
 16 45  1  0  0  0  0
 17 18  1  0  0  0  0
 17 46  1  0  0  0  0
 18 20  1  0  0  0  0
 18 47  1  0  0  0  0
 19 48  1  0  0  0  0
 20 26  1  0  0  0  0
 20 49  1  0  0  0  0
 21 22  1  0  0  0  0
 21 50  1  0  0  0  0
 22 23  1  0  0  0  0
 22 51  1  0  0  0  0
 23 24  1  0  0  0  0
 23 52  1  0  0  0  0
 24 25  1  0  0  0  0
 24 53  1  0  0  0  0
 25 27  1  0  0  0  0
 25 54  1  0  0  0  0
 26 55  1  0  0  0  0
 26 56  1  0  0  0  0
 27 57  1  0  0  0  0
 27 58  1  0  0  0  0
 27 59  1  0  0  0  0
 28 30  1  0  0  0  0
 28 63  1  0  0  0  0
 28 64  1  0  0  0  0
 29 32  1  0  0  0  0
 30 31  1  0  0  0  0
 30 66  1  0  0  0  0
 30 67  1  0  0  0  0
 31 33  2  0  0  0  0
 31 34  1  0  0  0  0
 32 35  2  0  0  0  0
 32 69  1  0  0  0  0
 33 36  1  0  0  0  0
 33 70  1  0  0  0  0
 34 37  2  0  0  0  0
 34 71  1  0  0  0  0
 35 38  1  0  0  0  0
 35 72  1  0  0  0  0
 36 39  2  0  0  0  0
 37 39  1  0  0  0  0
 37 73  1  0  0  0  0
 38 40  2  0  0  0  0
 38 41  1  0  0  0  0
 40 42  1  0  0  0  0
 40 74  1  0  0  0  0
 41 43  2  0  0  0  0
 41 75  1  0  0  0  0
 42 44  2  0  0  0  0
 43 44  1  0  0  0  0
 43 78  1  0  0  0  0
M  END
> <PUBCHEM_COMPOUND_CID>
13963836

> <PUBCHEM_COMPOUND_CANONICALIZED>
1

> <PUBCHEM_CACTVS_COMPLEXITY>
936

> <PUBCHEM_CACTVS_HBOND_ACCEPTOR>
15

> <PUBCHEM_CACTVS_HBOND_DONOR>
9

> <PUBCHEM_CACTVS_ROTATABLE_BOND>
11

> <PUBCHEM_CACTVS_SUBSKEYS>
AAADcfB4PAAAAAAAAAAAAAAAAAAAAAAAAAA0aIEAAAAAAAABQAAAGgAACAAADBSwmAMyDoAABgCIAiDSCAACAAAgIAAIiAAGiMgZNiKCMRKicAElwBEPuYfA4LwOIAABAAAAQABAAAIAAACAAAAAAAAAAA==

> <PUBCHEM_IUPAC_OPENEYE_NAME>
[2-[2-(3,4-dihydroxyphenyl)ethoxy]-5-hydroxy-6-(hydroxymethyl)-3-(3,4,5-trihydroxy-6-methyl-tetrahydropyran-2-yl)oxy-tetrahydropyran-4-yl] (E)-3-(3,4-dihydroxyphenyl)prop-2-enoate

> <PUBCHEM_IUPAC_CAS_NAME>
(E)-3-(3,4-dihydroxyphenyl)-2-propenoic acid [2-[2-(3,4-dihydroxyphenyl)ethoxy]-5-hydroxy-6-(hydroxymethyl)-3-[(3,4,5-trihydroxy-6-methyl-2-oxanyl)oxy]-4-oxanyl] ester

> <PUBCHEM_IUPAC_NAME>
[2-[2-(3,4-dihydroxyphenyl)ethoxy]-5-hydroxy-6-(hydroxymethyl)-3-(3,4,5-trihydroxy-6-methyloxan-2-yl)oxyoxan-4-yl] (E)-3-(3,4-dihydroxyphenyl)prop-2-enoate

> <PUBCHEM_IUPAC_SYSTEMATIC_NAME>
[2-[2-[3,4-bis(oxidanyl)phenyl]ethoxy]-6-(hydroxymethyl)-3-[6-methyl-3,4,5-tris(oxidanyl)oxan-2-yl]oxy-5-oxidanyl-oxan-4-yl] (E)-3-[3,4-bis(oxidanyl)phenyl]prop-2-enoate

> <PUBCHEM_IUPAC_TRADITIONAL_NAME>
(E)-3-(3,4-dihydroxyphenyl)acrylic acid [2-[2-(3,4-dihydroxyphenyl)ethoxy]-5-hydroxy-6-methylol-3-(3,4,5-trihydroxy-6-methyl-tetrahydropyran-2-yl)oxy-tetrahydropyran-4-yl] ester

> <PUBCHEM_IUPAC_INCHI>
InChI=1S/C29H36O15/c1-13-22(36)24(38)25(39)28(41-13)44-27-26(43-21(35)7-4-14-2-5-16(31)18(33)10-14)23(37)20(12-30)42-29(27)40-9-8-15-3-6-17(32)19(34)11-15/h2-7,10-11,13,20,22-34,36-39H,8-9,12H2,1H3/b7-4+

> <PUBCHEM_IUPAC_INCHIKEY>
QLZWUGOYBODRLF-QPJJXVBHSA-N

> <PUBCHEM_XLOGP3_AA>
0

> <PUBCHEM_EXACT_MASS>
624.20542

> <PUBCHEM_MOLECULAR_FORMULA>
C29H36O15

> <PUBCHEM_MOLECULAR_WEIGHT>
624.58714

> <PUBCHEM_OPENEYE_CAN_SMILES>
CC1C(C(C(C(O1)OC2C(C(C(OC2OCCC3=CC(=C(C=C3)O)O)CO)O)OC(=O)C=CC4=CC(=C(C=C4)O)O)O)O)O

> <PUBCHEM_OPENEYE_ISO_SMILES>
CC1C(C(C(C(O1)OC2C(C(C(OC2OCCC3=CC(=C(C=C3)O)O)CO)O)OC(=O)/C=C/C4=CC(=C(C=C4)O)O)O)O)O

> <PUBCHEM_CACTVS_TPSA>
245

> <PUBCHEM_MONOISOTOPIC_WEIGHT>
624.20542

> <PUBCHEM_TOTAL_CHARGE>
0

> <PUBCHEM_HEAVY_ATOM_COUNT>
44

> <PUBCHEM_ATOM_DEF_STEREO_COUNT>
0

> <PUBCHEM_ATOM_UDEF_STEREO_COUNT>
10

> <PUBCHEM_BOND_DEF_STEREO_COUNT>
1

> <PUBCHEM_BOND_UDEF_STEREO_COUNT>
0

> <PUBCHEM_ISOTOPIC_ATOM_COUNT>
0

> <PUBCHEM_COMPONENT_COUNT>
1

> <PUBCHEM_CACTVS_TAUTO_COUNT>
288

> <PUBCHEM_COORDINATE_TYPE>
1
5
255

> <PUBCHEM_BONDANNOTATIONS>
16  1  3
21  1  3
20  26  3
25  27  3
31  33  8
31  34  8
33  36  8
34  37  8
36  39  8
37  39  8
38  40  8
38  41  8
17  4  3
40  42  8
41  43  8
42  44  8
43  44  8
19  5  3
18  6  3
22  7  3
23  8  3
24  9  3

$$$$

