441856
  -OEChem-07051212562D

106112  0     1  0  0  0  0  0999 V2000
   14.8570   -1.0000    0.0000 O   0  0  0  0  0  0  0  0  0  0  0  0
   17.3868    0.5000    0.0000 O   0  0  0  0  0  0  0  0  0  0  0  0
    9.4639   -2.0524    0.0000 O   0  0  0  0  0  0  0  0  0  0  0  0
   16.1167    3.8733    0.0000 O   0  0  0  0  0  0  0  0  0  0  0  0
    8.6036   -0.5490    0.0000 O   0  0  0  0  0  0  0  0  0  0  0  0
   17.8772    4.1490    0.0000 O   0  0  0  0  0  0  0  0  0  0  0  0
    7.7280   -3.0457    0.0000 O   0  0  0  0  0  0  0  0  0  0  0  0
    5.9998   -2.0390    0.0000 O   0  0  0  0  0  0  0  0  0  0  0  0
    6.0075   -0.0390    0.0000 O   0  0  0  0  0  0  0  0  0  0  0  0
    5.1357   -1.5357    0.0000 O   0  0  0  0  0  0  0  0  0  0  0  0
    4.2793    0.9676    0.0000 O   0  0  0  0  0  0  0  0  0  0  0  0
    2.5434   -0.0257    0.0000 O   0  0  0  0  0  0  0  0  0  0  0  0
    2.5357   -2.0257    0.0000 O   0  0  0  0  0  0  0  0  0  0  0  0
    3.3960   -3.5290    0.0000 O   0  0  0  0  0  0  0  0  0  0  0  0
   14.8570    0.0000    0.0000 C   0  0  1  0  0  0  0  0  0  0  0  0
   13.9909   -0.5000    0.0000 C   0  0  1  0  0  0  0  0  0  0  0  0
   13.1249    0.0000    0.0000 C   0  0  1  0  0  0  0  0  0  0  0  0
   14.8570    1.0000    0.0000 C   0  0  1  0  0  0  0  0  0  0  0  0
   12.2149   -0.5069    0.0000 C   0  0  2  0  0  0  0  0  0  0  0  0
   12.2069   -1.5485    0.0000 C   0  0  2  0  0  0  0  0  0  0  0  0
   15.8032    1.3047    0.0000 C   0  0  2  0  0  0  0  0  0  0  0  0
   13.1249    1.0000    0.0000 C   0  0  0  0  0  0  0  0  0  0  0  0
   13.9909    1.5000    0.0000 C   0  0  0  0  0  0  0  0  0  0  0  0
   15.8032   -0.3048    0.0000 C   0  0  0  0  0  0  0  0  0  0  0  0
   14.0070   -1.5415    0.0000 C   0  0  0  0  0  0  0  0  0  0  0  0
   16.3868    0.5000    0.0000 C   0  0  2  0  0  0  0  0  0  0  0  0
   13.1090   -2.0693    0.0000 C   0  0  0  0  0  0  0  0  0  0  0  0
   11.2881    0.0572    0.0000 C   0  0  0  0  0  0  0  0  0  0  0  0
   14.8570    2.0000    0.0000 C   0  0  0  0  0  0  0  0  0  0  0  0
   11.2715   -2.0982    0.0000 C   0  0  0  0  0  0  0  0  0  0  0  0
   12.2226    0.4931    0.0000 C   0  0  0  0  0  0  0  0  0  0  0  0
   10.3402   -0.4707    0.0000 C   0  0  0  0  0  0  0  0  0  0  0  0
   10.3318   -1.5557    0.0000 C   0  0  2  0  0  0  0  0  0  0  0  0
   16.1139    2.2552    0.0000 C   0  0  0  0  0  0  0  0  0  0  0  0
   15.5275    3.0653    0.0000 C   0  0  0  0  0  0  0  0  0  0  0  0
   17.0654    2.5626    0.0000 C   0  0  0  0  0  0  0  0  0  0  0  0
    8.5998   -1.5490    0.0000 C   0  0  2  0  0  0  0  0  0  0  0  0
   17.0672    3.5626    0.0000 C   0  0  0  0  0  0  0  0  0  0  0  0
    7.7318   -2.0457    0.0000 C   0  0  1  0  0  0  0  0  0  0  0  0
    6.8678   -1.5424    0.0000 C   0  0  2  0  0  0  0  0  0  0  0  0
    7.7396   -0.0457    0.0000 C   0  0  1  0  0  0  0  0  0  0  0  0
    6.8716   -0.5424    0.0000 C   0  0  2  0  0  0  0  0  0  0  0  0
    7.7434    0.9543    0.0000 C   0  0  0  0  0  0  0  0  0  0  0  0
    5.1396   -0.5357    0.0000 C   0  0  2  0  0  0  0  0  0  0  0  0
    5.9960   -3.0390    0.0000 C   0  0  0  0  0  0  0  0  0  0  0  0
    4.2755   -0.0323    0.0000 C   0  0  1  0  0  0  0  0  0  0  0  0
    3.4075   -0.5290    0.0000 C   0  0  2  0  0  0  0  0  0  0  0  0
    4.2678   -2.0323    0.0000 C   0  0  1  0  0  0  0  0  0  0  0  0
    3.4037   -1.5290    0.0000 C   0  0  1  0  0  0  0  0  0  0  0  0
    4.2639   -3.0323    0.0000 C   0  0  0  0  0  0  0  0  0  0  0  0
   14.7303   -0.9193    0.0000 H   0  0  0  0  0  0  0  0  0  0  0  0
   13.8610    0.4250    0.0000 H   0  0  0  0  0  0  0  0  0  0  0  0
   12.2102   -2.3985    0.0000 H   0  0  0  0  0  0  0  0  0  0  0  0
   16.4157    1.4009    0.0000 H   0  0  0  0  0  0  0  0  0  0  0  0
   12.9129    1.5826    0.0000 H   0  0  0  0  0  0  0  0  0  0  0  0
   12.5143    0.8923    0.0000 H   0  0  0  0  0  0  0  0  0  0  0  0
   14.3895    1.9749    0.0000 H   0  0  0  0  0  0  0  0  0  0  0  0
   13.5924    1.9749    0.0000 H   0  0  0  0  0  0  0  0  0  0  0  0
   15.5522   -0.8717    0.0000 H   0  0  0  0  0  0  0  0  0  0  0  0
   16.3406   -0.6140    0.0000 H   0  0  0  0  0  0  0  0  0  0  0  0
   14.2250   -2.1219    0.0000 H   0  0  0  0  0  0  0  0  0  0  0  0
   14.6162   -1.4260    0.0000 H   0  0  0  0  0  0  0  0  0  0  0  0
   16.6685   -0.0523    0.0000 H   0  0  0  0  0  0  0  0  0  0  0  0
   12.7117   -2.5453    0.0000 H   0  0  0  0  0  0  0  0  0  0  0  0
   13.5099   -2.5422    0.0000 H   0  0  0  0  0  0  0  0  0  0  0  0
   11.6963    0.5239    0.0000 H   0  0  0  0  0  0  0  0  0  0  0  0
   10.8982    0.5392    0.0000 H   0  0  0  0  0  0  0  0  0  0  0  0
   15.4770    2.0000    0.0000 H   0  0  0  0  0  0  0  0  0  0  0  0
   14.8570    2.6200    0.0000 H   0  0  0  0  0  0  0  0  0  0  0  0
   14.2370    2.0000    0.0000 H   0  0  0  0  0  0  0  0  0  0  0  0
   10.8742   -2.5742    0.0000 H   0  0  0  0  0  0  0  0  0  0  0  0
   11.6724   -2.5711    0.0000 H   0  0  0  0  0  0  0  0  0  0  0  0
   12.8426    0.4883    0.0000 H   0  0  0  0  0  0  0  0  0  0  0  0
   12.2274    1.1131    0.0000 H   0  0  0  0  0  0  0  0  0  0  0  0
   11.6026    0.4979    0.0000 H   0  0  0  0  0  0  0  0  0  0  0  0
   10.1356    0.1145    0.0000 H   0  0  0  0  0  0  0  0  0  0  0  0
    9.7285   -0.5721    0.0000 H   0  0  0  0  0  0  0  0  0  0  0  0
    9.7967   -1.2426    0.0000 H   0  0  0  0  0  0  0  0  0  0  0  0
   15.3939   -1.3100    0.0000 H   0  0  0  0  0  0  0  0  0  0  0  0
   17.6968   -0.0370    0.0000 H   0  0  0  0  0  0  0  0  0  0  0  0
   15.0674    3.4809    0.0000 H   0  0  0  0  0  0  0  0  0  0  0  0
   15.0660    2.6512    0.0000 H   0  0  0  0  0  0  0  0  0  0  0  0
   17.5664    2.1973    0.0000 H   0  0  0  0  0  0  0  0  0  0  0  0
    8.5974   -2.1690    0.0000 H   0  0  0  0  0  0  0  0  0  0  0  0
    7.1937   -2.3536    0.0000 H   0  0  0  0  0  0  0  0  0  0  0  0
    6.3320   -1.2303    0.0000 H   0  0  0  0  0  0  0  0  0  0  0  0
    8.2777    0.2622    0.0000 H   0  0  0  0  0  0  0  0  0  0  0  0
    6.8740    0.0776    0.0000 H   0  0  0  0  0  0  0  0  0  0  0  0
    8.2637   -3.3577    0.0000 H   0  0  0  0  0  0  0  0  0  0  0  0
    8.3634    0.9519    0.0000 H   0  0  0  0  0  0  0  0  0  0  0  0
    7.7458    1.5743    0.0000 H   0  0  0  0  0  0  0  0  0  0  0  0
    7.1234    0.9567    0.0000 H   0  0  0  0  0  0  0  0  0  0  0  0
    5.1420    0.0843    0.0000 H   0  0  0  0  0  0  0  0  0  0  0  0
    5.3760   -3.0366    0.0000 H   0  0  0  0  0  0  0  0  0  0  0  0
    5.9936   -3.6590    0.0000 H   0  0  0  0  0  0  0  0  0  0  0  0
    6.6160   -3.0414    0.0000 H   0  0  0  0  0  0  0  0  0  0  0  0
    3.7398    0.2797    0.0000 H   0  0  0  0  0  0  0  0  0  0  0  0
    2.8694   -0.8369    0.0000 H   0  0  0  0  0  0  0  0  0  0  0  0
    4.8035   -2.3444    0.0000 H   0  0  0  0  0  0  0  0  0  0  0  0
    2.8680   -1.2169    0.0000 H   0  0  0  0  0  0  0  0  0  0  0  0
    3.7436    1.2797    0.0000 H   0  0  0  0  0  0  0  0  0  0  0  0
    4.4737   -3.6158    0.0000 H   0  0  0  0  0  0  0  0  0  0  0  0
    4.8749   -2.9270    0.0000 H   0  0  0  0  0  0  0  0  0  0  0  0
    2.0053   -0.3336    0.0000 H   0  0  0  0  0  0  0  0  0  0  0  0
    2.0000   -1.7136    0.0000 H   0  0  0  0  0  0  0  0  0  0  0  0
    3.3936   -4.1490    0.0000 H   0  0  0  0  0  0  0  0  0  0  0  0
 15  1  1  1  0  0  0
  1 79  1  0  0  0  0
 26  2  1  1  0  0  0
  2 80  1  0  0  0  0
 33  3  1  1  0  0  0
 37  3  1  1  0  0  0
  4 35  1  0  0  0  0
  4 38  1  0  0  0  0
  5 37  1  0  0  0  0
  5 41  1  0  0  0  0
  6 38  2  0  0  0  0
 39  7  1  6  0  0  0
  7 89  1  0  0  0  0
 40  8  1  1  0  0  0
  8 45  1  0  0  0  0
 42  9  1  1  0  0  0
 44  9  1  6  0  0  0
 10 44  1  0  0  0  0
 10 48  1  0  0  0  0
 46 11  1  1  0  0  0
 11101  1  0  0  0  0
 47 12  1  6  0  0  0
 12104  1  0  0  0  0
 49 13  1  1  0  0  0
 13105  1  0  0  0  0
 14 50  1  0  0  0  0
 14106  1  0  0  0  0
 15 16  1  0  0  0  0
 15 18  1  0  0  0  0
 15 24  1  0  0  0  0
 16 17  1  0  0  0  0
 16 25  1  0  0  0  0
 16 51  1  1  0  0  0
 17 19  1  0  0  0  0
 17 22  1  0  0  0  0
 17 52  1  6  0  0  0
 18 21  1  0  0  0  0
 18 23  1  0  0  0  0
 18 29  1  1  0  0  0
 19 20  1  0  0  0  0
 19 28  1  0  0  0  0
 19 31  1  1  0  0  0
 20 27  1  0  0  0  0
 20 30  1  0  0  0  0
 20 53  1  1  0  0  0
 21 26  1  0  0  0  0
 21 34  1  1  0  0  0
 21 54  1  0  0  0  0
 22 23  1  0  0  0  0
 22 55  1  0  0  0  0
 22 56  1  0  0  0  0
 23 57  1  0  0  0  0
 23 58  1  0  0  0  0
 24 26  1  0  0  0  0
 24 59  1  0  0  0  0
 24 60  1  0  0  0  0
 25 27  1  0  0  0  0
 25 61  1  0  0  0  0
 25 62  1  0  0  0  0
 26 63  1  0  0  0  0
 27 64  1  0  0  0  0
 27 65  1  0  0  0  0
 28 32  1  0  0  0  0
 28 66  1  0  0  0  0
 28 67  1  0  0  0  0
 29 68  1  0  0  0  0
 29 69  1  0  0  0  0
 29 70  1  0  0  0  0
 30 33  1  0  0  0  0
 30 71  1  0  0  0  0
 30 72  1  0  0  0  0
 31 73  1  0  0  0  0
 31 74  1  0  0  0  0
 31 75  1  0  0  0  0
 32 33  1  0  0  0  0
 32 76  1  0  0  0  0
 32 77  1  0  0  0  0
 33 78  1  0  0  0  0
 34 35  1  0  0  0  0
 34 36  2  0  0  0  0
 35 81  1  0  0  0  0
 35 82  1  0  0  0  0
 36 38  1  0  0  0  0
 36 83  1  0  0  0  0
 37 39  1  0  0  0  0
 37 84  1  0  0  0  0
 39 40  1  0  0  0  0
 39 85  1  0  0  0  0
 40 42  1  0  0  0  0
 40 86  1  0  0  0  0
 41 42  1  0  0  0  0
 41 43  1  1  0  0  0
 41 87  1  0  0  0  0
 42 88  1  0  0  0  0
 43 90  1  0  0  0  0
 43 91  1  0  0  0  0
 43 92  1  0  0  0  0
 44 46  1  0  0  0  0
 44 93  1  0  0  0  0
 45 94  1  0  0  0  0
 45 95  1  0  0  0  0
 45 96  1  0  0  0  0
 46 47  1  0  0  0  0
 46 97  1  0  0  0  0
 47 49  1  0  0  0  0
 47 98  1  0  0  0  0
 48 49  1  0  0  0  0
 48 50  1  6  0  0  0
 48 99  1  0  0  0  0
 49100  1  0  0  0  0
 50102  1  0  0  0  0
 50103  1  0  0  0  0
M  END
> <PUBCHEM_COMPOUND_CID>
441856

> <PUBCHEM_COMPOUND_CANONICALIZED>
1

> <PUBCHEM_CACTVS_COMPLEXITY>
1300

> <PUBCHEM_CACTVS_HBOND_ACCEPTOR>
14

> <PUBCHEM_CACTVS_HBOND_DONOR>
7

> <PUBCHEM_CACTVS_ROTATABLE_BOND>
7

> <PUBCHEM_CACTVS_SUBSKEYS>
AAADcfB8PAAAAAAAAAAAAAAAAAAAAYIAAAA0aMECAAAAAGDAAAAAGgAACAAAD1SwgAMCCAAABgCIAiDSCAAAAAAgAAAACAAAAEgRFAIAIQAiUAAFwAAPIQPA4PwPgAAAAAAAAADAAAYAADAAAYQADAAAAA==

> <PUBCHEM_IUPAC_OPENEYE_NAME>
3-[(3S,5R,8R,9S,10S,13R,14S,16S,17R)-14,16-dihydroxy-3-[(2R,3R,4R,5S,6R)-3-hydroxy-4-methoxy-6-methyl-5-[(2S,3R,4S,5S,6R)-3,4,5-trihydroxy-6-(hydroxymethyl)tetrahydropyran-2-yl]oxy-tetrahydropyran-2-yl]oxy-10,13-dimethyl-1,2,3,4,5,6,7,8,9,11,12,15,16,17-tetradecahydrocyclopenta[a]phenanthren-17-yl]-2H-furan-5-one

> <PUBCHEM_IUPAC_CAS_NAME>
3-[(3S,5R,8R,9S,10S,13R,14S,16S,17R)-14,16-dihydroxy-3-[[(2R,3R,4R,5S,6R)-3-hydroxy-4-methoxy-6-methyl-5-[[(2S,3R,4S,5S,6R)-3,4,5-trihydroxy-6-(hydroxymethyl)-2-oxanyl]oxy]-2-oxanyl]oxy]-10,13-dimethyl-1,2,3,4,5,6,7,8,9,11,12,15,16,17-tetradecahydrocyclopenta[a]phenanthren-17-yl]-2H-furan-5-one

> <PUBCHEM_IUPAC_NAME>
3-[(3S,5R,8R,9S,10S,13R,14S,16S,17R)-14,16-dihydroxy-3-[(2R,3R,4R,5S,6R)-3-hydroxy-4-methoxy-6-methyl-5-[(2S,3R,4S,5S,6R)-3,4,5-trihydroxy-6-(hydroxymethyl)oxan-2-yl]oxyoxan-2-yl]oxy-10,13-dimethyl-1,2,3,4,5,6,7,8,9,11,12,15,16,17-tetradecahydrocyclopenta[a]phenanthren-17-yl]-2H-furan-5-one

> <PUBCHEM_IUPAC_SYSTEMATIC_NAME>
3-[(3S,5R,8R,9S,10S,13R,14S,16S,17R)-3-[(2R,3R,4R,5S,6R)-5-[(2S,3R,4S,5S,6R)-6-(hydroxymethyl)-3,4,5-tris(oxidanyl)oxan-2-yl]oxy-4-methoxy-6-methyl-3-oxidanyl-oxan-2-yl]oxy-10,13-dimethyl-14,16-bis(oxidanyl)-1,2,3,4,5,6,7,8,9,11,12,15,16,17-tetradecahydrocyclopenta[a]phenanthren-17-yl]-2H-furan-5-one

> <PUBCHEM_IUPAC_TRADITIONAL_NAME>
3-[(3S,5R,8R,9S,10S,13R,14S,16S,17R)-14,16-dihydroxy-3-[(2R,3R,4R,5S,6R)-3-hydroxy-4-methoxy-6-methyl-5-[(2S,3R,4S,5S,6R)-3,4,5-trihydroxy-6-methylol-tetrahydropyran-2-yl]oxy-tetrahydropyran-2-yl]oxy-10,13-dimethyl-1,2,3,4,5,6,7,8,9,11,12,15,16,17-tetradecahydrocyclopenta[a]phenanthren-17-yl]-2H-furan-5-one

> <PUBCHEM_IUPAC_INCHI>
InChI=1S/C36H56O14/c1-16-30(50-32-28(42)27(41)26(40)23(14-37)49-32)31(45-4)29(43)33(47-16)48-19-7-9-34(2)18(12-19)5-6-21-20(34)8-10-35(3)25(17-11-24(39)46-15-17)22(38)13-36(21,35)44/h11,16,18-23,25-33,37-38,40-44H,5-10,12-15H2,1-4H3/t16-,18-,19+,20+,21-,22+,23-,25+,26-,27+,28-,29-,30+,31-,32+,33+,34+,35-,36+/m1/s1

> <PUBCHEM_IUPAC_INCHIKEY>
CKNOLMVLQUPVMU-YMMLYESFSA-N

> <PUBCHEM_XLOGP3>
-0.3

> <PUBCHEM_EXACT_MASS>
712.367006

> <PUBCHEM_MOLECULAR_FORMULA>
C36H56O14

> <PUBCHEM_MOLECULAR_WEIGHT>
712.82144

> <PUBCHEM_OPENEYE_CAN_SMILES>
CC1C(C(C(C(O1)OC2CCC3(C(C2)CCC4C3CCC5(C4(CC(C5C6=CC(=O)OC6)O)O)C)C)O)OC)OC7C(C(C(C(O7)CO)O)O)O

> <PUBCHEM_OPENEYE_ISO_SMILES>
C[C@@H]1[C@@H]([C@@H]([C@H]([C@@H](O1)O[C@H]2CC[C@]3([C@@H](C2)CC[C@@H]4[C@@H]3CC[C@]5([C@@]4(C[C@@H]([C@@H]5C6=CC(=O)OC6)O)O)C)C)O)OC)O[C@H]7[C@@H]([C@H]([C@@H]([C@H](O7)CO)O)O)O

> <PUBCHEM_CACTVS_TPSA>
214

> <PUBCHEM_MONOISOTOPIC_WEIGHT>
712.367006

> <PUBCHEM_TOTAL_CHARGE>
0

> <PUBCHEM_HEAVY_ATOM_COUNT>
50

> <PUBCHEM_ATOM_DEF_STEREO_COUNT>
19

> <PUBCHEM_ATOM_UDEF_STEREO_COUNT>
0

> <PUBCHEM_BOND_DEF_STEREO_COUNT>
0

> <PUBCHEM_BOND_UDEF_STEREO_COUNT>
0

> <PUBCHEM_ISOTOPIC_ATOM_COUNT>
0

> <PUBCHEM_COMPONENT_COUNT>
1

> <PUBCHEM_CACTVS_TAUTO_COUNT>
1

> <PUBCHEM_COORDINATE_TYPE>
1
5
255

> <PUBCHEM_BONDANNOTATIONS>
15  1  5
46  11  5
47  12  6
49  13  5
16  51  5
17  52  6
18  29  5
19  31  5
26  2  5
20  53  5
21  34  5
33  3  5
37  3  5
41  43  5
48  50  6
39  7  6
40  8  5
42  9  5
44  9  6

$$$$

