47205032
  -OEChem-06241222572D

 33 34  0     1  0  0  0  0  0999 V2000
    2.8660   -4.4547    0.0000 F   0  0  0  0  0  0  0  0  0  0  0  0
    2.8660   -0.4547    0.0000 O   0  0  0  0  0  0  0  0  0  0  0  0
    2.8660    1.5453    0.0000 O   0  0  0  0  0  0  0  0  0  0  0  0
    4.5981    1.5453    0.0000 N   0  0  0  0  0  0  0  0  0  0  0  0
    5.5686    4.0398    0.0000 N   0  0  0  0  0  0  0  0  0  0  0  0
    6.5468    4.2477    0.0000 N   0  0  0  0  0  0  0  0  0  0  0  0
    3.7320    0.0453    0.0000 C   0  0  3  0  0  0  0  0  0  0  0  0
    4.5981    2.5453    0.0000 C   0  0  0  0  0  0  0  0  0  0  0  0
    3.7320    1.0453    0.0000 C   0  0  0  0  0  0  0  0  0  0  0  0
    5.4641    3.0453    0.0000 C   0  0  0  0  0  0  0  0  0  0  0  0
    4.5981   -0.4547    0.0000 C   0  0  0  0  0  0  0  0  0  0  0  0
    2.8660   -1.4547    0.0000 C   0  0  0  0  0  0  0  0  0  0  0  0
    6.3776    2.6386    0.0000 C   0  0  0  0  0  0  0  0  0  0  0  0
    2.0000   -1.9547    0.0000 C   0  0  0  0  0  0  0  0  0  0  0  0
    3.7320   -1.9547    0.0000 C   0  0  0  0  0  0  0  0  0  0  0  0
    7.0468    3.3817    0.0000 C   0  0  0  0  0  0  0  0  0  0  0  0
    2.0000   -2.9547    0.0000 C   0  0  0  0  0  0  0  0  0  0  0  0
    3.7320   -2.9547    0.0000 C   0  0  0  0  0  0  0  0  0  0  0  0
    2.8660   -3.4547    0.0000 C   0  0  0  0  0  0  0  0  0  0  0  0
    3.7320   -0.5747    0.0000 H   0  0  0  0  0  0  0  0  0  0  0  0
    4.3860    3.1279    0.0000 H   0  0  0  0  0  0  0  0  0  0  0  0
    3.9875    2.4376    0.0000 H   0  0  0  0  0  0  0  0  0  0  0  0
    5.1350    1.2353    0.0000 H   0  0  0  0  0  0  0  0  0  0  0  0
    4.2881   -0.9916    0.0000 H   0  0  0  0  0  0  0  0  0  0  0  0
    5.1350   -0.7647    0.0000 H   0  0  0  0  0  0  0  0  0  0  0  0
    4.9081    0.0822    0.0000 H   0  0  0  0  0  0  0  0  0  0  0  0
    6.5066    2.0321    0.0000 H   0  0  0  0  0  0  0  0  0  0  0  0
    5.1079    4.4547    0.0000 H   0  0  0  0  0  0  0  0  0  0  0  0
    1.4631   -1.6447    0.0000 H   0  0  0  0  0  0  0  0  0  0  0  0
    4.2690   -1.6447    0.0000 H   0  0  0  0  0  0  0  0  0  0  0  0
    7.6634    3.3169    0.0000 H   0  0  0  0  0  0  0  0  0  0  0  0
    1.4631   -3.2647    0.0000 H   0  0  0  0  0  0  0  0  0  0  0  0
    4.2690   -3.2647    0.0000 H   0  0  0  0  0  0  0  0  0  0  0  0
  1 19  1  0  0  0  0
  2  7  1  0  0  0  0
  2 12  1  0  0  0  0
  3  9  2  0  0  0  0
  4  8  1  0  0  0  0
  4  9  1  0  0  0  0
  4 23  1  0  0  0  0
  5  6  1  0  0  0  0
  5 10  1  0  0  0  0
  5 28  1  0  0  0  0
  6 16  2  0  0  0  0
  7  9  1  0  0  0  0
  7 11  1  0  0  0  0
  7 20  1  0  0  0  0
  8 10  1  0  0  0  0
  8 21  1  0  0  0  0
  8 22  1  0  0  0  0
 10 13  2  0  0  0  0
 11 24  1  0  0  0  0
 11 25  1  0  0  0  0
 11 26  1  0  0  0  0
 12 14  2  0  0  0  0
 12 15  1  0  0  0  0
 13 16  1  0  0  0  0
 13 27  1  0  0  0  0
 14 17  1  0  0  0  0
 14 29  1  0  0  0  0
 15 18  2  0  0  0  0
 15 30  1  0  0  0  0
 16 31  1  0  0  0  0
 17 19  2  0  0  0  0
 17 32  1  0  0  0  0
 18 19  1  0  0  0  0
 18 33  1  0  0  0  0
M  END
> <PUBCHEM_COMPOUND_CID>
47205032

> <PUBCHEM_COMPOUND_CANONICALIZED>
1

> <PUBCHEM_CACTVS_COMPLEXITY>
296

> <PUBCHEM_CACTVS_HBOND_ACCEPTOR>
4

> <PUBCHEM_CACTVS_HBOND_DONOR>
2

> <PUBCHEM_CACTVS_ROTATABLE_BOND>
5

> <PUBCHEM_CACTVS_SUBSKEYS>
AAADccBzMQAAAAAAAAAAAAAAAAAAAWAAAAAwAAAAAAAAAAABwAAAHwAYAAAACBzhlg4+hpLjBACqATV3UAKSDAAgogAYuaF+bJgOZqKE8d+XvCjk3hGY6AeAQAAAAAAAAAAAAAAAAAAAAAAAAAAAAAAAAA==

> <PUBCHEM_IUPAC_OPENEYE_NAME>
2-(4-fluorophenoxy)-N-(1H-pyrazol-5-ylmethyl)propanamide

> <PUBCHEM_IUPAC_CAS_NAME>
2-(4-fluorophenoxy)-N-(1H-pyrazol-5-ylmethyl)propanamide

> <PUBCHEM_IUPAC_NAME>
2-(4-fluorophenoxy)-N-(1H-pyrazol-5-ylmethyl)propanamide

> <PUBCHEM_IUPAC_SYSTEMATIC_NAME>
2-(4-fluoranylphenoxy)-N-(1H-pyrazol-5-ylmethyl)propanamide

> <PUBCHEM_IUPAC_TRADITIONAL_NAME>
2-(4-fluorophenoxy)-N-(1H-pyrazol-5-ylmethyl)propionamide

> <PUBCHEM_IUPAC_INCHI>
InChI=1S/C13H14FN3O2/c1-9(19-12-4-2-10(14)3-5-12)13(18)15-8-11-6-7-16-17-11/h2-7,9H,8H2,1H3,(H,15,18)(H,16,17)

> <PUBCHEM_IUPAC_INCHIKEY>
PQLJEWYPVTZVNI-UHFFFAOYSA-N

> <PUBCHEM_XLOGP3_AA>
1.6

> <PUBCHEM_EXACT_MASS>
263.107005

> <PUBCHEM_MOLECULAR_FORMULA>
C13H14FN3O2

> <PUBCHEM_MOLECULAR_WEIGHT>
263.267563

> <PUBCHEM_OPENEYE_CAN_SMILES>
CC(C(=O)NCC1=CC=NN1)OC2=CC=C(C=C2)F

> <PUBCHEM_OPENEYE_ISO_SMILES>
CC(C(=O)NCC1=CC=NN1)OC2=CC=C(C=C2)F

> <PUBCHEM_CACTVS_TPSA>
67

> <PUBCHEM_MONOISOTOPIC_WEIGHT>
263.107005

> <PUBCHEM_TOTAL_CHARGE>
0

> <PUBCHEM_HEAVY_ATOM_COUNT>
19

> <PUBCHEM_ATOM_DEF_STEREO_COUNT>
0

> <PUBCHEM_ATOM_UDEF_STEREO_COUNT>
1

> <PUBCHEM_BOND_DEF_STEREO_COUNT>
0

> <PUBCHEM_BOND_UDEF_STEREO_COUNT>
0

> <PUBCHEM_ISOTOPIC_ATOM_COUNT>
0

> <PUBCHEM_COMPONENT_COUNT>
1

> <PUBCHEM_CACTVS_TAUTO_COUNT>
4

> <PUBCHEM_COORDINATE_TYPE>
1
5
255

> <PUBCHEM_BONDANNOTATIONS>
10  13  8
12  14  8
12  15  8
13  16  8
14  17  8
15  18  8
17  19  8
18  19  8
5  10  8
5  6  8
6  16  8
7  11  3

$$$$

