6441014
  -OEChem-07051213023D

 74 77  0     1  0  0  0  0  0999 V2000
   -0.5926   -6.5402   -0.4557 O   0  0  0  0  0  0  0  0  0  0  0  0
   -0.5451   -5.4483    2.2071 O   0  0  0  0  0  0  0  0  0  0  0  0
    1.0226   -4.7346   -2.7339 O   0  0  0  0  0  0  0  0  0  0  0  0
    2.1032   -1.6430    0.8399 O   0  0  0  0  0  0  0  0  0  0  0  0
   -7.4459    4.4628    1.3956 O   0  0  0  0  0  0  0  0  0  0  0  0
  -10.0391    2.7853   -2.1435 O   0  0  0  0  0  0  0  0  0  0  0  0
   -6.8319    2.0514    1.5583 O   0  0  0  0  0  0  0  0  0  0  0  0
    2.3232   -3.3766   -0.7008 N   0  0  0  0  0  0  0  0  0  0  0  0
   -7.5861    2.2767   -0.6343 N   0  0  0  0  0  0  0  0  0  0  0  0
   -1.3926   -5.4317   -0.0152 C   0  0  2  0  0  0  0  0  0  0  0  0
   -0.7474   -5.4421   -1.3694 C   0  0  1  0  0  0  0  0  0  0  0  0
   -0.7939   -4.5928    1.0832 C   0  0  2  0  0  0  0  0  0  0  0  0
    0.5134   -4.7169   -1.6200 C   0  0  0  0  0  0  0  0  0  0  0  0
    0.5358   -3.9577    0.7306 C   0  0  0  0  0  0  0  0  0  0  0  0
    1.1274   -3.9938   -0.4734 C   0  0  0  0  0  0  0  0  0  0  0  0
   -1.7454   -3.5167    1.5381 C   0  0  0  0  0  0  0  0  0  0  0  0
    9.6967    3.0604   -0.1166 C   0  0  0  0  0  0  0  0  0  0  0  0
    9.5362    4.4850   -0.6663 C   0  0  0  0  0  0  0  0  0  0  0  0
   10.7219    3.0299    1.0260 C   0  0  0  0  0  0  0  0  0  0  0  0
   10.8773    5.0819   -1.0885 C   0  0  0  0  0  0  0  0  0  0  0  0
   12.0605    3.6295    0.5999 C   0  0  0  0  0  0  0  0  0  0  0  0
   11.8942    5.0414    0.0477 C   0  0  0  0  0  0  0  0  0  0  0  0
   -2.5601   -2.8472    0.7088 C   0  0  0  0  0  0  0  0  0  0  0  0
    8.3770    2.5116    0.3367 C   0  0  0  0  0  0  0  0  0  0  0  0
    2.7362   -2.2369   -0.0276 C   0  0  0  0  0  0  0  0  0  0  0  0
   -3.4654   -1.7886    1.0997 C   0  0  0  0  0  0  0  0  0  0  0  0
    7.8034    1.4228   -0.1971 C   0  0  0  0  0  0  0  0  0  0  0  0
    4.0819   -1.7858   -0.4833 C   0  0  0  0  0  0  0  0  0  0  0  0
    6.5200    0.8787    0.1901 C   0  0  0  0  0  0  0  0  0  0  0  0
   -4.2789   -1.1210    0.2669 C   0  0  0  0  0  0  0  0  0  0  0  0
    4.6465   -0.6966    0.0564 C   0  0  0  0  0  0  0  0  0  0  0  0
    5.9492   -0.2110   -0.3463 C   0  0  0  0  0  0  0  0  0  0  0  0
   -5.1445   -0.0468    0.7047 C   0  0  0  0  0  0  0  0  0  0  0  0
   -9.5688    5.2504    0.3934 C   0  0  0  0  0  0  0  0  0  0  0  0
  -10.4331    4.7291   -0.7551 C   0  0  0  0  0  0  0  0  0  0  0  0
   -5.9549    0.6161   -0.1321 C   0  0  0  0  0  0  0  0  0  0  0  0
   -8.4643    3.3021   -0.4351 C   0  0  0  0  0  0  0  0  0  0  0  0
   -8.4282    4.2881    0.4591 C   0  0  0  0  0  0  0  0  0  0  0  0
   -9.6848    3.5105   -1.2264 C   0  0  0  0  0  0  0  0  0  0  0  0
   -6.8234    1.7149    0.3782 C   0  0  0  0  0  0  0  0  0  0  0  0
   -2.4509   -5.6339    0.0858 H   0  0  0  0  0  0  0  0  0  0  0  0
   -1.3972   -5.5913   -2.2240 H   0  0  0  0  0  0  0  0  0  0  0  0
    1.0285   -3.4936    1.5815 H   0  0  0  0  0  0  0  0  0  0  0  0
   -1.7359   -3.2568    2.5955 H   0  0  0  0  0  0  0  0  0  0  0  0
   10.0896    2.4343   -0.9303 H   0  0  0  0  0  0  0  0  0  0  0  0
   -1.3916   -5.8426    2.4804 H   0  0  0  0  0  0  0  0  0  0  0  0
    9.0788    5.1335    0.0929 H   0  0  0  0  0  0  0  0  0  0  0  0
    8.8569    4.4822   -1.5279 H   0  0  0  0  0  0  0  0  0  0  0  0
   10.8813    1.9976    1.3618 H   0  0  0  0  0  0  0  0  0  0  0  0
   10.3393    3.5869    1.8917 H   0  0  0  0  0  0  0  0  0  0  0  0
   11.2689    4.5264   -1.9495 H   0  0  0  0  0  0  0  0  0  0  0  0
   10.7323    6.1175   -1.4163 H   0  0  0  0  0  0  0  0  0  0  0  0
   12.7450    3.6469    1.4556 H   0  0  0  0  0  0  0  0  0  0  0  0
   12.5202    2.9900   -0.1637 H   0  0  0  0  0  0  0  0  0  0  0  0
   12.8609    5.4146   -0.3088 H   0  0  0  0  0  0  0  0  0  0  0  0
   11.5693    5.7123    0.8525 H   0  0  0  0  0  0  0  0  0  0  0  0
    2.8303   -3.6608   -1.5357 H   0  0  0  0  0  0  0  0  0  0  0  0
   -2.5540   -3.0809   -0.3536 H   0  0  0  0  0  0  0  0  0  0  0  0
    7.8667    3.0479    1.1344 H   0  0  0  0  0  0  0  0  0  0  0  0
   -3.4566   -1.5269    2.1566 H   0  0  0  0  0  0  0  0  0  0  0  0
    8.3218    0.8954   -0.9953 H   0  0  0  0  0  0  0  0  0  0  0  0
    4.5855   -2.3598   -1.2551 H   0  0  0  0  0  0  0  0  0  0  0  0
    5.9937    1.4232    0.9725 H   0  0  0  0  0  0  0  0  0  0  0  0
   -4.2948   -1.3734   -0.7910 H   0  0  0  0  0  0  0  0  0  0  0  0
    4.1311   -0.1327    0.8296 H   0  0  0  0  0  0  0  0  0  0  0  0
    6.4657   -0.7616   -1.1294 H   0  0  0  0  0  0  0  0  0  0  0  0
   -5.1134    0.2076    1.7611 H   0  0  0  0  0  0  0  0  0  0  0  0
   -9.2184    6.2673    0.1884 H   0  0  0  0  0  0  0  0  0  0  0  0
  -10.1321    5.2620    1.3323 H   0  0  0  0  0  0  0  0  0  0  0  0
  -11.4306    4.4455   -0.4076 H   0  0  0  0  0  0  0  0  0  0  0  0
  -10.5055    5.4608   -1.5647 H   0  0  0  0  0  0  0  0  0  0  0  0
   -5.9960    0.3737   -1.1895 H   0  0  0  0  0  0  0  0  0  0  0  0
   -7.6578    1.7883   -1.5236 H   0  0  0  0  0  0  0  0  0  0  0  0
   -7.6727    5.2557    1.9116 H   0  0  0  0  0  0  0  0  0  0  0  0
  1 10  1  0  0  0  0
  1 11  1  0  0  0  0
  2 12  1  0  0  0  0
  2 46  1  0  0  0  0
  3 13  2  0  0  0  0
  4 25  2  0  0  0  0
  5 38  1  0  0  0  0
  5 74  1  0  0  0  0
  6 39  2  0  0  0  0
  7 40  2  0  0  0  0
  8 15  1  0  0  0  0
  8 25  1  0  0  0  0
  8 57  1  0  0  0  0
  9 37  1  0  0  0  0
  9 40  1  0  0  0  0
  9 73  1  0  0  0  0
 10 11  1  0  0  0  0
 10 12  1  0  0  0  0
 10 41  1  0  0  0  0
 11 13  1  0  0  0  0
 11 42  1  0  0  0  0
 12 14  1  0  0  0  0
 12 16  1  0  0  0  0
 13 15  1  0  0  0  0
 14 15  2  0  0  0  0
 14 43  1  0  0  0  0
 16 23  2  0  0  0  0
 16 44  1  0  0  0  0
 17 18  1  0  0  0  0
 17 19  1  0  0  0  0
 17 24  1  0  0  0  0
 17 45  1  0  0  0  0
 18 20  1  0  0  0  0
 18 47  1  0  0  0  0
 18 48  1  0  0  0  0
 19 21  1  0  0  0  0
 19 49  1  0  0  0  0
 19 50  1  0  0  0  0
 20 22  1  0  0  0  0
 20 51  1  0  0  0  0
 20 52  1  0  0  0  0
 21 22  1  0  0  0  0
 21 53  1  0  0  0  0
 21 54  1  0  0  0  0
 22 55  1  0  0  0  0
 22 56  1  0  0  0  0
 23 26  1  0  0  0  0
 23 58  1  0  0  0  0
 24 27  2  0  0  0  0
 24 59  1  0  0  0  0
 25 28  1  0  0  0  0
 26 30  2  0  0  0  0
 26 60  1  0  0  0  0
 27 29  1  0  0  0  0
 27 61  1  0  0  0  0
 28 31  2  0  0  0  0
 28 62  1  0  0  0  0
 29 32  2  0  0  0  0
 29 63  1  0  0  0  0
 30 33  1  0  0  0  0
 30 64  1  0  0  0  0
 31 32  1  0  0  0  0
 31 65  1  0  0  0  0
 32 66  1  0  0  0  0
 33 36  2  0  0  0  0
 33 67  1  0  0  0  0
 34 35  1  0  0  0  0
 34 38  1  0  0  0  0
 34 68  1  0  0  0  0
 34 69  1  0  0  0  0
 35 39  1  0  0  0  0
 35 70  1  0  0  0  0
 35 71  1  0  0  0  0
 36 40  1  0  0  0  0
 36 72  1  0  0  0  0
 37 38  2  0  0  0  0
 37 39  1  0  0  0  0
M  END
> <PUBCHEM_COMPOUND_CID>
6441014

> <PUBCHEM_CONFORMER_RMSD>
1.2

> <PUBCHEM_CONFORMER_DIVERSEORDER>
1
21
3
37
29
19
8
36
17
4
5
14
30
16
6
34
18
35
24
15
22
33
27
38
39
13
31
11
23
40
12
28
2
25
26
9
32
7
20
10

> <PUBCHEM_MMFF94_PARTIAL_CHARGES>
54
1 -0.3
10 -0.05
11 0.05
12 0.65
13 0.56
14 -0.29
15 0.12
16 -0.29
17 0.14
2 -0.68
23 -0.15
24 -0.29
25 0.62
26 -0.15
27 -0.15
28 -0.14
29 -0.15
3 -0.57
30 -0.15
31 -0.15
32 -0.15
33 -0.15
34 0.14
35 0.06
36 -0.14
37 0.12
38 -0.06
39 0.49
4 -0.57
40 0.62
41 0.1
42 0.1
43 0.15
44 0.15
46 0.4
5 -0.53
57 0.37
58 0.15
59 0.15
6 -0.57
60 0.15
61 0.15
62 0.15
63 0.15
64 0.15
65 0.15
66 0.15
67 0.15
7 -0.57
72 0.15
73 0.37
74 0.45
8 -0.54
9 -0.54

> <PUBCHEM_EFFECTIVE_ROTOR_COUNT>
14

> <PUBCHEM_PHARMACOPHORE_FEATURES>
13
1 1 acceptor
1 2 acceptor
1 2 donor
1 3 acceptor
1 4 acceptor
1 5 donor
1 6 acceptor
1 7 acceptor
1 8 donor
1 9 donor
5 34 35 37 38 39 rings
6 17 18 19 20 21 22 rings
7 1 10 11 12 13 14 15 rings

> <PUBCHEM_HEAVY_ATOM_COUNT>
40

> <PUBCHEM_ATOM_DEF_STEREO_COUNT>
3

> <PUBCHEM_ATOM_UDEF_STEREO_COUNT>
0

> <PUBCHEM_BOND_DEF_STEREO_COUNT>
6

> <PUBCHEM_BOND_UDEF_STEREO_COUNT>
0

> <PUBCHEM_ISOTOPIC_ATOM_COUNT>
0

> <PUBCHEM_COMPONENT_COUNT>
1

> <PUBCHEM_CACTVS_TAUTO_COUNT>
40

> <PUBCHEM_CONFORMER_ID>
0062483600000001

> <PUBCHEM_MMFF94_ENERGY>
74.7453

> <PUBCHEM_FEATURE_SELFOVERLAP>
65.971

> <PUBCHEM_SHAPE_FINGERPRINT>
10533779 1 18341898501903348317
11135609 127 18194967568308682555
18354007 30 18341894061122929120
20609170 94 18411984630130123759
21057499 3 17169004278810322071
21057603 285 15410626852620069516
21057603 293 18200609089440286991
21057603 308 18041283278886084593
21362267 2 17770507736515992445
22899556 56 17630593527906515090
23516275 100 18269557298638493925
23522609 53 17098893065947382203
23523787 8 16515410667967764990
23569914 2 16735549281939460890
2835820 83 9258703739692884232
2851757 41 8790884094673212864
3525247 18 18339921644547989873
3918712 181 18411698832870557889
44802255 64 17605543350728747990
54728670 133 18126277546163519779

> <PUBCHEM_SHAPE_MULTIPOLES>
772.13
47.14
13.36
1.5
60.42
7.37
0.33
-141.61
3.88
-7.97
1.93
-1.61
1.29
2.05

> <PUBCHEM_SHAPE_SELFOVERLAP>
1623.519

> <PUBCHEM_SHAPE_VOLUME>
428.6

> <PUBCHEM_COORDINATE_TYPE>
2
5
10

$$$$

