17396216
  -OEChem-06241222552D

 51 54  0     1  0  0  0  0  0999 V2000
    2.9180   -1.4654    0.0000 O   0  0  0  0  0  0  0  0  0  0  0  0
    7.2482    0.0346    0.0000 O   0  0  0  0  0  0  0  0  0  0  0  0
    6.3821    4.5346    0.0000 O   0  0  0  0  0  0  0  0  0  0  0  0
    5.5161    0.0346    0.0000 N   0  0  0  0  0  0  0  0  0  0  0  0
    5.5161    3.0346    0.0000 N   0  0  0  0  0  0  0  0  0  0  0  0
    5.5161    2.0346    0.0000 N   0  0  0  0  0  0  0  0  0  0  0  0
    4.6501   -1.4654    0.0000 C   0  0  3  0  0  0  0  0  0  0  0  0
    4.6501   -2.4654    0.0000 C   0  0  0  0  0  0  0  0  0  0  0  0
    3.7841   -0.9654    0.0000 C   0  0  0  0  0  0  0  0  0  0  0  0
    5.5161   -0.9654    0.0000 C   0  0  0  0  0  0  0  0  0  0  0  0
    3.7841   -2.9654    0.0000 C   0  0  0  0  0  0  0  0  0  0  0  0
    2.9180   -2.4654    0.0000 C   0  0  0  0  0  0  0  0  0  0  0  0
    3.8001   -4.0069    0.0000 C   0  0  0  0  0  0  0  0  0  0  0  0
    2.0080   -2.9722    0.0000 C   0  0  0  0  0  0  0  0  0  0  0  0
    6.3821    0.5346    0.0000 C   0  0  0  0  0  0  0  0  0  0  0  0
    6.3821    1.5346    0.0000 C   0  0  0  0  0  0  0  0  0  0  0  0
    2.9021   -4.5346    0.0000 C   0  0  0  0  0  0  0  0  0  0  0  0
    7.2482    2.0346    0.0000 C   0  0  0  0  0  0  0  0  0  0  0  0
    2.0000   -4.0138    0.0000 C   0  0  0  0  0  0  0  0  0  0  0  0
    7.2482    3.0346    0.0000 C   0  0  0  0  0  0  0  0  0  0  0  0
    4.6501    3.5346    0.0000 C   0  0  0  0  0  0  0  0  0  0  0  0
    6.3821    3.5346    0.0000 C   0  0  0  0  0  0  0  0  0  0  0  0
    3.7841    3.0346    0.0000 C   0  0  0  0  0  0  0  0  0  0  0  0
    8.1421    1.5000    0.0000 C   0  0  0  0  0  0  0  0  0  0  0  0
    8.1421    3.5693    0.0000 C   0  0  0  0  0  0  0  0  0  0  0  0
    9.0482    2.0138    0.0000 C   0  0  0  0  0  0  0  0  0  0  0  0
    9.0482    3.0554    0.0000 C   0  0  0  0  0  0  0  0  0  0  0  0
    2.9180    3.5346    0.0000 C   0  0  0  0  0  0  0  0  0  0  0  0
    5.1870   -1.7754    0.0000 H   0  0  0  0  0  0  0  0  0  0  0  0
    4.8621   -3.0480    0.0000 H   0  0  0  0  0  0  0  0  0  0  0  0
    5.2607   -2.3577    0.0000 H   0  0  0  0  0  0  0  0  0  0  0  0
    4.1826   -0.4904    0.0000 H   0  0  0  0  0  0  0  0  0  0  0  0
    3.3855   -0.4904    0.0000 H   0  0  0  0  0  0  0  0  0  0  0  0
    5.7282   -1.5480    0.0000 H   0  0  0  0  0  0  0  0  0  0  0  0
    6.1267   -0.8577    0.0000 H   0  0  0  0  0  0  0  0  0  0  0  0
    4.9792    0.3446    0.0000 H   0  0  0  0  0  0  0  0  0  0  0  0
    4.3406   -4.3106    0.0000 H   0  0  0  0  0  0  0  0  0  0  0  0
    1.4747   -2.6560    0.0000 H   0  0  0  0  0  0  0  0  0  0  0  0
    2.9045   -5.1546    0.0000 H   0  0  0  0  0  0  0  0  0  0  0  0
    1.4619   -4.3217    0.0000 H   0  0  0  0  0  0  0  0  0  0  0  0
    5.0486    4.0096    0.0000 H   0  0  0  0  0  0  0  0  0  0  0  0
    4.2516    4.0096    0.0000 H   0  0  0  0  0  0  0  0  0  0  0  0
    3.3855    2.5597    0.0000 H   0  0  0  0  0  0  0  0  0  0  0  0
    4.1826    2.5597    0.0000 H   0  0  0  0  0  0  0  0  0  0  0  0
    8.1349    0.8800    0.0000 H   0  0  0  0  0  0  0  0  0  0  0  0
    8.1349    4.1892    0.0000 H   0  0  0  0  0  0  0  0  0  0  0  0
    9.5839    1.7018    0.0000 H   0  0  0  0  0  0  0  0  0  0  0  0
    9.5839    3.3675    0.0000 H   0  0  0  0  0  0  0  0  0  0  0  0
    3.2280    4.0716    0.0000 H   0  0  0  0  0  0  0  0  0  0  0  0
    2.3811    3.8446    0.0000 H   0  0  0  0  0  0  0  0  0  0  0  0
    2.6080    2.9977    0.0000 H   0  0  0  0  0  0  0  0  0  0  0  0
  1  9  1  0  0  0  0
  1 12  1  0  0  0  0
  2 15  2  0  0  0  0
  3 22  2  0  0  0  0
  4 10  1  0  0  0  0
  4 15  1  0  0  0  0
  4 36  1  0  0  0  0
  5  6  1  0  0  0  0
  5 21  1  0  0  0  0
  5 22  1  0  0  0  0
  6 16  2  0  0  0  0
  7  8  1  0  0  0  0
  7  9  1  0  0  0  0
  7 10  1  0  0  0  0
  7 29  1  0  0  0  0
  8 11  1  0  0  0  0
  8 30  1  0  0  0  0
  8 31  1  0  0  0  0
  9 32  1  0  0  0  0
  9 33  1  0  0  0  0
 10 34  1  0  0  0  0
 10 35  1  0  0  0  0
 11 12  1  0  0  0  0
 11 13  2  0  0  0  0
 12 14  2  0  0  0  0
 13 17  1  0  0  0  0
 13 37  1  0  0  0  0
 14 19  1  0  0  0  0
 14 38  1  0  0  0  0
 15 16  1  0  0  0  0
 16 18  1  0  0  0  0
 17 19  2  0  0  0  0
 17 39  1  0  0  0  0
 18 20  1  0  0  0  0
 18 24  2  0  0  0  0
 19 40  1  0  0  0  0
 20 22  1  0  0  0  0
 20 25  2  0  0  0  0
 21 23  1  0  0  0  0
 21 41  1  0  0  0  0
 21 42  1  0  0  0  0
 23 28  1  0  0  0  0
 23 43  1  0  0  0  0
 23 44  1  0  0  0  0
 24 26  1  0  0  0  0
 24 45  1  0  0  0  0
 25 27  1  0  0  0  0
 25 46  1  0  0  0  0
 26 27  2  0  0  0  0
 26 47  1  0  0  0  0
 27 48  1  0  0  0  0
 28 49  1  0  0  0  0
 28 50  1  0  0  0  0
 28 51  1  0  0  0  0
M  END
> <PUBCHEM_COMPOUND_CID>
17396216

> <PUBCHEM_COMPOUND_CANONICALIZED>
1

> <PUBCHEM_CACTVS_COMPLEXITY>
620

> <PUBCHEM_CACTVS_HBOND_ACCEPTOR>
4

> <PUBCHEM_CACTVS_HBOND_DONOR>
1

> <PUBCHEM_CACTVS_ROTATABLE_BOND>
5

> <PUBCHEM_CACTVS_SUBSKEYS>
AAADceB7MAAAAAAAAAAAAAAAAAAAAAAAAAA0YIEAAAAAAACRQAAAHgAYAAAADQzhmAYyBoLABACoAyFyEACSCAAkIAAaiIEuDNgMJrKEtRuGOSjm3hGIqYeY2+KOgAAAAAAYAAAAAAAAADAAAAAAAAAAAA==

> <PUBCHEM_IUPAC_OPENEYE_NAME>
N-(chroman-3-ylmethyl)-4-oxo-3-propyl-phthalazine-1-carboxamide

> <PUBCHEM_IUPAC_CAS_NAME>
N-(3,4-dihydro-2H-1-benzopyran-3-ylmethyl)-4-oxo-3-propyl-1-phthalazinecarboxamide

> <PUBCHEM_IUPAC_NAME>
N-(3,4-dihydro-2H-chromen-3-ylmethyl)-4-oxo-3-propylphthalazine-1-carboxamide

> <PUBCHEM_IUPAC_SYSTEMATIC_NAME>
N-(3,4-dihydro-2H-chromen-3-ylmethyl)-4-oxidanylidene-3-propyl-phthalazine-1-carboxamide

> <PUBCHEM_IUPAC_TRADITIONAL_NAME>
N-(chroman-3-ylmethyl)-4-keto-3-propyl-phthalazine-1-carboxamide

> <PUBCHEM_IUPAC_INCHI>
InChI=1S/C22H23N3O3/c1-2-11-25-22(27)18-9-5-4-8-17(18)20(24-25)21(26)23-13-15-12-16-7-3-6-10-19(16)28-14-15/h3-10,15H,2,11-14H2,1H3,(H,23,26)

> <PUBCHEM_IUPAC_INCHIKEY>
HDPZIHZMIGAQFW-UHFFFAOYSA-N

> <PUBCHEM_XLOGP3_AA>
3.4

> <PUBCHEM_EXACT_MASS>
377.173942

> <PUBCHEM_MOLECULAR_FORMULA>
C22H23N3O3

> <PUBCHEM_MOLECULAR_WEIGHT>
377.43632

> <PUBCHEM_OPENEYE_CAN_SMILES>
CCCN1C(=O)C2=CC=CC=C2C(=N1)C(=O)NCC3CC4=CC=CC=C4OC3

> <PUBCHEM_OPENEYE_ISO_SMILES>
CCCN1C(=O)C2=CC=CC=C2C(=N1)C(=O)NCC3CC4=CC=CC=C4OC3

> <PUBCHEM_CACTVS_TPSA>
71

> <PUBCHEM_MONOISOTOPIC_WEIGHT>
377.173942

> <PUBCHEM_TOTAL_CHARGE>
0

> <PUBCHEM_HEAVY_ATOM_COUNT>
28

> <PUBCHEM_ATOM_DEF_STEREO_COUNT>
0

> <PUBCHEM_ATOM_UDEF_STEREO_COUNT>
1

> <PUBCHEM_BOND_DEF_STEREO_COUNT>
0

> <PUBCHEM_BOND_UDEF_STEREO_COUNT>
0

> <PUBCHEM_ISOTOPIC_ATOM_COUNT>
0

> <PUBCHEM_COMPONENT_COUNT>
1

> <PUBCHEM_CACTVS_TAUTO_COUNT>
2

> <PUBCHEM_COORDINATE_TYPE>
1
5
255

> <PUBCHEM_BONDANNOTATIONS>
11  12  8
11  13  8
12  14  8
13  17  8
14  19  8
16  18  8
17  19  8
18  20  8
18  24  8
20  22  8
20  25  8
24  26  8
25  27  8
26  27  8
5  22  8
5  6  8
6  16  8
7  10  3

$$$$

