47205146
  -OEChem-06241222583D

 40 40  0     1  0  0  0  0  0999 V2000
    5.1190   -2.4586   -0.7580 F   0  0  0  0  0  0  0  0  0  0  0  0
   -2.2448   -1.7565   -0.1594 O   0  0  0  0  0  0  0  0  0  0  0  0
   -1.5393    2.0742    0.7050 O   0  0  0  0  0  0  0  0  0  0  0  0
   -1.6611    0.6841   -1.1489 N   0  0  0  0  0  0  0  0  0  0  0  0
    0.3283    1.7114   -0.6257 N   0  0  0  0  0  0  0  0  0  0  0  0
   -4.2456   -1.0074    0.7329 N   0  0  0  0  0  0  0  0  0  0  0  0
   -3.0538    0.3329   -1.0097 C   0  0  2  0  0  0  0  0  0  0  0  0
    1.9751    1.7847    1.2163 C   0  0  0  0  0  0  0  0  0  0  0  0
    1.2451    2.5478    0.1138 C   0  0  0  0  0  0  0  0  0  0  0  0
   -3.1291   -0.8947   -0.1028 C   0  0  0  0  0  0  0  0  0  0  0  0
    2.8168    0.6491    0.6881 C   0  0  0  0  0  0  0  0  0  0  0  0
   -3.6707    0.0408   -2.3697 C   0  0  0  0  0  0  0  0  0  0  0  0
   -1.0057    1.5398   -0.2662 C   0  0  0  0  0  0  0  0  0  0  0  0
    2.2628   -0.6237    0.5502 C   0  0  0  0  0  0  0  0  0  0  0  0
    4.1484    0.8719    0.3374 C   0  0  0  0  0  0  0  0  0  0  0  0
   -5.2981   -0.0068    0.8944 C   0  0  0  0  0  0  0  0  0  0  0  0
   -4.3862   -2.1866    1.5795 C   0  0  0  0  0  0  0  0  0  0  0  0
    3.0405   -1.6736    0.0619 C   0  0  0  0  0  0  0  0  0  0  0  0
    4.9261   -0.1781   -0.1507 C   0  0  0  0  0  0  0  0  0  0  0  0
    4.3721   -1.4508   -0.2884 C   0  0  0  0  0  0  0  0  0  0  0  0
   -3.5521    1.1888   -0.5484 H   0  0  0  0  0  0  0  0  0  0  0  0
    1.2527    1.3902    1.9427 H   0  0  0  0  0  0  0  0  0  0  0  0
    2.6131    2.4791    1.7775 H   0  0  0  0  0  0  0  0  0  0  0  0
    0.6888    3.3835    0.5520 H   0  0  0  0  0  0  0  0  0  0  0  0
    1.9570    2.9594   -0.6101 H   0  0  0  0  0  0  0  0  0  0  0  0
   -1.1121    0.2224   -1.8680 H   0  0  0  0  0  0  0  0  0  0  0  0
   -3.1655   -0.7966   -2.8646 H   0  0  0  0  0  0  0  0  0  0  0  0
   -4.7287   -0.2240   -2.2746 H   0  0  0  0  0  0  0  0  0  0  0  0
   -3.5922    0.9121   -3.0286 H   0  0  0  0  0  0  0  0  0  0  0  0
    0.6770    1.2240   -1.4454 H   0  0  0  0  0  0  0  0  0  0  0  0
    1.2273   -0.8121    0.8213 H   0  0  0  0  0  0  0  0  0  0  0  0
    4.5906    1.8595    0.4383 H   0  0  0  0  0  0  0  0  0  0  0  0
   -4.4154   -1.8659    2.6252 H   0  0  0  0  0  0  0  0  0  0  0  0
   -3.5589   -2.8884    1.4483 H   0  0  0  0  0  0  0  0  0  0  0  0
   -5.3213   -2.6940    1.3247 H   0  0  0  0  0  0  0  0  0  0  0  0
   -5.4696    0.5479   -0.0291 H   0  0  0  0  0  0  0  0  0  0  0  0
   -4.9935    0.6851    1.6846 H   0  0  0  0  0  0  0  0  0  0  0  0
   -6.2359   -0.4954    1.1755 H   0  0  0  0  0  0  0  0  0  0  0  0
    2.6096   -2.6647   -0.0454 H   0  0  0  0  0  0  0  0  0  0  0  0
    5.9627   -0.0050   -0.4243 H   0  0  0  0  0  0  0  0  0  0  0  0
  1 20  1  0  0  0  0
  2 10  2  0  0  0  0
  3 13  2  0  0  0  0
  4  7  1  0  0  0  0
  4 13  1  0  0  0  0
  4 26  1  0  0  0  0
  5  9  1  0  0  0  0
  5 13  1  0  0  0  0
  5 30  1  0  0  0  0
  6 10  1  0  0  0  0
  6 16  1  0  0  0  0
  6 17  1  0  0  0  0
  7 10  1  0  0  0  0
  7 12  1  0  0  0  0
  7 21  1  0  0  0  0
  8  9  1  0  0  0  0
  8 11  1  0  0  0  0
  8 22  1  0  0  0  0
  8 23  1  0  0  0  0
  9 24  1  0  0  0  0
  9 25  1  0  0  0  0
 11 14  2  0  0  0  0
 11 15  1  0  0  0  0
 12 27  1  0  0  0  0
 12 28  1  0  0  0  0
 12 29  1  0  0  0  0
 14 18  1  0  0  0  0
 14 31  1  0  0  0  0
 15 19  2  0  0  0  0
 15 32  1  0  0  0  0
 16 36  1  0  0  0  0
 16 37  1  0  0  0  0
 16 38  1  0  0  0  0
 17 33  1  0  0  0  0
 17 34  1  0  0  0  0
 17 35  1  0  0  0  0
 18 20  2  0  0  0  0
 18 39  1  0  0  0  0
 19 20  1  0  0  0  0
 19 40  1  0  0  0  0
M  END
> <PUBCHEM_COMPOUND_CID>
47205146

> <PUBCHEM_CONFORMER_RMSD>
0.8

> <PUBCHEM_CONFORMER_DIVERSEORDER>
5
43
30
250
68
136
41
113
212
152
230
160
170
207
190
272
235
46
47
146
294
174
75
295
44
246
155
130
104
220
288
7
101
150
142
119
135
219
98
182
196
276
189
1
128
172
34
112
85
156
9
132
173
176
280
185
38
199
179
195
265
159
71
166
42
138
131
122
165
144
202
86
36
300
281
92
64
151
149
66
83
3
107
269
270
123
234
103
285
279
213
208
51
297
127
154
45
299
253
271
290
158
117
40
240
116
242
263
147
106
78
258
194
221
267
286
118
120
102
157
215
184
95
82
77
93
259
49
29
171
209
225
210
91
177
74
289
247
229
54
248
99
239
167
81
162
243
163
25
15
244
200
228
148
153
284
278
218
268
110
139
94
24
197
31
2
226
216
50
56
28
186
76
96
187
249
188
70
264
254
72
292
274
283
57
63
255
35
257
114
109
233
293
287
261
16
105
134
201
223
89
192
232
238
193
18
32
168
282
79
141
27
296
231
67
111
88
90
143
26
273
58
266
69
115
277
108
121
14
80
65
6
241
275
140
17
22
4
12
183
224
214
222
55
211
62
48
52
125
11
133
291
20
298
84
19
129
252
236
169
53
262
245
13
260
21
217
124
206
191
60
145
100
251
237
256
164
73
10
137
61
178
161
39
33
126
97
37
180
87
227
198
8
23
181
59
175
205
203
204

> <PUBCHEM_MMFF94_PARTIAL_CHARGES>
25
1 -0.19
10 0.57
11 -0.14
13 0.69
14 -0.15
15 -0.15
16 0.3
17 0.3
18 -0.15
19 -0.15
2 -0.57
20 0.19
26 0.37
3 -0.57
30 0.37
31 0.15
32 0.15
39 0.15
4 -0.73
40 0.15
5 -0.73
6 -0.66
7 0.36
8 0.14
9 0.3

> <PUBCHEM_EFFECTIVE_ROTOR_COUNT>
8

> <PUBCHEM_PHARMACOPHORE_FEATURES>
5
1 2 acceptor
1 3 acceptor
1 4 donor
1 5 donor
6 11 14 15 18 19 20 rings

> <PUBCHEM_HEAVY_ATOM_COUNT>
20

> <PUBCHEM_ATOM_DEF_STEREO_COUNT>
0

> <PUBCHEM_ATOM_UDEF_STEREO_COUNT>
1

> <PUBCHEM_BOND_DEF_STEREO_COUNT>
0

> <PUBCHEM_BOND_UDEF_STEREO_COUNT>
0

> <PUBCHEM_ISOTOPIC_ATOM_COUNT>
0

> <PUBCHEM_COMPONENT_COUNT>
1

> <PUBCHEM_CACTVS_TAUTO_COUNT>
3

> <PUBCHEM_CONFORMER_ID>
02D04B1A00000005

> <PUBCHEM_MMFF94_ENERGY>
40.1634

> <PUBCHEM_FEATURE_SELFOVERLAP>
25.423

> <PUBCHEM_SHAPE_MULTIPOLES>
377.64
11.89
2.59
1.4
0.49
0.01
-0.44
6.87
0.64
-1.12
0.4
1.85
0.06
1.87

> <PUBCHEM_SHAPE_SELFOVERLAP>
761.392

> <PUBCHEM_SHAPE_VOLUME>
222.3

> <PUBCHEM_COORDINATE_TYPE>
2
5
10

$$$$

