11954000
  -OEChem-07051213022D

 71 70  0     1  0  0  0  0  0999 V2000
    6.3301   -4.2500    0.0000 O   0  0  0  0  0  0  0  0  0  0  0  0
   15.8564    4.2500    0.0000 O   0  0  0  0  0  0  0  0  0  0  0  0
   13.2583    1.7500    0.0000 O   0  0  0  0  0  0  0  0  0  0  0  0
   14.9904    1.7500    0.0000 N   0  0  0  0  0  0  0  0  0  0  0  0
    6.3301   -3.2500    0.0000 C   0  0  2  0  0  0  0  0  0  0  0  0
    7.1962   -2.7500    0.0000 C   0  0  2  0  0  0  0  0  0  0  0  0
    3.7320   -2.7500    0.0000 C   0  0  3  0  0  0  0  0  0  0  0  0
    5.4641   -2.7500    0.0000 C   0  0  0  0  0  0  0  0  0  0  0  0
    4.5981   -3.2500    0.0000 C   0  0  0  0  0  0  0  0  0  0  0  0
    2.8660   -3.2500    0.0000 C   0  0  0  0  0  0  0  0  0  0  0  0
    7.1962   -1.7500    0.0000 C   0  0  0  0  0  0  0  0  0  0  0  0
    8.0622   -3.2500    0.0000 C   0  0  0  0  0  0  0  0  0  0  0  0
    3.7320   -1.7500    0.0000 C   0  0  0  0  0  0  0  0  0  0  0  0
    5.4641   -1.7500    0.0000 C   0  0  0  0  0  0  0  0  0  0  0  0
    2.0000   -2.7500    0.0000 C   0  0  0  0  0  0  0  0  0  0  0  0
    8.9282   -2.7500    0.0000 C   0  0  0  0  0  0  0  0  0  0  0  0
    8.9282   -1.7500    0.0000 C   0  0  0  0  0  0  0  0  0  0  0  0
    9.7942   -3.2500    0.0000 C   0  0  0  0  0  0  0  0  0  0  0  0
   14.9904    2.7500    0.0000 C   0  0  2  0  0  0  0  0  0  0  0  0
   10.6603   -2.7500    0.0000 C   0  0  0  0  0  0  0  0  0  0  0  0
   15.8564    3.2500    0.0000 C   0  0  0  0  0  0  0  0  0  0  0  0
   14.1244    3.2500    0.0000 C   0  0  0  0  0  0  0  0  0  0  0  0
   11.5263   -3.2500    0.0000 C   0  0  0  0  0  0  0  0  0  0  0  0
   14.1244    1.2500    0.0000 C   0  0  0  0  0  0  0  0  0  0  0  0
   14.1244    0.2500    0.0000 C   0  0  0  0  0  0  0  0  0  0  0  0
   12.3923   -2.7500    0.0000 C   0  0  0  0  0  0  0  0  0  0  0  0
   13.2583   -0.2500    0.0000 C   0  0  0  0  0  0  0  0  0  0  0  0
   14.9904   -0.2500    0.0000 C   0  0  0  0  0  0  0  0  0  0  0  0
   12.3923   -1.7500    0.0000 C   0  0  0  0  0  0  0  0  0  0  0  0
   13.2583   -1.2500    0.0000 C   0  0  0  0  0  0  0  0  0  0  0  0
    6.8671   -3.5600    0.0000 H   0  0  0  0  0  0  0  0  0  0  0  0
    6.6592   -2.4400    0.0000 H   0  0  0  0  0  0  0  0  0  0  0  0
    4.4682   -2.3250    0.0000 H   0  0  0  0  0  0  0  0  0  0  0  0
    4.5981   -3.8700    0.0000 H   0  0  0  0  0  0  0  0  0  0  0  0
    2.4675   -3.7250    0.0000 H   0  0  0  0  0  0  0  0  0  0  0  0
    3.2646   -3.7250    0.0000 H   0  0  0  0  0  0  0  0  0  0  0  0
    7.8162   -1.7500    0.0000 H   0  0  0  0  0  0  0  0  0  0  0  0
    7.1962   -1.1300    0.0000 H   0  0  0  0  0  0  0  0  0  0  0  0
    6.5762   -1.7500    0.0000 H   0  0  0  0  0  0  0  0  0  0  0  0
    8.0622   -3.8700    0.0000 H   0  0  0  0  0  0  0  0  0  0  0  0
    4.3520   -1.7500    0.0000 H   0  0  0  0  0  0  0  0  0  0  0  0
    3.7320   -1.1300    0.0000 H   0  0  0  0  0  0  0  0  0  0  0  0
    3.1120   -1.7500    0.0000 H   0  0  0  0  0  0  0  0  0  0  0  0
    6.0841   -1.7500    0.0000 H   0  0  0  0  0  0  0  0  0  0  0  0
    5.4641   -1.1300    0.0000 H   0  0  0  0  0  0  0  0  0  0  0  0
    4.8441   -1.7500    0.0000 H   0  0  0  0  0  0  0  0  0  0  0  0
    2.3100   -2.2131    0.0000 H   0  0  0  0  0  0  0  0  0  0  0  0
    1.4631   -2.4400    0.0000 H   0  0  0  0  0  0  0  0  0  0  0  0
    1.6900   -3.2869    0.0000 H   0  0  0  0  0  0  0  0  0  0  0  0
    5.7932   -4.5600    0.0000 H   0  0  0  0  0  0  0  0  0  0  0  0
    9.5482   -1.7500    0.0000 H   0  0  0  0  0  0  0  0  0  0  0  0
    8.9282   -1.1300    0.0000 H   0  0  0  0  0  0  0  0  0  0  0  0
    8.3082   -1.7500    0.0000 H   0  0  0  0  0  0  0  0  0  0  0  0
    9.7942   -3.8700    0.0000 H   0  0  0  0  0  0  0  0  0  0  0  0
   15.5273    2.4400    0.0000 H   0  0  0  0  0  0  0  0  0  0  0  0
   10.6603   -2.1300    0.0000 H   0  0  0  0  0  0  0  0  0  0  0  0
   16.0685    2.6674    0.0000 H   0  0  0  0  0  0  0  0  0  0  0  0
   16.4670    3.3577    0.0000 H   0  0  0  0  0  0  0  0  0  0  0  0
   14.4344    3.7869    0.0000 H   0  0  0  0  0  0  0  0  0  0  0  0
   13.5874    3.5600    0.0000 H   0  0  0  0  0  0  0  0  0  0  0  0
   13.8144    2.7131    0.0000 H   0  0  0  0  0  0  0  0  0  0  0  0
   15.5273    1.4400    0.0000 H   0  0  0  0  0  0  0  0  0  0  0  0
   11.5263   -3.8700    0.0000 H   0  0  0  0  0  0  0  0  0  0  0  0
   12.9292   -3.0600    0.0000 H   0  0  0  0  0  0  0  0  0  0  0  0
   12.7214    0.0600    0.0000 H   0  0  0  0  0  0  0  0  0  0  0  0
   14.6804   -0.7869    0.0000 H   0  0  0  0  0  0  0  0  0  0  0  0
   15.5273   -0.5600    0.0000 H   0  0  0  0  0  0  0  0  0  0  0  0
   15.3004    0.2869    0.0000 H   0  0  0  0  0  0  0  0  0  0  0  0
   16.3933    4.5600    0.0000 H   0  0  0  0  0  0  0  0  0  0  0  0
   11.8554   -1.4400    0.0000 H   0  0  0  0  0  0  0  0  0  0  0  0
   13.7953   -1.5600    0.0000 H   0  0  0  0  0  0  0  0  0  0  0  0
  5  1  1  1  0  0  0
  1 50  1  0  0  0  0
  2 21  1  0  0  0  0
  2 69  1  0  0  0  0
  3 24  2  0  0  0  0
 19  4  1  1  0  0  0
  4 24  1  0  0  0  0
  4 62  1  0  0  0  0
  5  6  1  0  0  0  0
  5  8  1  0  0  0  0
  5 31  1  0  0  0  0
  6 11  1  6  0  0  0
  6 12  1  0  0  0  0
  6 32  1  0  0  0  0
  7  9  1  0  0  0  0
  7 10  1  0  0  0  0
  7 13  1  0  0  0  0
  7 33  1  0  0  0  0
  8  9  2  0  0  0  0
  8 14  1  0  0  0  0
  9 34  1  0  0  0  0
 10 15  1  0  0  0  0
 10 35  1  0  0  0  0
 10 36  1  0  0  0  0
 11 37  1  0  0  0  0
 11 38  1  0  0  0  0
 11 39  1  0  0  0  0
 12 16  2  0  0  0  0
 12 40  1  0  0  0  0
 13 41  1  0  0  0  0
 13 42  1  0  0  0  0
 13 43  1  0  0  0  0
 14 44  1  0  0  0  0
 14 45  1  0  0  0  0
 14 46  1  0  0  0  0
 15 47  1  0  0  0  0
 15 48  1  0  0  0  0
 15 49  1  0  0  0  0
 16 17  1  0  0  0  0
 16 18  1  0  0  0  0
 17 51  1  0  0  0  0
 17 52  1  0  0  0  0
 17 53  1  0  0  0  0
 18 20  2  0  0  0  0
 18 54  1  0  0  0  0
 19 21  1  0  0  0  0
 19 22  1  0  0  0  0
 19 55  1  0  0  0  0
 20 23  1  0  0  0  0
 20 56  1  0  0  0  0
 21 57  1  0  0  0  0
 21 58  1  0  0  0  0
 22 59  1  0  0  0  0
 22 60  1  0  0  0  0
 22 61  1  0  0  0  0
 23 26  2  0  0  0  0
 23 63  1  0  0  0  0
 24 25  1  0  0  0  0
 25 27  2  0  0  0  0
 25 28  1  0  0  0  0
 26 29  1  0  0  0  0
 26 64  1  0  0  0  0
 27 30  1  0  0  0  0
 27 65  1  0  0  0  0
 28 66  1  0  0  0  0
 28 67  1  0  0  0  0
 28 68  1  0  0  0  0
 29 30  2  0  0  0  0
 29 70  1  0  0  0  0
 30 71  1  0  0  0  0
M  END
> <PUBCHEM_COMPOUND_CID>
11954000

> <PUBCHEM_COMPOUND_CANONICALIZED>
1

> <PUBCHEM_CACTVS_COMPLEXITY>
695

> <PUBCHEM_CACTVS_HBOND_ACCEPTOR>
3

> <PUBCHEM_CACTVS_HBOND_DONOR>
3

> <PUBCHEM_CACTVS_ROTATABLE_BOND>
12

> <PUBCHEM_CACTVS_SUBSKEYS>
AAADcfB6MAAAAAAAAAAAAAAAAAAAAAAAAAAAAAAAAAAAAAAAAAAAHgAQCAAADTzhgAYCAALAAgCIAiFSEACAAAAgAAAICIEIAEgKFAIAAQAEUAAA1gCYkYIAAAAMAAAAAAAAAAAAAAAAAAAAAAAAAAAAAA==

> <PUBCHEM_IUPAC_OPENEYE_NAME>
(2E,4E,6Z,8E,10E,12R,13R,14E)-13-hydroxy-N-[(1S)-2-hydroxy-1-methyl-ethyl]-2,10,12,14,16-pentamethyl-octadeca-2,4,6,8,10,14-hexaenamide

> <PUBCHEM_IUPAC_CAS_NAME>
(2E,4E,6Z,8E,10E,12R,13R,14E)-13-hydroxy-N-[(2S)-1-hydroxypropan-2-yl]-2,10,12,14,16-pentamethyloctadeca-2,4,6,8,10,14-hexaenamide

> <PUBCHEM_IUPAC_NAME>
(2E,4E,6Z,8E,10E,12R,13R,14E)-13-hydroxy-N-[(2S)-1-hydroxypropan-2-yl]-2,10,12,14,16-pentamethyloctadeca-2,4,6,8,10,14-hexaenamide

> <PUBCHEM_IUPAC_SYSTEMATIC_NAME>
(2E,4E,6Z,8E,10E,12R,13R,14E)-2,10,12,14,16-pentamethyl-13-oxidanyl-N-[(2S)-1-oxidanylpropan-2-yl]octadeca-2,4,6,8,10,14-hexaenamide

> <PUBCHEM_IUPAC_TRADITIONAL_NAME>
(2E,4E,6Z,8E,10E,12R,13R,14E)-13-hydroxy-N-[(1S)-2-hydroxy-1-methyl-ethyl]-2,10,12,14,16-pentamethyl-octadeca-2,4,6,8,10,14-hexaenamide

> <PUBCHEM_IUPAC_INCHI>
InChI=1S/C26H41NO3/c1-8-19(2)16-22(5)25(29)23(6)17-20(3)14-12-10-9-11-13-15-21(4)26(30)27-24(7)18-28/h9-17,19,23-25,28-29H,8,18H2,1-7H3,(H,27,30)/b10-9-,13-11+,14-12+,20-17+,21-15+,22-16+/t19?,23-,24+,25+/m1/s1

> <PUBCHEM_IUPAC_INCHIKEY>
GDEZZTBHSFKRJN-PWOULSLOSA-N

> <PUBCHEM_XLOGP3_AA>
6.1

> <PUBCHEM_EXACT_MASS>
415.308644

> <PUBCHEM_MOLECULAR_FORMULA>
C26H41NO3

> <PUBCHEM_MOLECULAR_WEIGHT>
415.60864

> <PUBCHEM_OPENEYE_CAN_SMILES>
CCC(C)C=C(C)C(C(C)C=C(C)C=CC=CC=CC=C(C)C(=O)NC(C)CO)O

> <PUBCHEM_OPENEYE_ISO_SMILES>
CCC(C)/C=C(\C)/[C@@H]([C@H](C)/C=C(\C)/C=C/C=C\C=C\C=C(/C)\C(=O)N[C@@H](C)CO)O

> <PUBCHEM_CACTVS_TPSA>
69.6

> <PUBCHEM_MONOISOTOPIC_WEIGHT>
415.308644

> <PUBCHEM_TOTAL_CHARGE>
0

> <PUBCHEM_HEAVY_ATOM_COUNT>
30

> <PUBCHEM_ATOM_DEF_STEREO_COUNT>
3

> <PUBCHEM_ATOM_UDEF_STEREO_COUNT>
1

> <PUBCHEM_BOND_DEF_STEREO_COUNT>
6

> <PUBCHEM_BOND_UDEF_STEREO_COUNT>
0

> <PUBCHEM_ISOTOPIC_ATOM_COUNT>
0

> <PUBCHEM_COMPONENT_COUNT>
1

> <PUBCHEM_CACTVS_TAUTO_COUNT>
2

> <PUBCHEM_COORDINATE_TYPE>
1
5
255

> <PUBCHEM_BONDANNOTATIONS>
5  1  5
19  4  5
6  11  6
7  33  3

$$$$

