46173994
  -OEChem-07051213102D

 61 64  0     1  0  0  0  0  0999 V2000
    8.2709   -1.3335    0.0000 O   0  0  0  0  0  0  0  0  0  0  0  0
    7.7056   -1.6599    0.0000 O   0  0  0  0  0  0  0  0  0  0  0  0
    8.5677    1.8625    0.0000 O   0  0  0  0  0  0  0  0  0  0  0  0
    7.0628    2.1062    0.0000 O   0  0  0  0  0  0  0  0  0  0  0  0
   10.5979    1.0890    0.0000 O   0  0  0  0  0  0  0  0  0  0  0  0
    2.5357   -2.4462    0.0000 O   0  0  0  0  0  0  0  0  0  0  0  0
    7.9288    0.6062    0.0000 C   0  0  1  0  0  0  0  0  0  0  0  0
    7.9288   -0.3938    0.0000 C   0  0  2  0  0  0  0  0  0  0  0  0
    7.0628   -0.8938    0.0000 C   0  0  2  0  0  0  0  0  0  0  0  0
    6.1968   -0.3938    0.0000 C   0  0  1  0  0  0  0  0  0  0  0  0
    8.8750    0.9109    0.0000 C   0  0  2  0  0  0  0  0  0  0  0  0
    7.0628    1.1062    0.0000 C   0  0  1  0  0  0  0  0  0  0  0  0
    5.2868   -0.9007    0.0000 C   0  0  2  0  0  0  0  0  0  0  0  0
    8.8750   -0.6986    0.0000 C   0  0  0  0  0  0  0  0  0  0  0  0
    6.1968    0.6062    0.0000 C   0  0  0  0  0  0  0  0  0  0  0  0
    9.4586    0.1062    0.0000 C   0  0  0  0  0  0  0  0  0  0  0  0
    7.0789   -1.9353    0.0000 C   0  0  0  0  0  0  0  0  0  0  0  0
    7.9288    1.6062    0.0000 C   0  0  0  0  0  0  0  0  0  0  0  0
    5.2787   -1.9423    0.0000 C   0  0  0  0  0  0  0  0  0  0  0  0
    9.6851    1.4973    0.0000 C   0  0  2  0  0  0  0  0  0  0  0  0
    4.3599   -0.3366    0.0000 C   0  0  0  0  0  0  0  0  0  0  0  0
    6.1808   -2.4631    0.0000 C   0  0  0  0  0  0  0  0  0  0  0  0
    5.2945    0.0993    0.0000 C   0  0  0  0  0  0  0  0  0  0  0  0
    4.3433   -2.4920    0.0000 C   0  0  0  0  0  0  0  0  0  0  0  0
    3.4120   -0.8645    0.0000 C   0  0  0  0  0  0  0  0  0  0  0  0
    3.4037   -1.9495    0.0000 C   0  0  2  0  0  0  0  0  0  0  0  0
    9.5823    2.4920    0.0000 C   0  0  0  0  0  0  0  0  0  0  0  0
    6.9329    0.0312    0.0000 H   0  0  0  0  0  0  0  0  0  0  0  0
    7.5997    1.4162    0.0000 H   0  0  0  0  0  0  0  0  0  0  0  0
    8.6240   -1.2655    0.0000 H   0  0  0  0  0  0  0  0  0  0  0  0
    9.4124   -1.0078    0.0000 H   0  0  0  0  0  0  0  0  0  0  0  0
    5.9847    1.1888    0.0000 H   0  0  0  0  0  0  0  0  0  0  0  0
    5.5862    0.4985    0.0000 H   0  0  0  0  0  0  0  0  0  0  0  0
    9.9195   -0.3086    0.0000 H   0  0  0  0  0  0  0  0  0  0  0  0
    9.9195    0.5209    0.0000 H   0  0  0  0  0  0  0  0  0  0  0  0
    7.2969   -2.5157    0.0000 H   0  0  0  0  0  0  0  0  0  0  0  0
    7.6880   -1.8198    0.0000 H   0  0  0  0  0  0  0  0  0  0  0  0
    8.5488    1.6062    0.0000 H   0  0  0  0  0  0  0  0  0  0  0  0
    7.9288    2.2262    0.0000 H   0  0  0  0  0  0  0  0  0  0  0  0
    7.3088    1.6062    0.0000 H   0  0  0  0  0  0  0  0  0  0  0  0
   10.1873    1.8608    0.0000 H   0  0  0  0  0  0  0  0  0  0  0  0
    4.7681    0.1301    0.0000 H   0  0  0  0  0  0  0  0  0  0  0  0
    3.9700    0.1455    0.0000 H   0  0  0  0  0  0  0  0  0  0  0  0
    6.1832   -3.0831    0.0000 H   0  0  0  0  0  0  0  0  0  0  0  0
    8.8814   -1.4412    0.0000 H   0  0  0  0  0  0  0  0  0  0  0  0
    5.9145    0.0945    0.0000 H   0  0  0  0  0  0  0  0  0  0  0  0
    5.2993    0.7193    0.0000 H   0  0  0  0  0  0  0  0  0  0  0  0
    4.6745    0.1041    0.0000 H   0  0  0  0  0  0  0  0  0  0  0  0
    7.8133   -2.2704    0.0000 H   0  0  0  0  0  0  0  0  0  0  0  0
    3.9460   -2.9680    0.0000 H   0  0  0  0  0  0  0  0  0  0  0  0
    4.7443   -2.9649    0.0000 H   0  0  0  0  0  0  0  0  0  0  0  0
    8.9833    2.3225    0.0000 H   0  0  0  0  0  0  0  0  0  0  0  0
    3.2075   -0.2792    0.0000 H   0  0  0  0  0  0  0  0  0  0  0  0
    2.8004   -0.9659    0.0000 H   0  0  0  0  0  0  0  0  0  0  0  0
    6.5259    2.4162    0.0000 H   0  0  0  0  0  0  0  0  0  0  0  0
    3.4025   -2.5695    0.0000 H   0  0  0  0  0  0  0  0  0  0  0  0
   10.1990    2.5557    0.0000 H   0  0  0  0  0  0  0  0  0  0  0  0
    9.5185    3.1087    0.0000 H   0  0  0  0  0  0  0  0  0  0  0  0
    8.9656    2.4282    0.0000 H   0  0  0  0  0  0  0  0  0  0  0  0
   11.1001    1.4525    0.0000 H   0  0  0  0  0  0  0  0  0  0  0  0
    2.0000   -2.1341    0.0000 H   0  0  0  0  0  0  0  0  0  0  0  0
  8  1  1  1  0  0  0
  1 45  1  0  0  0  0
  9  2  1  1  0  0  0
  2 49  1  0  0  0  0
 11  3  1  1  0  0  0
  3 52  1  0  0  0  0
 12  4  1  1  0  0  0
  4 55  1  0  0  0  0
 20  5  1  6  0  0  0
  5 60  1  0  0  0  0
 26  6  1  1  0  0  0
  6 61  1  0  0  0  0
  7  8  1  0  0  0  0
  7 11  1  0  0  0  0
  7 12  1  0  0  0  0
  7 18  1  1  0  0  0
  8  9  1  0  0  0  0
  8 14  1  0  0  0  0
  9 10  1  0  0  0  0
  9 17  1  0  0  0  0
 10 13  1  0  0  0  0
 10 15  1  0  0  0  0
 10 28  1  6  0  0  0
 11 16  1  0  0  0  0
 11 20  1  0  0  0  0
 12 15  1  0  0  0  0
 12 29  1  0  0  0  0
 13 19  1  0  0  0  0
 13 21  1  0  0  0  0
 13 23  1  1  0  0  0
 14 16  1  0  0  0  0
 14 30  1  0  0  0  0
 14 31  1  0  0  0  0
 15 32  1  0  0  0  0
 15 33  1  0  0  0  0
 16 34  1  0  0  0  0
 16 35  1  0  0  0  0
 17 22  1  0  0  0  0
 17 36  1  0  0  0  0
 17 37  1  0  0  0  0
 18 38  1  0  0  0  0
 18 39  1  0  0  0  0
 18 40  1  0  0  0  0
 19 22  2  0  0  0  0
 19 24  1  0  0  0  0
 20 27  1  0  0  0  0
 20 41  1  0  0  0  0
 21 25  1  0  0  0  0
 21 42  1  0  0  0  0
 21 43  1  0  0  0  0
 22 44  1  0  0  0  0
 23 46  1  0  0  0  0
 23 47  1  0  0  0  0
 23 48  1  0  0  0  0
 24 26  1  0  0  0  0
 24 50  1  0  0  0  0
 24 51  1  0  0  0  0
 25 26  1  0  0  0  0
 25 53  1  0  0  0  0
 25 54  1  0  0  0  0
 26 56  1  0  0  0  0
 27 57  1  0  0  0  0
 27 58  1  0  0  0  0
 27 59  1  0  0  0  0
M  END
> <PUBCHEM_COMPOUND_CID>
46173994

> <PUBCHEM_COMPOUND_CANONICALIZED>
1

> <PUBCHEM_CACTVS_COMPLEXITY>
680

> <PUBCHEM_CACTVS_HBOND_ACCEPTOR>
6

> <PUBCHEM_CACTVS_HBOND_DONOR>
6

> <PUBCHEM_CACTVS_ROTATABLE_BOND>
1

> <PUBCHEM_CACTVS_SUBSKEYS>
AAADcfB4OAAAAAAAAAAAAAAAAAAAAYAAAAAwYIAAAAAAAGCAAAAAGgAACAAAD1SggAICAAAAAgCAAiBCAAAAAAAgAAAACAAAAAgBEAIAAQAAQAAFwAAJAAPA4PQPgAAAAAAAAADCAAYQADCAAYQADAAAAA==

> <PUBCHEM_IUPAC_OPENEYE_NAME>
(3S,8S,9R,10R,12R,13R,14R,17S)-17-[(1S)-1-hydroxyethyl]-10,13-dimethyl-1,2,3,4,7,9,11,12,15,16-decahydrocyclopenta[a]phenanthrene-3,8,12,14,17-pentol

> <PUBCHEM_IUPAC_CAS_NAME>
(3S,8S,9R,10R,12R,13R,14R,17S)-17-[(1S)-1-hydroxyethyl]-10,13-dimethyl-1,2,3,4,7,9,11,12,15,16-decahydrocyclopenta[a]phenanthrene-3,8,12,14,17-pentol

> <PUBCHEM_IUPAC_NAME>
(3S,8S,9R,10R,12R,13R,14R,17S)-17-[(1S)-1-hydroxyethyl]-10,13-dimethyl-1,2,3,4,7,9,11,12,15,16-decahydrocyclopenta[a]phenanthrene-3,8,12,14,17-pentol

> <PUBCHEM_IUPAC_SYSTEMATIC_NAME>
(3S,8S,9R,10R,12R,13R,14R,17S)-10,13-dimethyl-17-[(1S)-1-oxidanylethyl]-1,2,3,4,7,9,11,12,15,16-decahydrocyclopenta[a]phenanthrene-3,8,12,14,17-pentol

> <PUBCHEM_IUPAC_TRADITIONAL_NAME>
(3S,8S,9R,10R,12R,13R,14R,17S)-17-[(1S)-1-hydroxyethyl]-10,13-dimethyl-1,2,3,4,7,9,11,12,15,16-decahydrocyclopenta[a]phenanthrene-3,8,12,14,17-pentol

> <PUBCHEM_IUPAC_INCHI>
InChI=1S/C21H34O6/c1-12(22)19(25)8-9-21(27)18(19,3)16(24)11-15-17(2)6-5-14(23)10-13(17)4-7-20(15,21)26/h4,12,14-16,22-27H,5-11H2,1-3H3/t12-,14-,15+,16+,17-,18+,19+,20-,21+/m0/s1

> <PUBCHEM_IUPAC_INCHIKEY>
WIOBOUWMWWLZKG-QBZJCNLTSA-N

> <PUBCHEM_XLOGP3_AA>
-0.3

> <PUBCHEM_EXACT_MASS>
382.235539

> <PUBCHEM_MOLECULAR_FORMULA>
C21H34O6

> <PUBCHEM_MOLECULAR_WEIGHT>
382.49106

> <PUBCHEM_OPENEYE_CAN_SMILES>
CC(C1(CCC2(C1(C(CC3C2(CC=C4C3(CCC(C4)O)C)O)O)C)O)O)O

> <PUBCHEM_OPENEYE_ISO_SMILES>
C[C@@H]([C@@]1(CC[C@]2([C@@]1([C@@H](C[C@H]3[C@]2(CC=C4[C@@]3(CC[C@@H](C4)O)C)O)O)C)O)O)O

> <PUBCHEM_CACTVS_TPSA>
121

> <PUBCHEM_MONOISOTOPIC_WEIGHT>
382.235539

> <PUBCHEM_TOTAL_CHARGE>
0

> <PUBCHEM_HEAVY_ATOM_COUNT>
27

> <PUBCHEM_ATOM_DEF_STEREO_COUNT>
9

> <PUBCHEM_ATOM_UDEF_STEREO_COUNT>
0

> <PUBCHEM_BOND_DEF_STEREO_COUNT>
0

> <PUBCHEM_BOND_UDEF_STEREO_COUNT>
0

> <PUBCHEM_ISOTOPIC_ATOM_COUNT>
0

> <PUBCHEM_COMPONENT_COUNT>
1

> <PUBCHEM_CACTVS_TAUTO_COUNT>
1

> <PUBCHEM_COORDINATE_TYPE>
1
5
255

> <PUBCHEM_BONDANNOTATIONS>
8  1  5
10  28  6
13  23  5
9  2  5
11  3  5
12  4  5
20  5  6
26  6  5
7  18  5

$$$$

