443171
  -OEChem-07051213013D

 31 30  0     1  0  0  0  0  0999 V2000
    3.6294    1.6492   -0.0294 O   0  0  0  0  0  0  0  0  0  0  0  0
   -3.9236    1.0561    0.6629 O   0  0  0  0  0  0  0  0  0  0  0  0
   -3.1264    0.4291   -1.3674 O   0  0  0  0  0  0  0  0  0  0  0  0
   -0.4513    0.1436   -0.1782 C   0  0  2  0  0  0  0  0  0  0  0  0
    0.9353    0.5857    0.3555 C   0  0  0  0  0  0  0  0  0  0  0  0
    2.0946   -0.2145   -0.2586 C   0  0  0  0  0  0  0  0  0  0  0  0
   -1.5621    1.0476    0.3982 C   0  0  0  0  0  0  0  0  0  0  0  0
    3.4569    0.2636    0.2563 C   0  0  1  0  0  0  0  0  0  0  0  0
   -0.8012   -1.3167    0.0933 C   0  0  0  0  0  0  0  0  0  0  0  0
    4.5996   -0.5126   -0.3842 C   0  0  0  0  0  0  0  0  0  0  0  0
   -0.9033   -1.7037    1.5431 C   0  0  0  0  0  0  0  0  0  0  0  0
   -2.9226    0.7950   -0.2183 C   0  0  0  0  0  0  0  0  0  0  0  0
   -1.0252   -2.2223   -0.8733 C   0  0  0  0  0  0  0  0  0  0  0  0
   -0.4353    0.2960   -1.2671 H   0  0  0  0  0  0  0  0  0  0  0  0
    0.9698    0.5057    1.4485 H   0  0  0  0  0  0  0  0  0  0  0  0
    1.0684    1.6494    0.1207 H   0  0  0  0  0  0  0  0  0  0  0  0
    1.9815   -1.2811   -0.0344 H   0  0  0  0  0  0  0  0  0  0  0  0
    2.0536   -0.0996   -1.3492 H   0  0  0  0  0  0  0  0  0  0  0  0
   -1.3232    2.0991    0.1960 H   0  0  0  0  0  0  0  0  0  0  0  0
   -1.6283    0.9441    1.4871 H   0  0  0  0  0  0  0  0  0  0  0  0
    3.5046    0.1456    1.3443 H   0  0  0  0  0  0  0  0  0  0  0  0
    5.5635   -0.1440   -0.0170 H   0  0  0  0  0  0  0  0  0  0  0  0
    4.5270   -1.5817   -0.1625 H   0  0  0  0  0  0  0  0  0  0  0  0
    4.6058   -0.3795   -1.4717 H   0  0  0  0  0  0  0  0  0  0  0  0
    0.0178   -1.4679    2.0835 H   0  0  0  0  0  0  0  0  0  0  0  0
   -1.7418   -1.2022    2.0342 H   0  0  0  0  0  0  0  0  0  0  0  0
   -1.0681   -2.7811    1.6602 H   0  0  0  0  0  0  0  0  0  0  0  0
   -0.9589   -1.9499   -1.9213 H   0  0  0  0  0  0  0  0  0  0  0  0
   -1.2786   -3.2511   -0.6409 H   0  0  0  0  0  0  0  0  0  0  0  0
    3.5745    1.7641   -0.9935 H   0  0  0  0  0  0  0  0  0  0  0  0
   -4.8081    0.9065    0.2657 H   0  0  0  0  0  0  0  0  0  0  0  0
  1  8  1  0  0  0  0
  1 30  1  0  0  0  0
  2 12  1  0  0  0  0
  2 31  1  0  0  0  0
  3 12  2  0  0  0  0
  4  5  1  0  0  0  0
  4  7  1  0  0  0  0
  4  9  1  0  0  0  0
  4 14  1  0  0  0  0
  5  6  1  0  0  0  0
  5 15  1  0  0  0  0
  5 16  1  0  0  0  0
  6  8  1  0  0  0  0
  6 17  1  0  0  0  0
  6 18  1  0  0  0  0
  7 12  1  0  0  0  0
  7 19  1  0  0  0  0
  7 20  1  0  0  0  0
  8 10  1  0  0  0  0
  8 21  1  0  0  0  0
  9 11  1  0  0  0  0
  9 13  2  0  0  0  0
 10 22  1  0  0  0  0
 10 23  1  0  0  0  0
 10 24  1  0  0  0  0
 11 25  1  0  0  0  0
 11 26  1  0  0  0  0
 11 27  1  0  0  0  0
 13 28  1  0  0  0  0
 13 29  1  0  0  0  0
M  END
> <PUBCHEM_COMPOUND_CID>
443171

> <PUBCHEM_CONFORMER_RMSD>
0.6

> <PUBCHEM_CONFORMER_DIVERSEORDER>
6
76
111
101
103
64
86
99
36
25
93
56
2
96
70
47
71
41
107
18
77
72
100
13
60
91
31
80
88
89
1
108
32
106
27
84
87
37
66
40
68
81
92
4
22
12
90
57
79
54
49
82
15
75
5
7
50
97
104
16
95
17
78
3
11
94
55
62
98
42
34
69
83
28
73
48
9
23
39
110
85
8
35
38
105
53
46
112
63
33
102
59
51
20
30
74
29
19
67
21
10
58
44
14
26
109
65
61
24
43
52
45

> <PUBCHEM_MMFF94_PARTIAL_CHARGES>
14
1 -0.68
11 0.14
12 0.66
13 -0.3
2 -0.65
28 0.15
29 0.15
3 -0.57
30 0.4
31 0.5
4 0.14
7 0.06
8 0.28
9 -0.28

> <PUBCHEM_EFFECTIVE_ROTOR_COUNT>
6

> <PUBCHEM_PHARMACOPHORE_FEATURES>
6
1 1 acceptor
1 1 donor
1 2 acceptor
1 3 acceptor
3 2 3 12 anion
5 4 5 6 7 9 hydrophobe

> <PUBCHEM_HEAVY_ATOM_COUNT>
13

> <PUBCHEM_ATOM_DEF_STEREO_COUNT>
1

> <PUBCHEM_ATOM_UDEF_STEREO_COUNT>
1

> <PUBCHEM_BOND_DEF_STEREO_COUNT>
0

> <PUBCHEM_BOND_UDEF_STEREO_COUNT>
0

> <PUBCHEM_ISOTOPIC_ATOM_COUNT>
0

> <PUBCHEM_COMPONENT_COUNT>
1

> <PUBCHEM_CACTVS_TAUTO_COUNT>
1

> <PUBCHEM_CONFORMER_ID>
0006C32300000006

> <PUBCHEM_MMFF94_ENERGY>
16.7273

> <PUBCHEM_FEATURE_SELFOVERLAP>
30.504

> <PUBCHEM_SHAPE_FINGERPRINT>
10922049 32 18411975897174396099
12138202 97 18335425638168850815
122479 349 18413384328366683576
12932764 1 14979685334491640068
13380535 76 18334294292565386006
14577589 140 18411695470154004678
14993402 34 18273221906130868061
15775835 57 18341898527751584649
18186145 218 18336552702133195180
187816 3 17821729463586515809
200 152 15140683591967508974
20279233 1 17822006506874271734
20645476 183 17632292376164857858
20645477 56 18410577245517321880
20671657 53 4750870446835413970
21524375 3 18340485672437098681
23402539 116 18041005080409529668
23419403 2 15938396724092659835
23559900 14 18187087244128460576
3248919 1 16370990881374777654
3250762 1 17609512535505034601
366044 4 18335983150920424411
4175511 318 18060701697243873030
528862 383 17416980606013086754
6333449 129 18335704901321669807
69090 78 18335424573069585254
81228 2 17910403792403537403
81539 233 17987522683303673015
93112 12 18335420141264618572

> <PUBCHEM_SHAPE_MULTIPOLES>
249.93
7.13
1.82
1.04
5.64
0.82
-0.1
-2.67
0.79
-0.66
-0.06
-0.64
0.37
0.1

> <PUBCHEM_SHAPE_SELFOVERLAP>
470.633

> <PUBCHEM_SHAPE_VOLUME>
155.4

> <PUBCHEM_COORDINATE_TYPE>
2
5
10

$$$$

