10780574
  -OEChem-07051213053D

 42 43  0     0  0  0  0  0  0999 V2000
   -4.6109   -2.0608    0.0456 O   0  0  0  0  0  0  0  0  0  0  0  0
    4.6109   -2.0606   -0.0528 O   0  0  0  0  0  0  0  0  0  0  0  0
   -5.9871    0.3458    0.2378 O   0  0  0  0  0  0  0  0  0  0  0  0
    5.9871    0.3467   -0.2364 O   0  0  0  0  0  0  0  0  0  0  0  0
   -0.4326    0.3337   -0.5223 C   0  0  0  0  0  0  0  0  0  0  0  0
    0.4325    0.3318    0.5233 C   0  0  0  0  0  0  0  0  0  0  0  0
   -0.0109    0.3899   -1.9779 C   0  0  0  0  0  0  0  0  0  0  0  0
    0.0109    0.3822    1.9791 C   0  0  0  0  0  0  0  0  0  0  0  0
   -1.9012    0.3333   -0.3221 C   0  0  0  0  0  0  0  0  0  0  0  0
    1.9010    0.3321    0.3233 C   0  0  0  0  0  0  0  0  0  0  0  0
    0.1962   -0.9966   -2.5735 C   0  0  0  0  0  0  0  0  0  0  0  0
   -0.1956   -1.0069    2.5693 C   0  0  0  0  0  0  0  0  0  0  0  0
   -2.5646   -0.8749   -0.2327 C   0  0  0  0  0  0  0  0  0  0  0  0
    2.5646   -0.8757    0.2296 C   0  0  0  0  0  0  0  0  0  0  0  0
   -2.5644    1.5414   -0.2296 C   0  0  0  0  0  0  0  0  0  0  0  0
    2.5643    1.5406    0.2351 C   0  0  0  0  0  0  0  0  0  0  0  0
   -3.9466   -0.8750   -0.0437 C   0  0  0  0  0  0  0  0  0  0  0  0
    3.9465   -0.8751    0.0407 C   0  0  0  0  0  0  0  0  0  0  0  0
   -3.9465    1.5411   -0.0408 C   0  0  0  0  0  0  0  0  0  0  0  0
    3.9464    1.5410    0.0464 C   0  0  0  0  0  0  0  0  0  0  0  0
   -4.6376    0.3329    0.0521 C   0  0  0  0  0  0  0  0  0  0  0  0
    4.6376    0.3331   -0.0507 C   0  0  0  0  0  0  0  0  0  0  0  0
    0.9110    0.9701   -2.0967 H   0  0  0  0  0  0  0  0  0  0  0  0
   -0.7603    0.9278   -2.5729 H   0  0  0  0  0  0  0  0  0  0  0  0
    0.7601    0.9181    2.5761 H   0  0  0  0  0  0  0  0  0  0  0  0
   -0.9112    0.9615    2.1003 H   0  0  0  0  0  0  0  0  0  0  0  0
    0.5311   -0.9085   -3.6124 H   0  0  0  0  0  0  0  0  0  0  0  0
   -0.7344   -1.5731   -2.5753 H   0  0  0  0  0  0  0  0  0  0  0  0
    0.9498   -1.5717   -2.0295 H   0  0  0  0  0  0  0  0  0  0  0  0
   -0.9487   -1.5802    2.0228 H   0  0  0  0  0  0  0  0  0  0  0  0
   -0.5309   -0.9230    3.6083 H   0  0  0  0  0  0  0  0  0  0  0  0
    0.7353   -1.5828    2.5692 H   0  0  0  0  0  0  0  0  0  0  0  0
   -2.0252   -1.8156   -0.3084 H   0  0  0  0  0  0  0  0  0  0  0  0
    2.0251   -1.8167    0.3020 H   0  0  0  0  0  0  0  0  0  0  0  0
   -2.0360    2.4881   -0.3004 H   0  0  0  0  0  0  0  0  0  0  0  0
    2.0358    2.4870    0.3092 H   0  0  0  0  0  0  0  0  0  0  0  0
   -4.4789    2.4854    0.0335 H   0  0  0  0  0  0  0  0  0  0  0  0
    4.4788    2.4856   -0.0245 H   0  0  0  0  0  0  0  0  0  0  0  0
   -3.9724   -2.7892   -0.0417 H   0  0  0  0  0  0  0  0  0  0  0  0
    3.9723   -2.7894    0.0319 H   0  0  0  0  0  0  0  0  0  0  0  0
   -6.2988   -0.5750    0.2796 H   0  0  0  0  0  0  0  0  0  0  0  0
    6.2988   -0.5739   -0.2814 H   0  0  0  0  0  0  0  0  0  0  0  0
  1 17  1  0  0  0  0
  1 39  1  0  0  0  0
  2 18  1  0  0  0  0
  2 40  1  0  0  0  0
  3 21  1  0  0  0  0
  3 41  1  0  0  0  0
  4 22  1  0  0  0  0
  4 42  1  0  0  0  0
  5  6  2  0  0  0  0
  5  7  1  0  0  0  0
  5  9  1  0  0  0  0
  6  8  1  0  0  0  0
  6 10  1  0  0  0  0
  7 11  1  0  0  0  0
  7 23  1  0  0  0  0
  7 24  1  0  0  0  0
  8 12  1  0  0  0  0
  8 25  1  0  0  0  0
  8 26  1  0  0  0  0
  9 13  2  0  0  0  0
  9 15  1  0  0  0  0
 10 14  2  0  0  0  0
 10 16  1  0  0  0  0
 11 27  1  0  0  0  0
 11 28  1  0  0  0  0
 11 29  1  0  0  0  0
 12 30  1  0  0  0  0
 12 31  1  0  0  0  0
 12 32  1  0  0  0  0
 13 17  1  0  0  0  0
 13 33  1  0  0  0  0
 14 18  1  0  0  0  0
 14 34  1  0  0  0  0
 15 19  2  0  0  0  0
 15 35  1  0  0  0  0
 16 20  2  0  0  0  0
 16 36  1  0  0  0  0
 17 21  2  0  0  0  0
 18 22  2  0  0  0  0
 19 21  1  0  0  0  0
 19 37  1  0  0  0  0
 20 22  1  0  0  0  0
 20 38  1  0  0  0  0
M  END
> <PUBCHEM_COMPOUND_CID>
10780574

> <PUBCHEM_CONFORMER_RMSD>
0.6

> <PUBCHEM_CONFORMER_DIVERSEORDER>
1
5
3
4
6
2

> <PUBCHEM_MMFF94_PARTIAL_CHARGES>
30
1 -0.53
10 0.03
13 -0.15
14 -0.15
15 -0.15
16 -0.15
17 0.08
18 0.08
19 -0.15
2 -0.53
20 -0.15
21 0.08
22 0.08
3 -0.53
33 0.15
34 0.15
35 0.15
36 0.15
37 0.15
38 0.15
39 0.45
4 -0.53
40 0.45
41 0.45
42 0.45
5 -0.17
6 -0.17
7 0.14
8 0.14
9 0.03

> <PUBCHEM_EFFECTIVE_ROTOR_COUNT>
4

> <PUBCHEM_PHARMACOPHORE_FEATURES>
8
1 1 donor
1 11 hydrophobe
1 12 hydrophobe
1 2 donor
1 3 donor
1 4 donor
6 10 14 16 18 20 22 rings
6 9 13 15 17 19 21 rings

> <PUBCHEM_HEAVY_ATOM_COUNT>
22

> <PUBCHEM_ATOM_DEF_STEREO_COUNT>
0

> <PUBCHEM_ATOM_UDEF_STEREO_COUNT>
0

> <PUBCHEM_BOND_DEF_STEREO_COUNT>
1

> <PUBCHEM_BOND_UDEF_STEREO_COUNT>
0

> <PUBCHEM_ISOTOPIC_ATOM_COUNT>
0

> <PUBCHEM_COMPONENT_COUNT>
1

> <PUBCHEM_CACTVS_TAUTO_COUNT>
126

> <PUBCHEM_CONFORMER_ID>
00A47F9E00000001

> <PUBCHEM_MMFF94_ENERGY>
64.4628

> <PUBCHEM_FEATURE_SELFOVERLAP>
40.603

> <PUBCHEM_SHAPE_FINGERPRINT>
11796584 16 17967810539713980423
12107183 9 17761775469551082897
12236239 1 17847061095321158653
12467345 10 18411138038911467524
12592029 89 18113614629463884390
12633257 1 16516521076565587487
12788726 201 15285626669518245544
128620 24 15626227930829933774
12969540 114 14836403597103348074
13140716 1 15575576647132160139
13167823 11 18410858758663259495
13583140 156 18187370891335294968
13675066 3 17749118802483511618
14115302 16 16950287269845154180
14341114 176 18410288133745731085
14787075 74 17917148295212298405
14955137 171 16271631352409068461
15209289 33 17703789227941643409
15788980 27 17749112183801881997
15848702 151 18273497887912894468
16752209 62 16153704366727605648
1813 80 16630522964031787894
18186145 218 17775011201716532808
18222031 100 15913325797136043325
19784866 240 18041834138500473470
19784866 9 17240764025065782735
200 152 18259702298592430000
20645477 70 18337389452637368054
21033648 29 16588606286593941304
23175994 123 16732983115777730345
23402539 116 16702307853674653238
23536379 177 18409166636043119592
23559900 14 18411423881896610489
23569943 247 17201365323761006402
3004659 81 18339641248193028678
3286 77 18201444696548695590
4072396 5 16588024662180615071
4073 2 18130783426243229650
4214541 1 18410576205934730565
465052 167 18113333094041062127
5104073 3 18408044021807306056
633830 44 17775006790663780993
7226269 152 15574715798484400410
7495541 125 17822296730277403841
77779 3 18410857663446612000
8272917 22 18261388996505565846

> <PUBCHEM_SHAPE_MULTIPOLES>
429.27
11.19
1.66
1.64
0
0.01
-0.2
0
-0.41
0
-0.51
0
-0.01
-0.11

> <PUBCHEM_SHAPE_SELFOVERLAP>
919.091

> <PUBCHEM_SHAPE_VOLUME>
239

> <PUBCHEM_COORDINATE_TYPE>
2
5
10

$$$$

