5305
  -OEChem-06261200383D

 59 60  0     0  0  0  0  0  0999 V2000
   -6.0422   -1.4258    0.5381 O   0  0  0  0  0  0  0  0  0  0  0  0
    1.1905    1.8720   -2.0587 O   0  0  0  0  0  0  0  0  0  0  0  0
    2.0704    2.1438    0.0600 N   0  0  0  0  0  0  0  0  0  0  0  0
   -0.3521    0.9359    2.3704 N   0  0  0  0  0  0  0  0  0  0  0  0
   -5.8572    1.4065    0.3822 C   0  0  0  0  0  0  0  0  0  0  0  0
   -3.8982   -3.1977   -0.0506 C   0  0  0  0  0  0  0  0  0  0  0  0
   -4.7120    0.5020    0.0658 C   0  0  0  0  0  0  0  0  0  0  0  0
   -3.7696   -1.7128   -0.1423 C   0  0  0  0  0  0  0  0  0  0  0  0
   -4.8502   -0.8830    0.1567 C   0  0  0  0  0  0  0  0  0  0  0  0
   -3.4933    1.0572   -0.3241 C   0  0  0  0  0  0  0  0  0  0  0  0
   -2.5508   -1.1576   -0.5322 C   0  0  0  0  0  0  0  0  0  0  0  0
   -2.4273    0.2207   -0.6184 C   0  0  0  0  0  0  0  0  0  0  0  0
   -6.2954    2.2456   -0.8322 C   0  0  0  0  0  0  0  0  0  0  0  0
   -5.5629    2.3302    1.5784 C   0  0  0  0  0  0  0  0  0  0  0  0
   -2.9521   -3.8049    1.0016 C   0  0  0  0  0  0  0  0  0  0  0  0
   -3.6847   -3.8904   -1.4090 C   0  0  0  0  0  0  0  0  0  0  0  0
   -1.1418    0.8065   -1.0293 C   0  0  0  0  0  0  0  0  0  0  0  0
    4.4064    1.6659   -0.6030 C   0  0  0  0  0  0  0  0  0  0  0  0
    4.7672    0.8310    0.6329 C   0  0  0  0  0  0  0  0  0  0  0  0
    3.3279    2.7202   -0.3615 C   0  0  0  0  0  0  0  0  0  0  0  0
   -0.1473    1.1755   -0.1986 C   0  0  0  0  0  0  0  0  0  0  0  0
    5.8586   -0.1805    0.3888 C   0  0  0  0  0  0  0  0  0  0  0  0
    1.0867    1.7598   -0.8381 C   0  0  0  0  0  0  0  0  0  0  0  0
    5.5216   -1.4579   -0.0330 C   0  0  0  0  0  0  0  0  0  0  0  0
    7.1816    0.1830    0.5905 C   0  0  0  0  0  0  0  0  0  0  0  0
    6.5312   -2.3936   -0.2583 C   0  0  0  0  0  0  0  0  0  0  0  0
    8.1912   -0.7526    0.3651 C   0  0  0  0  0  0  0  0  0  0  0  0
   -0.2623    1.0422    1.2182 C   0  0  0  0  0  0  0  0  0  0  0  0
    7.8660   -2.0411   -0.0594 C   0  0  0  0  0  0  0  0  0  0  0  0
   -6.7351    0.8151    0.6697 H   0  0  0  0  0  0  0  0  0  0  0  0
   -4.9004   -3.4899    0.2779 H   0  0  0  0  0  0  0  0  0  0  0  0
   -3.3741    2.1352   -0.3991 H   0  0  0  0  0  0  0  0  0  0  0  0
   -1.7017   -1.7944   -0.7680 H   0  0  0  0  0  0  0  0  0  0  0  0
   -6.5299    1.6005   -1.6864 H   0  0  0  0  0  0  0  0  0  0  0  0
   -7.1931    2.8263   -0.5935 H   0  0  0  0  0  0  0  0  0  0  0  0
   -5.5184    2.9503   -1.1472 H   0  0  0  0  0  0  0  0  0  0  0  0
   -5.2707    1.7459    2.4581 H   0  0  0  0  0  0  0  0  0  0  0  0
   -6.4528    2.9121    1.8420 H   0  0  0  0  0  0  0  0  0  0  0  0
   -4.7555    3.0380    1.3625 H   0  0  0  0  0  0  0  0  0  0  0  0
   -3.1095   -3.3394    1.9810 H   0  0  0  0  0  0  0  0  0  0  0  0
   -3.1342   -4.8800    1.1077 H   0  0  0  0  0  0  0  0  0  0  0  0
   -1.8987   -3.6725    0.7326 H   0  0  0  0  0  0  0  0  0  0  0  0
   -2.6632   -3.7595   -1.7817 H   0  0  0  0  0  0  0  0  0  0  0  0
   -3.8714   -4.9667   -1.3247 H   0  0  0  0  0  0  0  0  0  0  0  0
   -4.3718   -3.4886   -2.1621 H   0  0  0  0  0  0  0  0  0  0  0  0
   -1.0490    0.9182   -2.1074 H   0  0  0  0  0  0  0  0  0  0  0  0
    5.3077    2.1720   -0.9719 H   0  0  0  0  0  0  0  0  0  0  0  0
    4.0798    0.9933   -1.4069 H   0  0  0  0  0  0  0  0  0  0  0  0
    3.8766    0.3079    1.0047 H   0  0  0  0  0  0  0  0  0  0  0  0
    5.0714    1.4997    1.4490 H   0  0  0  0  0  0  0  0  0  0  0  0
    3.6453    3.4138    0.4244 H   0  0  0  0  0  0  0  0  0  0  0  0
    3.1675    3.3001   -1.2769 H   0  0  0  0  0  0  0  0  0  0  0  0
   -6.2570   -2.1569   -0.0651 H   0  0  0  0  0  0  0  0  0  0  0  0
    1.9362    2.0232    1.0584 H   0  0  0  0  0  0  0  0  0  0  0  0
    4.4852   -1.7412   -0.1929 H   0  0  0  0  0  0  0  0  0  0  0  0
    7.4450    1.1844    0.9189 H   0  0  0  0  0  0  0  0  0  0  0  0
    6.2781   -3.3966   -0.5894 H   0  0  0  0  0  0  0  0  0  0  0  0
    9.2306   -0.4780    0.5194 H   0  0  0  0  0  0  0  0  0  0  0  0
    8.6521   -2.7695   -0.2352 H   0  0  0  0  0  0  0  0  0  0  0  0
  1  9  1  0  0  0  0
  1 53  1  0  0  0  0
  2 23  2  0  0  0  0
  3 20  1  0  0  0  0
  3 23  1  0  0  0  0
  3 54  1  0  0  0  0
  4 28  3  0  0  0  0
  5  7  1  0  0  0  0
  5 13  1  0  0  0  0
  5 14  1  0  0  0  0
  5 30  1  0  0  0  0
  6  8  1  0  0  0  0
  6 15  1  0  0  0  0
  6 16  1  0  0  0  0
  6 31  1  0  0  0  0
  7  9  2  0  0  0  0
  7 10  1  0  0  0  0
  8  9  1  0  0  0  0
  8 11  2  0  0  0  0
 10 12  2  0  0  0  0
 10 32  1  0  0  0  0
 11 12  1  0  0  0  0
 11 33  1  0  0  0  0
 12 17  1  0  0  0  0
 13 34  1  0  0  0  0
 13 35  1  0  0  0  0
 13 36  1  0  0  0  0
 14 37  1  0  0  0  0
 14 38  1  0  0  0  0
 14 39  1  0  0  0  0
 15 40  1  0  0  0  0
 15 41  1  0  0  0  0
 15 42  1  0  0  0  0
 16 43  1  0  0  0  0
 16 44  1  0  0  0  0
 16 45  1  0  0  0  0
 17 21  2  0  0  0  0
 17 46  1  0  0  0  0
 18 19  1  0  0  0  0
 18 20  1  0  0  0  0
 18 47  1  0  0  0  0
 18 48  1  0  0  0  0
 19 22  1  0  0  0  0
 19 49  1  0  0  0  0
 19 50  1  0  0  0  0
 20 51  1  0  0  0  0
 20 52  1  0  0  0  0
 21 23  1  0  0  0  0
 21 28  1  0  0  0  0
 22 24  2  0  0  0  0
 22 25  1  0  0  0  0
 24 26  1  0  0  0  0
 24 55  1  0  0  0  0
 25 27  2  0  0  0  0
 25 56  1  0  0  0  0
 26 29  2  0  0  0  0
 26 57  1  0  0  0  0
 27 29  1  0  0  0  0
 27 58  1  0  0  0  0
 29 59  1  0  0  0  0
M  END
> <PUBCHEM_COMPOUND_CID>
5305

> <PUBCHEM_CONFORMER_RMSD>
1

> <PUBCHEM_CONFORMER_DIVERSEORDER>
1
78
100
76
93
81
4
28
37
87
104
50
52
11
55
10
86
43
46
97
7
47
44
35
38
102
99
85
49
65
75
103
56
31
58
27
94
15
91
82
17
25
14
34
80
22
60
66
24
79
8
72
83
89
64
96
57
63
41
62
21
69
90
51
39
61
40
29
67
19
92
53
77
84
32
98
54
105
68
74
13
42
45
26
71
48
3
9
70
88
59
36
2
20
18
73
101
30
95
16
12
33
23
6
5

> <PUBCHEM_MMFF94_PARTIAL_CHARGES>
34
1 -0.53
10 -0.15
11 -0.15
12 0.03
17 -0.18
19 0.14
2 -0.57
20 0.3
21 0.08
22 -0.14
23 0.62
24 -0.15
25 -0.15
26 -0.15
27 -0.15
28 0.49
29 -0.15
3 -0.73
32 0.15
33 0.15
4 -0.56
46 0.15
5 0.14
53 0.45
54 0.37
55 0.15
56 0.15
57 0.15
58 0.15
59 0.15
6 0.14
7 -0.14
8 -0.14
9 0.08

> <PUBCHEM_EFFECTIVE_ROTOR_COUNT>
9

> <PUBCHEM_PHARMACOPHORE_FEATURES>
8
1 1 donor
1 2 acceptor
1 3 donor
1 4 acceptor
3 5 13 14 hydrophobe
3 6 15 16 hydrophobe
6 22 24 25 26 27 29 rings
6 7 8 9 10 11 12 rings

> <PUBCHEM_HEAVY_ATOM_COUNT>
29

> <PUBCHEM_ATOM_DEF_STEREO_COUNT>
0

> <PUBCHEM_ATOM_UDEF_STEREO_COUNT>
0

> <PUBCHEM_BOND_DEF_STEREO_COUNT>
0

> <PUBCHEM_BOND_UDEF_STEREO_COUNT>
1

> <PUBCHEM_ISOTOPIC_ATOM_COUNT>
0

> <PUBCHEM_COMPONENT_COUNT>
1

> <PUBCHEM_CACTVS_TAUTO_COUNT>
4

> <PUBCHEM_CONFORMER_ID>
000014B900000001

> <PUBCHEM_MMFF94_ENERGY>
72.6913

> <PUBCHEM_FEATURE_SELFOVERLAP>
40.594

> <PUBCHEM_SHAPE_FINGERPRINT>
10305334 12 18409729582108385703
10864689 126 18192422185762802358
11331351 85 18131631210039072692
11387372 6 17845928529715354755
11443803 9 17240765147160470973
11524674 6 17675928694115474543
117089 54 17912356533492415514
11796584 16 18260825977922254140
12107183 9 18410006667348801833
12422481 6 18261394416928490534
12592606 108 18409453595698296557
12643181 29 18410300232900744954
1361 4 18053661378611111706
13690498 29 17703514393443497276
14400156 162 18201423746184140683
14420673 8 18412262843776041406
15021287 119 17774996886802038893
15183329 4 18131075943533385264
15230672 131 18270971257558751074
15352257 5 18411702076262098814
15361156 5 17988353802530714812
15537594 2 17632584880791463378
16120349 21 18337387236070051612
21049683 271 10375570608962424893
21585481 151 18333729144264072462
21814621 53 18260272914809742024
21987440 362 17697037299246283053
23522609 53 18056449856053258988
23559900 14 18335711511387582752
23569943 247 17703239528141419530
249057 3 18342740740905798397
312425 54 18335707135205876032
354706 109 18190202142842201890
4073 2 18199466576430598512
42626532 9 18193272997287561801
5104073 3 18188485761787786056
559249 180 18411138030817418213
6371009 1 7276821399085265418

> <PUBCHEM_SHAPE_MULTIPOLES>
575.11
22.12
4.06
1.3
34.92
3.64
-0.2
6.7
-2.63
-3.97
0.44
-0.83
-0.38
-0.82

> <PUBCHEM_SHAPE_SELFOVERLAP>
1198.175

> <PUBCHEM_SHAPE_VOLUME>
325.1

> <PUBCHEM_COORDINATE_TYPE>
2
5
10

$$$$

