5281138
  -OEChem-07051212553D

 47 47  0     1  0  0  0  0  0999 V2000
    0.7712    1.2677   -1.7999 S   0  0  0  0  0  0  0  0  0  0  0  0
   -0.9869   -3.4053   -0.4611 S   0  0  0  0  0  0  0  0  0  0  0  0
   -6.1927    2.0879    0.8759 S   0  0  2  0  0  0  0  0  0  0  0  0
    1.8825    0.5164    0.5117 O   0  0  0  0  0  0  0  0  0  0  0  0
    5.6435    1.9525   -0.3138 O   0  0  0  0  0  0  0  0  0  0  0  0
    5.2385    0.0851    1.9063 O   0  0  0  0  0  0  0  0  0  0  0  0
    3.8217    1.3921   -2.4792 O   0  0  0  0  0  0  0  0  0  0  0  0
    1.2333   -0.9964    2.7097 O   0  0  0  0  0  0  0  0  0  0  0  0
   -1.3536   -1.8517   -0.8033 O   0  0  0  0  0  0  0  0  0  0  0  0
   -2.4561   -4.0944   -0.3048 O   0  0  0  0  0  0  0  0  0  0  0  0
   -0.3403   -3.4487    0.8371 O   0  0  0  0  0  0  0  0  0  0  0  0
   -0.3487   -3.9911   -1.6251 O   0  0  0  0  0  0  0  0  0  0  0  0
   -6.4810    2.3429   -0.5740 O   0  0  0  0  0  0  0  0  0  0  0  0
   -0.2092   -1.1128   -1.1164 N   0  0  0  0  0  0  0  0  0  0  0  0
    4.6125    0.9651   -0.2526 C   0  0  1  0  0  0  0  0  0  0  0  0
    4.1952    0.7545    1.2034 C   0  0  1  0  0  0  0  0  0  0  0  0
    2.9207   -0.0900    1.2822 C   0  0  1  0  0  0  0  0  0  0  0  0
    3.4384    1.4552   -1.1058 C   0  0  2  0  0  0  0  0  0  0  0  0
    2.1975    0.5859   -0.8787 C   0  0  2  0  0  0  0  0  0  0  0  0
    2.4143   -0.2152    2.7157 C   0  0  0  0  0  0  0  0  0  0  0  0
   -0.5042    0.1196   -1.3874 C   0  0  0  0  0  0  0  0  0  0  0  0
   -1.8997    0.7154   -1.3668 C   0  0  0  0  0  0  0  0  0  0  0  0
   -2.2437    1.2259    0.0328 C   0  0  0  0  0  0  0  0  0  0  0  0
   -3.6389    1.7778    0.0816 C   0  0  0  0  0  0  0  0  0  0  0  0
   -4.5799    1.3288    0.9237 C   0  0  0  0  0  0  0  0  0  0  0  0
   -7.1345    0.6328    1.3885 C   0  0  0  0  0  0  0  0  0  0  0  0
    5.0441    0.0479   -0.6706 H   0  0  0  0  0  0  0  0  0  0  0  0
    4.0436    1.7267    1.6878 H   0  0  0  0  0  0  0  0  0  0  0  0
    3.2308    2.5058   -0.8661 H   0  0  0  0  0  0  0  0  0  0  0  0
    3.0942   -1.1033    0.8947 H   0  0  0  0  0  0  0  0  0  0  0  0
    2.3726   -0.4258   -1.2654 H   0  0  0  0  0  0  0  0  0  0  0  0
    2.1614    0.7676    3.1271 H   0  0  0  0  0  0  0  0  0  0  0  0
    3.1524   -0.6993    3.3622 H   0  0  0  0  0  0  0  0  0  0  0  0
    5.2981    2.7750    0.0731 H   0  0  0  0  0  0  0  0  0  0  0  0
    5.3759   -0.7813    1.4868 H   0  0  0  0  0  0  0  0  0  0  0  0
    3.9944    0.4612   -2.7010 H   0  0  0  0  0  0  0  0  0  0  0  0
    0.9256   -1.0588    3.6300 H   0  0  0  0  0  0  0  0  0  0  0  0
   -1.9629    1.5343   -2.0944 H   0  0  0  0  0  0  0  0  0  0  0  0
   -2.6267   -0.0368   -1.6945 H   0  0  0  0  0  0  0  0  0  0  0  0
   -1.5455    2.0207    0.3223 H   0  0  0  0  0  0  0  0  0  0  0  0
   -2.1135    0.4206    0.7665 H   0  0  0  0  0  0  0  0  0  0  0  0
   -3.8508    2.5955   -0.6034 H   0  0  0  0  0  0  0  0  0  0  0  0
   -4.3475    0.5257    1.6160 H   0  0  0  0  0  0  0  0  0  0  0  0
   -6.9389   -0.2002    0.7084 H   0  0  0  0  0  0  0  0  0  0  0  0
   -6.8583    0.3573    2.4093 H   0  0  0  0  0  0  0  0  0  0  0  0
   -8.1986    0.8796    1.3589 H   0  0  0  0  0  0  0  0  0  0  0  0
   -2.4501   -5.0570   -0.0913 H   0  0  0  0  0  0  0  0  0  0  0  0
  1 19  1  0  0  0  0
  1 21  1  0  0  0  0
  2  9  1  0  0  0  0
  2 10  1  0  0  0  0
  2 11  2  0  0  0  0
  2 12  2  0  0  0  0
  3 13  2  0  0  0  0
  3 25  1  0  0  0  0
  3 26  1  0  0  0  0
  4 17  1  0  0  0  0
  4 19  1  0  0  0  0
  5 15  1  0  0  0  0
  5 34  1  0  0  0  0
  6 16  1  0  0  0  0
  6 35  1  0  0  0  0
  7 18  1  0  0  0  0
  7 36  1  0  0  0  0
  8 20  1  0  0  0  0
  8 37  1  0  0  0  0
  9 14  1  0  0  0  0
 10 47  1  0  0  0  0
 14 21  2  0  0  0  0
 15 16  1  0  0  0  0
 15 18  1  0  0  0  0
 15 27  1  0  0  0  0
 16 17  1  0  0  0  0
 16 28  1  0  0  0  0
 17 20  1  0  0  0  0
 17 30  1  0  0  0  0
 18 19  1  0  0  0  0
 18 29  1  0  0  0  0
 19 31  1  0  0  0  0
 20 32  1  0  0  0  0
 20 33  1  0  0  0  0
 21 22  1  0  0  0  0
 22 23  1  0  0  0  0
 22 38  1  0  0  0  0
 22 39  1  0  0  0  0
 23 24  1  0  0  0  0
 23 40  1  0  0  0  0
 23 41  1  0  0  0  0
 24 25  2  0  0  0  0
 24 42  1  0  0  0  0
 25 43  1  0  0  0  0
 26 44  1  0  0  0  0
 26 45  1  0  0  0  0
 26 46  1  0  0  0  0
M  END
> <PUBCHEM_COMPOUND_CID>
5281138

> <PUBCHEM_CONFORMER_RMSD>
1

> <PUBCHEM_CONFORMER_DIVERSEORDER>
1
2
25
22
45
16
28
26
10
32
6
37
40
43
31
39
15
42
34
30
19
41
12
23
7
13
33
36
27
20
11
14
38
9
8
3
44
5
29
4
21
17
18
35
24

> <PUBCHEM_MMFF94_PARTIAL_CHARGES>
33
1 -0.37
10 -0.68
11 -0.65
12 -0.65
13 -0.5
14 -0.51
15 0.28
16 0.28
17 0.28
18 0.28
19 0.51
2 1.67
20 0.28
21 0.53
22 0.06
23 0.14
24 -0.29
25 -0.09
26 0.19
3 0.25
34 0.4
35 0.4
36 0.4
37 0.4
4 -0.56
42 0.15
43 0.15
47 0.5
5 -0.68
6 -0.68
7 -0.68
8 -0.68
9 -0.12

> <PUBCHEM_EFFECTIVE_ROTOR_COUNT>
10.2

> <PUBCHEM_PHARMACOPHORE_FEATURES>
16
1 10 acceptor
1 11 acceptor
1 12 acceptor
1 13 acceptor
1 14 acceptor
1 4 acceptor
1 5 acceptor
1 5 donor
1 6 acceptor
1 6 donor
1 7 acceptor
1 7 donor
1 8 acceptor
1 8 donor
4 2 10 11 12 anion
6 4 15 16 17 18 19 rings

> <PUBCHEM_HEAVY_ATOM_COUNT>
26

> <PUBCHEM_ATOM_DEF_STEREO_COUNT>
5

> <PUBCHEM_ATOM_UDEF_STEREO_COUNT>
1

> <PUBCHEM_BOND_DEF_STEREO_COUNT>
1

> <PUBCHEM_BOND_UDEF_STEREO_COUNT>
1

> <PUBCHEM_ISOTOPIC_ATOM_COUNT>
0

> <PUBCHEM_COMPONENT_COUNT>
1

> <PUBCHEM_CACTVS_TAUTO_COUNT>
1

> <PUBCHEM_CONFORMER_ID>
0050957200000001

> <PUBCHEM_MMFF94_ENERGY>
47.3682

> <PUBCHEM_FEATURE_SELFOVERLAP>
81.267

> <PUBCHEM_SHAPE_FINGERPRINT>
11070050 100 18115019822836107515
12166972 35 6555407609228144897
12596602 18 18201716280089948537
12788726 201 18052534366133620807
12839892 36 18341890806096660269
13692114 37 18259984881988046071
14681490 219 14345793885486718921
15064986 96 17910413997013763122
15183329 4 6122505679691294537
20554085 129 18114184172598215393
21033648 29 17095810923546986508
21315764 21 14635165472802736546
221357 26 14707204465311535673
22224240 67 18334570249094729013
22956985 138 17840865497428051763
23558518 356 17482535400711780444
23559900 14 17765706207347958341
249999 5 18191018113735005255
3004659 81 7060376998517739365
427121 178 18114462357207698215
563151 248 18201722855868864882
6438718 38 18200305507855056706

> <PUBCHEM_SHAPE_MULTIPOLES>
482.94
13.51
3.82
2.32
16.61
6.88
0.84
-13.16
5.55
2.92
-1.31
-2.22
0.04
-1.51

> <PUBCHEM_SHAPE_SELFOVERLAP>
918.902

> <PUBCHEM_SHAPE_VOLUME>
297.5

> <PUBCHEM_COORDINATE_TYPE>
2
5
10

$$$$

