62123
  -OEChem-07051213143D

 26 26  0     0  0  0  0  0  0999 V2000
   -5.2894   -2.2574    0.0230 Cl  0  0  0  0  0  0  0  0  0  0  0  0
    5.2888   -2.2579   -0.0228 Cl  0  0  0  0  0  0  0  0  0  0  0  0
   -3.3589   -0.5095   -0.0097 O   0  0  0  0  0  0  0  0  0  0  0  0
    3.3587   -0.5095    0.0097 O   0  0  0  0  0  0  0  0  0  0  0  0
   -1.3947    0.8315   -0.0040 C   0  0  0  0  0  0  0  0  0  0  0  0
    1.3950    0.8321    0.0039 C   0  0  0  0  0  0  0  0  0  0  0  0
   -0.6940    0.8316   -1.2100 C   0  0  0  0  0  0  0  0  0  0  0  0
    0.7009    0.8318   -1.2060 C   0  0  0  0  0  0  0  0  0  0  0  0
   -0.7007    0.8318    1.2060 C   0  0  0  0  0  0  0  0  0  0  0  0
    0.6942    0.8321    1.2099 C   0  0  0  0  0  0  0  0  0  0  0  0
   -2.8859    0.8319   -0.0081 C   0  0  0  0  0  0  0  0  0  0  0  0
    2.8861    0.8321    0.0081 C   0  0  0  0  0  0  0  0  0  0  0  0
   -4.7779   -0.5602   -0.0136 C   0  0  0  0  0  0  0  0  0  0  0  0
    4.7777   -0.5606    0.0136 C   0  0  0  0  0  0  0  0  0  0  0  0
   -1.2232    0.8290   -2.1592 H   0  0  0  0  0  0  0  0  0  0  0  0
    1.2355    0.8291   -2.1522 H   0  0  0  0  0  0  0  0  0  0  0  0
   -1.2353    0.8293    2.1522 H   0  0  0  0  0  0  0  0  0  0  0  0
    1.2235    0.8298    2.1591 H   0  0  0  0  0  0  0  0  0  0  0  0
   -3.2670    1.3607    0.8747 H   0  0  0  0  0  0  0  0  0  0  0  0
   -3.2627    1.3607   -0.8928 H   0  0  0  0  0  0  0  0  0  0  0  0
    3.2674    1.3607   -0.8748 H   0  0  0  0  0  0  0  0  0  0  0  0
    3.2631    1.3609    0.8926 H   0  0  0  0  0  0  0  0  0  0  0  0
   -5.1854   -0.0639    0.8723 H   0  0  0  0  0  0  0  0  0  0  0  0
   -5.1772   -0.1026   -0.9236 H   0  0  0  0  0  0  0  0  0  0  0  0
    5.1854   -0.0644   -0.8723 H   0  0  0  0  0  0  0  0  0  0  0  0
    5.1772   -0.1030    0.9236 H   0  0  0  0  0  0  0  0  0  0  0  0
  1 13  1  0  0  0  0
  2 14  1  0  0  0  0
  3 11  1  0  0  0  0
  3 13  1  0  0  0  0
  4 12  1  0  0  0  0
  4 14  1  0  0  0  0
  5  7  2  0  0  0  0
  5  9  1  0  0  0  0
  5 11  1  0  0  0  0
  6  8  2  0  0  0  0
  6 10  1  0  0  0  0
  6 12  1  0  0  0  0
  7  8  1  0  0  0  0
  7 15  1  0  0  0  0
  8 16  1  0  0  0  0
  9 10  2  0  0  0  0
  9 17  1  0  0  0  0
 10 18  1  0  0  0  0
 11 19  1  0  0  0  0
 11 20  1  0  0  0  0
 12 21  1  0  0  0  0
 12 22  1  0  0  0  0
 13 23  1  0  0  0  0
 13 24  1  0  0  0  0
 14 25  1  0  0  0  0
 14 26  1  0  0  0  0
M  END
> <PUBCHEM_COMPOUND_CID>
62123

> <PUBCHEM_CONFORMER_RMSD>
0.6

> <PUBCHEM_CONFORMER_DIVERSEORDER>
1
68
37
66
23
65
48
34
49
62
40
35
43
2
25
36
14
58
63
47
27
61
64
7
55
4
19
9
57
50
24
11
56
26
29
16
51
53
28
22
52
20
54
60
3
21
15
67
30
10
46
38
41
45
33
12
59
39
42
32
18
5
31
6
8
17
44
13

> <PUBCHEM_MMFF94_PARTIAL_CHARGES>
18
1 -0.29
10 -0.15
11 0.42
12 0.42
13 0.57
14 0.57
15 0.15
16 0.15
17 0.15
18 0.15
2 -0.29
3 -0.56
4 -0.56
5 -0.14
6 -0.14
7 -0.15
8 -0.15
9 -0.15

> <PUBCHEM_EFFECTIVE_ROTOR_COUNT>
6

> <PUBCHEM_PHARMACOPHORE_FEATURES>
3
1 3 acceptor
1 4 acceptor
6 5 6 7 8 9 10 rings

> <PUBCHEM_HEAVY_ATOM_COUNT>
14

> <PUBCHEM_ATOM_DEF_STEREO_COUNT>
0

> <PUBCHEM_ATOM_UDEF_STEREO_COUNT>
0

> <PUBCHEM_BOND_DEF_STEREO_COUNT>
0

> <PUBCHEM_BOND_UDEF_STEREO_COUNT>
0

> <PUBCHEM_ISOTOPIC_ATOM_COUNT>
0

> <PUBCHEM_COMPONENT_COUNT>
1

> <PUBCHEM_CACTVS_TAUTO_COUNT>
1

> <PUBCHEM_CONFORMER_ID>
0000F2AB00000001

> <PUBCHEM_MMFF94_ENERGY>
31.0384

> <PUBCHEM_FEATURE_SELFOVERLAP>
15.223

> <PUBCHEM_SHAPE_FINGERPRINT>
10465860 250 17821729455081100729
11132069 177 14779269725918548164
117890 112 8646769993313175510
11796584 16 18408886256789718295
12644460 14 16951133846189983360
12670543 26 15697728093905243719
13288520 33 18411980290662078805
13760787 5 14548743953328048592
14123255 352 9367354734228286907
14178000 29 18202562865087300332
14252887 29 16009014090835939445
14576447 43 17775010071929157218
14911166 2 15770055021026438881
14993402 34 15410892959386291508
15209294 21 5978390508251384305
17959699 21 10159692495690974406
19026448 4 18410584980268365509
193927 3 18338785771468044806
19784866 240 18411130359541701302
200 152 18411419540053776856
20645477 70 18201720639607528962
20871999 31 15985103058848394164
21304253 335 8718826513509481938
21637258 2 18410866459539692675
22620623 9 17346046695789445381
22713019 99 17561362880993477832
23379529 103 17557971858812685507
23402539 116 17060339668837920044
23402655 69 14404923366439763471
23559900 14 18411708655545568897
26918003 58 18040716995704704825
2748010 2 15553014634044357904
2838139 119 10159697967210595794
2916195 48 8070027770470433663
316301 35 17972322811423991023
3286 77 18410575093707084020
33382 64 18409726261702702178
465052 167 18186796946292158350
5104073 3 17821727242967033776
76465 3 18410855460128226754

> <PUBCHEM_SHAPE_MULTIPOLES>
280.11
11.29
1.91
1.04
0
1.53
0
11.14
0
0
0
0
-0.35
0.04

> <PUBCHEM_SHAPE_SELFOVERLAP>
542.046

> <PUBCHEM_SHAPE_VOLUME>
171.9

> <PUBCHEM_COORDINATE_TYPE>
2
5
10

$$$$

