11954085
  -OEChem-07051213063D

 47 50  0     1  0  0  0  0  0999 V2000
   -3.5343   -1.1132   -0.6601 O   0  0  0  0  0  0  0  0  0  0  0  0
   -2.4269    2.6313   -0.3990 O   0  0  0  0  0  0  0  0  0  0  0  0
   -5.3728   -0.1047   -1.4922 O   0  0  0  0  0  0  0  0  0  0  0  0
    5.6103    0.5386   -1.5088 O   0  0  0  0  0  0  0  0  0  0  0  0
   -0.2820    0.4614    0.5905 C   0  0  2  0  0  0  0  0  0  0  0  0
    0.6716   -0.6321   -0.0017 C   0  0  1  0  0  0  0  0  0  0  0  0
   -1.6968    0.3608   -0.0611 C   0  0  1  0  0  0  0  0  0  0  0  0
   -2.3194   -1.0346    0.1346 C   0  0  2  0  0  0  0  0  0  0  0  0
    2.1380   -0.5496    0.5723 C   0  0  1  0  0  0  0  0  0  0  0  0
    0.0334   -2.0335    0.1308 C   0  0  0  0  0  0  0  0  0  0  0  0
   -1.3718   -2.0889   -0.4612 C   0  0  0  0  0  0  0  0  0  0  0  0
    0.3374    1.8632    0.4279 C   0  0  0  0  0  0  0  0  0  0  0  0
   -2.6845    1.4571    0.3776 C   0  0  2  0  0  0  0  0  0  0  0  0
    2.6251    0.8909    0.4107 C   0  0  0  0  0  0  0  0  0  0  0  0
    1.7443    1.9547    1.0071 C   0  0  0  0  0  0  0  0  0  0  0  0
   -2.6604   -1.4098    1.5872 C   0  0  0  0  0  0  0  0  0  0  0  0
    2.2093   -0.9429    2.0656 C   0  0  0  0  0  0  0  0  0  0  0  0
   -4.1538    1.0796    0.1931 C   0  0  0  0  0  0  0  0  0  0  0  0
    3.0513   -1.5223   -0.1629 C   0  0  0  0  0  0  0  0  0  0  0  0
   -4.3991   -0.0734   -0.7447 C   0  0  0  0  0  0  0  0  0  0  0  0
    3.7364    1.2349   -0.2589 C   0  0  0  0  0  0  0  0  0  0  0  0
    4.1581   -1.1877   -0.8334 C   0  0  0  0  0  0  0  0  0  0  0  0
    4.5866    0.2202   -0.9133 C   0  0  0  0  0  0  0  0  0  0  0  0
   -0.3949    0.2837    1.6671 H   0  0  0  0  0  0  0  0  0  0  0  0
    0.7434   -0.4289   -1.0830 H   0  0  0  0  0  0  0  0  0  0  0  0
   -1.5450    0.4977   -1.1441 H   0  0  0  0  0  0  0  0  0  0  0  0
   -0.0018   -2.3422    1.1804 H   0  0  0  0  0  0  0  0  0  0  0  0
    0.6375   -2.7812   -0.3932 H   0  0  0  0  0  0  0  0  0  0  0  0
   -1.3104   -1.9523   -1.5499 H   0  0  0  0  0  0  0  0  0  0  0  0
   -1.7913   -3.0943   -0.3255 H   0  0  0  0  0  0  0  0  0  0  0  0
   -0.2770    2.6122    0.9388 H   0  0  0  0  0  0  0  0  0  0  0  0
    0.3612    2.1354   -0.6354 H   0  0  0  0  0  0  0  0  0  0  0  0
   -2.5212    1.7323    1.4256 H   0  0  0  0  0  0  0  0  0  0  0  0
    1.7127    1.8461    2.0972 H   0  0  0  0  0  0  0  0  0  0  0  0
    2.1411    2.9589    0.8132 H   0  0  0  0  0  0  0  0  0  0  0  0
   -1.7811   -1.4311    2.2362 H   0  0  0  0  0  0  0  0  0  0  0  0
   -3.3812   -0.7274    2.0416 H   0  0  0  0  0  0  0  0  0  0  0  0
   -3.1296   -2.4004    1.6217 H   0  0  0  0  0  0  0  0  0  0  0  0
    3.2102   -0.7574    2.4763 H   0  0  0  0  0  0  0  0  0  0  0  0
    1.5005   -0.3828    2.6830 H   0  0  0  0  0  0  0  0  0  0  0  0
    1.9975   -2.0075    2.2189 H   0  0  0  0  0  0  0  0  0  0  0  0
   -4.7197    1.9412   -0.1824 H   0  0  0  0  0  0  0  0  0  0  0  0
   -4.6035    0.8062    1.1536 H   0  0  0  0  0  0  0  0  0  0  0  0
    2.8068   -2.5809   -0.1154 H   0  0  0  0  0  0  0  0  0  0  0  0
    4.0443    2.2701   -0.3625 H   0  0  0  0  0  0  0  0  0  0  0  0
   -2.6304    2.4275   -1.3280 H   0  0  0  0  0  0  0  0  0  0  0  0
    4.7710   -1.9372   -1.3204 H   0  0  0  0  0  0  0  0  0  0  0  0
  1  8  1  0  0  0  0
  1 20  1  0  0  0  0
  2 13  1  0  0  0  0
  2 46  1  0  0  0  0
  3 20  2  0  0  0  0
  4 23  2  0  0  0  0
  5  6  1  0  0  0  0
  5  7  1  0  0  0  0
  5 12  1  0  0  0  0
  5 24  1  0  0  0  0
  6  9  1  0  0  0  0
  6 10  1  0  0  0  0
  6 25  1  0  0  0  0
  7  8  1  0  0  0  0
  7 13  1  0  0  0  0
  7 26  1  0  0  0  0
  8 11  1  0  0  0  0
  8 16  1  0  0  0  0
  9 14  1  0  0  0  0
  9 17  1  0  0  0  0
  9 19  1  0  0  0  0
 10 11  1  0  0  0  0
 10 27  1  0  0  0  0
 10 28  1  0  0  0  0
 11 29  1  0  0  0  0
 11 30  1  0  0  0  0
 12 15  1  0  0  0  0
 12 31  1  0  0  0  0
 12 32  1  0  0  0  0
 13 18  1  0  0  0  0
 13 33  1  0  0  0  0
 14 15  1  0  0  0  0
 14 21  2  0  0  0  0
 15 34  1  0  0  0  0
 15 35  1  0  0  0  0
 16 36  1  0  0  0  0
 16 37  1  0  0  0  0
 16 38  1  0  0  0  0
 17 39  1  0  0  0  0
 17 40  1  0  0  0  0
 17 41  1  0  0  0  0
 18 20  1  0  0  0  0
 18 42  1  0  0  0  0
 18 43  1  0  0  0  0
 19 22  2  0  0  0  0
 19 44  1  0  0  0  0
 21 23  1  0  0  0  0
 21 45  1  0  0  0  0
 22 23  1  0  0  0  0
 22 47  1  0  0  0  0
M  END
> <PUBCHEM_COMPOUND_CID>
11954085

> <PUBCHEM_CONFORMER_RMSD>
0.6

> <PUBCHEM_CONFORMER_DIVERSEORDER>
1

> <PUBCHEM_MMFF94_PARTIAL_CHARGES>
19
1 -0.43
13 0.28
14 -0.28
15 0.14
18 0.06
19 -0.29
2 -0.68
20 0.66
21 -0.14
22 -0.14
23 0.54
3 -0.57
4 -0.57
44 0.15
45 0.15
46 0.4
47 0.15
8 0.28
9 0.28

> <PUBCHEM_EFFECTIVE_ROTOR_COUNT>
1.4

> <PUBCHEM_PHARMACOPHORE_FEATURES>
8
1 2 acceptor
1 2 donor
1 3 acceptor
1 4 acceptor
6 1 7 8 13 18 20 rings
6 5 6 7 8 10 11 rings
6 5 6 9 12 14 15 rings
6 9 14 19 21 22 23 rings

> <PUBCHEM_HEAVY_ATOM_COUNT>
23

> <PUBCHEM_ATOM_DEF_STEREO_COUNT>
6

> <PUBCHEM_ATOM_UDEF_STEREO_COUNT>
0

> <PUBCHEM_BOND_DEF_STEREO_COUNT>
0

> <PUBCHEM_BOND_UDEF_STEREO_COUNT>
0

> <PUBCHEM_ISOTOPIC_ATOM_COUNT>
0

> <PUBCHEM_COMPONENT_COUNT>
1

> <PUBCHEM_CACTVS_TAUTO_COUNT>
3

> <PUBCHEM_CONFORMER_ID>
00B667A500000001

> <PUBCHEM_MMFF94_ENERGY>
67.4412

> <PUBCHEM_FEATURE_SELFOVERLAP>
40.657

> <PUBCHEM_SHAPE_FINGERPRINT>
10366900 7 18412267229111444689
10498660 4 18272091569411817767
10759866 29 18060139890015567914
10967382 1 18408892810672207881
11961588 58 18060138708883685108
12011746 2 18410577279713283357
12236239 1 17989491814450936842
12553582 1 18411141342074115145
12670546 177 18333729139150940516
12788726 201 18339082699942971265
13140716 1 18337677523939820144
13224815 77 18201999919323143115
13583140 156 16559026078364904761
14790565 3 18119514690263137721
15099037 51 18334576853962918743
15196674 1 18408040727556761697
15238133 3 18200889481488541936
15536298 74 18114469980553317120
15788980 27 6266899047812477891
16752209 62 18335709372403600763
16945 1 18264774246736155282
17349148 13 16587738724864778743
1813 80 4967621576856221520
18186145 218 18410303518529438993
19862831 5 18409165502377351688
200 152 17240484702089207267
20645477 70 17530682100480476700
20775438 99 17029420109407056615
20871999 31 18335696161237269804
21069387 34 14851602163661774918
21267235 1 18333726889110426903
21637258 2 15430304881036635678
21857420 4 15149752179158190517
221357 26 18260551129953480557
22393880 68 18336274474304507357
23402539 116 18333730243511397334
23493267 7 18202559562268083786
23559900 14 18115314366945041344
2748010 2 18336836315935008672
2838139 119 16341997782269306652
2871803 45 18410298003485638220
296302 2 16487256560283195475
3004659 81 18339919429061776902
34934 24 18336272236948240946
350125 39 18335978761960116553
4028521 119 18271814527289730149
4280585 95 17323786142873773870
4340502 62 16558743537829908882
474 4 17274531045473580668
5104073 3 18408885139602083714
9709674 26 18190748535405968275

> <PUBCHEM_SHAPE_MULTIPOLES>
449.85
9.7
2.26
1.29
0.47
0.35
0.3
0.73
-4.58
-0.41
0.18
0.32
-0.24
0.05

> <PUBCHEM_SHAPE_SELFOVERLAP>
972.687

> <PUBCHEM_SHAPE_VOLUME>
241.5

> <PUBCHEM_COORDINATE_TYPE>
2
5
10

$$$$

