5281630
  -OEChem-07051212582D

 33 35  0     0  0  0  0  0  0999 V2000
    6.0682   -0.9031    0.0000 O   0  0  0  0  0  0  0  0  0  0  0  0
    4.3198   -1.9377    0.0000 O   0  0  0  0  0  0  0  0  0  0  0  0
    9.5984   -0.9273    0.0000 O   0  0  0  0  0  0  0  0  0  0  0  0
    6.0682    2.0969    0.0000 O   0  0  0  0  0  0  0  0  0  0  0  0
    7.8167    2.1315    0.0000 O   0  0  0  0  0  0  0  0  0  0  0  0
    2.5381   -0.9273    0.0000 O   0  0  0  0  0  0  0  0  0  0  0  0
    6.9343    0.5969    0.0000 C   0  0  0  0  0  0  0  0  0  0  0  0
    5.2022    0.5969    0.0000 C   0  0  0  0  0  0  0  0  0  0  0  0
    5.2022   -0.4031    0.0000 C   0  0  0  0  0  0  0  0  0  0  0  0
    6.9343   -0.4031    0.0000 C   0  0  0  0  0  0  0  0  0  0  0  0
    6.0682    1.0969    0.0000 C   0  0  0  0  0  0  0  0  0  0  0  0
    4.3083   -0.9378    0.0000 C   0  0  0  0  0  0  0  0  0  0  0  0
    7.8282    1.1316    0.0000 C   0  0  0  0  0  0  0  0  0  0  0  0
    4.3083    1.1316    0.0000 C   0  0  0  0  0  0  0  0  0  0  0  0
    7.8282   -0.9378    0.0000 C   0  0  0  0  0  0  0  0  0  0  0  0
    8.7343   -0.4239    0.0000 C   0  0  0  0  0  0  0  0  0  0  0  0
    3.4022   -0.4239    0.0000 C   0  0  0  0  0  0  0  0  0  0  0  0
    8.7343    0.6177    0.0000 C   0  0  0  0  0  0  0  0  0  0  0  0
    3.4022    0.6177    0.0000 C   0  0  0  0  0  0  0  0  0  0  0  0
    3.4597   -2.4477    0.0000 C   0  0  0  0  0  0  0  0  0  0  0  0
   10.4663   -0.4306    0.0000 C   0  0  0  0  0  0  0  0  0  0  0  0
    4.3154    1.7515    0.0000 H   0  0  0  0  0  0  0  0  0  0  0  0
    7.8210   -1.5577    0.0000 H   0  0  0  0  0  0  0  0  0  0  0  0
    9.2700    0.9298    0.0000 H   0  0  0  0  0  0  0  0  0  0  0  0
    2.8665    0.9298    0.0000 H   0  0  0  0  0  0  0  0  0  0  0  0
    8.3500    2.4477    0.0000 H   0  0  0  0  0  0  0  0  0  0  0  0
    2.0000   -0.6193    0.0000 H   0  0  0  0  0  0  0  0  0  0  0  0
    3.1435   -1.9144    0.0000 H   0  0  0  0  0  0  0  0  0  0  0  0
    2.9263   -2.7639    0.0000 H   0  0  0  0  0  0  0  0  0  0  0  0
    3.7758   -2.9810    0.0000 H   0  0  0  0  0  0  0  0  0  0  0  0
   10.7743   -0.9687    0.0000 H   0  0  0  0  0  0  0  0  0  0  0  0
   11.0045   -0.1227    0.0000 H   0  0  0  0  0  0  0  0  0  0  0  0
   10.1584    0.1075    0.0000 H   0  0  0  0  0  0  0  0  0  0  0  0
  1  9  1  0  0  0  0
  1 10  1  0  0  0  0
  2 12  1  0  0  0  0
  2 20  1  0  0  0  0
  3 16  1  0  0  0  0
  3 21  1  0  0  0  0
  4 11  2  0  0  0  0
  5 13  1  0  0  0  0
  5 26  1  0  0  0  0
  6 17  1  0  0  0  0
  6 27  1  0  0  0  0
  7 10  1  0  0  0  0
  7 11  1  0  0  0  0
  7 13  2  0  0  0  0
  8  9  2  0  0  0  0
  8 11  1  0  0  0  0
  8 14  1  0  0  0  0
  9 12  1  0  0  0  0
 10 15  2  0  0  0  0
 12 17  2  0  0  0  0
 13 18  1  0  0  0  0
 14 19  2  0  0  0  0
 14 22  1  0  0  0  0
 15 16  1  0  0  0  0
 15 23  1  0  0  0  0
 16 18  2  0  0  0  0
 17 19  1  0  0  0  0
 18 24  1  0  0  0  0
 19 25  1  0  0  0  0
 20 28  1  0  0  0  0
 20 29  1  0  0  0  0
 20 30  1  0  0  0  0
 21 31  1  0  0  0  0
 21 32  1  0  0  0  0
 21 33  1  0  0  0  0
M  END
> <PUBCHEM_COMPOUND_CID>
5281630

> <PUBCHEM_COMPOUND_CANONICALIZED>
1

> <PUBCHEM_CACTVS_COMPLEXITY>
400

> <PUBCHEM_CACTVS_HBOND_ACCEPTOR>
6

> <PUBCHEM_CACTVS_HBOND_DONOR>
2

> <PUBCHEM_CACTVS_ROTATABLE_BOND>
2

> <PUBCHEM_CACTVS_SUBSKEYS>
AAADccBwOAAAAAAAAAAAAAAAAAAAAAAAAAA0YIAAAAAAAACRQAAAGgAACAAADASAmAIyBoAABgCIAqBSAAACCAAkIAAIiAEGiMgNJzaGNRqCeWOl4BULuYeK7PzOIAABCAAIQABAAAIQABCAAAAAAAAAAA==

> <PUBCHEM_IUPAC_OPENEYE_NAME>
1,6-dihydroxy-3,5-dimethoxy-xanthen-9-one

> <PUBCHEM_IUPAC_CAS_NAME>
1,6-dihydroxy-3,5-dimethoxy-9-xanthenone

> <PUBCHEM_IUPAC_NAME>
1,6-dihydroxy-3,5-dimethoxyxanthen-9-one

> <PUBCHEM_IUPAC_SYSTEMATIC_NAME>
3,5-dimethoxy-1,6-bis(oxidanyl)xanthen-9-one

> <PUBCHEM_IUPAC_TRADITIONAL_NAME>
1,6-dihydroxy-3,5-dimethoxy-xanthone

> <PUBCHEM_IUPAC_INCHI>
InChI=1S/C15H12O6/c1-19-7-5-10(17)12-11(6-7)21-14-8(13(12)18)3-4-9(16)15(14)20-2/h3-6,16-17H,1-2H3

> <PUBCHEM_IUPAC_INCHIKEY>
VKZMZDFCRUHZNI-UHFFFAOYSA-N

> <PUBCHEM_XLOGP3_AA>
2.7

> <PUBCHEM_EXACT_MASS>
288.063388

> <PUBCHEM_MOLECULAR_FORMULA>
C15H12O6

> <PUBCHEM_MOLECULAR_WEIGHT>
288.25218

> <PUBCHEM_OPENEYE_CAN_SMILES>
COC1=CC(=C2C(=C1)OC3=C(C2=O)C=CC(=C3OC)O)O

> <PUBCHEM_OPENEYE_ISO_SMILES>
COC1=CC(=C2C(=C1)OC3=C(C2=O)C=CC(=C3OC)O)O

> <PUBCHEM_CACTVS_TPSA>
85.2

> <PUBCHEM_MONOISOTOPIC_WEIGHT>
288.063388

> <PUBCHEM_TOTAL_CHARGE>
0

> <PUBCHEM_HEAVY_ATOM_COUNT>
21

> <PUBCHEM_ATOM_DEF_STEREO_COUNT>
0

> <PUBCHEM_ATOM_UDEF_STEREO_COUNT>
0

> <PUBCHEM_BOND_DEF_STEREO_COUNT>
0

> <PUBCHEM_BOND_UDEF_STEREO_COUNT>
0

> <PUBCHEM_ISOTOPIC_ATOM_COUNT>
0

> <PUBCHEM_COMPONENT_COUNT>
1

> <PUBCHEM_CACTVS_TAUTO_COUNT>
24

> <PUBCHEM_COORDINATE_TYPE>
1
5
255

> <PUBCHEM_BONDANNOTATIONS>
1  10  8
1  9  8
10  15  8
12  17  8
13  18  8
14  19  8
15  16  8
16  18  8
17  19  8
7  10  8
7  11  8
7  13  8
8  11  8
8  14  8
8  9  8
9  12  8

$$$$

