7447
  -OEChem-06261202053D

 20 20  0     0  0  0  0  0  0999 V2000
   -2.8885   -0.4372    0.3589 O   0  0  0  0  0  0  0  0  0  0  0  0
    3.3389   -1.0381   -0.1007 O   0  5  0  0  0  0  0  0  0  0  0  0
    3.1635    1.1477   -0.2048 O   0  0  0  0  0  0  0  0  0  0  0  0
   -1.7283    2.1158    0.1299 N   0  0  0  0  0  0  0  0  0  0  0  0
    2.6472    0.0086   -0.1030 N   0  3  0  0  0  0  0  0  0  0  0  0
   -0.9402    0.9441    0.1299 C   0  0  0  0  0  0  0  0  0  0  0  0
   -1.5362   -0.3120    0.2439 C   0  0  0  0  0  0  0  0  0  0  0  0
    1.2359   -0.0992    0.0131 C   0  0  0  0  0  0  0  0  0  0  0  0
    0.4458    1.0504    0.0145 C   0  0  0  0  0  0  0  0  0  0  0  0
   -0.7459   -1.4616    0.2424 C   0  0  0  0  0  0  0  0  0  0  0  0
    0.6400   -1.3552    0.1270 C   0  0  0  0  0  0  0  0  0  0  0  0
   -3.6322   -0.5634   -0.8512 C   0  0  0  0  0  0  0  0  0  0  0  0
    0.8888    2.0403   -0.0730 H   0  0  0  0  0  0  0  0  0  0  0  0
   -1.2034   -2.4432    0.3319 H   0  0  0  0  0  0  0  0  0  0  0  0
    1.2237   -2.2722    0.1300 H   0  0  0  0  0  0  0  0  0  0  0  0
   -1.2887    3.0231    0.0502 H   0  0  0  0  0  0  0  0  0  0  0  0
   -2.7324    2.0478    0.2295 H   0  0  0  0  0  0  0  0  0  0  0  0
   -3.3532   -1.4825   -1.3763 H   0  0  0  0  0  0  0  0  0  0  0  0
   -3.4709    0.3027   -1.5006 H   0  0  0  0  0  0  0  0  0  0  0  0
   -4.6942   -0.6157   -0.5964 H   0  0  0  0  0  0  0  0  0  0  0  0
  1  7  1  0  0  0  0
  1 12  1  0  0  0  0
  2  5  1  0  0  0  0
  3  5  2  0  0  0  0
  4  6  1  0  0  0  0
  4 16  1  0  0  0  0
  4 17  1  0  0  0  0
  5  8  1  0  0  0  0
  6  7  2  0  0  0  0
  6  9  1  0  0  0  0
  7 10  1  0  0  0  0
  8  9  2  0  0  0  0
  8 11  1  0  0  0  0
  9 13  1  0  0  0  0
 10 11  2  0  0  0  0
 10 14  1  0  0  0  0
 11 15  1  0  0  0  0
 12 18  1  0  0  0  0
 12 19  1  0  0  0  0
 12 20  1  0  0  0  0
M  CHG  2   2  -1   5   1
M  END
> <PUBCHEM_COMPOUND_CID>
7447

> <PUBCHEM_CONFORMER_RMSD>
0.6

> <PUBCHEM_CONFORMER_DIVERSEORDER>
2
1

> <PUBCHEM_MMFF94_PARTIAL_CHARGES>
17
1 -0.36
10 -0.15
11 -0.15
12 0.28
13 0.15
14 0.15
15 0.15
16 0.4
17 0.4
2 -0.52
3 -0.52
4 -0.9
5 0.91
6 0.1
7 0.08
8 0.13
9 -0.15

> <PUBCHEM_EFFECTIVE_ROTOR_COUNT>
2

> <PUBCHEM_PHARMACOPHORE_FEATURES>
7
1 1 acceptor
1 2 acceptor
1 2 anion
1 3 acceptor
1 4 cation
1 4 donor
6 6 7 8 9 10 11 rings

> <PUBCHEM_HEAVY_ATOM_COUNT>
12

> <PUBCHEM_ATOM_DEF_STEREO_COUNT>
0

> <PUBCHEM_ATOM_UDEF_STEREO_COUNT>
0

> <PUBCHEM_BOND_DEF_STEREO_COUNT>
0

> <PUBCHEM_BOND_UDEF_STEREO_COUNT>
0

> <PUBCHEM_ISOTOPIC_ATOM_COUNT>
0

> <PUBCHEM_COMPONENT_COUNT>
1

> <PUBCHEM_CACTVS_TAUTO_COUNT>
1

> <PUBCHEM_CONFORMER_ID>
00001D1700000002

> <PUBCHEM_MMFF94_ENERGY>
55.0436

> <PUBCHEM_FEATURE_SELFOVERLAP>
35.602

> <PUBCHEM_SHAPE_FINGERPRINT>
11206711 2 18412544348886010733
12032990 46 18340198597034342483
12897270 3 18411702092835092183
12932764 1 17458069265596344058
14325111 11 18410853295744394880
14993402 34 18041563538027379343
16945 1 18411975841012689114
193761 8 17834957846983736435
21293036 1 18341619166030776031
21501502 16 18195529417963719515
23402539 116 18335713740295800006
23402655 69 18267040499964267349
23552423 10 18198057182342911522
2748010 2 18194959866640211551
369184 2 18334855017619863058
5084963 1 18259703419246578274
528886 8 18337958891748128179

> <PUBCHEM_SHAPE_MULTIPOLES>
219.38
5.05
1.67
0.67
0.61
0.43
-0.04
-0.45
-1
-0.15
0.09
-0.28
-0.05
-0.16

> <PUBCHEM_SHAPE_SELFOVERLAP>
457.569

> <PUBCHEM_SHAPE_VOLUME>
125.7

> <PUBCHEM_COORDINATE_TYPE>
2
5
10

$$$$

