245872
  -OEChem-07051213063D

 57 61  0     1  0  0  0  0  0999 V2000
    6.9150   -0.6588   -0.2159 O   0  0  0  0  0  0  0  0  0  0  0  0
   -4.8101   -1.2495   -0.9614 N   0  0  0  0  0  0  0  0  0  0  0  0
   -6.3089   -0.9191    0.6437 N   0  0  0  0  0  0  0  0  0  0  0  0
   -1.8028    0.0737    0.0621 C   0  0  1  0  0  0  0  0  0  0  0  0
   -0.8536    1.2128   -0.3714 C   0  0  2  0  0  0  0  0  0  0  0  0
    0.5691    1.0637    0.1776 C   0  0  1  0  0  0  0  0  0  0  0  0
    1.1653   -0.2966   -0.2872 C   0  0  1  0  0  0  0  0  0  0  0  0
    2.6222   -0.5166    0.2875 C   0  0  2  0  0  0  0  0  0  0  0  0
   -3.1076    0.5808   -0.6094 C   0  0  2  0  0  0  0  0  0  0  0  0
   -1.2405   -1.2336   -0.5172 C   0  0  0  0  0  0  0  0  0  0  0  0
    0.2009   -1.4897   -0.0443 C   0  0  0  0  0  0  0  0  0  0  0  0
   -1.6365    2.4821   -0.0473 C   0  0  0  0  0  0  0  0  0  0  0  0
   -3.1030    2.1059   -0.3381 C   0  0  0  0  0  0  0  0  0  0  0  0
    1.4600    2.2211   -0.2984 C   0  0  0  0  0  0  0  0  0  0  0  0
    3.4605    0.7628    0.1531 C   0  0  0  0  0  0  0  0  0  0  0  0
   -1.9519   -0.0515    1.5991 C   0  0  0  0  0  0  0  0  0  0  0  0
    3.3000   -1.6598   -0.5262 C   0  0  0  0  0  0  0  0  0  0  0  0
    2.9220    1.9637   -0.1215 C   0  0  0  0  0  0  0  0  0  0  0  0
    2.5836   -0.9075    1.7845 C   0  0  0  0  0  0  0  0  0  0  0  0
   -4.3808   -0.1650   -0.2583 C   0  0  0  0  0  0  0  0  0  0  0  0
    4.9549    0.6313    0.3365 C   0  0  0  0  0  0  0  0  0  0  0  0
    4.7996   -1.8096   -0.2733 C   0  0  0  0  0  0  0  0  0  0  0  0
    5.5328   -0.4944   -0.5168 C   0  0  2  0  0  0  0  0  0  0  0  0
   -5.3151    0.0240    0.7248 C   0  0  0  0  0  0  0  0  0  0  0  0
   -5.9749   -1.6701   -0.3822 C   0  0  0  0  0  0  0  0  0  0  0  0
   -0.7657    1.1846   -1.4709 H   0  0  0  0  0  0  0  0  0  0  0  0
    0.5407    1.0971    1.2726 H   0  0  0  0  0  0  0  0  0  0  0  0
    1.2626   -0.2218   -1.3827 H   0  0  0  0  0  0  0  0  0  0  0  0
   -2.9902    0.4695   -1.6999 H   0  0  0  0  0  0  0  0  0  0  0  0
   -1.2471   -1.1953   -1.6141 H   0  0  0  0  0  0  0  0  0  0  0  0
   -1.8723   -2.0841   -0.2341 H   0  0  0  0  0  0  0  0  0  0  0  0
    0.1715   -1.7510    1.0174 H   0  0  0  0  0  0  0  0  0  0  0  0
    0.5739   -2.3778   -0.5668 H   0  0  0  0  0  0  0  0  0  0  0  0
   -1.3159    3.3298   -0.6613 H   0  0  0  0  0  0  0  0  0  0  0  0
   -1.5171    2.7700    1.0031 H   0  0  0  0  0  0  0  0  0  0  0  0
   -3.7306    2.3878    0.5139 H   0  0  0  0  0  0  0  0  0  0  0  0
   -3.4824    2.6491   -1.2111 H   0  0  0  0  0  0  0  0  0  0  0  0
    1.1934    3.1290    0.2561 H   0  0  0  0  0  0  0  0  0  0  0  0
    1.2824    2.4348   -1.3597 H   0  0  0  0  0  0  0  0  0  0  0  0
   -0.9980   -0.2059    2.1098 H   0  0  0  0  0  0  0  0  0  0  0  0
   -2.4101    0.8363    2.0463 H   0  0  0  0  0  0  0  0  0  0  0  0
   -2.5875   -0.9067    1.8558 H   0  0  0  0  0  0  0  0  0  0  0  0
    3.1568   -1.4801   -1.6005 H   0  0  0  0  0  0  0  0  0  0  0  0
    2.8190   -2.6207   -0.3079 H   0  0  0  0  0  0  0  0  0  0  0  0
    3.5700    2.8307   -0.2255 H   0  0  0  0  0  0  0  0  0  0  0  0
    3.5843   -0.9657    2.2257 H   0  0  0  0  0  0  0  0  0  0  0  0
    2.0188   -0.1827    2.3796 H   0  0  0  0  0  0  0  0  0  0  0  0
    2.1293   -1.8923    1.9341 H   0  0  0  0  0  0  0  0  0  0  0  0
    5.4775    1.5646    0.0897 H   0  0  0  0  0  0  0  0  0  0  0  0
    5.1832    0.4523    1.3947 H   0  0  0  0  0  0  0  0  0  0  0  0
    4.9875   -2.1639    0.7476 H   0  0  0  0  0  0  0  0  0  0  0  0
    5.2086   -2.5869   -0.9304 H   0  0  0  0  0  0  0  0  0  0  0  0
    5.4589   -0.2214   -1.5769 H   0  0  0  0  0  0  0  0  0  0  0  0
   -4.3547   -1.6700   -1.7607 H   0  0  0  0  0  0  0  0  0  0  0  0
   -5.3315    0.7838    1.4927 H   0  0  0  0  0  0  0  0  0  0  0  0
    7.2553   -1.3732   -0.7811 H   0  0  0  0  0  0  0  0  0  0  0  0
   -6.5249   -2.5235   -0.7526 H   0  0  0  0  0  0  0  0  0  0  0  0
  1 23  1  0  0  0  0
  1 56  1  0  0  0  0
  2 20  1  0  0  0  0
  2 25  1  0  0  0  0
  2 54  1  0  0  0  0
  3 24  1  0  0  0  0
  3 25  2  0  0  0  0
  4  5  1  0  0  0  0
  4  9  1  0  0  0  0
  4 10  1  0  0  0  0
  4 16  1  0  0  0  0
  5  6  1  0  0  0  0
  5 12  1  0  0  0  0
  5 26  1  0  0  0  0
  6  7  1  0  0  0  0
  6 14  1  0  0  0  0
  6 27  1  0  0  0  0
  7  8  1  0  0  0  0
  7 11  1  0  0  0  0
  7 28  1  0  0  0  0
  8 15  1  0  0  0  0
  8 17  1  0  0  0  0
  8 19  1  0  0  0  0
  9 13  1  0  0  0  0
  9 20  1  0  0  0  0
  9 29  1  0  0  0  0
 10 11  1  0  0  0  0
 10 30  1  0  0  0  0
 10 31  1  0  0  0  0
 11 32  1  0  0  0  0
 11 33  1  0  0  0  0
 12 13  1  0  0  0  0
 12 34  1  0  0  0  0
 12 35  1  0  0  0  0
 13 36  1  0  0  0  0
 13 37  1  0  0  0  0
 14 18  1  0  0  0  0
 14 38  1  0  0  0  0
 14 39  1  0  0  0  0
 15 18  2  0  0  0  0
 15 21  1  0  0  0  0
 16 40  1  0  0  0  0
 16 41  1  0  0  0  0
 16 42  1  0  0  0  0
 17 22  1  0  0  0  0
 17 43  1  0  0  0  0
 17 44  1  0  0  0  0
 18 45  1  0  0  0  0
 19 46  1  0  0  0  0
 19 47  1  0  0  0  0
 19 48  1  0  0  0  0
 20 24  2  0  0  0  0
 21 23  1  0  0  0  0
 21 49  1  0  0  0  0
 21 50  1  0  0  0  0
 22 23  1  0  0  0  0
 22 51  1  0  0  0  0
 22 52  1  0  0  0  0
 23 53  1  0  0  0  0
 24 55  1  0  0  0  0
 25 57  1  0  0  0  0
M  END
> <PUBCHEM_COMPOUND_CID>
245872

> <PUBCHEM_CONFORMER_RMSD>
0.6

> <PUBCHEM_CONFORMER_DIVERSEORDER>
1
3
2
4

> <PUBCHEM_MMFF94_PARTIAL_CHARGES>
18
1 -0.68
14 0.14
15 -0.28
18 -0.29
2 0.03
20 -0.33
21 0.14
23 0.28
24 0.08
25 0.04
3 -0.57
45 0.15
54 0.27
55 0.15
56 0.4
57 0.15
8 0.14
9 0.18

> <PUBCHEM_EFFECTIVE_ROTOR_COUNT>
3

> <PUBCHEM_PHARMACOPHORE_FEATURES>
9
1 1 acceptor
1 1 donor
1 2 donor
3 2 3 25 cation
5 2 3 20 24 25 rings
5 4 5 9 12 13 rings
6 4 5 6 7 10 11 rings
6 6 7 8 14 15 18 rings
6 8 15 17 21 22 23 rings

> <PUBCHEM_HEAVY_ATOM_COUNT>
25

> <PUBCHEM_ATOM_DEF_STEREO_COUNT>
7

> <PUBCHEM_ATOM_UDEF_STEREO_COUNT>
0

> <PUBCHEM_BOND_DEF_STEREO_COUNT>
0

> <PUBCHEM_BOND_UDEF_STEREO_COUNT>
0

> <PUBCHEM_ISOTOPIC_ATOM_COUNT>
0

> <PUBCHEM_COMPONENT_COUNT>
1

> <PUBCHEM_CACTVS_TAUTO_COUNT>
2

> <PUBCHEM_CONFORMER_ID>
0003C07000000001

> <PUBCHEM_MMFF94_ENERGY>
68.5942

> <PUBCHEM_FEATURE_SELFOVERLAP>
45.764

> <PUBCHEM_SHAPE_FINGERPRINT>
10 15 18340213995246382232
10366900 7 17418091031384831184
11089746 13 12031785851058335454
11524674 6 16153709812767529159
11578080 2 16735251288180938354
11963148 33 18411426089510852974
12011746 2 17988924465849546274
12107698 1 18413389843299876888
12166972 35 18187081737342486768
12236239 1 17894909607657067033
12403259 226 18410299137373361349
12403259 415 17968388917316367176
12516196 113 18334576845752766304
12633257 1 14345807045071028708
12788726 201 18342745147631681521
13288520 33 18409448090304473485
13464513 79 18411702084630182048
13533116 47 18187082811068473184
13685833 64 18407758145000760582
13862211 1 18411703179314241990
14251764 18 18335140878438612866
14341114 176 18408319990672787765
14787075 74 18342459205851955345
15142383 8 14707202253524041338
15196674 1 18410576227256612348
15927050 60 17613719210905454212
17349148 13 18186801374624797919
17492 89 18338239395888572231
17844677 252 18335697260664839297
18681886 176 18409173190674974592
200 152 18333450941424303841
20028762 73 18260552199437995015
20645477 70 18342459214442136748
21033648 29 17677351509422040656
21150785 3 16917062240050626438
21236236 1 18409728508540199449
21267235 1 18410288116887375006
21682296 61 18262510506665954446
221357 26 18411700993465993164
22393880 68 18201165463017613845
23402539 116 18342461448078208381
23522609 53 18121466198737715717
23559900 14 17489301932739338609
25147074 1 18339342128921330741
2838139 119 10519985950601382055
2871803 45 18131635577645401448
3004659 81 18201443558029116157
335352 9 18410011018134322647
34797466 226 15697706069329079678
350125 39 18335137604808805273
3545911 37 18334576837226115638
4093350 32 16008743560385951872
4325135 7 18259985968476984767
46194498 28 17703509909355183116
463206 1 18264210218741012119
465052 167 18335697217609496207
5104073 3 18262806284078647808
7495541 125 17385729062520565514
9709674 26 18342454828942832937
9996256 80 18335419084159520094

> <PUBCHEM_SHAPE_MULTIPOLES>
498.66
13.95
2.23
1
1.96
0.86
-0.36
-6.21
0.64
0.1
0.32
0.16
-0.2
0.02

> <PUBCHEM_SHAPE_SELFOVERLAP>
1080.58

> <PUBCHEM_SHAPE_VOLUME>
272.9

> <PUBCHEM_COORDINATE_TYPE>
2
5
10

$$$$

