5282145
  -OEChem-07051213032D

 23 23  0     1  0  0  0  0  0999 V2000
    2.5369   -0.5000    0.0000 O   0  0  0  0  0  0  0  0  0  0  0  0
    2.5369   -2.5000    0.0000 O   0  0  0  0  0  0  0  0  0  0  0  0
    6.0010    2.5000    0.0000 O   0  0  0  0  0  0  0  0  0  0  0  0
    4.2690    2.5000    0.0000 O   0  0  0  0  0  0  0  0  0  0  0  0
    3.4030   -1.0000    0.0000 C   0  0  1  0  0  0  0  0  0  0  0  0
    3.4030   -2.0000    0.0000 C   0  0  2  0  0  0  0  0  0  0  0  0
    4.2690   -0.5000    0.0000 C   0  0  0  0  0  0  0  0  0  0  0  0
    4.2690   -2.5000    0.0000 C   0  0  0  0  0  0  0  0  0  0  0  0
    5.1350   -1.0000    0.0000 C   0  0  0  0  0  0  0  0  0  0  0  0
    5.1350   -2.0000    0.0000 C   0  0  0  0  0  0  0  0  0  0  0  0
    4.2690    0.5000    0.0000 C   0  0  0  0  0  0  0  0  0  0  0  0
    5.1350    1.0000    0.0000 C   0  0  0  0  0  0  0  0  0  0  0  0
    5.1350    2.0000    0.0000 C   0  0  0  0  0  0  0  0  0  0  0  0
    3.4030   -0.3800    0.0000 H   0  0  0  0  0  0  0  0  0  0  0  0
    3.4030   -2.6200    0.0000 H   0  0  0  0  0  0  0  0  0  0  0  0
    4.2690   -3.1200    0.0000 H   0  0  0  0  0  0  0  0  0  0  0  0
    5.6720   -0.6900    0.0000 H   0  0  0  0  0  0  0  0  0  0  0  0
    5.6720   -2.3100    0.0000 H   0  0  0  0  0  0  0  0  0  0  0  0
    3.7320    0.8100    0.0000 H   0  0  0  0  0  0  0  0  0  0  0  0
    2.0000   -0.8100    0.0000 H   0  0  0  0  0  0  0  0  0  0  0  0
    2.5369   -3.1200    0.0000 H   0  0  0  0  0  0  0  0  0  0  0  0
    5.6720    0.6900    0.0000 H   0  0  0  0  0  0  0  0  0  0  0  0
    6.0010    3.1200    0.0000 H   0  0  0  0  0  0  0  0  0  0  0  0
  5  1  1  6  0  0  0
  1 20  1  0  0  0  0
  6  2  1  6  0  0  0
  2 21  1  0  0  0  0
  3 13  1  0  0  0  0
  3 23  1  0  0  0  0
  4 13  2  0  0  0  0
  5  6  1  0  0  0  0
  5  7  1  0  0  0  0
  5 14  1  0  0  0  0
  6  8  1  0  0  0  0
  6 15  1  0  0  0  0
  7  9  2  0  0  0  0
  7 11  1  0  0  0  0
  8 10  2  0  0  0  0
  8 16  1  0  0  0  0
  9 10  1  0  0  0  0
  9 17  1  0  0  0  0
 10 18  1  0  0  0  0
 11 12  2  0  0  0  0
 11 19  1  0  0  0  0
 12 13  1  0  0  0  0
 12 22  1  0  0  0  0
M  END
> <PUBCHEM_COMPOUND_CID>
5282145

> <PUBCHEM_COMPOUND_CANONICALIZED>
1

> <PUBCHEM_CACTVS_COMPLEXITY>
288

> <PUBCHEM_CACTVS_HBOND_ACCEPTOR>
4

> <PUBCHEM_CACTVS_HBOND_DONOR>
3

> <PUBCHEM_CACTVS_ROTATABLE_BOND>
2

> <PUBCHEM_CACTVS_SUBSKEYS>
AAADccBwOAAAAAAAAAAAAAAAAAAAAAAAAAAgAAAAAAAAAAAAAAAAGgAACAAADBSggAIACAAAAgCIAiDSCAAAAAAgAAAICAAAAEgJFAIAAQAAUAAEwAAJkYIAAAAAAAAAAAAAAAAAAAAAAAAAAAAAAAAAAA==

> <PUBCHEM_IUPAC_OPENEYE_NAME>
(E)-3-[(5S,6R)-5,6-dihydroxycyclohexa-1,3-dien-1-yl]prop-2-enoic acid

> <PUBCHEM_IUPAC_CAS_NAME>
(E)-3-[(5S,6R)-5,6-dihydroxy-1-cyclohexa-1,3-dienyl]-2-propenoic acid

> <PUBCHEM_IUPAC_NAME>
(E)-3-[(5S,6R)-5,6-dihydroxycyclohexa-1,3-dien-1-yl]prop-2-enoic acid

> <PUBCHEM_IUPAC_SYSTEMATIC_NAME>
(E)-3-[(5S,6R)-5,6-bis(oxidanyl)cyclohexa-1,3-dien-1-yl]prop-2-enoic acid

> <PUBCHEM_IUPAC_TRADITIONAL_NAME>
(E)-3-[(5S,6R)-5,6-dihydroxycyclohexa-1,3-dien-1-yl]acrylic acid

> <PUBCHEM_IUPAC_INCHI>
InChI=1S/C9H10O4/c10-7-3-1-2-6(9(7)13)4-5-8(11)12/h1-5,7,9-10,13H,(H,11,12)/b5-4+/t7-,9+/m0/s1

> <PUBCHEM_IUPAC_INCHIKEY>
AEUBLTTWYCDTGM-HXOXMVQHSA-N

> <PUBCHEM_XLOGP3_AA>
-0.6

> <PUBCHEM_EXACT_MASS>
182.057909

> <PUBCHEM_MOLECULAR_FORMULA>
C9H10O4

> <PUBCHEM_MOLECULAR_WEIGHT>
182.1733

> <PUBCHEM_OPENEYE_CAN_SMILES>
C1=CC(C(C(=C1)C=CC(=O)O)O)O

> <PUBCHEM_OPENEYE_ISO_SMILES>
C1=C[C@@H]([C@@H](C(=C1)/C=C/C(=O)O)O)O

> <PUBCHEM_CACTVS_TPSA>
77.8

> <PUBCHEM_MONOISOTOPIC_WEIGHT>
182.057909

> <PUBCHEM_TOTAL_CHARGE>
0

> <PUBCHEM_HEAVY_ATOM_COUNT>
13

> <PUBCHEM_ATOM_DEF_STEREO_COUNT>
2

> <PUBCHEM_ATOM_UDEF_STEREO_COUNT>
0

> <PUBCHEM_BOND_DEF_STEREO_COUNT>
1

> <PUBCHEM_BOND_UDEF_STEREO_COUNT>
0

> <PUBCHEM_ISOTOPIC_ATOM_COUNT>
0

> <PUBCHEM_COMPONENT_COUNT>
1

> <PUBCHEM_CACTVS_TAUTO_COUNT>
1

> <PUBCHEM_COORDINATE_TYPE>
1
5
255

> <PUBCHEM_BONDANNOTATIONS>
5  1  6
6  2  6

$$$$

