75357
  -OEChem-07051213013D

 18 19  0     0  0  0  0  0  0999 V2000
   -1.3474    3.1475   -0.0008 Cl  0  0  0  0  0  0  0  0  0  0  0  0
   -1.1994   -3.1191   -0.0009 Cl  0  0  0  0  0  0  0  0  0  0  0  0
   -4.1126    1.5426    0.0006 Cl  0  0  0  0  0  0  0  0  0  0  0  0
   -4.0678   -1.6139    0.0022 Cl  0  0  0  0  0  0  0  0  0  0  0  0
    3.9407   -1.2057    0.0014 F   0  0  0  0  0  0  0  0  0  0  0  0
    3.8511    0.6750   -1.0856 F   0  0  0  0  0  0  0  0  0  0  0  0
    3.8234    0.6774    1.0945 F   0  0  0  0  0  0  0  0  0  0  0  0
    1.1018    1.0819   -0.0022 N   0  0  0  0  0  0  0  0  0  0  0  0
    1.1335   -1.1405   -0.0008 N   0  0  0  0  0  0  0  0  0  0  0  0
   -0.2144    0.6971   -0.0017 C   0  0  0  0  0  0  0  0  0  0  0  0
   -0.1681   -0.6943   -0.0009 C   0  0  0  0  0  0  0  0  0  0  0  0
    1.8678   -0.0504   -0.0015 C   0  0  0  0  0  0  0  0  0  0  0  0
   -1.4052    1.4244   -0.0019 C   0  0  0  0  0  0  0  0  0  0  0  0
   -1.3716   -1.4196   -0.0004 C   0  0  0  0  0  0  0  0  0  0  0  0
   -2.5934    0.6865   -0.0011 C   0  0  0  0  0  0  0  0  0  0  0  0
   -2.5791   -0.7102   -0.0005 C   0  0  0  0  0  0  0  0  0  0  0  0
    3.3406    0.0213   -0.0004 C   0  0  0  0  0  0  0  0  0  0  0  0
    1.4422    2.0344   -0.0029 H   0  0  0  0  0  0  0  0  0  0  0  0
  1 13  1  0  0  0  0
  2 14  1  0  0  0  0
  3 15  1  0  0  0  0
  4 16  1  0  0  0  0
  5 17  1  0  0  0  0
  6 17  1  0  0  0  0
  7 17  1  0  0  0  0
  8 10  1  0  0  0  0
  8 12  1  0  0  0  0
  8 18  1  0  0  0  0
  9 11  1  0  0  0  0
  9 12  2  0  0  0  0
 10 11  2  0  0  0  0
 10 13  1  0  0  0  0
 11 14  1  0  0  0  0
 12 17  1  0  0  0  0
 13 15  2  0  0  0  0
 14 16  2  0  0  0  0
 15 16  1  0  0  0  0
M  END
> <PUBCHEM_COMPOUND_CID>
75357

> <PUBCHEM_CONFORMER_RMSD>
0.6

> <PUBCHEM_CONFORMER_DIVERSEORDER>
1

> <PUBCHEM_MMFF94_PARTIAL_CHARGES>
18
1 -0.18
10 -0.15
11 0.23
12 0.01
13 0.18
14 0.18
15 0.18
16 0.18
17 1.2
18 0.27
2 -0.18
3 -0.18
4 -0.18
5 -0.34
6 -0.34
7 -0.34
8 0.03
9 -0.57

> <PUBCHEM_EFFECTIVE_ROTOR_COUNT>
1

> <PUBCHEM_PHARMACOPHORE_FEATURES>
4
1 8 donor
3 8 9 12 cation
5 8 9 10 11 12 rings
6 10 11 13 14 15 16 rings

> <PUBCHEM_HEAVY_ATOM_COUNT>
17

> <PUBCHEM_ATOM_DEF_STEREO_COUNT>
0

> <PUBCHEM_ATOM_UDEF_STEREO_COUNT>
0

> <PUBCHEM_BOND_DEF_STEREO_COUNT>
0

> <PUBCHEM_BOND_UDEF_STEREO_COUNT>
0

> <PUBCHEM_ISOTOPIC_ATOM_COUNT>
0

> <PUBCHEM_COMPONENT_COUNT>
1

> <PUBCHEM_CACTVS_TAUTO_COUNT>
1

> <PUBCHEM_CONFORMER_ID>
0001265D00000001

> <PUBCHEM_MMFF94_ENERGY>
24.3094

> <PUBCHEM_FEATURE_SELFOVERLAP>
20.404

> <PUBCHEM_SHAPE_FINGERPRINT>
10319926 262 18263105283360313216
10608611 8 18334581256557702176
10967382 1 18266741272895775907
11132069 177 18409169926067319369
12032990 46 18338795615865221259
12173636 292 18338241577736947853
12403814 3 17489873734804889253
12553582 1 18194397792886927591
13140716 1 18194684752504726850
13380535 76 18336265751131210919
13862211 1 18338240345672547487
14614273 12 18128257998505977797
14790565 3 18265321997128370369
15042514 8 18412542102745072579
15196674 1 18410855464428436326
15309172 13 18337945796477017953
15669948 3 18340206293589272158
16752209 62 18340217323128604779
16945 1 18410575063204086182
17804303 29 18407757041025340944
18186145 218 17967527999885813760
193761 8 17690280409339888647
20510252 161 18334296478481998921
20871998 184 18260265235539786031
20871999 31 18411982425608874383
21029758 11 18263370205164013205
21029758 27 18200304404311913133
21267235 1 18340196410568973555
21524375 3 18190181384963800061
221490 88 17621037560954305571
2334 1 17834395622673890857
23402539 116 18261683592871057983
23463225 33 18342740771033723466
23557571 272 18188761756813079044
23559900 14 18334015017065169586
2748010 2 18266732670266309719
3071541 12 17472979983446547501
335352 9 18338517576524503839
350125 39 18051407667151279619
43471831 8 18342180015687726115
474 4 16843311295412187948
5104073 3 18410294717988476122
54173680 148 18267864973959302283
69090 78 18335145327238903967
7364860 26 17832421999513477733
81228 2 18337377284235025641
9709674 26 18335134298016634830

> <PUBCHEM_SHAPE_MULTIPOLES>
325.55
6.98
2.89
0.69
4.26
0.04
0
-0.12
0
-2.45
0
0.29
-0.07
0

> <PUBCHEM_SHAPE_SELFOVERLAP>
678.221

> <PUBCHEM_SHAPE_VOLUME>
191.2

> <PUBCHEM_COORDINATE_TYPE>
2
5
10

$$$$

