51090848
  -OEChem-06241223002D

 42 44  0     0  0  0  0  0  0999 V2000
    8.2619   -2.5490    0.0000 O   0  0  0  0  0  0  0  0  0  0  0  0
    6.7619    1.7811    0.0000 O   0  0  0  0  0  0  0  0  0  0  0  0
    2.0000    3.4151    0.0000 O   0  5  0  0  0  0  0  0  0  0  0  0
    3.7320    3.4151    0.0000 O   0  0  0  0  0  0  0  0  0  0  0  0
    6.7619    0.0490    0.0000 N   0  0  0  0  0  0  0  0  0  0  0  0
    4.6783    1.7198    0.0000 N   0  0  0  0  0  0  0  0  0  0  0  0
    2.8660    2.9151    0.0000 N   0  3  0  0  0  0  0  0  0  0  0  0
    7.7619   -1.6830    0.0000 C   0  0  0  0  0  0  0  0  0  0  0  0
    6.7619   -1.6830    0.0000 C   0  0  0  0  0  0  0  0  0  0  0  0
    8.2619   -0.8170    0.0000 C   0  0  0  0  0  0  0  0  0  0  0  0
    6.2619   -0.8170    0.0000 C   0  0  0  0  0  0  0  0  0  0  0  0
    7.7619    0.0490    0.0000 C   0  0  0  0  0  0  0  0  0  0  0  0
    6.2619    0.9151    0.0000 C   0  0  0  0  0  0  0  0  0  0  0  0
    5.2619    0.9151    0.0000 C   0  0  0  0  0  0  0  0  0  0  0  0
    9.2619   -2.5490    0.0000 C   0  0  0  0  0  0  0  0  0  0  0  0
    4.6783    0.1103    0.0000 C   0  0  0  0  0  0  0  0  0  0  0  0
    3.7320    1.4151    0.0000 C   0  0  0  0  0  0  0  0  0  0  0  0
    3.7320    0.4151    0.0000 C   0  0  0  0  0  0  0  0  0  0  0  0
    2.8660    1.9151    0.0000 C   0  0  0  0  0  0  0  0  0  0  0  0
    9.7619   -3.4151    0.0000 C   0  0  0  0  0  0  0  0  0  0  0  0
    2.8660   -0.0849    0.0000 C   0  0  0  0  0  0  0  0  0  0  0  0
    2.0000    1.4151    0.0000 C   0  0  0  0  0  0  0  0  0  0  0  0
    2.0000    0.4151    0.0000 C   0  0  0  0  0  0  0  0  0  0  0  0
    7.4519   -2.2200    0.0000 H   0  0  0  0  0  0  0  0  0  0  0  0
    8.7368   -1.2155    0.0000 H   0  0  0  0  0  0  0  0  0  0  0  0
    8.7368   -0.4185    0.0000 H   0  0  0  0  0  0  0  0  0  0  0  0
    6.1793   -1.8951    0.0000 H   0  0  0  0  0  0  0  0  0  0  0  0
    6.8695   -2.2936    0.0000 H   0  0  0  0  0  0  0  0  0  0  0  0
    8.3445    0.2611    0.0000 H   0  0  0  0  0  0  0  0  0  0  0  0
    7.6542    0.6596    0.0000 H   0  0  0  0  0  0  0  0  0  0  0  0
    5.7869   -0.4185    0.0000 H   0  0  0  0  0  0  0  0  0  0  0  0
    5.7869   -1.2155    0.0000 H   0  0  0  0  0  0  0  0  0  0  0  0
    9.8445   -2.3370    0.0000 H   0  0  0  0  0  0  0  0  0  0  0  0
    9.1542   -1.9385    0.0000 H   0  0  0  0  0  0  0  0  0  0  0  0
    4.8709    2.3091    0.0000 H   0  0  0  0  0  0  0  0  0  0  0  0
    4.8709   -0.4790    0.0000 H   0  0  0  0  0  0  0  0  0  0  0  0
    9.2249   -3.7251    0.0000 H   0  0  0  0  0  0  0  0  0  0  0  0
   10.0719   -3.9520    0.0000 H   0  0  0  0  0  0  0  0  0  0  0  0
   10.2988   -3.1051    0.0000 H   0  0  0  0  0  0  0  0  0  0  0  0
    2.8660   -0.7049    0.0000 H   0  0  0  0  0  0  0  0  0  0  0  0
    1.4631    1.7251    0.0000 H   0  0  0  0  0  0  0  0  0  0  0  0
    1.4631    0.1051    0.0000 H   0  0  0  0  0  0  0  0  0  0  0  0
  1  8  1  0  0  0  0
  1 15  1  0  0  0  0
  2 13  2  0  0  0  0
  3  7  1  0  0  0  0
  4  7  2  0  0  0  0
  5 11  1  0  0  0  0
  5 12  1  0  0  0  0
  5 13  1  0  0  0  0
  6 14  1  0  0  0  0
  6 17  1  0  0  0  0
  6 35  1  0  0  0  0
  7 19  1  0  0  0  0
  8  9  1  0  0  0  0
  8 10  1  0  0  0  0
  8 24  1  0  0  0  0
  9 11  1  0  0  0  0
  9 27  1  0  0  0  0
  9 28  1  0  0  0  0
 10 12  1  0  0  0  0
 10 25  1  0  0  0  0
 10 26  1  0  0  0  0
 11 31  1  0  0  0  0
 11 32  1  0  0  0  0
 12 29  1  0  0  0  0
 12 30  1  0  0  0  0
 13 14  1  0  0  0  0
 14 16  2  0  0  0  0
 15 20  1  0  0  0  0
 15 33  1  0  0  0  0
 15 34  1  0  0  0  0
 16 18  1  0  0  0  0
 16 36  1  0  0  0  0
 17 18  2  0  0  0  0
 17 19  1  0  0  0  0
 18 21  1  0  0  0  0
 19 22  2  0  0  0  0
 20 37  1  0  0  0  0
 20 38  1  0  0  0  0
 20 39  1  0  0  0  0
 21 23  2  0  0  0  0
 21 40  1  0  0  0  0
 22 23  1  0  0  0  0
 22 41  1  0  0  0  0
 23 42  1  0  0  0  0
M  CHG  2   3  -1   7   1
M  END
> <PUBCHEM_COMPOUND_CID>
51090848

> <PUBCHEM_COMPOUND_CANONICALIZED>
1

> <PUBCHEM_CACTVS_COMPLEXITY>
445

> <PUBCHEM_CACTVS_HBOND_ACCEPTOR>
4

> <PUBCHEM_CACTVS_HBOND_DONOR>
1

> <PUBCHEM_CACTVS_ROTATABLE_BOND>
3

> <PUBCHEM_CACTVS_SUBSKEYS>
AAADceB7OAAAAAAAAAAAAAAAAAAAAWAAAAA8QAAAAAAAAFgB8AAAHgAUAAAADBzhngYywPPZ1ACpAyVyVwCCgCAnEiAomSG4dNoIYPLAlbGWIQhiloDIyYcYiYCeAAAAQAACACAAAACAAAQAQAAAAAAAAA==

> <PUBCHEM_IUPAC_OPENEYE_NAME>
(4-ethoxy-1-piperidyl)-(7-nitro-1H-indol-2-yl)methanone

> <PUBCHEM_IUPAC_CAS_NAME>
(4-ethoxy-1-piperidinyl)-(7-nitro-1H-indol-2-yl)methanone

> <PUBCHEM_IUPAC_NAME>
(4-ethoxypiperidin-1-yl)-(7-nitro-1H-indol-2-yl)methanone

> <PUBCHEM_IUPAC_SYSTEMATIC_NAME>
(4-ethoxypiperidin-1-yl)-(7-nitro-1H-indol-2-yl)methanone

> <PUBCHEM_IUPAC_TRADITIONAL_NAME>
(4-ethoxypiperidino)-(7-nitro-1H-indol-2-yl)methanone

> <PUBCHEM_IUPAC_INCHI>
InChI=1S/C16H19N3O4/c1-2-23-12-6-8-18(9-7-12)16(20)13-10-11-4-3-5-14(19(21)22)15(11)17-13/h3-5,10,12,17H,2,6-9H2,1H3

> <PUBCHEM_IUPAC_INCHIKEY>
HZNIZGDHAWBOLY-UHFFFAOYSA-N

> <PUBCHEM_XLOGP3_AA>
2.4

> <PUBCHEM_EXACT_MASS>
317.137556

> <PUBCHEM_MOLECULAR_FORMULA>
C16H19N3O4

> <PUBCHEM_MOLECULAR_WEIGHT>
317.33976

> <PUBCHEM_OPENEYE_CAN_SMILES>
CCOC1CCN(CC1)C(=O)C2=CC3=C(N2)C(=CC=C3)[N+](=O)[O-]

> <PUBCHEM_OPENEYE_ISO_SMILES>
CCOC1CCN(CC1)C(=O)C2=CC3=C(N2)C(=CC=C3)[N+](=O)[O-]

> <PUBCHEM_CACTVS_TPSA>
91.2

> <PUBCHEM_MONOISOTOPIC_WEIGHT>
317.137556

> <PUBCHEM_TOTAL_CHARGE>
0

> <PUBCHEM_HEAVY_ATOM_COUNT>
23

> <PUBCHEM_ATOM_DEF_STEREO_COUNT>
0

> <PUBCHEM_ATOM_UDEF_STEREO_COUNT>
0

> <PUBCHEM_BOND_DEF_STEREO_COUNT>
0

> <PUBCHEM_BOND_UDEF_STEREO_COUNT>
0

> <PUBCHEM_ISOTOPIC_ATOM_COUNT>
0

> <PUBCHEM_COMPONENT_COUNT>
1

> <PUBCHEM_CACTVS_TAUTO_COUNT>
6

> <PUBCHEM_COORDINATE_TYPE>
1
5
255

> <PUBCHEM_BONDANNOTATIONS>
14  16  8
16  18  8
17  18  8
17  19  8
18  21  8
19  22  8
21  23  8
22  23  8
6  14  8
6  17  8

$$$$

