4519
  -OEChem-06261200113D

 23 22  0     0  0  0  0  0  0999 V2000
    0.0922    0.8516    1.9891 O   0  5  0  0  0  0  0  0  0  0  0  0
   -0.3018    2.0879   -1.3233 O   0  0  0  0  0  0  0  0  0  0  0  0
    0.0457   -0.3963   -0.2283 N   0  0  0  0  0  0  0  0  0  0  0  0
   -0.0179    0.8680    0.5657 N   0  0  0  0  0  0  0  0  0  0  0  0
    3.7182   -1.0692   -0.1535 N   0  0  0  0  0  0  0  0  0  0  0  0
   -3.5691   -1.3231   -0.0734 N   0  0  0  0  0  0  0  0  0  0  0  0
   -0.2076    2.1728   -0.0938 N   0  0  0  0  0  0  0  0  0  0  0  0
    1.2735   -1.1874   -0.1279 C   0  0  0  0  0  0  0  0  0  0  0  0
   -1.1221   -1.2693   -0.0899 C   0  0  0  0  0  0  0  0  0  0  0  0
    2.4946   -0.2838   -0.2712 C   0  0  0  0  0  0  0  0  0  0  0  0
   -2.4057   -0.4511   -0.1935 C   0  0  0  0  0  0  0  0  0  0  0  0
    1.2907   -1.9489   -0.9179 H   0  0  0  0  0  0  0  0  0  0  0  0
    1.3145   -1.7093    0.8372 H   0  0  0  0  0  0  0  0  0  0  0  0
   -1.0980   -1.7922    0.8754 H   0  0  0  0  0  0  0  0  0  0  0  0
   -1.1111   -2.0303   -0.8805 H   0  0  0  0  0  0  0  0  0  0  0  0
    2.5270    0.4931    0.4982 H   0  0  0  0  0  0  0  0  0  0  0  0
    2.4860    0.2141   -1.2474 H   0  0  0  0  0  0  0  0  0  0  0  0
   -2.4536    0.0652   -1.1587 H   0  0  0  0  0  0  0  0  0  0  0  0
   -2.4816    0.3015    0.5970 H   0  0  0  0  0  0  0  0  0  0  0  0
    3.7585   -1.5073    0.7659 H   0  0  0  0  0  0  0  0  0  0  0  0
    4.5251   -0.4492   -0.2101 H   0  0  0  0  0  0  0  0  0  0  0  0
   -4.4184   -0.7602   -0.1009 H   0  0  0  0  0  0  0  0  0  0  0  0
   -3.5610   -1.7841    0.8355 H   0  0  0  0  0  0  0  0  0  0  0  0
  1  4  1  0  0  0  0
  2  7  2  0  0  0  0
  3  4  1  0  0  0  0
  3  8  1  0  0  0  0
  3  9  1  0  0  0  0
  4  7  1  0  0  0  0
  5 10  1  0  0  0  0
  5 20  1  0  0  0  0
  5 21  1  0  0  0  0
  6 11  1  0  0  0  0
  6 22  1  0  0  0  0
  6 23  1  0  0  0  0
  8 10  1  0  0  0  0
  8 12  1  0  0  0  0
  8 13  1  0  0  0  0
  9 11  1  0  0  0  0
  9 14  1  0  0  0  0
  9 15  1  0  0  0  0
 10 16  1  0  0  0  0
 10 17  1  0  0  0  0
 11 18  1  0  0  0  0
 11 19  1  0  0  0  0
M  CHG  1   1  -1
M  END
> <PUBCHEM_COMPOUND_CID>
4519

> <PUBCHEM_CONFORMER_RMSD>
0.6

> <PUBCHEM_CONFORMER_DIVERSEORDER>
1
95
112
82
122
24
79
102
81
94
85
39
114
121
74
116
75
19
23
58
100
59
28
124
53
103
84
99
30
52
49
4
107
88
62
73
97
118
68
104
11
123
80
36
51
7
83
115
43
33
110
101
108
106
46
117
86
31
96
120
66
67
60
55
87
76
48
91
44
70
29
111
90
6
32
109
34
26
63
78
57
16
22
113
45
40
5
92
77
65
98
56
71
64
50
3
21
17
119
37
14
42
8
69
93
15
27
72
9
20
2
105
54
89
61
18
35
47
12
41
13
10
25
38

> <PUBCHEM_MMFF94_PARTIAL_CHARGES>
15
1 -0.86
10 0.27
11 0.27
2 -0.16
20 0.36
21 0.36
22 0.36
23 0.36
3 -0.69
4 0.34
5 -0.99
6 -0.99
7 -0.17
8 0.27
9 0.27

> <PUBCHEM_EFFECTIVE_ROTOR_COUNT>
6

> <PUBCHEM_PHARMACOPHORE_FEATURES>
4
1 5 cation
1 5 donor
1 6 cation
1 6 donor

> <PUBCHEM_HEAVY_ATOM_COUNT>
11

> <PUBCHEM_ATOM_DEF_STEREO_COUNT>
0

> <PUBCHEM_ATOM_UDEF_STEREO_COUNT>
0

> <PUBCHEM_BOND_DEF_STEREO_COUNT>
0

> <PUBCHEM_BOND_UDEF_STEREO_COUNT>
0

> <PUBCHEM_ISOTOPIC_ATOM_COUNT>
0

> <PUBCHEM_COMPONENT_COUNT>
1

> <PUBCHEM_CACTVS_TAUTO_COUNT>
1

> <PUBCHEM_CONFORMER_ID>
000011A700000001

> <PUBCHEM_MMFF94_ENERGY>
5.2599

> <PUBCHEM_FEATURE_SELFOVERLAP>
20.297

> <PUBCHEM_SHAPE_FINGERPRINT>
14128692 85 18261948540454780863
14648413 74 17840304424332360955
20711985 344 18270411618803036017
23211744 25 17396736505291602949

> <PUBCHEM_SHAPE_MULTIPOLES>
189.73
4.37
2
1.04
0.62
1.24
0.42
-3.11
-0.48
-0.34
-0.38
0
0.59
0.1

> <PUBCHEM_SHAPE_SELFOVERLAP>
336.841

> <PUBCHEM_SHAPE_VOLUME>
123.2

> <PUBCHEM_COORDINATE_TYPE>
2
5
10

$$$$

