159969
  -OEChem-07051212582D

 82 83  0     1  0  0  0  0  0999 V2000
    6.3301   -1.1916    0.0000 O   0  0  0  0  0  0  0  0  0  0  0  0
    4.1328    2.1569    0.0000 O   0  0  0  0  0  0  0  0  0  0  0  0
    2.8660   -1.1916    0.0000 O   0  0  0  0  0  0  0  0  0  0  0  0
    6.2258   -0.5992    0.0000 O   0  0  0  0  0  0  0  0  0  0  0  0
    4.5981   -4.1916    0.0000 O   0  0  0  0  0  0  0  0  0  0  0  0
    7.1692    2.8726    0.0000 O   0  0  0  0  0  0  0  0  0  0  0  0
    2.0000   -2.6916    0.0000 O   0  0  0  0  0  0  0  0  0  0  0  0
    8.1953    0.0535    0.0000 O   0  0  0  0  0  0  0  0  0  0  0  0
    4.5981   -0.1916    0.0000 C   0  0  3  0  0  0  0  0  0  0  0  0
    3.5981   -0.1916    0.0000 C   0  0  0  0  0  0  0  0  0  0  0  0
    3.0981    0.6744    0.0000 C   0  0  0  0  0  0  0  0  0  0  0  0
    4.5981   -1.1916    0.0000 C   0  0  0  0  0  0  0  0  0  0  0  0
    5.2409    0.5744    0.0000 C   0  0  0  0  0  0  0  0  0  0  0  0
    5.4641   -1.6916    0.0000 C   0  0  0  0  0  0  0  0  0  0  0  0
    4.8988    1.5141    0.0000 C   0  0  0  0  0  0  0  0  0  0  0  0
    3.7320   -1.6916    0.0000 C   0  0  0  0  0  0  0  0  0  0  0  0
    6.2257    0.4008    0.0000 C   0  0  0  0  0  0  0  0  0  0  0  0
    2.0981    0.6744    0.0000 C   0  0  0  0  0  0  0  0  0  0  0  0
    3.5981    1.5404    0.0000 C   0  0  0  0  0  0  0  0  0  0  0  0
    5.4641   -2.6916    0.0000 C   0  0  0  0  0  0  0  0  0  0  0  0
    5.5416    2.2802    0.0000 C   0  0  0  0  0  0  0  0  0  0  0  0
    3.7320   -2.6916    0.0000 C   0  0  0  0  0  0  0  0  0  0  0  0
    6.8685    1.1668    0.0000 C   0  0  0  0  0  0  0  0  0  0  0  0
    4.5981   -3.1916    0.0000 C   0  0  0  0  0  0  0  0  0  0  0  0
    6.5264    2.1065    0.0000 C   0  0  0  0  0  0  0  0  0  0  0  0
    6.3301   -3.1916    0.0000 C   0  0  0  0  0  0  0  0  0  0  0  0
    5.1996    3.2198    0.0000 C   0  0  0  0  0  0  0  0  0  0  0  0
    2.8660   -3.1916    0.0000 C   0  0  0  0  0  0  0  0  0  0  0  0
    7.8533    0.9932    0.0000 C   0  0  0  0  0  0  0  0  0  0  0  0
    6.3301   -4.1916    0.0000 C   0  0  0  0  0  0  0  0  0  0  0  0
    5.8424    3.9859    0.0000 C   0  0  0  0  0  0  0  0  0  0  0  0
    2.8660   -4.1916    0.0000 C   0  0  0  0  0  0  0  0  0  0  0  0
    8.4960    1.7592    0.0000 C   0  0  0  0  0  0  0  0  0  0  0  0
    7.1962   -4.6916    0.0000 C   0  0  0  0  0  0  0  0  0  0  0  0
    5.5004    4.9256    0.0000 C   0  0  0  0  0  0  0  0  0  0  0  0
    5.4641   -4.6916    0.0000 C   0  0  0  0  0  0  0  0  0  0  0  0
    7.1962   -5.6916    0.0000 C   0  0  0  0  0  0  0  0  0  0  0  0
    8.0622   -4.1916    0.0000 C   0  0  0  0  0  0  0  0  0  0  0  0
    6.1432    5.6916    0.0000 C   0  0  0  0  0  0  0  0  0  0  0  0
    4.5156    5.0992    0.0000 C   0  0  0  0  0  0  0  0  0  0  0  0
    4.2388    0.5787    0.0000 H   0  0  0  0  0  0  0  0  0  0  0  0
    3.0155   -0.4037    0.0000 H   0  0  0  0  0  0  0  0  0  0  0  0
    3.7057   -0.8022    0.0000 H   0  0  0  0  0  0  0  0  0  0  0  0
    3.7181    0.6744    0.0000 H   0  0  0  0  0  0  0  0  0  0  0  0
    2.0981    1.2944    0.0000 H   0  0  0  0  0  0  0  0  0  0  0  0
    1.4781    0.6744    0.0000 H   0  0  0  0  0  0  0  0  0  0  0  0
    2.0981    0.0544    0.0000 H   0  0  0  0  0  0  0  0  0  0  0  0
    4.1350    1.2304    0.0000 H   0  0  0  0  0  0  0  0  0  0  0  0
    3.9081    2.0774    0.0000 H   0  0  0  0  0  0  0  0  0  0  0  0
    3.0611    1.8504    0.0000 H   0  0  0  0  0  0  0  0  0  0  0  0
    6.9407   -3.2993    0.0000 H   0  0  0  0  0  0  0  0  0  0  0  0
    6.5422   -2.6090    0.0000 H   0  0  0  0  0  0  0  0  0  0  0  0
    4.8011    3.6948    0.0000 H   0  0  0  0  0  0  0  0  0  0  0  0
    4.6627    2.9098    0.0000 H   0  0  0  0  0  0  0  0  0  0  0  0
    6.8671   -1.5016    0.0000 H   0  0  0  0  0  0  0  0  0  0  0  0
    4.2405    2.7675    0.0000 H   0  0  0  0  0  0  0  0  0  0  0  0
    2.3291   -1.5016    0.0000 H   0  0  0  0  0  0  0  0  0  0  0  0
    5.6888   -0.9093    0.0000 H   0  0  0  0  0  0  0  0  0  0  0  0
    5.7932   -4.5016    0.0000 H   0  0  0  0  0  0  0  0  0  0  0  0
    6.4530    3.8782    0.0000 H   0  0  0  0  0  0  0  0  0  0  0  0
    6.9572    3.4552    0.0000 H   0  0  0  0  0  0  0  0  0  0  0  0
    2.2460   -4.1916    0.0000 H   0  0  0  0  0  0  0  0  0  0  0  0
    2.8660   -4.8116    0.0000 H   0  0  0  0  0  0  0  0  0  0  0  0
    3.4860   -4.1916    0.0000 H   0  0  0  0  0  0  0  0  0  0  0  0
    8.9710    1.3607    0.0000 H   0  0  0  0  0  0  0  0  0  0  0  0
    8.8946    2.2342    0.0000 H   0  0  0  0  0  0  0  0  0  0  0  0
    8.0211    2.1577    0.0000 H   0  0  0  0  0  0  0  0  0  0  0  0
    5.1541   -5.2286    0.0000 H   0  0  0  0  0  0  0  0  0  0  0  0
    6.0010   -5.0016    0.0000 H   0  0  0  0  0  0  0  0  0  0  0  0
    5.7741   -4.1547    0.0000 H   0  0  0  0  0  0  0  0  0  0  0  0
    6.5762   -5.6916    0.0000 H   0  0  0  0  0  0  0  0  0  0  0  0
    7.1962   -6.3116    0.0000 H   0  0  0  0  0  0  0  0  0  0  0  0
    7.8162   -5.6916    0.0000 H   0  0  0  0  0  0  0  0  0  0  0  0
    8.3722   -4.7286    0.0000 H   0  0  0  0  0  0  0  0  0  0  0  0
    8.5991   -3.8816    0.0000 H   0  0  0  0  0  0  0  0  0  0  0  0
    7.7522   -3.6547    0.0000 H   0  0  0  0  0  0  0  0  0  0  0  0
    6.6181    5.2931    0.0000 H   0  0  0  0  0  0  0  0  0  0  0  0
    6.5417    6.1666    0.0000 H   0  0  0  0  0  0  0  0  0  0  0  0
    5.6682    6.0902    0.0000 H   0  0  0  0  0  0  0  0  0  0  0  0
    4.6232    5.7098    0.0000 H   0  0  0  0  0  0  0  0  0  0  0  0
    3.9050    5.2069    0.0000 H   0  0  0  0  0  0  0  0  0  0  0  0
    4.4079    4.4886    0.0000 H   0  0  0  0  0  0  0  0  0  0  0  0
  1 14  1  0  0  0  0
  1 55  1  0  0  0  0
  2 15  1  0  0  0  0
  2 56  1  0  0  0  0
  3 16  1  0  0  0  0
  3 57  1  0  0  0  0
  4 17  1  0  0  0  0
  4 58  1  0  0  0  0
  5 24  1  0  0  0  0
  5 36  1  0  0  0  0
  6 25  1  0  0  0  0
  6 61  1  0  0  0  0
  7 28  2  0  0  0  0
  8 29  2  0  0  0  0
  9 10  1  0  0  0  0
  9 12  1  0  0  0  0
  9 13  1  0  0  0  0
  9 41  1  0  0  0  0
 10 11  1  0  0  0  0
 10 42  1  0  0  0  0
 10 43  1  0  0  0  0
 11 18  1  0  0  0  0
 11 19  1  0  0  0  0
 11 44  1  0  0  0  0
 12 14  1  0  0  0  0
 12 16  2  0  0  0  0
 13 15  2  0  0  0  0
 13 17  1  0  0  0  0
 14 20  2  0  0  0  0
 15 21  1  0  0  0  0
 16 22  1  0  0  0  0
 17 23  2  0  0  0  0
 18 45  1  0  0  0  0
 18 46  1  0  0  0  0
 18 47  1  0  0  0  0
 19 48  1  0  0  0  0
 19 49  1  0  0  0  0
 19 50  1  0  0  0  0
 20 24  1  0  0  0  0
 20 26  1  0  0  0  0
 21 25  2  0  0  0  0
 21 27  1  0  0  0  0
 22 24  2  0  0  0  0
 22 28  1  0  0  0  0
 23 25  1  0  0  0  0
 23 29  1  0  0  0  0
 26 30  1  0  0  0  0
 26 51  1  0  0  0  0
 26 52  1  0  0  0  0
 27 31  1  0  0  0  0
 27 53  1  0  0  0  0
 27 54  1  0  0  0  0
 28 32  1  0  0  0  0
 29 33  1  0  0  0  0
 30 34  2  0  0  0  0
 30 59  1  0  0  0  0
 31 35  2  0  0  0  0
 31 60  1  0  0  0  0
 32 62  1  0  0  0  0
 32 63  1  0  0  0  0
 32 64  1  0  0  0  0
 33 65  1  0  0  0  0
 33 66  1  0  0  0  0
 33 67  1  0  0  0  0
 34 37  1  0  0  0  0
 34 38  1  0  0  0  0
 35 39  1  0  0  0  0
 35 40  1  0  0  0  0
 36 68  1  0  0  0  0
 36 69  1  0  0  0  0
 36 70  1  0  0  0  0
 37 71  1  0  0  0  0
 37 72  1  0  0  0  0
 37 73  1  0  0  0  0
 38 74  1  0  0  0  0
 38 75  1  0  0  0  0
 38 76  1  0  0  0  0
 39 77  1  0  0  0  0
 39 78  1  0  0  0  0
 39 79  1  0  0  0  0
 40 80  1  0  0  0  0
 40 81  1  0  0  0  0
 40 82  1  0  0  0  0
M  END
> <PUBCHEM_COMPOUND_CID>
159969

> <PUBCHEM_COMPOUND_CANONICALIZED>
1

> <PUBCHEM_CACTVS_COMPLEXITY>
918

> <PUBCHEM_CACTVS_HBOND_ACCEPTOR>
8

> <PUBCHEM_CACTVS_HBOND_DONOR>
5

> <PUBCHEM_CACTVS_ROTATABLE_BOND>
11

> <PUBCHEM_CACTVS_SUBSKEYS>
AAADcfB8PAAAAAAAAAAAAAAAAAAAAAAAAAAwYAAAAAAAAAABQAAAGgAACAAADQSAmAICBoAABgCIAqBSAAACCAAkIAAAiAEECMgMJzaGNRqAcWAl4BUIuQeI7PzOoAACCAAIAABAAAQQABAAAAAAAAAAAA==

> <PUBCHEM_IUPAC_OPENEYE_NAME>
1-[3-[1-[3-acetyl-2,6-dihydroxy-4-methoxy-5-(3-methylbut-2-enyl)phenyl]-3-methyl-butyl]-2,4,6-trihydroxy-5-(3-methylbut-2-enyl)phenyl]ethanone

> <PUBCHEM_IUPAC_CAS_NAME>
1-[3-[1-[3-acetyl-2,6-dihydroxy-4-methoxy-5-(3-methylbut-2-enyl)phenyl]-3-methylbutyl]-2,4,6-trihydroxy-5-(3-methylbut-2-enyl)phenyl]ethanone

> <PUBCHEM_IUPAC_NAME>
1-[3-[1-[3-acetyl-2,6-dihydroxy-4-methoxy-5-(3-methylbut-2-enyl)phenyl]-3-methylbutyl]-2,4,6-trihydroxy-5-(3-methylbut-2-enyl)phenyl]ethanone

> <PUBCHEM_IUPAC_SYSTEMATIC_NAME>
1-[3-[1-[3-ethanoyl-4-methoxy-5-(3-methylbut-2-enyl)-2,6-bis(oxidanyl)phenyl]-3-methyl-butyl]-5-(3-methylbut-2-enyl)-2,4,6-tris(oxidanyl)phenyl]ethanone

> <PUBCHEM_IUPAC_TRADITIONAL_NAME>
1-[3-[1-[3-acetyl-2,6-dihydroxy-4-methoxy-5-(3-methylbut-2-enyl)phenyl]-3-methyl-butyl]-2,4,6-trihydroxy-5-(3-methylbut-2-enyl)phenyl]ethanone

> <PUBCHEM_IUPAC_INCHI>
InChI=1S/C32H42O8/c1-15(2)10-12-20-27(35)23(18(7)33)30(38)25(28(20)36)22(14-17(5)6)26-29(37)21(13-11-16(3)4)32(40-9)24(19(8)34)31(26)39/h10-11,17,22,35-39H,12-14H2,1-9H3

> <PUBCHEM_IUPAC_INCHIKEY>
KLFWXYAHGSXKAW-UHFFFAOYSA-N

> <PUBCHEM_XLOGP3_AA>
8

> <PUBCHEM_EXACT_MASS>
554.287968

> <PUBCHEM_MOLECULAR_FORMULA>
C32H42O8

> <PUBCHEM_MOLECULAR_WEIGHT>
554.67108

> <PUBCHEM_OPENEYE_CAN_SMILES>
CC(C)CC(C1=C(C(=C(C(=C1O)CC=C(C)C)O)C(=O)C)O)C2=C(C(=C(C(=C2O)CC=C(C)C)OC)C(=O)C)O

> <PUBCHEM_OPENEYE_ISO_SMILES>
CC(C)CC(C1=C(C(=C(C(=C1O)CC=C(C)C)O)C(=O)C)O)C2=C(C(=C(C(=C2O)CC=C(C)C)OC)C(=O)C)O

> <PUBCHEM_CACTVS_TPSA>
145

> <PUBCHEM_MONOISOTOPIC_WEIGHT>
554.287968

> <PUBCHEM_TOTAL_CHARGE>
0

> <PUBCHEM_HEAVY_ATOM_COUNT>
40

> <PUBCHEM_ATOM_DEF_STEREO_COUNT>
0

> <PUBCHEM_ATOM_UDEF_STEREO_COUNT>
1

> <PUBCHEM_BOND_DEF_STEREO_COUNT>
0

> <PUBCHEM_BOND_UDEF_STEREO_COUNT>
0

> <PUBCHEM_ISOTOPIC_ATOM_COUNT>
0

> <PUBCHEM_COMPONENT_COUNT>
1

> <PUBCHEM_CACTVS_TAUTO_COUNT>
882

> <PUBCHEM_COORDINATE_TYPE>
1
5
255

> <PUBCHEM_BONDANNOTATIONS>
12  14  8
12  16  8
13  15  8
13  17  8
14  20  8
15  21  8
16  22  8
17  23  8
20  24  8
21  25  8
22  24  8
23  25  8
9  41  3

$$$$

