24883440
  -OEChem-07051213153D

 65 66  0     1  0  0  0  0  0999 V2000
   -5.3117    1.3943    0.7607 P   0  0  2  0  0  0  0  0  0  0  0  0
   -6.9347   -1.0136    0.2884 P   0  0  0  0  0  0  0  0  0  0  0  0
   -3.9124    0.6420    0.4685 O   0  0  0  0  0  0  0  0  0  0  0  0
   -6.4246    0.4943    0.0092 O   0  0  0  0  0  0  0  0  0  0  0  0
   -5.2482    2.7352   -0.1419 O   0  0  0  0  0  0  0  0  0  0  0  0
   -5.5977    1.6393    2.2140 O   0  0  0  0  0  0  0  0  0  0  0  0
   -8.1661   -1.1816   -0.7448 O   0  0  0  0  0  0  0  0  0  0  0  0
   -7.6612   -0.9015    1.7278 O   0  0  0  0  0  0  0  0  0  0  0  0
   -5.8680   -2.0638    0.1888 O   0  0  0  0  0  0  0  0  0  0  0  0
    3.7869    0.3571   -0.0882 C   0  0  1  0  0  0  0  0  0  0  0  0
    2.6834   -0.5696   -0.7247 C   0  0  1  0  0  0  0  0  0  0  0  0
    5.1571   -0.3254    0.2952 C   0  0  2  0  0  0  0  0  0  0  0  0
    2.5047   -1.8661    0.1441 C   0  0  1  0  0  0  0  0  0  0  0  0
    4.8496   -1.5915    1.1323 C   0  0  0  0  0  0  0  0  0  0  0  0
    3.8517   -2.5369    0.4629 C   0  0  0  0  0  0  0  0  0  0  0  0
    4.0443    1.6756   -0.8461 C   0  0  0  0  0  0  0  0  0  0  0  0
    1.3353    0.2018   -0.7880 C   0  0  0  0  0  0  0  0  0  0  0  0
    6.0042    0.6915    1.0933 C   0  0  0  0  0  0  0  0  0  0  0  0
    2.9817   -0.9740   -2.1867 C   0  0  0  0  0  0  0  0  0  0  0  0
    6.0415   -0.7197   -0.9129 C   0  0  0  0  0  0  0  0  0  0  0  0
    4.8440    2.6566    0.0157 C   0  0  0  0  0  0  0  0  0  0  0  0
    1.7217   -1.6478    1.4523 C   0  0  0  0  0  0  0  0  0  0  0  0
    5.8419    2.0189    0.9332 C   0  0  0  0  0  0  0  0  0  0  0  0
    0.2480   -0.6887   -1.3619 C   0  0  0  0  0  0  0  0  0  0  0  0
    7.0609    0.1804    2.0389 C   0  0  0  0  0  0  0  0  0  0  0  0
   -1.0655    0.0543   -1.4506 C   0  0  0  0  0  0  0  0  0  0  0  0
   -1.0321    1.3241   -2.2602 C   0  0  0  0  0  0  0  0  0  0  0  0
   -2.2045   -0.3390   -0.8481 C   0  0  0  0  0  0  0  0  0  0  0  0
   -3.5301    0.3540   -0.8712 C   0  0  0  0  0  0  0  0  0  0  0  0
    3.3440    0.6720    0.8718 H   0  0  0  0  0  0  0  0  0  0  0  0
    1.9389   -2.6132   -0.4281 H   0  0  0  0  0  0  0  0  0  0  0  0
    4.4630   -1.3030    2.1181 H   0  0  0  0  0  0  0  0  0  0  0  0
    5.7722   -2.1552    1.3232 H   0  0  0  0  0  0  0  0  0  0  0  0
    4.2804   -2.9490   -0.4570 H   0  0  0  0  0  0  0  0  0  0  0  0
    3.6903   -3.4018    1.1189 H   0  0  0  0  0  0  0  0  0  0  0  0
    3.1155    2.1824   -1.1203 H   0  0  0  0  0  0  0  0  0  0  0  0
    4.5672    1.4908   -1.7899 H   0  0  0  0  0  0  0  0  0  0  0  0
    1.4434    1.0813   -1.4297 H   0  0  0  0  0  0  0  0  0  0  0  0
    1.0485    0.5858    0.1986 H   0  0  0  0  0  0  0  0  0  0  0  0
    2.3440   -1.7896   -2.5422 H   0  0  0  0  0  0  0  0  0  0  0  0
    3.9922   -1.3436   -2.3277 H   0  0  0  0  0  0  0  0  0  0  0  0
    2.8654   -0.1263   -2.8718 H   0  0  0  0  0  0  0  0  0  0  0  0
    5.7014   -1.6203   -1.4235 H   0  0  0  0  0  0  0  0  0  0  0  0
    7.0634   -0.9605   -0.5935 H   0  0  0  0  0  0  0  0  0  0  0  0
    6.1356    0.0788   -1.6536 H   0  0  0  0  0  0  0  0  0  0  0  0
    4.1464    3.2335    0.6358 H   0  0  0  0  0  0  0  0  0  0  0  0
    5.3533    3.3760   -0.6356 H   0  0  0  0  0  0  0  0  0  0  0  0
    2.1641   -0.8620    2.0712 H   0  0  0  0  0  0  0  0  0  0  0  0
    1.7138   -2.5672    2.0492 H   0  0  0  0  0  0  0  0  0  0  0  0
    0.6740   -1.3875    1.2862 H   0  0  0  0  0  0  0  0  0  0  0  0
    6.4604    2.7073    1.5045 H   0  0  0  0  0  0  0  0  0  0  0  0
    0.0903   -1.6038   -0.7869 H   0  0  0  0  0  0  0  0  0  0  0  0
    0.4692   -1.0038   -2.3864 H   0  0  0  0  0  0  0  0  0  0  0  0
    6.6018   -0.3368    2.8870 H   0  0  0  0  0  0  0  0  0  0  0  0
    7.6730    0.9915    2.4486 H   0  0  0  0  0  0  0  0  0  0  0  0
    7.7419   -0.5105    1.5339 H   0  0  0  0  0  0  0  0  0  0  0  0
   -0.7704    2.1782   -1.6277 H   0  0  0  0  0  0  0  0  0  0  0  0
   -0.2872    1.2495   -3.0611 H   0  0  0  0  0  0  0  0  0  0  0  0
   -1.9758    1.5347   -2.7699 H   0  0  0  0  0  0  0  0  0  0  0  0
   -2.1806   -1.2625   -0.2713 H   0  0  0  0  0  0  0  0  0  0  0  0
   -4.2717   -0.3108   -1.3240 H   0  0  0  0  0  0  0  0  0  0  0  0
   -3.5266    1.2885   -1.4329 H   0  0  0  0  0  0  0  0  0  0  0  0
   -5.9392    3.4210   -0.0218 H   0  0  0  0  0  0  0  0  0  0  0  0
   -8.5985   -2.0579   -0.8299 H   0  0  0  0  0  0  0  0  0  0  0  0
   -7.9909   -1.7188    2.1584 H   0  0  0  0  0  0  0  0  0  0  0  0
  1  3  1  0  0  0  0
  1  4  1  0  0  0  0
  1  5  1  0  0  0  0
  1  6  2  0  0  0  0
  2  4  1  0  0  0  0
  2  7  1  0  0  0  0
  2  8  1  0  0  0  0
  2  9  2  0  0  0  0
  3 29  1  0  0  0  0
  5 63  1  0  0  0  0
  7 64  1  0  0  0  0
  8 65  1  0  0  0  0
 10 11  1  0  0  0  0
 10 12  1  0  0  0  0
 10 16  1  0  0  0  0
 10 30  1  0  0  0  0
 11 13  1  0  0  0  0
 11 17  1  0  0  0  0
 11 19  1  0  0  0  0
 12 14  1  0  0  0  0
 12 18  1  0  0  0  0
 12 20  1  0  0  0  0
 13 15  1  0  0  0  0
 13 22  1  0  0  0  0
 13 31  1  0  0  0  0
 14 15  1  0  0  0  0
 14 32  1  0  0  0  0
 14 33  1  0  0  0  0
 15 34  1  0  0  0  0
 15 35  1  0  0  0  0
 16 21  1  0  0  0  0
 16 36  1  0  0  0  0
 16 37  1  0  0  0  0
 17 24  1  0  0  0  0
 17 38  1  0  0  0  0
 17 39  1  0  0  0  0
 18 23  2  0  0  0  0
 18 25  1  0  0  0  0
 19 40  1  0  0  0  0
 19 41  1  0  0  0  0
 19 42  1  0  0  0  0
 20 43  1  0  0  0  0
 20 44  1  0  0  0  0
 20 45  1  0  0  0  0
 21 23  1  0  0  0  0
 21 46  1  0  0  0  0
 21 47  1  0  0  0  0
 22 48  1  0  0  0  0
 22 49  1  0  0  0  0
 22 50  1  0  0  0  0
 23 51  1  0  0  0  0
 24 26  1  0  0  0  0
 24 52  1  0  0  0  0
 24 53  1  0  0  0  0
 25 54  1  0  0  0  0
 25 55  1  0  0  0  0
 25 56  1  0  0  0  0
 26 27  1  0  0  0  0
 26 28  2  0  0  0  0
 27 57  1  0  0  0  0
 27 58  1  0  0  0  0
 27 59  1  0  0  0  0
 28 29  1  0  0  0  0
 28 60  1  0  0  0  0
 29 61  1  0  0  0  0
 29 62  1  0  0  0  0
M  END
> <PUBCHEM_COMPOUND_CID>
24883440

> <PUBCHEM_CONFORMER_RMSD>
1

> <PUBCHEM_CONFORMER_DIVERSEORDER>
1
62
61
14
33
42
19
71
68
8
51
29
63
54
27
52
59
56
9
22
3
16
70
15
60
24
58
37
31
10
65
50
12
53
4
48
20
66
28
13
43
36
21
5
49
11
55
40
41
7
64
47
67
25
26
34
23
32
39
2
35
46
30
6
38
17
45
69
44
18
57

> <PUBCHEM_MMFF94_PARTIAL_CHARGES>
24
1 1.51
12 0.14
18 -0.28
2 1.51
21 0.14
23 -0.29
24 0.14
25 0.14
26 -0.28
27 0.14
28 -0.29
29 0.42
3 -0.55
4 -0.54
5 -0.77
51 0.15
6 -0.7
60 0.15
63 0.5
64 0.5
65 0.5
7 -0.77
8 -0.77
9 -0.7

> <PUBCHEM_EFFECTIVE_ROTOR_COUNT>
9.2

> <PUBCHEM_PHARMACOPHORE_FEATURES>
9
1 27 hydrophobe
1 5 acceptor
1 6 acceptor
1 7 acceptor
1 8 acceptor
1 9 acceptor
4 2 7 8 9 anion
6 10 11 12 13 14 15 rings
6 10 12 16 18 21 23 rings

> <PUBCHEM_HEAVY_ATOM_COUNT>
29

> <PUBCHEM_ATOM_DEF_STEREO_COUNT>
4

> <PUBCHEM_ATOM_UDEF_STEREO_COUNT>
0

> <PUBCHEM_BOND_DEF_STEREO_COUNT>
1

> <PUBCHEM_BOND_UDEF_STEREO_COUNT>
0

> <PUBCHEM_ISOTOPIC_ATOM_COUNT>
0

> <PUBCHEM_COMPONENT_COUNT>
1

> <PUBCHEM_CACTVS_TAUTO_COUNT>
1

> <PUBCHEM_CONFORMER_ID>
017BB0F000000001

> <PUBCHEM_MMFF94_ENERGY>
28.5635

> <PUBCHEM_FEATURE_SELFOVERLAP>
45.731

> <PUBCHEM_SHAPE_FINGERPRINT>
10 15 17894631444321778767
10693767 8 9655309155085629568
11115154 58 10231765525910345630
11135609 201 17822867380933074304
11479125 193 17535197648506743440
11719270 70 15195571203656798355
11724838 91 18261397723583426479
11796584 16 12895064115846400985
12596602 18 18408885174505043017
13692114 37 18130227060512336994
13782708 43 16630531760108952630
14461889 52 18408885105385185171
15188451 53 16128665158268617628
19377110 9 18408045095923701887
21033648 29 14057298471024038446
21304304 249 16128383692340855818
21792934 111 17918001589956324173
22956985 138 15839050609179806906
2838139 119 15574721343144968937
29717793 49 9583516534089374982
312425 54 18131349756420139881
3383291 50 16988551378699243051
3663271 9 18336263522422810795
392239 28 18131078125624567784
397830 11 18334574651024309413
4093350 32 17530964692496746638
4340502 62 18341614802360035438
439807 62 11815596585741505769
5104073 3 18341618160871220099

> <PUBCHEM_SHAPE_MULTIPOLES>
563.42
22.74
2.43
1.87
36.23
0.48
0.05
0.55
-10.5
-0.78
-0.47
-0.23
0.16
-0.13

> <PUBCHEM_SHAPE_SELFOVERLAP>
1108.686

> <PUBCHEM_SHAPE_VOLUME>
340.5

> <PUBCHEM_COORDINATE_TYPE>
2
5
10

$$$$

