6440
  -OEChem-06261201192D

 22 21  0     1  0  0  0  0  0999 V2000
    6.0010   -0.3170    0.0000 O   0  0  0  0  0  0  0  0  0  0  0  0
    2.5369   -0.3170    0.0000 O   0  0  0  0  0  0  0  0  0  0  0  0
    4.2690   -0.3170    0.0000 C   0  0  0  0  0  0  0  0  0  0  0  0
    5.1350    0.1830    0.0000 C   0  0  3  0  0  0  0  0  0  0  0  0
    3.4030   -0.8170    0.0000 C   0  0  0  0  0  0  0  0  0  0  0  0
    3.7690    0.5490    0.0000 C   0  0  0  0  0  0  0  0  0  0  0  0
    4.7690   -1.1830    0.0000 C   0  0  0  0  0  0  0  0  0  0  0  0
    5.1350    1.1830    0.0000 C   0  0  0  0  0  0  0  0  0  0  0  0
    5.1350   -0.6670    0.0000 H   0  0  0  0  0  0  0  0  0  0  0  0
    3.0044   -1.2919    0.0000 H   0  0  0  0  0  0  0  0  0  0  0  0
    3.8015   -1.2919    0.0000 H   0  0  0  0  0  0  0  0  0  0  0  0
    4.3059    0.8590    0.0000 H   0  0  0  0  0  0  0  0  0  0  0  0
    3.4590    1.0860    0.0000 H   0  0  0  0  0  0  0  0  0  0  0  0
    3.2320    0.2390    0.0000 H   0  0  0  0  0  0  0  0  0  0  0  0
    4.2320   -1.4930    0.0000 H   0  0  0  0  0  0  0  0  0  0  0  0
    5.0790   -1.7200    0.0000 H   0  0  0  0  0  0  0  0  0  0  0  0
    5.3059   -0.8730    0.0000 H   0  0  0  0  0  0  0  0  0  0  0  0
    5.7550    1.1830    0.0000 H   0  0  0  0  0  0  0  0  0  0  0  0
    5.1350    1.8030    0.0000 H   0  0  0  0  0  0  0  0  0  0  0  0
    4.5150    1.1830    0.0000 H   0  0  0  0  0  0  0  0  0  0  0  0
    6.5380   -0.0070    0.0000 H   0  0  0  0  0  0  0  0  0  0  0  0
    2.0000   -0.6270    0.0000 H   0  0  0  0  0  0  0  0  0  0  0  0
  1  4  1  0  0  0  0
  1 21  1  0  0  0  0
  2  5  1  0  0  0  0
  2 22  1  0  0  0  0
  3  4  1  0  0  0  0
  3  5  1  0  0  0  0
  3  6  1  0  0  0  0
  3  7  1  0  0  0  0
  4  8  1  0  0  0  0
  4  9  1  0  0  0  0
  5 10  1  0  0  0  0
  5 11  1  0  0  0  0
  6 12  1  0  0  0  0
  6 13  1  0  0  0  0
  6 14  1  0  0  0  0
  7 15  1  0  0  0  0
  7 16  1  0  0  0  0
  7 17  1  0  0  0  0
  8 18  1  0  0  0  0
  8 19  1  0  0  0  0
  8 20  1  0  0  0  0
M  END
> <PUBCHEM_COMPOUND_CID>
6440

> <PUBCHEM_COMPOUND_CANONICALIZED>
1

> <PUBCHEM_CACTVS_COMPLEXITY>
68.9

> <PUBCHEM_CACTVS_HBOND_ACCEPTOR>
2

> <PUBCHEM_CACTVS_HBOND_DONOR>
2

> <PUBCHEM_CACTVS_ROTATABLE_BOND>
2

> <PUBCHEM_CACTVS_SUBSKEYS>
AAADccBgMAAAAAAAAAAAAAAAAAAAAAAAAAAAAAAAAAAAAAAAAAAAGgAACAAADhSggAICAAAAAgAAAAAAAAAAAAAAAAAAAAAAAAAAEAAAAAAAQAAFAAAAAAAAAAAJAAAAAAAAAAAAAAAAAAAAAAAAAAAAAA==

> <PUBCHEM_IUPAC_OPENEYE_NAME>
2,2-dimethylbutane-1,3-diol

> <PUBCHEM_IUPAC_CAS_NAME>
2,2-dimethylbutane-1,3-diol

> <PUBCHEM_IUPAC_NAME>
2,2-dimethylbutane-1,3-diol

> <PUBCHEM_IUPAC_SYSTEMATIC_NAME>
2,2-dimethylbutane-1,3-diol

> <PUBCHEM_IUPAC_TRADITIONAL_NAME>
2,2-dimethylbutane-1,3-diol

> <PUBCHEM_IUPAC_INCHI>
InChI=1S/C6H14O2/c1-5(8)6(2,3)4-7/h5,7-8H,4H2,1-3H3

> <PUBCHEM_IUPAC_INCHIKEY>
QXKKYNIWAYERHT-UHFFFAOYSA-N

> <PUBCHEM_XLOGP3_AA>
0.5

> <PUBCHEM_EXACT_MASS>
118.09938

> <PUBCHEM_MOLECULAR_FORMULA>
C6H14O2

> <PUBCHEM_MOLECULAR_WEIGHT>
118.17416

> <PUBCHEM_OPENEYE_CAN_SMILES>
CC(C(C)(C)CO)O

> <PUBCHEM_OPENEYE_ISO_SMILES>
CC(C(C)(C)CO)O

> <PUBCHEM_CACTVS_TPSA>
40.5

> <PUBCHEM_MONOISOTOPIC_WEIGHT>
118.09938

> <PUBCHEM_TOTAL_CHARGE>
0

> <PUBCHEM_HEAVY_ATOM_COUNT>
8

> <PUBCHEM_ATOM_DEF_STEREO_COUNT>
0

> <PUBCHEM_ATOM_UDEF_STEREO_COUNT>
1

> <PUBCHEM_BOND_DEF_STEREO_COUNT>
0

> <PUBCHEM_BOND_UDEF_STEREO_COUNT>
0

> <PUBCHEM_ISOTOPIC_ATOM_COUNT>
0

> <PUBCHEM_COMPONENT_COUNT>
1

> <PUBCHEM_CACTVS_TAUTO_COUNT>
1

> <PUBCHEM_COORDINATE_TYPE>
1
5
255

> <PUBCHEM_BONDANNOTATIONS>
4  9  3

$$$$

