44176418
  -OEChem-07051213103D

 38 37  0     1  0  0  0  0  0999 V2000
    1.7230    2.3210    0.3049 S   0  0  0  0  0  0  0  0  0  0  0  0
    2.1755    4.1534   -0.4959 S   0  0  0  0  0  0  0  0  0  0  0  0
   -1.4055   -0.3895   -2.1854 O   0  0  0  0  0  0  0  0  0  0  0  0
    2.0147   -1.3931    0.9807 O   0  0  0  0  0  0  0  0  0  0  0  0
   -4.5259    0.1572    2.2877 O   0  0  0  0  0  0  0  0  0  0  0  0
   -5.8122    1.3389    0.8420 O   0  0  0  0  0  0  0  0  0  0  0  0
    4.9047    0.6962    0.7738 O   0  0  0  0  0  0  0  0  0  0  0  0
    6.4748   -0.8617    1.2789 O   0  0  0  0  0  0  0  0  0  0  0  0
   -0.0965   -0.2933   -0.2690 N   0  0  0  0  0  0  0  0  0  0  0  0
   -6.2304   -0.9669   -0.6090 N   0  0  0  0  0  0  0  0  0  0  0  0
    3.4803   -0.8825   -0.7435 N   0  0  0  0  0  0  0  0  0  0  0  0
   -3.8067   -0.6550   -0.7635 C   0  0  0  0  0  0  0  0  0  0  0  0
    1.1807   -0.1487   -0.9284 C   0  0  1  0  0  0  0  0  0  0  0  0
   -2.4759   -0.5332   -0.0183 C   0  0  0  0  0  0  0  0  0  0  0  0
   -4.9991   -0.8605    0.1774 C   0  0  1  0  0  0  0  0  0  0  0  0
   -1.2929   -0.4024   -0.9627 C   0  0  0  0  0  0  0  0  0  0  0  0
    1.5316    1.3157   -1.2035 C   0  0  0  0  0  0  0  0  0  0  0  0
    2.2435   -0.8839   -0.1145 C   0  0  0  0  0  0  0  0  0  0  0  0
   -5.1783    0.3254    1.1079 C   0  0  0  0  0  0  0  0  0  0  0  0
    4.6515   -1.4941   -0.1600 C   0  0  0  0  0  0  0  0  0  0  0  0
    5.4430   -0.5431    0.7005 C   0  0  0  0  0  0  0  0  0  0  0  0
   -3.9555    0.2495   -1.3693 H   0  0  0  0  0  0  0  0  0  0  0  0
   -3.7492   -1.4953   -1.4682 H   0  0  0  0  0  0  0  0  0  0  0  0
    1.1128   -0.6664   -1.8946 H   0  0  0  0  0  0  0  0  0  0  0  0
   -2.3164   -1.4165    0.6113 H   0  0  0  0  0  0  0  0  0  0  0  0
   -2.4758    0.3523    0.6272 H   0  0  0  0  0  0  0  0  0  0  0  0
   -4.8810   -1.7745    0.7700 H   0  0  0  0  0  0  0  0  0  0  0  0
   -0.1140   -0.2910    0.7471 H   0  0  0  0  0  0  0  0  0  0  0  0
    2.4604    1.3845   -1.7786 H   0  0  0  0  0  0  0  0  0  0  0  0
    0.7347    1.7657   -1.8070 H   0  0  0  0  0  0  0  0  0  0  0  0
   -7.0118   -1.1855    0.0083 H   0  0  0  0  0  0  0  0  0  0  0  0
   -6.1547   -1.7501   -1.2571 H   0  0  0  0  0  0  0  0  0  0  0  0
    3.5803   -0.4557   -1.6592 H   0  0  0  0  0  0  0  0  0  0  0  0
    5.2866   -1.8287   -0.9850 H   0  0  0  0  0  0  0  0  0  0  0  0
    4.3471   -2.3479    0.4524 H   0  0  0  0  0  0  0  0  0  0  0  0
   -4.6342    0.9323    2.8790 H   0  0  0  0  0  0  0  0  0  0  0  0
    3.5016    4.0069   -0.6306 H   0  0  0  0  0  0  0  0  0  0  0  0
    5.4372    1.2955    1.3391 H   0  0  0  0  0  0  0  0  0  0  0  0
  1  2  1  0  0  0  0
  1 17  1  0  0  0  0
  2 37  1  0  0  0  0
  3 16  2  0  0  0  0
  4 18  2  0  0  0  0
  5 19  1  0  0  0  0
  5 36  1  0  0  0  0
  6 19  2  0  0  0  0
  7 21  1  0  0  0  0
  7 38  1  0  0  0  0
  8 21  2  0  0  0  0
  9 13  1  0  0  0  0
  9 16  1  0  0  0  0
  9 28  1  0  0  0  0
 10 15  1  0  0  0  0
 10 31  1  0  0  0  0
 10 32  1  0  0  0  0
 11 18  1  0  0  0  0
 11 20  1  0  0  0  0
 11 33  1  0  0  0  0
 12 14  1  0  0  0  0
 12 15  1  0  0  0  0
 12 22  1  0  0  0  0
 12 23  1  0  0  0  0
 13 17  1  0  0  0  0
 13 18  1  0  0  0  0
 13 24  1  0  0  0  0
 14 16  1  0  0  0  0
 14 25  1  0  0  0  0
 14 26  1  0  0  0  0
 15 19  1  0  0  0  0
 15 27  1  0  0  0  0
 17 29  1  0  0  0  0
 17 30  1  0  0  0  0
 20 21  1  0  0  0  0
 20 34  1  0  0  0  0
 20 35  1  0  0  0  0
M  END
> <PUBCHEM_COMPOUND_CID>
44176418

> <PUBCHEM_CONFORMER_RMSD>
1

> <PUBCHEM_CONFORMER_DIVERSEORDER>
1
39
54
97
63
47
64
112
66
24
98
68
27
43
10
50
15
74
70
100
12
75
76
83
22
72
55
69
31
7
52
106
28
49
77
38
96
95
101
18
99
73
61
29
56
105
104
82
13
48
93
92
44
46
37
89
36
107
81
5
17
34
79
80
86
23
32
91
102
51
40
33
88
19
65
53
58
8
84
14
26
71
62
110
57
21
108
16
59
35
109
87
94
11
42
111
9
3
60
90
20
85
78
4
103
41
45
67
2
6
30
25

> <PUBCHEM_MMFF94_PARTIAL_CHARGES>
27
1 -0.23
10 -0.99
11 -0.73
13 0.36
14 0.06
15 0.33
16 0.57
17 0.23
18 0.57
19 0.66
2 -0.18
20 0.36
21 0.66
28 0.37
3 -0.57
31 0.36
32 0.36
33 0.37
36 0.5
37 0.18
38 0.5
4 -0.57
5 -0.65
6 -0.57
7 -0.65
8 -0.57
9 -0.73

> <PUBCHEM_EFFECTIVE_ROTOR_COUNT>
12

> <PUBCHEM_PHARMACOPHORE_FEATURES>
12
1 10 cation
1 10 donor
1 11 donor
1 3 acceptor
1 4 acceptor
1 5 acceptor
1 6 acceptor
1 7 acceptor
1 8 acceptor
1 9 donor
3 5 6 19 anion
3 7 8 21 anion

> <PUBCHEM_HEAVY_ATOM_COUNT>
21

> <PUBCHEM_ATOM_DEF_STEREO_COUNT>
2

> <PUBCHEM_ATOM_UDEF_STEREO_COUNT>
0

> <PUBCHEM_BOND_DEF_STEREO_COUNT>
0

> <PUBCHEM_BOND_UDEF_STEREO_COUNT>
0

> <PUBCHEM_ISOTOPIC_ATOM_COUNT>
0

> <PUBCHEM_COMPONENT_COUNT>
1

> <PUBCHEM_CACTVS_TAUTO_COUNT>
4

> <PUBCHEM_CONFORMER_ID>
02A2142200000001

> <PUBCHEM_MMFF94_ENERGY>
20.3181

> <PUBCHEM_FEATURE_SELFOVERLAP>
61.01

> <PUBCHEM_SHAPE_FINGERPRINT>
11089746 13 18341896307992049205
11405975 8 18340762629345766195
11545043 162 17275110526661230781
12236239 1 18040154024018211567
12403259 118 18113329813498340013
12507557 5 18187359952876635441
12596602 18 18113337526758905355
12616971 3 18261376838038466449
12633257 1 18341890775372908991
13257819 101 13984665875618103280
13590594 115 18340482356607048696
13899415 154 18412820266876705716
14251752 14 13183028423375086735
14528608 73 9511458918355084038
14739800 52 17387418921672420216
14849402 71 18269550542549195036
15048467 5 16950570969725733154
15238133 3 18337378418117253133
15527383 91 18343302552407802964
1813 80 18335693983994728444
18785283 64 18057321695885702268
20281389 69 16370730331015068306
21041028 32 18411705395945161252
21150785 3 9511168664834680562
21521721 280 17775558720464122856
23402539 116 14996293538864466151
23559900 14 16056594310172481263
23622692 88 18113621166203376334
25147074 1 17897174519831808453
33382 64 16486979548373604786
5104073 3 18269826524483540011
7495541 125 16343698820582052606
9971528 1 17967801791028758694

> <PUBCHEM_SHAPE_MULTIPOLES>
389.71
14.96
2.61
1.47
8.56
4.35
-0.12
-4.65
-6.33
-3.58
0.18
0.95
-0.04
-1.26

> <PUBCHEM_SHAPE_SELFOVERLAP>
738.808

> <PUBCHEM_SHAPE_VOLUME>
241.2

> <PUBCHEM_COORDINATE_TYPE>
2
5
10

$$$$

