443733
  -OEChem-07051213033D

 25 25  0     0  0  0  0  0  0999 V2000
    0.4204    0.4592    0.4521 O   0  0  0  0  0  0  0  0  0  0  0  0
    3.8620   -0.2162   -0.3600 O   0  0  0  0  0  0  0  0  0  0  0  0
    2.9862    1.7058    0.5336 O   0  0  0  0  0  0  0  0  0  0  0  0
   -1.7777   -0.2322    0.5302 N   0  0  0  0  0  0  0  0  0  0  0  0
    0.0220   -1.6104   -0.2981 N   0  0  0  0  0  0  0  0  0  0  0  0
    1.3775   -1.3664   -0.4175 N   0  0  0  0  0  0  0  0  0  0  0  0
   -2.8818   -1.1450    0.3469 C   0  0  0  0  0  0  0  0  0  0  0  0
   -4.2123   -0.3971    0.3934 C   0  0  0  0  0  0  0  0  0  0  0  0
   -0.4834   -0.5213    0.2106 C   0  0  0  0  0  0  0  0  0  0  0  0
   -4.3362    0.6216   -0.7033 C   0  0  0  0  0  0  0  0  0  0  0  0
    1.5642   -0.1474    0.0318 C   0  0  0  0  0  0  0  0  0  0  0  0
    2.8016    0.5426    0.1060 C   0  0  0  0  0  0  0  0  0  0  0  0
   -4.5084    1.9312   -0.4919 C   0  0  0  0  0  0  0  0  0  0  0  0
    5.1658    0.3757   -0.3339 C   0  0  0  0  0  0  0  0  0  0  0  0
   -2.7888   -1.6682   -0.6133 H   0  0  0  0  0  0  0  0  0  0  0  0
   -2.8623   -1.9036    1.1377 H   0  0  0  0  0  0  0  0  0  0  0  0
   -5.0314   -1.1184    0.2885 H   0  0  0  0  0  0  0  0  0  0  0  0
   -4.3334    0.0772    1.3755 H   0  0  0  0  0  0  0  0  0  0  0  0
   -1.9866    0.6645    0.9618 H   0  0  0  0  0  0  0  0  0  0  0  0
   -4.2933    0.2601   -1.7274 H   0  0  0  0  0  0  0  0  0  0  0  0
   -4.5964    2.6156   -1.3285 H   0  0  0  0  0  0  0  0  0  0  0  0
   -4.5626    2.3420    0.5101 H   0  0  0  0  0  0  0  0  0  0  0  0
    5.1852    1.2704   -0.9630 H   0  0  0  0  0  0  0  0  0  0  0  0
    5.8781   -0.3515   -0.7322 H   0  0  0  0  0  0  0  0  0  0  0  0
    5.4476    0.6194    0.6946 H   0  0  0  0  0  0  0  0  0  0  0  0
  1  9  1  0  0  0  0
  1 11  1  0  0  0  0
  2 12  1  0  0  0  0
  2 14  1  0  0  0  0
  3 12  2  0  0  0  0
  4  7  1  0  0  0  0
  4  9  1  0  0  0  0
  4 19  1  0  0  0  0
  5  6  1  0  0  0  0
  5  9  2  0  0  0  0
  6 11  2  0  0  0  0
  7  8  1  0  0  0  0
  7 15  1  0  0  0  0
  7 16  1  0  0  0  0
  8 10  1  0  0  0  0
  8 17  1  0  0  0  0
  8 18  1  0  0  0  0
 10 13  2  0  0  0  0
 10 20  1  0  0  0  0
 11 12  1  0  0  0  0
 13 21  1  0  0  0  0
 13 22  1  0  0  0  0
 14 23  1  0  0  0  0
 14 24  1  0  0  0  0
 14 25  1  0  0  0  0
M  END
> <PUBCHEM_COMPOUND_CID>
443733

> <PUBCHEM_CONFORMER_RMSD>
0.6

> <PUBCHEM_CONFORMER_DIVERSEORDER>
1
101
122
57
91
81
102
56
60
105
28
42
25
87
78
73
40
113
89
90
93
61
97
49
17
119
104
75
99
19
103
24
52
36
76
13
8
115
32
116
109
65
95
29
45
5
70
43
79
107
44
39
66
38
80
58
35
110
54
92
118
120
22
63
20
100
112
121
46
47
27
23
55
11
98
33
77
2
16
94
71
3
51
117
111
9
86
82
15
26
108
64
7
74
37
53
85
84
48
114
6
30
68
88
72
14
10
31
34
62
12
69
59
4
106
21
41
50
96
83
18
67

> <PUBCHEM_MMFF94_PARTIAL_CHARGES>
18
1 -0.28
10 -0.29
11 0.39
12 0.81
13 -0.3
14 0.28
19 0.4
2 -0.43
20 0.15
21 0.15
22 0.15
3 -0.57
4 -0.85
5 -0.34
6 -0.34
7 0.37
8 0.14
9 0.56

> <PUBCHEM_EFFECTIVE_ROTOR_COUNT>
6

> <PUBCHEM_PHARMACOPHORE_FEATURES>
5
1 13 hydrophobe
1 3 acceptor
1 4 donor
3 4 5 9 cation
5 1 5 6 9 11 rings

> <PUBCHEM_HEAVY_ATOM_COUNT>
14

> <PUBCHEM_ATOM_DEF_STEREO_COUNT>
0

> <PUBCHEM_ATOM_UDEF_STEREO_COUNT>
0

> <PUBCHEM_BOND_DEF_STEREO_COUNT>
0

> <PUBCHEM_BOND_UDEF_STEREO_COUNT>
0

> <PUBCHEM_ISOTOPIC_ATOM_COUNT>
0

> <PUBCHEM_COMPONENT_COUNT>
1

> <PUBCHEM_CACTVS_TAUTO_COUNT>
3

> <PUBCHEM_CONFORMER_ID>
0006C55500000001

> <PUBCHEM_MMFF94_ENERGY>
14.4431

> <PUBCHEM_FEATURE_SELFOVERLAP>
25.371

> <PUBCHEM_SHAPE_FINGERPRINT>
100836 57 18272928349590553669
10608611 8 18411703188463267817
10680689 15 18341889650392054019
11046707 91 7132711695872166805
11401426 45 18040437676733005050
11471102 20 18259982691263904990
11543360 7 13984664711407354075
12500047 106 18272932700223879403
12670543 26 18334848468195676702
13081056 2 18409448051317620777
13740256 8 8862936191025602428
14123238 8 7060378128404659882
14123255 352 17988648514596534357
14415576 193 18411697673245296437
14993402 34 16443069400182148415
15501527 16 18413385462807930745
17834072 8 18187077360870603476
18186145 218 18041272184335620403
19433438 28 18271523105084437569
200 152 16732980937970581715
20432913 95 10663819698012630581
20645477 56 18343581867849257369
20645477 70 17895184558246789286
20828058 44 8286203846713058213
231179 274 18410854373585994382
23402539 116 18259991461323236596
23402655 69 18114183077001655781
23557571 272 18341886382048321367
3545911 37 18413105074494531365
6430166 295 18411984650090761962

> <PUBCHEM_SHAPE_MULTIPOLES>
255.56
10.49
1.54
0.74
0.42
0.32
-0.01
4.28
-1.36
-0.98
-0.09
-0.16
0.04
0.78

> <PUBCHEM_SHAPE_SELFOVERLAP>
512.12

> <PUBCHEM_SHAPE_VOLUME>
151

> <PUBCHEM_COORDINATE_TYPE>
2
5
10

$$$$

