21574552
  -OEChem-07051213103D

 28 28  0     1  0  0  0  0  0999 V2000
    0.9673   -3.1856    0.0450 Br  0  0  0  0  0  0  0  0  0  0  0  0
   -2.1920    2.4635    0.7172 Cl  0  0  0  0  0  0  0  0  0  0  0  0
   -3.8358   -0.4866    0.3869 Cl  0  0  0  0  0  0  0  0  0  0  0  0
    4.6098    1.1890    0.5899 Cl  0  0  0  0  0  0  0  0  0  0  0  0
    0.8362   -0.2549   -0.2008 C   0  0  1  0  0  0  0  0  0  0  0  0
    0.0288    1.0385    0.1250 C   0  0  0  0  0  0  0  0  0  0  0  0
   -1.5061    0.9745   -0.0773 C   0  0  1  0  0  0  0  0  0  0  0  0
    0.1532   -1.4532    0.5070 C   0  0  1  0  0  0  0  0  0  0  0  0
   -2.0726   -0.2717    0.6415 C   0  0  2  0  0  0  0  0  0  0  0  0
   -1.3504   -1.5597    0.2364 C   0  0  0  0  0  0  0  0  0  0  0  0
    0.9919   -0.4432   -1.7220 C   0  0  0  0  0  0  0  0  0  0  0  0
   -1.8976    1.0726   -1.5596 C   0  0  0  0  0  0  0  0  0  0  0  0
    2.2327   -0.0381    0.3519 C   0  0  0  0  0  0  0  0  0  0  0  0
    3.0345    0.9551   -0.0411 C   0  0  0  0  0  0  0  0  0  0  0  0
    0.2123    1.2824    1.1839 H   0  0  0  0  0  0  0  0  0  0  0  0
    0.4245    1.8926   -0.4427 H   0  0  0  0  0  0  0  0  0  0  0  0
    0.3030   -1.3812    1.5926 H   0  0  0  0  0  0  0  0  0  0  0  0
   -1.9523   -0.1487    1.7255 H   0  0  0  0  0  0  0  0  0  0  0  0
   -1.7632   -2.3996    0.8121 H   0  0  0  0  0  0  0  0  0  0  0  0
   -1.5415   -1.7968   -0.8172 H   0  0  0  0  0  0  0  0  0  0  0  0
    1.1496    0.5106   -2.2393 H   0  0  0  0  0  0  0  0  0  0  0  0
    1.8450   -1.0855   -1.9743 H   0  0  0  0  0  0  0  0  0  0  0  0
    0.1147   -0.9131   -2.1728 H   0  0  0  0  0  0  0  0  0  0  0  0
   -2.9618    1.3021   -1.6881 H   0  0  0  0  0  0  0  0  0  0  0  0
   -1.3387    1.8688   -2.0650 H   0  0  0  0  0  0  0  0  0  0  0  0
   -1.7164    0.1437   -2.1027 H   0  0  0  0  0  0  0  0  0  0  0  0
    2.5908   -0.7220    1.1184 H   0  0  0  0  0  0  0  0  0  0  0  0
    2.7854    1.6954   -0.7889 H   0  0  0  0  0  0  0  0  0  0  0  0
  1  8  1  0  0  0  0
  2  7  1  0  0  0  0
  3  9  1  0  0  0  0
  4 14  1  0  0  0  0
  5  6  1  0  0  0  0
  5  8  1  0  0  0  0
  5 11  1  0  0  0  0
  5 13  1  0  0  0  0
  6  7  1  0  0  0  0
  6 15  1  0  0  0  0
  6 16  1  0  0  0  0
  7  9  1  0  0  0  0
  7 12  1  0  0  0  0
  8 10  1  0  0  0  0
  8 17  1  0  0  0  0
  9 10  1  0  0  0  0
  9 18  1  0  0  0  0
 10 19  1  0  0  0  0
 10 20  1  0  0  0  0
 11 21  1  0  0  0  0
 11 22  1  0  0  0  0
 11 23  1  0  0  0  0
 12 24  1  0  0  0  0
 12 25  1  0  0  0  0
 12 26  1  0  0  0  0
 13 14  2  0  0  0  0
 13 27  1  0  0  0  0
 14 28  1  0  0  0  0
M  END
> <PUBCHEM_COMPOUND_CID>
21574552

> <PUBCHEM_CONFORMER_RMSD>
0.6

> <PUBCHEM_CONFORMER_DIVERSEORDER>
2
4
6
5
3
1

> <PUBCHEM_MMFF94_PARTIAL_CHARGES>
12
1 -0.23
13 -0.29
14 -0.01
2 -0.29
27 0.15
28 0.15
3 -0.29
4 -0.14
5 0.14
7 0.29
8 0.23
9 0.29

> <PUBCHEM_EFFECTIVE_ROTOR_COUNT>
2.2

> <PUBCHEM_PHARMACOPHORE_FEATURES>
2
1 1 hydrophobe
6 5 6 7 8 9 10 rings

> <PUBCHEM_HEAVY_ATOM_COUNT>
14

> <PUBCHEM_ATOM_DEF_STEREO_COUNT>
4

> <PUBCHEM_ATOM_UDEF_STEREO_COUNT>
0

> <PUBCHEM_BOND_DEF_STEREO_COUNT>
1

> <PUBCHEM_BOND_UDEF_STEREO_COUNT>
0

> <PUBCHEM_ISOTOPIC_ATOM_COUNT>
0

> <PUBCHEM_COMPONENT_COUNT>
1

> <PUBCHEM_CACTVS_TAUTO_COUNT>
1

> <PUBCHEM_CONFORMER_ID>
0149339800000002

> <PUBCHEM_MMFF94_ENERGY>
44.7988

> <PUBCHEM_FEATURE_SELFOVERLAP>
10.148

> <PUBCHEM_SHAPE_FINGERPRINT>
10922049 32 18261107470221141686
11132069 177 18339638932419321954
12423570 1 16621207016874303951
13024252 1 15769228162512268281
13140716 1 18052527782111825331
13296909 8 17775297040422305484
13380535 76 18342738498590037106
13839132 238 18262789782777320700
14614273 12 18202005447299487493
14648413 74 17977944910227886707
14817 1 9347562794388155878
15042514 8 18125437514820692858
15219456 202 18188201096024264462
15375462 478 16917071027316200644
15775835 57 18413106134697468962
15852999 172 17915760823401821415
16945 1 18268968969685409451
17846911 113 18410292467230498417
193761 8 18195242454261475715
20510252 161 18334290955191174488
20511035 2 17910374406226865263
20645477 56 18266179440356817600
20671657 1 17905035203194396929
20871998 184 18269548343182638882
21501502 16 18193836166099535403
21524375 3 18114180813606527888
2334 1 17763734400177463243
23402539 116 18263088733991659671
23419403 2 16038668065676825673
257057 1 17184473118649074858
2748010 2 18056471979397229023
305870 269 18338233894293324832
3071541 12 18048877691275744202
43471831 8 18341895212126977482
5084963 1 17701803608863284119
5706482 22 18340784679712930914
633830 44 18187927335030649484
7364860 26 18192991749596106418
74978 22 17905041809175715001
81228 2 17688889544195038138

> <PUBCHEM_SHAPE_MULTIPOLES>
299.67
5.69
2.72
1.14
3.42
1.6
0.54
-2.93
-1.33
0.15
-0.41
-0.17
-0.16
0.33

> <PUBCHEM_SHAPE_SELFOVERLAP>
555.095

> <PUBCHEM_SHAPE_VOLUME>
191.8

> <PUBCHEM_COORDINATE_TYPE>
2
5
10

$$$$

