656826
  -OEChem-07051213043D

 51 50  0     1  0  0  0  0  0999 V2000
    1.5620   -1.3738    1.9626 Cl  0  0  0  0  0  0  0  0  0  0  0  0
    2.8486   -1.8459   -0.9052 O   0  0  0  0  0  0  0  0  0  0  0  0
   -9.7619    0.0954   -0.5918 O   0  0  0  0  0  0  0  0  0  0  0  0
   -8.6692    1.4179    0.9032 O   0  0  0  0  0  0  0  0  0  0  0  0
    2.8425   -0.5409   -0.3315 C   0  0  1  0  0  0  0  0  0  0  0  0
    1.5546   -0.3345    0.4925 C   0  0  1  0  0  0  0  0  0  0  0  0
    0.2591   -0.6301   -0.2857 C   0  0  0  0  0  0  0  0  0  0  0  0
    4.1379   -0.3117    0.4638 C   0  0  0  0  0  0  0  0  0  0  0  0
   -1.0251   -0.0557    0.3281 C   0  0  0  0  0  0  0  0  0  0  0  0
   -2.2900   -0.4289   -0.4490 C   0  0  0  0  0  0  0  0  0  0  0  0
    5.3685   -0.0371   -0.4151 C   0  0  0  0  0  0  0  0  0  0  0  0
   -3.5697    0.1524    0.1627 C   0  0  0  0  0  0  0  0  0  0  0  0
    6.6348    0.2635    0.3924 C   0  0  0  0  0  0  0  0  0  0  0  0
   -4.8795   -0.2669   -0.5154 C   0  0  0  0  0  0  0  0  0  0  0  0
    7.8441    0.6093   -0.4818 C   0  0  0  0  0  0  0  0  0  0  0  0
   -6.1213    0.3845    0.1037 C   0  0  0  0  0  0  0  0  0  0  0  0
    9.0878    0.9799    0.3269 C   0  0  0  0  0  0  0  0  0  0  0  0
   -7.4154   -0.0531   -0.5834 C   0  0  0  0  0  0  0  0  0  0  0  0
   10.2391    1.3846   -0.5812 C   0  0  0  0  0  0  0  0  0  0  0  0
   -8.6470    0.5910    0.0042 C   0  0  0  0  0  0  0  0  0  0  0  0
    2.8082    0.1705   -1.1664 H   0  0  0  0  0  0  0  0  0  0  0  0
    1.5336    0.6999    0.8540 H   0  0  0  0  0  0  0  0  0  0  0  0
    0.1432   -1.7123   -0.4288 H   0  0  0  0  0  0  0  0  0  0  0  0
    0.3574   -0.2012   -1.2919 H   0  0  0  0  0  0  0  0  0  0  0  0
    4.3554   -1.1870    1.0880 H   0  0  0  0  0  0  0  0  0  0  0  0
    4.0029    0.5483    1.1313 H   0  0  0  0  0  0  0  0  0  0  0  0
   -1.1309   -0.4104    1.3599 H   0  0  0  0  0  0  0  0  0  0  0  0
   -0.9394    1.0368    0.3775 H   0  0  0  0  0  0  0  0  0  0  0  0
   -2.1983   -0.0811   -1.4851 H   0  0  0  0  0  0  0  0  0  0  0  0
   -2.3777   -1.5216   -0.4877 H   0  0  0  0  0  0  0  0  0  0  0  0
    5.5562   -0.8996   -1.0652 H   0  0  0  0  0  0  0  0  0  0  0  0
    5.1537    0.8150   -1.0718 H   0  0  0  0  0  0  0  0  0  0  0  0
   -3.6191   -0.1385    1.2198 H   0  0  0  0  0  0  0  0  0  0  0  0
   -3.4977    1.2473    0.1465 H   0  0  0  0  0  0  0  0  0  0  0  0
    6.4344    1.1018    1.0712 H   0  0  0  0  0  0  0  0  0  0  0  0
    6.8777   -0.6018    1.0211 H   0  0  0  0  0  0  0  0  0  0  0  0
   -4.9762   -1.3581   -0.4608 H   0  0  0  0  0  0  0  0  0  0  0  0
   -4.8289   -0.0057   -1.5796 H   0  0  0  0  0  0  0  0  0  0  0  0
    8.0730   -0.2426   -1.1337 H   0  0  0  0  0  0  0  0  0  0  0  0
    7.5796    1.4478   -1.1381 H   0  0  0  0  0  0  0  0  0  0  0  0
   -6.1717    0.1339    1.1707 H   0  0  0  0  0  0  0  0  0  0  0  0
   -6.0270    1.4761    0.0449 H   0  0  0  0  0  0  0  0  0  0  0  0
    8.8568    1.8099    1.0046 H   0  0  0  0  0  0  0  0  0  0  0  0
    9.3938    0.1294    0.9468 H   0  0  0  0  0  0  0  0  0  0  0  0
    3.6097   -1.9035   -1.5068 H   0  0  0  0  0  0  0  0  0  0  0  0
   -7.3732    0.2090   -1.6466 H   0  0  0  0  0  0  0  0  0  0  0  0
   -7.5237   -1.1399   -0.4918 H   0  0  0  0  0  0  0  0  0  0  0  0
   10.5134    0.5665   -1.2548 H   0  0  0  0  0  0  0  0  0  0  0  0
    9.9731    2.2558   -1.1882 H   0  0  0  0  0  0  0  0  0  0  0  0
   11.1194    1.6428    0.0158 H   0  0  0  0  0  0  0  0  0  0  0  0
  -10.5805    0.4870   -0.2193 H   0  0  0  0  0  0  0  0  0  0  0  0
  1  6  1  0  0  0  0
  2  5  1  0  0  0  0
  2 45  1  0  0  0  0
  3 20  1  0  0  0  0
  3 51  1  0  0  0  0
  4 20  2  0  0  0  0
  5  6  1  0  0  0  0
  5  8  1  0  0  0  0
  5 21  1  0  0  0  0
  6  7  1  0  0  0  0
  6 22  1  0  0  0  0
  7  9  1  0  0  0  0
  7 23  1  0  0  0  0
  7 24  1  0  0  0  0
  8 11  1  0  0  0  0
  8 25  1  0  0  0  0
  8 26  1  0  0  0  0
  9 10  1  0  0  0  0
  9 27  1  0  0  0  0
  9 28  1  0  0  0  0
 10 12  1  0  0  0  0
 10 29  1  0  0  0  0
 10 30  1  0  0  0  0
 11 13  1  0  0  0  0
 11 31  1  0  0  0  0
 11 32  1  0  0  0  0
 12 14  1  0  0  0  0
 12 33  1  0  0  0  0
 12 34  1  0  0  0  0
 13 15  1  0  0  0  0
 13 35  1  0  0  0  0
 13 36  1  0  0  0  0
 14 16  1  0  0  0  0
 14 37  1  0  0  0  0
 14 38  1  0  0  0  0
 15 17  1  0  0  0  0
 15 39  1  0  0  0  0
 15 40  1  0  0  0  0
 16 18  1  0  0  0  0
 16 41  1  0  0  0  0
 16 42  1  0  0  0  0
 17 19  1  0  0  0  0
 17 43  1  0  0  0  0
 17 44  1  0  0  0  0
 18 20  1  0  0  0  0
 18 46  1  0  0  0  0
 18 47  1  0  0  0  0
 19 48  1  0  0  0  0
 19 49  1  0  0  0  0
 19 50  1  0  0  0  0
M  END
> <PUBCHEM_COMPOUND_CID>
656826

> <PUBCHEM_CONFORMER_RMSD>
1.4

> <PUBCHEM_CONFORMER_DIVERSEORDER>
1
78
87
130
82
93
10
141
17
45
32
95
52
133
18
131
14
97
35
51
106
31
47
73
99
2
80
103
8
120
43
16
101
21
44
56
113
76
121
59
37
117
127
65
102
109
143
42
107
89
116
136
34
48
96
88
54
100
69
57
4
29
111
15
126
20
72
90
123
24
71
41
75
38
79
50
63
118
39
58
91
49
122
84
129
62
81
115
70
64
128
11
105
9
134
25
86
13
92
94
28
33
83
139
27
144
60
22
53
40
5
112
138
19
3
7
61
132
68
98
77
23
124
142
46
137
104
119
12
66
114
125
6
30
36
110
108
26
55
67
135
74
85
140

> <PUBCHEM_MMFF94_PARTIAL_CHARGES>
10
1 -0.29
18 0.06
2 -0.68
20 0.66
3 -0.65
4 -0.57
45 0.4
5 0.28
51 0.5
6 0.29

> <PUBCHEM_EFFECTIVE_ROTOR_COUNT>
14

> <PUBCHEM_PHARMACOPHORE_FEATURES>
7
1 19 hydrophobe
1 2 acceptor
1 2 donor
1 3 acceptor
1 4 acceptor
3 3 4 20 anion
5 8 11 13 15 17 hydrophobe

> <PUBCHEM_HEAVY_ATOM_COUNT>
20

> <PUBCHEM_ATOM_DEF_STEREO_COUNT>
0

> <PUBCHEM_ATOM_UDEF_STEREO_COUNT>
2

> <PUBCHEM_BOND_DEF_STEREO_COUNT>
0

> <PUBCHEM_BOND_UDEF_STEREO_COUNT>
0

> <PUBCHEM_ISOTOPIC_ATOM_COUNT>
0

> <PUBCHEM_COMPONENT_COUNT>
1

> <PUBCHEM_CACTVS_TAUTO_COUNT>
1

> <PUBCHEM_CONFORMER_ID>
000A05BA00000001

> <PUBCHEM_MMFF94_ENERGY>
10.8261

> <PUBCHEM_FEATURE_SELFOVERLAP>
35.577

> <PUBCHEM_SHAPE_FINGERPRINT>
106641 1 14836124347594728652
11315181 36 17676485047985312363
11638347 137 13398636061012844072
12498461 61 11455889135483402136
13073987 5 16988287611703647087
14123256 10 18187365432605974028
14251764 18 17240484736765664795
14251764 46 18410575084668353676
14344974 52 17604154722848809488
14428016 248 18410289207356043516
15510794 2 18409162212528115078
155225 1 18413108359490833428
15690457 1 10159699088539522568
15706992 2 17846208948351058572
15773216 30 17459178737760631534
1754911 235 17530686497983688228
20735858 18 15770059432374505474
21095086 128 7420949768489319476
21150785 3 17894349986577561145
21267235 1 5256405006639591611
22224240 67 16630808802711264114
232437 2 9439405731106647460
23521765 1 18335140899628697231
246663 6 7276834589050753956
28498 318 4823216108587980252
335352 9 14417854730513916397
33684 2 18410294713498244590
4325135 7 18187365428174006236
5758199 1 17989207053180705835
67123 10 18335139786725739503
8209 1 17240483606519092990

> <PUBCHEM_SHAPE_MULTIPOLES>
395.85
36.41
1.19
1.01
10.29
0.3
0.1
-20.36
1.86
-1.5
0.24
0.19
0.25
-0.49

> <PUBCHEM_SHAPE_SELFOVERLAP>
720.109

> <PUBCHEM_SHAPE_VOLUME>
251.7

> <PUBCHEM_COORDINATE_TYPE>
2
5
10

$$$$

