442839
  -OEChem-07051212593D

 54 55  0     0  0  0  0  0  0999 V2000
    4.2760   -0.7534    0.0180 O   0  0  0  0  0  0  0  0  0  0  0  0
    0.4710    1.8258   -1.3512 O   0  0  0  0  0  0  0  0  0  0  0  0
   -0.1741    3.8691    0.4194 O   0  0  0  0  0  0  0  0  0  0  0  0
    5.7436    1.0005   -0.3086 O   0  0  0  0  0  0  0  0  0  0  0  0
   -0.7957   -3.2020   -0.0079 N   0  0  0  0  0  0  0  0  0  0  0  0
   -1.6760   -1.5587    1.1993 N   0  0  0  0  0  0  0  0  0  0  0  0
    0.6763   -2.2607    1.7917 C   0  0  0  0  0  0  0  0  0  0  0  0
   -2.5759   -1.9844    0.2546 C   0  0  0  0  0  0  0  0  0  0  0  0
   -3.9048   -1.3599    0.1566 C   0  0  0  0  0  0  0  0  0  0  0  0
   -0.6149   -2.3124    1.0146 C   0  0  0  0  0  0  0  0  0  0  0  0
    1.6742   -1.2873    1.1585 C   0  0  0  0  0  0  0  0  0  0  0  0
   -2.0522   -3.0030   -0.5065 C   0  0  0  0  0  0  0  0  0  0  0  0
   -3.9781   -0.1432   -0.7967 C   0  0  0  0  0  0  0  0  0  0  0  0
    2.9661   -1.2120    1.9695 C   0  0  0  0  0  0  0  0  0  0  0  0
   -2.9615    0.9246   -0.4746 C   0  0  0  0  0  0  0  0  0  0  0  0
   -2.5927   -3.7916   -1.6248 C   0  0  0  0  0  0  0  0  0  0  0  0
    3.9809   -0.2787    1.3244 C   0  0  0  0  0  0  0  0  0  0  0  0
   -1.6985    0.8864   -1.0653 C   0  0  0  0  0  0  0  0  0  0  0  0
   -3.2851    1.9500    0.4140 C   0  0  0  0  0  0  0  0  0  0  0  0
   -0.7591    1.8737   -0.7677 C   0  0  0  0  0  0  0  0  0  0  0  0
   -2.3456    2.9372    0.7117 C   0  0  0  0  0  0  0  0  0  0  0  0
   -1.0827    2.8991    0.1208 C   0  0  0  0  0  0  0  0  0  0  0  0
    5.1798   -0.0145   -0.6948 C   0  0  0  0  0  0  0  0  0  0  0  0
    0.7215    0.7448   -2.2475 C   0  0  0  0  0  0  0  0  0  0  0  0
    5.3918   -0.6305   -2.0444 C   0  0  0  0  0  0  0  0  0  0  0  0
   -0.5843    4.8812    1.3369 C   0  0  0  0  0  0  0  0  0  0  0  0
    0.4511   -1.9484    2.8186 H   0  0  0  0  0  0  0  0  0  0  0  0
    1.1118   -3.2656    1.8500 H   0  0  0  0  0  0  0  0  0  0  0  0
   -4.2168   -1.0398    1.1596 H   0  0  0  0  0  0  0  0  0  0  0  0
   -4.6459   -2.1013   -0.1666 H   0  0  0  0  0  0  0  0  0  0  0  0
    1.8867   -1.6098    0.1318 H   0  0  0  0  0  0  0  0  0  0  0  0
    1.2252   -0.2883    1.0884 H   0  0  0  0  0  0  0  0  0  0  0  0
   -3.8325   -0.4787   -1.8321 H   0  0  0  0  0  0  0  0  0  0  0  0
   -4.9885    0.2835   -0.7623 H   0  0  0  0  0  0  0  0  0  0  0  0
   -0.1218   -3.8816   -0.3350 H   0  0  0  0  0  0  0  0  0  0  0  0
    3.3985   -2.2177    2.0397 H   0  0  0  0  0  0  0  0  0  0  0  0
    2.7522   -0.8707    2.9886 H   0  0  0  0  0  0  0  0  0  0  0  0
   -3.2678   -4.5685   -1.2523 H   0  0  0  0  0  0  0  0  0  0  0  0
   -1.7969   -4.2788   -2.1978 H   0  0  0  0  0  0  0  0  0  0  0  0
   -3.1544   -3.1536   -2.3146 H   0  0  0  0  0  0  0  0  0  0  0  0
    3.5741    0.7378    1.2658 H   0  0  0  0  0  0  0  0  0  0  0  0
    4.8971   -0.2634    1.9258 H   0  0  0  0  0  0  0  0  0  0  0  0
   -1.5045    0.0709   -1.7538 H   0  0  0  0  0  0  0  0  0  0  0  0
   -4.2656    1.9879    0.8814 H   0  0  0  0  0  0  0  0  0  0  0  0
   -2.6663    3.7019    1.4107 H   0  0  0  0  0  0  0  0  0  0  0  0
    1.7491    0.8579   -2.6086 H   0  0  0  0  0  0  0  0  0  0  0  0
    0.0686    0.7900   -3.1258 H   0  0  0  0  0  0  0  0  0  0  0  0
    0.6699   -0.2238   -1.7392 H   0  0  0  0  0  0  0  0  0  0  0  0
    5.7912   -1.6414   -1.9314 H   0  0  0  0  0  0  0  0  0  0  0  0
    6.1128   -0.0312   -2.6077 H   0  0  0  0  0  0  0  0  0  0  0  0
    4.4480   -0.6483   -2.5951 H   0  0  0  0  0  0  0  0  0  0  0  0
   -1.4185    5.4706    0.9413 H   0  0  0  0  0  0  0  0  0  0  0  0
   -0.8000    4.4650    2.3268 H   0  0  0  0  0  0  0  0  0  0  0  0
    0.2602    5.5676    1.4581 H   0  0  0  0  0  0  0  0  0  0  0  0
  1 17  1  0  0  0  0
  1 23  1  0  0  0  0
  2 20  1  0  0  0  0
  2 24  1  0  0  0  0
  3 22  1  0  0  0  0
  3 26  1  0  0  0  0
  4 23  2  0  0  0  0
  5 10  1  0  0  0  0
  5 12  1  0  0  0  0
  5 35  1  0  0  0  0
  6  8  1  0  0  0  0
  6 10  2  0  0  0  0
  7 10  1  0  0  0  0
  7 11  1  0  0  0  0
  7 27  1  0  0  0  0
  7 28  1  0  0  0  0
  8  9  1  0  0  0  0
  8 12  2  0  0  0  0
  9 13  1  0  0  0  0
  9 29  1  0  0  0  0
  9 30  1  0  0  0  0
 11 14  1  0  0  0  0
 11 31  1  0  0  0  0
 11 32  1  0  0  0  0
 12 16  1  0  0  0  0
 13 15  1  0  0  0  0
 13 33  1  0  0  0  0
 13 34  1  0  0  0  0
 14 17  1  0  0  0  0
 14 36  1  0  0  0  0
 14 37  1  0  0  0  0
 15 18  2  0  0  0  0
 15 19  1  0  0  0  0
 16 38  1  0  0  0  0
 16 39  1  0  0  0  0
 16 40  1  0  0  0  0
 17 41  1  0  0  0  0
 17 42  1  0  0  0  0
 18 20  1  0  0  0  0
 18 43  1  0  0  0  0
 19 21  2  0  0  0  0
 19 44  1  0  0  0  0
 20 22  2  0  0  0  0
 21 22  1  0  0  0  0
 21 45  1  0  0  0  0
 23 25  1  0  0  0  0
 24 46  1  0  0  0  0
 24 47  1  0  0  0  0
 24 48  1  0  0  0  0
 25 49  1  0  0  0  0
 25 50  1  0  0  0  0
 25 51  1  0  0  0  0
 26 52  1  0  0  0  0
 26 53  1  0  0  0  0
 26 54  1  0  0  0  0
M  END
> <PUBCHEM_COMPOUND_CID>
442839

> <PUBCHEM_CONFORMER_RMSD>
1.2

> <PUBCHEM_CONFORMER_DIVERSEORDER>
3
130
30
20
34
1
105
44
14
126
21
62
36
132
90
88
140
144
45
141
133
74
114
94
22
67
38
25
54
69
56
95
37
19
111
100
15
116
27
72
99
107
32
110
97
84
131
43
58
139
145
91
125
18
87
82
78
12
119
68
16
89
40
81
24
104
6
138
35
77
41
108
92
61
102
96
31
7
142
122
4
60
118
86
135
50
63
10
23
9
39
51
113
59
123
70
117
71
93
13
121
124
147
26
98
115
136
8
79
55
103
48
28
75
134
127
143
47
76
11
5
53
146
109
46
29
83
17
112
65
73
120
80
129
66
106
2
137
64
52
85
128
42
101
33
57
49

> <PUBCHEM_MMFF94_PARTIAL_CHARGES>
28
1 -0.43
10 0.01
12 -0.33
13 0.14
15 -0.14
16 0.18
17 0.28
18 -0.15
19 -0.15
2 -0.36
20 0.08
21 -0.15
22 0.08
23 0.66
24 0.28
25 0.06
26 0.28
3 -0.36
35 0.27
4 -0.57
43 0.15
44 0.15
45 0.15
5 0.03
6 -0.57
7 0.18
8 0.05
9 0.18

> <PUBCHEM_EFFECTIVE_ROTOR_COUNT>
11

> <PUBCHEM_PHARMACOPHORE_FEATURES>
7
1 2 acceptor
1 3 acceptor
1 4 acceptor
1 5 donor
3 5 6 10 cation
5 5 6 8 10 12 rings
6 15 18 19 20 21 22 rings

> <PUBCHEM_HEAVY_ATOM_COUNT>
26

> <PUBCHEM_ATOM_DEF_STEREO_COUNT>
0

> <PUBCHEM_ATOM_UDEF_STEREO_COUNT>
0

> <PUBCHEM_BOND_DEF_STEREO_COUNT>
0

> <PUBCHEM_BOND_UDEF_STEREO_COUNT>
0

> <PUBCHEM_ISOTOPIC_ATOM_COUNT>
0

> <PUBCHEM_COMPONENT_COUNT>
1

> <PUBCHEM_CACTVS_TAUTO_COUNT>
3

> <PUBCHEM_CONFORMER_ID>
0006C1D700000003

> <PUBCHEM_MMFF94_ENERGY>
53.8405

> <PUBCHEM_FEATURE_SELFOVERLAP>
35.524

> <PUBCHEM_SHAPE_FINGERPRINT>
10454371 7 18341880859264100876
10670039 82 18342736364692806782
10871710 139 18344148089850781875
1100329 8 18339934701770049075
11513181 2 18189899905629611919
11578080 2 15502650560096061457
12788726 201 18412825806777661208
13615921 28 18337962177361316821
13761468 95 17985547995048711574
13947920 75 18129929153570311998
13994607 96 17774709926893310203
14117953 113 17481728750097553412
14840074 17 17702933863518968116
14910302 57 18040720268744727662
14955137 171 18267571434672788691
15876981 60 18198342858151365102
17492 54 18129961060607936479
238 59 15750122310224314095
35225 105 18267321982586445652
469060 322 14691703447715040346
6034566 193 17985263229806090989
6287921 2 17761778759591203867

> <PUBCHEM_SHAPE_MULTIPOLES>
501.63
8.91
5.41
1.89
15.94
3.27
-0.28
-1.3
-2.54
-5.06
1.18
1.56
-0.45
-1.32

> <PUBCHEM_SHAPE_SELFOVERLAP>
1033.06

> <PUBCHEM_SHAPE_VOLUME>
288.6

> <PUBCHEM_COORDINATE_TYPE>
2
5
10

$$$$

