247298
  -OEChem-07051213072D

 80 83  0     1  0  0  0  0  0999 V2000
    3.8076   -3.2056    0.0000 N   0  0  3  0  0  0  0  0  0  0  0  0
    7.3931   -0.1074    0.0000 C   0  0  1  0  0  0  0  0  0  0  0  0
    7.3931   -1.1074    0.0000 C   0  0  2  0  0  0  0  0  0  0  0  0
    6.5271   -1.6074    0.0000 C   0  0  1  0  0  0  0  0  0  0  0  0
    5.6610   -1.1074    0.0000 C   0  0  1  0  0  0  0  0  0  0  0  0
    4.7510   -1.6143    0.0000 C   0  0  2  0  0  0  0  0  0  0  0  0
    8.3393    0.1973    0.0000 C   0  0  2  0  0  0  0  0  0  0  0  0
    6.5271    0.3926    0.0000 C   0  0  0  0  0  0  0  0  0  0  0  0
    5.6610   -0.1074    0.0000 C   0  0  0  0  0  0  0  0  0  0  0  0
    4.7430   -2.6559    0.0000 C   0  0  1  0  0  0  0  0  0  0  0  0
    8.3393   -1.4122    0.0000 C   0  0  0  0  0  0  0  0  0  0  0  0
    6.5431   -2.6489    0.0000 C   0  0  0  0  0  0  0  0  0  0  0  0
    8.9229   -0.6074    0.0000 C   0  0  0  0  0  0  0  0  0  0  0  0
    5.6451   -3.1767    0.0000 C   0  0  0  0  0  0  0  0  0  0  0  0
    3.8242   -1.0502    0.0000 C   0  0  0  0  0  0  0  0  0  0  0  0
    7.3931    0.8926    0.0000 C   0  0  0  0  0  0  0  0  0  0  0  0
    8.6500    1.1478    0.0000 C   0  0  1  0  0  0  0  0  0  0  0  0
    4.7587   -0.6143    0.0000 C   0  0  0  0  0  0  0  0  0  0  0  0
    2.8763   -1.5782    0.0000 C   0  0  0  0  0  0  0  0  0  0  0  0
    2.8680   -2.6631    0.0000 C   0  0  2  0  0  0  0  0  0  0  0  0
    9.6285    1.3540    0.0000 C   0  0  0  0  0  0  0  0  0  0  0  0
    7.9821    1.8921    0.0000 C   0  0  0  0  0  0  0  0  0  0  0  0
    3.8114   -4.2056    0.0000 C   0  0  0  0  0  0  0  0  0  0  0  0
    2.0000   -3.1598    0.0000 C   0  0  0  0  0  0  0  0  0  0  0  0
    9.9391    2.3046    0.0000 C   0  0  0  0  0  0  0  0  0  0  0  0
   10.9176    2.5108    0.0000 C   0  0  0  0  0  0  0  0  0  0  0  0
   11.2283    3.4613    0.0000 C   0  0  0  0  0  0  0  0  0  0  0  0
   12.2068    3.6675    0.0000 C   0  0  0  0  0  0  0  0  0  0  0  0
   10.5605    4.2056    0.0000 C   0  0  0  0  0  0  0  0  0  0  0  0
    7.4830   -1.9527    0.0000 H   0  0  0  0  0  0  0  0  0  0  0  0
    7.2664   -2.0268    0.0000 H   0  0  0  0  0  0  0  0  0  0  0  0
    6.3972   -0.6824    0.0000 H   0  0  0  0  0  0  0  0  0  0  0  0
    9.1790    0.3292    0.0000 H   0  0  0  0  0  0  0  0  0  0  0  0
    6.9256    0.8675    0.0000 H   0  0  0  0  0  0  0  0  0  0  0  0
    6.1285    0.8675    0.0000 H   0  0  0  0  0  0  0  0  0  0  0  0
    5.4490    0.4752    0.0000 H   0  0  0  0  0  0  0  0  0  0  0  0
    5.0504   -0.2151    0.0000 H   0  0  0  0  0  0  0  0  0  0  0  0
    4.7463   -3.5059    0.0000 H   0  0  0  0  0  0  0  0  0  0  0  0
    8.0883   -1.9791    0.0000 H   0  0  0  0  0  0  0  0  0  0  0  0
    8.8767   -1.7214    0.0000 H   0  0  0  0  0  0  0  0  0  0  0  0
    6.7612   -3.2293    0.0000 H   0  0  0  0  0  0  0  0  0  0  0  0
    7.1523   -2.5334    0.0000 H   0  0  0  0  0  0  0  0  0  0  0  0
    9.3838   -1.0222    0.0000 H   0  0  0  0  0  0  0  0  0  0  0  0
    9.3838   -0.1927    0.0000 H   0  0  0  0  0  0  0  0  0  0  0  0
    5.2478   -3.6527    0.0000 H   0  0  0  0  0  0  0  0  0  0  0  0
    6.0460   -3.6496    0.0000 H   0  0  0  0  0  0  0  0  0  0  0  0
    4.2324   -0.5835    0.0000 H   0  0  0  0  0  0  0  0  0  0  0  0
    3.4343   -0.5682    0.0000 H   0  0  0  0  0  0  0  0  0  0  0  0
    8.0131    0.8926    0.0000 H   0  0  0  0  0  0  0  0  0  0  0  0
    7.3931    1.5126    0.0000 H   0  0  0  0  0  0  0  0  0  0  0  0
    6.7731    0.8926    0.0000 H   0  0  0  0  0  0  0  0  0  0  0  0
    8.0433    1.0200    0.0000 H   0  0  0  0  0  0  0  0  0  0  0  0
    5.3787   -0.6191    0.0000 H   0  0  0  0  0  0  0  0  0  0  0  0
    4.7635    0.0057    0.0000 H   0  0  0  0  0  0  0  0  0  0  0  0
    4.1388   -0.6095    0.0000 H   0  0  0  0  0  0  0  0  0  0  0  0
    2.6718   -0.9929    0.0000 H   0  0  0  0  0  0  0  0  0  0  0  0
    2.2647   -1.6795    0.0000 H   0  0  0  0  0  0  0  0  0  0  0  0
    2.8668   -3.2831    0.0000 H   0  0  0  0  0  0  0  0  0  0  0  0
    9.6490    0.7344    0.0000 H   0  0  0  0  0  0  0  0  0  0  0  0
   10.2423    1.2667    0.0000 H   0  0  0  0  0  0  0  0  0  0  0  0
    8.4436    2.3062    0.0000 H   0  0  0  0  0  0  0  0  0  0  0  0
    7.5681    2.3536    0.0000 H   0  0  0  0  0  0  0  0  0  0  0  0
    7.5207    1.4781    0.0000 H   0  0  0  0  0  0  0  0  0  0  0  0
    3.1914   -4.2080    0.0000 H   0  0  0  0  0  0  0  0  0  0  0  0
    3.8138   -4.8256    0.0000 H   0  0  0  0  0  0  0  0  0  0  0  0
    4.4314   -4.2032    0.0000 H   0  0  0  0  0  0  0  0  0  0  0  0
    1.6921   -2.6216    0.0000 H   0  0  0  0  0  0  0  0  0  0  0  0
    1.4619   -3.4677    0.0000 H   0  0  0  0  0  0  0  0  0  0  0  0
    2.3079   -3.6979    0.0000 H   0  0  0  0  0  0  0  0  0  0  0  0
    9.9186    2.9242    0.0000 H   0  0  0  0  0  0  0  0  0  0  0  0
    9.3253    2.3919    0.0000 H   0  0  0  0  0  0  0  0  0  0  0  0
   10.9382    1.8911    0.0000 H   0  0  0  0  0  0  0  0  0  0  0  0
   11.5315    2.4234    0.0000 H   0  0  0  0  0  0  0  0  0  0  0  0
   11.4209    4.0506    0.0000 H   0  0  0  0  0  0  0  0  0  0  0  0
   12.3347    3.0608    0.0000 H   0  0  0  0  0  0  0  0  0  0  0  0
   12.8135    3.7954    0.0000 H   0  0  0  0  0  0  0  0  0  0  0  0
   12.0790    4.2742    0.0000 H   0  0  0  0  0  0  0  0  0  0  0  0
   11.0219    4.6197    0.0000 H   0  0  0  0  0  0  0  0  0  0  0  0
   10.1464    4.6671    0.0000 H   0  0  0  0  0  0  0  0  0  0  0  0
   10.0990    3.7915    0.0000 H   0  0  0  0  0  0  0  0  0  0  0  0
  1 10  1  0  0  0  0
  1 20  1  0  0  0  0
  1 23  1  0  0  0  0
  2  3  1  0  0  0  0
  2  7  1  0  0  0  0
  2  8  1  0  0  0  0
  2 16  1  1  0  0  0
  3  4  1  0  0  0  0
  3 11  1  0  0  0  0
  3 30  1  6  0  0  0
  4  5  1  0  0  0  0
  4 12  1  0  0  0  0
  4 31  1  1  0  0  0
  5  6  1  0  0  0  0
  5  9  1  0  0  0  0
  5 32  1  6  0  0  0
  6 10  1  0  0  0  0
  6 15  1  0  0  0  0
  6 18  1  1  0  0  0
  7 13  1  0  0  0  0
  7 17  1  0  0  0  0
  7 33  1  6  0  0  0
  8  9  1  0  0  0  0
  8 34  1  0  0  0  0
  8 35  1  0  0  0  0
  9 36  1  0  0  0  0
  9 37  1  0  0  0  0
 10 14  1  0  0  0  0
 10 38  1  6  0  0  0
 11 13  1  0  0  0  0
 11 39  1  0  0  0  0
 11 40  1  0  0  0  0
 12 14  1  0  0  0  0
 12 41  1  0  0  0  0
 12 42  1  0  0  0  0
 13 43  1  0  0  0  0
 13 44  1  0  0  0  0
 14 45  1  0  0  0  0
 14 46  1  0  0  0  0
 15 19  1  0  0  0  0
 15 47  1  0  0  0  0
 15 48  1  0  0  0  0
 16 49  1  0  0  0  0
 16 50  1  0  0  0  0
 16 51  1  0  0  0  0
 17 21  1  0  0  0  0
 17 22  1  6  0  0  0
 17 52  1  0  0  0  0
 18 53  1  0  0  0  0
 18 54  1  0  0  0  0
 18 55  1  0  0  0  0
 19 20  1  0  0  0  0
 19 56  1  0  0  0  0
 19 57  1  0  0  0  0
 20 24  1  1  0  0  0
 20 58  1  0  0  0  0
 21 25  1  0  0  0  0
 21 59  1  0  0  0  0
 21 60  1  0  0  0  0
 22 61  1  0  0  0  0
 22 62  1  0  0  0  0
 22 63  1  0  0  0  0
 23 64  1  0  0  0  0
 23 65  1  0  0  0  0
 23 66  1  0  0  0  0
 24 67  1  0  0  0  0
 24 68  1  0  0  0  0
 24 69  1  0  0  0  0
 25 26  1  0  0  0  0
 25 70  1  0  0  0  0
 25 71  1  0  0  0  0
 26 27  1  0  0  0  0
 26 72  1  0  0  0  0
 26 73  1  0  0  0  0
 27 28  1  0  0  0  0
 27 29  1  0  0  0  0
 27 74  1  0  0  0  0
 28 75  1  0  0  0  0
 28 76  1  0  0  0  0
 28 77  1  0  0  0  0
 29 78  1  0  0  0  0
 29 79  1  0  0  0  0
 29 80  1  0  0  0  0
M  END
> <PUBCHEM_COMPOUND_CID>
247298

> <PUBCHEM_COMPOUND_CANONICALIZED>
1

> <PUBCHEM_CACTVS_COMPLEXITY>
569

> <PUBCHEM_CACTVS_HBOND_ACCEPTOR>
1

> <PUBCHEM_CACTVS_HBOND_DONOR>
0

> <PUBCHEM_CACTVS_ROTATABLE_BOND>
5

> <PUBCHEM_CACTVS_SUBSKEYS>
AAADcfB6AAAAAAAAAAAAAAAAAAAAAYAAAAA8YIAAAAAAAGDwAAAAHAAAAAAADyjBAAQCAAMAAAAAAAAAAAAAAAAAAAAAAAAIAAAAAAIAgAAEAAAAAACAAAEQgMAPgAAAAAAAAACQAASAACQAAQAACAAAAA==

> <PUBCHEM_IUPAC_OPENEYE_NAME>
(1R,3aS,3bS,5aR,7S,9aR,9bS,11aR)-1-[(1R)-1,5-dimethylhexyl]-6,7,9a,11a-tetramethyl-1,2,3,3a,3b,4,5,5a,7,8,9,9b,10,11-tetradecahydroindeno[5,4-f]quinoline

> <PUBCHEM_IUPAC_CAS_NAME>
(1R,3aS,3bS,5aR,7S,9aR,9bS,11aR)-6,7,9a,11a-tetramethyl-1-[(2R)-6-methylheptan-2-yl]-1,2,3,3a,3b,4,5,5a,7,8,9,9b,10,11-tetradecahydroindeno[5,4-f]quinoline

> <PUBCHEM_IUPAC_NAME>
(1R,3aS,3bS,5aR,7S,9aR,9bS,11aR)-6,7,9a,11a-tetramethyl-1-[(2R)-6-methylheptan-2-yl]-1,2,3,3a,3b,4,5,5a,7,8,9,9b,10,11-tetradecahydroindeno[5,4-f]quinoline

> <PUBCHEM_IUPAC_SYSTEMATIC_NAME>
(1R,3aS,3bS,5aR,7S,9aR,9bS,11aR)-6,7,9a,11a-tetramethyl-1-[(2R)-6-methylheptan-2-yl]-1,2,3,3a,3b,4,5,5a,7,8,9,9b,10,11-tetradecahydroindeno[5,4-f]quinoline

> <PUBCHEM_IUPAC_TRADITIONAL_NAME>
(1R,3aS,3bS,5aR,7S,9aR,9bS,11aR)-1-[(1R)-1,5-dimethylhexyl]-6,7,9a,11a-tetramethyl-1,2,3,3a,3b,4,5,5a,7,8,9,9b,10,11-tetradecahydroindeno[5,4-f]quinoline

> <PUBCHEM_IUPAC_INCHI>
InChI=1S/C28H51N/c1-19(2)9-8-10-20(3)23-12-13-24-22-11-14-26-28(6,17-15-21(4)29(26)7)25(22)16-18-27(23,24)5/h19-26H,8-18H2,1-7H3/t20-,21+,22+,23-,24+,25+,26-,27-,28-/m1/s1

> <PUBCHEM_IUPAC_INCHIKEY>
GWWAUGFEXKPHIM-OXKYWHGHSA-N

> <PUBCHEM_XLOGP3_AA>
9.5

> <PUBCHEM_EXACT_MASS>
401.402151

> <PUBCHEM_MOLECULAR_FORMULA>
C28H51N

> <PUBCHEM_MOLECULAR_WEIGHT>
401.71124

> <PUBCHEM_OPENEYE_CAN_SMILES>
CC1CCC2(C3CCC4(C(C3CCC2N1C)CCC4C(C)CCCC(C)C)C)C

> <PUBCHEM_OPENEYE_ISO_SMILES>
C[C@H]1CC[C@@]2([C@H]3CC[C@]4([C@H]([C@@H]3CC[C@H]2N1C)CC[C@@H]4[C@H](C)CCCC(C)C)C)C

> <PUBCHEM_CACTVS_TPSA>
3.2

> <PUBCHEM_MONOISOTOPIC_WEIGHT>
401.402151

> <PUBCHEM_TOTAL_CHARGE>
0

> <PUBCHEM_HEAVY_ATOM_COUNT>
29

> <PUBCHEM_ATOM_DEF_STEREO_COUNT>
9

> <PUBCHEM_ATOM_UDEF_STEREO_COUNT>
0

> <PUBCHEM_BOND_DEF_STEREO_COUNT>
0

> <PUBCHEM_BOND_UDEF_STEREO_COUNT>
0

> <PUBCHEM_ISOTOPIC_ATOM_COUNT>
0

> <PUBCHEM_COMPONENT_COUNT>
1

> <PUBCHEM_CACTVS_TAUTO_COUNT>
1

> <PUBCHEM_COORDINATE_TYPE>
1
5
255

> <PUBCHEM_BONDANNOTATIONS>
10  38  6
17  22  6
2  16  5
20  24  5
3  30  6
4  31  5
5  32  6
6  18  5
7  33  6

$$$$

