53297356
  -OEChem-07051212582D

 52 54  0     1  0  0  0  0  0999 V2000
    6.8671    1.0950    0.0000 O   0  0  0  0  0  0  0  0  0  0  0  0
    6.0010   -0.4050    0.0000 O   0  0  0  0  0  0  0  0  0  0  0  0
    8.3719    0.8513    0.0000 O   0  0  0  0  0  0  0  0  0  0  0  0
    5.1350    1.0950    0.0000 O   0  0  0  0  0  0  0  0  0  0  0  0
   10.4022    0.0778    0.0000 O   0  0  0  0  0  0  0  0  0  0  0  0
    6.8671    3.0950    0.0000 O   0  0  0  0  0  0  0  0  0  0  0  0
    5.1350    4.0950    0.0000 O   0  0  0  0  0  0  0  0  0  0  0  0
    3.4030    3.0950    0.0000 O   0  0  0  0  0  0  0  0  0  0  0  0
    6.0010   -3.4050    0.0000 O   0  0  0  0  0  0  0  0  0  0  0  0
    2.5369    1.5950    0.0000 O   0  0  0  0  0  0  0  0  0  0  0  0
    7.7331   -3.4050    0.0000 O   0  0  0  0  0  0  0  0  0  0  0  0
    7.7331   -0.4050    0.0000 C   0  0  1  0  0  0  0  0  0  0  0  0
    8.6793   -0.1003    0.0000 C   0  0  1  0  0  0  0  0  0  0  0  0
    7.7331   -1.4050    0.0000 C   0  0  1  0  0  0  0  0  0  0  0  0
    6.8671    0.0950    0.0000 C   0  0  1  0  0  0  0  0  0  0  0  0
    9.2629   -0.9050    0.0000 C   0  0  0  0  0  0  0  0  0  0  0  0
    8.6793   -1.7097    0.0000 C   0  0  0  0  0  0  0  0  0  0  0  0
    6.8671   -1.9050    0.0000 C   0  0  0  0  0  0  0  0  0  0  0  0
    6.0010    1.5950    0.0000 C   0  0  2  0  0  0  0  0  0  0  0  0
    9.4893    0.4861    0.0000 C   0  0  0  0  0  0  0  0  0  0  0  0
    6.0010    2.5950    0.0000 C   0  0  1  0  0  0  0  0  0  0  0  0
    5.1350    3.0950    0.0000 C   0  0  2  0  0  0  0  0  0  0  0  0
    4.2690    2.5950    0.0000 C   0  0  1  0  0  0  0  0  0  0  0  0
    4.2690    1.5950    0.0000 C   0  0  1  0  0  0  0  0  0  0  0  0
    6.0010   -1.4050    0.0000 C   0  0  0  0  0  0  0  0  0  0  0  0
    6.8671   -2.9050    0.0000 C   0  0  0  0  0  0  0  0  0  0  0  0
    3.4030    1.0950    0.0000 C   0  0  0  0  0  0  0  0  0  0  0  0
    6.0010   -4.4050    0.0000 C   0  0  0  0  0  0  0  0  0  0  0  0
    7.8230    0.4402    0.0000 H   0  0  0  0  0  0  0  0  0  0  0  0
    7.8230   -2.2502    0.0000 H   0  0  0  0  0  0  0  0  0  0  0  0
    6.3301    0.4050    0.0000 H   0  0  0  0  0  0  0  0  0  0  0  0
    9.8829   -0.9050    0.0000 H   0  0  0  0  0  0  0  0  0  0  0  0
    8.8719   -2.2990    0.0000 H   0  0  0  0  0  0  0  0  0  0  0  0
    6.5380    1.9050    0.0000 H   0  0  0  0  0  0  0  0  0  0  0  0
    9.8369    0.9995    0.0000 H   0  0  0  0  0  0  0  0  0  0  0  0
    9.0441    0.9176    0.0000 H   0  0  0  0  0  0  0  0  0  0  0  0
    6.5380    2.2850    0.0000 H   0  0  0  0  0  0  0  0  0  0  0  0
    5.6720    3.4050    0.0000 H   0  0  0  0  0  0  0  0  0  0  0  0
    4.2690    3.2150    0.0000 H   0  0  0  0  0  0  0  0  0  0  0  0
    4.2690    0.9750    0.0000 H   0  0  0  0  0  0  0  0  0  0  0  0
    5.4641   -1.7150    0.0000 H   0  0  0  0  0  0  0  0  0  0  0  0
    8.7876    1.3114    0.0000 H   0  0  0  0  0  0  0  0  0  0  0  0
    3.0044    0.6201    0.0000 H   0  0  0  0  0  0  0  0  0  0  0  0
    3.8015    0.6201    0.0000 H   0  0  0  0  0  0  0  0  0  0  0  0
   10.9044    0.4414    0.0000 H   0  0  0  0  0  0  0  0  0  0  0  0
    6.8671    3.7150    0.0000 H   0  0  0  0  0  0  0  0  0  0  0  0
    4.5981    4.4050    0.0000 H   0  0  0  0  0  0  0  0  0  0  0  0
    3.4030    3.7150    0.0000 H   0  0  0  0  0  0  0  0  0  0  0  0
    2.0000    1.2850    0.0000 H   0  0  0  0  0  0  0  0  0  0  0  0
    5.3810   -4.4050    0.0000 H   0  0  0  0  0  0  0  0  0  0  0  0
    6.0010   -5.0250    0.0000 H   0  0  0  0  0  0  0  0  0  0  0  0
    6.6210   -4.4050    0.0000 H   0  0  0  0  0  0  0  0  0  0  0  0
 15  1  1  6  0  0  0
 19  1  1  6  0  0  0
  2 15  1  0  0  0  0
  2 25  1  0  0  0  0
 13  3  1  6  0  0  0
  3 42  1  0  0  0  0
  4 19  1  0  0  0  0
  4 24  1  0  0  0  0
  5 20  1  0  0  0  0
  5 45  1  0  0  0  0
 21  6  1  1  0  0  0
  6 46  1  0  0  0  0
 22  7  1  6  0  0  0
  7 47  1  0  0  0  0
 23  8  1  1  0  0  0
  8 48  1  0  0  0  0
  9 26  1  0  0  0  0
  9 28  1  0  0  0  0
 10 27  1  0  0  0  0
 10 49  1  0  0  0  0
 11 26  2  0  0  0  0
 12 13  1  0  0  0  0
 12 14  1  0  0  0  0
 12 15  1  0  0  0  0
 12 29  1  6  0  0  0
 13 16  1  0  0  0  0
 13 20  1  0  0  0  0
 14 17  1  0  0  0  0
 14 18  1  0  0  0  0
 14 30  1  6  0  0  0
 15 31  1  0  0  0  0
 16 17  2  0  0  0  0
 16 32  1  0  0  0  0
 17 33  1  0  0  0  0
 18 25  2  0  0  0  0
 18 26  1  0  0  0  0
 19 21  1  0  0  0  0
 19 34  1  0  0  0  0
 20 35  1  0  0  0  0
 20 36  1  0  0  0  0
 21 22  1  0  0  0  0
 21 37  1  0  0  0  0
 22 23  1  0  0  0  0
 22 38  1  0  0  0  0
 23 24  1  0  0  0  0
 23 39  1  0  0  0  0
 24 27  1  6  0  0  0
 24 40  1  0  0  0  0
 25 41  1  0  0  0  0
 27 43  1  0  0  0  0
 27 44  1  0  0  0  0
 28 50  1  0  0  0  0
 28 51  1  0  0  0  0
 28 52  1  0  0  0  0
M  END
> <PUBCHEM_COMPOUND_CID>
53297356

> <PUBCHEM_COMPOUND_CANONICALIZED>
1

> <PUBCHEM_CACTVS_COMPLEXITY>
649

> <PUBCHEM_CACTVS_HBOND_ACCEPTOR>
11

> <PUBCHEM_CACTVS_HBOND_DONOR>
6

> <PUBCHEM_CACTVS_ROTATABLE_BOND>
6

> <PUBCHEM_CACTVS_SUBSKEYS>
AAADceB4PAAAAAAAAAAAAAAAAAAAAQAAAAAkQAAAAAAAAEAAAAAAGgAACAAADVSwgAMCCAAABgCIAiDSCAAACAAgIAAICAEAAEgRFBIAIQAiUAAFwAAPMIPIbBxOgAAAAAAAAAAAAAAAAAAAAAAAAAAAAA==

> <PUBCHEM_IUPAC_OPENEYE_NAME>
methyl (1R,4aR,7R,7aR)-7-hydroxy-7-(hydroxymethyl)-1-[(2S,3R,4S,5S,6R)-3,4,5-trihydroxy-6-(hydroxymethyl)tetrahydropyran-2-yl]oxy-4a,7a-dihydro-1H-cyclopenta[c]pyran-4-carboxylate

> <PUBCHEM_IUPAC_CAS_NAME>
(1R,4aR,7R,7aR)-7-hydroxy-7-(hydroxymethyl)-1-[[(2S,3R,4S,5S,6R)-3,4,5-trihydroxy-6-(hydroxymethyl)-2-oxanyl]oxy]-4a,7a-dihydro-1H-cyclopenta[c]pyran-4-carboxylic acid methyl ester

> <PUBCHEM_IUPAC_NAME>
methyl (1R,4aR,7R,7aR)-7-hydroxy-7-(hydroxymethyl)-1-[(2S,3R,4S,5S,6R)-3,4,5-trihydroxy-6-(hydroxymethyl)oxan-2-yl]oxy-4a,7a-dihydro-1H-cyclopenta[c]pyran-4-carboxylate

> <PUBCHEM_IUPAC_SYSTEMATIC_NAME>
methyl (1R,4aR,7R,7aR)-7-(hydroxymethyl)-1-[(2S,3R,4S,5S,6R)-6-(hydroxymethyl)-3,4,5-tris(oxidanyl)oxan-2-yl]oxy-7-oxidanyl-4a,7a-dihydro-1H-cyclopenta[c]pyran-4-carboxylate

> <PUBCHEM_IUPAC_TRADITIONAL_NAME>
(1R,4aR,7R,7aR)-7-hydroxy-7-methylol-1-[(2S,3R,4S,5S,6R)-3,4,5-trihydroxy-6-methylol-tetrahydropyran-2-yl]oxy-4a,7a-dihydro-1H-cyclopenta[c]pyran-4-carboxylic acid methyl ester

> <PUBCHEM_IUPAC_INCHI>
InChI=1S/C17H24O11/c1-25-14(23)8-5-26-15(10-7(8)2-3-17(10,24)6-19)28-16-13(22)12(21)11(20)9(4-18)27-16/h2-3,5,7,9-13,15-16,18-22,24H,4,6H2,1H3/t7-,9+,10-,11+,12-,13+,15+,16-,17-/m0/s1

> <PUBCHEM_IUPAC_INCHIKEY>
XJMPAUZQVRGFRE-HPWCAOHFSA-N

> <PUBCHEM_XLOGP3_AA>
-2.8

> <PUBCHEM_EXACT_MASS>
404.131862

> <PUBCHEM_MOLECULAR_FORMULA>
C17H24O11

> <PUBCHEM_MOLECULAR_WEIGHT>
404.36586

> <PUBCHEM_OPENEYE_CAN_SMILES>
COC(=O)C1=COC(C2C1C=CC2(CO)O)OC3C(C(C(C(O3)CO)O)O)O

> <PUBCHEM_OPENEYE_ISO_SMILES>
COC(=O)C1=CO[C@@H]([C@@H]2[C@H]1C=C[C@@]2(CO)O)O[C@H]3[C@@H]([C@H]([C@@H]([C@H](O3)CO)O)O)O

> <PUBCHEM_CACTVS_TPSA>
175

> <PUBCHEM_MONOISOTOPIC_WEIGHT>
404.131862

> <PUBCHEM_TOTAL_CHARGE>
0

> <PUBCHEM_HEAVY_ATOM_COUNT>
28

> <PUBCHEM_ATOM_DEF_STEREO_COUNT>
9

> <PUBCHEM_ATOM_UDEF_STEREO_COUNT>
0

> <PUBCHEM_BOND_DEF_STEREO_COUNT>
0

> <PUBCHEM_BOND_UDEF_STEREO_COUNT>
0

> <PUBCHEM_ISOTOPIC_ATOM_COUNT>
0

> <PUBCHEM_COMPONENT_COUNT>
1

> <PUBCHEM_CACTVS_TAUTO_COUNT>
1

> <PUBCHEM_COORDINATE_TYPE>
1
5
255

> <PUBCHEM_BONDANNOTATIONS>
15  1  6
19  1  6
12  29  6
14  30  6
24  27  6
13  3  6
21  6  5
22  7  6
23  8  5

$$$$

