9870
  -OEChem-06261204093D

  9  8  0     0  0  0  0  0  0999 V2000
    0.4939    0.0102   -0.1020 S   0  0  0  0  0  0  0  0  0  0  0  0
    0.5481   -0.6039    1.3615 F   0  0  0  0  0  0  0  0  0  0  0  0
   -0.9682    0.7254   -0.2272 O   0  0  0  0  0  0  0  0  0  0  0  0
    0.5283   -1.1316   -0.9932 O   0  0  0  0  0  0  0  0  0  0  0  0
    1.5256    1.0274   -0.1298 O   0  0  0  0  0  0  0  0  0  0  0  0
   -2.1278   -0.0275    0.0907 C   0  0  0  0  0  0  0  0  0  0  0  0
   -2.0751   -0.3847    1.1231 H   0  0  0  0  0  0  0  0  0  0  0  0
   -2.2290   -0.8742   -0.5939 H   0  0  0  0  0  0  0  0  0  0  0  0
   -3.0027    0.6189   -0.0155 H   0  0  0  0  0  0  0  0  0  0  0  0
  1  2  1  0  0  0  0
  1  3  1  0  0  0  0
  1  4  2  0  0  0  0
  1  5  2  0  0  0  0
  3  6  1  0  0  0  0
  6  7  1  0  0  0  0
  6  8  1  0  0  0  0
  6  9  1  0  0  0  0
M  END
> <PUBCHEM_COMPOUND_CID>
9870

> <PUBCHEM_CONFORMER_RMSD>
0.4

> <PUBCHEM_CONFORMER_DIVERSEORDER>
3
2
1

> <PUBCHEM_MMFF94_PARTIAL_CHARGES>
6
1 1.68
2 -0.2
3 -0.46
4 -0.65
5 -0.65
6 0.28

> <PUBCHEM_EFFECTIVE_ROTOR_COUNT>
1

> <PUBCHEM_PHARMACOPHORE_FEATURES>
2
1 4 acceptor
1 5 acceptor

> <PUBCHEM_HEAVY_ATOM_COUNT>
6

> <PUBCHEM_ATOM_DEF_STEREO_COUNT>
0

> <PUBCHEM_ATOM_UDEF_STEREO_COUNT>
0

> <PUBCHEM_BOND_DEF_STEREO_COUNT>
0

> <PUBCHEM_BOND_UDEF_STEREO_COUNT>
0

> <PUBCHEM_ISOTOPIC_ATOM_COUNT>
0

> <PUBCHEM_COMPONENT_COUNT>
1

> <PUBCHEM_CACTVS_TAUTO_COUNT>
1

> <PUBCHEM_CONFORMER_ID>
0000268E00000003

> <PUBCHEM_MMFF94_ENERGY>
1.5389

> <PUBCHEM_FEATURE_SELFOVERLAP>
10.165

> <PUBCHEM_SHAPE_FINGERPRINT>
139733 1 12101833512134058807
20096714 4 18337392625863786844
24536 1 18189063160364170333
29004967 10 18044079370660212726
5943 1 17402673614867939686

> <PUBCHEM_SHAPE_MULTIPOLES>
102.45
2.07
1.02
0.95
1.18
0.13
0.34
-0.35
-0.06
-0.3
-0.22
-0.19
0.19
0.02

> <PUBCHEM_SHAPE_SELFOVERLAP>
173.693

> <PUBCHEM_SHAPE_VOLUME>
69.7

> <PUBCHEM_COORDINATE_TYPE>
2
5
10

$$$$

