440332
  -OEChem-07051212493D

 42 44  0     1  0  0  0  0  0999 V2000
   -0.2289    0.4567   -0.5261 O   0  0  0  0  0  0  0  0  0  0  0  0
    0.7942   -0.8790    1.7177 O   0  0  0  0  0  0  0  0  0  0  0  0
    2.5838    0.1707    0.5197 O   0  0  0  0  0  0  0  0  0  0  0  0
   -1.8463   -0.8808    0.5845 O   0  0  0  0  0  0  0  0  0  0  0  0
    2.3474   -1.1293   -2.4132 O   0  0  0  0  0  0  0  0  0  0  0  0
   -1.4388    2.6886    0.4046 O   0  0  0  0  0  0  0  0  0  0  0  0
   -4.3240    1.6035    0.0232 O   0  0  0  0  0  0  0  0  0  0  0  0
    3.0525   -2.3352    1.6664 O   0  0  0  0  0  0  0  0  0  0  0  0
    3.5619    2.7274    0.0597 O   0  0  0  0  0  0  0  0  0  0  0  0
   -3.4390   -2.6979   -0.8420 O   0  0  0  0  0  0  0  0  0  0  0  0
   -1.0159    0.2940    0.6553 C   0  0  2  0  0  0  0  0  0  0  0  0
    0.7233   -0.5910   -0.7276 C   0  0  2  0  0  0  0  0  0  0  0  0
    1.5725   -0.8509    0.5202 C   0  0  2  0  0  0  0  0  0  0  0  0
    1.7355   -0.0486   -1.7195 C   0  0  1  0  0  0  0  0  0  0  0  0
   -2.0135    1.4446    0.7509 C   0  0  2  0  0  0  0  0  0  0  0  0
   -0.0839    0.2331    1.8525 C   0  0  0  0  0  0  0  0  0  0  0  0
    2.7618    0.6586   -0.8277 C   0  0  1  0  0  0  0  0  0  0  0  0
   -3.0715    0.9956   -0.2343 C   0  0  1  0  0  0  0  0  0  0  0  0
   -3.1296   -0.5021    0.0470 C   0  0  1  0  0  0  0  0  0  0  0  0
    2.2942   -2.2021    0.4808 C   0  0  0  0  0  0  0  0  0  0  0  0
    2.5788    2.1694   -0.7946 C   0  0  0  0  0  0  0  0  0  0  0  0
   -3.4147   -1.3254   -1.1975 C   0  0  0  0  0  0  0  0  0  0  0  0
    0.1947   -1.4859   -1.0736 H   0  0  0  0  0  0  0  0  0  0  0  0
    1.3074    0.6253   -2.4690 H   0  0  0  0  0  0  0  0  0  0  0  0
   -2.4432    1.5271    1.7574 H   0  0  0  0  0  0  0  0  0  0  0  0
    0.5146    1.1458    1.9516 H   0  0  0  0  0  0  0  0  0  0  0  0
   -0.6465    0.0840    2.7797 H   0  0  0  0  0  0  0  0  0  0  0  0
    3.7903    0.4154   -1.1187 H   0  0  0  0  0  0  0  0  0  0  0  0
   -2.7792    1.2300   -1.2646 H   0  0  0  0  0  0  0  0  0  0  0  0
   -3.8734   -0.7398    0.8176 H   0  0  0  0  0  0  0  0  0  0  0  0
    2.9869   -2.3011   -0.3577 H   0  0  0  0  0  0  0  0  0  0  0  0
    1.5784   -3.0296    0.4508 H   0  0  0  0  0  0  0  0  0  0  0  0
    1.5985    2.4558   -0.4017 H   0  0  0  0  0  0  0  0  0  0  0  0
    2.7002    2.6042   -1.7911 H   0  0  0  0  0  0  0  0  0  0  0  0
   -2.6255   -1.1910   -1.9447 H   0  0  0  0  0  0  0  0  0  0  0  0
   -4.3801   -1.0560   -1.6364 H   0  0  0  0  0  0  0  0  0  0  0  0
    1.6528   -1.5788   -2.9241 H   0  0  0  0  0  0  0  0  0  0  0  0
   -2.1582    3.3418    0.3687 H   0  0  0  0  0  0  0  0  0  0  0  0
   -4.9718    1.2061   -0.5832 H   0  0  0  0  0  0  0  0  0  0  0  0
    3.6815   -1.5941    1.6981 H   0  0  0  0  0  0  0  0  0  0  0  0
    3.4445    2.3311    0.9401 H   0  0  0  0  0  0  0  0  0  0  0  0
   -3.6208   -3.2008   -1.6542 H   0  0  0  0  0  0  0  0  0  0  0  0
  1 11  1  0  0  0  0
  1 12  1  0  0  0  0
  2 13  1  0  0  0  0
  2 16  1  0  0  0  0
  3 13  1  0  0  0  0
  3 17  1  0  0  0  0
  4 11  1  0  0  0  0
  4 19  1  0  0  0  0
  5 14  1  0  0  0  0
  5 37  1  0  0  0  0
  6 15  1  0  0  0  0
  6 38  1  0  0  0  0
  7 18  1  0  0  0  0
  7 39  1  0  0  0  0
  8 20  1  0  0  0  0
  8 40  1  0  0  0  0
  9 21  1  0  0  0  0
  9 41  1  0  0  0  0
 10 22  1  0  0  0  0
 10 42  1  0  0  0  0
 11 15  1  0  0  0  0
 11 16  1  0  0  0  0
 12 13  1  0  0  0  0
 12 14  1  0  0  0  0
 12 23  1  0  0  0  0
 13 20  1  0  0  0  0
 14 17  1  0  0  0  0
 14 24  1  0  0  0  0
 15 18  1  0  0  0  0
 15 25  1  0  0  0  0
 16 26  1  0  0  0  0
 16 27  1  0  0  0  0
 17 21  1  0  0  0  0
 17 28  1  0  0  0  0
 18 19  1  0  0  0  0
 18 29  1  0  0  0  0
 19 22  1  0  0  0  0
 19 30  1  0  0  0  0
 20 31  1  0  0  0  0
 20 32  1  0  0  0  0
 21 33  1  0  0  0  0
 21 34  1  0  0  0  0
 22 35  1  0  0  0  0
 22 36  1  0  0  0  0
M  END
> <PUBCHEM_COMPOUND_CID>
440332

> <PUBCHEM_CONFORMER_RMSD>
0.8

> <PUBCHEM_CONFORMER_DIVERSEORDER>
1
5
6
4
3
2

> <PUBCHEM_MMFF94_PARTIAL_CHARGES>
28
1 -0.56
10 -0.68
11 0.56
12 0.28
13 0.56
14 0.28
15 0.28
16 0.28
17 0.28
18 0.28
19 0.28
2 -0.56
20 0.28
21 0.28
22 0.28
3 -0.56
37 0.4
38 0.4
39 0.4
4 -0.56
40 0.4
41 0.4
42 0.4
5 -0.68
6 -0.68
7 -0.68
8 -0.68
9 -0.68

> <PUBCHEM_EFFECTIVE_ROTOR_COUNT>
5

> <PUBCHEM_PHARMACOPHORE_FEATURES>
19
1 1 acceptor
1 10 acceptor
1 10 donor
1 2 acceptor
1 3 acceptor
1 4 acceptor
1 5 acceptor
1 5 donor
1 6 acceptor
1 6 donor
1 7 acceptor
1 7 donor
1 8 acceptor
1 8 donor
1 9 acceptor
1 9 donor
5 3 12 13 14 17 rings
5 4 11 15 18 19 rings
6 1 2 11 12 13 16 rings

> <PUBCHEM_HEAVY_ATOM_COUNT>
22

> <PUBCHEM_ATOM_DEF_STEREO_COUNT>
8

> <PUBCHEM_ATOM_UDEF_STEREO_COUNT>
0

> <PUBCHEM_BOND_DEF_STEREO_COUNT>
0

> <PUBCHEM_BOND_UDEF_STEREO_COUNT>
0

> <PUBCHEM_ISOTOPIC_ATOM_COUNT>
0

> <PUBCHEM_COMPONENT_COUNT>
1

> <PUBCHEM_CACTVS_TAUTO_COUNT>
1

> <PUBCHEM_CONFORMER_ID>
0006B80C00000001

> <PUBCHEM_MMFF94_ENERGY>
75.06

> <PUBCHEM_FEATURE_SELFOVERLAP>
96.818

> <PUBCHEM_SHAPE_FINGERPRINT>
11578080 2 17844835708976628533
12173636 292 17632572773800810579
12202030 40 16950278542060217287
13134695 92 17773599502133267226
13464513 79 17463410504285568879
13538477 17 18410857706770701519
13583140 156 18059278951221292425
14115302 16 18115876372131985251
14181834 199 17489042495318925698
14787075 74 17832138329660662525
15375358 24 16154291523111445411
15848702 105 17972035843030478508
15852999 172 17131272329447254450
16945 1 18201142274573351368
17349148 13 17417813881286914322
17492 54 17758957021901770797
17492 89 18411983585171890707
17980427 23 18117023115583563664
1813 80 16984049105726798554
18186145 218 16486974029034719467
18981168 100 16915348126965900024
20600515 1 17827928634924711480
21501502 16 18409454686915375729
21524375 3 18190456048639870124
23402539 116 18337108969455159684
23419403 2 16546442150193643953
23557571 272 18040722463023947681
23559900 14 17968089888823999230
34934 24 18409727336009060813
4340502 62 17131822176146838305
474 4 17988071188955413884
5262128 65 17970600056812019124
6992083 37 17836085954350639418
7364860 26 18271523199636917434
74978 22 18265604553961027085
7615 1 18341336660114071715
81228 2 16444463688273977963
9981440 41 17985544455843295848

> <PUBCHEM_SHAPE_MULTIPOLES>
394.06
6.43
2.65
1.65
3.24
0.33
0.16
0.34
1.26
-0.6
-0.12
-0.95
-0.65
-1.34

> <PUBCHEM_SHAPE_SELFOVERLAP>
836.553

> <PUBCHEM_SHAPE_VOLUME>
219.1

> <PUBCHEM_COORDINATE_TYPE>
2
5
10

$$$$

