255699
  -OEChem-07051213063D

 55 58  0     1  0  0  0  0  0999 V2000
    5.8413   -0.0659    0.0308 F   0  0  0  0  0  0  0  0  0  0  0  0
    4.5474   -0.0508   -1.7159 F   0  0  0  0  0  0  0  0  0  0  0  0
   -5.2663   -0.9508    0.2429 O   0  0  0  0  0  0  0  0  0  0  0  0
   -0.6458    0.8314    0.3361 C   0  0  1  0  0  0  0  0  0  0  0  0
   -2.0653    0.7514   -0.2428 C   0  0  1  0  0  0  0  0  0  0  0  0
    0.1580   -0.4270   -0.1267 C   0  0  1  0  0  0  0  0  0  0  0  0
   -2.8311   -0.5125    0.2053 C   0  0  1  0  0  0  0  0  0  0  0  0
    1.6465   -0.3951    0.3847 C   0  0  2  0  0  0  0  0  0  0  0  0
    2.2839    0.9418   -0.1178 C   0  0  1  0  0  0  0  0  0  0  0  0
   -4.2298   -0.2407   -0.4311 C   0  0  2  0  0  0  0  0  0  0  0  0
   -0.5983   -1.7454    0.1831 C   0  0  0  0  0  0  0  0  0  0  0  0
   -2.0574   -1.7374   -0.3104 C   0  0  0  0  0  0  0  0  0  0  0  0
    0.0593    2.1290   -0.0856 C   0  0  0  0  0  0  0  0  0  0  0  0
   -3.0399    1.8847    0.0601 C   0  0  0  0  0  0  0  0  0  0  0  0
    1.5165    2.1757    0.3684 C   0  0  0  0  0  0  0  0  0  0  0  0
   -4.4314    1.2817   -0.2069 C   0  0  0  0  0  0  0  0  0  0  0  0
    2.4629   -1.5692   -0.2301 C   0  0  0  0  0  0  0  0  0  0  0  0
   -2.9812   -0.6315    1.7505 C   0  0  0  0  0  0  0  0  0  0  0  0
    3.7801    1.0493    0.2081 C   0  0  0  0  0  0  0  0  0  0  0  0
    1.7010   -0.5194    1.9291 C   0  0  0  0  0  0  0  0  0  0  0  0
    3.9664   -1.4794    0.0473 C   0  0  0  0  0  0  0  0  0  0  0  0
    4.5437   -0.1362   -0.3587 C   0  0  0  0  0  0  0  0  0  0  0  0
   -4.3608   -0.5837   -1.9203 C   0  0  0  0  0  0  0  0  0  0  0  0
   -0.7119    0.8451    1.4286 H   0  0  0  0  0  0  0  0  0  0  0  0
   -1.9490    0.7285   -1.3371 H   0  0  0  0  0  0  0  0  0  0  0  0
    0.2083   -0.3739   -1.2262 H   0  0  0  0  0  0  0  0  0  0  0  0
    2.2103    0.9451   -1.2168 H   0  0  0  0  0  0  0  0  0  0  0  0
   -0.5812   -1.9571    1.2561 H   0  0  0  0  0  0  0  0  0  0  0  0
   -0.0918   -2.5870   -0.3027 H   0  0  0  0  0  0  0  0  0  0  0  0
   -2.0332   -1.7459   -1.4066 H   0  0  0  0  0  0  0  0  0  0  0  0
   -2.5559   -2.6643   -0.0031 H   0  0  0  0  0  0  0  0  0  0  0  0
   -0.4668    2.9963    0.3301 H   0  0  0  0  0  0  0  0  0  0  0  0
    0.0220    2.2327   -1.1778 H   0  0  0  0  0  0  0  0  0  0  0  0
   -2.8594    2.7586   -0.5743 H   0  0  0  0  0  0  0  0  0  0  0  0
   -2.9617    2.2133    1.1026 H   0  0  0  0  0  0  0  0  0  0  0  0
    1.9802    3.0845   -0.0345 H   0  0  0  0  0  0  0  0  0  0  0  0
    1.5666    2.2611    1.4599 H   0  0  0  0  0  0  0  0  0  0  0  0
   -5.0946    1.4839    0.6426 H   0  0  0  0  0  0  0  0  0  0  0  0
   -4.8890    1.7607   -1.0802 H   0  0  0  0  0  0  0  0  0  0  0  0
    2.3100   -1.5887   -1.3173 H   0  0  0  0  0  0  0  0  0  0  0  0
    2.1039   -2.5318    0.1521 H   0  0  0  0  0  0  0  0  0  0  0  0
   -2.0229   -0.6441    2.2754 H   0  0  0  0  0  0  0  0  0  0  0  0
   -3.5632    0.1909    2.1785 H   0  0  0  0  0  0  0  0  0  0  0  0
   -3.4963   -1.5626    2.0149 H   0  0  0  0  0  0  0  0  0  0  0  0
    4.1848    1.9690   -0.2321 H   0  0  0  0  0  0  0  0  0  0  0  0
    3.9504    1.1296    1.2873 H   0  0  0  0  0  0  0  0  0  0  0  0
    2.7166   -0.4118    2.3200 H   0  0  0  0  0  0  0  0  0  0  0  0
    1.0932    0.2342    2.4355 H   0  0  0  0  0  0  0  0  0  0  0  0
    1.3458   -1.5007    2.2605 H   0  0  0  0  0  0  0  0  0  0  0  0
    4.1739   -1.6682    1.1063 H   0  0  0  0  0  0  0  0  0  0  0  0
    4.4782   -2.2746   -0.5077 H   0  0  0  0  0  0  0  0  0  0  0  0
   -3.6143   -0.0809   -2.5409 H   0  0  0  0  0  0  0  0  0  0  0  0
   -4.2801   -1.6647   -2.0794 H   0  0  0  0  0  0  0  0  0  0  0  0
   -5.3521   -0.3013   -2.2949 H   0  0  0  0  0  0  0  0  0  0  0  0
   -6.1198   -0.6395   -0.1043 H   0  0  0  0  0  0  0  0  0  0  0  0
  1 22  1  0  0  0  0
  2 22  1  0  0  0  0
  3 10  1  0  0  0  0
  3 55  1  0  0  0  0
  4  5  1  0  0  0  0
  4  6  1  0  0  0  0
  4 13  1  0  0  0  0
  4 24  1  0  0  0  0
  5  7  1  0  0  0  0
  5 14  1  0  0  0  0
  5 25  1  0  0  0  0
  6  8  1  0  0  0  0
  6 11  1  0  0  0  0
  6 26  1  0  0  0  0
  7 10  1  0  0  0  0
  7 12  1  0  0  0  0
  7 18  1  0  0  0  0
  8  9  1  0  0  0  0
  8 17  1  0  0  0  0
  8 20  1  0  0  0  0
  9 15  1  0  0  0  0
  9 19  1  0  0  0  0
  9 27  1  0  0  0  0
 10 16  1  0  0  0  0
 10 23  1  0  0  0  0
 11 12  1  0  0  0  0
 11 28  1  0  0  0  0
 11 29  1  0  0  0  0
 12 30  1  0  0  0  0
 12 31  1  0  0  0  0
 13 15  1  0  0  0  0
 13 32  1  0  0  0  0
 13 33  1  0  0  0  0
 14 16  1  0  0  0  0
 14 34  1  0  0  0  0
 14 35  1  0  0  0  0
 15 36  1  0  0  0  0
 15 37  1  0  0  0  0
 16 38  1  0  0  0  0
 16 39  1  0  0  0  0
 17 21  1  0  0  0  0
 17 40  1  0  0  0  0
 17 41  1  0  0  0  0
 18 42  1  0  0  0  0
 18 43  1  0  0  0  0
 18 44  1  0  0  0  0
 19 22  1  0  0  0  0
 19 45  1  0  0  0  0
 19 46  1  0  0  0  0
 20 47  1  0  0  0  0
 20 48  1  0  0  0  0
 20 49  1  0  0  0  0
 21 22  1  0  0  0  0
 21 50  1  0  0  0  0
 21 51  1  0  0  0  0
 23 52  1  0  0  0  0
 23 53  1  0  0  0  0
 23 54  1  0  0  0  0
M  END
> <PUBCHEM_COMPOUND_CID>
255699

> <PUBCHEM_CONFORMER_RMSD>
0.6

> <PUBCHEM_CONFORMER_DIVERSEORDER>
1

> <PUBCHEM_MMFF94_PARTIAL_CHARGES>
6
1 -0.34
10 0.28
2 -0.34
22 0.68
3 -0.68
55 0.4

> <PUBCHEM_EFFECTIVE_ROTOR_COUNT>
2.2

> <PUBCHEM_PHARMACOPHORE_FEATURES>
6
1 3 acceptor
1 3 donor
5 5 7 10 14 16 rings
6 4 5 6 7 11 12 rings
6 4 6 8 9 13 15 rings
6 8 9 17 19 21 22 rings

> <PUBCHEM_HEAVY_ATOM_COUNT>
23

> <PUBCHEM_ATOM_DEF_STEREO_COUNT>
7

> <PUBCHEM_ATOM_UDEF_STEREO_COUNT>
0

> <PUBCHEM_BOND_DEF_STEREO_COUNT>
0

> <PUBCHEM_BOND_UDEF_STEREO_COUNT>
0

> <PUBCHEM_ISOTOPIC_ATOM_COUNT>
0

> <PUBCHEM_COMPONENT_COUNT>
1

> <PUBCHEM_CACTVS_TAUTO_COUNT>
1

> <PUBCHEM_CONFORMER_ID>
0003E6D300000001

> <PUBCHEM_MMFF94_ENERGY>
87.0495

> <PUBCHEM_FEATURE_SELFOVERLAP>
30.533

> <PUBCHEM_SHAPE_FINGERPRINT>
10366900 7 17775569715174336073
10498660 4 18341899644353696805
11578080 2 17387156280438539241
11796584 16 16877661274986256575
12011746 2 18341899597414745469
12403259 415 18114472210047603777
12553582 1 18410302401695504313
12788726 201 18193561292377510433
128620 24 18272368680923288772
13140716 1 18121779434996502371
13221675 6 18342176656811582898
13224815 77 17917715703367516563
13583140 156 16773796978647070025
13862211 1 18409173211801729254
14790565 3 17687739858559590769
15099037 51 18410573985209519031
15163728 17 16126713615908977071
15196674 1 18410856602589488520
15209294 21 12031795798645549095
15536298 74 18261678086348541864
15788980 27 18040154019786275092
15848702 151 17676478479983148334
1601671 61 18411982498470623092
16752209 62 18339370750482573441
16945 1 18338796689343197369
17349148 13 17967253091776864135
17357779 13 18341062864623640125
17804303 29 18408602552503415309
18186145 218 17918001589739863745
19862831 5 18202284701577658814
200 152 18114183038204388881
20645477 70 18340773628371960765
20775438 99 16888402189926378103
20871999 31 18412545430980177773
21033648 29 18059307491252697749
21267235 1 18410003330074381450
21279426 13 18267021845839651598
221357 26 18409735062628560317
221490 88 18268706108664280691
22393880 68 18340502105293242269
23402539 116 18334299790001932780
23493267 7 17988922275431959083
23559900 14 18260558783326999185
2871803 45 18342177791141871796
3004659 81 18200592618324893958
3286 77 16515693220853833995
335352 9 18410012164801082164
34934 24 18411423908172588962
350125 39 18410008867073553929
4214541 1 18409730681455989101
4340502 62 16271918354797550281
474 4 17274812511902502804
4921388 177 16199856298547012705
4990 188 18114178657517140668
5104073 3 18410576227150786856
542803 24 17632856434203757359
633830 44 17703509900717378556
7364860 26 18262242097238175608
9709674 26 18267026050950289619
9981440 41 17261311393677151840

> <PUBCHEM_SHAPE_MULTIPOLES>
452.91
10.46
2
1.22
2.48
0.52
0.1
-1.1
-2.45
-0.16
0.04
-0.38
-0.28
0

> <PUBCHEM_SHAPE_SELFOVERLAP>
966.35

> <PUBCHEM_SHAPE_VOLUME>
254.7

> <PUBCHEM_COORDINATE_TYPE>
2
5
10

$$$$

