582703
  -OEChem-06241222433D

 39 40  0     1  0  0  0  0  0999 V2000
    6.7130    1.1865    1.0603 Br  0  0  0  0  0  0  0  0  0  0  0  0
    0.8794   -0.7799   -0.7812 S   0  0  0  0  0  0  0  0  0  0  0  0
   -3.2560    1.7686    0.5367 O   0  0  0  0  0  0  0  0  0  0  0  0
   -2.3267   -1.8503    0.5473 O   0  0  0  0  0  0  0  0  0  0  0  0
    0.8346   -0.7853   -2.2366 O   0  0  0  0  0  0  0  0  0  0  0  0
    0.5452   -1.9897   -0.0426 O   0  0  0  0  0  0  0  0  0  0  0  0
   -2.0492    2.0995   -1.4083 O   0  0  0  0  0  0  0  0  0  0  0  0
   -2.1416   -1.2556   -1.6800 O   0  0  0  0  0  0  0  0  0  0  0  0
   -0.0935    0.5009   -0.2045 N   0  0  1  0  0  0  0  0  0  0  0  0
   -1.5294    0.2810   -0.0044 C   0  0  0  0  0  0  0  0  0  0  0  0
   -0.5899    0.3163    1.1627 C   0  0  0  0  0  0  0  0  0  0  0  0
   -2.2944    1.4807   -0.3827 C   0  0  0  0  0  0  0  0  0  0  0  0
   -2.0292   -1.0161   -0.4863 C   0  0  0  0  0  0  0  0  0  0  0  0
    2.4644   -0.2448   -0.2810 C   0  0  0  0  0  0  0  0  0  0  0  0
    3.2346    0.5466   -1.1330 C   0  0  0  0  0  0  0  0  0  0  0  0
    2.9602   -0.6090    0.9709 C   0  0  0  0  0  0  0  0  0  0  0  0
   -4.0522    2.9231    0.2512 C   0  0  0  0  0  0  0  0  0  0  0  0
   -2.8220   -3.1396    0.1724 C   0  0  0  0  0  0  0  0  0  0  0  0
    4.5009    0.9738   -0.7332 C   0  0  0  0  0  0  0  0  0  0  0  0
    4.2265   -0.1816    1.3707 C   0  0  0  0  0  0  0  0  0  0  0  0
    4.9967    0.6097    0.5186 C   0  0  0  0  0  0  0  0  0  0  0  0
   -5.0677    3.1078    1.3585 C   0  0  0  0  0  0  0  0  0  0  0  0
   -3.1037   -3.9427    1.4244 C   0  0  0  0  0  0  0  0  0  0  0  0
   -0.3077   -0.5884    1.6772 H   0  0  0  0  0  0  0  0  0  0  0  0
   -0.5124    1.2248    1.7450 H   0  0  0  0  0  0  0  0  0  0  0  0
    2.8655    0.8475   -2.1094 H   0  0  0  0  0  0  0  0  0  0  0  0
    2.3760   -1.2204    1.6528 H   0  0  0  0  0  0  0  0  0  0  0  0
   -4.5684    2.7831   -0.7052 H   0  0  0  0  0  0  0  0  0  0  0  0
   -3.4061    3.8060    0.1899 H   0  0  0  0  0  0  0  0  0  0  0  0
   -2.0726   -3.6557   -0.4381 H   0  0  0  0  0  0  0  0  0  0  0  0
   -3.7444   -3.0217   -0.4072 H   0  0  0  0  0  0  0  0  0  0  0  0
    5.0880    1.5911   -1.4084 H   0  0  0  0  0  0  0  0  0  0  0  0
    4.5978   -0.4732    2.3498 H   0  0  0  0  0  0  0  0  0  0  0  0
   -4.5665    3.2308    2.3243 H   0  0  0  0  0  0  0  0  0  0  0  0
   -5.7096    2.2247    1.4439 H   0  0  0  0  0  0  0  0  0  0  0  0
   -5.6950    3.9839    1.1719 H   0  0  0  0  0  0  0  0  0  0  0  0
   -3.8385   -3.4300    2.0539 H   0  0  0  0  0  0  0  0  0  0  0  0
   -2.1938   -4.0531    2.0235 H   0  0  0  0  0  0  0  0  0  0  0  0
   -3.4848   -4.9366    1.1742 H   0  0  0  0  0  0  0  0  0  0  0  0
  1 21  1  0  0  0  0
  2  5  2  0  0  0  0
  2  6  2  0  0  0  0
  2  9  1  0  0  0  0
  2 14  1  0  0  0  0
  3 12  1  0  0  0  0
  3 17  1  0  0  0  0
  4 13  1  0  0  0  0
  4 18  1  0  0  0  0
  7 12  2  0  0  0  0
  8 13  2  0  0  0  0
  9 10  1  0  0  0  0
  9 11  1  0  0  0  0
 10 11  1  0  0  0  0
 10 12  1  0  0  0  0
 10 13  1  0  0  0  0
 11 24  1  0  0  0  0
 11 25  1  0  0  0  0
 14 15  2  0  0  0  0
 14 16  1  0  0  0  0
 15 19  1  0  0  0  0
 15 26  1  0  0  0  0
 16 20  2  0  0  0  0
 16 27  1  0  0  0  0
 17 22  1  0  0  0  0
 17 28  1  0  0  0  0
 17 29  1  0  0  0  0
 18 23  1  0  0  0  0
 18 30  1  0  0  0  0
 18 31  1  0  0  0  0
 19 21  2  0  0  0  0
 19 32  1  0  0  0  0
 20 21  1  0  0  0  0
 20 33  1  0  0  0  0
 22 34  1  0  0  0  0
 22 35  1  0  0  0  0
 22 36  1  0  0  0  0
 23 37  1  0  0  0  0
 23 38  1  0  0  0  0
 23 39  1  0  0  0  0
M  END
> <PUBCHEM_COMPOUND_CID>
582703

> <PUBCHEM_CONFORMER_RMSD>
0.8

> <PUBCHEM_CONFORMER_DIVERSEORDER>
1
51
54
16
52
50
31
60
22
14
46
55
34
61
56
36
18
2
38
30
6
53
42
49
7
59
19
5
13
39
15
37
21
45
8
62
35
12
11
57
25
58
29
17
27
28
48
32
9
23
47
41
24
40
44
26
43
10
33
20
4
3

> <PUBCHEM_MMFF94_PARTIAL_CHARGES>
27
1 -0.11
10 0.23
11 0.03
12 0.72
13 0.72
14 -0.01
15 -0.15
16 -0.15
17 0.28
18 0.28
19 -0.15
2 1.45
20 -0.15
21 0.11
24 0.1
25 0.1
26 0.15
27 0.15
3 -0.43
32 0.15
33 0.15
4 -0.43
5 -0.65
6 -0.65
7 -0.57
8 -0.57
9 -0.6

> <PUBCHEM_EFFECTIVE_ROTOR_COUNT>
8.6

> <PUBCHEM_PHARMACOPHORE_FEATURES>
6
1 1 hydrophobe
1 5 acceptor
1 6 acceptor
1 7 acceptor
1 8 acceptor
6 14 15 16 19 20 21 rings

> <PUBCHEM_HEAVY_ATOM_COUNT>
23

> <PUBCHEM_ATOM_DEF_STEREO_COUNT>
0

> <PUBCHEM_ATOM_UDEF_STEREO_COUNT>
0

> <PUBCHEM_BOND_DEF_STEREO_COUNT>
0

> <PUBCHEM_BOND_UDEF_STEREO_COUNT>
0

> <PUBCHEM_ISOTOPIC_ATOM_COUNT>
0

> <PUBCHEM_COMPONENT_COUNT>
1

> <PUBCHEM_CACTVS_TAUTO_COUNT>
1

> <PUBCHEM_CONFORMER_ID>
0008E42F00000001

> <PUBCHEM_MMFF94_ENERGY>
38.4113

> <PUBCHEM_FEATURE_SELFOVERLAP>
30.465

> <PUBCHEM_SHAPE_FINGERPRINT>
10074138 170 18343303648178189467
10493431 412 18337669827733302777
10498660 4 17676206879680011824
11315181 36 18059866004910765784
11405975 8 18336829801118538434
12107183 9 18125733524446359250
12403259 118 18336834087617381488
12403259 415 17895184486102081420
12532896 13 18265328589997205831
12616971 3 17561363989855039556
12633257 1 18131915966328117996
12788726 201 18055055584750285186
12892183 10 16772954873179132320
12930653 34 18410573981025996962
13140716 1 18410012100567009176
13540713 4 18042104575073896718
13583140 156 18188221914068611658
13955234 65 17476346680025580393
14178342 30 18272364269902763718
14251764 38 18188220784186972440
14565420 104 17975965781531232921
15778101 99 18408602570089518600
15806764 133 17531516586845749200
15842332 3 17559938957690643182
17980427 23 18341335518012026564
200 152 17345485790673310506
21033648 29 18127127704425949180
21401589 2 18261953054766401537
22182313 1 17750494278492217814
22224240 67 18336819918826422449
23227448 37 18412260636115599581
23557571 272 18261376854474628268
23558518 356 18127965304621203905
23559900 14 17986409792857797876
3472631 163 18186805798647555684
394222 165 17612311162481571443
4340502 62 18263916821446660769
5104073 3 18341898523693962522
7808743 9 18408606984994314520
7970288 3 10807632498774503216
9981440 41 17967824889152366838

> <PUBCHEM_SHAPE_MULTIPOLES>
442.92
11.6
3.57
1.54
14.17
1.28
0.29
-7.18
-4.93
-8.56
-1.45
0.11
0.15
-0.02

> <PUBCHEM_SHAPE_SELFOVERLAP>
894.617

> <PUBCHEM_SHAPE_VOLUME>
264.7

> <PUBCHEM_COORDINATE_TYPE>
2
5
10

$$$$

