5281534
  -OEChem-07051212582D

 38 37  0     0  0  0  0  0  0999 V2000
   12.3923    0.0600    0.0000 O   0  0  0  0  0  0  0  0  0  0  0  0
    8.0622   -0.4400    0.0000 C   0  0  0  0  0  0  0  0  0  0  0  0
    7.1962    0.0600    0.0000 C   0  0  0  0  0  0  0  0  0  0  0  0
    8.9282    0.0600    0.0000 C   0  0  0  0  0  0  0  0  0  0  0  0
    6.3301   -0.4400    0.0000 C   0  0  0  0  0  0  0  0  0  0  0  0
    5.4641    0.0600    0.0000 C   0  0  0  0  0  0  0  0  0  0  0  0
    7.1962    1.0600    0.0000 C   0  0  0  0  0  0  0  0  0  0  0  0
    9.7942   -0.4400    0.0000 C   0  0  0  0  0  0  0  0  0  0  0  0
    4.5981   -0.4400    0.0000 C   0  0  0  0  0  0  0  0  0  0  0  0
   10.6603    0.0600    0.0000 C   0  0  0  0  0  0  0  0  0  0  0  0
    3.7320    0.0600    0.0000 C   0  0  0  0  0  0  0  0  0  0  0  0
   10.6603    1.0600    0.0000 C   0  0  0  0  0  0  0  0  0  0  0  0
    3.7320    1.0600    0.0000 C   0  0  0  0  0  0  0  0  0  0  0  0
   11.5263   -0.4400    0.0000 C   0  0  0  0  0  0  0  0  0  0  0  0
    2.8660   -0.4400    0.0000 C   0  0  0  0  0  0  0  0  0  0  0  0
    2.0000    0.0600    0.0000 C   0  0  0  0  0  0  0  0  0  0  0  0
    7.6636   -0.9149    0.0000 H   0  0  0  0  0  0  0  0  0  0  0  0
    8.4607   -0.9149    0.0000 H   0  0  0  0  0  0  0  0  0  0  0  0
    9.3267    0.5349    0.0000 H   0  0  0  0  0  0  0  0  0  0  0  0
    8.5297    0.5349    0.0000 H   0  0  0  0  0  0  0  0  0  0  0  0
    6.3301   -1.0600    0.0000 H   0  0  0  0  0  0  0  0  0  0  0  0
    5.8626    0.5349    0.0000 H   0  0  0  0  0  0  0  0  0  0  0  0
    5.0656    0.5349    0.0000 H   0  0  0  0  0  0  0  0  0  0  0  0
    7.8162    1.0600    0.0000 H   0  0  0  0  0  0  0  0  0  0  0  0
    7.1962    1.6800    0.0000 H   0  0  0  0  0  0  0  0  0  0  0  0
    6.5762    1.0600    0.0000 H   0  0  0  0  0  0  0  0  0  0  0  0
    9.7942   -1.0600    0.0000 H   0  0  0  0  0  0  0  0  0  0  0  0
    4.5981   -1.0600    0.0000 H   0  0  0  0  0  0  0  0  0  0  0  0
   11.2803    1.0600    0.0000 H   0  0  0  0  0  0  0  0  0  0  0  0
   10.6603    1.6800    0.0000 H   0  0  0  0  0  0  0  0  0  0  0  0
   10.0403    1.0600    0.0000 H   0  0  0  0  0  0  0  0  0  0  0  0
    4.3520    1.0600    0.0000 H   0  0  0  0  0  0  0  0  0  0  0  0
    3.7320    1.6800    0.0000 H   0  0  0  0  0  0  0  0  0  0  0  0
    3.1120    1.0600    0.0000 H   0  0  0  0  0  0  0  0  0  0  0  0
   11.5263   -1.0600    0.0000 H   0  0  0  0  0  0  0  0  0  0  0  0
    2.8660   -1.0600    0.0000 H   0  0  0  0  0  0  0  0  0  0  0  0
    2.0000    0.6800    0.0000 H   0  0  0  0  0  0  0  0  0  0  0  0
    1.4631   -0.2500    0.0000 H   0  0  0  0  0  0  0  0  0  0  0  0
  1 14  2  0  0  0  0
  2  3  1  0  0  0  0
  2  4  1  0  0  0  0
  2 17  1  0  0  0  0
  2 18  1  0  0  0  0
  3  5  2  0  0  0  0
  3  7  1  0  0  0  0
  4  8  1  0  0  0  0
  4 19  1  0  0  0  0
  4 20  1  0  0  0  0
  5  6  1  0  0  0  0
  5 21  1  0  0  0  0
  6  9  1  0  0  0  0
  6 22  1  0  0  0  0
  6 23  1  0  0  0  0
  7 24  1  0  0  0  0
  7 25  1  0  0  0  0
  7 26  1  0  0  0  0
  8 10  2  0  0  0  0
  8 27  1  0  0  0  0
  9 11  2  0  0  0  0
  9 28  1  0  0  0  0
 10 12  1  0  0  0  0
 10 14  1  0  0  0  0
 11 13  1  0  0  0  0
 11 15  1  0  0  0  0
 12 29  1  0  0  0  0
 12 30  1  0  0  0  0
 12 31  1  0  0  0  0
 13 32  1  0  0  0  0
 13 33  1  0  0  0  0
 13 34  1  0  0  0  0
 14 35  1  0  0  0  0
 15 16  2  0  0  0  0
 15 36  1  0  0  0  0
 16 37  1  0  0  0  0
 16 38  1  0  0  0  0
M  END
> <PUBCHEM_COMPOUND_CID>
5281534

> <PUBCHEM_COMPOUND_CANONICALIZED>
1

> <PUBCHEM_CACTVS_COMPLEXITY>
316

> <PUBCHEM_CACTVS_HBOND_ACCEPTOR>
1

> <PUBCHEM_CACTVS_HBOND_DONOR>
0

> <PUBCHEM_CACTVS_ROTATABLE_BOND>
7

> <PUBCHEM_CACTVS_SUBSKEYS>
AAADceBwIAAAAAAAAAAAAAAAAAAAAAAAAAAAAAAAAAAAAAAAAAAAGgAAAAAADACggAICAAAAAACIAihSgAAAAAAgAAAICAEAAEgIAAIAAQAAAAAAgAAIgYIAAAAAAAAAAAAAAAAAAAAAAAAAAAAAAAAAAA==

> <PUBCHEM_IUPAC_OPENEYE_NAME>
(2E,6E,9E)-2,6,10-trimethyldodeca-2,6,9,11-tetraenal

> <PUBCHEM_IUPAC_CAS_NAME>
(2E,6E,9E)-2,6,10-trimethyldodeca-2,6,9,11-tetraenal

> <PUBCHEM_IUPAC_NAME>
(2E,6E,9E)-2,6,10-trimethyldodeca-2,6,9,11-tetraenal

> <PUBCHEM_IUPAC_SYSTEMATIC_NAME>
(2E,6E,9E)-2,6,10-trimethyldodeca-2,6,9,11-tetraenal

> <PUBCHEM_IUPAC_TRADITIONAL_NAME>
(2E,6E,9E)-2,6,10-trimethyldodeca-2,6,9,11-tetraenal

> <PUBCHEM_IUPAC_INCHI>
InChI=1S/C15H22O/c1-5-13(2)8-6-9-14(3)10-7-11-15(4)12-16/h5,8-9,11-12H,1,6-7,10H2,2-4H3/b13-8+,14-9+,15-11+

> <PUBCHEM_IUPAC_INCHIKEY>
PFSTYGCNVAVZBK-JQGMZEBDSA-N

> <PUBCHEM_XLOGP3_AA>
4.8

> <PUBCHEM_EXACT_MASS>
218.167065

> <PUBCHEM_MOLECULAR_FORMULA>
C15H22O

> <PUBCHEM_MOLECULAR_WEIGHT>
218.33458

> <PUBCHEM_OPENEYE_CAN_SMILES>
CC(=CCC=C(C)C=C)CCC=C(C)C=O

> <PUBCHEM_OPENEYE_ISO_SMILES>
C/C(=C\C/C=C(\C)/C=C)/CC/C=C(\C)/C=O

> <PUBCHEM_CACTVS_TPSA>
17.1

> <PUBCHEM_MONOISOTOPIC_WEIGHT>
218.167065

> <PUBCHEM_TOTAL_CHARGE>
0

> <PUBCHEM_HEAVY_ATOM_COUNT>
16

> <PUBCHEM_ATOM_DEF_STEREO_COUNT>
0

> <PUBCHEM_ATOM_UDEF_STEREO_COUNT>
0

> <PUBCHEM_BOND_DEF_STEREO_COUNT>
3

> <PUBCHEM_BOND_UDEF_STEREO_COUNT>
0

> <PUBCHEM_ISOTOPIC_ATOM_COUNT>
0

> <PUBCHEM_COMPONENT_COUNT>
1

> <PUBCHEM_CACTVS_TAUTO_COUNT>
1

> <PUBCHEM_COORDINATE_TYPE>
1
5
255

$$$$

