56928084
  -OEChem-07051213073D

 49 52  0     1  0  0  0  0  0999 V2000
    2.5919    0.6891   -0.6503 O   0  0  0  0  0  0  0  0  0  0  0  0
    2.3455   -1.6225   -0.8503 O   0  0  0  0  0  0  0  0  0  0  0  0
    6.6097    0.3247    0.1187 O   0  0  0  0  0  0  0  0  0  0  0  0
    5.2416    2.7899    0.7562 O   0  0  0  0  0  0  0  0  0  0  0  0
    4.8115   -1.9793    0.4912 O   0  0  0  0  0  0  0  0  0  0  0  0
    1.1806    3.0353   -0.4074 O   0  0  0  0  0  0  0  0  0  0  0  0
   -3.5529   -1.0162   -0.0608 O   0  3  0  0  0  0  0  0  0  0  0  0
    5.2246    0.3981    0.4601 C   0  0  1  0  0  0  0  0  0  0  0  0
    4.6865    1.7413   -0.0332 C   0  0  1  0  0  0  0  0  0  0  0  0
    4.4783   -0.7685   -0.1874 C   0  0  2  0  0  0  0  0  0  0  0  0
    3.1600    1.7852    0.0685 C   0  0  1  0  0  0  0  0  0  0  0  0
    2.9643   -0.5744   -0.1049 C   0  0  1  0  0  0  0  0  0  0  0  0
    2.5912    3.0695   -0.5263 C   0  0  0  0  0  0  0  0  0  0  0  0
    1.1113   -2.0306   -0.4241 C   0  0  0  0  0  0  0  0  0  0  0  0
    0.0519   -1.1240   -0.3831 C   0  0  0  0  0  0  0  0  0  0  0  0
    0.9123   -3.3539   -0.0300 C   0  0  0  0  0  0  0  0  0  0  0  0
   -1.2062   -1.5405    0.0519 C   0  0  0  0  0  0  0  0  0  0  0  0
   -0.3460   -3.7704    0.4047 C   0  0  0  0  0  0  0  0  0  0  0  0
   -1.4052   -2.8637    0.4459 C   0  0  0  0  0  0  0  0  0  0  0  0
   -2.3360   -0.5735    0.0959 C   0  0  0  0  0  0  0  0  0  0  0  0
   -1.9951    0.8558    0.3444 C   0  0  0  0  0  0  0  0  0  0  0  0
   -4.6123   -0.0891   -0.0218 C   0  0  0  0  0  0  0  0  0  0  0  0
   -4.3813    1.2747    0.1881 C   0  0  0  0  0  0  0  0  0  0  0  0
   -3.0089    1.7256    0.3820 C   0  0  0  0  0  0  0  0  0  0  0  0
   -5.9125   -0.5615   -0.2026 C   0  0  0  0  0  0  0  0  0  0  0  0
   -5.4597    2.1634    0.2159 C   0  0  0  0  0  0  0  0  0  0  0  0
   -6.9856    0.3275   -0.1749 C   0  0  0  0  0  0  0  0  0  0  0  0
   -6.7595    1.6881    0.0336 C   0  0  0  0  0  0  0  0  0  0  0  0
    5.1762    0.3355    1.5536 H   0  0  0  0  0  0  0  0  0  0  0  0
    5.0055    1.9079   -1.0694 H   0  0  0  0  0  0  0  0  0  0  0  0
    4.7925   -0.8939   -1.2303 H   0  0  0  0  0  0  0  0  0  0  0  0
    2.8322    1.7226    1.1152 H   0  0  0  0  0  0  0  0  0  0  0  0
    2.6389   -0.6330    0.9445 H   0  0  0  0  0  0  0  0  0  0  0  0
    2.8339    3.1470   -1.5914 H   0  0  0  0  0  0  0  0  0  0  0  0
    2.9664    3.9548   -0.0041 H   0  0  0  0  0  0  0  0  0  0  0  0
    6.6847    0.3602   -0.8502 H   0  0  0  0  0  0  0  0  0  0  0  0
    4.9529    2.6590    1.6755 H   0  0  0  0  0  0  0  0  0  0  0  0
    4.5365   -1.8902    1.4197 H   0  0  0  0  0  0  0  0  0  0  0  0
    0.8393    3.8585   -0.7962 H   0  0  0  0  0  0  0  0  0  0  0  0
    0.2114   -0.1140   -0.7453 H   0  0  0  0  0  0  0  0  0  0  0  0
    1.7341   -4.0642   -0.0592 H   0  0  0  0  0  0  0  0  0  0  0  0
   -0.5007   -4.8006    0.7119 H   0  0  0  0  0  0  0  0  0  0  0  0
   -2.3800   -3.2007    0.7885 H   0  0  0  0  0  0  0  0  0  0  0  0
   -0.9807    1.1841    0.5247 H   0  0  0  0  0  0  0  0  0  0  0  0
   -2.8259    2.7776    0.5725 H   0  0  0  0  0  0  0  0  0  0  0  0
   -6.0878   -1.6207   -0.3658 H   0  0  0  0  0  0  0  0  0  0  0  0
   -5.3020    3.2266    0.3792 H   0  0  0  0  0  0  0  0  0  0  0  0
   -7.5971    2.3794    0.0551 H   0  0  0  0  0  0  0  0  0  0  0  0
   -7.9982   -0.0390   -0.3159 H   0  0  0  0  0  0  0  0  0  0  0  0
  1 11  1  0  0  0  0
  1 12  1  0  0  0  0
  2 12  1  0  0  0  0
  2 14  1  0  0  0  0
  3  8  1  0  0  0  0
  3 36  1  0  0  0  0
  4  9  1  0  0  0  0
  4 37  1  0  0  0  0
  5 10  1  0  0  0  0
  5 38  1  0  0  0  0
  6 13  1  0  0  0  0
  6 39  1  0  0  0  0
  7 20  2  0  0  0  0
  7 22  1  0  0  0  0
  8  9  1  0  0  0  0
  8 10  1  0  0  0  0
  8 29  1  0  0  0  0
  9 11  1  0  0  0  0
  9 30  1  0  0  0  0
 10 12  1  0  0  0  0
 10 31  1  0  0  0  0
 11 13  1  0  0  0  0
 11 32  1  0  0  0  0
 12 33  1  0  0  0  0
 13 34  1  0  0  0  0
 13 35  1  0  0  0  0
 14 15  1  0  0  0  0
 14 16  2  0  0  0  0
 15 17  2  0  0  0  0
 15 40  1  0  0  0  0
 16 18  1  0  0  0  0
 16 41  1  0  0  0  0
 17 19  1  0  0  0  0
 17 20  1  0  0  0  0
 18 19  2  0  0  0  0
 18 42  1  0  0  0  0
 19 43  1  0  0  0  0
 20 21  1  0  0  0  0
 21 24  2  0  0  0  0
 21 44  1  0  0  0  0
 22 23  1  0  0  0  0
 22 25  2  0  0  0  0
 23 24  1  0  0  0  0
 23 26  2  0  0  0  0
 24 45  1  0  0  0  0
 25 27  1  0  0  0  0
 25 46  1  0  0  0  0
 26 28  1  0  0  0  0
 26 47  1  0  0  0  0
 27 28  2  0  0  0  0
 27 49  1  0  0  0  0
 28 48  1  0  0  0  0
M  CHG  1   7   1
M  END
> <PUBCHEM_COMPOUND_CID>
56928084

> <PUBCHEM_CONFORMER_RMSD>
1

> <PUBCHEM_CONFORMER_DIVERSEORDER>
1
119
100
62
95
50
115
72
15
128
122
5
124
9
75
123
10
112
12
121
24
27
64
68
63
125
104
91
106
17
25
19
110
132
58
117
22
11
69
26
73
85
42
133
13
52
54
107
113
111
79
96
6
38
3
4
83
36
135
2
84
88
18
7
131
46
138
67
48
101
37
120
127
102
78
81
94
49
90
14
108
130
66
40
60
53
103
16
65
76
20
57
61
105
45
98
70
59
82
116
136
47
89
87
32
80
118
71
51
21
33
35
55
8
29
86
92
99
39
129
34
28
97
31
77
74
137
23
126
93
134
30
56
44
43
109
41
114

> <PUBCHEM_MMFF94_PARTIAL_CHARGES>
42
1 -0.56
10 0.28
11 0.28
12 0.56
13 0.28
14 0.08
15 -0.15
16 -0.15
17 0.09
18 -0.15
19 -0.15
2 -0.36
20 0.85
21 -0.14
22 0.92
23 0.03
24 -0.18
25 -0.15
26 -0.15
27 -0.15
28 -0.15
3 -0.68
36 0.4
37 0.4
38 0.4
39 0.4
4 -0.68
40 0.15
41 0.15
42 0.15
43 0.15
44 0.15
45 0.15
46 0.15
47 0.15
48 0.15
49 0.15
5 -0.68
6 -0.68
7 -0.87
8 0.28
9 0.28

> <PUBCHEM_EFFECTIVE_ROTOR_COUNT>
5.2

> <PUBCHEM_PHARMACOPHORE_FEATURES>
14
1 1 acceptor
1 2 acceptor
1 3 acceptor
1 3 donor
1 4 acceptor
1 4 donor
1 5 acceptor
1 5 donor
1 6 acceptor
1 6 donor
6 1 8 9 10 11 12 rings
6 14 15 16 17 18 19 rings
6 22 23 25 26 27 28 rings
6 7 20 21 22 23 24 rings

> <PUBCHEM_HEAVY_ATOM_COUNT>
28

> <PUBCHEM_ATOM_DEF_STEREO_COUNT>
5

> <PUBCHEM_ATOM_UDEF_STEREO_COUNT>
0

> <PUBCHEM_BOND_DEF_STEREO_COUNT>
0

> <PUBCHEM_BOND_UDEF_STEREO_COUNT>
0

> <PUBCHEM_ISOTOPIC_ATOM_COUNT>
0

> <PUBCHEM_COMPONENT_COUNT>
1

> <PUBCHEM_CACTVS_TAUTO_COUNT>
1

> <PUBCHEM_CONFORMER_ID>
0364A75400000001

> <PUBCHEM_MMFF94_ENERGY>
92.4529

> <PUBCHEM_FEATURE_SELFOVERLAP>
71.131

> <PUBCHEM_SHAPE_FINGERPRINT>
10411042 1 17689998264302086854
10439779 11 18263934250102604080
10835480 77 18270403927624677213
11273773 38 18271516491036015612
12107183 9 18342186557555498706
12769317 202 18337118963791114765
12838862 33 18338252513035120848
12925494 130 18339645533879196650
13402501 40 18412263951761715141
1361 2 18412544310252644321
14117953 113 18413106177737274436
14790565 3 18409445899797520329
15183329 4 18410292523229064841
15238133 3 18271800195342533870
15320467 1 18410855464613949097
16087824 20 18340485664322593508
16728300 4 17271192000617265282
16760501 71 18411417315160406235
18608769 82 18337388241799644699
20028762 73 18188209917850680646
20567600 254 18413393146219372367
20715895 44 18409448089560688016
21033648 144 18200886096996537383
21033648 29 17823153241725652546
21197605 99 18335417924708390951
21298829 104 18335134341029767177
21315763 129 18411699928646296317
21315764 268 18342461494758417788
21716022 299 15070011498366069694
21779490 112 16253610017486642220
23227448 37 18335981974226233095
23559900 14 18409172104164338793
23845131 108 18272931631157272827
245318 6 17915723306841938293
2838139 119 18334299751225933831
3004659 81 18411699894086656664
335352 9 18410290316401403678
338550 245 18341328894787281885
34797466 226 17895188961474010207
350125 39 18411701001876599261
3680242 22 18341330101561939090
392239 28 18339066121996813251
4073 2 18130784499879467642
474 4 18410009966115436435
5081480 168 17463085272297740718
5104073 3 18272931622276837347
513532 50 18114169870304158654
53794403 172 18269545061864827756
6036956 94 17404302898064815429
6138700 20 18411135874285010064
6328613 192 18270390591577188980
6371009 1 18410860970840715141
99344 41 18410014360099257665
9981440 41 18341889663182420107

> <PUBCHEM_SHAPE_MULTIPOLES>
535.14
16.12
4.04
0.72
8.49
1.24
0
-9.88
0.85
-2.3
0.2
-0.17
-0.01
0.01

> <PUBCHEM_SHAPE_SELFOVERLAP>
1165.062

> <PUBCHEM_SHAPE_VOLUME>
288.9

> <PUBCHEM_COORDINATE_TYPE>
2
5
10

$$$$

