23724704
  -OEChem-07051213083D

 73 77  0     1  0  0  0  0  0999 V2000
    2.4056   -0.9816   -0.5771 O   0  0  0  0  0  0  0  0  0  0  0  0
   -0.9012   -2.4504   -0.0693 O   0  0  0  0  0  0  0  0  0  0  0  0
    2.3995    0.0717    1.5049 O   0  0  0  0  0  0  0  0  0  0  0  0
    2.9415   -3.8706   -0.3593 O   0  0  0  0  0  0  0  0  0  0  0  0
   -0.1471   -0.3013    0.4374 O   0  0  0  0  0  0  0  0  0  0  0  0
    0.7573   -5.3928   -1.4854 O   0  0  0  0  0  0  0  0  0  0  0  0
    5.0645   -0.1047   -0.9883 O   0  0  0  0  0  0  0  0  0  0  0  0
    5.6471    2.3736    0.4946 O   0  0  0  0  0  0  0  0  0  0  0  0
    4.8909    2.0936    3.2705 O   0  0  0  0  0  0  0  0  0  0  0  0
   -3.1339   -3.8806   -0.7942 O   0  0  0  0  0  0  0  0  0  0  0  0
    1.3376   -0.0727    4.0362 O   0  0  0  0  0  0  0  0  0  0  0  0
   -2.7815    1.9241   -0.9018 O   0  3  0  0  0  0  0  0  0  0  0  0
   -4.8122   -0.9121    2.4795 O   0  0  0  0  0  0  0  0  0  0  0  0
   -7.4108    2.3878    0.2458 O   0  0  0  0  0  0  0  0  0  0  0  0
    2.7187    2.9061   -3.9109 O   0  0  0  0  0  0  0  0  0  0  0  0
    1.4778   -1.9649   -0.1192 C   0  0  2  0  0  0  0  0  0  0  0  0
    1.7347   -3.2836   -0.8486 C   0  0  2  0  0  0  0  0  0  0  0  0
    0.5965   -4.2769   -0.6135 C   0  0  1  0  0  0  0  0  0  0  0  0
    3.2216   -0.5012    0.4908 C   0  0  2  0  0  0  0  0  0  0  0  0
    4.1760    0.5471   -0.0811 C   0  0  1  0  0  0  0  0  0  0  0  0
    0.0635   -1.4490   -0.3845 C   0  0  1  0  0  0  0  0  0  0  0  0
   -0.7606   -3.6202   -0.8772 C   0  0  1  0  0  0  0  0  0  0  0  0
    4.9862    1.2236    1.0249 C   0  0  2  0  0  0  0  0  0  0  0  0
    4.0838    1.6829    2.1701 C   0  0  1  0  0  0  0  0  0  0  0  0
    3.1561    0.5509    2.6180 C   0  0  1  0  0  0  0  0  0  0  0  0
   -1.9163   -4.5558   -0.5368 C   0  0  0  0  0  0  0  0  0  0  0  0
    2.1660    1.0189    3.6798 C   0  0  0  0  0  0  0  0  0  0  0  0
   -1.4071    0.2226    0.2618 C   0  0  0  0  0  0  0  0  0  0  0  0
   -1.6422    1.3114   -0.7388 C   0  0  0  0  0  0  0  0  0  0  0  0
   -2.4634   -0.1599    0.9908 C   0  0  0  0  0  0  0  0  0  0  0  0
   -3.7636    0.4755    0.8099 C   0  0  0  0  0  0  0  0  0  0  0  0
   -0.4925    1.7312   -1.5738 C   0  0  0  0  0  0  0  0  0  0  0  0
   -3.8797    1.5093   -0.1252 C   0  0  0  0  0  0  0  0  0  0  0  0
   -4.8811    0.0883    1.5554 C   0  0  0  0  0  0  0  0  0  0  0  0
   -5.1039    2.1513   -0.3146 C   0  0  0  0  0  0  0  0  0  0  0  0
   -0.2590    1.0995   -2.7901 C   0  0  0  0  0  0  0  0  0  0  0  0
    0.3417    2.7530   -1.1341 C   0  0  0  0  0  0  0  0  0  0  0  0
   -6.1050    0.7317    1.3634 C   0  0  0  0  0  0  0  0  0  0  0  0
   -6.2161    1.7622    0.4301 C   0  0  0  0  0  0  0  0  0  0  0  0
    0.8229    1.4948   -3.5769 C   0  0  0  0  0  0  0  0  0  0  0  0
    1.4235    3.1482   -1.9210 C   0  0  0  0  0  0  0  0  0  0  0  0
    1.6641    2.5190   -3.1424 C   0  0  0  0  0  0  0  0  0  0  0  0
    1.5907   -2.1476    0.9595 H   0  0  0  0  0  0  0  0  0  0  0  0
    1.8887   -3.1132   -1.9206 H   0  0  0  0  0  0  0  0  0  0  0  0
    0.6515   -4.6484    0.4181 H   0  0  0  0  0  0  0  0  0  0  0  0
    3.7852   -1.3512    0.8995 H   0  0  0  0  0  0  0  0  0  0  0  0
    3.6229    1.2929   -0.6625 H   0  0  0  0  0  0  0  0  0  0  0  0
   -0.0340   -1.1707   -1.4386 H   0  0  0  0  0  0  0  0  0  0  0  0
   -0.8580   -3.3311   -1.9325 H   0  0  0  0  0  0  0  0  0  0  0  0
    5.7766    0.5610    1.3964 H   0  0  0  0  0  0  0  0  0  0  0  0
    3.4999    2.5523    1.8405 H   0  0  0  0  0  0  0  0  0  0  0  0
    3.7319   -0.2861    3.0360 H   0  0  0  0  0  0  0  0  0  0  0  0
   -1.9015   -4.8242    0.5249 H   0  0  0  0  0  0  0  0  0  0  0  0
   -1.8948   -5.4666   -1.1416 H   0  0  0  0  0  0  0  0  0  0  0  0
    2.6693    1.3687    4.5850 H   0  0  0  0  0  0  0  0  0  0  0  0
    1.5206    1.8186    3.3015 H   0  0  0  0  0  0  0  0  0  0  0  0
    2.8431   -4.0132    0.5975 H   0  0  0  0  0  0  0  0  0  0  0  0
    0.1876   -6.1096   -1.1598 H   0  0  0  0  0  0  0  0  0  0  0  0
    5.5663   -0.7729   -0.4911 H   0  0  0  0  0  0  0  0  0  0  0  0
    4.9703    2.9740    0.1382 H   0  0  0  0  0  0  0  0  0  0  0  0
    4.3283    2.6003    3.8798 H   0  0  0  0  0  0  0  0  0  0  0  0
   -3.8552   -4.4901   -0.5622 H   0  0  0  0  0  0  0  0  0  0  0  0
    0.8911   -0.3792    3.2283 H   0  0  0  0  0  0  0  0  0  0  0  0
   -2.3294   -0.9372    1.7329 H   0  0  0  0  0  0  0  0  0  0  0  0
   -5.1840    2.9520   -1.0446 H   0  0  0  0  0  0  0  0  0  0  0  0
   -0.9143    0.3075   -3.1424 H   0  0  0  0  0  0  0  0  0  0  0  0
    0.1625    3.2475   -0.1832 H   0  0  0  0  0  0  0  0  0  0  0  0
   -6.9701    0.4253    1.9467 H   0  0  0  0  0  0  0  0  0  0  0  0
    0.9983    0.9979   -4.5272 H   0  0  0  0  0  0  0  0  0  0  0  0
    2.0763    3.9455   -1.5761 H   0  0  0  0  0  0  0  0  0  0  0  0
   -3.9086   -1.0043    2.8177 H   0  0  0  0  0  0  0  0  0  0  0  0
   -8.0694    1.9922    0.8423 H   0  0  0  0  0  0  0  0  0  0  0  0
    2.7350    2.3649   -4.7189 H   0  0  0  0  0  0  0  0  0  0  0  0
  1 16  1  0  0  0  0
  1 19  1  0  0  0  0
  2 21  1  0  0  0  0
  2 22  1  0  0  0  0
  3 19  1  0  0  0  0
  3 25  1  0  0  0  0
  4 17  1  0  0  0  0
  4 57  1  0  0  0  0
  5 21  1  0  0  0  0
  5 28  1  0  0  0  0
  6 18  1  0  0  0  0
  6 58  1  0  0  0  0
  7 20  1  0  0  0  0
  7 59  1  0  0  0  0
  8 23  1  0  0  0  0
  8 60  1  0  0  0  0
  9 24  1  0  0  0  0
  9 61  1  0  0  0  0
 10 26  1  0  0  0  0
 10 62  1  0  0  0  0
 11 27  1  0  0  0  0
 11 63  1  0  0  0  0
 12 29  2  0  0  0  0
 12 33  1  0  0  0  0
 13 34  1  0  0  0  0
 13 71  1  0  0  0  0
 14 39  1  0  0  0  0
 14 72  1  0  0  0  0
 15 42  1  0  0  0  0
 15 73  1  0  0  0  0
 16 17  1  0  0  0  0
 16 21  1  0  0  0  0
 16 43  1  0  0  0  0
 17 18  1  0  0  0  0
 17 44  1  0  0  0  0
 18 22  1  0  0  0  0
 18 45  1  0  0  0  0
 19 20  1  0  0  0  0
 19 46  1  0  0  0  0
 20 23  1  0  0  0  0
 20 47  1  0  0  0  0
 21 48  1  0  0  0  0
 22 26  1  0  0  0  0
 22 49  1  0  0  0  0
 23 24  1  0  0  0  0
 23 50  1  0  0  0  0
 24 25  1  0  0  0  0
 24 51  1  0  0  0  0
 25 27  1  0  0  0  0
 25 52  1  0  0  0  0
 26 53  1  0  0  0  0
 26 54  1  0  0  0  0
 27 55  1  0  0  0  0
 27 56  1  0  0  0  0
 28 29  1  0  0  0  0
 28 30  2  0  0  0  0
 29 32  1  0  0  0  0
 30 31  1  0  0  0  0
 30 64  1  0  0  0  0
 31 33  1  0  0  0  0
 31 34  2  0  0  0  0
 32 36  2  0  0  0  0
 32 37  1  0  0  0  0
 33 35  2  0  0  0  0
 34 38  1  0  0  0  0
 35 39  1  0  0  0  0
 35 65  1  0  0  0  0
 36 40  1  0  0  0  0
 36 66  1  0  0  0  0
 37 41  2  0  0  0  0
 37 67  1  0  0  0  0
 38 39  2  0  0  0  0
 38 68  1  0  0  0  0
 40 42  2  0  0  0  0
 40 69  1  0  0  0  0
 41 42  1  0  0  0  0
 41 70  1  0  0  0  0
M  CHG  1  12   1
M  END
> <PUBCHEM_COMPOUND_CID>
23724704

> <PUBCHEM_CONFORMER_RMSD>
1.2

> <PUBCHEM_CONFORMER_DIVERSEORDER>
1
107
99
48
37
92
42
113
55
2
96
57
83
29
123
111
124
11
30
76
38
51
105
109
62
121
64
112
80
24
87
44
9
63
82
77
35
67
93
119
118
88
104
40
66
72
13
6
102
58
52
31
110
79
46
70
90
85
61
100
56
3
20
49
28
59
5
74
45
126
120
23
97
94
101
54
53
10
17
27
18
89
41
8
75
47
60
21
7
22
108
71
34
95
106
73
14
69
16
91
116
65
43
98
39
36
32
33
15
125
86
4
26
84
117
122
50
81
68
19
78
115
12
25
114
103

> <PUBCHEM_MMFF94_PARTIAL_CHARGES>
59
1 -0.56
10 -0.68
11 -0.68
12 -0.87
13 -0.53
14 -0.53
15 -0.53
16 0.28
17 0.28
18 0.28
19 0.56
2 -0.56
20 0.28
21 0.56
22 0.28
23 0.28
24 0.28
25 0.28
26 0.28
27 0.28
28 0.09
29 0.85
3 -0.56
30 -0.18
31 0.03
32 0.09
33 0.92
34 0.08
35 -0.15
36 -0.15
37 -0.15
38 -0.15
39 0.08
4 -0.68
40 -0.15
41 -0.15
42 0.08
5 -0.36
57 0.4
58 0.4
59 0.4
6 -0.68
60 0.4
61 0.4
62 0.4
63 0.4
64 0.15
65 0.15
66 0.15
67 0.15
68 0.15
69 0.15
7 -0.68
70 0.15
71 0.45
72 0.45
73 0.45
8 -0.68
9 -0.68

> <PUBCHEM_EFFECTIVE_ROTOR_COUNT>
9.4

> <PUBCHEM_PHARMACOPHORE_FEATURES>
26
1 1 acceptor
1 10 acceptor
1 10 donor
1 11 acceptor
1 11 donor
1 13 donor
1 14 donor
1 15 donor
1 2 acceptor
1 3 acceptor
1 4 acceptor
1 4 donor
1 5 acceptor
1 6 acceptor
1 6 donor
1 7 acceptor
1 7 donor
1 8 acceptor
1 8 donor
1 9 acceptor
1 9 donor
6 12 28 29 30 31 33 rings
6 2 16 17 18 21 22 rings
6 3 19 20 23 24 25 rings
6 31 33 34 35 38 39 rings
6 32 36 37 40 41 42 rings

> <PUBCHEM_HEAVY_ATOM_COUNT>
42

> <PUBCHEM_ATOM_DEF_STEREO_COUNT>
10

> <PUBCHEM_ATOM_UDEF_STEREO_COUNT>
0

> <PUBCHEM_BOND_DEF_STEREO_COUNT>
0

> <PUBCHEM_BOND_UDEF_STEREO_COUNT>
0

> <PUBCHEM_ISOTOPIC_ATOM_COUNT>
0

> <PUBCHEM_COMPONENT_COUNT>
1

> <PUBCHEM_CACTVS_TAUTO_COUNT>
41

> <PUBCHEM_CONFORMER_ID>
016A02A000000001

> <PUBCHEM_MMFF94_ENERGY>
137.7723

> <PUBCHEM_FEATURE_SELFOVERLAP>
132.09

> <PUBCHEM_SHAPE_FINGERPRINT>
10165383 225 18335980952429801908
11093857 51 18196625545368569102
12156800 1 17827622661227600100
12422481 6 18131068229798456341
12788726 201 17691108349853652063
13111901 51 18338242544784740589
13636023 51 18270403930701196635
13965767 371 18268732600639819098
140371 6 17984118630075423133
14040222 75 16768750431246395517
14955137 171 18201142321886972924
15297060 5 18263065674644517974
15324884 4 18127978722462598639
15420108 30 18127403458627372196
15775530 1 17263015052378001573
17980427 23 18060425694704551581
18365409 1 18262246508839619183
19309040 13 17315367916916463496
19319366 153 17604446166486832296
1979834 28 18341326794590354965
21033648 29 18335427867320467105
22149856 69 18265590227263957545
23559900 14 18128518552970932127
25222932 49 17275102834216411793
27425 322 17604162440478285789
469060 322 17486245277771617938
581034 39 18264482889071624099

> <PUBCHEM_SHAPE_MULTIPOLES>
776.3
11.55
5.51
3.59
12.73
8.75
0.77
-9.07
7.71
-0.69
-4.25
-3.99
-3.07
0.48

> <PUBCHEM_SHAPE_SELFOVERLAP>
1682.982

> <PUBCHEM_SHAPE_VOLUME>
417.3

> <PUBCHEM_COORDINATE_TYPE>
2
5
10

$$$$

