11953829
  -OEChem-07051212493D

 66 70  0     1  0  0  0  0  0999 V2000
    0.4828   -1.5301    0.7646 O   0  0  0  0  0  0  0  0  0  0  0  0
   -2.0657   -1.2085   -0.2142 O   0  0  0  0  0  0  0  0  0  0  0  0
   -4.1764   -2.0323   -0.7786 O   0  0  0  0  0  0  0  0  0  0  0  0
   -0.1577   -4.9851   -0.2680 O   0  0  0  0  0  0  0  0  0  0  0  0
    2.3850   -5.1548    1.0964 O   0  0  0  0  0  0  0  0  0  0  0  0
    2.4409   -0.3719    1.2824 O   0  0  0  0  0  0  0  0  0  0  0  0
    3.9461   -2.6911    0.6791 O   0  0  0  0  0  0  0  0  0  0  0  0
   -3.2301    1.3521    0.2635 O   0  0  0  0  0  0  0  0  0  0  0  0
   -5.6131    1.7821   -1.3095 O   0  0  0  0  0  0  0  0  0  0  0  0
   -7.4728   -0.4844   -0.9957 O   0  0  0  0  0  0  0  0  0  0  0  0
    1.8503    2.8160   -0.4714 O   0  0  0  0  0  0  0  0  0  0  0  0
    0.1797    0.6437    2.5445 O   0  0  0  0  0  0  0  0  0  0  0  0
   -0.1350   -2.5929    0.0368 C   0  0  1  0  0  0  0  0  0  0  0  0
    0.4039   -3.9406    0.5225 C   0  0  2  0  0  0  0  0  0  0  0  0
    1.9280   -3.9870    0.4124 C   0  0  1  0  0  0  0  0  0  0  0  0
    2.5661   -2.7474    1.0394 C   0  0  2  0  0  0  0  0  0  0  0  0
    1.8908   -1.4663    0.5499 C   0  0  1  0  0  0  0  0  0  0  0  0
   -1.6416   -2.4787    0.2459 C   0  0  0  0  0  0  0  0  0  0  0  0
   -3.4716   -1.0291   -0.0495 C   0  0  2  0  0  0  0  0  0  0  0  0
   -3.8313    0.3629   -0.5716 C   0  0  1  0  0  0  0  0  0  0  0  0
   -5.3431    0.5885   -0.5731 C   0  0  2  0  0  0  0  0  0  0  0  0
   -6.0717   -0.5873   -1.2228 C   0  0  1  0  0  0  0  0  0  0  0  0
   -5.5873   -1.9069   -0.6387 C   0  0  0  0  0  0  0  0  0  0  0  0
    1.8766    0.8267    0.9029 C   0  0  0  0  0  0  0  0  0  0  0  0
    2.3730    1.5917   -0.0864 C   0  0  0  0  0  0  0  0  0  0  0  0
    0.6766    1.2964    1.6363 C   0  0  0  0  0  0  0  0  0  0  0  0
    0.1173    2.5894    1.2132 C   0  0  0  0  0  0  0  0  0  0  0  0
    3.5646    1.2057   -0.8623 C   0  0  0  0  0  0  0  0  0  0  0  0
    0.7372    3.2846    0.1773 C   0  0  0  0  0  0  0  0  0  0  0  0
   -1.0156    3.1164    1.8380 C   0  0  0  0  0  0  0  0  0  0  0  0
    0.2274    4.5143   -0.2407 C   0  0  0  0  0  0  0  0  0  0  0  0
    3.4248    0.4495   -2.0266 C   0  0  0  0  0  0  0  0  0  0  0  0
    4.8338    1.5960   -0.4335 C   0  0  0  0  0  0  0  0  0  0  0  0
   -1.5240    4.3461    1.4178 C   0  0  0  0  0  0  0  0  0  0  0  0
   -0.9038    5.0439    0.3806 C   0  0  0  0  0  0  0  0  0  0  0  0
    4.5529    0.0838   -2.7611 C   0  0  0  0  0  0  0  0  0  0  0  0
    5.9617    1.2303   -1.1681 C   0  0  0  0  0  0  0  0  0  0  0  0
    5.8211    0.4742   -2.3320 C   0  0  0  0  0  0  0  0  0  0  0  0
    0.0705   -2.4509   -1.0330 H   0  0  0  0  0  0  0  0  0  0  0  0
    0.1143   -4.1186    1.5664 H   0  0  0  0  0  0  0  0  0  0  0  0
    2.2404   -4.1013   -0.6323 H   0  0  0  0  0  0  0  0  0  0  0  0
    2.5228   -2.8024    2.1343 H   0  0  0  0  0  0  0  0  0  0  0  0
    2.0922   -1.3344   -0.5184 H   0  0  0  0  0  0  0  0  0  0  0  0
   -1.8802   -2.5664    1.3128 H   0  0  0  0  0  0  0  0  0  0  0  0
   -2.1583   -3.2702   -0.3057 H   0  0  0  0  0  0  0  0  0  0  0  0
   -3.7038   -1.1076    1.0214 H   0  0  0  0  0  0  0  0  0  0  0  0
   -3.4294    0.5109   -1.5819 H   0  0  0  0  0  0  0  0  0  0  0  0
   -5.7184    0.7581    0.4437 H   0  0  0  0  0  0  0  0  0  0  0  0
   -5.9054   -0.5735   -2.3068 H   0  0  0  0  0  0  0  0  0  0  0  0
   -6.0584   -2.7435   -1.1665 H   0  0  0  0  0  0  0  0  0  0  0  0
   -5.8707   -2.0112    0.4164 H   0  0  0  0  0  0  0  0  0  0  0  0
   -1.0778   -5.1127    0.0173 H   0  0  0  0  0  0  0  0  0  0  0  0
    2.1418   -5.0709    2.0341 H   0  0  0  0  0  0  0  0  0  0  0  0
    4.3575   -3.5208    0.9760 H   0  0  0  0  0  0  0  0  0  0  0  0
   -2.2744    1.1736    0.2702 H   0  0  0  0  0  0  0  0  0  0  0  0
   -5.1237    2.5053   -0.8811 H   0  0  0  0  0  0  0  0  0  0  0  0
   -7.7611    0.3767   -1.3436 H   0  0  0  0  0  0  0  0  0  0  0  0
   -1.5120    2.5880    2.6470 H   0  0  0  0  0  0  0  0  0  0  0  0
    0.7040    5.0641   -1.0477 H   0  0  0  0  0  0  0  0  0  0  0  0
    2.4427    0.1462   -2.3814 H   0  0  0  0  0  0  0  0  0  0  0  0
    4.9592    2.1856    0.4714 H   0  0  0  0  0  0  0  0  0  0  0  0
   -2.4051    4.7610    1.8988 H   0  0  0  0  0  0  0  0  0  0  0  0
   -1.3027    6.0007    0.0564 H   0  0  0  0  0  0  0  0  0  0  0  0
    4.4433   -0.5031   -3.6684 H   0  0  0  0  0  0  0  0  0  0  0  0
    6.9495    1.5343   -0.8342 H   0  0  0  0  0  0  0  0  0  0  0  0
    6.6994    0.1898   -2.9041 H   0  0  0  0  0  0  0  0  0  0  0  0
  1 13  1  0  0  0  0
  1 17  1  0  0  0  0
  2 18  1  0  0  0  0
  2 19  1  0  0  0  0
  3 19  1  0  0  0  0
  3 23  1  0  0  0  0
  4 14  1  0  0  0  0
  4 52  1  0  0  0  0
  5 15  1  0  0  0  0
  5 53  1  0  0  0  0
  6 17  1  0  0  0  0
  6 24  1  0  0  0  0
  7 16  1  0  0  0  0
  7 54  1  0  0  0  0
  8 20  1  0  0  0  0
  8 55  1  0  0  0  0
  9 21  1  0  0  0  0
  9 56  1  0  0  0  0
 10 22  1  0  0  0  0
 10 57  1  0  0  0  0
 11 25  1  0  0  0  0
 11 29  1  0  0  0  0
 12 26  2  0  0  0  0
 13 14  1  0  0  0  0
 13 18  1  0  0  0  0
 13 39  1  0  0  0  0
 14 15  1  0  0  0  0
 14 40  1  0  0  0  0
 15 16  1  0  0  0  0
 15 41  1  0  0  0  0
 16 17  1  0  0  0  0
 16 42  1  0  0  0  0
 17 43  1  0  0  0  0
 18 44  1  0  0  0  0
 18 45  1  0  0  0  0
 19 20  1  0  0  0  0
 19 46  1  0  0  0  0
 20 21  1  0  0  0  0
 20 47  1  0  0  0  0
 21 22  1  0  0  0  0
 21 48  1  0  0  0  0
 22 23  1  0  0  0  0
 22 49  1  0  0  0  0
 23 50  1  0  0  0  0
 23 51  1  0  0  0  0
 24 25  2  0  0  0  0
 24 26  1  0  0  0  0
 25 28  1  0  0  0  0
 26 27  1  0  0  0  0
 27 29  1  0  0  0  0
 27 30  2  0  0  0  0
 28 32  2  0  0  0  0
 28 33  1  0  0  0  0
 29 31  2  0  0  0  0
 30 34  1  0  0  0  0
 30 58  1  0  0  0  0
 31 35  1  0  0  0  0
 31 59  1  0  0  0  0
 32 36  1  0  0  0  0
 32 60  1  0  0  0  0
 33 37  2  0  0  0  0
 33 61  1  0  0  0  0
 34 35  2  0  0  0  0
 34 62  1  0  0  0  0
 35 63  1  0  0  0  0
 36 38  2  0  0  0  0
 36 64  1  0  0  0  0
 37 38  1  0  0  0  0
 37 65  1  0  0  0  0
 38 66  1  0  0  0  0
M  END
> <PUBCHEM_COMPOUND_CID>
11953829

> <PUBCHEM_CONFORMER_RMSD>
1

> <PUBCHEM_CONFORMER_DIVERSEORDER>
1
45
146
72
89
70
166
36
145
104
142
92
190
137
101
67
131
85
130
19
194
99
31
34
129
143
210
75
181
211
199
195
172
93
171
26
58
183
161
178
135
139
59
124
122
83
12
28
22
128
100
108
186
103
3
114
118
123
35
156
184
57
136
9
196
174
27
47
82
16
109
158
2
208
121
204
132
117
105
68
80
152
91
56
40
42
160
8
138
106
21
11
33
29
90
10
79
73
203
192
14
39
74
119
189
198
212
65
180
169
154
214
66
64
102
71
202
37
84
48
213
76
98
54
206
78
215
167
170
112
133
95
17
185
115
55
43
197
134
13
107
4
148
209
62
179
23
81
6
157
94
187
32
63
163
175
141
87
18
15
147
140
205
96
20
125
77
155
110
151
97
88
153
30
162
7
25
144
173
61
126
176
200
164
113
201
111
41
51
49
86
159
24
52
44
193
116
38
150
165
50
168
191
46
207
69
149
177
182
120
188
127
60
53
5

> <PUBCHEM_MMFF94_PARTIAL_CHARGES>
53
1 -0.56
10 -0.68
11 -0.16
12 -0.57
13 0.28
14 0.28
15 0.28
16 0.28
17 0.56
18 0.28
19 0.56
2 -0.56
20 0.28
21 0.28
22 0.28
23 0.28
24 0.09
25 0.05
26 0.47
27 0.09
28 0.03
29 0.08
3 -0.56
30 -0.15
31 -0.15
32 -0.15
33 -0.15
34 -0.15
35 -0.15
36 -0.15
37 -0.15
38 -0.15
4 -0.68
5 -0.68
52 0.4
53 0.4
54 0.4
55 0.4
56 0.4
57 0.4
58 0.15
59 0.15
6 -0.36
60 0.15
61 0.15
62 0.15
63 0.15
64 0.15
65 0.15
66 0.15
7 -0.68
8 -0.68
9 -0.68

> <PUBCHEM_EFFECTIVE_ROTOR_COUNT>
8.4

> <PUBCHEM_PHARMACOPHORE_FEATURES>
23
1 1 acceptor
1 10 acceptor
1 10 donor
1 11 acceptor
1 12 acceptor
1 2 acceptor
1 3 acceptor
1 4 acceptor
1 4 donor
1 5 acceptor
1 5 donor
1 6 acceptor
1 7 acceptor
1 7 donor
1 8 acceptor
1 8 donor
1 9 acceptor
1 9 donor
6 1 13 14 15 16 17 rings
6 11 24 25 26 27 29 rings
6 27 29 30 31 34 35 rings
6 28 32 33 36 37 38 rings
6 3 19 20 21 22 23 rings

> <PUBCHEM_HEAVY_ATOM_COUNT>
38

> <PUBCHEM_ATOM_DEF_STEREO_COUNT>
9

> <PUBCHEM_ATOM_UDEF_STEREO_COUNT>
0

> <PUBCHEM_BOND_DEF_STEREO_COUNT>
0

> <PUBCHEM_BOND_UDEF_STEREO_COUNT>
0

> <PUBCHEM_ISOTOPIC_ATOM_COUNT>
0

> <PUBCHEM_COMPONENT_COUNT>
1

> <PUBCHEM_CACTVS_TAUTO_COUNT>
1

> <PUBCHEM_CONFORMER_ID>
00B666A500000001

> <PUBCHEM_MMFF94_ENERGY>
120.8431

> <PUBCHEM_FEATURE_SELFOVERLAP>
116.864

> <PUBCHEM_SHAPE_FINGERPRINT>
10190108 129 18050248666137833121
10190206 1 18338216238168607332
10483366 6 18411976958331797150
10675989 125 18411417289712394872
10930396 42 18119274791614059184
11285246 1 18117532124921512356
11421498 54 18411419539869167028
11513181 2 17972869534415533502
11578080 2 14979369839237376682
11966995 178 18261112938531953293
12788726 201 18261668272406390192
13911987 19 18199170833367087932
140371 6 17979361081458234731
14400156 266 18050001388487532118
14931854 50 18410289207498066301
15210252 30 18270964544287561780
15351339 4 18411139159919070041
15406563 228 17550111806061143900
15950262 2 15769774611233117996
16992727 255 18128530475652921164
17627616 140 18268985556548432743
19311894 1 18191287313494879466
20465049 17 18338513015649290087
20764821 26 18266760128219008423
20775438 99 17105396276886629743
21583282 1 17838586183932763645
23536364 44 18336812113751844230
23559900 14 18117282450447416853
24893992 56 18338798902132790567
25019877 29 14005450605321999764
404807 78 17700968848047925275
4066623 53 18261106426454684982
508180 173 18264486183311358795
513532 50 17822864073903325286
5776283 40 17981318993576012652

> <PUBCHEM_SHAPE_MULTIPOLES>
711.59
12.15
6.93
1.87
12.58
1.06
-0.35
1.06
-10.39
-0.82
2.98
-1.63
-0.49
-1.9

> <PUBCHEM_SHAPE_SELFOVERLAP>
1546.583

> <PUBCHEM_SHAPE_VOLUME>
381.1

> <PUBCHEM_COORDINATE_TYPE>
2
5
10

$$$$

