2328
  -OEChem-07051213003D

 28 29  0     0  0  0  0  0  0999 V2000
    1.0158    1.6193   -0.2026 S   0  0  0  0  0  0  0  0  0  0  0  0
    0.8330    1.7840   -1.6331 O   0  0  0  0  0  0  0  0  0  0  0  0
    1.9584    2.4574    0.5151 O   0  0  0  0  0  0  0  0  0  0  0  0
    0.5984   -2.2567    0.1374 O   0  0  0  0  0  0  0  0  0  0  0  0
    1.3582   -0.0405    0.1122 N   0  0  0  0  0  0  0  0  0  0  0  0
   -0.4943    1.7585    0.5769 N   0  0  0  0  0  0  0  0  0  0  0  0
    2.7896   -0.4333   -0.0425 C   0  0  0  0  0  0  0  0  0  0  0  0
    0.3370   -1.0599    0.1084 C   0  0  0  0  0  0  0  0  0  0  0  0
   -1.0752   -0.5971    0.0687 C   0  0  0  0  0  0  0  0  0  0  0  0
   -1.4505    0.7407    0.2491 C   0  0  0  0  0  0  0  0  0  0  0  0
    2.9011   -1.4926   -1.1293 C   0  0  0  0  0  0  0  0  0  0  0  0
    3.3084   -0.9415    1.2948 C   0  0  0  0  0  0  0  0  0  0  0  0
   -2.0699   -1.5601   -0.1614 C   0  0  0  0  0  0  0  0  0  0  0  0
   -2.8066    1.0915    0.2607 C   0  0  0  0  0  0  0  0  0  0  0  0
   -3.4174   -1.1968   -0.1852 C   0  0  0  0  0  0  0  0  0  0  0  0
   -3.7860    0.1271    0.0310 C   0  0  0  0  0  0  0  0  0  0  0  0
    3.3871    0.4335   -0.3467 H   0  0  0  0  0  0  0  0  0  0  0  0
   -0.8901    2.7063    0.6314 H   0  0  0  0  0  0  0  0  0  0  0  0
    3.9382   -1.5327   -1.4846 H   0  0  0  0  0  0  0  0  0  0  0  0
    2.6758   -2.5058   -0.7851 H   0  0  0  0  0  0  0  0  0  0  0  0
    2.2745   -1.2602   -1.9973 H   0  0  0  0  0  0  0  0  0  0  0  0
    3.2142   -0.1678    2.0646 H   0  0  0  0  0  0  0  0  0  0  0  0
    4.3661   -1.2149    1.2192 H   0  0  0  0  0  0  0  0  0  0  0  0
    2.7591   -1.8212    1.6458 H   0  0  0  0  0  0  0  0  0  0  0  0
   -1.8167   -2.6052   -0.3221 H   0  0  0  0  0  0  0  0  0  0  0  0
   -3.1114    2.1193    0.4428 H   0  0  0  0  0  0  0  0  0  0  0  0
   -4.1790   -1.9506   -0.3630 H   0  0  0  0  0  0  0  0  0  0  0  0
   -4.8351    0.4077    0.0273 H   0  0  0  0  0  0  0  0  0  0  0  0
  1  2  2  0  0  0  0
  1  3  2  0  0  0  0
  1  5  1  0  0  0  0
  1  6  1  0  0  0  0
  4  8  2  0  0  0  0
  5  7  1  0  0  0  0
  5  8  1  0  0  0  0
  6 10  1  0  0  0  0
  6 18  1  0  0  0  0
  7 11  1  0  0  0  0
  7 12  1  0  0  0  0
  7 17  1  0  0  0  0
  8  9  1  0  0  0  0
  9 10  1  0  0  0  0
  9 13  2  0  0  0  0
 10 14  2  0  0  0  0
 11 19  1  0  0  0  0
 11 20  1  0  0  0  0
 11 21  1  0  0  0  0
 12 22  1  0  0  0  0
 12 23  1  0  0  0  0
 12 24  1  0  0  0  0
 13 15  1  0  0  0  0
 13 25  1  0  0  0  0
 14 16  1  0  0  0  0
 14 26  1  0  0  0  0
 15 16  2  0  0  0  0
 15 27  1  0  0  0  0
 16 28  1  0  0  0  0
M  END
> <PUBCHEM_COMPOUND_CID>
2328

> <PUBCHEM_CONFORMER_RMSD>
0.6

> <PUBCHEM_CONFORMER_DIVERSEORDER>
1
2
3

> <PUBCHEM_MMFF94_PARTIAL_CHARGES>
19
1 1.58
10 0.2
13 -0.15
14 -0.15
15 -0.15
16 -0.15
18 0.42
2 -0.65
25 0.15
26 0.15
27 0.15
28 0.15
3 -0.65
4 -0.57
5 -0.73
6 -0.76
7 0.36
8 0.72
9 0.09

> <PUBCHEM_EFFECTIVE_ROTOR_COUNT>
1.4

> <PUBCHEM_PHARMACOPHORE_FEATURES>
5
1 4 acceptor
1 6 donor
3 7 11 12 hydrophobe
6 1 5 6 8 9 10 rings
6 9 10 13 14 15 16 rings

> <PUBCHEM_HEAVY_ATOM_COUNT>
16

> <PUBCHEM_ATOM_DEF_STEREO_COUNT>
0

> <PUBCHEM_ATOM_UDEF_STEREO_COUNT>
0

> <PUBCHEM_BOND_DEF_STEREO_COUNT>
0

> <PUBCHEM_BOND_UDEF_STEREO_COUNT>
0

> <PUBCHEM_ISOTOPIC_ATOM_COUNT>
0

> <PUBCHEM_COMPONENT_COUNT>
1

> <PUBCHEM_CACTVS_TAUTO_COUNT>
2

> <PUBCHEM_CONFORMER_ID>
0000091800000001

> <PUBCHEM_MMFF94_ENERGY>
49.0966

> <PUBCHEM_FEATURE_SELFOVERLAP>
25.394

> <PUBCHEM_SHAPE_FINGERPRINT>
10062212 137 18411989069976333907
10465860 71 18265030566100066958
10967382 1 18192994820576409115
11132069 177 18337677532524453474
11578080 2 17416150423838236060
11680986 33 18198056976432206490
12382932 28 18263649626497451731
13140716 1 18411134702091118185
13221675 6 18410290350202063411
13380535 76 18121503444941032712
14181834 199 18270402685403020212
15536298 74 18261392204788009528
15775835 57 18191015716932062305
16945 1 18337110193188230673
17804303 29 18408882966348540024
18186145 218 18131072602249249887
19591789 44 16387873134457003024
20511035 2 18196086651415877046
20559304 39 18335979779138845546
20645477 70 18336271141795157023
21267235 1 18409439315190935147
21501502 16 18337390418630105969
21501925 9 18336558130903058291
2255824 54 18131064888202987198
2334 1 18266457594743286785
23402539 116 18335995245854648958
23419403 2 17036481241319698072
23463225 33 18412829070683728721
23552423 10 18342455885836967107
23557571 272 16950279568657614607
23559900 14 18187363290013346910
2748010 2 18339922589434506721
5104073 3 18337951191441369019
7364860 26 18189049815790109280
7832392 63 18190456263034404393
81228 2 18123741217417929144
90316 7 17985563383626694112

> <PUBCHEM_SHAPE_MULTIPOLES>
305.55
5.64
2.35
0.97
1.53
0.66
0.15
-1.62
-0.36
-0.71
0.13
-0.73
0.08
-0.14

> <PUBCHEM_SHAPE_SELFOVERLAP>
632.483

> <PUBCHEM_SHAPE_VOLUME>
174.4

> <PUBCHEM_COORDINATE_TYPE>
2
5
10

$$$$

