5281801
  -OEChem-07051212593D

 31 33  0     0  0  0  0  0  0999 V2000
    1.4443    2.0371   -0.0296 O   0  0  0  0  0  0  0  0  0  0  0  0
    2.6034   -2.6686   -0.0390 O   0  0  0  0  0  0  0  0  0  0  0  0
    0.1488   -1.8279   -0.2083 O   0  0  0  0  0  0  0  0  0  0  0  0
    5.9810    0.6573    0.2205 O   0  0  0  0  0  0  0  0  0  0  0  0
   -4.6976   -0.1402    2.0813 O   0  0  0  0  0  0  0  0  0  0  0  0
   -5.9939   -0.2463   -0.3744 O   0  0  0  0  0  0  0  0  0  0  0  0
    1.9607   -0.3344   -0.0386 C   0  0  0  0  0  0  0  0  0  0  0  0
   -0.4187    0.4839   -0.1530 C   0  0  0  0  0  0  0  0  0  0  0  0
    2.3463    1.0048    0.0078 C   0  0  0  0  0  0  0  0  0  0  0  0
    0.5271   -0.6659   -0.1352 C   0  0  0  0  0  0  0  0  0  0  0  0
   -1.8771    0.2922   -0.2075 C   0  0  0  0  0  0  0  0  0  0  0  0
    2.9246   -1.3454    0.0020 C   0  0  0  0  0  0  0  0  0  0  0  0
    0.1104    1.7155   -0.0984 C   0  0  0  0  0  0  0  0  0  0  0  0
    3.6976    1.3409    0.0948 C   0  0  0  0  0  0  0  0  0  0  0  0
   -2.6116    0.1650    0.9733 C   0  0  0  0  0  0  0  0  0  0  0  0
   -2.5308    0.2370   -1.4403 C   0  0  0  0  0  0  0  0  0  0  0  0
    4.2755   -1.0066    0.0897 C   0  0  0  0  0  0  0  0  0  0  0  0
    4.6614    0.3335    0.1358 C   0  0  0  0  0  0  0  0  0  0  0  0
   -3.9938   -0.0162    0.9217 C   0  0  0  0  0  0  0  0  0  0  0  0
   -3.9129    0.0555   -1.4918 C   0  0  0  0  0  0  0  0  0  0  0  0
   -4.6445   -0.0711   -0.3109 C   0  0  0  0  0  0  0  0  0  0  0  0
   -0.4793    2.6241   -0.1006 H   0  0  0  0  0  0  0  0  0  0  0  0
    4.0005    2.3844    0.1307 H   0  0  0  0  0  0  0  0  0  0  0  0
   -2.1127    0.2052    1.9393 H   0  0  0  0  0  0  0  0  0  0  0  0
   -1.9746    0.3333   -2.3697 H   0  0  0  0  0  0  0  0  0  0  0  0
    5.0258   -1.7933    0.1217 H   0  0  0  0  0  0  0  0  0  0  0  0
   -4.4071    0.0147   -2.4588 H   0  0  0  0  0  0  0  0  0  0  0  0
    1.6420   -2.7857   -0.0767 H   0  0  0  0  0  0  0  0  0  0  0  0
    6.5063   -0.1610    0.2382 H   0  0  0  0  0  0  0  0  0  0  0  0
   -5.6372   -0.2589    1.8578 H   0  0  0  0  0  0  0  0  0  0  0  0
   -6.2681   -0.2588   -1.3075 H   0  0  0  0  0  0  0  0  0  0  0  0
  1  9  1  0  0  0  0
  1 13  1  0  0  0  0
  2 12  1  0  0  0  0
  2 28  1  0  0  0  0
  3 10  2  0  0  0  0
  4 18  1  0  0  0  0
  4 29  1  0  0  0  0
  5 19  1  0  0  0  0
  5 30  1  0  0  0  0
  6 21  1  0  0  0  0
  6 31  1  0  0  0  0
  7  9  1  0  0  0  0
  7 10  1  0  0  0  0
  7 12  2  0  0  0  0
  8 10  1  0  0  0  0
  8 11  1  0  0  0  0
  8 13  2  0  0  0  0
  9 14  2  0  0  0  0
 11 15  2  0  0  0  0
 11 16  1  0  0  0  0
 12 17  1  0  0  0  0
 13 22  1  0  0  0  0
 14 18  1  0  0  0  0
 14 23  1  0  0  0  0
 15 19  1  0  0  0  0
 15 24  1  0  0  0  0
 16 20  2  0  0  0  0
 16 25  1  0  0  0  0
 17 18  2  0  0  0  0
 17 26  1  0  0  0  0
 19 21  2  0  0  0  0
 20 21  1  0  0  0  0
 20 27  1  0  0  0  0
M  END
> <PUBCHEM_COMPOUND_CID>
5281801

> <PUBCHEM_CONFORMER_RMSD>
0.6

> <PUBCHEM_CONFORMER_DIVERSEORDER>
1
3
5
2
4
6

> <PUBCHEM_MMFF94_PARTIAL_CHARGES>
31
1 -0.16
10 0.47
11 0.03
12 0.08
13 -0.07
14 -0.15
15 -0.15
16 -0.15
17 -0.15
18 0.08
19 0.08
2 -0.53
20 -0.15
21 0.08
22 0.15
23 0.15
24 0.15
25 0.15
26 0.15
27 0.15
28 0.45
29 0.45
3 -0.57
30 0.45
31 0.45
4 -0.53
5 -0.53
6 -0.53
7 0.09
8 -0.01
9 0.08

> <PUBCHEM_EFFECTIVE_ROTOR_COUNT>
1

> <PUBCHEM_PHARMACOPHORE_FEATURES>
9
1 1 acceptor
1 2 donor
1 3 acceptor
1 4 donor
1 5 donor
1 6 donor
6 1 7 8 9 10 13 rings
6 11 15 16 19 20 21 rings
6 7 9 12 14 17 18 rings

> <PUBCHEM_HEAVY_ATOM_COUNT>
21

> <PUBCHEM_ATOM_DEF_STEREO_COUNT>
0

> <PUBCHEM_ATOM_UDEF_STEREO_COUNT>
0

> <PUBCHEM_BOND_DEF_STEREO_COUNT>
0

> <PUBCHEM_BOND_UDEF_STEREO_COUNT>
0

> <PUBCHEM_ISOTOPIC_ATOM_COUNT>
0

> <PUBCHEM_COMPONENT_COUNT>
1

> <PUBCHEM_CACTVS_TAUTO_COUNT>
120

> <PUBCHEM_CONFORMER_ID>
0050980900000001

> <PUBCHEM_MMFF94_ENERGY>
64.4087

> <PUBCHEM_FEATURE_SELFOVERLAP>
45.702

> <PUBCHEM_SHAPE_FINGERPRINT>
10 15 17917157092307575592
11287383 113 16917065538596163068
11471102 20 18411140234140948268
11796584 16 16487259897551906538
12107183 9 17393310435976065555
12236239 1 17676206875215823469
12596602 18 17385446483853258867
12670546 56 17603308154461205569
13140716 1 18194121820385484232
13544653 18 18342454876266633525
13583140 156 16916804958508532334
13862211 1 18410298038494262006
14386348 63 17918273160416481827
15196674 1 18338238283787006476
15788980 27 17561365062931802891
15961568 22 15841262632916066788
1813 80 18261097612955057028
18785283 64 17915449498424139484
19489759 90 16056884641023641485
200 152 18333737922786497245
20279233 1 17846495941579944683
20645477 70 18340494459819127022
21033648 29 18129680641650284013
21065198 48 17822288037216032995
21065201 7 16415203407304670657
21267235 1 18337106865295659398
21623969 137 18342734104875247658
21641784 216 18129928079486279164
22224240 67 18334865979088559264
23175994 123 18202562874115422469
23402539 116 15864070974736252544
23536379 177 15863784002812994940
23557571 272 17275111660358640853
23559900 14 16916790755062578402
23569943 247 17751908362606181350
26918003 58 18273495663204289593
335352 9 18409729531390970396
33824 294 18413110584842971018
34797466 226 16415468368169324678
42630746 31 18335421270667022110
4340502 62 16988848276476043594
474 4 17751654143000943856
5104073 3 18268434710261440072
542803 24 17240482507012739977
7495541 125 17131827629985079540
77492 1 17675926491197820261

> <PUBCHEM_SHAPE_MULTIPOLES>
396.95
11.74
1.65
1.08
2.77
0.41
0.15
0.33
1.09
-2.01
-0.05
1.83
0
0.17

> <PUBCHEM_SHAPE_SELFOVERLAP>
890.834

> <PUBCHEM_SHAPE_VOLUME>
208.8

> <PUBCHEM_COORDINATE_TYPE>
2
5
10

$$$$

