7659351
  -OEChem-07051213053D

 59 63  0     1  0  0  0  0  0999 V2000
   -4.4796    1.0663   -1.4001 O   0  0  0  0  0  0  0  0  0  0  0  0
   -6.1886   -0.4807    1.0741 O   0  0  0  0  0  0  0  0  0  0  0  0
    5.6904   -0.7155   -0.2264 O   0  0  0  0  0  0  0  0  0  0  0  0
    6.2791    1.3885   -0.9770 O   0  0  0  0  0  0  0  0  0  0  0  0
   -3.0158   -0.2641    0.1818 C   0  0  2  0  0  0  0  0  0  0  0  0
   -4.3859    0.2229   -0.2460 C   0  0  1  0  0  0  0  0  0  0  0  0
   -2.1102    0.9558   -0.1454 C   0  0  2  0  0  0  0  0  0  0  0  0
   -4.3636    1.7171   -0.1279 C   0  0  1  0  0  0  0  0  0  0  0  0
   -0.6887    0.7890    0.3844 C   0  0  1  0  0  0  0  0  0  0  0  0
   -2.9696    2.1661    0.2539 C   0  0  0  0  0  0  0  0  0  0  0  0
   -0.0601   -0.4800   -0.2693 C   0  0  2  0  0  0  0  0  0  0  0  0
   -2.4601   -1.4519   -0.6015 C   0  0  0  0  0  0  0  0  0  0  0  0
   -0.9914   -1.7283   -0.2203 C   0  0  0  0  0  0  0  0  0  0  0  0
    1.4027   -0.7383    0.2716 C   0  0  2  0  0  0  0  0  0  0  0  0
   -3.1044   -0.5992    1.6914 C   0  0  0  0  0  0  0  0  0  0  0  0
    0.1650    2.0240    0.0669 C   0  0  0  0  0  0  0  0  0  0  0  0
   -5.6220   -0.5348   -0.0105 C   0  0  0  0  0  0  0  0  0  0  0  0
    2.2056    0.5704    0.3145 C   0  0  0  0  0  0  0  0  0  0  0  0
    2.1092   -1.7402   -0.6894 C   0  0  0  0  0  0  0  0  0  0  0  0
    1.6343    1.7831    0.2073 C   0  0  0  0  0  0  0  0  0  0  0  0
    1.3779   -1.3303    1.7014 C   0  0  0  0  0  0  0  0  0  0  0  0
    3.7036    0.4549    0.4778 C   0  0  0  0  0  0  0  0  0  0  0  0
    3.6129   -1.8803   -0.4578 C   0  0  0  0  0  0  0  0  0  0  0  0
   -6.1184   -1.3553   -1.1646 C   0  0  0  0  0  0  0  0  0  0  0  0
    4.3102   -0.5262   -0.5216 C   0  0  2  0  0  0  0  0  0  0  0  0
    6.4652    0.4093   -0.2674 C   0  0  0  0  0  0  0  0  0  0  0  0
    7.6026    0.2777    0.6998 C   0  0  0  0  0  0  0  0  0  0  0  0
   -2.0161    1.0231   -1.2435 H   0  0  0  0  0  0  0  0  0  0  0  0
   -5.1909    2.2756    0.2750 H   0  0  0  0  0  0  0  0  0  0  0  0
   -0.7126    0.6747    1.4735 H   0  0  0  0  0  0  0  0  0  0  0  0
   -2.9131    2.3661    1.3286 H   0  0  0  0  0  0  0  0  0  0  0  0
   -2.6805    3.0693   -0.2913 H   0  0  0  0  0  0  0  0  0  0  0  0
    0.0370   -0.2430   -1.3419 H   0  0  0  0  0  0  0  0  0  0  0  0
   -2.5208   -1.2580   -1.6803 H   0  0  0  0  0  0  0  0  0  0  0  0
   -3.0600   -2.3522   -0.4211 H   0  0  0  0  0  0  0  0  0  0  0  0
   -0.9815   -2.1717    0.7794 H   0  0  0  0  0  0  0  0  0  0  0  0
   -0.6067   -2.4994   -0.8975 H   0  0  0  0  0  0  0  0  0  0  0  0
   -2.1338   -0.8292    2.1379 H   0  0  0  0  0  0  0  0  0  0  0  0
   -3.5368    0.2254    2.2691 H   0  0  0  0  0  0  0  0  0  0  0  0
   -3.7409   -1.4764    1.8573 H   0  0  0  0  0  0  0  0  0  0  0  0
   -0.1253    2.8413    0.7381 H   0  0  0  0  0  0  0  0  0  0  0  0
   -0.0231    2.3730   -0.9561 H   0  0  0  0  0  0  0  0  0  0  0  0
    1.9578   -1.4203   -1.7295 H   0  0  0  0  0  0  0  0  0  0  0  0
    1.6554   -2.7349   -0.6041 H   0  0  0  0  0  0  0  0  0  0  0  0
    2.2577    2.6739    0.2230 H   0  0  0  0  0  0  0  0  0  0  0  0
    2.3808   -1.4211    2.1319 H   0  0  0  0  0  0  0  0  0  0  0  0
    0.7954   -0.7088    2.3891 H   0  0  0  0  0  0  0  0  0  0  0  0
    0.9507   -2.3381    1.7153 H   0  0  0  0  0  0  0  0  0  0  0  0
    4.1706    1.4418    0.3824 H   0  0  0  0  0  0  0  0  0  0  0  0
    3.9362    0.1342    1.5015 H   0  0  0  0  0  0  0  0  0  0  0  0
    3.8124   -2.3645    0.5062 H   0  0  0  0  0  0  0  0  0  0  0  0
    4.0434   -2.5501   -1.2126 H   0  0  0  0  0  0  0  0  0  0  0  0
   -6.6941   -0.7207   -1.8427 H   0  0  0  0  0  0  0  0  0  0  0  0
   -5.2818   -1.8084   -1.7019 H   0  0  0  0  0  0  0  0  0  0  0  0
   -6.7587   -2.1584   -0.7890 H   0  0  0  0  0  0  0  0  0  0  0  0
    4.2180   -0.1342   -1.5438 H   0  0  0  0  0  0  0  0  0  0  0  0
    8.2233   -0.5795    0.4277 H   0  0  0  0  0  0  0  0  0  0  0  0
    7.2136    0.1654    1.7150 H   0  0  0  0  0  0  0  0  0  0  0  0
    8.2185    1.1808    0.6605 H   0  0  0  0  0  0  0  0  0  0  0  0
  1  6  1  0  0  0  0
  1  8  1  0  0  0  0
  2 17  2  0  0  0  0
  3 25  1  0  0  0  0
  3 26  1  0  0  0  0
  4 26  2  0  0  0  0
  5  6  1  0  0  0  0
  5  7  1  0  0  0  0
  5 12  1  0  0  0  0
  5 15  1  0  0  0  0
  6  8  1  0  0  0  0
  6 17  1  0  0  0  0
  7  9  1  0  0  0  0
  7 10  1  0  0  0  0
  7 28  1  0  0  0  0
  8 10  1  0  0  0  0
  8 29  1  0  0  0  0
  9 11  1  0  0  0  0
  9 16  1  0  0  0  0
  9 30  1  0  0  0  0
 10 31  1  0  0  0  0
 10 32  1  0  0  0  0
 11 13  1  0  0  0  0
 11 14  1  0  0  0  0
 11 33  1  0  0  0  0
 12 13  1  0  0  0  0
 12 34  1  0  0  0  0
 12 35  1  0  0  0  0
 13 36  1  0  0  0  0
 13 37  1  0  0  0  0
 14 18  1  0  0  0  0
 14 19  1  0  0  0  0
 14 21  1  0  0  0  0
 15 38  1  0  0  0  0
 15 39  1  0  0  0  0
 15 40  1  0  0  0  0
 16 20  1  0  0  0  0
 16 41  1  0  0  0  0
 16 42  1  0  0  0  0
 17 24  1  0  0  0  0
 18 20  2  0  0  0  0
 18 22  1  0  0  0  0
 19 23  1  0  0  0  0
 19 43  1  0  0  0  0
 19 44  1  0  0  0  0
 20 45  1  0  0  0  0
 21 46  1  0  0  0  0
 21 47  1  0  0  0  0
 21 48  1  0  0  0  0
 22 25  1  0  0  0  0
 22 49  1  0  0  0  0
 22 50  1  0  0  0  0
 23 25  1  0  0  0  0
 23 51  1  0  0  0  0
 23 52  1  0  0  0  0
 24 53  1  0  0  0  0
 24 54  1  0  0  0  0
 24 55  1  0  0  0  0
 25 56  1  0  0  0  0
 26 27  1  0  0  0  0
 27 57  1  0  0  0  0
 27 58  1  0  0  0  0
 27 59  1  0  0  0  0
M  END
> <PUBCHEM_COMPOUND_CID>
7659351

> <PUBCHEM_CONFORMER_RMSD>
0.8

> <PUBCHEM_CONFORMER_DIVERSEORDER>
1
7
5
4
6
3
2

> <PUBCHEM_MMFF94_PARTIAL_CHARGES>
20
1 -0.3
10 0.09
14 0.14
16 0.14
17 0.51
18 -0.28
2 -0.57
20 -0.29
22 0.14
24 0.06
25 0.28
26 0.66
27 0.06
29 0.1
3 -0.43
4 -0.57
45 0.15
5 0.09
6 0.05
8 -0.05

> <PUBCHEM_EFFECTIVE_ROTOR_COUNT>
4.8

> <PUBCHEM_PHARMACOPHORE_FEATURES>
7
1 1 acceptor
1 2 acceptor
1 4 acceptor
6 1 5 6 7 8 10 rings
6 14 18 19 22 23 25 rings
6 5 7 9 11 12 13 rings
6 9 11 14 16 18 20 rings

> <PUBCHEM_HEAVY_ATOM_COUNT>
27

> <PUBCHEM_ATOM_DEF_STEREO_COUNT>
8

> <PUBCHEM_ATOM_UDEF_STEREO_COUNT>
0

> <PUBCHEM_BOND_DEF_STEREO_COUNT>
0

> <PUBCHEM_BOND_UDEF_STEREO_COUNT>
0

> <PUBCHEM_ISOTOPIC_ATOM_COUNT>
0

> <PUBCHEM_COMPONENT_COUNT>
1

> <PUBCHEM_CACTVS_TAUTO_COUNT>
2

> <PUBCHEM_CONFORMER_ID>
0074DF5700000001

> <PUBCHEM_MMFF94_ENERGY>
81.9675

> <PUBCHEM_FEATURE_SELFOVERLAP>
35.585

> <PUBCHEM_SHAPE_FINGERPRINT>
10 15 18412830153965176888
10366900 7 17846781810572008513
10906281 52 18336808850125422694
11089746 13 12967127199021247263
11315181 36 17346875633114986393
11578080 2 17058106624956447965
11719270 70 18409735088810216906
11963148 33 18410301285063251014
12011746 2 18412830187723365821
12166972 35 17894913992666092297
12236239 1 18131634512736001074
12403259 415 18040725774623373433
12516196 113 17967814946819794472
12616971 3 5472849376773074697
12788726 201 18263931097306218352
12838862 33 18336283291629857164
13073987 5 18339077206510591474
14790565 3 18411132563403600332
15131766 46 16269657583799276884
15183329 4 18335696135942265308
15196674 1 18336545035494973143
1601671 61 18335140904029191988
17349148 13 17821730542061078903
18608769 82 18341890732618610059
18681886 176 18260558787663813665
19319366 153 18131355211113859378
19489759 90 17560801043879690995
200 152 17894352202474821857
21033648 29 18041575714407454361
21150785 3 18408889516173848535
21267235 1 18408882911088939095
21279426 13 18193555786128404470
21521721 280 17676490510872294770
23402539 116 18272934912753996150
23522609 53 18043783498959161168
23559900 14 18187093818795456912
24771750 20 18050841127244425356
3004659 81 18340766053104757086
335352 9 18335425665104368421
34797466 226 17022617551631135188
34934 24 18410858797734709566
350125 39 18407757040925530009
3545911 37 18333732403173279610
4093350 32 15647052626148947144
4325135 7 18411135832057867996
4340502 62 17275102838944246490
484989 97 18197500611318433459
5104073 3 18264770033172817314
9709674 26 18412544289215176899

> <PUBCHEM_SHAPE_MULTIPOLES>
532.17
16.1
2.04
1.1
12.58
0.3
0.27
0.18
-1.72
-0.5
-0.22
-0.49
-0.23
-0.07

> <PUBCHEM_SHAPE_SELFOVERLAP>
1147.277

> <PUBCHEM_SHAPE_VOLUME>
292

> <PUBCHEM_COORDINATE_TYPE>
2
5
10

$$$$

