442789
  -OEChem-07051212593D

 58 60  0     1  0  0  0  0  0999 V2000
    1.9147    0.5961   -0.3557 O   0  0  0  0  0  0  0  0  0  0  0  0
   -2.3993    3.0537    0.0965 O   0  0  0  0  0  0  0  0  0  0  0  0
   -0.6848    1.4258   -0.0240 O   0  0  0  0  0  0  0  0  0  0  0  0
   -4.7132    1.9804   -1.3915 O   0  0  0  0  0  0  0  0  0  0  0  0
   -3.0576   -0.2481   -1.1465 O   0  0  0  0  0  0  0  0  0  0  0  0
    2.5586    4.0607    0.6419 O   0  0  0  0  0  0  0  0  0  0  0  0
    5.1794    3.0717   -0.0719 O   0  0  0  0  0  0  0  0  0  0  0  0
    3.2692   -1.3017   -0.4431 O   0  0  0  0  0  0  0  0  0  0  0  0
    5.4209    0.2129    0.5983 O   0  0  0  0  0  0  0  0  0  0  0  0
   -6.4784    1.8491    0.7743 O   0  0  0  0  0  0  0  0  0  0  0  0
   -4.2637    1.6066   -0.0887 C   0  0  1  0  0  0  0  0  0  0  0  0
    1.6479    1.8624    0.2495 C   0  0  1  0  0  0  0  0  0  0  0  0
   -2.9930    0.7826   -0.1803 C   0  0  2  0  0  0  0  0  0  0  0  0
    2.7983    2.8305   -0.0365 C   0  0  2  0  0  0  0  0  0  0  0  0
   -1.9497    1.8362   -0.5225 C   0  0  1  0  0  0  0  0  0  0  0  0
    4.1298    2.2450    0.4338 C   0  0  1  0  0  0  0  0  0  0  0  0
    4.3171    0.8160   -0.0763 C   0  0  2  0  0  0  0  0  0  0  0  0
   -3.7365    2.8556    0.5992 C   0  0  0  0  0  0  0  0  0  0  0  0
    0.3263    2.3731   -0.3157 C   0  0  0  0  0  0  0  0  0  0  0  0
    3.0739   -0.0346    0.1839 C   0  0  1  0  0  0  0  0  0  0  0  0
   -5.4045    0.9311    0.6527 C   0  0  0  0  0  0  0  0  0  0  0  0
    2.2547   -2.2105   -0.3164 C   0  0  0  0  0  0  0  0  0  0  0  0
    1.6166   -2.7061   -1.4536 C   0  0  0  0  0  0  0  0  0  0  0  0
    1.8578   -2.6411    0.9496 C   0  0  0  0  0  0  0  0  0  0  0  0
    0.5817   -3.6324   -1.3246 C   0  0  0  0  0  0  0  0  0  0  0  0
    0.8229   -3.5673    1.0785 C   0  0  0  0  0  0  0  0  0  0  0  0
    0.1849   -4.0630   -0.0585 C   0  0  0  0  0  0  0  0  0  0  0  0
   -0.9215   -5.0531    0.0801 C   0  0  0  0  0  0  0  0  0  0  0  0
   -2.2785   -4.4089    0.1990 C   0  0  0  0  0  0  0  0  0  0  0  0
   -3.0741   -4.5228    1.2685 C   0  0  0  0  0  0  0  0  0  0  0  0
    1.5185    1.7119    1.3300 H   0  0  0  0  0  0  0  0  0  0  0  0
   -2.7620    0.3195    0.7880 H   0  0  0  0  0  0  0  0  0  0  0  0
    2.8525    3.0538   -1.1091 H   0  0  0  0  0  0  0  0  0  0  0  0
   -1.8842    1.9912   -1.6070 H   0  0  0  0  0  0  0  0  0  0  0  0
    4.2098    2.2846    1.5264 H   0  0  0  0  0  0  0  0  0  0  0  0
    4.5629    0.8188   -1.1449 H   0  0  0  0  0  0  0  0  0  0  0  0
   -4.3192    3.7556    0.3808 H   0  0  0  0  0  0  0  0  0  0  0  0
   -3.6592    2.7310    1.6848 H   0  0  0  0  0  0  0  0  0  0  0  0
    0.4029    2.4840   -1.4043 H   0  0  0  0  0  0  0  0  0  0  0  0
    0.0770    3.3432    0.1275 H   0  0  0  0  0  0  0  0  0  0  0  0
    2.9492   -0.1806    1.2650 H   0  0  0  0  0  0  0  0  0  0  0  0
   -5.7681    0.0618    0.0948 H   0  0  0  0  0  0  0  0  0  0  0  0
   -5.1015    0.6113    1.6549 H   0  0  0  0  0  0  0  0  0  0  0  0
   -5.4978    2.5452   -1.2847 H   0  0  0  0  0  0  0  0  0  0  0  0
   -2.1753   -0.6538   -1.1992 H   0  0  0  0  0  0  0  0  0  0  0  0
    2.4948    3.8715    1.5937 H   0  0  0  0  0  0  0  0  0  0  0  0
    5.1455    3.0432   -1.0432 H   0  0  0  0  0  0  0  0  0  0  0  0
    5.2225    0.2005    1.5502 H   0  0  0  0  0  0  0  0  0  0  0  0
   -7.1943    1.3914    1.2470 H   0  0  0  0  0  0  0  0  0  0  0  0
    1.9207   -2.3729   -2.4421 H   0  0  0  0  0  0  0  0  0  0  0  0
    2.3537   -2.2802    1.8461 H   0  0  0  0  0  0  0  0  0  0  0  0
    0.0916   -4.0091   -2.2186 H   0  0  0  0  0  0  0  0  0  0  0  0
    0.5249   -3.8966    2.0705 H   0  0  0  0  0  0  0  0  0  0  0  0
   -0.7246   -5.7062    0.9406 H   0  0  0  0  0  0  0  0  0  0  0  0
   -0.9316   -5.7235   -0.7892 H   0  0  0  0  0  0  0  0  0  0  0  0
   -2.6314   -3.8270   -0.6493 H   0  0  0  0  0  0  0  0  0  0  0  0
   -4.0437   -4.0374    1.2860 H   0  0  0  0  0  0  0  0  0  0  0  0
   -2.7748   -5.0958    2.1390 H   0  0  0  0  0  0  0  0  0  0  0  0
  1 12  1  0  0  0  0
  1 20  1  0  0  0  0
  2 15  1  0  0  0  0
  2 18  1  0  0  0  0
  3 15  1  0  0  0  0
  3 19  1  0  0  0  0
  4 11  1  0  0  0  0
  4 44  1  0  0  0  0
  5 13  1  0  0  0  0
  5 45  1  0  0  0  0
  6 14  1  0  0  0  0
  6 46  1  0  0  0  0
  7 16  1  0  0  0  0
  7 47  1  0  0  0  0
  8 20  1  0  0  0  0
  8 22  1  0  0  0  0
  9 17  1  0  0  0  0
  9 48  1  0  0  0  0
 10 21  1  0  0  0  0
 10 49  1  0  0  0  0
 11 13  1  0  0  0  0
 11 18  1  0  0  0  0
 11 21  1  0  0  0  0
 12 14  1  0  0  0  0
 12 19  1  0  0  0  0
 12 31  1  0  0  0  0
 13 15  1  0  0  0  0
 13 32  1  0  0  0  0
 14 16  1  0  0  0  0
 14 33  1  0  0  0  0
 15 34  1  0  0  0  0
 16 17  1  0  0  0  0
 16 35  1  0  0  0  0
 17 20  1  0  0  0  0
 17 36  1  0  0  0  0
 18 37  1  0  0  0  0
 18 38  1  0  0  0  0
 19 39  1  0  0  0  0
 19 40  1  0  0  0  0
 20 41  1  0  0  0  0
 21 42  1  0  0  0  0
 21 43  1  0  0  0  0
 22 23  2  0  0  0  0
 22 24  1  0  0  0  0
 23 25  1  0  0  0  0
 23 50  1  0  0  0  0
 24 26  2  0  0  0  0
 24 51  1  0  0  0  0
 25 27  2  0  0  0  0
 25 52  1  0  0  0  0
 26 27  1  0  0  0  0
 26 53  1  0  0  0  0
 27 28  1  0  0  0  0
 28 29  1  0  0  0  0
 28 54  1  0  0  0  0
 28 55  1  0  0  0  0
 29 30  2  0  0  0  0
 29 56  1  0  0  0  0
 30 57  1  0  0  0  0
 30 58  1  0  0  0  0
M  END
> <PUBCHEM_COMPOUND_CID>
442789

> <PUBCHEM_CONFORMER_RMSD>
1

> <PUBCHEM_CONFORMER_DIVERSEORDER>
1
57
11
24
49
46
59
61
5
16
60
21
31
36
62
32
6
19
12
35
27
48
34
28
23
25
55
17
4
43
7
42
9
58
37
50
13
56
8
14
39
29
41
2
30
44
20
38
26
47
22
53
45
33
65
18
51
10
3
64
52
40
15
63
54

> <PUBCHEM_MMFF94_PARTIAL_CHARGES>
43
1 -0.56
10 -0.68
11 0.28
12 0.28
13 0.28
14 0.28
15 0.56
16 0.28
17 0.28
18 0.28
19 0.28
2 -0.56
20 0.56
21 0.28
22 0.08
23 -0.15
24 -0.15
25 -0.15
26 -0.15
27 -0.14
28 0.28
29 -0.29
3 -0.56
30 -0.3
4 -0.68
44 0.4
45 0.4
46 0.4
47 0.4
48 0.4
49 0.4
5 -0.68
50 0.15
51 0.15
52 0.15
53 0.15
56 0.15
57 0.15
58 0.15
6 -0.68
7 -0.68
8 -0.36
9 -0.68

> <PUBCHEM_EFFECTIVE_ROTOR_COUNT>
10.2

> <PUBCHEM_PHARMACOPHORE_FEATURES>
20
1 1 acceptor
1 10 acceptor
1 10 donor
1 2 acceptor
1 3 acceptor
1 30 hydrophobe
1 4 acceptor
1 4 donor
1 5 acceptor
1 5 donor
1 6 acceptor
1 6 donor
1 7 acceptor
1 7 donor
1 8 acceptor
1 9 acceptor
1 9 donor
5 2 11 13 15 18 rings
6 1 12 14 16 17 20 rings
6 22 23 24 25 26 27 rings

> <PUBCHEM_HEAVY_ATOM_COUNT>
30

> <PUBCHEM_ATOM_DEF_STEREO_COUNT>
8

> <PUBCHEM_ATOM_UDEF_STEREO_COUNT>
0

> <PUBCHEM_BOND_DEF_STEREO_COUNT>
0

> <PUBCHEM_BOND_UDEF_STEREO_COUNT>
0

> <PUBCHEM_ISOTOPIC_ATOM_COUNT>
0

> <PUBCHEM_COMPONENT_COUNT>
1

> <PUBCHEM_CACTVS_TAUTO_COUNT>
1

> <PUBCHEM_CONFORMER_ID>
0006C1A500000001

> <PUBCHEM_MMFF94_ENERGY>
94.0066

> <PUBCHEM_FEATURE_SELFOVERLAP>
101.605

> <PUBCHEM_SHAPE_FINGERPRINT>
10006869 2 18195259814372450431
10050765 1 18194966237411931792
10653451 467 17972608946862575114
1100329 8 18339088180880331642
11421498 54 17677331752836632592
114674 6 18194678395969238575
12107183 9 17252295913809906041
12156800 1 17981858901240355550
12293681 4 17409371672702365282
12553582 1 17616258417250946550
12788726 201 17766009294241250546
1361 2 18338796835978701579
13692114 37 18262534592921294915
13785724 45 17179673170921063213
138480 1 17689718983683398926
14863182 85 18267578182181993820
15110567 62 18267016348582199107
15320467 1 18194682798627312483
15400415 2 18410855482010174113
15483637 11 18267304231666446387
15664445 248 17831860527060383347
15721738 15 16832645341158958149
15927050 60 18408321069332480711
15968369 153 17681850500523316702
161222 619 18337376236938732515
16728300 4 17198007441800121826
16993438 75 18269834216332338227
17138139 8 17608123921091124973
19427546 62 18338796715393381316
19930381 70 17907858758256519923
21133410 38 18187351127094025259
21197605 99 18338510838206684539
21796203 349 17762872747880677066
23516275 137 16951102054794599007
5309563 4 17688870156728345199
613672 6 17044035234184852831
653340 110 17976825281047019488
79837 15 18337676312716785809
86090 222 17557670786057757689
9777508 108 18192999222944469384

> <PUBCHEM_SHAPE_MULTIPOLES>
558.69
10.52
7.89
1.05
5.73
8.74
-0.14
-11.15
1.56
2.35
0.96
0.36
0.66
1.07

> <PUBCHEM_SHAPE_SELFOVERLAP>
1169.116

> <PUBCHEM_SHAPE_VOLUME>
313.9

> <PUBCHEM_COORDINATE_TYPE>
2
5
10

$$$$

