115209
  -OEChem-07051213042D

 27 27  0     1  0  0  0  0  0999 V2000
    5.4641   -2.9050    0.0000 Cl  0  0  0  0  0  0  0  0  0  0  0  0
    2.0000   -2.9050    0.0000 Cl  0  0  0  0  0  0  0  0  0  0  0  0
    4.5981    2.5950    0.0000 O   0  0  0  0  0  0  0  0  0  0  0  0
    5.4641    0.0950    0.0000 O   0  0  0  0  0  0  0  0  0  0  0  0
    3.7320    0.0950    0.0000 N   0  0  0  0  0  0  0  0  0  0  0  0
    4.5981    1.5950    0.0000 C   0  0  3  0  0  0  0  0  0  0  0  0
    4.5981    0.5950    0.0000 C   0  0  0  0  0  0  0  0  0  0  0  0
    3.5981    1.5950    0.0000 C   0  0  0  0  0  0  0  0  0  0  0  0
    3.7320   -0.9050    0.0000 C   0  0  0  0  0  0  0  0  0  0  0  0
    5.5981    1.5950    0.0000 C   0  0  0  0  0  0  0  0  0  0  0  0
    2.8660   -1.4050    0.0000 C   0  0  0  0  0  0  0  0  0  0  0  0
    4.5981   -1.4050    0.0000 C   0  0  0  0  0  0  0  0  0  0  0  0
    4.5981   -2.4050    0.0000 C   0  0  0  0  0  0  0  0  0  0  0  0
    2.8660   -2.4050    0.0000 C   0  0  0  0  0  0  0  0  0  0  0  0
    3.7320   -2.9050    0.0000 C   0  0  0  0  0  0  0  0  0  0  0  0
    6.0981    2.4610    0.0000 C   0  0  0  0  0  0  0  0  0  0  0  0
    3.5981    2.2150    0.0000 H   0  0  0  0  0  0  0  0  0  0  0  0
    2.9781    1.5950    0.0000 H   0  0  0  0  0  0  0  0  0  0  0  0
    3.5981    0.9750    0.0000 H   0  0  0  0  0  0  0  0  0  0  0  0
    3.1951    0.4050    0.0000 H   0  0  0  0  0  0  0  0  0  0  0  0
    5.9081    1.0581    0.0000 H   0  0  0  0  0  0  0  0  0  0  0  0
    2.3291   -1.0950    0.0000 H   0  0  0  0  0  0  0  0  0  0  0  0
    5.1350   -1.0950    0.0000 H   0  0  0  0  0  0  0  0  0  0  0  0
    5.1350    2.9050    0.0000 H   0  0  0  0  0  0  0  0  0  0  0  0
    3.7320   -3.5250    0.0000 H   0  0  0  0  0  0  0  0  0  0  0  0
    6.7181    2.4610    0.0000 H   0  0  0  0  0  0  0  0  0  0  0  0
    5.7881    2.9980    0.0000 H   0  0  0  0  0  0  0  0  0  0  0  0
  1 13  1  0  0  0  0
  2 14  1  0  0  0  0
  3  6  1  0  0  0  0
  3 24  1  0  0  0  0
  4  7  2  0  0  0  0
  5  7  1  0  0  0  0
  5  9  1  0  0  0  0
  5 20  1  0  0  0  0
  6  7  1  0  0  0  0
  6  8  1  0  0  0  0
  6 10  1  0  0  0  0
  8 17  1  0  0  0  0
  8 18  1  0  0  0  0
  8 19  1  0  0  0  0
  9 11  2  0  0  0  0
  9 12  1  0  0  0  0
 10 16  2  0  0  0  0
 10 21  1  0  0  0  0
 11 14  1  0  0  0  0
 11 22  1  0  0  0  0
 12 13  2  0  0  0  0
 12 23  1  0  0  0  0
 13 15  1  0  0  0  0
 14 15  2  0  0  0  0
 15 25  1  0  0  0  0
 16 26  1  0  0  0  0
 16 27  1  0  0  0  0
M  END
> <PUBCHEM_COMPOUND_CID>
115209

> <PUBCHEM_COMPOUND_CANONICALIZED>
1

> <PUBCHEM_CACTVS_COMPLEXITY>
275

> <PUBCHEM_CACTVS_HBOND_ACCEPTOR>
2

> <PUBCHEM_CACTVS_HBOND_DONOR>
2

> <PUBCHEM_CACTVS_ROTATABLE_BOND>
3

> <PUBCHEM_CACTVS_SUBSKEYS>
AAADccByMAAGAAAAAAAAAAAAAAAAAAAAAAAwAAAAAAAAAAABAAAAHgIQCAAADE6BkCAywILAAgCIACVSUAKCAAAhBwAIiAFAZogKJCLBk5GEIAhglADY2AcQAAAAAAAAAAKAAAAAAAAABQAAAAAAAAAAAA==

> <PUBCHEM_IUPAC_OPENEYE_NAME>
N-(3,5-dichlorophenyl)-2-hydroxy-2-methyl-but-3-enamide

> <PUBCHEM_IUPAC_CAS_NAME>
N-(3,5-dichlorophenyl)-2-hydroxy-2-methyl-3-butenamide

> <PUBCHEM_IUPAC_NAME>
N-(3,5-dichlorophenyl)-2-hydroxy-2-methylbut-3-enamide

> <PUBCHEM_IUPAC_SYSTEMATIC_NAME>
N-[3,5-bis(chloranyl)phenyl]-2-methyl-2-oxidanyl-but-3-enamide

> <PUBCHEM_IUPAC_TRADITIONAL_NAME>
N-(3,5-dichlorophenyl)-2-hydroxy-2-methyl-but-3-enamide

> <PUBCHEM_IUPAC_INCHI>
InChI=1S/C11H11Cl2NO2/c1-3-11(2,16)10(15)14-9-5-7(12)4-8(13)6-9/h3-6,16H,1H2,2H3,(H,14,15)

> <PUBCHEM_IUPAC_INCHIKEY>
FBYYIBNYONAZCU-UHFFFAOYSA-N

> <PUBCHEM_XLOGP3_AA>
2.7

> <PUBCHEM_EXACT_MASS>
259.016684

> <PUBCHEM_MOLECULAR_FORMULA>
C11H11Cl2NO2

> <PUBCHEM_MOLECULAR_WEIGHT>
260.11654

> <PUBCHEM_OPENEYE_CAN_SMILES>
CC(C=C)(C(=O)NC1=CC(=CC(=C1)Cl)Cl)O

> <PUBCHEM_OPENEYE_ISO_SMILES>
CC(C=C)(C(=O)NC1=CC(=CC(=C1)Cl)Cl)O

> <PUBCHEM_CACTVS_TPSA>
49.3

> <PUBCHEM_MONOISOTOPIC_WEIGHT>
259.016684

> <PUBCHEM_TOTAL_CHARGE>
0

> <PUBCHEM_HEAVY_ATOM_COUNT>
16

> <PUBCHEM_ATOM_DEF_STEREO_COUNT>
0

> <PUBCHEM_ATOM_UDEF_STEREO_COUNT>
1

> <PUBCHEM_BOND_DEF_STEREO_COUNT>
0

> <PUBCHEM_BOND_UDEF_STEREO_COUNT>
0

> <PUBCHEM_ISOTOPIC_ATOM_COUNT>
0

> <PUBCHEM_COMPONENT_COUNT>
1

> <PUBCHEM_CACTVS_TAUTO_COUNT>
2

> <PUBCHEM_COORDINATE_TYPE>
1
5
255

> <PUBCHEM_BONDANNOTATIONS>
11  14  8
12  13  8
13  15  8
14  15  8
6  10  3
9  11  8
9  12  8

$$$$

