5143
  -OEChem-07051213032D

 17 18  0     0  0  0  0  0  0999 V2000
    4.6783    0.8042    0.0000 S   0  0  0  0  0  0  0  0  0  0  0  0
    5.4883    1.3906    0.0000 O   0  0  0  0  0  0  0  0  0  0  0  0
    4.3709    1.7558    0.0000 O   0  0  0  0  0  0  0  0  0  0  0  0
    4.9889   -1.7558    0.0000 O   0  0  0  0  0  0  0  0  0  0  0  0
    5.2619   -0.0005    0.0000 N   0  0  0  0  0  0  0  0  0  0  0  0
    3.7320    0.4995    0.0000 C   0  0  0  0  0  0  0  0  0  0  0  0
    3.7320   -0.5005    0.0000 C   0  0  0  0  0  0  0  0  0  0  0  0
    4.6783   -0.8053    0.0000 C   0  0  0  0  0  0  0  0  0  0  0  0
    2.8660    0.9995    0.0000 C   0  0  0  0  0  0  0  0  0  0  0  0
    2.8660   -1.0005    0.0000 C   0  0  0  0  0  0  0  0  0  0  0  0
    2.0000    0.4995    0.0000 C   0  0  0  0  0  0  0  0  0  0  0  0
    2.0000   -0.5005    0.0000 C   0  0  0  0  0  0  0  0  0  0  0  0
    5.8819   -0.0005    0.0000 H   0  0  0  0  0  0  0  0  0  0  0  0
    2.8660    1.6195    0.0000 H   0  0  0  0  0  0  0  0  0  0  0  0
    2.8660   -1.6205    0.0000 H   0  0  0  0  0  0  0  0  0  0  0  0
    1.4631    0.8095    0.0000 H   0  0  0  0  0  0  0  0  0  0  0  0
    1.4631   -0.8105    0.0000 H   0  0  0  0  0  0  0  0  0  0  0  0
  1  2  2  0  0  0  0
  1  3  2  0  0  0  0
  1  5  1  0  0  0  0
  1  6  1  0  0  0  0
  4  8  2  0  0  0  0
  5  8  1  0  0  0  0
  5 13  1  0  0  0  0
  6  7  1  0  0  0  0
  6  9  2  0  0  0  0
  7  8  1  0  0  0  0
  7 10  2  0  0  0  0
  9 11  1  0  0  0  0
  9 14  1  0  0  0  0
 10 12  1  0  0  0  0
 10 15  1  0  0  0  0
 11 12  2  0  0  0  0
 11 16  1  0  0  0  0
 12 17  1  0  0  0  0
M  END
> <PUBCHEM_COMPOUND_CID>
5143

> <PUBCHEM_COMPOUND_CANONICALIZED>
1

> <PUBCHEM_CACTVS_COMPLEXITY>
303

> <PUBCHEM_CACTVS_HBOND_ACCEPTOR>
3

> <PUBCHEM_CACTVS_HBOND_DONOR>
1

> <PUBCHEM_CACTVS_ROTATABLE_BOND>
0

> <PUBCHEM_CACTVS_SUBSKEYS>
AAADcYBiMABAAAAAAAAAAAAAAAAAAWAAAAAwAAAAAAAAAFgBAAAAHgQQQAAADACB2AAwAYBAAAKIAiFSEHDCABAkAAAIiBkABMgIIDKAlRGAIQBggAAIiYcYiACOAAAAAAAEAAAAAAAAAAgAAAAAAAAAAA==

> <PUBCHEM_IUPAC_OPENEYE_NAME>
1,1-dioxo-1,2-benzothiazol-3-one

> <PUBCHEM_IUPAC_CAS_NAME>
1,1-dioxo-1,2-benzothiazol-3-one

> <PUBCHEM_IUPAC_NAME>
1,1-dioxo-1,2-benzothiazol-3-one

> <PUBCHEM_IUPAC_SYSTEMATIC_NAME>
1,1-bis(oxidanylidene)-1,2-benzothiazol-3-one

> <PUBCHEM_IUPAC_TRADITIONAL_NAME>
1,1-diketo-1,2-benzothiazol-3-one

> <PUBCHEM_IUPAC_INCHI>
InChI=1S/C7H5NO3S/c9-7-5-3-1-2-4-6(5)12(10,11)8-7/h1-4H,(H,8,9)

> <PUBCHEM_IUPAC_INCHIKEY>
CVHZOJJKTDOEJC-UHFFFAOYSA-N

> <PUBCHEM_XLOGP3>
0.9

> <PUBCHEM_EXACT_MASS>
182.999014

> <PUBCHEM_MOLECULAR_FORMULA>
C7H5NO3S

> <PUBCHEM_MOLECULAR_WEIGHT>
183.1845

> <PUBCHEM_OPENEYE_CAN_SMILES>
C1=CC=C2C(=C1)C(=O)NS2(=O)=O

> <PUBCHEM_OPENEYE_ISO_SMILES>
C1=CC=C2C(=C1)C(=O)NS2(=O)=O

> <PUBCHEM_CACTVS_TPSA>
71.6

> <PUBCHEM_MONOISOTOPIC_WEIGHT>
182.999014

> <PUBCHEM_TOTAL_CHARGE>
0

> <PUBCHEM_HEAVY_ATOM_COUNT>
12

> <PUBCHEM_ATOM_DEF_STEREO_COUNT>
0

> <PUBCHEM_ATOM_UDEF_STEREO_COUNT>
0

> <PUBCHEM_BOND_DEF_STEREO_COUNT>
0

> <PUBCHEM_BOND_UDEF_STEREO_COUNT>
0

> <PUBCHEM_ISOTOPIC_ATOM_COUNT>
0

> <PUBCHEM_COMPONENT_COUNT>
1

> <PUBCHEM_CACTVS_TAUTO_COUNT>
2

> <PUBCHEM_COORDINATE_TYPE>
1
5
255

> <PUBCHEM_BONDANNOTATIONS>
10  12  8
11  12  8
6  7  8
6  9  8
7  10  8
9  11  8

$$$$

