442034
  -OEChem-07051212563D

 65 68  0     1  0  0  0  0  0999 V2000
   -1.2441   -1.4626   -0.6533 O   0  0  0  0  0  0  0  0  0  0  0  0
    0.0123   -1.5883    1.9320 O   0  0  0  0  0  0  0  0  0  0  0  0
    2.3190    1.7494    0.4507 O   0  0  0  0  0  0  0  0  0  0  0  0
   -4.1529    1.3821   -1.4971 O   0  0  0  0  0  0  0  0  0  0  0  0
    1.8777    1.7714   -2.4204 O   0  0  0  0  0  0  0  0  0  0  0  0
    4.4647    0.1307    1.5196 O   0  0  0  0  0  0  0  0  0  0  0  0
   -3.0835   -2.5086   -1.5807 O   0  0  0  0  0  0  0  0  0  0  0  0
   -1.1254    0.9958   -0.1701 C   0  0  1  0  0  0  0  0  0  0  0  0
   -0.6336    0.7204    1.3055 C   0  0  2  0  0  0  0  0  0  0  0  0
   -1.8789   -0.2110   -0.7653 C   0  0  2  0  0  0  0  0  0  0  0  0
    0.5544   -0.2832    1.6297 C   0  0  2  0  0  0  0  0  0  0  0  0
    1.5794   -0.5830    0.5020 C   0  0  1  0  0  0  0  0  0  0  0  0
    2.1645    0.5734   -0.3439 C   0  0  1  0  0  0  0  0  0  0  0  0
   -3.1818   -0.1826    0.0569 C   0  0  2  0  0  0  0  0  0  0  0  0
   -2.3140    2.0698   -0.1155 C   0  0  0  0  0  0  0  0  0  0  0  0
   -0.0718    1.6435   -1.0921 C   0  0  0  0  0  0  0  0  0  0  0  0
   -3.6315    1.2708   -0.1622 C   0  0  1  0  0  0  0  0  0  0  0  0
   -1.8747    0.3939    2.2009 C   0  0  0  0  0  0  0  0  0  0  0  0
    1.2001    0.9071   -1.4977 C   0  0  1  0  0  0  0  0  0  0  0  0
    3.5847    0.0462   -0.7897 C   0  0  0  0  0  0  0  0  0  0  0  0
   -2.9011   -0.5310    1.5300 C   0  0  0  0  0  0  0  0  0  0  0  0
    2.7902   -1.4614    0.9384 C   0  0  0  0  0  0  0  0  0  0  0  0
    4.0423   -0.7318    0.4679 C   0  0  2  0  0  0  0  0  0  0  0  0
    1.2289    0.2126    2.9396 C   0  0  0  0  0  0  0  0  0  0  0  0
   -4.7133    1.8031    0.7687 C   0  0  0  0  0  0  0  0  0  0  0  0
    4.5929    1.1548   -1.1489 C   0  0  0  0  0  0  0  0  0  0  0  0
    3.5167   -0.9362   -1.9836 C   0  0  0  0  0  0  0  0  0  0  0  0
   -1.9586   -2.5442   -1.1007 C   0  0  0  0  0  0  0  0  0  0  0  0
   -1.1624   -3.8011   -0.9206 C   0  0  0  0  0  0  0  0  0  0  0  0
   -0.2661    1.7009    1.6469 H   0  0  0  0  0  0  0  0  0  0  0  0
   -2.0775   -0.0288   -1.8308 H   0  0  0  0  0  0  0  0  0  0  0  0
    1.0678   -1.2449   -0.2080 H   0  0  0  0  0  0  0  0  0  0  0  0
   -3.9497   -0.8621   -0.3199 H   0  0  0  0  0  0  0  0  0  0  0  0
   -2.2299    2.6984    0.7779 H   0  0  0  0  0  0  0  0  0  0  0  0
   -2.2744    2.7556   -0.9717 H   0  0  0  0  0  0  0  0  0  0  0  0
    0.2060    2.6173   -0.6624 H   0  0  0  0  0  0  0  0  0  0  0  0
   -0.5690    1.9141   -2.0368 H   0  0  0  0  0  0  0  0  0  0  0  0
   -2.3607    1.3332    2.4853 H   0  0  0  0  0  0  0  0  0  0  0  0
   -1.5813   -0.0471    3.1599 H   0  0  0  0  0  0  0  0  0  0  0  0
    0.9317    0.0074   -2.0616 H   0  0  0  0  0  0  0  0  0  0  0  0
   -2.5652   -1.5708    1.6023 H   0  0  0  0  0  0  0  0  0  0  0  0
   -3.8352   -0.4929    2.1036 H   0  0  0  0  0  0  0  0  0  0  0  0
    2.8262   -1.6815    2.0063 H   0  0  0  0  0  0  0  0  0  0  0  0
    2.7179   -2.4317    0.4299 H   0  0  0  0  0  0  0  0  0  0  0  0
    4.8565   -1.4360    0.2657 H   0  0  0  0  0  0  0  0  0  0  0  0
    1.8285    1.1122    2.7818 H   0  0  0  0  0  0  0  0  0  0  0  0
    0.4831    0.4487    3.7062 H   0  0  0  0  0  0  0  0  0  0  0  0
    1.8578   -0.5535    3.4009 H   0  0  0  0  0  0  0  0  0  0  0  0
   -4.3968    1.8565    1.8124 H   0  0  0  0  0  0  0  0  0  0  0  0
   -5.0211    2.8093    0.4614 H   0  0  0  0  0  0  0  0  0  0  0  0
   -5.6097    1.1748    0.7155 H   0  0  0  0  0  0  0  0  0  0  0  0
    5.5879    0.7244   -1.3147 H   0  0  0  0  0  0  0  0  0  0  0  0
    4.6994    1.9058   -0.3603 H   0  0  0  0  0  0  0  0  0  0  0  0
    4.3156    1.6789   -2.0678 H   0  0  0  0  0  0  0  0  0  0  0  0
    4.4881   -1.4187   -2.1433 H   0  0  0  0  0  0  0  0  0  0  0  0
    3.2603   -0.4200   -2.9146 H   0  0  0  0  0  0  0  0  0  0  0  0
    2.7791   -1.7306   -1.8354 H   0  0  0  0  0  0  0  0  0  0  0  0
   -0.4346   -1.9192    1.1365 H   0  0  0  0  0  0  0  0  0  0  0  0
    2.6015    2.4804   -0.1222 H   0  0  0  0  0  0  0  0  0  0  0  0
   -4.9460    0.8221   -1.5544 H   0  0  0  0  0  0  0  0  0  0  0  0
    2.0108    2.6356   -1.9967 H   0  0  0  0  0  0  0  0  0  0  0  0
    5.3445    0.4708    1.2846 H   0  0  0  0  0  0  0  0  0  0  0  0
   -1.0849   -4.0396    0.1426 H   0  0  0  0  0  0  0  0  0  0  0  0
   -0.1690   -3.6782   -1.3601 H   0  0  0  0  0  0  0  0  0  0  0  0
   -1.6645   -4.6252   -1.4352 H   0  0  0  0  0  0  0  0  0  0  0  0
  1 10  1  0  0  0  0
  1 28  1  0  0  0  0
  2 11  1  0  0  0  0
  2 58  1  0  0  0  0
  3 13  1  0  0  0  0
  3 59  1  0  0  0  0
  4 17  1  0  0  0  0
  4 60  1  0  0  0  0
  5 19  1  0  0  0  0
  5 61  1  0  0  0  0
  6 23  1  0  0  0  0
  6 62  1  0  0  0  0
  7 28  2  0  0  0  0
  8  9  1  0  0  0  0
  8 10  1  0  0  0  0
  8 15  1  0  0  0  0
  8 16  1  0  0  0  0
  9 11  1  0  0  0  0
  9 18  1  0  0  0  0
  9 30  1  0  0  0  0
 10 14  1  0  0  0  0
 10 31  1  0  0  0  0
 11 12  1  0  0  0  0
 11 24  1  0  0  0  0
 12 13  1  0  0  0  0
 12 22  1  0  0  0  0
 12 32  1  0  0  0  0
 13 19  1  0  0  0  0
 13 20  1  0  0  0  0
 14 17  1  0  0  0  0
 14 21  1  0  0  0  0
 14 33  1  0  0  0  0
 15 17  1  0  0  0  0
 15 34  1  0  0  0  0
 15 35  1  0  0  0  0
 16 19  1  0  0  0  0
 16 36  1  0  0  0  0
 16 37  1  0  0  0  0
 17 25  1  0  0  0  0
 18 21  1  0  0  0  0
 18 38  1  0  0  0  0
 18 39  1  0  0  0  0
 19 40  1  0  0  0  0
 20 23  1  0  0  0  0
 20 26  1  0  0  0  0
 20 27  1  0  0  0  0
 21 41  1  0  0  0  0
 21 42  1  0  0  0  0
 22 23  1  0  0  0  0
 22 43  1  0  0  0  0
 22 44  1  0  0  0  0
 23 45  1  0  0  0  0
 24 46  1  0  0  0  0
 24 47  1  0  0  0  0
 24 48  1  0  0  0  0
 25 49  1  0  0  0  0
 25 50  1  0  0  0  0
 25 51  1  0  0  0  0
 26 52  1  0  0  0  0
 26 53  1  0  0  0  0
 26 54  1  0  0  0  0
 27 55  1  0  0  0  0
 27 56  1  0  0  0  0
 27 57  1  0  0  0  0
 28 29  1  0  0  0  0
 29 63  1  0  0  0  0
 29 64  1  0  0  0  0
 29 65  1  0  0  0  0
M  END
> <PUBCHEM_COMPOUND_CID>
442034

> <PUBCHEM_CONFORMER_RMSD>
0.8

> <PUBCHEM_CONFORMER_DIVERSEORDER>
1
3
2

> <PUBCHEM_MMFF94_PARTIAL_CHARGES>
20
1 -0.43
10 0.28
11 0.28
13 0.28
17 0.28
19 0.28
2 -0.68
23 0.28
28 0.66
29 0.06
3 -0.68
4 -0.68
5 -0.68
58 0.4
59 0.4
6 -0.68
60 0.4
61 0.4
62 0.4
7 -0.57

> <PUBCHEM_EFFECTIVE_ROTOR_COUNT>
4.2

> <PUBCHEM_PHARMACOPHORE_FEATURES>
15
1 2 acceptor
1 2 donor
1 3 acceptor
1 3 donor
1 4 acceptor
1 4 donor
1 5 acceptor
1 5 donor
1 6 acceptor
1 6 donor
1 7 acceptor
3 20 26 27 hydrophobe
5 12 13 20 22 23 rings
7 8 9 11 12 13 16 19 rings
8 8 9 10 14 15 17 18 21 rings

> <PUBCHEM_HEAVY_ATOM_COUNT>
29

> <PUBCHEM_ATOM_DEF_STEREO_COUNT>
10

> <PUBCHEM_ATOM_UDEF_STEREO_COUNT>
0

> <PUBCHEM_BOND_DEF_STEREO_COUNT>
0

> <PUBCHEM_BOND_UDEF_STEREO_COUNT>
0

> <PUBCHEM_ISOTOPIC_ATOM_COUNT>
0

> <PUBCHEM_COMPONENT_COUNT>
1

> <PUBCHEM_CACTVS_TAUTO_COUNT>
1

> <PUBCHEM_CONFORMER_ID>
0006BEB200000001

> <PUBCHEM_MMFF94_ENERGY>
154.6476

> <PUBCHEM_FEATURE_SELFOVERLAP>
76.147

> <PUBCHEM_SHAPE_FINGERPRINT>
10369192 42 15121219934438688590
10863032 1 17561070436638690121
10948715 1 17560798891900765225
11370993 70 18187370973045285822
11578080 2 17969782977701316833
12035759 4 18129119856750477791
12156800 1 12954003492508994328
12236239 1 18273213127618790813
12592029 89 18266450095967933739
12633257 1 18113337526821591400
12714826 92 17896314727546120623
12788726 201 18192712241846526767
13140716 1 16988266612723008873
13224815 77 17988922262795190792
14115302 16 18113337526468241528
14223421 5 17606409747818859176
14251751 93 18412259528393682631
15664445 248 17327469021478738997
16945 1 18187077390624222408
17349148 13 17203338805825820576
17980427 23 18059020463199856100
20600515 1 17330046383824000883
20691752 17 17417263043579468428
20905425 154 17198268055244747612
21033648 29 18187651365611675505
229495 10 15123245367774242507
23402539 116 17775292672862259624
23419403 2 14797526717361131320
23557571 272 17895768274604021706
23559900 14 17676486168644572926
3286 77 16702009838567947755
34934 24 17917713534346170453
35225 105 17533530968961465231
5104073 3 17275095133346020088
633830 44 17418373601831162754
90525 40 18413383250709732911

> <PUBCHEM_SHAPE_MULTIPOLES>
555.72
7.82
2.63
2.31
1.85
2.7
-0.78
-2
1.3
-2.06
1.1
0.83
-0.26
-0.71

> <PUBCHEM_SHAPE_SELFOVERLAP>
1189.633

> <PUBCHEM_SHAPE_VOLUME>
306.7

> <PUBCHEM_COORDINATE_TYPE>
2
5
10

$$$$

