3247071
  -OEChem-07051213072D

 78 77  0     1  0  0  0  0  0999 V2000
   12.0632   -2.9400    0.0000 O   0  0  0  0  0  0  0  0  0  0  0  0
   11.1972   -2.4400    0.0000 O   0  0  0  0  0  0  0  0  0  0  0  0
   12.0632    0.0600    0.0000 O   0  0  0  0  0  0  0  0  0  0  0  0
   14.6613   -2.4400    0.0000 O   0  0  0  0  0  0  0  0  0  0  0  0
    6.0010   -2.4400    0.0000 O   0  0  0  0  0  0  0  0  0  0  0  0
    6.8671   -2.9400    0.0000 O   0  0  0  0  0  0  0  0  0  0  0  0
    8.5991   -2.9400    0.0000 O   0  0  0  0  0  0  0  0  0  0  0  0
   18.1254    1.5600    0.0000 O   0  0  0  0  0  0  0  0  0  0  0  0
    2.5369    1.5600    0.0000 O   0  0  0  0  0  0  0  0  0  0  0  0
   18.1254    3.5600    0.0000 O   0  0  0  0  0  0  0  0  0  0  0  0
    2.5369    3.5600    0.0000 O   0  0  0  0  0  0  0  0  0  0  0  0
   11.1972   -1.4400    0.0000 N   0  0  0  0  0  0  0  0  0  0  0  0
   13.7953   -0.9400    0.0000 N   0  0  0  0  0  0  0  0  0  0  0  0
    6.8671   -0.9400    0.0000 N   0  0  0  0  0  0  0  0  0  0  0  0
   16.3933   -1.4400    0.0000 N   0  0  0  0  0  0  0  0  0  0  0  0
    4.2690   -1.4400    0.0000 N   0  0  0  0  0  0  0  0  0  0  0  0
   17.2594    2.0600    0.0000 N   0  0  0  0  0  0  0  0  0  0  0  0
    3.4030    2.0600    0.0000 N   0  0  0  0  0  0  0  0  0  0  0  0
    8.5991   -0.9400    0.0000 C   0  0  0  0  0  0  0  0  0  0  0  0
   12.9292   -1.4400    0.0000 C   0  0  2  0  0  0  0  0  0  0  0  0
    9.4651   -1.4400    0.0000 C   0  0  0  0  0  0  0  0  0  0  0  0
    7.7331   -1.4400    0.0000 C   0  0  1  0  0  0  0  0  0  0  0  0
   10.3312   -0.9400    0.0000 C   0  0  0  0  0  0  0  0  0  0  0  0
   12.9292   -2.4400    0.0000 C   0  0  1  0  0  0  0  0  0  0  0  0
   15.5273   -0.9400    0.0000 C   0  0  2  0  0  0  0  0  0  0  0  0
    5.1350   -0.9400    0.0000 C   0  0  2  0  0  0  0  0  0  0  0  0
   12.0632   -0.9400    0.0000 C   0  0  0  0  0  0  0  0  0  0  0  0
   15.5273    0.0600    0.0000 C   0  0  0  0  0  0  0  0  0  0  0  0
    5.1350    0.0600    0.0000 C   0  0  0  0  0  0  0  0  0  0  0  0
   14.6613   -1.4400    0.0000 C   0  0  0  0  0  0  0  0  0  0  0  0
   16.3933    0.5600    0.0000 C   0  0  0  0  0  0  0  0  0  0  0  0
    6.0010   -1.4400    0.0000 C   0  0  0  0  0  0  0  0  0  0  0  0
    4.2690    0.5600    0.0000 C   0  0  0  0  0  0  0  0  0  0  0  0
   13.7953   -2.9400    0.0000 C   0  0  0  0  0  0  0  0  0  0  0  0
    7.7331   -2.4400    0.0000 C   0  0  0  0  0  0  0  0  0  0  0  0
   16.3933    1.5600    0.0000 C   0  0  0  0  0  0  0  0  0  0  0  0
    4.2690    1.5600    0.0000 C   0  0  0  0  0  0  0  0  0  0  0  0
   17.2594    3.0600    0.0000 C   0  0  0  0  0  0  0  0  0  0  0  0
    3.4030    3.0600    0.0000 C   0  0  0  0  0  0  0  0  0  0  0  0
    8.9976   -0.4651    0.0000 H   0  0  0  0  0  0  0  0  0  0  0  0
    8.2006   -0.4651    0.0000 H   0  0  0  0  0  0  0  0  0  0  0  0
   12.9292   -0.8200    0.0000 H   0  0  0  0  0  0  0  0  0  0  0  0
    9.0666   -1.9150    0.0000 H   0  0  0  0  0  0  0  0  0  0  0  0
    9.8637   -1.9150    0.0000 H   0  0  0  0  0  0  0  0  0  0  0  0
    7.1962   -1.7500    0.0000 H   0  0  0  0  0  0  0  0  0  0  0  0
   10.7297   -0.4651    0.0000 H   0  0  0  0  0  0  0  0  0  0  0  0
    9.9326   -0.4651    0.0000 H   0  0  0  0  0  0  0  0  0  0  0  0
   12.3923   -2.1300    0.0000 H   0  0  0  0  0  0  0  0  0  0  0  0
   15.5273   -1.5600    0.0000 H   0  0  0  0  0  0  0  0  0  0  0  0
    4.5981   -0.6300    0.0000 H   0  0  0  0  0  0  0  0  0  0  0  0
   15.3153    0.6426    0.0000 H   0  0  0  0  0  0  0  0  0  0  0  0
   14.9167   -0.0477    0.0000 H   0  0  0  0  0  0  0  0  0  0  0  0
   13.7953   -0.3200    0.0000 H   0  0  0  0  0  0  0  0  0  0  0  0
    5.7456   -0.0477    0.0000 H   0  0  0  0  0  0  0  0  0  0  0  0
    5.3471    0.6426    0.0000 H   0  0  0  0  0  0  0  0  0  0  0  0
    6.8671   -0.3200    0.0000 H   0  0  0  0  0  0  0  0  0  0  0  0
   16.6054   -0.0226    0.0000 H   0  0  0  0  0  0  0  0  0  0  0  0
   17.0039    0.6677    0.0000 H   0  0  0  0  0  0  0  0  0  0  0  0
    3.6584    0.6677    0.0000 H   0  0  0  0  0  0  0  0  0  0  0  0
    4.0569   -0.0226    0.0000 H   0  0  0  0  0  0  0  0  0  0  0  0
   13.4853   -3.4769    0.0000 H   0  0  0  0  0  0  0  0  0  0  0  0
   14.3322   -3.2500    0.0000 H   0  0  0  0  0  0  0  0  0  0  0  0
   14.1053   -2.4031    0.0000 H   0  0  0  0  0  0  0  0  0  0  0  0
   16.1813    2.1426    0.0000 H   0  0  0  0  0  0  0  0  0  0  0  0
   15.7828    1.4523    0.0000 H   0  0  0  0  0  0  0  0  0  0  0  0
    4.8796    1.4523    0.0000 H   0  0  0  0  0  0  0  0  0  0  0  0
    4.4810    2.1426    0.0000 H   0  0  0  0  0  0  0  0  0  0  0  0
   16.9303   -1.1300    0.0000 H   0  0  0  0  0  0  0  0  0  0  0  0
   16.3933   -2.0600    0.0000 H   0  0  0  0  0  0  0  0  0  0  0  0
    3.7320   -1.1300    0.0000 H   0  0  0  0  0  0  0  0  0  0  0  0
    4.2690   -2.0600    0.0000 H   0  0  0  0  0  0  0  0  0  0  0  0
   12.0632   -3.5600    0.0000 H   0  0  0  0  0  0  0  0  0  0  0  0
   10.6603   -2.7500    0.0000 H   0  0  0  0  0  0  0  0  0  0  0  0
    6.8671   -3.5600    0.0000 H   0  0  0  0  0  0  0  0  0  0  0  0
   16.7224    3.3700    0.0000 H   0  0  0  0  0  0  0  0  0  0  0  0
    3.9399    3.3700    0.0000 H   0  0  0  0  0  0  0  0  0  0  0  0
   18.6623    1.8700    0.0000 H   0  0  0  0  0  0  0  0  0  0  0  0
    2.0000    1.8700    0.0000 H   0  0  0  0  0  0  0  0  0  0  0  0
 24  1  1  1  0  0  0
  1 72  1  0  0  0  0
  2 12  1  0  0  0  0
  2 73  1  0  0  0  0
  3 27  2  0  0  0  0
  4 30  2  0  0  0  0
  5 32  2  0  0  0  0
  6 35  1  0  0  0  0
  6 74  1  0  0  0  0
  7 35  2  0  0  0  0
  8 17  1  0  0  0  0
  8 77  1  0  0  0  0
  9 18  1  0  0  0  0
  9 78  1  0  0  0  0
 10 38  2  0  0  0  0
 11 39  2  0  0  0  0
 12 23  1  0  0  0  0
 12 27  1  0  0  0  0
 20 13  1  6  0  0  0
 13 30  1  0  0  0  0
 13 53  1  0  0  0  0
 22 14  1  1  0  0  0
 14 32  1  0  0  0  0
 14 56  1  0  0  0  0
 25 15  1  1  0  0  0
 15 68  1  0  0  0  0
 15 69  1  0  0  0  0
 26 16  1  6  0  0  0
 16 70  1  0  0  0  0
 16 71  1  0  0  0  0
 17 36  1  0  0  0  0
 17 38  1  0  0  0  0
 18 37  1  0  0  0  0
 18 39  1  0  0  0  0
 19 21  1  0  0  0  0
 19 22  1  0  0  0  0
 19 40  1  0  0  0  0
 19 41  1  0  0  0  0
 20 24  1  0  0  0  0
 20 27  1  0  0  0  0
 20 42  1  0  0  0  0
 21 23  1  0  0  0  0
 21 43  1  0  0  0  0
 21 44  1  0  0  0  0
 22 35  1  0  0  0  0
 22 45  1  0  0  0  0
 23 46  1  0  0  0  0
 23 47  1  0  0  0  0
 24 34  1  0  0  0  0
 24 48  1  0  0  0  0
 25 28  1  0  0  0  0
 25 30  1  0  0  0  0
 25 49  1  0  0  0  0
 26 29  1  0  0  0  0
 26 32  1  0  0  0  0
 26 50  1  0  0  0  0
 28 31  1  0  0  0  0
 28 51  1  0  0  0  0
 28 52  1  0  0  0  0
 29 33  1  0  0  0  0
 29 54  1  0  0  0  0
 29 55  1  0  0  0  0
 31 36  1  0  0  0  0
 31 57  1  0  0  0  0
 31 58  1  0  0  0  0
 33 37  1  0  0  0  0
 33 59  1  0  0  0  0
 33 60  1  0  0  0  0
 34 61  1  0  0  0  0
 34 62  1  0  0  0  0
 34 63  1  0  0  0  0
 36 64  1  0  0  0  0
 36 65  1  0  0  0  0
 37 66  1  0  0  0  0
 37 67  1  0  0  0  0
 38 75  1  0  0  0  0
 39 76  1  0  0  0  0
M  END
> <PUBCHEM_COMPOUND_CID>
3247071

> <PUBCHEM_COMPOUND_CANONICALIZED>
1

> <PUBCHEM_CACTVS_COMPLEXITY>
819

> <PUBCHEM_CACTVS_HBOND_ACCEPTOR>
13

> <PUBCHEM_CACTVS_HBOND_DONOR>
9

> <PUBCHEM_CACTVS_ROTATABLE_BOND>
19

> <PUBCHEM_CACTVS_SUBSKEYS>
AAADcfB7vAAAAAAAAAAAAAAAAAAAAAAAAAAAAAAAAAAAAAAAAAAAHgAUCAAACDzhgAYCCALQAgAIAAGQmAAAAAAAAAAgAIGIAAACUBYAgCAUQAAGNgCQAACYEQIAAAAAAAAAAAAAAAAAAAAAAAAAAAAAAA==

> <PUBCHEM_IUPAC_OPENEYE_NAME>
(2S)-2-[[(2R)-2-amino-5-[formyl(hydroxy)amino]pentanoyl]amino]-5-[[(2R,3R)-2-[[(2R)-2-amino-5-[formyl(hydroxy)amino]pentanoyl]amino]-3-hydroxy-butanoyl]-hydroxy-amino]pentanoic acid

> <PUBCHEM_IUPAC_CAS_NAME>
(2S)-2-[[(2R)-2-amino-5-[formyl(hydroxy)amino]-1-oxopentyl]amino]-5-[[(2R,3R)-2-[[(2R)-2-amino-5-[formyl(hydroxy)amino]-1-oxopentyl]amino]-3-hydroxy-1-oxobutyl]-hydroxyamino]pentanoic acid

> <PUBCHEM_IUPAC_NAME>
(2S)-2-[[(2R)-2-amino-5-[formyl(hydroxy)amino]pentanoyl]amino]-5-[[(2R,3R)-2-[[(2R)-2-amino-5-[formyl(hydroxy)amino]pentanoyl]amino]-3-hydroxybutanoyl]-hydroxyamino]pentanoic acid

> <PUBCHEM_IUPAC_SYSTEMATIC_NAME>
(2S)-2-[[(2R)-2-azanyl-5-[methanoyl(oxidanyl)amino]pentanoyl]amino]-5-[[(2R,3R)-2-[[(2R)-2-azanyl-5-[methanoyl(oxidanyl)amino]pentanoyl]amino]-3-oxidanyl-butanoyl]-oxidanyl-amino]pentanoic acid

> <PUBCHEM_IUPAC_TRADITIONAL_NAME>
(2S)-2-[[(2R)-2-amino-5-[formyl(hydroxy)amino]pentanoyl]amino]-5-[[(2R,3R)-2-[[(2R)-2-amino-5-[formyl(hydroxy)amino]pentanoyl]amino]-3-hydroxy-butanoyl]-hydroxy-amino]valeric acid

> <PUBCHEM_IUPAC_INCHI>
InChI=1S/C21H39N7O11/c1-13(31)17(25-19(33)15(23)6-3-9-27(38)12-30)20(34)28(39)10-4-7-16(21(35)36)24-18(32)14(22)5-2-8-26(37)11-29/h11-17,31,37-39H,2-10,22-23H2,1H3,(H,24,32)(H,25,33)(H,35,36)/t13-,14-,15-,16+,17-/m1/s1

> <PUBCHEM_IUPAC_INCHIKEY>
ZPJLQAOTGYKOBJ-OVYGPGRDSA-N

> <PUBCHEM_XLOGP3_AA>
-6.5

> <PUBCHEM_EXACT_MASS>
565.270755

> <PUBCHEM_MOLECULAR_FORMULA>
C21H39N7O11

> <PUBCHEM_MOLECULAR_WEIGHT>
565.57466

> <PUBCHEM_OPENEYE_CAN_SMILES>
CC(C(C(=O)N(CCCC(C(=O)O)NC(=O)C(CCCN(C=O)O)N)O)NC(=O)C(CCCN(C=O)O)N)O

> <PUBCHEM_OPENEYE_ISO_SMILES>
C[C@H]([C@H](C(=O)N(CCC[C@@H](C(=O)O)NC(=O)[C@@H](CCCN(C=O)O)N)O)NC(=O)[C@@H](CCCN(C=O)O)N)O

> <PUBCHEM_CACTVS_TPSA>
289

> <PUBCHEM_MONOISOTOPIC_WEIGHT>
565.270755

> <PUBCHEM_TOTAL_CHARGE>
0

> <PUBCHEM_HEAVY_ATOM_COUNT>
39

> <PUBCHEM_ATOM_DEF_STEREO_COUNT>
5

> <PUBCHEM_ATOM_UDEF_STEREO_COUNT>
0

> <PUBCHEM_BOND_DEF_STEREO_COUNT>
0

> <PUBCHEM_BOND_UDEF_STEREO_COUNT>
0

> <PUBCHEM_ISOTOPIC_ATOM_COUNT>
0

> <PUBCHEM_COMPONENT_COUNT>
1

> <PUBCHEM_CACTVS_TAUTO_COUNT>
4

> <PUBCHEM_COORDINATE_TYPE>
1
5
255

> <PUBCHEM_BONDANNOTATIONS>
24  1  5
20  13  6
22  14  5
25  15  5
26  16  6

$$$$

