13306
  -OEChem-06261208463D

 45 47  0     1  0  0  0  0  0999 V2000
    0.8580   -0.3068   -1.9568 O   0  0  0  0  0  0  0  0  0  0  0  0
   -2.6132    2.4693   -0.5586 O   0  0  0  0  0  0  0  0  0  0  0  0
    1.0308    1.8738    2.1530 O   0  0  0  0  0  0  0  0  0  0  0  0
    0.9477    0.6426    0.1718 N   0  0  0  0  0  0  0  0  0  0  0  0
   -0.7894    2.1216    0.7960 N   0  0  0  0  0  0  0  0  0  0  0  0
   -1.9766   -0.5580   -0.6977 C   0  0  0  0  0  0  0  0  0  0  0  0
   -1.1495    0.6573   -1.1130 C   0  0  2  0  0  0  0  0  0  0  0  0
    2.2757    0.1280    0.4039 C   0  0  0  0  0  0  0  0  0  0  0  0
   -1.7430   -0.8926    0.7818 C   0  0  0  0  0  0  0  0  0  0  0  0
   -3.4670   -0.3197   -0.9751 C   0  0  0  0  0  0  0  0  0  0  0  0
   -2.5999   -2.0723    1.2351 C   0  0  0  0  0  0  0  0  0  0  0  0
   -4.3213   -1.5004   -0.5187 C   0  0  0  0  0  0  0  0  0  0  0  0
    2.2639   -1.4023    0.4479 C   0  0  0  0  0  0  0  0  0  0  0  0
    3.2457    0.6472   -0.6602 C   0  0  0  0  0  0  0  0  0  0  0  0
   -4.0797   -1.8355    0.9498 C   0  0  0  0  0  0  0  0  0  0  0  0
    0.3155    0.2968   -1.0288 C   0  0  0  0  0  0  0  0  0  0  0  0
    3.6681   -1.9698    0.6386 C   0  0  0  0  0  0  0  0  0  0  0  0
    4.6484    0.0760   -0.4694 C   0  0  0  0  0  0  0  0  0  0  0  0
    4.6339   -1.4492   -0.4220 C   0  0  0  0  0  0  0  0  0  0  0  0
   -1.5870    1.8429   -0.2970 C   0  0  0  0  0  0  0  0  0  0  0  0
    0.4388    1.5511    1.1195 C   0  0  0  0  0  0  0  0  0  0  0  0
   -1.6572   -1.4249   -1.2936 H   0  0  0  0  0  0  0  0  0  0  0  0
   -1.3445    0.9110   -2.1638 H   0  0  0  0  0  0  0  0  0  0  0  0
    2.6483    0.4722    1.3765 H   0  0  0  0  0  0  0  0  0  0  0  0
   -1.9969   -0.0510    1.4340 H   0  0  0  0  0  0  0  0  0  0  0  0
   -0.7023   -1.1637    0.9726 H   0  0  0  0  0  0  0  0  0  0  0  0
   -3.6292   -0.1443   -2.0450 H   0  0  0  0  0  0  0  0  0  0  0  0
   -3.8515    0.5527   -0.4408 H   0  0  0  0  0  0  0  0  0  0  0  0
   -2.4547   -2.2443    2.3077 H   0  0  0  0  0  0  0  0  0  0  0  0
   -2.2700   -2.9824    0.7189 H   0  0  0  0  0  0  0  0  0  0  0  0
   -4.0899   -2.3772   -1.1361 H   0  0  0  0  0  0  0  0  0  0  0  0
   -5.3817   -1.2719   -0.6752 H   0  0  0  0  0  0  0  0  0  0  0  0
    1.8427   -1.8456   -0.4600 H   0  0  0  0  0  0  0  0  0  0  0  0
    1.6282   -1.7428    1.2745 H   0  0  0  0  0  0  0  0  0  0  0  0
    3.2947    1.7424   -0.6082 H   0  0  0  0  0  0  0  0  0  0  0  0
    2.9430    0.4115   -1.6828 H   0  0  0  0  0  0  0  0  0  0  0  0
   -4.6553   -2.7266    1.2242 H   0  0  0  0  0  0  0  0  0  0  0  0
   -4.4453   -1.0131    1.5770 H   0  0  0  0  0  0  0  0  0  0  0  0
    3.6327   -3.0645    0.6007 H   0  0  0  0  0  0  0  0  0  0  0  0
    4.0393   -1.6978    1.6345 H   0  0  0  0  0  0  0  0  0  0  0  0
    5.0764    0.4650    0.4628 H   0  0  0  0  0  0  0  0  0  0  0  0
    5.3000    0.4144   -1.2831 H   0  0  0  0  0  0  0  0  0  0  0  0
    5.6436   -1.8216   -0.2160 H   0  0  0  0  0  0  0  0  0  0  0  0
    4.3422   -1.8414   -1.4042 H   0  0  0  0  0  0  0  0  0  0  0  0
   -1.1211    2.8517    1.4203 H   0  0  0  0  0  0  0  0  0  0  0  0
  1 16  2  0  0  0  0
  2 20  2  0  0  0  0
  3 21  2  0  0  0  0
  4  8  1  0  0  0  0
  4 16  1  0  0  0  0
  4 21  1  0  0  0  0
  5 20  1  0  0  0  0
  5 21  1  0  0  0  0
  5 45  1  0  0  0  0
  6  7  1  0  0  0  0
  6  9  1  0  0  0  0
  6 10  1  0  0  0  0
  6 22  1  0  0  0  0
  7 16  1  0  0  0  0
  7 20  1  0  0  0  0
  7 23  1  0  0  0  0
  8 13  1  0  0  0  0
  8 14  1  0  0  0  0
  8 24  1  0  0  0  0
  9 11  1  0  0  0  0
  9 25  1  0  0  0  0
  9 26  1  0  0  0  0
 10 12  1  0  0  0  0
 10 27  1  0  0  0  0
 10 28  1  0  0  0  0
 11 15  1  0  0  0  0
 11 29  1  0  0  0  0
 11 30  1  0  0  0  0
 12 15  1  0  0  0  0
 12 31  1  0  0  0  0
 12 32  1  0  0  0  0
 13 17  1  0  0  0  0
 13 33  1  0  0  0  0
 13 34  1  0  0  0  0
 14 18  1  0  0  0  0
 14 35  1  0  0  0  0
 14 36  1  0  0  0  0
 15 37  1  0  0  0  0
 15 38  1  0  0  0  0
 17 19  1  0  0  0  0
 17 39  1  0  0  0  0
 17 40  1  0  0  0  0
 18 19  1  0  0  0  0
 18 41  1  0  0  0  0
 18 42  1  0  0  0  0
 19 43  1  0  0  0  0
 19 44  1  0  0  0  0
M  END
> <PUBCHEM_COMPOUND_CID>
13306

> <PUBCHEM_CONFORMER_RMSD>
0.8

> <PUBCHEM_CONFORMER_DIVERSEORDER>
1
9
14
15
4
8
10
2
7
16
6
3
5
12
13
11

> <PUBCHEM_MMFF94_PARTIAL_CHARGES>
11
1 -0.57
16 0.57
2 -0.57
20 0.57
21 0.69
3 -0.57
4 -0.42
45 0.37
5 -0.49
7 0.12
8 0.3

> <PUBCHEM_EFFECTIVE_ROTOR_COUNT>
5

> <PUBCHEM_PHARMACOPHORE_FEATURES>
8
1 1 acceptor
1 2 acceptor
1 3 acceptor
1 5 donor
1 7 anion
6 4 5 7 16 20 21 rings
6 6 9 10 11 12 15 rings
6 8 13 14 17 18 19 rings

> <PUBCHEM_HEAVY_ATOM_COUNT>
21

> <PUBCHEM_ATOM_DEF_STEREO_COUNT>
0

> <PUBCHEM_ATOM_UDEF_STEREO_COUNT>
1

> <PUBCHEM_BOND_DEF_STEREO_COUNT>
0

> <PUBCHEM_BOND_UDEF_STEREO_COUNT>
0

> <PUBCHEM_ISOTOPIC_ATOM_COUNT>
0

> <PUBCHEM_COMPONENT_COUNT>
1

> <PUBCHEM_CACTVS_TAUTO_COUNT>
3

> <PUBCHEM_CONFORMER_ID>
000033FA00000001

> <PUBCHEM_MMFF94_ENERGY>
40.643

> <PUBCHEM_FEATURE_SELFOVERLAP>
40.594

> <PUBCHEM_SHAPE_FINGERPRINT>
10366900 7 18410016502786752435
10616163 171 18341894138253446782
10863032 1 18270966850821597556
11543360 7 17632857516751800556
121448 382 14620504584984895976
12293681 4 17750230473575855041
12506688 2 18410852118797008786
12553582 1 18114472179698119446
12633257 1 17531517694799696251
12714826 92 18334574659139574548
12760667 363 18409447015845906754
12824470 246 18201161043749493290
13103583 49 18042946732593631715
13134695 92 18115026277903252601
13544653 18 18341328911808804254
13631057 29 18271803497951422602
13965767 371 13988263473417140251
14251740 79 17988357160947513074
14787075 74 18191304880253485360
14957384 54 6266628538003591395
15209294 21 14056714660266572294
15375462 189 18261110725547999542
16752209 62 18339092578251447131
16945 1 18267031569730258700
17349148 13 12247139514590235004
1813 80 17240749667343812892
18222031 100 17240769453767334087
19784866 135 18343861126232564075
200 152 18412263934929745718
20871999 31 17846223271370535213
23175994 123 18341609274937286687
23419403 2 17677353652932637225
23559900 14 18272098158039693812
2748010 2 17824007608629958977
2871803 45 18131634473960450426
31174 14 17896610491778545057
3286 77 17749671771107023417
3759504 43 18054791951595366293
463206 1 18056193566817512715
465052 167 17968657112349410679
5104073 3 18337397144881156162
9709674 26 18340204214751514398

> <PUBCHEM_SHAPE_MULTIPOLES>
404.6
8.22
2.45
1.44
3.12
0.33
0.2
-5.27
-1.03
-1.1
0.81
-0.15
0.3
0.58

> <PUBCHEM_SHAPE_SELFOVERLAP>
850.113

> <PUBCHEM_SHAPE_VOLUME>
221.6

> <PUBCHEM_COORDINATE_TYPE>
2
5
10

$$$$

