74597
  -OEChem-07051213042D

 47 48  0     0  0  0  0  0  0999 V2000
    3.7320   -0.5000    0.0000 Si  0  0  0  0  0  0  0  0  0  0  0  0
    4.5981    1.0000    0.0000 Si  0  0  0  0  0  0  0  0  0  0  0  0
    4.5981    0.0000    0.0000 O   0  0  0  0  0  0  0  0  0  0  0  0
    2.8660   -1.0000    0.0000 C   0  0  0  0  0  0  0  0  0  0  0  0
    4.5981    2.0000    0.0000 C   0  0  0  0  0  0  0  0  0  0  0  0
    3.2320    0.3660    0.0000 C   0  0  0  0  0  0  0  0  0  0  0  0
    4.2320   -1.3660    0.0000 C   0  0  0  0  0  0  0  0  0  0  0  0
    5.5981    1.0000    0.0000 C   0  0  0  0  0  0  0  0  0  0  0  0
    3.5981    1.0000    0.0000 C   0  0  0  0  0  0  0  0  0  0  0  0
    2.8660   -2.0000    0.0000 C   0  0  0  0  0  0  0  0  0  0  0  0
    5.4641    2.5000    0.0000 C   0  0  0  0  0  0  0  0  0  0  0  0
    6.3301    2.0000    0.0000 C   0  0  0  0  0  0  0  0  0  0  0  0
    2.0000   -2.5000    0.0000 C   0  0  0  0  0  0  0  0  0  0  0  0
    5.4641    3.5000    0.0000 C   0  0  0  0  0  0  0  0  0  0  0  0
    3.7320   -2.5000    0.0000 C   0  0  0  0  0  0  0  0  0  0  0  0
    2.0000   -3.5000    0.0000 C   0  0  0  0  0  0  0  0  0  0  0  0
    7.1962    2.5000    0.0000 C   0  0  0  0  0  0  0  0  0  0  0  0
    3.7320   -3.5000    0.0000 C   0  0  0  0  0  0  0  0  0  0  0  0
    6.3301    4.0000    0.0000 C   0  0  0  0  0  0  0  0  0  0  0  0
    2.8660   -4.0000    0.0000 C   0  0  0  0  0  0  0  0  0  0  0  0
    7.1962    3.5000    0.0000 C   0  0  0  0  0  0  0  0  0  0  0  0
    2.6540   -0.4174    0.0000 H   0  0  0  0  0  0  0  0  0  0  0  0
    2.2554   -1.1077    0.0000 H   0  0  0  0  0  0  0  0  0  0  0  0
    4.3860    2.5826    0.0000 H   0  0  0  0  0  0  0  0  0  0  0  0
    3.9875    1.8923    0.0000 H   0  0  0  0  0  0  0  0  0  0  0  0
    3.5981    1.6200    0.0000 H   0  0  0  0  0  0  0  0  0  0  0  0
    2.9781    1.0000    0.0000 H   0  0  0  0  0  0  0  0  0  0  0  0
    3.5981    0.3800    0.0000 H   0  0  0  0  0  0  0  0  0  0  0  0
    5.5981    0.3800    0.0000 H   0  0  0  0  0  0  0  0  0  0  0  0
    6.2181    1.0000    0.0000 H   0  0  0  0  0  0  0  0  0  0  0  0
    5.5981    1.6200    0.0000 H   0  0  0  0  0  0  0  0  0  0  0  0
    3.6951   -1.6760    0.0000 H   0  0  0  0  0  0  0  0  0  0  0  0
    4.5420   -1.9030    0.0000 H   0  0  0  0  0  0  0  0  0  0  0  0
    4.7690   -1.0560    0.0000 H   0  0  0  0  0  0  0  0  0  0  0  0
    3.7690    0.6760    0.0000 H   0  0  0  0  0  0  0  0  0  0  0  0
    2.9220    0.9030    0.0000 H   0  0  0  0  0  0  0  0  0  0  0  0
    2.6951    0.0560    0.0000 H   0  0  0  0  0  0  0  0  0  0  0  0
    1.4631   -2.1900    0.0000 H   0  0  0  0  0  0  0  0  0  0  0  0
    6.3301    1.3800    0.0000 H   0  0  0  0  0  0  0  0  0  0  0  0
    4.2690   -2.1900    0.0000 H   0  0  0  0  0  0  0  0  0  0  0  0
    4.9272    3.8100    0.0000 H   0  0  0  0  0  0  0  0  0  0  0  0
    1.4631   -3.8100    0.0000 H   0  0  0  0  0  0  0  0  0  0  0  0
    7.7331    2.1900    0.0000 H   0  0  0  0  0  0  0  0  0  0  0  0
    4.2690   -3.8100    0.0000 H   0  0  0  0  0  0  0  0  0  0  0  0
    6.3301    4.6200    0.0000 H   0  0  0  0  0  0  0  0  0  0  0  0
    2.8660   -4.6200    0.0000 H   0  0  0  0  0  0  0  0  0  0  0  0
    7.7331    3.8100    0.0000 H   0  0  0  0  0  0  0  0  0  0  0  0
  1  3  1  0  0  0  0
  1  4  1  0  0  0  0
  1  6  1  0  0  0  0
  1  7  1  0  0  0  0
  2  3  1  0  0  0  0
  2  5  1  0  0  0  0
  2  8  1  0  0  0  0
  2  9  1  0  0  0  0
  4 10  1  0  0  0  0
  4 22  1  0  0  0  0
  4 23  1  0  0  0  0
  5 11  1  0  0  0  0
  5 24  1  0  0  0  0
  5 25  1  0  0  0  0
  6 35  1  0  0  0  0
  6 36  1  0  0  0  0
  6 37  1  0  0  0  0
  7 32  1  0  0  0  0
  7 33  1  0  0  0  0
  7 34  1  0  0  0  0
  8 29  1  0  0  0  0
  8 30  1  0  0  0  0
  8 31  1  0  0  0  0
  9 26  1  0  0  0  0
  9 27  1  0  0  0  0
  9 28  1  0  0  0  0
 10 13  2  0  0  0  0
 10 15  1  0  0  0  0
 11 12  2  0  0  0  0
 11 14  1  0  0  0  0
 12 17  1  0  0  0  0
 12 39  1  0  0  0  0
 13 16  1  0  0  0  0
 13 38  1  0  0  0  0
 14 19  2  0  0  0  0
 14 41  1  0  0  0  0
 15 18  2  0  0  0  0
 15 40  1  0  0  0  0
 16 20  2  0  0  0  0
 16 42  1  0  0  0  0
 17 21  2  0  0  0  0
 17 43  1  0  0  0  0
 18 20  1  0  0  0  0
 18 44  1  0  0  0  0
 19 21  1  0  0  0  0
 19 45  1  0  0  0  0
 20 46  1  0  0  0  0
 21 47  1  0  0  0  0
M  END
> <PUBCHEM_COMPOUND_CID>
74597

> <PUBCHEM_COMPOUND_CANONICALIZED>
1

> <PUBCHEM_CACTVS_COMPLEXITY>
272

> <PUBCHEM_CACTVS_HBOND_ACCEPTOR>
1

> <PUBCHEM_CACTVS_HBOND_DONOR>
0

> <PUBCHEM_CACTVS_ROTATABLE_BOND>
6

> <PUBCHEM_CACTVS_SUBSKEYS>
AAADceB4IAwAAAAAAAAAAAAAAAAAAAAAAAAwYAAAAAAAAAABQAAAGBAAAEAADACAOAByAIAAAAGAAiBCAAACAAAgAAAIiAAAAIgIICKAERCAIAAggAAIiAcAgAAOAAAAAAAAAAAAAAAAAAAAAAAAAAAAAA==

> <PUBCHEM_IUPAC_OPENEYE_NAME>
benzyl-[benzyl(dimethyl)silyl]oxy-dimethyl-silane

> <PUBCHEM_IUPAC_CAS_NAME>
[dimethyl-(phenylmethyl)silyl]oxy-dimethyl-(phenylmethyl)silane

> <PUBCHEM_IUPAC_NAME>
benzyl-[benzyl(dimethyl)silyl]oxy-dimethylsilane

> <PUBCHEM_IUPAC_SYSTEMATIC_NAME>
[dimethyl-(phenylmethyl)silyl]oxy-dimethyl-(phenylmethyl)silane

> <PUBCHEM_IUPAC_TRADITIONAL_NAME>
benzyl-[benzyl(dimethyl)silyl]oxy-dimethyl-silane

> <PUBCHEM_IUPAC_INCHI>
InChI=1S/C18H26OSi2/c1-20(2,15-17-11-7-5-8-12-17)19-21(3,4)16-18-13-9-6-10-14-18/h5-14H,15-16H2,1-4H3

> <PUBCHEM_IUPAC_INCHIKEY>
JOZICAJUSHUZLD-UHFFFAOYSA-N

> <PUBCHEM_EXACT_MASS>
314.152219

> <PUBCHEM_MOLECULAR_FORMULA>
C18H26OSi2

> <PUBCHEM_MOLECULAR_WEIGHT>
314.56944

> <PUBCHEM_OPENEYE_CAN_SMILES>
C[Si](C)(CC1=CC=CC=C1)O[Si](C)(C)CC2=CC=CC=C2

> <PUBCHEM_OPENEYE_ISO_SMILES>
C[Si](C)(CC1=CC=CC=C1)O[Si](C)(C)CC2=CC=CC=C2

> <PUBCHEM_CACTVS_TPSA>
9.2

> <PUBCHEM_MONOISOTOPIC_WEIGHT>
314.152219

> <PUBCHEM_TOTAL_CHARGE>
0

> <PUBCHEM_HEAVY_ATOM_COUNT>
21

> <PUBCHEM_ATOM_DEF_STEREO_COUNT>
0

> <PUBCHEM_ATOM_UDEF_STEREO_COUNT>
0

> <PUBCHEM_BOND_DEF_STEREO_COUNT>
0

> <PUBCHEM_BOND_UDEF_STEREO_COUNT>
0

> <PUBCHEM_ISOTOPIC_ATOM_COUNT>
0

> <PUBCHEM_COMPONENT_COUNT>
1

> <PUBCHEM_CACTVS_TAUTO_COUNT>
1

> <PUBCHEM_COORDINATE_TYPE>
1
5
255

> <PUBCHEM_BONDANNOTATIONS>
10  13  8
10  15  8
11  12  8
11  14  8
12  17  8
13  16  8
14  19  8
15  18  8
16  20  8
17  21  8
18  20  8
19  21  8

$$$$

