443220
  -OEChem-07051213013D

 29 29  0     0  0  0  0  0  0999 V2000
   -4.1851   -0.3801    0.1154 O   0  0  0  0  0  0  0  0  0  0  0  0
    0.1053   -2.3984   -0.3402 O   0  0  0  0  0  0  0  0  0  0  0  0
   -1.0916    3.4154   -0.3922 O   0  0  0  0  0  0  0  0  0  0  0  0
    0.8517    2.7182    0.5586 O   0  0  0  0  0  0  0  0  0  0  0  0
    2.1527   -1.9086    0.7438 O   0  0  0  0  0  0  0  0  0  0  0  0
    4.4240   -0.2223    0.9317 O   0  0  0  0  0  0  0  0  0  0  0  0
    1.3347    0.1033   -0.2059 N   0  0  0  0  0  0  0  0  0  0  0  0
   -0.0575   -0.0129   -0.1249 C   0  0  0  0  0  0  0  0  0  0  0  0
   -0.8511    1.1243    0.0258 C   0  0  0  0  0  0  0  0  0  0  0  0
   -0.6508   -1.2734   -0.1944 C   0  0  0  0  0  0  0  0  0  0  0  0
   -2.2380    1.0010    0.1069 C   0  0  0  0  0  0  0  0  0  0  0  0
   -2.8315   -0.2595    0.0374 C   0  0  0  0  0  0  0  0  0  0  0  0
   -2.0380   -1.3968   -0.1132 C   0  0  0  0  0  0  0  0  0  0  0  0
   -0.2642    2.4565    0.1032 C   0  0  0  0  0  0  0  0  0  0  0  0
    2.2839   -0.8215    0.2057 C   0  0  0  0  0  0  0  0  0  0  0  0
    3.6922   -0.3581   -0.0373 C   0  0  0  0  0  0  0  0  0  0  0  0
   -4.7250   -1.6984    0.0373 C   0  0  0  0  0  0  0  0  0  0  0  0
    4.0882   -0.0886   -1.4577 C   0  0  0  0  0  0  0  0  0  0  0  0
   -2.8791    1.8694    0.2379 H   0  0  0  0  0  0  0  0  0  0  0  0
   -2.4399   -2.4029   -0.1734 H   0  0  0  0  0  0  0  0  0  0  0  0
    1.6877    1.0280   -0.4403 H   0  0  0  0  0  0  0  0  0  0  0  0
    0.8293   -2.1974   -0.9567 H   0  0  0  0  0  0  0  0  0  0  0  0
   -5.8132   -1.6069    0.1166 H   0  0  0  0  0  0  0  0  0  0  0  0
   -4.3949   -2.3192    0.8772 H   0  0  0  0  0  0  0  0  0  0  0  0
   -4.5136   -2.1634   -0.9316 H   0  0  0  0  0  0  0  0  0  0  0  0
    5.1772   -0.0110   -1.5206 H   0  0  0  0  0  0  0  0  0  0  0  0
    3.6434    0.8486   -1.7998 H   0  0  0  0  0  0  0  0  0  0  0  0
    3.7657   -0.9157   -2.0956 H   0  0  0  0  0  0  0  0  0  0  0  0
   -0.6898    4.3086   -0.3370 H   0  0  0  0  0  0  0  0  0  0  0  0
  1 12  1  0  0  0  0
  1 17  1  0  0  0  0
  2 10  1  0  0  0  0
  2 22  1  0  0  0  0
  3 14  1  0  0  0  0
  3 29  1  0  0  0  0
  4 14  2  0  0  0  0
  5 15  2  0  0  0  0
  6 16  2  0  0  0  0
  7  8  1  0  0  0  0
  7 15  1  0  0  0  0
  7 21  1  0  0  0  0
  8  9  2  0  0  0  0
  8 10  1  0  0  0  0
  9 11  1  0  0  0  0
  9 14  1  0  0  0  0
 10 13  2  0  0  0  0
 11 12  2  0  0  0  0
 11 19  1  0  0  0  0
 12 13  1  0  0  0  0
 13 20  1  0  0  0  0
 15 16  1  0  0  0  0
 16 18  1  0  0  0  0
 17 23  1  0  0  0  0
 17 24  1  0  0  0  0
 17 25  1  0  0  0  0
 18 26  1  0  0  0  0
 18 27  1  0  0  0  0
 18 28  1  0  0  0  0
M  END
> <PUBCHEM_COMPOUND_CID>
443220

> <PUBCHEM_CONFORMER_RMSD>
0.6

> <PUBCHEM_CONFORMER_DIVERSEORDER>
1
28
14
30
22
10
19
24
5
13
27
12
21
25
2
11
26
17
3
31
18
23
8
7
6
16
29
20
15
4
9

> <PUBCHEM_MMFF94_PARTIAL_CHARGES>
23
1 -0.36
10 0.08
11 -0.15
12 0.08
13 -0.15
14 0.63
15 0.63
16 0.51
17 0.28
18 0.06
19 0.15
2 -0.53
20 0.15
21 0.37
22 0.45
29 0.5
3 -0.65
4 -0.57
5 -0.57
6 -0.57
7 -0.55
8 0.12
9 0.09

> <PUBCHEM_EFFECTIVE_ROTOR_COUNT>
5

> <PUBCHEM_PHARMACOPHORE_FEATURES>
9
1 1 acceptor
1 2 donor
1 3 acceptor
1 4 acceptor
1 5 acceptor
1 6 acceptor
1 7 donor
3 3 4 14 anion
6 8 9 10 11 12 13 rings

> <PUBCHEM_HEAVY_ATOM_COUNT>
18

> <PUBCHEM_ATOM_DEF_STEREO_COUNT>
0

> <PUBCHEM_ATOM_UDEF_STEREO_COUNT>
0

> <PUBCHEM_BOND_DEF_STEREO_COUNT>
0

> <PUBCHEM_BOND_UDEF_STEREO_COUNT>
0

> <PUBCHEM_ISOTOPIC_ATOM_COUNT>
0

> <PUBCHEM_COMPONENT_COUNT>
1

> <PUBCHEM_CACTVS_TAUTO_COUNT>
22

> <PUBCHEM_CONFORMER_ID>
0006C35400000001

> <PUBCHEM_MMFF94_ENERGY>
68.3396

> <PUBCHEM_FEATURE_SELFOVERLAP>
45.734

> <PUBCHEM_SHAPE_FINGERPRINT>
10498660 4 18339077198216030140
10967382 1 18194121819842106521
10989021 7 18336544915362833649
11132069 177 18261392277680926408
11578080 2 17630075730917363148
11680986 33 18050846620274617539
12236239 1 17989487429278778102
12553582 1 18409737235528811567
13140716 1 18193842539525197122
13862211 1 18409733928594066543
14252887 29 18113609084481880430
14787075 74 18059851727616950579
14790565 3 18337656568979628705
15375462 189 18272651250900596811
15536298 74 18116152173203729145
16945 1 18410300241126455303
18222031 100 18187651271565084111
193761 8 17761213215556631087
200 152 18060142045915304258
20028762 73 17897442796960821575
20510252 161 18262520415360727984
20671657 1 18121212074650010749
20871998 184 18188495786309376941
21029758 11 18409173195001505749
21029758 27 18340761559956652405
21267235 1 18411410705084801610
21296965 67 18410013234511546153
221490 88 18053097325157063435
22182313 1 18196396769920336301
2297311 6 18334284397424654462
2334 1 18049725109428673308
23366157 5 17769100046690570485
23402539 116 18261120668423800295
23419403 2 14933031973461341783
23532345 42 18335427837212958457
23557571 272 18187076291608421420
23558518 356 17983572193675143098
23559900 14 18192153917899527910
2748010 2 18337969891259814269
352729 6 17688881147285651601
43471831 8 18268993248819678762
537710 114 18343295951153715342
68521 5 18411979195588109557
7097593 13 17337323316743465266
7364860 26 18045782290938982841
81228 2 18265596844537162688

> <PUBCHEM_SHAPE_MULTIPOLES>
330.23
7.36
2.83
0.81
0.94
2.37
-0.11
-3.69
-0.21
-0.98
0.06
0.75
-0.04
-0.1

> <PUBCHEM_SHAPE_SELFOVERLAP>
697.52

> <PUBCHEM_SHAPE_VOLUME>
182.7

> <PUBCHEM_COORDINATE_TYPE>
2
5
10

$$$$

