17396282
  -OEChem-06241222552D

 43 45  0     1  0  0  0  0  0999 V2000
    4.2320    0.9923    0.0000 S   0  0  0  0  0  0  0  0  0  0  0  0
    2.0000   -1.5466    0.0000 F   0  0  0  0  0  0  0  0  0  0  0  0
    4.0455    2.8194    0.0000 O   0  0  0  0  0  0  0  0  0  0  0  0
    5.4641   -4.5466    0.0000 O   0  0  0  0  0  0  0  0  0  0  0  0
    2.6443    1.8013    0.0000 N   0  0  0  0  0  0  0  0  0  0  0  0
    2.9230    0.0412    0.0000 N   0  0  0  0  0  0  0  0  0  0  0  0
    3.7320   -4.5466    0.0000 N   0  0  0  0  0  0  0  0  0  0  0  0
    2.8699    4.4374    0.0000 C   0  0  3  0  0  0  0  0  0  0  0  0
    3.8481    4.6453    0.0000 C   0  0  0  0  0  0  0  0  0  0  0  0
    3.9526    5.6398    0.0000 C   0  0  0  0  0  0  0  0  0  0  0  0
    2.4632    3.5238    0.0000 C   0  0  0  0  0  0  0  0  0  0  0  0
    2.3699    5.3034    0.0000 C   0  0  0  0  0  0  0  0  0  0  0  0
    3.0391    6.0466    0.0000 C   0  0  0  0  0  0  0  0  0  0  0  0
    3.0510    2.7148    0.0000 C   0  0  0  0  0  0  0  0  0  0  0  0
    3.2320    0.9923    0.0000 C   0  0  0  0  0  0  0  0  0  0  0  0
    3.7320   -0.5466    0.0000 C   0  0  0  0  0  0  0  0  0  0  0  0
    3.7320   -1.5466    0.0000 C   0  0  0  0  0  0  0  0  0  0  0  0
    4.5411    0.0412    0.0000 C   0  0  0  0  0  0  0  0  0  0  0  0
    2.8660   -2.0466    0.0000 C   0  0  0  0  0  0  0  0  0  0  0  0
    4.5981   -2.0466    0.0000 C   0  0  0  0  0  0  0  0  0  0  0  0
    3.7320   -3.5466    0.0000 C   0  0  0  0  0  0  0  0  0  0  0  0
    2.8660   -3.0466    0.0000 C   0  0  0  0  0  0  0  0  0  0  0  0
    4.5981   -3.0466    0.0000 C   0  0  0  0  0  0  0  0  0  0  0  0
    4.5981   -5.0466    0.0000 C   0  0  0  0  0  0  0  0  0  0  0  0
    4.5981   -6.0466    0.0000 C   0  0  0  0  0  0  0  0  0  0  0  0
    2.2508    4.4050    0.0000 H   0  0  0  0  0  0  0  0  0  0  0  0
    3.9129    4.0287    0.0000 H   0  0  0  0  0  0  0  0  0  0  0  0
    4.4681    4.6453    0.0000 H   0  0  0  0  0  0  0  0  0  0  0  0
    4.5591    5.5109    0.0000 H   0  0  0  0  0  0  0  0  0  0  0  0
    4.1442    6.2295    0.0000 H   0  0  0  0  0  0  0  0  0  0  0  0
    1.9492    3.8706    0.0000 H   0  0  0  0  0  0  0  0  0  0  0  0
    2.0325    3.0779    0.0000 H   0  0  0  0  0  0  0  0  0  0  0  0
    1.7534    5.3682    0.0000 H   0  0  0  0  0  0  0  0  0  0  0  0
    2.9102    6.6530    0.0000 H   0  0  0  0  0  0  0  0  0  0  0  0
    2.0277    1.7365    0.0000 H   0  0  0  0  0  0  0  0  0  0  0  0
    5.1307   -0.1504    0.0000 H   0  0  0  0  0  0  0  0  0  0  0  0
    5.1350   -1.7366    0.0000 H   0  0  0  0  0  0  0  0  0  0  0  0
    2.3291   -3.3566    0.0000 H   0  0  0  0  0  0  0  0  0  0  0  0
    5.1350   -3.3566    0.0000 H   0  0  0  0  0  0  0  0  0  0  0  0
    3.1951   -4.8566    0.0000 H   0  0  0  0  0  0  0  0  0  0  0  0
    3.9781   -6.0466    0.0000 H   0  0  0  0  0  0  0  0  0  0  0  0
    4.5981   -6.6666    0.0000 H   0  0  0  0  0  0  0  0  0  0  0  0
    5.2181   -6.0466    0.0000 H   0  0  0  0  0  0  0  0  0  0  0  0
  1 15  1  0  0  0  0
  1 18  1  0  0  0  0
  2 19  1  0  0  0  0
  3 14  2  0  0  0  0
  4 24  2  0  0  0  0
  5 14  1  0  0  0  0
  5 15  1  0  0  0  0
  5 35  1  0  0  0  0
  6 15  2  0  0  0  0
  6 16  1  0  0  0  0
  7 21  1  0  0  0  0
  7 24  1  0  0  0  0
  7 40  1  0  0  0  0
  8  9  1  0  0  0  0
  8 11  1  0  0  0  0
  8 12  1  0  0  0  0
  8 26  1  0  0  0  0
  9 10  1  0  0  0  0
  9 27  1  0  0  0  0
  9 28  1  0  0  0  0
 10 13  1  0  0  0  0
 10 29  1  0  0  0  0
 10 30  1  0  0  0  0
 11 14  1  0  0  0  0
 11 31  1  0  0  0  0
 11 32  1  0  0  0  0
 12 13  2  0  0  0  0
 12 33  1  0  0  0  0
 13 34  1  0  0  0  0
 16 17  1  0  0  0  0
 16 18  2  0  0  0  0
 17 19  2  0  0  0  0
 17 20  1  0  0  0  0
 18 36  1  0  0  0  0
 19 22  1  0  0  0  0
 20 23  2  0  0  0  0
 20 37  1  0  0  0  0
 21 22  2  0  0  0  0
 21 23  1  0  0  0  0
 22 38  1  0  0  0  0
 23 39  1  0  0  0  0
 24 25  1  0  0  0  0
 25 41  1  0  0  0  0
 25 42  1  0  0  0  0
 25 43  1  0  0  0  0
M  END
> <PUBCHEM_COMPOUND_CID>
17396282

> <PUBCHEM_COMPOUND_CANONICALIZED>
1

> <PUBCHEM_CACTVS_COMPLEXITY>
531

> <PUBCHEM_CACTVS_HBOND_ACCEPTOR>
5

> <PUBCHEM_CACTVS_HBOND_DONOR>
2

> <PUBCHEM_CACTVS_ROTATABLE_BOND>
5

> <PUBCHEM_CACTVS_SUBSKEYS>
AAADceB7MQBAAAAAAAAAAAAAAAAAAWIAAAAwAAAAAAAAAAABwAAAHwQQAAAADQiF3giz0ZLIEAisAyVydACC8KlhCjkJiDUwZJiIILLgmZGEIAholQLIyCcYiIAOCAAAAAAAAAAQAAAAAAAAAAAAAAAAAA==

> <PUBCHEM_IUPAC_OPENEYE_NAME>
N-[4-(4-acetamido-2-fluoro-phenyl)thiazol-2-yl]-2-cyclopent-2-en-1-yl-acetamide

> <PUBCHEM_IUPAC_CAS_NAME>
N-[4-(4-acetamido-2-fluorophenyl)-2-thiazolyl]-2-(1-cyclopent-2-enyl)acetamide

> <PUBCHEM_IUPAC_NAME>
N-[4-(4-acetamido-2-fluorophenyl)-1,3-thiazol-2-yl]-2-cyclopent-2-en-1-ylacetamide

> <PUBCHEM_IUPAC_SYSTEMATIC_NAME>
N-[4-(4-acetamido-2-fluoranyl-phenyl)-1,3-thiazol-2-yl]-2-cyclopent-2-en-1-yl-ethanamide

> <PUBCHEM_IUPAC_TRADITIONAL_NAME>
N-[4-(4-acetamido-2-fluoro-phenyl)thiazol-2-yl]-2-cyclopent-2-en-1-yl-acetamide

> <PUBCHEM_IUPAC_INCHI>
InChI=1S/C18H18FN3O2S/c1-11(23)20-13-6-7-14(15(19)9-13)16-10-25-18(21-16)22-17(24)8-12-4-2-3-5-12/h2,4,6-7,9-10,12H,3,5,8H2,1H3,(H,20,23)(H,21,22,24)

> <PUBCHEM_IUPAC_INCHIKEY>
LDQCJMRSYVNVGC-UHFFFAOYSA-N

> <PUBCHEM_XLOGP3_AA>
2.8

> <PUBCHEM_EXACT_MASS>
359.110376

> <PUBCHEM_MOLECULAR_FORMULA>
C18H18FN3O2S

> <PUBCHEM_MOLECULAR_WEIGHT>
359.417823

> <PUBCHEM_OPENEYE_CAN_SMILES>
CC(=O)NC1=CC(=C(C=C1)C2=CSC(=N2)NC(=O)CC3CCC=C3)F

> <PUBCHEM_OPENEYE_ISO_SMILES>
CC(=O)NC1=CC(=C(C=C1)C2=CSC(=N2)NC(=O)CC3CCC=C3)F

> <PUBCHEM_CACTVS_TPSA>
99.3

> <PUBCHEM_MONOISOTOPIC_WEIGHT>
359.110376

> <PUBCHEM_TOTAL_CHARGE>
0

> <PUBCHEM_HEAVY_ATOM_COUNT>
25

> <PUBCHEM_ATOM_DEF_STEREO_COUNT>
0

> <PUBCHEM_ATOM_UDEF_STEREO_COUNT>
1

> <PUBCHEM_BOND_DEF_STEREO_COUNT>
0

> <PUBCHEM_BOND_UDEF_STEREO_COUNT>
0

> <PUBCHEM_ISOTOPIC_ATOM_COUNT>
0

> <PUBCHEM_COMPONENT_COUNT>
1

> <PUBCHEM_CACTVS_TAUTO_COUNT>
15

> <PUBCHEM_COORDINATE_TYPE>
1
5
255

> <PUBCHEM_BONDANNOTATIONS>
1  15  8
1  18  8
16  18  8
17  19  8
17  20  8
19  22  8
20  23  8
21  22  8
21  23  8
6  15  8
6  16  8
8  11  3

$$$$

