5281157
  -OEChem-07051212553D

 35 36  0     0  0  0  0  0  0999 V2000
   -6.6424    1.0100    0.0016 O   0  0  0  0  0  0  0  0  0  0  0  0
   -3.8910   -3.0524    0.4282 O   0  0  0  0  0  0  0  0  0  0  0  0
   -0.2861    2.1894    0.1290 O   0  0  0  0  0  0  0  0  0  0  0  0
    7.5246   -0.9767   -0.0328 O   0  0  0  0  0  0  0  0  0  0  0  0
   -1.9566   -2.5646   -0.6611 O   0  0  0  0  0  0  0  0  0  0  0  0
   -1.1826    0.0233   -0.0031 N   0  0  0  0  0  0  0  0  0  0  0  0
   -2.5797    0.2574   -0.0033 C   0  0  0  0  0  0  0  0  0  0  0  0
   -3.4664   -0.8048   -0.0715 C   0  0  0  0  0  0  0  0  0  0  0  0
   -3.0271    1.5669    0.0664 C   0  0  0  0  0  0  0  0  0  0  0  0
   -4.8379   -0.5510   -0.0702 C   0  0  0  0  0  0  0  0  0  0  0  0
   -5.3042    0.7618   -0.0005 C   0  0  0  0  0  0  0  0  0  0  0  0
   -4.3986    1.8208    0.0679 C   0  0  0  0  0  0  0  0  0  0  0  0
    3.6591    0.5327    0.0477 C   0  0  0  0  0  0  0  0  0  0  0  0
   -0.1697    0.9714    0.0600 C   0  0  0  0  0  0  0  0  0  0  0  0
    2.3047    1.0624    0.0753 C   0  0  0  0  0  0  0  0  0  0  0  0
    1.1755    0.3194    0.0360 C   0  0  0  0  0  0  0  0  0  0  0  0
    3.8954   -0.7981    0.3914 C   0  0  0  0  0  0  0  0  0  0  0  0
    4.7218    1.3568   -0.3230 C   0  0  0  0  0  0  0  0  0  0  0  0
   -3.0119   -2.1878   -0.1456 C   0  0  0  0  0  0  0  0  0  0  0  0
    5.1945   -1.3053    0.3644 C   0  0  0  0  0  0  0  0  0  0  0  0
    6.0210    0.8498   -0.3500 C   0  0  0  0  0  0  0  0  0  0  0  0
    6.2574   -0.4814   -0.0064 C   0  0  0  0  0  0  0  0  0  0  0  0
   -2.4001    2.4433    0.1216 H   0  0  0  0  0  0  0  0  0  0  0  0
   -5.5649   -1.3571   -0.1360 H   0  0  0  0  0  0  0  0  0  0  0  0
   -0.9059   -0.9536   -0.0527 H   0  0  0  0  0  0  0  0  0  0  0  0
   -4.7506    2.8477    0.1226 H   0  0  0  0  0  0  0  0  0  0  0  0
    2.2294    2.1467    0.1210 H   0  0  0  0  0  0  0  0  0  0  0  0
    1.1995   -0.7621   -0.0372 H   0  0  0  0  0  0  0  0  0  0  0  0
    3.1032   -1.4710    0.7061 H   0  0  0  0  0  0  0  0  0  0  0  0
    4.5569    2.3965   -0.5956 H   0  0  0  0  0  0  0  0  0  0  0  0
    5.3665   -2.3428    0.6386 H   0  0  0  0  0  0  0  0  0  0  0  0
    6.8449    1.4962   -0.6400 H   0  0  0  0  0  0  0  0  0  0  0  0
   -6.7846    1.9707    0.0545 H   0  0  0  0  0  0  0  0  0  0  0  0
   -3.5780   -3.9807    0.3746 H   0  0  0  0  0  0  0  0  0  0  0  0
    7.5030   -1.9121    0.2330 H   0  0  0  0  0  0  0  0  0  0  0  0
  1 11  1  0  0  0  0
  1 33  1  0  0  0  0
  2 19  1  0  0  0  0
  2 34  1  0  0  0  0
  3 14  2  0  0  0  0
  4 22  1  0  0  0  0
  4 35  1  0  0  0  0
  5 19  2  0  0  0  0
  6  7  1  0  0  0  0
  6 14  1  0  0  0  0
  6 25  1  0  0  0  0
  7  8  2  0  0  0  0
  7  9  1  0  0  0  0
  8 10  1  0  0  0  0
  8 19  1  0  0  0  0
  9 12  2  0  0  0  0
  9 23  1  0  0  0  0
 10 11  2  0  0  0  0
 10 24  1  0  0  0  0
 11 12  1  0  0  0  0
 12 26  1  0  0  0  0
 13 15  1  0  0  0  0
 13 17  2  0  0  0  0
 13 18  1  0  0  0  0
 14 16  1  0  0  0  0
 15 16  2  0  0  0  0
 15 27  1  0  0  0  0
 16 28  1  0  0  0  0
 17 20  1  0  0  0  0
 17 29  1  0  0  0  0
 18 21  2  0  0  0  0
 18 30  1  0  0  0  0
 20 22  2  0  0  0  0
 20 31  1  0  0  0  0
 21 22  1  0  0  0  0
 21 32  1  0  0  0  0
M  END
> <PUBCHEM_COMPOUND_CID>
5281157

> <PUBCHEM_CONFORMER_RMSD>
0.8

> <PUBCHEM_CONFORMER_DIVERSEORDER>
1
8
4
7
6
5
3
2

> <PUBCHEM_MMFF94_PARTIAL_CHARGES>
35
1 -0.53
10 -0.15
11 0.08
12 -0.15
13 0.03
14 0.62
15 -0.18
16 -0.14
17 -0.15
18 -0.15
19 0.63
2 -0.65
20 -0.15
21 -0.15
22 0.08
23 0.15
24 0.15
25 0.37
26 0.15
27 0.15
28 0.15
29 0.15
3 -0.57
30 0.15
31 0.15
32 0.15
33 0.45
34 0.5
35 0.45
4 -0.53
5 -0.57
6 -0.55
7 0.12
8 0.09
9 -0.15

> <PUBCHEM_EFFECTIVE_ROTOR_COUNT>
5

> <PUBCHEM_PHARMACOPHORE_FEATURES>
9
1 1 donor
1 2 acceptor
1 3 acceptor
1 4 donor
1 5 acceptor
1 6 donor
3 2 5 19 anion
6 13 17 18 20 21 22 rings
6 7 8 9 10 11 12 rings

> <PUBCHEM_HEAVY_ATOM_COUNT>
22

> <PUBCHEM_ATOM_DEF_STEREO_COUNT>
0

> <PUBCHEM_ATOM_UDEF_STEREO_COUNT>
0

> <PUBCHEM_BOND_DEF_STEREO_COUNT>
1

> <PUBCHEM_BOND_UDEF_STEREO_COUNT>
0

> <PUBCHEM_ISOTOPIC_ATOM_COUNT>
0

> <PUBCHEM_COMPONENT_COUNT>
1

> <PUBCHEM_CACTVS_TAUTO_COUNT>
16

> <PUBCHEM_CONFORMER_ID>
0050958500000001

> <PUBCHEM_MMFF94_ENERGY>
70.2779

> <PUBCHEM_FEATURE_SELFOVERLAP>
45.727

> <PUBCHEM_SHAPE_FINGERPRINT>
10299344 5 18343580755109829844
10411042 1 18050005486044568095
10595046 47 18342173311496633732
10835480 77 18335146336857561680
11045977 3 17967820418476150560
11315181 36 17458062655573363993
11524674 6 17458065966951016663
11796584 16 18334855022300257478
12107183 9 17691690408348532544
12236239 1 18202844340232802716
12516196 113 18040156214731205112
12616971 3 17418370264504489172
12788726 201 17750235983522608065
12916748 109 9727636120153797648
13167823 11 18412827954451264978
13288520 33 18409730660339920237
13533116 47 17386568093235829470
13914758 101 14779539128274582875
14251764 18 18334574638281929349
14341114 176 18409727339934743488
14420673 8 18410571803413982058
14617045 38 18411980294957351434
15042514 8 18340765919992263531
15183329 4 18412547630061540194
15196674 1 18411419475687367570
15250474 111 18270696306727280714
15537594 2 17917997195703743706
15849732 13 17775565351862252733
17492 89 18052256198513537627
17844677 252 18409724041637379912
17857418 61 18410577292872394090
19141452 34 18412545396784060853
19489759 90 17167861989144837105
20681677 155 18343023285265685793
21236236 1 18409167680290085887
21267235 1 18341327813019492801
220451 1 18201998841882424664
23035841 295 18412826897630860440
23402539 116 18409732854614443612
23536379 177 18413388761073814840
23559900 14 18262526887676600313
3004659 81 18343021108292331272
335352 9 18410295809543392301
3545911 37 18409730676960555249
4073 2 18131064888730605842
4214541 1 18410575080421112480
4325135 7 18272367586297628164
5104073 3 18261109625941453008
559249 180 18410576184575847759
6327066 14 17842004574806567309
7226269 152 17895191147391123281
7495541 125 18040999501938030912
999808 66 17917417702068970539

> <PUBCHEM_SHAPE_MULTIPOLES>
418.42
18.02
2.36
0.64
15.95
1.35
0.01
1.2
0.23
-2.57
0.01
0.08
0.05
-0.41

> <PUBCHEM_SHAPE_SELFOVERLAP>
903.449

> <PUBCHEM_SHAPE_VOLUME>
228.2

> <PUBCHEM_COORDINATE_TYPE>
2
5
10

$$$$

