11954110
  -OEChem-07051213063D

 63 66  0     1  0  0  0  0  0999 V2000
    6.4877    1.2684   -0.5022 O   0  0  0  0  0  0  0  0  0  0  0  0
   -4.5090   -0.2138    0.7733 O   0  0  0  0  0  0  0  0  0  0  0  0
   -3.3875    0.2922   -2.2327 O   0  0  0  0  0  0  0  0  0  0  0  0
   -5.3399    1.4280   -0.6235 O   0  0  0  0  0  0  0  0  0  0  0  0
    1.1558    0.3767   -0.1349 C   0  0  1  0  0  0  0  0  0  0  0  0
    2.0670   -0.7673    0.4183 C   0  0  2  0  0  0  0  0  0  0  0  0
   -0.2827    0.3435    0.5050 C   0  0  2  0  0  0  0  0  0  0  0  0
    3.4239   -0.6958   -0.2902 C   0  0  1  0  0  0  0  0  0  0  0  0
    4.1412    0.6497   -0.0663 C   0  0  2  0  0  0  0  0  0  0  0  0
   -0.8788   -1.0763    0.2436 C   0  0  1  0  0  0  0  0  0  0  0  0
    1.8552    1.7611   -0.0714 C   0  0  0  0  0  0  0  0  0  0  0  0
    1.4091   -2.1415    0.2330 C   0  0  0  0  0  0  0  0  0  0  0  0
    3.2729    1.7595   -0.6725 C   0  0  0  0  0  0  0  0  0  0  0  0
   -0.0003   -2.1949    0.8171 C   0  0  0  0  0  0  0  0  0  0  0  0
    4.4946   -1.7307    0.0461 C   0  0  0  0  0  0  0  0  0  0  0  0
    5.4492    0.3655   -0.8294 C   0  0  2  0  0  0  0  0  0  0  0  0
   -1.2119    1.3778   -0.1892 C   0  0  0  0  0  0  0  0  0  0  0  0
   -2.3322   -1.2139    0.7223 C   0  0  0  0  0  0  0  0  0  0  0  0
    5.8048   -1.0816   -0.4360 C   0  0  0  0  0  0  0  0  0  0  0  0
   -0.2209    0.6784    2.0172 C   0  0  0  0  0  0  0  0  0  0  0  0
   -3.2462   -0.1493    0.1124 C   0  0  2  0  0  0  0  0  0  0  0  0
   -2.6818    1.2665    0.2293 C   0  0  0  0  0  0  0  0  0  0  0  0
    4.4442    0.9827    1.4168 C   0  0  0  0  0  0  0  0  0  0  0  0
   -3.5739   -0.5020   -1.3121 C   0  0  0  0  0  0  0  0  0  0  0  0
   -4.1388   -1.8751   -1.5564 C   0  0  0  0  0  0  0  0  0  0  0  0
   -5.4685    0.6347    0.2993 C   0  0  0  0  0  0  0  0  0  0  0  0
   -6.7334    0.4572    1.0832 C   0  0  0  0  0  0  0  0  0  0  0  0
    1.0204    0.1711   -1.2090 H   0  0  0  0  0  0  0  0  0  0  0  0
    2.2234   -0.6267    1.4927 H   0  0  0  0  0  0  0  0  0  0  0  0
    3.2234   -0.8075   -1.3693 H   0  0  0  0  0  0  0  0  0  0  0  0
   -0.8960   -1.2294   -0.8465 H   0  0  0  0  0  0  0  0  0  0  0  0
    1.9075    2.1162    0.9622 H   0  0  0  0  0  0  0  0  0  0  0  0
    1.2647    2.5021   -0.6217 H   0  0  0  0  0  0  0  0  0  0  0  0
    2.0183   -2.9183    0.7095 H   0  0  0  0  0  0  0  0  0  0  0  0
    1.3630   -2.3895   -0.8353 H   0  0  0  0  0  0  0  0  0  0  0  0
    3.1901    1.6211   -1.7583 H   0  0  0  0  0  0  0  0  0  0  0  0
    3.7372    2.7415   -0.5219 H   0  0  0  0  0  0  0  0  0  0  0  0
   -0.4403   -3.1713    0.5800 H   0  0  0  0  0  0  0  0  0  0  0  0
    0.0446   -2.1337    1.9104 H   0  0  0  0  0  0  0  0  0  0  0  0
    4.3149   -2.6858   -0.4579 H   0  0  0  0  0  0  0  0  0  0  0  0
    4.5395   -1.9270    1.1232 H   0  0  0  0  0  0  0  0  0  0  0  0
    5.2901    0.4125   -1.9143 H   0  0  0  0  0  0  0  0  0  0  0  0
   -1.1376    1.2607   -1.2777 H   0  0  0  0  0  0  0  0  0  0  0  0
   -0.8772    2.3988    0.0310 H   0  0  0  0  0  0  0  0  0  0  0  0
   -2.6966   -2.2278    0.5202 H   0  0  0  0  0  0  0  0  0  0  0  0
   -2.3757   -1.1395    1.8167 H   0  0  0  0  0  0  0  0  0  0  0  0
    6.5700   -1.1194    0.3473 H   0  0  0  0  0  0  0  0  0  0  0  0
    6.2093   -1.6175   -1.3020 H   0  0  0  0  0  0  0  0  0  0  0  0
    0.1074    1.7100    2.1817 H   0  0  0  0  0  0  0  0  0  0  0  0
   -1.1944    0.5858    2.5064 H   0  0  0  0  0  0  0  0  0  0  0  0
    0.4648    0.0281    2.5657 H   0  0  0  0  0  0  0  0  0  0  0  0
   -2.7936    1.6145    1.2645 H   0  0  0  0  0  0  0  0  0  0  0  0
   -3.2175    2.0091   -0.3690 H   0  0  0  0  0  0  0  0  0  0  0  0
    4.9404    1.9566    1.5001 H   0  0  0  0  0  0  0  0  0  0  0  0
    3.5421    1.0345    2.0321 H   0  0  0  0  0  0  0  0  0  0  0  0
    5.1045    0.2455    1.8844 H   0  0  0  0  0  0  0  0  0  0  0  0
    6.1837    2.1613   -0.7382 H   0  0  0  0  0  0  0  0  0  0  0  0
   -3.3263   -2.6000   -1.6473 H   0  0  0  0  0  0  0  0  0  0  0  0
   -4.8276   -2.1772   -0.7646 H   0  0  0  0  0  0  0  0  0  0  0  0
   -4.7020   -1.8631   -2.4948 H   0  0  0  0  0  0  0  0  0  0  0  0
   -6.5532    0.6924    2.1351 H   0  0  0  0  0  0  0  0  0  0  0  0
   -7.0955   -0.5681    0.9737 H   0  0  0  0  0  0  0  0  0  0  0  0
   -7.4970    1.1396    0.6991 H   0  0  0  0  0  0  0  0  0  0  0  0
  1 16  1  0  0  0  0
  1 57  1  0  0  0  0
  2 21  1  0  0  0  0
  2 26  1  0  0  0  0
  3 24  2  0  0  0  0
  4 26  2  0  0  0  0
  5  6  1  0  0  0  0
  5  7  1  0  0  0  0
  5 11  1  0  0  0  0
  5 28  1  0  0  0  0
  6  8  1  0  0  0  0
  6 12  1  0  0  0  0
  6 29  1  0  0  0  0
  7 10  1  0  0  0  0
  7 17  1  0  0  0  0
  7 20  1  0  0  0  0
  8  9  1  0  0  0  0
  8 15  1  0  0  0  0
  8 30  1  0  0  0  0
  9 13  1  0  0  0  0
  9 16  1  0  0  0  0
  9 23  1  0  0  0  0
 10 14  1  0  0  0  0
 10 18  1  0  0  0  0
 10 31  1  0  0  0  0
 11 13  1  0  0  0  0
 11 32  1  0  0  0  0
 11 33  1  0  0  0  0
 12 14  1  0  0  0  0
 12 34  1  0  0  0  0
 12 35  1  0  0  0  0
 13 36  1  0  0  0  0
 13 37  1  0  0  0  0
 14 38  1  0  0  0  0
 14 39  1  0  0  0  0
 15 19  1  0  0  0  0
 15 40  1  0  0  0  0
 15 41  1  0  0  0  0
 16 19  1  0  0  0  0
 16 42  1  0  0  0  0
 17 22  1  0  0  0  0
 17 43  1  0  0  0  0
 17 44  1  0  0  0  0
 18 21  1  0  0  0  0
 18 45  1  0  0  0  0
 18 46  1  0  0  0  0
 19 47  1  0  0  0  0
 19 48  1  0  0  0  0
 20 49  1  0  0  0  0
 20 50  1  0  0  0  0
 20 51  1  0  0  0  0
 21 22  1  0  0  0  0
 21 24  1  0  0  0  0
 22 52  1  0  0  0  0
 22 53  1  0  0  0  0
 23 54  1  0  0  0  0
 23 55  1  0  0  0  0
 23 56  1  0  0  0  0
 24 25  1  0  0  0  0
 25 58  1  0  0  0  0
 25 59  1  0  0  0  0
 25 60  1  0  0  0  0
 26 27  1  0  0  0  0
 27 61  1  0  0  0  0
 27 62  1  0  0  0  0
 27 63  1  0  0  0  0
M  END
> <PUBCHEM_COMPOUND_CID>
11954110

> <PUBCHEM_CONFORMER_RMSD>
0.8

> <PUBCHEM_CONFORMER_DIVERSEORDER>
1
4
3
5
2

> <PUBCHEM_MMFF94_PARTIAL_CHARGES>
11
1 -0.68
16 0.28
2 -0.43
21 0.34
24 0.45
25 0.06
26 0.66
27 0.06
3 -0.57
4 -0.57
57 0.4

> <PUBCHEM_EFFECTIVE_ROTOR_COUNT>
5.2

> <PUBCHEM_PHARMACOPHORE_FEATURES>
8
1 1 acceptor
1 1 donor
1 3 acceptor
1 4 acceptor
5 8 9 15 16 19 rings
6 5 6 7 10 12 14 rings
6 5 6 8 9 11 13 rings
6 7 10 17 18 21 22 rings

> <PUBCHEM_HEAVY_ATOM_COUNT>
27

> <PUBCHEM_ATOM_DEF_STEREO_COUNT>
8

> <PUBCHEM_ATOM_UDEF_STEREO_COUNT>
0

> <PUBCHEM_BOND_DEF_STEREO_COUNT>
0

> <PUBCHEM_BOND_UDEF_STEREO_COUNT>
0

> <PUBCHEM_ISOTOPIC_ATOM_COUNT>
0

> <PUBCHEM_COMPONENT_COUNT>
1

> <PUBCHEM_CACTVS_TAUTO_COUNT>
2

> <PUBCHEM_CONFORMER_ID>
00B667BE00000001

> <PUBCHEM_MMFF94_ENERGY>
96.5211

> <PUBCHEM_FEATURE_SELFOVERLAP>
40.69

> <PUBCHEM_SHAPE_FINGERPRINT>
10 15 17561076982163717336
11315181 36 14634868634996909451
11578080 2 17460043872784816978
11796584 16 15864072065800150374
12011746 2 18410565198555757510
12166972 35 17060330834127122420
12236239 1 18113053843915179349
12403259 415 17917716802858337956
12592029 89 17988926695011459026
12616971 3 18407761430202368791
12788726 201 17313943159966914641
12916748 109 15626222429177235828
13224815 77 18260558804817269906
13402501 40 18201997741764284876
13533116 47 18041276668941159130
13583140 156 16343707590688934656
13914758 101 9295296032595198727
14790565 3 18339918315984771577
14840074 17 18408603673494797583
14955137 171 18130776825332487733
15183329 4 18409172116468732229
15196674 1 18412260610345516234
15788980 27 18187082840832199885
17349148 13 18335138696226091418
1813 80 5112009456405314338
18186145 218 18201444661656233282
18608769 82 18200867392577525947
19489759 90 14129054837999724387
200 152 17967812739079691818
20511986 3 17968391103312048790
21033648 144 18201162031686923780
21033648 29 17632307760584900477
21267235 1 18339632443072020722
221357 26 18411982489775323508
22393880 68 18340217370141006830
23402539 116 18334014977661579268
23557571 272 16343699980534393783
23559900 14 18334860464076627824
24771293 8 18262811644915829136
26918003 58 4967610576774959220
2838139 119 17918000447236618924
3004659 81 18113899373110946358
335352 9 18413665816734860830
34797466 226 15195271050295013334
350125 39 18341327872490184521
3545911 37 18343015596994624786
4073 2 17917138412798291538
5104073 3 18334018259085477587
542803 24 18060420213788101101
9996256 80 18341047437554851595

> <PUBCHEM_SHAPE_MULTIPOLES>
532.17
14.44
2.01
1.34
1.42
0.54
-0.1
-2.27
-1.77
-0.71
-0.05
0.98
-0.01
-0.56

> <PUBCHEM_SHAPE_SELFOVERLAP>
1133.054

> <PUBCHEM_SHAPE_VOLUME>
292.6

> <PUBCHEM_COORDINATE_TYPE>
2
5
10

$$$$

