185208
  -OEChem-07051212553D

 37 39  0     0  0  0  0  0  0999 V2000
   -0.7970   -0.5022   -1.0057 O   0  0  0  0  0  0  0  0  0  0  0  0
    4.2038    1.9398    0.1571 O   0  0  0  0  0  0  0  0  0  0  0  0
   -3.8974   -1.1859    1.5492 O   0  0  0  0  0  0  0  0  0  0  0  0
   -0.0127   -2.7775   -0.8611 C   0  0  0  0  0  0  0  0  0  0  0  0
    1.2102   -2.8413    0.0574 C   0  0  0  0  0  0  0  0  0  0  0  0
   -1.0138   -1.7482   -0.4397 C   0  0  0  0  0  0  0  0  0  0  0  0
    2.0108   -1.5621    0.0837 C   0  0  0  0  0  0  0  0  0  0  0  0
   -2.7394    0.3526    0.1780 C   0  0  0  0  0  0  0  0  0  0  0  0
   -1.6595    0.5171   -0.6885 C   0  0  0  0  0  0  0  0  0  0  0  0
   -2.0160   -2.0303    0.4057 C   0  0  0  0  0  0  0  0  0  0  0  0
   -2.9705   -0.9693    0.7810 C   0  0  0  0  0  0  0  0  0  0  0  0
    3.0426   -1.3874   -0.8248 C   0  0  0  0  0  0  0  0  0  0  0  0
    1.7000   -0.5857    1.0170 C   0  0  0  0  0  0  0  0  0  0  0  0
   -3.5852    1.4265    0.4649 C   0  0  0  0  0  0  0  0  0  0  0  0
   -1.4194    1.7603   -1.2745 C   0  0  0  0  0  0  0  0  0  0  0  0
    3.7828   -0.2053   -0.7995 C   0  0  0  0  0  0  0  0  0  0  0  0
    2.4402    0.5963    1.0419 C   0  0  0  0  0  0  0  0  0  0  0  0
    3.4816    0.7865    0.1339 C   0  0  0  0  0  0  0  0  0  0  0  0
   -3.3423    2.6686   -0.1225 C   0  0  0  0  0  0  0  0  0  0  0  0
   -2.2621    2.8353   -0.9905 C   0  0  0  0  0  0  0  0  0  0  0  0
    3.8432    2.9123    1.1369 C   0  0  0  0  0  0  0  0  0  0  0  0
    0.3001   -2.5808   -1.8948 H   0  0  0  0  0  0  0  0  0  0  0  0
   -0.4859   -3.7680   -0.8778 H   0  0  0  0  0  0  0  0  0  0  0  0
    0.9036   -3.1018    1.0795 H   0  0  0  0  0  0  0  0  0  0  0  0
    1.8586   -3.6656   -0.2678 H   0  0  0  0  0  0  0  0  0  0  0  0
   -2.1557   -3.0168    0.8321 H   0  0  0  0  0  0  0  0  0  0  0  0
    3.2831   -2.1529   -1.5568 H   0  0  0  0  0  0  0  0  0  0  0  0
    0.8955   -0.7252    1.7333 H   0  0  0  0  0  0  0  0  0  0  0  0
   -4.4310    1.3157    1.1376 H   0  0  0  0  0  0  0  0  0  0  0  0
   -0.5799    1.8990   -1.9502 H   0  0  0  0  0  0  0  0  0  0  0  0
    4.5924   -0.0625   -1.5101 H   0  0  0  0  0  0  0  0  0  0  0  0
    2.1533    1.3245    1.7930 H   0  0  0  0  0  0  0  0  0  0  0  0
   -3.9957    3.5083    0.0959 H   0  0  0  0  0  0  0  0  0  0  0  0
   -2.0768    3.8042   -1.4452 H   0  0  0  0  0  0  0  0  0  0  0  0
    2.8261    3.2861    0.9772 H   0  0  0  0  0  0  0  0  0  0  0  0
    4.5201    3.7638    1.0117 H   0  0  0  0  0  0  0  0  0  0  0  0
    3.9910    2.5329    2.1537 H   0  0  0  0  0  0  0  0  0  0  0  0
  1  6  1  0  0  0  0
  1  9  1  0  0  0  0
  2 18  1  0  0  0  0
  2 21  1  0  0  0  0
  3 11  2  0  0  0  0
  4  5  1  0  0  0  0
  4  6  1  0  0  0  0
  4 22  1  0  0  0  0
  4 23  1  0  0  0  0
  5  7  1  0  0  0  0
  5 24  1  0  0  0  0
  5 25  1  0  0  0  0
  6 10  2  0  0  0  0
  7 12  2  0  0  0  0
  7 13  1  0  0  0  0
  8  9  1  0  0  0  0
  8 11  1  0  0  0  0
  8 14  2  0  0  0  0
  9 15  2  0  0  0  0
 10 11  1  0  0  0  0
 10 26  1  0  0  0  0
 12 16  1  0  0  0  0
 12 27  1  0  0  0  0
 13 17  2  0  0  0  0
 13 28  1  0  0  0  0
 14 19  1  0  0  0  0
 14 29  1  0  0  0  0
 15 20  1  0  0  0  0
 15 30  1  0  0  0  0
 16 18  2  0  0  0  0
 16 31  1  0  0  0  0
 17 18  1  0  0  0  0
 17 32  1  0  0  0  0
 19 20  2  0  0  0  0
 19 33  1  0  0  0  0
 20 34  1  0  0  0  0
 21 35  1  0  0  0  0
 21 36  1  0  0  0  0
 21 37  1  0  0  0  0
M  END
> <PUBCHEM_COMPOUND_CID>
185208

> <PUBCHEM_CONFORMER_RMSD>
0.6

> <PUBCHEM_CONFORMER_DIVERSEORDER>
1
13
14
9
29
5
26
27
12
16
21
11
15
23
20
6
18
19
4
22
25
3
7
10
17
8
2
24
28

> <PUBCHEM_MMFF94_PARTIAL_CHARGES>
30
1 -0.16
10 -0.14
11 0.47
12 -0.15
13 -0.15
14 -0.15
15 -0.15
16 -0.15
17 -0.15
18 0.08
19 -0.15
2 -0.36
20 -0.15
21 0.28
26 0.15
27 0.15
28 0.15
29 0.15
3 -0.57
30 0.15
31 0.15
32 0.15
33 0.15
34 0.15
4 0.14
5 0.14
6 -0.06
7 -0.14
8 0.09
9 0.08

> <PUBCHEM_EFFECTIVE_ROTOR_COUNT>
4

> <PUBCHEM_PHARMACOPHORE_FEATURES>
6
1 1 acceptor
1 2 acceptor
1 3 acceptor
6 1 6 8 9 10 11 rings
6 7 12 13 16 17 18 rings
6 8 9 14 15 19 20 rings

> <PUBCHEM_HEAVY_ATOM_COUNT>
21

> <PUBCHEM_ATOM_DEF_STEREO_COUNT>
0

> <PUBCHEM_ATOM_UDEF_STEREO_COUNT>
0

> <PUBCHEM_BOND_DEF_STEREO_COUNT>
0

> <PUBCHEM_BOND_UDEF_STEREO_COUNT>
0

> <PUBCHEM_ISOTOPIC_ATOM_COUNT>
0

> <PUBCHEM_COMPONENT_COUNT>
1

> <PUBCHEM_CACTVS_TAUTO_COUNT>
3

> <PUBCHEM_CONFORMER_ID>
0002D37800000001

> <PUBCHEM_MMFF94_ENERGY>
62.557

> <PUBCHEM_FEATURE_SELFOVERLAP>
30.474

> <PUBCHEM_SHAPE_FINGERPRINT>
10165383 225 18042393651947133090
10366900 7 18341609382005689399
10498660 4 18339935809170069687
10608611 8 18340204223198712183
10670039 82 18199457776248753612
10871710 139 18193000309507911375
1100329 8 16103884717352125492
11221954 11 18339366395369742047
11715629 250 18410014299800481682
12173636 292 18409733923987265566
12363563 72 10952055580138089386
12403259 226 17336183140633972343
12633257 1 18055073434876584099
12769317 202 16329928863363381613
128993 33 18334300863775288146
13140716 1 18341338902171409394
14026960 21 18411416228380803511
14223421 5 18342173418490728519
14386348 128 18261115175054821650
15475509 84 14449923542475990409
15806764 133 18044916081945229934
18186145 218 18040426694776182566
18219364 16 18261109720314616979
18981168 100 18337126642950001466
21095088 737 18264791903331054085
21864079 5 18408612461024232486
23503958 25 18340759403677412916
23536364 44 17755835839825488454
23559900 14 17980201117110852407
238 59 17975442370302368325
27216 239 18412830157458115315
3187 122 17989204798729134949
350125 39 18411414046659022222
3524813 1 18335417950314326538
474 4 17903362850836507073
49207404 50 18340199803851158587
6287921 2 18268700615855335604
7097593 13 17414453988459280442
7808743 9 18194119621351841352
81228 2 17830754057459409558

> <PUBCHEM_SHAPE_MULTIPOLES>
414.56
7.77
3.71
1.21
2.37
0.71
0.06
4.73
1.42
0.17
-0.13
-0.15
0.13
1.76

> <PUBCHEM_SHAPE_SELFOVERLAP>
904.223

> <PUBCHEM_SHAPE_VOLUME>
224.9

> <PUBCHEM_COORDINATE_TYPE>
2
5
10

$$$$

