443389
  -OEChem-07051213023D

 38 40  0     0  0  0  0  0  0999 V2000
   -5.3780   -0.4695    0.2229 S   0  0  0  0  0  0  0  0  0  0  0  0
   -2.5223    2.9936    0.0162 F   0  0  0  0  0  0  0  0  0  0  0  0
   -4.2588    2.1718   -0.9905 F   0  0  0  0  0  0  0  0  0  0  0  0
   -4.1931    2.2335    1.1821 F   0  0  0  0  0  0  0  0  0  0  0  0
    1.4731    1.0805   -0.0216 O   0  0  0  0  0  0  0  0  0  0  0  0
    0.5558   -1.0489    0.0881 N   0  0  0  0  0  0  0  0  0  0  0  0
    2.8796   -0.7684    0.0182 N   0  0  0  0  0  0  0  0  0  0  0  0
    5.4800    1.8524   -0.1526 N   0  0  0  0  0  0  0  0  0  0  0  0
   -0.7607   -3.0965    0.1977 C   0  0  0  0  0  0  0  0  0  0  0  0
    0.6592   -2.5256    0.1454 C   0  0  0  0  0  0  0  0  0  0  0  0
   -1.5978   -1.8608    0.1751 C   0  0  0  0  0  0  0  0  0  0  0  0
   -0.8156   -0.7056    0.1106 C   0  0  0  0  0  0  0  0  0  0  0  0
   -1.4144    0.5460    0.0789 C   0  0  0  0  0  0  0  0  0  0  0  0
   -2.9831   -1.7960    0.2093 C   0  0  0  0  0  0  0  0  0  0  0  0
   -2.8110    0.6207    0.1134 C   0  0  0  0  0  0  0  0  0  0  0  0
   -3.5905   -0.5416    0.1782 C   0  0  0  0  0  0  0  0  0  0  0  0
    1.6278   -0.1398    0.0240 C   0  0  0  0  0  0  0  0  0  0  0  0
   -3.4342    1.9814    0.0787 C   0  0  0  0  0  0  0  0  0  0  0  0
    4.1599   -0.1625   -0.0371 C   0  0  0  0  0  0  0  0  0  0  0  0
   -5.8152   -1.4000   -1.2711 C   0  0  0  0  0  0  0  0  0  0  0  0
    5.3116   -0.9352   -0.0330 C   0  0  0  0  0  0  0  0  0  0  0  0
    4.2907    1.2120   -0.0972 C   0  0  0  0  0  0  0  0  0  0  0  0
    6.5537   -0.3128   -0.0888 C   0  0  0  0  0  0  0  0  0  0  0  0
    6.5834    1.0713   -0.1470 C   0  0  0  0  0  0  0  0  0  0  0  0
   -0.9216   -3.6705    1.1155 H   0  0  0  0  0  0  0  0  0  0  0  0
   -0.9633   -3.7295   -0.6717 H   0  0  0  0  0  0  0  0  0  0  0  0
    1.2345   -2.8070    1.0349 H   0  0  0  0  0  0  0  0  0  0  0  0
    1.1984   -2.8800   -0.7406 H   0  0  0  0  0  0  0  0  0  0  0  0
   -0.8255    1.4529    0.0292 H   0  0  0  0  0  0  0  0  0  0  0  0
   -3.5612   -2.7135    0.2677 H   0  0  0  0  0  0  0  0  0  0  0  0
    2.9034   -1.7821    0.0594 H   0  0  0  0  0  0  0  0  0  0  0  0
   -6.8960   -1.3415   -1.4248 H   0  0  0  0  0  0  0  0  0  0  0  0
   -5.5377   -2.4522   -1.1703 H   0  0  0  0  0  0  0  0  0  0  0  0
   -5.3154   -0.9735   -2.1452 H   0  0  0  0  0  0  0  0  0  0  0  0
    5.2581   -2.0194    0.0131 H   0  0  0  0  0  0  0  0  0  0  0  0
    3.4693    1.9122   -0.1068 H   0  0  0  0  0  0  0  0  0  0  0  0
    7.4696   -0.8926   -0.0871 H   0  0  0  0  0  0  0  0  0  0  0  0
    7.5270    1.6051   -0.1920 H   0  0  0  0  0  0  0  0  0  0  0  0
  1 16  1  0  0  0  0
  1 20  1  0  0  0  0
  2 18  1  0  0  0  0
  3 18  1  0  0  0  0
  4 18  1  0  0  0  0
  5 17  2  0  0  0  0
  6 10  1  0  0  0  0
  6 12  1  0  0  0  0
  6 17  1  0  0  0  0
  7 17  1  0  0  0  0
  7 19  1  0  0  0  0
  7 31  1  0  0  0  0
  8 22  1  0  0  0  0
  8 24  2  0  0  0  0
  9 10  1  0  0  0  0
  9 11  1  0  0  0  0
  9 25  1  0  0  0  0
  9 26  1  0  0  0  0
 10 27  1  0  0  0  0
 10 28  1  0  0  0  0
 11 12  1  0  0  0  0
 11 14  2  0  0  0  0
 12 13  2  0  0  0  0
 13 15  1  0  0  0  0
 13 29  1  0  0  0  0
 14 16  1  0  0  0  0
 14 30  1  0  0  0  0
 15 16  2  0  0  0  0
 15 18  1  0  0  0  0
 19 21  1  0  0  0  0
 19 22  2  0  0  0  0
 20 32  1  0  0  0  0
 20 33  1  0  0  0  0
 20 34  1  0  0  0  0
 21 23  2  0  0  0  0
 21 35  1  0  0  0  0
 22 36  1  0  0  0  0
 23 24  1  0  0  0  0
 23 37  1  0  0  0  0
 24 38  1  0  0  0  0
M  END
> <PUBCHEM_COMPOUND_CID>
443389

> <PUBCHEM_CONFORMER_RMSD>
0.8

> <PUBCHEM_CONFORMER_DIVERSEORDER>
1
12
39
15
29
19
33
20
38
28
16
34
21
35
31
25
37
36
22
9
18
2
26
24
8
32
5
30
4
27
17
11
23
6
40
14
10
13
7
3

> <PUBCHEM_MMFF94_PARTIAL_CHARGES>
31
1 -0.33
10 0.3
11 -0.14
12 0.12
13 -0.15
14 -0.15
15 -0.14
16 0.1
17 0.69
18 1.16
19 0.12
2 -0.34
20 0.23
21 -0.15
22 0.16
23 -0.15
24 0.16
29 0.15
3 -0.34
30 0.15
31 0.37
35 0.15
36 0.15
37 0.15
38 0.15
4 -0.34
5 -0.57
6 -0.48
7 -0.55
8 -0.62
9 0.14

> <PUBCHEM_EFFECTIVE_ROTOR_COUNT>
5.6

> <PUBCHEM_PHARMACOPHORE_FEATURES>
7
1 20 hydrophobe
1 5 acceptor
1 7 donor
1 8 acceptor
5 6 9 10 11 12 rings
6 11 12 13 14 15 16 rings
6 8 19 21 22 23 24 rings

> <PUBCHEM_HEAVY_ATOM_COUNT>
24

> <PUBCHEM_ATOM_DEF_STEREO_COUNT>
0

> <PUBCHEM_ATOM_UDEF_STEREO_COUNT>
0

> <PUBCHEM_BOND_DEF_STEREO_COUNT>
0

> <PUBCHEM_BOND_UDEF_STEREO_COUNT>
0

> <PUBCHEM_ISOTOPIC_ATOM_COUNT>
0

> <PUBCHEM_COMPONENT_COUNT>
1

> <PUBCHEM_CACTVS_TAUTO_COUNT>
2

> <PUBCHEM_CONFORMER_ID>
0006C3FD00000001

> <PUBCHEM_MMFF94_ENERGY>
72.641

> <PUBCHEM_FEATURE_SELFOVERLAP>
35.605

> <PUBCHEM_SHAPE_FINGERPRINT>
10050765 1 18194964269752264907
10411042 1 17834673795259770235
10595046 47 18340206285394878934
10670039 82 18411986875232188872
11315181 36 18060135401975125402
11578080 2 17058104435182665879
12107183 9 18054234499505831562
12236239 1 17846782888540390202
12390115 104 18262503892537267625
12403259 415 18113626668125171240
12596602 18 17131552730682180320
12916748 109 18411694374932024018
13140716 1 18123739865057346347
13540713 5 18193006039675103811
14251764 18 18343867710923726706
14251764 75 17757261961909986057
14508225 48 17829903035844633271
14790565 3 18412823620808034482
15042514 8 18196928864855330315
15131766 46 15695730101659355910
15183329 4 18412262840092867378
15196674 1 18411135857563933874
15537594 2 6555418608343900213
17844677 252 18339914923450841216
17980427 23 18131624604399560685
20281389 69 18342176657450107168
20645477 70 17023168467038721182
21033648 29 18187655682570246736
21236236 1 18409729569127842837
21267235 1 18412255112697765043
21279426 13 18264202685853626262
21315764 268 18340773658911706564
22122407 14 15554443007054060445
221357 26 18187931646776842416
23402539 116 18335705988143938615
23559900 14 18191312576154534504
283562 15 18410856573458706163
3004659 81 18413386554272871370
34797466 226 17676477303885094444
350125 39 18410572860239466793
3545911 37 18409444761694321394
4073 2 17987793005010095194
4214541 1 18411417306897603688
474229 33 18410855447639373019
5104073 3 18200306748736667411
5283173 99 18408321103702664608
54446538 1 18413108347117296544
559249 180 18412266164492772962
6327066 14 18199755911103048197
9981440 41 18272926142030501395
9996256 80 18333732411763298671

> <PUBCHEM_SHAPE_MULTIPOLES>
455.12
15.38
2.86
0.75
17.14
0.3
-0.07
4.2
-1.99
-2.54
0.14
-0.74
0.04
-0.49

> <PUBCHEM_SHAPE_SELFOVERLAP>
974.369

> <PUBCHEM_SHAPE_VOLUME>
256.8

> <PUBCHEM_COORDINATE_TYPE>
2
5
10

$$$$

