222757
  -OEChem-07051213033D

 56 60  0     1  0  0  0  0  0999 V2000
    7.3485    1.4017    0.5749 O   0  0  0  0  0  0  0  0  0  0  0  0
   -3.4231   -0.1741   -0.7459 O   0  0  0  0  0  0  0  0  0  0  0  0
   -3.4059    0.8128    1.3653 O   0  0  0  0  0  0  0  0  0  0  0  0
    5.0161    0.6819    0.2241 C   0  0  1  0  0  0  0  0  0  0  0  0
    4.4566   -0.7268   -0.0588 C   0  0  2  0  0  0  0  0  0  0  0  0
    2.9406   -0.7928    0.1236 C   0  0  1  0  0  0  0  0  0  0  0  0
    2.2731    0.1847   -0.8909 C   0  0  2  0  0  0  0  0  0  0  0  0
    6.5172    0.3981    0.0251 C   0  0  2  0  0  0  0  0  0  0  0  0
    4.4027    1.6520   -0.7929 C   0  0  0  0  0  0  0  0  0  0  0  0
    5.3509   -1.6385    0.7767 C   0  0  0  0  0  0  0  0  0  0  0  0
    2.8626    1.6153   -0.7636 C   0  0  0  0  0  0  0  0  0  0  0  0
    6.7335   -0.9639    0.7134 C   0  0  0  0  0  0  0  0  0  0  0  0
    2.3824   -2.1994   -0.1004 C   0  0  0  0  0  0  0  0  0  0  0  0
    4.7533    1.2100    1.6578 C   0  0  0  0  0  0  0  0  0  0  0  0
    0.7507    0.1033   -0.8176 C   0  0  0  0  0  0  0  0  0  0  0  0
    0.8944   -2.2254    0.2360 C   0  0  0  0  0  0  0  0  0  0  0  0
    0.1177   -1.0580   -0.3225 C   0  0  0  0  0  0  0  0  0  0  0  0
   -0.0582    1.1377   -1.3205 C   0  0  0  0  0  0  0  0  0  0  0  0
   -1.2861   -1.1321   -0.2929 C   0  0  0  0  0  0  0  0  0  0  0  0
   -1.4516    1.0471   -1.2937 C   0  0  0  0  0  0  0  0  0  0  0  0
   -2.0661   -0.0854   -0.7755 C   0  0  0  0  0  0  0  0  0  0  0  0
   -4.0080    0.3222    0.4220 C   0  0  0  0  0  0  0  0  0  0  0  0
   -5.4870    0.1916    0.3808 C   0  0  0  0  0  0  0  0  0  0  0  0
   -6.2568    1.1198    1.0512 C   0  0  0  0  0  0  0  0  0  0  0  0
   -6.0443   -0.8534   -0.3268 C   0  0  0  0  0  0  0  0  0  0  0  0
   -7.6457    0.9974    1.0124 C   0  0  0  0  0  0  0  0  0  0  0  0
   -7.4333   -0.9756   -0.3656 C   0  0  0  0  0  0  0  0  0  0  0  0
   -8.2339   -0.0502    0.3041 C   0  0  0  0  0  0  0  0  0  0  0  0
    4.6629   -0.9814   -1.1121 H   0  0  0  0  0  0  0  0  0  0  0  0
    2.6810   -0.4948    1.1477 H   0  0  0  0  0  0  0  0  0  0  0  0
    2.5271   -0.1639   -1.9041 H   0  0  0  0  0  0  0  0  0  0  0  0
    6.7547    0.3106   -1.0427 H   0  0  0  0  0  0  0  0  0  0  0  0
    4.7346    1.3902   -1.8062 H   0  0  0  0  0  0  0  0  0  0  0  0
    4.7504    2.6760   -0.6110 H   0  0  0  0  0  0  0  0  0  0  0  0
    5.3873   -2.6567    0.3762 H   0  0  0  0  0  0  0  0  0  0  0  0
    5.0034   -1.7022    1.8138 H   0  0  0  0  0  0  0  0  0  0  0  0
    2.4943    2.0876    0.1552 H   0  0  0  0  0  0  0  0  0  0  0  0
    2.5122    2.2441   -1.5903 H   0  0  0  0  0  0  0  0  0  0  0  0
    7.1601   -0.8560    1.7170 H   0  0  0  0  0  0  0  0  0  0  0  0
    7.4369   -1.5704    0.1321 H   0  0  0  0  0  0  0  0  0  0  0  0
    2.8987   -2.9363    0.5248 H   0  0  0  0  0  0  0  0  0  0  0  0
    2.5351   -2.5032   -1.1441 H   0  0  0  0  0  0  0  0  0  0  0  0
    5.1820    2.2110    1.7844 H   0  0  0  0  0  0  0  0  0  0  0  0
    3.6882    1.2925    1.8897 H   0  0  0  0  0  0  0  0  0  0  0  0
    5.1979    0.5710    2.4273 H   0  0  0  0  0  0  0  0  0  0  0  0
    0.7749   -2.2169    1.3270 H   0  0  0  0  0  0  0  0  0  0  0  0
    0.4686   -3.1660   -0.1339 H   0  0  0  0  0  0  0  0  0  0  0  0
    8.2687    1.1014    0.4826 H   0  0  0  0  0  0  0  0  0  0  0  0
    0.3780    2.0338   -1.7514 H   0  0  0  0  0  0  0  0  0  0  0  0
   -1.7718   -2.0192    0.1090 H   0  0  0  0  0  0  0  0  0  0  0  0
   -2.0490    1.8665   -1.6849 H   0  0  0  0  0  0  0  0  0  0  0  0
   -5.8104    1.9416    1.6031 H   0  0  0  0  0  0  0  0  0  0  0  0
   -5.4421   -1.5935   -0.8449 H   0  0  0  0  0  0  0  0  0  0  0  0
   -8.2692    1.7183    1.5332 H   0  0  0  0  0  0  0  0  0  0  0  0
   -7.8917   -1.7929   -0.9147 H   0  0  0  0  0  0  0  0  0  0  0  0
   -9.3154   -0.1458    0.2743 H   0  0  0  0  0  0  0  0  0  0  0  0
  1  8  1  0  0  0  0
  1 48  1  0  0  0  0
  2 21  1  0  0  0  0
  2 22  1  0  0  0  0
  3 22  2  0  0  0  0
  4  5  1  0  0  0  0
  4  8  1  0  0  0  0
  4  9  1  0  0  0  0
  4 14  1  0  0  0  0
  5  6  1  0  0  0  0
  5 10  1  0  0  0  0
  5 29  1  0  0  0  0
  6  7  1  0  0  0  0
  6 13  1  0  0  0  0
  6 30  1  0  0  0  0
  7 11  1  0  0  0  0
  7 15  1  0  0  0  0
  7 31  1  0  0  0  0
  8 12  1  0  0  0  0
  8 32  1  0  0  0  0
  9 11  1  0  0  0  0
  9 33  1  0  0  0  0
  9 34  1  0  0  0  0
 10 12  1  0  0  0  0
 10 35  1  0  0  0  0
 10 36  1  0  0  0  0
 11 37  1  0  0  0  0
 11 38  1  0  0  0  0
 12 39  1  0  0  0  0
 12 40  1  0  0  0  0
 13 16  1  0  0  0  0
 13 41  1  0  0  0  0
 13 42  1  0  0  0  0
 14 43  1  0  0  0  0
 14 44  1  0  0  0  0
 14 45  1  0  0  0  0
 15 17  2  0  0  0  0
 15 18  1  0  0  0  0
 16 17  1  0  0  0  0
 16 46  1  0  0  0  0
 16 47  1  0  0  0  0
 17 19  1  0  0  0  0
 18 20  2  0  0  0  0
 18 49  1  0  0  0  0
 19 21  2  0  0  0  0
 19 50  1  0  0  0  0
 20 21  1  0  0  0  0
 20 51  1  0  0  0  0
 22 23  1  0  0  0  0
 23 24  2  0  0  0  0
 23 25  1  0  0  0  0
 24 26  1  0  0  0  0
 24 52  1  0  0  0  0
 25 27  2  0  0  0  0
 25 53  1  0  0  0  0
 26 28  2  0  0  0  0
 26 54  1  0  0  0  0
 27 28  1  0  0  0  0
 27 55  1  0  0  0  0
 28 56  1  0  0  0  0
M  END
> <PUBCHEM_COMPOUND_CID>
222757

> <PUBCHEM_CONFORMER_RMSD>
0.8

> <PUBCHEM_CONFORMER_DIVERSEORDER>
1
14
6
21
3
22
18
19
7
9
11
20
16
15
4
5
13
8
12
2
17
10

> <PUBCHEM_MMFF94_PARTIAL_CHARGES>
28
1 -0.68
15 -0.14
16 0.14
17 -0.14
18 -0.15
19 -0.15
2 -0.23
20 -0.15
21 0.08
22 0.63
23 0.09
24 -0.15
25 -0.15
26 -0.15
27 -0.15
28 -0.15
3 -0.57
48 0.4
49 0.15
50 0.15
51 0.15
52 0.15
53 0.15
54 0.15
55 0.15
56 0.15
7 0.14
8 0.28

> <PUBCHEM_EFFECTIVE_ROTOR_COUNT>
4.4

> <PUBCHEM_PHARMACOPHORE_FEATURES>
8
1 1 acceptor
1 1 donor
1 3 acceptor
5 4 5 8 10 12 rings
6 15 17 18 19 20 21 rings
6 23 24 25 26 27 28 rings
6 4 5 6 7 9 11 rings
6 6 7 13 15 16 17 rings

> <PUBCHEM_HEAVY_ATOM_COUNT>
28

> <PUBCHEM_ATOM_DEF_STEREO_COUNT>
5

> <PUBCHEM_ATOM_UDEF_STEREO_COUNT>
0

> <PUBCHEM_BOND_DEF_STEREO_COUNT>
0

> <PUBCHEM_BOND_UDEF_STEREO_COUNT>
0

> <PUBCHEM_ISOTOPIC_ATOM_COUNT>
0

> <PUBCHEM_COMPONENT_COUNT>
1

> <PUBCHEM_CACTVS_TAUTO_COUNT>
1

> <PUBCHEM_CONFORMER_ID>
0003662500000001

> <PUBCHEM_MMFF94_ENERGY>
103.6381

> <PUBCHEM_FEATURE_SELFOVERLAP>
40.693

> <PUBCHEM_SHAPE_FINGERPRINT>
10 15 17775287140897084796
10162869 55 18340494374784632863
10165383 225 18409730643571143938
10299344 5 18410292510180021743
106641 1 18413107238899605339
10670039 82 14201388417919961539
11135609 127 5256101563638495986
11315181 36 18187365433787460139
11456790 92 18334020510207016450
11524674 6 16128651938897293035
11578080 2 17825401674395461720
11719270 70 18343865524068610835
11724838 91 18410013212804685831
11991303 11 14779557755506106901
12236239 1 18259703415415977495
12516196 113 18413669123875431477
12596602 18 18040714788365938499
13533116 47 18261674865497720122
13540713 4 17843131564721570623
13540713 5 17770210566250818694
13668630 136 12247680482515796785
13685833 64 17489869349226385868
13692114 37 18337395928937042499
13782708 43 16056881317167470643
14251764 18 18410292497411281533
14341114 176 18273217517380893814
14394314 77 18335134333041070177
14849402 71 18335421210132045241
15301273 46 17917995000874948981
15419008 145 18264776626454512504
15419008 47 16487263162128037005
15461852 350 17095533894689479413
15840311 113 18335137554445980668
15849732 13 14273459167337111041
20511986 3 18409174337974412023
21130935 74 18411699911134923507
21150785 3 9655575210379725893
21267235 1 18201720700175077134
21792934 111 18060425720021064917
22224240 67 18342459231247505075
23559900 14 13829836968725850853
23569917 315 18412819171107215907
23576562 1 5977801191984545337
24771293 8 18411416202690348789
3178227 256 18060700593890912792
335352 9 18342735209552326502
3383291 50 16702293552008669049
34797466 226 16153702098710774381
3663271 9 18261390083659767067
4073 2 18130219359451060011
4093350 32 17749384909925462566
4325135 7 18333450941730265423
4340502 62 18335138695693594998
465052 167 16988843886940306372
5104073 3 18199193897678668682
5385378 56 18410014368842322618
5758199 1 18409166606194847003

> <PUBCHEM_SHAPE_MULTIPOLES>
558.62
22.68
1.81
1.18
24.77
0.43
0.13
-2.5
7.69
-1.88
0
0.05
-0.4
-0.95

> <PUBCHEM_SHAPE_SELFOVERLAP>
1228.583

> <PUBCHEM_SHAPE_VOLUME>
298.3

> <PUBCHEM_COORDINATE_TYPE>
2
5
10

$$$$

