11244
  -OEChem-06261205262D

  9  8  0     0  0  0  0  0  0999 V2000
    2.0000    0.7500    0.0000 Cl  0  0  0  0  0  0  0  0  0  0  0  0
    2.8660   -0.7500    0.0000 Cl  0  0  0  0  0  0  0  0  0  0  0  0
    2.8660    0.2500    0.0000 C   0  0  0  0  0  0  0  0  0  0  0  0
    3.7320    0.7500    0.0000 C   0  0  0  0  0  0  0  0  0  0  0  0
    4.5981    0.2500    0.0000 C   0  0  0  0  0  0  0  0  0  0  0  0
    2.8660    0.8700    0.0000 H   0  0  0  0  0  0  0  0  0  0  0  0
    3.7320    1.3700    0.0000 H   0  0  0  0  0  0  0  0  0  0  0  0
    4.5981   -0.3700    0.0000 H   0  0  0  0  0  0  0  0  0  0  0  0
    5.1350    0.5600    0.0000 H   0  0  0  0  0  0  0  0  0  0  0  0
  1  3  1  0  0  0  0
  2  3  1  0  0  0  0
  3  4  1  0  0  0  0
  3  6  1  0  0  0  0
  4  5  2  0  0  0  0
  4  7  1  0  0  0  0
  5  8  1  0  0  0  0
  5  9  1  0  0  0  0
M  END
> <PUBCHEM_COMPOUND_CID>
11244

> <PUBCHEM_COMPOUND_CANONICALIZED>
1

> <PUBCHEM_CACTVS_COMPLEXITY>
31.9

> <PUBCHEM_CACTVS_HBOND_ACCEPTOR>
0

> <PUBCHEM_CACTVS_HBOND_DONOR>
0

> <PUBCHEM_CACTVS_ROTATABLE_BOND>
1

> <PUBCHEM_CACTVS_SUBSKEYS>
AAADcYBAAAAGAAAAAAAAAAAAAAAAAAAAAAAAAAAAAAAAAAAAAAAAGAIAAAAACAOAAMAAAAAAAACAACBCAAAAAAAAAAAIAAAAAAAAAAAAAQAAAAAAAAAAAAAAAAAAAAAAAAAAAAAAAAAAAAAAAAAAAAAAAA==

> <PUBCHEM_IUPAC_OPENEYE_NAME>
3,3-dichloroprop-1-ene

> <PUBCHEM_IUPAC_CAS_NAME>
3,3-dichloro-1-propene

> <PUBCHEM_IUPAC_NAME>
3,3-dichloroprop-1-ene

> <PUBCHEM_IUPAC_SYSTEMATIC_NAME>
3,3-bis(chloranyl)prop-1-ene

> <PUBCHEM_IUPAC_TRADITIONAL_NAME>
3,3-dichloroprop-1-ene

> <PUBCHEM_IUPAC_INCHI>
InChI=1S/C3H4Cl2/c1-2-3(4)5/h2-3H,1H2

> <PUBCHEM_IUPAC_INCHIKEY>
VRTNIWBNFSHDEB-UHFFFAOYSA-N

> <PUBCHEM_XLOGP3_AA>
2.2

> <PUBCHEM_EXACT_MASS>
109.969005

> <PUBCHEM_MOLECULAR_FORMULA>
C3H4Cl2

> <PUBCHEM_MOLECULAR_WEIGHT>
110.96986

> <PUBCHEM_OPENEYE_CAN_SMILES>
C=CC(Cl)Cl

> <PUBCHEM_OPENEYE_ISO_SMILES>
C=CC(Cl)Cl

> <PUBCHEM_CACTVS_TPSA>
0

> <PUBCHEM_MONOISOTOPIC_WEIGHT>
109.969005

> <PUBCHEM_TOTAL_CHARGE>
0

> <PUBCHEM_HEAVY_ATOM_COUNT>
5

> <PUBCHEM_ATOM_DEF_STEREO_COUNT>
0

> <PUBCHEM_ATOM_UDEF_STEREO_COUNT>
0

> <PUBCHEM_BOND_DEF_STEREO_COUNT>
0

> <PUBCHEM_BOND_UDEF_STEREO_COUNT>
0

> <PUBCHEM_ISOTOPIC_ATOM_COUNT>
0

> <PUBCHEM_COMPONENT_COUNT>
1

> <PUBCHEM_CACTVS_TAUTO_COUNT>
1

> <PUBCHEM_COORDINATE_TYPE>
1
5
255

$$$$

