5351579
  -OEChem-07051213093D

 55 58  0     1  0  0  0  0  0999 V2000
    5.0304   -1.4934   -0.4707 O   0  0  0  0  0  0  0  0  0  0  0  0
    3.9743   -1.8250    1.8272 O   0  0  0  0  0  0  0  0  0  0  0  0
    3.4474   -1.4341   -2.1382 O   0  0  0  0  0  0  0  0  0  0  0  0
   -0.5128    1.9488    0.0480 N   0  0  1  0  0  0  0  0  0  0  0  0
   -2.4724   -1.1741   -0.6099 N   0  0  0  0  0  0  0  0  0  0  0  0
   -0.6707    0.6448   -0.6530 C   0  0  1  0  0  0  0  0  0  0  0  0
    1.9502    1.6976    0.1285 C   0  0  2  0  0  0  0  0  0  0  0  0
    1.8300    0.2775   -0.4696 C   0  0  2  0  0  0  0  0  0  0  0  0
    0.4376   -0.3104   -0.1900 C   0  0  0  0  0  0  0  0  0  0  0  0
    0.7633    2.5783   -0.3092 C   0  0  0  0  0  0  0  0  0  0  0  0
   -2.0426    0.1033   -0.3873 C   0  0  0  0  0  0  0  0  0  0  0  0
   -1.6519    2.8555   -0.2132 C   0  0  0  0  0  0  0  0  0  0  0  0
   -3.1130    0.8469    0.0633 C   0  0  0  0  0  0  0  0  0  0  0  0
   -2.9657    2.2941    0.3799 C   0  0  0  0  0  0  0  0  0  0  0  0
    3.2663    2.3774   -0.2663 C   0  0  0  0  0  0  0  0  0  0  0  0
    2.8824   -0.6574    0.0478 C   0  0  0  0  0  0  0  0  0  0  0  0
   -4.2358   -0.0193    0.1496 C   0  0  0  0  0  0  0  0  0  0  0  0
   -3.8068   -1.2808   -0.2774 C   0  0  0  0  0  0  0  0  0  0  0  0
    3.4168    3.7185    0.4208 C   0  0  0  0  0  0  0  0  0  0  0  0
    3.7976   -1.2335   -0.9820 C   0  0  0  0  0  0  0  0  0  0  0  0
    3.0163   -0.9728    1.3444 C   0  0  0  0  0  0  0  0  0  0  0  0
   -5.5788    0.1415    0.5456 C   0  0  0  0  0  0  0  0  0  0  0  0
   -4.6597   -2.3894   -0.3266 C   0  0  0  0  0  0  0  0  0  0  0  0
   -6.4410   -0.9599    0.5020 C   0  0  0  0  0  0  0  0  0  0  0  0
   -5.9865   -2.2048    0.0724 C   0  0  0  0  0  0  0  0  0  0  0  0
    5.9797   -2.0492   -1.3871 C   0  0  0  0  0  0  0  0  0  0  0  0
    4.3456   -1.4799    3.1512 C   0  0  0  0  0  0  0  0  0  0  0  0
   -0.5844    0.7984   -1.7385 H   0  0  0  0  0  0  0  0  0  0  0  0
    1.9164    1.6261    1.2255 H   0  0  0  0  0  0  0  0  0  0  0  0
    1.9225    0.3800   -1.5597 H   0  0  0  0  0  0  0  0  0  0  0  0
    0.3048   -0.5251    0.8797 H   0  0  0  0  0  0  0  0  0  0  0  0
    0.3434   -1.2734   -0.7100 H   0  0  0  0  0  0  0  0  0  0  0  0
    0.8157    3.5408    0.2104 H   0  0  0  0  0  0  0  0  0  0  0  0
    0.8098    2.7839   -1.3869 H   0  0  0  0  0  0  0  0  0  0  0  0
   -1.7674    3.0166   -1.2937 H   0  0  0  0  0  0  0  0  0  0  0  0
   -1.4737    3.8368    0.2432 H   0  0  0  0  0  0  0  0  0  0  0  0
   -3.8163    2.8621   -0.0127 H   0  0  0  0  0  0  0  0  0  0  0  0
   -2.9567    2.4172    1.4700 H   0  0  0  0  0  0  0  0  0  0  0  0
    3.3277    2.5085   -1.3532 H   0  0  0  0  0  0  0  0  0  0  0  0
    4.1171    1.7524    0.0272 H   0  0  0  0  0  0  0  0  0  0  0  0
   -1.9045   -1.9320   -0.9631 H   0  0  0  0  0  0  0  0  0  0  0  0
    2.7507    4.4764   -0.0014 H   0  0  0  0  0  0  0  0  0  0  0  0
    3.2332    3.6456    1.4975 H   0  0  0  0  0  0  0  0  0  0  0  0
    4.4386    4.0895    0.2842 H   0  0  0  0  0  0  0  0  0  0  0  0
    2.3636   -0.5788    2.1124 H   0  0  0  0  0  0  0  0  0  0  0  0
   -5.9478    1.1062    0.8822 H   0  0  0  0  0  0  0  0  0  0  0  0
   -4.3079   -3.3593   -0.6620 H   0  0  0  0  0  0  0  0  0  0  0  0
   -7.4774   -0.8408    0.8067 H   0  0  0  0  0  0  0  0  0  0  0  0
   -6.6737   -3.0466    0.0459 H   0  0  0  0  0  0  0  0  0  0  0  0
    5.6232   -3.0128   -1.7632 H   0  0  0  0  0  0  0  0  0  0  0  0
    6.9182   -2.2075   -0.8494 H   0  0  0  0  0  0  0  0  0  0  0  0
    6.1604   -1.3540   -2.2126 H   0  0  0  0  0  0  0  0  0  0  0  0
    3.5107   -1.6288    3.8449 H   0  0  0  0  0  0  0  0  0  0  0  0
    4.7052   -0.4461    3.2045 H   0  0  0  0  0  0  0  0  0  0  0  0
    5.1624   -2.1396    3.4588 H   0  0  0  0  0  0  0  0  0  0  0  0
  1 20  1  0  0  0  0
  1 26  1  0  0  0  0
  2 21  1  0  0  0  0
  2 27  1  0  0  0  0
  3 20  2  0  0  0  0
  4  6  1  0  0  0  0
  4 10  1  0  0  0  0
  4 12  1  0  0  0  0
  5 11  1  0  0  0  0
  5 18  1  0  0  0  0
  5 41  1  0  0  0  0
  6  9  1  0  0  0  0
  6 11  1  0  0  0  0
  6 28  1  0  0  0  0
  7  8  1  0  0  0  0
  7 10  1  0  0  0  0
  7 15  1  0  0  0  0
  7 29  1  0  0  0  0
  8  9  1  0  0  0  0
  8 16  1  0  0  0  0
  8 30  1  0  0  0  0
  9 31  1  0  0  0  0
  9 32  1  0  0  0  0
 10 33  1  0  0  0  0
 10 34  1  0  0  0  0
 11 13  2  0  0  0  0
 12 14  1  0  0  0  0
 12 35  1  0  0  0  0
 12 36  1  0  0  0  0
 13 14  1  0  0  0  0
 13 17  1  0  0  0  0
 14 37  1  0  0  0  0
 14 38  1  0  0  0  0
 15 19  1  0  0  0  0
 15 39  1  0  0  0  0
 15 40  1  0  0  0  0
 16 20  1  0  0  0  0
 16 21  2  0  0  0  0
 17 18  1  0  0  0  0
 17 22  2  0  0  0  0
 18 23  2  0  0  0  0
 19 42  1  0  0  0  0
 19 43  1  0  0  0  0
 19 44  1  0  0  0  0
 21 45  1  0  0  0  0
 22 24  1  0  0  0  0
 22 46  1  0  0  0  0
 23 25  1  0  0  0  0
 23 47  1  0  0  0  0
 24 25  2  0  0  0  0
 24 48  1  0  0  0  0
 25 49  1  0  0  0  0
 26 50  1  0  0  0  0
 26 51  1  0  0  0  0
 26 52  1  0  0  0  0
 27 53  1  0  0  0  0
 27 54  1  0  0  0  0
 27 55  1  0  0  0  0
M  END
> <PUBCHEM_COMPOUND_CID>
5351579

> <PUBCHEM_CONFORMER_RMSD>
0.8

> <PUBCHEM_CONFORMER_DIVERSEORDER>
1
7
14
16
17
11
6
8
13
12
18
10
15
9
2
4
3
5

> <PUBCHEM_MMFF94_PARTIAL_CHARGES>
28
1 -0.43
10 0.27
11 -0.33
12 0.27
13 -0.18
14 0.18
16 -0.12
18 -0.15
2 -0.36
20 0.71
21 -0.07
22 -0.15
23 -0.15
24 -0.15
25 -0.15
26 0.28
27 0.28
3 -0.57
4 -0.81
41 0.27
45 0.15
46 0.15
47 0.15
48 0.15
49 0.15
5 0.03
6 0.45
8 0.14

> <PUBCHEM_EFFECTIVE_ROTOR_COUNT>
6.2

> <PUBCHEM_PHARMACOPHORE_FEATURES>
10
1 19 hydrophobe
1 2 acceptor
1 3 acceptor
1 4 cation
1 5 cation
1 5 donor
5 5 11 13 17 18 rings
6 17 18 22 23 24 25 rings
6 4 6 11 12 13 14 rings
6 4 6 7 8 9 10 rings

> <PUBCHEM_HEAVY_ATOM_COUNT>
27

> <PUBCHEM_ATOM_DEF_STEREO_COUNT>
3

> <PUBCHEM_ATOM_UDEF_STEREO_COUNT>
0

> <PUBCHEM_BOND_DEF_STEREO_COUNT>
1

> <PUBCHEM_BOND_UDEF_STEREO_COUNT>
0

> <PUBCHEM_ISOTOPIC_ATOM_COUNT>
0

> <PUBCHEM_COMPONENT_COUNT>
1

> <PUBCHEM_CACTVS_TAUTO_COUNT>
1

> <PUBCHEM_CONFORMER_ID>
0051A89B00000001

> <PUBCHEM_MMFF94_ENERGY>
62.5192

> <PUBCHEM_FEATURE_SELFOVERLAP>
50.94

> <PUBCHEM_SHAPE_FINGERPRINT>
10050765 1 18409444799648388093
10319926 262 18114184185103121043
10622 236 17272587267508164546
11135609 12 18187082871260889918
11963148 33 18049445846571981086
12107183 9 18116979174153408569
12236239 1 17774151435390112062
12422481 6 17676201382148071687
12553582 1 18339651130174253262
12633257 1 18334849563344005417
12788726 201 18200307861396674417
12916754 54 18335414669223381045
13004483 165 18410018711096216349
13009979 54 18041550425218333928
13140716 1 18338244867640107609
13533116 47 18336542716518835225
13540713 4 18338530706419856596
13673619 4 17313939853222248830
13690498 29 18272082850623160149
14178342 30 18192723464400275274
14251740 57 18261956249726080126
14341114 176 18337945698077865705
15196674 1 18336542729846822861
15324884 4 17534923067384733932
15721738 202 18040149613798656896
17492 89 18335699425359719415
17844677 252 18335410275582386165
1813 80 17489310733560066253
19841028 212 18268433422310029155
20028762 73 18261394421287384807
21033648 29 17096949051046119818
21267235 1 18410281528455217103
21279426 13 18341901788475963469
21421861 104 18339931419882285168
21792934 111 18261112976860027249
22122407 14 14924229386554032779
22393880 68 18273500099889779653
23522609 53 18051373449332442909
23559900 14 18334295391839584933
239999 70 18410007702809959878
25222932 49 17912366424870234459
3004659 81 18343017787797366895
312423 11 18410565180648297269
335352 9 18409443726923948525
3411729 13 18266180531125763776
3421961 26 18334853892301722772
350125 39 18334851718943035796
4073 2 17913485745260992051
5104073 3 18410007707447923129
6823239 73 18260545662913507414
7970288 3 18267021837635728518
9709674 26 18268705022438448705
9841814 1 18342184362494666952

> <PUBCHEM_SHAPE_MULTIPOLES>
528.08
14.15
3.54
1.49
8.45
2.5
-1
-10.81
-1.07
-2.3
-0.08
-3.18
-1.26
-0.15

> <PUBCHEM_SHAPE_SELFOVERLAP>
1135.371

> <PUBCHEM_SHAPE_VOLUME>
290.3

> <PUBCHEM_COORDINATE_TYPE>
2
5
10

$$$$

