61632
  -OEChem-07051213143D

 16 15  0     0  0  0  0  0  0999 V2000
    4.4015    0.3709    0.0161 Cl  0  0  0  0  0  0  0  0  0  0  0  0
   -4.4015   -0.3710    0.0161 Cl  0  0  0  0  0  0  0  0  0  0  0  0
    1.8001    0.2489   -0.0087 O   0  0  0  0  0  0  0  0  0  0  0  0
   -1.8001   -0.2489   -0.0087 O   0  0  0  0  0  0  0  0  0  0  0  0
    0.5822   -0.4859    0.0017 C   0  0  0  0  0  0  0  0  0  0  0  0
   -0.5821    0.4860    0.0016 C   0  0  0  0  0  0  0  0  0  0  0  0
    2.9275   -0.6142   -0.0091 C   0  0  0  0  0  0  0  0  0  0  0  0
   -2.9275    0.6142   -0.0091 C   0  0  0  0  0  0  0  0  0  0  0  0
    0.5266   -1.1359   -0.8800 H   0  0  0  0  0  0  0  0  0  0  0  0
    0.5340   -1.1262    0.8908 H   0  0  0  0  0  0  0  0  0  0  0  0
   -0.5265    1.1360   -0.8800 H   0  0  0  0  0  0  0  0  0  0  0  0
   -0.5340    1.1262    0.8908 H   0  0  0  0  0  0  0  0  0  0  0  0
    2.9287   -1.2497    0.8815 H   0  0  0  0  0  0  0  0  0  0  0  0
    2.9423   -1.2281   -0.9145 H   0  0  0  0  0  0  0  0  0  0  0  0
   -2.9288    1.2496    0.8816 H   0  0  0  0  0  0  0  0  0  0  0  0
   -2.9423    1.2282   -0.9145 H   0  0  0  0  0  0  0  0  0  0  0  0
  1  7  1  0  0  0  0
  2  8  1  0  0  0  0
  3  5  1  0  0  0  0
  3  7  1  0  0  0  0
  4  6  1  0  0  0  0
  4  8  1  0  0  0  0
  5  6  1  0  0  0  0
  5  9  1  0  0  0  0
  5 10  1  0  0  0  0
  6 11  1  0  0  0  0
  6 12  1  0  0  0  0
  7 13  1  0  0  0  0
  7 14  1  0  0  0  0
  8 15  1  0  0  0  0
  8 16  1  0  0  0  0
M  END
> <PUBCHEM_COMPOUND_CID>
61632

> <PUBCHEM_CONFORMER_RMSD>
0.6

> <PUBCHEM_CONFORMER_DIVERSEORDER>
2
22
44
42
43
33
17
7
26
39
8
41
20
27
4
34
40
9
38
35
1
21
29
28
31
23
18
19
25
3
37
30
36
13
12
32
5
16
14
15
24
6
11
10

> <PUBCHEM_MMFF94_PARTIAL_CHARGES>
8
1 -0.29
2 -0.29
3 -0.56
4 -0.56
5 0.28
6 0.28
7 0.57
8 0.57

> <PUBCHEM_EFFECTIVE_ROTOR_COUNT>
5

> <PUBCHEM_PHARMACOPHORE_FEATURES>
2
1 3 acceptor
1 4 acceptor

> <PUBCHEM_HEAVY_ATOM_COUNT>
8

> <PUBCHEM_ATOM_DEF_STEREO_COUNT>
0

> <PUBCHEM_ATOM_UDEF_STEREO_COUNT>
0

> <PUBCHEM_BOND_DEF_STEREO_COUNT>
0

> <PUBCHEM_BOND_UDEF_STEREO_COUNT>
0

> <PUBCHEM_ISOTOPIC_ATOM_COUNT>
0

> <PUBCHEM_COMPONENT_COUNT>
1

> <PUBCHEM_CACTVS_TAUTO_COUNT>
1

> <PUBCHEM_CONFORMER_ID>
0000F0C000000002

> <PUBCHEM_MMFF94_ENERGY>
11.9565

> <PUBCHEM_FEATURE_SELFOVERLAP>
10.149

> <PUBCHEM_SHAPE_FINGERPRINT>
11062470 55 18202563986094674740
12932764 1 15647629963250669037
14123238 8 18410855451538227236
14325111 11 18410856602605345254
18342897 14 17385438834695878817
20719005 15 18410856559898278410
21293036 1 18410575084673628428
22485316 2 18273500082715126467
23402539 116 14045748097458994539
5460574 1 9223226351564095500

> <PUBCHEM_SHAPE_MULTIPOLES>
156.64
9.11
0.82
0.6
0
0
0
0
-0.06
0
0
0
0
0.01

> <PUBCHEM_SHAPE_SELFOVERLAP>
259.214

> <PUBCHEM_SHAPE_VOLUME>
109.6

> <PUBCHEM_COORDINATE_TYPE>
2
5
10

$$$$

