4247
  -OEChem-06251223593D

 48 49  0     0  0  0  0  0  0999 V2000
    0.4629   -2.5236   -0.0861 S   0  0  0  0  0  0  0  0  0  0  0  0
    1.0815   -3.2135    1.0298 O   0  0  0  0  0  0  0  0  0  0  0  0
   -0.2135   -3.2764   -1.1250 O   0  0  0  0  0  0  0  0  0  0  0  0
    1.6004   -1.4871   -0.8087 N   0  0  0  0  0  0  0  0  0  0  0  0
   -4.2597    1.9495    0.0866 N   0  0  0  0  0  0  0  0  0  0  0  0
    7.9546    2.2995   -0.1326 N   0  0  0  0  0  0  0  0  0  0  0  0
    3.7048   -0.2538   -0.5707 C   0  0  0  0  0  0  0  0  0  0  0  0
    2.3176   -0.4894    0.0142 C   0  0  0  0  0  0  0  0  0  0  0  0
    4.4828    0.7808    0.2428 C   0  0  0  0  0  0  0  0  0  0  0  0
   -0.7119   -1.3753    0.5663 C   0  0  0  0  0  0  0  0  0  0  0  0
   -1.5594   -0.6214   -0.2523 C   0  0  0  0  0  0  0  0  0  0  0  0
   -2.4728    0.2763    0.3503 C   0  0  0  0  0  0  0  0  0  0  0  0
    5.8610    1.0469   -0.3665 C   0  0  0  0  0  0  0  0  0  0  0  0
   -3.3273    1.0366   -0.4646 C   0  0  0  0  0  0  0  0  0  0  0  0
   -0.7505   -1.2591    1.9515 C   0  0  0  0  0  0  0  0  0  0  0  0
   -1.5277   -0.7323   -1.6519 C   0  0  0  0  0  0  0  0  0  0  0  0
   -2.5047    0.3870    1.7501 C   0  0  0  0  0  0  0  0  0  0  0  0
    6.6496    2.0534    0.4695 C   0  0  0  0  0  0  0  0  0  0  0  0
   -1.6486   -0.3765    2.5441 C   0  0  0  0  0  0  0  0  0  0  0  0
   -3.2821    0.9137   -1.8536 C   0  0  0  0  0  0  0  0  0  0  0  0
   -2.3841    0.0309   -2.4460 C   0  0  0  0  0  0  0  0  0  0  0  0
   -3.8765    3.3228    0.3303 C   0  0  0  0  0  0  0  0  0  0  0  0
   -5.5964    1.5112    0.4222 C   0  0  0  0  0  0  0  0  0  0  0  0
    4.2600   -1.1998   -0.5970 H   0  0  0  0  0  0  0  0  0  0  0  0
    3.6131    0.0854   -1.6102 H   0  0  0  0  0  0  0  0  0  0  0  0
    2.4078   -0.8411    1.0470 H   0  0  0  0  0  0  0  0  0  0  0  0
    1.7425    0.4427    0.0125 H   0  0  0  0  0  0  0  0  0  0  0  0
    4.5980    0.4242    1.2736 H   0  0  0  0  0  0  0  0  0  0  0  0
    3.9152    1.7184    0.2865 H   0  0  0  0  0  0  0  0  0  0  0  0
    1.4986   -1.2568   -1.8048 H   0  0  0  0  0  0  0  0  0  0  0  0
    6.4177    0.1036   -0.4345 H   0  0  0  0  0  0  0  0  0  0  0  0
    5.7395    1.4243   -1.3898 H   0  0  0  0  0  0  0  0  0  0  0  0
   -0.0991   -1.8310    2.6046 H   0  0  0  0  0  0  0  0  0  0  0  0
   -0.8364   -1.3625   -2.1957 H   0  0  0  0  0  0  0  0  0  0  0  0
   -3.1908    1.0610    2.2568 H   0  0  0  0  0  0  0  0  0  0  0  0
    6.1046    3.0007    0.5413 H   0  0  0  0  0  0  0  0  0  0  0  0
    6.7906    1.6770    1.4882 H   0  0  0  0  0  0  0  0  0  0  0  0
   -1.6831   -0.2809    3.6255 H   0  0  0  0  0  0  0  0  0  0  0  0
   -3.9419    1.5035   -2.4851 H   0  0  0  0  0  0  0  0  0  0  0  0
   -2.3441   -0.0571   -3.5279 H   0  0  0  0  0  0  0  0  0  0  0  0
   -4.7434    3.9521    0.5580 H   0  0  0  0  0  0  0  0  0  0  0  0
   -3.1838    3.3877    1.1756 H   0  0  0  0  0  0  0  0  0  0  0  0
   -3.3866    3.7530   -0.5501 H   0  0  0  0  0  0  0  0  0  0  0  0
   -5.5786    0.5469    0.9417 H   0  0  0  0  0  0  0  0  0  0  0  0
   -6.1046    2.2243    1.0798 H   0  0  0  0  0  0  0  0  0  0  0  0
   -6.1982    1.4013   -0.4860 H   0  0  0  0  0  0  0  0  0  0  0  0
    7.8332    2.6410   -1.0855 H   0  0  0  0  0  0  0  0  0  0  0  0
    8.4653    1.4209   -0.2138 H   0  0  0  0  0  0  0  0  0  0  0  0
  1  2  2  0  0  0  0
  1  3  2  0  0  0  0
  1  4  1  0  0  0  0
  1 10  1  0  0  0  0
  4  8  1  0  0  0  0
  4 30  1  0  0  0  0
  5 14  1  0  0  0  0
  5 22  1  0  0  0  0
  5 23  1  0  0  0  0
  6 18  1  0  0  0  0
  6 47  1  0  0  0  0
  6 48  1  0  0  0  0
  7  8  1  0  0  0  0
  7  9  1  0  0  0  0
  7 24  1  0  0  0  0
  7 25  1  0  0  0  0
  8 26  1  0  0  0  0
  8 27  1  0  0  0  0
  9 13  1  0  0  0  0
  9 28  1  0  0  0  0
  9 29  1  0  0  0  0
 10 11  1  0  0  0  0
 10 15  2  0  0  0  0
 11 12  2  0  0  0  0
 11 16  1  0  0  0  0
 12 14  1  0  0  0  0
 12 17  1  0  0  0  0
 13 18  1  0  0  0  0
 13 31  1  0  0  0  0
 13 32  1  0  0  0  0
 14 20  2  0  0  0  0
 15 19  1  0  0  0  0
 15 33  1  0  0  0  0
 16 21  2  0  0  0  0
 16 34  1  0  0  0  0
 17 19  2  0  0  0  0
 17 35  1  0  0  0  0
 18 36  1  0  0  0  0
 18 37  1  0  0  0  0
 19 38  1  0  0  0  0
 20 21  1  0  0  0  0
 20 39  1  0  0  0  0
 21 40  1  0  0  0  0
 22 41  1  0  0  0  0
 22 42  1  0  0  0  0
 22 43  1  0  0  0  0
 23 44  1  0  0  0  0
 23 45  1  0  0  0  0
 23 46  1  0  0  0  0
M  END
> <PUBCHEM_COMPOUND_CID>
4247

> <PUBCHEM_CONFORMER_RMSD>
0.8

> <PUBCHEM_CONFORMER_DIVERSEORDER>
1
64
90
43
50
33
89
77
13
88
42
58
47
70
69
85
59
66
73
54
62
79
86
76
40
97
44
28
20
91
49
87
24
25
81
92
26
45
18
34
67
17
48
30
10
80
74
71
27
96
51
82
12
22
57
4
65
78
32
38
95
37
7
36
8
60
63
83
53
35
31
56
52
55
5
72
14
9
19
94
75
68
16
84
29
39
15
61
11
93
23
6
3
41
21
2
46

> <PUBCHEM_MMFF94_PARTIAL_CHARGES>
27
1 1.45
10 -0.01
14 0.1
15 -0.15
16 -0.15
17 -0.15
18 0.27
19 -0.15
2 -0.65
20 -0.15
21 -0.15
22 0.37
23 0.37
3 -0.65
30 0.42
33 0.15
34 0.15
35 0.15
38 0.15
39 0.15
4 -0.91
40 0.15
47 0.36
48 0.36
5 -0.84
6 -0.99
8 0.36

> <PUBCHEM_EFFECTIVE_ROTOR_COUNT>
8

> <PUBCHEM_PHARMACOPHORE_FEATURES>
8
1 2 acceptor
1 3 acceptor
1 4 donor
1 5 cation
1 6 cation
1 6 donor
6 10 11 12 15 17 19 rings
6 11 12 14 16 20 21 rings

> <PUBCHEM_HEAVY_ATOM_COUNT>
23

> <PUBCHEM_ATOM_DEF_STEREO_COUNT>
0

> <PUBCHEM_ATOM_UDEF_STEREO_COUNT>
0

> <PUBCHEM_BOND_DEF_STEREO_COUNT>
0

> <PUBCHEM_BOND_UDEF_STEREO_COUNT>
0

> <PUBCHEM_ISOTOPIC_ATOM_COUNT>
0

> <PUBCHEM_COMPONENT_COUNT>
1

> <PUBCHEM_CACTVS_TAUTO_COUNT>
1

> <PUBCHEM_CONFORMER_ID>
0000109700000001

> <PUBCHEM_MMFF94_ENERGY>
61.1324

> <PUBCHEM_FEATURE_SELFOVERLAP>
40.639

> <PUBCHEM_SHAPE_FINGERPRINT>
105312 117 18337105679842390534
10674148 151 5328749539111125747
10730089 88 4751149701461614851
12035758 1 17274808173996531201
12633257 1 16486960796097899836
12760667 363 8214148473136500724
12892183 10 15123237688156185624
12895836 83 17603592945326742013
12895837 130 18260267400293545708
13103583 49 11887672935188822220
13140716 1 15622231236971816333
14142880 1 18342739576843073855
14251764 30 9727633904314721768
15475509 8 4823212772083979875
15513586 35 17056663791514495796
16110190 28 17060052602420776900
17492 54 17095243656824164489
17780758 139 13182749134547162684
19784866 240 9583509928260738669
20871999 31 14779264245613832907
21033648 29 18272921718662013846
21307412 95 5978095843847742389
21401589 2 18131354115516675896
23559900 14 16842736508291677203
270888 7 18409730690188653844
2748010 2 14689183625326503015
283562 15 18197787591715633138
2838139 119 18336550516374558772
474 4 18339926025181542247
4938544 92 12894812362460143134
7288768 16 18201997750470179856
9981440 41 18272365386609754258

> <PUBCHEM_SHAPE_MULTIPOLES>
450.5
13.27
3.22
1.95
30.16
0.63
-0.11
-17.31
0.16
0.51
-0.2
-2.14
0.5
0.06

> <PUBCHEM_SHAPE_SELFOVERLAP>
919.934

> <PUBCHEM_SHAPE_VOLUME>
262.5

> <PUBCHEM_COORDINATE_TYPE>
2
5
10

$$$$

