11225
  -OEChem-06261205252D

 60 65  0     1  0  0  0  0  0999 V2000
    5.7364   -2.2619    0.0000 O   0  0  0  0  0  0  0  0  0  0  0  0
    2.9380   -0.5672    0.0000 O   0  0  0  0  0  0  0  0  0  0  0  0
    2.0000    2.0496    0.0000 O   0  0  0  0  0  0  0  0  0  0  0  0
    5.0278    2.1433    0.0000 O   0  0  0  0  0  0  0  0  0  0  0  0
   10.3446   -0.3989    0.0000 O   0  0  0  0  0  0  0  0  0  0  0  0
   11.9910   -0.9370    0.0000 O   0  0  0  0  0  0  0  0  0  0  0  0
    6.4739   -1.5947    0.0000 C   0  0  2  0  0  0  0  0  0  0  0  0
    7.3399   -1.0947    0.0000 C   0  0  1  0  0  0  0  0  0  0  0  0
    5.6079   -1.0947    0.0000 C   0  0  3  0  0  0  0  0  0  0  0  0
    6.6831   -2.5666    0.0000 C   0  0  1  0  0  0  0  0  0  0  0  0
    5.6079   -0.0948    0.0000 C   0  0  3  0  0  0  0  0  0  0  0  0
    8.0770   -1.7618    0.0000 C   0  0  2  0  0  0  0  0  0  0  0  0
    7.6718   -2.6696    0.0000 C   0  0  0  0  0  0  0  0  0  0  0  0
    7.3399   -0.0948    0.0000 C   0  0  0  0  0  0  0  0  0  0  0  0
    4.7140    0.4399    0.0000 C   0  0  2  0  0  0  0  0  0  0  0  0
    6.4739    0.4052    0.0000 C   0  0  0  0  0  0  0  0  0  0  0  0
    4.7140   -1.6294    0.0000 C   0  0  0  0  0  0  0  0  0  0  0  0
    3.8079   -0.0739    0.0000 C   0  0  1  0  0  0  0  0  0  0  0  0
    8.2060   -0.5948    0.0000 C   0  0  0  0  0  0  0  0  0  0  0  0
    3.8079   -1.1156    0.0000 C   0  0  0  0  0  0  0  0  0  0  0  0
    4.7390    1.5246    0.0000 C   0  0  0  0  0  0  0  0  0  0  0  0
    9.0555   -1.5556    0.0000 C   0  0  0  0  0  0  0  0  0  0  0  0
    2.8641    0.4613    0.0000 C   0  0  0  0  0  0  0  0  0  0  0  0
    5.3626    1.2010    0.0000 C   0  0  0  0  0  0  0  0  0  0  0  0
    3.8079    2.0815    0.0000 C   0  0  0  0  0  0  0  0  0  0  0  0
    2.8641    1.5463    0.0000 C   0  0  2  0  0  0  0  0  0  0  0  0
    9.7233   -2.2999    0.0000 C   0  0  0  0  0  0  0  0  0  0  0  0
    9.3661   -0.6051    0.0000 C   0  0  0  0  0  0  0  0  0  0  0  0
   10.7018   -2.0937    0.0000 C   0  0  0  0  0  0  0  0  0  0  0  0
   11.0125   -1.1432    0.0000 C   0  0  0  0  0  0  0  0  0  0  0  0
    5.6144   -1.9447    0.0000 H   0  0  0  0  0  0  0  0  0  0  0  0
    6.5079   -3.3983    0.0000 H   0  0  0  0  0  0  0  0  0  0  0  0
    6.3440   -0.5198    0.0000 H   0  0  0  0  0  0  0  0  0  0  0  0
    8.4665   -2.2442    0.0000 H   0  0  0  0  0  0  0  0  0  0  0  0
    7.5431   -3.2761    0.0000 H   0  0  0  0  0  0  0  0  0  0  0  0
    8.2614   -2.8614    0.0000 H   0  0  0  0  0  0  0  0  0  0  0  0
    7.9505   -0.2024    0.0000 H   0  0  0  0  0  0  0  0  0  0  0  0
    7.5520    0.4879    0.0000 H   0  0  0  0  0  0  0  0  0  0  0  0
    6.8724    0.8802    0.0000 H   0  0  0  0  0  0  0  0  0  0  0  0
    6.0754    0.8802    0.0000 H   0  0  0  0  0  0  0  0  0  0  0  0
    4.3203   -2.1084    0.0000 H   0  0  0  0  0  0  0  0  0  0  0  0
    5.1185   -2.0992    0.0000 H   0  0  0  0  0  0  0  0  0  0  0  0
    8.5160   -1.1317    0.0000 H   0  0  0  0  0  0  0  0  0  0  0  0
    8.7429   -0.2848    0.0000 H   0  0  0  0  0  0  0  0  0  0  0  0
    7.8960   -0.0578    0.0000 H   0  0  0  0  0  0  0  0  0  0  0  0
    3.1970   -1.0095    0.0000 H   0  0  0  0  0  0  0  0  0  0  0  0
    3.5988   -1.6993    0.0000 H   0  0  0  0  0  0  0  0  0  0  0  0
    5.3473    1.4044    0.0000 H   0  0  0  0  0  0  0  0  0  0  0  0
    4.9615    2.1033    0.0000 H   0  0  0  0  0  0  0  0  0  0  0  0
    2.2532    0.5674    0.0000 H   0  0  0  0  0  0  0  0  0  0  0  0
    2.6550   -0.1224    0.0000 H   0  0  0  0  0  0  0  0  0  0  0  0
    5.9723    1.0886    0.0000 H   0  0  0  0  0  0  0  0  0  0  0  0
    4.2125    2.5513    0.0000 H   0  0  0  0  0  0  0  0  0  0  0  0
    3.4142    2.5606    0.0000 H   0  0  0  0  0  0  0  0  0  0  0  0
    2.8677    2.1663    0.0000 H   0  0  0  0  0  0  0  0  0  0  0  0
    2.4035   -0.2531    0.0000 H   0  0  0  0  0  0  0  0  0  0  0  0
    9.5307   -2.8892    0.0000 H   0  0  0  0  0  0  0  0  0  0  0  0
    8.9521   -0.1436    0.0000 H   0  0  0  0  0  0  0  0  0  0  0  0
    2.0024    2.6696    0.0000 H   0  0  0  0  0  0  0  0  0  0  0  0
   11.1159   -2.5552    0.0000 H   0  0  0  0  0  0  0  0  0  0  0  0
  7  1  1  1  0  0  0
  1 10  1  0  0  0  0
 18  2  1  1  0  0  0
  2 56  1  0  0  0  0
 26  3  1  1  0  0  0
  3 59  1  0  0  0  0
  4 24  2  0  0  0  0
  5 28  1  0  0  0  0
  5 30  1  0  0  0  0
  6 30  2  0  0  0  0
  7  8  1  0  0  0  0
  7  9  1  0  0  0  0
  7 10  1  0  0  0  0
  8 12  1  0  0  0  0
  8 14  1  0  0  0  0
  8 19  1  1  0  0  0
  9 11  1  0  0  0  0
  9 17  1  0  0  0  0
  9 31  1  0  0  0  0
 10 13  1  0  0  0  0
 10 32  1  6  0  0  0
 11 15  1  0  0  0  0
 11 16  1  0  0  0  0
 11 33  1  0  0  0  0
 12 13  1  0  0  0  0
 12 22  1  1  0  0  0
 12 34  1  0  0  0  0
 13 35  1  0  0  0  0
 13 36  1  0  0  0  0
 14 16  1  0  0  0  0
 14 37  1  0  0  0  0
 14 38  1  0  0  0  0
 15 18  1  0  0  0  0
 15 21  1  0  0  0  0
 15 24  1  1  0  0  0
 16 39  1  0  0  0  0
 16 40  1  0  0  0  0
 17 20  1  0  0  0  0
 17 41  1  0  0  0  0
 17 42  1  0  0  0  0
 18 20  1  0  0  0  0
 18 23  1  0  0  0  0
 19 43  1  0  0  0  0
 19 44  1  0  0  0  0
 19 45  1  0  0  0  0
 20 46  1  0  0  0  0
 20 47  1  0  0  0  0
 21 25  1  0  0  0  0
 21 48  1  0  0  0  0
 21 49  1  0  0  0  0
 22 27  1  0  0  0  0
 22 28  2  0  0  0  0
 23 26  1  0  0  0  0
 23 50  1  0  0  0  0
 23 51  1  0  0  0  0
 24 52  1  0  0  0  0
 25 26  1  0  0  0  0
 25 53  1  0  0  0  0
 25 54  1  0  0  0  0
 26 55  1  0  0  0  0
 27 29  2  0  0  0  0
 27 57  1  0  0  0  0
 28 58  1  0  0  0  0
 29 30  1  0  0  0  0
 29 60  1  0  0  0  0
M  END
> <PUBCHEM_COMPOUND_CID>
11225

> <PUBCHEM_COMPOUND_CANONICALIZED>
1

> <PUBCHEM_CACTVS_COMPLEXITY>
879

> <PUBCHEM_CACTVS_HBOND_ACCEPTOR>
6

> <PUBCHEM_CACTVS_HBOND_DONOR>
2

> <PUBCHEM_CACTVS_ROTATABLE_BOND>
2

> <PUBCHEM_CACTVS_SUBSKEYS>
AAADceB4OAAAAAAAAAAAAAAAEgAAAYAAAAA0YMECAAAAAGDQAAAAGgAACAAAD1SggAICCAAABgCIAijSiAAACAAgIAAICAEAAEgIFBYAIQACUAAFoAAIoYOI7PzPgAAAAAAAAADAAAYQADAAAYAADAAAAA==

> <PUBCHEM_IUPAC_INCHI>
InChI=1S/C24H30O6/c1-21-7-5-16-17(6-9-23(28)11-15(26)4-8-22(16,23)13-25)24(21)19(30-24)10-18(21)14-2-3-20(27)29-12-14/h2-3,12-13,15-19,26,28H,4-11H2,1H3/t15-,16?,17?,18+,19+,21+,22-,23-,24+/m0/s1

> <PUBCHEM_IUPAC_INCHIKEY>
TYFUTHRVUVOENP-SHFSIXQYSA-N

> <PUBCHEM_XLOGP3_AA>
1.7

> <PUBCHEM_EXACT_MASS>
414.204239

> <PUBCHEM_MOLECULAR_FORMULA>
C24H30O6

> <PUBCHEM_MOLECULAR_WEIGHT>
414.4914

> <PUBCHEM_OPENEYE_CAN_SMILES>
CC12CCC3C(C14C(O4)CC2C5=COC(=O)C=C5)CCC6(C3(CCC(C6)O)C=O)O

> <PUBCHEM_OPENEYE_ISO_SMILES>
C[C@]12CCC3C([C@@]14[C@H](O4)C[C@@H]2C5=COC(=O)C=C5)CC[C@]6([C@@]3(CC[C@@H](C6)O)C=O)O

> <PUBCHEM_CACTVS_TPSA>
96.4

> <PUBCHEM_MONOISOTOPIC_WEIGHT>
414.204239

> <PUBCHEM_TOTAL_CHARGE>
0

> <PUBCHEM_HEAVY_ATOM_COUNT>
30

> <PUBCHEM_ATOM_DEF_STEREO_COUNT>
7

> <PUBCHEM_ATOM_UDEF_STEREO_COUNT>
2

> <PUBCHEM_BOND_DEF_STEREO_COUNT>
0

> <PUBCHEM_BOND_UDEF_STEREO_COUNT>
0

> <PUBCHEM_ISOTOPIC_ATOM_COUNT>
0

> <PUBCHEM_COMPONENT_COUNT>
1

> <PUBCHEM_CACTVS_TAUTO_COUNT>
1

> <PUBCHEM_COORDINATE_TYPE>
1
5
255

> <PUBCHEM_BONDANNOTATIONS>
7  1  5
10  32  6
11  33  3
12  22  5
15  24  5
18  2  5
22  27  8
22  28  8
27  29  8
29  30  8
26  3  5
5  28  8
5  30  8
8  19  5
9  31  3

$$$$

