177149
  -OEChem-07051212593D

 36 38  0     1  0  0  0  0  0999 V2000
    1.8778    1.7546    0.4037 O   0  0  0  0  0  0  0  0  0  0  0  0
   -1.2389   -0.7090    1.9819 O   0  0  0  0  0  0  0  0  0  0  0  0
   -5.6397   -0.3773    0.1835 O   0  0  0  0  0  0  0  0  0  0  0  0
    6.3030    0.1438   -0.0973 O   0  0  0  0  0  0  0  0  0  0  0  0
   -0.0625    0.4597   -0.3586 C   0  0  2  0  0  0  0  0  0  0  0  0
    0.7279   -0.8541   -0.3147 C   0  0  0  0  0  0  0  0  0  0  0  0
    0.5173    1.4107    0.6937 C   0  0  0  0  0  0  0  0  0  0  0  0
    2.2046   -0.5765   -0.2517 C   0  0  0  0  0  0  0  0  0  0  0  0
   -1.5511    0.2314   -0.2004 C   0  0  0  0  0  0  0  0  0  0  0  0
    2.6886    0.6883    0.1090 C   0  0  0  0  0  0  0  0  0  0  0  0
   -2.0655   -0.3414    0.9632 C   0  0  0  0  0  0  0  0  0  0  0  0
    3.1179   -1.6015   -0.5326 C   0  0  0  0  0  0  0  0  0  0  0  0
   -2.4120    0.5994   -1.2352 C   0  0  0  0  0  0  0  0  0  0  0  0
    4.0640    0.9317    0.1477 C   0  0  0  0  0  0  0  0  0  0  0  0
    4.4910   -1.3597   -0.4795 C   0  0  0  0  0  0  0  0  0  0  0  0
   -3.4392   -0.5459    1.0922 C   0  0  0  0  0  0  0  0  0  0  0  0
    4.9635   -0.0929   -0.1435 C   0  0  0  0  0  0  0  0  0  0  0  0
   -3.7858    0.3946   -1.1064 C   0  0  0  0  0  0  0  0  0  0  0  0
   -4.2993   -0.1778    0.0576 C   0  0  0  0  0  0  0  0  0  0  0  0
   -6.4615    0.0218   -0.9125 C   0  0  0  0  0  0  0  0  0  0  0  0
    0.1250    0.9163   -1.3422 H   0  0  0  0  0  0  0  0  0  0  0  0
    0.4979   -1.4404   -1.2140 H   0  0  0  0  0  0  0  0  0  0  0  0
    0.4780   -1.4803    0.5468 H   0  0  0  0  0  0  0  0  0  0  0  0
   -0.0504    2.3487    0.7046 H   0  0  0  0  0  0  0  0  0  0  0  0
    0.4810    1.0089    1.7124 H   0  0  0  0  0  0  0  0  0  0  0  0
    2.7629   -2.5938   -0.7997 H   0  0  0  0  0  0  0  0  0  0  0  0
   -2.0275    1.0464   -2.1482 H   0  0  0  0  0  0  0  0  0  0  0  0
    4.4358    1.9189    0.4120 H   0  0  0  0  0  0  0  0  0  0  0  0
    5.1814   -2.1681   -0.7053 H   0  0  0  0  0  0  0  0  0  0  0  0
   -3.8475   -0.9921    1.9958 H   0  0  0  0  0  0  0  0  0  0  0  0
   -4.3965    0.7033   -1.9480 H   0  0  0  0  0  0  0  0  0  0  0  0
   -1.7713   -1.0873    2.7025 H   0  0  0  0  0  0  0  0  0  0  0  0
    6.7759   -0.6748   -0.3262 H   0  0  0  0  0  0  0  0  0  0  0  0
   -6.4095    1.1027   -1.0817 H   0  0  0  0  0  0  0  0  0  0  0  0
   -7.4968   -0.2096   -0.6412 H   0  0  0  0  0  0  0  0  0  0  0  0
   -6.2323   -0.5515   -1.8171 H   0  0  0  0  0  0  0  0  0  0  0  0
  1  7  1  0  0  0  0
  1 10  1  0  0  0  0
  2 11  1  0  0  0  0
  2 32  1  0  0  0  0
  3 19  1  0  0  0  0
  3 20  1  0  0  0  0
  4 17  1  0  0  0  0
  4 33  1  0  0  0  0
  5  6  1  0  0  0  0
  5  7  1  0  0  0  0
  5  9  1  0  0  0  0
  5 21  1  0  0  0  0
  6  8  1  0  0  0  0
  6 22  1  0  0  0  0
  6 23  1  0  0  0  0
  7 24  1  0  0  0  0
  7 25  1  0  0  0  0
  8 10  2  0  0  0  0
  8 12  1  0  0  0  0
  9 11  2  0  0  0  0
  9 13  1  0  0  0  0
 10 14  1  0  0  0  0
 11 16  1  0  0  0  0
 12 15  2  0  0  0  0
 12 26  1  0  0  0  0
 13 18  2  0  0  0  0
 13 27  1  0  0  0  0
 14 17  2  0  0  0  0
 14 28  1  0  0  0  0
 15 17  1  0  0  0  0
 15 29  1  0  0  0  0
 16 19  2  0  0  0  0
 16 30  1  0  0  0  0
 18 19  1  0  0  0  0
 18 31  1  0  0  0  0
 20 34  1  0  0  0  0
 20 35  1  0  0  0  0
 20 36  1  0  0  0  0
M  END
> <PUBCHEM_COMPOUND_CID>
177149

> <PUBCHEM_CONFORMER_RMSD>
0.6

> <PUBCHEM_CONFORMER_DIVERSEORDER>
6
7
3
8
4
5
1
2

> <PUBCHEM_MMFF94_PARTIAL_CHARGES>
28
1 -0.36
10 0.08
11 0.08
12 -0.15
13 -0.15
14 -0.15
15 -0.15
16 -0.15
17 0.08
18 -0.15
19 0.08
2 -0.53
20 0.28
26 0.15
27 0.15
28 0.15
29 0.15
3 -0.36
30 0.15
31 0.15
32 0.45
33 0.45
4 -0.53
5 0.14
6 0.14
7 0.28
8 -0.14
9 -0.14

> <PUBCHEM_EFFECTIVE_ROTOR_COUNT>
2.8

> <PUBCHEM_PHARMACOPHORE_FEATURES>
7
1 1 acceptor
1 2 donor
1 3 acceptor
1 4 donor
6 1 5 6 7 8 10 rings
6 8 10 12 14 15 17 rings
6 9 11 13 16 18 19 rings

> <PUBCHEM_HEAVY_ATOM_COUNT>
20

> <PUBCHEM_ATOM_DEF_STEREO_COUNT>
1

> <PUBCHEM_ATOM_UDEF_STEREO_COUNT>
0

> <PUBCHEM_BOND_DEF_STEREO_COUNT>
0

> <PUBCHEM_BOND_UDEF_STEREO_COUNT>
0

> <PUBCHEM_ISOTOPIC_ATOM_COUNT>
0

> <PUBCHEM_COMPONENT_COUNT>
1

> <PUBCHEM_CACTVS_TAUTO_COUNT>
8

> <PUBCHEM_CONFORMER_ID>
0002B3FD00000006

> <PUBCHEM_MMFF94_ENERGY>
70.6635

> <PUBCHEM_FEATURE_SELFOVERLAP>
35.549

> <PUBCHEM_SHAPE_FINGERPRINT>
10 15 18272097046698277136
11315181 36 17560794429361296268
11471102 20 18335137583887564396
11796584 16 17203605987083052298
12011746 2 18343862221095874190
12107183 9 16666528838900444283
12236239 1 16950562185952895825
12390115 104 17416976208958502045
12516196 113 17967254199825763504
12596602 18 16588030073855407618
12916748 109 16630242584498583901
13533116 47 16950562224776985198
13668630 136 17749105586668935759
13862211 1 18260266387050113046
14386348 63 18273492368674151578
14573314 32 18060420248089713559
15048467 5 11312062054329901359
15375358 24 18201998833123853986
15961568 22 16629675133826204236
1813 80 17749373897945690124
19141452 34 18411416177374212327
19489759 90 17275386516531979519
200 152 18040155132261880489
20279233 1 18202557384909464354
20645477 70 18336827597663315118
20681677 155 15626221290968880121
21033648 29 18340784687939375109
21033650 10 15839856555265331022
21065198 48 16950554540832306114
21267235 1 18186514441293338990
21285901 2 18272370931349015566
21641784 216 18268128986079451764
221357 26 18411706504125649773
2215653 11 18343587343510644743
22224240 67 17894920611996554978
23175994 123 18412821382919589813
23402539 116 17060340699904468543
23536379 177 18187083979715938633
23557571 272 17775570866014919420
23559900 14 17775002349588527709
26918003 58 18408601448459190307
2871803 45 18341328985387464842
3004659 81 16845298301991551058
34797466 226 17346305004013325998
465052 167 18040149608744248606
474 4 17242187747038373240
5104073 3 18116437132084427378
5283173 99 18129386054043525205
542803 24 18202279212477735333

> <PUBCHEM_SHAPE_MULTIPOLES>
388.11
13.2
1.27
1.13
3.28
0.07
-0.26
-1.65
2.36
-1.36
-0.02
1.18
-0.08
0.64

> <PUBCHEM_SHAPE_SELFOVERLAP>
849.073

> <PUBCHEM_SHAPE_VOLUME>
210.1

> <PUBCHEM_COORDINATE_TYPE>
2
5
10

$$$$

