11954213
  -OEChem-07051213073D

 43 44  0     1  0  0  0  0  0999 V2000
    1.4240    0.8616   -1.8145 O   0  0  0  0  0  0  0  0  0  0  0  0
   -1.4171    3.0722   -0.1941 O   0  0  0  0  0  0  0  0  0  0  0  0
   -0.0225   -1.4237    0.6223 O   0  0  0  0  0  0  0  0  0  0  0  0
    4.1947   -1.0159    1.5419 O   0  0  0  0  0  0  0  0  0  0  0  0
   -4.5890   -0.4912   -0.4527 O   0  0  0  0  0  0  0  0  0  0  0  0
    4.7569    0.0176   -1.5712 O   0  0  0  0  0  0  0  0  0  0  0  0
   -2.9801   -2.9069    1.2614 O   0  0  0  0  0  0  0  0  0  0  0  0
    0.7233    1.3156    0.4628 C   0  0  1  0  0  0  0  0  0  0  0  0
   -0.7124    0.8259    0.2156 C   0  0  0  0  0  0  0  0  0  0  0  0
    1.6559    0.7039   -0.6133 C   0  0  0  0  0  0  0  0  0  0  0  0
    0.9047    2.8446    0.3342 C   0  0  0  0  0  0  0  0  0  0  0  0
    1.1514    0.9453    1.8668 C   0  0  0  0  0  0  0  0  0  0  0  0
   -1.7102    1.7431   -0.1023 C   0  0  0  0  0  0  0  0  0  0  0  0
   -1.0066   -0.5312    0.3105 C   0  0  0  0  0  0  0  0  0  0  0  0
    2.8606   -0.0819   -0.1985 C   0  0  0  0  0  0  0  0  0  0  0  0
   -3.0134    1.2989   -0.3270 C   0  0  0  0  0  0  0  0  0  0  0  0
   -2.3095   -0.9751    0.0858 C   0  0  0  0  0  0  0  0  0  0  0  0
    2.2346    0.2112    2.1448 C   0  0  0  0  0  0  0  0  0  0  0  0
    3.0995   -0.2931    1.1059 C   0  0  0  0  0  0  0  0  0  0  0  0
   -3.3130   -0.0601   -0.2329 C   0  0  0  0  0  0  0  0  0  0  0  0
   -4.0890    2.2802   -0.6684 C   0  0  0  0  0  0  0  0  0  0  0  0
    3.7880   -0.6371   -1.1961 C   0  0  0  0  0  0  0  0  0  0  0  0
   -2.6228   -2.3968    0.1836 C   0  0  0  0  0  0  0  0  0  0  0  0
    3.5077   -2.0183   -1.7194 C   0  0  0  0  0  0  0  0  0  0  0  0
   -2.5158   -3.2889   -1.0453 C   0  0  0  0  0  0  0  0  0  0  0  0
    0.3587    3.4190    1.0927 H   0  0  0  0  0  0  0  0  0  0  0  0
    1.9614    3.0939    0.5197 H   0  0  0  0  0  0  0  0  0  0  0  0
    0.7321    3.2252   -0.6800 H   0  0  0  0  0  0  0  0  0  0  0  0
    0.5435    1.3051    2.6949 H   0  0  0  0  0  0  0  0  0  0  0  0
    2.4747   -0.0092    3.1801 H   0  0  0  0  0  0  0  0  0  0  0  0
   -4.1487    2.4149   -1.7528 H   0  0  0  0  0  0  0  0  0  0  0  0
   -5.0694    1.9672   -0.2939 H   0  0  0  0  0  0  0  0  0  0  0  0
   -3.9245    3.2549   -0.1970 H   0  0  0  0  0  0  0  0  0  0  0  0
   -2.0287    3.5070   -0.8097 H   0  0  0  0  0  0  0  0  0  0  0  0
   -0.3759   -2.3256    0.6774 H   0  0  0  0  0  0  0  0  0  0  0  0
    2.5711   -2.4102   -1.3123 H   0  0  0  0  0  0  0  0  0  0  0  0
    4.3229   -2.6861   -1.4294 H   0  0  0  0  0  0  0  0  0  0  0  0
    3.4208   -1.9792   -2.8084 H   0  0  0  0  0  0  0  0  0  0  0  0
    4.1856   -1.0538    2.5132 H   0  0  0  0  0  0  0  0  0  0  0  0
   -5.0434    0.1111   -1.0633 H   0  0  0  0  0  0  0  0  0  0  0  0
   -1.7861   -4.0795   -0.8529 H   0  0  0  0  0  0  0  0  0  0  0  0
   -2.1849   -2.7089   -1.9114 H   0  0  0  0  0  0  0  0  0  0  0  0
   -3.4966   -3.7188   -1.2636 H   0  0  0  0  0  0  0  0  0  0  0  0
  1 10  2  0  0  0  0
  2 13  1  0  0  0  0
  2 34  1  0  0  0  0
  3 14  1  0  0  0  0
  3 35  1  0  0  0  0
  4 19  1  0  0  0  0
  4 39  1  0  0  0  0
  5 20  1  0  0  0  0
  5 40  1  0  0  0  0
  6 22  2  0  0  0  0
  7 23  2  0  0  0  0
  8  9  1  0  0  0  0
  8 10  1  0  0  0  0
  8 11  1  0  0  0  0
  8 12  1  0  0  0  0
  9 13  2  0  0  0  0
  9 14  1  0  0  0  0
 10 15  1  0  0  0  0
 11 26  1  0  0  0  0
 11 27  1  0  0  0  0
 11 28  1  0  0  0  0
 12 18  2  0  0  0  0
 12 29  1  0  0  0  0
 13 16  1  0  0  0  0
 14 17  2  0  0  0  0
 15 19  2  0  0  0  0
 15 22  1  0  0  0  0
 16 20  2  0  0  0  0
 16 21  1  0  0  0  0
 17 20  1  0  0  0  0
 17 23  1  0  0  0  0
 18 19  1  0  0  0  0
 18 30  1  0  0  0  0
 21 31  1  0  0  0  0
 21 32  1  0  0  0  0
 21 33  1  0  0  0  0
 22 24  1  0  0  0  0
 23 25  1  0  0  0  0
 24 36  1  0  0  0  0
 24 37  1  0  0  0  0
 24 38  1  0  0  0  0
 25 41  1  0  0  0  0
 25 42  1  0  0  0  0
 25 43  1  0  0  0  0
M  END
> <PUBCHEM_COMPOUND_CID>
11954213

> <PUBCHEM_CONFORMER_RMSD>
0.6

> <PUBCHEM_CONFORMER_DIVERSEORDER>
9
30
17
25
1
12
8
22
16
34
20
10
7
5
11
26
18
32
27
33
2
23
4
6
24
3
21
13
19
31
14
28
15
29

> <PUBCHEM_MMFF94_PARTIAL_CHARGES>
30
1 -0.57
10 0.49
12 -0.29
13 0.08
14 0.08
15 0.03
16 -0.14
17 0.09
18 -0.15
19 0.08
2 -0.53
20 0.08
21 0.14
22 0.49
23 0.42
24 0.06
25 0.06
29 0.15
3 -0.53
30 0.15
34 0.45
35 0.45
39 0.45
4 -0.53
40 0.45
5 -0.53
6 -0.57
7 -0.57
8 0.34
9 -0.14

> <PUBCHEM_EFFECTIVE_ROTOR_COUNT>
3.2

> <PUBCHEM_PHARMACOPHORE_FEATURES>
10
1 1 acceptor
1 15 anion
1 2 donor
1 3 donor
1 4 donor
1 5 donor
1 6 acceptor
1 7 acceptor
6 8 10 12 15 18 19 rings
6 9 13 14 16 17 20 rings

> <PUBCHEM_HEAVY_ATOM_COUNT>
25

> <PUBCHEM_ATOM_DEF_STEREO_COUNT>
1

> <PUBCHEM_ATOM_UDEF_STEREO_COUNT>
0

> <PUBCHEM_BOND_DEF_STEREO_COUNT>
0

> <PUBCHEM_BOND_UDEF_STEREO_COUNT>
0

> <PUBCHEM_ISOTOPIC_ATOM_COUNT>
0

> <PUBCHEM_COMPONENT_COUNT>
1

> <PUBCHEM_CACTVS_TAUTO_COUNT>
294

> <PUBCHEM_CONFORMER_ID>
00B6682500000009

> <PUBCHEM_MMFF94_ENERGY>
94.4973

> <PUBCHEM_FEATURE_SELFOVERLAP>
50.743

> <PUBCHEM_SHAPE_FINGERPRINT>
10366900 7 17604148237326918980
11578080 2 17823414899132701753
11582403 64 16023465092498667952
12236239 1 17632299029522769632
12553582 1 18341050714213893955
12714826 92 18409721838086600467
12788726 201 18342170098365256696
13140716 1 18339930294875024065
13544592 145 18042126607917968808
13583140 156 15213585529263197083
14223421 5 18050863117191663289
14251757 5 18340196479293536957
14386348 63 17894633669056874066
14790565 3 17832412469182066801
15664445 248 17479726123144140533
16752209 62 18271257096480203273
16945 1 18340495555204566529
17804303 29 18410300219878771161
18981168 100 11023565617200911383
20511986 3 17846229873146881452
20600515 1 18337687389707123704
20645476 183 17561075926044763577
20871999 31 18340758295633872964
20905425 154 18046630284886815086
21452121 199 18194125109723771260
21634736 98 18129658591177098108
21781051 124 18202278114079216675
22112679 90 17846508070763027272
23184049 29 18267875981923162505
2334 1 17981051816971938073
23557571 272 18335710407559719824
23559900 14 18334573586215532116
2748010 2 18194413195024402705
3084891 72 18193285306632292841
474 4 16772936005619910388
77492 1 17560803298532196104
9709674 26 18261118456235710445

> <PUBCHEM_SHAPE_MULTIPOLES>
473.4
7.88
3.2
1.61
1.49
0.83
-0.27
2.42
1.91
-3.12
0.37
1.85
0.3
1.18

> <PUBCHEM_SHAPE_SELFOVERLAP>
1030.994

> <PUBCHEM_SHAPE_VOLUME>
256.3

> <PUBCHEM_COORDINATE_TYPE>
2
5
10

$$$$

