442436
  -OEChem-07051212582D

 60 62  0     1  0  0  0  0  0999 V2000
    6.2061   -1.2872    0.0000 O   0  0  0  0  0  0  0  0  0  0  0  0
    8.0018    0.5000    0.0000 O   0  0  0  0  0  0  0  0  0  0  0  0
    3.6629   -0.0208    0.0000 O   0  0  0  0  0  0  0  0  0  0  0  0
    4.5806   -1.5346    0.0000 O   0  0  0  0  0  0  0  0  0  0  0  0
    3.7204    3.0445    0.0000 O   0  0  0  0  0  0  0  0  0  0  0  0
    8.0018    2.2320    0.0000 O   0  0  0  0  0  0  0  0  0  0  0  0
    2.8486   -1.5547    0.0000 O   0  0  0  0  0  0  0  0  0  0  0  0
    4.6037    4.5344    0.0000 O   0  0  0  0  0  0  0  0  0  0  0  0
    6.4140   -0.3090    0.0000 C   0  0  2  0  0  0  0  0  0  0  0  0
    5.4629    0.0000    0.0000 C   0  0  2  0  0  0  0  0  0  0  0  0
    7.1571   -0.9782    0.0000 C   0  0  0  0  0  0  0  0  0  0  0  0
    7.0018    0.5000    0.0000 C   0  0  2  0  0  0  0  0  0  0  0  0
    5.4629    1.0000    0.0000 C   0  0  0  0  0  0  0  0  0  0  0  0
    4.5690   -0.5347    0.0000 C   0  0  1  0  0  0  0  0  0  0  0  0
    6.4140    1.3090    0.0000 C   0  0  0  0  0  0  0  0  0  0  0  0
    4.5690    1.5346    0.0000 C   0  0  0  0  0  0  0  0  0  0  0  0
    3.6629    1.0208    0.0000 C   0  0  0  0  0  0  0  0  0  0  0  0
    4.5806    2.5346    0.0000 C   0  0  0  0  0  0  0  0  0  0  0  0
    8.5018    1.3660    0.0000 C   0  0  0  0  0  0  0  0  0  0  0  0
    3.7204   -2.0446    0.0000 C   0  0  0  0  0  0  0  0  0  0  0  0
    9.5018    1.3660    0.0000 C   0  0  0  0  0  0  0  0  0  0  0  0
    3.7319   -3.0445    0.0000 C   0  0  0  0  0  0  0  0  0  0  0  0
   10.0018    2.2320    0.0000 C   0  0  0  0  0  0  0  0  0  0  0  0
    2.8718   -3.5545    0.0000 C   0  0  0  0  0  0  0  0  0  0  0  0
   11.0018    2.2320    0.0000 C   0  0  0  0  0  0  0  0  0  0  0  0
    9.5018    3.0980    0.0000 C   0  0  0  0  0  0  0  0  0  0  0  0
    3.7319    4.0445    0.0000 C   0  0  0  0  0  0  0  0  0  0  0  0
    2.8833   -4.5545    0.0000 C   0  0  0  0  0  0  0  0  0  0  0  0
    2.0000   -3.0646    0.0000 C   0  0  0  0  0  0  0  0  0  0  0  0
    2.8718    4.5545    0.0000 C   0  0  0  0  0  0  0  0  0  0  0  0
    5.5583   -0.8447    0.0000 H   0  0  0  0  0  0  0  0  0  0  0  0
    7.4482   -1.5256    0.0000 H   0  0  0  0  0  0  0  0  0  0  0  0
    7.6457   -0.5965    0.0000 H   0  0  0  0  0  0  0  0  0  0  0  0
    7.2832   -0.0525    0.0000 H   0  0  0  0  0  0  0  0  0  0  0  0
    4.0351   -0.8499    0.0000 H   0  0  0  0  0  0  0  0  0  0  0  0
    6.6056    1.8986    0.0000 H   0  0  0  0  0  0  0  0  0  0  0  0
    3.1272    1.3328    0.0000 H   0  0  0  0  0  0  0  0  0  0  0  0
    5.1898    2.4198    0.0000 H   0  0  0  0  0  0  0  0  0  0  0  0
    4.7993    3.1147    0.0000 H   0  0  0  0  0  0  0  0  0  0  0  0
    9.3941    0.7554    0.0000 H   0  0  0  0  0  0  0  0  0  0  0  0
   10.0844    1.1539    0.0000 H   0  0  0  0  0  0  0  0  0  0  0  0
    3.9507   -3.6247    0.0000 H   0  0  0  0  0  0  0  0  0  0  0  0
    4.3412   -2.9298    0.0000 H   0  0  0  0  0  0  0  0  0  0  0  0
   10.3118    1.6951    0.0000 H   0  0  0  0  0  0  0  0  0  0  0  0
    2.8646   -2.9346    0.0000 H   0  0  0  0  0  0  0  0  0  0  0  0
   10.0387    3.4080    0.0000 H   0  0  0  0  0  0  0  0  0  0  0  0
    9.1918    3.6350    0.0000 H   0  0  0  0  0  0  0  0  0  0  0  0
    8.9648    2.7880    0.0000 H   0  0  0  0  0  0  0  0  0  0  0  0
   11.0018    1.6120    0.0000 H   0  0  0  0  0  0  0  0  0  0  0  0
   11.6218    2.2320    0.0000 H   0  0  0  0  0  0  0  0  0  0  0  0
   11.0018    2.8520    0.0000 H   0  0  0  0  0  0  0  0  0  0  0  0
    2.2634   -4.5616    0.0000 H   0  0  0  0  0  0  0  0  0  0  0  0
    2.3038   -2.5241    0.0000 H   0  0  0  0  0  0  0  0  0  0  0  0
    1.4595   -2.7608    0.0000 H   0  0  0  0  0  0  0  0  0  0  0  0
    1.6962   -3.6050    0.0000 H   0  0  0  0  0  0  0  0  0  0  0  0
    2.8905   -5.1744    0.0000 H   0  0  0  0  0  0  0  0  0  0  0  0
    3.5033   -4.5473    0.0000 H   0  0  0  0  0  0  0  0  0  0  0  0
    3.1879    5.0878    0.0000 H   0  0  0  0  0  0  0  0  0  0  0  0
    2.3384    4.8706    0.0000 H   0  0  0  0  0  0  0  0  0  0  0  0
    2.5556    4.0211    0.0000 H   0  0  0  0  0  0  0  0  0  0  0  0
  9  1  1  1  0  0  0
  1 11  1  0  0  0  0
 12  2  1  6  0  0  0
  2 19  1  0  0  0  0
  3 14  1  0  0  0  0
  3 17  1  0  0  0  0
 14  4  1  6  0  0  0
  4 20  1  0  0  0  0
  5 18  1  0  0  0  0
  5 27  1  0  0  0  0
  6 19  2  0  0  0  0
  7 20  2  0  0  0  0
  8 27  2  0  0  0  0
  9 10  1  0  0  0  0
  9 11  1  0  0  0  0
  9 12  1  0  0  0  0
 10 13  1  0  0  0  0
 10 14  1  0  0  0  0
 10 31  1  6  0  0  0
 11 32  1  0  0  0  0
 11 33  1  0  0  0  0
 12 15  1  0  0  0  0
 12 34  1  0  0  0  0
 13 15  2  0  0  0  0
 13 16  1  0  0  0  0
 14 35  1  0  0  0  0
 15 36  1  0  0  0  0
 16 17  2  0  0  0  0
 16 18  1  0  0  0  0
 17 37  1  0  0  0  0
 18 38  1  0  0  0  0
 18 39  1  0  0  0  0
 19 21  1  0  0  0  0
 20 22  1  0  0  0  0
 21 23  1  0  0  0  0
 21 40  1  0  0  0  0
 21 41  1  0  0  0  0
 22 24  1  0  0  0  0
 22 42  1  0  0  0  0
 22 43  1  0  0  0  0
 23 25  1  0  0  0  0
 23 26  1  0  0  0  0
 23 44  1  0  0  0  0
 24 28  1  0  0  0  0
 24 29  1  0  0  0  0
 24 45  1  0  0  0  0
 25 49  1  0  0  0  0
 25 50  1  0  0  0  0
 25 51  1  0  0  0  0
 26 46  1  0  0  0  0
 26 47  1  0  0  0  0
 26 48  1  0  0  0  0
 27 30  1  0  0  0  0
 28 52  1  0  0  0  0
 28 56  1  0  0  0  0
 28 57  1  0  0  0  0
 29 53  1  0  0  0  0
 29 54  1  0  0  0  0
 29 55  1  0  0  0  0
 30 58  1  0  0  0  0
 30 59  1  0  0  0  0
 30 60  1  0  0  0  0
M  END
> <PUBCHEM_COMPOUND_CID>
442436

> <PUBCHEM_COMPOUND_CANONICALIZED>
1

> <PUBCHEM_CACTVS_COMPLEXITY>
765

> <PUBCHEM_CACTVS_HBOND_ACCEPTOR>
8

> <PUBCHEM_CACTVS_HBOND_DONOR>
0

> <PUBCHEM_CACTVS_ROTATABLE_BOND>
11

> <PUBCHEM_CACTVS_SUBSKEYS>
AAADceB4PAAAAAAAAAAAAAAAEgAAAQAAAAAgAAAAAAAAAEAAAAAAGgAAAAAADVSwgAMCCAAABACIAiDSCAAACAAgIAAACAEAAAgZBBIAIQAiEAAFwAAOoAPA4DwOgAAAAAAAAAAAAAAAAAAAAAAAAAAAAA==

> <PUBCHEM_IUPAC_OPENEYE_NAME>
[(1S,6S,7R,7aS)-4-(acetoxymethyl)-1-(3-methylbutanoyloxy)spiro[6,7a-dihydro-1H-cyclopenta[c]pyran-7,2'-oxirane]-6-yl] 3-methylbutanoate

> <PUBCHEM_IUPAC_CAS_NAME>
3-methylbutanoic acid [(1S,6S,7R,7aS)-4-(acetyloxymethyl)-1-(3-methyl-1-oxobutoxy)-6-spiro[6,7a-dihydro-1H-cyclopenta[c]pyran-7,2'-oxirane]yl] ester

> <PUBCHEM_IUPAC_NAME>
[(1S,6S,7R,7aS)-4-(acetyloxymethyl)-1-(3-methylbutanoyloxy)spiro[6,7a-dihydro-1H-cyclopenta[c]pyran-7,2'-oxirane]-6-yl] 3-methylbutanoate

> <PUBCHEM_IUPAC_SYSTEMATIC_NAME>
[(1S,6S,7R,7aS)-4-(acetyloxymethyl)-1-(3-methylbutanoyloxy)spiro[6,7a-dihydro-1H-cyclopenta[c]pyran-7,2'-oxirane]-6-yl] 3-methylbutanoate

> <PUBCHEM_IUPAC_TRADITIONAL_NAME>
3-methylbutyric acid [(1S,6S,7R,7aS)-4-(acetoxymethyl)-1-isovaleryloxy-spiro[6,7a-dihydro-1H-cyclopenta[c]pyran-7,2'-oxirane]-6-yl] ester

> <PUBCHEM_IUPAC_INCHI>
InChI=1S/C22H30O8/c1-12(2)6-18(24)29-17-8-16-15(9-26-14(5)23)10-27-21(20(16)22(17)11-28-22)30-19(25)7-13(3)4/h8,10,12-13,17,20-21H,6-7,9,11H2,1-5H3/t17-,20+,21-,22+/m0/s1

> <PUBCHEM_IUPAC_INCHIKEY>
BDIAUFOIMFAIPU-KVJIRVJXSA-N

> <PUBCHEM_XLOGP3_AA>
1.8

> <PUBCHEM_EXACT_MASS>
422.194068

> <PUBCHEM_MOLECULAR_FORMULA>
C22H30O8

> <PUBCHEM_MOLECULAR_WEIGHT>
422.4688

> <PUBCHEM_OPENEYE_CAN_SMILES>
CC(C)CC(=O)OC1C=C2C(C13CO3)C(OC=C2COC(=O)C)OC(=O)CC(C)C

> <PUBCHEM_OPENEYE_ISO_SMILES>
CC(C)CC(=O)O[C@H]1C=C2[C@@H]([C@@]13CO3)[C@@H](OC=C2COC(=O)C)OC(=O)CC(C)C

> <PUBCHEM_CACTVS_TPSA>
101

> <PUBCHEM_MONOISOTOPIC_WEIGHT>
422.194068

> <PUBCHEM_TOTAL_CHARGE>
0

> <PUBCHEM_HEAVY_ATOM_COUNT>
30

> <PUBCHEM_ATOM_DEF_STEREO_COUNT>
4

> <PUBCHEM_ATOM_UDEF_STEREO_COUNT>
0

> <PUBCHEM_BOND_DEF_STEREO_COUNT>
0

> <PUBCHEM_BOND_UDEF_STEREO_COUNT>
0

> <PUBCHEM_ISOTOPIC_ATOM_COUNT>
0

> <PUBCHEM_COMPONENT_COUNT>
1

> <PUBCHEM_CACTVS_TAUTO_COUNT>
1

> <PUBCHEM_COORDINATE_TYPE>
1
5
255

> <PUBCHEM_BONDANNOTATIONS>
9  1  5
10  31  6
12  2  6
14  4  6

$$$$

