12553
  -OEChem-06261207052D

 35 37  0     0  0  0  0  0  0999 V2000
    7.6654    1.6928    0.0000 O   0  0  0  0  0  0  0  0  0  0  0  0
    8.3987   -1.6928    0.0000 O   0  0  0  0  0  0  0  0  0  0  0  0
    8.0321    0.0000    0.0000 N   0  0  0  0  0  0  0  0  0  0  0  0
    5.3364    0.3248    0.0000 C   0  0  0  0  0  0  0  0  0  0  0  0
    4.5274    0.9125    0.0000 C   0  0  0  0  0  0  0  0  0  0  0  0
    5.0274   -0.6263    0.0000 C   0  0  0  0  0  0  0  0  0  0  0  0
    3.7183    0.3248    0.0000 C   0  0  0  0  0  0  0  0  0  0  0  0
    4.0274   -0.6263    0.0000 C   0  0  0  0  0  0  0  0  0  0  0  0
    6.3518    0.5570    0.0000 C   0  0  0  0  0  0  0  0  0  0  0  0
    5.7123   -1.4110    0.0000 C   0  0  0  0  0  0  0  0  0  0  0  0
    7.0547   -0.2117    0.0000 C   0  0  0  0  0  0  0  0  0  0  0  0
    2.7029    0.5570    0.0000 C   0  0  0  0  0  0  0  0  0  0  0  0
    3.3424   -1.4110    0.0000 C   0  0  0  0  0  0  0  0  0  0  0  0
    6.7328   -1.2023    0.0000 C   0  0  0  0  0  0  0  0  0  0  0  0
    2.0000   -0.2117    0.0000 C   0  0  0  0  0  0  0  0  0  0  0  0
    2.3219   -1.2023    0.0000 C   0  0  0  0  0  0  0  0  0  0  0  0
    8.7040   -0.7406    0.0000 C   0  0  0  0  0  0  0  0  0  0  0  0
    8.3374    0.9522    0.0000 C   0  0  0  0  0  0  0  0  0  0  0  0
    9.6814   -0.5289    0.0000 C   0  0  0  0  0  0  0  0  0  0  0  0
    9.3148    1.1639    0.0000 C   0  0  0  0  0  0  0  0  0  0  0  0
    4.9422    1.3733    0.0000 H   0  0  0  0  0  0  0  0  0  0  0  0
    4.1125    1.3733    0.0000 H   0  0  0  0  0  0  0  0  0  0  0  0
    6.5365    1.1488    0.0000 H   0  0  0  0  0  0  0  0  0  0  0  0
    5.5139   -1.9984    0.0000 H   0  0  0  0  0  0  0  0  0  0  0  0
    2.5182    1.1488    0.0000 H   0  0  0  0  0  0  0  0  0  0  0  0
    3.5408   -1.9984    0.0000 H   0  0  0  0  0  0  0  0  0  0  0  0
    7.1459   -1.6647    0.0000 H   0  0  0  0  0  0  0  0  0  0  0  0
    1.3940   -0.0804    0.0000 H   0  0  0  0  0  0  0  0  0  0  0  0
    1.9088   -1.6647    0.0000 H   0  0  0  0  0  0  0  0  0  0  0  0
    9.8126   -1.1348    0.0000 H   0  0  0  0  0  0  0  0  0  0  0  0
   10.2873   -0.3976    0.0000 H   0  0  0  0  0  0  0  0  0  0  0  0
    9.5502    0.0771    0.0000 H   0  0  0  0  0  0  0  0  0  0  0  0
    9.4460    0.5580    0.0000 H   0  0  0  0  0  0  0  0  0  0  0  0
    9.9207    1.2952    0.0000 H   0  0  0  0  0  0  0  0  0  0  0  0
    9.1835    1.7699    0.0000 H   0  0  0  0  0  0  0  0  0  0  0  0
  1 18  2  0  0  0  0
  2 17  2  0  0  0  0
  3 11  1  0  0  0  0
  3 17  1  0  0  0  0
  3 18  1  0  0  0  0
  4  5  1  0  0  0  0
  4  6  2  0  0  0  0
  4  9  1  0  0  0  0
  5  7  1  0  0  0  0
  5 21  1  0  0  0  0
  5 22  1  0  0  0  0
  6  8  1  0  0  0  0
  6 10  1  0  0  0  0
  7  8  1  0  0  0  0
  7 12  2  0  0  0  0
  8 13  2  0  0  0  0
  9 11  2  0  0  0  0
  9 23  1  0  0  0  0
 10 14  2  0  0  0  0
 10 24  1  0  0  0  0
 11 14  1  0  0  0  0
 12 15  1  0  0  0  0
 12 25  1  0  0  0  0
 13 16  1  0  0  0  0
 13 26  1  0  0  0  0
 14 27  1  0  0  0  0
 15 16  2  0  0  0  0
 15 28  1  0  0  0  0
 16 29  1  0  0  0  0
 17 19  1  0  0  0  0
 18 20  1  0  0  0  0
 19 30  1  0  0  0  0
 19 31  1  0  0  0  0
 19 32  1  0  0  0  0
 20 33  1  0  0  0  0
 20 34  1  0  0  0  0
 20 35  1  0  0  0  0
M  END
> <PUBCHEM_COMPOUND_CID>
12553

> <PUBCHEM_COMPOUND_CANONICALIZED>
1

> <PUBCHEM_CACTVS_COMPLEXITY>
392

> <PUBCHEM_CACTVS_HBOND_ACCEPTOR>
2

> <PUBCHEM_CACTVS_HBOND_DONOR>
0

> <PUBCHEM_CACTVS_ROTATABLE_BOND>
1

> <PUBCHEM_CACTVS_SUBSKEYS>
AAADccB6MAAAAAAAAAAAAAAAAAAAAYAAAAAwYAAAAAAAAGABQAAAHgAAAAAADAiBmAAywIMAAACIAiVSUACCAAAhAgAIiAAAZIgIICLAkZGEIAhghCDIyAcQgMAOiAAAQAAQAAAQAACAACAAAQAACAAAAA==

> <PUBCHEM_IUPAC_OPENEYE_NAME>
N-acetyl-N-(9H-fluoren-2-yl)acetamide

> <PUBCHEM_IUPAC_CAS_NAME>
N-acetyl-N-(9H-fluoren-2-yl)acetamide

> <PUBCHEM_IUPAC_NAME>
N-acetyl-N-(9H-fluoren-2-yl)acetamide

> <PUBCHEM_IUPAC_SYSTEMATIC_NAME>
N-ethanoyl-N-(9H-fluoren-2-yl)ethanamide

> <PUBCHEM_IUPAC_TRADITIONAL_NAME>
N-acetyl-N-(9H-fluoren-2-yl)acetamide

> <PUBCHEM_IUPAC_INCHI>
InChI=1S/C17H15NO2/c1-11(19)18(12(2)20)15-7-8-17-14(10-15)9-13-5-3-4-6-16(13)17/h3-8,10H,9H2,1-2H3

> <PUBCHEM_IUPAC_INCHIKEY>
CUEUMJJOLJYAPL-UHFFFAOYSA-N

> <PUBCHEM_XLOGP3>
3

> <PUBCHEM_EXACT_MASS>
265.110279

> <PUBCHEM_MOLECULAR_FORMULA>
C17H15NO2

> <PUBCHEM_MOLECULAR_WEIGHT>
265.3065

> <PUBCHEM_OPENEYE_CAN_SMILES>
CC(=O)N(C1=CC2=C(C=C1)C3=CC=CC=C3C2)C(=O)C

> <PUBCHEM_OPENEYE_ISO_SMILES>
CC(=O)N(C1=CC2=C(C=C1)C3=CC=CC=C3C2)C(=O)C

> <PUBCHEM_CACTVS_TPSA>
37.4

> <PUBCHEM_MONOISOTOPIC_WEIGHT>
265.110279

> <PUBCHEM_TOTAL_CHARGE>
0

> <PUBCHEM_HEAVY_ATOM_COUNT>
20

> <PUBCHEM_ATOM_DEF_STEREO_COUNT>
0

> <PUBCHEM_ATOM_UDEF_STEREO_COUNT>
0

> <PUBCHEM_BOND_DEF_STEREO_COUNT>
0

> <PUBCHEM_BOND_UDEF_STEREO_COUNT>
0

> <PUBCHEM_ISOTOPIC_ATOM_COUNT>
0

> <PUBCHEM_COMPONENT_COUNT>
1

> <PUBCHEM_CACTVS_TAUTO_COUNT>
1

> <PUBCHEM_COORDINATE_TYPE>
1
5
255

> <PUBCHEM_BONDANNOTATIONS>
10  14  8
11  14  8
12  15  8
13  16  8
15  16  8
4  6  8
4  9  8
6  10  8
7  12  8
7  8  8
8  13  8
9  11  8

$$$$

