12242
  -OEChem-06261206423D

 27 26  0     0  0  0  0  0  0999 V2000
    2.9567    1.0815   -0.1124 O   0  0  0  0  0  0  0  0  0  0  0  0
    1.9931    0.0248   -0.0022 C   0  0  0  0  0  0  0  0  0  0  0  0
    0.5943    0.6642   -0.1184 C   0  0  0  0  0  0  0  0  0  0  0  0
   -0.5853   -0.3045    0.0051 C   0  0  0  0  0  0  0  0  0  0  0  0
   -1.9203    0.4433   -0.0522 C   0  0  0  0  0  0  0  0  0  0  0  0
    2.2745   -0.9760   -1.1250 C   0  0  0  0  0  0  0  0  0  0  0  0
    2.2192   -0.6303    1.3609 C   0  0  0  0  0  0  0  0  0  0  0  0
   -3.1024   -0.5221    0.0337 C   0  0  0  0  0  0  0  0  0  0  0  0
   -4.4297    0.2189    0.0105 C   0  0  0  0  0  0  0  0  0  0  0  0
    0.5268    1.1985   -1.0760 H   0  0  0  0  0  0  0  0  0  0  0  0
    0.5023    1.4463    0.6479 H   0  0  0  0  0  0  0  0  0  0  0  0
   -0.5290   -0.8537    0.9510 H   0  0  0  0  0  0  0  0  0  0  0  0
   -0.5499   -1.0414   -0.8048 H   0  0  0  0  0  0  0  0  0  0  0  0
   -1.9826    1.0158   -0.9857 H   0  0  0  0  0  0  0  0  0  0  0  0
   -1.9725    1.1638    0.7732 H   0  0  0  0  0  0  0  0  0  0  0  0
    3.3137   -1.3236   -1.0890 H   0  0  0  0  0  0  0  0  0  0  0  0
    1.6225   -1.8528   -1.0680 H   0  0  0  0  0  0  0  0  0  0  0  0
    2.1410   -0.5051   -2.1055 H   0  0  0  0  0  0  0  0  0  0  0  0
    2.0282    0.0824    2.1714 H   0  0  0  0  0  0  0  0  0  0  0  0
    1.5808   -1.5062    1.5099 H   0  0  0  0  0  0  0  0  0  0  0  0
    3.2614   -0.9518    1.4734 H   0  0  0  0  0  0  0  0  0  0  0  0
   -3.0686   -1.2278   -0.8044 H   0  0  0  0  0  0  0  0  0  0  0  0
   -3.0366   -1.1104    0.9563 H   0  0  0  0  0  0  0  0  0  0  0  0
    3.8451    0.6903   -0.0546 H   0  0  0  0  0  0  0  0  0  0  0  0
   -5.2610   -0.4904    0.0718 H   0  0  0  0  0  0  0  0  0  0  0  0
   -4.5089    0.9089    0.8567 H   0  0  0  0  0  0  0  0  0  0  0  0
   -4.5415    0.7943   -0.9140 H   0  0  0  0  0  0  0  0  0  0  0  0
  1  2  1  0  0  0  0
  1 24  1  0  0  0  0
  2  3  1  0  0  0  0
  2  6  1  0  0  0  0
  2  7  1  0  0  0  0
  3  4  1  0  0  0  0
  3 10  1  0  0  0  0
  3 11  1  0  0  0  0
  4  5  1  0  0  0  0
  4 12  1  0  0  0  0
  4 13  1  0  0  0  0
  5  8  1  0  0  0  0
  5 14  1  0  0  0  0
  5 15  1  0  0  0  0
  6 16  1  0  0  0  0
  6 17  1  0  0  0  0
  6 18  1  0  0  0  0
  7 19  1  0  0  0  0
  7 20  1  0  0  0  0
  7 21  1  0  0  0  0
  8  9  1  0  0  0  0
  8 22  1  0  0  0  0
  8 23  1  0  0  0  0
  9 25  1  0  0  0  0
  9 26  1  0  0  0  0
  9 27  1  0  0  0  0
M  END
> <PUBCHEM_COMPOUND_CID>
12242

> <PUBCHEM_CONFORMER_RMSD>
0.6

> <PUBCHEM_CONFORMER_DIVERSEORDER>
1
24
16
10
25
22
8
6
21
4
28
5
14
2
27
12
19
18
26
15
13
20
23
11
7
17
9
3

> <PUBCHEM_MMFF94_PARTIAL_CHARGES>
3
1 -0.68
2 0.28
24 0.4

> <PUBCHEM_EFFECTIVE_ROTOR_COUNT>
4

> <PUBCHEM_PHARMACOPHORE_FEATURES>
5
1 1 acceptor
1 1 donor
1 9 hydrophobe
3 2 6 7 hydrophobe
4 3 4 5 8 hydrophobe

> <PUBCHEM_HEAVY_ATOM_COUNT>
9

> <PUBCHEM_ATOM_DEF_STEREO_COUNT>
0

> <PUBCHEM_ATOM_UDEF_STEREO_COUNT>
0

> <PUBCHEM_BOND_DEF_STEREO_COUNT>
0

> <PUBCHEM_BOND_UDEF_STEREO_COUNT>
0

> <PUBCHEM_ISOTOPIC_ATOM_COUNT>
0

> <PUBCHEM_COMPONENT_COUNT>
1

> <PUBCHEM_CACTVS_TAUTO_COUNT>
1

> <PUBCHEM_CONFORMER_ID>
00002FD200000001

> <PUBCHEM_MMFF94_ENERGY>
8.7488

> <PUBCHEM_FEATURE_SELFOVERLAP>
25.372

> <PUBCHEM_SHAPE_FINGERPRINT>
11062470 55 18341895177882887053
12932764 1 17917996079133318791
14325111 11 18335137588045355727
170605 34 18341048510985237764
190213 19 18113900468411885843
20645477 70 17967810604481316615
22485316 2 17846785087827194915
3248919 1 18187367631813754931
581208 293 18040439897094064191
8030462 33 17418085572228001653

> <PUBCHEM_SHAPE_MULTIPOLES>
179.35
6.79
0.98
0.97
6.88
0.17
0.32
-0.03
0.04
-0.58
-0.18
-0.72
0.02
0.15

> <PUBCHEM_SHAPE_SELFOVERLAP>
319.93

> <PUBCHEM_SHAPE_VOLUME>
118.1

> <PUBCHEM_COORDINATE_TYPE>
2
5
10

$$$$

