442057
  -OEChem-07051212563D

 73 78  0     1  0  0  0  0  0999 V2000
   -0.2746    2.7949   -2.1410 O   0  0  0  0  0  0  0  0  0  0  0  0
    1.3605    3.1324   -0.1650 O   0  0  0  0  0  0  0  0  0  0  0  0
    0.0871   -1.4568   -0.7932 O   0  0  0  0  0  0  0  0  0  0  0  0
    3.2595    1.2220    0.1753 O   0  0  0  0  0  0  0  0  0  0  0  0
   -7.3587   -1.3636    0.4620 O   0  0  0  0  0  0  0  0  0  0  0  0
   -5.4491   -3.4757    0.3848 O   0  0  0  0  0  0  0  0  0  0  0  0
    4.2277   -0.8446   -0.3105 O   0  0  0  0  0  0  0  0  0  0  0  0
    5.8098    2.2267    0.8787 O   0  0  0  0  0  0  0  0  0  0  0  0
    7.6108    0.0937    1.8206 O   0  0  0  0  0  0  0  0  0  0  0  0
    7.6614   -2.0951   -0.0669 O   0  0  0  0  0  0  0  0  0  0  0  0
    3.9792   -3.0642   -1.9129 O   0  0  0  0  0  0  0  0  0  0  0  0
   -1.5016    1.4662   -0.3942 C   0  0  1  0  0  0  0  0  0  0  0  0
   -1.8617   -0.0727   -0.3289 C   0  0  2  0  0  0  0  0  0  0  0  0
    0.3994    1.3103    1.0287 C   0  0  2  0  0  0  0  0  0  0  0  0
   -3.2918   -0.4221    0.2669 C   0  0  1  0  0  0  0  0  0  0  0  0
   -0.9879    1.9518    0.9720 C   0  0  0  0  0  0  0  0  0  0  0  0
   -0.2155    1.6494   -1.2985 C   0  0  2  0  0  0  0  0  0  0  0  0
    0.9836    1.7523   -0.3234 C   0  0  1  0  0  0  0  0  0  0  0  0
   -2.6820    2.3178   -0.8972 C   0  0  0  0  0  0  0  0  0  0  0  0
   -0.7057   -0.9260    0.2750 C   0  0  2  0  0  0  0  0  0  0  0  0
   -4.3440    0.5158   -0.4368 C   0  0  2  0  0  0  0  0  0  0  0  0
    0.2361   -0.1995    1.2490 C   0  0  0  0  0  0  0  0  0  0  0  0
   -4.0224    1.9945   -0.2457 C   0  0  0  0  0  0  0  0  0  0  0  0
   -3.6627   -1.9174   -0.0888 C   0  0  0  0  0  0  0  0  0  0  0  0
   -3.3479   -0.2963    1.8127 C   0  0  0  0  0  0  0  0  0  0  0  0
    2.2360    1.0176   -0.7830 C   0  0  0  0  0  0  0  0  0  0  0  0
   -5.7354    0.1122   -0.0713 C   0  0  0  0  0  0  0  0  0  0  0  0
   -5.1226   -2.3068    0.1997 C   0  0  0  0  0  0  0  0  0  0  0  0
   -6.0424   -1.2061    0.1834 C   0  0  0  0  0  0  0  0  0  0  0  0
   -6.9532    0.8200    0.0540 C   0  0  0  0  0  0  0  0  0  0  0  0
   -7.9079   -0.1200    0.3811 C   0  0  0  0  0  0  0  0  0  0  0  0
    4.4672    0.5558   -0.1922 C   0  0  2  0  0  0  0  0  0  0  0  0
    5.5064    0.8320    0.8943 C   0  0  1  0  0  0  0  0  0  0  0  0
    6.7867    0.0314    0.6555 C   0  0  2  0  0  0  0  0  0  0  0  0
    5.3953   -1.5690   -0.7019 C   0  0  1  0  0  0  0  0  0  0  0  0
    6.4759   -1.4386    0.3741 C   0  0  1  0  0  0  0  0  0  0  0  0
    4.9844   -3.0223   -0.9166 C   0  0  0  0  0  0  0  0  0  0  0  0
   -1.9427   -0.3763   -1.3857 H   0  0  0  0  0  0  0  0  0  0  0  0
    0.9681    1.7379    1.8634 H   0  0  0  0  0  0  0  0  0  0  0  0
   -1.5974    1.6591    1.8236 H   0  0  0  0  0  0  0  0  0  0  0  0
   -0.9220    3.0459    1.0104 H   0  0  0  0  0  0  0  0  0  0  0  0
   -0.0941    0.7880   -1.9637 H   0  0  0  0  0  0  0  0  0  0  0  0
   -2.8009    2.1631   -1.9779 H   0  0  0  0  0  0  0  0  0  0  0  0
   -2.4707    3.3858   -0.7615 H   0  0  0  0  0  0  0  0  0  0  0  0
   -1.0959   -1.8103    0.7846 H   0  0  0  0  0  0  0  0  0  0  0  0
   -4.2759    0.3191   -1.5196 H   0  0  0  0  0  0  0  0  0  0  0  0
    1.2235   -0.6763    1.2619 H   0  0  0  0  0  0  0  0  0  0  0  0
   -0.1716   -0.3288    2.2605 H   0  0  0  0  0  0  0  0  0  0  0  0
   -4.0205    2.2825    0.8103 H   0  0  0  0  0  0  0  0  0  0  0  0
   -4.7911    2.6137   -0.7252 H   0  0  0  0  0  0  0  0  0  0  0  0
   -3.0340   -2.6150    0.4746 H   0  0  0  0  0  0  0  0  0  0  0  0
   -3.4940   -2.1013   -1.1572 H   0  0  0  0  0  0  0  0  0  0  0  0
   -3.3451    0.7375    2.1573 H   0  0  0  0  0  0  0  0  0  0  0  0
   -4.2582   -0.7380    2.2318 H   0  0  0  0  0  0  0  0  0  0  0  0
   -2.5158   -0.8170    2.2938 H   0  0  0  0  0  0  0  0  0  0  0  0
    2.5704    1.4389   -1.7395 H   0  0  0  0  0  0  0  0  0  0  0  0
    2.0471   -0.0463   -0.9311 H   0  0  0  0  0  0  0  0  0  0  0  0
   -0.8791    2.5914   -2.8743 H   0  0  0  0  0  0  0  0  0  0  0  0
    0.5877    3.6925   -0.3467 H   0  0  0  0  0  0  0  0  0  0  0  0
    0.7292   -2.0761   -0.4060 H   0  0  0  0  0  0  0  0  0  0  0  0
   -7.1260    1.8779   -0.0808 H   0  0  0  0  0  0  0  0  0  0  0  0
   -8.9691   -0.0674    0.5759 H   0  0  0  0  0  0  0  0  0  0  0  0
    4.8022    0.9634   -1.1557 H   0  0  0  0  0  0  0  0  0  0  0  0
    5.0969    0.6043    1.8864 H   0  0  0  0  0  0  0  0  0  0  0  0
    7.3739    0.4725   -0.1585 H   0  0  0  0  0  0  0  0  0  0  0  0
    5.7461   -1.1702   -1.6636 H   0  0  0  0  0  0  0  0  0  0  0  0
    6.1543   -1.9312    1.3000 H   0  0  0  0  0  0  0  0  0  0  0  0
    4.9757    2.7075    1.0170 H   0  0  0  0  0  0  0  0  0  0  0  0
    4.5678   -3.4601   -0.0034 H   0  0  0  0  0  0  0  0  0  0  0  0
    5.8260   -3.6362   -1.2500 H   0  0  0  0  0  0  0  0  0  0  0  0
    7.1080   -0.2746    2.5670 H   0  0  0  0  0  0  0  0  0  0  0  0
    7.9477   -1.6738   -0.8953 H   0  0  0  0  0  0  0  0  0  0  0  0
    3.2381   -2.5139   -1.6065 H   0  0  0  0  0  0  0  0  0  0  0  0
  1 17  1  0  0  0  0
  1 58  1  0  0  0  0
  2 18  1  0  0  0  0
  2 59  1  0  0  0  0
  3 20  1  0  0  0  0
  3 60  1  0  0  0  0
  4 26  1  0  0  0  0
  4 32  1  0  0  0  0
  5 29  1  0  0  0  0
  5 31  1  0  0  0  0
  6 28  2  0  0  0  0
  7 32  1  0  0  0  0
  7 35  1  0  0  0  0
  8 33  1  0  0  0  0
  8 68  1  0  0  0  0
  9 34  1  0  0  0  0
  9 71  1  0  0  0  0
 10 36  1  0  0  0  0
 10 72  1  0  0  0  0
 11 37  1  0  0  0  0
 11 73  1  0  0  0  0
 12 13  1  0  0  0  0
 12 16  1  0  0  0  0
 12 17  1  0  0  0  0
 12 19  1  0  0  0  0
 13 15  1  0  0  0  0
 13 20  1  0  0  0  0
 13 38  1  0  0  0  0
 14 16  1  0  0  0  0
 14 18  1  0  0  0  0
 14 22  1  0  0  0  0
 14 39  1  0  0  0  0
 15 21  1  0  0  0  0
 15 24  1  0  0  0  0
 15 25  1  0  0  0  0
 16 40  1  0  0  0  0
 16 41  1  0  0  0  0
 17 18  1  0  0  0  0
 17 42  1  0  0  0  0
 18 26  1  0  0  0  0
 19 23  1  0  0  0  0
 19 43  1  0  0  0  0
 19 44  1  0  0  0  0
 20 22  1  0  0  0  0
 20 45  1  0  0  0  0
 21 23  1  0  0  0  0
 21 27  1  0  0  0  0
 21 46  1  0  0  0  0
 22 47  1  0  0  0  0
 22 48  1  0  0  0  0
 23 49  1  0  0  0  0
 23 50  1  0  0  0  0
 24 28  1  0  0  0  0
 24 51  1  0  0  0  0
 24 52  1  0  0  0  0
 25 53  1  0  0  0  0
 25 54  1  0  0  0  0
 25 55  1  0  0  0  0
 26 56  1  0  0  0  0
 26 57  1  0  0  0  0
 27 29  2  0  0  0  0
 27 30  1  0  0  0  0
 28 29  1  0  0  0  0
 30 31  2  0  0  0  0
 30 61  1  0  0  0  0
 31 62  1  0  0  0  0
 32 33  1  0  0  0  0
 32 63  1  0  0  0  0
 33 34  1  0  0  0  0
 33 64  1  0  0  0  0
 34 36  1  0  0  0  0
 34 65  1  0  0  0  0
 35 36  1  0  0  0  0
 35 37  1  0  0  0  0
 35 66  1  0  0  0  0
 36 67  1  0  0  0  0
 37 69  1  0  0  0  0
 37 70  1  0  0  0  0
M  END
> <PUBCHEM_COMPOUND_CID>
442057

> <PUBCHEM_CONFORMER_RMSD>
1

> <PUBCHEM_CONFORMER_DIVERSEORDER>
3
9
12
7
5
10
2
16
14
8
11
6
4
1
15
13

> <PUBCHEM_MMFF94_PARTIAL_CHARGES>
37
1 -0.68
10 -0.68
11 -0.68
17 0.28
18 0.28
2 -0.68
20 0.28
21 0.18
24 0.06
26 0.28
27 -0.18
28 0.59
29 0.05
3 -0.68
30 -0.15
31 -0.01
32 0.56
33 0.28
34 0.28
35 0.28
36 0.28
37 0.28
4 -0.56
5 -0.28
58 0.4
59 0.4
6 -0.57
60 0.4
61 0.15
62 0.15
68 0.4
7 -0.56
71 0.4
72 0.4
73 0.4
8 -0.68
9 -0.68

> <PUBCHEM_EFFECTIVE_ROTOR_COUNT>
6.8

> <PUBCHEM_PHARMACOPHORE_FEATURES>
23
1 1 acceptor
1 1 donor
1 10 acceptor
1 10 donor
1 11 acceptor
1 11 donor
1 2 acceptor
1 2 donor
1 3 acceptor
1 3 donor
1 4 acceptor
1 5 acceptor
1 6 acceptor
1 7 acceptor
1 8 acceptor
1 8 donor
1 9 acceptor
1 9 donor
5 5 27 29 30 31 rings
6 12 13 15 19 21 23 rings
6 15 21 24 27 28 29 rings
6 7 32 33 34 35 36 rings
8 12 13 14 16 17 18 20 22 rings

> <PUBCHEM_HEAVY_ATOM_COUNT>
37

> <PUBCHEM_ATOM_DEF_STEREO_COUNT>
13

> <PUBCHEM_ATOM_UDEF_STEREO_COUNT>
0

> <PUBCHEM_BOND_DEF_STEREO_COUNT>
0

> <PUBCHEM_BOND_UDEF_STEREO_COUNT>
0

> <PUBCHEM_ISOTOPIC_ATOM_COUNT>
0

> <PUBCHEM_COMPONENT_COUNT>
1

> <PUBCHEM_CACTVS_TAUTO_COUNT>
2

> <PUBCHEM_CONFORMER_ID>
0006BEC900000003

> <PUBCHEM_MMFF94_ENERGY>
144.7823

> <PUBCHEM_FEATURE_SELFOVERLAP>
116.929

> <PUBCHEM_SHAPE_FINGERPRINT>
10 15 6266899065255935453
10580692 12 18409448072755820017
11135926 11 18201729466135087575
11331351 85 18342738507755426741
11456790 92 18114729475031912033
11578080 2 5760554096953365259
117089 54 17244967583449458430
11991303 11 14045730500693258009
12422481 6 18260265222807943151
13533116 47 17967534588740049136
13782708 43 18337111172551563441
13811026 1 18409452517682597638
14294032 229 16413802719860064445
14556957 393 14979674454785813430
14856354 85 15339113542713116955
15131766 46 16011592316844448184
15183329 4 18341322349087882150
15352257 5 18408323289229029858
15510800 12 18272639147815008938
18603816 31 17749683900633225623
18608769 82 18410015438098976306
19841028 212 18270965760538975050
21130935 74 18335983064905001899
21267235 1 18131067122235022545
21623969 137 18040435512412476934
21781051 124 16701722883608516097
23559900 14 18338522933108916209
249057 3 18272089379938793943
3004659 81 18060415820706555004
3103668 31 17774450502780481365
335352 9 18342177740050813437
3383291 50 18202843240990538875
3986486 107 10375602563983448066
404807 14 17830160656382642086
4066623 53 14764628604041060070
5104073 3 17968092087995090744
5758199 1 6988326040768136437
9831232 110 18339640161476411846

> <PUBCHEM_SHAPE_MULTIPOLES>
696.88
20.95
3.25
1.28
9.69
0.89
0.04
11.25
-4.21
0.71
1.01
0.96
-0.18
2.05

> <PUBCHEM_SHAPE_SELFOVERLAP>
1519.936

> <PUBCHEM_SHAPE_VOLUME>
374.8

> <PUBCHEM_COORDINATE_TYPE>
2
5
10

$$$$

