51090961
  -OEChem-06241223012D

 37 39  0     0  0  0  0  0  0999 V2000
   11.5054    1.8512    0.0000 O   0  0  0  0  0  0  0  0  0  0  0  0
    3.4945   -2.3512    0.0000 O   0  0  0  0  0  0  0  0  0  0  0  0
    5.4432    0.3512    0.0000 O   0  0  0  0  0  0  0  0  0  0  0  0
    9.7734    0.8512    0.0000 N   0  0  0  0  0  0  0  0  0  0  0  0
    8.0413   -1.1488    0.0000 N   0  0  0  0  0  0  0  0  0  0  0  0
    6.3092   -1.1488    0.0000 N   0  0  0  0  0  0  0  0  0  0  0  0
    4.4727   -2.1433    0.0000 N   0  0  0  0  0  0  0  0  0  0  0  0
   10.6394    0.3512    0.0000 C   0  0  0  0  0  0  0  0  0  0  0  0
    9.7734    1.8512    0.0000 C   0  0  0  0  0  0  0  0  0  0  0  0
   10.6394    2.3512    0.0000 C   0  0  0  0  0  0  0  0  0  0  0  0
   11.5054    0.8512    0.0000 C   0  0  0  0  0  0  0  0  0  0  0  0
    8.9073    0.3512    0.0000 C   0  0  0  0  0  0  0  0  0  0  0  0
    8.0413    0.8512    0.0000 C   0  0  0  0  0  0  0  0  0  0  0  0
    8.9073   -0.6488    0.0000 C   0  0  0  0  0  0  0  0  0  0  0  0
    7.1753    0.3512    0.0000 C   0  0  0  0  0  0  0  0  0  0  0  0
    7.1753   -0.6488    0.0000 C   0  0  0  0  0  0  0  0  0  0  0  0
    5.4432   -0.6488    0.0000 C   0  0  0  0  0  0  0  0  0  0  0  0
    4.5772   -1.1488    0.0000 C   0  0  0  0  0  0  0  0  0  0  0  0
    3.6636   -0.7420    0.0000 C   0  0  0  0  0  0  0  0  0  0  0  0
    2.9945   -1.4852    0.0000 C   0  0  0  0  0  0  0  0  0  0  0  0
    2.0000   -1.3807    0.0000 C   0  0  0  0  0  0  0  0  0  0  0  0
    9.5613    2.4338    0.0000 H   0  0  0  0  0  0  0  0  0  0  0  0
    9.1628    1.7436    0.0000 H   0  0  0  0  0  0  0  0  0  0  0  0
   10.2408   -0.1237    0.0000 H   0  0  0  0  0  0  0  0  0  0  0  0
   11.0379   -0.1237    0.0000 H   0  0  0  0  0  0  0  0  0  0  0  0
   11.0379    2.8262    0.0000 H   0  0  0  0  0  0  0  0  0  0  0  0
   10.2408    2.8262    0.0000 H   0  0  0  0  0  0  0  0  0  0  0  0
   11.7175    0.2686    0.0000 H   0  0  0  0  0  0  0  0  0  0  0  0
   12.1160    0.9589    0.0000 H   0  0  0  0  0  0  0  0  0  0  0  0
    8.0413    1.4712    0.0000 H   0  0  0  0  0  0  0  0  0  0  0  0
    9.4443   -0.9588    0.0000 H   0  0  0  0  0  0  0  0  0  0  0  0
    6.6383    0.6612    0.0000 H   0  0  0  0  0  0  0  0  0  0  0  0
    6.3092   -1.7688    0.0000 H   0  0  0  0  0  0  0  0  0  0  0  0
    3.5348   -0.1356    0.0000 H   0  0  0  0  0  0  0  0  0  0  0  0
    2.0648   -0.7641    0.0000 H   0  0  0  0  0  0  0  0  0  0  0  0
    1.3834   -1.3159    0.0000 H   0  0  0  0  0  0  0  0  0  0  0  0
    1.9352   -1.9973    0.0000 H   0  0  0  0  0  0  0  0  0  0  0  0
  1 10  1  0  0  0  0
  1 11  1  0  0  0  0
  2  7  1  0  0  0  0
  2 20  1  0  0  0  0
  3 17  2  0  0  0  0
  4  8  1  0  0  0  0
  4  9  1  0  0  0  0
  4 12  1  0  0  0  0
  5 14  1  0  0  0  0
  5 16  2  0  0  0  0
  6 16  1  0  0  0  0
  6 17  1  0  0  0  0
  6 33  1  0  0  0  0
  7 18  2  0  0  0  0
  8 11  1  0  0  0  0
  8 24  1  0  0  0  0
  8 25  1  0  0  0  0
  9 10  1  0  0  0  0
  9 22  1  0  0  0  0
  9 23  1  0  0  0  0
 10 26  1  0  0  0  0
 10 27  1  0  0  0  0
 11 28  1  0  0  0  0
 11 29  1  0  0  0  0
 12 13  1  0  0  0  0
 12 14  2  0  0  0  0
 13 15  2  0  0  0  0
 13 30  1  0  0  0  0
 14 31  1  0  0  0  0
 15 16  1  0  0  0  0
 15 32  1  0  0  0  0
 17 18  1  0  0  0  0
 18 19  1  0  0  0  0
 19 20  2  0  0  0  0
 19 34  1  0  0  0  0
 20 21  1  0  0  0  0
 21 35  1  0  0  0  0
 21 36  1  0  0  0  0
 21 37  1  0  0  0  0
M  END
> <PUBCHEM_COMPOUND_CID>
51090961

> <PUBCHEM_COMPOUND_CANONICALIZED>
1

> <PUBCHEM_CACTVS_COMPLEXITY>
362

> <PUBCHEM_CACTVS_HBOND_ACCEPTOR>
6

> <PUBCHEM_CACTVS_HBOND_DONOR>
1

> <PUBCHEM_CACTVS_ROTATABLE_BOND>
3

> <PUBCHEM_CACTVS_SUBSKEYS>
AAADceBzsAAAAAAAAAAAAAAAAAAAAWAAAAAsWAAAAAAAAAAB4AAAHgAUAAAACAzhlgY/9JPYFACpAbd3dgCCgCk3MiAp2CG+fNqKZvrAnZOXMYhulRrYyeY/AAAAAAAAAAAAAAAAAAAAAAAAAAAAAAAAAA==

> <PUBCHEM_IUPAC_OPENEYE_NAME>
5-methyl-N-(5-morpholino-2-pyridyl)isoxazole-3-carboxamide

> <PUBCHEM_IUPAC_CAS_NAME>
5-methyl-N-[5-(4-morpholinyl)-2-pyridinyl]-3-isoxazolecarboxamide

> <PUBCHEM_IUPAC_NAME>
5-methyl-N-(5-morpholin-4-ylpyridin-2-yl)-1,2-oxazole-3-carboxamide

> <PUBCHEM_IUPAC_SYSTEMATIC_NAME>
5-methyl-N-(5-morpholin-4-ylpyridin-2-yl)-1,2-oxazole-3-carboxamide

> <PUBCHEM_IUPAC_TRADITIONAL_NAME>
5-methyl-N-(5-morpholino-2-pyridyl)isoxazole-3-carboxamide

> <PUBCHEM_IUPAC_INCHI>
InChI=1S/C14H16N4O3/c1-10-8-12(17-21-10)14(19)16-13-3-2-11(9-15-13)18-4-6-20-7-5-18/h2-3,8-9H,4-7H2,1H3,(H,15,16,19)

> <PUBCHEM_IUPAC_INCHIKEY>
CYUOJWKAJZRARO-UHFFFAOYSA-N

> <PUBCHEM_XLOGP3_AA>
1

> <PUBCHEM_EXACT_MASS>
288.12224

> <PUBCHEM_MOLECULAR_FORMULA>
C14H16N4O3

> <PUBCHEM_MOLECULAR_WEIGHT>
288.30184

> <PUBCHEM_OPENEYE_CAN_SMILES>
CC1=CC(=NO1)C(=O)NC2=NC=C(C=C2)N3CCOCC3

> <PUBCHEM_OPENEYE_ISO_SMILES>
CC1=CC(=NO1)C(=O)NC2=NC=C(C=C2)N3CCOCC3

> <PUBCHEM_CACTVS_TPSA>
80.5

> <PUBCHEM_MONOISOTOPIC_WEIGHT>
288.12224

> <PUBCHEM_TOTAL_CHARGE>
0

> <PUBCHEM_HEAVY_ATOM_COUNT>
21

> <PUBCHEM_ATOM_DEF_STEREO_COUNT>
0

> <PUBCHEM_ATOM_UDEF_STEREO_COUNT>
0

> <PUBCHEM_BOND_DEF_STEREO_COUNT>
0

> <PUBCHEM_BOND_UDEF_STEREO_COUNT>
0

> <PUBCHEM_ISOTOPIC_ATOM_COUNT>
0

> <PUBCHEM_COMPONENT_COUNT>
1

> <PUBCHEM_CACTVS_TAUTO_COUNT>
3

> <PUBCHEM_COORDINATE_TYPE>
1
5
255

> <PUBCHEM_BONDANNOTATIONS>
12  13  8
12  14  8
13  15  8
15  16  8
18  19  8
19  20  8
2  20  8
2  7  8
5  14  8
5  16  8
7  18  8

$$$$

