961
  -OEChem-07051212452D

  2  1  0     0  0  0  0  0  0999 V2000
    2.0000    0.0000    0.0000 O   0  5  0  0  0  0  0  0  0  0  0  0
    3.0000    0.0000    0.0000 H   0  0  0  0  0  0  0  0  0  0  0  0
  1  2  1  0  0  0  0
M  CHG  1   1  -1
M  END
> <PUBCHEM_COMPOUND_CID>
961

> <PUBCHEM_COMPOUND_CANONICALIZED>
1

> <PUBCHEM_CACTVS_COMPLEXITY>
0

> <PUBCHEM_CACTVS_HBOND_ACCEPTOR>
1

> <PUBCHEM_CACTVS_HBOND_DONOR>
1

> <PUBCHEM_CACTVS_ROTATABLE_BOND>
0

> <PUBCHEM_CACTVS_SUBSKEYS>
AAADcQAAIAAAAAAAAAAAAAAAAAAAAAAAAAAAAAAAAAAAAAAAAAAAAAAACAAAAAAAAAAAAAAAAAAAAAAAAAAAAAAAAAAAAAAAAAAAAAAAAAAAAAAAAAAAAAAAAAAAAAAAAAAAAAAAAAAAAAAAAAAAAAAAAA==

> <PUBCHEM_IUPAC_OPENEYE_NAME>
hydroxide

> <PUBCHEM_IUPAC_CAS_NAME>
hydroxide

> <PUBCHEM_IUPAC_NAME>
hydroxide

> <PUBCHEM_IUPAC_SYSTEMATIC_NAME>
hydroxide

> <PUBCHEM_IUPAC_TRADITIONAL_NAME>
hydroxide

> <PUBCHEM_IUPAC_INCHI>
InChI=1S/H2O/h1H2/p-1

> <PUBCHEM_IUPAC_INCHIKEY>
XLYOFNOQVPJJNP-UHFFFAOYSA-M

> <PUBCHEM_XLOGP3_AA>
-0.6

> <PUBCHEM_EXACT_MASS>
17.00274

> <PUBCHEM_MOLECULAR_FORMULA>
HO-

> <PUBCHEM_MOLECULAR_WEIGHT>
17.00734

> <PUBCHEM_OPENEYE_CAN_SMILES>
[OH-]

> <PUBCHEM_OPENEYE_ISO_SMILES>
[OH-]

> <PUBCHEM_CACTVS_TPSA>
1

> <PUBCHEM_MONOISOTOPIC_WEIGHT>
17.00274

> <PUBCHEM_TOTAL_CHARGE>
-1

> <PUBCHEM_HEAVY_ATOM_COUNT>
1

> <PUBCHEM_ATOM_DEF_STEREO_COUNT>
0

> <PUBCHEM_ATOM_UDEF_STEREO_COUNT>
0

> <PUBCHEM_BOND_DEF_STEREO_COUNT>
0

> <PUBCHEM_BOND_UDEF_STEREO_COUNT>
0

> <PUBCHEM_ISOTOPIC_ATOM_COUNT>
0

> <PUBCHEM_COMPONENT_COUNT>
1

> <PUBCHEM_CACTVS_TAUTO_COUNT>
1

> <PUBCHEM_COORDINATE_TYPE>
1
5
255

$$$$

