7653
  -OEChem-07051212533D

 40 41  0     0  0  0  0  0  0999 V2000
    0.3807   -2.0535   -0.3034 O   0  0  0  0  0  0  0  0  0  0  0  0
   -2.0557   -0.2827    0.6437 O   0  0  0  0  0  0  0  0  0  0  0  0
   -1.0196   -2.5169   -2.0774 O   0  0  0  0  0  0  0  0  0  0  0  0
   -4.0410   -1.4313    0.8895 O   0  0  0  0  0  0  0  0  0  0  0  0
   -1.4959   -3.3830    0.1479 C   0  0  0  0  0  0  0  0  0  0  0  0
   -1.9078   -2.5169    1.3362 C   0  0  0  0  0  0  0  0  0  0  0  0
    1.2290   -1.2945   -1.1710 C   0  0  0  0  0  0  0  0  0  0  0  0
   -2.7798    0.8842    0.2404 C   0  0  0  0  0  0  0  0  0  0  0  0
    2.3801   -0.7501   -0.3773 C   0  0  0  0  0  0  0  0  0  0  0  0
   -1.8066    1.9891   -0.0485 C   0  0  0  0  0  0  0  0  0  0  0  0
   -0.7162   -2.6128   -0.8961 C   0  0  0  0  0  0  0  0  0  0  0  0
   -2.8201   -1.3757    0.9407 C   0  0  0  0  0  0  0  0  0  0  0  0
    2.2683    0.4946    0.2324 C   0  0  0  0  0  0  0  0  0  0  0  0
   -1.4242    2.8538    0.9710 C   0  0  0  0  0  0  0  0  0  0  0  0
    3.5479   -1.4952   -0.2580 C   0  0  0  0  0  0  0  0  0  0  0  0
   -1.2955    2.1380   -1.3331 C   0  0  0  0  0  0  0  0  0  0  0  0
    3.3381    1.0008    0.9705 C   0  0  0  0  0  0  0  0  0  0  0  0
   -0.5194    3.8808    0.7026 C   0  0  0  0  0  0  0  0  0  0  0  0
    4.6178   -0.9890    0.4803 C   0  0  0  0  0  0  0  0  0  0  0  0
   -0.3904    3.1650   -1.6013 C   0  0  0  0  0  0  0  0  0  0  0  0
    4.5127    0.2591    1.0945 C   0  0  0  0  0  0  0  0  0  0  0  0
   -0.0024    4.0364   -0.5835 C   0  0  0  0  0  0  0  0  0  0  0  0
   -2.3895   -3.7893   -0.3407 H   0  0  0  0  0  0  0  0  0  0  0  0
   -0.8871   -4.2317    0.4774 H   0  0  0  0  0  0  0  0  0  0  0  0
   -2.4475   -3.1271    2.0701 H   0  0  0  0  0  0  0  0  0  0  0  0
   -1.0368   -2.1129    1.8658 H   0  0  0  0  0  0  0  0  0  0  0  0
    0.6579   -0.4740   -1.6226 H   0  0  0  0  0  0  0  0  0  0  0  0
    1.5973   -1.9351   -1.9822 H   0  0  0  0  0  0  0  0  0  0  0  0
   -3.4702    1.1858    1.0381 H   0  0  0  0  0  0  0  0  0  0  0  0
   -3.3746    0.6596   -0.6539 H   0  0  0  0  0  0  0  0  0  0  0  0
    1.3568    1.0769    0.1482 H   0  0  0  0  0  0  0  0  0  0  0  0
   -1.8185    2.7399    1.9769 H   0  0  0  0  0  0  0  0  0  0  0  0
    3.6397   -2.4694   -0.7304 H   0  0  0  0  0  0  0  0  0  0  0  0
   -1.5878    1.4624   -2.1322 H   0  0  0  0  0  0  0  0  0  0  0  0
    3.2554    1.9719    1.4499 H   0  0  0  0  0  0  0  0  0  0  0  0
   -0.2160    4.5583    1.4953 H   0  0  0  0  0  0  0  0  0  0  0  0
    5.5322   -1.5667    0.5776 H   0  0  0  0  0  0  0  0  0  0  0  0
    0.0138    3.2849   -2.6022 H   0  0  0  0  0  0  0  0  0  0  0  0
    5.3455    0.6530    1.6698 H   0  0  0  0  0  0  0  0  0  0  0  0
    0.7033    4.8350   -0.7922 H   0  0  0  0  0  0  0  0  0  0  0  0
  1  7  1  0  0  0  0
  1 11  1  0  0  0  0
  2  8  1  0  0  0  0
  2 12  1  0  0  0  0
  3 11  2  0  0  0  0
  4 12  2  0  0  0  0
  5  6  1  0  0  0  0
  5 11  1  0  0  0  0
  5 23  1  0  0  0  0
  5 24  1  0  0  0  0
  6 12  1  0  0  0  0
  6 25  1  0  0  0  0
  6 26  1  0  0  0  0
  7  9  1  0  0  0  0
  7 27  1  0  0  0  0
  7 28  1  0  0  0  0
  8 10  1  0  0  0  0
  8 29  1  0  0  0  0
  8 30  1  0  0  0  0
  9 13  2  0  0  0  0
  9 15  1  0  0  0  0
 10 14  2  0  0  0  0
 10 16  1  0  0  0  0
 13 17  1  0  0  0  0
 13 31  1  0  0  0  0
 14 18  1  0  0  0  0
 14 32  1  0  0  0  0
 15 19  2  0  0  0  0
 15 33  1  0  0  0  0
 16 20  2  0  0  0  0
 16 34  1  0  0  0  0
 17 21  2  0  0  0  0
 17 35  1  0  0  0  0
 18 22  2  0  0  0  0
 18 36  1  0  0  0  0
 19 21  1  0  0  0  0
 19 37  1  0  0  0  0
 20 22  1  0  0  0  0
 20 38  1  0  0  0  0
 21 39  1  0  0  0  0
 22 40  1  0  0  0  0
M  END
> <PUBCHEM_COMPOUND_CID>
7653

> <PUBCHEM_CONFORMER_RMSD>
1

> <PUBCHEM_CONFORMER_DIVERSEORDER>
1
13
63
176
20
57
97
132
180
14
137
215
207
10
219
2
172
241
238
28
148
140
11
181
50
110
159
141
206
7
168
5
3
195
128
100
202
17
139
149
12
88
47
118
92
209
34
216
8
80
91
90
71
213
16
27
69
197
200
194
19
186
26
230
33
169
218
31
247
203
211
126
175
64
55
182
111
234
191
122
251
89
37
217
167
98
53
131
243
52
129
43
62
81
51
192
178
136
4
75
153
44
253
228
18
130
134
135
22
161
56
99
24
224
82
96
196
54
244
94
173
177
123
25
133
233
160
65
249
107
214
248
147
235
77
151
162
117
152
68
49
255
183
184
226
121
93
179
236
36
73
239
9
112
61
6
114
164
124
125
189
45
205
78
166
155
15
127
138
142
199
29
59
23
32
144
185
105
30
21
250
83
231
66
120
74
188
67
58
106
158
38
174
242
60
221
240
170
171
103
104
212
252
101
225
227
119
46
223
95
157
48
76
84
254
79
86
87
198
246
237
256
35
113
146
193
232
201
143
116
72
204
109
156
220
154
115
222
165
41
85
187
102
245
145
150
39
42
70
257
229
190
40
208
108
163
210

> <PUBCHEM_MMFF94_PARTIAL_CHARGES>
32
1 -0.43
10 -0.14
11 0.66
12 0.66
13 -0.15
14 -0.15
15 -0.15
16 -0.15
17 -0.15
18 -0.15
19 -0.15
2 -0.43
20 -0.15
21 -0.15
22 -0.15
3 -0.57
31 0.15
32 0.15
33 0.15
34 0.15
35 0.15
36 0.15
37 0.15
38 0.15
39 0.15
4 -0.57
40 0.15
5 0.06
6 0.06
7 0.42
8 0.42
9 -0.14

> <PUBCHEM_EFFECTIVE_ROTOR_COUNT>
9

> <PUBCHEM_PHARMACOPHORE_FEATURES>
4
1 3 acceptor
1 4 acceptor
6 10 14 16 18 20 22 rings
6 9 13 15 17 19 21 rings

> <PUBCHEM_HEAVY_ATOM_COUNT>
22

> <PUBCHEM_ATOM_DEF_STEREO_COUNT>
0

> <PUBCHEM_ATOM_UDEF_STEREO_COUNT>
0

> <PUBCHEM_BOND_DEF_STEREO_COUNT>
0

> <PUBCHEM_BOND_UDEF_STEREO_COUNT>
0

> <PUBCHEM_ISOTOPIC_ATOM_COUNT>
0

> <PUBCHEM_COMPONENT_COUNT>
1

> <PUBCHEM_CACTVS_TAUTO_COUNT>
1

> <PUBCHEM_CONFORMER_ID>
00001DE500000001

> <PUBCHEM_MMFF94_ENERGY>
43.2012

> <PUBCHEM_FEATURE_SELFOVERLAP>
20.297

> <PUBCHEM_SHAPE_FINGERPRINT>
10006869 2 18123756611161122547
10165383 225 17114908624134940652
11221954 11 17831860522580656855
11370993 70 17977953710790163776
11595378 159 18200053775943239064
12156800 1 5930891979498683339
13402501 40 18335140946309075656
19930381 70 17114097227582819489
20600515 1 18271793610777938647
238 59 17474131154740903069
3187 122 18342730836673952921
35225 105 17913801506492160592
3524813 1 18186801374519491794
5282940 2 17403736644996290692
81228 2 18338251370446751886
90316 7 18412821361170368995
9862522 239 18189068640853671026

> <PUBCHEM_SHAPE_MULTIPOLES>
429.27
6.49
5.43
1.45
7.84
2.12
-0.39
-1.16
2.57
-4.46
-0.59
-0.33
-0.1
1.12

> <PUBCHEM_SHAPE_SELFOVERLAP>
898.323

> <PUBCHEM_SHAPE_VOLUME>
241.3

> <PUBCHEM_COORDINATE_TYPE>
2
5
10

$$$$

