47205194
  -OEChem-06241222583D

 33 34  0     1  0  0  0  0  0999 V2000
   -3.7480   -2.5933    0.4670 Cl  0  0  0  0  0  0  0  0  0  0  0  0
   -1.4954   -0.5958    0.4800 O   0  0  0  0  0  0  0  0  0  0  0  0
    5.5654   -0.3597    1.0515 O   0  0  0  0  0  0  0  0  0  0  0  0
    0.6922    0.7492    1.1970 O   0  0  0  0  0  0  0  0  0  0  0  0
    1.6053    0.6643   -0.9361 N   0  0  0  0  0  0  0  0  0  0  0  0
   -0.5299   -0.4019   -0.5401 C   0  0  1  0  0  0  0  0  0  0  0  0
    2.8013    1.4213   -0.6478 C   0  0  0  0  0  0  0  0  0  0  0  0
    0.6420    0.3900    0.0226 C   0  0  0  0  0  0  0  0  0  0  0  0
    3.9317    0.5385   -0.2041 C   0  0  0  0  0  0  0  0  0  0  0  0
   -0.0812   -1.7674   -1.0357 C   0  0  0  0  0  0  0  0  0  0  0  0
   -2.7452   -0.0733    0.2604 C   0  0  0  0  0  0  0  0  0  0  0  0
    4.5223   -0.5213   -0.9329 C   0  0  0  0  0  0  0  0  0  0  0  0
    4.6012    0.5964    0.9961 C   0  0  0  0  0  0  0  0  0  0  0  0
   -3.8758   -0.8895    0.2296 C   0  0  0  0  0  0  0  0  0  0  0  0
   -2.8723    1.3021    0.0657 C   0  0  0  0  0  0  0  0  0  0  0  0
    5.5106   -1.0355   -0.1261 C   0  0  0  0  0  0  0  0  0  0  0  0
   -5.1336   -0.3303    0.0039 C   0  0  0  0  0  0  0  0  0  0  0  0
   -4.1301    1.8611   -0.1601 C   0  0  0  0  0  0  0  0  0  0  0  0
   -5.2608    1.0450   -0.1909 C   0  0  0  0  0  0  0  0  0  0  0  0
   -0.9390    0.1567   -1.3931 H   0  0  0  0  0  0  0  0  0  0  0  0
    2.5765    2.1723    0.1179 H   0  0  0  0  0  0  0  0  0  0  0  0
    3.0848    1.9479   -1.5654 H   0  0  0  0  0  0  0  0  0  0  0  0
    1.4711    0.3424   -1.8898 H   0  0  0  0  0  0  0  0  0  0  0  0
   -0.9415   -2.3552   -1.3736 H   0  0  0  0  0  0  0  0  0  0  0  0
    0.6300   -1.6984   -1.8640 H   0  0  0  0  0  0  0  0  0  0  0  0
    0.3942   -2.3369   -0.2287 H   0  0  0  0  0  0  0  0  0  0  0  0
    4.2628   -0.8701   -1.9223 H   0  0  0  0  0  0  0  0  0  0  0  0
    4.5176    1.2248    1.8711 H   0  0  0  0  0  0  0  0  0  0  0  0
   -2.0036    1.9540    0.0972 H   0  0  0  0  0  0  0  0  0  0  0  0
    6.2243   -1.8385   -0.2377 H   0  0  0  0  0  0  0  0  0  0  0  0
   -6.0243   -0.9529   -0.0230 H   0  0  0  0  0  0  0  0  0  0  0  0
   -4.2295    2.9323   -0.3094 H   0  0  0  0  0  0  0  0  0  0  0  0
   -6.2401    1.4806   -0.3661 H   0  0  0  0  0  0  0  0  0  0  0  0
  1 14  1  0  0  0  0
  2  6  1  0  0  0  0
  2 11  1  0  0  0  0
  3 13  1  0  0  0  0
  3 16  1  0  0  0  0
  4  8  2  0  0  0  0
  5  7  1  0  0  0  0
  5  8  1  0  0  0  0
  5 23  1  0  0  0  0
  6  8  1  0  0  0  0
  6 10  1  0  0  0  0
  6 20  1  0  0  0  0
  7  9  1  0  0  0  0
  7 21  1  0  0  0  0
  7 22  1  0  0  0  0
  9 12  1  0  0  0  0
  9 13  2  0  0  0  0
 10 24  1  0  0  0  0
 10 25  1  0  0  0  0
 10 26  1  0  0  0  0
 11 14  1  0  0  0  0
 11 15  2  0  0  0  0
 12 16  2  0  0  0  0
 12 27  1  0  0  0  0
 13 28  1  0  0  0  0
 14 17  2  0  0  0  0
 15 18  1  0  0  0  0
 15 29  1  0  0  0  0
 16 30  1  0  0  0  0
 17 19  1  0  0  0  0
 17 31  1  0  0  0  0
 18 19  2  0  0  0  0
 18 32  1  0  0  0  0
 19 33  1  0  0  0  0
M  END
> <PUBCHEM_COMPOUND_CID>
47205194

> <PUBCHEM_CONFORMER_RMSD>
0.8

> <PUBCHEM_CONFORMER_DIVERSEORDER>
1
405
345
53
355
286
132
301
86
349
250
388
367
10
34
52
334
137
181
163
353
109
159
197
56
343
134
390
337
127
184
241
384
152
235
129
369
203
378
110
91
102
96
354
143
147
4
296
274
164
312
57
141
336
261
156
387
16
226
128
404
379
364
66
291
331
63
151
322
255
289
69
144
200
342
278
219
309
346
356
298
204
121
11
179
112
50
310
155
303
207
238
130
84
394
7
319
210
290
175
217
78
98
335
118
97
166
43
100
281
279
93
213
391
178
313
20
306
254
386
198
186
297
330
332
316
21
12
266
15
123
212
215
85
27
231
257
280
323
230
242
108
246
265
54
60
124
239
389
300
8
13
403
329
188
294
90
223
304
339
216
258
55
221
263
41
299
276
393
373
172
229
71
2
148
142
251
74
165
333
196
28
87
382
17
47
168
326
183
126
173
24
275
271
268
249
89
32
36
185
29
103
392
94
256
307
45
18
73
273
5
190
208
222
81
321
224
120
138
135
9
145
352
119
236
214
402
153
282
206
19
30
51
117
308
167
99
370
180
259
79
68
302
325
125
209
140
59
22
76
105
116
146
169
211
158
240
49
305
201
23
174
14
6
375
234
399
48
77
253
376
82
88
314
31
182
65
292
315
161
318
205
113
277
398
80
284
311
192
202
248
361
83
177
92
218
358
189
317
107
58
362
227
115
371
194
111
359
176
122
39
150
395
340
62
187
131
35
327
365
95
344
252
381
26
272
348
232
136
154
40
243
139
285
160
171
366
264
70
67
293
368
347
269
400
385
64
267
44
247
114
170
157
199
260
38
162
377
295
101
283
72
244
193
233
262
287
191
228
25
380
288
374
320
195
61
106
363
357
225
270
397
42
3
324
351
341
46
33
383
396
350
338
245
360
133
328
37
104
372
220
149
237
401
75

> <PUBCHEM_MMFF94_PARTIAL_CHARGES>
26
1 -0.18
11 0.08
12 -0.15
13 -0.01
14 0.18
15 -0.15
16 -0.01
17 -0.15
18 -0.15
19 -0.15
2 -0.36
23 0.37
27 0.15
28 0.15
29 0.15
3 -0.28
30 0.15
31 0.15
32 0.15
33 0.15
4 -0.57
5 -0.73
6 0.34
7 0.48
8 0.57
9 -0.18

> <PUBCHEM_EFFECTIVE_ROTOR_COUNT>
6

> <PUBCHEM_PHARMACOPHORE_FEATURES>
6
1 2 acceptor
1 3 acceptor
1 4 acceptor
1 5 donor
5 3 9 12 13 16 rings
6 11 14 15 17 18 19 rings

> <PUBCHEM_HEAVY_ATOM_COUNT>
19

> <PUBCHEM_ATOM_DEF_STEREO_COUNT>
0

> <PUBCHEM_ATOM_UDEF_STEREO_COUNT>
1

> <PUBCHEM_BOND_DEF_STEREO_COUNT>
0

> <PUBCHEM_BOND_UDEF_STEREO_COUNT>
0

> <PUBCHEM_ISOTOPIC_ATOM_COUNT>
0

> <PUBCHEM_COMPONENT_COUNT>
1

> <PUBCHEM_CACTVS_TAUTO_COUNT>
2

> <PUBCHEM_CONFORMER_ID>
02D04B4A00000001

> <PUBCHEM_MMFF94_ENERGY>
37.6413

> <PUBCHEM_FEATURE_SELFOVERLAP>
30.454

> <PUBCHEM_SHAPE_FINGERPRINT>
11405975 8 18343016662152107304
11796584 16 18410011039883796714
12107183 9 17624707038649762280
12236239 1 17561362872683286709
12592029 89 18341327872769662146
12596602 18 18341336609023020120
12670546 56 18060143115409672716
13167823 11 18200875080368427898
13583140 156 17895198766077237954
13675066 3 18187364307561854462
14123238 8 5112007239817099533
14251751 93 18411140216650212959
14251758 9 18410574006911195990
14251764 18 18202845440029241156
14420673 8 18270116941588117378
14573314 32 18336263526300949068
14848160 23 17894349994909039394
15042514 8 18196365923797720611
15183329 4 18202564003221796476
15788980 27 18342734104954102409
17349148 13 16081360839457772912
17834072 33 17917711279477407098
17834072 8 18408600392345557004
17844677 252 18341324513794000152
1813 80 16487252201239693182
18222031 100 13398630507018464181
19489759 90 18409730672987211497
20197701 30 18186805794093872558
21033648 29 17677065602065506328
21682296 61 17677882612451808334
23402539 116 18412267225011753805
23536379 177 18343864428846272936
23559900 14 18408604730109915360
3004659 81 18272364287873371652
351380 180 18334013886803455773
3545911 37 18412542137288861949
4214541 1 18413669110679150173
5104073 3 18339636737680796649
542803 24 12679466386982746485
559249 180 18343305889623973483
573450 72 18272935998663323363
633830 44 16917064408803349844
9965369 4 18342742969708579283
9971528 1 17560799897129198564
9981440 41 18411414055829219027

> <PUBCHEM_SHAPE_MULTIPOLES>
370.29
13.88
1.88
0.97
7.41
0.66
-0.04
0.26
-1.37
-2.1
0.07
0.8
0.05
0.47

> <PUBCHEM_SHAPE_SELFOVERLAP>
771.16

> <PUBCHEM_SHAPE_VOLUME>
211.1

> <PUBCHEM_COORDINATE_TYPE>
2
5
10

$$$$

