443810
  -OEChem-07051213032D

 39 42  0     1  0  0  0  0  0999 V2000
    5.7293   -4.1042    0.0000 O   0  0  0  0  0  0  0  0  0  0  0  0
    7.0009   -1.0889    0.0000 O   0  0  0  0  0  0  0  0  0  0  0  0
    2.5405    0.4598    0.0000 O   0  0  0  0  0  0  0  0  0  0  0  0
    6.9088   -0.0434    0.0000 O   0  0  0  0  0  0  0  0  0  0  0  0
    3.4446    1.9566    0.0000 O   0  0  0  0  0  0  0  0  0  0  0  0
    4.2889    3.4881    0.0000 O   0  0  0  0  0  0  0  0  0  0  0  0
    5.2260   -3.2401    0.0000 C   0  0  2  0  0  0  0  0  0  0  0  0
    4.2864   -2.6976    0.0000 C   0  0  0  0  0  0  0  0  0  0  0  0
    6.1614   -2.6904    0.0000 C   0  0  0  0  0  0  0  0  0  0  0  0
    4.2947   -1.6126    0.0000 C   0  0  0  0  0  0  0  0  0  0  0  0
    5.1928   -1.0849    0.0000 C   0  0  0  0  0  0  0  0  0  0  0  0
    6.1447   -1.6055    0.0000 C   0  0  0  0  0  0  0  0  0  0  0  0
    5.1767   -0.0434    0.0000 C   0  0  0  0  0  0  0  0  0  0  0  0
    4.7293   -4.1080    0.0000 C   0  0  0  0  0  0  0  0  0  0  0  0
    4.3107    0.4566    0.0000 C   0  0  0  0  0  0  0  0  0  0  0  0
    3.3926   -1.0918    0.0000 C   0  0  0  0  0  0  0  0  0  0  0  0
    3.4007   -0.0502    0.0000 C   0  0  0  0  0  0  0  0  0  0  0  0
    6.0427    0.4566    0.0000 C   0  0  0  0  0  0  0  0  0  0  0  0
    4.3107    1.4566    0.0000 C   0  0  0  0  0  0  0  0  0  0  0  0
    6.0427    1.4566    0.0000 C   0  0  0  0  0  0  0  0  0  0  0  0
    5.1767    1.9566    0.0000 C   0  0  0  0  0  0  0  0  0  0  0  0
    5.1606    2.9981    0.0000 C   0  0  0  0  0  0  0  0  0  0  0  0
    6.9527    1.9635    0.0000 C   0  0  0  0  0  0  0  0  0  0  0  0
    6.0587    3.5259    0.0000 C   0  0  0  0  0  0  0  0  0  0  0  0
    6.9608    3.0051    0.0000 C   0  0  0  0  0  0  0  0  0  0  0  0
    3.6763   -2.5868    0.0000 H   0  0  0  0  0  0  0  0  0  0  0  0
    4.0728   -3.2797    0.0000 H   0  0  0  0  0  0  0  0  0  0  0  0
    6.3794   -3.2708    0.0000 H   0  0  0  0  0  0  0  0  0  0  0  0
    6.7706   -2.5749    0.0000 H   0  0  0  0  0  0  0  0  0  0  0  0
    4.1912   -3.8001    0.0000 H   0  0  0  0  0  0  0  0  0  0  0  0
    4.4214   -4.6462    0.0000 H   0  0  0  0  0  0  0  0  0  0  0  0
    5.2675   -4.4160    0.0000 H   0  0  0  0  0  0  0  0  0  0  0  0
    2.8545   -1.3998    0.0000 H   0  0  0  0  0  0  0  0  0  0  0  0
    6.3493   -4.1018    0.0000 H   0  0  0  0  0  0  0  0  0  0  0  0
    7.4860    1.6473    0.0000 H   0  0  0  0  0  0  0  0  0  0  0  0
    2.0000    0.1560    0.0000 H   0  0  0  0  0  0  0  0  0  0  0  0
    6.0563    4.1459    0.0000 H   0  0  0  0  0  0  0  0  0  0  0  0
    7.4989    3.3130    0.0000 H   0  0  0  0  0  0  0  0  0  0  0  0
    4.2817    4.1080    0.0000 H   0  0  0  0  0  0  0  0  0  0  0  0
  7  1  1  6  0  0  0
  1 34  1  0  0  0  0
  2 12  2  0  0  0  0
  3 17  1  0  0  0  0
  3 36  1  0  0  0  0
  4 18  2  0  0  0  0
  5 19  2  0  0  0  0
  6 22  1  0  0  0  0
  6 39  1  0  0  0  0
  7  8  1  0  0  0  0
  7  9  1  0  0  0  0
  7 14  1  0  0  0  0
  8 10  1  0  0  0  0
  8 26  1  0  0  0  0
  8 27  1  0  0  0  0
  9 12  1  0  0  0  0
  9 28  1  0  0  0  0
  9 29  1  0  0  0  0
 10 11  1  0  0  0  0
 10 16  2  0  0  0  0
 11 12  1  0  0  0  0
 11 13  2  0  0  0  0
 13 15  1  0  0  0  0
 13 18  1  0  0  0  0
 14 30  1  0  0  0  0
 14 31  1  0  0  0  0
 14 32  1  0  0  0  0
 15 17  2  0  0  0  0
 15 19  1  0  0  0  0
 16 17  1  0  0  0  0
 16 33  1  0  0  0  0
 18 20  1  0  0  0  0
 19 21  1  0  0  0  0
 20 21  2  0  0  0  0
 20 23  1  0  0  0  0
 21 22  1  0  0  0  0
 22 24  2  0  0  0  0
 23 25  2  0  0  0  0
 23 35  1  0  0  0  0
 24 25  1  0  0  0  0
 24 37  1  0  0  0  0
 25 38  1  0  0  0  0
M  END
> <PUBCHEM_COMPOUND_CID>
443810

> <PUBCHEM_COMPOUND_CANONICALIZED>
1

> <PUBCHEM_CACTVS_COMPLEXITY>
629

> <PUBCHEM_CACTVS_HBOND_ACCEPTOR>
6

> <PUBCHEM_CACTVS_HBOND_DONOR>
3

> <PUBCHEM_CACTVS_ROTATABLE_BOND>
0

> <PUBCHEM_CACTVS_SUBSKEYS>
AAADccB4OAAAAAAAAAAAAAAAAAAAAAAAAAAwYMGAAAAAAADBQAAAGgAACAAADESAmAAyBoAAAgCIAqBSAAACAAAkIAAIiAEGCMgIJjaCFRKAcUAk4BEImYeL7vTu4AADAAAYAADAAAYAADAAAAAAAAAAAA==

> <PUBCHEM_IUPAC_OPENEYE_NAME>
(3R)-3,6,8-trihydroxy-3-methyl-2,4-dihydrobenzo[a]anthracene-1,7,12-trione

> <PUBCHEM_IUPAC_CAS_NAME>
(3R)-3,6,8-trihydroxy-3-methyl-2,4-dihydrobenzo[a]anthracene-1,7,12-trione

> <PUBCHEM_IUPAC_NAME>
(3R)-3,6,8-trihydroxy-3-methyl-2,4-dihydrobenzo[a]anthracene-1,7,12-trione

> <PUBCHEM_IUPAC_SYSTEMATIC_NAME>
(3R)-3-methyl-3,6,8-tris(oxidanyl)-2,4-dihydrobenzo[a]anthracene-1,7,12-trione

> <PUBCHEM_IUPAC_TRADITIONAL_NAME>
(3R)-3,6,8-trihydroxy-3-methyl-2,4-dihydrobenz[a]anthracene-1,7,12-trione

> <PUBCHEM_IUPAC_INCHI>
InChI=1S/C19H14O6/c1-19(25)6-8-5-11(21)15-16(13(8)12(22)7-19)17(23)9-3-2-4-10(20)14(9)18(15)24/h2-5,20-21,25H,6-7H2,1H3/t19-/m1/s1

> <PUBCHEM_IUPAC_INCHIKEY>
JJOLHRYZQSDLSA-LJQANCHMSA-N

> <PUBCHEM_XLOGP3_AA>
2

> <PUBCHEM_EXACT_MASS>
338.079038

> <PUBCHEM_MOLECULAR_FORMULA>
C19H14O6

> <PUBCHEM_MOLECULAR_WEIGHT>
338.31086

> <PUBCHEM_OPENEYE_CAN_SMILES>
CC1(CC2=CC(=C3C(=C2C(=O)C1)C(=O)C4=C(C3=O)C(=CC=C4)O)O)O

> <PUBCHEM_OPENEYE_ISO_SMILES>
C[C@]1(CC2=CC(=C3C(=C2C(=O)C1)C(=O)C4=C(C3=O)C(=CC=C4)O)O)O

> <PUBCHEM_CACTVS_TPSA>
112

> <PUBCHEM_MONOISOTOPIC_WEIGHT>
338.079038

> <PUBCHEM_TOTAL_CHARGE>
0

> <PUBCHEM_HEAVY_ATOM_COUNT>
25

> <PUBCHEM_ATOM_DEF_STEREO_COUNT>
1

> <PUBCHEM_ATOM_UDEF_STEREO_COUNT>
0

> <PUBCHEM_BOND_DEF_STEREO_COUNT>
0

> <PUBCHEM_BOND_UDEF_STEREO_COUNT>
0

> <PUBCHEM_ISOTOPIC_ATOM_COUNT>
0

> <PUBCHEM_COMPONENT_COUNT>
1

> <PUBCHEM_CACTVS_TAUTO_COUNT>
129

> <PUBCHEM_COORDINATE_TYPE>
1
5
255

> <PUBCHEM_BONDANNOTATIONS>
7  1  6
10  11  8
10  16  8
11  13  8
13  15  8
15  17  8
16  17  8
20  21  8
20  23  8
21  22  8
22  24  8
23  25  8
24  25  8

$$$$

