5281862
  -OEChem-07051213002D

 55 55  0     0  0  0  0  0  0999 V2000
   15.8564    1.3450    0.0000 O   0  0  0  0  0  0  0  0  0  0  0  0
   17.5885    0.3450    0.0000 O   0  0  0  0  0  0  0  0  0  0  0  0
   11.5263   -0.1550    0.0000 C   0  0  0  0  0  0  0  0  0  0  0  0
   12.3923    0.3450    0.0000 C   0  0  0  0  0  0  0  0  0  0  0  0
   10.6603    0.3450    0.0000 C   0  0  0  0  0  0  0  0  0  0  0  0
   13.2583   -0.1550    0.0000 C   0  0  0  0  0  0  0  0  0  0  0  0
    9.7942   -0.1550    0.0000 C   0  0  0  0  0  0  0  0  0  0  0  0
   14.1244    0.3450    0.0000 C   0  0  0  0  0  0  0  0  0  0  0  0
    8.9282    0.3450    0.0000 C   0  0  0  0  0  0  0  0  0  0  0  0
   14.9904   -0.1550    0.0000 C   0  0  0  0  0  0  0  0  0  0  0  0
    8.0622   -0.1550    0.0000 C   0  0  0  0  0  0  0  0  0  0  0  0
   15.8564    0.3450    0.0000 C   0  0  0  0  0  0  0  0  0  0  0  0
   14.9904   -1.1550    0.0000 C   0  0  0  0  0  0  0  0  0  0  0  0
    7.1962    0.3450    0.0000 C   0  0  0  0  0  0  0  0  0  0  0  0
   16.7224   -0.1550    0.0000 C   0  0  0  0  0  0  0  0  0  0  0  0
   15.8564   -1.6550    0.0000 C   0  0  0  0  0  0  0  0  0  0  0  0
    6.3301   -0.1550    0.0000 C   0  0  0  0  0  0  0  0  0  0  0  0
   16.7224   -1.1550    0.0000 C   0  0  0  0  0  0  0  0  0  0  0  0
    5.4641    0.3450    0.0000 C   0  0  0  0  0  0  0  0  0  0  0  0
    3.7320    0.3450    0.0000 C   0  0  0  0  0  0  0  0  0  0  0  0
    4.5981   -0.1550    0.0000 C   0  0  0  0  0  0  0  0  0  0  0  0
    2.8660   -0.1550    0.0000 C   0  0  0  0  0  0  0  0  0  0  0  0
    2.0000    0.3450    0.0000 C   0  0  0  0  0  0  0  0  0  0  0  0
   11.1278   -0.6299    0.0000 H   0  0  0  0  0  0  0  0  0  0  0  0
   11.9248   -0.6299    0.0000 H   0  0  0  0  0  0  0  0  0  0  0  0
   12.7908    0.8199    0.0000 H   0  0  0  0  0  0  0  0  0  0  0  0
   11.9938    0.8199    0.0000 H   0  0  0  0  0  0  0  0  0  0  0  0
   11.0588    0.8199    0.0000 H   0  0  0  0  0  0  0  0  0  0  0  0
   10.2617    0.8199    0.0000 H   0  0  0  0  0  0  0  0  0  0  0  0
   12.8598   -0.6299    0.0000 H   0  0  0  0  0  0  0  0  0  0  0  0
   13.6569   -0.6299    0.0000 H   0  0  0  0  0  0  0  0  0  0  0  0
    9.3957   -0.6299    0.0000 H   0  0  0  0  0  0  0  0  0  0  0  0
   10.1928   -0.6299    0.0000 H   0  0  0  0  0  0  0  0  0  0  0  0
   14.5229    0.8199    0.0000 H   0  0  0  0  0  0  0  0  0  0  0  0
   13.7258    0.8199    0.0000 H   0  0  0  0  0  0  0  0  0  0  0  0
    9.3267    0.8199    0.0000 H   0  0  0  0  0  0  0  0  0  0  0  0
    8.5297    0.8199    0.0000 H   0  0  0  0  0  0  0  0  0  0  0  0
    8.0622   -0.7750    0.0000 H   0  0  0  0  0  0  0  0  0  0  0  0
   14.4534   -1.4650    0.0000 H   0  0  0  0  0  0  0  0  0  0  0  0
    7.1962    0.9650    0.0000 H   0  0  0  0  0  0  0  0  0  0  0  0
   15.8564   -2.2750    0.0000 H   0  0  0  0  0  0  0  0  0  0  0  0
    5.9316   -0.6299    0.0000 H   0  0  0  0  0  0  0  0  0  0  0  0
    6.7287   -0.6299    0.0000 H   0  0  0  0  0  0  0  0  0  0  0  0
   17.2594   -1.4650    0.0000 H   0  0  0  0  0  0  0  0  0  0  0  0
    5.4641    0.9650    0.0000 H   0  0  0  0  0  0  0  0  0  0  0  0
    4.1306    0.8199    0.0000 H   0  0  0  0  0  0  0  0  0  0  0  0
    3.3335    0.8199    0.0000 H   0  0  0  0  0  0  0  0  0  0  0  0
   16.3933    1.6550    0.0000 H   0  0  0  0  0  0  0  0  0  0  0  0
    4.5981   -0.7750    0.0000 H   0  0  0  0  0  0  0  0  0  0  0  0
    2.4675   -0.6299    0.0000 H   0  0  0  0  0  0  0  0  0  0  0  0
    3.2646   -0.6299    0.0000 H   0  0  0  0  0  0  0  0  0  0  0  0
   18.1254    0.0350    0.0000 H   0  0  0  0  0  0  0  0  0  0  0  0
    2.3100    0.8819    0.0000 H   0  0  0  0  0  0  0  0  0  0  0  0
    1.4631    0.6550    0.0000 H   0  0  0  0  0  0  0  0  0  0  0  0
    1.6900   -0.1919    0.0000 H   0  0  0  0  0  0  0  0  0  0  0  0
  1 12  1  0  0  0  0
  1 48  1  0  0  0  0
  2 15  1  0  0  0  0
  2 52  1  0  0  0  0
  3  4  1  0  0  0  0
  3  5  1  0  0  0  0
  3 24  1  0  0  0  0
  3 25  1  0  0  0  0
  4  6  1  0  0  0  0
  4 26  1  0  0  0  0
  4 27  1  0  0  0  0
  5  7  1  0  0  0  0
  5 28  1  0  0  0  0
  5 29  1  0  0  0  0
  6  8  1  0  0  0  0
  6 30  1  0  0  0  0
  6 31  1  0  0  0  0
  7  9  1  0  0  0  0
  7 32  1  0  0  0  0
  7 33  1  0  0  0  0
  8 10  1  0  0  0  0
  8 34  1  0  0  0  0
  8 35  1  0  0  0  0
  9 11  1  0  0  0  0
  9 36  1  0  0  0  0
  9 37  1  0  0  0  0
 10 12  2  0  0  0  0
 10 13  1  0  0  0  0
 11 14  2  0  0  0  0
 11 38  1  0  0  0  0
 12 15  1  0  0  0  0
 13 16  2  0  0  0  0
 13 39  1  0  0  0  0
 14 17  1  0  0  0  0
 14 40  1  0  0  0  0
 15 18  2  0  0  0  0
 16 18  1  0  0  0  0
 16 41  1  0  0  0  0
 17 19  1  0  0  0  0
 17 42  1  0  0  0  0
 17 43  1  0  0  0  0
 18 44  1  0  0  0  0
 19 21  2  0  0  0  0
 19 45  1  0  0  0  0
 20 21  1  0  0  0  0
 20 22  1  0  0  0  0
 20 46  1  0  0  0  0
 20 47  1  0  0  0  0
 21 49  1  0  0  0  0
 22 23  1  0  0  0  0
 22 50  1  0  0  0  0
 22 51  1  0  0  0  0
 23 53  1  0  0  0  0
 23 54  1  0  0  0  0
 23 55  1  0  0  0  0
M  END
> <PUBCHEM_COMPOUND_CID>
5281862

> <PUBCHEM_COMPOUND_CANONICALIZED>
1

> <PUBCHEM_CACTVS_COMPLEXITY>
322

> <PUBCHEM_CACTVS_HBOND_ACCEPTOR>
2

> <PUBCHEM_CACTVS_HBOND_DONOR>
2

> <PUBCHEM_CACTVS_ROTATABLE_BOND>
12

> <PUBCHEM_CACTVS_SUBSKEYS>
AAADcfB4MAAAAAAAAAAAAAAAAAAAAAAAAAAwAAAAAAAAAAABAAAAGgAACAAADASAmAAyBoAAAgCAAiBCAAACAAAgIAAIiAAGiIgJJiKCERKAcAEkwBEJmAeAwPAOAAABAAAIQAAAAAIAABCAAAAAAAAAAA==

> <PUBCHEM_IUPAC_OPENEYE_NAME>
3-[(8E,11E)-pentadeca-8,11-dienyl]benzene-1,2-diol

> <PUBCHEM_IUPAC_CAS_NAME>
3-[(8E,11E)-pentadeca-8,11-dienyl]benzene-1,2-diol

> <PUBCHEM_IUPAC_NAME>
3-[(8E,11E)-pentadeca-8,11-dienyl]benzene-1,2-diol

> <PUBCHEM_IUPAC_SYSTEMATIC_NAME>
3-[(8E,11E)-pentadeca-8,11-dienyl]benzene-1,2-diol

> <PUBCHEM_IUPAC_TRADITIONAL_NAME>
3-[(8E,11E)-pentadeca-8,11-dienyl]pyrocatechol

> <PUBCHEM_IUPAC_INCHI>
InChI=1S/C21H32O2/c1-2-3-4-5-6-7-8-9-10-11-12-13-14-16-19-17-15-18-20(22)21(19)23/h4-5,7-8,15,17-18,22-23H,2-3,6,9-14,16H2,1H3/b5-4+,8-7+

> <PUBCHEM_IUPAC_INCHIKEY>
RMTXUPIIESNLPW-AOSYACOCSA-N

> <PUBCHEM_XLOGP3_AA>
7.4

> <PUBCHEM_EXACT_MASS>
316.24023

> <PUBCHEM_MOLECULAR_FORMULA>
C21H32O2

> <PUBCHEM_MOLECULAR_WEIGHT>
316.47758

> <PUBCHEM_OPENEYE_CAN_SMILES>
CCCC=CCC=CCCCCCCCC1=C(C(=CC=C1)O)O

> <PUBCHEM_OPENEYE_ISO_SMILES>
CCC/C=C/C/C=C/CCCCCCCC1=C(C(=CC=C1)O)O

> <PUBCHEM_CACTVS_TPSA>
40.5

> <PUBCHEM_MONOISOTOPIC_WEIGHT>
316.24023

> <PUBCHEM_TOTAL_CHARGE>
0

> <PUBCHEM_HEAVY_ATOM_COUNT>
23

> <PUBCHEM_ATOM_DEF_STEREO_COUNT>
0

> <PUBCHEM_ATOM_UDEF_STEREO_COUNT>
0

> <PUBCHEM_BOND_DEF_STEREO_COUNT>
2

> <PUBCHEM_BOND_UDEF_STEREO_COUNT>
0

> <PUBCHEM_ISOTOPIC_ATOM_COUNT>
0

> <PUBCHEM_COMPONENT_COUNT>
1

> <PUBCHEM_CACTVS_TAUTO_COUNT>
83

> <PUBCHEM_COORDINATE_TYPE>
1
5
255

> <PUBCHEM_BONDANNOTATIONS>
10  12  8
10  13  8
12  15  8
13  16  8
15  18  8
16  18  8

$$$$

