17396236
  -OEChem-06241222552D

 54 56  0     0  0  0  0  0  0999 V2000
    6.3301    3.7306    0.0000 S   0  0  0  0  0  0  0  0  0  0  0  0
    6.3301   -0.2694    0.0000 S   0  0  0  0  0  0  0  0  0  0  0  0
    7.3301    3.7306    0.0000 O   0  0  0  0  0  0  0  0  0  0  0  0
    5.3301    3.7306    0.0000 O   0  0  0  0  0  0  0  0  0  0  0  0
    5.3301   -0.2694    0.0000 O   0  0  0  0  0  0  0  0  0  0  0  0
    7.3301   -0.2694    0.0000 O   0  0  0  0  0  0  0  0  0  0  0  0
    6.3301    4.7306    0.0000 N   0  0  0  0  0  0  0  0  0  0  0  0
    6.3301   -1.2694    0.0000 N   0  0  0  0  0  0  0  0  0  0  0  0
    7.1391    5.3184    0.0000 C   0  0  0  0  0  0  0  0  0  0  0  0
    5.5211    5.3184    0.0000 C   0  0  0  0  0  0  0  0  0  0  0  0
    5.8301    6.2694    0.0000 C   0  0  0  0  0  0  0  0  0  0  0  0
    6.8301    6.2694    0.0000 C   0  0  0  0  0  0  0  0  0  0  0  0
    6.3301    2.7306    0.0000 C   0  0  0  0  0  0  0  0  0  0  0  0
    5.4641    2.2306    0.0000 C   0  0  0  0  0  0  0  0  0  0  0  0
    7.1962    2.2306    0.0000 C   0  0  0  0  0  0  0  0  0  0  0  0
    6.3301    0.7306    0.0000 C   0  0  0  0  0  0  0  0  0  0  0  0
    5.4641   -2.7694    0.0000 C   0  0  0  0  0  0  0  0  0  0  0  0
    5.4641   -1.7694    0.0000 C   0  0  0  0  0  0  0  0  0  0  0  0
    5.4641    1.2306    0.0000 C   0  0  0  0  0  0  0  0  0  0  0  0
    7.1962    1.2306    0.0000 C   0  0  0  0  0  0  0  0  0  0  0  0
    4.5981   -3.2694    0.0000 C   0  0  0  0  0  0  0  0  0  0  0  0
    4.5981   -4.2694    0.0000 C   0  0  0  0  0  0  0  0  0  0  0  0
    3.7320   -4.7694    0.0000 C   0  0  0  0  0  0  0  0  0  0  0  0
    2.8660   -4.2694    0.0000 C   0  0  0  0  0  0  0  0  0  0  0  0
    3.7320   -5.7694    0.0000 C   0  0  0  0  0  0  0  0  0  0  0  0
    2.0000   -4.7694    0.0000 C   0  0  0  0  0  0  0  0  0  0  0  0
    2.8660   -6.2694    0.0000 C   0  0  0  0  0  0  0  0  0  0  0  0
    2.0000   -5.7694    0.0000 C   0  0  0  0  0  0  0  0  0  0  0  0
    7.4491    4.7814    0.0000 H   0  0  0  0  0  0  0  0  0  0  0  0
    7.7055    5.5705    0.0000 H   0  0  0  0  0  0  0  0  0  0  0  0
    4.9547    5.5705    0.0000 H   0  0  0  0  0  0  0  0  0  0  0  0
    5.2111    4.7814    0.0000 H   0  0  0  0  0  0  0  0  0  0  0  0
    7.4366    6.3983    0.0000 H   0  0  0  0  0  0  0  0  0  0  0  0
    6.7653    6.8860    0.0000 H   0  0  0  0  0  0  0  0  0  0  0  0
    5.8949    6.8860    0.0000 H   0  0  0  0  0  0  0  0  0  0  0  0
    5.2237    6.3983    0.0000 H   0  0  0  0  0  0  0  0  0  0  0  0
    4.9272    2.5406    0.0000 H   0  0  0  0  0  0  0  0  0  0  0  0
    7.7331    2.5406    0.0000 H   0  0  0  0  0  0  0  0  0  0  0  0
    5.6762   -3.3520    0.0000 H   0  0  0  0  0  0  0  0  0  0  0  0
    6.0747   -2.6618    0.0000 H   0  0  0  0  0  0  0  0  0  0  0  0
    5.2520   -1.1868    0.0000 H   0  0  0  0  0  0  0  0  0  0  0  0
    4.8535   -1.8771    0.0000 H   0  0  0  0  0  0  0  0  0  0  0  0
    4.3860   -2.6868    0.0000 H   0  0  0  0  0  0  0  0  0  0  0  0
    3.9875   -3.3771    0.0000 H   0  0  0  0  0  0  0  0  0  0  0  0
    4.9272    0.9206    0.0000 H   0  0  0  0  0  0  0  0  0  0  0  0
    7.7331    0.9206    0.0000 H   0  0  0  0  0  0  0  0  0  0  0  0
    6.8671   -1.5794    0.0000 H   0  0  0  0  0  0  0  0  0  0  0  0
    4.8101   -4.8520    0.0000 H   0  0  0  0  0  0  0  0  0  0  0  0
    5.2087   -4.1618    0.0000 H   0  0  0  0  0  0  0  0  0  0  0  0
    2.8660   -3.6494    0.0000 H   0  0  0  0  0  0  0  0  0  0  0  0
    4.2690   -6.0794    0.0000 H   0  0  0  0  0  0  0  0  0  0  0  0
    1.4631   -4.4594    0.0000 H   0  0  0  0  0  0  0  0  0  0  0  0
    2.8660   -6.8894    0.0000 H   0  0  0  0  0  0  0  0  0  0  0  0
    1.4631   -6.0794    0.0000 H   0  0  0  0  0  0  0  0  0  0  0  0
  1  3  2  0  0  0  0
  1  4  2  0  0  0  0
  1  7  1  0  0  0  0
  1 13  1  0  0  0  0
  2  5  2  0  0  0  0
  2  6  2  0  0  0  0
  2  8  1  0  0  0  0
  2 16  1  0  0  0  0
  7  9  1  0  0  0  0
  7 10  1  0  0  0  0
  8 18  1  0  0  0  0
  8 47  1  0  0  0  0
  9 12  1  0  0  0  0
  9 29  1  0  0  0  0
  9 30  1  0  0  0  0
 10 11  1  0  0  0  0
 10 31  1  0  0  0  0
 10 32  1  0  0  0  0
 11 12  1  0  0  0  0
 11 35  1  0  0  0  0
 11 36  1  0  0  0  0
 12 33  1  0  0  0  0
 12 34  1  0  0  0  0
 13 14  2  0  0  0  0
 13 15  1  0  0  0  0
 14 19  1  0  0  0  0
 14 37  1  0  0  0  0
 15 20  2  0  0  0  0
 15 38  1  0  0  0  0
 16 19  2  0  0  0  0
 16 20  1  0  0  0  0
 17 18  1  0  0  0  0
 17 21  1  0  0  0  0
 17 39  1  0  0  0  0
 17 40  1  0  0  0  0
 18 41  1  0  0  0  0
 18 42  1  0  0  0  0
 19 45  1  0  0  0  0
 20 46  1  0  0  0  0
 21 22  1  0  0  0  0
 21 43  1  0  0  0  0
 21 44  1  0  0  0  0
 22 23  1  0  0  0  0
 22 48  1  0  0  0  0
 22 49  1  0  0  0  0
 23 24  2  0  0  0  0
 23 25  1  0  0  0  0
 24 26  1  0  0  0  0
 24 50  1  0  0  0  0
 25 27  2  0  0  0  0
 25 51  1  0  0  0  0
 26 28  2  0  0  0  0
 26 52  1  0  0  0  0
 27 28  1  0  0  0  0
 27 53  1  0  0  0  0
 28 54  1  0  0  0  0
M  END
> <PUBCHEM_COMPOUND_CID>
17396236

> <PUBCHEM_COMPOUND_CANONICALIZED>
1

> <PUBCHEM_CACTVS_COMPLEXITY>
662

> <PUBCHEM_CACTVS_HBOND_ACCEPTOR>
6

> <PUBCHEM_CACTVS_HBOND_DONOR>
1

> <PUBCHEM_CACTVS_ROTATABLE_BOND>
9

> <PUBCHEM_CACTVS_SUBSKEYS>
AAADceB7OABgAAAAAAAAAAAAAAAAAWAAAAAwYAAAAAAAAAABQAAAHAQQQAAADADBWAQwAYJAAAKAAiBCAHBCABAgAAAIiJgIAIgIICKAkRCEIAAgkACIiAcQgIAOAAgAAAAAAAAAEAAAAAAAAAAAAAAAAA==

> <PUBCHEM_IUPAC_OPENEYE_NAME>
N-(4-phenylbutyl)-4-pyrrolidin-1-ylsulfonyl-benzenesulfonamide

> <PUBCHEM_IUPAC_CAS_NAME>
N-(4-phenylbutyl)-4-(1-pyrrolidinylsulfonyl)benzenesulfonamide

> <PUBCHEM_IUPAC_NAME>
N-(4-phenylbutyl)-4-pyrrolidin-1-ylsulfonylbenzenesulfonamide

> <PUBCHEM_IUPAC_SYSTEMATIC_NAME>
N-(4-phenylbutyl)-4-pyrrolidin-1-ylsulfonyl-benzenesulfonamide

> <PUBCHEM_IUPAC_TRADITIONAL_NAME>
N-(4-phenylbutyl)-4-pyrrolidinosulfonyl-benzenesulfonamide

> <PUBCHEM_IUPAC_INCHI>
InChI=1S/C20H26N2O4S2/c23-27(24,21-15-5-4-10-18-8-2-1-3-9-18)19-11-13-20(14-12-19)28(25,26)22-16-6-7-17-22/h1-3,8-9,11-14,21H,4-7,10,15-17H2

> <PUBCHEM_IUPAC_INCHIKEY>
QWVZIIHWHZBAQW-UHFFFAOYSA-N

> <PUBCHEM_XLOGP3_AA>
3.2

> <PUBCHEM_EXACT_MASS>
422.133399

> <PUBCHEM_MOLECULAR_FORMULA>
C20H26N2O4S2

> <PUBCHEM_MOLECULAR_WEIGHT>
422.56144

> <PUBCHEM_OPENEYE_CAN_SMILES>
C1CCN(C1)S(=O)(=O)C2=CC=C(C=C2)S(=O)(=O)NCCCCC3=CC=CC=C3

> <PUBCHEM_OPENEYE_ISO_SMILES>
C1CCN(C1)S(=O)(=O)C2=CC=C(C=C2)S(=O)(=O)NCCCCC3=CC=CC=C3

> <PUBCHEM_CACTVS_TPSA>
100

> <PUBCHEM_MONOISOTOPIC_WEIGHT>
422.133399

> <PUBCHEM_TOTAL_CHARGE>
0

> <PUBCHEM_HEAVY_ATOM_COUNT>
28

> <PUBCHEM_ATOM_DEF_STEREO_COUNT>
0

> <PUBCHEM_ATOM_UDEF_STEREO_COUNT>
0

> <PUBCHEM_BOND_DEF_STEREO_COUNT>
0

> <PUBCHEM_BOND_UDEF_STEREO_COUNT>
0

> <PUBCHEM_ISOTOPIC_ATOM_COUNT>
0

> <PUBCHEM_COMPONENT_COUNT>
1

> <PUBCHEM_CACTVS_TAUTO_COUNT>
1

> <PUBCHEM_COORDINATE_TYPE>
1
5
255

> <PUBCHEM_BONDANNOTATIONS>
13  14  8
13  15  8
14  19  8
15  20  8
16  19  8
16  20  8
23  24  8
23  25  8
24  26  8
25  27  8
26  28  8
27  28  8

$$$$

