443612
  -OEChem-07051213023D

 42 45  0     1  0  0  0  0  0999 V2000
    0.0033   -1.6571   -1.3877 O   0  0  0  0  0  0  0  0  0  0  0  0
   -0.1660    2.6686   -0.0537 O   0  0  0  0  0  0  0  0  0  0  0  0
    2.4850   -0.7481    1.6676 O   0  0  0  0  0  0  0  0  0  0  0  0
    1.7063    0.3073   -2.1692 O   0  0  0  0  0  0  0  0  0  0  0  0
   -0.0878   -3.1611    0.7814 O   0  0  0  0  0  0  0  0  0  0  0  0
    2.9639   -1.8985   -0.2766 O   0  0  0  0  0  0  0  0  0  0  0  0
   -0.8573    2.8582    2.0782 O   0  0  0  0  0  0  0  0  0  0  0  0
   -1.4164    0.0835   -0.3608 C   0  0  2  0  0  0  0  0  0  0  0  0
   -0.2098   -0.8905   -0.1801 C   0  0  2  0  0  0  0  0  0  0  0  0
    1.0954   -0.1335    0.1424 C   0  0  1  0  0  0  0  0  0  0  0  0
   -2.5532   -0.9557   -0.5888 C   0  0  1  0  0  0  0  0  0  0  0  0
    1.3665    0.9698   -0.9406 C   0  0  2  0  0  0  0  0  0  0  0  0
   -1.1523    1.0031   -1.5482 C   0  0  0  0  0  0  0  0  0  0  0  0
   -0.7555   -1.9100    0.8243 C   0  0  1  0  0  0  0  0  0  0  0  0
    0.0918    1.8222   -1.1938 C   0  0  1  0  0  0  0  0  0  0  0  0
   -2.2324   -2.0930    0.4124 C   0  0  0  0  0  0  0  0  0  0  0  0
   -1.7185    1.0004    0.8481 C   0  0  0  0  0  0  0  0  0  0  0  0
    1.3969    0.2094    1.6359 C   0  0  0  0  0  0  0  0  0  0  0  0
    2.3221   -1.0994    0.3680 C   0  0  0  0  0  0  0  0  0  0  0  0
   -3.9922   -0.4697   -0.4781 C   0  0  0  0  0  0  0  0  0  0  0  0
    2.5680    1.8636   -0.6018 C   0  0  0  0  0  0  0  0  0  0  0  0
   -0.8578    2.2304    1.0212 C   0  0  0  0  0  0  0  0  0  0  0  0
   -2.4487   -1.3666   -1.6034 H   0  0  0  0  0  0  0  0  0  0  0  0
   -2.0086    1.6718   -1.7026 H   0  0  0  0  0  0  0  0  0  0  0  0
   -1.0135    0.4482   -2.4817 H   0  0  0  0  0  0  0  0  0  0  0  0
   -0.7143   -1.5546    1.8564 H   0  0  0  0  0  0  0  0  0  0  0  0
    0.2825    2.4967   -2.0381 H   0  0  0  0  0  0  0  0  0  0  0  0
   -2.8657   -2.0272    1.3050 H   0  0  0  0  0  0  0  0  0  0  0  0
   -2.4201   -3.0713   -0.0446 H   0  0  0  0  0  0  0  0  0  0  0  0
   -1.6933    0.4408    1.7878 H   0  0  0  0  0  0  0  0  0  0  0  0
   -2.7299    1.4126    0.7492 H   0  0  0  0  0  0  0  0  0  0  0  0
    1.7606    1.2135    1.8656 H   0  0  0  0  0  0  0  0  0  0  0  0
    0.6397   -0.0410    2.3816 H   0  0  0  0  0  0  0  0  0  0  0  0
   -4.1681    0.3868   -1.1361 H   0  0  0  0  0  0  0  0  0  0  0  0
   -4.6825   -1.2668   -0.7754 H   0  0  0  0  0  0  0  0  0  0  0  0
   -4.2554   -0.1834    0.5448 H   0  0  0  0  0  0  0  0  0  0  0  0
    0.6360   -2.3665   -1.1832 H   0  0  0  0  0  0  0  0  0  0  0  0
    3.4725    1.2682   -0.4355 H   0  0  0  0  0  0  0  0  0  0  0  0
    2.7942    2.5292   -1.4436 H   0  0  0  0  0  0  0  0  0  0  0  0
    2.4037    2.4902    0.2784 H   0  0  0  0  0  0  0  0  0  0  0  0
    0.9874   -0.2961   -2.4148 H   0  0  0  0  0  0  0  0  0  0  0  0
   -0.5468   -3.7591    1.3956 H   0  0  0  0  0  0  0  0  0  0  0  0
  1  9  1  0  0  0  0
  1 37  1  0  0  0  0
  2 15  1  0  0  0  0
  2 22  1  0  0  0  0
  3 18  1  0  0  0  0
  3 19  1  0  0  0  0
  4 12  1  0  0  0  0
  4 41  1  0  0  0  0
  5 14  1  0  0  0  0
  5 42  1  0  0  0  0
  6 19  2  0  0  0  0
  7 22  2  0  0  0  0
  8  9  1  0  0  0  0
  8 11  1  0  0  0  0
  8 13  1  0  0  0  0
  8 17  1  0  0  0  0
  9 10  1  0  0  0  0
  9 14  1  0  0  0  0
 10 12  1  0  0  0  0
 10 18  1  0  0  0  0
 10 19  1  0  0  0  0
 11 16  1  0  0  0  0
 11 20  1  0  0  0  0
 11 23  1  0  0  0  0
 12 15  1  0  0  0  0
 12 21  1  0  0  0  0
 13 15  1  0  0  0  0
 13 24  1  0  0  0  0
 13 25  1  0  0  0  0
 14 16  1  0  0  0  0
 14 26  1  0  0  0  0
 15 27  1  0  0  0  0
 16 28  1  0  0  0  0
 16 29  1  0  0  0  0
 17 22  1  0  0  0  0
 17 30  1  0  0  0  0
 17 31  1  0  0  0  0
 18 32  1  0  0  0  0
 18 33  1  0  0  0  0
 20 34  1  0  0  0  0
 20 35  1  0  0  0  0
 20 36  1  0  0  0  0
 21 38  1  0  0  0  0
 21 39  1  0  0  0  0
 21 40  1  0  0  0  0
M  END
> <PUBCHEM_COMPOUND_CID>
443612

> <PUBCHEM_CONFORMER_RMSD>
0.6

> <PUBCHEM_CONFORMER_DIVERSEORDER>
1

> <PUBCHEM_MMFF94_PARTIAL_CHARGES>
19
1 -0.68
10 0.05
12 0.28
14 0.28
15 0.28
17 0.06
18 0.26
19 0.67
2 -0.43
22 0.66
3 -0.41
37 0.4
4 -0.68
41 0.4
42 0.4
5 -0.68
6 -0.57
7 -0.57
9 0.28

> <PUBCHEM_EFFECTIVE_ROTOR_COUNT>
1.8

> <PUBCHEM_PHARMACOPHORE_FEATURES>
12
1 1 acceptor
1 1 donor
1 4 acceptor
1 4 donor
1 5 acceptor
1 5 donor
1 6 acceptor
1 7 acceptor
4 3 10 18 19 rings
5 8 9 11 14 16 rings
6 2 8 13 15 17 22 rings
6 8 9 10 12 13 15 rings

> <PUBCHEM_HEAVY_ATOM_COUNT>
22

> <PUBCHEM_ATOM_DEF_STEREO_COUNT>
7

> <PUBCHEM_ATOM_UDEF_STEREO_COUNT>
0

> <PUBCHEM_BOND_DEF_STEREO_COUNT>
0

> <PUBCHEM_BOND_UDEF_STEREO_COUNT>
0

> <PUBCHEM_ISOTOPIC_ATOM_COUNT>
0

> <PUBCHEM_COMPONENT_COUNT>
1

> <PUBCHEM_CACTVS_TAUTO_COUNT>
1

> <PUBCHEM_CONFORMER_ID>
0006C4DC00000001

> <PUBCHEM_MMFF94_ENERGY>
85.1744

> <PUBCHEM_FEATURE_SELFOVERLAP>
62.53

> <PUBCHEM_SHAPE_FINGERPRINT>
10863032 1 17630897001398570525
10948715 1 17626668193684236117
10967382 1 18272656692750858583
11578080 2 18055385515859655741
12423570 1 15976976765881123076
13132413 78 17979646636500467024
13140716 1 18201722838435950347
13172582 1 18128255794934157266
141345 1 16166585265342257689
14142880 1 17762090969633453448
144361 1 18059573525262563052
14617773 55 18334848454820430221
14817 1 12341787927666733925
15001771 113 18342449322847325030
15852999 172 16686875984677791991
15881359 60 17981645720295777719
16945 1 17840615860753002437
20510252 161 18265630925086598466
20511035 2 17907589029846448359
20905425 154 16970542219089719614
22112679 90 18267004215094255965
22344851 341 17622157971243512741
2334 1 18200315403269860791
23419403 2 17043522530927025540
23559900 14 18052527774118782444
2748010 2 18059029327278631903
5845 1 5809515911761780261
7364860 26 18124034516233948534
81228 2 18268433610232821170

> <PUBCHEM_SHAPE_MULTIPOLES>
411.66
3.87
3.02
1.66
1.48
0.04
-0.13
-1.02
0.47
-0.26
-0.94
-0.47
0.63
-0.34

> <PUBCHEM_SHAPE_SELFOVERLAP>
908.668

> <PUBCHEM_SHAPE_VOLUME>
218.5

> <PUBCHEM_COORDINATE_TYPE>
2
5
10

$$$$

