11954000
  -OEChem-07051213023D

 71 70  0     1  0  0  0  0  0999 V2000
    4.6333    0.3000   -2.0544 O   0  0  0  0  0  0  0  0  0  0  0  0
   -5.7090    3.5979    0.0570 O   0  0  0  0  0  0  0  0  0  0  0  0
   -8.1744    0.3017   -1.6656 O   0  0  0  0  0  0  0  0  0  0  0  0
   -7.2362    1.2133    0.2563 N   0  0  0  0  0  0  0  0  0  0  0  0
    5.2047    0.0050   -0.7777 C   0  0  2  0  0  0  0  0  0  0  0  0
    4.1779    0.2904    0.3506 C   0  0  2  0  0  0  0  0  0  0  0  0
    9.0593    0.7474   -0.4179 C   0  0  1  0  0  0  0  0  0  0  0  0
    6.4936    0.8109   -0.6409 C   0  0  0  0  0  0  0  0  0  0  0  0
    7.6730    0.1609   -0.5568 C   0  0  0  0  0  0  0  0  0  0  0  0
    9.7394    0.3282    0.9021 C   0  0  0  0  0  0  0  0  0  0  0  0
    4.8652    0.4017    1.7193 C   0  0  0  0  0  0  0  0  0  0  0  0
    3.1364   -0.8085    0.4200 C   0  0  0  0  0  0  0  0  0  0  0  0
    9.9012    0.3750   -1.6407 C   0  0  0  0  0  0  0  0  0  0  0  0
    6.3436    2.3089   -0.6004 C   0  0  0  0  0  0  0  0  0  0  0  0
    9.0211    0.7373    2.1824 C   0  0  0  0  0  0  0  0  0  0  0  0
    1.7958   -0.7105    0.2943 C   0  0  0  0  0  0  0  0  0  0  0  0
    1.0630    0.5795    0.0356 C   0  0  0  0  0  0  0  0  0  0  0  0
    0.9922   -1.9283    0.4337 C   0  0  0  0  0  0  0  0  0  0  0  0
   -7.8571    2.5147    0.1631 C   0  0  2  0  0  0  0  0  0  0  0  0
   -0.3445   -2.0225    0.3406 C   0  0  0  0  0  0  0  0  0  0  0  0
   -6.9486    3.5896    0.7560 C   0  0  0  0  0  0  0  0  0  0  0  0
   -9.2108    2.4939    0.8613 C   0  0  0  0  0  0  0  0  0  0  0  0
   -1.0565   -3.2735    0.5008 C   0  0  0  0  0  0  0  0  0  0  0  0
   -7.4526    0.2137   -0.6755 C   0  0  0  0  0  0  0  0  0  0  0  0
   -6.7707   -1.0808   -0.3506 C   0  0  0  0  0  0  0  0  0  0  0  0
   -2.3921   -3.3724    0.4086 C   0  0  0  0  0  0  0  0  0  0  0  0
   -5.4284   -1.0682   -0.2428 C   0  0  0  0  0  0  0  0  0  0  0  0
   -7.6911   -2.2574   -0.2249 C   0  0  0  0  0  0  0  0  0  0  0  0
   -3.2445   -2.2332    0.1397 C   0  0  0  0  0  0  0  0  0  0  0  0
   -4.5832   -2.2146    0.0267 C   0  0  0  0  0  0  0  0  0  0  0  0
    5.4436   -1.0667   -0.7884 H   0  0  0  0  0  0  0  0  0  0  0  0
    3.6965    1.2489    0.1420 H   0  0  0  0  0  0  0  0  0  0  0  0
    9.0093    1.8408   -0.4108 H   0  0  0  0  0  0  0  0  0  0  0  0
    7.6562   -0.9285   -0.5900 H   0  0  0  0  0  0  0  0  0  0  0  0
    9.8759   -0.7610    0.9141 H   0  0  0  0  0  0  0  0  0  0  0  0
   10.7472    0.7623    0.9273 H   0  0  0  0  0  0  0  0  0  0  0  0
    5.4700   -0.4869    1.9354 H   0  0  0  0  0  0  0  0  0  0  0  0
    5.5088    1.2805    1.8065 H   0  0  0  0  0  0  0  0  0  0  0  0
    4.1176    0.4892    2.5173 H   0  0  0  0  0  0  0  0  0  0  0  0
    3.5618   -1.7949    0.6137 H   0  0  0  0  0  0  0  0  0  0  0  0
   10.8927    0.8368   -1.5820 H   0  0  0  0  0  0  0  0  0  0  0  0
    9.4267    0.7198   -2.5662 H   0  0  0  0  0  0  0  0  0  0  0  0
   10.0403   -0.7094   -1.7148 H   0  0  0  0  0  0  0  0  0  0  0  0
    6.1862    2.6889   -1.6154 H   0  0  0  0  0  0  0  0  0  0  0  0
    7.2148    2.8170   -0.1817 H   0  0  0  0  0  0  0  0  0  0  0  0
    5.4923    2.6293    0.0046 H   0  0  0  0  0  0  0  0  0  0  0  0
    8.8538    1.8187    2.2062 H   0  0  0  0  0  0  0  0  0  0  0  0
    9.6223    0.4658    3.0558 H   0  0  0  0  0  0  0  0  0  0  0  0
    8.0536    0.2354    2.2738 H   0  0  0  0  0  0  0  0  0  0  0  0
    3.8391   -0.2511   -2.1575 H   0  0  0  0  0  0  0  0  0  0  0  0
    1.7140    1.4505   -0.0529 H   0  0  0  0  0  0  0  0  0  0  0  0
    0.4996    0.5189   -0.9023 H   0  0  0  0  0  0  0  0  0  0  0  0
    0.3653    0.7957    0.8525 H   0  0  0  0  0  0  0  0  0  0  0  0
    1.5538   -2.8409    0.6349 H   0  0  0  0  0  0  0  0  0  0  0  0
   -8.0095    2.7322   -0.9013 H   0  0  0  0  0  0  0  0  0  0  0  0
   -0.8909   -1.1126    0.1405 H   0  0  0  0  0  0  0  0  0  0  0  0
   -6.7417    3.3947    1.8141 H   0  0  0  0  0  0  0  0  0  0  0  0
   -7.4052    4.5802    0.6619 H   0  0  0  0  0  0  0  0  0  0  0  0
   -9.1058    2.2498    1.9244 H   0  0  0  0  0  0  0  0  0  0  0  0
   -9.8714    1.7423    0.4154 H   0  0  0  0  0  0  0  0  0  0  0  0
   -9.7064    3.4670    0.7819 H   0  0  0  0  0  0  0  0  0  0  0  0
   -6.6789    1.0117    1.0820 H   0  0  0  0  0  0  0  0  0  0  0  0
   -0.4769   -4.1698    0.7045 H   0  0  0  0  0  0  0  0  0  0  0  0
   -2.8667   -4.3407    0.5386 H   0  0  0  0  0  0  0  0  0  0  0  0
   -4.8946   -0.1290   -0.3813 H   0  0  0  0  0  0  0  0  0  0  0  0
   -8.0376   -2.5744   -1.2139 H   0  0  0  0  0  0  0  0  0  0  0  0
   -7.2288   -3.1166    0.2666 H   0  0  0  0  0  0  0  0  0  0  0  0
   -8.5682   -1.9888    0.3743 H   0  0  0  0  0  0  0  0  0  0  0  0
   -5.1599    4.2924    0.4593 H   0  0  0  0  0  0  0  0  0  0  0  0
   -2.7868   -1.2593    0.0098 H   0  0  0  0  0  0  0  0  0  0  0  0
   -5.0928   -3.1679    0.1450 H   0  0  0  0  0  0  0  0  0  0  0  0
  1  5  1  0  0  0  0
  1 50  1  0  0  0  0
  2 21  1  0  0  0  0
  2 69  1  0  0  0  0
  3 24  2  0  0  0  0
  4 19  1  0  0  0  0
  4 24  1  0  0  0  0
  4 62  1  0  0  0  0
  5  6  1  0  0  0  0
  5  8  1  0  0  0  0
  5 31  1  0  0  0  0
  6 11  1  0  0  0  0
  6 12  1  0  0  0  0
  6 32  1  0  0  0  0
  7  9  1  0  0  0  0
  7 10  1  0  0  0  0
  7 13  1  0  0  0  0
  7 33  1  0  0  0  0
  8  9  2  0  0  0  0
  8 14  1  0  0  0  0
  9 34  1  0  0  0  0
 10 15  1  0  0  0  0
 10 35  1  0  0  0  0
 10 36  1  0  0  0  0
 11 37  1  0  0  0  0
 11 38  1  0  0  0  0
 11 39  1  0  0  0  0
 12 16  2  0  0  0  0
 12 40  1  0  0  0  0
 13 41  1  0  0  0  0
 13 42  1  0  0  0  0
 13 43  1  0  0  0  0
 14 44  1  0  0  0  0
 14 45  1  0  0  0  0
 14 46  1  0  0  0  0
 15 47  1  0  0  0  0
 15 48  1  0  0  0  0
 15 49  1  0  0  0  0
 16 17  1  0  0  0  0
 16 18  1  0  0  0  0
 17 51  1  0  0  0  0
 17 52  1  0  0  0  0
 17 53  1  0  0  0  0
 18 20  2  0  0  0  0
 18 54  1  0  0  0  0
 19 21  1  0  0  0  0
 19 22  1  0  0  0  0
 19 55  1  0  0  0  0
 20 23  1  0  0  0  0
 20 56  1  0  0  0  0
 21 57  1  0  0  0  0
 21 58  1  0  0  0  0
 22 59  1  0  0  0  0
 22 60  1  0  0  0  0
 22 61  1  0  0  0  0
 23 26  2  0  0  0  0
 23 63  1  0  0  0  0
 24 25  1  0  0  0  0
 25 27  2  0  0  0  0
 25 28  1  0  0  0  0
 26 29  1  0  0  0  0
 26 64  1  0  0  0  0
 27 30  1  0  0  0  0
 27 65  1  0  0  0  0
 28 66  1  0  0  0  0
 28 67  1  0  0  0  0
 28 68  1  0  0  0  0
 29 30  2  0  0  0  0
 29 70  1  0  0  0  0
 30 71  1  0  0  0  0
M  END
> <PUBCHEM_COMPOUND_CID>
11954000

> <PUBCHEM_CONFORMER_RMSD>
1.2

> <PUBCHEM_CONFORMER_DIVERSEORDER>
1
66
34
38
76
88
157
134
111
158
144
98
161
92
148
59
115
103
117
146
45
130
78
101
33
40
136
87
139
149
135
13
75
160
113
18
29
112
127
50
99
102
154
19
3
67
82
110
116
95
86
123
133
151
84
36
48
119
129
55
118
46
79
6
126
83
109
128
68
63
147
104
159
81
62
94
32
35
122
41
49
22
100
138
16
72
74
20
30
73
125
152
108
69
54
53
43
47
23
61
70
25
64
77
90
124
21
80
141
155
26
27
143
24
71
11
140
65
8
91
52
107
57
150
60
97
14
121
145
93
137
4
156
96
142
114
131
120
89
106
17
44
2
37
85
10
42
105
15
12
153
51
5
28
132
39
31
7
58
9
56

> <PUBCHEM_MMFF94_PARTIAL_CHARGES>
37
1 -0.68
12 -0.29
14 0.14
16 -0.14
17 0.14
18 -0.15
19 0.3
2 -0.68
20 -0.15
21 0.28
23 -0.15
24 0.62
25 -0.12
26 -0.15
27 -0.15
28 0.14
29 -0.15
3 -0.57
30 -0.15
34 0.15
4 -0.73
40 0.15
5 0.42
50 0.4
54 0.15
56 0.15
6 0.14
62 0.37
63 0.15
64 0.15
65 0.15
69 0.4
7 0.14
70 0.15
71 0.15
8 -0.28
9 -0.29

> <PUBCHEM_EFFECTIVE_ROTOR_COUNT>
13

> <PUBCHEM_PHARMACOPHORE_FEATURES>
12
1 1 acceptor
1 1 donor
1 11 hydrophobe
1 13 hydrophobe
1 14 hydrophobe
1 15 hydrophobe
1 17 hydrophobe
1 2 acceptor
1 2 donor
1 28 hydrophobe
1 3 acceptor
1 4 donor

> <PUBCHEM_HEAVY_ATOM_COUNT>
30

> <PUBCHEM_ATOM_DEF_STEREO_COUNT>
3

> <PUBCHEM_ATOM_UDEF_STEREO_COUNT>
1

> <PUBCHEM_BOND_DEF_STEREO_COUNT>
6

> <PUBCHEM_BOND_UDEF_STEREO_COUNT>
0

> <PUBCHEM_ISOTOPIC_ATOM_COUNT>
0

> <PUBCHEM_COMPONENT_COUNT>
1

> <PUBCHEM_CACTVS_TAUTO_COUNT>
2

> <PUBCHEM_CONFORMER_ID>
00B6675000000001

> <PUBCHEM_MMFF94_ENERGY>
52.8423

> <PUBCHEM_FEATURE_SELFOVERLAP>
60.895

> <PUBCHEM_SHAPE_FINGERPRINT>
10190206 1 17676761054988471531
10533779 1 18341056332807038413
10625338 131 18413394215750878704
11061554 47 18259707779203276408
11135609 99 9943515311494207771
11181472 205 18201716246478471054
11211813 128 9799698108117225784
11828042 53 18043524121826721512
12539745 222 16486396687220890283
14040221 275 15339109148291609331
14040221 8 18341043044399387700
14294032 229 18130793403210054972
15289351 153 18410581664743010547
15604295 49 18263087630549711224
21298829 104 18413105078894954831
21585482 111 18272655701236107237
21781055 127 18343309176144478338
306946 40 17385734556812255978
3711267 37 17917138417167073052
437795 83 18407478869627502227
44802255 64 17530967978205225247
5718773 13 9007051362755298715
5937810 71 18113891685541545105
6673363 416 18260551105307004013
9962374 69 7420943180041564698
9980921 7 18131357432634422301

> <PUBCHEM_SHAPE_MULTIPOLES>
594.8
39.7
3.79
1.34
13.96
0.77
0.04
26.65
-2.59
-12.3
0.84
2.93
0.35
-1.53

> <PUBCHEM_SHAPE_SELFOVERLAP>
1153.855

> <PUBCHEM_SHAPE_VOLUME>
360.1

> <PUBCHEM_COORDINATE_TYPE>
2
5
10

$$$$

