9996586
  -OEChem-07051213103D

 40 43  0     1  0  0  0  0  0999 V2000
   -1.1200   -1.7119   -0.0153 O   0  0  0  0  0  0  0  0  0  0  0  0
   -1.3902    2.3659    0.3664 O   0  0  0  0  0  0  0  0  0  0  0  0
    5.2646   -1.5307    0.8571 O   0  0  0  0  0  0  0  0  0  0  0  0
    6.2245   -0.2887   -0.9715 O   0  0  0  0  0  0  0  0  0  0  0  0
   -3.9522    2.2226    0.1693 O   0  0  0  0  0  0  0  0  0  0  0  0
   -5.8084   -2.1167   -0.5111 O   0  0  0  0  0  0  0  0  0  0  0  0
    0.0429    0.4310    0.1251 C   0  0  1  0  0  0  0  0  0  0  0  0
    1.1446    1.1902    0.8536 C   0  0  0  0  0  0  0  0  0  0  0  0
   -0.1308   -0.9691    0.7040 C   0  0  0  0  0  0  0  0  0  0  0  0
   -1.2879    1.1526    0.2283 C   0  0  0  0  0  0  0  0  0  0  0  0
   -2.4894    0.3037    0.0800 C   0  0  0  0  0  0  0  0  0  0  0  0
    2.5094    0.8193    0.3368 C   0  0  0  0  0  0  0  0  0  0  0  0
   -2.3352   -1.0793   -0.0535 C   0  0  0  0  0  0  0  0  0  0  0  0
   -3.7624    0.8786    0.0358 C   0  0  0  0  0  0  0  0  0  0  0  0
    3.1954   -0.2372    0.9252 C   0  0  0  0  0  0  0  0  0  0  0  0
    3.0574    1.5474   -0.7252 C   0  0  0  0  0  0  0  0  0  0  0  0
   -4.8798    0.0656   -0.1581 C   0  0  0  0  0  0  0  0  0  0  0  0
   -3.4549   -1.8847   -0.2668 C   0  0  0  0  0  0  0  0  0  0  0  0
    4.4423   -0.5394    0.4175 C   0  0  0  0  0  0  0  0  0  0  0  0
   -4.7262   -1.3121   -0.3141 C   0  0  0  0  0  0  0  0  0  0  0  0
    4.9905    0.1699   -0.6265 C   0  0  0  0  0  0  0  0  0  0  0  0
    4.3221    1.2205   -1.2206 C   0  0  0  0  0  0  0  0  0  0  0  0
   -6.2478    0.6691   -0.2086 C   0  0  0  0  0  0  0  0  0  0  0  0
    6.3916   -1.3664   -0.0278 C   0  0  0  0  0  0  0  0  0  0  0  0
    0.2566    0.3647   -0.9508 H   0  0  0  0  0  0  0  0  0  0  0  0
    1.0916    1.0204    1.9374 H   0  0  0  0  0  0  0  0  0  0  0  0
    1.0250    2.2753    0.7368 H   0  0  0  0  0  0  0  0  0  0  0  0
    0.7927   -1.5474    0.6184 H   0  0  0  0  0  0  0  0  0  0  0  0
   -0.4035   -0.9480    1.7679 H   0  0  0  0  0  0  0  0  0  0  0  0
    2.7835   -0.7996    1.7555 H   0  0  0  0  0  0  0  0  0  0  0  0
    2.5075    2.3692   -1.1765 H   0  0  0  0  0  0  0  0  0  0  0  0
   -3.3313   -2.9586   -0.3852 H   0  0  0  0  0  0  0  0  0  0  0  0
    4.7573    1.7765   -2.0431 H   0  0  0  0  0  0  0  0  0  0  0  0
   -6.3390    1.3389   -1.0705 H   0  0  0  0  0  0  0  0  0  0  0  0
   -7.0410   -0.0787   -0.3052 H   0  0  0  0  0  0  0  0  0  0  0  0
   -6.4592    1.2226    0.7130 H   0  0  0  0  0  0  0  0  0  0  0  0
    6.5404   -2.2995   -0.5835 H   0  0  0  0  0  0  0  0  0  0  0  0
    7.2854   -1.1694    0.5752 H   0  0  0  0  0  0  0  0  0  0  0  0
   -4.8749    2.4805    0.0265 H   0  0  0  0  0  0  0  0  0  0  0  0
   -5.5087   -3.0380   -0.5970 H   0  0  0  0  0  0  0  0  0  0  0  0
  1  9  1  0  0  0  0
  1 13  1  0  0  0  0
  2 10  2  0  0  0  0
  3 19  1  0  0  0  0
  3 24  1  0  0  0  0
  4 21  1  0  0  0  0
  4 24  1  0  0  0  0
  5 14  1  0  0  0  0
  5 39  1  0  0  0  0
  6 20  1  0  0  0  0
  6 40  1  0  0  0  0
  7  8  1  0  0  0  0
  7  9  1  0  0  0  0
  7 10  1  0  0  0  0
  7 25  1  0  0  0  0
  8 12  1  0  0  0  0
  8 26  1  0  0  0  0
  8 27  1  0  0  0  0
  9 28  1  0  0  0  0
  9 29  1  0  0  0  0
 10 11  1  0  0  0  0
 11 13  2  0  0  0  0
 11 14  1  0  0  0  0
 12 15  2  0  0  0  0
 12 16  1  0  0  0  0
 13 18  1  0  0  0  0
 14 17  2  0  0  0  0
 15 19  1  0  0  0  0
 15 30  1  0  0  0  0
 16 22  2  0  0  0  0
 16 31  1  0  0  0  0
 17 20  1  0  0  0  0
 17 23  1  0  0  0  0
 18 20  2  0  0  0  0
 18 32  1  0  0  0  0
 19 21  2  0  0  0  0
 21 22  1  0  0  0  0
 22 33  1  0  0  0  0
 23 34  1  0  0  0  0
 23 35  1  0  0  0  0
 23 36  1  0  0  0  0
 24 37  1  0  0  0  0
 24 38  1  0  0  0  0
M  END
> <PUBCHEM_COMPOUND_CID>
9996586

> <PUBCHEM_CONFORMER_RMSD>
0.6

> <PUBCHEM_CONFORMER_DIVERSEORDER>
8
35
14
38
12
15
19
22
34
31
37
23
2
20
27
16
6
3
28
33
25
17
13
4
9
10
1
5
30
36
26
39
7
18
11
32
24
29
21

> <PUBCHEM_MMFF94_PARTIAL_CHARGES>
30
1 -0.36
10 0.42
11 0.09
12 -0.14
13 0.08
14 0.08
15 -0.15
16 -0.15
17 -0.14
18 -0.15
19 0.08
2 -0.57
20 0.08
21 0.08
22 -0.15
23 0.14
24 0.56
3 -0.36
30 0.15
31 0.15
32 0.15
33 0.15
39 0.45
4 -0.36
40 0.45
5 -0.53
6 -0.53
7 0.06
8 0.14
9 0.28

> <PUBCHEM_EFFECTIVE_ROTOR_COUNT>
3.2

> <PUBCHEM_PHARMACOPHORE_FEATURES>
10
1 1 acceptor
1 2 acceptor
1 3 acceptor
1 4 acceptor
1 5 donor
1 6 donor
5 3 4 19 21 24 rings
6 1 7 9 10 11 13 rings
6 11 13 14 17 18 20 rings
6 12 15 16 19 21 22 rings

> <PUBCHEM_HEAVY_ATOM_COUNT>
24

> <PUBCHEM_ATOM_DEF_STEREO_COUNT>
0

> <PUBCHEM_ATOM_UDEF_STEREO_COUNT>
1

> <PUBCHEM_BOND_DEF_STEREO_COUNT>
0

> <PUBCHEM_BOND_UDEF_STEREO_COUNT>
0

> <PUBCHEM_ISOTOPIC_ATOM_COUNT>
0

> <PUBCHEM_COMPONENT_COUNT>
1

> <PUBCHEM_CACTVS_TAUTO_COUNT>
21

> <PUBCHEM_CONFORMER_ID>
0098892A00000008

> <PUBCHEM_MMFF94_ENERGY>
72.7668

> <PUBCHEM_FEATURE_SELFOVERLAP>
50.93

> <PUBCHEM_SHAPE_FINGERPRINT>
10595046 47 18341327808461229692
11315181 36 18040431083683983904
11524674 6 16587744222755559111
11724838 91 8286193947024450626
11796584 16 18260825982354585894
11963148 33 18261118443462904343
12107183 9 17765721608256468432
12166972 35 18060416889399323957
12236239 1 18130787849795644077
12516196 113 17894914010373261008
12730499 353 14549019896998493944
12954195 1 18260544576002393353
12969540 114 14979963536017605763
13167823 11 18341895177719304774
13288520 33 18334013895651541393
13533116 47 18413108355912881584
13782708 43 17241614914470984231
13862211 1 18334017151484931519
14251752 14 18342461469131084165
14347332 77 18342463676786335868
15183329 4 18411979178450184958
15196674 1 18410295778703050537
15788980 27 18342173362513670448
17349148 13 18334572430056803236
17844677 252 18259982647918976776
17857418 61 18410857668195071634
18681886 176 18409451358901225360
19489759 90 16588020234406878291
20374829 77 18261111859250372213
21267235 1 18339078195334400747
21857420 4 16019492200557852334
221357 26 17489591177654838092
22224240 67 14056727851176618814
2297311 6 18260261953910458497
23035841 295 18409166615259184553
23175994 123 16732985310495417313
23402539 116 18408044017681318573
23522609 53 18120059893659618209
23559900 14 18262526887697653761
29717793 49 18411414017068511468
3004659 81 18341894095920244170
3298306 158 17967531289488332831
335352 9 18408889538656305605
338550 245 18407759231601704454
350125 39 18341051903714047969
4073 2 17916580922143610858
4214541 1 18410293626950990785
4340502 62 4750879264234493844
44062 13 18114464448725598039
465052 167 18115020801635223622
5104073 3 18259983738745348121
542803 24 17346600767939885450
559249 180 18409732897500819307
5758199 1 6699796585196554118
6138700 20 18409448115336221111
7495541 125 18040718030639134976
86090 222 16154524538114496910
960060 61 18060695075142845740

> <PUBCHEM_SHAPE_MULTIPOLES>
458.69
15.89
2.07
0.89
5.35
0.03
-0.04
-4.58
-3.07
-1.33
-0.03
0.82
0.07
-1.06

> <PUBCHEM_SHAPE_SELFOVERLAP>
1027.747

> <PUBCHEM_SHAPE_VOLUME>
241.8

> <PUBCHEM_COORDINATE_TYPE>
2
5
10

$$$$

