6183
  -OEChem-06261201092D

 25 25  0     1  0  0  0  0  0999 V2000
    3.7320    1.6900    0.0000 N   0  0  0  0  0  0  0  0  0  0  0  0
    4.5981    2.1900    0.0000 N   0  0  0  0  0  0  0  0  0  0  0  0
    2.8660    0.1900    0.0000 C   0  0  3  0  0  0  0  0  0  0  0  0
    3.7320    0.6900    0.0000 C   0  0  0  0  0  0  0  0  0  0  0  0
    2.8660   -0.8100    0.0000 C   0  0  0  0  0  0  0  0  0  0  0  0
    2.0000    0.6900    0.0000 C   0  0  0  0  0  0  0  0  0  0  0  0
    2.0000   -1.3100    0.0000 C   0  0  0  0  0  0  0  0  0  0  0  0
    3.7320   -1.3100    0.0000 C   0  0  0  0  0  0  0  0  0  0  0  0
    2.0000   -2.3100    0.0000 C   0  0  0  0  0  0  0  0  0  0  0  0
    3.7320   -2.3100    0.0000 C   0  0  0  0  0  0  0  0  0  0  0  0
    2.8660   -2.8100    0.0000 C   0  0  0  0  0  0  0  0  0  0  0  0
    2.8660    1.0400    0.0000 H   0  0  0  0  0  0  0  0  0  0  0  0
    3.9441    0.1074    0.0000 H   0  0  0  0  0  0  0  0  0  0  0  0
    4.3426    0.7977    0.0000 H   0  0  0  0  0  0  0  0  0  0  0  0
    2.3100    1.2269    0.0000 H   0  0  0  0  0  0  0  0  0  0  0  0
    1.4631    1.0000    0.0000 H   0  0  0  0  0  0  0  0  0  0  0  0
    1.6900    0.1531    0.0000 H   0  0  0  0  0  0  0  0  0  0  0  0
    1.4631   -1.0000    0.0000 H   0  0  0  0  0  0  0  0  0  0  0  0
    4.2690   -1.0000    0.0000 H   0  0  0  0  0  0  0  0  0  0  0  0
    3.1951    2.0000    0.0000 H   0  0  0  0  0  0  0  0  0  0  0  0
    1.4631   -2.6200    0.0000 H   0  0  0  0  0  0  0  0  0  0  0  0
    4.2690   -2.6200    0.0000 H   0  0  0  0  0  0  0  0  0  0  0  0
    2.8660   -3.4300    0.0000 H   0  0  0  0  0  0  0  0  0  0  0  0
    4.5981    2.8100    0.0000 H   0  0  0  0  0  0  0  0  0  0  0  0
    5.1350    1.8800    0.0000 H   0  0  0  0  0  0  0  0  0  0  0  0
  1  2  1  0  0  0  0
  1  4  1  0  0  0  0
  1 20  1  0  0  0  0
  2 24  1  0  0  0  0
  2 25  1  0  0  0  0
  3  4  1  0  0  0  0
  3  5  1  0  0  0  0
  3  6  1  0  0  0  0
  3 12  1  0  0  0  0
  4 13  1  0  0  0  0
  4 14  1  0  0  0  0
  5  7  2  0  0  0  0
  5  8  1  0  0  0  0
  6 15  1  0  0  0  0
  6 16  1  0  0  0  0
  6 17  1  0  0  0  0
  7  9  1  0  0  0  0
  7 18  1  0  0  0  0
  8 10  2  0  0  0  0
  8 19  1  0  0  0  0
  9 11  2  0  0  0  0
  9 21  1  0  0  0  0
 10 11  1  0  0  0  0
 10 22  1  0  0  0  0
 11 23  1  0  0  0  0
M  END
> <PUBCHEM_COMPOUND_CID>
6183

> <PUBCHEM_COMPOUND_CANONICALIZED>
1

> <PUBCHEM_CACTVS_COMPLEXITY>
97.7

> <PUBCHEM_CACTVS_HBOND_ACCEPTOR>
2

> <PUBCHEM_CACTVS_HBOND_DONOR>
2

> <PUBCHEM_CACTVS_ROTATABLE_BOND>
3

> <PUBCHEM_CACTVS_SUBSKEYS>
AAADccBzAAAAAAAAAAAAAAAAAAAAAAAAAAAwAAAAAAAAAAABAAAAHAAYAAAADQDBGAQyAIBiAACAAiBCAAACAAAgAAIYqIAAAIgIICKAkRGAIAAgkAAIiAcQgMAOgAAAAAAAAAAAAAAAAAAAAAAAAAAAAA==

> <PUBCHEM_IUPAC_OPENEYE_NAME>
2-phenylpropylhydrazine

> <PUBCHEM_IUPAC_CAS_NAME>
2-phenylpropylhydrazine

> <PUBCHEM_IUPAC_NAME>
2-phenylpropylhydrazine

> <PUBCHEM_IUPAC_SYSTEMATIC_NAME>
2-phenylpropyldiazane

> <PUBCHEM_IUPAC_TRADITIONAL_NAME>
2-phenylpropylhydrazine

> <PUBCHEM_IUPAC_INCHI>
InChI=1S/C9H14N2/c1-8(7-11-10)9-5-3-2-4-6-9/h2-6,8,11H,7,10H2,1H3

> <PUBCHEM_IUPAC_INCHIKEY>
CKEKULWTUGAESO-UHFFFAOYSA-N

> <PUBCHEM_XLOGP3_AA>
1.3

> <PUBCHEM_EXACT_MASS>
150.115698

> <PUBCHEM_MOLECULAR_FORMULA>
C9H14N2

> <PUBCHEM_MOLECULAR_WEIGHT>
150.22086

> <PUBCHEM_OPENEYE_CAN_SMILES>
CC(CNN)C1=CC=CC=C1

> <PUBCHEM_OPENEYE_ISO_SMILES>
CC(CNN)C1=CC=CC=C1

> <PUBCHEM_CACTVS_TPSA>
38

> <PUBCHEM_MONOISOTOPIC_WEIGHT>
150.115698

> <PUBCHEM_TOTAL_CHARGE>
0

> <PUBCHEM_HEAVY_ATOM_COUNT>
11

> <PUBCHEM_ATOM_DEF_STEREO_COUNT>
0

> <PUBCHEM_ATOM_UDEF_STEREO_COUNT>
1

> <PUBCHEM_BOND_DEF_STEREO_COUNT>
0

> <PUBCHEM_BOND_UDEF_STEREO_COUNT>
0

> <PUBCHEM_ISOTOPIC_ATOM_COUNT>
0

> <PUBCHEM_COMPONENT_COUNT>
1

> <PUBCHEM_CACTVS_TAUTO_COUNT>
1

> <PUBCHEM_COORDINATE_TYPE>
1
5
255

> <PUBCHEM_BONDANNOTATIONS>
10  11  8
3  12  3
5  7  8
5  8  8
7  9  8
8  10  8
9  11  8

$$$$

