13764
  -OEChem-06241222402D

 29 30  0     0  0  0  0  0  0999 V2000
    3.7891    2.6121    0.0000 O   0  0  0  0  0  0  0  0  0  0  0  0
    2.8660   -4.9757    0.0000 O   0  0  0  0  0  0  0  0  0  0  0  0
    2.0000   -0.4757    0.0000 O   0  0  0  0  0  0  0  0  0  0  0  0
    3.9170    5.2857    0.0000 O   0  5  0  0  0  0  0  0  0  0  0  0
    2.5158    4.2676    0.0000 O   0  0  0  0  0  0  0  0  0  0  0  0
    3.7320   -0.4757    0.0000 N   0  0  0  0  0  0  0  0  0  0  0  0
    3.7320    0.5243    0.0000 N   0  0  0  0  0  0  0  0  0  0  0  0
    3.5103    4.3722    0.0000 N   0  3  0  0  0  0  0  0  0  0  0  0
    2.8660   -1.9757    0.0000 C   0  0  0  0  0  0  0  0  0  0  0  0
    4.5981    2.0243    0.0000 C   0  0  0  0  0  0  0  0  0  0  0  0
    2.0000   -2.4757    0.0000 C   0  0  0  0  0  0  0  0  0  0  0  0
    3.7320   -2.4757    0.0000 C   0  0  0  0  0  0  0  0  0  0  0  0
    5.4071    2.6121    0.0000 C   0  0  0  0  0  0  0  0  0  0  0  0
    2.8660   -0.9757    0.0000 C   0  0  0  0  0  0  0  0  0  0  0  0
    4.0981    3.5631    0.0000 C   0  0  0  0  0  0  0  0  0  0  0  0
    2.0000   -3.4757    0.0000 C   0  0  0  0  0  0  0  0  0  0  0  0
    3.7320   -3.4757    0.0000 C   0  0  0  0  0  0  0  0  0  0  0  0
    2.8660   -3.9757    0.0000 C   0  0  0  0  0  0  0  0  0  0  0  0
    5.0981    3.5631    0.0000 C   0  0  0  0  0  0  0  0  0  0  0  0
    4.5981    1.0243    0.0000 C   0  0  0  0  0  0  0  0  0  0  0  0
    1.4631   -2.1657    0.0000 H   0  0  0  0  0  0  0  0  0  0  0  0
    4.2690   -2.1657    0.0000 H   0  0  0  0  0  0  0  0  0  0  0  0
    5.9967    2.4205    0.0000 H   0  0  0  0  0  0  0  0  0  0  0  0
    5.4625    4.0647    0.0000 H   0  0  0  0  0  0  0  0  0  0  0  0
    1.4631   -3.7857    0.0000 H   0  0  0  0  0  0  0  0  0  0  0  0
    4.2690   -3.7857    0.0000 H   0  0  0  0  0  0  0  0  0  0  0  0
    5.1350    0.7143    0.0000 H   0  0  0  0  0  0  0  0  0  0  0  0
    4.2690   -0.7857    0.0000 H   0  0  0  0  0  0  0  0  0  0  0  0
    2.3291   -5.2857    0.0000 H   0  0  0  0  0  0  0  0  0  0  0  0
  1 10  1  0  0  0  0
  1 15  1  0  0  0  0
  2 18  1  0  0  0  0
  2 29  1  0  0  0  0
  3 14  2  0  0  0  0
  4  8  1  0  0  0  0
  5  8  2  0  0  0  0
  6  7  1  0  0  0  0
  6 14  1  0  0  0  0
  6 28  1  0  0  0  0
  7 20  2  3  0  0  0
  8 15  1  0  0  0  0
  9 11  2  0  0  0  0
  9 12  1  0  0  0  0
  9 14  1  0  0  0  0
 10 13  2  0  0  0  0
 10 20  1  0  0  0  0
 11 16  1  0  0  0  0
 11 21  1  0  0  0  0
 12 17  2  0  0  0  0
 12 22  1  0  0  0  0
 13 19  1  0  0  0  0
 13 23  1  0  0  0  0
 15 19  2  0  0  0  0
 16 18  2  0  0  0  0
 16 25  1  0  0  0  0
 17 18  1  0  0  0  0
 17 26  1  0  0  0  0
 19 24  1  0  0  0  0
 20 27  1  0  0  0  0
M  CHG  2   4  -1   8   1
M  END
> <PUBCHEM_COMPOUND_CID>
13764

> <PUBCHEM_COMPOUND_CANONICALIZED>
1

> <PUBCHEM_CACTVS_COMPLEXITY>
387

> <PUBCHEM_CACTVS_HBOND_ACCEPTOR>
6

> <PUBCHEM_CACTVS_HBOND_DONOR>
2

> <PUBCHEM_CACTVS_ROTATABLE_BOND>
3

> <PUBCHEM_CACTVS_SUBSKEYS>
AAADccBzOAAAAAAAAAAAAAAAAAAAASAAAAAwAAAAAAAAAAABwAAAHgAcCAAADATBmAQwhoByRkCpArFzUwSSCAAsIgA6iAEmbNoMJrKGtZuKeSDkyBEI+Ye83ADOIAAAAAAAAABAAAAAAAAAAAAAAAAAAA==

> <PUBCHEM_IUPAC_OPENEYE_NAME>
4-hydroxy-N-[(5-nitro-2-furyl)methyleneamino]benzamide

> <PUBCHEM_IUPAC_CAS_NAME>
4-hydroxy-N-[(5-nitro-2-furanyl)methylideneamino]benzamide

> <PUBCHEM_IUPAC_NAME>
4-hydroxy-N-[(5-nitrofuran-2-yl)methylideneamino]benzamide

> <PUBCHEM_IUPAC_SYSTEMATIC_NAME>
N-[(5-nitrofuran-2-yl)methylideneamino]-4-oxidanyl-benzamide

> <PUBCHEM_IUPAC_TRADITIONAL_NAME>
4-hydroxy-N-[(5-nitro-2-furyl)methyleneamino]benzamide

> <PUBCHEM_IUPAC_INCHI>
InChI=1S/C12H9N3O5/c16-9-3-1-8(2-4-9)12(17)14-13-7-10-5-6-11(20-10)15(18)19/h1-7,16H,(H,14,17)

> <PUBCHEM_IUPAC_INCHIKEY>
YCWSUKQGVSGXJO-UHFFFAOYSA-N

> <PUBCHEM_XLOGP3>
2.1

> <PUBCHEM_EXACT_MASS>
275.05422

> <PUBCHEM_MOLECULAR_FORMULA>
C12H9N3O5

> <PUBCHEM_MOLECULAR_WEIGHT>
275.21696

> <PUBCHEM_OPENEYE_CAN_SMILES>
C1=CC(=CC=C1C(=O)NN=CC2=CC=C(O2)[N+](=O)[O-])O

> <PUBCHEM_OPENEYE_ISO_SMILES>
C1=CC(=CC=C1C(=O)NN=CC2=CC=C(O2)[N+](=O)[O-])O

> <PUBCHEM_CACTVS_TPSA>
121

> <PUBCHEM_MONOISOTOPIC_WEIGHT>
275.05422

> <PUBCHEM_TOTAL_CHARGE>
0

> <PUBCHEM_HEAVY_ATOM_COUNT>
20

> <PUBCHEM_ATOM_DEF_STEREO_COUNT>
0

> <PUBCHEM_ATOM_UDEF_STEREO_COUNT>
0

> <PUBCHEM_BOND_DEF_STEREO_COUNT>
0

> <PUBCHEM_BOND_UDEF_STEREO_COUNT>
1

> <PUBCHEM_ISOTOPIC_ATOM_COUNT>
0

> <PUBCHEM_COMPONENT_COUNT>
1

> <PUBCHEM_CACTVS_TAUTO_COUNT>
7

> <PUBCHEM_COORDINATE_TYPE>
1
5
255

> <PUBCHEM_BONDANNOTATIONS>
1  10  8
1  15  8
10  13  8
11  16  8
12  17  8
13  19  8
15  19  8
16  18  8
17  18  8
7  20  1
9  11  8
9  12  8

$$$$

