353825
  -OEChem-07051213002D

 34 37  0     0  0  0  0  0  0999 V2000
    2.5836   -0.4453    0.0000 O   0  0  0  0  0  0  0  0  0  0  0  0
    2.5836   -2.0547    0.0000 O   0  0  0  0  0  0  0  0  0  0  0  0
    6.9939    2.2500    0.0000 O   0  0  0  0  0  0  0  0  0  0  0  0
    6.9939   -0.7500    0.0000 N   0  0  0  0  0  0  0  0  0  0  0  0
    6.1279   -0.2500    0.0000 C   0  0  0  0  0  0  0  0  0  0  0  0
    7.8600   -0.2500    0.0000 C   0  0  0  0  0  0  0  0  0  0  0  0
    5.2619   -0.7500    0.0000 C   0  0  0  0  0  0  0  0  0  0  0  0
    7.8600    0.7500    0.0000 C   0  0  0  0  0  0  0  0  0  0  0  0
    6.1279    0.7500    0.0000 C   0  0  0  0  0  0  0  0  0  0  0  0
    4.3958   -0.2500    0.0000 C   0  0  0  0  0  0  0  0  0  0  0  0
    6.9939    1.2500    0.0000 C   0  0  0  0  0  0  0  0  0  0  0  0
    3.5298   -0.7500    0.0000 C   0  0  0  0  0  0  0  0  0  0  0  0
    5.2619   -1.7500    0.0000 C   0  0  0  0  0  0  0  0  0  0  0  0
    6.9939   -1.7500    0.0000 C   0  0  0  0  0  0  0  0  0  0  0  0
    3.5298   -1.7500    0.0000 C   0  0  0  0  0  0  0  0  0  0  0  0
    8.7539   -0.7847    0.0000 C   0  0  0  0  0  0  0  0  0  0  0  0
    4.3958   -2.2500    0.0000 C   0  0  0  0  0  0  0  0  0  0  0  0
    8.7539    1.2847    0.0000 C   0  0  0  0  0  0  0  0  0  0  0  0
    9.6600   -0.2708    0.0000 C   0  0  0  0  0  0  0  0  0  0  0  0
    9.6600    0.7708    0.0000 C   0  0  0  0  0  0  0  0  0  0  0  0
    2.0000   -1.2500    0.0000 C   0  0  0  0  0  0  0  0  0  0  0  0
    5.5910    1.0600    0.0000 H   0  0  0  0  0  0  0  0  0  0  0  0
    4.3958    0.3700    0.0000 H   0  0  0  0  0  0  0  0  0  0  0  0
    5.7988   -2.0600    0.0000 H   0  0  0  0  0  0  0  0  0  0  0  0
    6.3739   -1.7500    0.0000 H   0  0  0  0  0  0  0  0  0  0  0  0
    6.9939   -2.3700    0.0000 H   0  0  0  0  0  0  0  0  0  0  0  0
    7.6139   -1.7500    0.0000 H   0  0  0  0  0  0  0  0  0  0  0  0
    8.7467   -1.4046    0.0000 H   0  0  0  0  0  0  0  0  0  0  0  0
    4.3958   -2.8700    0.0000 H   0  0  0  0  0  0  0  0  0  0  0  0
    8.7467    1.9046    0.0000 H   0  0  0  0  0  0  0  0  0  0  0  0
   10.1957   -0.5829    0.0000 H   0  0  0  0  0  0  0  0  0  0  0  0
    1.5391   -0.8353    0.0000 H   0  0  0  0  0  0  0  0  0  0  0  0
    1.5391   -1.6647    0.0000 H   0  0  0  0  0  0  0  0  0  0  0  0
   10.1957    1.0829    0.0000 H   0  0  0  0  0  0  0  0  0  0  0  0
  1 12  1  0  0  0  0
  1 21  1  0  0  0  0
  2 15  1  0  0  0  0
  2 21  1  0  0  0  0
  3 11  2  0  0  0  0
  4  5  1  0  0  0  0
  4  6  1  0  0  0  0
  4 14  1  0  0  0  0
  5  7  1  0  0  0  0
  5  9  2  0  0  0  0
  6  8  1  0  0  0  0
  6 16  2  0  0  0  0
  7 10  2  0  0  0  0
  7 13  1  0  0  0  0
  8 11  1  0  0  0  0
  8 18  2  0  0  0  0
  9 11  1  0  0  0  0
  9 22  1  0  0  0  0
 10 12  1  0  0  0  0
 10 23  1  0  0  0  0
 12 15  2  0  0  0  0
 13 17  2  0  0  0  0
 13 24  1  0  0  0  0
 14 25  1  0  0  0  0
 14 26  1  0  0  0  0
 14 27  1  0  0  0  0
 15 17  1  0  0  0  0
 16 19  1  0  0  0  0
 16 28  1  0  0  0  0
 17 29  1  0  0  0  0
 18 20  1  0  0  0  0
 18 30  1  0  0  0  0
 19 20  2  0  0  0  0
 19 31  1  0  0  0  0
 20 34  1  0  0  0  0
 21 32  1  0  0  0  0
 21 33  1  0  0  0  0
M  END
> <PUBCHEM_COMPOUND_CID>
353825

> <PUBCHEM_COMPOUND_CANONICALIZED>
1

> <PUBCHEM_CACTVS_COMPLEXITY>
461

> <PUBCHEM_CACTVS_HBOND_ACCEPTOR>
4

> <PUBCHEM_CACTVS_HBOND_DONOR>
0

> <PUBCHEM_CACTVS_ROTATABLE_BOND>
1

> <PUBCHEM_CACTVS_SUBSKEYS>
AAADccB6MAAAAAAAAAAAAAAAAAAAASAAAAAwYIAAAAAAAEiBQAAAHgAAAAAADAyBmAcyzoMABACIAqRSQACCCAAlIgAIiAEO7MgdJjrEtZukMapkwBHO6ce42JKOIAABAAACQABAAAIAAASAAAAAAAAAAA==

> <PUBCHEM_IUPAC_OPENEYE_NAME>
2-(1,3-benzodioxol-5-yl)-1-methyl-quinolin-4-one

> <PUBCHEM_IUPAC_CAS_NAME>
2-(1,3-benzodioxol-5-yl)-1-methyl-4-quinolinone

> <PUBCHEM_IUPAC_NAME>
2-(1,3-benzodioxol-5-yl)-1-methylquinolin-4-one

> <PUBCHEM_IUPAC_SYSTEMATIC_NAME>
2-(1,3-benzodioxol-5-yl)-1-methyl-quinolin-4-one

> <PUBCHEM_IUPAC_TRADITIONAL_NAME>
2-(1,3-benzodioxol-5-yl)-1-methyl-4-quinolone

> <PUBCHEM_IUPAC_INCHI>
InChI=1S/C17H13NO3/c1-18-13-5-3-2-4-12(13)15(19)9-14(18)11-6-7-16-17(8-11)21-10-20-16/h2-9H,10H2,1H3

> <PUBCHEM_IUPAC_INCHIKEY>
COBBNRKBTCBWQP-UHFFFAOYSA-N

> <PUBCHEM_XLOGP3_AA>
3.1

> <PUBCHEM_EXACT_MASS>
279.089543

> <PUBCHEM_MOLECULAR_FORMULA>
C17H13NO3

> <PUBCHEM_MOLECULAR_WEIGHT>
279.29002

> <PUBCHEM_OPENEYE_CAN_SMILES>
CN1C2=CC=CC=C2C(=O)C=C1C3=CC4=C(C=C3)OCO4

> <PUBCHEM_OPENEYE_ISO_SMILES>
CN1C2=CC=CC=C2C(=O)C=C1C3=CC4=C(C=C3)OCO4

> <PUBCHEM_CACTVS_TPSA>
38.8

> <PUBCHEM_MONOISOTOPIC_WEIGHT>
279.089543

> <PUBCHEM_TOTAL_CHARGE>
0

> <PUBCHEM_HEAVY_ATOM_COUNT>
21

> <PUBCHEM_ATOM_DEF_STEREO_COUNT>
0

> <PUBCHEM_ATOM_UDEF_STEREO_COUNT>
0

> <PUBCHEM_BOND_DEF_STEREO_COUNT>
0

> <PUBCHEM_BOND_UDEF_STEREO_COUNT>
0

> <PUBCHEM_ISOTOPIC_ATOM_COUNT>
0

> <PUBCHEM_COMPONENT_COUNT>
1

> <PUBCHEM_CACTVS_TAUTO_COUNT>
1

> <PUBCHEM_COORDINATE_TYPE>
1
5
255

> <PUBCHEM_BONDANNOTATIONS>
10  12  8
12  15  8
13  17  8
15  17  8
16  19  8
18  20  8
19  20  8
4  5  8
4  6  8
5  9  8
6  16  8
6  8  8
7  10  8
7  13  8
8  11  8
8  18  8
9  11  8

$$$$

