56928129
  -OEChem-07051213153D

 83 86  0     1  0  0  0  0  0999 V2000
   -3.8556   -2.8071   -0.2432 O   0  0  0  0  0  0  0  0  0  0  0  0
   -5.9438    3.5517    0.0529 O   0  0  0  0  0  0  0  0  0  0  0  0
    3.3891    1.6261   -1.9740 O   0  0  0  0  0  0  0  0  0  0  0  0
   -6.3786    1.4542   -1.7711 O   0  0  0  0  0  0  0  0  0  0  0  0
   -5.6254   -2.5382    1.0964 O   0  0  0  0  0  0  0  0  0  0  0  0
    6.0766    1.0517   -2.0342 O   0  0  0  0  0  0  0  0  0  0  0  0
    6.5805    1.2588    2.2205 O   0  0  0  0  0  0  0  0  0  0  0  0
    0.5524   -0.6511    0.5393 C   0  0  1  0  0  0  0  0  0  0  0  0
   -0.4008   -1.4770   -0.3767 C   0  0  1  0  0  0  0  0  0  0  0  0
   -1.8985   -1.3627   -0.0014 C   0  0  1  0  0  0  0  0  0  0  0  0
   -2.3998    0.1110    0.0061 C   0  0  1  0  0  0  0  0  0  0  0  0
    1.5136    0.0799   -0.4546 C   0  0  2  0  0  0  0  0  0  0  0  0
   -3.8785    0.3482    0.5505 C   0  0  2  0  0  0  0  0  0  0  0  0
   -0.2281    0.3545    1.4057 C   0  0  0  0  0  0  0  0  0  0  0  0
   -0.0471   -1.0779   -1.8170 C   0  0  0  0  0  0  0  0  0  0  0  0
   -1.3493    1.0625    0.6487 C   0  0  0  0  0  0  0  0  0  0  0  0
    1.4327   -0.7440   -1.7380 C   0  0  0  0  0  0  0  0  0  0  0  0
    2.9504    0.2936    0.0054 C   0  0  1  0  0  0  0  0  0  0  0  0
   -4.9104   -0.5937   -0.1652 C   0  0  2  0  0  0  0  0  0  0  0  0
    1.3005   -1.6126    1.4858 C   0  0  0  0  0  0  0  0  0  0  0  0
   -2.7306   -2.2475   -0.9391 C   0  0  0  0  0  0  0  0  0  0  0  0
   -4.2514    1.8393    0.2309 C   0  0  0  0  0  0  0  0  0  0  0  0
   -3.9374    0.1386    2.0834 C   0  0  0  0  0  0  0  0  0  0  0  0
   -6.3909   -0.1532    0.0049 C   0  0  0  0  0  0  0  0  0  0  0  0
   -5.7210    2.1984    0.4422 C   0  0  2  0  0  0  0  0  0  0  0  0
    3.8829    0.5254   -1.2150 C   0  0  2  0  0  0  0  0  0  0  0  0
   -6.6333    1.2979   -0.3762 C   0  0  1  0  0  0  0  0  0  0  0  0
   -4.8329   -2.0470    0.2955 C   0  0  0  0  0  0  0  0  0  0  0  0
    2.9847    1.4416    1.0205 C   0  0  0  0  0  0  0  0  0  0  0  0
    5.3618    0.7680   -0.8330 C   0  0  1  0  0  0  0  0  0  0  0  0
    6.0542   -0.3972   -0.0585 C   0  0  2  0  0  0  0  0  0  0  0  0
    7.5174   -0.0421    0.3861 C   0  0  1  0  0  0  0  0  0  0  0  0
    6.0480   -1.6933   -0.8894 C   0  0  0  0  0  0  0  0  0  0  0  0
    7.6052    1.2384    1.2368 C   0  0  0  0  0  0  0  0  0  0  0  0
    8.1631   -1.1949    1.1749 C   0  0  0  0  0  0  0  0  0  0  0  0
   -0.1292   -2.5394   -0.2822 H   0  0  0  0  0  0  0  0  0  0  0  0
   -1.9983   -1.7611    1.0169 H   0  0  0  0  0  0  0  0  0  0  0  0
   -2.4482    0.4139   -1.0508 H   0  0  0  0  0  0  0  0  0  0  0  0
    1.0803    1.0598   -0.6951 H   0  0  0  0  0  0  0  0  0  0  0  0
    0.4262    1.1128    1.8397 H   0  0  0  0  0  0  0  0  0  0  0  0
   -0.6793   -0.1639    2.2629 H   0  0  0  0  0  0  0  0  0  0  0  0
   -0.6090   -0.1997   -2.1508 H   0  0  0  0  0  0  0  0  0  0  0  0
   -0.2396   -1.8892   -2.5261 H   0  0  0  0  0  0  0  0  0  0  0  0
   -1.8027    1.7746    1.3419 H   0  0  0  0  0  0  0  0  0  0  0  0
   -0.9206    1.6855   -0.1455 H   0  0  0  0  0  0  0  0  0  0  0  0
    2.0136   -1.6712   -1.6530 H   0  0  0  0  0  0  0  0  0  0  0  0
    1.7294   -0.2354   -2.6568 H   0  0  0  0  0  0  0  0  0  0  0  0
    3.3277   -0.6052    0.4982 H   0  0  0  0  0  0  0  0  0  0  0  0
   -4.7321   -0.5697   -1.2472 H   0  0  0  0  0  0  0  0  0  0  0  0
    1.9290   -2.3187    0.9317 H   0  0  0  0  0  0  0  0  0  0  0  0
    0.5876   -2.2101    2.0673 H   0  0  0  0  0  0  0  0  0  0  0  0
    1.9265   -1.0815    2.2095 H   0  0  0  0  0  0  0  0  0  0  0  0
   -3.0507   -1.7424   -1.8562 H   0  0  0  0  0  0  0  0  0  0  0  0
   -2.1450   -3.1165   -1.2594 H   0  0  0  0  0  0  0  0  0  0  0  0
   -3.6564    2.5341    0.8343 H   0  0  0  0  0  0  0  0  0  0  0  0
   -3.9813    2.0720   -0.8086 H   0  0  0  0  0  0  0  0  0  0  0  0
   -3.5609   -0.8463    2.3757 H   0  0  0  0  0  0  0  0  0  0  0  0
   -4.9595    0.2198    2.4661 H   0  0  0  0  0  0  0  0  0  0  0  0
   -3.3429    0.8830    2.6219 H   0  0  0  0  0  0  0  0  0  0  0  0
   -7.0199   -0.8031   -0.6185 H   0  0  0  0  0  0  0  0  0  0  0  0
   -6.7216   -0.3038    1.0403 H   0  0  0  0  0  0  0  0  0  0  0  0
   -5.9812    2.1220    1.5040 H   0  0  0  0  0  0  0  0  0  0  0  0
    3.8667   -0.3264   -1.8996 H   0  0  0  0  0  0  0  0  0  0  0  0
   -7.6803    1.5748   -0.2097 H   0  0  0  0  0  0  0  0  0  0  0  0
    2.5288    2.3533    0.6208 H   0  0  0  0  0  0  0  0  0  0  0  0
    4.0055    1.6878    1.3209 H   0  0  0  0  0  0  0  0  0  0  0  0
    2.4764    1.1739    1.9485 H   0  0  0  0  0  0  0  0  0  0  0  0
    5.4229    1.6911   -0.2511 H   0  0  0  0  0  0  0  0  0  0  0  0
   -5.3633    4.1123    0.5954 H   0  0  0  0  0  0  0  0  0  0  0  0
    5.4770   -0.5971    0.8519 H   0  0  0  0  0  0  0  0  0  0  0  0
    2.4647    1.4971   -2.2254 H   0  0  0  0  0  0  0  0  0  0  0  0
   -6.9888    0.8668   -2.2489 H   0  0  0  0  0  0  0  0  0  0  0  0
    8.1358    0.1150   -0.5075 H   0  0  0  0  0  0  0  0  0  0  0  0
    5.6284    1.7934   -2.4755 H   0  0  0  0  0  0  0  0  0  0  0  0
    6.6734   -1.5978   -1.7829 H   0  0  0  0  0  0  0  0  0  0  0  0
    6.4107   -2.5457   -0.3080 H   0  0  0  0  0  0  0  0  0  0  0  0
    5.0380   -1.9666   -1.2067 H   0  0  0  0  0  0  0  0  0  0  0  0
    7.4809    2.1215    0.6014 H   0  0  0  0  0  0  0  0  0  0  0  0
    8.5769    1.3276    1.7340 H   0  0  0  0  0  0  0  0  0  0  0  0
    8.3421   -2.0672    0.5398 H   0  0  0  0  0  0  0  0  0  0  0  0
    9.1400   -0.8982    1.5728 H   0  0  0  0  0  0  0  0  0  0  0  0
    7.5347   -1.5009    2.0179 H   0  0  0  0  0  0  0  0  0  0  0  0
    6.6713    2.0937    2.7106 H   0  0  0  0  0  0  0  0  0  0  0  0
  1 21  1  0  0  0  0
  1 28  1  0  0  0  0
  2 25  1  0  0  0  0
  2 69  1  0  0  0  0
  3 26  1  0  0  0  0
  3 71  1  0  0  0  0
  4 27  1  0  0  0  0
  4 72  1  0  0  0  0
  5 28  2  0  0  0  0
  6 30  1  0  0  0  0
  6 74  1  0  0  0  0
  7 34  1  0  0  0  0
  7 83  1  0  0  0  0
  8  9  1  0  0  0  0
  8 12  1  0  0  0  0
  8 14  1  0  0  0  0
  8 20  1  0  0  0  0
  9 10  1  0  0  0  0
  9 15  1  0  0  0  0
  9 36  1  0  0  0  0
 10 11  1  0  0  0  0
 10 21  1  0  0  0  0
 10 37  1  0  0  0  0
 11 13  1  0  0  0  0
 11 16  1  0  0  0  0
 11 38  1  0  0  0  0
 12 17  1  0  0  0  0
 12 18  1  0  0  0  0
 12 39  1  0  0  0  0
 13 19  1  0  0  0  0
 13 22  1  0  0  0  0
 13 23  1  0  0  0  0
 14 16  1  0  0  0  0
 14 40  1  0  0  0  0
 14 41  1  0  0  0  0
 15 17  1  0  0  0  0
 15 42  1  0  0  0  0
 15 43  1  0  0  0  0
 16 44  1  0  0  0  0
 16 45  1  0  0  0  0
 17 46  1  0  0  0  0
 17 47  1  0  0  0  0
 18 26  1  0  0  0  0
 18 29  1  0  0  0  0
 18 48  1  0  0  0  0
 19 24  1  0  0  0  0
 19 28  1  0  0  0  0
 19 49  1  0  0  0  0
 20 50  1  0  0  0  0
 20 51  1  0  0  0  0
 20 52  1  0  0  0  0
 21 53  1  0  0  0  0
 21 54  1  0  0  0  0
 22 25  1  0  0  0  0
 22 55  1  0  0  0  0
 22 56  1  0  0  0  0
 23 57  1  0  0  0  0
 23 58  1  0  0  0  0
 23 59  1  0  0  0  0
 24 27  1  0  0  0  0
 24 60  1  0  0  0  0
 24 61  1  0  0  0  0
 25 27  1  0  0  0  0
 25 62  1  0  0  0  0
 26 30  1  0  0  0  0
 26 63  1  0  0  0  0
 27 64  1  0  0  0  0
 29 65  1  0  0  0  0
 29 66  1  0  0  0  0
 29 67  1  0  0  0  0
 30 31  1  0  0  0  0
 30 68  1  0  0  0  0
 31 32  1  0  0  0  0
 31 33  1  0  0  0  0
 31 70  1  0  0  0  0
 32 34  1  0  0  0  0
 32 35  1  0  0  0  0
 32 73  1  0  0  0  0
 33 75  1  0  0  0  0
 33 76  1  0  0  0  0
 33 77  1  0  0  0  0
 34 78  1  0  0  0  0
 34 79  1  0  0  0  0
 35 80  1  0  0  0  0
 35 81  1  0  0  0  0
 35 82  1  0  0  0  0
M  END
> <PUBCHEM_COMPOUND_CID>
56928129

> <PUBCHEM_CONFORMER_RMSD>
1

> <PUBCHEM_CONFORMER_DIVERSEORDER>
1
21
26
30
18
28
27
25
12
29
10
22
19
8
17
31
6
24
11
2
32
14
16
5
13
4
15
20
9
7
23
3

> <PUBCHEM_MMFF94_PARTIAL_CHARGES>
20
1 -0.43
19 0.06
2 -0.68
21 0.28
25 0.28
26 0.28
27 0.28
28 0.66
3 -0.68
30 0.28
34 0.28
4 -0.68
5 -0.57
6 -0.68
69 0.4
7 -0.68
71 0.4
72 0.4
74 0.4
83 0.4

> <PUBCHEM_EFFECTIVE_ROTOR_COUNT>
8.2

> <PUBCHEM_PHARMACOPHORE_FEATURES>
18
1 2 acceptor
1 2 donor
1 29 hydrophobe
1 3 acceptor
1 3 donor
1 33 hydrophobe
1 35 hydrophobe
1 4 acceptor
1 4 donor
1 5 acceptor
1 6 acceptor
1 6 donor
1 7 acceptor
1 7 donor
5 8 9 12 15 17 rings
6 13 19 22 24 25 27 rings
6 8 9 10 11 14 16 rings
7 1 10 11 13 19 21 28 rings

> <PUBCHEM_HEAVY_ATOM_COUNT>
35

> <PUBCHEM_ATOM_DEF_STEREO_COUNT>
12

> <PUBCHEM_ATOM_UDEF_STEREO_COUNT>
2

> <PUBCHEM_BOND_DEF_STEREO_COUNT>
0

> <PUBCHEM_BOND_UDEF_STEREO_COUNT>
0

> <PUBCHEM_ISOTOPIC_ATOM_COUNT>
0

> <PUBCHEM_COMPONENT_COUNT>
1

> <PUBCHEM_CACTVS_TAUTO_COUNT>
2

> <PUBCHEM_CONFORMER_ID>
0364A78100000001

> <PUBCHEM_MMFF94_ENERGY>
142.87

> <PUBCHEM_FEATURE_SELFOVERLAP>
91.565

> <PUBCHEM_SHAPE_FINGERPRINT>
10 15 17822293440812366378
10319926 262 18409452449005462018
10411042 1 18049441436716792495
11135926 11 18131077056167570827
11315181 36 17240202136549590961
12236239 1 18131066004815492990
13782708 43 17968371251963157678
13811026 1 17967814964247349680
13914758 101 18130787875713036966
14251764 18 18130785621562114470
14294032 229 18129944619131100372
14347424 109 17989205937597218516
14856354 85 15482665776097907699
15021287 119 17917989447429656956
15142383 8 18410014356199565572
15183329 4 18410002235411362444
15301273 46 13902189296383795828
15328829 1 18202568405805894562
15461852 350 17240771652779949429
1577012 14 17988916748305168092
15849732 13 18334859424831302324
17093844 174 18412266125426175523
18608769 82 18334006169928918683
20511986 3 18260833713185020350
21130935 74 18343023277372759098
21150785 3 14634874145286943444
21814621 53 18334573547371305914
21859007 373 18187089472647333584
23081809 10 17846208926469871428
23522609 53 17560214974107098316
23559900 14 17895198766346270401
23569943 247 16414937321639095746
249057 25 18059284358073168637
2838139 119 18410011048489763501
4073 2 18342454795290366386
4144715 1 18269829814106663666
4169191 19 17095518470649438570
504579 68 18272381849704962399
6004065 56 15502666974870145328
6086070 43 18261120651096082129
77296 10 18335132124984514486
99344 41 18412263960963670370

> <PUBCHEM_SHAPE_MULTIPOLES>
679.2
22.04
2.52
1.72
21.05
0.05
-0.15
5.95
2.49
-3.9
0.02
1.56
0.19
0.81

> <PUBCHEM_SHAPE_SELFOVERLAP>
1409.548

> <PUBCHEM_SHAPE_VOLUME>
382.7

> <PUBCHEM_COORDINATE_TYPE>
2
5
10

$$$$

