4843
  -OEChem-06261200222D

 20 20  0     0  0  0  0  0  0999 V2000
    5.4921    0.9143    0.0000 O   0  0  0  0  0  0  0  0  0  0  0  0
    2.0000   -0.3644    0.0000 O   0  0  0  0  0  0  0  0  0  0  0  0
    3.7320    0.6356    0.0000 N   0  0  0  0  0  0  0  0  0  0  0  0
    2.8660   -1.8644    0.0000 N   0  0  0  0  0  0  0  0  0  0  0  0
    2.9230    1.2234    0.0000 C   0  0  0  0  0  0  0  0  0  0  0  0
    3.2320    2.1744    0.0000 C   0  0  0  0  0  0  0  0  0  0  0  0
    4.2320    2.1744    0.0000 C   0  0  0  0  0  0  0  0  0  0  0  0
    4.5411    1.2234    0.0000 C   0  0  0  0  0  0  0  0  0  0  0  0
    3.7320   -0.3644    0.0000 C   0  0  0  0  0  0  0  0  0  0  0  0
    2.8660   -0.8644    0.0000 C   0  0  0  0  0  0  0  0  0  0  0  0
    2.3566    1.4755    0.0000 H   0  0  0  0  0  0  0  0  0  0  0  0
    2.6130    0.6864    0.0000 H   0  0  0  0  0  0  0  0  0  0  0  0
    3.2969    2.7910    0.0000 H   0  0  0  0  0  0  0  0  0  0  0  0
    2.6256    2.3033    0.0000 H   0  0  0  0  0  0  0  0  0  0  0  0
    4.8385    2.3033    0.0000 H   0  0  0  0  0  0  0  0  0  0  0  0
    4.1672    2.7910    0.0000 H   0  0  0  0  0  0  0  0  0  0  0  0
    3.9441   -0.9470    0.0000 H   0  0  0  0  0  0  0  0  0  0  0  0
    4.3426   -0.2568    0.0000 H   0  0  0  0  0  0  0  0  0  0  0  0
    2.3291   -2.1744    0.0000 H   0  0  0  0  0  0  0  0  0  0  0  0
    3.4030   -2.1744    0.0000 H   0  0  0  0  0  0  0  0  0  0  0  0
  1  8  2  0  0  0  0
  2 10  2  0  0  0  0
  3  5  1  0  0  0  0
  3  8  1  0  0  0  0
  3  9  1  0  0  0  0
  4 10  1  0  0  0  0
  4 19  1  0  0  0  0
  4 20  1  0  0  0  0
  5  6  1  0  0  0  0
  5 11  1  0  0  0  0
  5 12  1  0  0  0  0
  6  7  1  0  0  0  0
  6 13  1  0  0  0  0
  6 14  1  0  0  0  0
  7  8  1  0  0  0  0
  7 15  1  0  0  0  0
  7 16  1  0  0  0  0
  9 10  1  0  0  0  0
  9 17  1  0  0  0  0
  9 18  1  0  0  0  0
M  END
> <PUBCHEM_COMPOUND_CID>
4843

> <PUBCHEM_COMPOUND_CANONICALIZED>
1

> <PUBCHEM_CACTVS_COMPLEXITY>
167

> <PUBCHEM_CACTVS_HBOND_ACCEPTOR>
2

> <PUBCHEM_CACTVS_HBOND_DONOR>
1

> <PUBCHEM_CACTVS_ROTATABLE_BOND>
2

> <PUBCHEM_CACTVS_SUBSKEYS>
AAADccBjMAAAAAAAAAAAAAAAAAAAAWAAAAAAAAAAAAAAAAAAAAAAHgAQAAAACADBgAQAAANAAAAIAAEQEAAAAAAAAAAAAAGIAAAAQBAAgCAUAAAAFgCAAAAEAAAAAAAAAAAAAAAAAAAAAAAAAAAAAAAAAA==

> <PUBCHEM_IUPAC_OPENEYE_NAME>
2-(2-oxopyrrolidin-1-yl)acetamide

> <PUBCHEM_IUPAC_CAS_NAME>
2-(2-oxo-1-pyrrolidinyl)acetamide

> <PUBCHEM_IUPAC_NAME>
2-(2-oxopyrrolidin-1-yl)acetamide

> <PUBCHEM_IUPAC_SYSTEMATIC_NAME>
2-(2-oxidanylidenepyrrolidin-1-yl)ethanamide

> <PUBCHEM_IUPAC_TRADITIONAL_NAME>
2-(2-ketopyrrolidino)acetamide

> <PUBCHEM_IUPAC_INCHI>
InChI=1S/C6H10N2O2/c7-5(9)4-8-3-1-2-6(8)10/h1-4H2,(H2,7,9)

> <PUBCHEM_IUPAC_INCHIKEY>
GMZVRMREEHBGGF-UHFFFAOYSA-N

> <PUBCHEM_XLOGP3_AA>
-1.3

> <PUBCHEM_EXACT_MASS>
142.074228

> <PUBCHEM_MOLECULAR_FORMULA>
C6H10N2O2

> <PUBCHEM_MOLECULAR_WEIGHT>
142.1558

> <PUBCHEM_OPENEYE_CAN_SMILES>
C1CC(=O)N(C1)CC(=O)N

> <PUBCHEM_OPENEYE_ISO_SMILES>
C1CC(=O)N(C1)CC(=O)N

> <PUBCHEM_CACTVS_TPSA>
63.4

> <PUBCHEM_MONOISOTOPIC_WEIGHT>
142.074228

> <PUBCHEM_TOTAL_CHARGE>
0

> <PUBCHEM_HEAVY_ATOM_COUNT>
10

> <PUBCHEM_ATOM_DEF_STEREO_COUNT>
0

> <PUBCHEM_ATOM_UDEF_STEREO_COUNT>
0

> <PUBCHEM_BOND_DEF_STEREO_COUNT>
0

> <PUBCHEM_BOND_UDEF_STEREO_COUNT>
0

> <PUBCHEM_ISOTOPIC_ATOM_COUNT>
0

> <PUBCHEM_COMPONENT_COUNT>
1

> <PUBCHEM_CACTVS_TAUTO_COUNT>
6

> <PUBCHEM_COORDINATE_TYPE>
1
5
255

$$$$

