5281678
  -OEChem-07051212583D

 36 38  0     0  0  0  0  0  0999 V2000
    0.1695   -0.8230    0.0798 O   0  0  0  0  0  0  0  0  0  0  0  0
   -5.3253   -0.4143   -0.2965 O   0  0  0  0  0  0  0  0  0  0  0  0
   -3.8384    1.8714   -0.2628 O   0  0  0  0  0  0  0  0  0  0  0  0
    1.3115    2.6815    0.0368 O   0  0  0  0  0  0  0  0  0  0  0  0
   -4.0936   -2.8845   -0.1443 O   0  0  0  0  0  0  0  0  0  0  0  0
   -1.4549    2.9075   -0.1416 O   0  0  0  0  0  0  0  0  0  0  0  0
    5.2465   -0.6501   -1.9846 O   0  0  0  0  0  0  0  0  0  0  0  0
    6.4520   -0.8489    0.5121 O   0  0  0  0  0  0  0  0  0  0  0  0
   -1.8066    0.5761   -0.0907 C   0  0  0  0  0  0  0  0  0  0  0  0
   -1.1897   -0.6706   -0.0140 C   0  0  0  0  0  0  0  0  0  0  0  0
    0.9618    0.3137    0.1114 C   0  0  0  0  0  0  0  0  0  0  0  0
   -0.9703    1.7860   -0.0714 C   0  0  0  0  0  0  0  0  0  0  0  0
   -3.1973    0.6706   -0.1861 C   0  0  0  0  0  0  0  0  0  0  0  0
    0.4932    1.5726    0.0359 C   0  0  0  0  0  0  0  0  0  0  0  0
    2.4001    0.0090    0.2128 C   0  0  0  0  0  0  0  0  0  0  0  0
   -1.9608   -1.8331   -0.0329 C   0  0  0  0  0  0  0  0  0  0  0  0
   -3.9664   -0.4936   -0.2042 C   0  0  0  0  0  0  0  0  0  0  0  0
   -3.3496   -1.7430   -0.1278 C   0  0  0  0  0  0  0  0  0  0  0  0
    3.1570   -0.1796   -0.9439 C   0  0  0  0  0  0  0  0  0  0  0  0
    3.0057   -0.0912    1.4658 C   0  0  0  0  0  0  0  0  0  0  0  0
    4.5183   -0.4680   -0.8478 C   0  0  0  0  0  0  0  0  0  0  0  0
    4.3669   -0.3796    1.5618 C   0  0  0  0  0  0  0  0  0  0  0  0
    5.1232   -0.5680    0.4051 C   0  0  0  0  0  0  0  0  0  0  0  0
   -6.0528   -0.3409    0.9271 C   0  0  0  0  0  0  0  0  0  0  0  0
   -1.4822   -2.8074    0.0265 H   0  0  0  0  0  0  0  0  0  0  0  0
    2.6930   -0.1040   -1.9250 H   0  0  0  0  0  0  0  0  0  0  0  0
    2.4290    0.0525    2.3764 H   0  0  0  0  0  0  0  0  0  0  0  0
    4.8323   -0.4563    2.5408 H   0  0  0  0  0  0  0  0  0  0  0  0
   -3.2036    2.6029   -0.2306 H   0  0  0  0  0  0  0  0  0  0  0  0
    0.7405    3.4660   -0.0335 H   0  0  0  0  0  0  0  0  0  0  0  0
   -5.0287   -2.6429   -0.2591 H   0  0  0  0  0  0  0  0  0  0  0  0
   -7.1200   -0.3175    0.6899 H   0  0  0  0  0  0  0  0  0  0  0  0
   -5.7964    0.5731    1.4720 H   0  0  0  0  0  0  0  0  0  0  0  0
   -5.8533   -1.2171    1.5521 H   0  0  0  0  0  0  0  0  0  0  0  0
    6.1865   -0.4931   -1.7999 H   0  0  0  0  0  0  0  0  0  0  0  0
    6.7602   -1.2866   -0.2977 H   0  0  0  0  0  0  0  0  0  0  0  0
  1 10  1  0  0  0  0
  1 11  1  0  0  0  0
  2 17  1  0  0  0  0
  2 24  1  0  0  0  0
  3 13  1  0  0  0  0
  3 29  1  0  0  0  0
  4 14  1  0  0  0  0
  4 30  1  0  0  0  0
  5 18  1  0  0  0  0
  5 31  1  0  0  0  0
  6 12  2  0  0  0  0
  7 21  1  0  0  0  0
  7 35  1  0  0  0  0
  8 23  1  0  0  0  0
  8 36  1  0  0  0  0
  9 10  2  0  0  0  0
  9 12  1  0  0  0  0
  9 13  1  0  0  0  0
 10 16  1  0  0  0  0
 11 14  2  0  0  0  0
 11 15  1  0  0  0  0
 12 14  1  0  0  0  0
 13 17  2  0  0  0  0
 15 19  2  0  0  0  0
 15 20  1  0  0  0  0
 16 18  2  0  0  0  0
 16 25  1  0  0  0  0
 17 18  1  0  0  0  0
 19 21  1  0  0  0  0
 19 26  1  0  0  0  0
 20 22  2  0  0  0  0
 20 27  1  0  0  0  0
 21 23  2  0  0  0  0
 22 23  1  0  0  0  0
 22 28  1  0  0  0  0
 24 32  1  0  0  0  0
 24 33  1  0  0  0  0
 24 34  1  0  0  0  0
M  END
> <PUBCHEM_COMPOUND_CID>
5281678

> <PUBCHEM_CONFORMER_RMSD>
0.6

> <PUBCHEM_CONFORMER_DIVERSEORDER>
1
4
5
3
6
2

> <PUBCHEM_MMFF94_PARTIAL_CHARGES>
33
1 -0.16
10 0.08
11 0.05
12 0.47
13 0.08
14 0.09
15 0.03
16 -0.15
17 0.08
18 0.08
19 -0.15
2 -0.36
20 -0.15
21 0.08
22 -0.15
23 0.08
24 0.28
25 0.15
26 0.15
27 0.15
28 0.15
29 0.45
3 -0.53
30 0.45
31 0.45
35 0.45
36 0.45
4 -0.53
5 -0.53
6 -0.57
7 -0.53
8 -0.53
9 0.09

> <PUBCHEM_EFFECTIVE_ROTOR_COUNT>
2

> <PUBCHEM_PHARMACOPHORE_FEATURES>
11
1 1 acceptor
1 2 acceptor
1 3 donor
1 4 donor
1 5 donor
1 6 acceptor
1 7 donor
1 8 donor
6 1 9 10 11 12 14 rings
6 15 19 20 21 22 23 rings
6 9 10 13 16 17 18 rings

> <PUBCHEM_HEAVY_ATOM_COUNT>
24

> <PUBCHEM_ATOM_DEF_STEREO_COUNT>
0

> <PUBCHEM_ATOM_UDEF_STEREO_COUNT>
0

> <PUBCHEM_BOND_DEF_STEREO_COUNT>
0

> <PUBCHEM_BOND_UDEF_STEREO_COUNT>
0

> <PUBCHEM_ISOTOPIC_ATOM_COUNT>
0

> <PUBCHEM_COMPONENT_COUNT>
1

> <PUBCHEM_CACTVS_TAUTO_COUNT>
435

> <PUBCHEM_CONFORMER_ID>
0050978E00000001

> <PUBCHEM_MMFF94_ENERGY>
84.0306

> <PUBCHEM_FEATURE_SELFOVERLAP>
55.85

> <PUBCHEM_SHAPE_FINGERPRINT>
10 15 17895493453570766138
10319926 262 18191331427662594786
11370993 144 16877938364732837762
12236239 1 17703791466141584080
12390115 104 18116425037546737913
12553582 1 18341058457944729635
12633257 1 18409162182810814915
12788726 201 18200881784880942881
13140716 1 18337675192204997297
13288520 33 18410857663499171159
13402501 40 18041274443900453286
13533116 47 14996278154555577262
13540713 5 18048025278428978783
13862211 1 18411423899551187679
14386348 63 17895195523904352814
14790565 3 17688021329399394649
15196674 1 18338799984052410241
15537594 2 18201720656555835795
16752209 62 18343027721766448728
17492 89 17977388227091290095
17804303 29 18409171004209683633
17844677 252 18408602565483373512
1813 80 17846493746719801133
19141452 34 17749393628772149479
200 152 16702026404631296076
20028762 73 18188493450518153015
20374829 77 18410294687818384511
21033648 29 17095820887427787834
21033650 10 17984680454668032004
21065201 7 18335143145907233570
21267235 1 18413666903208430435
2297311 6 18335977640535282612
23175994 123 17313103038319699905
23366157 5 17914619354244494196
23402539 116 18410582802809039374
23522609 53 18056166207896695821
23536379 177 15985109630201104135
23557571 272 18187354480413099812
23559900 14 18336270033113469152
23569943 247 17752193140212405839
23845131 108 17250883024125112945
3004659 81 18272082791068377388
314173 85 18261107469735793073
335352 9 18411421696696883597
3411729 13 18192439563495828864
34797466 226 18187072937540027228
350125 39 18341893005030810261
351380 3 18130790053224786323
4325135 7 18341894061851052620
4340502 62 14634864228645385349
5104073 3 18263923229506030107
559249 180 18201445838519515947
8863177 126 17700963359079481043
9709674 26 18124597475051546243

> <PUBCHEM_SHAPE_MULTIPOLES>
446.95
13.01
2.22
1.07
4.29
0.84
0
-5.48
0.57
-2.34
-0.16
1.55
-0.19
0.11

> <PUBCHEM_SHAPE_SELFOVERLAP>
996.909

> <PUBCHEM_SHAPE_VOLUME>
237

> <PUBCHEM_COORDINATE_TYPE>
2
5
10

$$$$

