443227
  -OEChem-07051213013D

 39 40  0     0  0  0  0  0  0999 V2000
   -1.2029    1.3767   -1.6216 O   0  0  0  0  0  0  0  0  0  0  0  0
    5.1578   -1.7780    0.9598 O   0  0  0  0  0  0  0  0  0  0  0  0
   -1.5213   -0.0808    0.1895 N   0  0  0  0  0  0  0  0  0  0  0  0
    4.8384    0.3445   -0.0158 N   0  0  0  0  0  0  0  0  0  0  0  0
   -2.9307   -0.2128    0.2428 C   0  0  0  0  0  0  0  0  0  0  0  0
   -3.6676    0.6688    1.0185 C   0  0  0  0  0  0  0  0  0  0  0  0
   -3.5472   -1.2219   -0.4809 C   0  0  0  0  0  0  0  0  0  0  0  0
   -5.0553    0.5381    1.0720 C   0  0  0  0  0  0  0  0  0  0  0  0
   -4.9350   -1.3524   -0.4275 C   0  0  0  0  0  0  0  0  0  0  0  0
    0.6920    0.5911   -0.5245 C   0  0  0  0  0  0  0  0  0  0  0  0
   -0.7489    0.6762   -0.7024 C   0  0  0  0  0  0  0  0  0  0  0  0
   -5.6890   -0.4723    0.3490 C   0  0  0  0  0  0  0  0  0  0  0  0
   -3.0178    1.7610    1.8049 C   0  0  0  0  0  0  0  0  0  0  0  0
   -2.7669   -2.1799   -1.3216 C   0  0  0  0  0  0  0  0  0  0  0  0
    1.5074    1.6517   -0.9192 C   0  0  0  0  0  0  0  0  0  0  0  0
    1.2585   -0.5516    0.0403 C   0  0  0  0  0  0  0  0  0  0  0  0
    3.4561    0.4267   -0.1846 C   0  0  0  0  0  0  0  0  0  0  0  0
    2.8894    1.5695   -0.7494 C   0  0  0  0  0  0  0  0  0  0  0  0
    2.6405   -0.6339    0.2101 C   0  0  0  0  0  0  0  0  0  0  0  0
    5.5826   -0.7114    0.5273 C   0  0  0  0  0  0  0  0  0  0  0  0
    7.0601   -0.4092    0.5334 C   0  0  0  0  0  0  0  0  0  0  0  0
   -1.0601   -0.4413    1.0216 H   0  0  0  0  0  0  0  0  0  0  0  0
   -5.6584    1.2152    1.6712 H   0  0  0  0  0  0  0  0  0  0  0  0
   -5.4454   -2.1333   -0.9850 H   0  0  0  0  0  0  0  0  0  0  0  0
   -6.7696   -0.5738    0.3902 H   0  0  0  0  0  0  0  0  0  0  0  0
   -3.7430    2.3127    2.4131 H   0  0  0  0  0  0  0  0  0  0  0  0
   -2.2696    1.3494    2.4904 H   0  0  0  0  0  0  0  0  0  0  0  0
   -2.5374    2.4806    1.1340 H   0  0  0  0  0  0  0  0  0  0  0  0
   -2.2900   -1.6546   -2.1554 H   0  0  0  0  0  0  0  0  0  0  0  0
   -1.9990   -2.6811   -0.7230 H   0  0  0  0  0  0  0  0  0  0  0  0
   -3.4047   -2.9625   -1.7469 H   0  0  0  0  0  0  0  0  0  0  0  0
    1.0858    2.5530   -1.3565 H   0  0  0  0  0  0  0  0  0  0  0  0
    0.6617   -1.4113    0.3323 H   0  0  0  0  0  0  0  0  0  0  0  0
    3.5128    2.4040   -1.0606 H   0  0  0  0  0  0  0  0  0  0  0  0
    3.0067   -1.5524    0.6473 H   0  0  0  0  0  0  0  0  0  0  0  0
    5.3633    1.1586   -0.3289 H   0  0  0  0  0  0  0  0  0  0  0  0
    7.4130   -0.2711   -0.4924 H   0  0  0  0  0  0  0  0  0  0  0  0
    7.6065   -1.2398    0.9888 H   0  0  0  0  0  0  0  0  0  0  0  0
    7.2509    0.4994    1.1113 H   0  0  0  0  0  0  0  0  0  0  0  0
  1 11  2  0  0  0  0
  2 20  2  0  0  0  0
  3  5  1  0  0  0  0
  3 11  1  0  0  0  0
  3 22  1  0  0  0  0
  4 17  1  0  0  0  0
  4 20  1  0  0  0  0
  4 36  1  0  0  0  0
  5  6  2  0  0  0  0
  5  7  1  0  0  0  0
  6  8  1  0  0  0  0
  6 13  1  0  0  0  0
  7  9  2  0  0  0  0
  7 14  1  0  0  0  0
  8 12  2  0  0  0  0
  8 23  1  0  0  0  0
  9 12  1  0  0  0  0
  9 24  1  0  0  0  0
 10 11  1  0  0  0  0
 10 15  2  0  0  0  0
 10 16  1  0  0  0  0
 12 25  1  0  0  0  0
 13 26  1  0  0  0  0
 13 27  1  0  0  0  0
 13 28  1  0  0  0  0
 14 29  1  0  0  0  0
 14 30  1  0  0  0  0
 14 31  1  0  0  0  0
 15 18  1  0  0  0  0
 15 32  1  0  0  0  0
 16 19  2  0  0  0  0
 16 33  1  0  0  0  0
 17 18  2  0  0  0  0
 17 19  1  0  0  0  0
 18 34  1  0  0  0  0
 19 35  1  0  0  0  0
 20 21  1  0  0  0  0
 21 37  1  0  0  0  0
 21 38  1  0  0  0  0
 21 39  1  0  0  0  0
M  END
> <PUBCHEM_COMPOUND_CID>
443227

> <PUBCHEM_CONFORMER_RMSD>
0.8

> <PUBCHEM_CONFORMER_DIVERSEORDER>
1
2

> <PUBCHEM_MMFF94_PARTIAL_CHARGES>
30
1 -0.57
10 0.09
11 0.54
12 -0.15
13 0.14
14 0.14
15 -0.15
16 -0.15
17 0.12
18 -0.15
19 -0.15
2 -0.57
20 0.57
21 0.06
22 0.37
23 0.15
24 0.15
25 0.15
3 -0.55
32 0.15
33 0.15
34 0.15
35 0.15
36 0.37
4 -0.55
5 0.12
6 -0.14
7 -0.14
8 -0.15
9 -0.15

> <PUBCHEM_EFFECTIVE_ROTOR_COUNT>
5

> <PUBCHEM_PHARMACOPHORE_FEATURES>
6
1 1 acceptor
1 2 acceptor
1 3 donor
1 4 donor
6 10 15 16 17 18 19 rings
6 5 6 7 8 9 12 rings

> <PUBCHEM_HEAVY_ATOM_COUNT>
21

> <PUBCHEM_ATOM_DEF_STEREO_COUNT>
0

> <PUBCHEM_ATOM_UDEF_STEREO_COUNT>
0

> <PUBCHEM_BOND_DEF_STEREO_COUNT>
0

> <PUBCHEM_BOND_UDEF_STEREO_COUNT>
0

> <PUBCHEM_ISOTOPIC_ATOM_COUNT>
0

> <PUBCHEM_COMPONENT_COUNT>
1

> <PUBCHEM_CACTVS_TAUTO_COUNT>
7

> <PUBCHEM_CONFORMER_ID>
0006C35B00000001

> <PUBCHEM_MMFF94_ENERGY>
86.8036

> <PUBCHEM_FEATURE_SELFOVERLAP>
30.446

> <PUBCHEM_SHAPE_FINGERPRINT>
10 15 16153433831444035074
11315181 36 18334858294764370969
12107183 9 17612862004173417491
12236239 1 18411134710797096843
12507557 5 14129062486993827499
12507560 40 16805594923488938804
12596602 18 17968099716284127138
12616971 3 18342454807483632621
12760667 363 17917995005349283816
13288520 33 18202003230906432661
13403585 85 17530966882001568401
13551218 46 18341332287679764930
13583140 156 16370448855858769166
13675066 3 16588020225832930260
13685833 64 17632573846756651194
13760787 5 17846775179000098204
13862211 1 17988929989884468242
13914758 101 18343023328896100237
14251764 18 18410856543388387296
14386348 63 16272205275945766161
14739800 52 17678742228787202952
14849402 71 18188773817572610608
15188451 53 17968105170555242591
15238133 3 17676476267991114704
15348495 7 16878234065242879378
15716309 27 18342459253444748690
15788980 27 17846781805928764516
17780758 139 18260552207948015219
17844677 252 14549014386238922598
17857418 61 18413673508783767954
17870717 6 14764627512855348721
1813 80 18059844104292145572
19489759 90 17385723599744106003
200 152 18272937115407749701
20028762 73 18409732837688542046
20645477 56 14634874154045942736
20645477 70 17346882213252771172
21150785 3 13614234893872659526
21267235 1 18060134340632997598
23175994 123 16486970666428761373
23402539 116 18060140950619379685
23522609 53 18127380498270576572
23557571 272 16733247023942808104
23559900 14 17096901724933594709
2838139 119 18131075974563988701
2916195 48 13912323499130253019
314194 84 17988925587395290410
351380 3 18202568384494854258
3633792 109 18337680827671614191
465052 167 18131626773300152026
5104073 3 18189326884251466905
559249 180 18411139147651482791
573450 72 18187644683048042703

> <PUBCHEM_SHAPE_MULTIPOLES>
410.47
14.95
1.78
1.25
13.54
0.2
0.04
4.35
-5.18
-0.98
0.17
-0.4
-0.35
-2.12

> <PUBCHEM_SHAPE_SELFOVERLAP>
874.128

> <PUBCHEM_SHAPE_VOLUME>
228.8

> <PUBCHEM_COORDINATE_TYPE>
2
5
10

$$$$

