69160
  -OEChem-07051213083D

 19 20  0     0  0  0  0  0  0999 V2000
    3.3885   -1.1003   -0.0005 O   0  0  0  0  0  0  0  0  0  0  0  0
   -0.5650    2.5835   -0.0006 O   0  0  0  0  0  0  0  0  0  0  0  0
   -3.5968   -0.9334   -0.0005 O   0  0  0  0  0  0  0  0  0  0  0  0
    1.6147    0.5068    0.0003 N   0  0  0  0  0  0  0  0  0  0  0  0
    1.0853   -1.6856    0.0000 N   0  0  0  0  0  0  0  0  0  0  0  0
   -1.3375   -1.4075    0.0000 N   0  0  0  0  0  0  0  0  0  0  0  0
   -2.0889    0.8284    0.0005 N   0  0  0  0  0  0  0  0  0  0  0  0
    0.2491    0.3563    0.0005 C   0  0  0  0  0  0  0  0  0  0  0  0
   -0.0622   -0.9423    0.0003 C   0  0  0  0  0  0  0  0  0  0  0  0
    2.2049   -0.7981    0.0000 C   0  0  0  0  0  0  0  0  0  0  0  0
   -0.8022    1.3815    0.0001 C   0  0  0  0  0  0  0  0  0  0  0  0
    2.3396    1.7513    0.0000 C   0  0  0  0  0  0  0  0  0  0  0  0
   -2.4296   -0.5405    0.0000 C   0  0  0  0  0  0  0  0  0  0  0  0
    1.1187   -2.6974   -0.0004 H   0  0  0  0  0  0  0  0  0  0  0  0
   -1.4889   -2.4112   -0.0004 H   0  0  0  0  0  0  0  0  0  0  0  0
    2.0788    2.3210   -0.8963 H   0  0  0  0  0  0  0  0  0  0  0  0
    3.4159    1.5584    0.0001 H   0  0  0  0  0  0  0  0  0  0  0  0
    2.0787    2.3214    0.8960 H   0  0  0  0  0  0  0  0  0  0  0  0
   -2.8641    1.4856    0.0003 H   0  0  0  0  0  0  0  0  0  0  0  0
  1 10  2  0  0  0  0
  2 11  2  0  0  0  0
  3 13  2  0  0  0  0
  4  8  1  0  0  0  0
  4 10  1  0  0  0  0
  4 12  1  0  0  0  0
  5  9  1  0  0  0  0
  5 10  1  0  0  0  0
  5 14  1  0  0  0  0
  6  9  1  0  0  0  0
  6 13  1  0  0  0  0
  6 15  1  0  0  0  0
  7 11  1  0  0  0  0
  7 13  1  0  0  0  0
  7 19  1  0  0  0  0
  8  9  2  0  0  0  0
  8 11  1  0  0  0  0
 12 16  1  0  0  0  0
 12 17  1  0  0  0  0
 12 18  1  0  0  0  0
M  END
> <PUBCHEM_COMPOUND_CID>
69160

> <PUBCHEM_CONFORMER_RMSD>
0.4

> <PUBCHEM_CONFORMER_DIVERSEORDER>
1

> <PUBCHEM_MMFF94_PARTIAL_CHARGES>
16
1 -0.57
10 0.69
11 0.62
12 0.3
13 0.69
14 0.37
15 0.37
19 0.37
2 -0.57
3 -0.57
4 -0.47
5 -0.54
6 -0.54
7 -0.49
8 0.12
9 0.22

> <PUBCHEM_EFFECTIVE_ROTOR_COUNT>
0

> <PUBCHEM_PHARMACOPHORE_FEATURES>
8
1 1 acceptor
1 2 acceptor
1 3 acceptor
1 5 donor
1 6 donor
1 7 donor
5 4 5 8 9 10 rings
6 6 7 8 9 11 13 rings

> <PUBCHEM_HEAVY_ATOM_COUNT>
13

> <PUBCHEM_ATOM_DEF_STEREO_COUNT>
0

> <PUBCHEM_ATOM_UDEF_STEREO_COUNT>
0

> <PUBCHEM_BOND_DEF_STEREO_COUNT>
0

> <PUBCHEM_BOND_UDEF_STEREO_COUNT>
0

> <PUBCHEM_ISOTOPIC_ATOM_COUNT>
0

> <PUBCHEM_COMPONENT_COUNT>
1

> <PUBCHEM_CACTVS_TAUTO_COUNT>
15

> <PUBCHEM_CONFORMER_ID>
00010E2800000001

> <PUBCHEM_MMFF94_ENERGY>
40.2857

> <PUBCHEM_FEATURE_SELFOVERLAP>
40.761

> <PUBCHEM_SHAPE_FINGERPRINT>
10967382 1 18266458702607426758
11206711 2 18340764965533376684
11471102 20 18339085891514595775
12032990 46 18411694374868895859
12423570 1 16526353836863238854
12897270 3 18411702114177982015
14325111 11 18410856542539191073
161256 15 18409167701448235820
16945 1 18266459986850179494
193761 8 18122343750786414183
19973954 147 18337953497174213196
20871998 184 18115311201416708407
21501502 16 18410285943370516816
2334 1 18338797797370763621
23463225 33 18411418397238898734
23552423 10 18343581854083432886
23559900 14 17324358997306739526
241688 4 18411699919497433105
2748010 2 18410857620496750788
5084963 1 18187648041469829810
528886 8 18193561073080125760
7364860 26 18261955150857907112

> <PUBCHEM_SHAPE_MULTIPOLES>
230
4.34
2.13
0.56
0.6
0.97
0
-1.24
0
-0.4
0
-0.01
0.01
0

> <PUBCHEM_SHAPE_SELFOVERLAP>
500.146

> <PUBCHEM_SHAPE_VOLUME>
123.5

> <PUBCHEM_COORDINATE_TYPE>
2
5
10

$$$$

