13950
  -OEChem-06241222413D

 41 41  0     0  0  0  0  0  0999 V2000
   -2.0367    1.3003   -1.1132 O   0  0  0  0  0  0  0  0  0  0  0  0
    3.8123   -0.6782    0.1441 O   0  0  0  0  0  0  0  0  0  0  0  0
    7.2213    0.0935    0.2588 O   0  5  0  0  0  0  0  0  0  0  0  0
    6.1256   -1.7479    0.7363 O   0  0  0  0  0  0  0  0  0  0  0  0
   -4.2802    0.0398   -0.1552 N   0  0  0  0  0  0  0  0  0  0  0  0
   -0.7493   -0.4920   -0.4049 N   0  0  0  0  0  0  0  0  0  0  0  0
    0.4049    0.2064   -0.5065 N   0  0  0  0  0  0  0  0  0  0  0  0
    6.1296   -0.5424    0.3478 N   0  3  0  0  0  0  0  0  0  0  0  0
   -5.4772   -0.7915   -0.0081 C   0  0  0  0  0  0  0  0  0  0  0  0
   -4.0144    0.7682    1.0873 C   0  0  0  0  0  0  0  0  0  0  0  0
   -3.1323   -0.7731   -0.5309 C   0  0  0  0  0  0  0  0  0  0  0  0
   -6.6464    0.0775    0.4443 C   0  0  0  0  0  0  0  0  0  0  0  0
   -5.7957   -1.4980   -1.3228 C   0  0  0  0  0  0  0  0  0  0  0  0
   -3.7867   -0.2271    2.2207 C   0  0  0  0  0  0  0  0  0  0  0  0
   -2.8083    1.6872    0.9143 C   0  0  0  0  0  0  0  0  0  0  0  0
   -1.9383    0.1361   -0.7309 C   0  0  0  0  0  0  0  0  0  0  0  0
    1.4589   -0.4680   -0.1754 C   0  0  0  0  0  0  0  0  0  0  0  0
    2.7894    0.1152   -0.2209 C   0  0  0  0  0  0  0  0  0  0  0  0
    3.1943    1.3586   -0.5781 C   0  0  0  0  0  0  0  0  0  0  0  0
    4.9280    0.0870    0.0172 C   0  0  0  0  0  0  0  0  0  0  0  0
    4.6011    1.3482   -0.4240 C   0  0  0  0  0  0  0  0  0  0  0  0
   -5.3463   -1.5992    0.7216 H   0  0  0  0  0  0  0  0  0  0  0  0
   -4.8400    1.4378    1.3496 H   0  0  0  0  0  0  0  0  0  0  0  0
   -2.9129   -1.5995    0.1523 H   0  0  0  0  0  0  0  0  0  0  0  0
   -3.2740   -1.2188   -1.5226 H   0  0  0  0  0  0  0  0  0  0  0  0
   -6.5985    0.3471    1.5039 H   0  0  0  0  0  0  0  0  0  0  0  0
   -7.5910   -0.4674    0.3254 H   0  0  0  0  0  0  0  0  0  0  0  0
   -6.7340    0.9919   -0.1541 H   0  0  0  0  0  0  0  0  0  0  0  0
   -6.7851   -1.9681   -1.2763 H   0  0  0  0  0  0  0  0  0  0  0  0
   -5.8100   -0.7976   -2.1657 H   0  0  0  0  0  0  0  0  0  0  0  0
   -5.0896   -2.3033   -1.5487 H   0  0  0  0  0  0  0  0  0  0  0  0
   -4.6589   -0.8361    2.4703 H   0  0  0  0  0  0  0  0  0  0  0  0
   -3.5719    0.3373    3.1383 H   0  0  0  0  0  0  0  0  0  0  0  0
   -2.9213   -0.8812    2.0837 H   0  0  0  0  0  0  0  0  0  0  0  0
   -2.8666    2.3217    1.8218 H   0  0  0  0  0  0  0  0  0  0  0  0
   -1.8063    1.2990    1.1185 H   0  0  0  0  0  0  0  0  0  0  0  0
   -2.9582    2.4950    0.1868 H   0  0  0  0  0  0  0  0  0  0  0  0
   -0.7027   -1.4561   -0.0899 H   0  0  0  0  0  0  0  0  0  0  0  0
    1.3989   -1.5207    0.1584 H   0  0  0  0  0  0  0  0  0  0  0  0
    2.5784    2.1823   -0.9094 H   0  0  0  0  0  0  0  0  0  0  0  0
    5.2860    2.1628   -0.6131 H   0  0  0  0  0  0  0  0  0  0  0  0
  1 16  2  0  0  0  0
  2 18  1  0  0  0  0
  2 20  1  0  0  0  0
  3  8  1  0  0  0  0
  4  8  2  0  0  0  0
  5  9  1  0  0  0  0
  5 10  1  0  0  0  0
  5 11  1  0  0  0  0
  6  7  1  0  0  0  0
  6 16  1  0  0  0  0
  6 38  1  0  0  0  0
  7 17  2  0  0  0  0
  8 20  1  0  0  0  0
  9 12  1  0  0  0  0
  9 13  1  0  0  0  0
  9 22  1  0  0  0  0
 10 14  1  0  0  0  0
 10 15  1  0  0  0  0
 10 23  1  0  0  0  0
 11 16  1  0  0  0  0
 11 24  1  0  0  0  0
 11 25  1  0  0  0  0
 12 26  1  0  0  0  0
 12 27  1  0  0  0  0
 12 28  1  0  0  0  0
 13 29  1  0  0  0  0
 13 30  1  0  0  0  0
 13 31  1  0  0  0  0
 14 32  1  0  0  0  0
 14 33  1  0  0  0  0
 14 34  1  0  0  0  0
 15 35  1  0  0  0  0
 15 36  1  0  0  0  0
 15 37  1  0  0  0  0
 17 18  1  0  0  0  0
 17 39  1  0  0  0  0
 18 19  2  0  0  0  0
 19 21  1  0  0  0  0
 19 40  1  0  0  0  0
 20 21  2  0  0  0  0
 21 41  1  0  0  0  0
M  CHG  2   3  -1   8   1
M  END
> <PUBCHEM_COMPOUND_CID>
13950

> <PUBCHEM_CONFORMER_RMSD>
0.8

> <PUBCHEM_CONFORMER_DIVERSEORDER>
1
14
7
15
11
16
10
3
9
12
18
17
4
5
6
2
8
13

> <PUBCHEM_MMFF94_PARTIAL_CHARGES>
21
1 -0.57
10 0.27
11 0.33
16 0.57
17 0.47
18 0.05
19 -0.15
2 -0.28
20 0.22
21 -0.15
3 -0.52
38 0.37
39 0.06
4 -0.52
40 0.15
41 0.15
5 -0.81
6 -0.37
7 -0.51
8 0.96
9 0.27

> <PUBCHEM_EFFECTIVE_ROTOR_COUNT>
8

> <PUBCHEM_PHARMACOPHORE_FEATURES>
11
1 1 acceptor
1 2 acceptor
1 3 acceptor
1 3 anion
1 4 acceptor
1 5 cation
1 6 donor
1 7 acceptor
3 10 14 15 hydrophobe
3 9 12 13 hydrophobe
5 2 18 19 20 21 rings

> <PUBCHEM_HEAVY_ATOM_COUNT>
21

> <PUBCHEM_ATOM_DEF_STEREO_COUNT>
0

> <PUBCHEM_ATOM_UDEF_STEREO_COUNT>
0

> <PUBCHEM_BOND_DEF_STEREO_COUNT>
0

> <PUBCHEM_BOND_UDEF_STEREO_COUNT>
1

> <PUBCHEM_ISOTOPIC_ATOM_COUNT>
0

> <PUBCHEM_COMPONENT_COUNT>
1

> <PUBCHEM_CACTVS_TAUTO_COUNT>
2

> <PUBCHEM_CONFORMER_ID>
0000367E00000001

> <PUBCHEM_MMFF94_ENERGY>
76.6805

> <PUBCHEM_FEATURE_SELFOVERLAP>
55.915

> <PUBCHEM_SHAPE_FINGERPRINT>
10 15 15791737377789348474
10366900 7 16056883541554653484
10912923 1 18260261928277778736
10968037 39 9295288344091685223
11045977 3 17131546146202130360
11315181 36 18201717341035839285
11524674 6 17132114624253456499
12091667 2 18202285805843131607
12107183 9 17685768429793773187
12166972 35 18343021069052758524
12236239 1 18335702719625931213
12516196 113 11887954341620337182
12596602 18 18040157301178258378
12916748 109 15936403442433253112
13073987 5 15719662255715624486
13288520 33 13614237071436617011
13533116 47 18131357435890516410
13914758 101 18130511924507659965
13964095 4 13398636056300982767
1420 363 17203608190042233798
14251764 18 18408042888711360236
14341114 176 17846775196327783692
14848160 23 17203325581304887969
14849402 71 18041565711877651568
15716309 27 18411982472547773550
15880784 105 17917422082355265857
17834076 25 8862943879069757828
17844677 252 17132111360109738964
17870717 6 15195283132011214537
18222031 100 15410894055156548092
19489759 90 17313101947624969947
200 152 18273215288150598269
20281389 69 17967534575697151840
20645477 56 13839988824067624645
21267235 1 18271805748698324086
21315759 40 18187083944781408310
21682296 61 18128816520427413426
23035841 295 15339120143133676561
23402539 116 17968099699151626567
23402655 69 9079113354475734492
23559900 14 15554159268798694621
26918003 58 17203888544164407477
2916195 48 14707212132033256898
29717793 49 11455895784830377448
300161 21 8358255934755991156
3004659 81 12967126095008820134
3545911 37 5906048153787198476
4015057 19 17559672842182017277
5104073 3 18263083236834447802
542803 24 16442783518716808392
54446538 1 18259702293928587120
7495541 125 17822013060171530256
9996256 80 18261112976095038598

> <PUBCHEM_SHAPE_MULTIPOLES>
388.77
18.82
1.39
1.21
14.34
0.09
0.4
-3.64
3.2
-0.75
-0.05
-0.83
0.1
-1.85

> <PUBCHEM_SHAPE_SELFOVERLAP>
797.484

> <PUBCHEM_SHAPE_VOLUME>
226.2

> <PUBCHEM_COORDINATE_TYPE>
2
5
10

$$$$

