17395517
  -OEChem-06241222503D

 37 39  0     0  0  0  0  0  0999 V2000
    6.5421    0.7467   -1.6033 F   0  0  0  0  0  0  0  0  0  0  0  0
    7.8956   -0.5050    0.4160 F   0  0  0  0  0  0  0  0  0  0  0  0
    1.8399    0.9198   -1.4374 O   0  0  0  0  0  0  0  0  0  0  0  0
   -4.6326    2.2797    1.4373 O   0  0  0  0  0  0  0  0  0  0  0  0
   -2.9542   -0.4985   -0.9152 N   0  0  0  0  0  0  0  0  0  0  0  0
   -2.8014    1.5732    0.2538 N   0  0  0  0  0  0  0  0  0  0  0  0
    2.3584   -0.2527    0.5308 N   0  0  0  0  0  0  0  0  0  0  0  0
   -0.8853    0.8188   -0.9905 C   0  0  0  0  0  0  0  0  0  0  0  0
   -2.3041    0.6432   -0.5088 C   0  0  0  0  0  0  0  0  0  0  0  0
    0.0609    0.1830    0.0088 C   0  0  0  0  0  0  0  0  0  0  0  0
   -4.2681   -0.7171   -0.4965 C   0  0  0  0  0  0  0  0  0  0  0  0
   -4.8835    0.2362    0.3264 C   0  0  0  0  0  0  0  0  0  0  0  0
    1.5165    0.3405   -0.4057 C   0  0  0  0  0  0  0  0  0  0  0  0
   -4.0992    1.4421    0.7165 C   0  0  0  0  0  0  0  0  0  0  0  0
   -4.9823   -1.8563   -0.8769 C   0  0  0  0  0  0  0  0  0  0  0  0
   -6.1973    0.0556    0.7669 C   0  0  0  0  0  0  0  0  0  0  0  0
    3.7718   -0.3170    0.5016 C   0  0  0  0  0  0  0  0  0  0  0  0
   -6.2947   -2.0393   -0.4383 C   0  0  0  0  0  0  0  0  0  0  0  0
   -6.8999   -1.0860    0.3813 C   0  0  0  0  0  0  0  0  0  0  0  0
    4.4744    0.2586   -0.5572 C   0  0  0  0  0  0  0  0  0  0  0  0
    4.4623   -0.9562    1.5312 C   0  0  0  0  0  0  0  0  0  0  0  0
    5.8674    0.1949   -0.5862 C   0  0  0  0  0  0  0  0  0  0  0  0
    5.8554   -1.0198    1.5021 C   0  0  0  0  0  0  0  0  0  0  0  0
    6.5579   -0.4444    0.4434 C   0  0  0  0  0  0  0  0  0  0  0  0
   -0.7746    0.3615   -1.9806 H   0  0  0  0  0  0  0  0  0  0  0  0
   -0.6735    1.8891   -1.1002 H   0  0  0  0  0  0  0  0  0  0  0  0
   -0.1557   -0.8877    0.1106 H   0  0  0  0  0  0  0  0  0  0  0  0
   -0.0674    0.6388    0.9985 H   0  0  0  0  0  0  0  0  0  0  0  0
   -2.5107   -1.1915   -1.5061 H   0  0  0  0  0  0  0  0  0  0  0  0
   -4.5239   -2.6074   -1.5150 H   0  0  0  0  0  0  0  0  0  0  0  0
   -6.6864    0.7858    1.4050 H   0  0  0  0  0  0  0  0  0  0  0  0
    1.9237   -0.6965    1.3372 H   0  0  0  0  0  0  0  0  0  0  0  0
   -6.8464   -2.9263   -0.7360 H   0  0  0  0  0  0  0  0  0  0  0  0
   -7.9215   -1.2334    0.7197 H   0  0  0  0  0  0  0  0  0  0  0  0
    4.0117    0.7698   -1.3894 H   0  0  0  0  0  0  0  0  0  0  0  0
    3.9271   -1.4088    2.3621 H   0  0  0  0  0  0  0  0  0  0  0  0
    6.3934   -1.5173    2.3035 H   0  0  0  0  0  0  0  0  0  0  0  0
  1 22  1  0  0  0  0
  2 24  1  0  0  0  0
  3 13  2  0  0  0  0
  4 14  2  0  0  0  0
  5  9  1  0  0  0  0
  5 11  1  0  0  0  0
  5 29  1  0  0  0  0
  6  9  2  0  0  0  0
  6 14  1  0  0  0  0
  7 13  1  0  0  0  0
  7 17  1  0  0  0  0
  7 32  1  0  0  0  0
  8  9  1  0  0  0  0
  8 10  1  0  0  0  0
  8 25  1  0  0  0  0
  8 26  1  0  0  0  0
 10 13  1  0  0  0  0
 10 27  1  0  0  0  0
 10 28  1  0  0  0  0
 11 12  1  0  0  0  0
 11 15  2  0  0  0  0
 12 14  1  0  0  0  0
 12 16  2  0  0  0  0
 15 18  1  0  0  0  0
 15 30  1  0  0  0  0
 16 19  1  0  0  0  0
 16 31  1  0  0  0  0
 17 20  2  0  0  0  0
 17 21  1  0  0  0  0
 18 19  2  0  0  0  0
 18 33  1  0  0  0  0
 19 34  1  0  0  0  0
 20 22  1  0  0  0  0
 20 35  1  0  0  0  0
 21 23  2  0  0  0  0
 21 36  1  0  0  0  0
 22 24  2  0  0  0  0
 23 24  1  0  0  0  0
 23 37  1  0  0  0  0
M  END
> <PUBCHEM_COMPOUND_CID>
17395517

> <PUBCHEM_CONFORMER_RMSD>
0.8

> <PUBCHEM_CONFORMER_DIVERSEORDER>
1
65
14
47
7
89
57
83
91
15
70
8
69
73
10
74
58
84
92
90
9
78
63
87
4
12
6
31
5
36
60
82
50
18
3
43
94
67
21
88
41
13
51
56
40
86
35
2
76
28
38
93
37
34
11
44
95
46
19
23
29
27
85
71
22
81
66
26
55
17
77
33
72
68
64
48
24
62
16
79
25
59
20
30
80
32
49
39
61
42
52
75
54
45
53

> <PUBCHEM_MMFF94_PARTIAL_CHARGES>
33
1 -0.19
10 0.06
11 0.1
12 0.09
13 0.57
14 0.69
15 -0.15
16 -0.15
17 0.12
18 -0.15
19 -0.15
2 -0.19
20 -0.15
21 -0.15
22 0.19
23 -0.15
24 0.19
29 0.4
3 -0.57
30 0.15
31 0.15
32 0.37
33 0.15
34 0.15
35 0.15
36 0.15
37 0.15
4 -0.57
5 -0.55
6 -0.66
7 -0.55
8 0.06
9 0.44

> <PUBCHEM_EFFECTIVE_ROTOR_COUNT>
5

> <PUBCHEM_PHARMACOPHORE_FEATURES>
8
1 3 acceptor
1 4 acceptor
1 5 donor
1 6 donor
1 7 donor
6 11 12 15 16 18 19 rings
6 17 20 21 22 23 24 rings
6 5 6 9 11 12 14 rings

> <PUBCHEM_HEAVY_ATOM_COUNT>
24

> <PUBCHEM_ATOM_DEF_STEREO_COUNT>
0

> <PUBCHEM_ATOM_UDEF_STEREO_COUNT>
0

> <PUBCHEM_BOND_DEF_STEREO_COUNT>
0

> <PUBCHEM_BOND_UDEF_STEREO_COUNT>
0

> <PUBCHEM_ISOTOPIC_ATOM_COUNT>
0

> <PUBCHEM_COMPONENT_COUNT>
1

> <PUBCHEM_CACTVS_TAUTO_COUNT>
12

> <PUBCHEM_CONFORMER_ID>
01096F3D00000001

> <PUBCHEM_MMFF94_ENERGY>
65.5146

> <PUBCHEM_FEATURE_SELFOVERLAP>
40.655

> <PUBCHEM_SHAPE_FINGERPRINT>
10 15 17167868538880078210
10299344 5 18342174466647488482
10319926 262 17894635846589436833
10638233 991 18272082765183191652
11315181 36 18411419506084506513
11524674 6 16805324366789028943
11646440 116 15936408935780847432
11719270 70 13398641550044670736
11724838 91 17988926670159402890
12091667 2 17274823588248768461
12166972 35 18202282476690381908
12236239 1 18273214205170090693
12516196 113 17989210343463342396
12596602 18 18261397766986780472
13288520 33 18343304756564587805
13533116 47 17917713487681609852
13668630 136 16845853486243096363
13685833 64 16988841679121374817
14251764 18 18343019978446822598
14341114 176 16081369639872012778
14848160 23 14836121078845106552
14849402 71 18263926545168970080
14856354 85 18334290938375256655
14933364 13 17530684303719344408
15183329 4 17775006782380061810
15348495 7 16443638882475339490
15352257 5 18040428923753745438
15419008 47 16805323305641748776
15716309 27 18202001036252042755
17780758 139 18335423465806662931
17844677 252 17894631431120625896
17857418 61 18202565077106045255
17913733 40 15936403446913162399
18927931 339 17967817129063704975
19377110 9 18341895220563554394
20281389 69 5906049244308445915
21033648 29 16009326394992838498
21150785 3 16056882420699739702
21315759 40 18343020012859302146
21623969 137 16988839510094566010
22061861 79 15770058332525215463
22224240 67 15936410027230145711
2303208 19 16805316700134735212
23035841 295 18412826876013696487
23081809 10 18060416941244762604
23522609 53 18127946746394988236
23559900 14 13686293548419155685
314194 84 17704355493820664480
34797466 226 17967526840862017332
351380 3 18273502260063130895
3663271 9 18408606989404716002
397830 11 16878801378366043866
4015057 19 16917056725212956741
4325135 7 18273497874943778254
4938544 92 18336830913510254441
5104073 3 17459179849729385203
5364581 5 17169287943951314337
559249 180 18343869927142721199
5969126 39 17060065860541350829
9953998 17 17385441012793047291
999808 66 16988552478163527531

> <PUBCHEM_SHAPE_MULTIPOLES>
452.68
22.67
1.58
1.28
15.37
0.02
0.08
-7.16
2.86
-2.77
0.19
0.76
0.11
-2.6

> <PUBCHEM_SHAPE_SELFOVERLAP>
986.845

> <PUBCHEM_SHAPE_VOLUME>
245.3

> <PUBCHEM_COORDINATE_TYPE>
2
5
10

$$$$

