442555
  -OEChem-07051212582D

 28 29  0     1  0  0  0  0  0999 V2000
    2.0000    1.6276    0.0000 O   0  0  0  0  0  0  0  0  0  0  0  0
    2.0000   -1.3724    0.0000 N   0  0  0  0  0  0  0  0  0  0  0  0
    4.6783   -1.6771    0.0000 C   0  0  1  0  0  0  0  0  0  0  0  0
    5.2619   -0.8724    0.0000 C   0  0  0  0  0  0  0  0  0  0  0  0
    4.6783   -0.0676    0.0000 C   0  0  0  0  0  0  0  0  0  0  0  0
    3.7320   -1.3724    0.0000 C   0  0  0  0  0  0  0  0  0  0  0  0
    3.7320   -0.3724    0.0000 C   0  0  0  0  0  0  0  0  0  0  0  0
    4.9889   -2.6276    0.0000 C   0  0  0  0  0  0  0  0  0  0  0  0
    2.8660    0.1276    0.0000 C   0  0  0  0  0  0  0  0  0  0  0  0
    2.8660   -1.8724    0.0000 C   0  0  0  0  0  0  0  0  0  0  0  0
    2.8660    1.1276    0.0000 C   0  0  0  0  0  0  0  0  0  0  0  0
    2.0000   -0.3724    0.0000 C   0  0  0  0  0  0  0  0  0  0  0  0
    2.0000    2.6276    0.0000 C   0  0  0  0  0  0  0  0  0  0  0  0
    5.2908   -1.7733    0.0000 H   0  0  0  0  0  0  0  0  0  0  0  0
    5.7227   -1.2871    0.0000 H   0  0  0  0  0  0  0  0  0  0  0  0
    5.7227   -0.4576    0.0000 H   0  0  0  0  0  0  0  0  0  0  0  0
    5.2156    0.2416    0.0000 H   0  0  0  0  0  0  0  0  0  0  0  0
    4.4272    0.4993    0.0000 H   0  0  0  0  0  0  0  0  0  0  0  0
    4.3996   -2.8202    0.0000 H   0  0  0  0  0  0  0  0  0  0  0  0
    5.1815   -3.2170    0.0000 H   0  0  0  0  0  0  0  0  0  0  0  0
    5.5783   -2.4350    0.0000 H   0  0  0  0  0  0  0  0  0  0  0  0
    2.8660   -2.4924    0.0000 H   0  0  0  0  0  0  0  0  0  0  0  0
    3.4766    1.0200    0.0000 H   0  0  0  0  0  0  0  0  0  0  0  0
    3.0781    1.7102    0.0000 H   0  0  0  0  0  0  0  0  0  0  0  0
    1.4631   -0.0624    0.0000 H   0  0  0  0  0  0  0  0  0  0  0  0
    2.6200    2.6276    0.0000 H   0  0  0  0  0  0  0  0  0  0  0  0
    2.0000    3.2476    0.0000 H   0  0  0  0  0  0  0  0  0  0  0  0
    1.3800    2.6276    0.0000 H   0  0  0  0  0  0  0  0  0  0  0  0
  1 11  1  0  0  0  0
  1 13  1  0  0  0  0
  2 10  1  0  0  0  0
  2 12  2  0  0  0  0
  3  4  1  0  0  0  0
  3  6  1  0  0  0  0
  3  8  1  6  0  0  0
  3 14  1  0  0  0  0
  4  5  1  0  0  0  0
  4 15  1  0  0  0  0
  4 16  1  0  0  0  0
  5  7  1  0  0  0  0
  5 17  1  0  0  0  0
  5 18  1  0  0  0  0
  6  7  1  0  0  0  0
  6 10  2  0  0  0  0
  7  9  2  0  0  0  0
  8 19  1  0  0  0  0
  8 20  1  0  0  0  0
  8 21  1  0  0  0  0
  9 11  1  0  0  0  0
  9 12  1  0  0  0  0
 10 22  1  0  0  0  0
 11 23  1  0  0  0  0
 11 24  1  0  0  0  0
 12 25  1  0  0  0  0
 13 26  1  0  0  0  0
 13 27  1  0  0  0  0
 13 28  1  0  0  0  0
M  END
> <PUBCHEM_COMPOUND_CID>
442555

> <PUBCHEM_COMPOUND_CANONICALIZED>
1

> <PUBCHEM_CACTVS_COMPLEXITY>
172

> <PUBCHEM_CACTVS_HBOND_ACCEPTOR>
2

> <PUBCHEM_CACTVS_HBOND_DONOR>
0

> <PUBCHEM_CACTVS_ROTATABLE_BOND>
2

> <PUBCHEM_CACTVS_SUBSKEYS>
AAADccByIAAAAAAAAAAAAAAAAAAAAYAAAAAsAAAAAAAAAFgBgAAAHgAAAAAADQDhmgYugJIIFACgAhBnRACCgCAxACAA2CAoTJgIJmLAsZmEMAhmwAHI6AeQ0PIOgAAAAAAAAAAAAAAAAAAAAQAACAAAAA==

> <PUBCHEM_IUPAC_OPENEYE_NAME>
(7S)-4-(methoxymethyl)-7-methyl-6,7-dihydro-5H-cyclopenta[c]pyridine

> <PUBCHEM_IUPAC_CAS_NAME>
(7S)-4-(methoxymethyl)-7-methyl-6,7-dihydro-5H-cyclopenta[c]pyridine

> <PUBCHEM_IUPAC_NAME>
(7S)-4-(methoxymethyl)-7-methyl-6,7-dihydro-5H-cyclopenta[c]pyridine

> <PUBCHEM_IUPAC_SYSTEMATIC_NAME>
(7S)-4-(methoxymethyl)-7-methyl-6,7-dihydro-5H-cyclopenta[c]pyridine

> <PUBCHEM_IUPAC_TRADITIONAL_NAME>
(7S)-4-(methoxymethyl)-7-methyl-2-pyrindan

> <PUBCHEM_IUPAC_INCHI>
InChI=1S/C11H15NO/c1-8-3-4-10-9(7-13-2)5-12-6-11(8)10/h5-6,8H,3-4,7H2,1-2H3/t8-/m0/s1

> <PUBCHEM_IUPAC_INCHIKEY>
ZRJLCVQCZVXUFB-QMMMGPOBSA-N

> <PUBCHEM_XLOGP3_AA>
1.7

> <PUBCHEM_EXACT_MASS>
177.115364

> <PUBCHEM_MOLECULAR_FORMULA>
C11H15NO

> <PUBCHEM_MOLECULAR_WEIGHT>
177.2429

> <PUBCHEM_OPENEYE_CAN_SMILES>
CC1CCC2=C(C=NC=C12)COC

> <PUBCHEM_OPENEYE_ISO_SMILES>
C[C@H]1CCC2=C(C=NC=C12)COC

> <PUBCHEM_CACTVS_TPSA>
22.1

> <PUBCHEM_MONOISOTOPIC_WEIGHT>
177.115364

> <PUBCHEM_TOTAL_CHARGE>
0

> <PUBCHEM_HEAVY_ATOM_COUNT>
13

> <PUBCHEM_ATOM_DEF_STEREO_COUNT>
1

> <PUBCHEM_ATOM_UDEF_STEREO_COUNT>
0

> <PUBCHEM_BOND_DEF_STEREO_COUNT>
0

> <PUBCHEM_BOND_UDEF_STEREO_COUNT>
0

> <PUBCHEM_ISOTOPIC_ATOM_COUNT>
0

> <PUBCHEM_COMPONENT_COUNT>
1

> <PUBCHEM_CACTVS_TAUTO_COUNT>
1

> <PUBCHEM_COORDINATE_TYPE>
1
5
255

> <PUBCHEM_BONDANNOTATIONS>
2  10  8
2  12  8
3  8  6
6  10  8
6  7  8
7  9  8
9  12  8

$$$$

