50909794
  -OEChem-07051212503D

 87 90  0     1  0  0  0  0  0999 V2000
   -0.0163   -1.5297   -0.0211 O   0  0  0  0  0  0  0  0  0  0  0  0
   -0.9685   -2.3977   -2.0140 O   0  0  0  0  0  0  0  0  0  0  0  0
    2.7764   -2.0967    0.3512 O   0  0  0  0  0  0  0  0  0  0  0  0
   -4.1904   -0.4527   -0.2665 O   0  0  0  0  0  0  0  0  0  0  0  0
    3.1804    0.1923   -0.1274 O   0  0  0  0  0  0  0  0  0  0  0  0
   -3.5878    1.5672    0.8239 O   0  0  0  0  0  0  0  0  0  0  0  0
   -2.3591    0.1049   -2.2650 O   0  0  0  0  0  0  0  0  0  0  0  0
    5.7949    1.2182    0.2353 O   0  0  0  0  0  0  0  0  0  0  0  0
   -0.3023   -0.2077    2.3934 O   0  0  0  0  0  0  0  0  0  0  0  0
   -4.1302   -3.3641   -0.4150 O   0  0  0  0  0  0  0  0  0  0  0  0
    1.8672   -1.4927    3.8577 O   0  0  0  0  0  0  0  0  0  0  0  0
    2.6157    1.7051   -2.3739 O   0  0  0  0  0  0  0  0  0  0  0  0
   -5.6852    1.0044    2.7064 O   0  0  0  0  0  0  0  0  0  0  0  0
    4.4098    3.8843   -1.8972 O   0  0  0  0  0  0  0  0  0  0  0  0
   -7.7329    1.6824    0.9726 O   0  0  0  0  0  0  0  0  0  0  0  0
    5.6331   -1.1191    0.0995 O   0  0  0  0  0  0  0  0  0  0  0  0
   -6.2670    3.5364   -0.7352 O   0  0  0  0  0  0  0  0  0  0  0  0
   -0.8699   -5.0869   -2.4883 O   0  0  0  0  0  0  0  0  0  0  0  0
    4.7313   -3.5828    1.5501 O   0  0  0  0  0  0  0  0  0  0  0  0
   -2.0457    3.3966   -0.4958 O   0  0  0  0  0  0  0  0  0  0  0  0
    7.4233    3.2447    1.0731 O   0  0  0  0  0  0  0  0  0  0  0  0
    0.9225   -0.5184    0.3493 C   0  0  1  0  0  0  0  0  0  0  0  0
   -2.9996   -1.2312   -0.3475 C   0  0  2  0  0  0  0  0  0  0  0  0
   -1.9041   -0.3896   -1.0041 C   0  0  1  0  0  0  0  0  0  0  0  0
   -0.6498   -1.2238   -1.2587 C   0  0  1  0  0  0  0  0  0  0  0  0
    1.0077   -0.4180    1.8732 C   0  0  2  0  0  0  0  0  0  0  0  0
    2.2748   -0.8988   -0.2518 C   0  0  2  0  0  0  0  0  0  0  0  0
   -3.2526   -2.5116   -1.1457 C   0  0  1  0  0  0  0  0  0  0  0  0
    1.6202   -1.6875    2.4677 C   0  0  1  0  0  0  0  0  0  0  0  0
   -1.9308   -3.2508   -1.3885 C   0  0  1  0  0  0  0  0  0  0  0  0
    2.9468   -2.0097    1.7684 C   0  0  1  0  0  0  0  0  0  0  0  0
    4.1167    0.2144   -1.1952 C   0  0  1  0  0  0  0  0  0  0  0  0
   -4.2403    0.2980    0.9419 C   0  0  1  0  0  0  0  0  0  0  0  0
    3.9670    1.5318   -1.9556 C   0  0  2  0  0  0  0  0  0  0  0  0
   -5.6935    0.4777    1.3783 C   0  0  2  0  0  0  0  0  0  0  0  0
    4.3816    2.7168   -1.0794 C   0  0  1  0  0  0  0  0  0  0  0  0
   -6.4338    1.4343    0.4420 C   0  0  2  0  0  0  0  0  0  0  0  0
    5.5289    0.1050   -0.6212 C   0  0  1  0  0  0  0  0  0  0  0  0
   -5.6623    2.7460    0.2850 C   0  0  1  0  0  0  0  0  0  0  0  0
   -4.2078    2.4578   -0.1074 C   0  0  1  0  0  0  0  0  0  0  0  0
    5.7644    2.4685   -0.4609 C   0  0  1  0  0  0  0  0  0  0  0  0
   -2.1251   -4.4605   -2.2982 C   0  0  0  0  0  0  0  0  0  0  0  0
    3.5185   -3.3437    2.2402 C   0  0  0  0  0  0  0  0  0  0  0  0
   -3.3732    3.7352   -0.1390 C   0  0  0  0  0  0  0  0  0  0  0  0
    6.1467    3.5517    0.5433 C   0  0  0  0  0  0  0  0  0  0  0  0
    0.5991    0.4621   -0.0253 H   0  0  0  0  0  0  0  0  0  0  0  0
   -2.6755   -1.5394    0.6560 H   0  0  0  0  0  0  0  0  0  0  0  0
   -1.6758    0.4783   -0.3801 H   0  0  0  0  0  0  0  0  0  0  0  0
    0.0306   -0.6635   -1.9112 H   0  0  0  0  0  0  0  0  0  0  0  0
    1.6099    0.4517    2.1643 H   0  0  0  0  0  0  0  0  0  0  0  0
    2.1114   -1.1424   -1.3077 H   0  0  0  0  0  0  0  0  0  0  0  0
   -3.7467   -2.2662   -2.0931 H   0  0  0  0  0  0  0  0  0  0  0  0
    0.9127   -2.5196    2.3734 H   0  0  0  0  0  0  0  0  0  0  0  0
   -1.5062   -3.6112   -0.4418 H   0  0  0  0  0  0  0  0  0  0  0  0
    3.6919   -1.2325    1.9829 H   0  0  0  0  0  0  0  0  0  0  0  0
    3.9586   -0.6239   -1.8860 H   0  0  0  0  0  0  0  0  0  0  0  0
   -3.7236   -0.2302    1.7525 H   0  0  0  0  0  0  0  0  0  0  0  0
    4.5826    1.5125   -2.8638 H   0  0  0  0  0  0  0  0  0  0  0  0
   -6.2202   -0.4832    1.4085 H   0  0  0  0  0  0  0  0  0  0  0  0
    3.6286    2.8823   -0.2997 H   0  0  0  0  0  0  0  0  0  0  0  0
   -6.5746    0.9699   -0.5419 H   0  0  0  0  0  0  0  0  0  0  0  0
    6.2703    0.0823   -1.4297 H   0  0  0  0  0  0  0  0  0  0  0  0
   -5.7126    3.3200    1.2177 H   0  0  0  0  0  0  0  0  0  0  0  0
   -4.1589    2.0039   -1.1057 H   0  0  0  0  0  0  0  0  0  0  0  0
    6.5388    2.4438   -1.2398 H   0  0  0  0  0  0  0  0  0  0  0  0
   -2.8184   -5.1853   -1.8611 H   0  0  0  0  0  0  0  0  0  0  0  0
   -2.4959   -4.1523   -3.2815 H   0  0  0  0  0  0  0  0  0  0  0  0
    3.7200   -3.3372    3.3156 H   0  0  0  0  0  0  0  0  0  0  0  0
    2.8337   -4.1653    2.0050 H   0  0  0  0  0  0  0  0  0  0  0  0
   -1.6645    0.6850   -2.6209 H   0  0  0  0  0  0  0  0  0  0  0  0
   -0.6530    0.6042    1.9889 H   0  0  0  0  0  0  0  0  0  0  0  0
   -3.7019   -3.5861    0.4293 H   0  0  0  0  0  0  0  0  0  0  0  0
    2.4912   -0.7529    3.9522 H   0  0  0  0  0  0  0  0  0  0  0  0
   -3.3429    4.2046    0.8499 H   0  0  0  0  0  0  0  0  0  0  0  0
   -3.7624    4.4521   -0.8682 H   0  0  0  0  0  0  0  0  0  0  0  0
    5.4368    3.5775    1.3768 H   0  0  0  0  0  0  0  0  0  0  0  0
    6.1867    4.5380    0.0712 H   0  0  0  0  0  0  0  0  0  0  0  0
    2.3742    0.9314   -2.9112 H   0  0  0  0  0  0  0  0  0  0  0  0
   -5.2696    0.3413    3.2836 H   0  0  0  0  0  0  0  0  0  0  0  0
    5.0977    3.7615   -2.5735 H   0  0  0  0  0  0  0  0  0  0  0  0
   -8.1873    0.8261    1.0490 H   0  0  0  0  0  0  0  0  0  0  0  0
    6.5742   -1.3625    0.1154 H   0  0  0  0  0  0  0  0  0  0  0  0
   -6.2303    3.0342   -1.5671 H   0  0  0  0  0  0  0  0  0  0  0  0
   -1.0155   -5.8504   -3.0727 H   0  0  0  0  0  0  0  0  0  0  0  0
    5.0754   -4.4372    1.8617 H   0  0  0  0  0  0  0  0  0  0  0  0
   -1.5313    4.2217   -0.5049 H   0  0  0  0  0  0  0  0  0  0  0  0
    7.6449    3.9440    1.7113 H   0  0  0  0  0  0  0  0  0  0  0  0
  1 22  1  0  0  0  0
  1 25  1  0  0  0  0
  2 25  1  0  0  0  0
  2 30  1  0  0  0  0
  3 27  1  0  0  0  0
  3 31  1  0  0  0  0
  4 23  1  0  0  0  0
  4 33  1  0  0  0  0
  5 27  1  0  0  0  0
  5 32  1  0  0  0  0
  6 33  1  0  0  0  0
  6 40  1  0  0  0  0
  7 24  1  0  0  0  0
  7 70  1  0  0  0  0
  8 38  1  0  0  0  0
  8 41  1  0  0  0  0
  9 26  1  0  0  0  0
  9 71  1  0  0  0  0
 10 28  1  0  0  0  0
 10 72  1  0  0  0  0
 11 29  1  0  0  0  0
 11 73  1  0  0  0  0
 12 34  1  0  0  0  0
 12 78  1  0  0  0  0
 13 35  1  0  0  0  0
 13 79  1  0  0  0  0
 14 36  1  0  0  0  0
 14 80  1  0  0  0  0
 15 37  1  0  0  0  0
 15 81  1  0  0  0  0
 16 38  1  0  0  0  0
 16 82  1  0  0  0  0
 17 39  1  0  0  0  0
 17 83  1  0  0  0  0
 18 42  1  0  0  0  0
 18 84  1  0  0  0  0
 19 43  1  0  0  0  0
 19 85  1  0  0  0  0
 20 44  1  0  0  0  0
 20 86  1  0  0  0  0
 21 45  1  0  0  0  0
 21 87  1  0  0  0  0
 22 26  1  0  0  0  0
 22 27  1  0  0  0  0
 22 46  1  0  0  0  0
 23 24  1  0  0  0  0
 23 28  1  0  0  0  0
 23 47  1  0  0  0  0
 24 25  1  0  0  0  0
 24 48  1  0  0  0  0
 25 49  1  0  0  0  0
 26 29  1  0  0  0  0
 26 50  1  0  0  0  0
 27 51  1  0  0  0  0
 28 30  1  0  0  0  0
 28 52  1  0  0  0  0
 29 31  1  0  0  0  0
 29 53  1  0  0  0  0
 30 42  1  0  0  0  0
 30 54  1  0  0  0  0
 31 43  1  0  0  0  0
 31 55  1  0  0  0  0
 32 34  1  0  0  0  0
 32 38  1  0  0  0  0
 32 56  1  0  0  0  0
 33 35  1  0  0  0  0
 33 57  1  0  0  0  0
 34 36  1  0  0  0  0
 34 58  1  0  0  0  0
 35 37  1  0  0  0  0
 35 59  1  0  0  0  0
 36 41  1  0  0  0  0
 36 60  1  0  0  0  0
 37 39  1  0  0  0  0
 37 61  1  0  0  0  0
 38 62  1  0  0  0  0
 39 40  1  0  0  0  0
 39 63  1  0  0  0  0
 40 44  1  0  0  0  0
 40 64  1  0  0  0  0
 41 45  1  0  0  0  0
 41 65  1  0  0  0  0
 42 66  1  0  0  0  0
 42 67  1  0  0  0  0
 43 68  1  0  0  0  0
 43 69  1  0  0  0  0
 44 74  1  0  0  0  0
 44 75  1  0  0  0  0
 45 76  1  0  0  0  0
 45 77  1  0  0  0  0
M  END
> <PUBCHEM_COMPOUND_CID>
50909794

> <PUBCHEM_CONFORMER_RMSD>
1.4

> <PUBCHEM_CONFORMER_DIVERSEORDER>
1
3
21
19
23
20
6
22
12
17
11
18
24
13
9
14
16
10
5
4
7
15
2
8

> <PUBCHEM_MMFF94_PARTIAL_CHARGES>
59
1 -0.56
10 -0.68
11 -0.68
12 -0.68
13 -0.68
14 -0.68
15 -0.68
16 -0.68
17 -0.68
18 -0.68
19 -0.68
2 -0.56
20 -0.68
21 -0.68
22 0.28
23 0.28
24 0.28
25 0.56
26 0.28
27 0.56
28 0.28
29 0.28
3 -0.56
30 0.28
31 0.28
32 0.28
33 0.56
34 0.28
35 0.28
36 0.28
37 0.28
38 0.56
39 0.28
4 -0.56
40 0.28
41 0.28
42 0.28
43 0.28
44 0.28
45 0.28
5 -0.56
6 -0.56
7 -0.68
70 0.4
71 0.4
72 0.4
73 0.4
78 0.4
79 0.4
8 -0.56
80 0.4
81 0.4
82 0.4
83 0.4
84 0.4
85 0.4
86 0.4
87 0.4
9 -0.68

> <PUBCHEM_EFFECTIVE_ROTOR_COUNT>
14.8

> <PUBCHEM_PHARMACOPHORE_FEATURES>
39
1 1 acceptor
1 10 acceptor
1 10 donor
1 11 acceptor
1 11 donor
1 12 acceptor
1 12 donor
1 13 acceptor
1 13 donor
1 14 acceptor
1 14 donor
1 15 acceptor
1 15 donor
1 16 acceptor
1 16 donor
1 17 acceptor
1 17 donor
1 18 acceptor
1 18 donor
1 19 acceptor
1 19 donor
1 2 acceptor
1 20 acceptor
1 20 donor
1 21 acceptor
1 21 donor
1 3 acceptor
1 4 acceptor
1 5 acceptor
1 6 acceptor
1 7 acceptor
1 7 donor
1 8 acceptor
1 9 acceptor
1 9 donor
6 2 23 24 25 28 30 rings
6 3 22 26 27 29 31 rings
6 6 33 35 37 39 40 rings
6 8 32 34 36 38 41 rings

> <PUBCHEM_HEAVY_ATOM_COUNT>
45

> <PUBCHEM_ATOM_DEF_STEREO_COUNT>
19

> <PUBCHEM_ATOM_UDEF_STEREO_COUNT>
1

> <PUBCHEM_BOND_DEF_STEREO_COUNT>
0

> <PUBCHEM_BOND_UDEF_STEREO_COUNT>
0

> <PUBCHEM_ISOTOPIC_ATOM_COUNT>
0

> <PUBCHEM_COMPONENT_COUNT>
1

> <PUBCHEM_CACTVS_TAUTO_COUNT>
1

> <PUBCHEM_CONFORMER_ID>
0308D26200000001

> <PUBCHEM_MMFF94_ENERGY>
138.5391

> <PUBCHEM_FEATURE_SELFOVERLAP>
198.145

> <PUBCHEM_SHAPE_FINGERPRINT>
11049842 53 18040996301707932302
11421498 54 18195816167435056898
12788726 201 18265625277680332263
13726171 33 17896026672715988088
13782708 43 14261357920797398440
14347329 18 18040433304556771531
14747282 125 18040727956176888400
15021287 119 18057054703312009906
15297060 5 18040710398724557029
16994733 274 18189055305280677200
19304144 158 17679024803781111556
19319366 153 18202281407353593515
20511986 3 18272093807301262781
23191077 185 18409453583066654071
23559900 14 17545591719161554109
249057 3 18261667190639192830
3918712 181 18188769578466217185
392239 28 16343420600968889045
44249763 50 18115309964772549720
4516262 110 18130794438228081772
50080093 196 18200312096372117404
563151 74 16916800603992060223
5912855 24 18342459201610580307
6700243 42 17175706811066427414
7808743 9 18334293167499991927

> <PUBCHEM_SHAPE_MULTIPOLES>
802.82
17.01
5.9
2.66
0.83
1.49
1.11
-18.09
3.45
-0.17
-2.39
-0.84
2.1
-4.69

> <PUBCHEM_SHAPE_SELFOVERLAP>
1669.029

> <PUBCHEM_SHAPE_VOLUME>
445.1

> <PUBCHEM_COORDINATE_TYPE>
2
5
10

$$$$

