637541
  -OEChem-07051213033D

 20 20  0     0  0  0  0  0  0999 V2000
   -3.0285    2.0920    0.1188 O   0  0  0  0  0  0  0  0  0  0  0  0
    3.9873    1.2793   -0.2914 O   0  0  0  0  0  0  0  0  0  0  0  0
    3.8627   -0.9224    0.2931 O   0  0  0  0  0  0  0  0  0  0  0  0
   -0.4490   -0.5018    0.0503 C   0  0  0  0  0  0  0  0  0  0  0  0
   -1.0517    0.7543    0.1199 C   0  0  0  0  0  0  0  0  0  0  0  0
   -1.2351   -1.6458   -0.0880 C   0  0  0  0  0  0  0  0  0  0  0  0
   -2.4403    0.8663    0.0512 C   0  0  0  0  0  0  0  0  0  0  0  0
   -2.6237   -1.5337   -0.1566 C   0  0  0  0  0  0  0  0  0  0  0  0
    0.9988   -0.6196    0.1224 C   0  0  0  0  0  0  0  0  0  0  0  0
   -3.2263   -0.2776   -0.0871 C   0  0  0  0  0  0  0  0  0  0  0  0
    1.8772    0.3774   -0.1253 C   0  0  0  0  0  0  0  0  0  0  0  0
    3.3284    0.1316   -0.0073 C   0  0  0  0  0  0  0  0  0  0  0  0
   -0.4757    1.6668    0.2470 H   0  0  0  0  0  0  0  0  0  0  0  0
   -0.7834   -2.6333   -0.1453 H   0  0  0  0  0  0  0  0  0  0  0  0
   -3.2358   -2.4244   -0.2646 H   0  0  0  0  0  0  0  0  0  0  0  0
    1.3743   -1.6033    0.3966 H   0  0  0  0  0  0  0  0  0  0  0  0
   -4.3091   -0.2039   -0.1419 H   0  0  0  0  0  0  0  0  0  0  0  0
    1.5698    1.3729   -0.4249 H   0  0  0  0  0  0  0  0  0  0  0  0
   -3.9929    1.9825    0.0556 H   0  0  0  0  0  0  0  0  0  0  0  0
    4.9602    1.1698   -0.2277 H   0  0  0  0  0  0  0  0  0  0  0  0
  1  7  1  0  0  0  0
  1 19  1  0  0  0  0
  2 12  1  0  0  0  0
  2 20  1  0  0  0  0
  3 12  2  0  0  0  0
  4  5  2  0  0  0  0
  4  6  1  0  0  0  0
  4  9  1  0  0  0  0
  5  7  1  0  0  0  0
  5 13  1  0  0  0  0
  6  8  2  0  0  0  0
  6 14  1  0  0  0  0
  7 10  2  0  0  0  0
  8 10  1  0  0  0  0
  8 15  1  0  0  0  0
  9 11  2  0  0  0  0
  9 16  1  0  0  0  0
 10 17  1  0  0  0  0
 11 12  1  0  0  0  0
 11 18  1  0  0  0  0
M  END
> <PUBCHEM_COMPOUND_CID>
637541

> <PUBCHEM_CONFORMER_RMSD>
0.6

> <PUBCHEM_CONFORMER_DIVERSEORDER>
2
4
1
3

> <PUBCHEM_MMFF94_PARTIAL_CHARGES>
20
1 -0.53
10 -0.15
11 -0.14
12 0.71
13 0.15
14 0.15
15 0.15
16 0.15
17 0.15
18 0.15
19 0.45
2 -0.65
20 0.5
3 -0.57
4 0.03
5 -0.15
6 -0.15
7 0.08
8 -0.15
9 -0.18

> <PUBCHEM_EFFECTIVE_ROTOR_COUNT>
2

> <PUBCHEM_PHARMACOPHORE_FEATURES>
5
1 1 donor
1 2 acceptor
1 3 acceptor
3 2 3 12 anion
6 4 5 6 7 8 10 rings

> <PUBCHEM_HEAVY_ATOM_COUNT>
12

> <PUBCHEM_ATOM_DEF_STEREO_COUNT>
0

> <PUBCHEM_ATOM_UDEF_STEREO_COUNT>
0

> <PUBCHEM_BOND_DEF_STEREO_COUNT>
1

> <PUBCHEM_BOND_UDEF_STEREO_COUNT>
0

> <PUBCHEM_ISOTOPIC_ATOM_COUNT>
0

> <PUBCHEM_COMPONENT_COUNT>
1

> <PUBCHEM_CACTVS_TAUTO_COUNT>
3

> <PUBCHEM_CONFORMER_ID>
0009BA6500000002

> <PUBCHEM_MMFF94_ENERGY>
29.8732

> <PUBCHEM_FEATURE_SELFOVERLAP>
25.427

> <PUBCHEM_SHAPE_FINGERPRINT>
10608611 8 18334860502356676400
12162725 195 18413107238804627284
12932764 1 17531252708123060214
13024252 1 11527955547573822359
13380535 76 18335985371429332439
14144814 61 18413671305428531002
14325111 11 18411136939700533098
14897335 6 18338239387503839791
15219456 202 18041270075533396319
15442244 35 18340770454971033506
15669948 3 18334863757847097222
15775835 57 18343017834693873385
1741750 31 18188769590759651849
18186145 218 17821720624876000136
20279233 1 16805045120841918974
20510252 161 18333726910178945393
20645477 56 18408881862679400297
20711983 171 18409164420172265220
20871998 184 18187922820830357719
2306618 200 18113892775888089003
23402539 116 18334585620608368199
23463225 33 18341334478513648730
23559900 14 18115028614908605106
3248919 1 17346312657692409162
573450 72 18341628026669711778
6333449 129 18334859420119570965

> <PUBCHEM_SHAPE_MULTIPOLES>
229.35
6.89
1.68
0.61
6.04
0.23
0
1.16
-0.15
-1.21
-0.01
0
-0.02
-0.31

> <PUBCHEM_SHAPE_SELFOVERLAP>
478.644

> <PUBCHEM_SHAPE_VOLUME>
130

> <PUBCHEM_COORDINATE_TYPE>
2
5
10

$$$$

