11597
  -OEChem-06261205523D

 18 17  0     0  0  0  0  0  0999 V2000
    0.5677    0.2822   -0.1636 C   0  0  0  0  0  0  0  0  0  0  0  0
    1.8557   -0.4639    0.1863 C   0  0  0  0  0  0  0  0  0  0  0  0
   -0.6527   -0.6336   -0.0498 C   0  0  0  0  0  0  0  0  0  0  0  0
    3.0759    0.4307    0.0379 C   0  0  0  0  0  0  0  0  0  0  0  0
   -1.9128    0.0888   -0.4248 C   0  0  0  0  0  0  0  0  0  0  0  0
   -2.9340    0.2958    0.4140 C   0  0  0  0  0  0  0  0  0  0  0  0
    0.4498    1.1441    0.5054 H   0  0  0  0  0  0  0  0  0  0  0  0
    0.6409    0.6773   -1.1849 H   0  0  0  0  0  0  0  0  0  0  0  0
    1.9702   -1.3366   -0.4672 H   0  0  0  0  0  0  0  0  0  0  0  0
    1.8030   -0.8345    1.2166 H   0  0  0  0  0  0  0  0  0  0  0  0
   -0.5354   -1.4945   -0.7189 H   0  0  0  0  0  0  0  0  0  0  0  0
   -0.7212   -1.0310    0.9702 H   0  0  0  0  0  0  0  0  0  0  0  0
    3.1763    0.7903   -0.9912 H   0  0  0  0  0  0  0  0  0  0  0  0
    3.9849   -0.1223    0.2945 H   0  0  0  0  0  0  0  0  0  0  0  0
    3.0082    1.2994    0.7007 H   0  0  0  0  0  0  0  0  0  0  0  0
   -1.9945    0.4543   -1.4451 H   0  0  0  0  0  0  0  0  0  0  0  0
   -3.8212    0.8223    0.0796 H   0  0  0  0  0  0  0  0  0  0  0  0
   -2.9046   -0.0519    1.4406 H   0  0  0  0  0  0  0  0  0  0  0  0
  1  2  1  0  0  0  0
  1  3  1  0  0  0  0
  1  7  1  0  0  0  0
  1  8  1  0  0  0  0
  2  4  1  0  0  0  0
  2  9  1  0  0  0  0
  2 10  1  0  0  0  0
  3  5  1  0  0  0  0
  3 11  1  0  0  0  0
  3 12  1  0  0  0  0
  4 13  1  0  0  0  0
  4 14  1  0  0  0  0
  4 15  1  0  0  0  0
  5  6  2  0  0  0  0
  5 16  1  0  0  0  0
  6 17  1  0  0  0  0
  6 18  1  0  0  0  0
M  END
> <PUBCHEM_COMPOUND_CID>
11597

> <PUBCHEM_CONFORMER_RMSD>
0.4

> <PUBCHEM_CONFORMER_DIVERSEORDER>
2
10
17
1
11
12
14
16
8
4
15
6
13
3
9
7
5

> <PUBCHEM_MMFF94_PARTIAL_CHARGES>
6
16 0.15
17 0.15
18 0.15
3 0.14
5 -0.29
6 -0.3

> <PUBCHEM_EFFECTIVE_ROTOR_COUNT>
3

> <PUBCHEM_PHARMACOPHORE_FEATURES>
3
1 4 hydrophobe
1 6 hydrophobe
4 1 2 3 5 hydrophobe

> <PUBCHEM_HEAVY_ATOM_COUNT>
6

> <PUBCHEM_ATOM_DEF_STEREO_COUNT>
0

> <PUBCHEM_ATOM_UDEF_STEREO_COUNT>
0

> <PUBCHEM_BOND_DEF_STEREO_COUNT>
0

> <PUBCHEM_BOND_UDEF_STEREO_COUNT>
0

> <PUBCHEM_ISOTOPIC_ATOM_COUNT>
0

> <PUBCHEM_COMPONENT_COUNT>
1

> <PUBCHEM_CACTVS_TAUTO_COUNT>
1

> <PUBCHEM_CONFORMER_ID>
00002D4D00000002

> <PUBCHEM_MMFF94_ENERGY>
-2.3108

> <PUBCHEM_FEATURE_SELFOVERLAP>
15.225

> <PUBCHEM_SHAPE_FINGERPRINT>
11062470 55 6483354417341615635
12932741 1 14129351641219030534
14325111 11 18408323293550266991
14390081 3 17894636937104960896
29004967 10 16702302373127610888
5460574 1 7276832389473603951

> <PUBCHEM_SHAPE_MULTIPOLES>
123.48
4.94
0.78
0.69
0.52
0.04
0
-0.86
-0.49
0.08
-0.01
-0.13
-0.01
-0.07

> <PUBCHEM_SHAPE_SELFOVERLAP>
211.011

> <PUBCHEM_SHAPE_VOLUME>
83.4

> <PUBCHEM_COORDINATE_TYPE>
2
5
10

$$$$

