440847
  -OEChem-07051212513D

 30 29  0     1  0  0  0  0  0999 V2000
    2.9706    2.7689    0.2256 O   0  0  0  0  0  0  0  0  0  0  0  0
   -1.2014    0.4171    1.8789 O   0  0  0  0  0  0  0  0  0  0  0  0
    1.4568    2.5694   -1.4536 O   0  0  0  0  0  0  0  0  0  0  0  0
    3.8882   -2.6624   -1.2687 O   0  0  0  0  0  0  0  0  0  0  0  0
    3.8227   -2.3784    0.9813 O   0  0  0  0  0  0  0  0  0  0  0  0
   -5.8201   -0.9851    0.3589 O   0  0  0  0  0  0  0  0  0  0  0  0
   -4.7023   -0.5978   -1.5799 O   0  0  0  0  0  0  0  0  0  0  0  0
   -0.0136    0.7850   -0.0851 N   0  0  0  0  0  0  0  0  0  0  0  0
    1.2427    1.1540    0.5168 C   0  0  1  0  0  0  0  0  0  0  0  0
    2.1492   -0.0539    0.7833 C   0  0  0  0  0  0  0  0  0  0  0  0
    2.5948   -0.8410   -0.4557 C   0  0  0  0  0  0  0  0  0  0  0  0
   -2.3155    0.0993   -0.2449 C   0  0  0  0  0  0  0  0  0  0  0  0
   -1.1406    0.4444    0.6527 C   0  0  0  0  0  0  0  0  0  0  0  0
    1.8776    2.2133   -0.3605 C   0  0  0  0  0  0  0  0  0  0  0  0
   -3.5633   -0.2777    0.5470 C   0  0  0  0  0  0  0  0  0  0  0  0
    3.4768   -2.0295   -0.1388 C   0  0  0  0  0  0  0  0  0  0  0  0
   -4.7226   -0.6257   -0.3573 C   0  0  0  0  0  0  0  0  0  0  0  0
    1.0130    1.6368    1.4753 H   0  0  0  0  0  0  0  0  0  0  0  0
    3.0458    0.2837    1.3194 H   0  0  0  0  0  0  0  0  0  0  0  0
    1.6320   -0.7418    1.4655 H   0  0  0  0  0  0  0  0  0  0  0  0
    3.1574   -0.1813   -1.1255 H   0  0  0  0  0  0  0  0  0  0  0  0
    1.7152   -1.2173   -0.9896 H   0  0  0  0  0  0  0  0  0  0  0  0
   -0.0662    0.7512   -1.0996 H   0  0  0  0  0  0  0  0  0  0  0  0
   -2.5241    0.9637   -0.8873 H   0  0  0  0  0  0  0  0  0  0  0  0
   -2.0184   -0.7314   -0.8969 H   0  0  0  0  0  0  0  0  0  0  0  0
   -3.8668    0.5589    1.1864 H   0  0  0  0  0  0  0  0  0  0  0  0
   -3.3525   -1.1453    1.1825 H   0  0  0  0  0  0  0  0  0  0  0  0
    3.3716    3.4659   -0.3362 H   0  0  0  0  0  0  0  0  0  0  0  0
    4.4749   -3.4227   -1.0686 H   0  0  0  0  0  0  0  0  0  0  0  0
   -6.5768   -1.2135   -0.2222 H   0  0  0  0  0  0  0  0  0  0  0  0
  1 14  1  0  0  0  0
  1 28  1  0  0  0  0
  2 13  2  0  0  0  0
  3 14  2  0  0  0  0
  4 16  1  0  0  0  0
  4 29  1  0  0  0  0
  5 16  2  0  0  0  0
  6 17  1  0  0  0  0
  6 30  1  0  0  0  0
  7 17  2  0  0  0  0
  8  9  1  0  0  0  0
  8 13  1  0  0  0  0
  8 23  1  0  0  0  0
  9 10  1  0  0  0  0
  9 14  1  0  0  0  0
  9 18  1  0  0  0  0
 10 11  1  0  0  0  0
 10 19  1  0  0  0  0
 10 20  1  0  0  0  0
 11 16  1  0  0  0  0
 11 21  1  0  0  0  0
 11 22  1  0  0  0  0
 12 13  1  0  0  0  0
 12 15  1  0  0  0  0
 12 24  1  0  0  0  0
 12 25  1  0  0  0  0
 15 17  1  0  0  0  0
 15 26  1  0  0  0  0
 15 27  1  0  0  0  0
M  END
> <PUBCHEM_COMPOUND_CID>
440847

> <PUBCHEM_CONFORMER_RMSD>
0.8

> <PUBCHEM_CONFORMER_DIVERSEORDER>
1
49
87
62
14
81
56
10
23
45
12
6
52
38
44
68
85
27
77
16
2
82
34
72
36
18
63
3
74
71
89
37
86
76
60
9
42
53
29
83
39
67
19
73
13
17
41
31
28
15
88
54
11
4
65
69
61
70
51
20
47
59
5
46
33
40
22
64
32
48
75
26
79
80
84
24
21
66
30
7
78
43
25
55
57
50
58
8
35

> <PUBCHEM_MMFF94_PARTIAL_CHARGES>
20
1 -0.65
11 0.06
12 0.06
13 0.57
14 0.66
15 0.06
16 0.66
17 0.66
2 -0.57
23 0.37
28 0.5
29 0.5
3 -0.57
30 0.5
4 -0.65
5 -0.57
6 -0.65
7 -0.57
8 -0.73
9 0.36

> <PUBCHEM_EFFECTIVE_ROTOR_COUNT>
9

> <PUBCHEM_PHARMACOPHORE_FEATURES>
11
1 1 acceptor
1 2 acceptor
1 3 acceptor
1 4 acceptor
1 5 acceptor
1 6 acceptor
1 7 acceptor
1 8 donor
3 1 3 14 anion
3 4 5 16 anion
3 6 7 17 anion

> <PUBCHEM_HEAVY_ATOM_COUNT>
17

> <PUBCHEM_ATOM_DEF_STEREO_COUNT>
1

> <PUBCHEM_ATOM_UDEF_STEREO_COUNT>
0

> <PUBCHEM_BOND_DEF_STEREO_COUNT>
0

> <PUBCHEM_BOND_UDEF_STEREO_COUNT>
0

> <PUBCHEM_ISOTOPIC_ATOM_COUNT>
0

> <PUBCHEM_COMPONENT_COUNT>
1

> <PUBCHEM_CACTVS_TAUTO_COUNT>
2

> <PUBCHEM_CONFORMER_ID>
0006BA0F00000001

> <PUBCHEM_MMFF94_ENERGY>
19.6632

> <PUBCHEM_FEATURE_SELFOVERLAP>
55.994

> <PUBCHEM_SHAPE_FINGERPRINT>
13533116 47 18261391110109354539
13955234 65 18336545993278241288
14178000 29 18263357143936416150
1420 369 17967816084764822071
14251764 30 16589695976407309390
15342816 4 18267579294573495326
15477762 27 18411136939748025456
17539 30 17838620307647682180
1813 80 18264197179288743454
18186145 218 17704356559210138513
18222031 100 18261672687928163134
193927 3 18334570282858459539
19784866 240 18260258694267716131
20369508 70 18131642200590551738
20388580 30 18409443717542547286
20645477 70 18341895160608183011
20671657 53 18342740766364021515
20693207 138 17774427309814046763
20871999 31 17916861464558478126
21054139 6 17755874016961457780
23557571 272 16987145029764168433
23596394 208 18201996620967595060
23598291 2 18336250344941147425
3057174 1 17836905834054787380
312423 11 18336532881296967721
4463277 69 18334018327830957302
4990 188 17703795799557838083
5207 123 18263363753717024511
5281201 14 18131073719062066453
6025842 7 18338798896898384732
633830 44 18060427898186116217
7164475 11 18335420184067326185
7364860 26 18336826403609503208

> <PUBCHEM_SHAPE_MULTIPOLES>
303.79
10.07
2.78
1.24
13.31
0.46
0.03
-7.02
1.58
-5.25
0.71
0.16
-0.02
-0.17

> <PUBCHEM_SHAPE_SELFOVERLAP>
592.927

> <PUBCHEM_SHAPE_VOLUME>
180.6

> <PUBCHEM_COORDINATE_TYPE>
2
5
10

$$$$

