6433205
  -OEChem-07051212473D

 12 11  0     0  0  0  0  0  0999 V2000
    2.5892   -0.2297   -0.0023 O   0  0  0  0  0  0  0  0  0  0  0  0
   -2.1072   -0.7029   -0.0009 O   0  5  0  0  0  0  0  0  0  0  0  0
   -0.9768   -0.1109   -0.0001 N   0  3  0  0  0  0  0  0  0  0  0  0
    0.1780   -0.6472    0.0015 N   0  0  0  0  0  0  0  0  0  0  0  0
    1.2766    0.3322    0.0025 C   0  0  0  0  0  0  0  0  0  0  0  0
   -0.9597    1.3584   -0.0007 C   0  0  0  0  0  0  0  0  0  0  0  0
    1.2669    0.9437    0.9096 H   0  0  0  0  0  0  0  0  0  0  0  0
    1.2645    0.9500   -0.9003 H   0  0  0  0  0  0  0  0  0  0  0  0
   -0.5391    1.7674    0.9198 H   0  0  0  0  0  0  0  0  0  0  0  0
   -2.0100    1.6800    0.0012 H   0  0  0  0  0  0  0  0  0  0  0  0
   -0.5429    1.7657   -0.9237 H   0  0  0  0  0  0  0  0  0  0  0  0
    3.2199    0.5108   -0.0004 H   0  0  0  0  0  0  0  0  0  0  0  0
  1  5  1  0  0  0  0
  1 12  1  0  0  0  0
  2  3  1  0  0  0  0
  3  4  2  0  0  0  0
  3  6  1  0  0  0  0
  4  5  1  0  0  0  0
  5  7  1  0  0  0  0
  5  8  1  0  0  0  0
  6  9  1  0  0  0  0
  6 10  1  0  0  0  0
  6 11  1  0  0  0  0
M  CHG  2   2  -1   3   1
M  END
> <PUBCHEM_COMPOUND_CID>
6433205

> <PUBCHEM_CONFORMER_RMSD>
0.4

> <PUBCHEM_CONFORMER_DIVERSEORDER>
1
2
3

> <PUBCHEM_MMFF94_PARTIAL_CHARGES>
7
1 -0.68
12 0.4
2 -0.63
3 0.74
4 -0.45
5 0.53
6 0.1

> <PUBCHEM_EFFECTIVE_ROTOR_COUNT>
1

> <PUBCHEM_PHARMACOPHORE_FEATURES>
3
1 1 acceptor
1 1 donor
1 2 anion

> <PUBCHEM_HEAVY_ATOM_COUNT>
6

> <PUBCHEM_ATOM_DEF_STEREO_COUNT>
0

> <PUBCHEM_ATOM_UDEF_STEREO_COUNT>
0

> <PUBCHEM_BOND_DEF_STEREO_COUNT>
1

> <PUBCHEM_BOND_UDEF_STEREO_COUNT>
0

> <PUBCHEM_ISOTOPIC_ATOM_COUNT>
0

> <PUBCHEM_COMPONENT_COUNT>
1

> <PUBCHEM_CACTVS_TAUTO_COUNT>
1

> <PUBCHEM_CONFORMER_ID>
006229B500000001

> <PUBCHEM_MMFF94_ENERGY>
22.8381

> <PUBCHEM_FEATURE_SELFOVERLAP>
15.223

> <PUBCHEM_SHAPE_FINGERPRINT>
139733 1 9295020058643055393
16714656 1 18408039593674891599
20096714 4 18195526119507996360
21040471 1 17978228584159397792
29004967 10 18339356353709908331
5460574 1 9295293837244093446

> <PUBCHEM_SHAPE_MULTIPOLES>
101.78
2.83
1.08
0.55
1.24
0.34
0
-0.44
0
-0.48
0
0
0.04
0

> <PUBCHEM_SHAPE_SELFOVERLAP>
179.142

> <PUBCHEM_SHAPE_VOLUME>
67.1

> <PUBCHEM_COORDINATE_TYPE>
2
5
10

$$$$

