6320
  -OEChem-06261201153D

 28 29  0     0  0  0  0  0  0999 V2000
   -2.3709   -2.2418    0.2149 O   0  0  0  0  0  0  0  0  0  0  0  0
   -6.3765    0.2994   -0.2444 O   0  0  0  0  0  0  0  0  0  0  0  0
    5.8404   -1.1030    0.2005 O   0  5  0  0  0  0  0  0  0  0  0  0
    5.8839    1.0900    0.2901 O   0  0  0  0  0  0  0  0  0  0  0  0
   -0.8803    0.1156    0.5094 N   0  0  0  0  0  0  0  0  0  0  0  0
   -0.2947    0.1494   -0.5984 N   0  0  0  0  0  0  0  0  0  0  0  0
    5.2598    0.0088    0.1630 N   0  3  0  0  0  0  0  0  0  0  0  0
   -2.2722    0.1512    0.3181 C   0  0  0  0  0  0  0  0  0  0  0  0
    1.0904    0.1144   -0.4086 C   0  0  0  0  0  0  0  0  0  0  0  0
   -2.9938   -1.0305    0.1735 C   0  0  0  0  0  0  0  0  0  0  0  0
    3.8534    0.0445   -0.0295 C   0  0  0  0  0  0  0  0  0  0  0  0
    1.7573   -1.1098   -0.3633 C   0  0  0  0  0  0  0  0  0  0  0  0
    1.8049    1.3037   -0.2643 C   0  0  0  0  0  0  0  0  0  0  0  0
   -2.9209    1.3823    0.2755 C   0  0  0  0  0  0  0  0  0  0  0  0
    3.1387   -1.1448   -0.1736 C   0  0  0  0  0  0  0  0  0  0  0  0
    3.1863    1.2688   -0.0747 C   0  0  0  0  0  0  0  0  0  0  0  0
   -4.3750   -0.9808   -0.0155 C   0  0  0  0  0  0  0  0  0  0  0  0
   -5.0290    0.2506   -0.0591 C   0  0  0  0  0  0  0  0  0  0  0  0
   -4.3018    1.4321    0.0865 C   0  0  0  0  0  0  0  0  0  0  0  0
    1.2089   -2.0417   -0.4754 H   0  0  0  0  0  0  0  0  0  0  0  0
    1.2937    2.2623   -0.2990 H   0  0  0  0  0  0  0  0  0  0  0  0
   -2.3629    2.3081    0.3887 H   0  0  0  0  0  0  0  0  0  0  0  0
    3.6248   -2.1167   -0.1437 H   0  0  0  0  0  0  0  0  0  0  0  0
    3.7102    2.2151    0.0337 H   0  0  0  0  0  0  0  0  0  0  0  0
   -4.9362   -1.9052   -0.1282 H   0  0  0  0  0  0  0  0  0  0  0  0
   -4.8058    2.3942    0.0535 H   0  0  0  0  0  0  0  0  0  0  0  0
   -1.4193   -2.0910    0.3510 H   0  0  0  0  0  0  0  0  0  0  0  0
   -6.7166   -0.6081   -0.3261 H   0  0  0  0  0  0  0  0  0  0  0  0
  1 10  1  0  0  0  0
  1 27  1  0  0  0  0
  2 18  1  0  0  0  0
  2 28  1  0  0  0  0
  3  7  1  0  0  0  0
  4  7  2  0  0  0  0
  5  6  2  0  0  0  0
  5  8  1  0  0  0  0
  6  9  1  0  0  0  0
  7 11  1  0  0  0  0
  8 10  2  0  0  0  0
  8 14  1  0  0  0  0
  9 12  2  0  0  0  0
  9 13  1  0  0  0  0
 10 17  1  0  0  0  0
 11 15  2  0  0  0  0
 11 16  1  0  0  0  0
 12 15  1  0  0  0  0
 12 20  1  0  0  0  0
 13 16  2  0  0  0  0
 13 21  1  0  0  0  0
 14 19  2  0  0  0  0
 14 22  1  0  0  0  0
 15 23  1  0  0  0  0
 16 24  1  0  0  0  0
 17 18  2  0  0  0  0
 17 25  1  0  0  0  0
 18 19  1  0  0  0  0
 19 26  1  0  0  0  0
M  CHG  2   3  -1   7   1
M  END
> <PUBCHEM_COMPOUND_CID>
6320

> <PUBCHEM_CONFORMER_RMSD>
0.6

> <PUBCHEM_CONFORMER_DIVERSEORDER>
1
2
3

> <PUBCHEM_MMFF94_PARTIAL_CHARGES>
28
1 -0.53
10 0.08
11 0.13
12 -0.15
13 -0.15
14 -0.15
15 -0.15
16 -0.15
17 -0.15
18 0.08
19 -0.15
2 -0.53
20 0.15
21 0.15
22 0.15
23 0.15
24 0.15
25 0.15
26 0.15
27 0.45
28 0.45
3 -0.52
4 -0.52
5 -0.18
6 -0.18
7 0.91
8 0.18
9 0.18

> <PUBCHEM_EFFECTIVE_ROTOR_COUNT>
3

> <PUBCHEM_PHARMACOPHORE_FEATURES>
7
1 1 donor
1 2 donor
1 3 acceptor
1 3 anion
1 4 acceptor
6 8 10 14 17 18 19 rings
6 9 11 12 13 15 16 rings

> <PUBCHEM_HEAVY_ATOM_COUNT>
19

> <PUBCHEM_ATOM_DEF_STEREO_COUNT>
0

> <PUBCHEM_ATOM_UDEF_STEREO_COUNT>
0

> <PUBCHEM_BOND_DEF_STEREO_COUNT>
0

> <PUBCHEM_BOND_UDEF_STEREO_COUNT>
0

> <PUBCHEM_ISOTOPIC_ATOM_COUNT>
0

> <PUBCHEM_COMPONENT_COUNT>
1

> <PUBCHEM_CACTVS_TAUTO_COUNT>
12

> <PUBCHEM_CONFORMER_ID>
000018B000000001

> <PUBCHEM_MMFF94_ENERGY>
54.138

> <PUBCHEM_FEATURE_SELFOVERLAP>
35.602

> <PUBCHEM_SHAPE_FINGERPRINT>
10 15 18187658968737147320
10366900 7 17022903458138447915
11315181 36 18411696573665155361
12107183 9 17689998263878899096
12236239 1 18040718069193210932
12507557 5 18334856099767460225
12815109 37 18341895194677608423
13167823 11 18341895168971335626
13533116 47 17968097580936781266
14251764 18 18335135380748611761
14341114 176 18410569587490113944
15196674 1 18339359669382527558
15375358 24 18334007306982110759
15788980 27 18272928319393653858
17834072 33 18408603643461817500
1813 80 16917063391191448478
19489759 90 18187365445717716393
200 152 18040155119514154537
20279233 1 18261663831383566079
20645477 56 18413388735562324297
20645477 70 17313659477356148670
21033648 29 16878522226998062000
21267235 1 18411409614136409875
23402539 116 18408327679297341533
23559900 14 18335990761697678681
26918003 58 18409166601804628907
300161 21 18413112761800279939
3004659 81 18271804662172156002
34797466 226 17531238436094656268
351380 180 18409730651211707609
3545911 37 18409165515251788397
4073 2 18059570235982370098
4214541 1 18411417319502950181
42788 4 18409166623332258240
5104073 3 18410570647977745768
542803 24 17022618689005924681
559249 180 18341898523404162307
69090 78 18411136944338521727
7495541 125 17240487948783796571
9709674 26 18336255795666408031
9971528 1 17918274225611043948

> <PUBCHEM_SHAPE_MULTIPOLES>
352.59
14.1
1.59
0.66
3.17
0.24
0.01
-0.84
-0.66
-0.3
-0.05
-0.02
-0.01
0.05

> <PUBCHEM_SHAPE_SELFOVERLAP>
764.935

> <PUBCHEM_SHAPE_VOLUME>
192.7

> <PUBCHEM_COORDINATE_TYPE>
2
5
10

$$$$

