13827
  -OEChem-06241222403D

 17 16  0     1  0  0  0  0  0999 V2000
    0.7277    2.2157    0.0529 S   0  0  0  0  0  0  0  0  0  0  0  0
    1.2503   -1.6855   -0.5549 O   0  0  0  0  0  0  0  0  0  0  0  0
    1.9512   -0.2747    1.0730 O   0  0  0  0  0  0  0  0  0  0  0  0
   -3.0726   -0.4554    0.3297 N   0  0  0  0  0  0  0  0  0  0  0  0
   -0.9866    0.1768   -0.7944 C   0  0  0  0  0  0  0  0  0  0  0  0
    0.4951    0.5710   -0.7022 C   0  0  2  0  0  0  0  0  0  0  0  0
   -1.6783   -0.0812    0.5495 C   0  0  0  0  0  0  0  0  0  0  0  0
    1.3131   -0.4667    0.0464 C   0  0  0  0  0  0  0  0  0  0  0  0
   -1.5341    0.9519   -1.3480 H   0  0  0  0  0  0  0  0  0  0  0  0
   -1.0643   -0.7341   -1.4041 H   0  0  0  0  0  0  0  0  0  0  0  0
    0.9134    0.6424   -1.7128 H   0  0  0  0  0  0  0  0  0  0  0  0
   -1.6547    0.8142    1.1777 H   0  0  0  0  0  0  0  0  0  0  0  0
   -1.1772   -0.8872    1.0953 H   0  0  0  0  0  0  0  0  0  0  0  0
   -3.5084   -0.6732    1.2249 H   0  0  0  0  0  0  0  0  0  0  0  0
   -3.1152   -1.3101   -0.2239 H   0  0  0  0  0  0  0  0  0  0  0  0
    0.0189    2.9037   -0.8541 H   0  0  0  0  0  0  0  0  0  0  0  0
    1.7712   -2.3595   -0.0684 H   0  0  0  0  0  0  0  0  0  0  0  0
  1  6  1  0  0  0  0
  1 16  1  0  0  0  0
  2  8  1  0  0  0  0
  2 17  1  0  0  0  0
  3  8  2  0  0  0  0
  4  7  1  0  0  0  0
  4 14  1  0  0  0  0
  4 15  1  0  0  0  0
  5  6  1  0  0  0  0
  5  7  1  0  0  0  0
  5  9  1  0  0  0  0
  5 10  1  0  0  0  0
  6  8  1  0  0  0  0
  6 11  1  0  0  0  0
  7 12  1  0  0  0  0
  7 13  1  0  0  0  0
M  END
> <PUBCHEM_COMPOUND_CID>
13827

> <PUBCHEM_CONFORMER_RMSD>
0.6

> <PUBCHEM_CONFORMER_DIVERSEORDER>
1
19
10
4
7
8
20
5
3
15
9
17
21
12
14
18
13
16
11
2
6

> <PUBCHEM_MMFF94_PARTIAL_CHARGES>
11
1 -0.41
14 0.36
15 0.36
16 0.18
17 0.5
2 -0.65
3 -0.57
4 -0.99
6 0.29
7 0.27
8 0.66

> <PUBCHEM_EFFECTIVE_ROTOR_COUNT>
3

> <PUBCHEM_PHARMACOPHORE_FEATURES>
5
1 2 acceptor
1 3 acceptor
1 4 cation
1 4 donor
3 2 3 8 anion

> <PUBCHEM_HEAVY_ATOM_COUNT>
8

> <PUBCHEM_ATOM_DEF_STEREO_COUNT>
0

> <PUBCHEM_ATOM_UDEF_STEREO_COUNT>
1

> <PUBCHEM_BOND_DEF_STEREO_COUNT>
0

> <PUBCHEM_BOND_UDEF_STEREO_COUNT>
0

> <PUBCHEM_ISOTOPIC_ATOM_COUNT>
0

> <PUBCHEM_COMPONENT_COUNT>
1

> <PUBCHEM_CACTVS_TAUTO_COUNT>
1

> <PUBCHEM_CONFORMER_ID>
0000360300000001

> <PUBCHEM_MMFF94_ENERGY>
5.3069

> <PUBCHEM_FEATURE_SELFOVERLAP>
25.431

> <PUBCHEM_SHAPE_FINGERPRINT>
20653091 64 18201990006718309809
20711978 78 18411422778337727597
21040471 1 17690553087743990628
23552449 11 18272371932282181657
29004967 10 18410860996362124874
528862 383 18197507220465577888

> <PUBCHEM_SHAPE_MULTIPOLES>
151.77
2.96
1.74
0.94
2.64
0.71
-0.02
-0.64
-0.76
-1.1
0.09
-0.12
-0.04
0.06

> <PUBCHEM_SHAPE_SELFOVERLAP>
269.426

> <PUBCHEM_SHAPE_VOLUME>
99.7

> <PUBCHEM_COORDINATE_TYPE>
2
5
10

$$$$

