42396
  -OEChem-07051212533D

 35 35  0     1  0  0  0  0  0999 V2000
   -0.2391    1.4501    0.3924 O   0  0  0  0  0  0  0  0  0  0  0  0
    2.1327    2.9566    0.4496 O   0  0  0  0  0  0  0  0  0  0  0  0
   -4.8476   -1.5235   -0.1554 O   0  0  0  0  0  0  0  0  0  0  0  0
    2.5113   -0.5978   -0.5141 N   0  0  0  0  0  0  0  0  0  0  0  0
    2.5554    0.5991    0.3149 C   0  0  0  0  0  0  0  0  0  0  0  0
    1.9926    1.8231   -0.4115 C   0  0  1  0  0  0  0  0  0  0  0  0
    3.1037   -1.7338    0.1790 C   0  0  0  0  0  0  0  0  0  0  0  0
    0.5207    1.6761   -0.7909 C   0  0  0  0  0  0  0  0  0  0  0  0
    4.5649   -1.4467    0.5126 C   0  0  0  0  0  0  0  0  0  0  0  0
    2.9747   -2.9816   -0.6888 C   0  0  0  0  0  0  0  0  0  0  0  0
   -1.3841    0.7115    0.2566 C   0  0  0  0  0  0  0  0  0  0  0  0
   -2.0890    0.7474   -0.9418 C   0  0  0  0  0  0  0  0  0  0  0  0
   -1.8318   -0.0678    1.3180 C   0  0  0  0  0  0  0  0  0  0  0  0
   -3.2557   -0.0045   -1.0803 C   0  0  0  0  0  0  0  0  0  0  0  0
   -2.9985   -0.8198    1.1792 C   0  0  0  0  0  0  0  0  0  0  0  0
   -3.7103   -0.7882   -0.0199 C   0  0  0  0  0  0  0  0  0  0  0  0
    2.0132    0.4384    1.2554 H   0  0  0  0  0  0  0  0  0  0  0  0
    3.5792    0.8681    0.5964 H   0  0  0  0  0  0  0  0  0  0  0  0
    2.5814    2.0303   -1.3123 H   0  0  0  0  0  0  0  0  0  0  0  0
    2.5559   -1.9266    1.1101 H   0  0  0  0  0  0  0  0  0  0  0  0
    3.0030   -0.4264   -1.3908 H   0  0  0  0  0  0  0  0  0  0  0  0
    0.4255    0.8559   -1.5131 H   0  0  0  0  0  0  0  0  0  0  0  0
    0.1680    2.6080   -1.2481 H   0  0  0  0  0  0  0  0  0  0  0  0
    4.6753   -0.7407    1.3417 H   0  0  0  0  0  0  0  0  0  0  0  0
    5.1159   -1.0623   -0.3534 H   0  0  0  0  0  0  0  0  0  0  0  0
    5.0681   -2.3673    0.8314 H   0  0  0  0  0  0  0  0  0  0  0  0
    3.5183   -2.8729   -1.6342 H   0  0  0  0  0  0  0  0  0  0  0  0
    3.3768   -3.8583   -0.1695 H   0  0  0  0  0  0  0  0  0  0  0  0
    1.9248   -3.1892   -0.9239 H   0  0  0  0  0  0  0  0  0  0  0  0
    1.5805    2.8014    1.2351 H   0  0  0  0  0  0  0  0  0  0  0  0
   -1.7865    1.3669   -1.7806 H   0  0  0  0  0  0  0  0  0  0  0  0
   -1.2798   -0.0958    2.2532 H   0  0  0  0  0  0  0  0  0  0  0  0
   -3.8049    0.0333   -2.0174 H   0  0  0  0  0  0  0  0  0  0  0  0
   -3.3473   -1.4288    2.0088 H   0  0  0  0  0  0  0  0  0  0  0  0
   -5.2089   -1.3834   -1.0474 H   0  0  0  0  0  0  0  0  0  0  0  0
  1  8  1  0  0  0  0
  1 11  1  0  0  0  0
  2  6  1  0  0  0  0
  2 30  1  0  0  0  0
  3 16  1  0  0  0  0
  3 35  1  0  0  0  0
  4  5  1  0  0  0  0
  4  7  1  0  0  0  0
  4 21  1  0  0  0  0
  5  6  1  0  0  0  0
  5 17  1  0  0  0  0
  5 18  1  0  0  0  0
  6  8  1  0  0  0  0
  6 19  1  0  0  0  0
  7  9  1  0  0  0  0
  7 10  1  0  0  0  0
  7 20  1  0  0  0  0
  8 22  1  0  0  0  0
  8 23  1  0  0  0  0
  9 24  1  0  0  0  0
  9 25  1  0  0  0  0
  9 26  1  0  0  0  0
 10 27  1  0  0  0  0
 10 28  1  0  0  0  0
 10 29  1  0  0  0  0
 11 12  2  0  0  0  0
 11 13  1  0  0  0  0
 12 14  1  0  0  0  0
 12 31  1  0  0  0  0
 13 15  2  0  0  0  0
 13 32  1  0  0  0  0
 14 16  2  0  0  0  0
 14 33  1  0  0  0  0
 15 16  1  0  0  0  0
 15 34  1  0  0  0  0
M  END
> <PUBCHEM_COMPOUND_CID>
42396

> <PUBCHEM_CONFORMER_RMSD>
0.8

> <PUBCHEM_CONFORMER_DIVERSEORDER>
1
43
48
8
21
31
17
37
34
47
14
32
42
11
33
45
15
2
40
28
46
39
24
18
9
5
29
20
10
16
30
36
44
26
25
23
3
4
27
12
35
13
22
41
19
38
7
6

> <PUBCHEM_MMFF94_PARTIAL_CHARGES>
21
1 -0.36
11 0.08
12 -0.15
13 -0.15
14 -0.15
15 -0.15
16 0.08
2 -0.68
21 0.36
3 -0.53
30 0.4
31 0.15
32 0.15
33 0.15
34 0.15
35 0.45
4 -0.9
5 0.27
6 0.28
7 0.27
8 0.28

> <PUBCHEM_EFFECTIVE_ROTOR_COUNT>
6

> <PUBCHEM_PHARMACOPHORE_FEATURES>
8
1 1 acceptor
1 2 acceptor
1 2 donor
1 3 donor
1 4 cation
1 4 donor
3 7 9 10 hydrophobe
6 11 12 13 14 15 16 rings

> <PUBCHEM_HEAVY_ATOM_COUNT>
16

> <PUBCHEM_ATOM_DEF_STEREO_COUNT>
1

> <PUBCHEM_ATOM_UDEF_STEREO_COUNT>
0

> <PUBCHEM_BOND_DEF_STEREO_COUNT>
0

> <PUBCHEM_BOND_UDEF_STEREO_COUNT>
0

> <PUBCHEM_ISOTOPIC_ATOM_COUNT>
0

> <PUBCHEM_COMPONENT_COUNT>
1

> <PUBCHEM_CACTVS_TAUTO_COUNT>
2

> <PUBCHEM_CONFORMER_ID>
0000A59C00000001

> <PUBCHEM_MMFF94_ENERGY>
33.8323

> <PUBCHEM_FEATURE_SELFOVERLAP>
40.598

> <PUBCHEM_SHAPE_FINGERPRINT>
10465860 71 16200148785645848621
10968037 57 18116707611286119863
11137873 295 18343579681162277561
12363563 72 18269268127032181466
12553582 1 18265316460703632702
13533116 47 18335133143081395203
13544592 145 17988928860102087429
14251705 54 18337106890501266182
14848160 33 18411983576365184518
15352361 1 18339926034088533554
15635459 17 18343863303422533570
17834072 14 18342748454772219240
18186145 218 17703802418129146197
20291156 8 18263640826394539014
20374829 77 18131358547833124531
204376 136 17904766574919289776
20645477 70 18270968946628370941
20671657 53 18343301500267344296
2255824 54 18264200327684588900
231179 274 9295285058510327538
23403322 49 18200878490598932138
23557571 272 15839847513963838809
23559900 14 18130511850876180516
27216 239 7420358230864363007
33382 64 18120930600095754683
33824 294 18266740182190523032
7364860 26 18337954489633600496
81228 2 17763177343209647128
9709674 26 18130789997564018281

> <PUBCHEM_SHAPE_MULTIPOLES>
306.68
8.52
2.77
1.09
0.76
0.27
-0.07
-6.29
-0.01
-3.04
0.26
0.56
-0.07
0.51

> <PUBCHEM_SHAPE_SELFOVERLAP>
613.75

> <PUBCHEM_SHAPE_VOLUME>
182.4

> <PUBCHEM_COORDINATE_TYPE>
2
5
10

$$$$

