449065
  -OEChem-07051213023D

 10  9  0     0  0  0  0  0  0999 V2000
    1.9451    0.9541    0.0004 O   0  0  0  0  0  0  0  0  0  0  0  0
   -2.6545    0.1482    0.0001 O   0  0  0  0  0  0  0  0  0  0  0  0
    1.3355   -1.2447    0.0001 O   0  0  0  0  0  0  0  0  0  0  0  0
   -0.3104    0.5101   -0.0004 C   0  0  0  0  0  0  0  0  0  0  0  0
    1.0487   -0.0595   -0.0004 C   0  0  0  0  0  0  0  0  0  0  0  0
   -1.3645   -0.3082    0.0002 C   0  0  0  0  0  0  0  0  0  0  0  0
   -0.4323    1.5875   -0.0009 H   0  0  0  0  0  0  0  0  0  0  0  0
   -1.3148   -1.3881    0.0007 H   0  0  0  0  0  0  0  0  0  0  0  0
    2.8699    0.6269    0.0010 H   0  0  0  0  0  0  0  0  0  0  0  0
   -3.2327   -0.6346    0.0006 H   0  0  0  0  0  0  0  0  0  0  0  0
  1  5  1  0  0  0  0
  1  9  1  0  0  0  0
  2  6  1  0  0  0  0
  2 10  1  0  0  0  0
  3  5  2  0  0  0  0
  4  5  1  0  0  0  0
  4  6  2  0  0  0  0
  4  7  1  0  0  0  0
  6  8  1  0  0  0  0
M  END
> <PUBCHEM_COMPOUND_CID>
449065

> <PUBCHEM_CONFORMER_RMSD>
0.4

> <PUBCHEM_CONFORMER_DIVERSEORDER>
1

> <PUBCHEM_MMFF94_PARTIAL_CHARGES>
10
1 -0.65
10 0.45
2 -0.53
3 -0.57
4 -0.14
5 0.71
6 -0.07
7 0.15
8 0.15
9 0.5

> <PUBCHEM_EFFECTIVE_ROTOR_COUNT>
1

> <PUBCHEM_PHARMACOPHORE_FEATURES>
4
1 1 acceptor
1 2 donor
1 3 acceptor
3 1 3 5 anion

> <PUBCHEM_HEAVY_ATOM_COUNT>
6

> <PUBCHEM_ATOM_DEF_STEREO_COUNT>
0

> <PUBCHEM_ATOM_UDEF_STEREO_COUNT>
0

> <PUBCHEM_BOND_DEF_STEREO_COUNT>
1

> <PUBCHEM_BOND_UDEF_STEREO_COUNT>
0

> <PUBCHEM_ISOTOPIC_ATOM_COUNT>
0

> <PUBCHEM_COMPONENT_COUNT>
1

> <PUBCHEM_CACTVS_TAUTO_COUNT>
3

> <PUBCHEM_CONFORMER_ID>
0006DA2900000001

> <PUBCHEM_MMFF94_ENERGY>
7.7294

> <PUBCHEM_FEATURE_SELFOVERLAP>
20.353

> <PUBCHEM_SHAPE_FINGERPRINT>
139733 1 9222932781991199267
14390081 3 18187649063667102785
20096714 4 18335138635700994696
21040471 1 18266741285865054342
23552449 11 18201170952112366794
24536 1 18339374048938205433
29004967 10 18201714042152731553
5460574 1 9295294936782088481

> <PUBCHEM_SHAPE_MULTIPOLES>
105.87
2.91
0.98
0.56
1.31
0.14
0
-0.22
0
-0.48
0
0.01
0
0

> <PUBCHEM_SHAPE_SELFOVERLAP>
196.535

> <PUBCHEM_SHAPE_VOLUME>
66.3

> <PUBCHEM_COORDINATE_TYPE>
2
5
10

$$$$

