23724734
  -OEChem-07051213083D

 71 75  0     1  0  0  0  0  0999 V2000
    2.1931    1.3652    0.1539 O   0  0  0  0  0  0  0  0  0  0  0  0
    2.9428   -0.3286    1.5726 O   0  0  0  0  0  0  0  0  0  0  0  0
    2.9076    4.9530   -0.0215 O   0  0  0  0  0  0  0  0  0  0  0  0
    5.2187    3.8762    1.3405 O   0  0  0  0  0  0  0  0  0  0  0  0
    4.4498    1.5803    3.0194 O   0  0  0  0  0  0  0  0  0  0  0  0
    0.0724    2.1378   -1.4152 O   0  0  0  0  0  0  0  0  0  0  0  0
    0.5876   -2.6663   -0.0628 O   0  3  0  0  0  0  0  0  0  0  0  0
   -1.1630    3.9181   -0.6138 O   0  0  0  0  0  0  0  0  0  0  0  0
   -1.6882   -0.6906    3.7476 O   0  0  0  0  0  0  0  0  0  0  0  0
   -3.9677   -3.7729    0.9307 O   0  0  0  0  0  0  0  0  0  0  0  0
    4.3810   -0.7983   -3.6137 O   0  0  0  0  0  0  0  0  0  0  0  0
    6.2294   -2.7721   -2.9696 O   0  0  0  0  0  0  0  0  0  0  0  0
   -8.2405    1.6452   -0.9225 O   0  0  0  0  0  0  0  0  0  0  0  0
   -7.9510   -1.1187   -0.9772 O   0  0  0  0  0  0  0  0  0  0  0  0
    3.2107    3.5638    0.0761 C   0  0  1  0  0  0  0  0  0  0  0  0
    3.9165    3.2925    1.4047 C   0  0  1  0  0  0  0  0  0  0  0  0
    1.9153    2.7550   -0.0259 C   0  0  1  0  0  0  0  0  0  0  0  0
    4.0437    1.7919    1.6674 C   0  0  2  0  0  0  0  0  0  0  0  0
    2.7115    1.0744    1.4498 C   0  0  1  0  0  0  0  0  0  0  0  0
    1.2531    2.9189   -1.3903 C   0  0  0  0  0  0  0  0  0  0  0  0
    1.7870   -1.0506    1.3825 C   0  0  0  0  0  0  0  0  0  0  0  0
    1.6747   -2.0139    0.2417 C   0  0  0  0  0  0  0  0  0  0  0  0
    0.7011   -0.9034    2.1522 C   0  0  0  0  0  0  0  0  0  0  0  0
   -0.5215   -1.6454    1.8661 C   0  0  0  0  0  0  0  0  0  0  0  0
   -1.0698    2.7635   -0.9992 C   0  0  0  0  0  0  0  0  0  0  0  0
   -0.5441   -2.4972    0.7569 C   0  0  0  0  0  0  0  0  0  0  0  0
    2.8735   -2.2107   -0.6064 C   0  0  0  0  0  0  0  0  0  0  0  0
   -1.6650   -1.5120    2.6593 C   0  0  0  0  0  0  0  0  0  0  0  0
   -1.7010   -3.2114    0.4427 C   0  0  0  0  0  0  0  0  0  0  0  0
   -2.1871    1.7965   -1.0936 C   0  0  0  0  0  0  0  0  0  0  0  0
    3.0670   -1.4049   -1.7227 C   0  0  0  0  0  0  0  0  0  0  0  0
    3.7937   -3.1998   -0.2779 C   0  0  0  0  0  0  0  0  0  0  0  0
   -2.8208   -2.2284    2.3435 C   0  0  0  0  0  0  0  0  0  0  0  0
   -2.8389   -3.0764    1.2363 C   0  0  0  0  0  0  0  0  0  0  0  0
    4.1957   -1.5904   -2.5209 C   0  0  0  0  0  0  0  0  0  0  0  0
    4.9224   -3.3854   -1.0761 C   0  0  0  0  0  0  0  0  0  0  0  0
    5.1233   -2.5806   -2.1976 C   0  0  0  0  0  0  0  0  0  0  0  0
   -3.4242    2.1808   -0.7486 C   0  0  0  0  0  0  0  0  0  0  0  0
   -4.6162    1.3165   -0.8088 C   0  0  0  0  0  0  0  0  0  0  0  0
   -5.8740    1.8963   -0.8374 C   0  0  0  0  0  0  0  0  0  0  0  0
   -4.4556   -0.0595   -0.8352 C   0  0  0  0  0  0  0  0  0  0  0  0
   -7.0022    1.0781   -0.8941 C   0  0  0  0  0  0  0  0  0  0  0  0
   -5.5837   -0.8777   -0.8918 C   0  0  0  0  0  0  0  0  0  0  0  0
   -6.8570   -0.3089   -0.9214 C   0  0  0  0  0  0  0  0  0  0  0  0
    3.8892    3.3107   -0.7491 H   0  0  0  0  0  0  0  0  0  0  0  0
    3.3974    3.7913    2.2316 H   0  0  0  0  0  0  0  0  0  0  0  0
    1.2024    3.0721    0.7469 H   0  0  0  0  0  0  0  0  0  0  0  0
    4.8230    1.3601    1.0271 H   0  0  0  0  0  0  0  0  0  0  0  0
    2.0039    1.4043    2.2227 H   0  0  0  0  0  0  0  0  0  0  0  0
    1.9059    2.5224   -2.1763 H   0  0  0  0  0  0  0  0  0  0  0  0
    1.0433    3.9646   -1.6393 H   0  0  0  0  0  0  0  0  0  0  0  0
    2.7102    5.1504   -0.9522 H   0  0  0  0  0  0  0  0  0  0  0  0
    5.7115    3.4389    0.6253 H   0  0  0  0  0  0  0  0  0  0  0  0
    4.5055    0.6195    3.1596 H   0  0  0  0  0  0  0  0  0  0  0  0
    0.7390   -0.2387    3.0056 H   0  0  0  0  0  0  0  0  0  0  0  0
   -1.7012   -3.8694   -0.4219 H   0  0  0  0  0  0  0  0  0  0  0  0
    2.3440   -0.6343   -1.9788 H   0  0  0  0  0  0  0  0  0  0  0  0
   -1.9485    0.8071   -1.4658 H   0  0  0  0  0  0  0  0  0  0  0  0
    3.6446   -3.8314    0.5937 H   0  0  0  0  0  0  0  0  0  0  0  0
   -3.7103   -2.1239    2.9600 H   0  0  0  0  0  0  0  0  0  0  0  0
    5.6370   -4.1606   -0.8128 H   0  0  0  0  0  0  0  0  0  0  0  0
   -3.6041    3.1973   -0.4059 H   0  0  0  0  0  0  0  0  0  0  0  0
   -1.0595    0.0387    3.6349 H   0  0  0  0  0  0  0  0  0  0  0  0
   -3.8046   -4.3024    0.1314 H   0  0  0  0  0  0  0  0  0  0  0  0
    5.2103   -1.0648   -4.0474 H   0  0  0  0  0  0  0  0  0  0  0  0
    6.7559   -3.4984   -2.5940 H   0  0  0  0  0  0  0  0  0  0  0  0
   -5.9966    2.9766   -0.8179 H   0  0  0  0  0  0  0  0  0  0  0  0
   -3.4859   -0.5448   -0.7946 H   0  0  0  0  0  0  0  0  0  0  0  0
   -5.4574   -1.9569   -0.9103 H   0  0  0  0  0  0  0  0  0  0  0  0
   -8.9022    0.9330   -0.9611 H   0  0  0  0  0  0  0  0  0  0  0  0
   -7.6583   -2.0462   -0.9886 H   0  0  0  0  0  0  0  0  0  0  0  0
  1 17  1  0  0  0  0
  1 19  1  0  0  0  0
  2 19  1  0  0  0  0
  2 21  1  0  0  0  0
  3 15  1  0  0  0  0
  3 52  1  0  0  0  0
  4 16  1  0  0  0  0
  4 53  1  0  0  0  0
  5 18  1  0  0  0  0
  5 54  1  0  0  0  0
  6 20  1  0  0  0  0
  6 25  1  0  0  0  0
  7 22  2  0  0  0  0
  7 26  1  0  0  0  0
  8 25  2  0  0  0  0
  9 28  1  0  0  0  0
  9 63  1  0  0  0  0
 10 34  1  0  0  0  0
 10 64  1  0  0  0  0
 11 35  1  0  0  0  0
 11 65  1  0  0  0  0
 12 37  1  0  0  0  0
 12 66  1  0  0  0  0
 13 42  1  0  0  0  0
 13 70  1  0  0  0  0
 14 44  1  0  0  0  0
 14 71  1  0  0  0  0
 15 16  1  0  0  0  0
 15 17  1  0  0  0  0
 15 45  1  0  0  0  0
 16 18  1  0  0  0  0
 16 46  1  0  0  0  0
 17 20  1  0  0  0  0
 17 47  1  0  0  0  0
 18 19  1  0  0  0  0
 18 48  1  0  0  0  0
 19 49  1  0  0  0  0
 20 50  1  0  0  0  0
 20 51  1  0  0  0  0
 21 22  1  0  0  0  0
 21 23  2  0  0  0  0
 22 27  1  0  0  0  0
 23 24  1  0  0  0  0
 23 55  1  0  0  0  0
 24 26  1  0  0  0  0
 24 28  2  0  0  0  0
 25 30  1  0  0  0  0
 26 29  2  0  0  0  0
 27 31  2  0  0  0  0
 27 32  1  0  0  0  0
 28 33  1  0  0  0  0
 29 34  1  0  0  0  0
 29 56  1  0  0  0  0
 30 38  2  0  0  0  0
 30 58  1  0  0  0  0
 31 35  1  0  0  0  0
 31 57  1  0  0  0  0
 32 36  2  0  0  0  0
 32 59  1  0  0  0  0
 33 34  2  0  0  0  0
 33 60  1  0  0  0  0
 35 37  2  0  0  0  0
 36 37  1  0  0  0  0
 36 61  1  0  0  0  0
 38 39  1  0  0  0  0
 38 62  1  0  0  0  0
 39 40  2  0  0  0  0
 39 41  1  0  0  0  0
 40 42  1  0  0  0  0
 40 67  1  0  0  0  0
 41 43  2  0  0  0  0
 41 68  1  0  0  0  0
 42 44  2  0  0  0  0
 43 44  1  0  0  0  0
 43 69  1  0  0  0  0
M  CHG  1   7   1
M  END
> <PUBCHEM_COMPOUND_CID>
23724734

> <PUBCHEM_CONFORMER_RMSD>
1.4

> <PUBCHEM_CONFORMER_DIVERSEORDER>
1
11
3
238
272
66
267
19
153
182
236
30
14
242
138
32
243
256
10
86
141
145
206
207
82
2
181
124
265
100
169
231
175
128
113
105
184
140
271
183
210
96
270
68
277
168
4
205
129
229
49
257
60
250
16
237
107
94
159
172
122
136
227
45
117
90
62
22
57
260
150
130
27
222
28
101
264
255
84
248
211
111
276
158
78
112
160
173
235
50
190
221
262
43
116
197
97
20
232
174
268
133
191
240
253
223
201
99
8
258
239
35
155
44
241
177
137
213
273
220
156
234
71
212
81
103
89
54
218
25
217
194
215
42
244
61
24
38
263
180
48
39
95
18
214
41
161
108
92
228
73
167
165
118
203
149
123
83
152
64
135
67
65
119
224
110
251
93
162
77
157
36
245
199
127
225
193
176
132
126
125
154
259
17
269
26
91
274
80
9
195
114
226
151
188
148
53
142
15
131
246
56
106
144
266
134
143
52
31
58
261
33
79
146
198
249
230
23
179
254
252
104
5
202
247
209
115
170
121
59
233
164
72
7
21
204
186
88
147
13
55
29
200
85
75
171
166
34
189
109
219
120
98
87
139
76
178
40
6
216
37
69
196
63
102
192
70
12
74
163
208
46
187
185
275
51
47

> <PUBCHEM_MMFF94_PARTIAL_CHARGES>
64
1 -0.56
10 -0.53
11 -0.53
12 -0.53
13 -0.53
14 -0.53
15 0.28
16 0.28
17 0.28
18 0.28
19 0.56
2 -0.36
20 0.28
21 0.09
22 0.85
23 -0.18
24 0.03
25 0.71
26 0.92
27 0.09
28 0.08
29 -0.15
3 -0.68
30 -0.14
31 -0.15
32 -0.15
33 -0.15
34 0.08
35 0.08
36 -0.15
37 0.08
38 -0.18
39 0.03
4 -0.68
40 -0.15
41 -0.15
42 0.08
43 -0.15
44 0.08
5 -0.68
52 0.4
53 0.4
54 0.4
55 0.15
56 0.15
57 0.15
58 0.15
59 0.15
6 -0.43
60 0.15
61 0.15
62 0.15
63 0.45
64 0.45
65 0.45
66 0.45
67 0.15
68 0.15
69 0.15
7 -0.87
70 0.45
71 0.45
8 -0.57
9 -0.53

> <PUBCHEM_EFFECTIVE_ROTOR_COUNT>
9.2

> <PUBCHEM_PHARMACOPHORE_FEATURES>
20
1 1 acceptor
1 10 donor
1 11 donor
1 12 donor
1 13 donor
1 14 donor
1 2 acceptor
1 3 acceptor
1 3 donor
1 4 acceptor
1 4 donor
1 5 acceptor
1 5 donor
1 8 acceptor
1 9 donor
6 1 15 16 17 18 19 rings
6 24 26 28 29 33 34 rings
6 27 31 32 35 36 37 rings
6 39 40 41 42 43 44 rings
6 7 21 22 23 24 26 rings

> <PUBCHEM_HEAVY_ATOM_COUNT>
44

> <PUBCHEM_ATOM_DEF_STEREO_COUNT>
5

> <PUBCHEM_ATOM_UDEF_STEREO_COUNT>
0

> <PUBCHEM_BOND_DEF_STEREO_COUNT>
1

> <PUBCHEM_BOND_UDEF_STEREO_COUNT>
0

> <PUBCHEM_ISOTOPIC_ATOM_COUNT>
0

> <PUBCHEM_COMPONENT_COUNT>
1

> <PUBCHEM_CACTVS_TAUTO_COUNT>
990

> <PUBCHEM_CONFORMER_ID>
016A02BE00000001

> <PUBCHEM_MMFF94_ENERGY>
135.7927

> <PUBCHEM_FEATURE_SELFOVERLAP>
101.582

> <PUBCHEM_SHAPE_FINGERPRINT>
10032420 55 17915178155164140413
10864689 126 18127982012908518767
11411753 29 18199169725413810163
11513181 2 18191591856572165143
11578080 2 18337954493691470186
12156800 1 17775278336462184500
12758862 65 18041553741386533798
13751561 76 18341617022942153352
14068700 675 17969501700266363761
14725015 67 17986691452523676281
15001296 14 18271820003900800045
15219648 60 17988923417920582483
15721738 202 17313107500664184564
15968369 153 18199746952328360187
17909252 39 18190182467142785943
20764821 26 18201142274631458207
20775438 99 18337689520095227383
21197605 99 18199760146035117257
238918 7 18122344575879356748
24941158 1 17895746310494807856
25223398 141 16700078134024379180
3388396 114 17604418609618543608
437795 70 18340198712930004863
469060 322 17098606079963173342
5081480 168 18190435269065618806
508180 173 18267573779186413427
513532 50 18408889529306501396
5171179 24 18338784637807604006
5776283 40 18341606044763457158
6086070 43 18411129260247189610
6823239 73 18192444179799233372
86090 222 18272941560799465545

> <PUBCHEM_SHAPE_MULTIPOLES>
823.33
15.66
6
2.97
24.92
3.29
-0.59
-0.09
9.41
-5.71
-0.24
-3.59
-1.38
6.48

> <PUBCHEM_SHAPE_SELFOVERLAP>
1807.601

> <PUBCHEM_SHAPE_VOLUME>
439.9

> <PUBCHEM_COORDINATE_TYPE>
2
5
10

$$$$

