98491
  -OEChem-07051212523D

 26 27  0     0  0  0  0  0  0999 V2000
   -5.4015   -1.5395   -0.0129 Cl  0  0  0  0  0  0  0  0  0  0  0  0
    5.0874   -1.9809   -0.0116 Cl  0  0  0  0  0  0  0  0  0  0  0  0
    1.4290    3.4161   -0.0095 Cl  0  0  0  0  0  0  0  0  0  0  0  0
   -0.0379    1.0709    0.0114 C   0  0  0  0  0  0  0  0  0  0  0  0
   -1.3460    0.4348    0.0056 C   0  0  0  0  0  0  0  0  0  0  0  0
    1.2504    0.3045    0.0055 C   0  0  0  0  0  0  0  0  0  0  0  0
   -1.9737    0.1199    1.2106 C   0  0  0  0  0  0  0  0  0  0  0  0
    1.8120   -0.0193   -1.2049 C   0  0  0  0  0  0  0  0  0  0  0  0
   -1.9723    0.1392   -1.2053 C   0  0  0  0  0  0  0  0  0  0  0  0
    1.8106   -0.0401    1.2109 C   0  0  0  0  0  0  0  0  0  0  0  0
   -3.2277   -0.4909    1.2049 C   0  0  0  0  0  0  0  0  0  0  0  0
    3.0103   -0.7332   -1.2103 C   0  0  0  0  0  0  0  0  0  0  0  0
   -3.2265   -0.4713   -1.2109 C   0  0  0  0  0  0  0  0  0  0  0  0
    3.0090   -0.7538    1.2055 C   0  0  0  0  0  0  0  0  0  0  0  0
   -3.8542   -0.7865   -0.0058 C   0  0  0  0  0  0  0  0  0  0  0  0
    3.6088   -1.1005   -0.0050 C   0  0  0  0  0  0  0  0  0  0  0  0
    0.0224    2.4305    0.0219 C   0  0  0  0  0  0  0  0  0  0  0  0
   -1.4997    0.3437    2.1634 H   0  0  0  0  0  0  0  0  0  0  0  0
    1.3534    0.2628   -2.1480 H   0  0  0  0  0  0  0  0  0  0  0  0
   -1.4973    0.3784   -2.1538 H   0  0  0  0  0  0  0  0  0  0  0  0
    1.3509    0.2260    2.1581 H   0  0  0  0  0  0  0  0  0  0  0  0
   -3.7050   -0.7306    2.1516 H   0  0  0  0  0  0  0  0  0  0  0  0
    3.4664   -0.9964   -2.1612 H   0  0  0  0  0  0  0  0  0  0  0  0
   -3.7027   -0.6957   -2.1619 H   0  0  0  0  0  0  0  0  0  0  0  0
    3.4640   -1.0330    2.1524 H   0  0  0  0  0  0  0  0  0  0  0  0
   -0.8666    3.0515    0.0295 H   0  0  0  0  0  0  0  0  0  0  0  0
  1 15  1  0  0  0  0
  2 16  1  0  0  0  0
  3 17  1  0  0  0  0
  4  5  1  0  0  0  0
  4  6  1  0  0  0  0
  4 17  2  0  0  0  0
  5  7  2  0  0  0  0
  5  9  1  0  0  0  0
  6  8  2  0  0  0  0
  6 10  1  0  0  0  0
  7 11  1  0  0  0  0
  7 18  1  0  0  0  0
  8 12  1  0  0  0  0
  8 19  1  0  0  0  0
  9 13  2  0  0  0  0
  9 20  1  0  0  0  0
 10 14  2  0  0  0  0
 10 21  1  0  0  0  0
 11 15  2  0  0  0  0
 11 22  1  0  0  0  0
 12 16  2  0  0  0  0
 12 23  1  0  0  0  0
 13 15  1  0  0  0  0
 13 24  1  0  0  0  0
 14 16  1  0  0  0  0
 14 25  1  0  0  0  0
 17 26  1  0  0  0  0
M  END
> <PUBCHEM_COMPOUND_CID>
98491

> <PUBCHEM_CONFORMER_RMSD>
0.6

> <PUBCHEM_CONFORMER_DIVERSEORDER>
1
2

> <PUBCHEM_MMFF94_PARTIAL_CHARGES>
26
1 -0.18
10 -0.15
11 -0.15
12 -0.15
13 -0.15
14 -0.15
15 0.18
16 0.18
17 -0.01
18 0.15
19 0.15
2 -0.18
20 0.15
21 0.15
22 0.15
23 0.15
24 0.15
25 0.15
26 0.15
3 -0.14
4 -0.06
5 0.03
6 0.03
7 -0.15
8 -0.15
9 -0.15

> <PUBCHEM_EFFECTIVE_ROTOR_COUNT>
2

> <PUBCHEM_PHARMACOPHORE_FEATURES>
2
6 5 7 9 11 13 15 rings
6 6 8 10 12 14 16 rings

> <PUBCHEM_HEAVY_ATOM_COUNT>
17

> <PUBCHEM_ATOM_DEF_STEREO_COUNT>
0

> <PUBCHEM_ATOM_UDEF_STEREO_COUNT>
0

> <PUBCHEM_BOND_DEF_STEREO_COUNT>
0

> <PUBCHEM_BOND_UDEF_STEREO_COUNT>
0

> <PUBCHEM_ISOTOPIC_ATOM_COUNT>
0

> <PUBCHEM_COMPONENT_COUNT>
1

> <PUBCHEM_CACTVS_TAUTO_COUNT>
1

> <PUBCHEM_CONFORMER_ID>
000180BB00000001

> <PUBCHEM_MMFF94_ENERGY>
53

> <PUBCHEM_FEATURE_SELFOVERLAP>
10.149

> <PUBCHEM_SHAPE_FINGERPRINT>
11543360 7 15841545271401567254
11578080 2 17846513542515005156
12251169 10 15646775591234418739
12363563 72 18411980286430460410
12507560 40 14562803404301498210
12553582 1 18337659897446842694
12644460 14 18190169088572996233
12707595 3 18343023280728073011
12892183 10 15719664471839731751
13296908 3 18410863169610522741
13533116 47 18264767650347110971
13544592 145 17988926622572053395
13583140 156 15285648758076138387
13675066 3 17386002854518240495
13955234 65 18119808006580169433
14178342 30 17750782419511235867
14252887 29 18334863787979998554
14341114 176 15357692002955767374
14341114 328 14996571650581447963
15188451 53 17385733457106118007
1741750 31 9078814295860475604
1813 80 18188197780256933468
18186145 218 16630237073913163632
18222031 100 18186516605249883566
19050596 39 15574723469027238311
19784866 240 18410571786671923847
19784866 34 10087639303609214455
200 152 17917425471221716010
20361792 2 18409168817949887317
20369508 70 18272660004333888323
20388580 30 18411978035772781796
20559304 39 17241036596781303009
20645477 56 9150586042755885186
20645477 70 18268434538483638615
20671657 53 18412543206324560873
20832881 197 18343580755273360561
20871999 31 16128658569983957767
21065199 12 15647047209277295147
21296965 67 18411140250851604809
21713013 43 17060334102692471907
21731228 192 6627458614691353596
22112679 90 18194095607915675096
2255824 54 18263639572021339604
22646028 28 18410011048172992271
23175994 123 18342457066726133261
23402539 116 18340204215083368774
23402655 69 14405188399511876246
23557571 272 18117845632202412948
23559900 14 17060055887458327837
3082319 5 15770057250119623335
312423 11 18337659829286691185
3286 77 18271811181584053087
4028521 119 12823296801536848663
42 15 17095519587351718375
465052 167 18338789014928197071
6049 1 17988935422838964173
7364860 26 18264205799093193680
7970288 3 18410572915779577830
81228 2 18120657104355916104
81539 233 17983014444969698444
83771 10 18333448763664738690

> <PUBCHEM_SHAPE_MULTIPOLES>
355.46
9.12
2.38
1.3
3.21
2.53
0
-8.36
0.05
-1.76
0
0.07
-0.19
0

> <PUBCHEM_SHAPE_SELFOVERLAP>
738.653

> <PUBCHEM_SHAPE_VOLUME>
194.4

> <PUBCHEM_COORDINATE_TYPE>
2
5
10

$$$$

