13559439
  -OEChem-07051212582D

 54 55  0     1  0  0  0  0  0999 V2000
    2.8658    1.3457    0.0000 O   0  0  0  0  0  0  0  0  0  0  0  0
    5.2409   -0.4207    0.0000 O   0  0  0  0  0  0  0  0  0  0  0  0
    7.1962    0.8452    0.0000 O   0  0  0  0  0  0  0  0  0  0  0  0
    4.1329   -2.0033    0.0000 O   0  0  0  0  0  0  0  0  0  0  0  0
    8.0622   -0.6548    0.0000 O   0  0  0  0  0  0  0  0  0  0  0  0
    2.8660    0.3452    0.0000 C   0  0  2  0  0  0  0  0  0  0  0  0
    3.7320    0.8452    0.0000 C   0  0  2  0  0  0  0  0  0  0  0  0
    4.5981    0.3452    0.0000 C   0  0  1  0  0  0  0  0  0  0  0  0
    5.4641    0.8452    0.0000 C   0  0  1  0  0  0  0  0  0  0  0  0
    2.8660   -0.6548    0.0000 C   0  0  0  0  0  0  0  0  0  0  0  0
    2.0000   -0.1548    0.0000 C   0  0  0  0  0  0  0  0  0  0  0  0
    6.3301    0.3452    0.0000 C   0  0  2  0  0  0  0  0  0  0  0  0
    5.4641    1.8452    0.0000 C   0  0  0  0  0  0  0  0  0  0  0  0
    3.7320   -1.1548    0.0000 C   0  0  0  0  0  0  0  0  0  0  0  0
    6.3301   -0.6548    0.0000 C   0  0  0  0  0  0  0  0  0  0  0  0
    6.3301    2.3452    0.0000 C   0  0  0  0  0  0  0  0  0  0  0  0
    4.5981    2.3452    0.0000 C   0  0  0  0  0  0  0  0  0  0  0  0
    4.5981   -0.6548    0.0000 C   0  0  0  0  0  0  0  0  0  0  0  0
    5.4641   -1.1548    0.0000 C   0  0  0  0  0  0  0  0  0  0  0  0
    4.8990   -1.3605    0.0000 C   0  0  0  0  0  0  0  0  0  0  0  0
    5.9642   -2.0207    0.0000 C   0  0  0  0  0  0  0  0  0  0  0  0
    8.0622    0.3452    0.0000 C   0  0  0  0  0  0  0  0  0  0  0  0
    5.0727   -2.3452    0.0000 C   0  0  0  0  0  0  0  0  0  0  0  0
    8.9282    0.8452    0.0000 C   0  0  0  0  0  0  0  0  0  0  0  0
    4.1572    1.5813    0.0000 H   0  0  0  0  0  0  0  0  0  0  0  0
    4.1996   -0.1297    0.0000 H   0  0  0  0  0  0  0  0  0  0  0  0
    6.0010    1.1552    0.0000 H   0  0  0  0  0  0  0  0  0  0  0  0
    2.2554   -0.5471    0.0000 H   0  0  0  0  0  0  0  0  0  0  0  0
    2.6540   -1.2374    0.0000 H   0  0  0  0  0  0  0  0  0  0  0  0
    1.6900    0.3822    0.0000 H   0  0  0  0  0  0  0  0  0  0  0  0
    1.4631   -0.4648    0.0000 H   0  0  0  0  0  0  0  0  0  0  0  0
    2.3100   -0.6917    0.0000 H   0  0  0  0  0  0  0  0  0  0  0  0
    6.8671    0.0352    0.0000 H   0  0  0  0  0  0  0  0  0  0  0  0
    5.4641    2.4652    0.0000 H   0  0  0  0  0  0  0  0  0  0  0  0
    3.3335   -1.6297    0.0000 H   0  0  0  0  0  0  0  0  0  0  0  0
    4.1306   -1.6297    0.0000 H   0  0  0  0  0  0  0  0  0  0  0  0
    6.5422   -1.2374    0.0000 H   0  0  0  0  0  0  0  0  0  0  0  0
    6.9407   -0.5471    0.0000 H   0  0  0  0  0  0  0  0  0  0  0  0
    4.9081    2.8822    0.0000 H   0  0  0  0  0  0  0  0  0  0  0  0
    4.0611    2.6552    0.0000 H   0  0  0  0  0  0  0  0  0  0  0  0
    4.2881    1.8083    0.0000 H   0  0  0  0  0  0  0  0  0  0  0  0
    6.6401    1.8083    0.0000 H   0  0  0  0  0  0  0  0  0  0  0  0
    6.8671    2.6552    0.0000 H   0  0  0  0  0  0  0  0  0  0  0  0
    6.0201    2.8822    0.0000 H   0  0  0  0  0  0  0  0  0  0  0  0
    4.1996   -0.1798    0.0000 H   0  0  0  0  0  0  0  0  0  0  0  0
    5.4273   -2.3308    0.0000 H   0  0  0  0  0  0  0  0  0  0  0  0
    6.2742   -2.5576    0.0000 H   0  0  0  0  0  0  0  0  0  0  0  0
    6.5011   -1.7107    0.0000 H   0  0  0  0  0  0  0  0  0  0  0  0
    4.4621   -2.4529    0.0000 H   0  0  0  0  0  0  0  0  0  0  0  0
    5.1804   -2.9558    0.0000 H   0  0  0  0  0  0  0  0  0  0  0  0
    5.6832   -2.2375    0.0000 H   0  0  0  0  0  0  0  0  0  0  0  0
    9.2382    0.3083    0.0000 H   0  0  0  0  0  0  0  0  0  0  0  0
    9.4651    1.1552    0.0000 H   0  0  0  0  0  0  0  0  0  0  0  0
    8.6182    1.3822    0.0000 H   0  0  0  0  0  0  0  0  0  0  0  0
  1  6  1  0  0  0  0
  1  7  1  0  0  0  0
  8  2  1  1  0  0  0
  2 20  1  0  0  0  0
 12  3  1  1  0  0  0
  3 22  1  0  0  0  0
  4 20  2  0  0  0  0
  5 22  2  0  0  0  0
  6  7  1  0  0  0  0
  6 10  1  0  0  0  0
  6 11  1  1  0  0  0
  7  8  1  0  0  0  0
  7 25  1  6  0  0  0
  8  9  1  0  0  0  0
  8 26  1  0  0  0  0
  9 12  1  0  0  0  0
  9 13  1  6  0  0  0
  9 27  1  0  0  0  0
 10 14  1  0  0  0  0
 10 28  1  0  0  0  0
 10 29  1  0  0  0  0
 11 30  1  0  0  0  0
 11 31  1  0  0  0  0
 11 32  1  0  0  0  0
 12 15  1  0  0  0  0
 12 33  1  0  0  0  0
 13 16  1  0  0  0  0
 13 17  1  0  0  0  0
 13 34  1  0  0  0  0
 14 18  1  0  0  0  0
 14 35  1  0  0  0  0
 14 36  1  0  0  0  0
 15 19  1  0  0  0  0
 15 37  1  0  0  0  0
 15 38  1  0  0  0  0
 16 42  1  0  0  0  0
 16 43  1  0  0  0  0
 16 44  1  0  0  0  0
 17 39  1  0  0  0  0
 17 40  1  0  0  0  0
 17 41  1  0  0  0  0
 18 19  2  0  0  0  0
 18 45  1  0  0  0  0
 19 21  1  0  0  0  0
 20 23  1  0  0  0  0
 21 46  1  0  0  0  0
 21 47  1  0  0  0  0
 21 48  1  0  0  0  0
 22 24  1  0  0  0  0
 23 49  1  0  0  0  0
 23 50  1  0  0  0  0
 23 51  1  0  0  0  0
 24 52  1  0  0  0  0
 24 53  1  0  0  0  0
 24 54  1  0  0  0  0
M  END
> <PUBCHEM_COMPOUND_CID>
13559439

> <PUBCHEM_COMPOUND_CANONICALIZED>
1

> <PUBCHEM_CACTVS_COMPLEXITY>
524

> <PUBCHEM_CACTVS_HBOND_ACCEPTOR>
5

> <PUBCHEM_CACTVS_HBOND_DONOR>
0

> <PUBCHEM_CACTVS_ROTATABLE_BOND>
5

> <PUBCHEM_CACTVS_SUBSKEYS>
AAADceB4OAAAAAAAAAAAAAAAEgAAAAAAAAAAAAAAAAAAAACAAAAAGgAAAAAADVSggAICCAAABACIAiDSCAAAAAAgAAAACAAAAAgBAAIAAQACAAAFwAAKAAPA4PwOgAAAAAAAAAAAAAAAAAAAAAAAAAAAAA==

> <PUBCHEM_IUPAC_OPENEYE_NAME>
[(1S,2R,3R,4S,6E,10S)-2-acetoxy-3-isopropyl-6,10-dimethyl-11-oxabicyclo[8.1.0]undec-6-en-4-yl] acetate

> <PUBCHEM_IUPAC_CAS_NAME>
acetic acid [(1S,2R,3R,4S,6E,10S)-2-acetyloxy-6,10-dimethyl-3-propan-2-yl-11-oxabicyclo[8.1.0]undec-6-en-4-yl] ester

> <PUBCHEM_IUPAC_NAME>
[(1S,2R,3R,4S,6E,10S)-2-acetyloxy-6,10-dimethyl-3-propan-2-yl-11-oxabicyclo[8.1.0]undec-6-en-4-yl] acetate

> <PUBCHEM_IUPAC_SYSTEMATIC_NAME>
[(1S,2R,3R,4S,6E,10S)-2-acetyloxy-6,10-dimethyl-3-propan-2-yl-11-oxabicyclo[8.1.0]undec-6-en-4-yl] ethanoate

> <PUBCHEM_IUPAC_TRADITIONAL_NAME>
acetic acid [(1S,2R,3R,4S,6E,10S)-2-acetoxy-3-isopropyl-6,10-dimethyl-11-oxabicyclo[8.1.0]undec-6-en-4-yl] ester

> <PUBCHEM_IUPAC_INCHI>
InChI=1S/C19H30O5/c1-11(2)16-15(22-13(4)20)10-12(3)8-7-9-19(6)18(24-19)17(16)23-14(5)21/h8,11,15-18H,7,9-10H2,1-6H3/b12-8+/t15-,16+,17+,18-,19-/m0/s1

> <PUBCHEM_IUPAC_INCHIKEY>
DRGFRBPYLMWXJS-RUQCQGRMSA-N

> <PUBCHEM_XLOGP3_AA>
3.1

> <PUBCHEM_EXACT_MASS>
338.209324

> <PUBCHEM_MOLECULAR_FORMULA>
C19H30O5

> <PUBCHEM_MOLECULAR_WEIGHT>
338.4385

> <PUBCHEM_OPENEYE_CAN_SMILES>
CC1=CCCC2(C(O2)C(C(C(C1)OC(=O)C)C(C)C)OC(=O)C)C

> <PUBCHEM_OPENEYE_ISO_SMILES>
C/C/1=C\CC[C@]2([C@@H](O2)[C@@H]([C@@H]([C@H](C1)OC(=O)C)C(C)C)OC(=O)C)C

> <PUBCHEM_CACTVS_TPSA>
65.1

> <PUBCHEM_MONOISOTOPIC_WEIGHT>
338.209324

> <PUBCHEM_TOTAL_CHARGE>
0

> <PUBCHEM_HEAVY_ATOM_COUNT>
24

> <PUBCHEM_ATOM_DEF_STEREO_COUNT>
5

> <PUBCHEM_ATOM_UDEF_STEREO_COUNT>
0

> <PUBCHEM_BOND_DEF_STEREO_COUNT>
1

> <PUBCHEM_BOND_UDEF_STEREO_COUNT>
0

> <PUBCHEM_ISOTOPIC_ATOM_COUNT>
0

> <PUBCHEM_COMPONENT_COUNT>
1

> <PUBCHEM_CACTVS_TAUTO_COUNT>
1

> <PUBCHEM_COORDINATE_TYPE>
1
5
255

> <PUBCHEM_BONDANNOTATIONS>
8  2  5
12  3  5
6  11  5
7  25  6
9  13  6

$$$$

