854129
  -OEChem-06241222473D

 60 63  0     1  0  0  0  0  0999 V2000
   -3.9195    2.4909   -0.6261 O   0  0  0  0  0  0  0  0  0  0  0  0
   -4.9225   -1.7317    0.3217 O   0  0  0  0  0  0  0  0  0  0  0  0
    6.3184    0.4589   -0.6879 O   0  0  0  0  0  0  0  0  0  0  0  0
   -1.3043    0.7022    0.8171 C   0  0  2  0  0  0  0  0  0  0  0  0
    0.1891    0.3802    1.0495 C   0  0  1  0  0  0  0  0  0  0  0  0
   -2.1910   -0.5192    0.4819 C   0  0  1  0  0  0  0  0  0  0  0  0
    0.7237   -0.8266    0.2366 C   0  0  2  0  0  0  0  0  0  0  0  0
    2.2813   -0.8172   -0.0407 C   0  0  2  0  0  0  0  0  0  0  0  0
   -3.5150    0.2041    0.1134 C   0  0  1  0  0  0  0  0  0  0  0  0
    3.0311   -0.0720    1.1065 C   0  0  2  0  0  0  0  0  0  0  0  0
   -1.6049   -1.3589   -0.6842 C   0  0  0  0  0  0  0  0  0  0  0  0
   -0.1304   -1.0976   -1.0077 C   0  0  0  0  0  0  0  0  0  0  0  0
   -1.6441    1.7314   -0.2814 C   0  0  0  0  0  0  0  0  0  0  0  0
    1.0722    1.6165    0.9383 C   0  0  0  0  0  0  0  0  0  0  0  0
   -3.0550    1.3747   -0.7682 C   0  0  2  0  0  0  0  0  0  0  0  0
    2.4966    1.3473    1.3999 C   0  0  0  0  0  0  0  0  0  0  0  0
    2.6649   -0.1837   -1.4079 C   0  0  0  0  0  0  0  0  0  0  0  0
   -2.3956   -1.4125    1.7181 C   0  0  0  0  0  0  0  0  0  0  0  0
    4.5522   -0.0045    0.8655 C   0  0  0  0  0  0  0  0  0  0  0  0
    2.7315   -2.3096   -0.0607 C   0  0  0  0  0  0  0  0  0  0  0  0
   -4.6050   -0.6426   -0.5373 C   0  0  2  0  0  0  0  0  0  0  0  0
    4.1749   -0.0909   -1.6424 C   0  0  0  0  0  0  0  0  0  0  0  0
    4.9124    0.5925   -0.4957 C   0  0  2  0  0  0  0  0  0  0  0  0
   -5.8610    0.1685   -0.8082 C   0  0  0  0  0  0  0  0  0  0  0  0
   -1.6703    1.1451    1.7575 H   0  0  0  0  0  0  0  0  0  0  0  0
    0.2566    0.0668    2.1038 H   0  0  0  0  0  0  0  0  0  0  0  0
    0.5455   -1.6916    0.8941 H   0  0  0  0  0  0  0  0  0  0  0  0
   -3.9441    0.6128    1.0423 H   0  0  0  0  0  0  0  0  0  0  0  0
    2.8800   -0.6533    2.0281 H   0  0  0  0  0  0  0  0  0  0  0  0
   -2.1566   -1.1989   -1.6161 H   0  0  0  0  0  0  0  0  0  0  0  0
   -1.7248   -2.4280   -0.4656 H   0  0  0  0  0  0  0  0  0  0  0  0
    0.2493   -1.9661   -1.5579 H   0  0  0  0  0  0  0  0  0  0  0  0
   -0.0620   -0.2518   -1.7002 H   0  0  0  0  0  0  0  0  0  0  0  0
   -1.5804    2.7536    0.1083 H   0  0  0  0  0  0  0  0  0  0  0  0
   -0.9508    1.6679   -1.1253 H   0  0  0  0  0  0  0  0  0  0  0  0
    0.6584    2.4350    1.5407 H   0  0  0  0  0  0  0  0  0  0  0  0
    1.0908    1.9833   -0.0928 H   0  0  0  0  0  0  0  0  0  0  0  0
   -3.0274    1.1028   -1.8291 H   0  0  0  0  0  0  0  0  0  0  0  0
    3.1391    2.1264    0.9757 H   0  0  0  0  0  0  0  0  0  0  0  0
    2.5482    1.5018    2.4865 H   0  0  0  0  0  0  0  0  0  0  0  0
    2.2430    0.8220   -1.4973 H   0  0  0  0  0  0  0  0  0  0  0  0
    2.2380   -0.7664   -2.2332 H   0  0  0  0  0  0  0  0  0  0  0  0
   -1.4367   -1.7336    2.1376 H   0  0  0  0  0  0  0  0  0  0  0  0
   -2.9305   -0.8822    2.5138 H   0  0  0  0  0  0  0  0  0  0  0  0
   -2.9502   -2.3266    1.4900 H   0  0  0  0  0  0  0  0  0  0  0  0
    5.0365    0.5812    1.6582 H   0  0  0  0  0  0  0  0  0  0  0  0
    4.9953   -1.0040    0.9567 H   0  0  0  0  0  0  0  0  0  0  0  0
    2.2143   -2.8712   -0.8458 H   0  0  0  0  0  0  0  0  0  0  0  0
    3.8027   -2.4332   -0.2382 H   0  0  0  0  0  0  0  0  0  0  0  0
    2.5119   -2.7984    0.8957 H   0  0  0  0  0  0  0  0  0  0  0  0
   -4.2657   -1.0692   -1.4859 H   0  0  0  0  0  0  0  0  0  0  0  0
    4.5980   -1.0876   -1.8167 H   0  0  0  0  0  0  0  0  0  0  0  0
    4.3654    0.4579   -2.5736 H   0  0  0  0  0  0  0  0  0  0  0  0
    4.6885    1.6645   -0.5061 H   0  0  0  0  0  0  0  0  0  0  0  0
   -3.9282    2.7499    0.3110 H   0  0  0  0  0  0  0  0  0  0  0  0
   -5.7052    0.9261   -1.5808 H   0  0  0  0  0  0  0  0  0  0  0  0
   -6.6715   -0.4869   -1.1470 H   0  0  0  0  0  0  0  0  0  0  0  0
   -6.2217    0.6572    0.1036 H   0  0  0  0  0  0  0  0  0  0  0  0
   -5.5983   -2.2714   -0.1226 H   0  0  0  0  0  0  0  0  0  0  0  0
    6.5339    0.8459   -1.5536 H   0  0  0  0  0  0  0  0  0  0  0  0
  1 15  1  0  0  0  0
  1 55  1  0  0  0  0
  2 21  1  0  0  0  0
  2 59  1  0  0  0  0
  3 23  1  0  0  0  0
  3 60  1  0  0  0  0
  4  5  1  0  0  0  0
  4  6  1  0  0  0  0
  4 13  1  0  0  0  0
  4 25  1  0  0  0  0
  5  7  1  0  0  0  0
  5 14  1  0  0  0  0
  5 26  1  0  0  0  0
  6  9  1  0  0  0  0
  6 11  1  0  0  0  0
  6 18  1  0  0  0  0
  7  8  1  0  0  0  0
  7 12  1  0  0  0  0
  7 27  1  0  0  0  0
  8 10  1  0  0  0  0
  8 17  1  0  0  0  0
  8 20  1  0  0  0  0
  9 15  1  0  0  0  0
  9 21  1  0  0  0  0
  9 28  1  0  0  0  0
 10 16  1  0  0  0  0
 10 19  1  0  0  0  0
 10 29  1  0  0  0  0
 11 12  1  0  0  0  0
 11 30  1  0  0  0  0
 11 31  1  0  0  0  0
 12 32  1  0  0  0  0
 12 33  1  0  0  0  0
 13 15  1  0  0  0  0
 13 34  1  0  0  0  0
 13 35  1  0  0  0  0
 14 16  1  0  0  0  0
 14 36  1  0  0  0  0
 14 37  1  0  0  0  0
 15 38  1  0  0  0  0
 16 39  1  0  0  0  0
 16 40  1  0  0  0  0
 17 22  1  0  0  0  0
 17 41  1  0  0  0  0
 17 42  1  0  0  0  0
 18 43  1  0  0  0  0
 18 44  1  0  0  0  0
 18 45  1  0  0  0  0
 19 23  1  0  0  0  0
 19 46  1  0  0  0  0
 19 47  1  0  0  0  0
 20 48  1  0  0  0  0
 20 49  1  0  0  0  0
 20 50  1  0  0  0  0
 21 24  1  0  0  0  0
 21 51  1  0  0  0  0
 22 23  1  0  0  0  0
 22 52  1  0  0  0  0
 22 53  1  0  0  0  0
 23 54  1  0  0  0  0
 24 56  1  0  0  0  0
 24 57  1  0  0  0  0
 24 58  1  0  0  0  0
M  END
> <PUBCHEM_COMPOUND_CID>
854129

> <PUBCHEM_CONFORMER_RMSD>
0.6

> <PUBCHEM_CONFORMER_DIVERSEORDER>
1
6
12
13
2
7
4
11
5
10
8
3
9

> <PUBCHEM_MMFF94_PARTIAL_CHARGES>
9
1 -0.68
15 0.28
2 -0.68
21 0.28
23 0.28
3 -0.68
55 0.4
59 0.4
60 0.4

> <PUBCHEM_EFFECTIVE_ROTOR_COUNT>
3.2

> <PUBCHEM_PHARMACOPHORE_FEATURES>
10
1 1 acceptor
1 1 donor
1 2 acceptor
1 2 donor
1 3 acceptor
1 3 donor
5 4 6 9 13 15 rings
6 4 5 6 7 11 12 rings
6 5 7 8 10 14 16 rings
6 8 10 17 19 22 23 rings

> <PUBCHEM_HEAVY_ATOM_COUNT>
24

> <PUBCHEM_ATOM_DEF_STEREO_COUNT>
10

> <PUBCHEM_ATOM_UDEF_STEREO_COUNT>
0

> <PUBCHEM_BOND_DEF_STEREO_COUNT>
0

> <PUBCHEM_BOND_UDEF_STEREO_COUNT>
0

> <PUBCHEM_ISOTOPIC_ATOM_COUNT>
0

> <PUBCHEM_COMPONENT_COUNT>
1

> <PUBCHEM_CACTVS_TAUTO_COUNT>
1

> <PUBCHEM_CONFORMER_ID>
000D087100000001

> <PUBCHEM_MMFF94_ENERGY>
100.697

> <PUBCHEM_FEATURE_SELFOVERLAP>
51.012

> <PUBCHEM_SHAPE_FINGERPRINT>
10366900 7 18412261714046525699
10498660 4 18410009983189992508
11089746 13 15554450677871022398
11370993 70 17847057800628004082
11963148 33 18339931402703565619
12011746 2 18260267442820452207
12107183 9 17197437915402313904
12236239 1 16558756715095488665
12403259 415 18114189622342183969
12553582 1 16443072724254733474
12596602 18 16200426966662497249
12670546 56 16988570129761500140
12788726 201 18201443609722003769
128620 24 18408882940795053166
13224815 77 18333447668363747258
13464513 79 17675925378864522528
13533116 47 18059868301763929386
13583140 156 18410573959461256218
14386348 63 17894628145602148996
15196674 1 18335424628888238323
15635459 17 17894628167092946270
15788980 27 17988640817988519130
15848702 151 16298656261482125220
16945 1 17967249819180583258
17349148 13 17989211429884119007
17357779 13 17603587464932784472
17980427 23 17988918994578280597
1813 80 15574979672748929336
18186145 218 17749112213898171625
19489759 90 18202001031746033455
200 152 15647053771971103040
20511986 3 16916517960050911270
20645477 70 17603307033738413856
20871999 31 18341894108309663721
21033648 29 18113629983660764000
21033650 10 18055894710049294868
21267235 1 17894624816686249819
221357 26 17894915139279915401
22182313 1 18114758078327627585
22393880 68 18113625589998565910
23402539 116 17988650683665749375
23557571 272 18410572894282856316
23559900 14 18271808986518258505
23569914 152 16378598694032436741
296302 2 17918273168647700800
34797466 226 18339067221202226044
350125 39 18334575742020167201
3633792 109 16558206989594720155
46194498 28 18186801336023385772
474 4 15769483249779780772
5104073 3 18263649613823754923
542803 24 17989210343109647946
9709674 26 18412544340280492131

> <PUBCHEM_SHAPE_MULTIPOLES>
476.3
11.44
1.88
1.4
0.18
0.13
0.07
0.35
-3.1
-0.93
0.05
0.56
-0.01
0.89

> <PUBCHEM_SHAPE_SELFOVERLAP>
1003.648

> <PUBCHEM_SHAPE_VOLUME>
265.9

> <PUBCHEM_COORDINATE_TYPE>
2
5
10

$$$$

