54675766
  -OEChem-07051212492D

 20 19  0     0  0  0  0  0  0999 V2000
    6.3301    0.0429    0.0000 O   0  0  0  0  0  0  0  0  0  0  0  0
    2.4052   -1.5705    0.0000 O   0  0  0  0  0  0  0  0  0  0  0  0
    4.0328   -2.1629    0.0000 O   0  0  0  0  0  0  0  0  0  0  0  0
    6.7909   -1.5705    0.0000 O   0  0  0  0  0  0  0  0  0  0  0  0
    2.0000    1.5429    0.0000 O   0  0  0  0  0  0  0  0  0  0  0  0
    5.1634   -2.1629    0.0000 O   0  0  0  0  0  0  0  0  0  0  0  0
    3.7320    1.5429    0.0000 O   0  0  0  0  0  0  0  0  0  0  0  0
    3.7320   -0.4571    0.0000 C   0  0  0  0  0  0  0  0  0  0  0  0
    4.5981    0.0429    0.0000 C   0  0  0  0  0  0  0  0  0  0  0  0
    2.8660    0.0429    0.0000 C   0  0  0  0  0  0  0  0  0  0  0  0
    5.4641   -0.4571    0.0000 C   0  0  0  0  0  0  0  0  0  0  0  0
    3.3901   -1.3969    0.0000 C   0  0  0  0  0  0  0  0  0  0  0  0
    5.8062   -1.3968    0.0000 C   0  0  0  0  0  0  0  0  0  0  0  0
    2.8660    1.0429    0.0000 C   0  0  0  0  0  0  0  0  0  0  0  0
    4.5981    0.6629    0.0000 H   0  0  0  0  0  0  0  0  0  0  0  0
    2.3291   -0.2671    0.0000 H   0  0  0  0  0  0  0  0  0  0  0  0
    6.8671   -0.2671    0.0000 H   0  0  0  0  0  0  0  0  0  0  0  0
    2.1932   -2.1531    0.0000 H   0  0  0  0  0  0  0  0  0  0  0  0
    7.0030   -2.1531    0.0000 H   0  0  0  0  0  0  0  0  0  0  0  0
    2.0000    2.1629    0.0000 H   0  0  0  0  0  0  0  0  0  0  0  0
  1 11  1  0  0  0  0
  1 17  1  0  0  0  0
  2 12  1  0  0  0  0
  2 18  1  0  0  0  0
  3 12  2  0  0  0  0
  4 13  1  0  0  0  0
  4 19  1  0  0  0  0
  5 14  1  0  0  0  0
  5 20  1  0  0  0  0
  6 13  2  0  0  0  0
  7 14  2  0  0  0  0
  8  9  1  0  0  0  0
  8 10  2  0  0  0  0
  8 12  1  0  0  0  0
  9 11  2  0  0  0  0
  9 15  1  0  0  0  0
 10 14  1  0  0  0  0
 10 16  1  0  0  0  0
 11 13  1  0  0  0  0
M  END
> <PUBCHEM_COMPOUND_CID>
54675766

> <PUBCHEM_COMPOUND_CANONICALIZED>
1

> <PUBCHEM_CACTVS_COMPLEXITY>
336

> <PUBCHEM_CACTVS_HBOND_ACCEPTOR>
7

> <PUBCHEM_CACTVS_HBOND_DONOR>
4

> <PUBCHEM_CACTVS_ROTATABLE_BOND>
4

> <PUBCHEM_CACTVS_SUBSKEYS>
AAADcYBgOAAAAAAAAAAAAAAAAAAAAAAAAAAAAAAAAAAAAAAAAAAAGgAACAAADASAgAAACAAAAgCIAiDSCAIAAAAgIAAACAFAAEgJBAAAAQAAUAAAQAAJkYIAAAAAAAAAAAAAAAAAAAAAAAAAAAAAAAAAAA==

> <PUBCHEM_IUPAC_OPENEYE_NAME>
(1E,3E)-4-hydroxybuta-1,3-diene-1,2,4-tricarboxylic acid

> <PUBCHEM_IUPAC_CAS_NAME>
(1E,3E)-4-hydroxybuta-1,3-diene-1,2,4-tricarboxylic acid

> <PUBCHEM_IUPAC_NAME>
(1E,3E)-4-hydroxybuta-1,3-diene-1,2,4-tricarboxylic acid

> <PUBCHEM_IUPAC_SYSTEMATIC_NAME>
(1E,3E)-4-oxidanylbuta-1,3-diene-1,2,4-tricarboxylic acid

> <PUBCHEM_IUPAC_TRADITIONAL_NAME>
(1E,3E)-4-hydroxybuta-1,3-diene-1,2,4-tricarboxylic acid

> <PUBCHEM_IUPAC_INCHI>
InChI=1S/C7H6O7/c8-4(7(13)14)1-3(6(11)12)2-5(9)10/h1-2,8H,(H,9,10)(H,11,12)(H,13,14)/b3-2+,4-1+

> <PUBCHEM_IUPAC_INCHIKEY>
QWLUKZXOQAQUFQ-DXLKSGPOSA-N

> <PUBCHEM_XLOGP3_AA>
-0.6

> <PUBCHEM_EXACT_MASS>
202.011353

> <PUBCHEM_MOLECULAR_FORMULA>
C7H6O7

> <PUBCHEM_MOLECULAR_WEIGHT>
202.11834

> <PUBCHEM_OPENEYE_CAN_SMILES>
C(=C(C=C(C(=O)O)O)C(=O)O)C(=O)O

> <PUBCHEM_OPENEYE_ISO_SMILES>
C(=C(\C=C(/C(=O)O)\O)/C(=O)O)\C(=O)O

> <PUBCHEM_CACTVS_TPSA>
132

> <PUBCHEM_MONOISOTOPIC_WEIGHT>
202.011353

> <PUBCHEM_TOTAL_CHARGE>
0

> <PUBCHEM_HEAVY_ATOM_COUNT>
14

> <PUBCHEM_ATOM_DEF_STEREO_COUNT>
0

> <PUBCHEM_ATOM_UDEF_STEREO_COUNT>
0

> <PUBCHEM_BOND_DEF_STEREO_COUNT>
2

> <PUBCHEM_BOND_UDEF_STEREO_COUNT>
0

> <PUBCHEM_ISOTOPIC_ATOM_COUNT>
0

> <PUBCHEM_COMPONENT_COUNT>
1

> <PUBCHEM_CACTVS_TAUTO_COUNT>
4

> <PUBCHEM_COORDINATE_TYPE>
1
5
255

$$$$

