6023583
  -OEChem-07051213122D

 31 32  0     0  0  0  0  0  0999 V2000
    2.8660   -0.7500    0.0000 Cl  0  0  0  0  0  0  0  0  0  0  0  0
    4.5981   -3.7500    0.0000 Cl  0  0  0  0  0  0  0  0  0  0  0  0
    2.8660    0.2500    0.0000 O   0  0  0  0  0  0  0  0  0  0  0  0
    3.7320    0.7500    0.0000 N   0  0  0  0  0  0  0  0  0  0  0  0
    4.5981    3.2500    0.0000 N   0  0  0  0  0  0  0  0  0  0  0  0
    5.4641    0.7500    0.0000 C   0  0  0  0  0  0  0  0  0  0  0  0
    4.5981    0.2500    0.0000 C   0  0  0  0  0  0  0  0  0  0  0  0
    4.5981   -0.7500    0.0000 C   0  0  0  0  0  0  0  0  0  0  0  0
    5.4641    1.7500    0.0000 C   0  0  0  0  0  0  0  0  0  0  0  0
    3.7320   -1.2500    0.0000 C   0  0  0  0  0  0  0  0  0  0  0  0
    5.4641   -1.2500    0.0000 C   0  0  0  0  0  0  0  0  0  0  0  0
    6.3301    2.2500    0.0000 C   0  0  0  0  0  0  0  0  0  0  0  0
    4.5981    2.2500    0.0000 C   0  0  0  0  0  0  0  0  0  0  0  0
    3.7320   -2.2500    0.0000 C   0  0  0  0  0  0  0  0  0  0  0  0
    5.4641   -2.2500    0.0000 C   0  0  0  0  0  0  0  0  0  0  0  0
    4.5981   -2.7500    0.0000 C   0  0  0  0  0  0  0  0  0  0  0  0
    6.3301    3.2500    0.0000 C   0  0  0  0  0  0  0  0  0  0  0  0
    5.4641    3.7500    0.0000 C   0  0  0  0  0  0  0  0  0  0  0  0
    2.0000    0.7500    0.0000 C   0  0  0  0  0  0  0  0  0  0  0  0
    5.6762    0.1674    0.0000 H   0  0  0  0  0  0  0  0  0  0  0  0
    6.0747    0.8577    0.0000 H   0  0  0  0  0  0  0  0  0  0  0  0
    6.0010   -0.9400    0.0000 H   0  0  0  0  0  0  0  0  0  0  0  0
    6.8671    1.9400    0.0000 H   0  0  0  0  0  0  0  0  0  0  0  0
    4.0611    1.9400    0.0000 H   0  0  0  0  0  0  0  0  0  0  0  0
    3.1951   -2.5600    0.0000 H   0  0  0  0  0  0  0  0  0  0  0  0
    6.0010   -2.5600    0.0000 H   0  0  0  0  0  0  0  0  0  0  0  0
    6.8671    3.5600    0.0000 H   0  0  0  0  0  0  0  0  0  0  0  0
    5.4641    4.3700    0.0000 H   0  0  0  0  0  0  0  0  0  0  0  0
    2.3100    1.2869    0.0000 H   0  0  0  0  0  0  0  0  0  0  0  0
    1.4631    1.0600    0.0000 H   0  0  0  0  0  0  0  0  0  0  0  0
    1.6900    0.2131    0.0000 H   0  0  0  0  0  0  0  0  0  0  0  0
  1 10  1  0  0  0  0
  2 16  1  0  0  0  0
  3  4  1  0  0  0  0
  3 19  1  0  0  0  0
  4  7  2  0  0  0  0
  5 13  1  0  0  0  0
  5 18  2  0  0  0  0
  6  7  1  0  0  0  0
  6  9  1  0  0  0  0
  6 20  1  0  0  0  0
  6 21  1  0  0  0  0
  7  8  1  0  0  0  0
  8 10  2  0  0  0  0
  8 11  1  0  0  0  0
  9 12  1  0  0  0  0
  9 13  2  0  0  0  0
 10 14  1  0  0  0  0
 11 15  2  0  0  0  0
 11 22  1  0  0  0  0
 12 17  2  0  0  0  0
 12 23  1  0  0  0  0
 13 24  1  0  0  0  0
 14 16  2  0  0  0  0
 14 25  1  0  0  0  0
 15 16  1  0  0  0  0
 15 26  1  0  0  0  0
 17 18  1  0  0  0  0
 17 27  1  0  0  0  0
 18 28  1  0  0  0  0
 19 29  1  0  0  0  0
 19 30  1  0  0  0  0
 19 31  1  0  0  0  0
M  END
> <PUBCHEM_COMPOUND_CID>
6023583

> <PUBCHEM_COMPOUND_CANONICALIZED>
1

> <PUBCHEM_CACTVS_COMPLEXITY>
312

> <PUBCHEM_CACTVS_HBOND_ACCEPTOR>
3

> <PUBCHEM_CACTVS_HBOND_DONOR>
0

> <PUBCHEM_CACTVS_ROTATABLE_BOND>
4

> <PUBCHEM_CACTVS_SUBSKEYS>
AAADccBzIAAGAAAAAAAAAAAAAAAAAAAAAAA8QAAAAAAAAAABwAAAHgIEAAAADArBGiY+gJIYEACgAzBnRACCgCAxByAI2CA4ZpgIIOLBk5GEIAhggADIyAcQgMAOBAAAAACBAAAIAAAAAQIAAAAAAAAAAA==

> <PUBCHEM_IUPAC_OPENEYE_NAME>
1-(2,4-dichlorophenyl)-N-methoxy-2-(3-pyridyl)ethanimine

> <PUBCHEM_IUPAC_CAS_NAME>
1-(2,4-dichlorophenyl)-N-methoxy-2-(3-pyridinyl)ethanimine

> <PUBCHEM_IUPAC_NAME>
1-(2,4-dichlorophenyl)-N-methoxy-2-pyridin-3-ylethanimine

> <PUBCHEM_IUPAC_SYSTEMATIC_NAME>
1-(2,4-dichlorophenyl)-N-methoxy-2-pyridin-3-yl-ethanimine

> <PUBCHEM_IUPAC_TRADITIONAL_NAME>
(Z)-[1-(2,4-dichlorophenyl)-2-(3-pyridyl)ethylidene]-methoxy-amine

> <PUBCHEM_IUPAC_INCHI>
InChI=1S/C14H12Cl2N2O/c1-19-18-14(7-10-3-2-6-17-9-10)12-5-4-11(15)8-13(12)16/h2-6,8-9H,7H2,1H3/b18-14-

> <PUBCHEM_IUPAC_INCHIKEY>
CKPCAYZTYMHQEX-JXAWBTAJSA-N

> <PUBCHEM_XLOGP3>
2.5

> <PUBCHEM_EXACT_MASS>
294.032668

> <PUBCHEM_MOLECULAR_FORMULA>
C14H12Cl2N2O

> <PUBCHEM_MOLECULAR_WEIGHT>
295.16388

> <PUBCHEM_OPENEYE_CAN_SMILES>
CON=C(CC1=CN=CC=C1)C2=C(C=C(C=C2)Cl)Cl

> <PUBCHEM_OPENEYE_ISO_SMILES>
CO/N=C(/CC1=CN=CC=C1)\C2=C(C=C(C=C2)Cl)Cl

> <PUBCHEM_CACTVS_TPSA>
34.5

> <PUBCHEM_MONOISOTOPIC_WEIGHT>
294.032668

> <PUBCHEM_TOTAL_CHARGE>
0

> <PUBCHEM_HEAVY_ATOM_COUNT>
19

> <PUBCHEM_ATOM_DEF_STEREO_COUNT>
0

> <PUBCHEM_ATOM_UDEF_STEREO_COUNT>
0

> <PUBCHEM_BOND_DEF_STEREO_COUNT>
1

> <PUBCHEM_BOND_UDEF_STEREO_COUNT>
0

> <PUBCHEM_ISOTOPIC_ATOM_COUNT>
0

> <PUBCHEM_COMPONENT_COUNT>
1

> <PUBCHEM_CACTVS_TAUTO_COUNT>
2

> <PUBCHEM_COORDINATE_TYPE>
1
5
255

> <PUBCHEM_BONDANNOTATIONS>
10  14  8
11  15  8
12  17  8
14  16  8
15  16  8
17  18  8
5  13  8
5  18  8
8  10  8
8  11  8
9  12  8
9  13  8

$$$$

