23724613
  -OEChem-07051213082D

118119  0     1  0  0  0  0  0999 V2000
   13.3923   10.0000    0.0000 O   0  0  0  0  0  0  0  0  0  0  0  0
   12.5263    8.5000    0.0000 O   0  0  0  0  0  0  0  0  0  0  0  0
   10.7942   11.5000    0.0000 O   0  0  0  0  0  0  0  0  0  0  0  0
   12.5263   12.5000    0.0000 O   0  0  0  0  0  0  0  0  0  0  0  0
   10.7942    9.5000    0.0000 O   0  0  0  0  0  0  0  0  0  0  0  0
    3.8660  -12.5000    0.0000 O   0  0  0  0  0  0  0  0  0  0  0  0
    5.5981  -11.5000    0.0000 O   0  0  0  0  0  0  0  0  0  0  0  0
   15.1244    9.0000    0.0000 O   0  0  0  0  0  0  0  0  0  0  0  0
    3.0000  -10.0000    0.0000 C   0  0  0  0  0  0  0  0  0  0  0  0
    3.0000  -11.0000    0.0000 C   0  0  0  0  0  0  0  0  0  0  0  0
   11.6603   11.0000    0.0000 C   0  0  2  0  0  0  0  0  0  0  0  0
   12.5263   11.5000    0.0000 C   0  0  1  0  0  0  0  0  0  0  0  0
   11.6603   10.0000    0.0000 C   0  0  1  0  0  0  0  0  0  0  0  0
   13.3923   11.0000    0.0000 C   0  0  2  0  0  0  0  0  0  0  0  0
   12.5263    9.5000    0.0000 C   0  0  1  0  0  0  0  0  0  0  0  0
    3.8660   -9.5000    0.0000 C   0  0  0  0  0  0  0  0  0  0  0  0
    3.8660  -11.5000    0.0000 C   0  0  1  0  0  0  0  0  0  0  0  0
    2.0000  -10.0000    0.0000 C   0  0  0  0  0  0  0  0  0  0  0  0
    2.5000   -9.1340    0.0000 C   0  0  0  0  0  0  0  0  0  0  0  0
    4.7320  -10.0000    0.0000 C   0  0  0  0  0  0  0  0  0  0  0  0
    4.7320  -11.0000    0.0000 C   0  0  0  0  0  0  0  0  0  0  0  0
   13.3923    8.0000    0.0000 C   0  0  2  0  0  0  0  0  0  0  0  0
   14.2583   11.5000    0.0000 C   0  0  0  0  0  0  0  0  0  0  0  0
   14.2583    8.5000    0.0000 C   0  0  0  0  0  0  0  0  0  0  0  0
    3.8660   -8.5000    0.0000 C   0  0  0  0  0  0  0  0  0  0  0  0
    5.5981   -9.5000    0.0000 C   0  0  0  0  0  0  0  0  0  0  0  0
   13.3923    7.0000    0.0000 C   0  0  0  0  0  0  0  0  0  0  0  0
   14.7583    7.6340    0.0000 C   0  0  0  0  0  0  0  0  0  0  0  0
   13.7583    9.3660    0.0000 C   0  0  0  0  0  0  0  0  0  0  0  0
    4.7320   -8.0000    0.0000 C   0  0  0  0  0  0  0  0  0  0  0  0
   12.5263    6.5000    0.0000 C   0  0  0  0  0  0  0  0  0  0  0  0
    4.7320   -7.0000    0.0000 C   0  0  0  0  0  0  0  0  0  0  0  0
   12.5263    5.5000    0.0000 C   0  0  0  0  0  0  0  0  0  0  0  0
    3.8660   -6.5000    0.0000 C   0  0  0  0  0  0  0  0  0  0  0  0
    5.5981   -6.5000    0.0000 C   0  0  0  0  0  0  0  0  0  0  0  0
   13.3923    5.0000    0.0000 C   0  0  0  0  0  0  0  0  0  0  0  0
   11.6603    5.0000    0.0000 C   0  0  0  0  0  0  0  0  0  0  0  0
    5.5981   -5.5000    0.0000 C   0  0  0  0  0  0  0  0  0  0  0  0
   11.6603    4.0000    0.0000 C   0  0  0  0  0  0  0  0  0  0  0  0
    6.4641   -5.0000    0.0000 C   0  0  0  0  0  0  0  0  0  0  0  0
   10.7942    3.5000    0.0000 C   0  0  0  0  0  0  0  0  0  0  0  0
    6.4641   -4.0000    0.0000 C   0  0  0  0  0  0  0  0  0  0  0  0
   10.7942    2.5000    0.0000 C   0  0  0  0  0  0  0  0  0  0  0  0
    5.5981   -3.5000    0.0000 C   0  0  0  0  0  0  0  0  0  0  0  0
    7.3301   -3.5000    0.0000 C   0  0  0  0  0  0  0  0  0  0  0  0
   11.6603    2.0000    0.0000 C   0  0  0  0  0  0  0  0  0  0  0  0
    9.9282    2.0000    0.0000 C   0  0  0  0  0  0  0  0  0  0  0  0
    7.3301   -2.5000    0.0000 C   0  0  0  0  0  0  0  0  0  0  0  0
    9.9282    1.0000    0.0000 C   0  0  0  0  0  0  0  0  0  0  0  0
    8.1962   -2.0000    0.0000 C   0  0  0  0  0  0  0  0  0  0  0  0
    9.0622    0.5000    0.0000 C   0  0  0  0  0  0  0  0  0  0  0  0
    9.0622   -0.5000    0.0000 C   0  0  0  0  0  0  0  0  0  0  0  0
    8.1962   -1.0000    0.0000 C   0  0  0  0  0  0  0  0  0  0  0  0
    9.9282   -1.0000    0.0000 C   0  0  0  0  0  0  0  0  0  0  0  0
    2.3894  -10.8923    0.0000 H   0  0  0  0  0  0  0  0  0  0  0  0
    2.7880  -11.5826    0.0000 H   0  0  0  0  0  0  0  0  0  0  0  0
   11.6603   11.6200    0.0000 H   0  0  0  0  0  0  0  0  0  0  0  0
   13.0632   11.8100    0.0000 H   0  0  0  0  0  0  0  0  0  0  0  0
   11.6603    9.3800    0.0000 H   0  0  0  0  0  0  0  0  0  0  0  0
   13.9292   10.6900    0.0000 H   0  0  0  0  0  0  0  0  0  0  0  0
   11.9893    9.1900    0.0000 H   0  0  0  0  0  0  0  0  0  0  0  0
    4.4030  -11.8100    0.0000 H   0  0  0  0  0  0  0  0  0  0  0  0
    3.0369   -8.8240    0.0000 H   0  0  0  0  0  0  0  0  0  0  0  0
    2.1900   -8.5970    0.0000 H   0  0  0  0  0  0  0  0  0  0  0  0
    1.9631   -9.4440    0.0000 H   0  0  0  0  0  0  0  0  0  0  0  0
    2.0000   -9.3800    0.0000 H   0  0  0  0  0  0  0  0  0  0  0  0
    1.3800  -10.0000    0.0000 H   0  0  0  0  0  0  0  0  0  0  0  0
    2.0000  -10.6200    0.0000 H   0  0  0  0  0  0  0  0  0  0  0  0
   12.8554    7.6900    0.0000 H   0  0  0  0  0  0  0  0  0  0  0  0
   14.5683   10.9631    0.0000 H   0  0  0  0  0  0  0  0  0  0  0  0
   14.7953   11.8100    0.0000 H   0  0  0  0  0  0  0  0  0  0  0  0
   13.9483   12.0369    0.0000 H   0  0  0  0  0  0  0  0  0  0  0  0
    3.3291   -8.1900    0.0000 H   0  0  0  0  0  0  0  0  0  0  0  0
    5.9081  -10.0369    0.0000 H   0  0  0  0  0  0  0  0  0  0  0  0
    6.1350   -9.1900    0.0000 H   0  0  0  0  0  0  0  0  0  0  0  0
    5.2881   -8.9631    0.0000 H   0  0  0  0  0  0  0  0  0  0  0  0
   10.7942   12.1200    0.0000 H   0  0  0  0  0  0  0  0  0  0  0  0
   13.0632   12.8100    0.0000 H   0  0  0  0  0  0  0  0  0  0  0  0
   10.2573    9.8100    0.0000 H   0  0  0  0  0  0  0  0  0  0  0  0
    3.3291  -12.8100    0.0000 H   0  0  0  0  0  0  0  0  0  0  0  0
   13.9292    6.6900    0.0000 H   0  0  0  0  0  0  0  0  0  0  0  0
   14.2953    9.6760    0.0000 H   0  0  0  0  0  0  0  0  0  0  0  0
   13.4483    9.9030    0.0000 H   0  0  0  0  0  0  0  0  0  0  0  0
   13.2214    9.0560    0.0000 H   0  0  0  0  0  0  0  0  0  0  0  0
   14.2214    7.3240    0.0000 H   0  0  0  0  0  0  0  0  0  0  0  0
   15.0683    7.0970    0.0000 H   0  0  0  0  0  0  0  0  0  0  0  0
   15.2953    7.9440    0.0000 H   0  0  0  0  0  0  0  0  0  0  0  0
    5.2690   -8.3100    0.0000 H   0  0  0  0  0  0  0  0  0  0  0  0
   15.6613    8.6900    0.0000 H   0  0  0  0  0  0  0  0  0  0  0  0
   11.9893    6.8100    0.0000 H   0  0  0  0  0  0  0  0  0  0  0  0
    4.1760   -5.9631    0.0000 H   0  0  0  0  0  0  0  0  0  0  0  0
    3.3291   -6.1900    0.0000 H   0  0  0  0  0  0  0  0  0  0  0  0
    3.5560   -7.0369    0.0000 H   0  0  0  0  0  0  0  0  0  0  0  0
    6.1350   -6.8100    0.0000 H   0  0  0  0  0  0  0  0  0  0  0  0
   13.0823    4.4631    0.0000 H   0  0  0  0  0  0  0  0  0  0  0  0
   13.9292    4.6900    0.0000 H   0  0  0  0  0  0  0  0  0  0  0  0
   13.7023    5.5369    0.0000 H   0  0  0  0  0  0  0  0  0  0  0  0
   11.1233    5.3100    0.0000 H   0  0  0  0  0  0  0  0  0  0  0  0
    5.0611   -5.1900    0.0000 H   0  0  0  0  0  0  0  0  0  0  0  0
   12.1972    3.6900    0.0000 H   0  0  0  0  0  0  0  0  0  0  0  0
    7.0010   -5.3100    0.0000 H   0  0  0  0  0  0  0  0  0  0  0  0
   10.2573    3.8100    0.0000 H   0  0  0  0  0  0  0  0  0  0  0  0
    5.9081   -2.9631    0.0000 H   0  0  0  0  0  0  0  0  0  0  0  0
    5.0611   -3.1900    0.0000 H   0  0  0  0  0  0  0  0  0  0  0  0
    5.2881   -4.0369    0.0000 H   0  0  0  0  0  0  0  0  0  0  0  0
    7.8671   -3.8100    0.0000 H   0  0  0  0  0  0  0  0  0  0  0  0
   11.3503    1.4631    0.0000 H   0  0  0  0  0  0  0  0  0  0  0  0
   12.1972    1.6900    0.0000 H   0  0  0  0  0  0  0  0  0  0  0  0
   11.9703    2.5369    0.0000 H   0  0  0  0  0  0  0  0  0  0  0  0
    9.3913    2.3100    0.0000 H   0  0  0  0  0  0  0  0  0  0  0  0
    6.7932   -2.1900    0.0000 H   0  0  0  0  0  0  0  0  0  0  0  0
   10.4651    0.6900    0.0000 H   0  0  0  0  0  0  0  0  0  0  0  0
    8.7331   -2.3100    0.0000 H   0  0  0  0  0  0  0  0  0  0  0  0
    8.5252    0.8100    0.0000 H   0  0  0  0  0  0  0  0  0  0  0  0
    7.6592   -0.6900    0.0000 H   0  0  0  0  0  0  0  0  0  0  0  0
    9.6182   -1.5369    0.0000 H   0  0  0  0  0  0  0  0  0  0  0  0
   10.4651   -1.3100    0.0000 H   0  0  0  0  0  0  0  0  0  0  0  0
   10.2382   -0.4631    0.0000 H   0  0  0  0  0  0  0  0  0  0  0  0
  1 14  1  0  0  0  0
  1 15  1  0  0  0  0
 15  2  1  1  0  0  0
 22  2  1  6  0  0  0
 11  3  1  6  0  0  0
  3 77  1  0  0  0  0
 12  4  1  6  0  0  0
  4 78  1  0  0  0  0
 13  5  1  1  0  0  0
  5 79  1  0  0  0  0
 17  6  1  1  0  0  0
  6 80  1  0  0  0  0
  7 21  2  0  0  0  0
  8 24  1  0  0  0  0
  8 89  1  0  0  0  0
  9 10  1  0  0  0  0
  9 16  1  0  0  0  0
  9 18  1  0  0  0  0
  9 19  1  0  0  0  0
 10 17  1  0  0  0  0
 10 55  1  0  0  0  0
 10 56  1  0  0  0  0
 11 12  1  0  0  0  0
 11 13  1  0  0  0  0
 11 57  1  0  0  0  0
 12 14  1  0  0  0  0
 12 58  1  0  0  0  0
 13 15  1  0  0  0  0
 13 59  1  0  0  0  0
 14 23  1  6  0  0  0
 14 60  1  0  0  0  0
 15 61  1  0  0  0  0
 16 20  2  0  0  0  0
 16 25  1  0  0  0  0
 17 21  1  0  0  0  0
 17 62  1  0  0  0  0
 18 66  1  0  0  0  0
 18 67  1  0  0  0  0
 18 68  1  0  0  0  0
 19 63  1  0  0  0  0
 19 64  1  0  0  0  0
 19 65  1  0  0  0  0
 20 21  1  0  0  0  0
 20 26  1  0  0  0  0
 22 24  1  0  0  0  0
 22 27  1  0  0  0  0
 22 69  1  0  0  0  0
 23 70  1  0  0  0  0
 23 71  1  0  0  0  0
 23 72  1  0  0  0  0
 24 28  1  0  0  0  0
 24 29  1  0  0  0  0
 25 30  2  0  0  0  0
 25 73  1  0  0  0  0
 26 74  1  0  0  0  0
 26 75  1  0  0  0  0
 26 76  1  0  0  0  0
 27 31  2  0  0  0  0
 27 81  1  0  0  0  0
 28 85  1  0  0  0  0
 28 86  1  0  0  0  0
 28 87  1  0  0  0  0
 29 82  1  0  0  0  0
 29 83  1  0  0  0  0
 29 84  1  0  0  0  0
 30 32  1  0  0  0  0
 30 88  1  0  0  0  0
 31 33  1  0  0  0  0
 31 90  1  0  0  0  0
 32 34  1  0  0  0  0
 32 35  2  0  0  0  0
 33 36  1  0  0  0  0
 33 37  2  0  0  0  0
 34 91  1  0  0  0  0
 34 92  1  0  0  0  0
 34 93  1  0  0  0  0
 35 38  1  0  0  0  0
 35 94  1  0  0  0  0
 36 95  1  0  0  0  0
 36 96  1  0  0  0  0
 36 97  1  0  0  0  0
 37 39  1  0  0  0  0
 37 98  1  0  0  0  0
 38 40  2  0  0  0  0
 38 99  1  0  0  0  0
 39 41  2  0  0  0  0
 39100  1  0  0  0  0
 40 42  1  0  0  0  0
 40101  1  0  0  0  0
 41 43  1  0  0  0  0
 41102  1  0  0  0  0
 42 44  1  0  0  0  0
 42 45  2  0  0  0  0
 43 46  1  0  0  0  0
 43 47  2  0  0  0  0
 44103  1  0  0  0  0
 44104  1  0  0  0  0
 44105  1  0  0  0  0
 45 48  1  0  0  0  0
 45106  1  0  0  0  0
 46107  1  0  0  0  0
 46108  1  0  0  0  0
 46109  1  0  0  0  0
 47 49  1  0  0  0  0
 47110  1  0  0  0  0
 48 50  2  0  0  0  0
 48111  1  0  0  0  0
 49 51  2  0  0  0  0
 49112  1  0  0  0  0
 50 53  1  0  0  0  0
 50113  1  0  0  0  0
 51 52  1  0  0  0  0
 51114  1  0  0  0  0
 52 53  2  0  0  0  0
 52 54  1  0  0  0  0
 53115  1  0  0  0  0
 54116  1  0  0  0  0
 54117  1  0  0  0  0
 54118  1  0  0  0  0
M  END
> <PUBCHEM_COMPOUND_CID>
23724613

> <PUBCHEM_COMPOUND_CANONICALIZED>
1

> <PUBCHEM_CACTVS_COMPLEXITY>
1670

> <PUBCHEM_CACTVS_HBOND_ACCEPTOR>
8

> <PUBCHEM_CACTVS_HBOND_DONOR>
5

> <PUBCHEM_CACTVS_ROTATABLE_BOND>
15

> <PUBCHEM_CACTVS_SUBSKEYS>
AAADcfB8PAAAAAAAAAAAAAAAAAAAAAAAAAAkQAAAAAAAAAAAAAAAGgAACAAADlSwgAMCCAAABgCIAqBSAAIAAAAgAAAICAFAAEgZFBIAIQAiUAAFwAAPoQPI6MwPAAAAAAAAAAAAAAAAAAAAAAAAAAAAAA==

> <PUBCHEM_IUPAC_OPENEYE_NAME>
(6S)-6-hydroxy-3-[(1E,3E,5E,7E,9E,11E,13E,15E,17E,19E,21E,23S)-24-hydroxy-3,7,12,16,20,24-hexamethyl-23-[(2S,3S,4R,5S,6S)-3,4,5-trihydroxy-6-methyl-tetrahydropyran-2-yl]oxy-pentacosa-1,3,5,7,9,11,13,15,17,19,21-undecaenyl]-2,4,4-trimethyl-cyclohex-2-en-1-one

> <PUBCHEM_IUPAC_CAS_NAME>
(6S)-6-hydroxy-3-[(1E,3E,5E,7E,9E,11E,13E,15E,17E,19E,21E,23S)-24-hydroxy-3,7,12,16,20,24-hexamethyl-23-[[(2S,3S,4R,5S,6S)-3,4,5-trihydroxy-6-methyl-2-oxanyl]oxy]pentacosa-1,3,5,7,9,11,13,15,17,19,21-undecaenyl]-2,4,4-trimethyl-1-cyclohex-2-enone

> <PUBCHEM_IUPAC_NAME>
(6S)-6-hydroxy-3-[(1E,3E,5E,7E,9E,11E,13E,15E,17E,19E,21E,23S)-24-hydroxy-3,7,12,16,20,24-hexamethyl-23-[(2S,3S,4R,5S,6S)-3,4,5-trihydroxy-6-methyloxan-2-yl]oxypentacosa-1,3,5,7,9,11,13,15,17,19,21-undecaenyl]-2,4,4-trimethylcyclohex-2-en-1-one

> <PUBCHEM_IUPAC_SYSTEMATIC_NAME>
(6S)-3-[(1E,3E,5E,7E,9E,11E,13E,15E,17E,19E,21E,23S)-3,7,12,16,20,24-hexamethyl-23-[(2S,3S,4R,5S,6S)-6-methyl-3,4,5-tris(oxidanyl)oxan-2-yl]oxy-24-oxidanyl-pentacosa-1,3,5,7,9,11,13,15,17,19,21-undecaenyl]-2,4,4-trimethyl-6-oxidanyl-cyclohex-2-en-1-one

> <PUBCHEM_IUPAC_TRADITIONAL_NAME>
(6S)-6-hydroxy-3-[(1E,3E,5E,7E,9E,11E,13E,15E,17E,19E,21E,23S)-24-hydroxy-3,7,12,16,20,24-hexamethyl-23-[(2S,3S,4R,5S,6S)-3,4,5-trihydroxy-6-methyl-tetrahydropyran-2-yl]oxy-pentacosa-1,3,5,7,9,11,13,15,17,19,21-undecaenyl]-2,4,4-trimethyl-cyclohex-2-en-1-one

> <PUBCHEM_IUPAC_INCHI>
InChI=1S/C46H64O8/c1-30(17-12-13-18-31(2)20-15-23-33(4)25-27-37-35(6)40(48)38(47)29-45(37,8)9)19-14-21-32(3)22-16-24-34(5)26-28-39(46(10,11)52)54-44-43(51)42(50)41(49)36(7)53-44/h12-28,36,38-39,41-44,47,49-52H,29H2,1-11H3/b13-12+,19-14+,20-15+,22-16+,27-25+,28-26+,30-17+,31-18+,32-21+,33-23+,34-24+/t36-,38-,39-,41+,42+,43-,44-/m0/s1

> <PUBCHEM_IUPAC_INCHIKEY>
GYSHFNPXXPCKGU-HSODLQDZSA-N

> <PUBCHEM_XLOGP3_AA>
9.3

> <PUBCHEM_EXACT_MASS>
744.460119

> <PUBCHEM_MOLECULAR_FORMULA>
C46H64O8

> <PUBCHEM_MOLECULAR_WEIGHT>
744.99556

> <PUBCHEM_OPENEYE_CAN_SMILES>
CC1C(C(C(C(O1)OC(C=CC(=CC=CC(=CC=CC(=CC=CC=C(C)C=CC=C(C)C=CC2=C(C(=O)C(CC2(C)C)O)C)C)C)C)C(C)(C)O)O)O)O

> <PUBCHEM_OPENEYE_ISO_SMILES>
C[C@H]1[C@H]([C@H]([C@@H]([C@@H](O1)O[C@@H](/C=C/C(=C/C=C/C(=C/C=C/C(=C/C=C/C=C(\C)/C=C/C=C(\C)/C=C/C2=C(C(=O)[C@H](CC2(C)C)O)C)/C)/C)/C)C(C)(C)O)O)O)O

> <PUBCHEM_CACTVS_TPSA>
137

> <PUBCHEM_MONOISOTOPIC_WEIGHT>
744.460119

> <PUBCHEM_TOTAL_CHARGE>
0

> <PUBCHEM_HEAVY_ATOM_COUNT>
54

> <PUBCHEM_ATOM_DEF_STEREO_COUNT>
7

> <PUBCHEM_ATOM_UDEF_STEREO_COUNT>
0

> <PUBCHEM_BOND_DEF_STEREO_COUNT>
11

> <PUBCHEM_BOND_UDEF_STEREO_COUNT>
0

> <PUBCHEM_ISOTOPIC_ATOM_COUNT>
0

> <PUBCHEM_COMPONENT_COUNT>
1

> <PUBCHEM_CACTVS_TAUTO_COUNT>
22

> <PUBCHEM_COORDINATE_TYPE>
1
5
255

> <PUBCHEM_BONDANNOTATIONS>
14  23  6
15  2  5
22  2  6
11  3  6
12  4  6
13  5  5
17  6  5

$$$$

