362568
  -OEChem-07051212572D

 87 93  0     1  0  0  0  0  0999 V2000
    6.3406    1.2758    0.0000 O   0  0  0  0  0  0  0  0  0  0  0  0
    9.8338    3.2906    0.0000 O   0  0  0  0  0  0  0  0  0  0  0  0
    6.8896    3.7303    0.0000 O   0  0  0  0  0  0  0  0  0  0  0  0
    8.0997    4.2918    0.0000 O   0  0  0  0  0  0  0  0  0  0  0  0
    5.0679   -2.9296    0.0000 O   0  0  0  0  0  0  0  0  0  0  0  0
    5.8082    3.7214    0.0000 O   0  0  0  0  0  0  0  0  0  0  0  0
    6.6404   -4.1713    0.0000 O   0  0  0  0  0  0  0  0  0  0  0  0
    8.9678   -0.2166    0.0000 N   0  0  3  0  0  0  0  0  0  0  0  0
    2.0000    1.7770    0.0000 N   0  0  0  0  0  0  0  0  0  0  0  0
    8.0997    0.2846    0.0000 C   0  0  2  0  0  0  0  0  0  0  0  0
    8.0997    1.2870    0.0000 C   0  0  0  0  0  0  0  0  0  0  0  0
    9.8359    0.2846    0.0000 C   0  0  0  0  0  0  0  0  0  0  0  0
    8.9678    1.7882    0.0000 C   0  0  0  0  0  0  0  0  0  0  0  0
    9.8359    1.2870    0.0000 C   0  0  0  0  0  0  0  0  0  0  0  0
    7.2316   -0.2166    0.0000 C   0  0  0  0  0  0  0  0  0  0  0  0
    7.2316    1.7882    0.0000 C   0  0  0  0  0  0  0  0  0  0  0  0
    8.9678    2.7906    0.0000 C   0  0  0  0  0  0  0  0  0  0  0  0
    8.9678   -1.2166    0.0000 C   0  0  0  0  0  0  0  0  0  0  0  0
    7.0771   -1.1983    0.0000 C   0  0  0  0  0  0  0  0  0  0  0  0
    7.2316    2.7906    0.0000 C   0  0  0  0  0  0  0  0  0  0  0  0
    8.0997    3.2918    0.0000 C   0  0  0  0  0  0  0  0  0  0  0  0
    6.1453   -1.5681    0.0000 C   0  0  0  0  0  0  0  0  0  0  0  0
    7.8631   -1.8204    0.0000 C   0  0  0  0  0  0  0  0  0  0  0  0
    5.4724    1.7770    0.0000 C   0  0  0  0  0  0  0  0  0  0  0  0
    5.9997   -2.5598    0.0000 C   0  0  0  0  0  0  0  0  0  0  0  0
    3.7362    1.7770    0.0000 C   0  0  0  0  0  0  0  0  0  0  0  0
    3.7362    2.7795    0.0000 C   0  0  0  0  0  0  0  0  0  0  0  0
    7.7175   -2.8121    0.0000 C   0  0  0  0  0  0  0  0  0  0  0  0
    4.6043    1.2758    0.0000 C   0  0  0  0  0  0  0  0  0  0  0  0
    5.4724    2.7795    0.0000 C   0  0  0  0  0  0  0  0  0  0  0  0
    6.7857   -3.1819    0.0000 C   0  0  0  0  0  0  0  0  0  0  0  0
    2.8681    3.2807    0.0000 C   0  0  0  0  0  0  0  0  0  0  0  0
    2.8681    1.2758    0.0000 C   0  0  0  0  0  0  0  0  0  0  0  0
    4.6043    3.2807    0.0000 C   0  0  0  0  0  0  0  0  0  0  0  0
    9.8338    4.2906    0.0000 C   0  0  0  0  0  0  0  0  0  0  0  0
    2.0000    2.7795    0.0000 C   0  0  0  0  0  0  0  0  0  0  0  0
    2.8681    0.2734    0.0000 C   0  0  0  0  0  0  0  0  0  0  0  0
    7.5324    4.4963    0.0000 C   0  0  0  0  0  0  0  0  0  0  0  0
    8.9657    4.7918    0.0000 C   0  0  0  0  0  0  0  0  0  0  0  0
    3.3764   -0.5074    0.0000 C   0  0  0  0  0  0  0  0  0  0  0  0
    4.4538   -2.1981    0.0000 C   0  0  0  0  0  0  0  0  0  0  0  0
    4.3778   -0.4635    0.0000 C   0  0  0  0  0  0  0  0  0  0  0  0
    2.9136   -1.3966    0.0000 C   0  0  0  0  0  0  0  0  0  0  0  0
    4.9165   -1.3088    0.0000 C   0  0  0  0  0  0  0  0  0  0  0  0
    3.4523   -2.2419    0.0000 C   0  0  0  0  0  0  0  0  0  0  0  0
    5.1604    4.4832    0.0000 C   0  0  0  0  0  0  0  0  0  0  0  0
    7.4246   -4.7918    0.0000 C   0  0  0  0  0  0  0  0  0  0  0  0
    8.0997   -0.5654    0.0000 H   0  0  0  0  0  0  0  0  0  0  0  0
   10.0480   -0.2980    0.0000 H   0  0  0  0  0  0  0  0  0  0  0  0
   10.4465    0.3922    0.0000 H   0  0  0  0  0  0  0  0  0  0  0  0
   10.4465    1.1793    0.0000 H   0  0  0  0  0  0  0  0  0  0  0  0
   10.0480    1.8696    0.0000 H   0  0  0  0  0  0  0  0  0  0  0  0
    7.0501    0.3762    0.0000 H   0  0  0  0  0  0  0  0  0  0  0  0
    6.6131   -0.2603    0.0000 H   0  0  0  0  0  0  0  0  0  0  0  0
    8.3478   -1.2166    0.0000 H   0  0  0  0  0  0  0  0  0  0  0  0
    8.9678   -1.8366    0.0000 H   0  0  0  0  0  0  0  0  0  0  0  0
    9.5878   -1.2166    0.0000 H   0  0  0  0  0  0  0  0  0  0  0  0
    5.6592   -1.1833    0.0000 H   0  0  0  0  0  0  0  0  0  0  0  0
    8.4394   -1.5917    0.0000 H   0  0  0  0  0  0  0  0  0  0  0  0
    8.2037   -3.1969    0.0000 H   0  0  0  0  0  0  0  0  0  0  0  0
    4.6043    0.6558    0.0000 H   0  0  0  0  0  0  0  0  0  0  0  0
    3.2666    3.7556    0.0000 H   0  0  0  0  0  0  0  0  0  0  0  0
    2.4696    3.7556    0.0000 H   0  0  0  0  0  0  0  0  0  0  0  0
    4.6043    3.9007    0.0000 H   0  0  0  0  0  0  0  0  0  0  0  0
   10.4538    4.2906    0.0000 H   0  0  0  0  0  0  0  0  0  0  0  0
    9.8338    4.9106    0.0000 H   0  0  0  0  0  0  0  0  0  0  0  0
    9.2138    4.2906    0.0000 H   0  0  0  0  0  0  0  0  0  0  0  0
    1.7880    3.3621    0.0000 H   0  0  0  0  0  0  0  0  0  0  0  0
    1.3894    2.6718    0.0000 H   0  0  0  0  0  0  0  0  0  0  0  0
    2.2818    0.4751    0.0000 H   0  0  0  0  0  0  0  0  0  0  0  0
    3.4625    0.4498    0.0000 H   0  0  0  0  0  0  0  0  0  0  0  0
    8.0073    4.0978    0.0000 H   0  0  0  0  0  0  0  0  0  0  0  0
    7.9309    4.9713    0.0000 H   0  0  0  0  0  0  0  0  0  0  0  0
    7.0574    4.8949    0.0000 H   0  0  0  0  0  0  0  0  0  0  0  0
    9.2757    4.2549    0.0000 H   0  0  0  0  0  0  0  0  0  0  0  0
    9.5027    5.1018    0.0000 H   0  0  0  0  0  0  0  0  0  0  0  0
    8.6557    5.3287    0.0000 H   0  0  0  0  0  0  0  0  0  0  0  0
    4.6640    0.0865    0.0000 H   0  0  0  0  0  0  0  0  0  0  0  0
    2.2942   -1.4237    0.0000 H   0  0  0  0  0  0  0  0  0  0  0  0
    5.5359   -1.2817    0.0000 H   0  0  0  0  0  0  0  0  0  0  0  0
    3.1661   -2.7919    0.0000 H   0  0  0  0  0  0  0  0  0  0  0  0
    5.6327    4.8848    0.0000 H   0  0  0  0  0  0  0  0  0  0  0  0
    4.7587    4.9555    0.0000 H   0  0  0  0  0  0  0  0  0  0  0  0
    4.6881    4.0815    0.0000 H   0  0  0  0  0  0  0  0  0  0  0  0
    7.0399   -5.2780    0.0000 H   0  0  0  0  0  0  0  0  0  0  0  0
    7.9108   -5.1765    0.0000 H   0  0  0  0  0  0  0  0  0  0  0  0
    7.8093   -4.3056    0.0000 H   0  0  0  0  0  0  0  0  0  0  0  0
  1 16  1  0  0  0  0
  1 24  1  0  0  0  0
  2 17  1  0  0  0  0
  2 35  1  0  0  0  0
  3 20  1  0  0  0  0
  3 38  1  0  0  0  0
  4 21  1  0  0  0  0
  4 39  1  0  0  0  0
  5 25  1  0  0  0  0
  5 41  1  0  0  0  0
  6 30  1  0  0  0  0
  6 46  1  0  0  0  0
  7 31  1  0  0  0  0
  7 47  1  0  0  0  0
  8 10  1  0  0  0  0
  8 12  1  0  0  0  0
  8 18  1  0  0  0  0
  9 33  2  0  0  0  0
  9 36  1  0  0  0  0
 10 11  1  0  0  0  0
 10 15  1  0  0  0  0
 10 48  1  6  0  0  0
 11 13  2  0  0  0  0
 11 16  1  0  0  0  0
 12 14  1  0  0  0  0
 12 49  1  0  0  0  0
 12 50  1  0  0  0  0
 13 14  1  0  0  0  0
 13 17  1  0  0  0  0
 14 51  1  0  0  0  0
 14 52  1  0  0  0  0
 15 19  1  0  0  0  0
 15 53  1  0  0  0  0
 15 54  1  0  0  0  0
 16 20  2  0  0  0  0
 17 21  2  0  0  0  0
 18 55  1  0  0  0  0
 18 56  1  0  0  0  0
 18 57  1  0  0  0  0
 19 22  2  0  0  0  0
 19 23  1  0  0  0  0
 20 21  1  0  0  0  0
 22 25  1  0  0  0  0
 22 58  1  0  0  0  0
 23 28  2  0  0  0  0
 23 59  1  0  0  0  0
 24 29  1  0  0  0  0
 24 30  2  0  0  0  0
 25 31  2  0  0  0  0
 26 27  1  0  0  0  0
 26 29  2  0  0  0  0
 26 33  1  0  0  0  0
 27 32  1  0  0  0  0
 27 34  2  0  0  0  0
 28 31  1  0  0  0  0
 28 60  1  0  0  0  0
 29 61  1  0  0  0  0
 30 34  1  0  0  0  0
 32 36  1  0  0  0  0
 32 62  1  0  0  0  0
 32 63  1  0  0  0  0
 33 37  1  0  0  0  0
 34 64  1  0  0  0  0
 35 65  1  0  0  0  0
 35 66  1  0  0  0  0
 35 67  1  0  0  0  0
 36 68  1  0  0  0  0
 36 69  1  0  0  0  0
 37 40  1  0  0  0  0
 37 70  1  0  0  0  0
 37 71  1  0  0  0  0
 38 72  1  0  0  0  0
 38 73  1  0  0  0  0
 38 74  1  0  0  0  0
 39 75  1  0  0  0  0
 39 76  1  0  0  0  0
 39 77  1  0  0  0  0
 40 42  2  0  0  0  0
 40 43  1  0  0  0  0
 41 44  2  0  0  0  0
 41 45  1  0  0  0  0
 42 44  1  0  0  0  0
 42 78  1  0  0  0  0
 43 45  2  0  0  0  0
 43 79  1  0  0  0  0
 44 80  1  0  0  0  0
 45 81  1  0  0  0  0
 46 82  1  0  0  0  0
 46 83  1  0  0  0  0
 46 84  1  0  0  0  0
 47 85  1  0  0  0  0
 47 86  1  0  0  0  0
 47 87  1  0  0  0  0
M  END
> <PUBCHEM_COMPOUND_CID>
362568

> <PUBCHEM_COMPOUND_CANONICALIZED>
1

> <PUBCHEM_CACTVS_COMPLEXITY>
1050

> <PUBCHEM_CACTVS_HBOND_ACCEPTOR>
9

> <PUBCHEM_CACTVS_HBOND_DONOR>
0

> <PUBCHEM_CACTVS_ROTATABLE_BOND>
5

> <PUBCHEM_CACTVS_SUBSKEYS>
AAADcfB/OAAAAAAAAAAAAAAAAAAAAAAAAAA8YMGCAAAAAACxVAAAHgAAAAAADCzBmAYyBoMABACgAyBiBACCCAAgIAAIiAA+jJgNJ6KEsRuGOCrnwBWKqAfw8P8OoQABCAAYQABCAAIQADCAAAAAAAAAAA==

> <PUBCHEM_IUPAC_INCHI>
InChI=1S/C38H40N2O7/c1-40-16-14-26-34-29(40)18-23-9-12-30(41-2)32(19-23)46-25-10-7-22(8-11-25)17-28-27-21-33(31(42-3)20-24(27)13-15-39-28)47-36(34)38(45-6)37(44-5)35(26)43-4/h7-12,19-21,29H,13-18H2,1-6H3/t29-/m0/s1

> <PUBCHEM_IUPAC_INCHIKEY>
YWNUNVSMOKMJMG-LJAQVGFWSA-N

> <PUBCHEM_XLOGP3_AA>
5.8

> <PUBCHEM_EXACT_MASS>
636.283552

> <PUBCHEM_MOLECULAR_FORMULA>
C38H40N2O7

> <PUBCHEM_MOLECULAR_WEIGHT>
636.7334

> <PUBCHEM_OPENEYE_CAN_SMILES>
CN1CCC2=C3C1CC4=CC(=C(C=C4)OC)OC5=CC=C(CC6=NCCC7=CC(=C(C=C76)OC3=C(C(=C2OC)OC)OC)OC)C=C5

> <PUBCHEM_OPENEYE_ISO_SMILES>
CN1CCC2=C3[C@@H]1CC4=CC(=C(C=C4)OC)OC5=CC=C(CC6=NCCC7=CC(=C(C=C76)OC3=C(C(=C2OC)OC)OC)OC)C=C5

> <PUBCHEM_CACTVS_TPSA>
80.2

> <PUBCHEM_MONOISOTOPIC_WEIGHT>
636.283552

> <PUBCHEM_TOTAL_CHARGE>
0

> <PUBCHEM_HEAVY_ATOM_COUNT>
47

> <PUBCHEM_ATOM_DEF_STEREO_COUNT>
1

> <PUBCHEM_ATOM_UDEF_STEREO_COUNT>
0

> <PUBCHEM_BOND_DEF_STEREO_COUNT>
0

> <PUBCHEM_BOND_UDEF_STEREO_COUNT>
0

> <PUBCHEM_ISOTOPIC_ATOM_COUNT>
0

> <PUBCHEM_COMPONENT_COUNT>
1

> <PUBCHEM_CACTVS_TAUTO_COUNT>
1

> <PUBCHEM_COORDINATE_TYPE>
1
5
255

> <PUBCHEM_BONDANNOTATIONS>
10  48  6
11  13  8
11  16  8
13  17  8
16  20  8
17  21  8
19  22  8
19  23  8
20  21  8
22  25  8
23  28  8
24  29  8
24  30  8
25  31  8
26  27  8
26  29  8
27  34  8
28  31  8
30  34  8
40  42  8
40  43  8
41  44  8
41  45  8
42  44  8
43  45  8

$$$$

