9629
  -OEChem-06261203533D

  7  6  0     0  0  0  0  0  0999 V2000
    1.1101   -0.7701   -1.5122 Cl  0  0  0  0  0  0  0  0  0  0  0  0
    1.2610   -0.8499    1.4001 Cl  0  0  0  0  0  0  0  0  0  0  0  0
    1.0932    1.7056    0.0260 Cl  0  0  0  0  0  0  0  0  0  0  0  0
   -1.5974    1.0784    0.0170 F   0  0  0  0  0  0  0  0  0  0  0  0
   -1.5634   -1.0991    0.0311 O   0  0  0  0  0  0  0  0  0  0  0  0
    0.5986    0.0051   -0.0035 C   0  0  0  0  0  0  0  0  0  0  0  0
   -0.9022   -0.0700    0.0415 C   0  0  0  0  0  0  0  0  0  0  0  0
  1  6  1  0  0  0  0
  2  6  1  0  0  0  0
  3  6  1  0  0  0  0
  4  7  1  0  0  0  0
  5  7  2  0  0  0  0
  6  7  1  0  0  0  0
M  END
> <PUBCHEM_COMPOUND_CID>
9629

> <PUBCHEM_CONFORMER_RMSD>
0.4

> <PUBCHEM_CONFORMER_DIVERSEORDER>
1
2

> <PUBCHEM_MMFF94_PARTIAL_CHARGES>
7
1 -0.29
2 -0.29
3 -0.29
4 -0.22
5 -0.57
6 0.93
7 0.73

> <PUBCHEM_EFFECTIVE_ROTOR_COUNT>
1

> <PUBCHEM_PHARMACOPHORE_FEATURES>
0

> <PUBCHEM_HEAVY_ATOM_COUNT>
7

> <PUBCHEM_ATOM_DEF_STEREO_COUNT>
0

> <PUBCHEM_ATOM_UDEF_STEREO_COUNT>
0

> <PUBCHEM_BOND_DEF_STEREO_COUNT>
0

> <PUBCHEM_BOND_UDEF_STEREO_COUNT>
0

> <PUBCHEM_ISOTOPIC_ATOM_COUNT>
0

> <PUBCHEM_COMPONENT_COUNT>
1

> <PUBCHEM_CACTVS_TAUTO_COUNT>
1

> <PUBCHEM_CONFORMER_ID>
0000259D00000001

> <PUBCHEM_MMFF94_ENERGY>
5.3442

> <PUBCHEM_FEATURE_SELFOVERLAP>
0

> <PUBCHEM_SHAPE_FINGERPRINT>
20096714 4 18411980230506383713
21040471 1 17978508968435746993
24536 1 18040434403862371945
29004967 10 17823953784331290566
5943 1 11555790190904537014

> <PUBCHEM_SHAPE_MULTIPOLES>
136.52
1.92
1.54
1.3
0.71
0.6
0.13
0
-0.1
-0.31
-0.04
-0.72
-0.6
-0.03

> <PUBCHEM_SHAPE_SELFOVERLAP>
233.32

> <PUBCHEM_SHAPE_VOLUME>
92.5

> <PUBCHEM_COORDINATE_TYPE>
2
5
10

$$$$

