46173975
  -OEChem-07051213102D

100105  0     1  0  0  0  0  0999 V2000
   15.0545   -3.7934    0.0000 O   0  0  0  0  0  0  0  0  0  0  0  0
    6.8061   -1.1133    0.0000 O   0  0  0  0  0  0  0  0  0  0  0  0
    5.1425   -0.4747    0.0000 O   0  0  0  0  0  0  0  0  0  0  0  0
   16.7758   -4.2546    0.0000 O   0  0  0  0  0  0  0  0  0  0  0  0
   11.7467    1.6773    0.0000 O   0  0  0  0  0  0  0  0  0  0  0  0
   11.6273   -1.9263    0.0000 O   0  0  0  0  0  0  0  0  0  0  0  0
    3.0657    0.0004    0.0000 O   0  0  0  0  0  0  0  0  0  0  0  0
   15.2711    0.9091    0.0000 O   0  0  0  0  0  0  0  0  0  0  0  0
    3.4278    3.4456    0.0000 O   0  0  0  0  0  0  0  0  0  0  0  0
   18.7352    0.9091    0.0000 O   0  0  0  0  0  0  0  0  0  0  0  0
   17.0032    1.9091    0.0000 O   0  0  0  0  0  0  0  0  0  0  0  0
    2.2522    1.8275    0.0000 O   0  0  0  0  0  0  0  0  0  0  0  0
    7.6152    0.2880    0.0000 C   0  0  3  0  0  0  0  0  0  0  0  0
   15.2236   -2.1842    0.0000 C   0  0  3  0  0  0  0  0  0  0  0  0
    6.6370    0.4959    0.0000 C   0  0  3  0  0  0  0  0  0  0  0  0
   16.1371   -2.5909    0.0000 C   0  0  3  0  0  0  0  0  0  0  0  0
   15.0157   -1.2060    0.0000 C   0  0  0  0  0  0  0  0  0  0  0  0
    8.3583    0.9571    0.0000 C   0  0  0  0  0  0  0  0  0  0  0  0
    7.7197   -0.7066    0.0000 C   0  0  0  0  0  0  0  0  0  0  0  0
   14.5545   -2.9273    0.0000 C   0  0  0  0  0  0  0  0  0  0  0  0
    6.2303    1.4094    0.0000 C   0  0  0  0  0  0  0  0  0  0  0  0
   17.0032   -2.0909    0.0000 C   0  0  0  0  0  0  0  0  0  0  0  0
    6.1370   -0.3702    0.0000 C   0  0  0  0  0  0  0  0  0  0  0  0
   16.0326   -3.5854    0.0000 C   0  0  0  0  0  0  0  0  0  0  0  0
    9.3094    0.6481    0.0000 C   0  0  0  0  0  0  0  0  0  0  0  0
   14.0646   -0.8970    0.0000 C   0  0  0  0  0  0  0  0  0  0  0  0
   17.0032   -1.0909    0.0000 C   0  0  0  0  0  0  0  0  0  0  0  0
    5.2357    1.5139    0.0000 C   0  0  0  0  0  0  0  0  0  0  0  0
   13.3215   -1.5662    0.0000 C   0  0  0  0  0  0  0  0  0  0  0  0
   10.0525    1.3172    0.0000 C   0  0  0  0  0  0  0  0  0  0  0  0
    9.5173   -0.3301    0.0000 C   0  0  0  0  0  0  0  0  0  0  0  0
   13.8567    0.0811    0.0000 C   0  0  0  0  0  0  0  0  0  0  0  0
   12.1625   -0.2790    0.0000 C   0  0  0  0  0  0  0  0  0  0  0  0
   11.2115    0.0300    0.0000 C   0  0  0  0  0  0  0  0  0  0  0  0
   12.3704   -1.2571    0.0000 C   0  0  0  0  0  0  0  0  0  0  0  0
   11.0036    1.0082    0.0000 C   0  0  0  0  0  0  0  0  0  0  0  0
   10.4683   -0.6391    0.0000 C   0  0  0  0  0  0  0  0  0  0  0  0
   12.9057    0.3901    0.0000 C   0  0  0  0  0  0  0  0  0  0  0  0
    4.8290    2.4275    0.0000 C   0  0  0  0  0  0  0  0  0  0  0  0
   17.8692   -0.5909    0.0000 C   0  0  0  0  0  0  0  0  0  0  0  0
    4.6480    0.7049    0.0000 C   0  0  0  0  0  0  0  0  0  0  0  0
   16.1371   -0.5909    0.0000 C   0  0  0  0  0  0  0  0  0  0  0  0
   16.1371    0.4091    0.0000 C   0  0  0  0  0  0  0  0  0  0  0  0
    3.6534    0.8094    0.0000 C   0  0  0  0  0  0  0  0  0  0  0  0
   17.8692    0.4091    0.0000 C   0  0  0  0  0  0  0  0  0  0  0  0
    3.8345    2.5320    0.0000 C   0  0  0  0  0  0  0  0  0  0  0  0
   17.0032    0.9091    0.0000 C   0  0  0  0  0  0  0  0  0  0  0  0
    3.2467    1.7230    0.0000 C   0  0  0  0  0  0  0  0  0  0  0  0
   11.8352   -2.9044    0.0000 C   0  0  0  0  0  0  0  0  0  0  0  0
   11.5388    2.6555    0.0000 C   0  0  0  0  0  0  0  0  0  0  0  0
    2.0711    0.1050    0.0000 C   0  0  0  0  0  0  0  0  0  0  0  0
   14.4051    0.4091    0.0000 C   0  0  0  0  0  0  0  0  0  0  0  0
    4.0155    4.2546    0.0000 C   0  0  0  0  0  0  0  0  0  0  0  0
   19.6012    0.4091    0.0000 C   0  0  0  0  0  0  0  0  0  0  0  0
    7.4547    0.8868    0.0000 H   0  0  0  0  0  0  0  0  0  0  0  0
   14.6247   -2.0237    0.0000 H   0  0  0  0  0  0  0  0  0  0  0  0
    7.0272    0.9777    0.0000 H   0  0  0  0  0  0  0  0  0  0  0  0
   16.1047   -1.9718    0.0000 H   0  0  0  0  0  0  0  0  0  0  0  0
   15.6353   -1.1844    0.0000 H   0  0  0  0  0  0  0  0  0  0  0  0
   15.1020   -0.5921    0.0000 H   0  0  0  0  0  0  0  0  0  0  0  0
    8.6494    1.5045    0.0000 H   0  0  0  0  0  0  0  0  0  0  0  0
    7.8697    1.3388    0.0000 H   0  0  0  0  0  0  0  0  0  0  0  0
   14.1396   -2.4666    0.0000 H   0  0  0  0  0  0  0  0  0  0  0  0
   14.0529   -3.2918    0.0000 H   0  0  0  0  0  0  0  0  0  0  0  0
    7.9113   -1.2962    0.0000 H   0  0  0  0  0  0  0  0  0  0  0  0
    8.3261   -0.5777    0.0000 H   0  0  0  0  0  0  0  0  0  0  0  0
    6.8318    1.5594    0.0000 H   0  0  0  0  0  0  0  0  0  0  0  0
    6.1870    2.0279    0.0000 H   0  0  0  0  0  0  0  0  0  0  0  0
   17.2152   -2.6735    0.0000 H   0  0  0  0  0  0  0  0  0  0  0  0
   17.6138   -1.9833    0.0000 H   0  0  0  0  0  0  0  0  0  0  0  0
   13.4504   -2.1726    0.0000 H   0  0  0  0  0  0  0  0  0  0  0  0
    9.9236    1.9236    0.0000 H   0  0  0  0  0  0  0  0  0  0  0  0
    9.0565   -0.7449    0.0000 H   0  0  0  0  0  0  0  0  0  0  0  0
   14.3175    0.4960    0.0000 H   0  0  0  0  0  0  0  0  0  0  0  0
   12.7768    0.9966    0.0000 H   0  0  0  0  0  0  0  0  0  0  0  0
   10.5972   -1.2456    0.0000 H   0  0  0  0  0  0  0  0  0  0  0  0
    5.1934    2.9291    0.0000 H   0  0  0  0  0  0  0  0  0  0  0  0
   18.4061   -0.9009    0.0000 H   0  0  0  0  0  0  0  0  0  0  0  0
    4.9001    0.1385    0.0000 H   0  0  0  0  0  0  0  0  0  0  0  0
   15.6002   -0.9009    0.0000 H   0  0  0  0  0  0  0  0  0  0  0  0
   11.2287   -3.0333    0.0000 H   0  0  0  0  0  0  0  0  0  0  0  0
   11.9641   -3.5109    0.0000 H   0  0  0  0  0  0  0  0  0  0  0  0
   12.4416   -2.7755    0.0000 H   0  0  0  0  0  0  0  0  0  0  0  0
   12.1452    2.7844    0.0000 H   0  0  0  0  0  0  0  0  0  0  0  0
   11.4099    3.2619    0.0000 H   0  0  0  0  0  0  0  0  0  0  0  0
   10.9323    2.5266    0.0000 H   0  0  0  0  0  0  0  0  0  0  0  0
    2.0000    2.3939    0.0000 H   0  0  0  0  0  0  0  0  0  0  0  0
   17.5401    2.2191    0.0000 H   0  0  0  0  0  0  0  0  0  0  0  0
    2.1359    0.7216    0.0000 H   0  0  0  0  0  0  0  0  0  0  0  0
    1.4545    0.1698    0.0000 H   0  0  0  0  0  0  0  0  0  0  0  0
    2.0063   -0.5116    0.0000 H   0  0  0  0  0  0  0  0  0  0  0  0
   14.0951    0.9460    0.0000 H   0  0  0  0  0  0  0  0  0  0  0  0
   13.8682    0.0991    0.0000 H   0  0  0  0  0  0  0  0  0  0  0  0
   14.7151   -0.1279    0.0000 H   0  0  0  0  0  0  0  0  0  0  0  0
    4.5171    3.8902    0.0000 H   0  0  0  0  0  0  0  0  0  0  0  0
    4.3800    4.7562    0.0000 H   0  0  0  0  0  0  0  0  0  0  0  0
    3.5139    4.6190    0.0000 H   0  0  0  0  0  0  0  0  0  0  0  0
   19.2912   -0.1279    0.0000 H   0  0  0  0  0  0  0  0  0  0  0  0
   20.1382    0.0991    0.0000 H   0  0  0  0  0  0  0  0  0  0  0  0
   19.9112    0.9460    0.0000 H   0  0  0  0  0  0  0  0  0  0  0  0
  1 20  1  0  0  0  0
  1 24  1  0  0  0  0
  2 19  1  0  0  0  0
  2 23  1  0  0  0  0
  3 23  2  0  0  0  0
  4 24  2  0  0  0  0
  5 36  1  0  0  0  0
  5 50  1  0  0  0  0
  6 35  1  0  0  0  0
  6 49  1  0  0  0  0
  7 44  1  0  0  0  0
  7 51  1  0  0  0  0
  8 43  1  0  0  0  0
  8 52  1  0  0  0  0
  9 46  1  0  0  0  0
  9 53  1  0  0  0  0
 10 45  1  0  0  0  0
 10 54  1  0  0  0  0
 11 47  1  0  0  0  0
 11 88  1  0  0  0  0
 12 48  1  0  0  0  0
 12 87  1  0  0  0  0
 13 15  1  0  0  0  0
 13 18  1  0  0  0  0
 13 19  1  0  0  0  0
 13 55  1  0  0  0  0
 14 16  1  0  0  0  0
 14 17  1  0  0  0  0
 14 20  1  0  0  0  0
 14 56  1  0  0  0  0
 15 21  1  0  0  0  0
 15 23  1  0  0  0  0
 15 57  1  0  0  0  0
 16 22  1  0  0  0  0
 16 24  1  0  0  0  0
 16 58  1  0  0  0  0
 17 26  1  0  0  0  0
 17 59  1  0  0  0  0
 17 60  1  0  0  0  0
 18 25  1  0  0  0  0
 18 61  1  0  0  0  0
 18 62  1  0  0  0  0
 19 65  1  0  0  0  0
 19 66  1  0  0  0  0
 20 63  1  0  0  0  0
 20 64  1  0  0  0  0
 21 28  1  0  0  0  0
 21 67  1  0  0  0  0
 21 68  1  0  0  0  0
 22 27  1  0  0  0  0
 22 69  1  0  0  0  0
 22 70  1  0  0  0  0
 25 30  2  0  0  0  0
 25 31  1  0  0  0  0
 26 29  2  0  0  0  0
 26 32  1  0  0  0  0
 27 40  2  0  0  0  0
 27 42  1  0  0  0  0
 28 39  2  0  0  0  0
 28 41  1  0  0  0  0
 29 35  1  0  0  0  0
 29 71  1  0  0  0  0
 30 36  1  0  0  0  0
 30 72  1  0  0  0  0
 31 37  2  0  0  0  0
 31 73  1  0  0  0  0
 32 38  2  0  0  0  0
 32 74  1  0  0  0  0
 33 34  1  0  0  0  0
 33 35  2  0  0  0  0
 33 38  1  0  0  0  0
 34 36  2  0  0  0  0
 34 37  1  0  0  0  0
 37 76  1  0  0  0  0
 38 75  1  0  0  0  0
 39 46  1  0  0  0  0
 39 77  1  0  0  0  0
 40 45  1  0  0  0  0
 40 78  1  0  0  0  0
 41 44  2  0  0  0  0
 41 79  1  0  0  0  0
 42 43  2  0  0  0  0
 42 80  1  0  0  0  0
 43 47  1  0  0  0  0
 44 48  1  0  0  0  0
 45 47  2  0  0  0  0
 46 48  2  0  0  0  0
 49 81  1  0  0  0  0
 49 82  1  0  0  0  0
 49 83  1  0  0  0  0
 50 84  1  0  0  0  0
 50 85  1  0  0  0  0
 50 86  1  0  0  0  0
 51 89  1  0  0  0  0
 51 90  1  0  0  0  0
 51 91  1  0  0  0  0
 52 92  1  0  0  0  0
 52 93  1  0  0  0  0
 52 94  1  0  0  0  0
 53 95  1  0  0  0  0
 53 96  1  0  0  0  0
 53 97  1  0  0  0  0
 54 98  1  0  0  0  0
 54 99  1  0  0  0  0
 54100  1  0  0  0  0
M  END
> <PUBCHEM_COMPOUND_CID>
46173975

> <PUBCHEM_COMPOUND_CANONICALIZED>
1

> <PUBCHEM_CACTVS_COMPLEXITY>
1080

> <PUBCHEM_CACTVS_HBOND_ACCEPTOR>
12

> <PUBCHEM_CACTVS_HBOND_DONOR>
2

> <PUBCHEM_CACTVS_ROTATABLE_BOND>
15

> <PUBCHEM_CACTVS_SUBSKEYS>
AAADcfB8PAAAAAAAAAAAAAAAAAAAASJAAAAwYMGAAAAAAAABVAAAGgAACAAADQSgmAIyDoAABgCIAiDSCAACCAAgIAAIiAEGiIgNJzKGMRqCcCMlwBULuAfK6PyO4AABCAAIQADAAAIQABCAAAAAAAAAAA==

> <PUBCHEM_IUPAC_OPENEYE_NAME>
3-[(4-hydroxy-3,5-dimethoxy-phenyl)methyl]-4-[[4-[4-[[4-[(4-hydroxy-3,5-dimethoxy-phenyl)methyl]-5-oxo-tetrahydrofuran-3-yl]methyl]-2-methoxy-phenyl]-3-methoxy-phenyl]methyl]tetrahydrofuran-2-one

> <PUBCHEM_IUPAC_CAS_NAME>
3-[(4-hydroxy-3,5-dimethoxyphenyl)methyl]-4-[[4-[4-[[4-[(4-hydroxy-3,5-dimethoxyphenyl)methyl]-5-oxo-3-oxolanyl]methyl]-2-methoxyphenyl]-3-methoxyphenyl]methyl]-2-oxolanone

> <PUBCHEM_IUPAC_NAME>
3-[(4-hydroxy-3,5-dimethoxyphenyl)methyl]-4-[[4-[4-[[4-[(4-hydroxy-3,5-dimethoxyphenyl)methyl]-5-oxooxolan-3-yl]methyl]-2-methoxyphenyl]-3-methoxyphenyl]methyl]oxolan-2-one

> <PUBCHEM_IUPAC_SYSTEMATIC_NAME>
3-[(3,5-dimethoxy-4-oxidanyl-phenyl)methyl]-4-[[4-[4-[[4-[(3,5-dimethoxy-4-oxidanyl-phenyl)methyl]-5-oxidanylidene-oxolan-3-yl]methyl]-2-methoxy-phenyl]-3-methoxy-phenyl]methyl]oxolan-2-one

> <PUBCHEM_IUPAC_TRADITIONAL_NAME>
3-(4-hydroxy-3,5-dimethoxy-benzyl)-4-[4-[4-[[4-(4-hydroxy-3,5-dimethoxy-benzyl)-5-keto-tetrahydrofuran-3-yl]methyl]-2-methoxy-phenyl]-3-methoxy-benzyl]tetrahydrofuran-2-one

> <PUBCHEM_IUPAC_INCHI>
InChI=1S/C42H46O12/c1-47-33-15-23(11-27-21-53-41(45)31(27)13-25-17-35(49-3)39(43)36(18-25)50-4)7-9-29(33)30-10-8-24(16-34(30)48-2)12-28-22-54-42(46)32(28)14-26-19-37(51-5)40(44)38(20-26)52-6/h7-10,15-20,27-28,31-32,43-44H,11-14,21-22H2,1-6H3

> <PUBCHEM_IUPAC_INCHIKEY>
TYEFCPJCPSRVMT-UHFFFAOYSA-N

> <PUBCHEM_XLOGP3_AA>
6.9

> <PUBCHEM_EXACT_MASS>
742.298927

> <PUBCHEM_MOLECULAR_FORMULA>
C42H46O12

> <PUBCHEM_MOLECULAR_WEIGHT>
742.80744

> <PUBCHEM_OPENEYE_CAN_SMILES>
COC1=CC(=CC(=C1O)OC)CC2C(COC2=O)CC3=CC(=C(C=C3)C4=C(C=C(C=C4)CC5COC(=O)C5CC6=CC(=C(C(=C6)OC)O)OC)OC)OC

> <PUBCHEM_OPENEYE_ISO_SMILES>
COC1=CC(=CC(=C1O)OC)CC2C(COC2=O)CC3=CC(=C(C=C3)C4=C(C=C(C=C4)CC5COC(=O)C5CC6=CC(=C(C(=C6)OC)O)OC)OC)OC

> <PUBCHEM_CACTVS_TPSA>
148

> <PUBCHEM_MONOISOTOPIC_WEIGHT>
742.298927

> <PUBCHEM_TOTAL_CHARGE>
0

> <PUBCHEM_HEAVY_ATOM_COUNT>
54

> <PUBCHEM_ATOM_DEF_STEREO_COUNT>
0

> <PUBCHEM_ATOM_UDEF_STEREO_COUNT>
4

> <PUBCHEM_BOND_DEF_STEREO_COUNT>
0

> <PUBCHEM_BOND_UDEF_STEREO_COUNT>
0

> <PUBCHEM_ISOTOPIC_ATOM_COUNT>
0

> <PUBCHEM_COMPONENT_COUNT>
1

> <PUBCHEM_CACTVS_TAUTO_COUNT>
10

> <PUBCHEM_COORDINATE_TYPE>
1
5
255

> <PUBCHEM_BONDANNOTATIONS>
13  18  3
14  17  3
15  21  3
16  22  3
25  30  8
25  31  8
26  29  8
26  32  8
27  40  8
27  42  8
28  39  8
28  41  8
29  35  8
30  36  8
31  37  8
32  38  8
33  35  8
33  38  8
34  36  8
34  37  8
39  46  8
40  45  8
41  44  8
42  43  8
43  47  8
44  48  8
45  47  8
46  48  8

$$$$

