5393
  -OEChem-06261200403D

 60 62  0     1  0  0  0  0  0999 V2000
    3.2295   -1.5249   -1.7220 S   0  0  0  0  0  0  0  0  0  0  0  0
    6.7595    0.3145   -1.0790 S   0  0  0  0  0  0  0  0  0  0  0  0
    0.1279    1.9642   -1.0745 O   0  0  0  0  0  0  0  0  0  0  0  0
   -1.6292   -1.9810    1.4818 O   0  0  0  0  0  0  0  0  0  0  0  0
   -1.3494   -3.0012   -0.5663 O   0  0  0  0  0  0  0  0  0  0  0  0
    1.3382    2.3378    2.1866 O   0  0  0  0  0  0  0  0  0  0  0  0
    2.1720    4.4274    1.8931 O   0  0  0  0  0  0  0  0  0  0  0  0
    2.1596    1.4115   -0.1204 N   0  0  0  0  0  0  0  0  0  0  0  0
   -0.6561   -0.5005   -1.5536 N   0  0  0  0  0  0  0  0  0  0  0  0
    0.7425   -0.3681   -1.1227 C   0  0  1  0  0  0  0  0  0  0  0  0
    4.0013   -0.0931   -0.8656 C   0  0  1  0  0  0  0  0  0  0  0  0
    1.6553   -0.7931   -2.2761 C   0  0  0  0  0  0  0  0  0  0  0  0
    3.1473    0.4141    0.3062 C   0  0  0  0  0  0  0  0  0  0  0  0
   -1.5376   -0.5721   -0.4020 C   0  0  1  0  0  0  0  0  0  0  0  0
    0.9628    1.1064   -0.7711 C   0  0  0  0  0  0  0  0  0  0  0  0
   -2.9838   -0.2022   -0.7692 C   0  0  0  0  0  0  0  0  0  0  0  0
    2.5012    2.8044    0.1461 C   0  0  0  0  0  0  0  0  0  0  0  0
    5.4009   -0.4848   -0.4100 C   0  0  0  0  0  0  0  0  0  0  0  0
   -3.9824   -0.2250    0.3966 C   0  0  0  0  0  0  0  0  0  0  0  0
   -1.4926   -1.9983    0.1210 C   0  0  0  0  0  0  0  0  0  0  0  0
   -5.3764    0.2021    0.0117 C   0  0  0  0  0  0  0  0  0  0  0  0
    5.7658   -1.4409    0.5122 C   0  0  0  0  0  0  0  0  0  0  0  0
    1.9985    3.2865    1.4825 C   0  0  0  0  0  0  0  0  0  0  0  0
    7.1795   -1.5180    0.6717 C   0  0  0  0  0  0  0  0  0  0  0  0
    7.8411   -0.6182   -0.1345 C   0  0  0  0  0  0  0  0  0  0  0  0
   -5.7420    1.5457    0.0946 C   0  0  0  0  0  0  0  0  0  0  0  0
   -6.3002   -0.7463   -0.4276 C   0  0  0  0  0  0  0  0  0  0  0  0
   -1.5972   -3.2605    2.1219 C   0  0  0  0  0  0  0  0  0  0  0  0
   -7.0314    1.9410   -0.2616 C   0  0  0  0  0  0  0  0  0  0  0  0
   -7.5896   -0.3508   -0.7839 C   0  0  0  0  0  0  0  0  0  0  0  0
   -7.9551    0.9928   -0.7008 C   0  0  0  0  0  0  0  0  0  0  0  0
   -1.7600   -3.0692    3.6148 C   0  0  0  0  0  0  0  0  0  0  0  0
    0.9118   -1.0029   -0.2473 H   0  0  0  0  0  0  0  0  0  0  0  0
    4.0893    0.7000   -1.6195 H   0  0  0  0  0  0  0  0  0  0  0  0
    1.1745   -1.5792   -2.8701 H   0  0  0  0  0  0  0  0  0  0  0  0
    1.8693    0.0364   -2.9597 H   0  0  0  0  0  0  0  0  0  0  0  0
    2.6375   -0.4048    0.8259 H   0  0  0  0  0  0  0  0  0  0  0  0
    3.7811    0.8874    1.0677 H   0  0  0  0  0  0  0  0  0  0  0  0
   -1.2082    0.1118    0.3909 H   0  0  0  0  0  0  0  0  0  0  0  0
   -0.9070    0.2754   -2.1653 H   0  0  0  0  0  0  0  0  0  0  0  0
   -3.3473   -0.8817   -1.5530 H   0  0  0  0  0  0  0  0  0  0  0  0
   -2.9886    0.8028   -1.2133 H   0  0  0  0  0  0  0  0  0  0  0  0
    3.5879    2.9270    0.0991 H   0  0  0  0  0  0  0  0  0  0  0  0
    2.0419    3.4362   -0.6216 H   0  0  0  0  0  0  0  0  0  0  0  0
   -3.6177    0.4217    1.2052 H   0  0  0  0  0  0  0  0  0  0  0  0
   -4.0407   -1.2317    0.8277 H   0  0  0  0  0  0  0  0  0  0  0  0
    5.0584   -2.0572    1.0525 H   0  0  0  0  0  0  0  0  0  0  0  0
    7.6855   -2.1985    1.3442 H   0  0  0  0  0  0  0  0  0  0  0  0
    8.9079   -0.4639   -0.2140 H   0  0  0  0  0  0  0  0  0  0  0  0
   -5.0303    2.2940    0.4334 H   0  0  0  0  0  0  0  0  0  0  0  0
   -6.0267   -1.7957   -0.4985 H   0  0  0  0  0  0  0  0  0  0  0  0
   -0.6389   -3.7491    1.9134 H   0  0  0  0  0  0  0  0  0  0  0  0
   -2.4140   -3.8813    1.7372 H   0  0  0  0  0  0  0  0  0  0  0  0
   -7.3159    2.9871   -0.1977 H   0  0  0  0  0  0  0  0  0  0  0  0
   -8.3089   -1.0890   -1.1266 H   0  0  0  0  0  0  0  0  0  0  0  0
   -8.9589    1.3007   -0.9786 H   0  0  0  0  0  0  0  0  0  0  0  0
    1.0221    2.6757    3.0515 H   0  0  0  0  0  0  0  0  0  0  0  0
   -0.9603   -2.4349    4.0113 H   0  0  0  0  0  0  0  0  0  0  0  0
   -2.7059   -2.5643    3.8373 H   0  0  0  0  0  0  0  0  0  0  0  0
   -1.7407   -4.0299    4.1369 H   0  0  0  0  0  0  0  0  0  0  0  0
  1 11  1  0  0  0  0
  1 12  1  0  0  0  0
  2 18  1  0  0  0  0
  2 25  1  0  0  0  0
  3 15  2  0  0  0  0
  4 20  1  0  0  0  0
  4 28  1  0  0  0  0
  5 20  2  0  0  0  0
  6 23  1  0  0  0  0
  6 57  1  0  0  0  0
  7 23  2  0  0  0  0
  8 13  1  0  0  0  0
  8 15  1  0  0  0  0
  8 17  1  0  0  0  0
  9 10  1  0  0  0  0
  9 14  1  0  0  0  0
  9 40  1  0  0  0  0
 10 12  1  0  0  0  0
 10 15  1  0  0  0  0
 10 33  1  0  0  0  0
 11 13  1  0  0  0  0
 11 18  1  0  0  0  0
 11 34  1  0  0  0  0
 12 35  1  0  0  0  0
 12 36  1  0  0  0  0
 13 37  1  0  0  0  0
 13 38  1  0  0  0  0
 14 16  1  0  0  0  0
 14 20  1  0  0  0  0
 14 39  1  0  0  0  0
 16 19  1  0  0  0  0
 16 41  1  0  0  0  0
 16 42  1  0  0  0  0
 17 23  1  0  0  0  0
 17 43  1  0  0  0  0
 17 44  1  0  0  0  0
 18 22  2  0  0  0  0
 19 21  1  0  0  0  0
 19 45  1  0  0  0  0
 19 46  1  0  0  0  0
 21 26  2  0  0  0  0
 21 27  1  0  0  0  0
 22 24  1  0  0  0  0
 22 47  1  0  0  0  0
 24 25  2  0  0  0  0
 24 48  1  0  0  0  0
 25 49  1  0  0  0  0
 26 29  1  0  0  0  0
 26 50  1  0  0  0  0
 27 30  2  0  0  0  0
 27 51  1  0  0  0  0
 28 32  1  0  0  0  0
 28 52  1  0  0  0  0
 28 53  1  0  0  0  0
 29 31  2  0  0  0  0
 29 54  1  0  0  0  0
 30 31  1  0  0  0  0
 30 55  1  0  0  0  0
 31 56  1  0  0  0  0
 32 58  1  0  0  0  0
 32 59  1  0  0  0  0
 32 60  1  0  0  0  0
M  END
> <PUBCHEM_COMPOUND_CID>
5393

> <PUBCHEM_CONFORMER_RMSD>
1.2

> <PUBCHEM_CONFORMER_DIVERSEORDER>
2
110
79
35
94
38
28
52
75
63
86
71
12
36
10
109
115
14
67
102
65
3
40
117
123
49
89
39
69
74
125
84
122
19
107
8
118
106
104
13
17
121
29
93
68
46
126
23
66
44
85
50
64
60
6
91
90
1
62
9
114
99
26
83
88
53
96
113
87
51
57
15
45
16
21
25
116
11
111
48
72
124
95
54
32
58
56
34
120
80
119
18
5
20
100
70
33
77
98
4
30
59
101
43
81
42
97
73
31
27
55
47
103
22
78
41
7
82
112
105
61
92
108
76
24
37

> <PUBCHEM_MMFF94_PARTIAL_CHARGES>
40
1 -0.46
10 0.33
11 0.41
12 0.23
13 0.3
14 0.33
15 0.57
17 0.36
18 -0.14
19 0.14
2 -0.08
20 0.66
21 -0.14
22 -0.15
23 0.66
24 -0.15
25 -0.11
26 -0.15
27 -0.15
28 0.28
29 -0.15
3 -0.57
30 -0.15
31 -0.15
4 -0.43
40 0.36
47 0.15
48 0.15
49 0.15
5 -0.57
50 0.15
51 0.15
54 0.15
55 0.15
56 0.15
57 0.5
6 -0.65
7 -0.57
8 -0.66
9 -0.9

> <PUBCHEM_EFFECTIVE_ROTOR_COUNT>
12.2

> <PUBCHEM_PHARMACOPHORE_FEATURES>
10
1 3 acceptor
1 5 acceptor
1 6 acceptor
1 7 acceptor
1 9 cation
1 9 donor
3 6 7 23 anion
5 2 18 22 24 25 rings
6 21 26 27 29 30 31 rings
7 1 8 10 11 12 13 15 rings

> <PUBCHEM_HEAVY_ATOM_COUNT>
32

> <PUBCHEM_ATOM_DEF_STEREO_COUNT>
0

> <PUBCHEM_ATOM_UDEF_STEREO_COUNT>
3

> <PUBCHEM_BOND_DEF_STEREO_COUNT>
0

> <PUBCHEM_BOND_UDEF_STEREO_COUNT>
0

> <PUBCHEM_ISOTOPIC_ATOM_COUNT>
0

> <PUBCHEM_COMPONENT_COUNT>
1

> <PUBCHEM_CACTVS_TAUTO_COUNT>
1

> <PUBCHEM_CONFORMER_ID>
0000151100000002

> <PUBCHEM_MMFF94_ENERGY>
62.6792

> <PUBCHEM_FEATURE_SELFOVERLAP>
50.802

> <PUBCHEM_SHAPE_FINGERPRINT>
10050765 1 18044382612483616199
10162869 55 17531258244926697509
10674148 151 16630807708227813280
11456790 92 18338505426790348801
12166972 35 16443061703437236873
12549972 3 18197492922466293440
12664476 115 18409732890045489581
12788726 201 18265621064548484272
13008946 113 18193844735235661072
13560911 43 18261109690735519697
14251764 18 18411418423056175870
15183329 4 18408882962238312521
15537594 2 14117523103828075497
15849732 13 16559029397995011631
19301679 30 18043250357033179342
21344244 181 14404902548870768568
21403212 168 17917714642922609767
21521721 280 12319442282614816572
23559900 14 18200594666143046997
24893992 56 18343018888073742723
249057 3 17676211256029783479
2838139 119 18187368714762984813
335352 9 18409449180535155188
3383291 50 18259985980792570535
4073 2 17916299434229172376
4325135 7 9367343743047923166
6004065 56 18113336409861368175
6009941 240 18131343086599985002
6081469 158 16805603716041419582
6086070 43 17750225907571600500
6328613 192 18201710713537675636
6371380 46 18343866597540961530
6523845 18 17846788407937167663

> <PUBCHEM_SHAPE_MULTIPOLES>
626.94
20.34
3.64
2.11
10.48
1.14
-1.52
1.16
4.21
-0.25
-3.64
-0.37
-0.95
2.04

> <PUBCHEM_SHAPE_SELFOVERLAP>
1275.787

> <PUBCHEM_SHAPE_VOLUME>
363.1

> <PUBCHEM_COORDINATE_TYPE>
2
5
10

$$$$

