5280701
  -OEChem-07051212493D

 53 52  0     0  0  0  0  0  0999 V2000
   -3.8466    1.9109    0.5914 O   0  0  0  0  0  0  0  0  0  0  0  0
    5.0136   -0.9056   -0.6496 O   0  0  0  0  0  0  0  0  0  0  0  0
    3.3999    0.2784   -1.7319 O   0  0  0  0  0  0  0  0  0  0  0  0
   -3.3072   -1.5909   -0.1082 C   0  0  0  0  0  0  0  0  0  0  0  0
   -4.6074   -0.8440   -0.4280 C   0  0  0  0  0  0  0  0  0  0  0  0
   -3.5246   -2.8706    0.6999 C   0  0  0  0  0  0  0  0  0  0  0  0
   -4.4299    0.4511   -1.2179 C   0  0  0  0  0  0  0  0  0  0  0  0
   -2.2069   -3.5694    0.9975 C   0  0  0  0  0  0  0  0  0  0  0  0
   -3.5342    1.4401   -0.5000 C   0  0  0  0  0  0  0  0  0  0  0  0
    1.6301   -2.0223   -1.5460 C   0  0  0  0  0  0  0  0  0  0  0  0
    0.9320   -1.2885   -0.3934 C   0  0  0  0  0  0  0  0  0  0  0  0
    3.1512   -2.1251   -1.4121 C   0  0  0  0  0  0  0  0  0  0  0  0
    1.1124   -1.9657    0.9354 C   0  0  0  0  0  0  0  0  0  0  0  0
   -2.2504    1.7871   -1.1729 C   0  0  0  0  0  0  0  0  0  0  0  0
    1.1554   -1.3082    2.1039 C   0  0  0  0  0  0  0  0  0  0  0  0
    1.0294    0.1821    2.2321 C   0  0  0  0  0  0  0  0  0  0  0  0
   -1.1760    2.1224   -0.4460 C   0  0  0  0  0  0  0  0  0  0  0  0
    2.3647    0.8537    2.0991 C   0  0  0  0  0  0  0  0  0  0  0  0
    3.8246   -0.7798   -1.2928 C   0  0  0  0  0  0  0  0  0  0  0  0
    1.4088    2.9366    1.0897 C   0  0  0  0  0  0  0  0  0  0  0  0
    2.5369    2.0829    1.5896 C   0  0  0  0  0  0  0  0  0  0  0  0
    0.1012    2.4402   -1.0463 C   0  0  0  0  0  0  0  0  0  0  0  0
    1.2229    2.7844   -0.3934 C   0  0  0  0  0  0  0  0  0  0  0  0
   -2.7965   -1.8350   -1.0480 H   0  0  0  0  0  0  0  0  0  0  0  0
   -2.6347   -0.9343    0.4567 H   0  0  0  0  0  0  0  0  0  0  0  0
   -5.1200   -0.6164    0.5154 H   0  0  0  0  0  0  0  0  0  0  0  0
   -5.2734   -1.5081   -0.9923 H   0  0  0  0  0  0  0  0  0  0  0  0
   -4.1755   -3.5521    0.1402 H   0  0  0  0  0  0  0  0  0  0  0  0
   -4.0324   -2.6366    1.6426 H   0  0  0  0  0  0  0  0  0  0  0  0
   -4.0190    0.2218   -2.2076 H   0  0  0  0  0  0  0  0  0  0  0  0
   -5.3994    0.9347   -1.3826 H   0  0  0  0  0  0  0  0  0  0  0  0
   -1.5775   -2.9463    1.6386 H   0  0  0  0  0  0  0  0  0  0  0  0
   -1.6584   -3.7918    0.0768 H   0  0  0  0  0  0  0  0  0  0  0  0
   -2.3894   -4.5128    1.5218 H   0  0  0  0  0  0  0  0  0  0  0  0
    1.3875   -1.4992   -2.4799 H   0  0  0  0  0  0  0  0  0  0  0  0
    1.2162   -3.0341   -1.6410 H   0  0  0  0  0  0  0  0  0  0  0  0
   -0.1417   -1.2677   -0.6163 H   0  0  0  0  0  0  0  0  0  0  0  0
    1.2698   -0.2516   -0.3742 H   0  0  0  0  0  0  0  0  0  0  0  0
    3.5663   -2.6296   -2.2914 H   0  0  0  0  0  0  0  0  0  0  0  0
    3.4001   -2.7270   -0.5308 H   0  0  0  0  0  0  0  0  0  0  0  0
    1.1819   -3.0503    0.9493 H   0  0  0  0  0  0  0  0  0  0  0  0
   -2.2091    1.6954   -2.2530 H   0  0  0  0  0  0  0  0  0  0  0  0
    1.2879   -1.8798    3.0191 H   0  0  0  0  0  0  0  0  0  0  0  0
    0.2831    0.5515    1.5269 H   0  0  0  0  0  0  0  0  0  0  0  0
    0.6320    0.3947    3.2324 H   0  0  0  0  0  0  0  0  0  0  0  0
   -1.2624    2.1702    0.6338 H   0  0  0  0  0  0  0  0  0  0  0  0
    3.2430    0.3283    2.4678 H   0  0  0  0  0  0  0  0  0  0  0  0
    1.6723    3.9835    1.2890 H   0  0  0  0  0  0  0  0  0  0  0  0
    0.4954    2.7689    1.6655 H   0  0  0  0  0  0  0  0  0  0  0  0
    3.5426    2.4914    1.5328 H   0  0  0  0  0  0  0  0  0  0  0  0
    0.1508    2.3902   -2.1327 H   0  0  0  0  0  0  0  0  0  0  0  0
    2.0986    3.0037   -1.0036 H   0  0  0  0  0  0  0  0  0  0  0  0
    5.4789   -0.0455   -0.5706 H   0  0  0  0  0  0  0  0  0  0  0  0
  1  9  2  0  0  0  0
  2 19  1  0  0  0  0
  2 53  1  0  0  0  0
  3 19  2  0  0  0  0
  4  5  1  0  0  0  0
  4  6  1  0  0  0  0
  4 24  1  0  0  0  0
  4 25  1  0  0  0  0
  5  7  1  0  0  0  0
  5 26  1  0  0  0  0
  5 27  1  0  0  0  0
  6  8  1  0  0  0  0
  6 28  1  0  0  0  0
  6 29  1  0  0  0  0
  7  9  1  0  0  0  0
  7 30  1  0  0  0  0
  7 31  1  0  0  0  0
  8 32  1  0  0  0  0
  8 33  1  0  0  0  0
  8 34  1  0  0  0  0
  9 14  1  0  0  0  0
 10 11  1  0  0  0  0
 10 12  1  0  0  0  0
 10 35  1  0  0  0  0
 10 36  1  0  0  0  0
 11 13  1  0  0  0  0
 11 37  1  0  0  0  0
 11 38  1  0  0  0  0
 12 19  1  0  0  0  0
 12 39  1  0  0  0  0
 12 40  1  0  0  0  0
 13 15  2  0  0  0  0
 13 41  1  0  0  0  0
 14 17  2  0  0  0  0
 14 42  1  0  0  0  0
 15 16  1  0  0  0  0
 15 43  1  0  0  0  0
 16 18  1  0  0  0  0
 16 44  1  0  0  0  0
 16 45  1  0  0  0  0
 17 22  1  0  0  0  0
 17 46  1  0  0  0  0
 18 21  2  0  0  0  0
 18 47  1  0  0  0  0
 20 21  1  0  0  0  0
 20 23  1  0  0  0  0
 20 48  1  0  0  0  0
 20 49  1  0  0  0  0
 21 50  1  0  0  0  0
 22 23  2  0  0  0  0
 22 51  1  0  0  0  0
 23 52  1  0  0  0  0
M  END
> <PUBCHEM_COMPOUND_CID>
5280701

> <PUBCHEM_CONFORMER_RMSD>
1.4

> <PUBCHEM_CONFORMER_DIVERSEORDER>
2
62
17
78
39
88
8
51
3
84
64
16
94
10
97
66
1
85
87
14
98
9
100
30
54
31
93
36
106
58
60
21
101
73
75
55
24
12
91
32
59
52
11
49
5
103
15
18
104
83
13
37
33
44
45
69
4
102
20
26
57
47
92
70
68
86
99
56
28
63
77
96
80
81
23
50
48
72
29
42
27
105
46
35
89
76
61
90
41
22
7
38
82
71
19
65
79
40
25
6
67
74
34
53
43
95

> <PUBCHEM_MMFF94_PARTIAL_CHARGES>
27
1 -0.57
11 0.14
12 0.06
13 -0.29
14 -0.14
15 -0.29
16 0.28
17 -0.15
18 -0.29
19 0.66
2 -0.65
20 0.28
21 -0.29
22 -0.15
23 -0.29
3 -0.57
41 0.15
42 0.15
43 0.15
46 0.15
47 0.15
50 0.15
51 0.15
52 0.15
53 0.5
7 0.06
9 0.49

> <PUBCHEM_EFFECTIVE_ROTOR_COUNT>
14

> <PUBCHEM_PHARMACOPHORE_FEATURES>
7
1 1 acceptor
1 2 acceptor
1 3 acceptor
1 8 hydrophobe
3 2 3 19 anion
4 10 11 12 13 hydrophobe
4 4 5 6 7 hydrophobe

> <PUBCHEM_HEAVY_ATOM_COUNT>
23

> <PUBCHEM_ATOM_DEF_STEREO_COUNT>
0

> <PUBCHEM_ATOM_UDEF_STEREO_COUNT>
0

> <PUBCHEM_BOND_DEF_STEREO_COUNT>
4

> <PUBCHEM_BOND_UDEF_STEREO_COUNT>
0

> <PUBCHEM_ISOTOPIC_ATOM_COUNT>
0

> <PUBCHEM_COMPONENT_COUNT>
1

> <PUBCHEM_CACTVS_TAUTO_COUNT>
2

> <PUBCHEM_CONFORMER_ID>
005093BD00000002

> <PUBCHEM_MMFF94_ENERGY>
17.7136

> <PUBCHEM_FEATURE_SELFOVERLAP>
35.578

> <PUBCHEM_SHAPE_FINGERPRINT>
12422481 6 17972345944343856970
12553582 1 18272094941573542773
12596599 1 18411704262120936633
14251740 79 17470713868127940527
14251745 187 18341043043222760284
14251757 17 18334570214064714042
14251764 30 16661207086847250532
144659 178 17765165251395149970
15003188 3 17972606751769477749
15848702 105 18200587124808131830
20905425 154 17696482788860600435
21141583 151 18192708071301134247
23419403 2 17967810518808531386
23559900 14 18187937204929104509
238918 7 17975141933087224032
3052486 1 18060143093976781162
3493558 16 17055813864519656998
445580 8 17689158911832975443
6823239 73 18409174302786589697

> <PUBCHEM_SHAPE_MULTIPOLES>
455.72
8.38
4.27
2.12
4.75
0.19
0.67
2.27
-2.56
1.05
0.4
-2.01
0.24
2.43

> <PUBCHEM_SHAPE_SELFOVERLAP>
870.409

> <PUBCHEM_SHAPE_VOLUME>
276.5

> <PUBCHEM_COORDINATE_TYPE>
2
5
10

$$$$

