13133
  -OEChem-06261207483D

  9  8  0     0  0  0  0  0  0999 V2000
   -0.0794    1.0035   -1.6702 Cl  0  0  0  0  0  0  0  0  0  0  0  0
    1.2529    1.6048    0.8361 Cl  0  0  0  0  0  0  0  0  0  0  0  0
   -2.3503   -0.7476    0.0900 Cl  0  0  0  0  0  0  0  0  0  0  0  0
    1.3680   -1.8770   -0.0341 N   0  0  0  0  0  0  0  0  0  0  0  0
    0.1513    0.4524    0.0143 C   0  0  0  0  0  0  0  0  0  0  0  0
   -1.1749    0.4114    0.7772 C   0  0  0  0  0  0  0  0  0  0  0  0
    0.8323   -0.8475   -0.0134 C   0  0  0  0  0  0  0  0  0  0  0  0
   -1.0220    0.1065    1.8186 H   0  0  0  0  0  0  0  0  0  0  0  0
   -1.6625    1.3924    0.7849 H   0  0  0  0  0  0  0  0  0  0  0  0
  1  5  1  0  0  0  0
  2  5  1  0  0  0  0
  3  6  1  0  0  0  0
  4  7  3  0  0  0  0
  5  6  1  0  0  0  0
  5  7  1  0  0  0  0
  6  8  1  0  0  0  0
  6  9  1  0  0  0  0
M  END
> <PUBCHEM_COMPOUND_CID>
13133

> <PUBCHEM_CONFORMER_RMSD>
0.4

> <PUBCHEM_CONFORMER_DIVERSEORDER>
1
2
3

> <PUBCHEM_MMFF94_PARTIAL_CHARGES>
7
1 -0.29
2 -0.29
3 -0.29
4 -0.56
5 0.78
6 0.29
7 0.36

> <PUBCHEM_EFFECTIVE_ROTOR_COUNT>
1

> <PUBCHEM_PHARMACOPHORE_FEATURES>
1
1 4 acceptor

> <PUBCHEM_HEAVY_ATOM_COUNT>
7

> <PUBCHEM_ATOM_DEF_STEREO_COUNT>
0

> <PUBCHEM_ATOM_UDEF_STEREO_COUNT>
0

> <PUBCHEM_BOND_DEF_STEREO_COUNT>
0

> <PUBCHEM_BOND_UDEF_STEREO_COUNT>
0

> <PUBCHEM_ISOTOPIC_ATOM_COUNT>
0

> <PUBCHEM_COMPONENT_COUNT>
1

> <PUBCHEM_CACTVS_TAUTO_COUNT>
1

> <PUBCHEM_CONFORMER_ID>
0000334D00000001

> <PUBCHEM_MMFF94_ENERGY>
5.2203

> <PUBCHEM_FEATURE_SELFOVERLAP>
5.074

> <PUBCHEM_SHAPE_FINGERPRINT>
137420 1 14456033266001975761
21040471 1 17761767369247939377
23552449 11 18411429414020125315
29004967 10 18189909788311825474
5943 1 13157530739720165356

> <PUBCHEM_SHAPE_MULTIPOLES>
144.69
2.26
1.75
1.25
1.53
1.07
-0.53
-0.26
0.58
-0.82
-0.08
-0.18
-0.59
0.14

> <PUBCHEM_SHAPE_SELFOVERLAP>
243.196

> <PUBCHEM_SHAPE_VOLUME>
97.9

> <PUBCHEM_COORDINATE_TYPE>
2
5
10

$$$$

