9159
  -OEChem-07051213142D

 35 39  0     0  0  0  0  0  0999 V2000
    2.9180    0.5291    0.0000 C   0  0  0  0  0  0  0  0  0  0  0  0
    3.5748   -0.9428    0.0000 C   0  0  0  0  0  0  0  0  0  0  0  0
    2.1810   -0.1380    0.0000 C   0  0  0  0  0  0  0  0  0  0  0  0
    3.7841    0.0291    0.0000 C   0  0  0  0  0  0  0  0  0  0  0  0
    2.5861   -1.0458    0.0000 C   0  0  0  0  0  0  0  0  0  0  0  0
    2.9180    1.5290    0.0000 C   0  0  0  0  0  0  0  0  0  0  0  0
    4.1956   -1.7715    0.0000 C   0  0  0  0  0  0  0  0  0  0  0  0
    4.6501    0.5291    0.0000 C   0  0  0  0  0  0  0  0  0  0  0  0
    2.1496   -1.9848    0.0000 C   0  0  0  0  0  0  0  0  0  0  0  0
    3.7841    2.0290    0.0000 C   0  0  0  0  0  0  0  0  0  0  0  0
    3.7809   -2.7203    0.0000 C   0  0  0  0  0  0  0  0  0  0  0  0
    4.6501    1.5290    0.0000 C   0  0  0  0  0  0  0  0  0  0  0  0
    2.7511   -2.8277    0.0000 C   0  0  0  0  0  0  0  0  0  0  0  0
    2.0080    2.0359    0.0000 C   0  0  0  0  0  0  0  0  0  0  0  0
    5.2655   -1.6349    0.0000 C   0  0  0  0  0  0  0  0  0  0  0  0
    3.8001    3.0706    0.0000 C   0  0  0  0  0  0  0  0  0  0  0  0
    4.4074   -3.5983    0.0000 C   0  0  0  0  0  0  0  0  0  0  0  0
    2.0000    3.0775    0.0000 C   0  0  0  0  0  0  0  0  0  0  0  0
    5.9121   -2.4982    0.0000 C   0  0  0  0  0  0  0  0  0  0  0  0
    2.9021    3.5983    0.0000 C   0  0  0  0  0  0  0  0  0  0  0  0
    5.4802   -3.4865    0.0000 C   0  0  0  0  0  0  0  0  0  0  0  0
    1.8156    0.3628    0.0000 H   0  0  0  0  0  0  0  0  0  0  0  0
    1.6445   -0.4488    0.0000 H   0  0  0  0  0  0  0  0  0  0  0  0
    5.1870    0.2191    0.0000 H   0  0  0  0  0  0  0  0  0  0  0  0
    1.5323   -2.0419    0.0000 H   0  0  0  0  0  0  0  0  0  0  0  0
    5.1870    1.8390    0.0000 H   0  0  0  0  0  0  0  0  0  0  0  0
    2.4962   -3.3929    0.0000 H   0  0  0  0  0  0  0  0  0  0  0  0
    1.4747    1.7197    0.0000 H   0  0  0  0  0  0  0  0  0  0  0  0
    5.5072   -1.0640    0.0000 H   0  0  0  0  0  0  0  0  0  0  0  0
    4.3406    3.3743    0.0000 H   0  0  0  0  0  0  0  0  0  0  0  0
    4.1526   -4.1635    0.0000 H   0  0  0  0  0  0  0  0  0  0  0  0
    1.4619    3.3854    0.0000 H   0  0  0  0  0  0  0  0  0  0  0  0
    6.5280   -2.4268    0.0000 H   0  0  0  0  0  0  0  0  0  0  0  0
    2.9045    4.2183    0.0000 H   0  0  0  0  0  0  0  0  0  0  0  0
    5.8461   -3.9870    0.0000 H   0  0  0  0  0  0  0  0  0  0  0  0
  1  3  1  0  0  0  0
  1  4  2  0  0  0  0
  1  6  1  0  0  0  0
  2  4  1  0  0  0  0
  2  5  2  0  0  0  0
  2  7  1  0  0  0  0
  3  5  1  0  0  0  0
  3 22  1  0  0  0  0
  3 23  1  0  0  0  0
  4  8  1  0  0  0  0
  5  9  1  0  0  0  0
  6 10  1  0  0  0  0
  6 14  2  0  0  0  0
  7 11  1  0  0  0  0
  7 15  2  0  0  0  0
  8 12  2  0  0  0  0
  8 24  1  0  0  0  0
  9 13  2  0  0  0  0
  9 25  1  0  0  0  0
 10 12  1  0  0  0  0
 10 16  2  0  0  0  0
 11 13  1  0  0  0  0
 11 17  2  0  0  0  0
 12 26  1  0  0  0  0
 13 27  1  0  0  0  0
 14 18  1  0  0  0  0
 14 28  1  0  0  0  0
 15 19  1  0  0  0  0
 15 29  1  0  0  0  0
 16 20  1  0  0  0  0
 16 30  1  0  0  0  0
 17 21  1  0  0  0  0
 17 31  1  0  0  0  0
 18 20  2  0  0  0  0
 18 32  1  0  0  0  0
 19 21  2  0  0  0  0
 19 33  1  0  0  0  0
 20 34  1  0  0  0  0
 21 35  1  0  0  0  0
M  END
> <PUBCHEM_COMPOUND_CID>
9159

> <PUBCHEM_COMPOUND_CANONICALIZED>
1

> <PUBCHEM_CACTVS_COMPLEXITY>
386

> <PUBCHEM_CACTVS_HBOND_ACCEPTOR>
0

> <PUBCHEM_CACTVS_HBOND_DONOR>
0

> <PUBCHEM_CACTVS_ROTATABLE_BOND>
0

> <PUBCHEM_CACTVS_SUBSKEYS>
AAADccB4AAAAAAAAAAAAAAAAAAAAAYAAAAAwYMGAAAAAAGDBVAAAGAAAAAAADACAGAAwAMAAAACAAiBCAAACAAAgAAAIiAAAAIgIICKAERCAIAAggAAIiAcAgMAOwAACAAAQAACAAAQAACAAAQAACAAAAA==

> <PUBCHEM_IUPAC_INCHI>
InChI=1S/C21H14/c1-3-7-17-14(5-1)11-12-19-20(17)13-16-10-9-15-6-2-4-8-18(15)21(16)19/h1-12H,13H2

> <PUBCHEM_IUPAC_INCHIKEY>
QEHKXCNHQCUFRW-UHFFFAOYSA-N

> <PUBCHEM_XLOGP3>
6.9

> <PUBCHEM_EXACT_MASS>
266.10955

> <PUBCHEM_MOLECULAR_FORMULA>
C21H14

> <PUBCHEM_MOLECULAR_WEIGHT>
266.33586

> <PUBCHEM_OPENEYE_CAN_SMILES>
C1C2=C(C3=C1C4=CC=CC=C4C=C3)C5=CC=CC=C5C=C2

> <PUBCHEM_OPENEYE_ISO_SMILES>
C1C2=C(C3=C1C4=CC=CC=C4C=C3)C5=CC=CC=C5C=C2

> <PUBCHEM_CACTVS_TPSA>
0

> <PUBCHEM_MONOISOTOPIC_WEIGHT>
266.10955

> <PUBCHEM_TOTAL_CHARGE>
0

> <PUBCHEM_HEAVY_ATOM_COUNT>
21

> <PUBCHEM_ATOM_DEF_STEREO_COUNT>
0

> <PUBCHEM_ATOM_UDEF_STEREO_COUNT>
0

> <PUBCHEM_BOND_DEF_STEREO_COUNT>
0

> <PUBCHEM_BOND_UDEF_STEREO_COUNT>
0

> <PUBCHEM_ISOTOPIC_ATOM_COUNT>
0

> <PUBCHEM_COMPONENT_COUNT>
1

> <PUBCHEM_CACTVS_TAUTO_COUNT>
1

> <PUBCHEM_COORDINATE_TYPE>
1
5
255

> <PUBCHEM_BONDANNOTATIONS>
1  4  8
1  6  8
10  12  8
10  16  8
11  13  8
11  17  8
14  18  8
15  19  8
16  20  8
17  21  8
18  20  8
19  21  8
2  5  8
2  7  8
4  8  8
5  9  8
6  10  8
6  14  8
7  11  8
7  15  8
8  12  8
9  13  8

$$$$

