104756
  -OEChem-07051213153D

 36 41  0     1  0  0  0  0  0999 V2000
   -4.2189   -2.3074   -0.3663 O   0  0  0  0  0  0  0  0  0  0  0  0
   -4.7932    0.0614   -0.1509 O   0  0  0  0  0  0  0  0  0  0  0  0
   -3.1110    1.6927    0.2844 O   0  0  0  0  0  0  0  0  0  0  0  0
    0.2390   -1.6127    0.4131 O   0  0  0  0  0  0  0  0  0  0  0  0
    1.4067    3.0390   -0.5009 O   0  0  0  0  0  0  0  0  0  0  0  0
    1.8422   -3.2551    0.4786 O   0  0  0  0  0  0  0  0  0  0  0  0
    4.6099   -2.2316   -0.0375 O   0  0  0  0  0  0  0  0  0  0  0  0
   -3.0426   -1.5157   -0.5644 C   0  0  2  0  0  0  0  0  0  0  0  0
   -2.6208   -0.6951    0.6018 C   0  0  2  0  0  0  0  0  0  0  0  0
   -4.3805   -1.0316   -1.0015 C   0  0  1  0  0  0  0  0  0  0  0  0
   -3.6856    0.4294    0.6966 C   0  0  2  0  0  0  0  0  0  0  0  0
   -1.4172    0.1224    0.3337 C   0  0  0  0  0  0  0  0  0  0  0  0
   -1.7691    1.4493    0.1636 C   0  0  0  0  0  0  0  0  0  0  0  0
   -0.0886   -0.2512    0.2307 C   0  0  0  0  0  0  0  0  0  0  0  0
    0.8960    0.7052   -0.0495 C   0  0  0  0  0  0  0  0  0  0  0  0
   -0.8304    2.4259   -0.1189 C   0  0  0  0  0  0  0  0  0  0  0  0
    2.2730    0.2449   -0.1471 C   0  0  0  0  0  0  0  0  0  0  0  0
    0.5126    2.0468   -0.2240 C   0  0  0  0  0  0  0  0  0  0  0  0
    3.4514    1.1147   -0.4384 C   0  0  0  0  0  0  0  0  0  0  0  0
    2.5477   -1.0482    0.0296 C   0  0  0  0  0  0  0  0  0  0  0  0
    4.6387    0.1533   -0.4339 C   0  0  0  0  0  0  0  0  0  0  0  0
    1.5508   -2.0762    0.3229 C   0  0  0  0  0  0  0  0  0  0  0  0
    4.0032   -1.1757   -0.1336 C   0  0  0  0  0  0  0  0  0  0  0  0
    1.9866    3.7156    0.6118 C   0  0  0  0  0  0  0  0  0  0  0  0
   -2.2984   -1.8462   -1.2689 H   0  0  0  0  0  0  0  0  0  0  0  0
   -2.5500   -1.2722    1.5287 H   0  0  0  0  0  0  0  0  0  0  0  0
   -4.6178   -1.0037   -2.0553 H   0  0  0  0  0  0  0  0  0  0  0  0
   -4.0571    0.5433    1.7217 H   0  0  0  0  0  0  0  0  0  0  0  0
   -1.1312    3.4600   -0.2545 H   0  0  0  0  0  0  0  0  0  0  0  0
    3.3733    1.6165   -1.4080 H   0  0  0  0  0  0  0  0  0  0  0  0
    3.6294    1.8513    0.3450 H   0  0  0  0  0  0  0  0  0  0  0  0
    5.3623    0.4079    0.3458 H   0  0  0  0  0  0  0  0  0  0  0  0
    5.1293    0.1199   -1.4109 H   0  0  0  0  0  0  0  0  0  0  0  0
    2.9561    4.1210    0.3096 H   0  0  0  0  0  0  0  0  0  0  0  0
    2.1191    3.0589    1.4783 H   0  0  0  0  0  0  0  0  0  0  0  0
    1.3397    4.5516    0.8964 H   0  0  0  0  0  0  0  0  0  0  0  0
  1  8  1  0  0  0  0
  1 10  1  0  0  0  0
  2 10  1  0  0  0  0
  2 11  1  0  0  0  0
  3 11  1  0  0  0  0
  3 13  1  0  0  0  0
  4 14  1  0  0  0  0
  4 22  1  0  0  0  0
  5 18  1  0  0  0  0
  5 24  1  0  0  0  0
  6 22  2  0  0  0  0
  7 23  2  0  0  0  0
  8  9  1  0  0  0  0
  8 10  1  0  0  0  0
  8 25  1  0  0  0  0
  9 11  1  0  0  0  0
  9 12  1  0  0  0  0
  9 26  1  0  0  0  0
 10 27  1  0  0  0  0
 11 28  1  0  0  0  0
 12 13  1  0  0  0  0
 12 14  2  0  0  0  0
 13 16  2  0  0  0  0
 14 15  1  0  0  0  0
 15 17  1  0  0  0  0
 15 18  2  0  0  0  0
 16 18  1  0  0  0  0
 16 29  1  0  0  0  0
 17 19  1  0  0  0  0
 17 20  2  0  0  0  0
 19 21  1  0  0  0  0
 19 30  1  0  0  0  0
 19 31  1  0  0  0  0
 20 22  1  0  0  0  0
 20 23  1  0  0  0  0
 21 23  1  0  0  0  0
 21 32  1  0  0  0  0
 21 33  1  0  0  0  0
 24 34  1  0  0  0  0
 24 35  1  0  0  0  0
 24 36  1  0  0  0  0
M  END
> <PUBCHEM_COMPOUND_CID>
104756

> <PUBCHEM_CONFORMER_RMSD>
0.6

> <PUBCHEM_CONFORMER_DIVERSEORDER>
1

> <PUBCHEM_MMFF94_PARTIAL_CHARGES>
27
1 -0.3
10 0.2
11 0.56
12 -0.14
13 0.08
14 0.08
15 0.03
16 -0.15
17 -0.17
18 0.08
19 0.14
2 -0.43
20 0.03
21 0.06
22 0.71
23 0.49
24 0.28
25 0.1
27 0.1
29 0.15
3 -0.36
4 -0.23
5 -0.36
6 -0.57
7 -0.57
8 -0.05
9 0.24

> <PUBCHEM_EFFECTIVE_ROTOR_COUNT>
2

> <PUBCHEM_PHARMACOPHORE_FEATURES>
12
1 1 acceptor
1 2 acceptor
1 20 anion
1 3 acceptor
1 5 acceptor
1 6 acceptor
1 7 acceptor
5 17 19 20 21 23 rings
5 3 9 11 12 13 rings
6 1 2 8 9 10 11 rings
6 12 13 14 15 16 18 rings
6 4 14 15 17 20 22 rings

> <PUBCHEM_HEAVY_ATOM_COUNT>
24

> <PUBCHEM_ATOM_DEF_STEREO_COUNT>
4

> <PUBCHEM_ATOM_UDEF_STEREO_COUNT>
0

> <PUBCHEM_BOND_DEF_STEREO_COUNT>
0

> <PUBCHEM_BOND_UDEF_STEREO_COUNT>
0

> <PUBCHEM_ISOTOPIC_ATOM_COUNT>
0

> <PUBCHEM_COMPONENT_COUNT>
1

> <PUBCHEM_CACTVS_TAUTO_COUNT>
10

> <PUBCHEM_CONFORMER_ID>
0001993400000001

> <PUBCHEM_MMFF94_ENERGY>
88.2888

> <PUBCHEM_FEATURE_SELFOVERLAP>
61.332

> <PUBCHEM_SHAPE_FINGERPRINT>
10616163 171 18336263556429471799
10967382 1 18412539916595643104
1100329 8 18266463092322946874
11578080 2 17750820833804889729
11680986 33 18053940654310917632
11806522 49 18410293575400541492
12236239 1 18114177541210771979
12403259 226 18411986866468466732
12553582 1 18340772632176814739
12596599 1 17896298350724596350
13140716 1 18267010657687261361
138480 1 18410573968220125456
14787075 74 18341608197032513580
14790565 3 18268698425559560780
15196674 1 18411416245702948008
15536298 74 18189897526212168569
16945 1 18412822460744968937
17349148 13 17988924509079002050
17357779 13 18131082527702439205
17492 54 18058156246838683316
17492 89 18265333915482904847
18681886 176 18334300842649105202
19141452 34 18261950864327493521
19591789 44 18339078177173018326
200 152 18335141990318353287
20028762 73 18187931621129007982
20645477 70 18199192797803186401
21029758 11 18410855460265669240
21267235 1 18338788005072565379
21421861 104 17842556533220356874
21634736 98 18263646160495923071
221490 88 18268987579625910643
2255824 54 18340202977642372076
23366157 5 18129381505984368712
23402539 116 18409451418645892406
23419403 2 14397944782664212801
23557571 272 18042965565703009598
23559900 14 18336557040187398785
2871803 45 18341897419576396734
335352 9 18338515356591232477
34934 24 18268711782590495617
352729 6 17187280171639575785
46194498 28 17559965316432355783
463206 1 18340762723450295218
5104073 3 18409164424140146643
6443956 14 18411699885275156428
7364860 26 18336265630824900728
9709674 26 18340765927748774323
9981440 41 17473269773237961472

> <PUBCHEM_SHAPE_MULTIPOLES>
452.82
8.7
3.5
0.77
2.39
1.32
0.02
-3.89
1.3
-2.07
-0.29
0.25
-0.01
-0.58

> <PUBCHEM_SHAPE_SELFOVERLAP>
1044.922

> <PUBCHEM_SHAPE_VOLUME>
232.7

> <PUBCHEM_COORDINATE_TYPE>
2
5
10

$$$$

