8642
  -OEChem-07051212493D

 33 34  0     1  0  0  0  0  0999 V2000
   -3.5530   -1.5375    0.1561 P   0  0  0  0  0  0  0  0  0  0  0  0
    1.1176   -2.9953   -0.3165 F   0  0  0  0  0  0  0  0  0  0  0  0
   -0.4506    1.3292    1.0212 O   0  0  0  0  0  0  0  0  0  0  0  0
   -0.9313    4.1464   -0.0762 O   0  0  0  0  0  0  0  0  0  0  0  0
   -2.7615   -0.2053    0.6230 O   0  0  0  0  0  0  0  0  0  0  0  0
    3.6075    1.7527    0.3918 O   0  0  0  0  0  0  0  0  0  0  0  0
   -2.5464   -2.2312   -0.9024 O   0  0  0  0  0  0  0  0  0  0  0  0
   -4.7301   -0.9468   -0.7823 O   0  0  0  0  0  0  0  0  0  0  0  0
   -4.0184   -2.4235    1.2745 O   0  0  0  0  0  0  0  0  0  0  0  0
    3.8294   -2.8118   -0.2539 O   0  0  0  0  0  0  0  0  0  0  0  0
    1.6024    0.5663    0.1977 N   0  0  0  0  0  0  0  0  0  0  0  0
    3.7173   -0.5192    0.0713 N   0  0  0  0  0  0  0  0  0  0  0  0
   -1.0267    2.8637   -0.6917 C   0  0  2  0  0  0  0  0  0  0  0  0
   -1.5832    1.8527    0.3011 C   0  0  1  0  0  0  0  0  0  0  0  0
    0.3586    2.3331   -0.9802 C   0  0  0  0  0  0  0  0  0  0  0  0
    0.7573    1.7144    0.3497 C   0  0  1  0  0  0  0  0  0  0  0  0
   -2.2888    0.6845   -0.3753 C   0  0  0  0  0  0  0  0  0  0  0  0
    3.0128    0.6844    0.2329 C   0  0  0  0  0  0  0  0  0  0  0  0
    1.0067   -0.6749    0.0129 C   0  0  0  0  0  0  0  0  0  0  0  0
    1.7050   -1.7983   -0.1377 C   0  0  0  0  0  0  0  0  0  0  0  0
    3.1756   -1.7837   -0.1158 C   0  0  0  0  0  0  0  0  0  0  0  0
   -1.6446    2.9734   -1.5879 H   0  0  0  0  0  0  0  0  0  0  0  0
   -2.2454    2.3165    1.0406 H   0  0  0  0  0  0  0  0  0  0  0  0
    0.3059    1.5733   -1.7694 H   0  0  0  0  0  0  0  0  0  0  0  0
    1.0743    3.0981   -1.2975 H   0  0  0  0  0  0  0  0  0  0  0  0
    1.2557    2.4613    0.9788 H   0  0  0  0  0  0  0  0  0  0  0  0
   -1.6364    0.1523   -1.0711 H   0  0  0  0  0  0  0  0  0  0  0  0
   -3.1453    1.0629   -0.9433 H   0  0  0  0  0  0  0  0  0  0  0  0
   -0.5189    4.7477   -0.7196 H   0  0  0  0  0  0  0  0  0  0  0  0
   -0.0683   -0.7397   -0.0009 H   0  0  0  0  0  0  0  0  0  0  0  0
    4.7314   -0.4564    0.0935 H   0  0  0  0  0  0  0  0  0  0  0  0
   -2.7825   -3.1055   -1.2792 H   0  0  0  0  0  0  0  0  0  0  0  0
   -5.4169   -1.5583   -1.1236 H   0  0  0  0  0  0  0  0  0  0  0  0
  1  5  1  0  0  0  0
  1  7  1  0  0  0  0
  1  8  1  0  0  0  0
  1  9  2  0  0  0  0
  2 20  1  0  0  0  0
  3 14  1  0  0  0  0
  3 16  1  0  0  0  0
  4 13  1  0  0  0  0
  4 29  1  0  0  0  0
  5 17  1  0  0  0  0
  6 18  2  0  0  0  0
  7 32  1  0  0  0  0
  8 33  1  0  0  0  0
 10 21  2  0  0  0  0
 11 16  1  0  0  0  0
 11 18  1  0  0  0  0
 11 19  1  0  0  0  0
 12 18  1  0  0  0  0
 12 21  1  0  0  0  0
 12 31  1  0  0  0  0
 13 14  1  0  0  0  0
 13 15  1  0  0  0  0
 13 22  1  0  0  0  0
 14 17  1  0  0  0  0
 14 23  1  0  0  0  0
 15 16  1  0  0  0  0
 15 24  1  0  0  0  0
 15 25  1  0  0  0  0
 16 26  1  0  0  0  0
 17 27  1  0  0  0  0
 17 28  1  0  0  0  0
 19 20  2  0  0  0  0
 19 30  1  0  0  0  0
 20 21  1  0  0  0  0
M  END
> <PUBCHEM_COMPOUND_CID>
8642

> <PUBCHEM_CONFORMER_RMSD>
0.8

> <PUBCHEM_CONFORMER_DIVERSEORDER>
1
17
18
29
34
4
30
2
15
39
37
23
27
8
9
25
32
38
20
6
24
5
22
35
36
12
31
33
13
14
26
19
16
21
11
28
3
10
7

> <PUBCHEM_MMFF94_PARTIAL_CHARGES>
25
1 1.51
10 -0.57
11 -0.47
12 -0.49
13 0.28
14 0.28
16 0.58
17 0.28
18 0.69
19 -0.04
2 -0.15
20 0.16
21 0.62
29 0.4
3 -0.56
30 0.15
31 0.37
32 0.5
33 0.5
4 -0.68
5 -0.55
6 -0.57
7 -0.77
8 -0.77
9 -0.7

> <PUBCHEM_EFFECTIVE_ROTOR_COUNT>
5

> <PUBCHEM_PHARMACOPHORE_FEATURES>
12
1 10 acceptor
1 12 donor
1 3 acceptor
1 4 acceptor
1 4 donor
1 6 acceptor
1 7 acceptor
1 8 acceptor
1 9 acceptor
4 1 7 8 9 anion
5 3 13 14 15 16 rings
6 11 12 18 19 20 21 rings

> <PUBCHEM_HEAVY_ATOM_COUNT>
21

> <PUBCHEM_ATOM_DEF_STEREO_COUNT>
3

> <PUBCHEM_ATOM_UDEF_STEREO_COUNT>
0

> <PUBCHEM_BOND_DEF_STEREO_COUNT>
0

> <PUBCHEM_BOND_UDEF_STEREO_COUNT>
0

> <PUBCHEM_ISOTOPIC_ATOM_COUNT>
0

> <PUBCHEM_COMPONENT_COUNT>
1

> <PUBCHEM_CACTVS_TAUTO_COUNT>
3

> <PUBCHEM_CONFORMER_ID>
000021C200000001

> <PUBCHEM_MMFF94_ENERGY>
13.7272

> <PUBCHEM_FEATURE_SELFOVERLAP>
60.929

> <PUBCHEM_SHAPE_FINGERPRINT>
10616163 171 18337670918306401110
10967382 1 18266179414027545610
116883 192 18340491161579629677
12500047 106 17764591314877935700
12506688 2 18335421257370767473
12553582 1 18340190921906243713
13004483 165 18338247049867901095
13140716 1 18337950198470440730
138480 1 15024431540362775181
14178342 30 18122077647993639056
14223421 5 18336270149325181124
14251705 54 18340483378961602771
14251757 5 17039205079625944558
14790565 3 17907008483033038620
14863182 85 18196361533823393510
15422964 175 18412267198925601045
17357779 13 18339095847011417903
17859628 97 16900178457190111707
19591789 44 16971662621401474029
20291156 8 18409727348561328439
20645477 70 17910687458298884863
21665056 4 17764590219550485781
221490 88 18337668724126920850
23557571 272 18271540765626377368
23558518 356 18200868608211545528
23559900 14 18265906928660472432
238 59 16043961277730283317
2748010 2 18410020952615236916
2871803 45 18412549829084932055
350125 39 18408606964051825040
46194498 28 17702957911837125645
474229 33 18338521812085229760
6443956 14 18340207389027498309
81228 2 18200871897998427081
8809292 202 18123747814440235818
9709674 26 18119533390496996468

> <PUBCHEM_SHAPE_MULTIPOLES>
371.83
7.15
4.26
0.86
1.73
1.37
-0.02
-5.95
-0.23
0.61
0.44
0.49
-0.01
0.63

> <PUBCHEM_SHAPE_SELFOVERLAP>
764.968

> <PUBCHEM_SHAPE_VOLUME>
215

> <PUBCHEM_COORDINATE_TYPE>
2
5
10

$$$$

