11663
  -OEChem-06261205573D

 14 13  0     0  0  0  0  0  0999 V2000
   -2.0960   -1.0086    0.2926 Br  0  0  0  0  0  0  0  0  0  0  0  0
   -0.8501    1.8176   -0.6436 Br  0  0  0  0  0  0  0  0  0  0  0  0
    0.7331   -0.4465    0.3132 C   0  0  0  0  0  0  0  0  0  0  0  0
   -0.6195    0.2571    0.4983 C   0  0  0  0  0  0  0  0  0  0  0  0
    1.9038    0.5058    0.5876 C   0  0  0  0  0  0  0  0  0  0  0  0
    0.9287   -1.1255   -1.0480 C   0  0  0  0  0  0  0  0  0  0  0  0
    0.7928   -1.2420    1.0694 H   0  0  0  0  0  0  0  0  0  0  0  0
   -0.7150    0.6358    1.5210 H   0  0  0  0  0  0  0  0  0  0  0  0
    2.8426   -0.0562    0.6489 H   0  0  0  0  0  0  0  0  0  0  0  0
    2.0265    1.2538   -0.2018 H   0  0  0  0  0  0  0  0  0  0  0  0
    1.7709    1.0263    1.5419 H   0  0  0  0  0  0  0  0  0  0  0  0
    0.1947   -1.9164   -1.2247 H   0  0  0  0  0  0  0  0  0  0  0  0
    0.8645   -0.4092   -1.8730 H   0  0  0  0  0  0  0  0  0  0  0  0
    1.9175   -1.5955   -1.0993 H   0  0  0  0  0  0  0  0  0  0  0  0
  1  4  1  0  0  0  0
  2  4  1  0  0  0  0
  3  4  1  0  0  0  0
  3  5  1  0  0  0  0
  3  6  1  0  0  0  0
  3  7  1  0  0  0  0
  4  8  1  0  0  0  0
  5  9  1  0  0  0  0
  5 10  1  0  0  0  0
  5 11  1  0  0  0  0
  6 12  1  0  0  0  0
  6 13  1  0  0  0  0
  6 14  1  0  0  0  0
M  END
> <PUBCHEM_COMPOUND_CID>
11663

> <PUBCHEM_CONFORMER_RMSD>
0.4

> <PUBCHEM_CONFORMER_DIVERSEORDER>
1
2
3

> <PUBCHEM_MMFF94_PARTIAL_CHARGES>
3
1 -0.23
2 -0.23
4 0.46

> <PUBCHEM_EFFECTIVE_ROTOR_COUNT>
1

> <PUBCHEM_PHARMACOPHORE_FEATURES>
4
1 1 hydrophobe
1 2 hydrophobe
3 1 2 4 hydrophobe
3 3 5 6 hydrophobe

> <PUBCHEM_HEAVY_ATOM_COUNT>
6

> <PUBCHEM_ATOM_DEF_STEREO_COUNT>
0

> <PUBCHEM_ATOM_UDEF_STEREO_COUNT>
0

> <PUBCHEM_BOND_DEF_STEREO_COUNT>
0

> <PUBCHEM_BOND_UDEF_STEREO_COUNT>
0

> <PUBCHEM_ISOTOPIC_ATOM_COUNT>
0

> <PUBCHEM_COMPONENT_COUNT>
1

> <PUBCHEM_CACTVS_TAUTO_COUNT>
1

> <PUBCHEM_CONFORMER_ID>
00002D8F00000001

> <PUBCHEM_MMFF94_ENERGY>
7.3631

> <PUBCHEM_FEATURE_SELFOVERLAP>
21.633

> <PUBCHEM_SHAPE_FINGERPRINT>
137420 1 9239067363725969073
16714656 1 18190180075104341232
20711978 78 16950838231943433431
21040471 1 17697037311603039477
23552449 1 18271820032979302729
24536 1 17678465383293652082
29004967 10 18340763724435735387
5943 1 8421563966998931348

> <PUBCHEM_SHAPE_MULTIPOLES>
135.36
2.47
1.78
1.03
0.29
0.9
0.19
-0.62
-0.41
0.61
0.47
-0.21
-0.1
0.43

> <PUBCHEM_SHAPE_SELFOVERLAP>
212.14

> <PUBCHEM_SHAPE_VOLUME>
98.1

> <PUBCHEM_COORDINATE_TYPE>
2
5
10

$$$$

