5281444
  -OEChem-07051212572D

 58 60  0     1  0  0  0  0  0999 V2000
    7.0414   -1.6221    0.0000 O   0  0  0  0  0  0  0  0  0  0  0  0
    7.3774    1.9172    0.0000 O   0  0  0  0  0  0  0  0  0  0  0  0
    4.3718    2.5528    0.0000 O   0  0  0  0  0  0  0  0  0  0  0  0
    3.4863   -1.5864    0.0000 O   0  0  0  0  0  0  0  0  0  0  0  0
    5.0066    4.2118    0.0000 O   0  0  0  0  0  0  0  0  0  0  0  0
    8.5364    0.6301    0.0000 O   0  0  0  0  0  0  0  0  0  0  0  0
    4.6453   -2.8736    0.0000 O   0  0  0  0  0  0  0  0  0  0  0  0
    6.8331   -0.6436    0.0000 C   0  0  1  0  0  0  0  0  0  0  0  0
    6.0900   -1.3127    0.0000 C   0  0  1  0  0  0  0  0  0  0  0  0
    7.0410    0.3346    0.0000 C   0  0  0  0  0  0  0  0  0  0  0  0
    5.0955   -1.4172    0.0000 C   0  0  0  0  0  0  0  0  0  0  0  0
    6.6343    1.2481    0.0000 C   0  0  2  0  0  0  0  0  0  0  0  0
    7.5763    0.0255    0.0000 C   0  0  0  0  0  0  0  0  0  0  0  0
    5.7683    1.7481    0.0000 C   0  0  2  0  0  0  0  0  0  0  0  0
    4.2294   -0.9173    0.0000 C   0  0  1  0  0  0  0  0  0  0  0  0
    4.7738    1.6436    0.0000 C   0  0  1  0  0  0  0  0  0  0  0  0
    3.8227   -0.0037    0.0000 C   0  0  0  0  0  0  0  0  0  0  0  0
    5.9724    2.7210    0.0000 C   0  0  0  0  0  0  0  0  0  0  0  0
    4.0306    0.9744    0.0000 C   0  0  0  0  0  0  0  0  0  0  0  0
    5.1111    3.2173    0.0000 C   0  0  0  0  0  0  0  0  0  0  0  0
    2.8282   -0.1082    0.0000 C   0  0  0  0  0  0  0  0  0  0  0  0
    6.8853    3.1293    0.0000 C   0  0  0  0  0  0  0  0  0  0  0  0
    8.3285    1.6082    0.0000 C   0  0  0  0  0  0  0  0  0  0  0  0
    3.6942   -2.5645    0.0000 C   0  0  0  0  0  0  0  0  0  0  0  0
    9.0716    2.2774    0.0000 C   0  0  0  0  0  0  0  0  0  0  0  0
    2.9511   -3.2337    0.0000 C   0  0  0  0  0  0  0  0  0  0  0  0
   10.0227    1.9683    0.0000 C   0  0  0  0  0  0  0  0  0  0  0  0
    8.8637    3.2555    0.0000 C   0  0  0  0  0  0  0  0  0  0  0  0
    3.1590   -4.2118    0.0000 C   0  0  0  0  0  0  0  0  0  0  0  0
    2.0000   -2.9246    0.0000 C   0  0  0  0  0  0  0  0  0  0  0  0
    6.0010   -2.1580    0.0000 H   0  0  0  0  0  0  0  0  0  0  0  0
    7.5780    0.0246    0.0000 H   0  0  0  0  0  0  0  0  0  0  0  0
    7.5018    0.7494    0.0000 H   0  0  0  0  0  0  0  0  0  0  0  0
    4.6347   -1.8321    0.0000 H   0  0  0  0  0  0  0  0  0  0  0  0
    5.3476   -1.9836    0.0000 H   0  0  0  0  0  0  0  0  0  0  0  0
    6.5695    1.8647    0.0000 H   0  0  0  0  0  0  0  0  0  0  0  0
    7.9911   -0.4352    0.0000 H   0  0  0  0  0  0  0  0  0  0  0  0
    8.0370    0.4404    0.0000 H   0  0  0  0  0  0  0  0  0  0  0  0
    7.1614    0.4863    0.0000 H   0  0  0  0  0  0  0  0  0  0  0  0
    6.5443    2.0948    0.0000 H   0  0  0  0  0  0  0  0  0  0  0  0
    3.6230   -0.7883    0.0000 H   0  0  0  0  0  0  0  0  0  0  0  0
    3.9426    1.8214    0.0000 H   0  0  0  0  0  0  0  0  0  0  0  0
    3.4937    1.2844    0.0000 H   0  0  0  0  0  0  0  0  0  0  0  0
    2.7634    0.5084    0.0000 H   0  0  0  0  0  0  0  0  0  0  0  0
    2.2116   -0.1730    0.0000 H   0  0  0  0  0  0  0  0  0  0  0  0
    2.8930   -0.7248    0.0000 H   0  0  0  0  0  0  0  0  0  0  0  0
    7.3875    2.7658    0.0000 H   0  0  0  0  0  0  0  0  0  0  0  0
    6.9490    3.7460    0.0000 H   0  0  0  0  0  0  0  0  0  0  0  0
    9.8311    1.3787    0.0000 H   0  0  0  0  0  0  0  0  0  0  0  0
   10.6124    1.7767    0.0000 H   0  0  0  0  0  0  0  0  0  0  0  0
   10.2143    2.5580    0.0000 H   0  0  0  0  0  0  0  0  0  0  0  0
    9.3245    3.6704    0.0000 H   0  0  0  0  0  0  0  0  0  0  0  0
    8.2741    3.4471    0.0000 H   0  0  0  0  0  0  0  0  0  0  0  0
    2.5525   -4.3407    0.0000 H   0  0  0  0  0  0  0  0  0  0  0  0
    3.2879   -4.8183    0.0000 H   0  0  0  0  0  0  0  0  0  0  0  0
    3.7654   -4.0829    0.0000 H   0  0  0  0  0  0  0  0  0  0  0  0
    1.8711   -2.3182    0.0000 H   0  0  0  0  0  0  0  0  0  0  0  0
    1.5392   -3.3395    0.0000 H   0  0  0  0  0  0  0  0  0  0  0  0
  1  8  1  0  0  0  0
  1  9  1  0  0  0  0
 12  2  1  6  0  0  0
  2 23  1  0  0  0  0
  3 16  1  0  0  0  0
  3 20  1  0  0  0  0
 15  4  1  6  0  0  0
  4 24  1  0  0  0  0
  5 20  2  0  0  0  0
  6 23  2  0  0  0  0
  7 24  2  0  0  0  0
  8  9  1  0  0  0  0
  8 10  1  0  0  0  0
  8 13  1  6  0  0  0
  9 11  1  0  0  0  0
  9 31  1  1  0  0  0
 10 12  1  0  0  0  0
 10 32  1  0  0  0  0
 10 33  1  0  0  0  0
 11 15  1  0  0  0  0
 11 34  1  0  0  0  0
 11 35  1  0  0  0  0
 12 14  1  0  0  0  0
 12 36  1  0  0  0  0
 13 37  1  0  0  0  0
 13 38  1  0  0  0  0
 13 39  1  0  0  0  0
 14 16  1  0  0  0  0
 14 18  1  0  0  0  0
 14 40  1  1  0  0  0
 15 17  1  0  0  0  0
 15 41  1  0  0  0  0
 16 19  1  0  0  0  0
 16 42  1  6  0  0  0
 17 19  2  0  0  0  0
 17 21  1  0  0  0  0
 18 20  1  0  0  0  0
 18 22  2  0  0  0  0
 19 43  1  0  0  0  0
 21 44  1  0  0  0  0
 21 45  1  0  0  0  0
 21 46  1  0  0  0  0
 22 47  1  0  0  0  0
 22 48  1  0  0  0  0
 23 25  1  0  0  0  0
 24 26  1  0  0  0  0
 25 27  1  0  0  0  0
 25 28  2  0  0  0  0
 26 29  1  0  0  0  0
 26 30  2  0  0  0  0
 27 49  1  0  0  0  0
 27 50  1  0  0  0  0
 27 51  1  0  0  0  0
 28 52  1  0  0  0  0
 28 53  1  0  0  0  0
 29 54  1  0  0  0  0
 29 55  1  0  0  0  0
 29 56  1  0  0  0  0
 30 57  1  0  0  0  0
 30 58  1  0  0  0  0
M  END
> <PUBCHEM_COMPOUND_CID>
5281444

> <PUBCHEM_COMPOUND_CANONICALIZED>
1

> <PUBCHEM_CACTVS_COMPLEXITY>
867

> <PUBCHEM_CACTVS_HBOND_ACCEPTOR>
7

> <PUBCHEM_CACTVS_HBOND_DONOR>
0

> <PUBCHEM_CACTVS_ROTATABLE_BOND>
6

> <PUBCHEM_CACTVS_SUBSKEYS>
AAADceB4OAAAAAAAAAAAAAAAEgAAASAAAAAAAAAAAAAAAACAAAAAGgAAAAAADVSggAICCAAABACIAiDSCAAAAAAgAAAACAEAAEgABBIAIQACEAAFwAAIIIPK6PyOAAAAAAAAAAAAAAAAAAAAAAAAAAAAAA==

> <PUBCHEM_IUPAC_INCHI>
InChI=1S/C23H28O7/c1-11(2)20(24)27-15-9-18-23(7,30-18)10-17(29-21(25)12(3)4)19-14(6)22(26)28-16(19)8-13(15)5/h8,15-19H,1,3,6,9-10H2,2,4-5,7H3/b13-8-/t15-,16+,17+,18+,19-,23+/m0/s1

> <PUBCHEM_IUPAC_INCHIKEY>
DFCLHINCVSRYBX-FVQSLUMHSA-N

> <PUBCHEM_XLOGP3_AA>
3.2

> <PUBCHEM_EXACT_MASS>
416.183503

> <PUBCHEM_MOLECULAR_FORMULA>
C23H28O7

> <PUBCHEM_MOLECULAR_WEIGHT>
416.46422

> <PUBCHEM_OPENEYE_CAN_SMILES>
CC1=CC2C(C(CC3(C(O3)CC1OC(=O)C(=C)C)C)OC(=O)C(=C)C)C(=C)C(=O)O2

> <PUBCHEM_OPENEYE_ISO_SMILES>
C/C/1=C/[C@@H]2[C@@H]([C@@H](C[C@@]3([C@H](O3)C[C@@H]1OC(=O)C(=C)C)C)OC(=O)C(=C)C)C(=C)C(=O)O2

> <PUBCHEM_CACTVS_TPSA>
91.4

> <PUBCHEM_MONOISOTOPIC_WEIGHT>
416.183503

> <PUBCHEM_TOTAL_CHARGE>
0

> <PUBCHEM_HEAVY_ATOM_COUNT>
30

> <PUBCHEM_ATOM_DEF_STEREO_COUNT>
6

> <PUBCHEM_ATOM_UDEF_STEREO_COUNT>
0

> <PUBCHEM_BOND_DEF_STEREO_COUNT>
1

> <PUBCHEM_BOND_UDEF_STEREO_COUNT>
0

> <PUBCHEM_ISOTOPIC_ATOM_COUNT>
0

> <PUBCHEM_COMPONENT_COUNT>
1

> <PUBCHEM_CACTVS_TAUTO_COUNT>
1

> <PUBCHEM_COORDINATE_TYPE>
1
5
255

> <PUBCHEM_BONDANNOTATIONS>
14  40  5
16  42  6
12  2  6
15  4  6
8  13  6
9  31  5

$$$$

