11953935
  -OEChem-07051212573D

 46 48  0     1  0  0  0  0  0999 V2000
    0.5511    2.9684   -0.8950 O   0  0  0  0  0  0  0  0  0  0  0  0
    1.6186   -0.7025    0.9363 O   0  0  0  0  0  0  0  0  0  0  0  0
   -2.3574   -0.3412   -0.7923 O   0  0  0  0  0  0  0  0  0  0  0  0
    4.7406    0.4912    0.0459 O   0  0  0  0  0  0  0  0  0  0  0  0
   -1.2102    4.4288   -0.7341 O   0  0  0  0  0  0  0  0  0  0  0  0
    1.4069   -4.1199   -0.1349 O   0  0  0  0  0  0  0  0  0  0  0  0
   -1.6391   -1.4853    1.0714 O   0  0  0  0  0  0  0  0  0  0  0  0
    0.8652    1.6269   -0.4566 C   0  0  2  0  0  0  0  0  0  0  0  0
   -0.4667    0.9542   -0.0795 C   0  0  2  0  0  0  0  0  0  0  0  0
    1.8647    1.7223    0.7201 C   0  0  0  0  0  0  0  0  0  0  0  0
    2.5423    0.3872    1.0974 C   0  0  2  0  0  0  0  0  0  0  0  0
   -0.9899   -0.0500   -1.1404 C   0  0  1  0  0  0  0  0  0  0  0  0
   -1.3350    2.1655    0.0833 C   0  0  0  0  0  0  0  0  0  0  0  0
    3.6198    0.0119    0.1088 C   0  0  0  0  0  0  0  0  0  0  0  0
    3.0834    0.3869    2.5192 C   0  0  0  0  0  0  0  0  0  0  0  0
   -0.3334   -1.4133   -1.3209 C   0  0  0  0  0  0  0  0  0  0  0  0
    1.9152   -1.2409   -0.3098 C   0  0  0  0  0  0  0  0  0  0  0  0
   -0.7088    3.3349   -0.5484 C   0  0  0  0  0  0  0  0  0  0  0  0
    0.8515   -1.9556   -0.9676 C   0  0  0  0  0  0  0  0  0  0  0  0
    3.1129   -0.9794   -0.8324 C   0  0  0  0  0  0  0  0  0  0  0  0
   -2.4733    2.2851    0.7730 C   0  0  0  0  0  0  0  0  0  0  0  0
    1.1769   -3.3859   -1.3196 C   0  0  0  0  0  0  0  0  0  0  0  0
   -2.5271   -1.0684    0.3413 C   0  0  0  0  0  0  0  0  0  0  0  0
   -3.9823   -1.2898    0.5696 C   0  0  0  0  0  0  0  0  0  0  0  0
   -4.9913   -0.7346   -0.3884 C   0  0  0  0  0  0  0  0  0  0  0  0
   -4.3345   -1.9965    1.6536 C   0  0  0  0  0  0  0  0  0  0  0  0
    1.3366    1.1524   -1.3213 H   0  0  0  0  0  0  0  0  0  0  0  0
   -0.3929    0.4795    0.9019 H   0  0  0  0  0  0  0  0  0  0  0  0
    2.6306    2.4741    0.4876 H   0  0  0  0  0  0  0  0  0  0  0  0
    1.3270    2.1212    1.5910 H   0  0  0  0  0  0  0  0  0  0  0  0
   -1.0231    0.4356   -2.1235 H   0  0  0  0  0  0  0  0  0  0  0  0
    3.5806   -0.5624    2.7504 H   0  0  0  0  0  0  0  0  0  0  0  0
    3.8066    1.1941    2.6743 H   0  0  0  0  0  0  0  0  0  0  0  0
    2.2701    0.4991    3.2446 H   0  0  0  0  0  0  0  0  0  0  0  0
   -0.9878   -2.0842   -1.8856 H   0  0  0  0  0  0  0  0  0  0  0  0
    3.5459   -1.2617   -1.7741 H   0  0  0  0  0  0  0  0  0  0  0  0
   -2.9064    1.4483    1.3058 H   0  0  0  0  0  0  0  0  0  0  0  0
   -2.9949    3.2337    0.8497 H   0  0  0  0  0  0  0  0  0  0  0  0
    2.0685   -3.4422   -1.9540 H   0  0  0  0  0  0  0  0  0  0  0  0
    0.3575   -3.8699   -1.8622 H   0  0  0  0  0  0  0  0  0  0  0  0
    1.6241   -5.0307   -0.3973 H   0  0  0  0  0  0  0  0  0  0  0  0
   -4.9173    0.3566   -0.4377 H   0  0  0  0  0  0  0  0  0  0  0  0
   -4.8344   -1.1434   -1.3919 H   0  0  0  0  0  0  0  0  0  0  0  0
   -6.0162   -0.9806   -0.0903 H   0  0  0  0  0  0  0  0  0  0  0  0
   -5.3792   -2.1919    1.8751 H   0  0  0  0  0  0  0  0  0  0  0  0
   -3.6080   -2.4006    2.3506 H   0  0  0  0  0  0  0  0  0  0  0  0
  1  8  1  0  0  0  0
  1 18  1  0  0  0  0
  2 11  1  0  0  0  0
  2 17  1  0  0  0  0
  3 12  1  0  0  0  0
  3 23  1  0  0  0  0
  4 14  2  0  0  0  0
  5 18  2  0  0  0  0
  6 22  1  0  0  0  0
  6 41  1  0  0  0  0
  7 23  2  0  0  0  0
  8  9  1  0  0  0  0
  8 10  1  0  0  0  0
  8 27  1  0  0  0  0
  9 12  1  0  0  0  0
  9 13  1  0  0  0  0
  9 28  1  0  0  0  0
 10 11  1  0  0  0  0
 10 29  1  0  0  0  0
 10 30  1  0  0  0  0
 11 14  1  0  0  0  0
 11 15  1  0  0  0  0
 12 16  1  0  0  0  0
 12 31  1  0  0  0  0
 13 18  1  0  0  0  0
 13 21  2  0  0  0  0
 14 20  1  0  0  0  0
 15 32  1  0  0  0  0
 15 33  1  0  0  0  0
 15 34  1  0  0  0  0
 16 19  2  0  0  0  0
 16 35  1  0  0  0  0
 17 19  1  0  0  0  0
 17 20  2  0  0  0  0
 19 22  1  0  0  0  0
 20 36  1  0  0  0  0
 21 37  1  0  0  0  0
 21 38  1  0  0  0  0
 22 39  1  0  0  0  0
 22 40  1  0  0  0  0
 23 24  1  0  0  0  0
 24 25  1  0  0  0  0
 24 26  2  0  0  0  0
 25 42  1  0  0  0  0
 25 43  1  0  0  0  0
 25 44  1  0  0  0  0
 26 45  1  0  0  0  0
 26 46  1  0  0  0  0
M  END
> <PUBCHEM_COMPOUND_CID>
11953935

> <PUBCHEM_CONFORMER_RMSD>
0.8

> <PUBCHEM_CONFORMER_DIVERSEORDER>
1
2
6
5
3
4
7

> <PUBCHEM_MMFF94_PARTIAL_CHARGES>
31
1 -0.43
11 0.34
12 0.42
13 -0.12
14 0.49
16 -0.29
17 0.08
18 0.71
19 -0.14
2 -0.36
20 -0.14
21 -0.3
22 0.42
23 0.71
24 -0.12
25 0.14
26 -0.3
3 -0.43
35 0.15
36 0.15
37 0.15
38 0.15
4 -0.57
41 0.4
45 0.15
46 0.15
5 -0.57
6 -0.68
7 -0.57
8 0.28
9 0.14

> <PUBCHEM_EFFECTIVE_ROTOR_COUNT>
4.8

> <PUBCHEM_PHARMACOPHORE_FEATURES>
8
1 2 acceptor
1 4 acceptor
1 5 acceptor
1 6 acceptor
1 6 donor
1 7 acceptor
5 1 8 9 13 18 rings
5 2 11 14 17 20 rings

> <PUBCHEM_HEAVY_ATOM_COUNT>
26

> <PUBCHEM_ATOM_DEF_STEREO_COUNT>
4

> <PUBCHEM_ATOM_UDEF_STEREO_COUNT>
0

> <PUBCHEM_BOND_DEF_STEREO_COUNT>
1

> <PUBCHEM_BOND_UDEF_STEREO_COUNT>
0

> <PUBCHEM_ISOTOPIC_ATOM_COUNT>
0

> <PUBCHEM_COMPONENT_COUNT>
1

> <PUBCHEM_CACTVS_TAUTO_COUNT>
1

> <PUBCHEM_CONFORMER_ID>
00B6670F00000001

> <PUBCHEM_MMFF94_ENERGY>
81.83

> <PUBCHEM_FEATURE_SELFOVERLAP>
40.595

> <PUBCHEM_SHAPE_FINGERPRINT>
10064457 181 17604988109497174274
10165383 225 17749669585126906170
10863032 1 18118679057182846342
10906281 52 18269818892152665629
1100329 8 17617655458464960004
12011746 2 18408881819587276806
12553582 1 18339932497676197334
12633257 1 18128532670344234075
12788726 201 18201443596557513993
13140716 1 18118973490049898534
14178342 30 18337961215320284104
14223421 5 18264490770078013135
14787075 74 17629757868993011482
14790565 3 18265322920171623748
14955137 171 18123176923076310470
15422964 175 18412261761570792479
16945 1 18042988501012862996
17357779 13 18335146405497287101
17492 54 17985243219816826420
19591789 44 18261391200135064062
20739085 24 18267006281200469657
20905425 154 18191582166993796830
21033648 29 17967538947915707419
22182313 1 18114752654453449398
23184049 59 18189335675886036239
23419403 2 16880725699929650324
23558518 356 17907314490951803029
23559900 14 18268430311750717766
2748010 2 18115882965064981676
350125 39 18189899888839683982
3524813 1 18040157314121201834
484985 159 15617839911599319722
484989 97 17619624022787102877
5939293 188 18197498411534840737
81228 2 18197771301209608177
9981440 41 17323011927382846808

> <PUBCHEM_SHAPE_MULTIPOLES>
493.98
6.88
4.32
1.5
3.59
1.5
-0.66
-2.64
-2.55
0.63
1.44
-0.36
-0.26
1.26

> <PUBCHEM_SHAPE_SELFOVERLAP>
1067.956

> <PUBCHEM_SHAPE_VOLUME>
268.6

> <PUBCHEM_COORDINATE_TYPE>
2
5
10

$$$$

