3844
  -OEChem-06251223432D

 71 78  0     1  0  0  0  0  0999 V2000
    7.7141    2.8707    0.0000 O   0  0  0  0  0  0  0  0  0  0  0  0
    9.9193   -0.8312    0.0000 O   0  0  0  0  0  0  0  0  0  0  0  0
   11.7464    0.3444    0.0000 O   0  0  0  0  0  0  0  0  0  0  0  0
   11.0419   -1.2379    0.0000 O   0  0  0  0  0  0  0  0  0  0  0  0
    2.0000   -0.0099    0.0000 O   0  0  0  0  0  0  0  0  0  0  0  0
    6.8258   -0.4438    0.0000 N   0  0  0  0  0  0  0  0  0  0  0  0
    5.8258    1.2882    0.0000 N   0  0  0  0  0  0  0  0  0  0  0  0
    2.6370   -1.7076    0.0000 N   0  0  0  0  0  0  0  0  0  0  0  0
    8.1919    0.9222    0.0000 C   0  0  3  0  0  0  0  0  0  0  0  0
   10.0238    0.1634    0.0000 C   0  0  3  0  0  0  0  0  0  0  0  0
    8.4507    1.8881    0.0000 C   0  0  3  0  0  0  0  0  0  0  0  0
   10.2826    1.1293    0.0000 C   0  0  0  0  0  0  0  0  0  0  0  0
    5.8258   -0.4438    0.0000 C   0  0  0  0  0  0  0  0  0  0  0  0
    5.3258    0.4222    0.0000 C   0  0  0  0  0  0  0  0  0  0  0  0
    5.3190   -1.3538    0.0000 C   0  0  0  0  0  0  0  0  0  0  0  0
    7.9330   -0.0437    0.0000 C   0  0  0  0  0  0  0  0  0  0  0  0
    4.2843    0.4382    0.0000 C   0  0  0  0  0  0  0  0  0  0  0  0
    6.9718   -1.4269    0.0000 C   0  0  0  0  0  0  0  0  0  0  0  0
    5.0475    1.9061    0.0000 C   0  0  0  0  0  0  0  0  0  0  0  0
    6.1211   -1.9406    0.0000 C   0  0  0  0  0  0  0  0  0  0  0  0
    4.2774   -1.3619    0.0000 C   0  0  0  0  0  0  0  0  0  0  0  0
    3.7566   -0.4598    0.0000 C   0  0  0  0  0  0  0  0  0  0  0  0
    4.1772    1.4263    0.0000 C   0  0  0  0  0  0  0  0  0  0  0  0
   10.9374   -0.2434    0.0000 C   0  0  0  0  0  0  0  0  0  0  0  0
    3.5825   -2.1296    0.0000 C   0  0  0  0  0  0  0  0  0  0  0  0
    7.8859   -1.9127    0.0000 C   0  0  0  0  0  0  0  0  0  0  0  0
    2.7443   -0.6777    0.0000 C   0  0  0  0  0  0  0  0  0  0  0  0
    5.0838    2.9407    0.0000 C   0  0  0  0  0  0  0  0  0  0  0  0
    6.1255   -2.9758    0.0000 C   0  0  0  0  0  0  0  0  0  0  0  0
    3.2829    1.9477    0.0000 C   0  0  0  0  0  0  0  0  0  0  0  0
    7.9143   -2.9475    0.0000 C   0  0  0  0  0  0  0  0  0  0  0  0
    7.0281   -3.4826    0.0000 C   0  0  0  0  0  0  0  0  0  0  0  0
    4.2018    3.4826    0.0000 C   0  0  0  0  0  0  0  0  0  0  0  0
    3.2953    2.9828    0.0000 C   0  0  0  0  0  0  0  0  0  0  0  0
   12.6599   -0.0623    0.0000 C   0  0  0  0  0  0  0  0  0  0  0  0
   13.4689    0.5255    0.0000 C   0  0  0  0  0  0  0  0  0  0  0  0
   14.3825    0.1187    0.0000 C   0  0  0  0  0  0  0  0  0  0  0  0
   15.1915    0.7065    0.0000 C   0  0  0  0  0  0  0  0  0  0  0  0
   16.1050    0.2998    0.0000 C   0  0  0  0  0  0  0  0  0  0  0  0
   16.9141    0.8876    0.0000 C   0  0  0  0  0  0  0  0  0  0  0  0
    8.8309    2.3779    0.0000 H   0  0  0  0  0  0  0  0  0  0  0  0
   10.8739    0.9428    0.0000 H   0  0  0  0  0  0  0  0  0  0  0  0
   10.4947    1.7119    0.0000 H   0  0  0  0  0  0  0  0  0  0  0  0
    7.3342    0.1167    0.0000 H   0  0  0  0  0  0  0  0  0  0  0  0
    7.7726   -0.6426    0.0000 H   0  0  0  0  0  0  0  0  0  0  0  0
    8.5319   -0.2042    0.0000 H   0  0  0  0  0  0  0  0  0  0  0  0
    9.3529   -1.0833    0.0000 H   0  0  0  0  0  0  0  0  0  0  0  0
    3.2718   -2.6661    0.0000 H   0  0  0  0  0  0  0  0  0  0  0  0
    4.0834   -2.4950    0.0000 H   0  0  0  0  0  0  0  0  0  0  0  0
    8.4129   -1.5861    0.0000 H   0  0  0  0  0  0  0  0  0  0  0  0
    5.6302    3.2338    0.0000 H   0  0  0  0  0  0  0  0  0  0  0  0
    5.5911   -3.2902    0.0000 H   0  0  0  0  0  0  0  0  0  0  0  0
    2.7435    1.6421    0.0000 H   0  0  0  0  0  0  0  0  0  0  0  0
    2.1000   -2.0176    0.0000 H   0  0  0  0  0  0  0  0  0  0  0  0
    8.4584   -3.2448    0.0000 H   0  0  0  0  0  0  0  0  0  0  0  0
    7.0380   -4.1026    0.0000 H   0  0  0  0  0  0  0  0  0  0  0  0
    4.2164    4.1025    0.0000 H   0  0  0  0  0  0  0  0  0  0  0  0
    2.7634    3.3013    0.0000 H   0  0  0  0  0  0  0  0  0  0  0  0
   12.3132   -0.5763    0.0000 H   0  0  0  0  0  0  0  0  0  0  0  0
   13.1059   -0.4930    0.0000 H   0  0  0  0  0  0  0  0  0  0  0  0
   13.8156    1.0395    0.0000 H   0  0  0  0  0  0  0  0  0  0  0  0
   13.0229    0.9561    0.0000 H   0  0  0  0  0  0  0  0  0  0  0  0
   14.0358   -0.3953    0.0000 H   0  0  0  0  0  0  0  0  0  0  0  0
   14.8285   -0.3120    0.0000 H   0  0  0  0  0  0  0  0  0  0  0  0
   15.5382    1.2205    0.0000 H   0  0  0  0  0  0  0  0  0  0  0  0
   14.7455    1.1372    0.0000 H   0  0  0  0  0  0  0  0  0  0  0  0
   15.7583   -0.2142    0.0000 H   0  0  0  0  0  0  0  0  0  0  0  0
   16.5510   -0.1309    0.0000 H   0  0  0  0  0  0  0  0  0  0  0  0
   17.2785    0.3860    0.0000 H   0  0  0  0  0  0  0  0  0  0  0  0
   17.4157    1.2520    0.0000 H   0  0  0  0  0  0  0  0  0  0  0  0
   16.5496    1.3891    0.0000 H   0  0  0  0  0  0  0  0  0  0  0  0
  1  9  1  0  0  0  0
  1 11  1  0  0  0  0
  2 10  1  0  0  0  0
  2 47  1  0  0  0  0
  3 24  1  0  0  0  0
  3 35  1  0  0  0  0
  4 24  2  0  0  0  0
  5 27  2  0  0  0  0
  6  9  1  0  0  0  0
  6 13  1  0  0  0  0
  6 18  1  0  0  0  0
  7 11  1  0  0  0  0
  7 14  1  0  0  0  0
  7 19  1  0  0  0  0
  8 25  1  0  0  0  0
  8 27  1  0  0  0  0
  8 54  1  0  0  0  0
  9 10  1  0  0  0  0
  9 16  1  0  0  0  0
 10 12  1  0  0  0  0
 10 24  1  0  0  0  0
 11 12  1  0  0  0  0
 11 41  1  0  0  0  0
 12 42  1  0  0  0  0
 12 43  1  0  0  0  0
 13 14  2  0  0  0  0
 13 15  1  0  0  0  0
 14 17  1  0  0  0  0
 15 20  1  0  0  0  0
 15 21  2  0  0  0  0
 16 44  1  0  0  0  0
 16 45  1  0  0  0  0
 16 46  1  0  0  0  0
 17 22  2  0  0  0  0
 17 23  1  0  0  0  0
 18 20  1  0  0  0  0
 18 26  2  0  0  0  0
 19 23  1  0  0  0  0
 19 28  2  0  0  0  0
 20 29  2  0  0  0  0
 21 22  1  0  0  0  0
 21 25  1  0  0  0  0
 22 27  1  0  0  0  0
 23 30  2  0  0  0  0
 25 48  1  0  0  0  0
 25 49  1  0  0  0  0
 26 31  1  0  0  0  0
 26 50  1  0  0  0  0
 28 33  1  0  0  0  0
 28 51  1  0  0  0  0
 29 32  1  0  0  0  0
 29 52  1  0  0  0  0
 30 34  1  0  0  0  0
 30 53  1  0  0  0  0
 31 32  2  0  0  0  0
 31 55  1  0  0  0  0
 32 56  1  0  0  0  0
 33 34  2  0  0  0  0
 33 57  1  0  0  0  0
 34 58  1  0  0  0  0
 35 36  1  0  0  0  0
 35 59  1  0  0  0  0
 35 60  1  0  0  0  0
 36 37  1  0  0  0  0
 36 61  1  0  0  0  0
 36 62  1  0  0  0  0
 37 38  1  0  0  0  0
 37 63  1  0  0  0  0
 37 64  1  0  0  0  0
 38 39  1  0  0  0  0
 38 65  1  0  0  0  0
 38 66  1  0  0  0  0
 39 40  1  0  0  0  0
 39 67  1  0  0  0  0
 39 68  1  0  0  0  0
 40 69  1  0  0  0  0
 40 70  1  0  0  0  0
 40 71  1  0  0  0  0
M  END
> <PUBCHEM_COMPOUND_CID>
3844

> <PUBCHEM_COMPOUND_CANONICALIZED>
1

> <PUBCHEM_CACTVS_COMPLEXITY>
1060

> <PUBCHEM_CACTVS_HBOND_ACCEPTOR>
5

> <PUBCHEM_CACTVS_HBOND_DONOR>
2

> <PUBCHEM_CACTVS_ROTATABLE_BOND>
7

> <PUBCHEM_CACTVS_SUBSKEYS>
AAADceB/OAAAAAAAAAAAAAAAAAAAAWLFiQAwYMAABYAWAFix/gAAHgAQCAAADEzhngYyyPPMFgCoAyXyXAKCgCQlEiAI2KF4dNgLYP7AlZGeYQhnpgDbyQf+ycCeyAACQAASACCQAASAACQAQAAAAAAAAA==

> <PUBCHEM_IUPAC_INCHI>
InChI=1S/C32H31N3O5/c1-3-4-5-10-15-39-30(37)32(38)16-23-34-21-13-8-6-11-18(21)25-26-20(17-33-29(26)36)24-19-12-7-9-14-22(19)35(28(24)27(25)34)31(32,2)40-23/h6-9,11-14,23,38H,3-5,10,15-17H2,1-2H3,(H,33,36)

> <PUBCHEM_IUPAC_INCHIKEY>
ZHEHVZXPFVXKEY-UHFFFAOYSA-N

> <PUBCHEM_XLOGP3_AA>
5.1

> <PUBCHEM_EXACT_MASS>
537.226371

> <PUBCHEM_MOLECULAR_FORMULA>
C32H31N3O5

> <PUBCHEM_MOLECULAR_WEIGHT>
537.60564

> <PUBCHEM_OPENEYE_CAN_SMILES>
CCCCCCOC(=O)C1(CC2N3C4=CC=CC=C4C5=C6C(=C7C8=CC=CC=C8N(C7=C53)C1(O2)C)CNC6=O)O

> <PUBCHEM_OPENEYE_ISO_SMILES>
CCCCCCOC(=O)C1(CC2N3C4=CC=CC=C4C5=C6C(=C7C8=CC=CC=C8N(C7=C53)C1(O2)C)CNC6=O)O

> <PUBCHEM_CACTVS_TPSA>
94.7

> <PUBCHEM_MONOISOTOPIC_WEIGHT>
537.226371

> <PUBCHEM_TOTAL_CHARGE>
0

> <PUBCHEM_HEAVY_ATOM_COUNT>
40

> <PUBCHEM_ATOM_DEF_STEREO_COUNT>
0

> <PUBCHEM_ATOM_UDEF_STEREO_COUNT>
3

> <PUBCHEM_BOND_DEF_STEREO_COUNT>
0

> <PUBCHEM_BOND_UDEF_STEREO_COUNT>
0

> <PUBCHEM_ISOTOPIC_ATOM_COUNT>
0

> <PUBCHEM_COMPONENT_COUNT>
1

> <PUBCHEM_CACTVS_TAUTO_COUNT>
2

> <PUBCHEM_COORDINATE_TYPE>
1
5
255

> <PUBCHEM_BONDANNOTATIONS>
11  12  3
13  14  8
13  15  8
14  17  8
15  20  8
15  21  8
17  22  8
17  23  8
18  20  8
18  26  8
19  23  8
19  28  8
10  2  3
20  29  8
21  22  8
23  30  8
26  31  8
28  33  8
29  32  8
30  34  8
31  32  8
33  34  8
6  13  8
6  18  8
7  14  8
7  19  8
9  16  3

$$$$

