582782
  -OEChem-06241222442D

 77 79  0     1  0  0  0  0  0999 V2000
    2.8070   -1.8199    0.0000 O   0  0  0  0  0  0  0  0  0  0  0  0
    6.2711   -0.8199    0.0000 O   0  0  0  0  0  0  0  0  0  0  0  0
    5.4050    2.6801    0.0000 O   0  0  0  0  0  0  0  0  0  0  0  0
    8.0031    5.1801    0.0000 O   0  0  0  0  0  0  0  0  0  0  0  0
    8.8691    3.6801    0.0000 O   0  0  0  0  0  0  0  0  0  0  0  0
    4.5390   -1.8199    0.0000 N   0  0  0  0  0  0  0  0  0  0  0  0
    5.4050    0.6801    0.0000 N   0  0  0  0  0  0  0  0  0  0  0  0
    7.1371    2.6801    0.0000 N   0  0  0  0  0  0  0  0  0  0  0  0
    3.6730   -3.3199    0.0000 C   0  0  0  0  0  0  0  0  0  0  0  0
    4.5092   -4.7682    0.0000 C   0  0  0  0  0  0  0  0  0  0  0  0
    2.8368   -4.7682    0.0000 C   0  0  0  0  0  0  0  0  0  0  0  0
    2.9819   -5.2033    0.0000 C   0  0  0  0  0  0  0  0  0  0  0  0
    4.5092   -3.8027    0.0000 C   0  0  0  0  0  0  0  0  0  0  0  0
    2.8368   -3.8027    0.0000 C   0  0  0  0  0  0  0  0  0  0  0  0
    2.9819   -4.1580    0.0000 C   0  0  0  0  0  0  0  0  0  0  0  0
    3.6730   -5.0710    0.0000 C   0  0  0  0  0  0  0  0  0  0  0  0
    3.8876   -5.6801    0.0000 C   0  0  0  0  0  0  0  0  0  0  0  0
    2.0000   -5.2510    0.0000 C   0  0  0  0  0  0  0  0  0  0  0  0
    3.6730   -2.3199    0.0000 C   0  0  0  0  0  0  0  0  0  0  0  0
    4.5390   -0.8199    0.0000 C   0  0  3  0  0  0  0  0  0  0  0  0
    3.6730   -0.3199    0.0000 C   0  0  0  0  0  0  0  0  0  0  0  0
    5.4050   -0.3199    0.0000 C   0  0  0  0  0  0  0  0  0  0  0  0
    3.6730    0.6801    0.0000 C   0  0  0  0  0  0  0  0  0  0  0  0
    2.8070   -0.8199    0.0000 C   0  0  0  0  0  0  0  0  0  0  0  0
    6.2711    1.1801    0.0000 C   0  0  3  0  0  0  0  0  0  0  0  0
    7.1371    0.6801    0.0000 C   0  0  3  0  0  0  0  0  0  0  0  0
    6.2711    2.1801    0.0000 C   0  0  0  0  0  0  0  0  0  0  0  0
    8.0031    1.1801    0.0000 C   0  0  0  0  0  0  0  0  0  0  0  0
    7.1371   -0.3199    0.0000 C   0  0  0  0  0  0  0  0  0  0  0  0
    8.8691    0.6801    0.0000 C   0  0  0  0  0  0  0  0  0  0  0  0
    7.1371    3.6801    0.0000 C   0  0  3  0  0  0  0  0  0  0  0  0
    6.2710    4.1801    0.0000 C   0  0  0  0  0  0  0  0  0  0  0  0
    8.0031    4.1801    0.0000 C   0  0  0  0  0  0  0  0  0  0  0  0
    8.8691    5.6801    0.0000 C   0  0  0  0  0  0  0  0  0  0  0  0
    5.1016   -4.9509    0.0000 H   0  0  0  0  0  0  0  0  0  0  0  0
    2.8912   -5.3858    0.0000 H   0  0  0  0  0  0  0  0  0  0  0  0
    2.8478   -5.8086    0.0000 H   0  0  0  0  0  0  0  0  0  0  0  0
    2.6383   -3.6420    0.0000 H   0  0  0  0  0  0  0  0  0  0  0  0
    2.3885   -4.3375    0.0000 H   0  0  0  0  0  0  0  0  0  0  0  0
    2.6247   -3.2201    0.0000 H   0  0  0  0  0  0  0  0  0  0  0  0
    2.2262   -3.9103    0.0000 H   0  0  0  0  0  0  0  0  0  0  0  0
    5.1198   -3.9103    0.0000 H   0  0  0  0  0  0  0  0  0  0  0  0
    4.7212   -3.2201    0.0000 H   0  0  0  0  0  0  0  0  0  0  0  0
    1.5188   -4.8601    0.0000 H   0  0  0  0  0  0  0  0  0  0  0  0
    3.3030   -5.5685    0.0000 H   0  0  0  0  0  0  0  0  0  0  0  0
    4.0430   -5.5685    0.0000 H   0  0  0  0  0  0  0  0  0  0  0  0
    3.5782   -6.2174    0.0000 H   0  0  0  0  0  0  0  0  0  0  0  0
    4.4127   -6.0097    0.0000 H   0  0  0  0  0  0  0  0  0  0  0  0
    1.8068   -5.8401    0.0000 H   0  0  0  0  0  0  0  0  0  0  0  0
    5.0760   -2.1299    0.0000 H   0  0  0  0  0  0  0  0  0  0  0  0
    4.0021   -1.1299    0.0000 H   0  0  0  0  0  0  0  0  0  0  0  0
    3.1360   -0.0099    0.0000 H   0  0  0  0  0  0  0  0  0  0  0  0
    4.2930    0.6801    0.0000 H   0  0  0  0  0  0  0  0  0  0  0  0
    3.6730    1.3001    0.0000 H   0  0  0  0  0  0  0  0  0  0  0  0
    3.0530    0.6801    0.0000 H   0  0  0  0  0  0  0  0  0  0  0  0
    2.4970   -0.2830    0.0000 H   0  0  0  0  0  0  0  0  0  0  0  0
    2.2700   -1.1299    0.0000 H   0  0  0  0  0  0  0  0  0  0  0  0
    3.1170   -1.3568    0.0000 H   0  0  0  0  0  0  0  0  0  0  0  0
    4.8681    0.9901    0.0000 H   0  0  0  0  0  0  0  0  0  0  0  0
    5.7341    1.4901    0.0000 H   0  0  0  0  0  0  0  0  0  0  0  0
    6.6002    0.3701    0.0000 H   0  0  0  0  0  0  0  0  0  0  0  0
    8.4016    1.6551    0.0000 H   0  0  0  0  0  0  0  0  0  0  0  0
    7.6046    1.6551    0.0000 H   0  0  0  0  0  0  0  0  0  0  0  0
    6.5171   -0.3199    0.0000 H   0  0  0  0  0  0  0  0  0  0  0  0
    7.1371   -0.9399    0.0000 H   0  0  0  0  0  0  0  0  0  0  0  0
    7.7571   -0.3199    0.0000 H   0  0  0  0  0  0  0  0  0  0  0  0
    7.6740    2.3701    0.0000 H   0  0  0  0  0  0  0  0  0  0  0  0
    8.5591    0.1432    0.0000 H   0  0  0  0  0  0  0  0  0  0  0  0
    9.4061    0.3701    0.0000 H   0  0  0  0  0  0  0  0  0  0  0  0
    9.1791    1.2171    0.0000 H   0  0  0  0  0  0  0  0  0  0  0  0
    6.6001    3.3701    0.0000 H   0  0  0  0  0  0  0  0  0  0  0  0
    6.5810    4.7171    0.0000 H   0  0  0  0  0  0  0  0  0  0  0  0
    5.7341    4.4901    0.0000 H   0  0  0  0  0  0  0  0  0  0  0  0
    5.9610    3.6432    0.0000 H   0  0  0  0  0  0  0  0  0  0  0  0
    9.1791    5.1432    0.0000 H   0  0  0  0  0  0  0  0  0  0  0  0
    9.4060    5.9901    0.0000 H   0  0  0  0  0  0  0  0  0  0  0  0
    8.5591    6.2171    0.0000 H   0  0  0  0  0  0  0  0  0  0  0  0
  1 19  2  0  0  0  0
  2 22  2  0  0  0  0
  3 27  2  0  0  0  0
  4 33  1  0  0  0  0
  4 34  1  0  0  0  0
  5 33  2  0  0  0  0
  6 19  1  0  0  0  0
  6 20  1  0  0  0  0
  6 50  1  0  0  0  0
  7 22  1  0  0  0  0
  7 25  1  0  0  0  0
  7 59  1  0  0  0  0
  8 27  1  0  0  0  0
  8 31  1  0  0  0  0
  8 67  1  0  0  0  0
  9 13  1  0  0  0  0
  9 14  1  0  0  0  0
  9 15  1  0  0  0  0
  9 19  1  0  0  0  0
 10 13  1  0  0  0  0
 10 16  1  0  0  0  0
 10 17  1  0  0  0  0
 10 35  1  0  0  0  0
 11 14  1  0  0  0  0
 11 16  1  0  0  0  0
 11 18  1  0  0  0  0
 11 36  1  0  0  0  0
 12 15  1  0  0  0  0
 12 17  1  0  0  0  0
 12 18  1  0  0  0  0
 12 37  1  0  0  0  0
 13 42  1  0  0  0  0
 13 43  1  0  0  0  0
 14 40  1  0  0  0  0
 14 41  1  0  0  0  0
 15 38  1  0  0  0  0
 15 39  1  0  0  0  0
 16 45  1  0  0  0  0
 16 46  1  0  0  0  0
 17 47  1  0  0  0  0
 17 48  1  0  0  0  0
 18 44  1  0  0  0  0
 18 49  1  0  0  0  0
 20 21  1  0  0  0  0
 20 22  1  0  0  0  0
 20 51  1  0  0  0  0
 21 23  1  0  0  0  0
 21 24  1  0  0  0  0
 21 52  1  0  0  0  0
 23 53  1  0  0  0  0
 23 54  1  0  0  0  0
 23 55  1  0  0  0  0
 24 56  1  0  0  0  0
 24 57  1  0  0  0  0
 24 58  1  0  0  0  0
 25 26  1  0  0  0  0
 25 27  1  0  0  0  0
 25 60  1  0  0  0  0
 26 28  1  0  0  0  0
 26 29  1  0  0  0  0
 26 61  1  0  0  0  0
 28 30  1  0  0  0  0
 28 62  1  0  0  0  0
 28 63  1  0  0  0  0
 29 64  1  0  0  0  0
 29 65  1  0  0  0  0
 29 66  1  0  0  0  0
 30 68  1  0  0  0  0
 30 69  1  0  0  0  0
 30 70  1  0  0  0  0
 31 32  1  0  0  0  0
 31 33  1  0  0  0  0
 31 71  1  0  0  0  0
 32 72  1  0  0  0  0
 32 73  1  0  0  0  0
 32 74  1  0  0  0  0
 34 75  1  0  0  0  0
 34 76  1  0  0  0  0
 34 77  1  0  0  0  0
M  END
> <PUBCHEM_COMPOUND_CID>
582782

> <PUBCHEM_COMPOUND_CANONICALIZED>
1

> <PUBCHEM_CACTVS_COMPLEXITY>
754

> <PUBCHEM_CACTVS_HBOND_ACCEPTOR>
5

> <PUBCHEM_CACTVS_HBOND_DONOR>
3

> <PUBCHEM_CACTVS_ROTATABLE_BOND>
11

> <PUBCHEM_CACTVS_SUBSKEYS>
AAADcfB7OAAAAAAAAAAAAAAAAAAAAAAAAAAwYMGAAAAAAAAAAAAAHgAQAAAADyjBgAYCCALABAAIAAGQGAAAAAAAAAAAAIGIAAACQBIAgCAVAAAAFgCQAAEYiMCPAAAAAAAAAAAAAAQAAAAAAAAAAAAAAA==

> <PUBCHEM_IUPAC_OPENEYE_NAME>
methyl 2-[[2-[[2-(adamantane-1-carbonylamino)-3-methyl-butanoyl]amino]-3-methyl-pentanoyl]amino]propanoate

> <PUBCHEM_IUPAC_CAS_NAME>
2-[[2-[[2-[[1-adamantyl(oxo)methyl]amino]-3-methyl-1-oxobutyl]amino]-3-methyl-1-oxopentyl]amino]propanoic acid methyl ester

> <PUBCHEM_IUPAC_NAME>
methyl 2-[[2-[[2-(adamantane-1-carbonylamino)-3-methylbutanoyl]amino]-3-methylpentanoyl]amino]propanoate

> <PUBCHEM_IUPAC_SYSTEMATIC_NAME>
methyl 2-[[2-[[2-(1-adamantylcarbonylamino)-3-methyl-butanoyl]amino]-3-methyl-pentanoyl]amino]propanoate

> <PUBCHEM_IUPAC_TRADITIONAL_NAME>
2-[[2-[[2-(adamantane-1-carbonylamino)-3-methyl-butanoyl]amino]-3-methyl-pentanoyl]amino]propionic acid methyl ester

> <PUBCHEM_IUPAC_INCHI>
InChI=1S/C26H43N3O5/c1-7-15(4)21(23(31)27-16(5)24(32)34-6)28-22(30)20(14(2)3)29-25(33)26-11-17-8-18(12-26)10-19(9-17)13-26/h14-21H,7-13H2,1-6H3,(H,27,31)(H,28,30)(H,29,33)

> <PUBCHEM_IUPAC_INCHIKEY>
OHBNGNLYHLXOME-UHFFFAOYSA-N

> <PUBCHEM_XLOGP3_AA>
4.2

> <PUBCHEM_EXACT_MASS>
477.320271

> <PUBCHEM_MOLECULAR_FORMULA>
C26H43N3O5

> <PUBCHEM_MOLECULAR_WEIGHT>
477.63672

> <PUBCHEM_OPENEYE_CAN_SMILES>
CCC(C)C(C(=O)NC(C)C(=O)OC)NC(=O)C(C(C)C)NC(=O)C12CC3CC(C1)CC(C3)C2

> <PUBCHEM_OPENEYE_ISO_SMILES>
CCC(C)C(C(=O)NC(C)C(=O)OC)NC(=O)C(C(C)C)NC(=O)C12CC3CC(C1)CC(C3)C2

> <PUBCHEM_CACTVS_TPSA>
114

> <PUBCHEM_MONOISOTOPIC_WEIGHT>
477.320271

> <PUBCHEM_TOTAL_CHARGE>
0

> <PUBCHEM_HEAVY_ATOM_COUNT>
34

> <PUBCHEM_ATOM_DEF_STEREO_COUNT>
0

> <PUBCHEM_ATOM_UDEF_STEREO_COUNT>
4

> <PUBCHEM_BOND_DEF_STEREO_COUNT>
0

> <PUBCHEM_BOND_UDEF_STEREO_COUNT>
0

> <PUBCHEM_ISOTOPIC_ATOM_COUNT>
0

> <PUBCHEM_COMPONENT_COUNT>
1

> <PUBCHEM_CACTVS_TAUTO_COUNT>
8

> <PUBCHEM_COORDINATE_TYPE>
1
5
255

> <PUBCHEM_BONDANNOTATIONS>
20  21  3
25  27  3
26  29  3
31  32  3

$$$$

