4388
  -OEChem-06261200053D

 26 25  0     1  0  0  0  0  0999 V2000
    1.4381   -1.8823   -0.2876 O   0  0  0  0  0  0  0  0  0  0  0  0
    0.9184    0.6669   -1.4551 O   0  0  0  0  0  0  0  0  0  0  0  0
   -1.1915   -1.9620   -0.6662 O   0  0  0  0  0  0  0  0  0  0  0  0
    2.9572    0.6813    1.5034 O   0  0  0  0  0  0  0  0  0  0  0  0
    3.4809    0.8814   -0.6962 O   0  0  0  0  0  0  0  0  0  0  0  0
   -1.5957   -0.2177    0.8118 N   0  0  0  0  0  0  0  0  0  0  0  0
    0.6957   -0.8727    0.3816 C   0  0  1  0  0  0  0  0  0  0  0  0
    1.1615    0.5177   -0.0620 C   0  0  1  0  0  0  0  0  0  0  0  0
   -3.0376   -0.2418    0.7287 C   0  0  0  0  0  0  0  0  0  0  0  0
   -0.7868   -1.0896    0.0993 C   0  0  0  0  0  0  0  0  0  0  0  0
   -3.5298    0.6770   -0.3845 C   0  0  0  0  0  0  0  0  0  0  0  0
   -3.1566    2.1350   -0.1549 C   0  0  0  0  0  0  0  0  0  0  0  0
    2.6463    0.7067    0.1819 C   0  0  0  0  0  0  0  0  0  0  0  0
    0.8605   -1.0106    1.4562 H   0  0  0  0  0  0  0  0  0  0  0  0
    0.6220    1.3185    0.4542 H   0  0  0  0  0  0  0  0  0  0  0  0
   -3.4305    0.0770    1.6997 H   0  0  0  0  0  0  0  0  0  0  0  0
   -3.3724   -1.2678    0.5425 H   0  0  0  0  0  0  0  0  0  0  0  0
   -4.6209    0.5971   -0.4526 H   0  0  0  0  0  0  0  0  0  0  0  0
   -3.1224    0.3526   -1.3495 H   0  0  0  0  0  0  0  0  0  0  0  0
   -1.1723    0.4542    1.4446 H   0  0  0  0  0  0  0  0  0  0  0  0
   -3.5397    2.4912    0.8067 H   0  0  0  0  0  0  0  0  0  0  0  0
   -2.0719    2.2794   -0.1696 H   0  0  0  0  0  0  0  0  0  0  0  0
   -3.5865    2.7611   -0.9433 H   0  0  0  0  0  0  0  0  0  0  0  0
    1.3662   -1.7191   -1.2438 H   0  0  0  0  0  0  0  0  0  0  0  0
    1.1246    1.5876   -1.6913 H   0  0  0  0  0  0  0  0  0  0  0  0
    3.9173    0.8124    1.6558 H   0  0  0  0  0  0  0  0  0  0  0  0
  1  7  1  0  0  0  0
  1 24  1  0  0  0  0
  2  8  1  0  0  0  0
  2 25  1  0  0  0  0
  3 10  2  0  0  0  0
  4 13  1  0  0  0  0
  4 26  1  0  0  0  0
  5 13  2  0  0  0  0
  6  9  1  0  0  0  0
  6 10  1  0  0  0  0
  6 20  1  0  0  0  0
  7  8  1  0  0  0  0
  7 10  1  0  0  0  0
  7 14  1  0  0  0  0
  8 13  1  0  0  0  0
  8 15  1  0  0  0  0
  9 11  1  0  0  0  0
  9 16  1  0  0  0  0
  9 17  1  0  0  0  0
 11 12  1  0  0  0  0
 11 18  1  0  0  0  0
 11 19  1  0  0  0  0
 12 21  1  0  0  0  0
 12 22  1  0  0  0  0
 12 23  1  0  0  0  0
M  END
> <PUBCHEM_COMPOUND_CID>
4388

> <PUBCHEM_CONFORMER_RMSD>
0.6

> <PUBCHEM_CONFORMER_DIVERSEORDER>
4
337
31
396
408
319
113
273
349
73
359
369
144
383
212
37
368
87
358
235
149
386
254
265
100
357
267
336
240
40
415
39
30
11
437
88
385
126
154
197
107
271
50
422
395
231
423
44
46
389
266
344
49
192
28
324
350
217
377
384
53
275
183
105
429
163
314
305
393
191
333
402
220
71
407
57
295
7
343
58
74
41
259
421
170
414
239
162
137
281
8
115
26
432
35
382
354
25
59
190
56
376
36
248
424
64
312
353
114
109
289
375
436
151
12
288
223
412
129
83
116
69
367
434
228
400
79
111
366
206
78
397
399
247
147
388
370
18
363
419
2
365
82
210
81
48
274
67
372
326
304
92
75
356
426
409
62
76
364
322
22
211
13
291
91
174
14
340
119
283
361
131
394
117
355
352
65
55
325
121
331
209
47
34
108
153
332
318
244
404
159
176
380
54
237
392
430
118
245
232
300
90
335
196
219
346
221
204
328
72
3
61
173
309
317
233
272
125
60
177
313
405
401
1
112
19
9
43
181
257
342
33
416
339
282
136
427
263
373
150
307
199
5
103
68
45
102
106
172
152
51
406
230
323
258
280
256
52
378
127
261
425
165
250
178
418
142
80
226
277
428
374
351
38
32
93
182
200
128
420
104
431
227
290
201
381
251
146
320
139
308
264
279
433
205
123
330
284
321
6
145
371
15
122
167
293
166
276
184
95
241
120
124
411
255
23
379
362
158
413
110
296
148
225
179
175
213
77
391
161
303
341
311
24
249
286
417
306
155
97
410
171
301
141
94
27
329
169
253
338
187
130
347
262
16
164
168
360
98
66
435
216
143
260
224
140
101
133
285
234
194
20
89
207
222
84
292
243
387
63
246
310
198
156
17
10
287
398
242
214
297
134
160
390
238
195
236
268
132
157
96
269
42
327
99
294
403
185
70
188
135
215
186
252
86
345
189
21
218
208
334
348
180
138
85
316
202
229
315
193
302
278
29
203
298
270
299

> <PUBCHEM_MMFF94_PARTIAL_CHARGES>
15
1 -0.68
10 0.57
13 0.66
2 -0.68
20 0.37
24 0.4
25 0.4
26 0.5
3 -0.57
4 -0.65
5 -0.57
6 -0.73
7 0.34
8 0.34
9 0.3

> <PUBCHEM_EFFECTIVE_ROTOR_COUNT>
6

> <PUBCHEM_PHARMACOPHORE_FEATURES>
10
1 1 acceptor
1 1 donor
1 12 hydrophobe
1 2 acceptor
1 2 donor
1 3 acceptor
1 4 acceptor
1 5 acceptor
1 6 donor
3 4 5 13 anion

> <PUBCHEM_HEAVY_ATOM_COUNT>
13

> <PUBCHEM_ATOM_DEF_STEREO_COUNT>
0

> <PUBCHEM_ATOM_UDEF_STEREO_COUNT>
2

> <PUBCHEM_BOND_DEF_STEREO_COUNT>
0

> <PUBCHEM_BOND_UDEF_STEREO_COUNT>
0

> <PUBCHEM_ISOTOPIC_ATOM_COUNT>
0

> <PUBCHEM_COMPONENT_COUNT>
1

> <PUBCHEM_CACTVS_TAUTO_COUNT>
2

> <PUBCHEM_CONFORMER_ID>
0000112400000004

> <PUBCHEM_MMFF94_ENERGY>
3.0183

> <PUBCHEM_FEATURE_SELFOVERLAP>
50.824

> <PUBCHEM_SHAPE_FINGERPRINT>
10149128 76 18338796835804491497
12138202 97 17676483895847406806
12932764 1 18113897134974146675
13618510 140 18342455971662674517
14897335 6 18334301958828769107
15775835 57 18333730239010844405
18186145 218 17675921006160606025
20281407 28 12751243601060190305
20711983 138 10519714362591602269
21524375 3 18409169917735899611
230 275 18341043094793925261
23382010 3 4967317071911389664
23402539 116 16298658473374497496
23557571 272 18262506023426491783
2748010 2 18267293399795342511
305870 269 18272654579621778267
449060 23 9727638327582300161
81228 2 17684086885868564763

> <PUBCHEM_SHAPE_MULTIPOLES>
233.21
5.94
1.83
1.03
1.16
0.22
0.05
-3.19
0.41
0.65
-0.31
-0.4
-0.12
0.18

> <PUBCHEM_SHAPE_SELFOVERLAP>
446.978

> <PUBCHEM_SHAPE_VOLUME>
141.6

> <PUBCHEM_COORDINATE_TYPE>
2
5
10

$$$$

