441587
  -OEChem-07051212553D

 38 42  0     1  0  0  0  0  0999 V2000
    5.1139   -0.0452   -1.5254 O   0  0  0  0  0  0  0  0  0  0  0  0
    4.5463   -1.6400    0.5718 O   0  0  0  0  0  0  0  0  0  0  0  0
   -4.1794   -1.7751    0.0721 O   0  0  0  0  0  0  0  0  0  0  0  0
   -4.6710    0.2603   -1.1199 O   0  0  0  0  0  0  0  0  0  0  0  0
    1.0693    1.9126    0.5539 N   0  0  2  0  0  0  0  0  0  0  0  0
    1.7032    0.8560   -0.2913 C   0  0  2  0  0  0  0  0  0  0  0  0
    0.3296   -0.1640    1.4174 C   0  0  1  0  0  0  0  0  0  0  0  0
    1.4173   -0.4401    0.4224 C   0  0  0  0  0  0  0  0  0  0  0  0
    0.8183    1.2266    1.8539 C   0  0  0  0  0  0  0  0  0  0  0  0
    3.2086    1.0293   -0.5029 C   0  0  0  0  0  0  0  0  0  0  0  0
   -0.2671    2.2802   -0.0031 C   0  0  0  0  0  0  0  0  0  0  0  0
   -1.0221   -0.0324    0.7486 C   0  0  0  0  0  0  0  0  0  0  0  0
    3.7342   -0.2210   -1.2282 C   0  0  2  0  0  0  0  0  0  0  0  0
   -1.3045    1.1664    0.0305 C   0  0  0  0  0  0  0  0  0  0  0  0
    2.2134   -1.5162    0.3673 C   0  0  0  0  0  0  0  0  0  0  0  0
    3.5072   -1.5070   -0.4025 C   0  0  2  0  0  0  0  0  0  0  0  0
   -1.9568   -1.0728    0.7913 C   0  0  0  0  0  0  0  0  0  0  0  0
   -2.5345    1.3259   -0.6186 C   0  0  0  0  0  0  0  0  0  0  0  0
   -3.1551   -0.8803    0.1345 C   0  0  0  0  0  0  0  0  0  0  0  0
   -3.4356    0.2828   -0.5479 C   0  0  0  0  0  0  0  0  0  0  0  0
   -5.1354   -1.0461   -0.7240 C   0  0  0  0  0  0  0  0  0  0  0  0
    1.2309    0.8283   -1.2835 H   0  0  0  0  0  0  0  0  0  0  0  0
    0.3101   -0.8595    2.2623 H   0  0  0  0  0  0  0  0  0  0  0  0
    0.1002    1.7691    2.4821 H   0  0  0  0  0  0  0  0  0  0  0  0
    1.7572    1.1648    2.4213 H   0  0  0  0  0  0  0  0  0  0  0  0
    3.4139    1.9265   -1.0997 H   0  0  0  0  0  0  0  0  0  0  0  0
    3.7411    1.1684    0.4474 H   0  0  0  0  0  0  0  0  0  0  0  0
   -0.1410    2.6400   -1.0320 H   0  0  0  0  0  0  0  0  0  0  0  0
   -0.6564    3.1252    0.5792 H   0  0  0  0  0  0  0  0  0  0  0  0
    3.2077   -0.3164   -2.1860 H   0  0  0  0  0  0  0  0  0  0  0  0
    1.9972   -2.3794    0.9905 H   0  0  0  0  0  0  0  0  0  0  0  0
    3.5706   -2.3776   -1.0643 H   0  0  0  0  0  0  0  0  0  0  0  0
   -1.7496   -1.9963    1.3204 H   0  0  0  0  0  0  0  0  0  0  0  0
   -2.7710    2.2348   -1.1610 H   0  0  0  0  0  0  0  0  0  0  0  0
    5.5926    0.0092   -0.6806 H   0  0  0  0  0  0  0  0  0  0  0  0
    4.4468   -2.5098    0.9959 H   0  0  0  0  0  0  0  0  0  0  0  0
   -6.0584   -0.9298   -0.1445 H   0  0  0  0  0  0  0  0  0  0  0  0
   -5.3572   -1.6280   -1.6260 H   0  0  0  0  0  0  0  0  0  0  0  0
  1 13  1  0  0  0  0
  1 35  1  0  0  0  0
  2 16  1  0  0  0  0
  2 36  1  0  0  0  0
  3 19  1  0  0  0  0
  3 21  1  0  0  0  0
  4 20  1  0  0  0  0
  4 21  1  0  0  0  0
  5  6  1  0  0  0  0
  5  9  1  0  0  0  0
  5 11  1  0  0  0  0
  6  8  1  0  0  0  0
  6 10  1  0  0  0  0
  6 22  1  0  0  0  0
  7  8  1  0  0  0  0
  7  9  1  0  0  0  0
  7 12  1  0  0  0  0
  7 23  1  0  0  0  0
  8 15  2  0  0  0  0
  9 24  1  0  0  0  0
  9 25  1  0  0  0  0
 10 13  1  0  0  0  0
 10 26  1  0  0  0  0
 10 27  1  0  0  0  0
 11 14  1  0  0  0  0
 11 28  1  0  0  0  0
 11 29  1  0  0  0  0
 12 14  1  0  0  0  0
 12 17  2  0  0  0  0
 13 16  1  0  0  0  0
 13 30  1  0  0  0  0
 14 18  2  0  0  0  0
 15 16  1  0  0  0  0
 15 31  1  0  0  0  0
 16 32  1  0  0  0  0
 17 19  1  0  0  0  0
 17 33  1  0  0  0  0
 18 20  1  0  0  0  0
 18 34  1  0  0  0  0
 19 20  2  0  0  0  0
 21 37  1  0  0  0  0
 21 38  1  0  0  0  0
M  END
> <PUBCHEM_COMPOUND_CID>
441587

> <PUBCHEM_CONFORMER_RMSD>
0.6

> <PUBCHEM_CONFORMER_DIVERSEORDER>
1

> <PUBCHEM_MMFF94_PARTIAL_CHARGES>
25
1 -0.68
11 0.41
12 -0.14
13 0.28
14 -0.14
15 -0.29
16 0.42
17 -0.15
18 -0.15
19 0.08
2 -0.68
20 0.08
21 0.56
3 -0.36
31 0.15
33 0.15
34 0.15
35 0.4
36 0.4
4 -0.36
5 -0.81
6 0.41
7 0.28
8 -0.28
9 0.27

> <PUBCHEM_EFFECTIVE_ROTOR_COUNT>
1.6

> <PUBCHEM_PHARMACOPHORE_FEATURES>
11
1 1 acceptor
1 1 donor
1 2 acceptor
1 2 donor
1 3 acceptor
1 4 acceptor
1 5 cation
5 3 4 19 20 21 rings
6 12 14 17 18 19 20 rings
6 6 8 10 13 15 16 rings
8 5 6 7 8 9 11 12 14 rings

> <PUBCHEM_HEAVY_ATOM_COUNT>
21

> <PUBCHEM_ATOM_DEF_STEREO_COUNT>
4

> <PUBCHEM_ATOM_UDEF_STEREO_COUNT>
0

> <PUBCHEM_BOND_DEF_STEREO_COUNT>
0

> <PUBCHEM_BOND_UDEF_STEREO_COUNT>
0

> <PUBCHEM_ISOTOPIC_ATOM_COUNT>
0

> <PUBCHEM_COMPONENT_COUNT>
1

> <PUBCHEM_CACTVS_TAUTO_COUNT>
1

> <PUBCHEM_CONFORMER_ID>
0006BCF300000001

> <PUBCHEM_MMFF94_ENERGY>
61.8504

> <PUBCHEM_FEATURE_SELFOVERLAP>
56

> <PUBCHEM_SHAPE_FINGERPRINT>
10498660 4 16988577805142235413
10756046 5 18129379474348150204
11543360 7 17988921171577897318
11578080 2 17530976811966548592
11796584 16 17821444656084461927
11961588 58 16558752248303321699
12251169 10 7565340924934792064
12363563 72 18040992959900667254
12507560 40 5978391594714807579
12553582 1 18334564759234838610
12596602 18 4823205122183288311
12644460 14 14996572720307418802
12670546 177 18131913771098176239
12707595 3 17894351068376569904
12892183 10 5833987247928708319
13544653 18 17458345277322056138
13583140 156 13984937514707943912
13675066 3 5328750681867448757
13914758 101 17132120165341074524
14576447 43 18409165506878281270
14790565 3 17762052546867391041
15061688 2 13973678400007807380
15188451 53 14346091797830525613
15209294 21 9583512114251327871
16945 1 18269832189318764312
1813 80 15864059975704815776
18186145 218 15410604909136163752
18222031 100 17240484714805323846
193927 3 17603574240538244830
19784866 240 17023180509804953447
19862831 5 17704074018495781067
200 152 18333726940291188846
20281475 54 18262234524951882683
20361792 2 16877946052676993848
20374829 77 18409454699905869943
20645477 70 18114181878473613293
20671657 53 18334010588199903353
20739085 24 5906047054560699922
20871999 31 18343300392334632533
21065199 12 7420950876400886967
21637258 2 16660360411401825030
221357 26 18341619200833535245
221490 88 18269270154077338883
2215653 11 18336276678318997855
22182313 1 18265355969981525921
22393880 68 18341325704122076510
22854114 59 9511465524072567111
231179 274 13470689243533614542
23379529 103 18334003978287965902
23402539 116 18270403909489616436
23402655 69 18059855107608188172
23557571 272 18189629396046642936
23559900 14 18340774758170003136
2748010 2 17479726122621836281
2838139 119 15841546332791039046
2871803 45 18412824677085191718
296302 2 12103851150641963309
3004659 81 18130792308372994170
3082319 5 18201715184666669228
3286 77 17604155852440948361
3323516 105 18340769251889716561
394222 165 13986652520956042323
4028521 119 17132114654027582927
463206 1 18187090580464481991
465052 167 17676765362814607159
474 4 13398627238437666807
4921388 177 16486961874461940427
4990 188 18272939293193441541
633830 44 15913038876225242804
6786 2 16234518174605338569
7097593 13 6843911742426748332
7970288 3 17095234839225119366
90316 7 4678824943415514587
9709674 26 18197786496930586547

> <PUBCHEM_SHAPE_MULTIPOLES>
403.71
9.3
1.95
1.27
1.83
0.31
-0.18
-4.51
4.46
-0.19
-0.18
-0.53
0.14
0.08

> <PUBCHEM_SHAPE_SELFOVERLAP>
913.624

> <PUBCHEM_SHAPE_VOLUME>
213.5

> <PUBCHEM_COORDINATE_TYPE>
2
5
10

$$$$

