70820
  -OEChem-07051213053D

 23 24  0     0  0  0  0  0  0999 V2000
    2.8387    2.7187   -0.0007 Cl  0  0  0  0  0  0  0  0  0  0  0  0
    2.8369   -2.7193   -0.0011 Cl  0  0  0  0  0  0  0  0  0  0  0  0
    4.0669   -0.0004   -0.0006 O   0  0  0  0  0  0  0  0  0  0  0  0
   -0.0884    0.0003    0.0007 C   0  0  0  0  0  0  0  0  0  0  0  0
   -1.5353    0.0004    0.0003 C   0  0  0  0  0  0  0  0  0  0  0  0
    0.6087   -1.2077   -0.0003 C   0  0  0  0  0  0  0  0  0  0  0  0
    0.6093    1.2082    0.0016 C   0  0  0  0  0  0  0  0  0  0  0  0
   -2.2324    0.0013   -1.2079 C   0  0  0  0  0  0  0  0  0  0  0  0
   -2.2331   -0.0009    1.2079 C   0  0  0  0  0  0  0  0  0  0  0  0
    2.0041    1.2078    0.0015 C   0  0  0  0  0  0  0  0  0  0  0  0
    2.0036   -1.2082   -0.0004 C   0  0  0  0  0  0  0  0  0  0  0  0
    2.7012   -0.0003    0.0005 C   0  0  0  0  0  0  0  0  0  0  0  0
   -3.6273    0.0012   -1.2083 C   0  0  0  0  0  0  0  0  0  0  0  0
   -3.6280   -0.0011    1.2076 C   0  0  0  0  0  0  0  0  0  0  0  0
   -4.3250    0.0000   -0.0006 C   0  0  0  0  0  0  0  0  0  0  0  0
    0.0651   -2.1508   -0.0010 H   0  0  0  0  0  0  0  0  0  0  0  0
    0.0662    2.1515    0.0018 H   0  0  0  0  0  0  0  0  0  0  0  0
   -1.7041    0.0022   -2.1584 H   0  0  0  0  0  0  0  0  0  0  0  0
   -1.7053   -0.0018    2.1588 H   0  0  0  0  0  0  0  0  0  0  0  0
   -4.1702    0.0021   -2.1490 H   0  0  0  0  0  0  0  0  0  0  0  0
   -4.1715   -0.0021    2.1479 H   0  0  0  0  0  0  0  0  0  0  0  0
   -5.4111   -0.0002   -0.0010 H   0  0  0  0  0  0  0  0  0  0  0  0
    4.3747    0.9225    0.0000 H   0  0  0  0  0  0  0  0  0  0  0  0
  1 10  1  0  0  0  0
  2 11  1  0  0  0  0
  3 12  1  0  0  0  0
  3 23  1  0  0  0  0
  4  5  1  0  0  0  0
  4  6  2  0  0  0  0
  4  7  1  0  0  0  0
  5  8  2  0  0  0  0
  5  9  1  0  0  0  0
  6 11  1  0  0  0  0
  6 16  1  0  0  0  0
  7 10  2  0  0  0  0
  7 17  1  0  0  0  0
  8 13  1  0  0  0  0
  8 18  1  0  0  0  0
  9 14  2  0  0  0  0
  9 19  1  0  0  0  0
 10 12  1  0  0  0  0
 11 12  2  0  0  0  0
 13 15  2  0  0  0  0
 13 20  1  0  0  0  0
 14 15  1  0  0  0  0
 14 21  1  0  0  0  0
 15 22  1  0  0  0  0
M  END
> <PUBCHEM_COMPOUND_CID>
70820

> <PUBCHEM_CONFORMER_RMSD>
0.4

> <PUBCHEM_CONFORMER_DIVERSEORDER>
1
2

> <PUBCHEM_MMFF94_PARTIAL_CHARGES>
21
1 -0.18
10 0.18
11 0.18
12 0.08
13 -0.15
14 -0.15
15 -0.15
16 0.15
17 0.15
18 0.15
19 0.15
2 -0.18
20 0.15
21 0.15
22 0.15
23 0.45
3 -0.53
6 -0.15
7 -0.15
8 -0.15
9 -0.15

> <PUBCHEM_EFFECTIVE_ROTOR_COUNT>
1

> <PUBCHEM_PHARMACOPHORE_FEATURES>
3
1 3 donor
6 4 6 7 10 11 12 rings
6 5 8 9 13 14 15 rings

> <PUBCHEM_HEAVY_ATOM_COUNT>
15

> <PUBCHEM_ATOM_DEF_STEREO_COUNT>
0

> <PUBCHEM_ATOM_UDEF_STEREO_COUNT>
0

> <PUBCHEM_BOND_DEF_STEREO_COUNT>
0

> <PUBCHEM_BOND_UDEF_STEREO_COUNT>
0

> <PUBCHEM_ISOTOPIC_ATOM_COUNT>
0

> <PUBCHEM_COMPONENT_COUNT>
1

> <PUBCHEM_CACTVS_TAUTO_COUNT>
2

> <PUBCHEM_CONFORMER_ID>
000114A400000001

> <PUBCHEM_MMFF94_ENERGY>
43.1409

> <PUBCHEM_FEATURE_SELFOVERLAP>
15.223

> <PUBCHEM_SHAPE_FINGERPRINT>
10608611 8 18202289104114699565
10980938 120 18408888412541294032
11471102 20 18411419505683391492
11615757 297 18334292054829045041
12236239 1 17676487250633388011
12553582 1 18120651594092346806
13134695 92 18340212993811814860
13140716 1 18266744576268887434
13296908 3 17775282789799860355
13581323 91 15123798361877277185
14144814 61 18040152937596934639
14251717 144 18408889542043924398
15219456 202 18060138704578356557
15279307 12 18041001700238730015
15375462 189 17967531272539909299
15442244 35 18191582175499276761
15653759 3 17203611471360441641
16945 1 18410575089395850630
1813 80 17897993875418115750
18175812 5 17846499192843775109
18186145 218 18335415712705261820
19049666 15 17774169044602849677
19422 9 17894911815370601039
19784866 34 18118403947459081488
200 152 18260836999071852223
20279233 1 17775284971669607571
204376 136 18195809557590995720
20645477 70 18340495563868510135
20671657 53 18194682789916065030
20715346 28 17846497011190260133
20871998 22 18045497779821541502
21499 59 18193558869920522212
21639500 275 18337117760825907477
21730867 7 18343864419992509638
22096605 113 18339369560797672909
2255824 54 18334855022110269094
22854114 111 18409165476454891800
22943178 12 17989486316665853699
23048698 100 18186799162901367265
23402539 116 15068626019599901641
23557571 272 17203326702544559973
23559900 14 16845579754939484738
25 1 18339922611057296132
2748010 2 18052247406894512374
474 4 18190746336451667992
581208 293 18408890611580289432
6049 1 17846213397319966333
633830 44 18043231488397790004
7364860 26 18408603660889424516
7615 1 17821731658583797001
77492 1 17676487246296216195
81228 2 17402336370057297848
8272917 22 18335414712120118319
84936 182 17968944054756361096

> <PUBCHEM_SHAPE_MULTIPOLES>
306.56
7.52
2.09
1.01
3.7
0
0
0
0
-3.64
0
1.14
0
0

> <PUBCHEM_SHAPE_SELFOVERLAP>
649.237

> <PUBCHEM_SHAPE_VOLUME>
174

> <PUBCHEM_COORDINATE_TYPE>
2
5
10

$$$$

