6857533
  -OEChem-07051213153D

 78 81  0     1  0  0  0  0  0999 V2000
   -0.2039   -0.1687    0.8883 C   0  0  1  0  0  0  0  0  0  0  0  0
    0.5414    1.0180    0.2396 C   0  0  2  0  0  0  0  0  0  0  0  0
    2.0591    0.9536    0.4436 C   0  0  1  0  0  0  0  0  0  0  0  0
    2.5908   -0.3713   -0.1942 C   0  0  1  0  0  0  0  0  0  0  0  0
    4.1556   -0.4935   -0.0748 C   0  0  2  0  0  0  0  0  0  0  0  0
   -1.6586    0.2381    0.5479 C   0  0  2  0  0  0  0  0  0  0  0  0
    0.2807   -1.4566    0.2074 C   0  0  0  0  0  0  0  0  0  0  0  0
    1.8091   -1.6137    0.3086 C   0  0  0  0  0  0  0  0  0  0  0  0
    4.7743    0.7795   -0.7377 C   0  0  1  0  0  0  0  0  0  0  0  0
   -0.2237    2.2394    0.7404 C   0  0  0  0  0  0  0  0  0  0  0  0
    2.7594    2.1811   -0.1567 C   0  0  0  0  0  0  0  0  0  0  0  0
   -1.6854    1.7611    0.8174 C   0  0  0  0  0  0  0  0  0  0  0  0
    4.2814    2.0768   -0.0871 C   0  0  0  0  0  0  0  0  0  0  0  0
    4.6705   -1.7317   -0.8625 C   0  0  0  0  0  0  0  0  0  0  0  0
   -0.0013   -0.2826    2.4202 C   0  0  0  0  0  0  0  0  0  0  0  0
   -2.7647   -0.5116    1.2766 C   0  0  1  0  0  0  0  0  0  0  0  0
    6.3071    0.7344   -0.8059 C   0  0  0  0  0  0  0  0  0  0  0  0
    4.5838   -0.6444    1.4076 C   0  0  0  0  0  0  0  0  0  0  0  0
    6.1961   -1.7924   -0.9833 C   0  0  0  0  0  0  0  0  0  0  0  0
    6.7857   -0.5077   -1.5526 C   0  0  0  0  0  0  0  0  0  0  0  0
   -4.1451    0.0400    0.8591 C   0  0  0  0  0  0  0  0  0  0  0  0
   -2.6438   -2.0160    1.0108 C   0  0  0  0  0  0  0  0  0  0  0  0
   -4.4020   -0.0273   -0.6513 C   0  0  0  0  0  0  0  0  0  0  0  0
   -5.7905    0.5105   -1.0736 C   0  0  2  0  0  0  0  0  0  0  0  0
   -6.9778   -0.1210   -0.2911 C   0  0  0  0  0  0  0  0  0  0  0  0
   -5.9276    0.3729   -2.5968 C   0  0  0  0  0  0  0  0  0  0  0  0
   -8.3247    0.4805   -0.7098 C   0  0  0  0  0  0  0  0  0  0  0  0
   -7.0459   -1.6473   -0.3905 C   0  0  0  0  0  0  0  0  0  0  0  0
    0.3715    0.9815   -0.8498 H   0  0  0  0  0  0  0  0  0  0  0  0
    2.2710    0.9577    1.5173 H   0  0  0  0  0  0  0  0  0  0  0  0
    2.3676   -0.3068   -1.2714 H   0  0  0  0  0  0  0  0  0  0  0  0
   -1.7703    0.0903   -0.5344 H   0  0  0  0  0  0  0  0  0  0  0  0
   -0.0011   -1.4550   -0.8534 H   0  0  0  0  0  0  0  0  0  0  0  0
   -0.1503   -2.3572    0.6459 H   0  0  0  0  0  0  0  0  0  0  0  0
    2.0768   -1.8395    1.3454 H   0  0  0  0  0  0  0  0  0  0  0  0
    2.0910   -2.4932   -0.2809 H   0  0  0  0  0  0  0  0  0  0  0  0
    4.4256    0.8057   -1.7822 H   0  0  0  0  0  0  0  0  0  0  0  0
   -0.1208    3.0931    0.0628 H   0  0  0  0  0  0  0  0  0  0  0  0
    0.1278    2.5562    1.7287 H   0  0  0  0  0  0  0  0  0  0  0  0
    2.4438    3.0897    0.3694 H   0  0  0  0  0  0  0  0  0  0  0  0
    2.4575    2.3040   -1.2049 H   0  0  0  0  0  0  0  0  0  0  0  0
   -2.0938    2.0017    1.8056 H   0  0  0  0  0  0  0  0  0  0  0  0
   -2.2998    2.2775    0.0719 H   0  0  0  0  0  0  0  0  0  0  0  0
    4.7158    2.9408   -0.6048 H   0  0  0  0  0  0  0  0  0  0  0  0
    4.6145    2.1416    0.9550 H   0  0  0  0  0  0  0  0  0  0  0  0
    4.2433   -1.7234   -1.8739 H   0  0  0  0  0  0  0  0  0  0  0  0
    4.3301   -2.6599   -0.3886 H   0  0  0  0  0  0  0  0  0  0  0  0
   -0.3987    0.5833    2.9591 H   0  0  0  0  0  0  0  0  0  0  0  0
   -0.4958   -1.1699    2.8270 H   0  0  0  0  0  0  0  0  0  0  0  0
    1.0522   -0.3676    2.6996 H   0  0  0  0  0  0  0  0  0  0  0  0
   -2.6878   -0.3555    2.3599 H   0  0  0  0  0  0  0  0  0  0  0  0
    6.7452    0.7615    0.1979 H   0  0  0  0  0  0  0  0  0  0  0  0
    6.6813    1.6237   -1.3280 H   0  0  0  0  0  0  0  0  0  0  0  0
    4.2018    0.1590    2.0419 H   0  0  0  0  0  0  0  0  0  0  0  0
    4.2265   -1.5898    1.8291 H   0  0  0  0  0  0  0  0  0  0  0  0
    5.6704   -0.6450    1.5299 H   0  0  0  0  0  0  0  0  0  0  0  0
    6.4736   -2.6347   -1.6280 H   0  0  0  0  0  0  0  0  0  0  0  0
    6.6420   -1.9978   -0.0036 H   0  0  0  0  0  0  0  0  0  0  0  0
    7.8800   -0.5580   -1.5220 H   0  0  0  0  0  0  0  0  0  0  0  0
    6.5040   -0.4221   -2.6096 H   0  0  0  0  0  0  0  0  0  0  0  0
   -4.9010   -0.5387    1.4005 H   0  0  0  0  0  0  0  0  0  0  0  0
   -4.2591    1.0758    1.2000 H   0  0  0  0  0  0  0  0  0  0  0  0
   -3.5924   -2.5157    1.2418 H   0  0  0  0  0  0  0  0  0  0  0  0
   -1.9085   -2.4853    1.6672 H   0  0  0  0  0  0  0  0  0  0  0  0
   -2.4114   -2.2426   -0.0341 H   0  0  0  0  0  0  0  0  0  0  0  0
   -3.6601    0.5721   -1.1886 H   0  0  0  0  0  0  0  0  0  0  0  0
   -4.2866   -1.0580   -1.0056 H   0  0  0  0  0  0  0  0  0  0  0  0
   -5.7971    1.5868   -0.8501 H   0  0  0  0  0  0  0  0  0  0  0  0
   -6.8575    0.1353    0.7686 H   0  0  0  0  0  0  0  0  0  0  0  0
   -6.8350    0.8599   -2.9654 H   0  0  0  0  0  0  0  0  0  0  0  0
   -5.9477   -0.6758   -2.9086 H   0  0  0  0  0  0  0  0  0  0  0  0
   -5.0826    0.8524   -3.1036 H   0  0  0  0  0  0  0  0  0  0  0  0
   -8.6171    0.1685   -1.7174 H   0  0  0  0  0  0  0  0  0  0  0  0
   -9.1166    0.1562   -0.0254 H   0  0  0  0  0  0  0  0  0  0  0  0
   -8.2907    1.5745   -0.6815 H   0  0  0  0  0  0  0  0  0  0  0  0
   -6.1336   -2.1206   -0.0171 H   0  0  0  0  0  0  0  0  0  0  0  0
   -7.2045   -1.9784   -1.4215 H   0  0  0  0  0  0  0  0  0  0  0  0
   -7.8775   -2.0324    0.2103 H   0  0  0  0  0  0  0  0  0  0  0  0
  1  2  1  0  0  0  0
  1  6  1  0  0  0  0
  1  7  1  0  0  0  0
  1 15  1  0  0  0  0
  2  3  1  0  0  0  0
  2 10  1  0  0  0  0
  2 29  1  0  0  0  0
  3  4  1  0  0  0  0
  3 11  1  0  0  0  0
  3 30  1  0  0  0  0
  4  5  1  0  0  0  0
  4  8  1  0  0  0  0
  4 31  1  0  0  0  0
  5  9  1  0  0  0  0
  5 14  1  0  0  0  0
  5 18  1  0  0  0  0
  6 12  1  0  0  0  0
  6 16  1  0  0  0  0
  6 32  1  0  0  0  0
  7  8  1  0  0  0  0
  7 33  1  0  0  0  0
  7 34  1  0  0  0  0
  8 35  1  0  0  0  0
  8 36  1  0  0  0  0
  9 13  1  0  0  0  0
  9 17  1  0  0  0  0
  9 37  1  0  0  0  0
 10 12  1  0  0  0  0
 10 38  1  0  0  0  0
 10 39  1  0  0  0  0
 11 13  1  0  0  0  0
 11 40  1  0  0  0  0
 11 41  1  0  0  0  0
 12 42  1  0  0  0  0
 12 43  1  0  0  0  0
 13 44  1  0  0  0  0
 13 45  1  0  0  0  0
 14 19  1  0  0  0  0
 14 46  1  0  0  0  0
 14 47  1  0  0  0  0
 15 48  1  0  0  0  0
 15 49  1  0  0  0  0
 15 50  1  0  0  0  0
 16 21  1  0  0  0  0
 16 22  1  0  0  0  0
 16 51  1  0  0  0  0
 17 20  1  0  0  0  0
 17 52  1  0  0  0  0
 17 53  1  0  0  0  0
 18 54  1  0  0  0  0
 18 55  1  0  0  0  0
 18 56  1  0  0  0  0
 19 20  1  0  0  0  0
 19 57  1  0  0  0  0
 19 58  1  0  0  0  0
 20 59  1  0  0  0  0
 20 60  1  0  0  0  0
 21 23  1  0  0  0  0
 21 61  1  0  0  0  0
 21 62  1  0  0  0  0
 22 63  1  0  0  0  0
 22 64  1  0  0  0  0
 22 65  1  0  0  0  0
 23 24  1  0  0  0  0
 23 66  1  0  0  0  0
 23 67  1  0  0  0  0
 24 25  1  0  0  0  0
 24 26  1  0  0  0  0
 24 68  1  0  0  0  0
 25 27  1  0  0  0  0
 25 28  1  0  0  0  0
 25 69  1  0  0  0  0
 26 70  1  0  0  0  0
 26 71  1  0  0  0  0
 26 72  1  0  0  0  0
 27 73  1  0  0  0  0
 27 74  1  0  0  0  0
 27 75  1  0  0  0  0
 28 76  1  0  0  0  0
 28 77  1  0  0  0  0
 28 78  1  0  0  0  0
M  END
> <PUBCHEM_COMPOUND_CID>
6857533

> <PUBCHEM_CONFORMER_RMSD>
0.8

> <PUBCHEM_CONFORMER_DIVERSEORDER>
2
3
1
5
4
7
6

> <PUBCHEM_MMFF94_PARTIAL_CHARGES>
0

> <PUBCHEM_EFFECTIVE_ROTOR_COUNT>
7.2

> <PUBCHEM_PHARMACOPHORE_FEATURES>
8
1 22 hydrophobe
1 26 hydrophobe
3 25 27 28 hydrophobe
5 1 2 6 10 12 rings
5 16 21 23 24 25 hydrophobe
6 1 2 3 4 7 8 rings
6 3 4 5 9 11 13 rings
6 5 9 14 17 19 20 rings

> <PUBCHEM_HEAVY_ATOM_COUNT>
28

> <PUBCHEM_ATOM_DEF_STEREO_COUNT>
9

> <PUBCHEM_ATOM_UDEF_STEREO_COUNT>
0

> <PUBCHEM_BOND_DEF_STEREO_COUNT>
0

> <PUBCHEM_BOND_UDEF_STEREO_COUNT>
0

> <PUBCHEM_ISOTOPIC_ATOM_COUNT>
0

> <PUBCHEM_COMPONENT_COUNT>
1

> <PUBCHEM_CACTVS_TAUTO_COUNT>
1

> <PUBCHEM_CONFORMER_ID>
0068A33D00000002

> <PUBCHEM_MMFF94_ENERGY>
90.9574

> <PUBCHEM_FEATURE_SELFOVERLAP>
40.7

> <PUBCHEM_SHAPE_FINGERPRINT>
10 15 7853566903209012318
10299344 5 17822007614944088157
10693767 8 18261957448528890974
12011746 2 18272360980505901924
12166972 35 17313104146315962232
12236239 1 17531240673297545577
12838862 33 18410015404467212276
13533116 47 17749111076127834544
13540713 4 18125154931815578193
13540713 5 18051128399919648170
13668630 136 18113333107073533719
13782708 43 16298110890851055727
14068700 675 15863792786079163963
14294032 229 17097194251468118849
14849402 71 11671767261766497911
15082195 135 18271796875196657980
15119646 104 17894624877200641255
15183329 4 18412545427313003537
15188451 53 15502375638337130309
15238133 3 14692571001212703940
15475509 35 4678274036925119948
17349148 13 17604135000590939050
1813 80 14345788349326167010
18222031 100 18259985989935808656
18608769 82 17846212212795554115
200 152 18040989661645502024
20028762 73 17967249832192677310
2026 5 17242717922492420478
20281389 69 16056885745125538501
21033648 29 16988280868114778160
21150785 3 18273211993209010437
21267235 1 18259980475203062163
21279426 13 18342454816026295635
21424621 283 15482673502574956093
21521239 73 18334858316054714462
21637258 2 16370729244219121365
21792961 116 17989198274241231098
221357 26 18411135857464207388
2215653 11 18411976966731834048
22224240 67 9943804487410635081
22393880 68 18272652298888766090
22956985 138 16083873369788109244
23035841 295 15647053764056512239
23522609 53 17314762183944279737
23559900 14 18339919325592080840
23569914 152 17548716521600206447
23576562 1 17987226734128874695
2838139 119 16272211873368974095
29717793 49 18113052744356189356
3004659 81 18413389825866728688
3009799 131 18342177764945014521
335352 9 18410848868202812182
3633792 109 18335416868104290072
4015057 19 18334853871038104201
4098825 35 18412826919733522445
484989 97 18339914905601462099
5283156 175 17458341957744729517
8988823 20 17095530565303841448

> <PUBCHEM_SHAPE_MULTIPOLES>
576.23
19.93
2.05
1.63
20.1
0.27
0.11
-3.22
12.03
-1.54
-0.12
0.86
-0.13
0.79

> <PUBCHEM_SHAPE_SELFOVERLAP>
1183.768

> <PUBCHEM_SHAPE_VOLUME>
329.6

> <PUBCHEM_COORDINATE_TYPE>
2
5
10

$$$$

