4770
  -OEChem-06261200203D

 26 26  0     0  0  0  0  0  0999 V2000
    2.9312   -0.0598    0.5316 O   0  0  0  0  0  0  0  0  0  0  0  0
    4.6578    0.1230   -0.9800 O   0  0  0  0  0  0  0  0  0  0  0  0
    5.0633   -0.1157    1.2707 N   0  0  0  0  0  0  0  0  0  0  0  0
   -0.4980    0.0543   -1.0252 C   0  0  0  0  0  0  0  0  0  0  0  0
    0.5837   -0.0351    0.0581 C   0  0  0  0  0  0  0  0  0  0  0  0
   -1.8749    0.0258   -0.4522 C   0  0  0  0  0  0  0  0  0  0  0  0
    1.9873    0.0438   -0.5255 C   0  0  0  0  0  0  0  0  0  0  0  0
   -2.5305   -1.1923   -0.2724 C   0  0  0  0  0  0  0  0  0  0  0  0
   -2.5071    1.2172   -0.0965 C   0  0  0  0  0  0  0  0  0  0  0  0
   -3.8182   -1.2188    0.2632 C   0  0  0  0  0  0  0  0  0  0  0  0
   -3.7948    1.1907    0.4393 C   0  0  0  0  0  0  0  0  0  0  0  0
   -4.4503   -0.0273    0.6192 C   0  0  0  0  0  0  0  0  0  0  0  0
    4.2505   -0.0059    0.1696 C   0  0  0  0  0  0  0  0  0  0  0  0
   -0.3621    0.9730   -1.6106 H   0  0  0  0  0  0  0  0  0  0  0  0
   -0.3762   -0.7699   -1.7401 H   0  0  0  0  0  0  0  0  0  0  0  0
    0.4779   -0.9688    0.6259 H   0  0  0  0  0  0  0  0  0  0  0  0
    0.4550    0.7691    0.7945 H   0  0  0  0  0  0  0  0  0  0  0  0
    2.1437   -0.7765   -1.2358 H   0  0  0  0  0  0  0  0  0  0  0  0
    2.1237    0.9995   -1.0450 H   0  0  0  0  0  0  0  0  0  0  0  0
   -2.0481   -2.1275   -0.5439 H   0  0  0  0  0  0  0  0  0  0  0  0
   -2.0064    2.1726   -0.2299 H   0  0  0  0  0  0  0  0  0  0  0  0
   -4.3285   -2.1672    0.4038 H   0  0  0  0  0  0  0  0  0  0  0  0
   -4.2867    2.1183    0.7170 H   0  0  0  0  0  0  0  0  0  0  0  0
   -5.4528   -0.0481    1.0366 H   0  0  0  0  0  0  0  0  0  0  0  0
    4.6783   -0.2209    2.2033 H   0  0  0  0  0  0  0  0  0  0  0  0
    6.0740   -0.0951    1.1856 H   0  0  0  0  0  0  0  0  0  0  0  0
  1  7  1  0  0  0  0
  1 13  1  0  0  0  0
  2 13  2  0  0  0  0
  3 13  1  0  0  0  0
  3 25  1  0  0  0  0
  3 26  1  0  0  0  0
  4  5  1  0  0  0  0
  4  6  1  0  0  0  0
  4 14  1  0  0  0  0
  4 15  1  0  0  0  0
  5  7  1  0  0  0  0
  5 16  1  0  0  0  0
  5 17  1  0  0  0  0
  6  8  2  0  0  0  0
  6  9  1  0  0  0  0
  7 18  1  0  0  0  0
  7 19  1  0  0  0  0
  8 10  1  0  0  0  0
  8 20  1  0  0  0  0
  9 11  2  0  0  0  0
  9 21  1  0  0  0  0
 10 12  2  0  0  0  0
 10 22  1  0  0  0  0
 11 12  1  0  0  0  0
 11 23  1  0  0  0  0
 12 24  1  0  0  0  0
M  END
> <PUBCHEM_COMPOUND_CID>
4770

> <PUBCHEM_CONFORMER_RMSD>
0.6

> <PUBCHEM_CONFORMER_DIVERSEORDER>
1
49
44
32
41
63
31
66
65
10
47
64
51
35
60
52
48
34
28
13
9
23
30
56
27
21
57
54
24
25
3
14
42
55
59
2
8
50
39
40
11
17
45
26
29
37
4
16
22
36
46
5
20
33
43
53
38
6
12
7
19
18
15
61
62
58

> <PUBCHEM_MMFF94_PARTIAL_CHARGES>
19
1 -0.43
10 -0.15
11 -0.15
12 -0.15
13 0.78
2 -0.57
20 0.15
21 0.15
22 0.15
23 0.15
24 0.15
25 0.37
26 0.37
3 -0.8
4 0.14
6 -0.14
7 0.28
8 -0.15
9 -0.15

> <PUBCHEM_EFFECTIVE_ROTOR_COUNT>
5

> <PUBCHEM_PHARMACOPHORE_FEATURES>
3
1 2 acceptor
1 3 donor
6 6 8 9 10 11 12 rings

> <PUBCHEM_HEAVY_ATOM_COUNT>
13

> <PUBCHEM_ATOM_DEF_STEREO_COUNT>
0

> <PUBCHEM_ATOM_UDEF_STEREO_COUNT>
0

> <PUBCHEM_BOND_DEF_STEREO_COUNT>
0

> <PUBCHEM_BOND_UDEF_STEREO_COUNT>
0

> <PUBCHEM_ISOTOPIC_ATOM_COUNT>
0

> <PUBCHEM_COMPONENT_COUNT>
1

> <PUBCHEM_CACTVS_TAUTO_COUNT>
2

> <PUBCHEM_CONFORMER_ID>
000012A200000001

> <PUBCHEM_MMFF94_ENERGY>
23.4093

> <PUBCHEM_FEATURE_SELFOVERLAP>
15.223

> <PUBCHEM_SHAPE_FINGERPRINT>
10014705 185 15936701401378518169
10680689 15 17676206861935295927
10912923 1 17989485208501007160
114248 4 11743836954257188990
12251169 10 18411416207164319589
13214271 11 17967252005603825469
13675066 3 17676206857909321292
13897977 58 18412256225173448621
14123238 8 17917990568648027942
14455015 7 15338837603369008656
17834072 33 17989200409108807412
19050596 39 18272368663606392964
200 152 15841552963998951509
20279233 1 17458337546412461807
20432913 95 16702304572240537592
20645464 45 17748820818032317031
20645477 56 17240772765582803172
20645477 70 14836414653024180928
20828058 21 18408038511707052094
20828058 44 18412827988383689978
20871999 31 9295290504866456155
22485316 2 14908181945247187361
22646028 1 17418377986739518882
2297311 6 18261095383655799684
23402539 116 17203333312209071535
23402655 69 6988329317279602643
23403322 49 13326857742432375545
23559900 14 18189319333709763470
42 15 18343302578388492590
449060 50 17385441016264906388
573450 72 18273220810813772857

> <PUBCHEM_SHAPE_MULTIPOLES>
250.81
11.08
1.07
0.96
11.42
0.01
0.01
0.01
2.81
-1.47
0.03
0.61
0
-0.07

> <PUBCHEM_SHAPE_SELFOVERLAP>
506.547

> <PUBCHEM_SHAPE_VOLUME>
146.1

> <PUBCHEM_COORDINATE_TYPE>
2
5
10

$$$$

