3498
  -OEChem-06251223273D

 56 57  0     1  0  0  0  0  0999 V2000
   -1.3071    0.5830   -1.3541 O   0  0  0  0  0  0  0  0  0  0  0  0
   -0.2835   -3.0458    1.7950 O   0  0  0  0  0  0  0  0  0  0  0  0
   -1.7203    2.2419    1.7563 O   0  0  0  0  0  0  0  0  0  0  0  0
   -3.0074    4.4916    0.9761 O   0  0  0  0  0  0  0  0  0  0  0  0
   -1.2243   -0.8216    0.4886 N   0  0  0  0  0  0  0  0  0  0  0  0
    4.6078   -0.4830    0.7136 N   0  0  0  0  0  0  0  0  0  0  0  0
    1.3831   -3.1958    0.1848 N   0  0  0  0  0  0  0  0  0  0  0  0
   -3.6183    3.2340    0.8846 N   0  0  0  0  0  0  0  0  0  0  0  0
   -3.3593    0.1784   -0.1649 C   0  0  1  0  0  0  0  0  0  0  0  0
   -4.1233   -1.1568   -0.2724 C   0  0  0  0  0  0  0  0  0  0  0  0
   -4.0724   -1.8289   -1.6611 C   0  0  0  0  0  0  0  0  0  0  0  0
    0.1893   -1.1078    0.4178 C   0  0  1  0  0  0  0  0  0  0  0  0
   -3.5938    0.8470    1.2016 C   0  0  0  0  0  0  0  0  0  0  0  0
   -1.8612    0.0109   -0.4158 C   0  0  0  0  0  0  0  0  0  0  0  0
    1.0155   -0.1325    1.2661 C   0  0  0  0  0  0  0  0  0  0  0  0
    2.4566   -0.0629    0.8480 C   0  0  0  0  0  0  0  0  0  0  0  0
   -2.6606   -2.2730   -2.0458 C   0  0  0  0  0  0  0  0  0  0  0  0
   -4.6147   -0.8642   -2.7197 C   0  0  0  0  0  0  0  0  0  0  0  0
    2.9943    0.8209   -0.1074 C   0  0  0  0  0  0  0  0  0  0  0  0
    0.3921   -2.5397    0.9015 C   0  0  0  0  0  0  0  0  0  0  0  0
   -2.8639    2.1710    1.3112 C   0  0  0  0  0  0  0  0  0  0  0  0
    4.3600    0.5373   -0.1769 C   0  0  0  0  0  0  0  0  0  0  0  0
    3.4491   -0.8531    1.3419 C   0  0  0  0  0  0  0  0  0  0  0  0
    2.4704    1.8391   -0.9284 C   0  0  0  0  0  0  0  0  0  0  0  0
    5.2314    1.2237   -1.0301 C   0  0  0  0  0  0  0  0  0  0  0  0
    3.3302    2.5342   -1.7868 C   0  0  0  0  0  0  0  0  0  0  0  0
    4.6891    2.2296   -1.8352 C   0  0  0  0  0  0  0  0  0  0  0  0
    1.7414   -4.5773    0.4116 C   0  0  0  0  0  0  0  0  0  0  0  0
   -3.7306    0.8756   -0.9256 H   0  0  0  0  0  0  0  0  0  0  0  0
   -3.7571   -1.8692    0.4773 H   0  0  0  0  0  0  0  0  0  0  0  0
   -5.1770   -0.9745   -0.0215 H   0  0  0  0  0  0  0  0  0  0  0  0
   -4.7184   -2.7150   -1.6245 H   0  0  0  0  0  0  0  0  0  0  0  0
    0.4846   -1.0352   -0.6367 H   0  0  0  0  0  0  0  0  0  0  0  0
   -4.6673    1.0144    1.3550 H   0  0  0  0  0  0  0  0  0  0  0  0
   -3.2596    0.2100    2.0290 H   0  0  0  0  0  0  0  0  0  0  0  0
    0.9556   -0.4047    2.3285 H   0  0  0  0  0  0  0  0  0  0  0  0
    0.5887    0.8760    1.1958 H   0  0  0  0  0  0  0  0  0  0  0  0
   -1.7563   -1.2368    1.2473 H   0  0  0  0  0  0  0  0  0  0  0  0
   -2.0381   -1.4709   -2.4440 H   0  0  0  0  0  0  0  0  0  0  0  0
   -2.1518   -2.7732   -1.2169 H   0  0  0  0  0  0  0  0  0  0  0  0
   -2.7319   -3.0105   -2.8552 H   0  0  0  0  0  0  0  0  0  0  0  0
   -3.9375   -0.0273   -2.9160 H   0  0  0  0  0  0  0  0  0  0  0  0
   -5.5897   -0.4619   -2.4255 H   0  0  0  0  0  0  0  0  0  0  0  0
   -4.7513   -1.3932   -3.6699 H   0  0  0  0  0  0  0  0  0  0  0  0
    3.4519   -1.6432    2.0797 H   0  0  0  0  0  0  0  0  0  0  0  0
    5.5143   -0.8981    0.8789 H   0  0  0  0  0  0  0  0  0  0  0  0
    1.4135    2.0887   -0.9042 H   0  0  0  0  0  0  0  0  0  0  0  0
    6.2895    0.9873   -1.0685 H   0  0  0  0  0  0  0  0  0  0  0  0
    1.8721   -2.7044   -0.5573 H   0  0  0  0  0  0  0  0  0  0  0  0
    2.9316    3.3203   -2.4226 H   0  0  0  0  0  0  0  0  0  0  0  0
   -4.5277    3.1880    0.4389 H   0  0  0  0  0  0  0  0  0  0  0  0
    5.3388    2.7820   -2.5093 H   0  0  0  0  0  0  0  0  0  0  0  0
    2.8310   -4.6559    0.3943 H   0  0  0  0  0  0  0  0  0  0  0  0
    1.3570   -4.9317    1.3708 H   0  0  0  0  0  0  0  0  0  0  0  0
    1.3201   -5.1763   -0.3994 H   0  0  0  0  0  0  0  0  0  0  0  0
   -3.3432    4.9080    0.1645 H   0  0  0  0  0  0  0  0  0  0  0  0
  1 14  2  0  0  0  0
  2 20  2  0  0  0  0
  3 21  2  0  0  0  0
  4  8  1  0  0  0  0
  4 56  1  0  0  0  0
  5 12  1  0  0  0  0
  5 14  1  0  0  0  0
  5 38  1  0  0  0  0
  6 22  1  0  0  0  0
  6 23  1  0  0  0  0
  6 46  1  0  0  0  0
  7 20  1  0  0  0  0
  7 28  1  0  0  0  0
  7 49  1  0  0  0  0
  8 21  1  0  0  0  0
  8 51  1  0  0  0  0
  9 10  1  0  0  0  0
  9 13  1  0  0  0  0
  9 14  1  0  0  0  0
  9 29  1  0  0  0  0
 10 11  1  0  0  0  0
 10 30  1  0  0  0  0
 10 31  1  0  0  0  0
 11 17  1  0  0  0  0
 11 18  1  0  0  0  0
 11 32  1  0  0  0  0
 12 15  1  0  0  0  0
 12 20  1  0  0  0  0
 12 33  1  0  0  0  0
 13 21  1  0  0  0  0
 13 34  1  0  0  0  0
 13 35  1  0  0  0  0
 15 16  1  0  0  0  0
 15 36  1  0  0  0  0
 15 37  1  0  0  0  0
 16 19  1  0  0  0  0
 16 23  2  0  0  0  0
 17 39  1  0  0  0  0
 17 40  1  0  0  0  0
 17 41  1  0  0  0  0
 18 42  1  0  0  0  0
 18 43  1  0  0  0  0
 18 44  1  0  0  0  0
 19 22  1  0  0  0  0
 19 24  2  0  0  0  0
 22 25  2  0  0  0  0
 23 45  1  0  0  0  0
 24 26  1  0  0  0  0
 24 47  1  0  0  0  0
 25 27  1  0  0  0  0
 25 48  1  0  0  0  0
 26 27  2  0  0  0  0
 26 50  1  0  0  0  0
 27 52  1  0  0  0  0
 28 53  1  0  0  0  0
 28 54  1  0  0  0  0
 28 55  1  0  0  0  0
M  END
> <PUBCHEM_COMPOUND_CID>
3498

> <PUBCHEM_CONFORMER_RMSD>
1.2

> <PUBCHEM_CONFORMER_DIVERSEORDER>
1
54
385
185
85
308
107
195
329
323
144
109
103
164
149
23
146
316
127
367
381
26
202
296
302
372
266
241
197
371
87
111
60
353
365
289
314
133
7
287
304
157
360
215
8
384
383
155
352
192
252
223
37
17
152
257
161
27
379
312
356
79
72
351
162
183
361
229
196
225
102
255
170
210
80
96
244
333
134
64
180
186
38
284
181
29
325
88
297
125
260
336
142
92
283
24
65
153
276
233
211
9
237
221
173
362
78
174
95
132
25
158
382
330
130
246
340
345
105
165
293
232
168
303
248
108
160
264
57
83
201
234
22
262
343
19
82
32
176
67
373
148
20
222
35
200
30
189
355
140
77
313
269
124
163
377
141
274
253
307
226
280
175
71
235
86
256
110
131
42
251
39
337
378
220
184
193
16
348
231
34
206
121
91
243
84
135
120
320
267
53
321
188
166
74
112
150
331
327
242
106
190
294
204
145
12
335
207
119
10
224
291
55
326
31
93
295
177
28
311
81
98
227
68
315
363
47
342
97
299
101
366
154
44
178
6
62
151
58
122
48
286
275
66
380
282
159
45
218
290
139
369
318
169
347
285
63
94
228
33
100
129
15
114
69
138
11
137
187
273
288
364
271
156
292
89
219
245
73
2
76
279
203
52
374
309
357
209
259
118
90
214
358
117
5
41
216
36
278
46
212
338
49
277
332
387
270
143
50
272
261
300
322
14
250
344
115
126
236
310
217
13
3
4
239
359
21
179
208
258
136
306
249
247
370
324
70
238
230
254
349
116
171
328
341
51
113
75
40
199
99
265
298
205
281
61
317
375
263
339
354
43
104
147
182
305
268
18
376
346
59
56
172
350
334
240
386
319
194
213
198
128
301
368
167
123
191

> <PUBCHEM_MMFF94_PARTIAL_CHARGES>
33
1 -0.57
12 0.36
13 0.06
14 0.57
15 0.18
16 -0.18
2 -0.57
20 0.57
21 0.57
22 -0.15
23 -0.3
24 -0.15
25 -0.15
26 -0.15
27 -0.15
28 0.3
3 -0.57
38 0.37
4 -0.44
45 0.15
46 0.27
47 0.15
48 0.15
49 0.37
5 -0.73
50 0.15
51 0.37
52 0.15
56 0.4
6 0.03
7 -0.73
8 -0.39
9 0.06

> <PUBCHEM_EFFECTIVE_ROTOR_COUNT>
12

> <PUBCHEM_PHARMACOPHORE_FEATURES>
12
1 1 acceptor
1 2 acceptor
1 3 acceptor
1 5 donor
1 6 cation
1 6 donor
1 7 donor
1 8 donor
3 11 17 18 hydrophobe
4 9 10 11 13 hydrophobe
5 6 16 19 22 23 rings
6 19 22 24 25 26 27 rings

> <PUBCHEM_HEAVY_ATOM_COUNT>
28

> <PUBCHEM_ATOM_DEF_STEREO_COUNT>
0

> <PUBCHEM_ATOM_UDEF_STEREO_COUNT>
2

> <PUBCHEM_BOND_DEF_STEREO_COUNT>
0

> <PUBCHEM_BOND_UDEF_STEREO_COUNT>
0

> <PUBCHEM_ISOTOPIC_ATOM_COUNT>
0

> <PUBCHEM_COMPONENT_COUNT>
1

> <PUBCHEM_CACTVS_TAUTO_COUNT>
12

> <PUBCHEM_CONFORMER_ID>
00000DAA00000001

> <PUBCHEM_MMFF94_ENERGY>
55.3685

> <PUBCHEM_FEATURE_SELFOVERLAP>
61.05

> <PUBCHEM_SHAPE_FINGERPRINT>
10940486 97 17828213416710501814
12173636 292 18339350860610221648
12422481 6 17763487388414241890
12788726 201 18263359205225143637
13617811 41 18041002778966215463
13911987 19 18198341758723847055
20739085 24 18056196023896586442
20775438 99 16601281147491637615
21033648 144 17775286010967128430
21033648 29 15267349513072312052
21033650 10 17897417602629180868
22907989 373 18051965931549108238
23558518 356 18339923848224694755
23559900 14 13973420109275104002
23566358 27 18267294520650470771
340366 18 17757270757759466035
352729 6 18270402672523984370
474 4 18272085045351350698
5081480 168 17760924439272551038
633830 44 18342165717630444402

> <PUBCHEM_SHAPE_MULTIPOLES>
532.83
10.38
4.58
2.1
3.52
0.8
0.9
-4.38
4.9
-1.26
-1.52
-1.37
-0.28
-4.45

> <PUBCHEM_SHAPE_SELFOVERLAP>
1105.696

> <PUBCHEM_SHAPE_VOLUME>
303.7

> <PUBCHEM_COORDINATE_TYPE>
2
5
10

$$$$

