15699
  -OEChem-07051213113D

 26 29  0     0  0  0  0  0  0999 V2000
   -4.0193    1.1829    0.0000 O   0  0  0  0  0  0  0  0  0  0  0  0
    4.0195   -1.1830    0.0000 O   0  0  0  0  0  0  0  0  0  0  0  0
   -0.6780   -0.2015    0.0000 C   0  0  0  0  0  0  0  0  0  0  0  0
    0.6779    0.2015   -0.0001 C   0  0  0  0  0  0  0  0  0  0  0  0
   -1.6832    0.7819   -0.0001 C   0  0  0  0  0  0  0  0  0  0  0  0
    1.6833   -0.7819   -0.0001 C   0  0  0  0  0  0  0  0  0  0  0  0
   -0.9961   -1.5735    0.0001 C   0  0  0  0  0  0  0  0  0  0  0  0
    0.9961    1.5735    0.0000 C   0  0  0  0  0  0  0  0  0  0  0  0
   -1.3597    2.1409   -0.0001 C   0  0  0  0  0  0  0  0  0  0  0  0
    1.3596   -2.1410   -0.0001 C   0  0  0  0  0  0  0  0  0  0  0  0
    0.0224   -2.5335    0.0000 C   0  0  0  0  0  0  0  0  0  0  0  0
   -0.0224    2.5336   -0.0001 C   0  0  0  0  0  0  0  0  0  0  0  0
   -3.1071    0.3662    0.0003 C   0  0  0  0  0  0  0  0  0  0  0  0
    3.1071   -0.3661   -0.0001 C   0  0  0  0  0  0  0  0  0  0  0  0
   -2.4016   -1.9876    0.0000 C   0  0  0  0  0  0  0  0  0  0  0  0
    2.4016    1.9876    0.0001 C   0  0  0  0  0  0  0  0  0  0  0  0
   -3.3933   -1.0900    0.0000 C   0  0  0  0  0  0  0  0  0  0  0  0
    3.3933    1.0901    0.0002 C   0  0  0  0  0  0  0  0  0  0  0  0
   -2.1317    2.9054    0.0000 H   0  0  0  0  0  0  0  0  0  0  0  0
    2.1317   -2.9054   -0.0001 H   0  0  0  0  0  0  0  0  0  0  0  0
   -0.2143   -3.5950    0.0000 H   0  0  0  0  0  0  0  0  0  0  0  0
    0.2143    3.5950   -0.0001 H   0  0  0  0  0  0  0  0  0  0  0  0
   -2.6278   -3.0489   -0.0001 H   0  0  0  0  0  0  0  0  0  0  0  0
    2.6278    3.0489    0.0002 H   0  0  0  0  0  0  0  0  0  0  0  0
   -4.4319   -1.4009   -0.0002 H   0  0  0  0  0  0  0  0  0  0  0  0
    4.4319    1.4011    0.0003 H   0  0  0  0  0  0  0  0  0  0  0  0
  1 13  2  0  0  0  0
  2 14  2  0  0  0  0
  3  4  1  0  0  0  0
  3  5  2  0  0  0  0
  3  7  1  0  0  0  0
  4  6  1  0  0  0  0
  4  8  2  0  0  0  0
  5  9  1  0  0  0  0
  5 13  1  0  0  0  0
  6 10  2  0  0  0  0
  6 14  1  0  0  0  0
  7 11  2  0  0  0  0
  7 15  1  0  0  0  0
  8 12  1  0  0  0  0
  8 16  1  0  0  0  0
  9 12  2  0  0  0  0
  9 19  1  0  0  0  0
 10 11  1  0  0  0  0
 10 20  1  0  0  0  0
 11 21  1  0  0  0  0
 12 22  1  0  0  0  0
 13 17  1  0  0  0  0
 14 18  1  0  0  0  0
 15 17  2  0  0  0  0
 15 23  1  0  0  0  0
 16 18  2  0  0  0  0
 16 24  1  0  0  0  0
 17 25  1  0  0  0  0
 18 26  1  0  0  0  0
M  END
> <PUBCHEM_COMPOUND_CID>
15699

> <PUBCHEM_CONFORMER_RMSD>
0.4

> <PUBCHEM_CONFORMER_DIVERSEORDER>
1

> <PUBCHEM_MMFF94_PARTIAL_CHARGES>
24
1 -0.57
10 -0.15
11 -0.15
12 -0.15
13 0.47
14 0.47
15 -0.18
16 -0.18
17 -0.14
18 -0.14
19 0.15
2 -0.57
20 0.15
21 0.15
22 0.15
23 0.15
24 0.15
25 0.15
26 0.15
5 0.09
6 0.09
7 0.03
8 0.03
9 -0.15

> <PUBCHEM_EFFECTIVE_ROTOR_COUNT>
0

> <PUBCHEM_PHARMACOPHORE_FEATURES>
6
1 1 acceptor
1 2 acceptor
6 3 4 5 8 9 12 rings
6 3 4 6 7 10 11 rings
6 3 5 7 13 15 17 rings
6 4 6 8 14 16 18 rings

> <PUBCHEM_HEAVY_ATOM_COUNT>
18

> <PUBCHEM_ATOM_DEF_STEREO_COUNT>
0

> <PUBCHEM_ATOM_UDEF_STEREO_COUNT>
0

> <PUBCHEM_BOND_DEF_STEREO_COUNT>
0

> <PUBCHEM_BOND_UDEF_STEREO_COUNT>
0

> <PUBCHEM_ISOTOPIC_ATOM_COUNT>
0

> <PUBCHEM_COMPONENT_COUNT>
1

> <PUBCHEM_CACTVS_TAUTO_COUNT>
1

> <PUBCHEM_CONFORMER_ID>
00003D5300000001

> <PUBCHEM_MMFF94_ENERGY>
56.037

> <PUBCHEM_FEATURE_SELFOVERLAP>
30.568

> <PUBCHEM_SHAPE_FINGERPRINT>
10062212 137 18410865351628092907
10608611 8 18338238167480030521
10863032 1 18337671914643790177
10967382 1 18338517559365726727
1100329 8 17041481090000224457
11132069 177 18409736157396652576
11471102 20 18410860975066870469
12382932 28 18409448076760182187
13132413 78 18337389323070781709
13140716 1 18410575067483210153
13221675 6 18410575119054641186
13897977 150 18410858767558986845
14178342 30 17760664572355434064
14790565 3 18338218475076856896
15196674 1 18410856538164953093
15442244 35 18410575076336901474
15536298 74 18334294236762154144
16945 1 18338797947694612486
17804303 29 18409163325066322374
193761 8 17762337315650273285
19591789 44 18411135792749579971
20510252 161 18261390001258959392
20905425 154 18120090834492612118
21267235 1 18410846638329074567
21501502 16 18338517434790576148
2334 1 18266458706881282055
23402539 116 18334868229050334366
23463225 33 18412826854612531116
23559900 14 18334576841869210060
238 59 17695393439041175045
2748010 2 18338517426200641623
335352 9 18338799038616306102
34934 24 18339088180420856563
350125 39 18195521498497693281
5104073 3 18410573963676615640
7364860 26 18263361554588429606
8809292 202 18343298175783439210
9709674 26 18337104562639508702

> <PUBCHEM_SHAPE_MULTIPOLES>
358.69
5.73
2.94
0.61
0
0
0
0
0
0
0
0
0
0

> <PUBCHEM_SHAPE_SELFOVERLAP>
834.428

> <PUBCHEM_SHAPE_VOLUME>
182.7

> <PUBCHEM_COORDINATE_TYPE>
2
5
10

$$$$

