443719
  -OEChem-07051213032D

 40 44  0     0  0  0  0  0  0999 V2000
    2.6079    0.6952    0.0000 O   0  0  0  0  0  0  0  0  0  0  0  0
    2.6079    2.3716    0.0000 O   0  0  0  0  0  0  0  0  0  0  0  0
    8.9752   -2.0647    0.0000 O   0  0  0  0  0  0  0  0  0  0  0  0
   10.7866   -1.0189    0.0000 O   0  0  0  0  0  0  0  0  0  0  0  0
    6.2435   -0.5081    0.0000 N   0  0  0  0  0  0  0  0  0  0  0  0
    7.1256    1.0334    0.0000 C   0  0  0  0  0  0  0  0  0  0  0  0
    5.3935    1.0334    0.0000 C   0  0  0  0  0  0  0  0  0  0  0  0
    6.2596    0.5334    0.0000 C   0  0  0  0  0  0  0  0  0  0  0  0
    8.0356    0.5266    0.0000 C   0  0  0  0  0  0  0  0  0  0  0  0
    5.3935    2.0334    0.0000 C   0  0  0  0  0  0  0  0  0  0  0  0
    8.0436   -0.5150    0.0000 C   0  0  0  0  0  0  0  0  0  0  0  0
    7.1256    2.0334    0.0000 C   0  0  0  0  0  0  0  0  0  0  0  0
    4.4996    0.4988    0.0000 C   0  0  0  0  0  0  0  0  0  0  0  0
    6.2596    2.5334    0.0000 C   0  0  0  0  0  0  0  0  0  0  0  0
    3.5935    1.0126    0.0000 C   0  0  0  0  0  0  0  0  0  0  0  0
    4.4996    2.5681    0.0000 C   0  0  0  0  0  0  0  0  0  0  0  0
    3.5935    2.0542    0.0000 C   0  0  0  0  0  0  0  0  0  0  0  0
    8.9624    1.0906    0.0000 C   0  0  0  0  0  0  0  0  0  0  0  0
    8.9790   -1.0648    0.0000 C   0  0  0  0  0  0  0  0  0  0  0  0
    7.1415   -1.0358    0.0000 C   0  0  0  0  0  0  0  0  0  0  0  0
    9.9187   -0.5223    0.0000 C   0  0  0  0  0  0  0  0  0  0  0  0
    9.9103    0.5627    0.0000 C   0  0  0  0  0  0  0  0  0  0  0  0
    2.0000    1.5334    0.0000 C   0  0  0  0  0  0  0  0  0  0  0  0
    9.8393   -2.5681    0.0000 C   0  0  0  0  0  0  0  0  0  0  0  0
   11.6507   -0.5156    0.0000 C   0  0  0  0  0  0  0  0  0  0  0  0
    7.6625    2.3434    0.0000 H   0  0  0  0  0  0  0  0  0  0  0  0
    4.5068   -0.1212    0.0000 H   0  0  0  0  0  0  0  0  0  0  0  0
    6.2596    3.1534    0.0000 H   0  0  0  0  0  0  0  0  0  0  0  0
    4.5068    3.1880    0.0000 H   0  0  0  0  0  0  0  0  0  0  0  0
    8.9505    1.7105    0.0000 H   0  0  0  0  0  0  0  0  0  0  0  0
    7.1391   -1.6558    0.0000 H   0  0  0  0  0  0  0  0  0  0  0  0
   10.4436    0.8789    0.0000 H   0  0  0  0  0  0  0  0  0  0  0  0
    1.5391    1.9482    0.0000 H   0  0  0  0  0  0  0  0  0  0  0  0
    1.5391    1.1187    0.0000 H   0  0  0  0  0  0  0  0  0  0  0  0
    9.5272   -3.1038    0.0000 H   0  0  0  0  0  0  0  0  0  0  0  0
   10.3750   -2.8802    0.0000 H   0  0  0  0  0  0  0  0  0  0  0  0
   10.1513   -2.0323    0.0000 H   0  0  0  0  0  0  0  0  0  0  0  0
   11.9628   -1.0513    0.0000 H   0  0  0  0  0  0  0  0  0  0  0  0
   12.1864   -0.2035    0.0000 H   0  0  0  0  0  0  0  0  0  0  0  0
   11.3386    0.0202    0.0000 H   0  0  0  0  0  0  0  0  0  0  0  0
  1 15  1  0  0  0  0
  1 23  1  0  0  0  0
  2 17  1  0  0  0  0
  2 23  1  0  0  0  0
  3 19  1  0  0  0  0
  3 24  1  0  0  0  0
  4 21  1  0  0  0  0
  4 25  1  0  0  0  0
  5  8  2  0  0  0  0
  5 20  1  0  0  0  0
  6  8  1  0  0  0  0
  6  9  2  0  0  0  0
  6 12  1  0  0  0  0
  7  8  1  0  0  0  0
  7 10  1  0  0  0  0
  7 13  2  0  0  0  0
  9 11  1  0  0  0  0
  9 18  1  0  0  0  0
 10 14  1  0  0  0  0
 10 16  2  0  0  0  0
 11 19  1  0  0  0  0
 11 20  2  0  0  0  0
 12 14  2  0  0  0  0
 12 26  1  0  0  0  0
 13 15  1  0  0  0  0
 13 27  1  0  0  0  0
 14 28  1  0  0  0  0
 15 17  2  0  0  0  0
 16 17  1  0  0  0  0
 16 29  1  0  0  0  0
 18 22  2  0  0  0  0
 18 30  1  0  0  0  0
 19 21  2  0  0  0  0
 20 31  1  0  0  0  0
 21 22  1  0  0  0  0
 22 32  1  0  0  0  0
 23 33  1  0  0  0  0
 23 34  1  0  0  0  0
 24 35  1  0  0  0  0
 24 36  1  0  0  0  0
 24 37  1  0  0  0  0
 25 38  1  0  0  0  0
 25 39  1  0  0  0  0
 25 40  1  0  0  0  0
M  END
> <PUBCHEM_COMPOUND_CID>
443719

> <PUBCHEM_COMPOUND_CANONICALIZED>
1

> <PUBCHEM_CACTVS_COMPLEXITY>
488

> <PUBCHEM_CACTVS_HBOND_ACCEPTOR>
5

> <PUBCHEM_CACTVS_HBOND_DONOR>
0

> <PUBCHEM_CACTVS_ROTATABLE_BOND>
2

> <PUBCHEM_CACTVS_SUBSKEYS>
AAADccB6OAAAAAAAAAAAAAAAAAAAASAAAAA8YMEAAAAAAEjx/AAAHgAAAAAADAzBngc+zvIIFACgAzRnRACCiCAxICAI2CAuzJgdJuLEsZukMCpmwBnO6Aew0PMO4AADQAAaQADAAAaAADSAAAAAAAAAAA==

> <PUBCHEM_IUPAC_OPENEYE_NAME>
1,2-dimethoxy-[1,3]benzodioxolo[5,6-c]phenanthridine

> <PUBCHEM_IUPAC_CAS_NAME>
1,2-dimethoxy-[1,3]benzodioxolo[5,6-c]phenanthridine

> <PUBCHEM_IUPAC_NAME>
1,2-dimethoxy-[1,3]benzodioxolo[5,6-c]phenanthridine

> <PUBCHEM_IUPAC_SYSTEMATIC_NAME>
1,2-dimethoxy-[1,3]benzodioxolo[5,6-c]phenanthridine

> <PUBCHEM_IUPAC_TRADITIONAL_NAME>
1,2-dimethoxy-[1,3]benzodioxolo[5,6-c]phenanthridine

> <PUBCHEM_IUPAC_INCHI>
InChI=1S/C20H15NO4/c1-22-16-6-5-12-13-4-3-11-7-17-18(25-10-24-17)8-14(11)19(13)21-9-15(12)20(16)23-2/h3-9H,10H2,1-2H3

> <PUBCHEM_IUPAC_INCHIKEY>
JGUNQXPMULKFNY-UHFFFAOYSA-N

> <PUBCHEM_XLOGP3_AA>
4.4

> <PUBCHEM_EXACT_MASS>
333.100108

> <PUBCHEM_MOLECULAR_FORMULA>
C20H15NO4

> <PUBCHEM_MOLECULAR_WEIGHT>
333.3374

> <PUBCHEM_OPENEYE_CAN_SMILES>
COC1=C(C2=CN=C3C(=C2C=C1)C=CC4=CC5=C(C=C43)OCO5)OC

> <PUBCHEM_OPENEYE_ISO_SMILES>
COC1=C(C2=CN=C3C(=C2C=C1)C=CC4=CC5=C(C=C43)OCO5)OC

> <PUBCHEM_CACTVS_TPSA>
49.8

> <PUBCHEM_MONOISOTOPIC_WEIGHT>
333.100108

> <PUBCHEM_TOTAL_CHARGE>
0

> <PUBCHEM_HEAVY_ATOM_COUNT>
25

> <PUBCHEM_ATOM_DEF_STEREO_COUNT>
0

> <PUBCHEM_ATOM_UDEF_STEREO_COUNT>
0

> <PUBCHEM_BOND_DEF_STEREO_COUNT>
0

> <PUBCHEM_BOND_UDEF_STEREO_COUNT>
0

> <PUBCHEM_ISOTOPIC_ATOM_COUNT>
0

> <PUBCHEM_COMPONENT_COUNT>
1

> <PUBCHEM_CACTVS_TAUTO_COUNT>
1

> <PUBCHEM_COORDINATE_TYPE>
1
5
255

> <PUBCHEM_BONDANNOTATIONS>
10  14  8
10  16  8
11  19  8
11  20  8
12  14  8
13  15  8
15  17  8
16  17  8
18  22  8
19  21  8
21  22  8
5  20  8
5  8  8
6  12  8
6  8  8
6  9  8
7  10  8
7  13  8
7  8  8
9  11  8
9  18  8

$$$$

