5459828
  -OEChem-07051212483D

 46 49  0     1  0  0  0  0  0999 V2000
   -0.1529   -3.3128   -0.2760 O   0  0  0  0  0  0  0  0  0  0  0  0
    4.5148   -2.6415   -0.6747 O   0  0  0  0  0  0  0  0  0  0  0  0
   -2.4647    1.0657    1.3613 O   0  0  0  0  0  0  0  0  0  0  0  0
    0.6774    1.8075    0.6094 O   0  0  0  0  0  0  0  0  0  0  0  0
   -2.5853    3.6558   -0.5632 O   0  0  0  0  0  0  0  0  0  0  0  0
    6.4411    1.4438   -0.1144 O   0  0  0  0  0  0  0  0  0  0  0  0
   -3.6538    2.3805   -2.1033 O   0  0  0  0  0  0  0  0  0  0  0  0
    5.4147    3.4266    0.3806 O   0  0  0  0  0  0  0  0  0  0  0  0
   -0.5840   -0.6039    0.2894 N   0  0  0  0  0  0  0  0  0  0  0  0
    4.2650    0.0900   -0.1262 N   0  0  0  0  0  0  0  0  0  0  0  0
   -5.8386    3.0085   -0.1971 N   0  0  0  0  0  0  0  0  0  0  0  0
    0.7224   -1.0480    0.0579 C   0  0  0  0  0  0  0  0  0  0  0  0
    1.8515   -0.2104    0.0897 C   0  0  0  0  0  0  0  0  0  0  0  0
   -1.6688   -1.4813    0.2440 C   0  0  0  0  0  0  0  0  0  0  0  0
    0.9018   -2.4170   -0.2242 C   0  0  0  0  0  0  0  0  0  0  0  0
    3.1375   -0.7432   -0.1574 C   0  0  0  0  0  0  0  0  0  0  0  0
   -2.9788   -1.0541    0.4716 C   0  0  0  0  0  0  0  0  0  0  0  0
   -1.4259   -2.8319   -0.0416 C   0  0  0  0  0  0  0  0  0  0  0  0
    3.2823   -2.1084   -0.4344 C   0  0  0  0  0  0  0  0  0  0  0  0
    2.1695   -2.9440   -0.4680 C   0  0  0  0  0  0  0  0  0  0  0  0
    1.7471    1.2564    0.3814 C   0  0  0  0  0  0  0  0  0  0  0  0
   -3.2896    0.3380    0.7720 C   0  0  0  0  0  0  0  0  0  0  0  0
   -4.6357    0.9616    0.3690 C   0  0  0  0  0  0  0  0  0  0  0  0
   -4.0318   -1.9691    0.4147 C   0  0  0  0  0  0  0  0  0  0  0  0
   -2.4763   -3.7474   -0.0988 C   0  0  0  0  0  0  0  0  0  0  0  0
   -4.5263    2.4749    0.1760 C   0  0  1  0  0  0  0  0  0  0  0  0
    4.1547    1.4252    0.1411 C   0  0  0  0  0  0  0  0  0  0  0  0
    3.0026    2.0571    0.3921 C   0  0  0  0  0  0  0  0  0  0  0  0
   -3.7810   -3.3123    0.1303 C   0  0  0  0  0  0  0  0  0  0  0  0
   -3.5674    2.8031   -0.9575 C   0  0  0  0  0  0  0  0  0  0  0  0
    5.3788    2.2305    0.1563 C   0  0  0  0  0  0  0  0  0  0  0  0
   -0.7409    0.3733    0.4880 H   0  0  0  0  0  0  0  0  0  0  0  0
    2.2896   -4.0027   -0.6836 H   0  0  0  0  0  0  0  0  0  0  0  0
   -4.9734    0.4896   -0.5622 H   0  0  0  0  0  0  0  0  0  0  0  0
   -5.3573    0.7290    1.1613 H   0  0  0  0  0  0  0  0  0  0  0  0
    5.1847   -0.2640   -0.3419 H   0  0  0  0  0  0  0  0  0  0  0  0
   -5.0593   -1.6692    0.6015 H   0  0  0  0  0  0  0  0  0  0  0  0
   -2.2873   -4.7942   -0.3191 H   0  0  0  0  0  0  0  0  0  0  0  0
   -4.1886    2.9593    1.0991 H   0  0  0  0  0  0  0  0  0  0  0  0
    2.9186    3.1165    0.6038 H   0  0  0  0  0  0  0  0  0  0  0  0
   -4.6034   -4.0208    0.0904 H   0  0  0  0  0  0  0  0  0  0  0  0
    5.2086   -2.0159   -0.4185 H   0  0  0  0  0  0  0  0  0  0  0  0
   -5.7897    4.0254   -0.2511 H   0  0  0  0  0  0  0  0  0  0  0  0
   -6.5142    2.7964    0.5363 H   0  0  0  0  0  0  0  0  0  0  0  0
   -1.9724    3.8718   -1.2980 H   0  0  0  0  0  0  0  0  0  0  0  0
    7.2828    1.9476   -0.1137 H   0  0  0  0  0  0  0  0  0  0  0  0
  1 15  1  0  0  0  0
  1 18  1  0  0  0  0
  2 19  1  0  0  0  0
  2 42  1  0  0  0  0
  3 22  2  0  0  0  0
  4 21  2  0  0  0  0
  5 30  1  0  0  0  0
  5 45  1  0  0  0  0
  6 31  1  0  0  0  0
  6 46  1  0  0  0  0
  7 30  2  0  0  0  0
  8 31  2  0  0  0  0
  9 12  1  0  0  0  0
  9 14  1  0  0  0  0
  9 32  1  0  0  0  0
 10 16  1  0  0  0  0
 10 27  1  0  0  0  0
 10 36  1  0  0  0  0
 11 26  1  0  0  0  0
 11 43  1  0  0  0  0
 11 44  1  0  0  0  0
 12 13  1  0  0  0  0
 12 15  2  0  0  0  0
 13 16  2  0  0  0  0
 13 21  1  0  0  0  0
 14 17  2  0  0  0  0
 14 18  1  0  0  0  0
 15 20  1  0  0  0  0
 16 19  1  0  0  0  0
 17 22  1  0  0  0  0
 17 24  1  0  0  0  0
 18 25  2  0  0  0  0
 19 20  2  0  0  0  0
 20 33  1  0  0  0  0
 21 28  1  0  0  0  0
 22 23  1  0  0  0  0
 23 26  1  0  0  0  0
 23 34  1  0  0  0  0
 23 35  1  0  0  0  0
 24 29  2  0  0  0  0
 24 37  1  0  0  0  0
 25 29  1  0  0  0  0
 25 38  1  0  0  0  0
 26 30  1  0  0  0  0
 26 39  1  0  0  0  0
 27 28  2  0  0  0  0
 27 31  1  0  0  0  0
 28 40  1  0  0  0  0
 29 41  1  0  0  0  0
M  END
> <PUBCHEM_COMPOUND_CID>
5459828

> <PUBCHEM_CONFORMER_RMSD>
0.8

> <PUBCHEM_CONFORMER_DIVERSEORDER>
1
26
25
15
7
27
28
24
5
19
18
23
8
13
22
30
16
4
10
2
29
11
12
20
3
21
14
6
17
9

> <PUBCHEM_MMFF94_PARTIAL_CHARGES>
43
1 -0.17
10 -0.6
11 -0.99
12 0.1
13 0.09
14 0.1
15 0.08
16 0.1
17 0.09
18 0.08
19 0.08
2 -0.53
20 -0.15
21 0.47
22 0.42
23 0.06
24 -0.15
25 -0.15
26 0.33
27 0.11
28 -0.14
29 -0.15
3 -0.57
30 0.66
31 0.71
32 0.4
33 0.15
36 0.4
37 0.15
38 0.15
4 -0.57
40 0.15
41 0.15
42 0.45
43 0.36
44 0.36
45 0.5
46 0.5
5 -0.65
6 -0.65
7 -0.57
8 -0.57
9 -0.6

> <PUBCHEM_EFFECTIVE_ROTOR_COUNT>
5.4

> <PUBCHEM_PHARMACOPHORE_FEATURES>
20
1 1 acceptor
1 10 cation
1 10 donor
1 11 cation
1 11 donor
1 2 donor
1 3 acceptor
1 4 acceptor
1 5 acceptor
1 6 acceptor
1 7 acceptor
1 8 acceptor
1 9 cation
1 9 donor
3 5 7 30 anion
3 6 8 31 anion
6 1 9 12 14 15 18 rings
6 10 13 16 21 27 28 rings
6 12 13 15 16 19 20 rings
6 14 17 18 24 25 29 rings

> <PUBCHEM_HEAVY_ATOM_COUNT>
31

> <PUBCHEM_ATOM_DEF_STEREO_COUNT>
0

> <PUBCHEM_ATOM_UDEF_STEREO_COUNT>
1

> <PUBCHEM_BOND_DEF_STEREO_COUNT>
0

> <PUBCHEM_BOND_UDEF_STEREO_COUNT>
0

> <PUBCHEM_ISOTOPIC_ATOM_COUNT>
0

> <PUBCHEM_COMPONENT_COUNT>
1

> <PUBCHEM_CACTVS_TAUTO_COUNT>
151

> <PUBCHEM_CONFORMER_ID>
00534F7400000001

> <PUBCHEM_MMFF94_ENERGY>
103.4298

> <PUBCHEM_FEATURE_SELFOVERLAP>
101.689

> <PUBCHEM_SHAPE_FINGERPRINT>
10050765 1 18409728452526776698
10165383 225 18334002879519656129
10411042 1 17544756725157768827
10670039 82 18197481940820798292
10675989 125 17905327686679456161
1100329 8 15817908361628183489
11578080 2 18342172289193872636
12107183 9 18198072558895570162
12422481 6 17917438627118293060
13140716 1 18411134770790262194
13642711 20 17617664697139749951
13944108 23 16902718324888176613
14466204 15 18263928731380423400
14713325 29 18269275668936523403
14790565 3 18120083151081235633
15196674 1 18335696118419894482
15320467 1 18410291410848904929
19309040 13 16951666143167677393
19611394 137 17338148607731820603
20715895 44 18265054815216225713
21033648 144 18409447003213660567
21033648 29 17560237071983016765
21279426 13 18260817208179044166
21857420 4 15104981689157484469
22393880 68 18335689547283215270
23227448 37 18409448120263976911
23559900 14 18188206623906325810
335352 9 18265329697814431982
3380486 145 18339061715307529297
350125 39 18191581943554971778
469060 322 17907276781403143547
50150288 127 16444731951958550161
508706 21 18410577249469163951
5104073 3 18412536604944451730
7808743 9 18411703157881577849

> <PUBCHEM_SHAPE_MULTIPOLES>
576.07
12.31
5.4
0.89
7.32
0.21
0.2
-9.91
0.25
-3.11
0.97
-0.67
-0.44
1.86

> <PUBCHEM_SHAPE_SELFOVERLAP>
1285.36

> <PUBCHEM_SHAPE_VOLUME>
300.8

> <PUBCHEM_COORDINATE_TYPE>
2
5
10

$$$$

