439323
  -OEChem-07051212453D

 36 36  0     1  0  0  0  0  0999 V2000
    0.0027   -1.8535   -0.0627 O   0  0  0  0  0  0  0  0  0  0  0  0
   -2.3965    2.2662   -0.4487 O   0  0  0  0  0  0  0  0  0  0  0  0
    2.4007    2.2766   -0.4260 O   0  0  0  0  0  0  0  0  0  0  0  0
    0.0292    3.7196    0.1888 O   0  0  0  0  0  0  0  0  0  0  0  0
   -2.4251   -0.4108    0.6148 N   0  0  0  0  0  0  0  0  0  0  0  0
    2.4196   -0.4236    0.6118 N   0  0  0  0  0  0  0  0  0  0  0  0
   -4.0411   -2.0600    0.6358 N   0  0  0  0  0  0  0  0  0  0  0  0
   -2.5900   -2.0619   -1.1220 N   0  0  0  0  0  0  0  0  0  0  0  0
    4.0332   -2.0757    0.6309 N   0  0  0  0  0  0  0  0  0  0  0  0
    2.5817   -2.0736   -1.1264 N   0  0  0  0  0  0  0  0  0  0  0  0
   -1.2710    0.1885   -0.0789 C   0  0  2  0  0  0  0  0  0  0  0  0
    1.2662    0.1780   -0.0808 C   0  0  1  0  0  0  0  0  0  0  0  0
   -0.0044   -0.5088    0.4236 C   0  0  0  0  0  0  0  0  0  0  0  0
   -1.2697    1.6887    0.2168 C   0  0  1  0  0  0  0  0  0  0  0  0
    1.2693    1.6784    0.2138 C   0  0  2  0  0  0  0  0  0  0  0  0
    0.0023    2.3714   -0.2895 C   0  0  0  0  0  0  0  0  0  0  0  0
   -2.9600   -1.4431    0.0514 C   0  0  0  0  0  0  0  0  0  0  0  0
    2.9530   -1.4565    0.0474 C   0  0  0  0  0  0  0  0  0  0  0  0
   -1.3635    0.0804   -1.1669 H   0  0  0  0  0  0  0  0  0  0  0  0
    1.3580    0.0713   -1.1688 H   0  0  0  0  0  0  0  0  0  0  0  0
    0.0045   -0.5529    1.5208 H   0  0  0  0  0  0  0  0  0  0  0  0
   -1.3982    1.8842    1.2889 H   0  0  0  0  0  0  0  0  0  0  0  0
    1.3869    1.8631    1.2895 H   0  0  0  0  0  0  0  0  0  0  0  0
   -0.0037    2.4327   -1.3849 H   0  0  0  0  0  0  0  0  0  0  0  0
   -0.6318   -2.3611    0.4704 H   0  0  0  0  0  0  0  0  0  0  0  0
   -3.1924    1.8187   -0.1138 H   0  0  0  0  0  0  0  0  0  0  0  0
    3.1939    1.8178   -0.1003 H   0  0  0  0  0  0  0  0  0  0  0  0
    0.8462    4.1298   -0.1432 H   0  0  0  0  0  0  0  0  0  0  0  0
   -4.4303   -1.7186    1.5079 H   0  0  0  0  0  0  0  0  0  0  0  0
   -4.4795   -2.8723    0.2158 H   0  0  0  0  0  0  0  0  0  0  0  0
   -3.1026   -2.8687   -1.4625 H   0  0  0  0  0  0  0  0  0  0  0  0
   -1.7875   -1.7802   -1.6716 H   0  0  0  0  0  0  0  0  0  0  0  0
    4.4234   -1.7355    1.5030 H   0  0  0  0  0  0  0  0  0  0  0  0
    4.4706   -2.8878    0.2096 H   0  0  0  0  0  0  0  0  0  0  0  0
    3.0934   -2.8802   -1.4685 H   0  0  0  0  0  0  0  0  0  0  0  0
    1.7781   -1.7911   -1.6742 H   0  0  0  0  0  0  0  0  0  0  0  0
  1 13  1  0  0  0  0
  1 25  1  0  0  0  0
  2 14  1  0  0  0  0
  2 26  1  0  0  0  0
  3 15  1  0  0  0  0
  3 27  1  0  0  0  0
  4 16  1  0  0  0  0
  4 28  1  0  0  0  0
  5 11  1  0  0  0  0
  5 17  2  0  0  0  0
  6 12  1  0  0  0  0
  6 18  2  0  0  0  0
  7 17  1  0  0  0  0
  7 29  1  0  0  0  0
  7 30  1  0  0  0  0
  8 17  1  0  0  0  0
  8 31  1  0  0  0  0
  8 32  1  0  0  0  0
  9 18  1  0  0  0  0
  9 33  1  0  0  0  0
  9 34  1  0  0  0  0
 10 18  1  0  0  0  0
 10 35  1  0  0  0  0
 10 36  1  0  0  0  0
 11 13  1  0  0  0  0
 11 14  1  0  0  0  0
 11 19  1  0  0  0  0
 12 13  1  0  0  0  0
 12 15  1  0  0  0  0
 12 20  1  0  0  0  0
 13 21  1  0  0  0  0
 14 16  1  0  0  0  0
 14 22  1  0  0  0  0
 15 16  1  0  0  0  0
 15 23  1  0  0  0  0
 16 24  1  0  0  0  0
M  END
> <PUBCHEM_COMPOUND_CID>
439323

> <PUBCHEM_CONFORMER_RMSD>
0.6

> <PUBCHEM_CONFORMER_DIVERSEORDER>
3
1
7
14
5
13
11
6
2
10
12
9
4
8
15

> <PUBCHEM_MMFF94_PARTIAL_CHARGES>
30
1 -0.68
10 -0.85
11 0.25
12 0.25
13 0.28
14 0.28
15 0.28
16 0.28
17 0.55
18 0.55
2 -0.68
25 0.4
26 0.4
27 0.4
28 0.4
29 0.4
3 -0.68
30 0.4
31 0.4
32 0.4
33 0.4
34 0.4
35 0.4
36 0.4
4 -0.68
5 -0.7
6 -0.7
7 -0.85
8 -0.85
9 -0.85

> <PUBCHEM_EFFECTIVE_ROTOR_COUNT>
3.2

> <PUBCHEM_PHARMACOPHORE_FEATURES>
15
1 1 acceptor
1 1 donor
1 10 donor
1 2 acceptor
1 2 donor
1 3 acceptor
1 3 donor
1 4 acceptor
1 4 donor
1 7 donor
1 8 donor
1 9 donor
4 5 7 8 17 cation
4 6 9 10 18 cation
6 11 12 13 14 15 16 rings

> <PUBCHEM_HEAVY_ATOM_COUNT>
18

> <PUBCHEM_ATOM_DEF_STEREO_COUNT>
4

> <PUBCHEM_ATOM_UDEF_STEREO_COUNT>
0

> <PUBCHEM_BOND_DEF_STEREO_COUNT>
0

> <PUBCHEM_BOND_UDEF_STEREO_COUNT>
0

> <PUBCHEM_ISOTOPIC_ATOM_COUNT>
0

> <PUBCHEM_COMPONENT_COUNT>
1

> <PUBCHEM_CACTVS_TAUTO_COUNT>
3

> <PUBCHEM_CONFORMER_ID>
0006B41B00000003

> <PUBCHEM_MMFF94_ENERGY>
59.4245

> <PUBCHEM_FEATURE_SELFOVERLAP>
76.247

> <PUBCHEM_SHAPE_FINGERPRINT>
10967382 1 18122905326308148289
10989021 7 18410290285513809899
11578080 2 17387439868965965937
11680986 33 18337405897307710160
116883 192 18336830887375778421
12553582 1 18408601431332575366
13140716 1 18410292557425032688
14790565 3 17835787604833590085
14817 1 13789424641947977068
15042514 8 18196089078119976267
16945 1 18051135795832569913
193761 8 18411418414382344841
19591789 44 17331392069975814930
20510252 161 17540262368410276336
20559304 39 18265894657432096360
20645477 70 18196663895580083463
20871998 22 18411138004578148642
21041028 32 18410848854911598419
21452121 199 18340219517803827472
21501502 16 18411692188508892168
2255824 54 17833265329174078325
23184049 29 18411419535558186994
2334 1 18411699859294115576
23402539 116 17904219352782120101
23419403 2 17337365896985803748
23557571 272 18262797505555936182
23559900 14 17614284790455338678
23598291 2 18041836186888890999
257057 1 18410582776955014696
2748010 2 18410583889351706749
3060560 45 17833831573335715556
3071541 250 18339636746249352139
3091708 16 9281887495966312577
54173680 148 18267868469808863080
6992083 37 18189034543039061273
7364860 26 18192710042706615800
81228 2 18194684993012365264
9709674 26 17829052353215384774

> <PUBCHEM_SHAPE_MULTIPOLES>
317.07
5.49
3.73
0.81
0.03
2.32
0.09
-5.07
-0.43
-0.04
0.33
0
-0.29
0.01

> <PUBCHEM_SHAPE_SELFOVERLAP>
645.087

> <PUBCHEM_SHAPE_VOLUME>
179.1

> <PUBCHEM_COORDINATE_TYPE>
2
5
10

$$$$

