442644
  -OEChem-07051212592D

120123  0     1  0  0  0  0  0999 V2000
    6.3301  -11.4050    0.0000 O   0  0  0  0  0  0  0  0  0  0  0  0
    2.0000   11.0950    0.0000 O   0  0  0  0  0  0  0  0  0  0  0  0
   11.5263    1.5950    0.0000 N   0  0  3  0  0  0  0  0  0  0  0  0
    5.4641   -8.9050    0.0000 N   0  0  0  0  0  0  0  0  0  0  0  0
    3.7320    9.0950    0.0000 N   0  0  0  0  0  0  0  0  0  0  0  0
   11.5263    0.5950    0.0000 C   0  0  3  0  0  0  0  0  0  0  0  0
   10.6603    0.0950    0.0000 C   0  0  3  0  0  0  0  0  0  0  0  0
   12.4725    0.2903    0.0000 C   0  0  0  0  0  0  0  0  0  0  0  0
   12.4725    1.8997    0.0000 C   0  0  0  0  0  0  0  0  0  0  0  0
   13.0561    1.0950    0.0000 C   0  0  0  0  0  0  0  0  0  0  0  0
   10.6603    2.0950    0.0000 C   0  0  0  0  0  0  0  0  0  0  0  0
   10.6603   -0.9050    0.0000 C   0  0  0  0  0  0  0  0  0  0  0  0
    9.7942    0.5950    0.0000 C   0  0  0  0  0  0  0  0  0  0  0  0
    9.7942    1.5950    0.0000 C   0  0  0  0  0  0  0  0  0  0  0  0
    9.7942   -1.4050    0.0000 C   0  0  0  0  0  0  0  0  0  0  0  0
    8.9282    2.0950    0.0000 C   0  0  0  0  0  0  0  0  0  0  0  0
    9.7942   -2.4050    0.0000 C   0  0  0  0  0  0  0  0  0  0  0  0
    8.9282    3.0950    0.0000 C   0  0  0  0  0  0  0  0  0  0  0  0
    8.9282   -2.9050    0.0000 C   0  0  0  0  0  0  0  0  0  0  0  0
    8.0622    3.5950    0.0000 C   0  0  0  0  0  0  0  0  0  0  0  0
    6.3301   -8.4050    0.0000 C   0  0  1  0  0  0  0  0  0  0  0  0
    4.5981    9.5950    0.0000 C   0  0  1  0  0  0  0  0  0  0  0  0
    8.9282   -3.9050    0.0000 C   0  0  0  0  0  0  0  0  0  0  0  0
    8.0622    4.5950    0.0000 C   0  0  0  0  0  0  0  0  0  0  0  0
    7.1962   -8.9050    0.0000 C   0  0  0  0  0  0  0  0  0  0  0  0
    5.4641   -9.9050    0.0000 C   0  0  2  0  0  0  0  0  0  0  0  0
    4.5981   10.5950    0.0000 C   0  0  0  0  0  0  0  0  0  0  0  0
    2.8660    9.5950    0.0000 C   0  0  2  0  0  0  0  0  0  0  0  0
    6.3301  -10.4050    0.0000 C   0  0  2  0  0  0  0  0  0  0  0  0
    6.3301   -7.4050    0.0000 C   0  0  0  0  0  0  0  0  0  0  0  0
    7.1962   -9.9050    0.0000 C   0  0  0  0  0  0  0  0  0  0  0  0
    2.8660   10.5950    0.0000 C   0  0  2  0  0  0  0  0  0  0  0  0
    3.7320   11.0950    0.0000 C   0  0  0  0  0  0  0  0  0  0  0  0
    5.4641    9.0950    0.0000 C   0  0  0  0  0  0  0  0  0  0  0  0
    8.0622   -4.4050    0.0000 C   0  0  0  0  0  0  0  0  0  0  0  0
    7.1962   -6.9050    0.0000 C   0  0  0  0  0  0  0  0  0  0  0  0
    7.1962    5.0950    0.0000 C   0  0  0  0  0  0  0  0  0  0  0  0
    8.0622   -5.4050    0.0000 C   0  0  0  0  0  0  0  0  0  0  0  0
    7.1962   -5.9050    0.0000 C   0  0  0  0  0  0  0  0  0  0  0  0
    5.4641    8.0950    0.0000 C   0  0  0  0  0  0  0  0  0  0  0  0
    7.1962    6.0950    0.0000 C   0  0  0  0  0  0  0  0  0  0  0  0
    6.3301    7.5950    0.0000 C   0  0  0  0  0  0  0  0  0  0  0  0
    6.3301    6.5950    0.0000 C   0  0  0  0  0  0  0  0  0  0  0  0
    4.5981  -10.4050    0.0000 C   0  0  0  0  0  0  0  0  0  0  0  0
    2.0000    9.0950    0.0000 C   0  0  0  0  0  0  0  0  0  0  0  0
   11.6162   -0.2502    0.0000 H   0  0  0  0  0  0  0  0  0  0  0  0
   11.3964   -0.3300    0.0000 H   0  0  0  0  0  0  0  0  0  0  0  0
   12.2215   -0.2766    0.0000 H   0  0  0  0  0  0  0  0  0  0  0  0
   13.0099   -0.0190    0.0000 H   0  0  0  0  0  0  0  0  0  0  0  0
   13.0099    2.2090    0.0000 H   0  0  0  0  0  0  0  0  0  0  0  0
   12.2215    2.4666    0.0000 H   0  0  0  0  0  0  0  0  0  0  0  0
   13.5170    0.6803    0.0000 H   0  0  0  0  0  0  0  0  0  0  0  0
   13.5170    1.5097    0.0000 H   0  0  0  0  0  0  0  0  0  0  0  0
   11.0588    2.5700    0.0000 H   0  0  0  0  0  0  0  0  0  0  0  0
   10.2617    2.5700    0.0000 H   0  0  0  0  0  0  0  0  0  0  0  0
   10.8723   -1.4876    0.0000 H   0  0  0  0  0  0  0  0  0  0  0  0
   11.2708   -0.7973    0.0000 H   0  0  0  0  0  0  0  0  0  0  0  0
    9.2573    0.2850    0.0000 H   0  0  0  0  0  0  0  0  0  0  0  0
    9.5822   -0.8224    0.0000 H   0  0  0  0  0  0  0  0  0  0  0  0
    9.1836   -1.5127    0.0000 H   0  0  0  0  0  0  0  0  0  0  0  0
    8.3176    2.2027    0.0000 H   0  0  0  0  0  0  0  0  0  0  0  0
    8.7162    1.5124    0.0000 H   0  0  0  0  0  0  0  0  0  0  0  0
   10.0063   -2.9876    0.0000 H   0  0  0  0  0  0  0  0  0  0  0  0
   10.4048   -2.2973    0.0000 H   0  0  0  0  0  0  0  0  0  0  0  0
    9.5388    2.9873    0.0000 H   0  0  0  0  0  0  0  0  0  0  0  0
    9.1403    3.6776    0.0000 H   0  0  0  0  0  0  0  0  0  0  0  0
    8.7162   -2.3224    0.0000 H   0  0  0  0  0  0  0  0  0  0  0  0
    8.3176   -3.0127    0.0000 H   0  0  0  0  0  0  0  0  0  0  0  0
    7.4516    3.7027    0.0000 H   0  0  0  0  0  0  0  0  0  0  0  0
    7.8501    3.0124    0.0000 H   0  0  0  0  0  0  0  0  0  0  0  0
    5.7932   -8.0950    0.0000 H   0  0  0  0  0  0  0  0  0  0  0  0
    4.5981    8.9750    0.0000 H   0  0  0  0  0  0  0  0  0  0  0  0
    9.1403   -4.4876    0.0000 H   0  0  0  0  0  0  0  0  0  0  0  0
    9.5388   -3.7973    0.0000 H   0  0  0  0  0  0  0  0  0  0  0  0
    8.6728    4.4873    0.0000 H   0  0  0  0  0  0  0  0  0  0  0  0
    8.2742    5.1776    0.0000 H   0  0  0  0  0  0  0  0  0  0  0  0
    7.8067   -9.0127    0.0000 H   0  0  0  0  0  0  0  0  0  0  0  0
    7.4082   -8.3224    0.0000 H   0  0  0  0  0  0  0  0  0  0  0  0
    4.9272   -9.5950    0.0000 H   0  0  0  0  0  0  0  0  0  0  0  0
    5.2087   10.4873    0.0000 H   0  0  0  0  0  0  0  0  0  0  0  0
    4.8101   11.1776    0.0000 H   0  0  0  0  0  0  0  0  0  0  0  0
    2.8660    8.9750    0.0000 H   0  0  0  0  0  0  0  0  0  0  0  0
    6.8671  -10.7150    0.0000 H   0  0  0  0  0  0  0  0  0  0  0  0
    6.1181   -6.8224    0.0000 H   0  0  0  0  0  0  0  0  0  0  0  0
    5.7196   -7.5127    0.0000 H   0  0  0  0  0  0  0  0  0  0  0  0
    7.4082  -10.4876    0.0000 H   0  0  0  0  0  0  0  0  0  0  0  0
    7.8067   -9.7973    0.0000 H   0  0  0  0  0  0  0  0  0  0  0  0
    2.8660   11.2150    0.0000 H   0  0  0  0  0  0  0  0  0  0  0  0
    4.1306   11.5699    0.0000 H   0  0  0  0  0  0  0  0  0  0  0  0
    3.3335   11.5699    0.0000 H   0  0  0  0  0  0  0  0  0  0  0  0
    6.0747    8.9873    0.0000 H   0  0  0  0  0  0  0  0  0  0  0  0
    5.6762    9.6776    0.0000 H   0  0  0  0  0  0  0  0  0  0  0  0
    7.8501   -3.8224    0.0000 H   0  0  0  0  0  0  0  0  0  0  0  0
    7.4516   -4.5127    0.0000 H   0  0  0  0  0  0  0  0  0  0  0  0
    4.9272   -8.5950    0.0000 H   0  0  0  0  0  0  0  0  0  0  0  0
    3.7320    8.4750    0.0000 H   0  0  0  0  0  0  0  0  0  0  0  0
    7.4082   -7.4876    0.0000 H   0  0  0  0  0  0  0  0  0  0  0  0
    7.8067   -6.7973    0.0000 H   0  0  0  0  0  0  0  0  0  0  0  0
    6.5856    5.2027    0.0000 H   0  0  0  0  0  0  0  0  0  0  0  0
    6.9841    4.5124    0.0000 H   0  0  0  0  0  0  0  0  0  0  0  0
    8.2742   -5.9876    0.0000 H   0  0  0  0  0  0  0  0  0  0  0  0
    8.6728   -5.2973    0.0000 H   0  0  0  0  0  0  0  0  0  0  0  0
    6.9841   -5.3224    0.0000 H   0  0  0  0  0  0  0  0  0  0  0  0
    6.5856   -6.0127    0.0000 H   0  0  0  0  0  0  0  0  0  0  0  0
    4.8535    8.2027    0.0000 H   0  0  0  0  0  0  0  0  0  0  0  0
    5.2520    7.5124    0.0000 H   0  0  0  0  0  0  0  0  0  0  0  0
    7.8067    5.9873    0.0000 H   0  0  0  0  0  0  0  0  0  0  0  0
    7.4082    6.6776    0.0000 H   0  0  0  0  0  0  0  0  0  0  0  0
    6.9407    7.4873    0.0000 H   0  0  0  0  0  0  0  0  0  0  0  0
    6.5422    8.1776    0.0000 H   0  0  0  0  0  0  0  0  0  0  0  0
    5.7196    6.7027    0.0000 H   0  0  0  0  0  0  0  0  0  0  0  0
    6.1181    6.0124    0.0000 H   0  0  0  0  0  0  0  0  0  0  0  0
    4.2881   -9.8681    0.0000 H   0  0  0  0  0  0  0  0  0  0  0  0
    4.0611  -10.7150    0.0000 H   0  0  0  0  0  0  0  0  0  0  0  0
    4.9081  -10.9419    0.0000 H   0  0  0  0  0  0  0  0  0  0  0  0
    1.6900    9.6319    0.0000 H   0  0  0  0  0  0  0  0  0  0  0  0
    1.4631    8.7850    0.0000 H   0  0  0  0  0  0  0  0  0  0  0  0
    2.3100    8.5581    0.0000 H   0  0  0  0  0  0  0  0  0  0  0  0
    6.8671  -11.7150    0.0000 H   0  0  0  0  0  0  0  0  0  0  0  0
    2.0000   11.7150    0.0000 H   0  0  0  0  0  0  0  0  0  0  0  0
 29  1  1  6  0  0  0
  1119  1  0  0  0  0
 32  2  1  1  0  0  0
  2120  1  0  0  0  0
  3  6  1  0  0  0  0
  3  9  1  0  0  0  0
  3 11  1  0  0  0  0
  4 21  1  0  0  0  0
  4 26  1  0  0  0  0
  4 95  1  0  0  0  0
  5 22  1  0  0  0  0
  5 28  1  0  0  0  0
  5 96  1  0  0  0  0
  6  7  1  0  0  0  0
  6  8  1  0  0  0  0
  6 46  1  0  0  0  0
  7 12  1  0  0  0  0
  7 13  1  0  0  0  0
  7 47  1  0  0  0  0
  8 10  1  0  0  0  0
  8 48  1  0  0  0  0
  8 49  1  0  0  0  0
  9 10  1  0  0  0  0
  9 50  1  0  0  0  0
  9 51  1  0  0  0  0
 10 52  1  0  0  0  0
 10 53  1  0  0  0  0
 11 14  1  0  0  0  0
 11 54  1  0  0  0  0
 11 55  1  0  0  0  0
 12 15  1  0  0  0  0
 12 56  1  0  0  0  0
 12 57  1  0  0  0  0
 13 14  2  0  0  0  0
 13 58  1  0  0  0  0
 14 16  1  0  0  0  0
 15 17  1  0  0  0  0
 15 59  1  0  0  0  0
 15 60  1  0  0  0  0
 16 18  1  0  0  0  0
 16 61  1  0  0  0  0
 16 62  1  0  0  0  0
 17 19  1  0  0  0  0
 17 63  1  0  0  0  0
 17 64  1  0  0  0  0
 18 20  1  0  0  0  0
 18 65  1  0  0  0  0
 18 66  1  0  0  0  0
 19 23  1  0  0  0  0
 19 67  1  0  0  0  0
 19 68  1  0  0  0  0
 20 24  1  0  0  0  0
 20 69  1  0  0  0  0
 20 70  1  0  0  0  0
 21 25  1  0  0  0  0
 21 30  1  6  0  0  0
 21 71  1  0  0  0  0
 22 27  1  0  0  0  0
 22 34  1  1  0  0  0
 22 72  1  0  0  0  0
 23 35  1  0  0  0  0
 23 73  1  0  0  0  0
 23 74  1  0  0  0  0
 24 37  1  0  0  0  0
 24 75  1  0  0  0  0
 24 76  1  0  0  0  0
 25 31  1  0  0  0  0
 25 77  1  0  0  0  0
 25 78  1  0  0  0  0
 26 29  1  0  0  0  0
 26 44  1  6  0  0  0
 26 79  1  0  0  0  0
 27 33  1  0  0  0  0
 27 80  1  0  0  0  0
 27 81  1  0  0  0  0
 28 32  1  0  0  0  0
 28 45  1  1  0  0  0
 28 82  1  0  0  0  0
 29 31  1  0  0  0  0
 29 83  1  0  0  0  0
 30 36  1  0  0  0  0
 30 84  1  0  0  0  0
 30 85  1  0  0  0  0
 31 86  1  0  0  0  0
 31 87  1  0  0  0  0
 32 33  1  0  0  0  0
 32 88  1  0  0  0  0
 33 89  1  0  0  0  0
 33 90  1  0  0  0  0
 34 40  1  0  0  0  0
 34 91  1  0  0  0  0
 34 92  1  0  0  0  0
 35 38  1  0  0  0  0
 35 93  1  0  0  0  0
 35 94  1  0  0  0  0
 36 39  1  0  0  0  0
 36 97  1  0  0  0  0
 36 98  1  0  0  0  0
 37 41  1  0  0  0  0
 37 99  1  0  0  0  0
 37100  1  0  0  0  0
 38 39  1  0  0  0  0
 38101  1  0  0  0  0
 38102  1  0  0  0  0
 39103  1  0  0  0  0
 39104  1  0  0  0  0
 40 42  1  0  0  0  0
 40105  1  0  0  0  0
 40106  1  0  0  0  0
 41 43  1  0  0  0  0
 41107  1  0  0  0  0
 41108  1  0  0  0  0
 42 43  1  0  0  0  0
 42109  1  0  0  0  0
 42110  1  0  0  0  0
 43111  1  0  0  0  0
 43112  1  0  0  0  0
 44113  1  0  0  0  0
 44114  1  0  0  0  0
 44115  1  0  0  0  0
 45116  1  0  0  0  0
 45117  1  0  0  0  0
 45118  1  0  0  0  0
M  END
> <PUBCHEM_COMPOUND_CID>
442644

> <PUBCHEM_COMPOUND_CANONICALIZED>
1

> <PUBCHEM_CACTVS_COMPLEXITY>
804

> <PUBCHEM_CACTVS_HBOND_ACCEPTOR>
5

> <PUBCHEM_CACTVS_HBOND_DONOR>
4

> <PUBCHEM_CACTVS_ROTATABLE_BOND>
22

> <PUBCHEM_CACTVS_SUBSKEYS>
AAADcfB/MAAAAAAAAAAAAAAAAAAAAWAAAAAsWIAAAAAAAEAAAAAAHgAQCAAADTzhgAYCAAPAAgCAAiBCAACAAAAgAAAACIAIAAgCEAIAgQAEQAAEkACYAAOwwOAOAAAAAAAAAAAAAAAAAAAAAAAAAAAAAA==

> <PUBCHEM_IUPAC_OPENEYE_NAME>
(2S,3S,6R)-6-[10-[6-[10-[(2R,5S,6S)-5-hydroxy-6-methyl-2-piperidyl]decyl]-1,2,3,5,8,8a-hexahydroindolizin-8-yl]decyl]-2-methyl-piperidin-3-ol

> <PUBCHEM_IUPAC_CAS_NAME>
(2S,3S,6R)-6-[10-[6-[10-[(2R,5S,6S)-5-hydroxy-6-methyl-2-piperidinyl]decyl]-1,2,3,5,8,8a-hexahydroindolizin-8-yl]decyl]-2-methyl-3-piperidinol

> <PUBCHEM_IUPAC_NAME>
(2S,3S,6R)-6-[10-[6-[10-[(2R,5S,6S)-5-hydroxy-6-methylpiperidin-2-yl]decyl]-1,2,3,5,8,8a-hexahydroindolizin-8-yl]decyl]-2-methylpiperidin-3-ol

> <PUBCHEM_IUPAC_SYSTEMATIC_NAME>
(2S,3S,6R)-2-methyl-6-[10-[6-[10-[(2R,5S,6S)-6-methyl-5-oxidanyl-piperidin-2-yl]decyl]-1,2,3,5,8,8a-hexahydroindolizin-8-yl]decyl]piperidin-3-ol

> <PUBCHEM_IUPAC_TRADITIONAL_NAME>
(2S,3S,6R)-6-[10-[6-[10-[(2R,5S,6S)-5-hydroxy-6-methyl-2-piperidyl]decyl]-1,2,3,5,8,8a-hexahydroindolizin-8-yl]decyl]-2-methyl-piperidin-3-ol

> <PUBCHEM_IUPAC_INCHI>
InChI=1S/C40H75N3O2/c1-32-39(44)27-25-36(41-32)22-17-13-9-5-3-7-11-15-20-34-30-35(38-24-19-29-43(38)31-34)21-16-12-8-4-6-10-14-18-23-37-26-28-40(45)33(2)42-37/h30,32-33,35-42,44-45H,3-29,31H2,1-2H3/t32-,33-,35?,36+,37+,38?,39-,40-/m0/s1

> <PUBCHEM_IUPAC_INCHIKEY>
JOTBJXJGDRSICD-TWELVPRFSA-N

> <PUBCHEM_XLOGP3_AA>
10.4

> <PUBCHEM_EXACT_MASS>
629.585929

> <PUBCHEM_MOLECULAR_FORMULA>
C40H75N3O2

> <PUBCHEM_MOLECULAR_WEIGHT>
630.0424

> <PUBCHEM_OPENEYE_CAN_SMILES>
CC1C(CCC(N1)CCCCCCCCCCC2C=C(CN3C2CCC3)CCCCCCCCCCC4CCC(C(N4)C)O)O

> <PUBCHEM_OPENEYE_ISO_SMILES>
C[C@H]1[C@H](CC[C@H](N1)CCCCCCCCCCC2C=C(CN3C2CCC3)CCCCCCCCCC[C@@H]4CC[C@@H]([C@@H](N4)C)O)O

> <PUBCHEM_CACTVS_TPSA>
67.8

> <PUBCHEM_MONOISOTOPIC_WEIGHT>
629.585929

> <PUBCHEM_TOTAL_CHARGE>
0

> <PUBCHEM_HEAVY_ATOM_COUNT>
45

> <PUBCHEM_ATOM_DEF_STEREO_COUNT>
6

> <PUBCHEM_ATOM_UDEF_STEREO_COUNT>
2

> <PUBCHEM_BOND_DEF_STEREO_COUNT>
0

> <PUBCHEM_BOND_UDEF_STEREO_COUNT>
0

> <PUBCHEM_ISOTOPIC_ATOM_COUNT>
0

> <PUBCHEM_COMPONENT_COUNT>
1

> <PUBCHEM_CACTVS_TAUTO_COUNT>
1

> <PUBCHEM_COORDINATE_TYPE>
1
5
255

> <PUBCHEM_BONDANNOTATIONS>
29  1  6
32  2  5
21  30  6
22  34  5
26  44  6
28  45  5
6  46  3
7  47  3

$$$$

