23425033
  -OEChem-07051213093D

 43 44  0     1  0  0  0  0  0999 V2000
   -1.9415   -3.6544   -0.7345 S   0  0  0  0  0  0  0  0  0  0  0  0
   -1.1353   -1.0446   -1.1455 N   0  0  0  0  0  0  0  0  0  0  0  0
    0.9326    0.0195   -0.2828 C   0  0  2  0  0  0  0  0  0  0  0  0
   -0.5412   -0.3761    0.0285 C   0  0  1  0  0  0  0  0  0  0  0  0
    0.9749    1.1986   -1.3099 C   0  0  1  0  0  0  0  0  0  0  0  0
   -1.4155    0.8266    0.4467 C   0  0  1  0  0  0  0  0  0  0  0  0
    1.7374   -1.2222   -0.7644 C   0  0  0  0  0  0  0  0  0  0  0  0
    0.1042    2.3845   -0.8535 C   0  0  0  0  0  0  0  0  0  0  0  0
   -1.3368    1.9738   -0.5668 C   0  0  0  0  0  0  0  0  0  0  0  0
    1.6663    0.3520    1.0004 C   0  0  0  0  0  0  0  0  0  0  0  0
   -2.8721    0.4249    0.6943 C   0  0  0  0  0  0  0  0  0  0  0  0
    3.0757   -1.2200   -0.0223 C   0  0  0  0  0  0  0  0  0  0  0  0
    2.8153   -0.3194    1.1373 C   0  0  0  0  0  0  0  0  0  0  0  0
    2.3815    1.7126   -1.6487 C   0  0  0  0  0  0  0  0  0  0  0  0
   -3.7674    1.6598    0.7243 C   0  0  0  0  0  0  0  0  0  0  0  0
   -2.9938   -0.3625    1.9952 C   0  0  0  0  0  0  0  0  0  0  0  0
    3.7865   -0.2042    2.2555 C   0  0  0  0  0  0  0  0  0  0  0  0
   -1.4710   -2.1487   -0.9539 C   0  0  0  0  0  0  0  0  0  0  0  0
   -0.5086   -1.0655    0.8881 H   0  0  0  0  0  0  0  0  0  0  0  0
    0.5481    0.8288   -2.2533 H   0  0  0  0  0  0  0  0  0  0  0  0
   -1.0133    1.2230    1.3898 H   0  0  0  0  0  0  0  0  0  0  0  0
    1.8797   -1.2435   -1.8506 H   0  0  0  0  0  0  0  0  0  0  0  0
    1.2281   -2.1571   -0.5007 H   0  0  0  0  0  0  0  0  0  0  0  0
    0.0993    3.1591   -1.6306 H   0  0  0  0  0  0  0  0  0  0  0  0
    0.5363    2.8481    0.0422 H   0  0  0  0  0  0  0  0  0  0  0  0
   -1.8372    2.8764   -0.2009 H   0  0  0  0  0  0  0  0  0  0  0  0
   -1.8219    1.6863   -1.5081 H   0  0  0  0  0  0  0  0  0  0  0  0
    1.3142    1.0796    1.7194 H   0  0  0  0  0  0  0  0  0  0  0  0
   -3.2560   -0.2012   -0.1181 H   0  0  0  0  0  0  0  0  0  0  0  0
    3.8827   -0.8236   -0.6465 H   0  0  0  0  0  0  0  0  0  0  0  0
    3.3441   -2.2323    0.2964 H   0  0  0  0  0  0  0  0  0  0  0  0
    2.8879    2.1303   -0.7729 H   0  0  0  0  0  0  0  0  0  0  0  0
    3.0075    0.9204   -2.0683 H   0  0  0  0  0  0  0  0  0  0  0  0
    2.3252    2.5060   -2.4027 H   0  0  0  0  0  0  0  0  0  0  0  0
   -3.3997    2.4152    1.4275 H   0  0  0  0  0  0  0  0  0  0  0  0
   -3.8916    2.1115   -0.2650 H   0  0  0  0  0  0  0  0  0  0  0  0
   -4.7769    1.3844    1.0529 H   0  0  0  0  0  0  0  0  0  0  0  0
   -2.6371    0.2215    2.8507 H   0  0  0  0  0  0  0  0  0  0  0  0
   -2.4304   -1.2988    1.9647 H   0  0  0  0  0  0  0  0  0  0  0  0
   -4.0396   -0.6258    2.1887 H   0  0  0  0  0  0  0  0  0  0  0  0
    3.9149   -1.1723    2.7496 H   0  0  0  0  0  0  0  0  0  0  0  0
    3.4517    0.5165    3.0086 H   0  0  0  0  0  0  0  0  0  0  0  0
    4.7604    0.1271    1.8817 H   0  0  0  0  0  0  0  0  0  0  0  0
  1 18  2  0  0  0  0
  2  4  1  0  0  0  0
  2 18  2  0  0  0  0
  3  4  1  0  0  0  0
  3  5  1  0  0  0  0
  3  7  1  0  0  0  0
  3 10  1  0  0  0  0
  4  6  1  0  0  0  0
  4 19  1  0  0  0  0
  5  8  1  0  0  0  0
  5 14  1  0  0  0  0
  5 20  1  0  0  0  0
  6  9  1  0  0  0  0
  6 11  1  0  0  0  0
  6 21  1  0  0  0  0
  7 12  1  0  0  0  0
  7 22  1  0  0  0  0
  7 23  1  0  0  0  0
  8  9  1  0  0  0  0
  8 24  1  0  0  0  0
  8 25  1  0  0  0  0
  9 26  1  0  0  0  0
  9 27  1  0  0  0  0
 10 13  2  0  0  0  0
 10 28  1  0  0  0  0
 11 15  1  0  0  0  0
 11 16  1  0  0  0  0
 11 29  1  0  0  0  0
 12 13  1  0  0  0  0
 12 30  1  0  0  0  0
 12 31  1  0  0  0  0
 13 17  1  0  0  0  0
 14 32  1  0  0  0  0
 14 33  1  0  0  0  0
 14 34  1  0  0  0  0
 15 35  1  0  0  0  0
 15 36  1  0  0  0  0
 15 37  1  0  0  0  0
 16 38  1  0  0  0  0
 16 39  1  0  0  0  0
 16 40  1  0  0  0  0
 17 41  1  0  0  0  0
 17 42  1  0  0  0  0
 17 43  1  0  0  0  0
M  END
> <PUBCHEM_COMPOUND_CID>
23425033

> <PUBCHEM_CONFORMER_RMSD>
0.6

> <PUBCHEM_CONFORMER_DIVERSEORDER>
1
3
4
2

> <PUBCHEM_MMFF94_PARTIAL_CHARGES>
10
1 -0.27
10 -0.29
12 0.14
13 -0.28
17 0.14
18 0.57
2 -0.55
28 0.15
3 0.14
4 0.25

> <PUBCHEM_EFFECTIVE_ROTOR_COUNT>
3.4

> <PUBCHEM_PHARMACOPHORE_FEATURES>
5
1 1 acceptor
1 2 acceptor
3 11 15 16 hydrophobe
5 3 7 10 12 13 rings
6 3 4 5 6 8 9 rings

> <PUBCHEM_HEAVY_ATOM_COUNT>
18

> <PUBCHEM_ATOM_DEF_STEREO_COUNT>
4

> <PUBCHEM_ATOM_UDEF_STEREO_COUNT>
0

> <PUBCHEM_BOND_DEF_STEREO_COUNT>
0

> <PUBCHEM_BOND_UDEF_STEREO_COUNT>
0

> <PUBCHEM_ISOTOPIC_ATOM_COUNT>
0

> <PUBCHEM_COMPONENT_COUNT>
1

> <PUBCHEM_CACTVS_TAUTO_COUNT>
1

> <PUBCHEM_CONFORMER_ID>
0165700900000001

> <PUBCHEM_MMFF94_ENERGY>
44.1704

> <PUBCHEM_FEATURE_SELFOVERLAP>
25.381

> <PUBCHEM_SHAPE_FINGERPRINT>
11578080 2 17909583608221962077
11680611 10 18193553363845970471
12035759 4 17978221665256858109
12423570 1 16899287797016328396
12553582 1 17685209474440193959
12633257 1 18115611342801270890
13172582 1 18410851105179140253
13538477 17 18265324015498313551
14178342 30 18336275560952994738
14787075 74 17096106713902629713
14817 1 14603537849162988525
15309172 13 18190174770867132073
16945 1 18336841882560601828
18186145 218 16660913495804895713
18981168 100 15214403552796758026
20600515 1 17318465189220434415
20871998 184 18126855029942170572
21033648 29 18044106858656973952
21421861 104 17979350855225141979
21731516 1 17988932149672762802
22112679 90 18267302041048028620
23388829 49 17904777574029029524
23419403 2 17180303912116097133
23532345 11 18115037311447473650
23557571 272 17822287921062018174
23598288 3 17773889768855181590
25222932 49 16904920140331277675
2748010 2 17836088144847348326
3286 77 17315349477898115717
34934 24 18129082472827827061
465052 167 17987494040514637353
5902787 121 17703778236914643873
68419 9 18194111919879030133
6992083 37 18412271618399345991
81228 2 18261969444124355831

> <PUBCHEM_SHAPE_MULTIPOLES>
369.3
5.53
2.98
1.8
0.52
1.96
-0.66
0.08
-3.14
-2.24
1.55
0.82
-0.13
-1.27

> <PUBCHEM_SHAPE_SELFOVERLAP>
748.027

> <PUBCHEM_SHAPE_VOLUME>
219.3

> <PUBCHEM_COORDINATE_TYPE>
2
5
10

$$$$

