64981
  -OEChem-07051212592D

 51 53  0     1  0  0  0  0  0999 V2000
    6.5468    2.7756    0.0000 O   0  0  0  0  0  0  0  0  0  0  0  0
    4.8255    3.2368    0.0000 O   0  0  0  0  0  0  0  0  0  0  0  0
    9.9740    0.9085    0.0000 O   0  0  0  0  0  0  0  0  0  0  0  0
    2.8660   -1.9268    0.0000 O   0  0  0  0  0  0  0  0  0  0  0  0
   10.3898   -1.0478    0.0000 O   0  0  0  0  0  0  0  0  0  0  0  0
    4.5981   -2.9268    0.0000 O   0  0  0  0  0  0  0  0  0  0  0  0
    6.3776    1.1664    0.0000 C   0  0  2  0  0  0  0  0  0  0  0  0
    5.4641    1.5732    0.0000 C   0  0  1  0  0  0  0  0  0  0  0  0
    7.0468    1.9096    0.0000 C   0  0  0  0  0  0  0  0  0  0  0  0
    6.5856    0.1883    0.0000 C   0  0  0  0  0  0  0  0  0  0  0  0
    4.5981    1.0732    0.0000 C   0  0  0  0  0  0  0  0  0  0  0  0
    5.5686    2.5677    0.0000 C   0  0  0  0  0  0  0  0  0  0  0  0
    7.5366   -0.1207    0.0000 C   0  0  0  0  0  0  0  0  0  0  0  0
    4.5981    0.0732    0.0000 C   0  0  0  0  0  0  0  0  0  0  0  0
    8.2798    0.5484    0.0000 C   0  0  0  0  0  0  0  0  0  0  0  0
    7.7445   -1.0989    0.0000 C   0  0  0  0  0  0  0  0  0  0  0  0
    3.7320   -0.4268    0.0000 C   0  0  0  0  0  0  0  0  0  0  0  0
    5.4641   -0.4268    0.0000 C   0  0  0  0  0  0  0  0  0  0  0  0
    9.2308    0.2394    0.0000 C   0  0  0  0  0  0  0  0  0  0  0  0
    8.6956   -1.4079    0.0000 C   0  0  0  0  0  0  0  0  0  0  0  0
    3.7320   -1.4268    0.0000 C   0  0  0  0  0  0  0  0  0  0  0  0
    5.4641   -1.4268    0.0000 C   0  0  0  0  0  0  0  0  0  0  0  0
    9.4387   -0.7388    0.0000 C   0  0  0  0  0  0  0  0  0  0  0  0
    4.5981   -1.9268    0.0000 C   0  0  0  0  0  0  0  0  0  0  0  0
   10.9250    0.5995    0.0000 C   0  0  0  0  0  0  0  0  0  0  0  0
    2.0000   -1.4268    0.0000 C   0  0  0  0  0  0  0  0  0  0  0  0
   10.5977   -2.0259    0.0000 C   0  0  0  0  0  0  0  0  0  0  0  0
    5.8958    0.7763    0.0000 H   0  0  0  0  0  0  0  0  0  0  0  0
    4.9441    1.9108    0.0000 H   0  0  0  0  0  0  0  0  0  0  0  0
    7.4616    1.4488    0.0000 H   0  0  0  0  0  0  0  0  0  0  0  0
    7.5484    2.2740    0.0000 H   0  0  0  0  0  0  0  0  0  0  0  0
    5.9659    0.1667    0.0000 H   0  0  0  0  0  0  0  0  0  0  0  0
    6.4993   -0.4257    0.0000 H   0  0  0  0  0  0  0  0  0  0  0  0
    4.3860    1.6558    0.0000 H   0  0  0  0  0  0  0  0  0  0  0  0
    3.9875    0.9655    0.0000 H   0  0  0  0  0  0  0  0  0  0  0  0
    8.1509    1.1548    0.0000 H   0  0  0  0  0  0  0  0  0  0  0  0
    7.2838   -1.5137    0.0000 H   0  0  0  0  0  0  0  0  0  0  0  0
    3.1951   -0.1168    0.0000 H   0  0  0  0  0  0  0  0  0  0  0  0
    6.0010   -0.1168    0.0000 H   0  0  0  0  0  0  0  0  0  0  0  0
    8.8245   -2.0143    0.0000 H   0  0  0  0  0  0  0  0  0  0  0  0
    6.0010   -1.7368    0.0000 H   0  0  0  0  0  0  0  0  0  0  0  0
    5.1350   -3.2368    0.0000 H   0  0  0  0  0  0  0  0  0  0  0  0
   10.7334    0.0098    0.0000 H   0  0  0  0  0  0  0  0  0  0  0  0
   11.5147    0.4079    0.0000 H   0  0  0  0  0  0  0  0  0  0  0  0
   11.1166    1.1892    0.0000 H   0  0  0  0  0  0  0  0  0  0  0  0
    2.3100   -0.8899    0.0000 H   0  0  0  0  0  0  0  0  0  0  0  0
    1.4631   -1.1168    0.0000 H   0  0  0  0  0  0  0  0  0  0  0  0
    1.6900   -1.9638    0.0000 H   0  0  0  0  0  0  0  0  0  0  0  0
    9.9912   -2.1548    0.0000 H   0  0  0  0  0  0  0  0  0  0  0  0
   10.7266   -2.6324    0.0000 H   0  0  0  0  0  0  0  0  0  0  0  0
   11.2041   -1.8970    0.0000 H   0  0  0  0  0  0  0  0  0  0  0  0
  1  9  1  0  0  0  0
  1 12  1  0  0  0  0
  2 12  2  0  0  0  0
  3 19  1  0  0  0  0
  3 25  1  0  0  0  0
  4 21  1  0  0  0  0
  4 26  1  0  0  0  0
  5 23  1  0  0  0  0
  5 27  1  0  0  0  0
  6 24  1  0  0  0  0
  6 42  1  0  0  0  0
  7  8  1  0  0  0  0
  7  9  1  0  0  0  0
  7 10  1  6  0  0  0
  7 28  1  0  0  0  0
  8 11  1  1  0  0  0
  8 12  1  0  0  0  0
  8 29  1  0  0  0  0
  9 30  1  0  0  0  0
  9 31  1  0  0  0  0
 10 13  1  0  0  0  0
 10 32  1  0  0  0  0
 10 33  1  0  0  0  0
 11 14  1  0  0  0  0
 11 34  1  0  0  0  0
 11 35  1  0  0  0  0
 13 15  2  0  0  0  0
 13 16  1  0  0  0  0
 14 17  2  0  0  0  0
 14 18  1  0  0  0  0
 15 19  1  0  0  0  0
 15 36  1  0  0  0  0
 16 20  2  0  0  0  0
 16 37  1  0  0  0  0
 17 21  1  0  0  0  0
 17 38  1  0  0  0  0
 18 22  2  0  0  0  0
 18 39  1  0  0  0  0
 19 23  2  0  0  0  0
 20 23  1  0  0  0  0
 20 40  1  0  0  0  0
 21 24  2  0  0  0  0
 22 24  1  0  0  0  0
 22 41  1  0  0  0  0
 25 43  1  0  0  0  0
 25 44  1  0  0  0  0
 25 45  1  0  0  0  0
 26 46  1  0  0  0  0
 26 47  1  0  0  0  0
 26 48  1  0  0  0  0
 27 49  1  0  0  0  0
 27 50  1  0  0  0  0
 27 51  1  0  0  0  0
M  END
> <PUBCHEM_COMPOUND_CID>
64981

> <PUBCHEM_COMPOUND_CANONICALIZED>
1

> <PUBCHEM_CACTVS_COMPLEXITY>
483

> <PUBCHEM_CACTVS_HBOND_ACCEPTOR>
6

> <PUBCHEM_CACTVS_HBOND_DONOR>
1

> <PUBCHEM_CACTVS_ROTATABLE_BOND>
7

> <PUBCHEM_CACTVS_SUBSKEYS>
AAADceB4OAAAAAAAAAAAAAAAAAAAASAAAAAwYAAAAAAAAAABQAAAGgAACAAADQSgmAIyDoAABgCIAiDSCAACCAAgIAAIiAEGiIgNJjKGMRqCcCMkwBELuAeKyPCOoAABAAAAQABAAAIAAACAAAAAAAAAAA==

> <PUBCHEM_IUPAC_OPENEYE_NAME>
(3R,4R)-4-[(3,4-dimethoxyphenyl)methyl]-3-[(4-hydroxy-3-methoxy-phenyl)methyl]tetrahydrofuran-2-one

> <PUBCHEM_IUPAC_CAS_NAME>
(3R,4R)-4-[(3,4-dimethoxyphenyl)methyl]-3-[(4-hydroxy-3-methoxyphenyl)methyl]-2-oxolanone

> <PUBCHEM_IUPAC_NAME>
(3R,4R)-4-[(3,4-dimethoxyphenyl)methyl]-3-[(4-hydroxy-3-methoxyphenyl)methyl]oxolan-2-one

> <PUBCHEM_IUPAC_SYSTEMATIC_NAME>
(3R,4R)-4-[(3,4-dimethoxyphenyl)methyl]-3-[(3-methoxy-4-oxidanyl-phenyl)methyl]oxolan-2-one

> <PUBCHEM_IUPAC_TRADITIONAL_NAME>
(3R,4R)-3-vanillyl-4-veratryl-tetrahydrofuran-2-one

> <PUBCHEM_IUPAC_INCHI>
InChI=1S/C21H24O6/c1-24-18-7-5-13(11-20(18)26-3)8-15-12-27-21(23)16(15)9-14-4-6-17(22)19(10-14)25-2/h4-7,10-11,15-16,22H,8-9,12H2,1-3H3/t15-,16+/m0/s1

> <PUBCHEM_IUPAC_INCHIKEY>
NQWVSMVXKMHKTF-JKSUJKDBSA-N

> <PUBCHEM_XLOGP3_AA>
3.6

> <PUBCHEM_EXACT_MASS>
372.157288

> <PUBCHEM_MOLECULAR_FORMULA>
C21H24O6

> <PUBCHEM_MOLECULAR_WEIGHT>
372.41166

> <PUBCHEM_OPENEYE_CAN_SMILES>
COC1=C(C=C(C=C1)CC2COC(=O)C2CC3=CC(=C(C=C3)O)OC)OC

> <PUBCHEM_OPENEYE_ISO_SMILES>
COC1=C(C=C(C=C1)C[C@H]2COC(=O)[C@@H]2CC3=CC(=C(C=C3)O)OC)OC

> <PUBCHEM_CACTVS_TPSA>
74.2

> <PUBCHEM_MONOISOTOPIC_WEIGHT>
372.157288

> <PUBCHEM_TOTAL_CHARGE>
0

> <PUBCHEM_HEAVY_ATOM_COUNT>
27

> <PUBCHEM_ATOM_DEF_STEREO_COUNT>
2

> <PUBCHEM_ATOM_UDEF_STEREO_COUNT>
0

> <PUBCHEM_BOND_DEF_STEREO_COUNT>
0

> <PUBCHEM_BOND_UDEF_STEREO_COUNT>
0

> <PUBCHEM_ISOTOPIC_ATOM_COUNT>
0

> <PUBCHEM_COMPONENT_COUNT>
1

> <PUBCHEM_CACTVS_TAUTO_COUNT>
6

> <PUBCHEM_COORDINATE_TYPE>
1
5
255

> <PUBCHEM_BONDANNOTATIONS>
13  15  8
13  16  8
14  17  8
14  18  8
15  19  8
16  20  8
17  21  8
18  22  8
19  23  8
20  23  8
21  24  8
22  24  8
7  10  6
8  11  5

$$$$

