17395418
  -OEChem-06241222503D

 47 50  0     1  0  0  0  0  0999 V2000
   -1.3145   -0.8322    1.7843 O   0  0  0  0  0  0  0  0  0  0  0  0
   -0.4159   -2.2143   -2.5112 O   0  0  0  0  0  0  0  0  0  0  0  0
    1.4331    0.1767   -0.4805 O   0  0  0  0  0  0  0  0  0  0  0  0
   -2.3037   -1.2791   -1.5156 N   0  0  0  0  0  0  0  0  0  0  0  0
   -0.5204   -1.6672   -0.2396 N   0  0  0  0  0  0  0  0  0  0  0  0
    3.0573   -1.2695    0.4077 N   0  0  0  0  0  0  0  0  0  0  0  0
    5.3821   -1.0274    0.8442 N   0  0  0  0  0  0  0  0  0  0  0  0
   -2.7482   -0.8445   -0.2002 C   0  0  2  0  0  0  0  0  0  0  0  0
   -3.8517   -1.8000    0.2872 C   0  0  0  0  0  0  0  0  0  0  0  0
   -3.1341    0.6243   -0.1764 C   0  0  0  0  0  0  0  0  0  0  0  0
   -4.6016   -1.2363    1.4875 C   0  0  0  0  0  0  0  0  0  0  0  0
   -5.2604    0.0883    1.1232 C   0  0  0  0  0  0  0  0  0  0  0  0
   -4.3072    1.0585    0.4731 C   0  0  0  0  0  0  0  0  0  0  0  0
   -1.4576   -1.0982    0.5971 C   0  0  0  0  0  0  0  0  0  0  0  0
   -1.0009   -1.7790   -1.5279 C   0  0  0  0  0  0  0  0  0  0  0  0
   -2.3002    1.5891   -0.7740 C   0  0  0  0  0  0  0  0  0  0  0  0
   -4.6366    2.4243    0.4776 C   0  0  0  0  0  0  0  0  0  0  0  0
    0.8115   -2.0532    0.1814 C   0  0  0  0  0  0  0  0  0  0  0  0
   -2.6322    2.9439   -0.7508 C   0  0  0  0  0  0  0  0  0  0  0  0
   -3.8025    3.3612   -0.1282 C   0  0  0  0  0  0  0  0  0  0  0  0
    1.7818   -0.9022   -0.0123 C   0  0  0  0  0  0  0  0  0  0  0  0
    4.2326   -0.4813    0.3880 C   0  0  0  0  0  0  0  0  0  0  0  0
    4.1286    0.8102   -0.1026 C   0  0  0  0  0  0  0  0  0  0  0  0
    5.2784    1.5919   -0.1267 C   0  0  0  0  0  0  0  0  0  0  0  0
    6.4800    1.0654    0.3342 C   0  0  0  0  0  0  0  0  0  0  0  0
    6.4787   -0.2377    0.8054 C   0  0  0  0  0  0  0  0  0  0  0  0
    5.2235    2.9885   -0.6450 C   0  0  0  0  0  0  0  0  0  0  0  0
   -3.4332   -2.7810    0.5467 H   0  0  0  0  0  0  0  0  0  0  0  0
   -4.5738   -1.9794   -0.5216 H   0  0  0  0  0  0  0  0  0  0  0  0
   -3.9150   -1.0964    2.3307 H   0  0  0  0  0  0  0  0  0  0  0  0
   -5.3674   -1.9479    1.8167 H   0  0  0  0  0  0  0  0  0  0  0  0
   -5.6810    0.5304    2.0345 H   0  0  0  0  0  0  0  0  0  0  0  0
   -6.0914   -0.0920    0.4299 H   0  0  0  0  0  0  0  0  0  0  0  0
   -2.8846   -1.2314   -2.3471 H   0  0  0  0  0  0  0  0  0  0  0  0
   -1.3765    1.2932   -1.2657 H   0  0  0  0  0  0  0  0  0  0  0  0
   -5.5505    2.7648    0.9589 H   0  0  0  0  0  0  0  0  0  0  0  0
    0.7919   -2.3312    1.2404 H   0  0  0  0  0  0  0  0  0  0  0  0
    1.1457   -2.9033   -0.4228 H   0  0  0  0  0  0  0  0  0  0  0  0
   -1.9765    3.6711   -1.2205 H   0  0  0  0  0  0  0  0  0  0  0  0
   -4.0660    4.4146   -0.1129 H   0  0  0  0  0  0  0  0  0  0  0  0
    3.1906   -2.2081    0.7765 H   0  0  0  0  0  0  0  0  0  0  0  0
    3.2305    1.2755   -0.4745 H   0  0  0  0  0  0  0  0  0  0  0  0
    7.3970    1.6446    0.3298 H   0  0  0  0  0  0  0  0  0  0  0  0
    7.3902   -0.6953    1.1756 H   0  0  0  0  0  0  0  0  0  0  0  0
    5.0603    2.9830   -1.7275 H   0  0  0  0  0  0  0  0  0  0  0  0
    4.4113    3.5442   -0.1646 H   0  0  0  0  0  0  0  0  0  0  0  0
    6.1528    3.5327   -0.4456 H   0  0  0  0  0  0  0  0  0  0  0  0
  1 14  2  0  0  0  0
  2 15  2  0  0  0  0
  3 21  2  0  0  0  0
  4  8  1  0  0  0  0
  4 15  1  0  0  0  0
  4 34  1  0  0  0  0
  5 14  1  0  0  0  0
  5 15  1  0  0  0  0
  5 18  1  0  0  0  0
  6 21  1  0  0  0  0
  6 22  1  0  0  0  0
  6 41  1  0  0  0  0
  7 22  2  0  0  0  0
  7 26  1  0  0  0  0
  8  9  1  0  0  0  0
  8 10  1  0  0  0  0
  8 14  1  0  0  0  0
  9 11  1  0  0  0  0
  9 28  1  0  0  0  0
  9 29  1  0  0  0  0
 10 13  1  0  0  0  0
 10 16  2  0  0  0  0
 11 12  1  0  0  0  0
 11 30  1  0  0  0  0
 11 31  1  0  0  0  0
 12 13  1  0  0  0  0
 12 32  1  0  0  0  0
 12 33  1  0  0  0  0
 13 17  2  0  0  0  0
 16 19  1  0  0  0  0
 16 35  1  0  0  0  0
 17 20  1  0  0  0  0
 17 36  1  0  0  0  0
 18 21  1  0  0  0  0
 18 37  1  0  0  0  0
 18 38  1  0  0  0  0
 19 20  2  0  0  0  0
 19 39  1  0  0  0  0
 20 40  1  0  0  0  0
 22 23  1  0  0  0  0
 23 24  2  0  0  0  0
 23 42  1  0  0  0  0
 24 25  1  0  0  0  0
 24 27  1  0  0  0  0
 25 26  2  0  0  0  0
 25 43  1  0  0  0  0
 26 44  1  0  0  0  0
 27 45  1  0  0  0  0
 27 46  1  0  0  0  0
 27 47  1  0  0  0  0
M  END
> <PUBCHEM_COMPOUND_CID>
17395418

> <PUBCHEM_CONFORMER_RMSD>
0.8

> <PUBCHEM_CONFORMER_DIVERSEORDER>
1
36
28
32
40
27
41
26
45
29
42
13
52
21
47
23
14
25
39
30
7
43
4
20
44
34
3
5
48
10
50
18
16
38
35
8
37
19
46
12
24
49
53
31
51
22
33
11
2
17
15
6
9

> <PUBCHEM_MMFF94_PARTIAL_CHARGES>
34
1 -0.57
10 -0.14
12 0.14
13 -0.14
14 0.57
15 0.69
16 -0.15
17 -0.15
18 0.36
19 -0.15
2 -0.57
20 -0.15
21 0.57
22 0.43
23 -0.15
24 -0.14
25 -0.15
26 0.16
27 0.14
3 -0.57
34 0.37
35 0.15
36 0.15
39 0.15
4 -0.73
40 0.15
41 0.37
42 0.15
43 0.15
44 0.15
5 -0.42
6 -0.55
7 -0.62
8 0.5

> <PUBCHEM_EFFECTIVE_ROTOR_COUNT>
5

> <PUBCHEM_PHARMACOPHORE_FEATURES>
9
1 1 acceptor
1 2 acceptor
1 3 acceptor
1 4 donor
1 6 donor
5 4 5 8 14 15 rings
6 10 13 16 17 19 20 rings
6 7 22 23 24 25 26 rings
6 8 9 10 11 12 13 rings

> <PUBCHEM_HEAVY_ATOM_COUNT>
27

> <PUBCHEM_ATOM_DEF_STEREO_COUNT>
0

> <PUBCHEM_ATOM_UDEF_STEREO_COUNT>
1

> <PUBCHEM_BOND_DEF_STEREO_COUNT>
0

> <PUBCHEM_BOND_UDEF_STEREO_COUNT>
0

> <PUBCHEM_ISOTOPIC_ATOM_COUNT>
0

> <PUBCHEM_COMPONENT_COUNT>
1

> <PUBCHEM_CACTVS_TAUTO_COUNT>
6

> <PUBCHEM_CONFORMER_ID>
01096EDA00000001

> <PUBCHEM_MMFF94_ENERGY>
69.1293

> <PUBCHEM_FEATURE_SELFOVERLAP>
45.693

> <PUBCHEM_SHAPE_FINGERPRINT>
10 15 18272364282644825377
10165383 225 17603580834004192531
10369192 42 17313376808235805367
105312 117 16950285100443441758
10675989 125 16756920901344364085
11101153 10 18267869384811269285
12107183 9 17983026832055995514
12422481 6 18272367620140674780
12596602 18 17346599642780033616
12616971 3 18336552634120548166
12633257 1 16415469437779561886
12892183 10 18131066073572191715
12925494 130 18340493382057376201
13167372 99 18412265043521749872
13785724 45 17835526295292811170
13911987 19 17385728032203090067
14790565 3 18411980235386802964
14950920 106 17847069878281275178
15163728 17 17749943487601617629
15419008 145 18130240332741724056
15876981 60 18271524174811064215
16110190 28 18412259536493318621
17844677 252 18341889702010756770
17980427 23 18343015593290677245
18393751 57 18410565185523682387
21033648 29 18114759186819236264
21302155 148 18410005554904767012
21315764 268 18272374174376975228
21756936 100 18410863144241905634
22122407 14 18342448219420954448
22956985 138 17122246284488533363
23559900 14 18121216751653579418
24771293 8 18261945341854580841
2838139 119 18338806726792797941
392239 28 17845354593150408355
469060 322 15913610574916113957
474144 1 17631146633641581628
5104073 3 18131069397829114418
7808743 9 18407763637736431058
9981440 41 18201150040270232291

> <PUBCHEM_SHAPE_MULTIPOLES>
518.12
15.09
3.28
1.34
21.85
2.49
-0.44
7.28
4.81
-2
-0.79
-0.85
-0.77
-0.38

> <PUBCHEM_SHAPE_SELFOVERLAP>
1134.709

> <PUBCHEM_SHAPE_VOLUME>
278.8

> <PUBCHEM_COORDINATE_TYPE>
2
5
10

$$$$

