9615
  -OEChem-06261203523D

 24 23  0     0  0  0  0  0  0999 V2000
    3.9935   -1.0344    0.3770 F   0  0  0  0  0  0  0  0  0  0  0  0
   -3.5307   -0.5259   -0.2089 O   0  0  0  0  0  0  0  0  0  0  0  0
    0.0611    0.5957    0.1307 C   0  0  0  0  0  0  0  0  0  0  0  0
    1.3838   -0.0446   -0.2952 C   0  0  0  0  0  0  0  0  0  0  0  0
   -1.1323   -0.2786   -0.2655 C   0  0  0  0  0  0  0  0  0  0  0  0
    2.5760    0.8096    0.1286 C   0  0  0  0  0  0  0  0  0  0  0  0
   -2.4606    0.3268    0.1719 C   0  0  0  0  0  0  0  0  0  0  0  0
    3.8947    0.1644   -0.2577 C   0  0  0  0  0  0  0  0  0  0  0  0
   -4.7855   -0.0129    0.2190 C   0  0  0  0  0  0  0  0  0  0  0  0
   -0.0372    1.5842   -0.3338 H   0  0  0  0  0  0  0  0  0  0  0  0
    0.0582    0.7459    1.2171 H   0  0  0  0  0  0  0  0  0  0  0  0
    1.3944   -0.1784   -1.3838 H   0  0  0  0  0  0  0  0  0  0  0  0
    1.4665   -1.0422    0.1529 H   0  0  0  0  0  0  0  0  0  0  0  0
   -1.1446   -0.4310   -1.3520 H   0  0  0  0  0  0  0  0  0  0  0  0
   -1.0308   -1.2783    0.1753 H   0  0  0  0  0  0  0  0  0  0  0  0
    2.5078    1.8024   -0.3302 H   0  0  0  0  0  0  0  0  0  0  0  0
    2.5529    0.9437    1.2165 H   0  0  0  0  0  0  0  0  0  0  0  0
   -2.5944    1.3089   -0.2968 H   0  0  0  0  0  0  0  0  0  0  0  0
   -2.4669    0.4558    1.2608 H   0  0  0  0  0  0  0  0  0  0  0  0
    4.7408    0.7828    0.0548 H   0  0  0  0  0  0  0  0  0  0  0  0
    3.9612   -0.0126   -1.3350 H   0  0  0  0  0  0  0  0  0  0  0  0
   -5.5683   -0.7038   -0.1055 H   0  0  0  0  0  0  0  0  0  0  0  0
   -4.9741    0.9658   -0.2328 H   0  0  0  0  0  0  0  0  0  0  0  0
   -4.8173    0.0627    1.3102 H   0  0  0  0  0  0  0  0  0  0  0  0
  1  8  1  0  0  0  0
  2  7  1  0  0  0  0
  2  9  1  0  0  0  0
  3  4  1  0  0  0  0
  3  5  1  0  0  0  0
  3 10  1  0  0  0  0
  3 11  1  0  0  0  0
  4  6  1  0  0  0  0
  4 12  1  0  0  0  0
  4 13  1  0  0  0  0
  5  7  1  0  0  0  0
  5 14  1  0  0  0  0
  5 15  1  0  0  0  0
  6  8  1  0  0  0  0
  6 16  1  0  0  0  0
  6 17  1  0  0  0  0
  7 18  1  0  0  0  0
  7 19  1  0  0  0  0
  8 20  1  0  0  0  0
  8 21  1  0  0  0  0
  9 22  1  0  0  0  0
  9 23  1  0  0  0  0
  9 24  1  0  0  0  0
M  END
> <PUBCHEM_COMPOUND_CID>
9615

> <PUBCHEM_CONFORMER_RMSD>
0.6

> <PUBCHEM_CONFORMER_DIVERSEORDER>
2
70
164
111
47
119
84
79
64
131
1
38
44
163
96
68
150
62
7
142
48
121
71
49
132
28
139
148
81
110
20
120
65
124
153
35
157
76
58
161
26
151
159
30
108
3
125
72
162
147
56
98
155
40
123
61
36
74
154
94
135
4
118
51
75
59
85
140
145
103
152
101
156
10
93
11
126
144
14
136
95
31
149
106
158
5
92
19
160
23
91
105
130
37
115
21
57
32
116
69
39
67
88
27
12
127
43
46
80
18
66
146
41
8
97
86
34
33
55
137
13
112
78
50
89
134
54
42
87
143
77
133
113
45
141
122
99
15
128
60
90
29
107
22
100
129
63
17
82
52
117
24
83
16
73
53
114
6
25
109
102
104
138
9

> <PUBCHEM_MMFF94_PARTIAL_CHARGES>
5
1 -0.34
2 -0.56
7 0.28
8 0.34
9 0.28

> <PUBCHEM_EFFECTIVE_ROTOR_COUNT>
6

> <PUBCHEM_PHARMACOPHORE_FEATURES>
2
1 2 acceptor
4 3 4 5 6 hydrophobe

> <PUBCHEM_HEAVY_ATOM_COUNT>
9

> <PUBCHEM_ATOM_DEF_STEREO_COUNT>
0

> <PUBCHEM_ATOM_UDEF_STEREO_COUNT>
0

> <PUBCHEM_BOND_DEF_STEREO_COUNT>
0

> <PUBCHEM_BOND_UDEF_STEREO_COUNT>
0

> <PUBCHEM_ISOTOPIC_ATOM_COUNT>
0

> <PUBCHEM_COMPONENT_COUNT>
1

> <PUBCHEM_CACTVS_TAUTO_COUNT>
1

> <PUBCHEM_CONFORMER_ID>
0000258F00000002

> <PUBCHEM_MMFF94_ENERGY>
5.2513

> <PUBCHEM_FEATURE_SELFOVERLAP>
10.148

> <PUBCHEM_SHAPE_FINGERPRINT>
11062470 55 7637402929993790789
11987891 38 18412823585958127419
12932764 1 15554180159371681796
14123238 8 9151170952676507497
14325111 11 18408885122464424564
177051 138 18334856147465345662
18342897 14 17385441016180646897
190213 19 17561363967567553325
20645477 70 18060139877405394818
20719005 15 18408040706398397351
21293036 1 12319736968483687076
22485316 2 18411704261661720839
23402539 116 17022626390404759597
42 15 18410855473018403411
42788 4 18408602556597708189

> <PUBCHEM_SHAPE_MULTIPOLES>
172.07
9.35
0.84
0.65
3.3
0
-0.01
1.16
0.61
-0.41
0.05
-0.06
0.01
-0.2

> <PUBCHEM_SHAPE_SELFOVERLAP>
302.281

> <PUBCHEM_SHAPE_VOLUME>
113.6

> <PUBCHEM_COORDINATE_TYPE>
2
5
10

$$$$

