5284549
  -OEChem-07051212522D

 35 36  0     1  0  0  0  0  0999 V2000
    3.7320    1.8170    0.0000 S   0  0  0  0  0  0  0  0  0  0  0  0
    5.5443    1.6217    0.0000 S   0  0  0  0  0  0  0  0  0  0  0  0
    7.1279    0.8170    0.0000 S   0  0  0  0  0  0  0  0  0  0  0  0
    3.2320    2.6830    0.0000 O   0  0  0  0  0  0  0  0  0  0  0  0
    4.2320    2.6830    0.0000 O   0  0  0  0  0  0  0  0  0  0  0  0
    7.1279   -0.1830    0.0000 O   0  0  0  0  0  0  0  0  0  0  0  0
    7.1279    1.8170    0.0000 O   0  0  0  0  0  0  0  0  0  0  0  0
    3.7320   -1.1830    0.0000 N   0  0  0  0  0  0  0  0  0  0  0  0
    8.1279    0.8170    0.0000 N   0  0  0  0  0  0  0  0  0  0  0  0
    2.8660    1.3170    0.0000 C   0  0  2  0  0  0  0  0  0  0  0  0
    3.7320   -0.1830    0.0000 C   0  0  1  0  0  0  0  0  0  0  0  0
    2.8660    0.3170    0.0000 C   0  0  0  0  0  0  0  0  0  0  0  0
    4.5981    0.3170    0.0000 C   0  0  0  0  0  0  0  0  0  0  0  0
    4.5981    1.3170    0.0000 C   0  0  0  0  0  0  0  0  0  0  0  0
    2.0000    1.8170    0.0000 C   0  0  0  0  0  0  0  0  0  0  0  0
    5.5443    0.0123    0.0000 C   0  0  0  0  0  0  0  0  0  0  0  0
    6.1279    0.8170    0.0000 C   0  0  0  0  0  0  0  0  0  0  0  0
    2.8660   -1.6830    0.0000 C   0  0  0  0  0  0  0  0  0  0  0  0
    2.8660   -2.6830    0.0000 C   0  0  0  0  0  0  0  0  0  0  0  0
    2.8660    1.9370    0.0000 H   0  0  0  0  0  0  0  0  0  0  0  0
    4.2690   -0.4930    0.0000 H   0  0  0  0  0  0  0  0  0  0  0  0
    2.2554    0.4246    0.0000 H   0  0  0  0  0  0  0  0  0  0  0  0
    2.6540   -0.2656    0.0000 H   0  0  0  0  0  0  0  0  0  0  0  0
    2.3100    2.3539    0.0000 H   0  0  0  0  0  0  0  0  0  0  0  0
    1.4631    2.1270    0.0000 H   0  0  0  0  0  0  0  0  0  0  0  0
    1.6900    1.2800    0.0000 H   0  0  0  0  0  0  0  0  0  0  0  0
    4.2690   -1.4930    0.0000 H   0  0  0  0  0  0  0  0  0  0  0  0
    5.7369   -0.5771    0.0000 H   0  0  0  0  0  0  0  0  0  0  0  0
    2.6540   -1.1004    0.0000 H   0  0  0  0  0  0  0  0  0  0  0  0
    2.2554   -1.7907    0.0000 H   0  0  0  0  0  0  0  0  0  0  0  0
    2.2460   -2.6830    0.0000 H   0  0  0  0  0  0  0  0  0  0  0  0
    2.8660   -3.3030    0.0000 H   0  0  0  0  0  0  0  0  0  0  0  0
    3.4860   -2.6830    0.0000 H   0  0  0  0  0  0  0  0  0  0  0  0
    8.4379    0.2801    0.0000 H   0  0  0  0  0  0  0  0  0  0  0  0
    8.4379    1.3539    0.0000 H   0  0  0  0  0  0  0  0  0  0  0  0
  1  4  2  0  0  0  0
  1  5  2  0  0  0  0
  1 10  1  0  0  0  0
  1 14  1  0  0  0  0
  2 14  1  0  0  0  0
  2 17  1  0  0  0  0
  3  6  2  0  0  0  0
  3  7  2  0  0  0  0
  3  9  1  0  0  0  0
  3 17  1  0  0  0  0
 11  8  1  1  0  0  0
  8 18  1  0  0  0  0
  8 27  1  0  0  0  0
  9 34  1  0  0  0  0
  9 35  1  0  0  0  0
 10 12  1  0  0  0  0
 10 15  1  6  0  0  0
 10 20  1  0  0  0  0
 11 12  1  0  0  0  0
 11 13  1  0  0  0  0
 11 21  1  0  0  0  0
 12 22  1  0  0  0  0
 12 23  1  0  0  0  0
 13 14  2  0  0  0  0
 13 16  1  0  0  0  0
 15 24  1  0  0  0  0
 15 25  1  0  0  0  0
 15 26  1  0  0  0  0
 16 17  2  0  0  0  0
 16 28  1  0  0  0  0
 18 19  1  0  0  0  0
 18 29  1  0  0  0  0
 18 30  1  0  0  0  0
 19 31  1  0  0  0  0
 19 32  1  0  0  0  0
 19 33  1  0  0  0  0
M  END
> <PUBCHEM_COMPOUND_CID>
5284549

> <PUBCHEM_COMPOUND_CANONICALIZED>
1

> <PUBCHEM_CACTVS_COMPLEXITY>
534

> <PUBCHEM_CACTVS_HBOND_ACCEPTOR>
7

> <PUBCHEM_CACTVS_HBOND_DONOR>
2

> <PUBCHEM_CACTVS_ROTATABLE_BOND>
3

> <PUBCHEM_CACTVS_SUBSKEYS>
AAADceBzOABgAAAAAAAAAAAAAAAAASAAAAAkAAAAAAAAAEgBgAAAHAQQQAAADCjFWASyAYLAAAqEAiBCAHDDAZAgCBBAiJgIBIgIIAIgkQGEAAhgkACoCAMAgAAOAAAAAAAAAAAAAAAAAAAAAAAAAAAAAA==

> <PUBCHEM_IUPAC_OPENEYE_NAME>
(4S,6S)-4-(ethylamino)-6-methyl-7,7-dioxo-5,6-dihydro-4H-thieno[2,3-b]thiopyran-2-sulfonamide

> <PUBCHEM_IUPAC_CAS_NAME>
(4S,6S)-4-(ethylamino)-6-methyl-7,7-dioxo-5,6-dihydro-4H-thieno[2,3-b]thiopyran-2-sulfonamide

> <PUBCHEM_IUPAC_NAME>
(4S,6S)-4-(ethylamino)-6-methyl-7,7-dioxo-5,6-dihydro-4H-thieno[2,3-b]thiopyran-2-sulfonamide

> <PUBCHEM_IUPAC_SYSTEMATIC_NAME>
(4S,6S)-4-(ethylamino)-6-methyl-7,7-bis(oxidanylidene)-5,6-dihydro-4H-thieno[2,3-b]thiopyran-2-sulfonamide

> <PUBCHEM_IUPAC_TRADITIONAL_NAME>
(4S,6S)-4-(ethylamino)-7,7-diketo-6-methyl-5,6-dihydro-4H-thieno[2,3-b]thiopyran-2-sulfonamide

> <PUBCHEM_IUPAC_INCHI>
InChI=1S/C10H16N2O4S3/c1-3-12-8-4-6(2)18(13,14)10-7(8)5-9(17-10)19(11,15)16/h5-6,8,12H,3-4H2,1-2H3,(H2,11,15,16)/t6-,8-/m0/s1

> <PUBCHEM_IUPAC_INCHIKEY>
IAVUPMFITXYVAF-XPUUQOCRSA-N

> <PUBCHEM_XLOGP3_AA>
0.4

> <PUBCHEM_EXACT_MASS>
324.02722

> <PUBCHEM_MOLECULAR_FORMULA>
C10H16N2O4S3

> <PUBCHEM_MOLECULAR_WEIGHT>
324.44004

> <PUBCHEM_OPENEYE_CAN_SMILES>
CCNC1CC(S(=O)(=O)C2=C1C=C(S2)S(=O)(=O)N)C

> <PUBCHEM_OPENEYE_ISO_SMILES>
CCN[C@H]1C[C@@H](S(=O)(=O)C2=C1C=C(S2)S(=O)(=O)N)C

> <PUBCHEM_CACTVS_TPSA>
151

> <PUBCHEM_MONOISOTOPIC_WEIGHT>
324.02722

> <PUBCHEM_TOTAL_CHARGE>
0

> <PUBCHEM_HEAVY_ATOM_COUNT>
19

> <PUBCHEM_ATOM_DEF_STEREO_COUNT>
2

> <PUBCHEM_ATOM_UDEF_STEREO_COUNT>
0

> <PUBCHEM_BOND_DEF_STEREO_COUNT>
0

> <PUBCHEM_BOND_UDEF_STEREO_COUNT>
0

> <PUBCHEM_ISOTOPIC_ATOM_COUNT>
0

> <PUBCHEM_COMPONENT_COUNT>
1

> <PUBCHEM_CACTVS_TAUTO_COUNT>
1

> <PUBCHEM_COORDINATE_TYPE>
1
5
255

> <PUBCHEM_BONDANNOTATIONS>
10  15  6
13  14  8
13  16  8
16  17  8
2  14  8
2  17  8
11  8  5

$$$$

