442732
  -OEChem-07051212592D

 48 50  0     1  0  0  0  0  0999 V2000
    8.2103   -1.1154    0.0000 O   0  0  0  0  0  0  0  0  0  0  0  0
    9.7939   -0.3107    0.0000 O   0  0  0  0  0  0  0  0  0  0  0  0
    6.3981   -2.3107    0.0000 O   0  0  0  0  0  0  0  0  0  0  0  0
    4.6497   -2.3453    0.0000 O   0  0  0  0  0  0  0  0  0  0  0  0
    4.6497    1.7239    0.0000 O   0  0  0  0  0  0  0  0  0  0  0  0
    2.8680    0.7134    0.0000 O   0  0  0  0  0  0  0  0  0  0  0  0
    8.2103    0.4940    0.0000 C   0  0  2  0  0  0  0  0  0  0  0  0
    7.2641    0.1893    0.0000 C   0  0  0  0  0  0  0  0  0  0  0  0
    8.7939   -0.3107    0.0000 C   0  0  3  0  0  0  0  0  0  0  0  0
    9.0204    1.0804    0.0000 C   0  0  0  0  0  0  0  0  0  0  0  0
    7.2641   -0.8107    0.0000 C   0  0  0  0  0  0  0  0  0  0  0  0
    6.3981    0.6893    0.0000 C   0  0  0  0  0  0  0  0  0  0  0  0
    7.9030    1.4456    0.0000 C   0  0  0  0  0  0  0  0  0  0  0  0
    5.5320    0.1893    0.0000 C   0  0  0  0  0  0  0  0  0  0  0  0
    5.5320   -0.8107    0.0000 C   0  0  0  0  0  0  0  0  0  0  0  0
    6.3981   -1.3107    0.0000 C   0  0  0  0  0  0  0  0  0  0  0  0
    6.3981    1.6893    0.0000 C   0  0  0  0  0  0  0  0  0  0  0  0
    8.9175    2.0751    0.0000 C   0  0  0  0  0  0  0  0  0  0  0  0
    4.6381   -1.3454    0.0000 C   0  0  0  0  0  0  0  0  0  0  0  0
    4.6381    0.7240    0.0000 C   0  0  0  0  0  0  0  0  0  0  0  0
    3.7320   -0.8315    0.0000 C   0  0  0  0  0  0  0  0  0  0  0  0
    2.8680   -1.3349    0.0000 C   0  0  0  0  0  0  0  0  0  0  0  0
    3.7320    0.2101    0.0000 C   0  0  0  0  0  0  0  0  0  0  0  0
    9.7276    2.6615    0.0000 C   0  0  0  0  0  0  0  0  0  0  0  0
    2.0000   -0.8382    0.0000 C   0  0  0  0  0  0  0  0  0  0  0  0
    2.8718   -2.3348    0.0000 C   0  0  0  0  0  0  0  0  0  0  0  0
    9.1802    0.4465    0.0000 H   0  0  0  0  0  0  0  0  0  0  0  0
    9.2912    0.5227    0.0000 H   0  0  0  0  0  0  0  0  0  0  0  0
    9.6166    1.2503    0.0000 H   0  0  0  0  0  0  0  0  0  0  0  0
    8.4929    1.6362    0.0000 H   0  0  0  0  0  0  0  0  0  0  0  0
    7.7124    2.0356    0.0000 H   0  0  0  0  0  0  0  0  0  0  0  0
    7.3130    1.2550    0.0000 H   0  0  0  0  0  0  0  0  0  0  0  0
    7.0181    1.6893    0.0000 H   0  0  0  0  0  0  0  0  0  0  0  0
    6.3981    2.3093    0.0000 H   0  0  0  0  0  0  0  0  0  0  0  0
    5.7781    1.6893    0.0000 H   0  0  0  0  0  0  0  0  0  0  0  0
    8.3516    2.3283    0.0000 H   0  0  0  0  0  0  0  0  0  0  0  0
   10.1039   -0.8476    0.0000 H   0  0  0  0  0  0  0  0  0  0  0  0
    2.8656   -0.7149    0.0000 H   0  0  0  0  0  0  0  0  0  0  0  0
    6.9350   -2.6207    0.0000 H   0  0  0  0  0  0  0  0  0  0  0  0
    2.2518   -2.3372    0.0000 H   0  0  0  0  0  0  0  0  0  0  0  0
    2.8742   -2.9548    0.0000 H   0  0  0  0  0  0  0  0  0  0  0  0
    3.4918   -2.3325    0.0000 H   0  0  0  0  0  0  0  0  0  0  0  0
    2.3079   -0.3001    0.0000 H   0  0  0  0  0  0  0  0  0  0  0  0
    1.4619   -0.5303    0.0000 H   0  0  0  0  0  0  0  0  0  0  0  0
    1.6921   -1.3763    0.0000 H   0  0  0  0  0  0  0  0  0  0  0  0
   10.2935    2.4083    0.0000 H   0  0  0  0  0  0  0  0  0  0  0  0
    9.6638    3.2782    0.0000 H   0  0  0  0  0  0  0  0  0  0  0  0
    4.1164   -2.6615    0.0000 H   0  0  0  0  0  0  0  0  0  0  0  0
  1  9  1  0  0  0  0
  1 11  1  0  0  0  0
  2  9  1  0  0  0  0
  2 37  1  0  0  0  0
  3 16  1  0  0  0  0
  3 39  1  0  0  0  0
  4 19  1  0  0  0  0
  4 48  1  0  0  0  0
  5 20  2  0  0  0  0
  6 23  2  0  0  0  0
  7  8  1  0  0  0  0
  7  9  1  0  0  0  0
  7 10  1  0  0  0  0
  7 13  1  6  0  0  0
  8 11  1  0  0  0  0
  8 12  2  0  0  0  0
  9 27  1  0  0  0  0
 10 18  1  0  0  0  0
 10 28  1  0  0  0  0
 10 29  1  0  0  0  0
 11 16  2  0  0  0  0
 12 14  1  0  0  0  0
 12 17  1  0  0  0  0
 13 30  1  0  0  0  0
 13 31  1  0  0  0  0
 13 32  1  0  0  0  0
 14 15  2  0  0  0  0
 14 20  1  0  0  0  0
 15 16  1  0  0  0  0
 15 19  1  0  0  0  0
 17 33  1  0  0  0  0
 17 34  1  0  0  0  0
 17 35  1  0  0  0  0
 18 24  2  0  0  0  0
 18 36  1  0  0  0  0
 19 21  2  0  0  0  0
 20 23  1  0  0  0  0
 21 22  1  0  0  0  0
 21 23  1  0  0  0  0
 22 25  1  0  0  0  0
 22 26  1  0  0  0  0
 22 38  1  0  0  0  0
 24 46  1  0  0  0  0
 24 47  1  0  0  0  0
 25 43  1  0  0  0  0
 25 44  1  0  0  0  0
 25 45  1  0  0  0  0
 26 40  1  0  0  0  0
 26 41  1  0  0  0  0
 26 42  1  0  0  0  0
M  END
> <PUBCHEM_COMPOUND_CID>
442732

> <PUBCHEM_COMPOUND_CANONICALIZED>
1

> <PUBCHEM_CACTVS_COMPLEXITY>
680

> <PUBCHEM_CACTVS_HBOND_ACCEPTOR>
6

> <PUBCHEM_CACTVS_HBOND_DONOR>
3

> <PUBCHEM_CACTVS_ROTATABLE_BOND>
3

> <PUBCHEM_CACTVS_SUBSKEYS>
AAADceB4OAAAAAAAAAAAAAAAAAAAASAAAAAwQAAAAAAAAEiBAAAAGgAACAAADwSwmAMCDoAABgCIAqBSAAACCAAkIAAIiAEEiMgdNzKGNRqCeSOlwBEPuQfK7PTP4AADAAAYQADAAAYAADCAAAAAAAAAAA==

> <PUBCHEM_IUPAC_OPENEYE_NAME>
(3R)-3-allyl-2,8,9-trihydroxy-7-isopropyl-3,4-dimethyl-2H-benzo[f]benzofuran-5,6-dione

> <PUBCHEM_IUPAC_CAS_NAME>
(3R)-2,8,9-trihydroxy-3,4-dimethyl-7-propan-2-yl-3-prop-2-enyl-2H-benzo[f]benzofuran-5,6-dione

> <PUBCHEM_IUPAC_NAME>
(3R)-2,8,9-trihydroxy-3,4-dimethyl-7-propan-2-yl-3-prop-2-enyl-2H-benzo[f][1]benzofuran-5,6-dione

> <PUBCHEM_IUPAC_SYSTEMATIC_NAME>
(3R)-3,4-dimethyl-2,8,9-tris(oxidanyl)-7-propan-2-yl-3-prop-2-enyl-2H-benzo[f][1]benzofuran-5,6-dione

> <PUBCHEM_IUPAC_TRADITIONAL_NAME>
(3R)-3-allyl-2,8,9-trihydroxy-7-isopropyl-3,4-dimethyl-2H-benzo[f]benzofuran-5,6-quinone

> <PUBCHEM_IUPAC_INCHI>
InChI=1S/C20H22O6/c1-6-7-20(5)13-9(4)11-12(17(24)18(13)26-19(20)25)14(21)10(8(2)3)15(22)16(11)23/h6,8,19,21,24-25H,1,7H2,2-5H3/t19?,20-/m1/s1

> <PUBCHEM_IUPAC_INCHIKEY>
KGPUDFRSRWIMAU-GFOWMXPYSA-N

> <PUBCHEM_XLOGP3_AA>
3.5

> <PUBCHEM_EXACT_MASS>
358.141638

> <PUBCHEM_MOLECULAR_FORMULA>
C20H22O6

> <PUBCHEM_MOLECULAR_WEIGHT>
358.38508

> <PUBCHEM_OPENEYE_CAN_SMILES>
CC1=C2C(=C(C3=C1C(=O)C(=O)C(=C3O)C(C)C)O)OC(C2(C)CC=C)O

> <PUBCHEM_OPENEYE_ISO_SMILES>
CC1=C2C(=C(C3=C1C(=O)C(=O)C(=C3O)C(C)C)O)OC([C@]2(C)CC=C)O

> <PUBCHEM_CACTVS_TPSA>
104

> <PUBCHEM_MONOISOTOPIC_WEIGHT>
358.141638

> <PUBCHEM_TOTAL_CHARGE>
0

> <PUBCHEM_HEAVY_ATOM_COUNT>
26

> <PUBCHEM_ATOM_DEF_STEREO_COUNT>
1

> <PUBCHEM_ATOM_UDEF_STEREO_COUNT>
1

> <PUBCHEM_BOND_DEF_STEREO_COUNT>
0

> <PUBCHEM_BOND_UDEF_STEREO_COUNT>
0

> <PUBCHEM_ISOTOPIC_ATOM_COUNT>
0

> <PUBCHEM_COMPONENT_COUNT>
1

> <PUBCHEM_CACTVS_TAUTO_COUNT>
259

> <PUBCHEM_COORDINATE_TYPE>
1
5
255

> <PUBCHEM_BONDANNOTATIONS>
11  16  8
12  14  8
14  15  8
15  16  8
7  13  6
8  11  8
8  12  8
9  27  3

$$$$

