7549
  -OEChem-07051213142D

 23 24  0     0  0  0  0  0  0999 V2000
    2.0000   -0.9906    0.0000 O   0  0  0  0  0  0  0  0  0  0  0  0
    9.8873   -1.7943    0.0000 O   0  0  0  0  0  0  0  0  0  0  0  0
    6.1808   -0.1542    0.0000 N   0  0  0  0  0  0  0  0  0  0  0  0
    6.4396    0.8117    0.0000 N   0  0  0  0  0  0  0  0  0  0  0  0
    3.7320   -0.9906    0.0000 N   0  0  0  0  0  0  0  0  0  0  0  0
    8.6626   -0.5696    0.0000 N   0  0  0  0  0  0  0  0  0  0  0  0
    2.8660   -1.4906    0.0000 N   0  0  0  0  0  0  0  0  0  0  0  0
    9.6285   -0.8284    0.0000 N   0  0  0  0  0  0  0  0  0  0  0  0
    5.7030    1.7943    0.0000 C   0  0  0  0  0  0  0  0  0  0  0  0
    4.6456   -1.3974    0.0000 C   0  0  0  0  0  0  0  0  0  0  0  0
    3.8366    0.0039    0.0000 C   0  0  0  0  0  0  0  0  0  0  0  0
    7.8854   -1.1989    0.0000 C   0  0  0  0  0  0  0  0  0  0  0  0
    8.3042    0.3640    0.0000 C   0  0  0  0  0  0  0  0  0  0  0  0
    6.0208    2.3267    0.0000 H   0  0  0  0  0  0  0  0  0  0  0  0
    5.0898    1.8863    0.0000 H   0  0  0  0  0  0  0  0  0  0  0  0
    8.9157    0.4664    0.0000 H   0  0  0  0  0  0  0  0  0  0  0  0
    8.3259    0.9836    0.0000 H   0  0  0  0  0  0  0  0  0  0  0  0
    7.5037   -1.6874    0.0000 H   0  0  0  0  0  0  0  0  0  0  0  0
    8.3277   -1.6334    0.0000 H   0  0  0  0  0  0  0  0  0  0  0  0
    3.7343    0.6154    0.0000 H   0  0  0  0  0  0  0  0  0  0  0  0
    3.2169   -0.0150    0.0000 H   0  0  0  0  0  0  0  0  0  0  0  0
    4.3079   -1.9174    0.0000 H   0  0  0  0  0  0  0  0  0  0  0  0
    5.1064   -1.8122    0.0000 H   0  0  0  0  0  0  0  0  0  0  0  0
  1  7  2  0  0  0  0
  2  8  2  0  0  0  0
  3  9  1  0  0  0  0
  3 10  1  0  0  0  0
  3 12  1  0  0  0  0
  4  9  1  0  0  0  0
  4 11  1  0  0  0  0
  4 13  1  0  0  0  0
  5  7  1  0  0  0  0
  5 10  1  0  0  0  0
  5 11  1  0  0  0  0
  6  8  1  0  0  0  0
  6 12  1  0  0  0  0
  6 13  1  0  0  0  0
  9 14  1  0  0  0  0
  9 15  1  0  0  0  0
 10 22  1  0  0  0  0
 10 23  1  0  0  0  0
 11 20  1  0  0  0  0
 11 21  1  0  0  0  0
 12 18  1  0  0  0  0
 12 19  1  0  0  0  0
 13 16  1  0  0  0  0
 13 17  1  0  0  0  0
M  END
> <PUBCHEM_COMPOUND_CID>
7549

> <PUBCHEM_COMPOUND_CANONICALIZED>
1

> <PUBCHEM_CACTVS_COMPLEXITY>
189

> <PUBCHEM_CACTVS_HBOND_ACCEPTOR>
8

> <PUBCHEM_CACTVS_HBOND_DONOR>
0

> <PUBCHEM_CACTVS_ROTATABLE_BOND>
0

> <PUBCHEM_CACTVS_SUBSKEYS>
AAADccBjsAAAAAAAAAAAAAAAAAAAAAAAAAAsWAAAAAAWAAAAAAAAFAAMAAAAAAAAAAQBAAMAAAABAAAAAAAAAAAAAAAEAAAIAACAAAAAAAAAAAAIAAAAAAAAAAAAAAAAAAAAAAAAAAAAAAAAAAAAAAAAAA==

> <PUBCHEM_IUPAC_OPENEYE_NAME>
3,7-dinitroso-1,3,5,7-tetrazabicyclo[3.3.1]nonane

> <PUBCHEM_IUPAC_CAS_NAME>
3,7-dinitroso-1,3,5,7-tetrazabicyclo[3.3.1]nonane

> <PUBCHEM_IUPAC_NAME>
3,7-dinitroso-1,3,5,7-tetrazabicyclo[3.3.1]nonane

> <PUBCHEM_IUPAC_SYSTEMATIC_NAME>
3,7-dinitroso-1,3,5,7-tetrazabicyclo[3.3.1]nonane

> <PUBCHEM_IUPAC_TRADITIONAL_NAME>
3,7-dinitroso-1,3,5,7-tetrazabicyclo[3.3.1]nonane

> <PUBCHEM_IUPAC_INCHI>
InChI=1S/C5H10N6O2/c12-6-10-2-8-1-9(4-10)5-11(3-8)7-13/h1-5H2

> <PUBCHEM_IUPAC_INCHIKEY>
MWRWFPQBGSZWNV-UHFFFAOYSA-N

> <PUBCHEM_XLOGP3_AA>
0.3

> <PUBCHEM_EXACT_MASS>
186.086524

> <PUBCHEM_MOLECULAR_FORMULA>
C5H10N6O2

> <PUBCHEM_MOLECULAR_WEIGHT>
186.1719

> <PUBCHEM_OPENEYE_CAN_SMILES>
C1N2CN(CN1CN(C2)N=O)N=O

> <PUBCHEM_OPENEYE_ISO_SMILES>
C1N2CN(CN1CN(C2)N=O)N=O

> <PUBCHEM_CACTVS_TPSA>
71.8

> <PUBCHEM_MONOISOTOPIC_WEIGHT>
186.086524

> <PUBCHEM_TOTAL_CHARGE>
0

> <PUBCHEM_HEAVY_ATOM_COUNT>
13

> <PUBCHEM_ATOM_DEF_STEREO_COUNT>
0

> <PUBCHEM_ATOM_UDEF_STEREO_COUNT>
0

> <PUBCHEM_BOND_DEF_STEREO_COUNT>
0

> <PUBCHEM_BOND_UDEF_STEREO_COUNT>
0

> <PUBCHEM_ISOTOPIC_ATOM_COUNT>
0

> <PUBCHEM_COMPONENT_COUNT>
1

> <PUBCHEM_CACTVS_TAUTO_COUNT>
1

> <PUBCHEM_COORDINATE_TYPE>
1
5
255

$$$$

