17396017
  -OEChem-06241222533D

 64 66  0     1  0  0  0  0  0999 V2000
    0.4357   -3.1392   -0.6693 S   0  0  0  0  0  0  0  0  0  0  0  0
    0.3090   -3.2968   -2.1023 O   0  0  0  0  0  0  0  0  0  0  0  0
    0.6799   -4.2798    0.1876 O   0  0  0  0  0  0  0  0  0  0  0  0
   -3.7262    2.4400    0.4523 O   0  0  0  0  0  0  0  0  0  0  0  0
   -0.9234   -2.2810   -0.0788 N   0  0  0  0  0  0  0  0  0  0  0  0
   -2.6750   -0.2615    0.9806 N   0  0  0  0  0  0  0  0  0  0  0  0
   -5.5536    1.1416   -0.1457 N   0  0  0  0  0  0  0  0  0  0  0  0
    4.8064    0.9469    0.3706 C   0  0  0  0  0  0  0  0  0  0  0  0
    5.9820    0.7920   -0.6101 C   0  0  0  0  0  0  0  0  0  0  0  0
    4.2603    2.3853    0.3528 C   0  0  0  0  0  0  0  0  0  0  0  0
    7.0792    1.8186   -0.3333 C   0  0  0  0  0  0  0  0  0  0  0  0
    5.3646    3.4053    0.6258 C   0  0  0  0  0  0  0  0  0  0  0  0
    6.5326    3.2432   -0.3425 C   0  0  0  0  0  0  0  0  0  0  0  0
   -2.7446   -0.6576   -0.4329 C   0  0  0  0  0  0  0  0  0  0  0  0
   -2.2325   -1.3907    1.8109 C   0  0  0  0  0  0  0  0  0  0  0  0
   -1.3843   -1.1464   -0.9286 C   0  0  0  0  0  0  0  0  0  0  0  0
   -0.8623   -1.8940    1.3594 C   0  0  0  0  0  0  0  0  0  0  0  0
    3.7144   -0.0746    0.1101 C   0  0  0  0  0  0  0  0  0  0  0  0
   -3.9708    0.2374    1.4394 C   0  0  1  0  0  0  0  0  0  0  0  0
    1.7057   -1.9507   -0.3672 C   0  0  0  0  0  0  0  0  0  0  0  0
    3.0332   -0.0728   -1.1072 C   0  0  0  0  0  0  0  0  0  0  0  0
    3.3911   -1.0145    1.0888 C   0  0  0  0  0  0  0  0  0  0  0  0
    2.0289   -1.0109   -1.3459 C   0  0  0  0  0  0  0  0  0  0  0  0
    2.3868   -1.9526    0.8502 C   0  0  0  0  0  0  0  0  0  0  0  0
   -3.8770    0.6918    2.8906 C   0  0  0  0  0  0  0  0  0  0  0  0
   -4.3785    1.4023    0.5464 C   0  0  0  0  0  0  0  0  0  0  0  0
   -6.1445    2.0832   -1.0683 C   0  0  0  0  0  0  0  0  0  0  0  0
   -7.6615    1.9465   -1.0653 C   0  0  0  0  0  0  0  0  0  0  0  0
   -5.5754    1.8890   -2.4682 C   0  0  0  0  0  0  0  0  0  0  0  0
    5.2046    0.7672    1.3797 H   0  0  0  0  0  0  0  0  0  0  0  0
    5.6425    0.9120   -1.6467 H   0  0  0  0  0  0  0  0  0  0  0  0
    6.4036   -0.2181   -0.5351 H   0  0  0  0  0  0  0  0  0  0  0  0
    3.8017    2.6159   -0.6170 H   0  0  0  0  0  0  0  0  0  0  0  0
    3.4699    2.4968    1.1056 H   0  0  0  0  0  0  0  0  0  0  0  0
    7.8710    1.7228   -1.0849 H   0  0  0  0  0  0  0  0  0  0  0  0
    7.5371    1.6092    0.6412 H   0  0  0  0  0  0  0  0  0  0  0  0
    4.9571    4.4193    0.5451 H   0  0  0  0  0  0  0  0  0  0  0  0
    5.7243    3.2868    1.6554 H   0  0  0  0  0  0  0  0  0  0  0  0
    7.3309    3.9457   -0.0777 H   0  0  0  0  0  0  0  0  0  0  0  0
    6.2036    3.5008   -1.3568 H   0  0  0  0  0  0  0  0  0  0  0  0
   -3.0199    0.1818   -1.0799 H   0  0  0  0  0  0  0  0  0  0  0  0
   -3.4944   -1.4471   -0.5780 H   0  0  0  0  0  0  0  0  0  0  0  0
   -2.1135   -1.1007    2.8595 H   0  0  0  0  0  0  0  0  0  0  0  0
   -2.9599   -2.2126    1.7714 H   0  0  0  0  0  0  0  0  0  0  0  0
   -1.4918   -1.4743   -1.9676 H   0  0  0  0  0  0  0  0  0  0  0  0
   -0.6639   -0.3225   -0.8932 H   0  0  0  0  0  0  0  0  0  0  0  0
   -0.1262   -1.0990    1.5162 H   0  0  0  0  0  0  0  0  0  0  0  0
   -0.5869   -2.7602    1.9698 H   0  0  0  0  0  0  0  0  0  0  0  0
   -4.7292   -0.5550    1.3835 H   0  0  0  0  0  0  0  0  0  0  0  0
    3.2677    0.6503   -1.8832 H   0  0  0  0  0  0  0  0  0  0  0  0
    3.9118   -1.0286    2.0424 H   0  0  0  0  0  0  0  0  0  0  0  0
    1.5101   -0.9893   -2.3000 H   0  0  0  0  0  0  0  0  0  0  0  0
    2.1514   -2.6740    1.6274 H   0  0  0  0  0  0  0  0  0  0  0  0
   -4.7465    1.3071    3.1521 H   0  0  0  0  0  0  0  0  0  0  0  0
   -3.8682   -0.1486    3.5918 H   0  0  0  0  0  0  0  0  0  0  0  0
   -2.9900    1.3108    3.0704 H   0  0  0  0  0  0  0  0  0  0  0  0
   -5.9920    0.2294   -0.0600 H   0  0  0  0  0  0  0  0  0  0  0  0
   -5.8890    3.0954   -0.7320 H   0  0  0  0  0  0  0  0  0  0  0  0
   -7.9723    0.9471   -1.3898 H   0  0  0  0  0  0  0  0  0  0  0  0
   -8.0635    2.1056   -0.0587 H   0  0  0  0  0  0  0  0  0  0  0  0
   -8.1224    2.6807   -1.7341 H   0  0  0  0  0  0  0  0  0  0  0  0
   -5.7806    0.8800   -2.8432 H   0  0  0  0  0  0  0  0  0  0  0  0
   -4.4885    2.0256   -2.4718 H   0  0  0  0  0  0  0  0  0  0  0  0
   -6.0078    2.6092   -3.1704 H   0  0  0  0  0  0  0  0  0  0  0  0
  1  2  2  0  0  0  0
  1  3  2  0  0  0  0
  1  5  1  0  0  0  0
  1 20  1  0  0  0  0
  4 26  2  0  0  0  0
  5 16  1  0  0  0  0
  5 17  1  0  0  0  0
  6 14  1  0  0  0  0
  6 15  1  0  0  0  0
  6 19  1  0  0  0  0
  7 26  1  0  0  0  0
  7 27  1  0  0  0  0
  7 57  1  0  0  0  0
  8  9  1  0  0  0  0
  8 10  1  0  0  0  0
  8 18  1  0  0  0  0
  8 30  1  0  0  0  0
  9 11  1  0  0  0  0
  9 31  1  0  0  0  0
  9 32  1  0  0  0  0
 10 12  1  0  0  0  0
 10 33  1  0  0  0  0
 10 34  1  0  0  0  0
 11 13  1  0  0  0  0
 11 35  1  0  0  0  0
 11 36  1  0  0  0  0
 12 13  1  0  0  0  0
 12 37  1  0  0  0  0
 12 38  1  0  0  0  0
 13 39  1  0  0  0  0
 13 40  1  0  0  0  0
 14 16  1  0  0  0  0
 14 41  1  0  0  0  0
 14 42  1  0  0  0  0
 15 17  1  0  0  0  0
 15 43  1  0  0  0  0
 15 44  1  0  0  0  0
 16 45  1  0  0  0  0
 16 46  1  0  0  0  0
 17 47  1  0  0  0  0
 17 48  1  0  0  0  0
 18 21  2  0  0  0  0
 18 22  1  0  0  0  0
 19 25  1  0  0  0  0
 19 26  1  0  0  0  0
 19 49  1  0  0  0  0
 20 23  2  0  0  0  0
 20 24  1  0  0  0  0
 21 23  1  0  0  0  0
 21 50  1  0  0  0  0
 22 24  2  0  0  0  0
 22 51  1  0  0  0  0
 23 52  1  0  0  0  0
 24 53  1  0  0  0  0
 25 54  1  0  0  0  0
 25 55  1  0  0  0  0
 25 56  1  0  0  0  0
 27 28  1  0  0  0  0
 27 29  1  0  0  0  0
 27 58  1  0  0  0  0
 28 59  1  0  0  0  0
 28 60  1  0  0  0  0
 28 61  1  0  0  0  0
 29 62  1  0  0  0  0
 29 63  1  0  0  0  0
 29 64  1  0  0  0  0
M  END
> <PUBCHEM_COMPOUND_CID>
17396017

> <PUBCHEM_CONFORMER_RMSD>
1.2

> <PUBCHEM_CONFORMER_DIVERSEORDER>
1
13
52
48
37
16
55
36
15
10
51
25
23
54
19
40
45
9
17
28
44
14
18
46
41
33
43
12
35
24
5
31
27
47
7
50
32
38
4
34
29
30
20
11
26
8
3
42
53
6
49
22
39
21
2

> <PUBCHEM_MMFF94_PARTIAL_CHARGES>
26
1 1.45
14 0.27
15 0.27
16 0.36
17 0.36
18 -0.14
19 0.33
2 -0.65
20 -0.01
21 -0.15
22 -0.15
23 -0.15
24 -0.15
26 0.57
27 0.3
3 -0.65
4 -0.57
5 -0.85
50 0.15
51 0.15
52 0.15
53 0.15
57 0.37
6 -0.81
7 -0.73
8 0.14

> <PUBCHEM_EFFECTIVE_ROTOR_COUNT>
9.4

> <PUBCHEM_PHARMACOPHORE_FEATURES>
9
1 2 acceptor
1 3 acceptor
1 4 acceptor
1 6 cation
1 7 donor
3 27 28 29 hydrophobe
6 18 20 21 22 23 24 rings
6 5 6 14 15 16 17 rings
6 8 9 10 11 12 13 rings

> <PUBCHEM_HEAVY_ATOM_COUNT>
29

> <PUBCHEM_ATOM_DEF_STEREO_COUNT>
0

> <PUBCHEM_ATOM_UDEF_STEREO_COUNT>
1

> <PUBCHEM_BOND_DEF_STEREO_COUNT>
0

> <PUBCHEM_BOND_UDEF_STEREO_COUNT>
0

> <PUBCHEM_ISOTOPIC_ATOM_COUNT>
0

> <PUBCHEM_COMPONENT_COUNT>
1

> <PUBCHEM_CACTVS_TAUTO_COUNT>
2

> <PUBCHEM_CONFORMER_ID>
0109713100000001

> <PUBCHEM_MMFF94_ENERGY>
44.4418

> <PUBCHEM_FEATURE_SELFOVERLAP>
45.686

> <PUBCHEM_SHAPE_FINGERPRINT>
10006869 2 18200886170501506732
10556698 54 17974837681889121436
10928967 22 6915681238807222829
11112241 14 18341610456322708189
11374522 79 5617264693159272052
12107183 9 18410298021805244130
12422481 6 17704068465551779036
12633257 1 15984817070088116370
12788726 201 17973456403248450486
13103583 49 14548733972018809554
13383661 66 6988319477515368093
13878862 14 18269855231971099844
13911987 19 18040714771075143737
13944108 23 18046621476115054816
13947930 73 7492990856678616756
14480069 147 8214148468620435389
14931854 50 17676203593407765657
14950920 106 15410042955462570652
15198563 99 17685218274459061831
15238133 3 17489575745931931654
15803439 3 17022900121386547374
16120349 189 18341049627486675260
19246450 95 12463026467094336879
20501277 180 17054736696167623197
20775530 9 9367073207448192088
21033648 144 18411410705290322195
21033648 29 17561359604081416075
21388113 180 18411136982445062541
21585483 110 18411704287511373481
23522609 53 17387404852577818553
23559900 14 17414691457781454183
270888 7 18411703166751061012
2748736 6 18408891741088720784
2838139 119 18410576214318644646
3388396 114 18113900515362114889
3418910 222 16972231065436218640
3472631 163 18334577944779006711
3862424 121 14491621975688472549
393628 179 18187656773582455192
4112364 45 17917445253508733872
437795 96 18131075904731837821
445580 182 16056876914456772897
463206 1 10375861949105169456
4756326 101 16701761397139623613
5372103 7 18342747342555759077
54039377 194 8790889609864544528
5486654 36 9295293846056055119
56633871 153 10807929358487052609
6036956 94 18341324509710945589
6327066 14 18410294687934273364
6677587 24 17623615151385470559
7808743 9 18262233310014422538
7970288 3 9475712150437750644

> <PUBCHEM_SHAPE_MULTIPOLES>
568.1
17.92
4.42
1.91
2.73
1.36
0.34
-25.11
-3.44
-2.65
-0.88
3.02
0.09
1.85

> <PUBCHEM_SHAPE_SELFOVERLAP>
1155.469

> <PUBCHEM_SHAPE_VOLUME>
330.8

> <PUBCHEM_COORDINATE_TYPE>
2
5
10

$$$$

