4219
  -OEChem-06251223583D

 55 55  0     1  0  0  0  0  0999 V2000
   -1.2210   -0.2216    2.3773 O   0  0  0  0  0  0  0  0  0  0  0  0
    0.1751    3.2884   -0.5168 O   0  0  0  0  0  0  0  0  0  0  0  0
   -5.6624   -0.3104   -0.6466 O   0  0  0  0  0  0  0  0  0  0  0  0
   -5.1665    1.1312   -2.8831 O   0  0  0  0  0  0  0  0  0  0  0  0
   -0.5392    0.8949    0.4632 N   0  0  0  0  0  0  0  0  0  0  0  0
    1.9542    3.5201    0.9549 N   0  0  0  0  0  0  0  0  0  0  0  0
   -4.3386    1.2263   -1.7568 N   0  0  0  0  0  0  0  0  0  0  0  0
   -2.5932   -0.4332    0.4122 C   0  0  1  0  0  0  0  0  0  0  0  0
   -3.0481   -1.8277    0.8884 C   0  0  0  0  0  0  0  0  0  0  0  0
   -2.2546   -3.0116    0.2956 C   0  0  0  0  0  0  0  0  0  0  0  0
   -3.7450    0.5851    0.4871 C   0  0  0  0  0  0  0  0  0  0  0  0
   -1.3869    0.0820    1.1962 C   0  0  0  0  0  0  0  0  0  0  0  0
    0.6537    1.4815    1.0273 C   0  0  1  0  0  0  0  0  0  0  0  0
    1.8733    0.5635    0.8833 C   0  0  0  0  0  0  0  0  0  0  0  0
   -2.7880   -4.3667    0.7620 C   0  0  0  0  0  0  0  0  0  0  0  0
   -0.7766   -2.8821    0.6757 C   0  0  0  0  0  0  0  0  0  0  0  0
    2.3041    0.3216   -0.5701 C   0  0  0  0  0  0  0  0  0  0  0  0
   -4.6943    0.4461   -0.6865 C   0  0  0  0  0  0  0  0  0  0  0  0
    0.8713    2.8544    0.3987 C   0  0  0  0  0  0  0  0  0  0  0  0
    3.5312   -0.5526   -0.6436 C   0  0  0  0  0  0  0  0  0  0  0  0
    4.8008    0.0253   -0.6323 C   0  0  0  0  0  0  0  0  0  0  0  0
    3.3966   -1.9388   -0.7223 C   0  0  0  0  0  0  0  0  0  0  0  0
    2.3858    4.8229    0.5048 C   0  0  0  0  0  0  0  0  0  0  0  0
    5.9357   -0.7829   -0.7001 C   0  0  0  0  0  0  0  0  0  0  0  0
    4.5316   -2.7469   -0.7898 C   0  0  0  0  0  0  0  0  0  0  0  0
    5.8011   -2.1689   -0.7787 C   0  0  0  0  0  0  0  0  0  0  0  0
   -2.2877   -0.5249   -0.6395 H   0  0  0  0  0  0  0  0  0  0  0  0
   -3.0291   -1.8851    1.9844 H   0  0  0  0  0  0  0  0  0  0  0  0
   -4.0967   -1.9826    0.6061 H   0  0  0  0  0  0  0  0  0  0  0  0
   -2.3350   -2.9781   -0.7982 H   0  0  0  0  0  0  0  0  0  0  0  0
   -3.3551    1.6109    0.5027 H   0  0  0  0  0  0  0  0  0  0  0  0
   -4.3169    0.4645    1.4152 H   0  0  0  0  0  0  0  0  0  0  0  0
    0.4720    1.6451    2.0976 H   0  0  0  0  0  0  0  0  0  0  0  0
    1.6490   -0.4030    1.3549 H   0  0  0  0  0  0  0  0  0  0  0  0
    2.7196    0.9777    1.4453 H   0  0  0  0  0  0  0  0  0  0  0  0
   -0.7520    1.0797   -0.5131 H   0  0  0  0  0  0  0  0  0  0  0  0
   -2.7126   -4.4691    1.8498 H   0  0  0  0  0  0  0  0  0  0  0  0
   -3.8407   -4.4830    0.4835 H   0  0  0  0  0  0  0  0  0  0  0  0
   -2.2274   -5.1877    0.3026 H   0  0  0  0  0  0  0  0  0  0  0  0
   -0.2252   -3.7771    0.3648 H   0  0  0  0  0  0  0  0  0  0  0  0
   -0.2981   -2.0419    0.1665 H   0  0  0  0  0  0  0  0  0  0  0  0
   -0.6415   -2.7769    1.7569 H   0  0  0  0  0  0  0  0  0  0  0  0
    1.4899   -0.1478   -1.1364 H   0  0  0  0  0  0  0  0  0  0  0  0
    2.5136    1.2711   -1.0774 H   0  0  0  0  0  0  0  0  0  0  0  0
    2.4369    3.1167    1.7518 H   0  0  0  0  0  0  0  0  0  0  0  0
   -3.6141    1.9347   -1.7746 H   0  0  0  0  0  0  0  0  0  0  0  0
    4.9183    1.1039   -0.5690 H   0  0  0  0  0  0  0  0  0  0  0  0
    2.4130   -2.4008   -0.7297 H   0  0  0  0  0  0  0  0  0  0  0  0
    3.4673    4.8950    0.6411 H   0  0  0  0  0  0  0  0  0  0  0  0
    1.8869    5.5797    1.1150 H   0  0  0  0  0  0  0  0  0  0  0  0
    2.1300    4.9721   -0.5472 H   0  0  0  0  0  0  0  0  0  0  0  0
    6.9241   -0.3330   -0.6907 H   0  0  0  0  0  0  0  0  0  0  0  0
    4.4270   -3.8263   -0.8505 H   0  0  0  0  0  0  0  0  0  0  0  0
    6.6847   -2.7981   -0.8310 H   0  0  0  0  0  0  0  0  0  0  0  0
   -4.6722    0.4764   -3.4049 H   0  0  0  0  0  0  0  0  0  0  0  0
  1 12  2  0  0  0  0
  2 19  2  0  0  0  0
  3 18  2  0  0  0  0
  4  7  1  0  0  0  0
  4 55  1  0  0  0  0
  5 12  1  0  0  0  0
  5 13  1  0  0  0  0
  5 36  1  0  0  0  0
  6 19  1  0  0  0  0
  6 23  1  0  0  0  0
  6 45  1  0  0  0  0
  7 18  1  0  0  0  0
  7 46  1  0  0  0  0
  8  9  1  0  0  0  0
  8 11  1  0  0  0  0
  8 12  1  0  0  0  0
  8 27  1  0  0  0  0
  9 10  1  0  0  0  0
  9 28  1  0  0  0  0
  9 29  1  0  0  0  0
 10 15  1  0  0  0  0
 10 16  1  0  0  0  0
 10 30  1  0  0  0  0
 11 18  1  0  0  0  0
 11 31  1  0  0  0  0
 11 32  1  0  0  0  0
 13 14  1  0  0  0  0
 13 19  1  0  0  0  0
 13 33  1  0  0  0  0
 14 17  1  0  0  0  0
 14 34  1  0  0  0  0
 14 35  1  0  0  0  0
 15 37  1  0  0  0  0
 15 38  1  0  0  0  0
 15 39  1  0  0  0  0
 16 40  1  0  0  0  0
 16 41  1  0  0  0  0
 16 42  1  0  0  0  0
 17 20  1  0  0  0  0
 17 43  1  0  0  0  0
 17 44  1  0  0  0  0
 20 21  2  0  0  0  0
 20 22  1  0  0  0  0
 21 24  1  0  0  0  0
 21 47  1  0  0  0  0
 22 25  2  0  0  0  0
 22 48  1  0  0  0  0
 23 49  1  0  0  0  0
 23 50  1  0  0  0  0
 23 51  1  0  0  0  0
 24 26  2  0  0  0  0
 24 52  1  0  0  0  0
 25 26  1  0  0  0  0
 25 53  1  0  0  0  0
 26 54  1  0  0  0  0
M  END
> <PUBCHEM_COMPOUND_CID>
4219

> <PUBCHEM_CONFORMER_RMSD>
1.4

> <PUBCHEM_CONFORMER_DIVERSEORDER>
1
45
47
43
90
12
122
55
65
130
56
27
114
81
62
96
103
54
40
110
17
70
112
82
80
118
33
46
100
99
44
36
32
59
6
22
14
91
119
94
120
73
66
30
8
61
11
16
95
125
50
121
2
5
87
64
84
126
102
67
131
134
75
106
97
35
42
109
111
92
13
21
53
104
98
29
132
78
63
24
52
116
18
57
88
107
58
115
86
37
108
79
41
39
76
117
124
69
19
71
31
128
89
48
23
68
133
113
25
20
77
7
101
15
93
38
60
3
129
123
85
10
51
28
49
4
34
127
26
83
105
72
9
74

> <PUBCHEM_MMFF94_PARTIAL_CHARGES>
30
1 -0.57
11 0.06
12 0.57
13 0.36
17 0.14
18 0.57
19 0.57
2 -0.57
20 -0.14
21 -0.15
22 -0.15
23 0.3
24 -0.15
25 -0.15
26 -0.15
3 -0.57
36 0.37
4 -0.44
45 0.37
46 0.37
47 0.15
48 0.15
5 -0.73
52 0.15
53 0.15
54 0.15
55 0.4
6 -0.73
7 -0.39
8 0.06

> <PUBCHEM_EFFECTIVE_ROTOR_COUNT>
13

> <PUBCHEM_PHARMACOPHORE_FEATURES>
9
1 1 acceptor
1 2 acceptor
1 3 acceptor
1 5 donor
1 6 donor
1 7 donor
3 10 15 16 hydrophobe
4 8 9 10 11 hydrophobe
6 20 21 22 24 25 26 rings

> <PUBCHEM_HEAVY_ATOM_COUNT>
26

> <PUBCHEM_ATOM_DEF_STEREO_COUNT>
0

> <PUBCHEM_ATOM_UDEF_STEREO_COUNT>
2

> <PUBCHEM_BOND_DEF_STEREO_COUNT>
0

> <PUBCHEM_BOND_UDEF_STEREO_COUNT>
0

> <PUBCHEM_ISOTOPIC_ATOM_COUNT>
0

> <PUBCHEM_COMPONENT_COUNT>
1

> <PUBCHEM_CACTVS_TAUTO_COUNT>
12

> <PUBCHEM_CONFORMER_ID>
0000107B00000001

> <PUBCHEM_MMFF94_ENERGY>
52.5621

> <PUBCHEM_FEATURE_SELFOVERLAP>
45.694

> <PUBCHEM_SHAPE_FINGERPRINT>
10483366 6 18196096770780969093
11621639 336 17543065041073140897
12553582 1 18046312410600016026
12555020 224 18409728499676146631
12596602 18 13768216029564886982
12788726 201 18124036986230430146
13944108 23 17410235206000539565
15183329 4 18129381664654922575
17913733 40 10519985967507055476
19958102 18 18056758956285250542
20600515 1 18043223890837688872
20775438 99 18048348585659399823
21315764 371 15140967278831804742
23559900 14 18334577884955530296
255183 313 17539103461590399104
3004659 81 18201151135808794822
3027735 51 17975973490084671534
312425 83 17845365561964288100
339767 52 18335137618353421570
3729539 64 18268996564877270575
4015057 19 18334858294553679825
4280585 95 18410858759391006778
46194498 28 18057038012994718093
463206 1 18339909494391049114
5283173 99 18128817624117931692
613672 6 18334855052454790226
7399639 24 17545601154403051297
9709674 26 18192997015431655387

> <PUBCHEM_SHAPE_MULTIPOLES>
496.65
12.18
5.2
1.56
3.05
2.2
-0.57
-5.84
-6.96
1.91
1.19
-2.13
0.44
3.07

> <PUBCHEM_SHAPE_SELFOVERLAP>
993.241

> <PUBCHEM_SHAPE_VOLUME>
291.6

> <PUBCHEM_COORDINATE_TYPE>
2
5
10

$$$$

