46174023
  -OEChem-07051213112D

 46 47  0     1  0  0  0  0  0999 V2000
    6.0010    1.4050    0.0000 O   0  0  0  0  0  0  0  0  0  0  0  0
    6.8671   -0.0950    0.0000 O   0  0  0  0  0  0  0  0  0  0  0  0
    6.0010   -0.5950    0.0000 O   0  0  0  0  0  0  0  0  0  0  0  0
    4.2690   -1.5950    0.0000 O   0  0  0  0  0  0  0  0  0  0  0  0
    2.5369   -0.5950    0.0000 O   0  0  0  0  0  0  0  0  0  0  0  0
    9.4651    1.4050    0.0000 O   0  0  0  0  0  0  0  0  0  0  0  0
    9.4651   -0.5950    0.0000 O   0  0  0  0  0  0  0  0  0  0  0  0
    8.5991   -2.0950    0.0000 O   0  0  0  0  0  0  0  0  0  0  0  0
    4.2690    2.4050    0.0000 N   0  0  0  0  0  0  0  0  0  0  0  0
    7.7331    2.4050    0.0000 N   0  0  0  0  0  0  0  0  0  0  0  0
    5.1350    0.9050    0.0000 C   0  0  2  0  0  0  0  0  0  0  0  0
    4.2690    1.4050    0.0000 C   0  0  2  0  0  0  0  0  0  0  0  0
    5.1350   -0.0950    0.0000 C   0  0  1  0  0  0  0  0  0  0  0  0
    4.2690   -0.5950    0.0000 C   0  0  2  0  0  0  0  0  0  0  0  0
    3.4030    0.9050    0.0000 C   0  0  0  0  0  0  0  0  0  0  0  0
    3.4030   -0.0950    0.0000 C   0  0  1  0  0  0  0  0  0  0  0  0
    6.8671    0.9050    0.0000 C   0  0  1  0  0  0  0  0  0  0  0  0
    7.7331    1.4050    0.0000 C   0  0  1  0  0  0  0  0  0  0  0  0
    8.5991    0.9050    0.0000 C   0  0  2  0  0  0  0  0  0  0  0  0
    8.5991   -0.0950    0.0000 C   0  0  1  0  0  0  0  0  0  0  0  0
    7.7331   -0.5950    0.0000 C   0  0  1  0  0  0  0  0  0  0  0  0
    7.7331   -1.5950    0.0000 C   0  0  0  0  0  0  0  0  0  0  0  0
    5.1350    1.5250    0.0000 H   0  0  0  0  0  0  0  0  0  0  0  0
    4.8059    1.7150    0.0000 H   0  0  0  0  0  0  0  0  0  0  0  0
    5.1350   -0.7150    0.0000 H   0  0  0  0  0  0  0  0  0  0  0  0
    4.8059   -0.9050    0.0000 H   0  0  0  0  0  0  0  0  0  0  0  0
    3.1909    1.4876    0.0000 H   0  0  0  0  0  0  0  0  0  0  0  0
    2.7924    0.7973    0.0000 H   0  0  0  0  0  0  0  0  0  0  0  0
    3.4030   -0.7150    0.0000 H   0  0  0  0  0  0  0  0  0  0  0  0
    6.3301    0.5950    0.0000 H   0  0  0  0  0  0  0  0  0  0  0  0
    8.2700    1.7150    0.0000 H   0  0  0  0  0  0  0  0  0  0  0  0
    8.5991    1.5250    0.0000 H   0  0  0  0  0  0  0  0  0  0  0  0
    8.5991   -0.7150    0.0000 H   0  0  0  0  0  0  0  0  0  0  0  0
    7.1962   -0.9050    0.0000 H   0  0  0  0  0  0  0  0  0  0  0  0
    3.7320    2.7150    0.0000 H   0  0  0  0  0  0  0  0  0  0  0  0
    4.8059    2.7150    0.0000 H   0  0  0  0  0  0  0  0  0  0  0  0
    7.1225   -1.4873    0.0000 H   0  0  0  0  0  0  0  0  0  0  0  0
    7.5210   -2.1776    0.0000 H   0  0  0  0  0  0  0  0  0  0  0  0
    6.0010   -1.2150    0.0000 H   0  0  0  0  0  0  0  0  0  0  0  0
    8.2700    2.7150    0.0000 H   0  0  0  0  0  0  0  0  0  0  0  0
    7.1962    2.7150    0.0000 H   0  0  0  0  0  0  0  0  0  0  0  0
    3.7320   -1.9050    0.0000 H   0  0  0  0  0  0  0  0  0  0  0  0
    2.0000   -0.2850    0.0000 H   0  0  0  0  0  0  0  0  0  0  0  0
   10.0021    1.0950    0.0000 H   0  0  0  0  0  0  0  0  0  0  0  0
   10.0021   -0.2850    0.0000 H   0  0  0  0  0  0  0  0  0  0  0  0
    8.5991   -2.7150    0.0000 H   0  0  0  0  0  0  0  0  0  0  0  0
 11  1  1  1  0  0  0
 17  1  1  6  0  0  0
  2 17  1  0  0  0  0
  2 21  1  0  0  0  0
 13  3  1  6  0  0  0
  3 39  1  0  0  0  0
 14  4  1  1  0  0  0
  4 42  1  0  0  0  0
 16  5  1  6  0  0  0
  5 43  1  0  0  0  0
 19  6  1  1  0  0  0
  6 44  1  0  0  0  0
 20  7  1  6  0  0  0
  7 45  1  0  0  0  0
  8 22  1  0  0  0  0
  8 46  1  0  0  0  0
 12  9  1  6  0  0  0
  9 35  1  0  0  0  0
  9 36  1  0  0  0  0
 18 10  1  6  0  0  0
 10 40  1  0  0  0  0
 10 41  1  0  0  0  0
 11 12  1  0  0  0  0
 11 13  1  0  0  0  0
 11 23  1  0  0  0  0
 12 15  1  0  0  0  0
 12 24  1  0  0  0  0
 13 14  1  0  0  0  0
 13 25  1  0  0  0  0
 14 16  1  0  0  0  0
 14 26  1  0  0  0  0
 15 16  1  0  0  0  0
 15 27  1  0  0  0  0
 15 28  1  0  0  0  0
 16 29  1  0  0  0  0
 17 18  1  0  0  0  0
 17 30  1  0  0  0  0
 18 19  1  0  0  0  0
 18 31  1  0  0  0  0
 19 20  1  0  0  0  0
 19 32  1  0  0  0  0
 20 21  1  0  0  0  0
 20 33  1  0  0  0  0
 21 22  1  1  0  0  0
 21 34  1  0  0  0  0
 22 37  1  0  0  0  0
 22 38  1  0  0  0  0
M  END
> <PUBCHEM_COMPOUND_CID>
46174023

> <PUBCHEM_COMPOUND_CANONICALIZED>
1

> <PUBCHEM_CACTVS_COMPLEXITY>
375

> <PUBCHEM_CACTVS_HBOND_ACCEPTOR>
10

> <PUBCHEM_CACTVS_HBOND_DONOR>
8

> <PUBCHEM_CACTVS_ROTATABLE_BOND>
3

> <PUBCHEM_CACTVS_SUBSKEYS>
AAADceBzPAAAAAAAAAAAAAAAAAAAAAAAAAA0QAAAAAAAAAAAAAAAHgAQCAAACDzxgAcACABABgAAAAAAAAAAAAAAAAAAAIAAAAATEAIAgAAjQAAHEAAHAAHwcA0AAAAAAAAAAAACgAAUAACgAAAAAAAAAA==

> <PUBCHEM_IUPAC_OPENEYE_NAME>
(1R,2S,3R,4R,5S)-5-amino-4-[(2S,3R,4R,5S,6R)-3-amino-4,5-dihydroxy-6-(hydroxymethyl)tetrahydropyran-2-yl]oxy-cyclohexane-1,2,3-triol

> <PUBCHEM_IUPAC_CAS_NAME>
(1R,2S,3R,4R,5S)-5-amino-4-[[(2S,3R,4R,5S,6R)-3-amino-4,5-dihydroxy-6-(hydroxymethyl)-2-oxanyl]oxy]cyclohexane-1,2,3-triol

> <PUBCHEM_IUPAC_NAME>
(1R,2S,3R,4R,5S)-5-amino-4-[(2S,3R,4R,5S,6R)-3-amino-4,5-dihydroxy-6-(hydroxymethyl)oxan-2-yl]oxycyclohexane-1,2,3-triol

> <PUBCHEM_IUPAC_SYSTEMATIC_NAME>
(1R,2S,3R,4R,5S)-5-azanyl-4-[(2S,3R,4R,5S,6R)-3-azanyl-6-(hydroxymethyl)-4,5-bis(oxidanyl)oxan-2-yl]oxy-cyclohexane-1,2,3-triol

> <PUBCHEM_IUPAC_TRADITIONAL_NAME>
(1R,2S,3R,4R,5S)-5-amino-4-[(2S,3R,4R,5S,6R)-3-amino-4,5-dihydroxy-6-methylol-tetrahydropyran-2-yl]oxy-cyclohexane-1,2,3-triol

> <PUBCHEM_IUPAC_INCHI>
InChI=1S/C12H24N2O8/c13-3-1-4(16)7(17)10(20)11(3)22-12-6(14)9(19)8(18)5(2-15)21-12/h3-12,15-20H,1-2,13-14H2/t3-,4+,5+,6+,7-,8+,9+,10+,11+,12+/m0/s1

> <PUBCHEM_IUPAC_INCHIKEY>
NMTZMCPTENZRBY-KXJULSOVSA-N

> <PUBCHEM_XLOGP3_AA>
-4.8

> <PUBCHEM_EXACT_MASS>
324.153266

> <PUBCHEM_MOLECULAR_FORMULA>
C12H24N2O8

> <PUBCHEM_MOLECULAR_WEIGHT>
324.32756

> <PUBCHEM_OPENEYE_CAN_SMILES>
C1C(C(C(C(C1O)O)O)OC2C(C(C(C(O2)CO)O)O)N)N

> <PUBCHEM_OPENEYE_ISO_SMILES>
C1[C@@H]([C@H]([C@@H]([C@H]([C@@H]1O)O)O)O[C@@H]2[C@@H]([C@H]([C@@H]([C@H](O2)CO)O)O)N)N

> <PUBCHEM_CACTVS_TPSA>
192

> <PUBCHEM_MONOISOTOPIC_WEIGHT>
324.153266

> <PUBCHEM_TOTAL_CHARGE>
0

> <PUBCHEM_HEAVY_ATOM_COUNT>
22

> <PUBCHEM_ATOM_DEF_STEREO_COUNT>
10

> <PUBCHEM_ATOM_UDEF_STEREO_COUNT>
0

> <PUBCHEM_BOND_DEF_STEREO_COUNT>
0

> <PUBCHEM_BOND_UDEF_STEREO_COUNT>
0

> <PUBCHEM_ISOTOPIC_ATOM_COUNT>
0

> <PUBCHEM_COMPONENT_COUNT>
1

> <PUBCHEM_CACTVS_TAUTO_COUNT>
1

> <PUBCHEM_COORDINATE_TYPE>
1
5
255

> <PUBCHEM_BONDANNOTATIONS>
11  1  5
17  1  6
18  10  6
21  22  5
13  3  6
14  4  5
16  5  6
19  6  5
20  7  6
12  9  6

$$$$

