441204
  -OEChem-07051213042D

 62 62  0     1  0  0  0  0  0999 V2000
    1.4030    5.8100    0.0000 Cl  0  0  0  0  0  0  0  0  0  0  0  0
    3.8886   10.4344    0.0000 Cl  0  0  0  0  0  0  0  0  0  0  0  0
    4.0010    1.3100    0.0000 S   0  0  0  0  0  0  0  0  0  0  0  0
    3.1350    2.8100    0.0000 O   0  0  0  0  0  0  0  0  0  0  0  0
    0.5369    3.3100    0.0000 O   0  0  0  0  0  0  0  0  0  0  0  0
    0.5369    1.3100    0.0000 O   0  0  0  0  0  0  0  0  0  0  0  0
    2.2690    0.3100    0.0000 O   0  0  0  0  0  0  0  0  0  0  0  0
    2.2690    6.3100    0.0000 O   0  0  0  0  0  0  0  0  0  0  0  0
    4.1056    7.3045    0.0000 N   0  0  3  0  0  0  0  0  0  0  0  0
    3.1350    4.8100    0.0000 N   0  0  0  0  0  0  0  0  0  0  0  0
    5.5837    6.6464    0.0000 C   0  0  2  0  0  0  0  0  0  0  0  0
    4.0010    6.3100    0.0000 C   0  0  1  0  0  0  0  0  0  0  0  0
    4.9146    5.9033    0.0000 C   0  0  0  0  0  0  0  0  0  0  0  0
    5.0837    7.5124    0.0000 C   0  0  0  0  0  0  0  0  0  0  0  0
    2.2690    3.3100    0.0000 C   0  0  2  0  0  0  0  0  0  0  0  0
    2.2690    4.3100    0.0000 C   0  0  3  0  0  0  0  0  0  0  0  0
    1.4030    2.8100    0.0000 C   0  0  1  0  0  0  0  0  0  0  0  0
    6.5782    6.5419    0.0000 C   0  0  0  0  0  0  0  0  0  0  0  0
    1.4030    1.8100    0.0000 C   0  0  1  0  0  0  0  0  0  0  0  0
    3.1350    5.8100    0.0000 C   0  0  0  0  0  0  0  0  0  0  0  0
    2.2690    1.3100    0.0000 C   0  0  2  0  0  0  0  0  0  0  0  0
    3.1350    1.8100    0.0000 C   0  0  1  0  0  0  0  0  0  0  0  0
    1.4030    4.8100    0.0000 C   0  0  3  0  0  0  0  0  0  0  0  0
    3.3624    7.9736    0.0000 C   0  0  0  0  0  0  0  0  0  0  0  0
    7.1660    7.3509    0.0000 C   0  0  0  0  0  0  0  0  0  0  0  0
    0.5369    4.3100    0.0000 C   0  0  0  0  0  0  0  0  0  0  0  0
    8.1605    7.2464    0.0000 C   0  0  0  0  0  0  0  0  0  0  0  0
    4.8671    1.8100    0.0000 C   0  0  0  0  0  0  0  0  0  0  0  0
    5.8059    6.0676    0.0000 H   0  0  0  0  0  0  0  0  0  0  0  0
    3.4811    6.6477    0.0000 H   0  0  0  0  0  0  0  0  0  0  0  0
    4.6046    5.3663    0.0000 H   0  0  0  0  0  0  0  0  0  0  0  0
    5.4162    5.5388    0.0000 H   0  0  0  0  0  0  0  0  0  0  0  0
    5.6501    7.7646    0.0000 H   0  0  0  0  0  0  0  0  0  0  0  0
    4.8921    8.1021    0.0000 H   0  0  0  0  0  0  0  0  0  0  0  0
    2.8059    3.6200    0.0000 H   0  0  0  0  0  0  0  0  0  0  0  0
    2.2690    5.1600    0.0000 H   0  0  0  0  0  0  0  0  0  0  0  0
    1.4030    3.4300    0.0000 H   0  0  0  0  0  0  0  0  0  0  0  0
    6.4073    5.9459    0.0000 H   0  0  0  0  0  0  0  0  0  0  0  0
    7.1355    6.2701    0.0000 H   0  0  0  0  0  0  0  0  0  0  0  0
    1.4030    1.1900    0.0000 H   0  0  0  0  0  0  0  0  0  0  0  0
    2.8059    1.0000    0.0000 H   0  0  0  0  0  0  0  0  0  0  0  0
    3.6720    4.5000    0.0000 H   0  0  0  0  0  0  0  0  0  0  0  0
    3.1350    1.1900    0.0000 H   0  0  0  0  0  0  0  0  0  0  0  0
    2.1391    5.2350    0.0000 H   0  0  0  0  0  0  0  0  0  0  0  0
    3.7773    8.4344    0.0000 H   0  0  0  0  0  0  0  0  0  0  0  0
    2.9017    8.3885    0.0000 H   0  0  0  0  0  0  0  0  0  0  0  0
    2.9476    7.5129    0.0000 H   0  0  0  0  0  0  0  0  0  0  0  0
    7.3369    7.9469    0.0000 H   0  0  0  0  0  0  0  0  0  0  0  0
    6.6088    7.6227    0.0000 H   0  0  0  0  0  0  0  0  0  0  0  0
    0.2269    4.8469    0.0000 H   0  0  0  0  0  0  0  0  0  0  0  0
    0.0000    4.0000    0.0000 H   0  0  0  0  0  0  0  0  0  0  0  0
    0.8469    3.7731    0.0000 H   0  0  0  0  0  0  0  0  0  0  0  0
    0.0000    3.0000    0.0000 H   0  0  0  0  0  0  0  0  0  0  0  0
    0.5369    0.6900    0.0000 H   0  0  0  0  0  0  0  0  0  0  0  0
    8.0957    6.6298    0.0000 H   0  0  0  0  0  0  0  0  0  0  0  0
    8.7772    7.1816    0.0000 H   0  0  0  0  0  0  0  0  0  0  0  0
    8.2254    7.8630    0.0000 H   0  0  0  0  0  0  0  0  0  0  0  0
    2.8059    0.0000    0.0000 H   0  0  0  0  0  0  0  0  0  0  0  0
    5.1771    1.2731    0.0000 H   0  0  0  0  0  0  0  0  0  0  0  0
    5.4040    2.1200    0.0000 H   0  0  0  0  0  0  0  0  0  0  0  0
    4.5571    2.3469    0.0000 H   0  0  0  0  0  0  0  0  0  0  0  0
    4.8886   10.4344    0.0000 H   0  0  0  0  0  0  0  0  0  0  0  0
  1 23  1  0  0  0  0
  2 62  1  0  0  0  0
 22  3  1  6  0  0  0
  3 28  1  0  0  0  0
  4 15  1  0  0  0  0
  4 22  1  0  0  0  0
 17  5  1  1  0  0  0
  5 53  1  0  0  0  0
 19  6  1  1  0  0  0
  6 54  1  0  0  0  0
 21  7  1  6  0  0  0
  7 58  1  0  0  0  0
  8 20  2  0  0  0  0
  9 12  1  0  0  0  0
  9 14  1  0  0  0  0
  9 24  1  0  0  0  0
 10 16  1  0  0  0  0
 10 20  1  0  0  0  0
 10 42  1  0  0  0  0
 11 13  1  0  0  0  0
 11 14  1  0  0  0  0
 11 18  1  6  0  0  0
 11 29  1  0  0  0  0
 12 13  1  0  0  0  0
 12 20  1  1  0  0  0
 12 30  1  0  0  0  0
 13 31  1  0  0  0  0
 13 32  1  0  0  0  0
 14 33  1  0  0  0  0
 14 34  1  0  0  0  0
 15 16  1  1  0  0  0
 15 17  1  0  0  0  0
 15 35  1  0  0  0  0
 16 23  1  0  0  0  0
 16 36  1  0  0  0  0
 17 19  1  0  0  0  0
 17 37  1  0  0  0  0
 18 25  1  0  0  0  0
 18 38  1  0  0  0  0
 18 39  1  0  0  0  0
 19 21  1  0  0  0  0
 19 40  1  0  0  0  0
 21 22  1  0  0  0  0
 21 41  1  0  0  0  0
 22 43  1  0  0  0  0
 23 26  1  0  0  0  0
 23 44  1  0  0  0  0
 24 45  1  0  0  0  0
 24 46  1  0  0  0  0
 24 47  1  0  0  0  0
 25 27  1  0  0  0  0
 25 48  1  0  0  0  0
 25 49  1  0  0  0  0
 26 50  1  0  0  0  0
 26 51  1  0  0  0  0
 26 52  1  0  0  0  0
 27 55  1  0  0  0  0
 27 56  1  0  0  0  0
 27 57  1  0  0  0  0
 28 59  1  0  0  0  0
 28 60  1  0  0  0  0
 28 61  1  0  0  0  0
M  END
> <PUBCHEM_COMPOUND_CID>
441204

> <PUBCHEM_COMPOUND_CANONICALIZED>
1

> <PUBCHEM_CACTVS_COMPLEXITY>
502

> <PUBCHEM_CACTVS_HBOND_ACCEPTOR>
7

> <PUBCHEM_CACTVS_HBOND_DONOR>
5

> <PUBCHEM_CACTVS_ROTATABLE_BOND>
7

> <PUBCHEM_CACTVS_SUBSKEYS>
AAADcfB7OABGAAAAAAAAAAAAAAAAAWAAAAAkAAAAAAAAAAAAAAAAHgYQCAAADT/lwEaCAAPABggIAAEQEAAAAAAAABAAAIGIAgADUBIhgCBXQAAHFgCTAAH42aOOAAAAAAAAAAAAAAAAAAAAAAAAAAAAAA==

> <PUBCHEM_IUPAC_OPENEYE_NAME>
(2S,4R)-N-[2-chloro-1-[(2R,3R,4S,5R,6R)-3,4,5-trihydroxy-6-methylsulfanyl-tetrahydropyran-2-yl]propyl]-1-methyl-4-propyl-pyrrolidine-2-carboxamide hydrochloride

> <PUBCHEM_IUPAC_CAS_NAME>
(2S,4R)-N-[2-chloro-1-[(2R,3R,4S,5R,6R)-3,4,5-trihydroxy-6-(methylthio)-2-oxanyl]propyl]-1-methyl-4-propyl-2-pyrrolidinecarboxamide hydrochloride

> <PUBCHEM_IUPAC_NAME>
(2S,4R)-N-[2-chloro-1-[(2R,3R,4S,5R,6R)-3,4,5-trihydroxy-6-methylsulfanyloxan-2-yl]propyl]-1-methyl-4-propylpyrrolidine-2-carboxamide hydrochloride

> <PUBCHEM_IUPAC_SYSTEMATIC_NAME>
(2S,4R)-N-[2-chloranyl-1-[(2R,3R,4S,5R,6R)-6-methylsulfanyl-3,4,5-tris(oxidanyl)oxan-2-yl]propyl]-1-methyl-4-propyl-pyrrolidine-2-carboxamide hydrochloride

> <PUBCHEM_IUPAC_TRADITIONAL_NAME>
(2S,4R)-N-[2-chloro-1-[(2R,3R,4S,5R,6R)-3,4,5-trihydroxy-6-(methylthio)tetrahydropyran-2-yl]propyl]-1-methyl-4-propyl-pyrrolidine-2-carboxamide hydrochloride

> <PUBCHEM_IUPAC_INCHI>
InChI=1S/C18H33ClN2O5S.ClH/c1-5-6-10-7-11(21(3)8-10)17(25)20-12(9(2)19)16-14(23)13(22)15(24)18(26-16)27-4;/h9-16,18,22-24H,5-8H2,1-4H3,(H,20,25);1H/t9?,10-,11+,12?,13+,14-,15-,16-,18-;/m1./s1

> <PUBCHEM_IUPAC_INCHIKEY>
AUODDLQVRAJAJM-GQYOKNPUSA-N

> <PUBCHEM_EXACT_MASS>
460.156549

> <PUBCHEM_MOLECULAR_FORMULA>
C18H34Cl2N2O5S

> <PUBCHEM_MOLECULAR_WEIGHT>
461.44396

> <PUBCHEM_OPENEYE_CAN_SMILES>
CCCC1CC(N(C1)C)C(=O)NC(C2C(C(C(C(O2)SC)O)O)O)C(C)Cl.Cl

> <PUBCHEM_OPENEYE_ISO_SMILES>
CCC[C@@H]1C[C@H](N(C1)C)C(=O)NC([C@@H]2[C@@H]([C@@H]([C@H]([C@H](O2)SC)O)O)O)C(C)Cl.Cl

> <PUBCHEM_CACTVS_TPSA>
128

> <PUBCHEM_MONOISOTOPIC_WEIGHT>
460.156549

> <PUBCHEM_TOTAL_CHARGE>
0

> <PUBCHEM_HEAVY_ATOM_COUNT>
28

> <PUBCHEM_ATOM_DEF_STEREO_COUNT>
7

> <PUBCHEM_ATOM_UDEF_STEREO_COUNT>
2

> <PUBCHEM_BOND_DEF_STEREO_COUNT>
0

> <PUBCHEM_BOND_UDEF_STEREO_COUNT>
0

> <PUBCHEM_ISOTOPIC_ATOM_COUNT>
0

> <PUBCHEM_COMPONENT_COUNT>
2

> <PUBCHEM_CACTVS_TAUTO_COUNT>
2

> <PUBCHEM_COORDINATE_TYPE>
1
5
255

> <PUBCHEM_BONDANNOTATIONS>
11  18  6
12  20  5
15  16  5
16  36  3
23  44  3
22  3  6
17  5  5
19  6  5
21  7  6

$$$$

