441319
  -OEChem-07051212543D

 27 29  0     1  0  0  0  0  0999 V2000
    1.6133   -1.6883   -1.1013 O   0  0  0  0  0  0  0  0  0  0  0  0
    3.9050   -1.1384    0.1107 O   0  0  0  0  0  0  0  0  0  0  0  0
    0.3607   -0.0861    0.0668 C   0  0  0  0  0  0  0  0  0  0  0  0
    1.4731   -1.0692    0.1781 C   0  0  2  0  0  0  0  0  0  0  0  0
    0.5401    1.2394   -0.0732 C   0  0  0  0  0  0  0  0  0  0  0  0
   -0.7510    2.0050   -0.1761 C   0  0  0  0  0  0  0  0  0  0  0  0
   -1.0707   -0.3439    0.0845 C   0  0  0  0  0  0  0  0  0  0  0  0
   -1.7435    0.8827   -0.0589 C   0  0  0  0  0  0  0  0  0  0  0  0
    2.8014   -0.3793    0.5967 C   0  0  2  0  0  0  0  0  0  0  0  0
    1.8535    1.8138   -0.1479 C   0  0  0  0  0  0  0  0  0  0  0  0
    2.9269    1.0653    0.1558 C   0  0  0  0  0  0  0  0  0  0  0  0
   -1.7736   -1.5299    0.2084 C   0  0  0  0  0  0  0  0  0  0  0  0
   -3.1255    0.9476   -0.0793 C   0  0  0  0  0  0  0  0  0  0  0  0
   -3.1700   -1.4732    0.1890 C   0  0  0  0  0  0  0  0  0  0  0  0
   -3.8397   -0.2457    0.0467 C   0  0  0  0  0  0  0  0  0  0  0  0
    1.2472   -1.8595    0.9031 H   0  0  0  0  0  0  0  0  0  0  0  0
   -0.8421    2.5105   -1.1423 H   0  0  0  0  0  0  0  0  0  0  0  0
   -0.8622    2.7151    0.6488 H   0  0  0  0  0  0  0  0  0  0  0  0
    2.8702   -0.3749    1.6924 H   0  0  0  0  0  0  0  0  0  0  0  0
    1.9591    2.8529   -0.4372 H   0  0  0  0  0  0  0  0  0  0  0  0
    3.9160    1.5133    0.1298 H   0  0  0  0  0  0  0  0  0  0  0  0
   -1.2668   -2.4825    0.3181 H   0  0  0  0  0  0  0  0  0  0  0  0
   -3.6435    1.8938   -0.1898 H   0  0  0  0  0  0  0  0  0  0  0  0
    0.8065   -2.2036   -1.2734 H   0  0  0  0  0  0  0  0  0  0  0  0
   -3.7469   -2.3893    0.2848 H   0  0  0  0  0  0  0  0  0  0  0  0
   -4.9263   -0.2270    0.0342 H   0  0  0  0  0  0  0  0  0  0  0  0
    3.7971   -2.0494    0.4336 H   0  0  0  0  0  0  0  0  0  0  0  0
  1  4  1  0  0  0  0
  1 24  1  0  0  0  0
  2  9  1  0  0  0  0
  2 27  1  0  0  0  0
  3  4  1  0  0  0  0
  3  5  2  0  0  0  0
  3  7  1  0  0  0  0
  4  9  1  0  0  0  0
  4 16  1  0  0  0  0
  5  6  1  0  0  0  0
  5 10  1  0  0  0  0
  6  8  1  0  0  0  0
  6 17  1  0  0  0  0
  6 18  1  0  0  0  0
  7  8  1  0  0  0  0
  7 12  2  0  0  0  0
  8 13  2  0  0  0  0
  9 11  1  0  0  0  0
  9 19  1  0  0  0  0
 10 11  2  0  0  0  0
 10 20  1  0  0  0  0
 11 21  1  0  0  0  0
 12 14  1  0  0  0  0
 12 22  1  0  0  0  0
 13 15  1  0  0  0  0
 13 23  1  0  0  0  0
 14 15  2  0  0  0  0
 14 25  1  0  0  0  0
 15 26  1  0  0  0  0
M  END
> <PUBCHEM_COMPOUND_CID>
441319

> <PUBCHEM_CONFORMER_RMSD>
0.4

> <PUBCHEM_CONFORMER_DIVERSEORDER>
1
2

> <PUBCHEM_MMFF94_PARTIAL_CHARGES>
23
1 -0.68
10 -0.15
11 -0.29
12 -0.15
13 -0.15
14 -0.15
15 -0.15
2 -0.68
20 0.15
21 0.15
22 0.15
23 0.15
24 0.4
25 0.15
26 0.15
27 0.4
3 -0.17
4 0.42
5 -0.14
6 0.28
7 0.03
8 -0.14
9 0.42

> <PUBCHEM_EFFECTIVE_ROTOR_COUNT>
0.6

> <PUBCHEM_PHARMACOPHORE_FEATURES>
7
1 1 acceptor
1 1 donor
1 2 acceptor
1 2 donor
5 3 5 6 7 8 rings
6 3 4 5 9 10 11 rings
6 7 8 12 13 14 15 rings

> <PUBCHEM_HEAVY_ATOM_COUNT>
15

> <PUBCHEM_ATOM_DEF_STEREO_COUNT>
2

> <PUBCHEM_ATOM_UDEF_STEREO_COUNT>
0

> <PUBCHEM_BOND_DEF_STEREO_COUNT>
0

> <PUBCHEM_BOND_UDEF_STEREO_COUNT>
0

> <PUBCHEM_ISOTOPIC_ATOM_COUNT>
0

> <PUBCHEM_COMPONENT_COUNT>
1

> <PUBCHEM_CACTVS_TAUTO_COUNT>
1

> <PUBCHEM_CONFORMER_ID>
0006BBE700000001

> <PUBCHEM_MMFF94_ENERGY>
42.3759

> <PUBCHEM_FEATURE_SELFOVERLAP>
35.698

> <PUBCHEM_SHAPE_FINGERPRINT>
10608611 8 18411987944463020973
10967382 1 18267585702120953169
11132069 177 18410020909391264080
11471102 20 18411987935872735725
11769659 78 18412269402153880297
12032990 46 18412823577399471099
12251169 10 18411423899165877624
12382932 28 18408886226434530681
12932764 1 17346610689419892793
13140716 1 18411416198257854649
13296908 3 18342457010949671723
13380535 76 18410295770276691595
14115302 16 17418082226512093491
14144814 61 18410855438954116297
14325111 11 18412264999833806169
14790565 3 15956376432599177928
15196674 1 18411983542026174857
15219456 202 18410295795919790885
15375462 189 17988927824477126946
15442244 35 18411701023256535745
15536298 74 18336265661142528544
16945 1 18339641273181896325
17804303 29 18409165545443153560
17990270 104 18410291402268434894
18175812 5 18334580143992088094
18186145 218 17632584833441308091
200 152 18040727939576625021
20201158 50 18409730689929833667
20645477 70 18410860936691817695
20871998 22 18335695108812163238
21267235 1 18412255130072819563
21501502 16 18411697651891772557
21501925 9 18339652156576088689
221490 88 18270955726814148538
22721475 48 18410288133629498097
2334 1 18339922589360705713
23402539 116 18338249252785249495
23463225 33 18340769251821268220
23552423 10 18202000988859793849
23559900 14 18338241574027276386
2748010 2 18411983529178222269
335352 9 18267869560873156685
5104073 3 18411700967590714817
528886 8 18338241461672396017
69090 78 18408610253748840871
7364860 26 18336265626698692952
81228 2 18197203957125042945
84936 31 16371279060352573430
8809292 202 18272366464520061523
9709674 26 18410571760601589071

> <PUBCHEM_SHAPE_MULTIPOLES>
296.95
5.98
2.02
0.7
0.51
0.23
0.05
-1.32
-0.4
-0.25
0.17
-0.14
-0.11
0.18

> <PUBCHEM_SHAPE_SELFOVERLAP>
661.822

> <PUBCHEM_SHAPE_VOLUME>
159.8

> <PUBCHEM_COORDINATE_TYPE>
2
5
10

$$$$

