23663969
  -OEChem-07051213032D

 66 69  0     1  0  0  0  0  0999 V2000
    7.0468    0.8500    0.0000 S   0  0  0  0  0  0  0  0  0  0  0  0
    4.4487    2.3500    0.0000 S   0  0  0  0  0  0  0  0  0  0  0  0
    6.1808    5.3500    0.0000 Na  0  3  0  0  0  0  0  0  0  0  0  0
    9.6267    3.0627    0.0000 O   0  0  0  0  0  0  0  0  0  0  0  0
    6.1808    4.3500    0.0000 O   0  5  0  0  0  0  0  0  0  0  0  0
   10.8540    1.8595    0.0000 O   0  0  0  0  0  0  0  0  0  0  0  0
    7.9128    4.3500    0.0000 O   0  0  0  0  0  0  0  0  0  0  0  0
   12.7101   -1.2316    0.0000 O   0  0  0  0  0  0  0  0  0  0  0  0
   15.1647    1.2129    0.0000 O   0  0  0  0  0  0  0  0  0  0  0  0
    9.8108   -2.0021    0.0000 O   0  0  0  0  0  0  0  0  0  0  0  0
    7.9128    2.3500    0.0000 N   0  0  0  0  0  0  0  0  0  0  0  0
    9.6267    0.6373    0.0000 N   0  0  0  0  0  0  0  0  0  0  0  0
   11.0380   -0.7798    0.0000 N   0  0  0  0  0  0  0  0  0  0  0  0
    2.6691    2.4432    0.0000 N   0  0  0  0  0  0  0  0  0  0  0  0
    3.4782    3.8445    0.0000 N   0  0  0  0  0  0  0  0  0  0  0  0
    2.0000    3.1864    0.0000 N   0  0  0  0  0  0  0  0  0  0  0  0
   11.9277   -4.1278    0.0000 N   0  0  0  0  0  0  0  0  0  0  0  0
    2.5000    4.0524    0.0000 N   0  0  0  0  0  0  0  0  0  0  0  0
    7.9128    1.3500    0.0000 C   0  0  1  0  0  0  0  0  0  0  0  0
    8.9211    1.3458    0.0000 C   0  0  1  0  0  0  0  0  0  0  0  0
    8.9211    2.3541    0.0000 C   0  0  0  0  0  0  0  0  0  0  0  0
    7.0468    2.8500    0.0000 C   0  0  0  0  0  0  0  0  0  0  0  0
    6.1808    2.3500    0.0000 C   0  0  0  0  0  0  0  0  0  0  0  0
    6.1808    1.3500    0.0000 C   0  0  0  0  0  0  0  0  0  0  0  0
   10.5932    0.8941    0.0000 C   0  0  0  0  0  0  0  0  0  0  0  0
    5.3147    2.8500    0.0000 C   0  0  0  0  0  0  0  0  0  0  0  0
    7.0468    3.8500    0.0000 C   0  0  0  0  0  0  0  0  0  0  0  0
   11.2988    0.1855    0.0000 C   0  0  1  0  0  0  0  0  0  0  0  0
   12.2653    0.4424    0.0000 C   0  0  0  0  0  0  0  0  0  0  0  0
   12.9710   -0.2662    0.0000 C   0  0  0  0  0  0  0  0  0  0  0  0
   12.5261    1.4078    0.0000 C   0  0  0  0  0  0  0  0  0  0  0  0
   11.7437   -1.4884    0.0000 C   0  0  0  0  0  0  0  0  0  0  0  0
    3.5827    2.8500    0.0000 C   0  0  0  0  0  0  0  0  0  0  0  0
   13.9374   -0.0093    0.0000 C   0  0  0  0  0  0  0  0  0  0  0  0
   13.4926    1.6646    0.0000 C   0  0  0  0  0  0  0  0  0  0  0  0
   11.4829   -2.4538    0.0000 C   0  0  0  0  0  0  0  0  0  0  0  0
   14.1982    0.9560    0.0000 C   0  0  0  0  0  0  0  0  0  0  0  0
   10.5164   -2.7106    0.0000 C   0  0  0  0  0  0  0  0  0  0  0  0
   12.1885   -3.1624    0.0000 C   0  0  0  0  0  0  0  0  0  0  0  0
    2.4612    1.4651    0.0000 C   0  0  0  0  0  0  0  0  0  0  0  0
   10.2556   -3.6760    0.0000 C   0  0  0  0  0  0  0  0  0  0  0  0
   10.9613   -4.3846    0.0000 C   0  0  0  0  0  0  0  0  0  0  0  0
   10.7005   -5.3500    0.0000 C   0  0  0  0  0  0  0  0  0  0  0  0
    8.1311    0.5285    0.0000 H   0  0  0  0  0  0  0  0  0  0  0  0
    8.6821    0.7738    0.0000 H   0  0  0  0  0  0  0  0  0  0  0  0
    9.4650    0.0387    0.0000 H   0  0  0  0  0  0  0  0  0  0  0  0
    5.5702    1.4576    0.0000 H   0  0  0  0  0  0  0  0  0  0  0  0
    5.9687    0.7674    0.0000 H   0  0  0  0  0  0  0  0  0  0  0  0
    5.7133    3.3249    0.0000 H   0  0  0  0  0  0  0  0  0  0  0  0
    4.9162    3.3249    0.0000 H   0  0  0  0  0  0  0  0  0  0  0  0
   11.7363   -0.2538    0.0000 H   0  0  0  0  0  0  0  0  0  0  0  0
   10.4388   -0.9391    0.0000 H   0  0  0  0  0  0  0  0  0  0  0  0
   12.8093   -0.8647    0.0000 H   0  0  0  0  0  0  0  0  0  0  0  0
   12.0886    1.8471    0.0000 H   0  0  0  0  0  0  0  0  0  0  0  0
   14.3749   -0.4487    0.0000 H   0  0  0  0  0  0  0  0  0  0  0  0
   13.6543    2.2632    0.0000 H   0  0  0  0  0  0  0  0  0  0  0  0
   12.7877   -3.0031    0.0000 H   0  0  0  0  0  0  0  0  0  0  0  0
    1.8548    1.5940    0.0000 H   0  0  0  0  0  0  0  0  0  0  0  0
    2.3323    0.8586    0.0000 H   0  0  0  0  0  0  0  0  0  0  0  0
    3.0677    1.3362    0.0000 H   0  0  0  0  0  0  0  0  0  0  0  0
   12.3652   -4.5670    0.0000 H   0  0  0  0  0  0  0  0  0  0  0  0
    9.6564   -3.8353    0.0000 H   0  0  0  0  0  0  0  0  0  0  0  0
   15.3264    1.8114    0.0000 H   0  0  0  0  0  0  0  0  0  0  0  0
   10.1019   -5.1883    0.0000 H   0  0  0  0  0  0  0  0  0  0  0  0
   10.5388   -5.9485    0.0000 H   0  0  0  0  0  0  0  0  0  0  0  0
   11.2990   -5.5117    0.0000 H   0  0  0  0  0  0  0  0  0  0  0  0
  1 19  1  0  0  0  0
  1 24  1  0  0  0  0
  2 26  1  0  0  0  0
  2 33  1  0  0  0  0
  4 21  2  0  0  0  0
  5 27  1  0  0  0  0
  6 25  2  0  0  0  0
  7 27  2  0  0  0  0
  8 32  2  0  0  0  0
  9 37  1  0  0  0  0
  9 63  1  0  0  0  0
 10 38  2  0  0  0  0
 11 19  1  0  0  0  0
 11 21  1  0  0  0  0
 11 22  1  0  0  0  0
 20 12  1  1  0  0  0
 12 25  1  0  0  0  0
 12 46  1  0  0  0  0
 28 13  1  1  0  0  0
 13 32  1  0  0  0  0
 13 52  1  0  0  0  0
 14 16  1  0  0  0  0
 14 33  1  0  0  0  0
 14 40  1  0  0  0  0
 15 18  1  0  0  0  0
 15 33  2  0  0  0  0
 16 18  2  0  0  0  0
 17 39  1  0  0  0  0
 17 42  1  0  0  0  0
 17 61  1  0  0  0  0
 19 20  1  0  0  0  0
 19 44  1  6  0  0  0
 20 21  1  0  0  0  0
 20 45  1  0  0  0  0
 22 23  2  0  0  0  0
 22 27  1  0  0  0  0
 23 24  1  0  0  0  0
 23 26  1  0  0  0  0
 24 47  1  0  0  0  0
 24 48  1  0  0  0  0
 25 28  1  0  0  0  0
 26 49  1  0  0  0  0
 26 50  1  0  0  0  0
 28 29  1  0  0  0  0
 28 51  1  0  0  0  0
 29 30  2  0  0  0  0
 29 31  1  0  0  0  0
 30 34  1  0  0  0  0
 30 53  1  0  0  0  0
 31 35  2  0  0  0  0
 31 54  1  0  0  0  0
 32 36  1  0  0  0  0
 34 37  2  0  0  0  0
 34 55  1  0  0  0  0
 35 37  1  0  0  0  0
 35 56  1  0  0  0  0
 36 38  1  0  0  0  0
 36 39  2  0  0  0  0
 38 41  1  0  0  0  0
 39 57  1  0  0  0  0
 40 58  1  0  0  0  0
 40 59  1  0  0  0  0
 40 60  1  0  0  0  0
 41 42  2  0  0  0  0
 41 62  1  0  0  0  0
 42 43  1  0  0  0  0
 43 64  1  0  0  0  0
 43 65  1  0  0  0  0
 43 66  1  0  0  0  0
M  CHG  2   3   1   5  -1
M  END
> <PUBCHEM_COMPOUND_CID>
23663969

> <PUBCHEM_COMPOUND_CANONICALIZED>
1

> <PUBCHEM_CACTVS_COMPLEXITY>
1270

> <PUBCHEM_CACTVS_HBOND_ACCEPTOR>
13

> <PUBCHEM_CACTVS_HBOND_DONOR>
4

> <PUBCHEM_CACTVS_ROTATABLE_BOND>
9

> <PUBCHEM_CACTVS_SUBSKEYS>
AAADceB7+CBgAAAAAAAAAAAAAABYAWAAAAAwQIAAAAAQAAABwAAAHgQYCAAADCzF2ASzHofIAgiqAqXWfACCEANgopANyIGODMiKZjqqlTOUcAhk1hG4mceY2IOOIAAAAAAAAABAAAAAAAAAAAAAAAAAAA==

> <PUBCHEM_IUPAC_OPENEYE_NAME>
sodium (6R,7R)-7-[[(2R)-2-(4-hydroxyphenyl)-2-[(6-methyl-4-oxo-1H-pyridine-3-carbonyl)amino]acetyl]amino]-3-[(1-methyltetrazol-5-yl)sulfanylmethyl]-8-oxo-5-thia-1-azabicyclo[4.2.0]oct-2-ene-2-carboxylate

> <PUBCHEM_IUPAC_CAS_NAME>
sodium (6R,7R)-7-[[(2R)-2-(4-hydroxyphenyl)-2-[[(6-methyl-4-oxo-1H-pyridin-3-yl)-oxomethyl]amino]-1-oxoethyl]amino]-3-[[(1-methyl-5-tetrazolyl)thio]methyl]-8-oxo-5-thia-1-azabicyclo[4.2.0]oct-2-ene-2-carboxylate

> <PUBCHEM_IUPAC_NAME>
sodium (6R,7R)-7-[[(2R)-2-(4-hydroxyphenyl)-2-[(6-methyl-4-oxo-1H-pyridine-3-carbonyl)amino]acetyl]amino]-3-[(1-methyltetrazol-5-yl)sulfanylmethyl]-8-oxo-5-thia-1-azabicyclo[4.2.0]oct-2-ene-2-carboxylate

> <PUBCHEM_IUPAC_SYSTEMATIC_NAME>
sodium (6R,7R)-7-[[(2R)-2-(4-hydroxyphenyl)-2-[(6-methyl-4-oxidanylidene-1H-pyridin-3-yl)carbonylamino]ethanoyl]amino]-3-[(1-methyl-1,2,3,4-tetrazol-5-yl)sulfanylmethyl]-8-oxidanylidene-5-thia-1-azabicyclo[4.2.0]oct-2-ene-2-carboxylate

> <PUBCHEM_IUPAC_TRADITIONAL_NAME>
sodium (6R,7R)-7-[[(2R)-2-(4-hydroxyphenyl)-2-[(4-keto-6-methyl-1H-pyridine-3-carbonyl)amino]acetyl]amino]-8-keto-3-[[(1-methyltetrazol-5-yl)thio]methyl]-5-thia-1-azabicyclo[4.2.0]oct-2-ene-2-carboxylate

> <PUBCHEM_IUPAC_INCHI>
InChI=1S/C25H24N8O7S2.Na/c1-11-7-16(35)15(8-26-11)20(36)27-17(12-3-5-14(34)6-4-12)21(37)28-18-22(38)33-19(24(39)40)13(9-41-23(18)33)10-42-25-29-30-31-32(25)2;/h3-8,17-18,23,34H,9-10H2,1-2H3,(H,26,35)(H,27,36)(H,28,37)(H,39,40);/q;+1/p-1/t17-,18-,23-;/m1./s1

> <PUBCHEM_IUPAC_INCHIKEY>
RIWWMGQFMUUYIY-ALLHVENQSA-M

> <PUBCHEM_EXACT_MASS>
634.102881

> <PUBCHEM_MOLECULAR_FORMULA>
C25H23N8NaO7S2

> <PUBCHEM_MOLECULAR_WEIGHT>
634.619289

> <PUBCHEM_OPENEYE_CAN_SMILES>
CC1=CC(=O)C(=CN1)C(=O)NC(C2=CC=C(C=C2)O)C(=O)NC3C4N(C3=O)C(=C(CS4)CSC5=NN=NN5C)C(=O)[O-].[Na+]

> <PUBCHEM_OPENEYE_ISO_SMILES>
CC1=CC(=O)C(=CN1)C(=O)N[C@H](C2=CC=C(C=C2)O)C(=O)N[C@H]3[C@@H]4N(C3=O)C(=C(CS4)CSC5=NN=NN5C)C(=O)[O-].[Na+]

> <PUBCHEM_CACTVS_TPSA>
262

> <PUBCHEM_MONOISOTOPIC_WEIGHT>
634.102881

> <PUBCHEM_TOTAL_CHARGE>
0

> <PUBCHEM_HEAVY_ATOM_COUNT>
43

> <PUBCHEM_ATOM_DEF_STEREO_COUNT>
3

> <PUBCHEM_ATOM_UDEF_STEREO_COUNT>
0

> <PUBCHEM_BOND_DEF_STEREO_COUNT>
0

> <PUBCHEM_BOND_UDEF_STEREO_COUNT>
0

> <PUBCHEM_ISOTOPIC_ATOM_COUNT>
0

> <PUBCHEM_COMPONENT_COUNT>
2

> <PUBCHEM_CACTVS_TAUTO_COUNT>
152

> <PUBCHEM_NONSTANDARDBOND>
3  5  7

> <PUBCHEM_COORDINATE_TYPE>
1
5
255

> <PUBCHEM_BONDANNOTATIONS>
20  12  5
28  13  5
14  16  8
14  33  8
15  18  8
15  33  8
16  18  8
17  39  8
17  42  8
19  44  6
29  30  8
29  31  8
30  34  8
31  35  8
34  37  8
35  37  8
36  38  8
36  39  8
38  41  8
41  42  8

$$$$

