443455
  -OEChem-07051213023D

 52 55  0     1  0  0  0  0  0999 V2000
    4.4194    0.6025   -1.0672 O   0  0  0  0  0  0  0  0  0  0  0  0
   -0.6318   -3.2605    0.9001 O   0  0  0  0  0  0  0  0  0  0  0  0
    1.4008    2.6765    1.4295 O   0  0  0  0  0  0  0  0  0  0  0  0
   -0.0048   -2.8499   -1.2525 O   0  0  0  0  0  0  0  0  0  0  0  0
    1.9825   -1.9943    1.4165 O   0  0  0  0  0  0  0  0  0  0  0  0
    3.3549   -0.2322    1.8719 O   0  0  0  0  0  0  0  0  0  0  0  0
   -1.5856   -0.2794    0.1032 C   0  0  1  0  0  0  0  0  0  0  0  0
   -1.2080    1.1710   -0.3820 C   0  0  2  0  0  0  0  0  0  0  0  0
    0.3318    1.2685   -0.2250 C   0  0  1  0  0  0  0  0  0  0  0  0
    0.7752   -0.1858   -0.4984 C   0  0  2  0  0  0  0  0  0  0  0  0
   -0.2391   -1.0221    0.3100 C   0  0  2  0  0  0  0  0  0  0  0  0
   -2.4746   -0.2085    1.3562 C   0  0  0  0  0  0  0  0  0  0  0  0
   -2.5719   -0.9299   -0.9029 C   0  0  0  0  0  0  0  0  0  0  0  0
    2.3076   -0.4203   -0.3114 C   0  0  2  0  0  0  0  0  0  0  0  0
   -3.7359    0.4486    0.7798 C   0  0  1  0  0  0  0  0  0  0  0  0
   -2.0195    2.2958    0.2858 C   0  0  0  0  0  0  0  0  0  0  0  0
    0.9931    2.2269   -1.2326 C   0  0  0  0  0  0  0  0  0  0  0  0
   -3.4983    1.9417    0.4927 C   0  0  0  0  0  0  0  0  0  0  0  0
   -3.8874   -0.3066   -0.5224 C   0  0  0  0  0  0  0  0  0  0  0  0
    3.0967    0.8953   -0.6174 C   0  0  2  0  0  0  0  0  0  0  0  0
    2.3943    1.7683   -1.6631 C   0  0  0  0  0  0  0  0  0  0  0  0
    0.6920    1.7062    1.1835 C   0  0  0  0  0  0  0  0  0  0  0  0
   -0.2683   -2.4541   -0.1269 C   0  0  0  0  0  0  0  0  0  0  0  0
    2.7774   -1.5781   -1.2173 C   0  0  0  0  0  0  0  0  0  0  0  0
    2.6229   -0.8408    1.1057 C   0  0  0  0  0  0  0  0  0  0  0  0
   -5.0233   -0.4388   -1.2159 C   0  0  0  0  0  0  0  0  0  0  0  0
   -1.4309    1.2282   -1.4574 H   0  0  0  0  0  0  0  0  0  0  0  0
    0.5668   -0.3725   -1.5657 H   0  0  0  0  0  0  0  0  0  0  0  0
   -0.0154   -0.9801    1.3804 H   0  0  0  0  0  0  0  0  0  0  0  0
   -2.0352    0.3672    2.1769 H   0  0  0  0  0  0  0  0  0  0  0  0
   -2.6951   -1.2133    1.7405 H   0  0  0  0  0  0  0  0  0  0  0  0
   -2.6585   -2.0114   -0.7515 H   0  0  0  0  0  0  0  0  0  0  0  0
   -2.3005   -0.7394   -1.9458 H   0  0  0  0  0  0  0  0  0  0  0  0
   -4.6034    0.3067    1.4325 H   0  0  0  0  0  0  0  0  0  0  0  0
   -1.9351    3.2189   -0.3003 H   0  0  0  0  0  0  0  0  0  0  0  0
   -1.6117    2.5388    1.2732 H   0  0  0  0  0  0  0  0  0  0  0  0
    1.0446    3.2515   -0.8449 H   0  0  0  0  0  0  0  0  0  0  0  0
    0.3853    2.3049   -2.1433 H   0  0  0  0  0  0  0  0  0  0  0  0
   -3.8721    2.5313    1.3396 H   0  0  0  0  0  0  0  0  0  0  0  0
   -4.0798    2.2691   -0.3784 H   0  0  0  0  0  0  0  0  0  0  0  0
    3.2316    1.5106    0.2766 H   0  0  0  0  0  0  0  0  0  0  0  0
    2.3233    1.2089   -2.6056 H   0  0  0  0  0  0  0  0  0  0  0  0
    3.0123    2.6427   -1.9024 H   0  0  0  0  0  0  0  0  0  0  0  0
    0.2836    1.1082    2.0137 H   0  0  0  0  0  0  0  0  0  0  0  0
    3.8531   -1.7618   -1.1104 H   0  0  0  0  0  0  0  0  0  0  0  0
    2.3115   -2.5356   -0.9789 H   0  0  0  0  0  0  0  0  0  0  0  0
    2.5827   -1.3593   -2.2729 H   0  0  0  0  0  0  0  0  0  0  0  0
   -5.9428    0.0250   -0.8760 H   0  0  0  0  0  0  0  0  0  0  0  0
   -5.0528   -1.0125   -2.1358 H   0  0  0  0  0  0  0  0  0  0  0  0
    4.8853    0.1626   -0.3355 H   0  0  0  0  0  0  0  0  0  0  0  0
   -0.6589   -4.2039    0.6329 H   0  0  0  0  0  0  0  0  0  0  0  0
    2.1742   -2.2844    2.3337 H   0  0  0  0  0  0  0  0  0  0  0  0
  1 20  1  0  0  0  0
  1 50  1  0  0  0  0
  2 23  1  0  0  0  0
  2 51  1  0  0  0  0
  3 22  2  0  0  0  0
  4 23  2  0  0  0  0
  5 25  1  0  0  0  0
  5 52  1  0  0  0  0
  6 25  2  0  0  0  0
  7  8  1  0  0  0  0
  7 11  1  0  0  0  0
  7 12  1  0  0  0  0
  7 13  1  0  0  0  0
  8  9  1  0  0  0  0
  8 16  1  0  0  0  0
  8 27  1  0  0  0  0
  9 10  1  0  0  0  0
  9 17  1  0  0  0  0
  9 22  1  0  0  0  0
 10 11  1  0  0  0  0
 10 14  1  0  0  0  0
 10 28  1  0  0  0  0
 11 23  1  0  0  0  0
 11 29  1  0  0  0  0
 12 15  1  0  0  0  0
 12 30  1  0  0  0  0
 12 31  1  0  0  0  0
 13 19  1  0  0  0  0
 13 32  1  0  0  0  0
 13 33  1  0  0  0  0
 14 20  1  0  0  0  0
 14 24  1  0  0  0  0
 14 25  1  0  0  0  0
 15 18  1  0  0  0  0
 15 19  1  0  0  0  0
 15 34  1  0  0  0  0
 16 18  1  0  0  0  0
 16 35  1  0  0  0  0
 16 36  1  0  0  0  0
 17 21  1  0  0  0  0
 17 37  1  0  0  0  0
 17 38  1  0  0  0  0
 18 39  1  0  0  0  0
 18 40  1  0  0  0  0
 19 26  2  0  0  0  0
 20 21  1  0  0  0  0
 20 41  1  0  0  0  0
 21 42  1  0  0  0  0
 21 43  1  0  0  0  0
 22 44  1  0  0  0  0
 24 45  1  0  0  0  0
 24 46  1  0  0  0  0
 24 47  1  0  0  0  0
 26 48  1  0  0  0  0
 26 49  1  0  0  0  0
M  END
> <PUBCHEM_COMPOUND_CID>
443455

> <PUBCHEM_CONFORMER_RMSD>
0.8

> <PUBCHEM_CONFORMER_DIVERSEORDER>
1
2

> <PUBCHEM_MMFF94_PARTIAL_CHARGES>
23
1 -0.68
11 0.06
13 0.14
14 0.06
15 0.14
19 -0.28
2 -0.65
20 0.28
22 0.45
23 0.66
25 0.66
26 -0.3
3 -0.57
4 -0.57
44 0.06
48 0.15
49 0.15
5 -0.65
50 0.4
51 0.5
52 0.5
6 -0.57
9 0.06

> <PUBCHEM_EFFECTIVE_ROTOR_COUNT>
4.8

> <PUBCHEM_PHARMACOPHORE_FEATURES>
12
1 1 acceptor
1 1 donor
1 2 acceptor
1 3 acceptor
1 4 acceptor
1 5 acceptor
1 6 acceptor
3 2 4 23 anion
3 5 6 25 anion
5 7 8 9 10 11 rings
6 9 10 14 17 20 21 rings
8 7 8 12 13 15 16 18 19 rings

> <PUBCHEM_HEAVY_ATOM_COUNT>
26

> <PUBCHEM_ATOM_DEF_STEREO_COUNT>
8

> <PUBCHEM_ATOM_UDEF_STEREO_COUNT>
0

> <PUBCHEM_BOND_DEF_STEREO_COUNT>
0

> <PUBCHEM_BOND_UDEF_STEREO_COUNT>
0

> <PUBCHEM_ISOTOPIC_ATOM_COUNT>
0

> <PUBCHEM_COMPONENT_COUNT>
1

> <PUBCHEM_CACTVS_TAUTO_COUNT>
1

> <PUBCHEM_CONFORMER_ID>
0006C43F00000001

> <PUBCHEM_MMFF94_ENERGY>
111.1055

> <PUBCHEM_FEATURE_SELFOVERLAP>
61.127

> <PUBCHEM_SHAPE_FINGERPRINT>
10062212 137 18338520845648827929
104564 63 18196085770831692716
10863032 1 17203602675114263552
10948715 1 18270666589847870756
10967382 1 18412254030413219469
11578080 2 18196962008791120156
12011746 2 18409731738017755852
12553582 1 18408037403632142617
12633257 1 18048068244802046816
13140716 1 18050849909992706528
13224815 77 18410853295839255981
13538477 17 18200313204394155374
13583140 156 16988557957860950731
14178342 30 18122069964007093337
14223421 5 17829610552407046753
14713325 29 16045307587217344468
14787075 74 18187090524655618104
15209289 33 18260821596992197969
16752209 62 18408319999326279237
16945 1 18060132171769484674
17349148 13 18410019814491101647
17492 54 18343298137139049406
1813 80 17629493144795457362
192875 21 18340780294609317773
20600515 1 18412828014665131802
20691752 17 18057874930211279431
20905425 154 17902793299159526071
22393880 68 18335992991191491237
2334 1 18410852208959335548
23419403 2 15949999882878935399
23557571 272 16008750195671853211
23559900 14 18116431449458254364
238 59 18337951186740108429
2748010 2 16828687124325177109
34934 24 18129382614238372988
352729 6 18339634534726686835
4340502 62 16415477117038584777
474 4 18270675484830583819
484989 97 18127119772080282319
81228 2 17328579527959113795
90525 40 18411974788962031469

> <PUBCHEM_SHAPE_MULTIPOLES>
499.85
6.81
2.96
1.53
3.29
0.73
0.17
-0.55
-1.15
-0.44
0.12
-0.68
-0.06
-0.79

> <PUBCHEM_SHAPE_SELFOVERLAP>
1099.034

> <PUBCHEM_SHAPE_VOLUME>
266.2

> <PUBCHEM_COORDINATE_TYPE>
2
5
10

$$$$

