114881
  -OEChem-07051212452D

 35 37  0     1  0  0  0  0  0999 V2000
    9.4406    0.7289    0.0000 O   0  0  0  0  0  0  0  0  0  0  0  0
    9.4444    2.9045    0.0000 O   0  0  0  0  0  0  0  0  0  0  0  0
    4.2690    0.0988    0.0000 O   0  0  0  0  0  0  0  0  0  0  0  0
    7.3704    0.0602    0.0000 N   0  0  0  0  0  0  0  0  0  0  0  0
    6.0812   -2.7060    0.0000 N   0  0  0  0  0  0  0  0  0  0  0  0
    4.2690   -2.9012    0.0000 N   0  0  0  0  0  0  0  0  0  0  0  0
    3.4030   -1.4012    0.0000 N   0  0  0  0  0  0  0  0  0  0  0  0
    2.5369   -2.9012    0.0000 N   0  0  0  0  0  0  0  0  0  0  0  0
    7.6811    1.0108    0.0000 C   0  0  2  0  0  0  0  0  0  0  0  0
    8.6326    1.3181    0.0000 C   0  0  2  0  0  0  0  0  0  0  0  0
    8.6344    2.3181    0.0000 C   0  0  2  0  0  0  0  0  0  0  0  0
    7.0947    1.8208    0.0000 C   0  0  0  0  0  0  0  0  0  0  0  0
    7.6839    2.6288    0.0000 C   0  0  0  0  0  0  0  0  0  0  0  0
    6.3919   -0.1460    0.0000 C   0  0  0  0  0  0  0  0  0  0  0  0
    6.0812   -1.0965    0.0000 C   0  0  0  0  0  0  0  0  0  0  0  0
    5.1350   -1.4012    0.0000 C   0  0  0  0  0  0  0  0  0  0  0  0
    5.1350   -2.4012    0.0000 C   0  0  0  0  0  0  0  0  0  0  0  0
    6.6648   -1.9012    0.0000 C   0  0  0  0  0  0  0  0  0  0  0  0
    4.2690   -0.9012    0.0000 C   0  0  0  0  0  0  0  0  0  0  0  0
    3.4030   -2.4012    0.0000 C   0  0  0  0  0  0  0  0  0  0  0  0
    7.0685    0.9148    0.0000 H   0  0  0  0  0  0  0  0  0  0  0  0
    9.1856    1.5986    0.0000 H   0  0  0  0  0  0  0  0  0  0  0  0
    8.5384    2.9307    0.0000 H   0  0  0  0  0  0  0  0  0  0  0  0
    7.7845   -0.4012    0.0000 H   0  0  0  0  0  0  0  0  0  0  0  0
    6.4747    1.8219    0.0000 H   0  0  0  0  0  0  0  0  0  0  0  0
    6.3713    0.4737    0.0000 H   0  0  0  0  0  0  0  0  0  0  0  0
    5.7781   -0.0586    0.0000 H   0  0  0  0  0  0  0  0  0  0  0  0
    7.4933    3.2188    0.0000 H   0  0  0  0  0  0  0  0  0  0  0  0
    7.2848   -1.9012    0.0000 H   0  0  0  0  0  0  0  0  0  0  0  0
   10.0075    0.9801    0.0000 H   0  0  0  0  0  0  0  0  0  0  0  0
    6.2738   -3.2953    0.0000 H   0  0  0  0  0  0  0  0  0  0  0  0
    9.3807    3.5212    0.0000 H   0  0  0  0  0  0  0  0  0  0  0  0
    4.2690   -3.5212    0.0000 H   0  0  0  0  0  0  0  0  0  0  0  0
    2.0000   -2.5912    0.0000 H   0  0  0  0  0  0  0  0  0  0  0  0
    2.5369   -3.5212    0.0000 H   0  0  0  0  0  0  0  0  0  0  0  0
 10  1  1  6  0  0  0
  1 30  1  0  0  0  0
 11  2  1  6  0  0  0
  2 32  1  0  0  0  0
  3 19  2  0  0  0  0
  9  4  1  1  0  0  0
  4 14  1  0  0  0  0
  4 24  1  0  0  0  0
  5 17  1  0  0  0  0
  5 18  1  0  0  0  0
  5 31  1  0  0  0  0
  6 17  1  0  0  0  0
  6 20  1  0  0  0  0
  6 33  1  0  0  0  0
  7 19  1  0  0  0  0
  7 20  2  0  0  0  0
  8 20  1  0  0  0  0
  8 34  1  0  0  0  0
  8 35  1  0  0  0  0
  9 10  1  0  0  0  0
  9 12  1  0  0  0  0
  9 21  1  0  0  0  0
 10 11  1  0  0  0  0
 10 22  1  0  0  0  0
 11 13  1  0  0  0  0
 11 23  1  0  0  0  0
 12 13  2  0  0  0  0
 12 25  1  0  0  0  0
 13 28  1  0  0  0  0
 14 15  1  0  0  0  0
 14 26  1  0  0  0  0
 14 27  1  0  0  0  0
 15 16  1  0  0  0  0
 15 18  2  0  0  0  0
 16 17  2  0  0  0  0
 16 19  1  0  0  0  0
 18 29  1  0  0  0  0
M  END
> <PUBCHEM_COMPOUND_CID>
114881

> <PUBCHEM_COMPOUND_CANONICALIZED>
1

> <PUBCHEM_CACTVS_COMPLEXITY>
466

> <PUBCHEM_CACTVS_HBOND_ACCEPTOR>
4

> <PUBCHEM_CACTVS_HBOND_DONOR>
6

> <PUBCHEM_CACTVS_ROTATABLE_BOND>
3

> <PUBCHEM_CACTVS_SUBSKEYS>
AAADccBzsAAAAAAAAAAAAAAAAAAAAWIAAAAgAAAAAAAAAEABgAAAHgAQCAAADDzhmgYtsJLJkgCoAjN3dACCgCm1ACAJ2aEoRNiLNFpAzYEEUYhO0ALZUWIEAAAIgAAAAAAAAAAAAAAAAAAAAAAAAAAAAA==

> <PUBCHEM_IUPAC_OPENEYE_NAME>
2-amino-5-[[[(1S,4S,5R)-4,5-dihydroxycyclopent-2-en-1-yl]amino]methyl]-1,7-dihydropyrrolo[2,3-d]pyrimidin-4-one

> <PUBCHEM_IUPAC_CAS_NAME>
2-amino-5-[[[(1S,4S,5R)-4,5-dihydroxy-1-cyclopent-2-enyl]amino]methyl]-1,7-dihydropyrrolo[2,3-d]pyrimidin-4-one

> <PUBCHEM_IUPAC_NAME>
2-amino-5-[[[(1S,4S,5R)-4,5-dihydroxycyclopent-2-en-1-yl]amino]methyl]-1,7-dihydropyrrolo[2,3-d]pyrimidin-4-one

> <PUBCHEM_IUPAC_SYSTEMATIC_NAME>
2-azanyl-5-[[[(1S,4S,5R)-4,5-bis(oxidanyl)cyclopent-2-en-1-yl]amino]methyl]-1,7-dihydropyrrolo[2,3-d]pyrimidin-4-one

> <PUBCHEM_IUPAC_TRADITIONAL_NAME>
2-amino-5-[[[(1S,4S,5R)-4,5-dihydroxycyclopent-2-en-1-yl]amino]methyl]-1,7-dihydropyrrolo[2,3-d]pyrimidin-4-one

> <PUBCHEM_IUPAC_INCHI>
InChI=1S/C12H15N5O3/c13-12-16-10-8(11(20)17-12)5(4-15-10)3-14-6-1-2-7(18)9(6)19/h1-2,4,6-7,9,14,18-19H,3H2,(H4,13,15,16,17,20)/t6-,7-,9+/m0/s1

> <PUBCHEM_IUPAC_INCHIKEY>
WYROLENTHWJFLR-ACLDMZEESA-N

> <PUBCHEM_XLOGP3_AA>
-2.4

> <PUBCHEM_EXACT_MASS>
277.117489

> <PUBCHEM_MOLECULAR_FORMULA>
C12H15N5O3

> <PUBCHEM_MOLECULAR_WEIGHT>
277.2792

> <PUBCHEM_OPENEYE_CAN_SMILES>
C1=CC(C(C1NCC2=CNC3=C2C(=O)N=C(N3)N)O)O

> <PUBCHEM_OPENEYE_ISO_SMILES>
C1=C[C@@H]([C@@H]([C@H]1NCC2=CNC3=C2C(=O)N=C(N3)N)O)O

> <PUBCHEM_CACTVS_TPSA>
136

> <PUBCHEM_MONOISOTOPIC_WEIGHT>
277.117489

> <PUBCHEM_TOTAL_CHARGE>
0

> <PUBCHEM_HEAVY_ATOM_COUNT>
20

> <PUBCHEM_ATOM_DEF_STEREO_COUNT>
3

> <PUBCHEM_ATOM_UDEF_STEREO_COUNT>
0

> <PUBCHEM_BOND_DEF_STEREO_COUNT>
0

> <PUBCHEM_BOND_UDEF_STEREO_COUNT>
0

> <PUBCHEM_ISOTOPIC_ATOM_COUNT>
0

> <PUBCHEM_COMPONENT_COUNT>
1

> <PUBCHEM_CACTVS_TAUTO_COUNT>
17

> <PUBCHEM_COORDINATE_TYPE>
1
5
255

> <PUBCHEM_BONDANNOTATIONS>
10  1  6
15  16  8
15  18  8
16  17  8
16  19  8
11  2  6
9  4  5
5  17  8
5  18  8
6  17  8
6  20  8
7  19  8
7  20  8

$$$$

