128834
  -OEChem-07051212562D

 33 35  0     0  0  0  0  0  0999 V2000
    4.6342   -1.7811    0.0000 O   0  0  0  0  0  0  0  0  0  0  0  0
    8.2065   -1.5511    0.0000 O   0  0  0  0  0  0  0  0  0  0  0  0
    2.8641   -1.7706    0.0000 O   0  0  0  0  0  0  0  0  0  0  0  0
    2.8641    0.2777    0.0000 C   0  0  0  0  0  0  0  0  0  0  0  0
    3.7282   -0.2256    0.0000 C   0  0  0  0  0  0  0  0  0  0  0  0
    3.3674    1.1418    0.0000 C   0  0  0  0  0  0  0  0  0  0  0  0
    2.3608   -0.5864    0.0000 C   0  0  0  0  0  0  0  0  0  0  0  0
    4.6342    0.2883    0.0000 C   0  0  0  0  0  0  0  0  0  0  0  0
    5.5282   -0.2464    0.0000 C   0  0  0  0  0  0  0  0  0  0  0  0
    2.0000    0.7811    0.0000 C   0  0  0  0  0  0  0  0  0  0  0  0
    5.5282   -1.2464    0.0000 C   0  0  0  0  0  0  0  0  0  0  0  0
    3.7282   -1.2672    0.0000 C   0  0  0  0  0  0  0  0  0  0  0  0
    6.3942    0.2536    0.0000 C   0  0  0  0  0  0  0  0  0  0  0  0
    7.2602   -0.2464    0.0000 C   0  0  0  0  0  0  0  0  0  0  0  0
    7.2602   -1.2464    0.0000 C   0  0  0  0  0  0  0  0  0  0  0  0
    6.3942   -1.7464    0.0000 C   0  0  0  0  0  0  0  0  0  0  0  0
    8.2065    0.0583    0.0000 C   0  0  0  0  0  0  0  0  0  0  0  0
    2.0038    1.7811    0.0000 C   0  0  0  0  0  0  0  0  0  0  0  0
    8.7901   -0.7464    0.0000 C   0  0  0  0  0  0  0  0  0  0  0  0
    1.8250   -0.2743    0.0000 H   0  0  0  0  0  0  0  0  0  0  0  0
    2.0487   -1.1221    0.0000 H   0  0  0  0  0  0  0  0  0  0  0  0
    2.8965   -0.8984    0.0000 H   0  0  0  0  0  0  0  0  0  0  0  0
    3.9032    0.8298    0.0000 H   0  0  0  0  0  0  0  0  0  0  0  0
    3.6795    1.6776    0.0000 H   0  0  0  0  0  0  0  0  0  0  0  0
    2.8317    1.4539    0.0000 H   0  0  0  0  0  0  0  0  0  0  0  0
    4.6414    0.9082    0.0000 H   0  0  0  0  0  0  0  0  0  0  0  0
    1.4619    0.4731    0.0000 H   0  0  0  0  0  0  0  0  0  0  0  0
    6.3942    0.8736    0.0000 H   0  0  0  0  0  0  0  0  0  0  0  0
    6.3942   -2.3664    0.0000 H   0  0  0  0  0  0  0  0  0  0  0  0
    8.3991    0.6476    0.0000 H   0  0  0  0  0  0  0  0  0  0  0  0
    2.5420    2.0890    0.0000 H   0  0  0  0  0  0  0  0  0  0  0  0
    1.4681    2.0931    0.0000 H   0  0  0  0  0  0  0  0  0  0  0  0
    9.4101   -0.7464    0.0000 H   0  0  0  0  0  0  0  0  0  0  0  0
  1 11  1  0  0  0  0
  1 12  1  0  0  0  0
  2 15  1  0  0  0  0
  2 19  1  0  0  0  0
  3 12  2  0  0  0  0
  4  5  1  0  0  0  0
  4  6  1  0  0  0  0
  4  7  1  0  0  0  0
  4 10  1  0  0  0  0
  5  8  2  0  0  0  0
  5 12  1  0  0  0  0
  6 23  1  0  0  0  0
  6 24  1  0  0  0  0
  6 25  1  0  0  0  0
  7 20  1  0  0  0  0
  7 21  1  0  0  0  0
  7 22  1  0  0  0  0
  8  9  1  0  0  0  0
  8 26  1  0  0  0  0
  9 11  2  0  0  0  0
  9 13  1  0  0  0  0
 10 18  2  0  0  0  0
 10 27  1  0  0  0  0
 11 16  1  0  0  0  0
 13 14  2  0  0  0  0
 13 28  1  0  0  0  0
 14 15  1  0  0  0  0
 14 17  1  0  0  0  0
 15 16  2  0  0  0  0
 16 29  1  0  0  0  0
 17 19  2  0  0  0  0
 17 30  1  0  0  0  0
 18 31  1  0  0  0  0
 18 32  1  0  0  0  0
 19 33  1  0  0  0  0
M  END
> <PUBCHEM_COMPOUND_CID>
128834

> <PUBCHEM_COMPOUND_CANONICALIZED>
1

> <PUBCHEM_CACTVS_COMPLEXITY>
435

> <PUBCHEM_CACTVS_HBOND_ACCEPTOR>
3

> <PUBCHEM_CACTVS_HBOND_DONOR>
0

> <PUBCHEM_CACTVS_ROTATABLE_BOND>
2

> <PUBCHEM_CACTVS_SUBSKEYS>
AAADccB4MAAAAAAAAAAAAAAAAAAAASAAAAAwQAAAAAAAAEiB8AAAGgAAAAAADgSgmAIyDsAABECIAqjSiAACCAAkIAAIiAEGCMgMJzaENRqCO2Cl4BUIqYeI7PzPIAACCAAIAABAAAQQABAAAAAAAAAAAA==

> <PUBCHEM_IUPAC_OPENEYE_NAME>
6-(1,1-dimethylallyl)furo[3,2-g]chromen-7-one

> <PUBCHEM_IUPAC_CAS_NAME>
6-(2-methylbut-3-en-2-yl)-7-furo[3,2-g][1]benzopyranone

> <PUBCHEM_IUPAC_NAME>
6-(2-methylbut-3-en-2-yl)furo[3,2-g]chromen-7-one

> <PUBCHEM_IUPAC_SYSTEMATIC_NAME>
6-(2-methylbut-3-en-2-yl)furo[3,2-g]chromen-7-one

> <PUBCHEM_IUPAC_TRADITIONAL_NAME>
6-(1,1-dimethylallyl)furo[3,2-g]chromen-7-one

> <PUBCHEM_IUPAC_INCHI>
InChI=1S/C16H14O3/c1-4-16(2,3)12-8-11-7-10-5-6-18-13(10)9-14(11)19-15(12)17/h4-9H,1H2,2-3H3

> <PUBCHEM_IUPAC_INCHIKEY>
FYCCCUNGXGKNJV-UHFFFAOYSA-N

> <PUBCHEM_XLOGP3_AA>
4.3

> <PUBCHEM_EXACT_MASS>
254.094294

> <PUBCHEM_MOLECULAR_FORMULA>
C16H14O3

> <PUBCHEM_MOLECULAR_WEIGHT>
254.28056

> <PUBCHEM_OPENEYE_CAN_SMILES>
CC(C)(C=C)C1=CC2=C(C=C3C(=C2)C=CO3)OC1=O

> <PUBCHEM_OPENEYE_ISO_SMILES>
CC(C)(C=C)C1=CC2=C(C=C3C(=C2)C=CO3)OC1=O

> <PUBCHEM_CACTVS_TPSA>
39.4

> <PUBCHEM_MONOISOTOPIC_WEIGHT>
254.094294

> <PUBCHEM_TOTAL_CHARGE>
0

> <PUBCHEM_HEAVY_ATOM_COUNT>
19

> <PUBCHEM_ATOM_DEF_STEREO_COUNT>
0

> <PUBCHEM_ATOM_UDEF_STEREO_COUNT>
0

> <PUBCHEM_BOND_DEF_STEREO_COUNT>
0

> <PUBCHEM_BOND_UDEF_STEREO_COUNT>
0

> <PUBCHEM_ISOTOPIC_ATOM_COUNT>
0

> <PUBCHEM_COMPONENT_COUNT>
1

> <PUBCHEM_CACTVS_TAUTO_COUNT>
1

> <PUBCHEM_COORDINATE_TYPE>
1
5
255

> <PUBCHEM_BONDANNOTATIONS>
1  11  8
1  12  8
11  16  8
13  14  8
14  15  8
14  17  8
15  16  8
17  19  8
2  15  8
2  19  8
5  12  8
5  8  8
8  9  8
9  11  8
9  13  8

$$$$

