15789
  -OEChem-07051213032D

 46 47  0     1  0  0  0  0  0999 V2000
    7.5984    2.6788    0.0000 O   0  0  0  0  0  0  0  0  0  0  0  0
    3.6340    8.1166    0.0000 O   0  0  0  0  0  0  0  0  0  0  0  0
    6.2321    7.6166    0.0000 O   0  0  0  0  0  0  0  0  0  0  0  0
    5.3661    9.1166    0.0000 O   0  0  0  0  0  0  0  0  0  0  0  0
    4.0682    0.6546    0.0000 N   0  0  0  0  0  0  0  0  0  0  0  0
    4.0682    3.6546    0.0000 N   0  0  0  0  0  0  0  0  0  0  0  0
    0.5381    0.6305    0.0000 N   0  0  0  0  0  0  0  0  0  0  0  0
    4.9343    2.1546    0.0000 C   0  0  0  0  0  0  0  0  0  0  0  0
    3.2022    2.1546    0.0000 C   0  0  0  0  0  0  0  0  0  0  0  0
    4.0682    2.6546    0.0000 C   0  0  0  0  0  0  0  0  0  0  0  0
    4.9343    1.1546    0.0000 C   0  0  0  0  0  0  0  0  0  0  0  0
    3.2022    1.1546    0.0000 C   0  0  0  0  0  0  0  0  0  0  0  0
    5.8282    2.6893    0.0000 C   0  0  0  0  0  0  0  0  0  0  0  0
    2.3083    2.6893    0.0000 C   0  0  0  0  0  0  0  0  0  0  0  0
    5.8282    0.6200    0.0000 C   0  0  0  0  0  0  0  0  0  0  0  0
    2.3083    0.6200    0.0000 C   0  0  0  0  0  0  0  0  0  0  0  0
    6.7343    2.1754    0.0000 C   0  0  0  0  0  0  0  0  0  0  0  0
    1.4022    1.1338    0.0000 C   0  0  0  0  0  0  0  0  0  0  0  0
    6.7343    1.1338    0.0000 C   0  0  0  0  0  0  0  0  0  0  0  0
    1.4022    2.1754    0.0000 C   0  0  0  0  0  0  0  0  0  0  0  0
    8.4663    2.1821    0.0000 C   0  0  0  0  0  0  0  0  0  0  0  0
    9.3304    2.6854    0.0000 C   0  0  0  0  0  0  0  0  0  0  0  0
    4.5001    7.6166    0.0000 C   0  0  3  0  0  0  0  0  0  0  0  0
    4.5001    6.6166    0.0000 C   0  0  0  0  0  0  0  0  0  0  0  0
    5.3661    8.1166    0.0000 C   0  0  0  0  0  0  0  0  0  0  0  0
    5.8210    3.3092    0.0000 H   0  0  0  0  0  0  0  0  0  0  0  0
    2.3154    3.3092    0.0000 H   0  0  0  0  0  0  0  0  0  0  0  0
    5.8210    0.0000    0.0000 H   0  0  0  0  0  0  0  0  0  0  0  0
    2.3154    0.0000    0.0000 H   0  0  0  0  0  0  0  0  0  0  0  0
    7.2700    0.8217    0.0000 H   0  0  0  0  0  0  0  0  0  0  0  0
    0.8665    2.4875    0.0000 H   0  0  0  0  0  0  0  0  0  0  0  0
    3.5313    3.9646    0.0000 H   0  0  0  0  0  0  0  0  0  0  0  0
    4.6052    3.9646    0.0000 H   0  0  0  0  0  0  0  0  0  0  0  0
    8.0696    1.7056    0.0000 H   0  0  0  0  0  0  0  0  0  0  0  0
    8.8667    1.7087    0.0000 H   0  0  0  0  0  0  0  0  0  0  0  0
    0.0000    0.9384    0.0000 H   0  0  0  0  0  0  0  0  0  0  0  0
    0.5405    0.0105    0.0000 H   0  0  0  0  0  0  0  0  0  0  0  0
    9.6425    2.1497    0.0000 H   0  0  0  0  0  0  0  0  0  0  0  0
    9.8662    2.9975    0.0000 H   0  0  0  0  0  0  0  0  0  0  0  0
    9.0184    3.2212    0.0000 H   0  0  0  0  0  0  0  0  0  0  0  0
    3.9631    7.3066    0.0000 H   0  0  0  0  0  0  0  0  0  0  0  0
    3.8801    6.6166    0.0000 H   0  0  0  0  0  0  0  0  0  0  0  0
    4.5001    5.9966    0.0000 H   0  0  0  0  0  0  0  0  0  0  0  0
    5.1201    6.6166    0.0000 H   0  0  0  0  0  0  0  0  0  0  0  0
    3.0971    7.8066    0.0000 H   0  0  0  0  0  0  0  0  0  0  0  0
    6.7690    7.9266    0.0000 H   0  0  0  0  0  0  0  0  0  0  0  0
  1 17  1  0  0  0  0
  1 21  1  0  0  0  0
  2 23  1  0  0  0  0
  2 45  1  0  0  0  0
  3 25  1  0  0  0  0
  3 46  1  0  0  0  0
  4 25  2  0  0  0  0
  5 11  2  0  0  0  0
  5 12  1  0  0  0  0
  6 10  1  0  0  0  0
  6 32  1  0  0  0  0
  6 33  1  0  0  0  0
  7 18  1  0  0  0  0
  7 36  1  0  0  0  0
  7 37  1  0  0  0  0
  8 10  2  0  0  0  0
  8 11  1  0  0  0  0
  8 13  1  0  0  0  0
  9 10  1  0  0  0  0
  9 12  2  0  0  0  0
  9 14  1  0  0  0  0
 11 15  1  0  0  0  0
 12 16  1  0  0  0  0
 13 17  2  0  0  0  0
 13 26  1  0  0  0  0
 14 20  2  0  0  0  0
 14 27  1  0  0  0  0
 15 19  2  0  0  0  0
 15 28  1  0  0  0  0
 16 18  2  0  0  0  0
 16 29  1  0  0  0  0
 17 19  1  0  0  0  0
 18 20  1  0  0  0  0
 19 30  1  0  0  0  0
 20 31  1  0  0  0  0
 21 22  1  0  0  0  0
 21 34  1  0  0  0  0
 21 35  1  0  0  0  0
 22 38  1  0  0  0  0
 22 39  1  0  0  0  0
 22 40  1  0  0  0  0
 23 24  1  0  0  0  0
 23 25  1  0  0  0  0
 23 41  1  0  0  0  0
 24 42  1  0  0  0  0
 24 43  1  0  0  0  0
 24 44  1  0  0  0  0
M  END
> <PUBCHEM_COMPOUND_CID>
15789

> <PUBCHEM_COMPOUND_CANONICALIZED>
1

> <PUBCHEM_CACTVS_COMPLEXITY>
371

> <PUBCHEM_CACTVS_HBOND_ACCEPTOR>
7

> <PUBCHEM_CACTVS_HBOND_DONOR>
4

> <PUBCHEM_CACTVS_ROTATABLE_BOND>
3

> <PUBCHEM_CACTVS_SUBSKEYS>
AAADceB7OAAAAAAAAAAAAAAAAAAAAAAAAAA8YIAAAAAAAACx/AAAHgAQCAAADByhngIyzvJIFgCoAyTyTAKCiCAhIiAImCF2bJgNNuLE8duGfCjk0BHJ6AewwPAOCEABAAQCAAAQgAIACAQAAAAAAAAAAA==

> <PUBCHEM_IUPAC_OPENEYE_NAME>
7-ethoxyacridine-3,9-diamine; 2-hydroxypropanoic acid

> <PUBCHEM_IUPAC_CAS_NAME>
7-ethoxyacridine-3,9-diamine; 2-hydroxypropanoic acid

> <PUBCHEM_IUPAC_NAME>
7-ethoxyacridine-3,9-diamine; 2-hydroxypropanoic acid

> <PUBCHEM_IUPAC_SYSTEMATIC_NAME>
7-ethoxyacridine-3,9-diamine; 2-oxidanylpropanoic acid

> <PUBCHEM_IUPAC_TRADITIONAL_NAME>
(6-amino-2-ethoxy-acridin-9-yl)amine; lactic acid

> <PUBCHEM_IUPAC_INCHI>
InChI=1S/C15H15N3O.C3H6O3/c1-2-19-10-4-6-13-12(8-10)15(17)11-5-3-9(16)7-14(11)18-13;1-2(4)3(5)6/h3-8H,2,16H2,1H3,(H2,17,18);2,4H,1H3,(H,5,6)

> <PUBCHEM_IUPAC_INCHIKEY>
IYLLULUTZPKQBW-UHFFFAOYSA-N

> <PUBCHEM_EXACT_MASS>
343.153206

> <PUBCHEM_MOLECULAR_FORMULA>
C18H21N3O4

> <PUBCHEM_MOLECULAR_WEIGHT>
343.37704

> <PUBCHEM_OPENEYE_CAN_SMILES>
CCOC1=CC2=C(C3=C(C=C(C=C3)N)N=C2C=C1)N.CC(C(=O)O)O

> <PUBCHEM_OPENEYE_ISO_SMILES>
CCOC1=CC2=C(C3=C(C=C(C=C3)N)N=C2C=C1)N.CC(C(=O)O)O

> <PUBCHEM_CACTVS_TPSA>
132

> <PUBCHEM_MONOISOTOPIC_WEIGHT>
343.153206

> <PUBCHEM_TOTAL_CHARGE>
0

> <PUBCHEM_HEAVY_ATOM_COUNT>
25

> <PUBCHEM_ATOM_DEF_STEREO_COUNT>
0

> <PUBCHEM_ATOM_UDEF_STEREO_COUNT>
1

> <PUBCHEM_BOND_DEF_STEREO_COUNT>
0

> <PUBCHEM_BOND_UDEF_STEREO_COUNT>
0

> <PUBCHEM_ISOTOPIC_ATOM_COUNT>
0

> <PUBCHEM_COMPONENT_COUNT>
2

> <PUBCHEM_CACTVS_TAUTO_COUNT>
22

> <PUBCHEM_COORDINATE_TYPE>
1
5
255

> <PUBCHEM_BONDANNOTATIONS>
11  15  8
12  16  8
13  17  8
14  20  8
15  19  8
16  18  8
17  19  8
18  20  8
23  2  3
5  11  8
5  12  8
8  10  8
8  11  8
8  13  8
9  10  8
9  12  8
9  14  8

$$$$

