10456
  -OEChem-06261204343D

 22 21  0     0  0  0  0  0  0999 V2000
    4.7982    0.6773   -0.0261 O   0  0  0  0  0  0  0  0  0  0  0  0
   -4.7985    0.6769    0.0094 O   0  0  0  0  0  0  0  0  0  0  0  0
    3.7776   -1.3567    0.0089 O   0  0  0  0  0  0  0  0  0  0  0  0
   -3.7772   -1.3568   -0.0126 O   0  0  0  0  0  0  0  0  0  0  0  0
   -0.0006    0.6364    0.0107 N   0  0  0  0  0  0  0  0  0  0  0  0
    1.2001   -0.1899    0.0129 C   0  0  0  0  0  0  0  0  0  0  0  0
   -1.1999   -0.1894    0.0010 C   0  0  0  0  0  0  0  0  0  0  0  0
    2.4482    0.6878    0.0124 C   0  0  0  0  0  0  0  0  0  0  0  0
   -2.4481    0.6880   -0.0105 C   0  0  0  0  0  0  0  0  0  0  0  0
    3.7117   -0.1367   -0.0005 C   0  0  0  0  0  0  0  0  0  0  0  0
   -3.7115   -0.1368   -0.0056 C   0  0  0  0  0  0  0  0  0  0  0  0
    1.2130   -0.8425    0.8951 H   0  0  0  0  0  0  0  0  0  0  0  0
    1.2140   -0.8364   -0.8735 H   0  0  0  0  0  0  0  0  0  0  0  0
   -1.2065   -0.8358   -0.8856 H   0  0  0  0  0  0  0  0  0  0  0  0
   -1.2207   -0.8423    0.8828 H   0  0  0  0  0  0  0  0  0  0  0  0
   -0.0042    1.2425    0.8307 H   0  0  0  0  0  0  0  0  0  0  0  0
    2.4643    1.3190    0.9087 H   0  0  0  0  0  0  0  0  0  0  0  0
    2.4523    1.3300   -0.8762 H   0  0  0  0  0  0  0  0  0  0  0  0
   -2.4555    1.3176   -0.9079 H   0  0  0  0  0  0  0  0  0  0  0  0
   -2.4613    1.3317    0.8769 H   0  0  0  0  0  0  0  0  0  0  0  0
    5.6366    0.1679   -0.0357 H   0  0  0  0  0  0  0  0  0  0  0  0
   -5.6367    0.1672    0.0136 H   0  0  0  0  0  0  0  0  0  0  0  0
  1 10  1  0  0  0  0
  1 21  1  0  0  0  0
  2 11  1  0  0  0  0
  2 22  1  0  0  0  0
  3 10  2  0  0  0  0
  4 11  2  0  0  0  0
  5  6  1  0  0  0  0
  5  7  1  0  0  0  0
  5 16  1  0  0  0  0
  6  8  1  0  0  0  0
  6 12  1  0  0  0  0
  6 13  1  0  0  0  0
  7  9  1  0  0  0  0
  7 14  1  0  0  0  0
  7 15  1  0  0  0  0
  8 10  1  0  0  0  0
  8 17  1  0  0  0  0
  8 18  1  0  0  0  0
  9 11  1  0  0  0  0
  9 19  1  0  0  0  0
  9 20  1  0  0  0  0
M  END
> <PUBCHEM_COMPOUND_CID>
10456

> <PUBCHEM_CONFORMER_RMSD>
0.6

> <PUBCHEM_CONFORMER_DIVERSEORDER>
1
30
57
40
66
29
2
11
4
61
47
64
59
20
25
38
39
60
28
45
3
49
9
18
37
27
23
36
32
62
12
24
42
14
33
21
10
19
13
17
54
5
58
48
65
51
6
50
15
63
7
41
52
8
56
44
16
43
31
46
34
26
35
53
22
55

> <PUBCHEM_MMFF94_PARTIAL_CHARGES>
14
1 -0.65
10 0.66
11 0.66
16 0.36
2 -0.65
21 0.5
22 0.5
3 -0.57
4 -0.57
5 -0.9
6 0.27
7 0.27
8 0.06
9 0.06

> <PUBCHEM_EFFECTIVE_ROTOR_COUNT>
6

> <PUBCHEM_PHARMACOPHORE_FEATURES>
8
1 1 acceptor
1 2 acceptor
1 3 acceptor
1 4 acceptor
1 5 cation
1 5 donor
3 1 3 10 anion
3 2 4 11 anion

> <PUBCHEM_HEAVY_ATOM_COUNT>
11

> <PUBCHEM_ATOM_DEF_STEREO_COUNT>
0

> <PUBCHEM_ATOM_UDEF_STEREO_COUNT>
0

> <PUBCHEM_BOND_DEF_STEREO_COUNT>
0

> <PUBCHEM_BOND_UDEF_STEREO_COUNT>
0

> <PUBCHEM_ISOTOPIC_ATOM_COUNT>
0

> <PUBCHEM_COMPONENT_COUNT>
1

> <PUBCHEM_CACTVS_TAUTO_COUNT>
1

> <PUBCHEM_CONFORMER_ID>
000028D800000001

> <PUBCHEM_MMFF94_ENERGY>
1.0214

> <PUBCHEM_FEATURE_SELFOVERLAP>
40.709

> <PUBCHEM_SHAPE_FINGERPRINT>
11062470 55 18410855460170463752
11987891 38 18409728469379078566
14123238 8 18186520994769802236
14325111 11 18410856563955868872
17834072 33 18340484461477958404
17834076 25 14908183062360696909
18342897 14 17967250896869338272
190213 19 18410576184174745665
20645477 70 18338234976905203974
20719005 15 18410573985162013632
20828058 44 18335421257534174207
22485316 2 18410577283686457894
23402539 116 18343590633202398957
23402655 69 18411702105656742644
42 15 18410011052604765366
42788 4 18410855460128317701
77779 3 18410573985151561572

> <PUBCHEM_SHAPE_MULTIPOLES>
197.92
10.53
1.05
0.57
0
0.25
0
0.39
0.04
0
0
0
-0.01
-0.01

> <PUBCHEM_SHAPE_SELFOVERLAP>
370.476

> <PUBCHEM_SHAPE_VOLUME>
122.7

> <PUBCHEM_COORDINATE_TYPE>
2
5
10

$$$$

