64139
  -OEChem-07051212542D

 30 32  0     1  0  0  0  0  0999 V2000
    7.2622    0.4649    0.0000 Cl  0  0  0  0  0  0  0  0  0  0  0  0
    2.7320   -1.2430    0.0000 F   0  0  0  0  0  0  0  0  0  0  0  0
    2.3660    0.1230    0.0000 F   0  0  0  0  0  0  0  0  0  0  0  0
    3.7320   -1.2430    0.0000 F   0  0  0  0  0  0  0  0  0  0  0  0
    2.8660    0.9890    0.0000 O   0  0  0  0  0  0  0  0  0  0  0  0
    2.0000    2.4890    0.0000 O   0  0  0  0  0  0  0  0  0  0  0  0
    3.7320    2.4890    0.0000 N   0  0  0  0  0  0  0  0  0  0  0  0
    5.2320   -2.1090    0.0000 C   0  0  0  0  0  0  0  0  0  0  0  0
    5.2320   -3.1090    0.0000 C   0  0  0  0  0  0  0  0  0  0  0  0
    6.0981   -2.6090    0.0000 C   0  0  0  0  0  0  0  0  0  0  0  0
    3.7320    0.4890    0.0000 C   0  0  2  0  0  0  0  0  0  0  0  0
    4.7320   -1.2430    0.0000 C   0  0  0  0  0  0  0  0  0  0  0  0
    4.5981    0.9890    0.0000 C   0  0  0  0  0  0  0  0  0  0  0  0
    4.2320   -0.3770    0.0000 C   0  0  0  0  0  0  0  0  0  0  0  0
    4.5981    1.9890    0.0000 C   0  0  0  0  0  0  0  0  0  0  0  0
    3.2320   -0.3770    0.0000 C   0  0  0  0  0  0  0  0  0  0  0  0
    5.4920    0.4544    0.0000 C   0  0  0  0  0  0  0  0  0  0  0  0
    5.4920    2.5237    0.0000 C   0  0  0  0  0  0  0  0  0  0  0  0
    2.8660    1.9890    0.0000 C   0  0  0  0  0  0  0  0  0  0  0  0
    6.3981    0.9682    0.0000 C   0  0  0  0  0  0  0  0  0  0  0  0
    6.3981    2.0098    0.0000 C   0  0  0  0  0  0  0  0  0  0  0  0
    4.6332   -2.2695    0.0000 H   0  0  0  0  0  0  0  0  0  0  0  0
    4.6215   -3.2167    0.0000 H   0  0  0  0  0  0  0  0  0  0  0  0
    5.4441   -3.6916    0.0000 H   0  0  0  0  0  0  0  0  0  0  0  0
    6.4966   -3.0840    0.0000 H   0  0  0  0  0  0  0  0  0  0  0  0
    6.4966   -2.1341    0.0000 H   0  0  0  0  0  0  0  0  0  0  0  0
    5.4848   -0.1656    0.0000 H   0  0  0  0  0  0  0  0  0  0  0  0
    3.7320    3.1090    0.0000 H   0  0  0  0  0  0  0  0  0  0  0  0
    5.4848    3.1437    0.0000 H   0  0  0  0  0  0  0  0  0  0  0  0
    6.9338    2.3219    0.0000 H   0  0  0  0  0  0  0  0  0  0  0  0
  1 20  1  0  0  0  0
  2 16  1  0  0  0  0
  3 16  1  0  0  0  0
  4 16  1  0  0  0  0
  5 11  1  0  0  0  0
  5 19  1  0  0  0  0
  6 19  2  0  0  0  0
  7 15  1  0  0  0  0
  7 19  1  0  0  0  0
  7 28  1  0  0  0  0
  8  9  1  0  0  0  0
  8 10  1  0  0  0  0
  8 12  1  0  0  0  0
  8 22  1  0  0  0  0
  9 10  1  0  0  0  0
  9 23  1  0  0  0  0
  9 24  1  0  0  0  0
 10 25  1  0  0  0  0
 10 26  1  0  0  0  0
 11 13  1  0  0  0  0
 11 14  1  6  0  0  0
 11 16  1  0  0  0  0
 12 14  3  0  0  0  0
 13 15  2  0  0  0  0
 13 17  1  0  0  0  0
 15 18  1  0  0  0  0
 17 20  2  0  0  0  0
 17 27  1  0  0  0  0
 18 21  2  0  0  0  0
 18 29  1  0  0  0  0
 20 21  1  0  0  0  0
 21 30  1  0  0  0  0
M  END
> <PUBCHEM_COMPOUND_CID>
64139

> <PUBCHEM_COMPOUND_CANONICALIZED>
1

> <PUBCHEM_CACTVS_COMPLEXITY>
519

> <PUBCHEM_CACTVS_HBOND_ACCEPTOR>
5

> <PUBCHEM_CACTVS_HBOND_DONOR>
1

> <PUBCHEM_CACTVS_ROTATABLE_BOND>
1

> <PUBCHEM_CACTVS_SUBSKEYS>
AAADccByMYAEAAAAAAAAAAAAGAAAAAAAAAA8QAAAAAAAAACxAAAAHwIQAAAADU6BmDAwyILABADIEiRCWAiCAAAhBwAIiAAAbokIJiLBs5mMMAhm1AFI6AeQwOAOgABAIAACAAAAAIBAAAQAAAAAAAAAAA==

> <PUBCHEM_IUPAC_OPENEYE_NAME>
(4S)-6-chloro-4-(2-cyclopropylethynyl)-4-(trifluoromethyl)-1H-3,1-benzoxazin-2-one

> <PUBCHEM_IUPAC_CAS_NAME>
(4S)-6-chloro-4-(2-cyclopropylethynyl)-4-(trifluoromethyl)-1H-3,1-benzoxazin-2-one

> <PUBCHEM_IUPAC_NAME>
(4S)-6-chloro-4-(2-cyclopropylethynyl)-4-(trifluoromethyl)-1H-3,1-benzoxazin-2-one

> <PUBCHEM_IUPAC_SYSTEMATIC_NAME>
(4S)-6-chloranyl-4-(2-cyclopropylethynyl)-4-(trifluoromethyl)-1H-3,1-benzoxazin-2-one

> <PUBCHEM_IUPAC_TRADITIONAL_NAME>
(4S)-6-chloro-4-(2-cyclopropylethynyl)-4-(trifluoromethyl)-1H-3,1-benzoxazin-2-one

> <PUBCHEM_IUPAC_INCHI>
InChI=1S/C14H9ClF3NO2/c15-9-3-4-11-10(7-9)13(14(16,17)18,21-12(20)19-11)6-5-8-1-2-8/h3-4,7-8H,1-2H2,(H,19,20)/t13-/m0/s1

> <PUBCHEM_IUPAC_INCHIKEY>
XPOQHMRABVBWPR-ZDUSSCGKSA-N

> <PUBCHEM_XLOGP3_AA>
4

> <PUBCHEM_EXACT_MASS>
315.027391

> <PUBCHEM_MOLECULAR_FORMULA>
C14H9ClF3NO2

> <PUBCHEM_MOLECULAR_WEIGHT>
315.67497

> <PUBCHEM_OPENEYE_CAN_SMILES>
C1CC1C#CC2(C3=C(C=CC(=C3)Cl)NC(=O)O2)C(F)(F)F

> <PUBCHEM_OPENEYE_ISO_SMILES>
C1CC1C#C[C@]2(C3=C(C=CC(=C3)Cl)NC(=O)O2)C(F)(F)F

> <PUBCHEM_CACTVS_TPSA>
38.3

> <PUBCHEM_MONOISOTOPIC_WEIGHT>
315.027391

> <PUBCHEM_TOTAL_CHARGE>
0

> <PUBCHEM_HEAVY_ATOM_COUNT>
21

> <PUBCHEM_ATOM_DEF_STEREO_COUNT>
1

> <PUBCHEM_ATOM_UDEF_STEREO_COUNT>
0

> <PUBCHEM_BOND_DEF_STEREO_COUNT>
0

> <PUBCHEM_BOND_UDEF_STEREO_COUNT>
0

> <PUBCHEM_ISOTOPIC_ATOM_COUNT>
0

> <PUBCHEM_COMPONENT_COUNT>
1

> <PUBCHEM_CACTVS_TAUTO_COUNT>
2

> <PUBCHEM_COORDINATE_TYPE>
1
5
255

> <PUBCHEM_BONDANNOTATIONS>
11  14  6
13  15  8
13  17  8
15  18  8
17  20  8
18  21  8
20  21  8

$$$$

