440379
  -OEChem-07051212493D

 48 49  0     1  0  0  0  0  0999 V2000
    2.7882   -1.9012   -1.6386 O   0  0  0  0  0  0  0  0  0  0  0  0
    4.0801   -2.9471   -0.0401 O   0  0  0  0  0  0  0  0  0  0  0  0
   -6.4305    1.5956   -0.7518 O   0  5  0  0  0  0  0  0  0  0  0  0
    3.7967    3.7513   -1.4058 O   0  5  0  0  0  0  0  0  0  0  0  0
   -6.6551   -0.5850   -0.8676 O   0  0  0  0  0  0  0  0  0  0  0  0
    4.1506    4.0174    0.7443 O   0  0  0  0  0  0  0  0  0  0  0  0
   -0.5820   -0.2014    0.9252 N   0  0  0  0  0  0  0  0  0  0  0  0
    2.1209   -4.6394    0.6007 N   0  0  0  0  0  0  0  0  0  0  0  0
   -5.9626    0.4365   -0.6405 N   0  3  0  0  0  0  0  0  0  0  0  0
    3.5303    3.4863   -0.2086 N   0  3  0  0  0  0  0  0  0  0  0  0
    0.9136   -2.0804    1.3872 C   0  0  0  0  0  0  0  0  0  0  0  0
   -0.2582   -1.2338    1.8799 C   0  0  0  0  0  0  0  0  0  0  0  0
    0.6160   -2.7814    0.0540 C   0  0  0  0  0  0  0  0  0  0  0  0
    1.7826   -3.6533   -0.4269 C   0  0  1  0  0  0  0  0  0  0  0  0
   -1.9470   -0.0392    0.5291 C   0  0  0  0  0  0  0  0  0  0  0  0
    0.4610    0.7325    0.6374 C   0  0  0  0  0  0  0  0  0  0  0  0
    3.0306   -2.8217   -0.6586 C   0  0  0  0  0  0  0  0  0  0  0  0
   -2.7360   -1.1603    0.2717 C   0  0  0  0  0  0  0  0  0  0  0  0
    1.1643    1.3351    1.6804 C   0  0  0  0  0  0  0  0  0  0  0  0
   -2.4886    1.2396    0.3987 C   0  0  0  0  0  0  0  0  0  0  0  0
    0.7746    1.0426   -0.6860 C   0  0  0  0  0  0  0  0  0  0  0  0
   -4.0666   -1.0027   -0.1158 C   0  0  0  0  0  0  0  0  0  0  0  0
    2.1813    2.2476    1.4001 C   0  0  0  0  0  0  0  0  0  0  0  0
   -3.8192    1.3974    0.0111 C   0  0  0  0  0  0  0  0  0  0  0  0
    1.7916    1.9550   -0.9663 C   0  0  0  0  0  0  0  0  0  0  0  0
   -4.6082    0.2762   -0.2461 C   0  0  0  0  0  0  0  0  0  0  0  0
    2.4950    2.5575    0.0767 C   0  0  0  0  0  0  0  0  0  0  0  0
    3.8766   -1.0235   -1.9436 C   0  0  0  0  0  0  0  0  0  0  0  0
    1.8223   -1.4744    1.3054 H   0  0  0  0  0  0  0  0  0  0  0  0
    1.1195   -2.8276    2.1632 H   0  0  0  0  0  0  0  0  0  0  0  0
   -0.0165   -0.8066    2.8608 H   0  0  0  0  0  0  0  0  0  0  0  0
   -1.0986   -1.9055    2.0917 H   0  0  0  0  0  0  0  0  0  0  0  0
    0.3749   -2.0465   -0.7215 H   0  0  0  0  0  0  0  0  0  0  0  0
   -0.2730   -3.4138    0.1722 H   0  0  0  0  0  0  0  0  0  0  0  0
    1.5260   -4.1720   -1.3567 H   0  0  0  0  0  0  0  0  0  0  0  0
   -2.3418   -2.1696    0.3359 H   0  0  0  0  0  0  0  0  0  0  0  0
    0.9290    1.1341    2.7213 H   0  0  0  0  0  0  0  0  0  0  0  0
   -1.9009    2.1302    0.6044 H   0  0  0  0  0  0  0  0  0  0  0  0
    0.2392    0.5764   -1.5093 H   0  0  0  0  0  0  0  0  0  0  0  0
    1.3064   -5.2202    0.7970 H   0  0  0  0  0  0  0  0  0  0  0  0
    2.8392   -5.2700    0.2460 H   0  0  0  0  0  0  0  0  0  0  0  0
   -4.6499   -1.8984   -0.3139 H   0  0  0  0  0  0  0  0  0  0  0  0
    2.7047    2.7015    2.2378 H   0  0  0  0  0  0  0  0  0  0  0  0
   -4.2083    2.4085   -0.0776 H   0  0  0  0  0  0  0  0  0  0  0  0
    2.0100    2.1704   -2.0091 H   0  0  0  0  0  0  0  0  0  0  0  0
    3.5498   -0.3360   -2.7282 H   0  0  0  0  0  0  0  0  0  0  0  0
    4.7321   -1.5968   -2.3131 H   0  0  0  0  0  0  0  0  0  0  0  0
    4.1540   -0.4419   -1.0593 H   0  0  0  0  0  0  0  0  0  0  0  0
  1 17  1  0  0  0  0
  1 28  1  0  0  0  0
  2 17  2  0  0  0  0
  3  9  1  0  0  0  0
  4 10  1  0  0  0  0
  5  9  2  0  0  0  0
  6 10  2  0  0  0  0
  7 12  1  0  0  0  0
  7 15  1  0  0  0  0
  7 16  1  0  0  0  0
  8 14  1  0  0  0  0
  8 40  1  0  0  0  0
  8 41  1  0  0  0  0
  9 26  1  0  0  0  0
 10 27  1  0  0  0  0
 11 12  1  0  0  0  0
 11 13  1  0  0  0  0
 11 29  1  0  0  0  0
 11 30  1  0  0  0  0
 12 31  1  0  0  0  0
 12 32  1  0  0  0  0
 13 14  1  0  0  0  0
 13 33  1  0  0  0  0
 13 34  1  0  0  0  0
 14 17  1  0  0  0  0
 14 35  1  0  0  0  0
 15 18  2  0  0  0  0
 15 20  1  0  0  0  0
 16 19  2  0  0  0  0
 16 21  1  0  0  0  0
 18 22  1  0  0  0  0
 18 36  1  0  0  0  0
 19 23  1  0  0  0  0
 19 37  1  0  0  0  0
 20 24  2  0  0  0  0
 20 38  1  0  0  0  0
 21 25  2  0  0  0  0
 21 39  1  0  0  0  0
 22 26  2  0  0  0  0
 22 42  1  0  0  0  0
 23 27  2  0  0  0  0
 23 43  1  0  0  0  0
 24 26  1  0  0  0  0
 24 44  1  0  0  0  0
 25 27  1  0  0  0  0
 25 45  1  0  0  0  0
 28 46  1  0  0  0  0
 28 47  1  0  0  0  0
 28 48  1  0  0  0  0
M  CHG  4   3  -1   4  -1   9   1  10   1
M  END
> <PUBCHEM_COMPOUND_CID>
440379

> <PUBCHEM_CONFORMER_RMSD>
1

> <PUBCHEM_CONFORMER_DIVERSEORDER>
1
43
6
41
10
13
16
14
44
28
48
47
3
42
34
8
52
31
32
45
22
36
26
50
24
25
38
12
21
20
39
7
46
49
19
33
17
37
27
4
40
15
51
35
5
9
29
18
30
2
23
11

> <PUBCHEM_MMFF94_PARTIAL_CHARGES>
36
1 -0.43
10 0.91
12 0.37
14 0.33
15 0.1
16 0.1
17 0.66
18 -0.15
19 -0.15
2 -0.57
20 -0.15
21 -0.15
22 -0.15
23 -0.15
24 -0.15
25 -0.15
26 0.13
27 0.13
28 0.28
3 -0.52
36 0.15
37 0.15
38 0.15
39 0.15
4 -0.52
40 0.36
41 0.36
42 0.15
43 0.15
44 0.15
45 0.15
5 -0.52
6 -0.52
7 -0.57
8 -0.99
9 0.91

> <PUBCHEM_EFFECTIVE_ROTOR_COUNT>
10

> <PUBCHEM_PHARMACOPHORE_FEATURES>
12
1 2 acceptor
1 3 acceptor
1 3 anion
1 4 acceptor
1 4 anion
1 5 acceptor
1 6 acceptor
1 7 cation
1 8 cation
1 8 donor
6 15 18 20 22 24 26 rings
6 16 19 21 23 25 27 rings

> <PUBCHEM_HEAVY_ATOM_COUNT>
28

> <PUBCHEM_ATOM_DEF_STEREO_COUNT>
1

> <PUBCHEM_ATOM_UDEF_STEREO_COUNT>
0

> <PUBCHEM_BOND_DEF_STEREO_COUNT>
0

> <PUBCHEM_BOND_UDEF_STEREO_COUNT>
0

> <PUBCHEM_ISOTOPIC_ATOM_COUNT>
0

> <PUBCHEM_COMPONENT_COUNT>
1

> <PUBCHEM_CACTVS_TAUTO_COUNT>
1

> <PUBCHEM_CONFORMER_ID>
0006B83B00000001

> <PUBCHEM_MMFF94_ENERGY>
95.2816

> <PUBCHEM_FEATURE_SELFOVERLAP>
61.056

> <PUBCHEM_SHAPE_FINGERPRINT>
10675989 125 18408315580016480616
10721379 63 18336824285847436345
10930396 42 18337974346185029082
11370993 70 18193831544883646876
12156800 1 14762691359021053830
12661589 4 15503237570234340069
12788726 201 17333357408398366442
14117953 113 18411135849717778556
14739800 52 12895063016672435959
15439362 3 18412267233158732401
15664445 248 18116422838043629422
15950262 2 15336547204985292430
167882 2 18411416172904866370
17492 54 18269817844270732342
1813 80 17898291851379602171
20388580 30 18187930650381411475
20554085 129 17896615981190238520
20771845 165 18198615550051966860
22182313 1 17987215760672088515
23559900 14 18262251018422923403
23598288 3 17338159602937008728
27425 322 16986871225868502388
3298306 158 18190172387476943236
4017518 198 18188205387635525294
46194498 28 18341619247872388783
513532 50 17989211455785726781
5265222 85 17835509428839798596
532947 4 18409439277010450482
6004065 56 18408604781986976886
6443956 14 18336827610447593856
6669772 16 18336544902504065390
7364860 26 18335710463599717635
9981440 41 18124313813619964849

> <PUBCHEM_SHAPE_MULTIPOLES>
521.09
10.7
5.27
1.49
19.63
0.79
0.09
-3.17
-5.01
-10.04
-0.06
-1.11
-0.02
0.62

> <PUBCHEM_SHAPE_SELFOVERLAP>
1098

> <PUBCHEM_SHAPE_VOLUME>
293

> <PUBCHEM_COORDINATE_TYPE>
2
5
10

$$$$

