17396074
  -OEChem-06241222542D

 33 34  0     0  0  0  0  0  0999 V2000
    6.2619    0.8544    0.0000 S   0  0  0  0  0  0  0  0  0  0  0  0
    8.2619    0.8544    0.0000 O   0  0  0  0  0  0  0  0  0  0  0  0
    9.2619   -2.6097    0.0000 O   0  0  0  0  0  0  0  0  0  0  0  0
    4.6783    1.6592    0.0000 N   0  0  0  0  0  0  0  0  0  0  0  0
    4.6783    0.0497    0.0000 N   0  0  0  0  0  0  0  0  0  0  0  0
    8.2619   -0.8776    0.0000 N   0  0  0  0  0  0  0  0  0  0  0  0
    9.2619   -0.8776    0.0000 N   0  0  0  0  0  0  0  0  0  0  0  0
    3.7320    1.3544    0.0000 C   0  0  0  0  0  0  0  0  0  0  0  0
    3.7320    0.3544    0.0000 C   0  0  0  0  0  0  0  0  0  0  0  0
    5.2619    0.8544    0.0000 C   0  0  0  0  0  0  0  0  0  0  0  0
    2.8660    1.8544    0.0000 C   0  0  0  0  0  0  0  0  0  0  0  0
    4.9889    2.6097    0.0000 C   0  0  0  0  0  0  0  0  0  0  0  0
    2.8660   -0.1456    0.0000 C   0  0  0  0  0  0  0  0  0  0  0  0
    2.0000    1.3544    0.0000 C   0  0  0  0  0  0  0  0  0  0  0  0
    2.0000    0.3544    0.0000 C   0  0  0  0  0  0  0  0  0  0  0  0
    6.7619   -0.0116    0.0000 C   0  0  0  0  0  0  0  0  0  0  0  0
    7.7619   -0.0116    0.0000 C   0  0  0  0  0  0  0  0  0  0  0  0
    9.7619   -1.7436    0.0000 C   0  0  0  0  0  0  0  0  0  0  0  0
   10.7619   -1.7436    0.0000 C   0  0  0  0  0  0  0  0  0  0  0  0
    2.8660    2.4744    0.0000 H   0  0  0  0  0  0  0  0  0  0  0  0
    5.5783    2.4171    0.0000 H   0  0  0  0  0  0  0  0  0  0  0  0
    5.1815    3.1990    0.0000 H   0  0  0  0  0  0  0  0  0  0  0  0
    4.3996    2.8023    0.0000 H   0  0  0  0  0  0  0  0  0  0  0  0
    2.8660   -0.7656    0.0000 H   0  0  0  0  0  0  0  0  0  0  0  0
    1.4631    1.6644    0.0000 H   0  0  0  0  0  0  0  0  0  0  0  0
    1.4631    0.0444    0.0000 H   0  0  0  0  0  0  0  0  0  0  0  0
    6.1793   -0.2237    0.0000 H   0  0  0  0  0  0  0  0  0  0  0  0
    6.8695   -0.6222    0.0000 H   0  0  0  0  0  0  0  0  0  0  0  0
    7.9519   -1.4146    0.0000 H   0  0  0  0  0  0  0  0  0  0  0  0
    9.5719   -0.3407    0.0000 H   0  0  0  0  0  0  0  0  0  0  0  0
   10.7619   -2.3636    0.0000 H   0  0  0  0  0  0  0  0  0  0  0  0
   11.3819   -1.7436    0.0000 H   0  0  0  0  0  0  0  0  0  0  0  0
   10.7619   -1.1236    0.0000 H   0  0  0  0  0  0  0  0  0  0  0  0
  1 10  1  0  0  0  0
  1 16  1  0  0  0  0
  2 17  2  0  0  0  0
  3 18  2  0  0  0  0
  4  8  1  0  0  0  0
  4 10  1  0  0  0  0
  4 12  1  0  0  0  0
  5  9  1  0  0  0  0
  5 10  2  0  0  0  0
  6  7  1  0  0  0  0
  6 17  1  0  0  0  0
  6 29  1  0  0  0  0
  7 18  1  0  0  0  0
  7 30  1  0  0  0  0
  8  9  1  0  0  0  0
  8 11  2  0  0  0  0
  9 13  2  0  0  0  0
 11 14  1  0  0  0  0
 11 20  1  0  0  0  0
 12 21  1  0  0  0  0
 12 22  1  0  0  0  0
 12 23  1  0  0  0  0
 13 15  1  0  0  0  0
 13 24  1  0  0  0  0
 14 15  2  0  0  0  0
 14 25  1  0  0  0  0
 15 26  1  0  0  0  0
 16 17  1  0  0  0  0
 16 27  1  0  0  0  0
 16 28  1  0  0  0  0
 18 19  1  0  0  0  0
 19 31  1  0  0  0  0
 19 32  1  0  0  0  0
 19 33  1  0  0  0  0
M  END
> <PUBCHEM_COMPOUND_CID>
17396074

> <PUBCHEM_COMPOUND_CANONICALIZED>
1

> <PUBCHEM_CACTVS_COMPLEXITY>
353

> <PUBCHEM_CACTVS_HBOND_ACCEPTOR>
4

> <PUBCHEM_CACTVS_HBOND_DONOR>
2

> <PUBCHEM_CACTVS_ROTATABLE_BOND>
3

> <PUBCHEM_CACTVS_SUBSKEYS>
AAADccBzsABAAAAAAAAAAAAAAAAAAWAAAAAwAAAAAAAAAFgB8AAAHgQYAAAACAiF1gSz0LduEAioASVydACC0C1hErIb+CA4dJiIaKLAmZGUIAhokAJIyCcQAAAAAAAAAAAAACAAAAAAAAAAQAAAAAAAAA==

> <PUBCHEM_IUPAC_OPENEYE_NAME>
N'-acetyl-2-(1-methylbenzimidazol-2-yl)sulfanyl-acetohydrazide

> <PUBCHEM_IUPAC_CAS_NAME>
N'-acetyl-2-[(1-methyl-2-benzimidazolyl)thio]acetohydrazide

> <PUBCHEM_IUPAC_NAME>
N'-acetyl-2-(1-methylbenzimidazol-2-yl)sulfanylacetohydrazide

> <PUBCHEM_IUPAC_SYSTEMATIC_NAME>
N'-ethanoyl-2-(1-methylbenzimidazol-2-yl)sulfanyl-ethanehydrazide

> <PUBCHEM_IUPAC_TRADITIONAL_NAME>
N'-acetyl-2-[(1-methylbenzimidazol-2-yl)thio]acetohydrazide

> <PUBCHEM_IUPAC_INCHI>
InChI=1S/C12H14N4O2S/c1-8(17)14-15-11(18)7-19-12-13-9-5-3-4-6-10(9)16(12)2/h3-6H,7H2,1-2H3,(H,14,17)(H,15,18)

> <PUBCHEM_IUPAC_INCHIKEY>
FRZUPLMPNZRVKN-UHFFFAOYSA-N

> <PUBCHEM_XLOGP3_AA>
1.1

> <PUBCHEM_EXACT_MASS>
278.083747

> <PUBCHEM_MOLECULAR_FORMULA>
C12H14N4O2S

> <PUBCHEM_MOLECULAR_WEIGHT>
278.33016

> <PUBCHEM_OPENEYE_CAN_SMILES>
CC(=O)NNC(=O)CSC1=NC2=CC=CC=C2N1C

> <PUBCHEM_OPENEYE_ISO_SMILES>
CC(=O)NNC(=O)CSC1=NC2=CC=CC=C2N1C

> <PUBCHEM_CACTVS_TPSA>
101

> <PUBCHEM_MONOISOTOPIC_WEIGHT>
278.083747

> <PUBCHEM_TOTAL_CHARGE>
0

> <PUBCHEM_HEAVY_ATOM_COUNT>
19

> <PUBCHEM_ATOM_DEF_STEREO_COUNT>
0

> <PUBCHEM_ATOM_UDEF_STEREO_COUNT>
0

> <PUBCHEM_BOND_DEF_STEREO_COUNT>
0

> <PUBCHEM_BOND_UDEF_STEREO_COUNT>
0

> <PUBCHEM_ISOTOPIC_ATOM_COUNT>
0

> <PUBCHEM_COMPONENT_COUNT>
1

> <PUBCHEM_CACTVS_TAUTO_COUNT>
4

> <PUBCHEM_COORDINATE_TYPE>
1
5
255

> <PUBCHEM_BONDANNOTATIONS>
11  14  8
13  15  8
14  15  8
4  10  8
4  8  8
5  10  8
5  9  8
8  11  8
8  9  8
9  13  8

$$$$

