6451137
  -OEChem-07051213122D

 48 50  0     0  0  0  0  0  0999 V2000
    6.4641   -0.7500    0.0000 S   0  0  0  0  0  0  0  0  0  0  0  0
    4.7320    1.2500    0.0000 O   0  0  0  0  0  0  0  0  0  0  0  0
    5.9641   -1.6160    0.0000 O   0  0  0  0  0  0  0  0  0  0  0  0
    6.9641    0.1160    0.0000 O   0  0  0  0  0  0  0  0  0  0  0  0
    8.1962    0.2500    0.0000 O   0  0  0  0  0  0  0  0  0  0  0  0
   12.5263   -1.2500    0.0000 O   0  0  0  0  0  0  0  0  0  0  0  0
   10.7942    1.7500    0.0000 O   0  0  0  0  0  0  0  0  0  0  0  0
    5.5981   -0.2500    0.0000 N   0  0  0  0  0  0  0  0  0  0  0  0
    7.3301   -1.2500    0.0000 N   0  0  0  0  0  0  0  0  0  0  0  0
    9.0622   -1.2500    0.0000 N   0  0  0  0  0  0  0  0  0  0  0  0
   10.7942   -1.2500    0.0000 N   0  0  0  0  0  0  0  0  0  0  0  0
    9.9282    0.2500    0.0000 N   0  0  0  0  0  0  0  0  0  0  0  0
    3.0000    1.2500    0.0000 C   0  0  0  0  0  0  0  0  0  0  0  0
    2.5000    2.1160    0.0000 C   0  0  0  0  0  0  0  0  0  0  0  0
    2.0000    1.2500    0.0000 C   0  0  0  0  0  0  0  0  0  0  0  0
    3.8660    0.7500    0.0000 C   0  0  0  0  0  0  0  0  0  0  0  0
    3.8660   -0.2500    0.0000 C   0  0  0  0  0  0  0  0  0  0  0  0
    4.7320   -0.7500    0.0000 C   0  0  0  0  0  0  0  0  0  0  0  0
    3.0000   -0.7500    0.0000 C   0  0  0  0  0  0  0  0  0  0  0  0
    4.7320   -1.7500    0.0000 C   0  0  0  0  0  0  0  0  0  0  0  0
    3.0000   -1.7500    0.0000 C   0  0  0  0  0  0  0  0  0  0  0  0
    3.8660   -2.2500    0.0000 C   0  0  0  0  0  0  0  0  0  0  0  0
    8.1962   -0.7500    0.0000 C   0  0  0  0  0  0  0  0  0  0  0  0
    9.9282   -0.7500    0.0000 C   0  0  0  0  0  0  0  0  0  0  0  0
   11.6603   -0.7500    0.0000 C   0  0  0  0  0  0  0  0  0  0  0  0
   10.7942    0.7500    0.0000 C   0  0  0  0  0  0  0  0  0  0  0  0
   11.6603    0.2500    0.0000 C   0  0  0  0  0  0  0  0  0  0  0  0
   13.3923   -0.7500    0.0000 C   0  0  0  0  0  0  0  0  0  0  0  0
   11.6603    2.2500    0.0000 C   0  0  0  0  0  0  0  0  0  0  0  0
    2.8395    0.6511    0.0000 H   0  0  0  0  0  0  0  0  0  0  0  0
    2.9750    2.5146    0.0000 H   0  0  0  0  0  0  0  0  0  0  0  0
    2.0250    2.5146    0.0000 H   0  0  0  0  0  0  0  0  0  0  0  0
    1.4174    1.4620    0.0000 H   0  0  0  0  0  0  0  0  0  0  0  0
    1.8923    0.6394    0.0000 H   0  0  0  0  0  0  0  0  0  0  0  0
    2.4631   -0.4400    0.0000 H   0  0  0  0  0  0  0  0  0  0  0  0
    5.2690   -2.0600    0.0000 H   0  0  0  0  0  0  0  0  0  0  0  0
    5.5981    0.3700    0.0000 H   0  0  0  0  0  0  0  0  0  0  0  0
    2.4631   -2.0600    0.0000 H   0  0  0  0  0  0  0  0  0  0  0  0
    3.8660   -2.8700    0.0000 H   0  0  0  0  0  0  0  0  0  0  0  0
    7.3301   -1.8700    0.0000 H   0  0  0  0  0  0  0  0  0  0  0  0
    9.0622   -1.8700    0.0000 H   0  0  0  0  0  0  0  0  0  0  0  0
   12.1972    0.5600    0.0000 H   0  0  0  0  0  0  0  0  0  0  0  0
   13.7023   -1.2869    0.0000 H   0  0  0  0  0  0  0  0  0  0  0  0
   13.9292   -0.4400    0.0000 H   0  0  0  0  0  0  0  0  0  0  0  0
   13.0823   -0.2131    0.0000 H   0  0  0  0  0  0  0  0  0  0  0  0
   11.9703    1.7131    0.0000 H   0  0  0  0  0  0  0  0  0  0  0  0
   12.1972    2.5600    0.0000 H   0  0  0  0  0  0  0  0  0  0  0  0
   11.3503    2.7869    0.0000 H   0  0  0  0  0  0  0  0  0  0  0  0
  1  3  2  0  0  0  0
  1  4  2  0  0  0  0
  1  8  1  0  0  0  0
  1  9  1  0  0  0  0
  2 16  2  0  0  0  0
  5 23  2  0  0  0  0
  6 25  1  0  0  0  0
  6 28  1  0  0  0  0
  7 26  1  0  0  0  0
  7 29  1  0  0  0  0
  8 18  1  0  0  0  0
  8 37  1  0  0  0  0
  9 23  1  0  0  0  0
  9 40  1  0  0  0  0
 10 23  1  0  0  0  0
 10 24  1  0  0  0  0
 10 41  1  0  0  0  0
 11 24  1  0  0  0  0
 11 25  2  0  0  0  0
 12 24  2  0  0  0  0
 12 26  1  0  0  0  0
 13 14  1  0  0  0  0
 13 15  1  0  0  0  0
 13 16  1  0  0  0  0
 13 30  1  0  0  0  0
 14 15  1  0  0  0  0
 14 31  1  0  0  0  0
 14 32  1  0  0  0  0
 15 33  1  0  0  0  0
 15 34  1  0  0  0  0
 16 17  1  0  0  0  0
 17 18  1  0  0  0  0
 17 19  2  0  0  0  0
 18 20  2  0  0  0  0
 19 21  1  0  0  0  0
 19 35  1  0  0  0  0
 20 22  1  0  0  0  0
 20 36  1  0  0  0  0
 21 22  2  0  0  0  0
 21 38  1  0  0  0  0
 22 39  1  0  0  0  0
 25 27  1  0  0  0  0
 26 27  2  0  0  0  0
 27 42  1  0  0  0  0
 28 43  1  0  0  0  0
 28 44  1  0  0  0  0
 28 45  1  0  0  0  0
 29 46  1  0  0  0  0
 29 47  1  0  0  0  0
 29 48  1  0  0  0  0
M  END
> <PUBCHEM_COMPOUND_CID>
6451137

> <PUBCHEM_COMPOUND_CANONICALIZED>
1

> <PUBCHEM_CACTVS_COMPLEXITY>
683

> <PUBCHEM_CACTVS_HBOND_ACCEPTOR>
9

> <PUBCHEM_CACTVS_HBOND_DONOR>
3

> <PUBCHEM_CACTVS_ROTATABLE_BOND>
8

> <PUBCHEM_CACTVS_SUBSKEYS>
AAADceB7uABAAAAAAAAAAAAAGAAAAAAAAAA8QAAAAAAAAAABwAAAHgAQQAAADQyBmgIz1JbIFACoAqRydDCCiCklIqAJmCE2bNiMLTrE/dmEJahrkQ5I6ecYiMCOAAAAAAACAAAAAAAAAAQAAAAAAAAAAA==

> <PUBCHEM_IUPAC_OPENEYE_NAME>
1-[[2-(cyclopropanecarbonyl)phenyl]sulfamoyl]-3-(4,6-dimethoxypyrimidin-2-yl)urea

> <PUBCHEM_IUPAC_CAS_NAME>
1-[[2-[cyclopropyl(oxo)methyl]phenyl]sulfamoyl]-3-(4,6-dimethoxy-2-pyrimidinyl)urea

> <PUBCHEM_IUPAC_NAME>
1-[[2-(cyclopropanecarbonyl)phenyl]sulfamoyl]-3-(4,6-dimethoxypyrimidin-2-yl)urea

> <PUBCHEM_IUPAC_SYSTEMATIC_NAME>
1-[(2-cyclopropylcarbonylphenyl)sulfamoyl]-3-(4,6-dimethoxypyrimidin-2-yl)urea

> <PUBCHEM_IUPAC_TRADITIONAL_NAME>
1-[[2-(cyclopropanecarbonyl)phenyl]sulfamoyl]-3-(4,6-dimethoxypyrimidin-2-yl)urea

> <PUBCHEM_IUPAC_INCHI>
InChI=1S/C17H19N5O6S/c1-27-13-9-14(28-2)19-16(18-13)20-17(24)22-29(25,26)21-12-6-4-3-5-11(12)15(23)10-7-8-10/h3-6,9-10,21H,7-8H2,1-2H3,(H2,18,19,20,22,24)

> <PUBCHEM_IUPAC_INCHIKEY>
OFSLKOLYLQSJPB-UHFFFAOYSA-N

> <PUBCHEM_XLOGP3_AA>
2.2

> <PUBCHEM_EXACT_MASS>
421.105604

> <PUBCHEM_MOLECULAR_FORMULA>
C17H19N5O6S

> <PUBCHEM_MOLECULAR_WEIGHT>
421.42766

> <PUBCHEM_OPENEYE_CAN_SMILES>
COC1=CC(=NC(=N1)NC(=O)NS(=O)(=O)NC2=CC=CC=C2C(=O)C3CC3)OC

> <PUBCHEM_OPENEYE_ISO_SMILES>
COC1=CC(=NC(=N1)NC(=O)NS(=O)(=O)NC2=CC=CC=C2C(=O)C3CC3)OC

> <PUBCHEM_CACTVS_TPSA>
157

> <PUBCHEM_MONOISOTOPIC_WEIGHT>
421.105604

> <PUBCHEM_TOTAL_CHARGE>
0

> <PUBCHEM_HEAVY_ATOM_COUNT>
29

> <PUBCHEM_ATOM_DEF_STEREO_COUNT>
0

> <PUBCHEM_ATOM_UDEF_STEREO_COUNT>
0

> <PUBCHEM_BOND_DEF_STEREO_COUNT>
0

> <PUBCHEM_BOND_UDEF_STEREO_COUNT>
0

> <PUBCHEM_ISOTOPIC_ATOM_COUNT>
0

> <PUBCHEM_COMPONENT_COUNT>
1

> <PUBCHEM_CACTVS_TAUTO_COUNT>
45

> <PUBCHEM_COORDINATE_TYPE>
1
5
255

> <PUBCHEM_BONDANNOTATIONS>
11  24  8
11  25  8
12  24  8
12  26  8
17  18  8
17  19  8
18  20  8
19  21  8
20  22  8
21  22  8
25  27  8
26  27  8

$$$$

