13027
  -OEChem-06261207403D

 16 16  0     0  0  0  0  0  0999 V2000
    1.4650    1.9578   -0.0070 O   0  0  0  0  0  0  0  0  0  0  0  0
   -1.7082   -0.5721   -0.0224 N   0  0  0  0  0  0  0  0  0  0  0  0
    3.0581   -1.3480    0.0094 N   0  0  0  0  0  0  0  0  0  0  0  0
   -0.4085   -1.0619   -0.0109 C   0  0  0  0  0  0  0  0  0  0  0  0
   -1.8807    0.8031    0.0056 C   0  0  0  0  0  0  0  0  0  0  0  0
    0.6993   -0.3036   -0.0044 C   0  0  0  0  0  0  0  0  0  0  0  0
   -2.8535   -1.4754    0.0146 C   0  0  0  0  0  0  0  0  0  0  0  0
   -0.8833    1.6961    0.0133 C   0  0  0  0  0  0  0  0  0  0  0  0
    0.5146    1.1825   -0.0016 C   0  0  0  0  0  0  0  0  0  0  0  0
    1.9972   -0.8785    0.0033 C   0  0  0  0  0  0  0  0  0  0  0  0
   -0.3572   -2.1465   -0.0078 H   0  0  0  0  0  0  0  0  0  0  0  0
   -2.9163    1.1244    0.0211 H   0  0  0  0  0  0  0  0  0  0  0  0
   -2.6403   -2.4103   -0.5158 H   0  0  0  0  0  0  0  0  0  0  0  0
   -3.7321   -1.0267   -0.4626 H   0  0  0  0  0  0  0  0  0  0  0  0
   -3.1087   -1.7163    1.0519 H   0  0  0  0  0  0  0  0  0  0  0  0
   -1.0547    2.7645    0.0324 H   0  0  0  0  0  0  0  0  0  0  0  0
  1  9  2  0  0  0  0
  2  4  1  0  0  0  0
  2  5  1  0  0  0  0
  2  7  1  0  0  0  0
  3 10  3  0  0  0  0
  4  6  2  0  0  0  0
  4 11  1  0  0  0  0
  5  8  2  0  0  0  0
  5 12  1  0  0  0  0
  6  9  1  0  0  0  0
  6 10  1  0  0  0  0
  7 13  1  0  0  0  0
  7 14  1  0  0  0  0
  7 15  1  0  0  0  0
  8  9  1  0  0  0  0
  8 16  1  0  0  0  0
M  END
> <PUBCHEM_COMPOUND_CID>
13027

> <PUBCHEM_CONFORMER_RMSD>
0.4

> <PUBCHEM_CONFORMER_DIVERSEORDER>
1

> <PUBCHEM_MMFF94_PARTIAL_CHARGES>
13
1 -0.57
10 0.49
11 0.15
12 0.15
16 0.15
2 -0.57
3 -0.56
4 -0.05
5 -0.05
6 0.08
7 0.37
8 -0.14
9 0.54

> <PUBCHEM_EFFECTIVE_ROTOR_COUNT>
0

> <PUBCHEM_PHARMACOPHORE_FEATURES>
4
1 1 acceptor
1 2 cation
1 3 acceptor
6 2 4 5 6 8 9 rings

> <PUBCHEM_HEAVY_ATOM_COUNT>
10

> <PUBCHEM_ATOM_DEF_STEREO_COUNT>
0

> <PUBCHEM_ATOM_UDEF_STEREO_COUNT>
0

> <PUBCHEM_BOND_DEF_STEREO_COUNT>
0

> <PUBCHEM_BOND_UDEF_STEREO_COUNT>
0

> <PUBCHEM_ISOTOPIC_ATOM_COUNT>
0

> <PUBCHEM_COMPONENT_COUNT>
1

> <PUBCHEM_CACTVS_TAUTO_COUNT>
1

> <PUBCHEM_CONFORMER_ID>
000032E300000001

> <PUBCHEM_MMFF94_ENERGY>
18.7674

> <PUBCHEM_FEATURE_SELFOVERLAP>
20.297

> <PUBCHEM_SHAPE_FINGERPRINT>
10857977 72 18336842977719292194
14128692 85 18411131442036873308
161256 15 18338796702196496140
16945 1 18266458900244624077
18185500 45 18198060480845847531
193761 8 18410573972451652773
20645477 70 18266467495160713471
20871998 184 18115310097552285918
20871998 22 18334565858815265326
21040471 1 17762055840678993284
23552423 10 18272367538214100684
241688 4 18413389851768602849
2748010 2 18411424981603306605
5084963 1 18259987067503302827

> <PUBCHEM_SHAPE_MULTIPOLES>
189.96
3.64
2.05
0.59
0.46
0.61
0
-2.05
0.02
0.04
0
-0.03
0
0

> <PUBCHEM_SHAPE_SELFOVERLAP>
391.223

> <PUBCHEM_SHAPE_VOLUME>
107.7

> <PUBCHEM_COORDINATE_TYPE>
2
5
10

$$$$

