5281200
  -OEChem-07051212553D

 42 42  0     1  0  0  0  0  0999 V2000
   -4.2482    2.5383   -0.3226 S   0  0  1  0  0  0  0  0  0  0  0  0
   -5.4880   -2.1020    1.1498 O   0  0  0  0  0  0  0  0  0  0  0  0
   -4.4098   -2.8378   -0.7056 O   0  0  0  0  0  0  0  0  0  0  0  0
    5.1150   -2.8388   -0.3208 O   0  0  0  0  0  0  0  0  0  0  0  0
   -5.6321    2.6753    0.2341 O   0  0  0  0  0  0  0  0  0  0  0  0
    6.0910   -0.7945   -0.5742 O   0  0  0  0  0  0  0  0  0  0  0  0
    3.2193    3.2287   -0.6315 O   0  0  0  0  0  0  0  0  0  0  0  0
    3.0245    3.1533    1.6584 O   0  0  0  0  0  0  0  0  0  0  0  0
   -2.1261   -1.5724   -0.0508 N   0  0  0  0  0  0  0  0  0  0  0  0
    4.0128    0.4889    0.3827 N   0  0  0  0  0  0  0  0  0  0  0  0
   -3.2376   -1.3679    0.8471 C   0  0  1  0  0  0  0  0  0  0  0  0
   -3.6110    0.1196    0.9213 C   0  0  0  0  0  0  0  0  0  0  0  0
    2.6889   -1.3587   -0.6534 C   0  0  0  0  0  0  0  0  0  0  0  0
    3.8380   -0.9634    0.2749 C   0  0  1  0  0  0  0  0  0  0  0  0
    1.4511   -0.5593   -0.3484 C   0  0  0  0  0  0  0  0  0  0  0  0
   -3.8872    0.7622   -0.4368 C   0  0  0  0  0  0  0  0  0  0  0  0
    0.1764   -1.1594   -0.6446 C   0  0  0  0  0  0  0  0  0  0  0  0
    1.5488    0.6702    0.1756 C   0  0  0  0  0  0  0  0  0  0  0  0
   -0.8916   -1.0431    0.1488 C   0  0  0  0  0  0  0  0  0  0  0  0
   -4.4081   -2.1824    0.3283 C   0  0  0  0  0  0  0  0  0  0  0  0
    2.9244    1.1745    0.3649 C   0  0  0  0  0  0  0  0  0  0  0  0
    5.1367   -1.4853   -0.2496 C   0  0  0  0  0  0  0  0  0  0  0  0
   -4.3462    2.8116   -2.1076 C   0  0  0  0  0  0  0  0  0  0  0  0
    3.0592    2.6424    0.5600 C   0  0  0  0  0  0  0  0  0  0  0  0
   -2.9839   -1.7534    1.8420 H   0  0  0  0  0  0  0  0  0  0  0  0
   -4.4924    0.2474    1.5630 H   0  0  0  0  0  0  0  0  0  0  0  0
   -2.8064    0.6749    1.4206 H   0  0  0  0  0  0  0  0  0  0  0  0
    2.4891   -2.4316   -0.5331 H   0  0  0  0  0  0  0  0  0  0  0  0
    2.9611   -1.2056   -1.7063 H   0  0  0  0  0  0  0  0  0  0  0  0
    3.6935   -1.3699    1.2842 H   0  0  0  0  0  0  0  0  0  0  0  0
   -4.7399    0.2804   -0.9262 H   0  0  0  0  0  0  0  0  0  0  0  0
   -3.0171    0.6626   -1.0926 H   0  0  0  0  0  0  0  0  0  0  0  0
   -2.2683   -2.1013   -0.9057 H   0  0  0  0  0  0  0  0  0  0  0  0
    0.1110   -1.7415   -1.5601 H   0  0  0  0  0  0  0  0  0  0  0  0
    0.7094    1.3178    0.3954 H   0  0  0  0  0  0  0  0  0  0  0  0
   -0.8243   -0.4930    1.0825 H   0  0  0  0  0  0  0  0  0  0  0  0
   -3.3739    2.6092   -2.5631 H   0  0  0  0  0  0  0  0  0  0  0  0
   -4.6163    3.8553   -2.2850 H   0  0  0  0  0  0  0  0  0  0  0  0
   -5.1082    2.1617   -2.5443 H   0  0  0  0  0  0  0  0  0  0  0  0
   -6.2448   -2.6257    0.8103 H   0  0  0  0  0  0  0  0  0  0  0  0
    5.9589   -3.2012   -0.6651 H   0  0  0  0  0  0  0  0  0  0  0  0
    3.3154    4.2021   -0.5577 H   0  0  0  0  0  0  0  0  0  0  0  0
  1  5  2  0  0  0  0
  1 16  1  0  0  0  0
  1 23  1  0  0  0  0
  2 20  1  0  0  0  0
  2 40  1  0  0  0  0
  3 20  2  0  0  0  0
  4 22  1  0  0  0  0
  4 41  1  0  0  0  0
  6 22  2  0  0  0  0
  7 24  1  0  0  0  0
  7 42  1  0  0  0  0
  8 24  2  0  0  0  0
  9 11  1  0  0  0  0
  9 19  1  0  0  0  0
  9 33  1  0  0  0  0
 10 14  1  0  0  0  0
 10 21  2  0  0  0  0
 11 12  1  0  0  0  0
 11 20  1  0  0  0  0
 11 25  1  0  0  0  0
 12 16  1  0  0  0  0
 12 26  1  0  0  0  0
 12 27  1  0  0  0  0
 13 14  1  0  0  0  0
 13 15  1  0  0  0  0
 13 28  1  0  0  0  0
 13 29  1  0  0  0  0
 14 22  1  0  0  0  0
 14 30  1  0  0  0  0
 15 17  1  0  0  0  0
 15 18  2  0  0  0  0
 16 31  1  0  0  0  0
 16 32  1  0  0  0  0
 17 19  2  0  0  0  0
 17 34  1  0  0  0  0
 18 21  1  0  0  0  0
 18 35  1  0  0  0  0
 19 36  1  0  0  0  0
 21 24  1  0  0  0  0
 23 37  1  0  0  0  0
 23 38  1  0  0  0  0
 23 39  1  0  0  0  0
M  END
> <PUBCHEM_COMPOUND_CID>
5281200

> <PUBCHEM_CONFORMER_RMSD>
1

> <PUBCHEM_CONFORMER_DIVERSEORDER>
1
129
145
158
52
67
93
221
55
99
196
189
90
71
150
46
169
98
120
89
206
57
110
50
136
19
53
47
26
208
191
41
74
58
35
202
213
123
91
79
92
76
174
45
127
125
148
119
81
198
140
72
178
78
121
11
109
192
44
122
185
104
166
34
133
29
170
184
217
43
85
141
18
61
179
101
131
4
149
84
31
80
107
103
10
17
8
181
142
132
172
112
73
48
87
12
146
152
210
64
42
138
68
195
63
134
56
9
54
77
155
96
113
126
154
139
36
15
118
88
188
66
162
25
164
82
7
209
143
214
39
69
137
83
59
70
135
28
24
111
37
60
95
144
117
156
186
193
183
173
32
5
13
105
124
219
116
212
157
3
204
151
115
218
16
102
51
163
128
207
86
159
176
161
75
20
211
62
108
49
130
38
27
200
216
94
180
114
22
160
222
175
33
6
21
190
23
167
165
220
65
2
203
147
187
201
106
14
40
30
97
171
153
100
168
182
199
177
205
194
215
197

> <PUBCHEM_MMFF94_PARTIAL_CHARGES>
30
1 0.11
10 -0.7
11 0.43
13 0.14
14 0.31
15 -0.14
16 0.19
17 -0.15
18 -0.14
19 -0.05
2 -0.65
20 0.66
21 0.44
22 0.66
23 0.19
24 0.72
3 -0.57
33 0.4
34 0.15
35 0.15
36 0.15
4 -0.65
40 0.5
41 0.5
42 0.5
5 -0.5
6 -0.57
7 -0.65
8 -0.57
9 -0.87

> <PUBCHEM_EFFECTIVE_ROTOR_COUNT>
9.4

> <PUBCHEM_PHARMACOPHORE_FEATURES>
14
1 10 acceptor
1 2 acceptor
1 3 acceptor
1 4 acceptor
1 5 acceptor
1 6 acceptor
1 7 acceptor
1 8 acceptor
1 9 cation
1 9 donor
3 2 3 20 anion
3 4 6 22 anion
3 7 8 24 anion
6 10 13 14 15 18 21 rings

> <PUBCHEM_HEAVY_ATOM_COUNT>
24

> <PUBCHEM_ATOM_DEF_STEREO_COUNT>
0

> <PUBCHEM_ATOM_UDEF_STEREO_COUNT>
3

> <PUBCHEM_BOND_DEF_STEREO_COUNT>
1

> <PUBCHEM_BOND_UDEF_STEREO_COUNT>
0

> <PUBCHEM_ISOTOPIC_ATOM_COUNT>
0

> <PUBCHEM_COMPONENT_COUNT>
1

> <PUBCHEM_CACTVS_TAUTO_COUNT>
3

> <PUBCHEM_CONFORMER_ID>
005095B000000001

> <PUBCHEM_MMFF94_ENERGY>
42.3341

> <PUBCHEM_FEATURE_SELFOVERLAP>
71.22

> <PUBCHEM_SHAPE_FINGERPRINT>
10670039 82 18127399064923548052
11405975 8 18411702105857098937
11545043 162 18272930531238715811
12107183 9 18197222670155166314
12616971 3 17749104444382013183
13402501 40 18268995469481314381
13533116 47 18337105640433869363
13583140 156 18335986445266251735
14251764 38 18411704262105293925
14466204 15 18339928246049179050
14790565 3 17906451031492389324
15003188 100 18337966678814246429
15961568 22 17914053097081930813
17349148 13 16950276313056644970
17844677 252 18410286986952598223
17868525 174 18339648948821146104
20645477 56 18341889758103553987
21033648 29 18187378630956137634
21065198 57 18410855443001449427
21279426 13 18267582592944919934
21315764 268 18409731734007527459
21709351 56 18260831505260490014
23559900 14 18262243316818476994
4015057 19 18188225268369933065
4214541 1 18410008849423920003
508706 21 18201452401768076093
5104073 3 18412549803304430088
5281201 14 18336825303775816602
6086070 43 18269010810813903186
6328613 192 18272079522656761636
90127 26 18273208673257332578

> <PUBCHEM_SHAPE_MULTIPOLES>
446.71
14.54
4.09
1.14
0.79
2.26
0.14
-1.12
0.65
2.18
0.14
0.83
0.64
2.75

> <PUBCHEM_SHAPE_SELFOVERLAP>
897.589

> <PUBCHEM_SHAPE_VOLUME>
261.6

> <PUBCHEM_COORDINATE_TYPE>
2
5
10

$$$$

