11953963
  -OEChem-07051213022D

 20 20  0     0  0  0  0  0  0999 V2000
    2.5369   -0.5000    0.0000 O   0  0  0  0  0  0  0  0  0  0  0  0
    6.0010   -0.5000    0.0000 N   0  0  0  0  0  0  0  0  0  0  0  0
    3.4030    0.0000    0.0000 N   0  0  0  0  0  0  0  0  0  0  0  0
    6.0010    1.5000    0.0000 C   0  0  0  0  0  0  0  0  0  0  0  0
    5.1350    0.0000    0.0000 C   0  0  0  0  0  0  0  0  0  0  0  0
    5.1350    1.0000    0.0000 C   0  0  0  0  0  0  0  0  0  0  0  0
    6.8671    0.0000    0.0000 C   0  0  0  0  0  0  0  0  0  0  0  0
    6.8671    1.0000    0.0000 C   0  0  0  0  0  0  0  0  0  0  0  0
    6.0010   -1.5000    0.0000 C   0  0  0  0  0  0  0  0  0  0  0  0
    4.2690   -0.5000    0.0000 C   0  0  0  0  0  0  0  0  0  0  0  0
    6.3996    1.9750    0.0000 H   0  0  0  0  0  0  0  0  0  0  0  0
    5.6025    1.9750    0.0000 H   0  0  0  0  0  0  0  0  0  0  0  0
    4.5981    1.3100    0.0000 H   0  0  0  0  0  0  0  0  0  0  0  0
    7.4040   -0.3100    0.0000 H   0  0  0  0  0  0  0  0  0  0  0  0
    7.4040    1.3100    0.0000 H   0  0  0  0  0  0  0  0  0  0  0  0
    5.3810   -1.5000    0.0000 H   0  0  0  0  0  0  0  0  0  0  0  0
    6.0010   -2.1200    0.0000 H   0  0  0  0  0  0  0  0  0  0  0  0
    6.6210   -1.5000    0.0000 H   0  0  0  0  0  0  0  0  0  0  0  0
    4.2690   -1.1200    0.0000 H   0  0  0  0  0  0  0  0  0  0  0  0
    2.0000   -0.1900    0.0000 H   0  0  0  0  0  0  0  0  0  0  0  0
  1  3  1  0  0  0  0
  1 20  1  0  0  0  0
  2  5  1  0  0  0  0
  2  7  1  0  0  0  0
  2  9  1  0  0  0  0
  3 10  2  0  0  0  0
  4  6  1  0  0  0  0
  4  8  1  0  0  0  0
  4 11  1  0  0  0  0
  4 12  1  0  0  0  0
  5  6  2  0  0  0  0
  5 10  1  0  0  0  0
  6 13  1  0  0  0  0
  7  8  2  0  0  0  0
  7 14  1  0  0  0  0
  8 15  1  0  0  0  0
  9 16  1  0  0  0  0
  9 17  1  0  0  0  0
  9 18  1  0  0  0  0
 10 19  1  0  0  0  0
M  END
> <PUBCHEM_COMPOUND_CID>
11953963

> <PUBCHEM_COMPOUND_CANONICALIZED>
1

> <PUBCHEM_CACTVS_COMPLEXITY>
194

> <PUBCHEM_CACTVS_HBOND_ACCEPTOR>
3

> <PUBCHEM_CACTVS_HBOND_DONOR>
1

> <PUBCHEM_CACTVS_ROTATABLE_BOND>
1

> <PUBCHEM_CACTVS_SUBSKEYS>
AAADccBjIAAAAAAAAAAAAAAAAAAAAAAAAAAgAAAAAAAAAAAAAAAAHAAECAAACAjBAAQCAAMQAACgADRnQAAAAAAgAgAICAAIABgAAAAAAQAAAAAAAAAIAAIAAAAAAAAAAAAAAAAAAAAAAAAAAAAAAAAAAA==

> <PUBCHEM_IUPAC_OPENEYE_NAME>
(2E)-1-methyl-4H-pyridine-2-carbaldehyde oxime

> <PUBCHEM_IUPAC_CAS_NAME>
(2E)-1-methyl-4H-pyridine-2-carboxaldehyde oxime

> <PUBCHEM_IUPAC_NAME>
(NE)-N-[(1-methyl-4H-pyridin-2-yl)methylidene]hydroxylamine

> <PUBCHEM_IUPAC_SYSTEMATIC_NAME>
(NE)-N-[(1-methyl-4H-pyridin-2-yl)methylidene]hydroxylamine

> <PUBCHEM_IUPAC_TRADITIONAL_NAME>
(2E)-1-methyl-4H-pyridine-2-carbaldehyde oxime

> <PUBCHEM_IUPAC_INCHI>
InChI=1S/C7H10N2O/c1-9-5-3-2-4-7(9)6-8-10/h3-6,10H,2H2,1H3/b8-6+

> <PUBCHEM_IUPAC_INCHIKEY>
ZWDNKJLSSOTOJV-SOFGYWHQSA-N

> <PUBCHEM_XLOGP3_AA>
1.3

> <PUBCHEM_EXACT_MASS>
138.079313

> <PUBCHEM_MOLECULAR_FORMULA>
C7H10N2O

> <PUBCHEM_MOLECULAR_WEIGHT>
138.1671

> <PUBCHEM_OPENEYE_CAN_SMILES>
CN1C=CCC=C1C=NO

> <PUBCHEM_OPENEYE_ISO_SMILES>
CN1C=CCC=C1/C=N/O

> <PUBCHEM_CACTVS_TPSA>
35.8

> <PUBCHEM_MONOISOTOPIC_WEIGHT>
138.079313

> <PUBCHEM_TOTAL_CHARGE>
0

> <PUBCHEM_HEAVY_ATOM_COUNT>
10

> <PUBCHEM_ATOM_DEF_STEREO_COUNT>
0

> <PUBCHEM_ATOM_UDEF_STEREO_COUNT>
0

> <PUBCHEM_BOND_DEF_STEREO_COUNT>
1

> <PUBCHEM_BOND_UDEF_STEREO_COUNT>
0

> <PUBCHEM_ISOTOPIC_ATOM_COUNT>
0

> <PUBCHEM_COMPONENT_COUNT>
1

> <PUBCHEM_CACTVS_TAUTO_COUNT>
2

> <PUBCHEM_COORDINATE_TYPE>
1
5
255

$$$$

