11954191
  -OEChem-07051213073D

 37 38  0     0  0  0  0  0  0999 V2000
   -1.1999    2.2058   -1.1923 O   0  0  0  0  0  0  0  0  0  0  0  0
    0.3868    1.7063    0.9468 O   0  0  0  0  0  0  0  0  0  0  0  0
    2.5993   -1.6056   -1.7297 O   0  0  0  0  0  0  0  0  0  0  0  0
    0.2743   -0.6161   -2.2762 O   0  0  0  0  0  0  0  0  0  0  0  0
   -4.7854    0.4026    1.3730 O   0  0  0  0  0  0  0  0  0  0  0  0
   -1.8929   -3.4649    0.4181 O   0  0  0  0  0  0  0  0  0  0  0  0
    0.2127   -2.6137    0.3286 O   0  0  0  0  0  0  0  0  0  0  0  0
   -1.0892   -0.0757   -0.4542 C   0  0  0  0  0  0  0  0  0  0  0  0
    1.4909    0.0504   -0.3931 C   0  0  0  0  0  0  0  0  0  0  0  0
    0.2095   -0.2340   -1.1011 C   0  0  0  0  0  0  0  0  0  0  0  0
   -1.6707   -1.1415    0.2326 C   0  0  0  0  0  0  0  0  0  0  0  0
   -1.7496    1.1508   -0.5268 C   0  0  0  0  0  0  0  0  0  0  0  0
    1.5051    1.0107    0.5962 C   0  0  0  0  0  0  0  0  0  0  0  0
    2.6191   -0.6564   -0.7518 C   0  0  0  0  0  0  0  0  0  0  0  0
    3.8602    0.5761    0.9150 C   0  0  0  0  0  0  0  0  0  0  0  0
    2.7039    1.2765    1.2580 C   0  0  0  0  0  0  0  0  0  0  0  0
    3.8179   -0.3903   -0.0899 C   0  0  0  0  0  0  0  0  0  0  0  0
   -2.9125   -0.9807    0.8469 C   0  0  0  0  0  0  0  0  0  0  0  0
   -2.9917    1.3116    0.0875 C   0  0  0  0  0  0  0  0  0  0  0  0
   -3.5731    0.2458    0.7744 C   0  0  0  0  0  0  0  0  0  0  0  0
    5.1414    0.8590    1.6236 C   0  0  0  0  0  0  0  0  0  0  0  0
   -1.0079   -2.4362    0.3271 C   0  0  0  0  0  0  0  0  0  0  0  0
   -1.9483    3.4193   -1.2129 C   0  0  0  0  0  0  0  0  0  0  0  0
    2.7384    2.0280    2.0434 H   0  0  0  0  0  0  0  0  0  0  0  0
    4.7201   -0.9370   -0.3542 H   0  0  0  0  0  0  0  0  0  0  0  0
   -3.3820   -1.7907    1.3999 H   0  0  0  0  0  0  0  0  0  0  0  0
   -3.5531    2.2394    0.0663 H   0  0  0  0  0  0  0  0  0  0  0  0
    5.2374    0.2099    2.4997 H   0  0  0  0  0  0  0  0  0  0  0  0
    6.0019    0.6917    0.9667 H   0  0  0  0  0  0  0  0  0  0  0  0
    5.1891    1.9025    1.9532 H   0  0  0  0  0  0  0  0  0  0  0  0
    0.6093    2.3304    1.6586 H   0  0  0  0  0  0  0  0  0  0  0  0
    3.4907   -1.9824   -1.8260 H   0  0  0  0  0  0  0  0  0  0  0  0
   -2.0736    3.8345   -0.2070 H   0  0  0  0  0  0  0  0  0  0  0  0
   -2.9012    3.2987   -1.7395 H   0  0  0  0  0  0  0  0  0  0  0  0
   -1.3625    4.1476   -1.7836 H   0  0  0  0  0  0  0  0  0  0  0  0
   -5.0992    1.3110    1.2246 H   0  0  0  0  0  0  0  0  0  0  0  0
   -1.4392   -4.3322    0.4823 H   0  0  0  0  0  0  0  0  0  0  0  0
  1 12  1  0  0  0  0
  1 23  1  0  0  0  0
  2 13  1  0  0  0  0
  2 31  1  0  0  0  0
  3 14  1  0  0  0  0
  3 32  1  0  0  0  0
  4 10  2  0  0  0  0
  5 20  1  0  0  0  0
  5 36  1  0  0  0  0
  6 22  1  0  0  0  0
  6 37  1  0  0  0  0
  7 22  2  0  0  0  0
  8 10  1  0  0  0  0
  8 11  2  0  0  0  0
  8 12  1  0  0  0  0
  9 10  1  0  0  0  0
  9 13  2  0  0  0  0
  9 14  1  0  0  0  0
 11 18  1  0  0  0  0
 11 22  1  0  0  0  0
 12 19  2  0  0  0  0
 13 16  1  0  0  0  0
 14 17  2  0  0  0  0
 15 16  2  0  0  0  0
 15 17  1  0  0  0  0
 15 21  1  0  0  0  0
 16 24  1  0  0  0  0
 17 25  1  0  0  0  0
 18 20  2  0  0  0  0
 18 26  1  0  0  0  0
 19 20  1  0  0  0  0
 19 27  1  0  0  0  0
 21 28  1  0  0  0  0
 21 29  1  0  0  0  0
 21 30  1  0  0  0  0
 23 33  1  0  0  0  0
 23 34  1  0  0  0  0
 23 35  1  0  0  0  0
M  END
> <PUBCHEM_COMPOUND_CID>
11954191

> <PUBCHEM_CONFORMER_RMSD>
0.6

> <PUBCHEM_CONFORMER_DIVERSEORDER>
11
15
4
2
10
8
13
3
5
12
9
14
7
1
6

> <PUBCHEM_MMFF94_PARTIAL_CHARGES>
31
1 -0.36
10 0.4
11 0.09
12 0.08
13 0.08
14 0.08
15 -0.14
16 -0.15
17 -0.15
18 -0.15
19 -0.15
2 -0.53
20 0.08
21 0.14
22 0.63
23 0.28
24 0.15
25 0.15
26 0.15
27 0.15
3 -0.53
31 0.45
32 0.45
36 0.45
37 0.5
4 -0.57
5 -0.53
6 -0.65
7 -0.57
8 0.09
9 0.09

> <PUBCHEM_EFFECTIVE_ROTOR_COUNT>
4

> <PUBCHEM_PHARMACOPHORE_FEATURES>
10
1 1 acceptor
1 2 donor
1 3 donor
1 4 acceptor
1 5 donor
1 6 acceptor
1 7 acceptor
3 6 7 22 anion
6 8 11 12 18 19 20 rings
6 9 13 14 15 16 17 rings

> <PUBCHEM_HEAVY_ATOM_COUNT>
23

> <PUBCHEM_ATOM_DEF_STEREO_COUNT>
0

> <PUBCHEM_ATOM_UDEF_STEREO_COUNT>
0

> <PUBCHEM_BOND_DEF_STEREO_COUNT>
0

> <PUBCHEM_BOND_UDEF_STEREO_COUNT>
0

> <PUBCHEM_ISOTOPIC_ATOM_COUNT>
0

> <PUBCHEM_COMPONENT_COUNT>
1

> <PUBCHEM_CACTVS_TAUTO_COUNT>
70

> <PUBCHEM_CONFORMER_ID>
00B6680F0000000B

> <PUBCHEM_MMFF94_ENERGY>
94.6852

> <PUBCHEM_FEATURE_SELFOVERLAP>
50.801

> <PUBCHEM_SHAPE_FINGERPRINT>
10863032 1 16660646245670152943
11132069 177 18409163307775644387
12236239 1 16486967410136746764
12633257 1 18337957792194270328
13004483 165 17467088353247734070
13083527 12 17541943087929058207
13140716 1 18198901405472540065
13583140 156 18126594351714305880
14856354 85 18200032820993207118
16945 1 18272369780197669879
1813 80 16702303451497036558
19049666 15 18192429890606141212
20510252 161 18337952401978989649
20600515 1 18339632344361807893
20905425 154 18054497286721212023
21033648 29 18338800121059457793
21650355 55 18199756847067606515
23175994 123 17461705479673069782
23402539 116 18264784181349179151
23419403 2 17898561235854446788
23493267 7 18338531819380089672
23559900 14 18336249216113789766
2748010 2 17984135135238849647
350125 39 18054498385963509035
4340502 62 18187353347211594891
465052 167 17130685229493991443
5265222 85 18199449100668315406
598444 67 18337951293745045327
77492 1 14707494740654577956
81228 2 18195811765193590915
84936 182 17402907011939203813
90316 7 18201162053029962341

> <PUBCHEM_SHAPE_MULTIPOLES>
432.24
7.33
2.9
1.53
4.16
0.45
0.38
-1.64
-3.86
-2.25
0.44
0.5
-0.18
1.59

> <PUBCHEM_SHAPE_SELFOVERLAP>
951.946

> <PUBCHEM_SHAPE_VOLUME>
232.7

> <PUBCHEM_COORDINATE_TYPE>
2
5
10

$$$$

