440356
  -OEChem-07051212493D

 30 31  0     0  0  0  0  0  0999 V2000
    0.9829    0.1748    0.1919 S   0  0  0  0  0  0  0  0  0  0  0  0
    5.2005   -0.3225    0.4927 S   0  0  0  0  0  0  0  0  0  0  0  0
   -4.2980    0.4137   -0.3319 O   0  0  0  0  0  0  0  0  0  0  0  0
   -5.5794    1.8245    0.9736 O   0  0  0  0  0  0  0  0  0  0  0  0
    2.5420   -0.4761   -0.0872 C   0  0  0  0  0  0  0  0  0  0  0  0
    3.6973    0.3416    0.0113 C   0  0  0  0  0  0  0  0  0  0  0  0
    2.4941   -1.8170   -0.3990 C   0  0  0  0  0  0  0  0  0  0  0  0
    0.2461   -1.3377   -0.1047 C   0  0  0  0  0  0  0  0  0  0  0  0
    1.1599   -2.3168   -0.4089 C   0  0  0  0  0  0  0  0  0  0  0  0
   -3.8134   -1.9066    0.0875 C   0  0  0  0  0  0  0  0  0  0  0  0
    3.7868    1.6926   -0.2432 C   0  0  0  0  0  0  0  0  0  0  0  0
   -4.5280   -0.6550    0.5781 C   0  0  0  0  0  0  0  0  0  0  0  0
    5.1068    2.1888   -0.0403 C   0  0  0  0  0  0  0  0  0  0  0  0
    5.9759    1.1985    0.3615 C   0  0  0  0  0  0  0  0  0  0  0  0
   -1.1702   -1.5374   -0.0380 C   0  0  0  0  0  0  0  0  0  0  0  0
   -2.3585   -1.7031    0.0189 C   0  0  0  0  0  0  0  0  0  0  0  0
   -4.8862    1.6054   -0.0106 C   0  0  0  0  0  0  0  0  0  0  0  0
   -4.5587    2.6321   -1.0519 C   0  0  0  0  0  0  0  0  0  0  0  0
    3.3589   -2.4300   -0.6216 H   0  0  0  0  0  0  0  0  0  0  0  0
    0.8986   -3.3441   -0.6317 H   0  0  0  0  0  0  0  0  0  0  0  0
   -4.1791   -2.1684   -0.9122 H   0  0  0  0  0  0  0  0  0  0  0  0
   -4.0407   -2.7451    0.7546 H   0  0  0  0  0  0  0  0  0  0  0  0
    2.9623    2.3151   -0.5683 H   0  0  0  0  0  0  0  0  0  0  0  0
   -5.6044   -0.8536    0.6397 H   0  0  0  0  0  0  0  0  0  0  0  0
   -4.1606   -0.3728    1.5726 H   0  0  0  0  0  0  0  0  0  0  0  0
    5.4044    3.2194   -0.1837 H   0  0  0  0  0  0  0  0  0  0  0  0
    7.0292    1.2954    0.5837 H   0  0  0  0  0  0  0  0  0  0  0  0
   -4.9450    2.3115   -2.0226 H   0  0  0  0  0  0  0  0  0  0  0  0
   -3.4769    2.7810   -1.0978 H   0  0  0  0  0  0  0  0  0  0  0  0
   -5.0301    3.5824   -0.7855 H   0  0  0  0  0  0  0  0  0  0  0  0
  1  5  1  0  0  0  0
  1  8  1  0  0  0  0
  2  6  1  0  0  0  0
  2 14  1  0  0  0  0
  3 12  1  0  0  0  0
  3 17  1  0  0  0  0
  4 17  2  0  0  0  0
  5  6  1  0  0  0  0
  5  7  2  0  0  0  0
  6 11  2  0  0  0  0
  7  9  1  0  0  0  0
  7 19  1  0  0  0  0
  8  9  2  0  0  0  0
  8 15  1  0  0  0  0
  9 20  1  0  0  0  0
 10 12  1  0  0  0  0
 10 16  1  0  0  0  0
 10 21  1  0  0  0  0
 10 22  1  0  0  0  0
 11 13  1  0  0  0  0
 11 23  1  0  0  0  0
 12 24  1  0  0  0  0
 12 25  1  0  0  0  0
 13 14  2  0  0  0  0
 13 26  1  0  0  0  0
 14 27  1  0  0  0  0
 15 16  3  0  0  0  0
 17 18  1  0  0  0  0
 18 28  1  0  0  0  0
 18 29  1  0  0  0  0
 18 30  1  0  0  0  0
M  END
> <PUBCHEM_COMPOUND_CID>
440356

> <PUBCHEM_CONFORMER_RMSD>
0.6

> <PUBCHEM_CONFORMER_DIVERSEORDER>
1
19
27
39
20
48
31
38
14
46
43
51
36
7
47
28
5
50
44
8
4
6
45
49
12
15
23
37
33
40
9
16
35
29
21
41
10
17
42
32
3
11
34
13
18
25
24
2
22
30
26

> <PUBCHEM_MMFF94_PARTIAL_CHARGES>
23
1 -0.08
10 0.2
11 -0.15
12 0.28
13 -0.15
14 -0.11
15 -0.02
16 -0.2
17 0.66
18 0.06
19 0.15
2 -0.08
20 0.15
23 0.15
26 0.15
27 0.15
3 -0.43
4 -0.57
5 0.04
6 0.04
7 -0.15
8 0.06
9 -0.15

> <PUBCHEM_EFFECTIVE_ROTOR_COUNT>
4

> <PUBCHEM_PHARMACOPHORE_FEATURES>
3
1 4 acceptor
5 1 5 7 8 9 rings
5 2 6 11 13 14 rings

> <PUBCHEM_HEAVY_ATOM_COUNT>
18

> <PUBCHEM_ATOM_DEF_STEREO_COUNT>
0

> <PUBCHEM_ATOM_UDEF_STEREO_COUNT>
0

> <PUBCHEM_BOND_DEF_STEREO_COUNT>
0

> <PUBCHEM_BOND_UDEF_STEREO_COUNT>
0

> <PUBCHEM_ISOTOPIC_ATOM_COUNT>
0

> <PUBCHEM_COMPONENT_COUNT>
1

> <PUBCHEM_CACTVS_TAUTO_COUNT>
1

> <PUBCHEM_CONFORMER_ID>
0006B82400000001

> <PUBCHEM_MMFF94_ENERGY>
15.665

> <PUBCHEM_FEATURE_SELFOVERLAP>
15.223

> <PUBCHEM_SHAPE_FINGERPRINT>
10 15 18202275910286136385
105312 117 16950279590132191999
10763959 59 18411692189310433948
11595378 159 16988573445302458781
12107183 9 18198918083242650618
12422481 6 17989491835482824652
12596602 18 16773516556064142377
12769317 202 18259991474192398744
12969540 114 16805608036166556998
13073987 5 18272371957957663867
13103583 49 12247404548447980751
13167372 99 18411703167146622096
13740256 8 9655582911198377046
13785724 45 18051136093077591370
13941219 33 8790608173758239855
14123255 352 18411421708948788903
14251764 75 17974846483068706329
14466204 15 18412267211847517320
14790565 3 18267582412640358132
14950920 106 13901608763208902525
15188451 53 15625928795876130691
15196674 1 18410011026661089614
15519825 34 16701438084897110233
1601671 61 18409168792538805568
17780758 139 12175629494775906295
17959699 21 18409166593346660634
193927 3 11743846888643418178
20281389 69 18272090513087311217
21279426 13 18335134328265574030
21304253 335 18342452613093019652
21315763 129 18339361855631592606
21315764 268 18339648819555895741
21421861 104 17916317193850916018
21452121 103 18410857672648762122
23402539 116 17969224447849231430
23402655 69 18113057146787520399
23559900 14 18189332540676708358
2838139 119 18261961751990435180
2916195 48 18411702054059203835
314194 84 9079118890466721382
441001 317 18411139108806964035
5104073 3 18272929453513486243
6327066 14 18339931523721201181
636775 72 17903359209153477888
7062679 6 18342172237348478524
7495541 125 10664104441670547526
7808743 9 18411140208292211763
7970288 3 8933075116553449852
90127 26 18341320158908360083

> <PUBCHEM_SHAPE_MULTIPOLES>
366.39
15.13
2.94
0.79
3.47
0.73
0
10.96
-1.83
2.05
0.47
0.39
0.17
0.51

> <PUBCHEM_SHAPE_SELFOVERLAP>
742.573

> <PUBCHEM_SHAPE_VOLUME>
213.7

> <PUBCHEM_COORDINATE_TYPE>
2
5
10

$$$$

