442400
  -OEChem-07051212582D

 67 70  0     1  0  0  0  0  0999 V2000
    1.2546    0.7086    0.0000 O   0  0  0  0  0  0  0  0  0  0  0  0
    6.1379    1.8150    0.0000 O   0  0  0  0  0  0  0  0  0  0  0  0
    5.7374    3.7302    0.0000 O   0  0  0  0  0  0  0  0  0  0  0  0
    3.6466    4.9374    0.0000 O   0  0  0  0  0  0  0  0  0  0  0  0
    4.3108   -0.9875    0.0000 O   0  0  0  0  0  0  0  0  0  0  0  0
    5.9336   -2.2332    0.0000 O   0  0  0  0  0  0  0  0  0  0  0  0
    5.2891    5.4033    0.0000 O   0  0  0  0  0  0  0  0  0  0  0  0
    2.5882   -0.8065    0.0000 O   0  0  0  0  0  0  0  0  0  0  0  0
    7.6555   -2.4209    0.0000 O   0  0  0  0  0  0  0  0  0  0  0  0
    3.7937    1.6569    0.0000 C   0  0  1  0  0  0  0  0  0  0  0  0
    1.9618    1.4157    0.0000 C   0  0  1  0  0  0  0  0  0  0  0  0
    5.3289    0.4137    0.0000 C   0  0  2  0  0  0  0  0  0  0  0  0
    3.5349    2.6228    0.0000 C   0  0  1  0  0  0  0  0  0  0  0  0
    4.7715    3.4714    0.0000 C   0  0  1  0  0  0  0  0  0  0  0  0
    0.9958    1.6745    0.0000 C   0  0  0  0  0  0  0  0  0  0  0  0
    3.9055    3.9714    0.0000 C   0  0  1  0  0  0  0  0  0  0  0  0
    6.2424    0.8204    0.0000 C   0  0  1  0  0  0  0  0  0  0  0  0
    4.0525    0.6909    0.0000 C   0  0  0  0  0  0  0  0  0  0  0  0
    5.2040   -0.6204    0.0000 C   0  0  0  0  0  0  0  0  0  0  0  0
    4.4153    0.0070    0.0000 C   0  0  0  0  0  0  0  0  0  0  0  0
    6.0420   -1.2391    0.0000 C   0  0  1  0  0  0  0  0  0  0  0  0
    7.0944    0.2213    0.0000 C   0  0  0  0  0  0  0  0  0  0  0  0
    6.9936   -0.8155    0.0000 C   0  0  0  0  0  0  0  0  0  0  0  0
    5.9962    4.6962    0.0000 C   0  0  0  0  0  0  0  0  0  0  0  0
    7.8048   -1.4001    0.0000 C   0  0  0  0  0  0  0  0  0  0  0  0
    3.3972   -1.3943    0.0000 C   0  0  0  0  0  0  0  0  0  0  0  0
    6.9622    4.9550    0.0000 C   0  0  0  0  0  0  0  0  0  0  0  0
    6.7404   -2.8242    0.0000 C   0  0  0  0  0  0  0  0  0  0  0  0
    3.2927   -2.3888    0.0000 C   0  0  0  0  0  0  0  0  0  0  0  0
    6.6320   -3.8183    0.0000 C   0  0  0  0  0  0  0  0  0  0  0  0
    7.4387   -4.4092    0.0000 C   0  0  0  0  0  0  0  0  0  0  0  0
    7.3304   -5.4033    0.0000 C   0  0  0  0  0  0  0  0  0  0  0  0
    8.3538   -4.0060    0.0000 C   0  0  0  0  0  0  0  0  0  0  0  0
    3.3149    3.4438    0.0000 H   0  0  0  0  0  0  0  0  0  0  0  0
    4.8524    4.0861    0.0000 H   0  0  0  0  0  0  0  0  0  0  0  0
    0.3782    1.6205    0.0000 H   0  0  0  0  0  0  0  0  0  0  0  0
    1.0499    2.2921    0.0000 H   0  0  0  0  0  0  0  0  0  0  0  0
    3.2855    3.9734    0.0000 H   0  0  0  0  0  0  0  0  0  0  0  0
    7.0189    1.1662    0.0000 H   0  0  0  0  0  0  0  0  0  0  0  0
    4.6514    0.8514    0.0000 H   0  0  0  0  0  0  0  0  0  0  0  0
    4.2130    0.0921    0.0000 H   0  0  0  0  0  0  0  0  0  0  0  0
    3.4536    0.5305    0.0000 H   0  0  0  0  0  0  0  0  0  0  0  0
    4.9265   -1.1748    0.0000 H   0  0  0  0  0  0  0  0  0  0  0  0
    4.6103   -0.4419    0.0000 H   0  0  0  0  0  0  0  0  0  0  0  0
    3.7968   -0.0363    0.0000 H   0  0  0  0  0  0  0  0  0  0  0  0
    4.2653    0.6086    0.0000 H   0  0  0  0  0  0  0  0  0  0  0  0
    6.5429   -1.6045    0.0000 H   0  0  0  0  0  0  0  0  0  0  0  0
    7.6579    0.4800    0.0000 H   0  0  0  0  0  0  0  0  0  0  0  0
    3.0478    5.0978    0.0000 H   0  0  0  0  0  0  0  0  0  0  0  0
    8.1673   -0.8971    0.0000 H   0  0  0  0  0  0  0  0  0  0  0  0
    8.3078   -1.7626    0.0000 H   0  0  0  0  0  0  0  0  0  0  0  0
    7.4423   -1.9031    0.0000 H   0  0  0  0  0  0  0  0  0  0  0  0
    6.8017    5.5539    0.0000 H   0  0  0  0  0  0  0  0  0  0  0  0
    7.5610    5.1155    0.0000 H   0  0  0  0  0  0  0  0  0  0  0  0
    7.1226    4.3561    0.0000 H   0  0  0  0  0  0  0  0  0  0  0  0
    3.9093   -2.4536    0.0000 H   0  0  0  0  0  0  0  0  0  0  0  0
    3.2279   -3.0054    0.0000 H   0  0  0  0  0  0  0  0  0  0  0  0
    2.6761   -2.3240    0.0000 H   0  0  0  0  0  0  0  0  0  0  0  0
    6.3581   -4.3745    0.0000 H   0  0  0  0  0  0  0  0  0  0  0  0
    6.0367   -3.6451    0.0000 H   0  0  0  0  0  0  0  0  0  0  0  0
    7.5059   -3.7928    0.0000 H   0  0  0  0  0  0  0  0  0  0  0  0
    8.1038   -3.4386    0.0000 H   0  0  0  0  0  0  0  0  0  0  0  0
    8.9212   -3.7560    0.0000 H   0  0  0  0  0  0  0  0  0  0  0  0
    8.6038   -4.5733    0.0000 H   0  0  0  0  0  0  0  0  0  0  0  0
    7.9467   -5.4705    0.0000 H   0  0  0  0  0  0  0  0  0  0  0  0
    7.2632   -6.0196    0.0000 H   0  0  0  0  0  0  0  0  0  0  0  0
    6.7140   -5.3361    0.0000 H   0  0  0  0  0  0  0  0  0  0  0  0
 11  1  1  6  0  0  0
  1 15  1  0  0  0  0
  2 13  1  0  0  0  0
  2 17  1  0  0  0  0
 14  3  1  1  0  0  0
  3 24  1  0  0  0  0
 16  4  1  6  0  0  0
  4 49  1  0  0  0  0
  5 20  1  0  0  0  0
  5 26  1  0  0  0  0
 21  6  1  1  0  0  0
  6 28  1  0  0  0  0
  7 24  2  0  0  0  0
  8 26  2  0  0  0  0
  9 28  2  0  0  0  0
 10 11  1  0  0  0  0
 10 12  1  0  0  0  0
 10 14  1  0  0  0  0
 10 18  1  1  0  0  0
 11 13  1  0  0  0  0
 11 15  1  0  0  0  0
 12 17  1  0  0  0  0
 12 19  1  0  0  0  0
 12 20  1  1  0  0  0
 13 16  1  0  0  0  0
 13 34  1  6  0  0  0
 14 16  1  0  0  0  0
 14 35  1  0  0  0  0
 15 36  1  0  0  0  0
 15 37  1  0  0  0  0
 16 38  1  0  0  0  0
 17 22  1  0  0  0  0
 17 39  1  1  0  0  0
 18 40  1  0  0  0  0
 18 41  1  0  0  0  0
 18 42  1  0  0  0  0
 19 21  1  0  0  0  0
 19 43  1  0  0  0  0
 19 44  1  0  0  0  0
 20 45  1  0  0  0  0
 20 46  1  0  0  0  0
 21 23  1  0  0  0  0
 21 47  1  0  0  0  0
 22 23  2  0  0  0  0
 22 48  1  0  0  0  0
 23 25  1  0  0  0  0
 24 27  1  0  0  0  0
 25 50  1  0  0  0  0
 25 51  1  0  0  0  0
 25 52  1  0  0  0  0
 26 29  1  0  0  0  0
 27 53  1  0  0  0  0
 27 54  1  0  0  0  0
 27 55  1  0  0  0  0
 28 30  1  0  0  0  0
 29 56  1  0  0  0  0
 29 57  1  0  0  0  0
 29 58  1  0  0  0  0
 30 31  1  0  0  0  0
 30 59  1  0  0  0  0
 30 60  1  0  0  0  0
 31 32  1  0  0  0  0
 31 33  1  0  0  0  0
 31 61  1  0  0  0  0
 32 65  1  0  0  0  0
 32 66  1  0  0  0  0
 32 67  1  0  0  0  0
 33 62  1  0  0  0  0
 33 63  1  0  0  0  0
 33 64  1  0  0  0  0
M  END
> <PUBCHEM_COMPOUND_CID>
442400

> <PUBCHEM_COMPOUND_CANONICALIZED>
1

> <PUBCHEM_CACTVS_COMPLEXITY>
881

> <PUBCHEM_CACTVS_HBOND_ACCEPTOR>
9

> <PUBCHEM_CACTVS_HBOND_DONOR>
1

> <PUBCHEM_CACTVS_ROTATABLE_BOND>
9

> <PUBCHEM_CACTVS_SUBSKEYS>
AAADcfB4PAAAAAAAAAAAAAAAEgAAAYAAAAAkQAAABIAAAACAAAAAGgAACAAAD1SggAICCAAABgCIAiDSCAAAAAAgAAAACAEAAAgBFBIAIQACUAAFgAALIAPA4PwPgAAAAAAAAAAAAAAAAAAAAIQADCAAAA==

> <PUBCHEM_IUPAC_INCHI>
InChI=1S/C24H34O9/c1-12(2)7-18(27)32-16-9-23(10-29-14(4)25)17(8-13(16)3)33-21-19(28)20(31-15(5)26)22(23,6)24(21)11-30-24/h8,12,16-17,19-21,28H,7,9-11H2,1-6H3/t16-,17+,19+,20+,21+,22+,23+,24+/m0/s1

> <PUBCHEM_IUPAC_INCHIKEY>
BXFOFFBJRFZBQZ-FHAHJZMBSA-N

> <PUBCHEM_XLOGP3_AA>
0.9

> <PUBCHEM_EXACT_MASS>
466.220283

> <PUBCHEM_MOLECULAR_FORMULA>
C24H34O9

> <PUBCHEM_MOLECULAR_WEIGHT>
466.52136

> <PUBCHEM_OPENEYE_CAN_SMILES>
CC1=CC2C(CC1OC(=O)CC(C)C)(C3(C(C(C(C34CO4)O2)O)OC(=O)C)C)COC(=O)C

> <PUBCHEM_OPENEYE_ISO_SMILES>
CC1=C[C@@H]2[C@](C[C@@H]1OC(=O)CC(C)C)([C@]3([C@@H]([C@H]([C@H]([C@]34CO4)O2)O)OC(=O)C)C)COC(=O)C

> <PUBCHEM_CACTVS_TPSA>
121

> <PUBCHEM_MONOISOTOPIC_WEIGHT>
466.220283

> <PUBCHEM_TOTAL_CHARGE>
0

> <PUBCHEM_HEAVY_ATOM_COUNT>
33

> <PUBCHEM_ATOM_DEF_STEREO_COUNT>
8

> <PUBCHEM_ATOM_UDEF_STEREO_COUNT>
0

> <PUBCHEM_BOND_DEF_STEREO_COUNT>
0

> <PUBCHEM_BOND_UDEF_STEREO_COUNT>
0

> <PUBCHEM_ISOTOPIC_ATOM_COUNT>
0

> <PUBCHEM_COMPONENT_COUNT>
1

> <PUBCHEM_CACTVS_TAUTO_COUNT>
1

> <PUBCHEM_COORDINATE_TYPE>
1
5
255

> <PUBCHEM_BONDANNOTATIONS>
11  1  6
10  18  5
12  20  5
13  34  6
17  39  5
14  3  5
16  4  6
21  6  5

$$$$

