101300
  -OEChem-07051213102D

 46 50  0     1  0  0  0  0  0999 V2000
    7.3092    1.5453    0.0000 O   0  0  0  0  0  0  0  0  0  0  0  0
    7.3092    3.1548    0.0000 O   0  0  0  0  0  0  0  0  0  0  0  0
    5.5501   -2.8467    0.0000 O   0  0  0  0  0  0  0  0  0  0  0  0
    7.3534   -1.7869    0.0000 O   0  0  0  0  0  0  0  0  0  0  0  0
    2.8816    1.8714    0.0000 N   0  0  3  0  0  0  0  0  0  0  0  0
    3.7209    1.3432    0.0000 C   0  0  2  0  0  0  0  0  0  0  0  0
    4.6309    1.8500    0.0000 C   0  0  0  0  0  0  0  0  0  0  0  0
    3.7129    0.3016    0.0000 C   0  0  0  0  0  0  0  0  0  0  0  0
    4.6309    2.8500    0.0000 C   0  0  0  0  0  0  0  0  0  0  0  0
    5.4969    1.3500    0.0000 C   0  0  0  0  0  0  0  0  0  0  0  0
    2.9072    2.8628    0.0000 C   0  0  0  0  0  0  0  0  0  0  0  0
    3.7727    3.3470    0.0000 C   0  0  0  0  0  0  0  0  0  0  0  0
    4.6149   -0.2192    0.0000 C   0  0  0  0  0  0  0  0  0  0  0  0
    5.5130    0.3085    0.0000 C   0  0  0  0  0  0  0  0  0  0  0  0
    6.3629    1.8500    0.0000 C   0  0  0  0  0  0  0  0  0  0  0  0
    5.4969    3.3500    0.0000 C   0  0  0  0  0  0  0  0  0  0  0  0
    6.3629    2.8500    0.0000 C   0  0  0  0  0  0  0  0  0  0  0  0
    2.0000    1.3994    0.0000 C   0  0  0  0  0  0  0  0  0  0  0  0
    4.6066   -1.3042    0.0000 C   0  0  0  0  0  0  0  0  0  0  0  0
    6.4649   -0.2121    0.0000 C   0  0  0  0  0  0  0  0  0  0  0  0
    5.5462   -1.8467    0.0000 C   0  0  0  0  0  0  0  0  0  0  0  0
    6.4816   -1.2970    0.0000 C   0  0  0  0  0  0  0  0  0  0  0  0
    7.8928    2.3500    0.0000 C   0  0  0  0  0  0  0  0  0  0  0  0
    4.6860   -3.3500    0.0000 C   0  0  0  0  0  0  0  0  0  0  0  0
    7.3649   -2.7869    0.0000 C   0  0  0  0  0  0  0  0  0  0  0  0
    2.9752    0.9352    0.0000 H   0  0  0  0  0  0  0  0  0  0  0  0
    3.1028    0.4124    0.0000 H   0  0  0  0  0  0  0  0  0  0  0  0
    3.4993   -0.2805    0.0000 H   0  0  0  0  0  0  0  0  0  0  0  0
    2.7054    3.4490    0.0000 H   0  0  0  0  0  0  0  0  0  0  0  0
    2.2944    2.7684    0.0000 H   0  0  0  0  0  0  0  0  0  0  0  0
    4.1737    3.8198    0.0000 H   0  0  0  0  0  0  0  0  0  0  0  0
    3.3786    3.8256    0.0000 H   0  0  0  0  0  0  0  0  0  0  0  0
    5.4969    3.9700    0.0000 H   0  0  0  0  0  0  0  0  0  0  0  0
    1.7073    1.9459    0.0000 H   0  0  0  0  0  0  0  0  0  0  0  0
    1.4534    1.1067    0.0000 H   0  0  0  0  0  0  0  0  0  0  0  0
    2.2927    0.8528    0.0000 H   0  0  0  0  0  0  0  0  0  0  0  0
    4.0684   -1.6121    0.0000 H   0  0  0  0  0  0  0  0  0  0  0  0
    6.9958    0.1082    0.0000 H   0  0  0  0  0  0  0  0  0  0  0  0
    8.3536    1.9353    0.0000 H   0  0  0  0  0  0  0  0  0  0  0  0
    8.3536    2.7648    0.0000 H   0  0  0  0  0  0  0  0  0  0  0  0
    4.3739   -2.8143    0.0000 H   0  0  0  0  0  0  0  0  0  0  0  0
    4.1502   -3.6621    0.0000 H   0  0  0  0  0  0  0  0  0  0  0  0
    4.9980   -3.8858    0.0000 H   0  0  0  0  0  0  0  0  0  0  0  0
    6.7450   -2.7940    0.0000 H   0  0  0  0  0  0  0  0  0  0  0  0
    7.3721   -3.4068    0.0000 H   0  0  0  0  0  0  0  0  0  0  0  0
    7.9849   -2.7797    0.0000 H   0  0  0  0  0  0  0  0  0  0  0  0
  1 15  1  0  0  0  0
  1 23  1  0  0  0  0
  2 17  1  0  0  0  0
  2 23  1  0  0  0  0
  3 21  1  0  0  0  0
  3 24  1  0  0  0  0
  4 22  1  0  0  0  0
  4 25  1  0  0  0  0
  5  6  1  0  0  0  0
  5 11  1  0  0  0  0
  5 18  1  0  0  0  0
  6  7  1  0  0  0  0
  6  8  1  0  0  0  0
  6 26  1  1  0  0  0
  7  9  1  0  0  0  0
  7 10  2  0  0  0  0
  8 13  1  0  0  0  0
  8 27  1  0  0  0  0
  8 28  1  0  0  0  0
  9 12  1  0  0  0  0
  9 16  2  0  0  0  0
 10 14  1  0  0  0  0
 10 15  1  0  0  0  0
 11 12  1  0  0  0  0
 11 29  1  0  0  0  0
 11 30  1  0  0  0  0
 12 31  1  0  0  0  0
 12 32  1  0  0  0  0
 13 14  1  0  0  0  0
 13 19  2  0  0  0  0
 14 20  2  0  0  0  0
 15 17  2  0  0  0  0
 16 17  1  0  0  0  0
 16 33  1  0  0  0  0
 18 34  1  0  0  0  0
 18 35  1  0  0  0  0
 18 36  1  0  0  0  0
 19 21  1  0  0  0  0
 19 37  1  0  0  0  0
 20 22  1  0  0  0  0
 20 38  1  0  0  0  0
 21 22  2  0  0  0  0
 23 39  1  0  0  0  0
 23 40  1  0  0  0  0
 24 41  1  0  0  0  0
 24 42  1  0  0  0  0
 24 43  1  0  0  0  0
 25 44  1  0  0  0  0
 25 45  1  0  0  0  0
 25 46  1  0  0  0  0
M  END
> <PUBCHEM_COMPOUND_CID>
101300

> <PUBCHEM_COMPOUND_CANONICALIZED>
1

> <PUBCHEM_CACTVS_COMPLEXITY>
502

> <PUBCHEM_CACTVS_HBOND_ACCEPTOR>
5

> <PUBCHEM_CACTVS_HBOND_DONOR>
0

> <PUBCHEM_CACTVS_ROTATABLE_BOND>
2

> <PUBCHEM_CACTVS_SUBSKEYS>
AAADceB6OAAAAAAAAAAAAAAAAAAAASAAAAA8YMEAAAAAAEjxQAAAHgAAAAAADCzBmAcyDoMABACAAiBCAACCCAAgIAAAiAAOjIgdJiKEsRukMCpkwBGOqAew8P8OoAADAAAYQADQAAaAADSAAAAAAAAAAA==

> <PUBCHEM_IUPAC_INCHI>
InChI=1S/C20H21NO4/c1-21-5-4-11-7-17-20(25-10-24-17)19-13-9-16(23-3)15(22-2)8-12(13)6-14(21)18(11)19/h7-9,14H,4-6,10H2,1-3H3/t14-/m0/s1

> <PUBCHEM_IUPAC_INCHIKEY>
YJWBWQWUHVXPNC-AWEZNQCLSA-N

> <PUBCHEM_XLOGP3_AA>
3.2

> <PUBCHEM_EXACT_MASS>
339.147058

> <PUBCHEM_MOLECULAR_FORMULA>
C20H21NO4

> <PUBCHEM_MOLECULAR_WEIGHT>
339.38504

> <PUBCHEM_OPENEYE_CAN_SMILES>
CN1CCC2=CC3=C(C4=C2C1CC5=CC(=C(C=C54)OC)OC)OCO3

> <PUBCHEM_OPENEYE_ISO_SMILES>
CN1CCC2=CC3=C(C4=C2[C@@H]1CC5=CC(=C(C=C54)OC)OC)OCO3

> <PUBCHEM_CACTVS_TPSA>
40.2

> <PUBCHEM_MONOISOTOPIC_WEIGHT>
339.147058

> <PUBCHEM_TOTAL_CHARGE>
0

> <PUBCHEM_HEAVY_ATOM_COUNT>
25

> <PUBCHEM_ATOM_DEF_STEREO_COUNT>
1

> <PUBCHEM_ATOM_UDEF_STEREO_COUNT>
0

> <PUBCHEM_BOND_DEF_STEREO_COUNT>
0

> <PUBCHEM_BOND_UDEF_STEREO_COUNT>
0

> <PUBCHEM_ISOTOPIC_ATOM_COUNT>
0

> <PUBCHEM_COMPONENT_COUNT>
1

> <PUBCHEM_CACTVS_TAUTO_COUNT>
1

> <PUBCHEM_COORDINATE_TYPE>
1
5
255

> <PUBCHEM_BONDANNOTATIONS>
10  15  8
13  14  8
13  19  8
14  20  8
15  17  8
16  17  8
19  21  8
20  22  8
21  22  8
6  26  5
7  10  8
7  9  8
9  16  8

$$$$

