129290
  -OEChem-07051213093D

 49 53  0     1  0  0  0  0  0999 V2000
   -1.1054    0.9214   -1.7158 O   0  0  0  0  0  0  0  0  0  0  0  0
    1.2396    2.5479    1.0251 O   0  0  0  0  0  0  0  0  0  0  0  0
   -4.6216   -2.4920   -0.3081 O   0  0  0  0  0  0  0  0  0  0  0  0
   -6.5731   -1.2515    0.3702 O   0  0  0  0  0  0  0  0  0  0  0  0
    4.3214   -2.6803    0.3380 O   0  0  0  0  0  0  0  0  0  0  0  0
    6.2880   -0.9731   -0.6323 O   0  0  0  0  0  0  0  0  0  0  0  0
   -0.9312    1.6803    0.5352 C   0  0  2  0  0  0  0  0  0  0  0  0
    0.0973    0.6051    0.3026 C   0  0  2  0  0  0  0  0  0  0  0  0
   -1.8462    1.5985   -0.6811 C   0  0  2  0  0  0  0  0  0  0  0  0
    1.3048    1.1107    1.0794 C   0  0  1  0  0  0  0  0  0  0  0  0
    0.2004    0.5965   -1.2168 C   0  0  0  0  0  0  0  0  0  0  0  0
   -0.0710    2.9397    0.5885 C   0  0  0  0  0  0  0  0  0  0  0  0
   -3.1368    0.8628   -0.3894 C   0  0  0  0  0  0  0  0  0  0  0  0
    2.6316    0.5526    0.6238 C   0  0  0  0  0  0  0  0  0  0  0  0
   -3.1868   -0.5278   -0.5152 C   0  0  0  0  0  0  0  0  0  0  0  0
   -4.2760    1.5862    0.0064 C   0  0  0  0  0  0  0  0  0  0  0  0
    2.8739   -0.8220    0.6880 C   0  0  0  0  0  0  0  0  0  0  0  0
    3.6231    1.4076    0.1361 C   0  0  0  0  0  0  0  0  0  0  0  0
   -4.3851   -1.1536   -0.2387 C   0  0  0  0  0  0  0  0  0  0  0  0
   -5.4772    0.9280    0.2806 C   0  0  0  0  0  0  0  0  0  0  0  0
    4.0996   -1.3381    0.2674 C   0  0  0  0  0  0  0  0  0  0  0  0
    4.8489    0.8915   -0.2844 C   0  0  0  0  0  0  0  0  0  0  0  0
   -5.4995   -0.4453    0.1485 C   0  0  0  0  0  0  0  0  0  0  0  0
    5.0872   -0.4813   -0.2187 C   0  0  0  0  0  0  0  0  0  0  0  0
   -6.0097   -2.5468    0.0796 C   0  0  0  0  0  0  0  0  0  0  0  0
    3.2608   -3.4866    0.8468 C   0  0  0  0  0  0  0  0  0  0  0  0
    7.2429   -0.0303   -1.1158 C   0  0  0  0  0  0  0  0  0  0  0  0
   -1.4505    1.5575    1.4930 H   0  0  0  0  0  0  0  0  0  0  0  0
   -0.2437   -0.3753    0.6544 H   0  0  0  0  0  0  0  0  0  0  0  0
   -2.0935    2.5948   -1.0669 H   0  0  0  0  0  0  0  0  0  0  0  0
    1.1849    0.8567    2.1412 H   0  0  0  0  0  0  0  0  0  0  0  0
    0.8998    1.3454   -1.6040 H   0  0  0  0  0  0  0  0  0  0  0  0
    0.4999   -0.3815   -1.6052 H   0  0  0  0  0  0  0  0  0  0  0  0
    0.0353    3.4263   -0.3871 H   0  0  0  0  0  0  0  0  0  0  0  0
   -0.4759    3.6768    1.2886 H   0  0  0  0  0  0  0  0  0  0  0  0
   -2.3248   -1.1145   -0.8125 H   0  0  0  0  0  0  0  0  0  0  0  0
   -4.2312    2.6681    0.1053 H   0  0  0  0  0  0  0  0  0  0  0  0
    2.0718   -1.4385    1.0798 H   0  0  0  0  0  0  0  0  0  0  0  0
    3.4674    2.4805    0.0696 H   0  0  0  0  0  0  0  0  0  0  0  0
   -6.3573    1.4822    0.5863 H   0  0  0  0  0  0  0  0  0  0  0  0
    5.5683    1.6155   -0.6511 H   0  0  0  0  0  0  0  0  0  0  0  0
   -6.1002   -3.1771    0.9718 H   0  0  0  0  0  0  0  0  0  0  0  0
   -6.5835   -3.0045   -0.7344 H   0  0  0  0  0  0  0  0  0  0  0  0
    3.0352   -3.2452    1.8912 H   0  0  0  0  0  0  0  0  0  0  0  0
    3.6088   -4.5247    0.8295 H   0  0  0  0  0  0  0  0  0  0  0  0
    2.3737   -3.4388    0.2059 H   0  0  0  0  0  0  0  0  0  0  0  0
    8.1371   -0.5946   -1.4005 H   0  0  0  0  0  0  0  0  0  0  0  0
    7.5471    0.6734   -0.3334 H   0  0  0  0  0  0  0  0  0  0  0  0
    6.8871    0.4779   -2.0185 H   0  0  0  0  0  0  0  0  0  0  0  0
  1  9  1  0  0  0  0
  1 11  1  0  0  0  0
  2 10  1  0  0  0  0
  2 12  1  0  0  0  0
  3 19  1  0  0  0  0
  3 25  1  0  0  0  0
  4 23  1  0  0  0  0
  4 25  1  0  0  0  0
  5 21  1  0  0  0  0
  5 26  1  0  0  0  0
  6 24  1  0  0  0  0
  6 27  1  0  0  0  0
  7  8  1  0  0  0  0
  7  9  1  0  0  0  0
  7 12  1  0  0  0  0
  7 28  1  0  0  0  0
  8 10  1  0  0  0  0
  8 11  1  0  0  0  0
  8 29  1  0  0  0  0
  9 13  1  0  0  0  0
  9 30  1  0  0  0  0
 10 14  1  0  0  0  0
 10 31  1  0  0  0  0
 11 32  1  0  0  0  0
 11 33  1  0  0  0  0
 12 34  1  0  0  0  0
 12 35  1  0  0  0  0
 13 15  2  0  0  0  0
 13 16  1  0  0  0  0
 14 17  2  0  0  0  0
 14 18  1  0  0  0  0
 15 19  1  0  0  0  0
 15 36  1  0  0  0  0
 16 20  2  0  0  0  0
 16 37  1  0  0  0  0
 17 21  1  0  0  0  0
 17 38  1  0  0  0  0
 18 22  2  0  0  0  0
 18 39  1  0  0  0  0
 19 23  2  0  0  0  0
 20 23  1  0  0  0  0
 20 40  1  0  0  0  0
 21 24  2  0  0  0  0
 22 24  1  0  0  0  0
 22 41  1  0  0  0  0
 25 42  1  0  0  0  0
 25 43  1  0  0  0  0
 26 44  1  0  0  0  0
 26 45  1  0  0  0  0
 26 46  1  0  0  0  0
 27 47  1  0  0  0  0
 27 48  1  0  0  0  0
 27 49  1  0  0  0  0
M  END
> <PUBCHEM_COMPOUND_CID>
129290

> <PUBCHEM_CONFORMER_RMSD>
0.8

> <PUBCHEM_CONFORMER_DIVERSEORDER>
1
5
27
4
34
26
19
18
12
37
31
24
16
7
21
29
10
38
11
6
32
30
2
8
3
35
33
28
22
25
13
36
17
20
9
15
23
14

> <PUBCHEM_MMFF94_PARTIAL_CHARGES>
31
1 -0.56
10 0.42
11 0.28
12 0.28
13 -0.14
14 -0.14
15 -0.15
16 -0.15
17 -0.15
18 -0.15
19 0.08
2 -0.56
20 -0.15
21 0.08
22 -0.15
23 0.08
24 0.08
25 0.56
26 0.28
27 0.28
3 -0.36
36 0.15
37 0.15
38 0.15
39 0.15
4 -0.36
40 0.15
41 0.15
5 -0.36
6 -0.36
9 0.42

> <PUBCHEM_EFFECTIVE_ROTOR_COUNT>
5.8

> <PUBCHEM_PHARMACOPHORE_FEATURES>
11
1 1 acceptor
1 2 acceptor
1 3 acceptor
1 4 acceptor
1 5 acceptor
1 6 acceptor
5 1 7 8 9 11 rings
5 2 7 8 10 12 rings
5 3 4 19 23 25 rings
6 13 15 16 19 20 23 rings
6 14 17 18 21 22 24 rings

> <PUBCHEM_HEAVY_ATOM_COUNT>
27

> <PUBCHEM_ATOM_DEF_STEREO_COUNT>
4

> <PUBCHEM_ATOM_UDEF_STEREO_COUNT>
0

> <PUBCHEM_BOND_DEF_STEREO_COUNT>
0

> <PUBCHEM_BOND_UDEF_STEREO_COUNT>
0

> <PUBCHEM_ISOTOPIC_ATOM_COUNT>
0

> <PUBCHEM_COMPONENT_COUNT>
1

> <PUBCHEM_CACTVS_TAUTO_COUNT>
1

> <PUBCHEM_CONFORMER_ID>
0001F90A00000001

> <PUBCHEM_MMFF94_ENERGY>
102.1852

> <PUBCHEM_FEATURE_SELFOVERLAP>
56.405

> <PUBCHEM_SHAPE_FINGERPRINT>
10299344 5 18412538816741078445
10595046 47 18343017818057524572
10928967 22 18115045055279017414
11089746 13 7492999657086873524
11456790 92 17386272222541502539
11524674 6 16950282897547452823
117089 54 17912353231417004091
11796584 16 18334855069022444173
11963148 33 18410863174439201494
12107183 9 18261664974636521993
12516196 113 18334576828103457360
12553582 1 17968677002664295740
12596602 18 17240766129563081843
12633257 1 17022904489536974447
12788726 201 17895755243757739344
13103583 49 18040705979430056785
13167372 99 8790884077730044958
13288520 33 18410573977284482437
13402501 40 18410855443207437651
1361 2 17988074488149472532
13673619 4 18411136913978676325
13690498 29 18272937120235610221
13740256 8 18408604751489689209
13782708 43 17632301241520689042
14251764 30 18409730664038476757
14341114 176 18261673671591712073
14420673 8 18334853939978970439
14617045 38 18412823581710788730
14950920 106 17459463352542550971
14955137 171 17821728308219681800
15183329 4 18411983572323295195
15461852 350 13254498856981744568
15537594 2 18260274057455580518
15799311 1 18340192064204365003
15927050 60 17611470727312800204
17492 89 18120657087692888038
17844677 252 18408880728929775777
1813 80 17632301168242565909
18335252 98 18335417920930297040
18608769 82 18408606946734799170
20157964 124 10303821989896737232
20567600 247 18411421704353362179
21033648 29 15068623837719410577
21267235 1 18334570231028467584
21623969 137 17603862308553492686
22950370 63 18410012147758473201
23516275 137 18045194241092117794
23522609 53 18193525974893336761
23559900 14 18337682906362445329
239999 70 18186519900302195588
25222932 49 18334300833816558422
2838139 119 8934994859058769963
3004659 81 18343303665236875152
314194 84 18337395950542883843
33382 64 18411418414387106728
335352 9 18409733980919424029
3737641 26 18340770441706856307
4073 2 18271522005382918827
4325135 7 18202280312379538996
439807 62 18343866644843935667
44880168 125 17022905700485949542
46194498 28 17560804268909910444
465052 167 18041275487250094500
5104073 3 18113905982601664857
54039377 194 18186798128484565366
636775 8 18187915206528296294
7970288 3 17619917592371250194
8863177 126 18261678069115749787

> <PUBCHEM_SHAPE_MULTIPOLES>
520.43
16.7
3.08
1.02
0.03
1.61
-0.15
9.87
-2.21
0.27
0.81
-0.51
-0.2
-0.28

> <PUBCHEM_SHAPE_SELFOVERLAP>
1155.551

> <PUBCHEM_SHAPE_VOLUME>
281.3

> <PUBCHEM_COORDINATE_TYPE>
2
5
10

$$$$

