11917
  -OEChem-06261206163D

 34 35  0     0  0  0  0  0  0999 V2000
    0.0000   -1.3135    0.0009 O   0  0  0  0  0  0  0  0  0  0  0  0
   -1.1423    0.6841    0.3622 N   0  0  0  0  0  0  0  0  0  0  0  0
    1.1422    0.6842   -0.3620 N   0  0  0  0  0  0  0  0  0  0  0  0
    0.0000   -0.0776    0.0006 C   0  0  0  0  0  0  0  0  0  0  0  0
   -2.4689    0.1591    0.1265 C   0  0  0  0  0  0  0  0  0  0  0  0
    2.4689    0.1591   -0.1264 C   0  0  0  0  0  0  0  0  0  0  0  0
   -0.9717    2.0071    0.9765 C   0  0  0  0  0  0  0  0  0  0  0  0
    0.9719    2.0070   -0.9768 C   0  0  0  0  0  0  0  0  0  0  0  0
   -2.6493   -0.6902   -0.9336 C   0  0  0  0  0  0  0  0  0  0  0  0
    2.6495   -0.6897    0.9339 C   0  0  0  0  0  0  0  0  0  0  0  0
   -3.4750    0.5380    0.9760 C   0  0  0  0  0  0  0  0  0  0  0  0
    3.4748    0.5377   -0.9765 C   0  0  0  0  0  0  0  0  0  0  0  0
   -3.9286   -1.1971   -1.1611 C   0  0  0  0  0  0  0  0  0  0  0  0
    3.9290   -1.1966    1.1611 C   0  0  0  0  0  0  0  0  0  0  0  0
   -4.7545    0.0310    0.7486 C   0  0  0  0  0  0  0  0  0  0  0  0
    4.7542    0.0306   -0.7493 C   0  0  0  0  0  0  0  0  0  0  0  0
   -4.9813   -0.8366   -0.3199 C   0  0  0  0  0  0  0  0  0  0  0  0
    4.9812   -0.8365    0.3195 C   0  0  0  0  0  0  0  0  0  0  0  0
   -1.3692    2.7862    0.3201 H   0  0  0  0  0  0  0  0  0  0  0  0
    0.0598    2.2076    1.2714 H   0  0  0  0  0  0  0  0  0  0  0  0
   -1.5133    2.0447    1.9258 H   0  0  0  0  0  0  0  0  0  0  0  0
   -0.0597    2.2075   -1.2716 H   0  0  0  0  0  0  0  0  0  0  0  0
    1.5133    2.0441   -1.9262 H   0  0  0  0  0  0  0  0  0  0  0  0
    1.3695    2.7861   -0.3208 H   0  0  0  0  0  0  0  0  0  0  0  0
   -1.8600   -0.9607   -1.6268 H   0  0  0  0  0  0  0  0  0  0  0  0
    1.8605   -0.9599    1.6276 H   0  0  0  0  0  0  0  0  0  0  0  0
   -3.3432    1.1925    1.8281 H   0  0  0  0  0  0  0  0  0  0  0  0
    3.3428    1.1917   -1.8289 H   0  0  0  0  0  0  0  0  0  0  0  0
   -4.1074   -1.8662   -1.9978 H   0  0  0  0  0  0  0  0  0  0  0  0
    4.1080   -1.8653    1.9981 H   0  0  0  0  0  0  0  0  0  0  0  0
   -5.5739    0.3082    1.4055 H   0  0  0  0  0  0  0  0  0  0  0  0
    5.5735    0.3074   -1.4065 H   0  0  0  0  0  0  0  0  0  0  0  0
   -5.9777   -1.2304   -0.4975 H   0  0  0  0  0  0  0  0  0  0  0  0
    5.9777   -1.2304    0.4969 H   0  0  0  0  0  0  0  0  0  0  0  0
  1  4  2  0  0  0  0
  2  4  1  0  0  0  0
  2  5  1  0  0  0  0
  2  7  1  0  0  0  0
  3  4  1  0  0  0  0
  3  6  1  0  0  0  0
  3  8  1  0  0  0  0
  5  9  2  0  0  0  0
  5 11  1  0  0  0  0
  6 10  2  0  0  0  0
  6 12  1  0  0  0  0
  7 19  1  0  0  0  0
  7 20  1  0  0  0  0
  7 21  1  0  0  0  0
  8 22  1  0  0  0  0
  8 23  1  0  0  0  0
  8 24  1  0  0  0  0
  9 13  1  0  0  0  0
  9 25  1  0  0  0  0
 10 14  1  0  0  0  0
 10 26  1  0  0  0  0
 11 15  2  0  0  0  0
 11 27  1  0  0  0  0
 12 16  2  0  0  0  0
 12 28  1  0  0  0  0
 13 17  2  0  0  0  0
 13 29  1  0  0  0  0
 14 18  2  0  0  0  0
 14 30  1  0  0  0  0
 15 17  1  0  0  0  0
 15 31  1  0  0  0  0
 16 18  1  0  0  0  0
 16 32  1  0  0  0  0
 17 33  1  0  0  0  0
 18 34  1  0  0  0  0
M  END
> <PUBCHEM_COMPOUND_CID>
11917

> <PUBCHEM_CONFORMER_RMSD>
0.6

> <PUBCHEM_CONFORMER_DIVERSEORDER>
4
3
2
1
5
7
6

> <PUBCHEM_MMFF94_PARTIAL_CHARGES>
28
1 -0.57
10 -0.15
11 -0.15
12 -0.15
13 -0.15
14 -0.15
15 -0.15
16 -0.15
17 -0.15
18 -0.15
2 -0.48
25 0.15
26 0.15
27 0.15
28 0.15
29 0.15
3 -0.48
30 0.15
31 0.15
32 0.15
33 0.15
34 0.15
4 0.69
5 0.12
6 0.12
7 0.3
8 0.3
9 -0.15

> <PUBCHEM_EFFECTIVE_ROTOR_COUNT>
4

> <PUBCHEM_PHARMACOPHORE_FEATURES>
3
1 1 acceptor
6 5 9 11 13 15 17 rings
6 6 10 12 14 16 18 rings

> <PUBCHEM_HEAVY_ATOM_COUNT>
18

> <PUBCHEM_ATOM_DEF_STEREO_COUNT>
0

> <PUBCHEM_ATOM_UDEF_STEREO_COUNT>
0

> <PUBCHEM_BOND_DEF_STEREO_COUNT>
0

> <PUBCHEM_BOND_UDEF_STEREO_COUNT>
0

> <PUBCHEM_ISOTOPIC_ATOM_COUNT>
0

> <PUBCHEM_COMPONENT_COUNT>
1

> <PUBCHEM_CACTVS_TAUTO_COUNT>
1

> <PUBCHEM_CONFORMER_ID>
00002E8D00000004

> <PUBCHEM_MMFF94_ENERGY>
94.1109

> <PUBCHEM_FEATURE_SELFOVERLAP>
15.223

> <PUBCHEM_SHAPE_FINGERPRINT>
10062212 137 18335420154001833783
11045515 52 17632579353111064109
11045977 3 15864075359918804939
11046707 91 18259988167267949617
11132069 177 17603302665703646769
11287383 113 15482665762943571046
11471102 20 17489868233283897174
11578080 2 18266766664632777388
12236239 1 18410853265399932008
12553582 1 18410579487004563813
13134695 92 17917992750170129316
13167823 11 18410855460128382663
13288520 33 18113334215127486605
13583140 156 16661503959440056168
13675066 3 15719393927554458125
13690532 89 18343021090342263750
13760787 5 18201999923612816149
13862211 1 18410858762958447650
14993402 34 18272650138772955774
15375358 24 14345789453164448917
15788980 27 18131354124196112351
17349148 13 18410570686622056930
17834072 33 18335417950762875188
17862501 102 18334295378869949185
1798214 20 18201723950636937030
1813 80 18340760515973846348
18186145 218 18271812267978780757
18222031 100 18260836977001053349
200 152 18202003243633189305
20645477 70 17060341863946153194
21033648 29 16702032932860416789
21267235 1 18410846664035418914
21339142 126 18335985358892544517
221357 26 17060348413734064221
22646028 1 18410576184174771651
22646028 28 18410576188469810407
22854114 59 13839983309134366269
2297311 6 17458614632011944136
23175994 123 16917062265831038357
23366157 5 18046073648841644521
23402539 116 18334579061502132485
23557571 272 16950831592061390641
23559900 14 16951111976358832708
26918003 58 18060416919621993059
2871803 45 17346600811485644570
351380 3 18410855464423447394
465052 167 18272080582912329059
5104073 3 17822850854479331203
5281201 14 15985103024441325974
542803 24 18410289211639876646
573450 72 18186801387678426977
5924683 9 14779845806166807725
602551 16 17385730162259319566
9981440 41 17183074544053499465

> <PUBCHEM_SHAPE_MULTIPOLES>
354.6
11.05
1.52
1.17
0
0.58
0
-3.9
0
0
0
0
0.03
-1.46

> <PUBCHEM_SHAPE_SELFOVERLAP>
756.385

> <PUBCHEM_SHAPE_VOLUME>
196.8

> <PUBCHEM_COORDINATE_TYPE>
2
5
10

$$$$

