53262310
  -OEChem-07051213153D

 60 61  0     1  0  0  0  0  0999 V2000
   -4.3790   -2.3560    1.6723 P   0  0  0  0  0  0  0  0  0  0  0  0
    1.3984    0.1368    0.1329 O   0  0  0  0  0  0  0  0  0  0  0  0
   -1.2712    2.2406   -1.2649 O   0  0  0  0  0  0  0  0  0  0  0  0
    3.5970    0.3219   -0.7407 O   0  0  0  0  0  0  0  0  0  0  0  0
   -1.3698    0.0673   -0.3226 O   0  0  0  0  0  0  0  0  0  0  0  0
    1.6905    2.6219    1.5870 O   0  0  0  0  0  0  0  0  0  0  0  0
   -0.8251    3.9557    1.9674 O   0  0  0  0  0  0  0  0  0  0  0  0
    3.1111   -2.1672   -2.0928 O   0  0  0  0  0  0  0  0  0  0  0  0
    3.3501   -3.7144    0.1893 O   0  0  0  0  0  0  0  0  0  0  0  0
    5.0753   -1.9473    1.7396 O   0  0  0  0  0  0  0  0  0  0  0  0
   -3.5679    3.7153   -1.3055 O   0  0  0  0  0  0  0  0  0  0  0  0
    5.3592    2.0607    0.4161 O   0  0  0  0  0  0  0  0  0  0  0  0
   -3.3161   -1.7711    0.6048 O   0  0  0  0  0  0  0  0  0  0  0  0
   -3.2817   -1.5889   -2.8582 O   0  0  0  0  0  0  0  0  0  0  0  0
   -1.1412   -1.9024   -2.1553 O   0  0  0  0  0  0  0  0  0  0  0  0
   -4.6848   -1.0737    2.6089 O   0  0  0  0  0  0  0  0  0  0  0  0
   -5.7384   -2.5209    0.8121 O   0  0  0  0  0  0  0  0  0  0  0  0
   -3.9318   -3.5855    2.4075 O   0  0  0  0  0  0  0  0  0  0  0  0
    0.7299    1.3439   -0.2153 C   0  0  2  0  0  0  0  0  0  0  0  0
    0.4516    2.1517    1.0508 C   0  0  2  0  0  0  0  0  0  0  0  0
   -0.4249    3.3649    0.7333 C   0  0  1  0  0  0  0  0  0  0  0  0
    2.3021   -0.2711   -0.8884 C   0  0  1  0  0  0  0  0  0  0  0  0
   -0.5566    1.0356   -0.9829 C   0  0  2  0  0  0  0  0  0  0  0  0
    2.4063   -1.7953   -0.9069 C   0  0  2  0  0  0  0  0  0  0  0  0
   -1.6566    2.9597   -0.0880 C   0  0  1  0  0  0  0  0  0  0  0  0
    3.1511   -2.3098    0.3260 C   0  0  2  0  0  0  0  0  0  0  0  0
    4.4936   -1.5942    0.4874 C   0  0  1  0  0  0  0  0  0  0  0  0
    4.2886   -0.0747    0.4464 C   0  0  1  0  0  0  0  0  0  0  0  0
   -2.4613    4.1716   -0.5499 C   0  0  0  0  0  0  0  0  0  0  0  0
    5.6206    0.6702    0.4668 C   0  0  0  0  0  0  0  0  0  0  0  0
   -2.5374   -0.2249   -1.0743 C   0  0  2  0  0  0  0  0  0  0  0  0
   -3.6713   -0.6053   -0.1310 C   0  0  0  0  0  0  0  0  0  0  0  0
   -2.2103   -1.3150   -2.0717 C   0  0  0  0  0  0  0  0  0  0  0  0
    1.3821    1.9666   -0.8461 H   0  0  0  0  0  0  0  0  0  0  0  0
   -0.0011    1.5227    1.8260 H   0  0  0  0  0  0  0  0  0  0  0  0
    0.1645    4.1131    0.1895 H   0  0  0  0  0  0  0  0  0  0  0  0
    1.9379    0.0475   -1.8730 H   0  0  0  0  0  0  0  0  0  0  0  0
   -0.2704    0.6148   -1.9533 H   0  0  0  0  0  0  0  0  0  0  0  0
    1.4155   -2.2611   -0.9529 H   0  0  0  0  0  0  0  0  0  0  0  0
   -2.3248    2.3253    0.5086 H   0  0  0  0  0  0  0  0  0  0  0  0
    2.5434   -2.1602    1.2270 H   0  0  0  0  0  0  0  0  0  0  0  0
    5.1847   -1.9201   -0.2987 H   0  0  0  0  0  0  0  0  0  0  0  0
    3.7052    0.2629    1.3135 H   0  0  0  0  0  0  0  0  0  0  0  0
   -1.8576    4.8160   -1.1977 H   0  0  0  0  0  0  0  0  0  0  0  0
   -2.8286    4.7549    0.2999 H   0  0  0  0  0  0  0  0  0  0  0  0
    6.1900    0.4513    1.3750 H   0  0  0  0  0  0  0  0  0  0  0  0
    6.2240    0.4125   -0.4100 H   0  0  0  0  0  0  0  0  0  0  0  0
    2.1248    3.1714    0.9125 H   0  0  0  0  0  0  0  0  0  0  0  0
   -1.3790    3.3127    2.4423 H   0  0  0  0  0  0  0  0  0  0  0  0
    2.5765   -1.8833   -2.8539 H   0  0  0  0  0  0  0  0  0  0  0  0
   -2.8733    0.6449   -1.6510 H   0  0  0  0  0  0  0  0  0  0  0  0
    2.4746   -4.1272    0.0961 H   0  0  0  0  0  0  0  0  0  0  0  0
    4.4680   -1.6647    2.4445 H   0  0  0  0  0  0  0  0  0  0  0  0
   -4.5923   -0.7972   -0.6899 H   0  0  0  0  0  0  0  0  0  0  0  0
   -3.8473    0.2119    0.5757 H   0  0  0  0  0  0  0  0  0  0  0  0
   -4.0637    4.5012   -1.5920 H   0  0  0  0  0  0  0  0  0  0  0  0
    6.2188    2.5150    0.4258 H   0  0  0  0  0  0  0  0  0  0  0  0
   -3.0902   -2.3045   -3.5012 H   0  0  0  0  0  0  0  0  0  0  0  0
   -5.2440   -1.1909    3.4061 H   0  0  0  0  0  0  0  0  0  0  0  0
   -6.5238   -2.9252    1.2387 H   0  0  0  0  0  0  0  0  0  0  0  0
  1 13  1  0  0  0  0
  1 16  1  0  0  0  0
  1 17  1  0  0  0  0
  1 18  2  0  0  0  0
  2 19  1  0  0  0  0
  2 22  1  0  0  0  0
  3 23  1  0  0  0  0
  3 25  1  0  0  0  0
  4 22  1  0  0  0  0
  4 28  1  0  0  0  0
  5 23  1  0  0  0  0
  5 31  1  0  0  0  0
  6 20  1  0  0  0  0
  6 48  1  0  0  0  0
  7 21  1  0  0  0  0
  7 49  1  0  0  0  0
  8 24  1  0  0  0  0
  8 50  1  0  0  0  0
  9 26  1  0  0  0  0
  9 52  1  0  0  0  0
 10 27  1  0  0  0  0
 10 53  1  0  0  0  0
 11 29  1  0  0  0  0
 11 56  1  0  0  0  0
 12 30  1  0  0  0  0
 12 57  1  0  0  0  0
 13 32  1  0  0  0  0
 14 33  1  0  0  0  0
 14 58  1  0  0  0  0
 15 33  2  0  0  0  0
 16 59  1  0  0  0  0
 17 60  1  0  0  0  0
 19 20  1  0  0  0  0
 19 23  1  0  0  0  0
 19 34  1  0  0  0  0
 20 21  1  0  0  0  0
 20 35  1  0  0  0  0
 21 25  1  0  0  0  0
 21 36  1  0  0  0  0
 22 24  1  0  0  0  0
 22 37  1  0  0  0  0
 23 38  1  0  0  0  0
 24 26  1  0  0  0  0
 24 39  1  0  0  0  0
 25 29  1  0  0  0  0
 25 40  1  0  0  0  0
 26 27  1  0  0  0  0
 26 41  1  0  0  0  0
 27 28  1  0  0  0  0
 27 42  1  0  0  0  0
 28 30  1  0  0  0  0
 28 43  1  0  0  0  0
 29 44  1  0  0  0  0
 29 45  1  0  0  0  0
 30 46  1  0  0  0  0
 30 47  1  0  0  0  0
 31 32  1  0  0  0  0
 31 33  1  0  0  0  0
 31 51  1  0  0  0  0
 32 54  1  0  0  0  0
 32 55  1  0  0  0  0
M  END
> <PUBCHEM_COMPOUND_CID>
53262310

> <PUBCHEM_CONFORMER_RMSD>
1.2

> <PUBCHEM_CONFORMER_DIVERSEORDER>
1
6
15
17
8
12
16
10
14
3
18
5
7
11
4
13
9
2

> <PUBCHEM_MMFF94_PARTIAL_CHARGES>
43
1 1.51
10 -0.68
11 -0.68
12 -0.68
13 -0.55
14 -0.65
15 -0.57
16 -0.77
17 -0.77
18 -0.7
19 0.28
2 -0.56
20 0.28
21 0.28
22 0.56
23 0.56
24 0.28
25 0.28
26 0.28
27 0.28
28 0.28
29 0.28
3 -0.56
30 0.28
31 0.34
32 0.28
33 0.66
4 -0.56
48 0.4
49 0.4
5 -0.56
50 0.4
52 0.4
53 0.4
56 0.4
57 0.4
58 0.5
59 0.5
6 -0.68
60 0.5
7 -0.68
8 -0.68
9 -0.68

> <PUBCHEM_EFFECTIVE_ROTOR_COUNT>
12.4

> <PUBCHEM_PHARMACOPHORE_FEATURES>
27
1 10 acceptor
1 10 donor
1 11 acceptor
1 11 donor
1 12 acceptor
1 12 donor
1 14 acceptor
1 15 acceptor
1 16 acceptor
1 17 acceptor
1 18 acceptor
1 2 acceptor
1 3 acceptor
1 4 acceptor
1 5 acceptor
1 6 acceptor
1 6 donor
1 7 acceptor
1 7 donor
1 8 acceptor
1 8 donor
1 9 acceptor
1 9 donor
3 14 15 33 anion
4 1 16 17 18 anion
6 3 19 20 21 23 25 rings
6 4 22 24 26 27 28 rings

> <PUBCHEM_HEAVY_ATOM_COUNT>
33

> <PUBCHEM_ATOM_DEF_STEREO_COUNT>
11

> <PUBCHEM_ATOM_UDEF_STEREO_COUNT>
0

> <PUBCHEM_BOND_DEF_STEREO_COUNT>
0

> <PUBCHEM_BOND_UDEF_STEREO_COUNT>
0

> <PUBCHEM_ISOTOPIC_ATOM_COUNT>
0

> <PUBCHEM_COMPONENT_COUNT>
1

> <PUBCHEM_CACTVS_TAUTO_COUNT>
1

> <PUBCHEM_CONFORMER_ID>
032CB7E600000001

> <PUBCHEM_MMFF94_ENERGY>
50.6318

> <PUBCHEM_FEATURE_SELFOVERLAP>
137.226

> <PUBCHEM_SHAPE_FINGERPRINT>
12160290 23 18118674663484414533
12422481 6 17899386922511834907
12553582 1 18187649068030460374
12633257 1 17313381167511624685
12788726 201 18335988648372932166
13140716 1 18047196241712540710
14765038 42 17751353989675088472
14787075 74 18190192191808697676
14790565 3 17536318385483665249
14840074 17 18114458942677192574
14844126 61 17972907987294871574
17492 89 18339364188300487946
20739085 24 17976816493607507813
23598288 3 18264205979391591110
3380486 145 18040156219105131525
352729 6 17754172303837958388
3737641 26 18334287669899888650
392239 28 17897467025028534808
469060 322 18200291274196560528
5104073 3 18340497776309080144
5309563 4 18267304222965553619
7097593 13 17972586698651516647
9709674 26 17607256651483256668
9981440 41 17609511762384326461

> <PUBCHEM_SHAPE_MULTIPOLES>
583.2
10.95
5.33
2.19
5.17
3.26
-0.11
-7.82
4.18
-4.11
1.58
-2.42
-1.3
2.33

> <PUBCHEM_SHAPE_SELFOVERLAP>
1178.098

> <PUBCHEM_SHAPE_VOLUME>
340.5

> <PUBCHEM_COORDINATE_TYPE>
2
5
10

$$$$

