9091
  -OEChem-06261203242D

 24 25  0     0  0  0  0  0  0999 V2000
    5.5388    0.5000    0.0000 S   0  0  0  0  0  0  0  0  0  0  0  0
    5.5388   -0.5000    0.0000 S   0  0  0  0  0  0  0  0  0  0  0  0
    4.0000    0.0000    0.0000 C   0  0  0  0  0  0  0  0  0  0  0  0
    3.5000   -0.8660    0.0000 C   0  0  0  0  0  0  0  0  0  0  0  0
    3.5000    0.8660    0.0000 C   0  0  0  0  0  0  0  0  0  0  0  0
    2.5000    0.8660    0.0000 C   0  0  0  0  0  0  0  0  0  0  0  0
    2.5000   -0.8660    0.0000 C   0  0  0  0  0  0  0  0  0  0  0  0
    4.5878   -0.8090    0.0000 C   0  0  0  0  0  0  0  0  0  0  0  0
    4.5878    0.8090    0.0000 C   0  0  0  0  0  0  0  0  0  0  0  0
    2.0000    0.0000    0.0000 C   0  0  0  0  0  0  0  0  0  0  0  0
    4.0826    1.0781    0.0000 H   0  0  0  0  0  0  0  0  0  0  0  0
    3.3923    1.4766    0.0000 H   0  0  0  0  0  0  0  0  0  0  0  0
    3.3923   -1.4766    0.0000 H   0  0  0  0  0  0  0  0  0  0  0  0
    4.0826   -1.0781    0.0000 H   0  0  0  0  0  0  0  0  0  0  0  0
    2.6077    1.4766    0.0000 H   0  0  0  0  0  0  0  0  0  0  0  0
    1.9174    1.0781    0.0000 H   0  0  0  0  0  0  0  0  0  0  0  0
    1.9174   -1.0781    0.0000 H   0  0  0  0  0  0  0  0  0  0  0  0
    2.6077   -1.4766    0.0000 H   0  0  0  0  0  0  0  0  0  0  0  0
    4.8400    1.3754    0.0000 H   0  0  0  0  0  0  0  0  0  0  0  0
    4.0508    1.1190    0.0000 H   0  0  0  0  0  0  0  0  0  0  0  0
    4.0508   -1.1190    0.0000 H   0  0  0  0  0  0  0  0  0  0  0  0
    4.8400   -1.3754    0.0000 H   0  0  0  0  0  0  0  0  0  0  0  0
    1.5250    0.3985    0.0000 H   0  0  0  0  0  0  0  0  0  0  0  0
    1.5250   -0.3985    0.0000 H   0  0  0  0  0  0  0  0  0  0  0  0
  1  2  1  0  0  0  0
  1  9  1  0  0  0  0
  2  8  1  0  0  0  0
  3  4  1  0  0  0  0
  3  5  1  0  0  0  0
  3  8  1  0  0  0  0
  3  9  1  0  0  0  0
  4  7  1  0  0  0  0
  4 13  1  0  0  0  0
  4 14  1  0  0  0  0
  5  6  1  0  0  0  0
  5 11  1  0  0  0  0
  5 12  1  0  0  0  0
  6 10  1  0  0  0  0
  6 15  1  0  0  0  0
  6 16  1  0  0  0  0
  7 10  1  0  0  0  0
  7 17  1  0  0  0  0
  7 18  1  0  0  0  0
  8 21  1  0  0  0  0
  8 22  1  0  0  0  0
  9 19  1  0  0  0  0
  9 20  1  0  0  0  0
 10 23  1  0  0  0  0
 10 24  1  0  0  0  0
M  END
> <PUBCHEM_COMPOUND_CID>
9091

> <PUBCHEM_COMPOUND_CANONICALIZED>
1

> <PUBCHEM_CACTVS_COMPLEXITY>
108

> <PUBCHEM_CACTVS_HBOND_ACCEPTOR>
2

> <PUBCHEM_CACTVS_HBOND_DONOR>
0

> <PUBCHEM_CACTVS_ROTATABLE_BOND>
0

> <PUBCHEM_CACTVS_SUBSKEYS>
AAADccBwAABgAAAAAAAAAAAAAAAAASAAAAAwAAAAAAAAAAAAAAAAGAQAAAAADgCEQACAAAAAAAAAAAAAAAAAAAAAAAAAAAAAAAAAAAIAAAAAAAAAAAAAAAEAgEAPAAAAAAAAAAAAAAAAAAAAAAAAAAAAAA==

> <PUBCHEM_IUPAC_OPENEYE_NAME>
2,3-dithiaspiro[4.5]decane

> <PUBCHEM_IUPAC_CAS_NAME>
2,3-dithiaspiro[4.5]decane

> <PUBCHEM_IUPAC_NAME>
2,3-dithiaspiro[4.5]decane

> <PUBCHEM_IUPAC_SYSTEMATIC_NAME>
2,3-dithiaspiro[4.5]decane

> <PUBCHEM_IUPAC_TRADITIONAL_NAME>
2,3-dithiaspiro[4.5]decane

> <PUBCHEM_IUPAC_INCHI>
InChI=1S/C8H14S2/c1-2-4-8(5-3-1)6-9-10-7-8/h1-7H2

> <PUBCHEM_IUPAC_INCHIKEY>
HAXVUMKRJJJVDO-UHFFFAOYSA-N

> <PUBCHEM_XLOGP3_AA>
2.9

> <PUBCHEM_EXACT_MASS>
174.053692

> <PUBCHEM_MOLECULAR_FORMULA>
C8H14S2

> <PUBCHEM_MOLECULAR_WEIGHT>
174.32676

> <PUBCHEM_OPENEYE_CAN_SMILES>
C1CCC2(CC1)CSSC2

> <PUBCHEM_OPENEYE_ISO_SMILES>
C1CCC2(CC1)CSSC2

> <PUBCHEM_CACTVS_TPSA>
50.6

> <PUBCHEM_MONOISOTOPIC_WEIGHT>
174.053692

> <PUBCHEM_TOTAL_CHARGE>
0

> <PUBCHEM_HEAVY_ATOM_COUNT>
10

> <PUBCHEM_ATOM_DEF_STEREO_COUNT>
0

> <PUBCHEM_ATOM_UDEF_STEREO_COUNT>
0

> <PUBCHEM_BOND_DEF_STEREO_COUNT>
0

> <PUBCHEM_BOND_UDEF_STEREO_COUNT>
0

> <PUBCHEM_ISOTOPIC_ATOM_COUNT>
0

> <PUBCHEM_COMPONENT_COUNT>
1

> <PUBCHEM_CACTVS_TAUTO_COUNT>
1

> <PUBCHEM_COORDINATE_TYPE>
1
5
255

$$$$

