4463
  -OEChem-07051212532D

 34 37  0     0  0  0  0  0  0999 V2000
    5.8169    2.4788    0.0000 O   0  0  0  0  0  0  0  0  0  0  0  0
    4.8830   -0.6128    0.0000 N   0  0  0  0  0  0  0  0  0  0  0  0
    4.3830    1.5779    0.0000 N   0  0  0  0  0  0  0  0  0  0  0  0
    3.2295   -0.8991    0.0000 N   0  0  0  0  0  0  0  0  0  0  0  0
    6.5365   -0.8991    0.0000 N   0  0  0  0  0  0  0  0  0  0  0  0
    4.8830   -1.6128    0.0000 C   0  0  0  0  0  0  0  0  0  0  0  0
    4.3830   -2.4788    0.0000 C   0  0  0  0  0  0  0  0  0  0  0  0
    5.3830   -2.4788    0.0000 C   0  0  0  0  0  0  0  0  0  0  0  0
    3.9820   -0.1789    0.0000 C   0  0  0  0  0  0  0  0  0  0  0  0
    5.7840   -0.1789    0.0000 C   0  0  0  0  0  0  0  0  0  0  0  0
    3.7595    0.7960    0.0000 C   0  0  0  0  0  0  0  0  0  0  0  0
    6.0065    0.7960    0.0000 C   0  0  0  0  0  0  0  0  0  0  0  0
    2.7690    1.1184    0.0000 C   0  0  0  0  0  0  0  0  0  0  0  0
    5.3830    1.5778    0.0000 C   0  0  0  0  0  0  0  0  0  0  0  0
    6.9970    1.1183    0.0000 C   0  0  0  0  0  0  0  0  0  0  0  0
    2.0000    0.4158    0.0000 C   0  0  0  0  0  0  0  0  0  0  0  0
    2.2318   -0.5997    0.0000 C   0  0  0  0  0  0  0  0  0  0  0  0
    7.5342   -0.5998    0.0000 C   0  0  0  0  0  0  0  0  0  0  0  0
    2.5578    2.0958    0.0000 C   0  0  0  0  0  0  0  0  0  0  0  0
    7.7660    0.4158    0.0000 C   0  0  0  0  0  0  0  0  0  0  0  0
    4.2841   -1.4523    0.0000 H   0  0  0  0  0  0  0  0  0  0  0  0
    3.8004   -2.2668    0.0000 H   0  0  0  0  0  0  0  0  0  0  0  0
    4.2753   -3.0894    0.0000 H   0  0  0  0  0  0  0  0  0  0  0  0
    5.4906   -3.0894    0.0000 H   0  0  0  0  0  0  0  0  0  0  0  0
    5.9656   -2.2668    0.0000 H   0  0  0  0  0  0  0  0  0  0  0  0
    4.1140    2.1365    0.0000 H   0  0  0  0  0  0  0  0  0  0  0  0
    7.1280    1.7244    0.0000 H   0  0  0  0  0  0  0  0  0  0  0  0
    1.4083    0.6008    0.0000 H   0  0  0  0  0  0  0  0  0  0  0  0
    1.7789   -1.0232    0.0000 H   0  0  0  0  0  0  0  0  0  0  0  0
    7.9871   -1.0232    0.0000 H   0  0  0  0  0  0  0  0  0  0  0  0
    3.1638    2.2268    0.0000 H   0  0  0  0  0  0  0  0  0  0  0  0
    2.4268    2.7018    0.0000 H   0  0  0  0  0  0  0  0  0  0  0  0
    1.9518    1.9648    0.0000 H   0  0  0  0  0  0  0  0  0  0  0  0
    8.3578    0.6008    0.0000 H   0  0  0  0  0  0  0  0  0  0  0  0
  1 14  2  0  0  0  0
  2  6  1  0  0  0  0
  2  9  1  0  0  0  0
  2 10  1  0  0  0  0
  3 11  1  0  0  0  0
  3 14  1  0  0  0  0
  3 26  1  0  0  0  0
  4  9  2  0  0  0  0
  4 17  1  0  0  0  0
  5 10  1  0  0  0  0
  5 18  2  0  0  0  0
  6  7  1  0  0  0  0
  6  8  1  0  0  0  0
  6 21  1  0  0  0  0
  7  8  1  0  0  0  0
  7 22  1  0  0  0  0
  7 23  1  0  0  0  0
  8 24  1  0  0  0  0
  8 25  1  0  0  0  0
  9 11  1  0  0  0  0
 10 12  2  0  0  0  0
 11 13  2  0  0  0  0
 12 14  1  0  0  0  0
 12 15  1  0  0  0  0
 13 16  1  0  0  0  0
 13 19  1  0  0  0  0
 15 20  2  0  0  0  0
 15 27  1  0  0  0  0
 16 17  2  0  0  0  0
 16 28  1  0  0  0  0
 17 29  1  0  0  0  0
 18 20  1  0  0  0  0
 18 30  1  0  0  0  0
 19 31  1  0  0  0  0
 19 32  1  0  0  0  0
 19 33  1  0  0  0  0
 20 34  1  0  0  0  0
M  END
> <PUBCHEM_COMPOUND_CID>
4463

> <PUBCHEM_COMPOUND_CANONICALIZED>
1

> <PUBCHEM_CACTVS_COMPLEXITY>
397

> <PUBCHEM_CACTVS_HBOND_ACCEPTOR>
4

> <PUBCHEM_CACTVS_HBOND_DONOR>
1

> <PUBCHEM_CACTVS_ROTATABLE_BOND>
1

> <PUBCHEM_CACTVS_SUBSKEYS>
AAADccBzoAAAAAAAAAAAAAAAGAAAAAAAAAAsWAAABYAAAAAB4AAAHgAQAAAADCjBmgQ/8JPIEACoAjd3dACCgCk1EiAJ2CE4dNiIYPrA3ZGUIYhohALIyeYYAQAOAAAAAAAAAAAAAAAAAAAAAAAAAAAAAA==

> <PUBCHEM_IUPAC_OPENEYE_NAME>
11-cyclopropyl-4-methyl-5H-dipyrido[2,3-e:2',3'-f][1,4]diazepin-6-one

> <PUBCHEM_IUPAC_CAS_NAME>
11-cyclopropyl-4-methyl-5H-dipyrido[2,3-e:2',3'-f][1,4]diazepin-6-one

> <PUBCHEM_IUPAC_NAME>
11-cyclopropyl-4-methyl-5H-dipyrido[2,3-e:2',3'-f][1,4]diazepin-6-one

> <PUBCHEM_IUPAC_SYSTEMATIC_NAME>
11-cyclopropyl-4-methyl-5H-dipyrido[2,3-e:2',3'-f][1,4]diazepin-6-one

> <PUBCHEM_IUPAC_TRADITIONAL_NAME>
11-cyclopropyl-4-methyl-5H-dipyrido[2,3-e:2',3'-f][1,4]diazepin-6-one

> <PUBCHEM_IUPAC_INCHI>
InChI=1S/C15H14N4O/c1-9-6-8-17-14-12(9)18-15(20)11-3-2-7-16-13(11)19(14)10-4-5-10/h2-3,6-8,10H,4-5H2,1H3,(H,18,20)

> <PUBCHEM_IUPAC_INCHIKEY>
NQDJXKOVJZTUJA-UHFFFAOYSA-N

> <PUBCHEM_XLOGP3_AA>
2

> <PUBCHEM_EXACT_MASS>
266.116761

> <PUBCHEM_MOLECULAR_FORMULA>
C15H14N4O

> <PUBCHEM_MOLECULAR_WEIGHT>
266.29786

> <PUBCHEM_OPENEYE_CAN_SMILES>
CC1=C2C(=NC=C1)N(C3=C(C=CC=N3)C(=O)N2)C4CC4

> <PUBCHEM_OPENEYE_ISO_SMILES>
CC1=C2C(=NC=C1)N(C3=C(C=CC=N3)C(=O)N2)C4CC4

> <PUBCHEM_CACTVS_TPSA>
58.1

> <PUBCHEM_MONOISOTOPIC_WEIGHT>
266.116761

> <PUBCHEM_TOTAL_CHARGE>
0

> <PUBCHEM_HEAVY_ATOM_COUNT>
20

> <PUBCHEM_ATOM_DEF_STEREO_COUNT>
0

> <PUBCHEM_ATOM_UDEF_STEREO_COUNT>
0

> <PUBCHEM_BOND_DEF_STEREO_COUNT>
0

> <PUBCHEM_BOND_UDEF_STEREO_COUNT>
0

> <PUBCHEM_ISOTOPIC_ATOM_COUNT>
0

> <PUBCHEM_COMPONENT_COUNT>
1

> <PUBCHEM_CACTVS_TAUTO_COUNT>
2

> <PUBCHEM_COORDINATE_TYPE>
1
5
255

> <PUBCHEM_BONDANNOTATIONS>
10  12  8
11  13  8
12  15  8
13  16  8
15  20  8
16  17  8
18  20  8
4  17  8
4  9  8
5  10  8
5  18  8
9  11  8

$$$$

