493951
  -OEChem-07051213072D

 65 70  0     1  0  0  0  0  0999 V2000
    7.0060    0.1024    0.0000 O   0  0  0  0  0  0  0  0  0  0  0  0
    3.7320    3.6716    0.0000 O   0  0  0  0  0  0  0  0  0  0  0  0
    6.7331   -1.6529    0.0000 O   0  0  0  0  0  0  0  0  0  0  0  0
    6.7331    1.8576    0.0000 O   0  0  0  0  0  0  0  0  0  0  0  0
    2.3117   -4.0282    0.0000 O   0  0  0  0  0  0  0  0  0  0  0  0
    2.0000    3.6783    0.0000 O   0  0  0  0  0  0  0  0  0  0  0  0
    4.6102   -0.8976    0.0000 C   0  0  3  0  0  0  0  0  0  0  0  0
    4.6102    1.1024    0.0000 C   0  0  3  0  0  0  0  0  0  0  0  0
    3.7441    0.6024    0.0000 C   0  0  3  0  0  0  0  0  0  0  0  0
    4.6262   -1.9391    0.0000 C   0  0  3  0  0  0  0  0  0  0  0  0
    5.4762   -0.3976    0.0000 C   0  0  3  0  0  0  0  0  0  0  0  0
    5.4762    0.6024    0.0000 C   0  0  3  0  0  0  0  0  0  0  0  0
    3.7441   -0.3976    0.0000 C   0  0  0  0  0  0  0  0  0  0  0  0
    3.7282   -2.4669    0.0000 C   0  0  3  0  0  0  0  0  0  0  0  0
    4.2102   -0.2976    0.0000 C   0  0  0  0  0  0  0  0  0  0  0  0
    4.6262    2.1439    0.0000 C   0  0  0  0  0  0  0  0  0  0  0  0
    5.3992   -2.6280    0.0000 C   0  0  0  0  0  0  0  0  0  0  0  0
    4.2102    0.5024    0.0000 C   0  0  0  0  0  0  0  0  0  0  0  0
    3.9539   -3.4774    0.0000 C   0  0  3  0  0  0  0  0  0  0  0  0
    2.8341    1.1092    0.0000 C   0  0  0  0  0  0  0  0  0  0  0  0
    2.8261   -1.9461    0.0000 C   0  0  0  0  0  0  0  0  0  0  0  0
    2.8341   -0.9045    0.0000 C   0  0  0  0  0  0  0  0  0  0  0  0
    4.9846   -3.5768    0.0000 C   0  0  0  0  0  0  0  0  0  0  0  0
    2.8781    0.1024    0.0000 C   0  0  0  0  0  0  0  0  0  0  0  0
    3.7282    2.6716    0.0000 C   0  0  3  0  0  0  0  0  0  0  0  0
    2.8261    2.1508    0.0000 C   0  0  0  0  0  0  0  0  0  0  0  0
    6.4224   -0.7023    0.0000 C   0  0  0  0  0  0  0  0  0  0  0  0
    6.4224    0.9071    0.0000 C   0  0  0  0  0  0  0  0  0  0  0  0
    2.8660   -2.9735    0.0000 C   0  0  0  0  0  0  0  0  0  0  0  0
    3.2918   -4.2269    0.0000 C   0  0  0  0  0  0  0  0  0  0  0  0
    3.6098   -5.1750    0.0000 C   0  0  0  0  0  0  0  0  0  0  0  0
    2.8680    4.1750    0.0000 C   0  0  0  0  0  0  0  0  0  0  0  0
    2.8718    5.1750    0.0000 C   0  0  0  0  0  0  0  0  0  0  0  0
    5.1900   -1.6811    0.0000 H   0  0  0  0  0  0  0  0  0  0  0  0
    5.5418   -1.0141    0.0000 H   0  0  0  0  0  0  0  0  0  0  0  0
    5.5418    1.2189    0.0000 H   0  0  0  0  0  0  0  0  0  0  0  0
    3.6168   -0.4773    0.0000 H   0  0  0  0  0  0  0  0  0  0  0  0
    5.2354    2.0284    0.0000 H   0  0  0  0  0  0  0  0  0  0  0  0
    4.8442    2.7243    0.0000 H   0  0  0  0  0  0  0  0  0  0  0  0
    5.9381   -2.9347    0.0000 H   0  0  0  0  0  0  0  0  0  0  0  0
    5.7608   -2.1244    0.0000 H   0  0  0  0  0  0  0  0  0  0  0  0
    3.6168    0.6821    0.0000 H   0  0  0  0  0  0  0  0  0  0  0  0
    4.1813   -4.0542    0.0000 H   0  0  0  0  0  0  0  0  0  0  0  0
    2.2225    1.2106    0.0000 H   0  0  0  0  0  0  0  0  0  0  0  0
    2.6296    0.5239    0.0000 H   0  0  0  0  0  0  0  0  0  0  0  0
    2.2161   -1.8353    0.0000 H   0  0  0  0  0  0  0  0  0  0  0  0
    2.6126   -2.5281    0.0000 H   0  0  0  0  0  0  0  0  0  0  0  0
    2.3008   -0.5883    0.0000 H   0  0  0  0  0  0  0  0  0  0  0  0
    4.8605   -4.1843    0.0000 H   0  0  0  0  0  0  0  0  0  0  0  0
    5.5756   -3.7640    0.0000 H   0  0  0  0  0  0  0  0  0  0  0  0
    2.5681    0.6393    0.0000 H   0  0  0  0  0  0  0  0  0  0  0  0
    2.3412   -0.2076    0.0000 H   0  0  0  0  0  0  0  0  0  0  0  0
    3.1881   -0.4346    0.0000 H   0  0  0  0  0  0  0  0  0  0  0  0
    4.2669    2.9785    0.0000 H   0  0  0  0  0  0  0  0  0  0  0  0
    2.6126    2.7329    0.0000 H   0  0  0  0  0  0  0  0  0  0  0  0
    2.2161    2.0400    0.0000 H   0  0  0  0  0  0  0  0  0  0  0  0
    2.5519   -2.4390    0.0000 H   0  0  0  0  0  0  0  0  0  0  0  0
    2.3315   -3.2877    0.0000 H   0  0  0  0  0  0  0  0  0  0  0  0
    3.1802   -3.5081    0.0000 H   0  0  0  0  0  0  0  0  0  0  0  0
    3.0220   -5.3721    0.0000 H   0  0  0  0  0  0  0  0  0  0  0  0
    3.8069   -5.7628    0.0000 H   0  0  0  0  0  0  0  0  0  0  0  0
    4.1976   -4.9778    0.0000 H   0  0  0  0  0  0  0  0  0  0  0  0
    3.4918    5.1726    0.0000 H   0  0  0  0  0  0  0  0  0  0  0  0
    2.8742    5.7950    0.0000 H   0  0  0  0  0  0  0  0  0  0  0  0
    2.2518    5.1774    0.0000 H   0  0  0  0  0  0  0  0  0  0  0  0
  1 27  1  0  0  0  0
  1 28  1  0  0  0  0
  2 25  1  0  0  0  0
  2 32  1  0  0  0  0
  3 27  2  0  0  0  0
  4 28  2  0  0  0  0
  5 30  2  0  0  0  0
  6 32  2  0  0  0  0
  7 10  1  0  0  0  0
  7 11  1  0  0  0  0
  7 13  1  0  0  0  0
  7 15  1  0  0  0  0
  8  9  1  0  0  0  0
  8 12  1  0  0  0  0
  8 16  1  0  0  0  0
  8 18  1  0  0  0  0
  9 13  1  0  0  0  0
  9 20  1  0  0  0  0
  9 24  1  0  0  0  0
 10 14  1  0  0  0  0
 10 17  1  0  0  0  0
 10 34  1  0  0  0  0
 11 12  1  0  0  0  0
 11 27  1  0  0  0  0
 11 35  1  0  0  0  0
 12 28  1  0  0  0  0
 12 36  1  0  0  0  0
 13 22  2  0  0  0  0
 14 19  1  0  0  0  0
 14 21  1  0  0  0  0
 14 29  1  0  0  0  0
 15 18  2  0  0  0  0
 15 37  1  0  0  0  0
 16 25  1  0  0  0  0
 16 38  1  0  0  0  0
 16 39  1  0  0  0  0
 17 23  1  0  0  0  0
 17 40  1  0  0  0  0
 17 41  1  0  0  0  0
 18 42  1  0  0  0  0
 19 23  1  0  0  0  0
 19 30  1  0  0  0  0
 19 43  1  0  0  0  0
 20 26  1  0  0  0  0
 20 44  1  0  0  0  0
 20 45  1  0  0  0  0
 21 22  1  0  0  0  0
 21 46  1  0  0  0  0
 21 47  1  0  0  0  0
 22 48  1  0  0  0  0
 23 49  1  0  0  0  0
 23 50  1  0  0  0  0
 24 51  1  0  0  0  0
 24 52  1  0  0  0  0
 24 53  1  0  0  0  0
 25 26  1  0  0  0  0
 25 54  1  0  0  0  0
 26 55  1  0  0  0  0
 26 56  1  0  0  0  0
 29 57  1  0  0  0  0
 29 58  1  0  0  0  0
 29 59  1  0  0  0  0
 30 31  1  0  0  0  0
 31 60  1  0  0  0  0
 31 61  1  0  0  0  0
 31 62  1  0  0  0  0
 32 33  1  0  0  0  0
 33 63  1  0  0  0  0
 33 64  1  0  0  0  0
 33 65  1  0  0  0  0
M  END
> <PUBCHEM_COMPOUND_CID>
493951

> <PUBCHEM_COMPOUND_CANONICALIZED>
1

> <PUBCHEM_CACTVS_COMPLEXITY>
1070

> <PUBCHEM_CACTVS_HBOND_ACCEPTOR>
6

> <PUBCHEM_CACTVS_HBOND_DONOR>
0

> <PUBCHEM_CACTVS_ROTATABLE_BOND>
3

> <PUBCHEM_CACTVS_SUBSKEYS>
AAADcfB4OAAAAAAAAAAAAAAAAAAAAaIAAAAwYIECAAAAAEDAAAAAGgAAAAAADxSggAICCAAABACIAqDSCAAAAAAgAAAICAEAAAgAABIAAAACAAAEgAAIAAOL7PzPgAAAAAAAAADAAAYAACAAAQAACAAAAA==

> <PUBCHEM_IUPAC_INCHI>
InChI=1S/C27H32O6/c1-14(28)17-5-6-18-24(17,3)9-8-19-25(4)10-7-16(32-15(2)29)13-26(25)11-12-27(18,19)21-20(26)22(30)33-23(21)31/h8,11-12,16-18,20-21H,5-7,9-10,13H2,1-4H3

> <PUBCHEM_IUPAC_INCHIKEY>
PSLJWFDKICJBAP-UHFFFAOYSA-N

> <PUBCHEM_XLOGP3_AA>
3.2

> <PUBCHEM_EXACT_MASS>
452.219889

> <PUBCHEM_MOLECULAR_FORMULA>
C27H32O6

> <PUBCHEM_MOLECULAR_WEIGHT>
452.53938

> <PUBCHEM_OPENEYE_CAN_SMILES>
CC(=O)C1CCC2C1(CC=C3C24C=CC5(C3(CCC(C5)OC(=O)C)C)C6C4C(=O)OC6=O)C

> <PUBCHEM_OPENEYE_ISO_SMILES>
CC(=O)C1CCC2C1(CC=C3C24C=CC5(C3(CCC(C5)OC(=O)C)C)C6C4C(=O)OC6=O)C

> <PUBCHEM_CACTVS_TPSA>
86.7

> <PUBCHEM_MONOISOTOPIC_WEIGHT>
452.219889

> <PUBCHEM_TOTAL_CHARGE>
0

> <PUBCHEM_HEAVY_ATOM_COUNT>
33

> <PUBCHEM_ATOM_DEF_STEREO_COUNT>
0

> <PUBCHEM_ATOM_UDEF_STEREO_COUNT>
9

> <PUBCHEM_BOND_DEF_STEREO_COUNT>
0

> <PUBCHEM_BOND_UDEF_STEREO_COUNT>
0

> <PUBCHEM_ISOTOPIC_ATOM_COUNT>
0

> <PUBCHEM_COMPONENT_COUNT>
1

> <PUBCHEM_CACTVS_TAUTO_COUNT>
3

> <PUBCHEM_COORDINATE_TYPE>
1
5
255

> <PUBCHEM_BONDANNOTATIONS>
10  17  3
11  27  3
12  28  3
14  29  3
19  30  3
25  2  3
7  15  3
8  16  3
9  24  3

$$$$

