93362
  -OEChem-07051213122D

 27 27  0     0  0  0  0  0  0999 V2000
    4.5981    2.8170    0.0000 S   0  0  0  0  0  0  0  0  0  0  0  0
    3.7320   -1.6830    0.0000 S   0  0  0  0  0  0  0  0  0  0  0  0
    3.7320    2.3170    0.0000 O   0  0  0  0  0  0  0  0  0  0  0  0
    4.0981    3.6830    0.0000 O   0  0  0  0  0  0  0  0  0  0  0  0
    5.0981    1.9510    0.0000 O   0  0  0  0  0  0  0  0  0  0  0  0
    2.0000   -1.6830    0.0000 O   0  0  0  0  0  0  0  0  0  0  0  0
    2.8660   -3.1830    0.0000 N   0  0  0  0  0  0  0  0  0  0  0  0
    3.7320    1.3170    0.0000 C   0  0  0  0  0  0  0  0  0  0  0  0
    3.7320   -0.6830    0.0000 C   0  0  0  0  0  0  0  0  0  0  0  0
    2.8660    0.8170    0.0000 C   0  0  0  0  0  0  0  0  0  0  0  0
    4.5981    0.8170    0.0000 C   0  0  0  0  0  0  0  0  0  0  0  0
    2.8660   -0.1830    0.0000 C   0  0  0  0  0  0  0  0  0  0  0  0
    4.5981   -0.1830    0.0000 C   0  0  0  0  0  0  0  0  0  0  0  0
    5.4641    3.3170    0.0000 C   0  0  0  0  0  0  0  0  0  0  0  0
    2.8660   -2.1830    0.0000 C   0  0  0  0  0  0  0  0  0  0  0  0
    2.0000   -3.6830    0.0000 C   0  0  0  0  0  0  0  0  0  0  0  0
    2.3291    1.1270    0.0000 H   0  0  0  0  0  0  0  0  0  0  0  0
    5.1350    1.1270    0.0000 H   0  0  0  0  0  0  0  0  0  0  0  0
    2.3291   -0.4930    0.0000 H   0  0  0  0  0  0  0  0  0  0  0  0
    5.1350   -0.4930    0.0000 H   0  0  0  0  0  0  0  0  0  0  0  0
    5.7741    2.7800    0.0000 H   0  0  0  0  0  0  0  0  0  0  0  0
    6.0010    3.6270    0.0000 H   0  0  0  0  0  0  0  0  0  0  0  0
    5.1541    3.8539    0.0000 H   0  0  0  0  0  0  0  0  0  0  0  0
    3.4030   -3.4930    0.0000 H   0  0  0  0  0  0  0  0  0  0  0  0
    1.6900   -3.1461    0.0000 H   0  0  0  0  0  0  0  0  0  0  0  0
    1.4631   -3.9930    0.0000 H   0  0  0  0  0  0  0  0  0  0  0  0
    2.3100   -4.2200    0.0000 H   0  0  0  0  0  0  0  0  0  0  0  0
  1  3  1  0  0  0  0
  1  4  2  0  0  0  0
  1  5  2  0  0  0  0
  1 14  1  0  0  0  0
  2  9  1  0  0  0  0
  2 15  1  0  0  0  0
  3  8  1  0  0  0  0
  6 15  2  0  0  0  0
  7 15  1  0  0  0  0
  7 16  1  0  0  0  0
  7 24  1  0  0  0  0
  8 10  2  0  0  0  0
  8 11  1  0  0  0  0
  9 12  2  0  0  0  0
  9 13  1  0  0  0  0
 10 12  1  0  0  0  0
 10 17  1  0  0  0  0
 11 13  2  0  0  0  0
 11 18  1  0  0  0  0
 12 19  1  0  0  0  0
 13 20  1  0  0  0  0
 14 21  1  0  0  0  0
 14 22  1  0  0  0  0
 14 23  1  0  0  0  0
 16 25  1  0  0  0  0
 16 26  1  0  0  0  0
 16 27  1  0  0  0  0
M  END
> <PUBCHEM_COMPOUND_CID>
93362

> <PUBCHEM_COMPOUND_CANONICALIZED>
1

> <PUBCHEM_CACTVS_COMPLEXITY>
328

> <PUBCHEM_CACTVS_HBOND_ACCEPTOR>
5

> <PUBCHEM_CACTVS_HBOND_DONOR>
1

> <PUBCHEM_CACTVS_ROTATABLE_BOND>
4

> <PUBCHEM_CACTVS_SUBSKEYS>
AAADccByOABgAAAAAAAAAAAAAAAAAAAAAAAwAAAAAAAAAAABAAAAHgQQAAAACASA0ASyB4LAAAqIACBCEHACAABgKBAIiJgOCIgIJiKgERKAMAAkwhEIiAeAQAAAAIAAAAAAAAABAAAAAAAAAAAAAAAAAA==

> <PUBCHEM_IUPAC_OPENEYE_NAME>
[4-(methylcarbamoylsulfanyl)phenyl] methanesulfonate

> <PUBCHEM_IUPAC_CAS_NAME>
methanesulfonic acid [4-(methylcarbamoylthio)phenyl] ester

> <PUBCHEM_IUPAC_NAME>
[4-(methylcarbamoylsulfanyl)phenyl] methanesulfonate

> <PUBCHEM_IUPAC_SYSTEMATIC_NAME>
[4-(methylcarbamoylsulfanyl)phenyl] methanesulfonate

> <PUBCHEM_IUPAC_TRADITIONAL_NAME>
methanesulfonic acid [4-(methylcarbamoylthio)phenyl] ester

> <PUBCHEM_IUPAC_INCHI>
InChI=1S/C9H11NO4S2/c1-10-9(11)15-8-5-3-7(4-6-8)14-16(2,12)13/h3-6H,1-2H3,(H,10,11)

> <PUBCHEM_IUPAC_INCHIKEY>
IXJOSTZEBSTPAG-UHFFFAOYSA-N

> <PUBCHEM_XLOGP3_AA>
1.6

> <PUBCHEM_EXACT_MASS>
261.01295

> <PUBCHEM_MOLECULAR_FORMULA>
C9H11NO4S2

> <PUBCHEM_MOLECULAR_WEIGHT>
261.31794

> <PUBCHEM_OPENEYE_CAN_SMILES>
CNC(=O)SC1=CC=C(C=C1)OS(=O)(=O)C

> <PUBCHEM_OPENEYE_ISO_SMILES>
CNC(=O)SC1=CC=C(C=C1)OS(=O)(=O)C

> <PUBCHEM_CACTVS_TPSA>
106

> <PUBCHEM_MONOISOTOPIC_WEIGHT>
261.01295

> <PUBCHEM_TOTAL_CHARGE>
0

> <PUBCHEM_HEAVY_ATOM_COUNT>
16

> <PUBCHEM_ATOM_DEF_STEREO_COUNT>
0

> <PUBCHEM_ATOM_UDEF_STEREO_COUNT>
0

> <PUBCHEM_BOND_DEF_STEREO_COUNT>
0

> <PUBCHEM_BOND_UDEF_STEREO_COUNT>
0

> <PUBCHEM_ISOTOPIC_ATOM_COUNT>
0

> <PUBCHEM_COMPONENT_COUNT>
1

> <PUBCHEM_CACTVS_TAUTO_COUNT>
2

> <PUBCHEM_COORDINATE_TYPE>
1
5
255

> <PUBCHEM_BONDANNOTATIONS>
10  12  8
11  13  8
8  10  8
8  11  8
9  12  8
9  13  8

$$$$

