442835
  -OEChem-07051212593D

 53 56  0     1  0  0  0  0  0999 V2000
    4.9129   -0.9468   -0.1508 O   0  0  0  0  0  0  0  0  0  0  0  0
    4.2450   -1.9140    1.8162 O   0  0  0  0  0  0  0  0  0  0  0  0
   -1.2793    2.4729    2.1070 O   0  0  0  0  0  0  0  0  0  0  0  0
   -2.1687    3.7037    0.2357 O   0  0  0  0  0  0  0  0  0  0  0  0
   -2.1496   -0.8431   -2.5958 O   0  0  0  0  0  0  0  0  0  0  0  0
   -2.5201   -2.4480    1.9014 O   0  0  0  0  0  0  0  0  0  0  0  0
   -3.7137   -1.4637   -0.3967 O   0  0  0  0  0  0  0  0  0  0  0  0
    2.8916    0.0465   -0.8030 C   0  0  2  0  0  0  0  0  0  0  0  0
    2.5993   -0.9620    0.3029 C   0  0  1  0  0  0  0  0  0  0  0  0
    4.2562   -0.3925   -1.2960 C   0  0  0  0  0  0  0  0  0  0  0  0
    2.9416    1.4744   -0.2519 C   0  0  0  0  0  0  0  0  0  0  0  0
    1.8783   -2.2048   -0.2003 C   0  0  0  0  0  0  0  0  0  0  0  0
    3.9828   -1.3315    0.7747 C   0  0  0  0  0  0  0  0  0  0  0  0
    1.5687    2.0885   -0.1552 C   0  0  0  0  0  0  0  0  0  0  0  0
    0.3852   -2.0067   -0.2522 C   0  0  0  0  0  0  0  0  0  0  0  0
    0.8370    1.9338    1.0160 C   0  0  0  0  0  0  0  0  0  0  0  0
    1.0631    2.8004   -1.2480 C   0  0  0  0  0  0  0  0  0  0  0  0
   -0.3835   -2.3222    0.8584 C   0  0  0  0  0  0  0  0  0  0  0  0
   -0.1963   -1.5119   -1.4099 C   0  0  0  0  0  0  0  0  0  0  0  0
   -0.4144    2.5137    1.0571 C   0  0  0  0  0  0  0  0  0  0  0  0
   -0.2070    3.3779   -1.1802 C   0  0  0  0  0  0  0  0  0  0  0  0
   -0.9224    3.2164   -0.0115 C   0  0  0  0  0  0  0  0  0  0  0  0
   -1.5782   -1.3282   -1.4583 C   0  0  0  0  0  0  0  0  0  0  0  0
   -1.7655   -2.1387    0.8101 C   0  0  0  0  0  0  0  0  0  0  0  0
   -2.3629   -1.6417   -0.3484 C   0  0  0  0  0  0  0  0  0  0  0  0
   -2.3883    3.2293    1.5798 C   0  0  0  0  0  0  0  0  0  0  0  0
   -2.2803    0.5730   -2.7024 C   0  0  0  0  0  0  0  0  0  0  0  0
   -2.7361   -1.4099    2.8552 C   0  0  0  0  0  0  0  0  0  0  0  0
   -4.4955   -2.5647   -0.8540 C   0  0  0  0  0  0  0  0  0  0  0  0
    2.1800    0.0137   -1.6331 H   0  0  0  0  0  0  0  0  0  0  0  0
    2.0713   -0.5212    1.1516 H   0  0  0  0  0  0  0  0  0  0  0  0
    4.1843   -1.1775   -2.0568 H   0  0  0  0  0  0  0  0  0  0  0  0
    4.8598    0.4246   -1.7017 H   0  0  0  0  0  0  0  0  0  0  0  0
    3.5494    2.1110   -0.9091 H   0  0  0  0  0  0  0  0  0  0  0  0
    3.4407    1.5163    0.7253 H   0  0  0  0  0  0  0  0  0  0  0  0
    2.2472   -2.5136   -1.1874 H   0  0  0  0  0  0  0  0  0  0  0  0
    2.0924   -3.0613    0.4539 H   0  0  0  0  0  0  0  0  0  0  0  0
    1.2243    1.4011    1.8764 H   0  0  0  0  0  0  0  0  0  0  0  0
    1.6467    2.9091   -2.1584 H   0  0  0  0  0  0  0  0  0  0  0  0
    0.0794   -2.7074    1.7631 H   0  0  0  0  0  0  0  0  0  0  0  0
    0.4053   -1.2791   -2.2838 H   0  0  0  0  0  0  0  0  0  0  0  0
   -0.6117    3.9304   -2.0205 H   0  0  0  0  0  0  0  0  0  0  0  0
   -3.2805    2.5925    1.5854 H   0  0  0  0  0  0  0  0  0  0  0  0
   -2.5668    4.0918    2.2321 H   0  0  0  0  0  0  0  0  0  0  0  0
   -2.7746    0.9906   -1.8194 H   0  0  0  0  0  0  0  0  0  0  0  0
   -2.8902    0.7955   -3.5822 H   0  0  0  0  0  0  0  0  0  0  0  0
   -1.2953    1.0289   -2.8366 H   0  0  0  0  0  0  0  0  0  0  0  0
   -1.7845   -1.0792    3.2836 H   0  0  0  0  0  0  0  0  0  0  0  0
   -3.3627   -1.8071    3.6584 H   0  0  0  0  0  0  0  0  0  0  0  0
   -3.2535   -0.5630    2.3932 H   0  0  0  0  0  0  0  0  0  0  0  0
   -4.3646   -3.4299   -0.1963 H   0  0  0  0  0  0  0  0  0  0  0  0
   -5.5478   -2.2683   -0.8356 H   0  0  0  0  0  0  0  0  0  0  0  0
   -4.2249   -2.8295   -1.8810 H   0  0  0  0  0  0  0  0  0  0  0  0
  1 10  1  0  0  0  0
  1 13  1  0  0  0  0
  2 13  2  0  0  0  0
  3 20  1  0  0  0  0
  3 26  1  0  0  0  0
  4 22  1  0  0  0  0
  4 26  1  0  0  0  0
  5 23  1  0  0  0  0
  5 27  1  0  0  0  0
  6 24  1  0  0  0  0
  6 28  1  0  0  0  0
  7 25  1  0  0  0  0
  7 29  1  0  0  0  0
  8  9  1  0  0  0  0
  8 10  1  0  0  0  0
  8 11  1  0  0  0  0
  8 30  1  0  0  0  0
  9 12  1  0  0  0  0
  9 13  1  0  0  0  0
  9 31  1  0  0  0  0
 10 32  1  0  0  0  0
 10 33  1  0  0  0  0
 11 14  1  0  0  0  0
 11 34  1  0  0  0  0
 11 35  1  0  0  0  0
 12 15  1  0  0  0  0
 12 36  1  0  0  0  0
 12 37  1  0  0  0  0
 14 16  2  0  0  0  0
 14 17  1  0  0  0  0
 15 18  2  0  0  0  0
 15 19  1  0  0  0  0
 16 20  1  0  0  0  0
 16 38  1  0  0  0  0
 17 21  2  0  0  0  0
 17 39  1  0  0  0  0
 18 24  1  0  0  0  0
 18 40  1  0  0  0  0
 19 23  2  0  0  0  0
 19 41  1  0  0  0  0
 20 22  2  0  0  0  0
 21 22  1  0  0  0  0
 21 42  1  0  0  0  0
 23 25  1  0  0  0  0
 24 25  2  0  0  0  0
 26 43  1  0  0  0  0
 26 44  1  0  0  0  0
 27 45  1  0  0  0  0
 27 46  1  0  0  0  0
 27 47  1  0  0  0  0
 28 48  1  0  0  0  0
 28 49  1  0  0  0  0
 28 50  1  0  0  0  0
 29 51  1  0  0  0  0
 29 52  1  0  0  0  0
 29 53  1  0  0  0  0
M  END
> <PUBCHEM_COMPOUND_CID>
442835

> <PUBCHEM_CONFORMER_RMSD>
1

> <PUBCHEM_CONFORMER_DIVERSEORDER>
1
3
21
36
66
50
73
15
74
89
17
34
54
69
87
28
33
64
82
53
5
35
7
4
67
90
55
62
80
57
14
61
9
65
77
81
59
27
63
44
2
84
79
49
38
78
25
85
29
19
70
32
51
11
42
60
76
88
83
12
48
20
31
37
52
86
56
23
47
71
30
18
22
39
41
13
75
8
68
43
26
6
10
58
46
24
45
16
72
40

> <PUBCHEM_MMFF94_PARTIAL_CHARGES>
33
1 -0.43
10 0.28
11 0.14
12 0.14
13 0.66
14 -0.14
15 -0.14
16 -0.15
17 -0.15
18 -0.15
19 -0.15
2 -0.57
20 0.08
21 -0.15
22 0.08
23 0.08
24 0.08
25 0.08
26 0.56
27 0.28
28 0.28
29 0.28
3 -0.36
38 0.15
39 0.15
4 -0.36
40 0.15
41 0.15
42 0.15
5 -0.36
6 -0.36
7 -0.36
9 0.06

> <PUBCHEM_EFFECTIVE_ROTOR_COUNT>
8.4

> <PUBCHEM_PHARMACOPHORE_FEATURES>
10
1 2 acceptor
1 3 acceptor
1 4 acceptor
1 5 acceptor
1 6 acceptor
1 7 acceptor
5 1 8 9 10 13 rings
5 3 4 20 22 26 rings
6 14 16 17 20 21 22 rings
6 15 18 19 23 24 25 rings

> <PUBCHEM_HEAVY_ATOM_COUNT>
29

> <PUBCHEM_ATOM_DEF_STEREO_COUNT>
2

> <PUBCHEM_ATOM_UDEF_STEREO_COUNT>
0

> <PUBCHEM_BOND_DEF_STEREO_COUNT>
0

> <PUBCHEM_BOND_UDEF_STEREO_COUNT>
0

> <PUBCHEM_ISOTOPIC_ATOM_COUNT>
0

> <PUBCHEM_COMPONENT_COUNT>
1

> <PUBCHEM_CACTVS_TAUTO_COUNT>
2

> <PUBCHEM_CONFORMER_ID>
0006C1D300000001

> <PUBCHEM_MMFF94_ENERGY>
104.0762

> <PUBCHEM_FEATURE_SELFOVERLAP>
50.91

> <PUBCHEM_SHAPE_FINGERPRINT>
10165383 225 16614179488363421933
10366900 7 17774730744431443278
104564 63 18335132111935679716
12156800 1 17544698721528705413
12422481 6 17898539177397890691
12788726 201 18334850598299196396
128993 33 16027584498758467893
14866123 147 17333390381168850842
151778 21 17118030734962947325
17138139 8 17611509510794027061
17357779 13 18187942672200341526
19930381 70 17399805895760028895
21041028 32 18334863783574280935
21133410 90 17022619767860654489
21197605 99 18191287455745629153
21236236 1 18335422418029899582
23559900 14 16916515743980474110
238 59 17329461366001234630
24893992 56 18271534161358749775
3052486 1 18195784453443405780
35225 105 17835779160605087287
3524813 1 17986404290672681774
469060 322 18270960249309216104
6438718 38 18042689575330860446
81228 2 18265347260109128788

> <PUBCHEM_SHAPE_MULTIPOLES>
555.72
6.86
4.95
2.28
3.58
4.61
0.11
-5.47
0.04
-2.21
1.14
-1.96
-0.12
-1

> <PUBCHEM_SHAPE_SELFOVERLAP>
1208.551

> <PUBCHEM_SHAPE_VOLUME>
306.3

> <PUBCHEM_COORDINATE_TYPE>
2
5
10

$$$$

