442334
  -OEChem-07051212573D

 44 45  0     1  0  0  0  0  0999 V2000
   -3.4269    0.2543    1.4474 O   0  0  0  0  0  0  0  0  0  0  0  0
    2.4593   -1.0870    0.4102 O   0  0  0  0  0  0  0  0  0  0  0  0
   -5.6173   -0.1624    0.8616 O   0  0  0  0  0  0  0  0  0  0  0  0
    5.0018   -0.2779   -0.4536 O   0  0  0  0  0  0  0  0  0  0  0  0
    0.9471   -2.4213   -0.7166 O   0  0  0  0  0  0  0  0  0  0  0  0
   -2.2593    0.6598    0.7074 C   0  0  2  0  0  0  0  0  0  0  0  0
   -2.3632   -0.0936   -0.6057 C   0  0  2  0  0  0  0  0  0  0  0  0
   -1.0020    0.3222    1.4962 C   0  0  0  0  0  0  0  0  0  0  0  0
    0.3120    0.8857    0.9246 C   0  0  1  0  0  0  0  0  0  0  0  0
   -1.4788    0.4914   -1.6994 C   0  0  0  0  0  0  0  0  0  0  0  0
    0.7511    0.3381   -0.4246 C   0  0  0  0  0  0  0  0  0  0  0  0
   -3.8435   -0.0239   -0.7812 C   0  0  0  0  0  0  0  0  0  0  0  0
   -0.0172    0.1934   -1.5217 C   0  0  0  0  0  0  0  0  0  0  0  0
    2.2159   -0.0228   -0.5001 C   0  0  1  0  0  0  0  0  0  0  0  0
    0.3263    2.4189    0.9058 C   0  0  0  0  0  0  0  0  0  0  0  0
   -4.4487    0.0138    0.5706 C   0  0  0  0  0  0  0  0  0  0  0  0
    3.0863    1.1672   -0.1167 C   0  0  0  0  0  0  0  0  0  0  0  0
   -4.5905    0.0342   -1.8857 C   0  0  0  0  0  0  0  0  0  0  0  0
    4.5717    0.8392   -0.1708 C   0  0  0  0  0  0  0  0  0  0  0  0
    1.7537   -2.2366    0.1847 C   0  0  0  0  0  0  0  0  0  0  0  0
    5.5116    1.9720    0.1524 C   0  0  0  0  0  0  0  0  0  0  0  0
    2.1106   -3.2646    1.2152 C   0  0  0  0  0  0  0  0  0  0  0  0
   -2.3397    1.7464    0.5732 H   0  0  0  0  0  0  0  0  0  0  0  0
   -2.1131   -1.1545   -0.4575 H   0  0  0  0  0  0  0  0  0  0  0  0
   -0.9185   -0.7679    1.6058 H   0  0  0  0  0  0  0  0  0  0  0  0
   -1.1288    0.6941    2.5224 H   0  0  0  0  0  0  0  0  0  0  0  0
    1.0544    0.5842    1.6762 H   0  0  0  0  0  0  0  0  0  0  0  0
   -1.6224    1.5738   -1.8029 H   0  0  0  0  0  0  0  0  0  0  0  0
   -1.7747    0.0551   -2.6622 H   0  0  0  0  0  0  0  0  0  0  0  0
    0.4615   -0.1733   -2.4297 H   0  0  0  0  0  0  0  0  0  0  0  0
    2.5069   -0.3595   -1.5044 H   0  0  0  0  0  0  0  0  0  0  0  0
   -0.3528    2.8197    0.1454 H   0  0  0  0  0  0  0  0  0  0  0  0
    0.0009    2.8126    1.8756 H   0  0  0  0  0  0  0  0  0  0  0  0
    1.3088    2.8498    0.7078 H   0  0  0  0  0  0  0  0  0  0  0  0
    2.9294    1.4652    0.9250 H   0  0  0  0  0  0  0  0  0  0  0  0
    2.9046    2.0156   -0.7853 H   0  0  0  0  0  0  0  0  0  0  0  0
   -4.1392    0.0172   -2.8713 H   0  0  0  0  0  0  0  0  0  0  0  0
   -5.6725    0.0977   -1.8385 H   0  0  0  0  0  0  0  0  0  0  0  0
    6.5463    1.6267    0.0741 H   0  0  0  0  0  0  0  0  0  0  0  0
    5.3581    2.7890   -0.5569 H   0  0  0  0  0  0  0  0  0  0  0  0
    5.3309    2.3185    1.1728 H   0  0  0  0  0  0  0  0  0  0  0  0
    1.8492   -2.8961    2.2104 H   0  0  0  0  0  0  0  0  0  0  0  0
    3.1777   -3.4930    1.1564 H   0  0  0  0  0  0  0  0  0  0  0  0
    1.5464   -4.1817    1.0234 H   0  0  0  0  0  0  0  0  0  0  0  0
  1  6  1  0  0  0  0
  1 16  1  0  0  0  0
  2 14  1  0  0  0  0
  2 20  1  0  0  0  0
  3 16  2  0  0  0  0
  4 19  2  0  0  0  0
  5 20  2  0  0  0  0
  6  7  1  0  0  0  0
  6  8  1  0  0  0  0
  6 23  1  0  0  0  0
  7 10  1  0  0  0  0
  7 12  1  0  0  0  0
  7 24  1  0  0  0  0
  8  9  1  0  0  0  0
  8 25  1  0  0  0  0
  8 26  1  0  0  0  0
  9 11  1  0  0  0  0
  9 15  1  0  0  0  0
  9 27  1  0  0  0  0
 10 13  1  0  0  0  0
 10 28  1  0  0  0  0
 10 29  1  0  0  0  0
 11 13  2  0  0  0  0
 11 14  1  0  0  0  0
 12 16  1  0  0  0  0
 12 18  2  0  0  0  0
 13 30  1  0  0  0  0
 14 17  1  0  0  0  0
 14 31  1  0  0  0  0
 15 32  1  0  0  0  0
 15 33  1  0  0  0  0
 15 34  1  0  0  0  0
 17 19  1  0  0  0  0
 17 35  1  0  0  0  0
 17 36  1  0  0  0  0
 18 37  1  0  0  0  0
 18 38  1  0  0  0  0
 19 21  1  0  0  0  0
 20 22  1  0  0  0  0
 21 39  1  0  0  0  0
 21 40  1  0  0  0  0
 21 41  1  0  0  0  0
 22 42  1  0  0  0  0
 22 43  1  0  0  0  0
 22 44  1  0  0  0  0
M  END
> <PUBCHEM_COMPOUND_CID>
442334

> <PUBCHEM_CONFORMER_RMSD>
0.8

> <PUBCHEM_CONFORMER_DIVERSEORDER>
1
25
36
57
30
67
28
51
18
41
44
59
16
58
65
10
47
54
39
63
5
27
61
29
31
33
11
52
21
53
34
50
55
32
15
7
24
17
48
19
64
23
43
40
62
13
46
8
49
37
56
45
60
42
20
35
14
66
9
6
4
12
22
38
26
3
2

> <PUBCHEM_MMFF94_PARTIAL_CHARGES>
23
1 -0.43
10 0.14
11 -0.28
12 -0.12
13 -0.29
14 0.42
16 0.71
17 0.06
18 -0.3
19 0.45
2 -0.43
20 0.66
21 0.06
22 0.06
3 -0.57
30 0.15
37 0.15
38 0.15
4 -0.57
5 -0.57
6 0.28
7 0.14
9 0.14

> <PUBCHEM_EFFECTIVE_ROTOR_COUNT>
5.8

> <PUBCHEM_PHARMACOPHORE_FEATURES>
5
1 3 acceptor
1 4 acceptor
1 5 acceptor
5 1 6 7 12 16 rings
7 6 7 8 9 10 11 13 rings

> <PUBCHEM_HEAVY_ATOM_COUNT>
22

> <PUBCHEM_ATOM_DEF_STEREO_COUNT>
3

> <PUBCHEM_ATOM_UDEF_STEREO_COUNT>
1

> <PUBCHEM_BOND_DEF_STEREO_COUNT>
0

> <PUBCHEM_BOND_UDEF_STEREO_COUNT>
0

> <PUBCHEM_ISOTOPIC_ATOM_COUNT>
0

> <PUBCHEM_COMPONENT_COUNT>
1

> <PUBCHEM_CACTVS_TAUTO_COUNT>
3

> <PUBCHEM_CONFORMER_ID>
0006BFDE00000001

> <PUBCHEM_MMFF94_ENERGY>
47.7902

> <PUBCHEM_FEATURE_SELFOVERLAP>
25.396

> <PUBCHEM_SHAPE_FINGERPRINT>
10090160 65 18411415090499521120
10366900 7 18410019801674816921
11578080 2 17985545791124509180
12119455 92 18060141999045067540
12236239 1 17676483938860467285
12293681 25 16629376203653639050
12553582 1 18040443213125041817
12592029 89 18202008741824408986
12596602 18 18114175320459576435
12788726 201 17459180932324583521
13083527 12 18197794399570327562
13583140 156 18407758123911188953
13631057 29 18046355136898410047
13911987 19 18271516490977765884
14341114 328 18113052740040129499
14787075 74 18114461176192263064
15375358 24 17418378003871961039
15375462 189 18187367657472802075
1601671 61 16732978743237375865
16945 1 18130774664219730117
17138139 8 17827388508539083503
17980427 23 15410889626787297038
18681886 176 16443635588477984137
18915476 22 18129673009524807094
200 152 18410574011027035804
20344682 1 17847063259562663492
204376 136 18342173315886189212
20645477 70 18199199540765035703
21267235 1 16226329193218106653
21421861 104 18119516884990620491
22079108 93 18262518087789250720
22224240 67 18270681965535189978
23402539 116 15719391724410828597
23526113 38 17844829138040220421
23557571 272 16845566543582911997
23559900 14 16486693696820275554
34934 24 17894905265429696473
4340502 62 18411409592677521259
474 4 17970355823903102312

> <PUBCHEM_SHAPE_MULTIPOLES>
423.4
10.19
2.26
1.52
0.52
1.94
-0.19
-2.5
-0.45
-3.2
0.77
1.5
-0.07
-0.25

> <PUBCHEM_SHAPE_SELFOVERLAP>
879.227

> <PUBCHEM_SHAPE_VOLUME>
239.5

> <PUBCHEM_COORDINATE_TYPE>
2
5
10

$$$$

