244809
  -OEChem-07051213053D

 48 51  0     1  0  0  0  0  0999 V2000
   -4.3899    1.0394    1.3046 O   0  0  0  0  0  0  0  0  0  0  0  0
   -5.4860   -1.2218    0.4798 O   0  0  0  0  0  0  0  0  0  0  0  0
    5.7722   -0.3741   -0.1944 O   0  0  0  0  0  0  0  0  0  0  0  0
   -2.6719    0.8916   -0.4459 C   0  0  1  0  0  0  0  0  0  0  0  0
   -2.1517   -0.4305    0.1628 C   0  0  2  0  0  0  0  0  0  0  0  0
   -0.6736   -0.6690   -0.1542 C   0  0  1  0  0  0  0  0  0  0  0  0
    0.1671    0.4864    0.4680 C   0  0  2  0  0  0  0  0  0  0  0  0
   -4.1697    0.7845   -0.0794 C   0  0  1  0  0  0  0  0  0  0  0  0
   -1.8813    2.0409    0.1974 C   0  0  0  0  0  0  0  0  0  0  0  0
   -3.1789   -1.4764   -0.2734 C   0  0  0  0  0  0  0  0  0  0  0  0
   -4.5014   -0.6929   -0.3908 C   0  0  1  0  0  0  0  0  0  0  0  0
   -0.3605    1.8727    0.0127 C   0  0  0  0  0  0  0  0  0  0  0  0
   -0.1629   -2.0039    0.3923 C   0  0  0  0  0  0  0  0  0  0  0  0
   -2.5462    0.9806   -1.9884 C   0  0  0  0  0  0  0  0  0  0  0  0
    1.6615    0.2612    0.2543 C   0  0  0  0  0  0  0  0  0  0  0  0
    1.2668   -2.2453   -0.0827 C   0  0  0  0  0  0  0  0  0  0  0  0
    2.1666   -1.0399    0.0385 C   0  0  0  0  0  0  0  0  0  0  0  0
    2.5792    1.3219    0.3544 C   0  0  0  0  0  0  0  0  0  0  0  0
    3.5496   -1.2367   -0.1223 C   0  0  0  0  0  0  0  0  0  0  0  0
    3.9513    1.1111    0.2016 C   0  0  0  0  0  0  0  0  0  0  0  0
    4.4366   -0.1673   -0.0414 C   0  0  0  0  0  0  0  0  0  0  0  0
    6.6228    0.7674   -0.0934 C   0  0  0  0  0  0  0  0  0  0  0  0
   -2.2155   -0.3785    1.2601 H   0  0  0  0  0  0  0  0  0  0  0  0
   -0.5318   -0.6820   -1.2428 H   0  0  0  0  0  0  0  0  0  0  0  0
    0.0281    0.4474    1.5597 H   0  0  0  0  0  0  0  0  0  0  0  0
   -4.8029    1.4732   -0.6470 H   0  0  0  0  0  0  0  0  0  0  0  0
   -2.0870    2.0909    1.2739 H   0  0  0  0  0  0  0  0  0  0  0  0
   -2.1977    3.0039   -0.2209 H   0  0  0  0  0  0  0  0  0  0  0  0
   -2.9074   -1.8972   -1.2486 H   0  0  0  0  0  0  0  0  0  0  0  0
   -3.2404   -2.3044    0.4405 H   0  0  0  0  0  0  0  0  0  0  0  0
   -4.8822   -0.7878   -1.4137 H   0  0  0  0  0  0  0  0  0  0  0  0
   -0.0847    2.0518   -1.0332 H   0  0  0  0  0  0  0  0  0  0  0  0
    0.1209    2.6689    0.5927 H   0  0  0  0  0  0  0  0  0  0  0  0
   -0.7908   -2.8374    0.0587 H   0  0  0  0  0  0  0  0  0  0  0  0
   -0.1962   -1.9987    1.4895 H   0  0  0  0  0  0  0  0  0  0  0  0
   -1.5083    0.9866   -2.3313 H   0  0  0  0  0  0  0  0  0  0  0  0
   -3.0398    0.1516   -2.5040 H   0  0  0  0  0  0  0  0  0  0  0  0
   -3.0090    1.9062   -2.3506 H   0  0  0  0  0  0  0  0  0  0  0  0
    1.2463   -2.5441   -1.1387 H   0  0  0  0  0  0  0  0  0  0  0  0
    1.6882   -3.0822    0.4873 H   0  0  0  0  0  0  0  0  0  0  0  0
   -3.9738    0.3458    1.8396 H   0  0  0  0  0  0  0  0  0  0  0  0
   -5.1203   -1.2402    1.3797 H   0  0  0  0  0  0  0  0  0  0  0  0
    2.2460    2.3345    0.5613 H   0  0  0  0  0  0  0  0  0  0  0  0
    3.9351   -2.2367   -0.3107 H   0  0  0  0  0  0  0  0  0  0  0  0
    4.5814    1.9897    0.2890 H   0  0  0  0  0  0  0  0  0  0  0  0
    7.6501    0.4194   -0.2423 H   0  0  0  0  0  0  0  0  0  0  0  0
    6.5780    1.2150    0.9053 H   0  0  0  0  0  0  0  0  0  0  0  0
    6.4139    1.4959   -0.8842 H   0  0  0  0  0  0  0  0  0  0  0  0
  1  8  1  0  0  0  0
  1 41  1  0  0  0  0
  2 11  1  0  0  0  0
  2 42  1  0  0  0  0
  3 21  1  0  0  0  0
  3 22  1  0  0  0  0
  4  5  1  0  0  0  0
  4  8  1  0  0  0  0
  4  9  1  0  0  0  0
  4 14  1  0  0  0  0
  5  6  1  0  0  0  0
  5 10  1  0  0  0  0
  5 23  1  0  0  0  0
  6  7  1  0  0  0  0
  6 13  1  0  0  0  0
  6 24  1  0  0  0  0
  7 12  1  0  0  0  0
  7 15  1  0  0  0  0
  7 25  1  0  0  0  0
  8 11  1  0  0  0  0
  8 26  1  0  0  0  0
  9 12  1  0  0  0  0
  9 27  1  0  0  0  0
  9 28  1  0  0  0  0
 10 11  1  0  0  0  0
 10 29  1  0  0  0  0
 10 30  1  0  0  0  0
 11 31  1  0  0  0  0
 12 32  1  0  0  0  0
 12 33  1  0  0  0  0
 13 16  1  0  0  0  0
 13 34  1  0  0  0  0
 13 35  1  0  0  0  0
 14 36  1  0  0  0  0
 14 37  1  0  0  0  0
 14 38  1  0  0  0  0
 15 17  2  0  0  0  0
 15 18  1  0  0  0  0
 16 17  1  0  0  0  0
 16 39  1  0  0  0  0
 16 40  1  0  0  0  0
 17 19  1  0  0  0  0
 18 20  2  0  0  0  0
 18 43  1  0  0  0  0
 19 21  2  0  0  0  0
 19 44  1  0  0  0  0
 20 21  1  0  0  0  0
 20 45  1  0  0  0  0
 22 46  1  0  0  0  0
 22 47  1  0  0  0  0
 22 48  1  0  0  0  0
M  END
> <PUBCHEM_COMPOUND_CID>
244809

> <PUBCHEM_CONFORMER_RMSD>
0.6

> <PUBCHEM_CONFORMER_DIVERSEORDER>
1

> <PUBCHEM_MMFF94_PARTIAL_CHARGES>
19
1 -0.68
11 0.28
15 -0.14
16 0.14
17 -0.14
18 -0.15
19 -0.15
2 -0.68
20 -0.15
21 0.08
22 0.28
3 -0.36
41 0.4
42 0.4
43 0.15
44 0.15
45 0.15
7 0.14
8 0.28

> <PUBCHEM_EFFECTIVE_ROTOR_COUNT>
2.4

> <PUBCHEM_PHARMACOPHORE_FEATURES>
9
1 1 acceptor
1 1 donor
1 2 acceptor
1 2 donor
1 3 acceptor
5 4 5 8 10 11 rings
6 15 17 18 19 20 21 rings
6 4 5 6 7 9 12 rings
6 6 7 13 15 16 17 rings

> <PUBCHEM_HEAVY_ATOM_COUNT>
22

> <PUBCHEM_ATOM_DEF_STEREO_COUNT>
6

> <PUBCHEM_ATOM_UDEF_STEREO_COUNT>
0

> <PUBCHEM_BOND_DEF_STEREO_COUNT>
0

> <PUBCHEM_BOND_UDEF_STEREO_COUNT>
0

> <PUBCHEM_ISOTOPIC_ATOM_COUNT>
0

> <PUBCHEM_COMPONENT_COUNT>
1

> <PUBCHEM_CACTVS_TAUTO_COUNT>
1

> <PUBCHEM_CONFORMER_ID>
0003BC4900000001

> <PUBCHEM_MMFF94_ENERGY>
91.197

> <PUBCHEM_FEATURE_SELFOVERLAP>
45.783

> <PUBCHEM_SHAPE_FINGERPRINT>
10411042 1 17762338020036641615
10616163 171 18407478873105201375
10906281 52 18337089212821492368
11578080 2 17201090437274332423
11796584 16 13984662560135446732
11963148 33 18270688562775178195
12011746 2 18340496586365833447
12166972 35 17917989478190981236
12236239 1 17530963601005100560
12403259 415 18410586058669010832
12403814 3 17847063307213427213
12788726 201 17096363019659122272
128620 24 18059856189945091413
13140716 1 18195524800852595667
13224815 77 18411423933414813523
13288520 33 18409730638880609261
13402501 40 18411138004689048242
13533116 47 5761385370915182988
13583140 156 16559038172634055608
13862211 1 18410581664621951002
14787075 74 18341896255703549971
14790565 3 18409159991977067600
15196674 1 18410293657189627290
15209289 33 18335139782578517241
16945 1 18194131934679888763
17349148 13 18202004343529893520
17980427 23 14620510181127024263
1813 80 17704064101943835181
18186145 218 18410581699202891140
19489759 90 15339122355057794780
19591789 44 18337675187567456627
200 152 17748828522871330064
20645477 70 18261953055120004550
21033648 29 18130241405671157916
21267235 1 18409442558028146827
21279426 13 18265050413550162462
221357 26 18260269659271678564
23402539 116 18335707135005246852
23402655 69 18259705610049222678
23557571 272 18335697243321076270
23559900 14 18261680268788157336
2871803 45 18412270549036872319
3004659 81 18342454885964499798
335352 9 18409449167581713700
34934 24 18339083808492321833
350125 39 18410572873209037392
3545911 37 18411138034648168246
4214541 1 18408323302198334321
4325135 7 18342738502942598015
4340502 62 16630525146524092170
474229 33 18411982451226054262
5104073 3 18337675320600414066
542803 24 17167863067192015208
9709674 26 18409443717384779030

> <PUBCHEM_SHAPE_MULTIPOLES>
435.14
11.8
2.06
0.91
9.01
0.28
0.26
-0.62
0.06
-0.43
-0.08
-0.8
-0.23
0.19

> <PUBCHEM_SHAPE_SELFOVERLAP>
942.799

> <PUBCHEM_SHAPE_VOLUME>
237.7

> <PUBCHEM_COORDINATE_TYPE>
2
5
10

$$$$

