17395607
  -OEChem-06241222513D

 51 53  0     1  0  0  0  0  0999 V2000
    6.6687    2.5203   -1.2623 Cl  0  0  0  0  0  0  0  0  0  0  0  0
   -0.8937   -0.9379   -1.2154 O   0  0  0  0  0  0  0  0  0  0  0  0
   -2.0991    1.3011    1.5643 O   0  0  0  0  0  0  0  0  0  0  0  0
   -4.6377   -1.3952   -1.1901 O   0  0  0  0  0  0  0  0  0  0  0  0
    1.3992    0.2859    2.0527 O   0  0  0  0  0  0  0  0  0  0  0  0
    1.7008   -1.6039    0.7092 N   0  0  0  0  0  0  0  0  0  0  0  0
   -3.1502   -0.3276    0.2652 N   0  0  0  0  0  0  0  0  0  0  0  0
   -4.7964    0.8660   -0.6062 N   0  0  0  0  0  0  0  0  0  0  0  0
   -2.3339   -1.3859    0.5515 N   0  0  0  0  0  0  0  0  0  0  0  0
   -0.4174   -2.7860    0.2199 C   0  0  1  0  0  0  0  0  0  0  0  0
    0.2707   -3.4726   -0.9653 C   0  0  0  0  0  0  0  0  0  0  0  0
    0.5772   -2.3380    1.2937 C   0  0  0  0  0  0  0  0  0  0  0  0
    1.4911   -2.7009   -1.4757 C   0  0  0  0  0  0  0  0  0  0  0  0
    2.4309   -2.3331   -0.3336 C   0  0  0  0  0  0  0  0  0  0  0  0
   -4.0841    1.8208    0.2282 C   0  0  1  0  0  0  0  0  0  0  0  0
   -1.2301   -1.6115   -0.2441 C   0  0  0  0  0  0  0  0  0  0  0  0
   -2.9700    0.9269    0.7911 C   0  0  0  0  0  0  0  0  0  0  0  0
   -3.4925    2.9466   -0.6097 C   0  0  0  0  0  0  0  0  0  0  0  0
   -4.9730    2.3369    1.3521 C   0  0  0  0  0  0  0  0  0  0  0  0
   -4.2321   -0.4164   -0.5790 C   0  0  0  0  0  0  0  0  0  0  0  0
    2.0114   -0.3255    1.1783 C   0  0  0  0  0  0  0  0  0  0  0  0
   -2.6909    2.4076   -1.7807 C   0  0  0  0  0  0  0  0  0  0  0  0
    3.1553    0.3730    0.5787 C   0  0  0  0  0  0  0  0  0  0  0  0
    2.9677    1.1876   -0.5380 C   0  0  0  0  0  0  0  0  0  0  0  0
    4.4294    0.2226    1.1261 C   0  0  0  0  0  0  0  0  0  0  0  0
    4.0541    1.8516   -1.1074 C   0  0  0  0  0  0  0  0  0  0  0  0
    5.5160    0.8865    0.5567 C   0  0  0  0  0  0  0  0  0  0  0  0
    5.3283    1.7010   -0.5600 C   0  0  0  0  0  0  0  0  0  0  0  0
   -1.1078   -3.5133    0.6680 H   0  0  0  0  0  0  0  0  0  0  0  0
   -0.4351   -3.6263   -1.7905 H   0  0  0  0  0  0  0  0  0  0  0  0
    0.6019   -4.4692   -0.6455 H   0  0  0  0  0  0  0  0  0  0  0  0
    0.0813   -1.7323    2.0598 H   0  0  0  0  0  0  0  0  0  0  0  0
    0.9997   -3.2146    1.7997 H   0  0  0  0  0  0  0  0  0  0  0  0
    1.1863   -1.7949   -2.0086 H   0  0  0  0  0  0  0  0  0  0  0  0
    2.0285   -3.3188   -2.2046 H   0  0  0  0  0  0  0  0  0  0  0  0
    3.2709   -1.7557   -0.7249 H   0  0  0  0  0  0  0  0  0  0  0  0
    2.8471   -3.2361    0.1287 H   0  0  0  0  0  0  0  0  0  0  0  0
   -4.2946    3.5839   -1.0024 H   0  0  0  0  0  0  0  0  0  0  0  0
   -2.8458    3.5838    0.0056 H   0  0  0  0  0  0  0  0  0  0  0  0
   -5.6185    1.1003   -1.1540 H   0  0  0  0  0  0  0  0  0  0  0  0
   -2.5799   -1.9497    1.3583 H   0  0  0  0  0  0  0  0  0  0  0  0
   -4.4233    3.0186    2.0104 H   0  0  0  0  0  0  0  0  0  0  0  0
   -5.3485    1.5149    1.9729 H   0  0  0  0  0  0  0  0  0  0  0  0
   -5.8422    2.8719    0.9537 H   0  0  0  0  0  0  0  0  0  0  0  0
   -1.8444    1.7946   -1.4580 H   0  0  0  0  0  0  0  0  0  0  0  0
   -2.2761    3.2459   -2.3516 H   0  0  0  0  0  0  0  0  0  0  0  0
   -3.3039    1.8254   -2.4755 H   0  0  0  0  0  0  0  0  0  0  0  0
    1.9789    1.3106   -0.9726 H   0  0  0  0  0  0  0  0  0  0  0  0
    4.5864   -0.4100    1.9959 H   0  0  0  0  0  0  0  0  0  0  0  0
    3.8931    2.4827   -1.9776 H   0  0  0  0  0  0  0  0  0  0  0  0
    6.5031    0.7597    0.9937 H   0  0  0  0  0  0  0  0  0  0  0  0
  1 28  1  0  0  0  0
  2 16  2  0  0  0  0
  3 17  2  0  0  0  0
  4 20  2  0  0  0  0
  5 21  2  0  0  0  0
  6 12  1  0  0  0  0
  6 14  1  0  0  0  0
  6 21  1  0  0  0  0
  7  9  1  0  0  0  0
  7 17  1  0  0  0  0
  7 20  1  0  0  0  0
  8 15  1  0  0  0  0
  8 20  1  0  0  0  0
  8 40  1  0  0  0  0
  9 16  1  0  0  0  0
  9 41  1  0  0  0  0
 10 11  1  0  0  0  0
 10 12  1  0  0  0  0
 10 16  1  0  0  0  0
 10 29  1  0  0  0  0
 11 13  1  0  0  0  0
 11 30  1  0  0  0  0
 11 31  1  0  0  0  0
 12 32  1  0  0  0  0
 12 33  1  0  0  0  0
 13 14  1  0  0  0  0
 13 34  1  0  0  0  0
 13 35  1  0  0  0  0
 14 36  1  0  0  0  0
 14 37  1  0  0  0  0
 15 17  1  0  0  0  0
 15 18  1  0  0  0  0
 15 19  1  0  0  0  0
 18 22  1  0  0  0  0
 18 38  1  0  0  0  0
 18 39  1  0  0  0  0
 19 42  1  0  0  0  0
 19 43  1  0  0  0  0
 19 44  1  0  0  0  0
 21 23  1  0  0  0  0
 22 45  1  0  0  0  0
 22 46  1  0  0  0  0
 22 47  1  0  0  0  0
 23 24  2  0  0  0  0
 23 25  1  0  0  0  0
 24 26  1  0  0  0  0
 24 48  1  0  0  0  0
 25 27  2  0  0  0  0
 25 49  1  0  0  0  0
 26 28  2  0  0  0  0
 26 50  1  0  0  0  0
 27 28  1  0  0  0  0
 27 51  1  0  0  0  0
M  END
> <PUBCHEM_COMPOUND_CID>
17395607

> <PUBCHEM_CONFORMER_RMSD>
1

> <PUBCHEM_CONFORMER_DIVERSEORDER>
1
42
141
192
92
52
80
182
15
171
181
56
196
74
33
145
205
184
118
154
188
161
117
111
139
136
79
64
198
69
187
202
155
203
133
88
99
100
23
178
159
28
30
135
156
105
134
68
206
204
84
47
90
176
157
172
110
97
70
200
94
21
57
191
129
121
174
89
54
170
163
91
153
81
166
93
62
123
71
43
40
114
104
131
37
108
140
197
144
207
158
67
53
86
119
76
61
38
169
151
25
177
98
96
19
20
122
5
160
109
183
201
101
75
58
149
34
146
13
59
46
125
189
167
16
165
77
150
14
3
208
72
48
115
179
180
137
194
152
195
85
50
95
55
127
190
175
162
138
66
173
22
63
41
112
73
124
148
36
27
107
193
126
147
209
11
35
130
32
65
142
168
31
87
7
103
8
4
2
143
116
120
44
6
132
24
78
29
26
186
199
106
82
45
17
185
51
9
128
102
49
164
10
18
60
83
12
113
39

> <PUBCHEM_MMFF94_PARTIAL_CHARGES>
29
1 -0.18
10 0.06
12 0.3
14 0.3
15 0.36
16 0.57
17 0.57
2 -0.57
20 0.69
21 0.54
23 0.09
24 -0.15
25 -0.15
26 -0.15
27 -0.15
28 0.18
3 -0.57
4 -0.57
40 0.37
41 0.37
48 0.15
49 0.15
5 -0.57
50 0.15
51 0.15
6 -0.66
7 -0.12
8 -0.73
9 -0.43

> <PUBCHEM_EFFECTIVE_ROTOR_COUNT>
7.8

> <PUBCHEM_PHARMACOPHORE_FEATURES>
10
1 2 acceptor
1 22 hydrophobe
1 3 acceptor
1 4 acceptor
1 5 acceptor
1 8 donor
1 9 donor
5 7 8 15 17 20 rings
6 23 24 25 26 27 28 rings
6 6 10 11 12 13 14 rings

> <PUBCHEM_HEAVY_ATOM_COUNT>
28

> <PUBCHEM_ATOM_DEF_STEREO_COUNT>
0

> <PUBCHEM_ATOM_UDEF_STEREO_COUNT>
2

> <PUBCHEM_BOND_DEF_STEREO_COUNT>
0

> <PUBCHEM_BOND_UDEF_STEREO_COUNT>
0

> <PUBCHEM_ISOTOPIC_ATOM_COUNT>
0

> <PUBCHEM_COMPONENT_COUNT>
1

> <PUBCHEM_CACTVS_TAUTO_COUNT>
4

> <PUBCHEM_CONFORMER_ID>
01096F9700000001

> <PUBCHEM_MMFF94_ENERGY>
66.4156

> <PUBCHEM_FEATURE_SELFOVERLAP>
50.743

> <PUBCHEM_SHAPE_FINGERPRINT>
10165383 225 18115290194890062275
10498660 4 18187087277675991297
105312 117 18334569097737213998
10670039 82 18410575042156738748
11763715 3 17116622247973632390
12107183 9 18272384083473137098
12422481 6 18128836303304644192
12788726 201 17981899548579580298
13103583 49 10951776317038160311
14251757 17 16515674533741201660
14251757 5 18263919943682351344
14251764 38 18054514878722887221
14251764 75 18262787605372015473
14294032 229 18188200993088136771
14347329 18 18409167680332186888
14713325 29 18196361516802371042
14840074 17 17989202625032916205
15163728 17 18336536183636292254
15183329 4 18413102845828452758
15575132 122 18273220785218575365
15961568 22 18272934925196196277
17809404 112 14332857053317551073
21033648 29 14836133173146139833
23559900 14 17534351329633325727
2838139 119 18335427833461413842
3459 39 18118150059442039304
44802255 64 17753595864351902036
46194498 28 18192146212453931615
474 4 18341051908193722635
5081480 168 17754447181929291886
5283173 99 17972315119585736288
6608658 132 18268157469652660055
7808743 9 18340487772807897314
7970288 3 8935000352206637376
9981440 41 18410855456145152587

> <PUBCHEM_SHAPE_MULTIPOLES>
534.7
12.72
3.98
1.59
6.91
1.37
-0.11
-13.02
1.58
-0.28
1.32
0.03
-0.19
-1.3

> <PUBCHEM_SHAPE_SELFOVERLAP>
1128.316

> <PUBCHEM_SHAPE_VOLUME>
301.5

> <PUBCHEM_COORDINATE_TYPE>
2
5
10

$$$$

