17395659
  -OEChem-06241222513D

 51 53  0     1  0  0  0  0  0999 V2000
   -1.6133    1.0007   -2.3741 O   0  0  0  0  0  0  0  0  0  0  0  0
   -0.9213   -4.2269   -0.4246 O   0  0  0  0  0  0  0  0  0  0  0  0
    0.9891   -0.0115   -2.4052 O   0  0  0  0  0  0  0  0  0  0  0  0
    6.0360    0.8022    1.3192 O   0  0  0  0  0  0  0  0  0  0  0  0
   -3.2299    1.7064   -0.0114 N   0  0  1  0  0  0  0  0  0  0  0  0
    0.0728    1.4262   -0.8185 N   0  0  0  0  0  0  0  0  0  0  0  0
   -2.9228    0.8361    1.1411 C   0  0  1  0  0  0  0  0  0  0  0  0
   -4.2476    0.7360    1.9197 C   0  0  0  0  0  0  0  0  0  0  0  0
   -5.2212    1.6302    1.1651 C   0  0  0  0  0  0  0  0  0  0  0  0
   -4.3177    2.5874    0.4141 C   0  0  0  0  0  0  0  0  0  0  0  0
   -2.3873   -0.5170    0.7227 C   0  0  0  0  0  0  0  0  0  0  0  0
   -2.0744    2.4542   -0.4902 C   0  0  0  0  0  0  0  0  0  0  0  0
   -3.1407   -1.3345   -0.1201 C   0  0  0  0  0  0  0  0  0  0  0  0
   -1.1414   -0.9464    1.1797 C   0  0  0  0  0  0  0  0  0  0  0  0
   -1.2144    1.5509   -1.3510 C   0  0  0  0  0  0  0  0  0  0  0  0
   -2.6480   -2.5810   -0.5058 C   0  0  0  0  0  0  0  0  0  0  0  0
   -0.6487   -2.1931    0.7941 C   0  0  0  0  0  0  0  0  0  0  0  0
   -1.4020   -3.0103   -0.0488 C   0  0  0  0  0  0  0  0  0  0  0  0
    1.0899    0.6546   -1.3786 C   0  0  0  0  0  0  0  0  0  0  0  0
    2.3928    0.6933   -0.6667 C   0  0  0  0  0  0  0  0  0  0  0  0
    0.3591   -4.6033    0.0799 C   0  0  0  0  0  0  0  0  0  0  0  0
    3.2673   -0.3900   -0.7539 C   0  0  0  0  0  0  0  0  0  0  0  0
    2.7424    1.8128    0.0883 C   0  0  0  0  0  0  0  0  0  0  0  0
    4.4913   -0.3537   -0.0860 C   0  0  0  0  0  0  0  0  0  0  0  0
    3.9664    1.8491    0.7563 C   0  0  0  0  0  0  0  0  0  0  0  0
    4.8408    0.7659    0.6691 C   0  0  0  0  0  0  0  0  0  0  0  0
    6.8829   -0.3382    1.1855 C   0  0  0  0  0  0  0  0  0  0  0  0
   -2.1984    1.3280    1.8059 H   0  0  0  0  0  0  0  0  0  0  0  0
   -4.1045    1.1329    2.9327 H   0  0  0  0  0  0  0  0  0  0  0  0
   -4.6463   -0.2789    2.0210 H   0  0  0  0  0  0  0  0  0  0  0  0
   -5.9140    2.1466    1.8360 H   0  0  0  0  0  0  0  0  0  0  0  0
   -5.8112    1.0294    0.4619 H   0  0  0  0  0  0  0  0  0  0  0  0
   -4.8340    3.0451   -0.4353 H   0  0  0  0  0  0  0  0  0  0  0  0
   -3.9612    3.3795    1.0847 H   0  0  0  0  0  0  0  0  0  0  0  0
   -1.5158    2.9287    0.3245 H   0  0  0  0  0  0  0  0  0  0  0  0
   -2.3973    3.2636   -1.1585 H   0  0  0  0  0  0  0  0  0  0  0  0
   -4.1131   -1.0174   -0.4872 H   0  0  0  0  0  0  0  0  0  0  0  0
   -0.5434   -0.3201    1.8364 H   0  0  0  0  0  0  0  0  0  0  0  0
   -3.2390   -3.2132   -1.1628 H   0  0  0  0  0  0  0  0  0  0  0  0
    0.3266   -2.4631    1.1843 H   0  0  0  0  0  0  0  0  0  0  0  0
    0.2521    1.8985    0.0620 H   0  0  0  0  0  0  0  0  0  0  0  0
    1.1459   -3.9297   -0.2767 H   0  0  0  0  0  0  0  0  0  0  0  0
    0.3516   -4.6913    1.1717 H   0  0  0  0  0  0  0  0  0  0  0  0
    0.5846   -5.5976   -0.3194 H   0  0  0  0  0  0  0  0  0  0  0  0
    3.0088   -1.2728   -1.3330 H   0  0  0  0  0  0  0  0  0  0  0  0
    2.1082    2.6917    0.1558 H   0  0  0  0  0  0  0  0  0  0  0  0
    5.1220   -1.2294   -0.1952 H   0  0  0  0  0  0  0  0  0  0  0  0
    4.2372    2.7269    1.3367 H   0  0  0  0  0  0  0  0  0  0  0  0
    6.4213   -1.2346    1.6135 H   0  0  0  0  0  0  0  0  0  0  0  0
    7.1952   -0.4880    0.1465 H   0  0  0  0  0  0  0  0  0  0  0  0
    7.7893   -0.1375    1.7659 H   0  0  0  0  0  0  0  0  0  0  0  0
  1 15  2  0  0  0  0
  2 18  1  0  0  0  0
  2 21  1  0  0  0  0
  3 19  2  0  0  0  0
  4 26  1  0  0  0  0
  4 27  1  0  0  0  0
  5  7  1  0  0  0  0
  5 10  1  0  0  0  0
  5 12  1  0  0  0  0
  6 15  1  0  0  0  0
  6 19  1  0  0  0  0
  6 41  1  0  0  0  0
  7  8  1  0  0  0  0
  7 11  1  0  0  0  0
  7 28  1  0  0  0  0
  8  9  1  0  0  0  0
  8 29  1  0  0  0  0
  8 30  1  0  0  0  0
  9 10  1  0  0  0  0
  9 31  1  0  0  0  0
  9 32  1  0  0  0  0
 10 33  1  0  0  0  0
 10 34  1  0  0  0  0
 11 13  2  0  0  0  0
 11 14  1  0  0  0  0
 12 15  1  0  0  0  0
 12 35  1  0  0  0  0
 12 36  1  0  0  0  0
 13 16  1  0  0  0  0
 13 37  1  0  0  0  0
 14 17  2  0  0  0  0
 14 38  1  0  0  0  0
 16 18  2  0  0  0  0
 16 39  1  0  0  0  0
 17 18  1  0  0  0  0
 17 40  1  0  0  0  0
 19 20  1  0  0  0  0
 20 22  2  0  0  0  0
 20 23  1  0  0  0  0
 21 42  1  0  0  0  0
 21 43  1  0  0  0  0
 21 44  1  0  0  0  0
 22 24  1  0  0  0  0
 22 45  1  0  0  0  0
 23 25  2  0  0  0  0
 23 46  1  0  0  0  0
 24 26  2  0  0  0  0
 24 47  1  0  0  0  0
 25 26  1  0  0  0  0
 25 48  1  0  0  0  0
 27 49  1  0  0  0  0
 27 50  1  0  0  0  0
 27 51  1  0  0  0  0
M  END
> <PUBCHEM_COMPOUND_CID>
17395659

> <PUBCHEM_CONFORMER_RMSD>
1

> <PUBCHEM_CONFORMER_DIVERSEORDER>
1
8
83
59
89
47
82
112
106
87
77
86
103
40
36
12
52
3
20
61
96
78
17
109
93
60
102
27
29
37
49
95
2
30
91
81
100
56
107
74
73
114
67
21
26
65
57
64
115
58
51
46
85
111
108
94
66
24
92
34
97
62
22
80
48
68
113
63
50
76
53
71
38
72
35
10
84
99
31
13
5
4
6
70
7
104
32
69
45
75
33
55
42
25
88
110
105
79
18
44
90
28
41
9
101
14
98
54
16
39
19
23
43
15
11

> <PUBCHEM_MMFF94_PARTIAL_CHARGES>
34
1 -0.57
10 0.27
11 -0.14
12 0.33
13 -0.15
14 -0.15
15 0.57
16 -0.15
17 -0.15
18 0.08
19 0.54
2 -0.36
20 0.09
21 0.28
22 -0.15
23 -0.15
24 -0.15
25 -0.15
26 0.08
27 0.28
3 -0.57
37 0.15
38 0.15
39 0.15
4 -0.36
40 0.15
41 0.37
45 0.15
46 0.15
47 0.15
48 0.15
5 -0.81
6 -0.49
7 0.41

> <PUBCHEM_EFFECTIVE_ROTOR_COUNT>
9

> <PUBCHEM_PHARMACOPHORE_FEATURES>
9
1 1 acceptor
1 2 acceptor
1 3 acceptor
1 4 acceptor
1 5 cation
1 6 donor
5 5 7 8 9 10 rings
6 11 13 14 16 17 18 rings
6 20 22 23 24 25 26 rings

> <PUBCHEM_HEAVY_ATOM_COUNT>
27

> <PUBCHEM_ATOM_DEF_STEREO_COUNT>
0

> <PUBCHEM_ATOM_UDEF_STEREO_COUNT>
1

> <PUBCHEM_BOND_DEF_STEREO_COUNT>
0

> <PUBCHEM_BOND_UDEF_STEREO_COUNT>
0

> <PUBCHEM_ISOTOPIC_ATOM_COUNT>
0

> <PUBCHEM_COMPONENT_COUNT>
1

> <PUBCHEM_CACTVS_TAUTO_COUNT>
3

> <PUBCHEM_CONFORMER_ID>
01096FCB00000001

> <PUBCHEM_MMFF94_ENERGY>
88.0368

> <PUBCHEM_FEATURE_SELFOVERLAP>
45.673

> <PUBCHEM_SHAPE_FINGERPRINT>
11370993 144 18334857221402277012
11370993 70 18334570261103658403
11524674 6 18409735101035196630
11552529 35 18120377558177502768
11720765 8 16888101980392103335
12107183 9 18411422843358264866
12422481 6 17916862563975153987
12633257 1 18410570661242916360
12788726 201 17904743511039440175
13004483 165 17830175710200933775
13583140 156 17313106311232446240
16120349 306 18413394254131440538
16994733 274 16153978171409717201
21033648 29 18264479749271721837
22182313 1 17486478585175803453
23559900 14 17897416537271310596
23728640 28 18341040818688261475
4340502 62 18188196702568431497
484985 159 18129682823398738006
5265222 85 18126537168561607246
5385378 56 18193825175494594225
5924683 9 18263086530504586119
602551 16 18411698751930732788
7970288 3 15984814926667587792
9862522 239 18059862826134060397

> <PUBCHEM_SHAPE_MULTIPOLES>
522.21
11.38
4.14
1.65
15.68
5.87
0.49
-6.24
-6.64
-3.17
0.24
-0.21
-0.53
-0.24

> <PUBCHEM_SHAPE_SELFOVERLAP>
1112.153

> <PUBCHEM_SHAPE_VOLUME>
291.7

> <PUBCHEM_COORDINATE_TYPE>
2
5
10

$$$$

