441704
  -OEChem-07051212553D

 79 84  0     1  0  0  0  0  0999 V2000
   -0.2548   -0.4568   -2.6567 O   0  0  0  0  0  0  0  0  0  0  0  0
    1.9241   -1.7480   -1.4800 O   0  0  0  0  0  0  0  0  0  0  0  0
   -0.2186   -2.7258   -0.2149 O   0  0  0  0  0  0  0  0  0  0  0  0
   -1.0614    2.7949    1.7416 O   0  0  0  0  0  0  0  0  0  0  0  0
    4.0795   -0.7585    0.3271 O   0  0  0  0  0  0  0  0  0  0  0  0
    4.1686    2.0073   -1.0547 O   0  0  0  0  0  0  0  0  0  0  0  0
   -5.2204   -1.5353   -0.0278 O   0  0  0  0  0  0  0  0  0  0  0  0
    4.2877   -2.4624    1.8733 O   0  0  0  0  0  0  0  0  0  0  0  0
   -2.0994    1.2568   -1.0928 N   0  0  2  0  0  0  0  0  0  0  0  0
   -0.7889    0.4790    0.8510 C   0  0  2  0  0  0  0  0  0  0  0  0
   -1.5577   -0.8906    0.6743 C   0  0  2  0  0  0  0  0  0  0  0  0
   -0.7394    0.8838   -0.6462 C   0  0  1  0  0  0  0  0  0  0  0  0
    0.6846    0.2917    1.3981 C   0  0  1  0  0  0  0  0  0  0  0  0
   -0.0986   -0.4216   -1.2428 C   0  0  2  0  0  0  0  0  0  0  0  0
    1.6272   -0.6452    0.6159 C   0  0  1  0  0  0  0  0  0  0  0  0
    1.4252   -0.5186   -0.9091 C   0  0  1  0  0  0  0  0  0  0  0  0
   -0.9300   -1.5565   -0.5837 C   0  0  1  0  0  0  0  0  0  0  0  0
   -3.0604   -0.5913    0.3593 C   0  0  2  0  0  0  0  0  0  0  0  0
   -1.5347    1.4531    1.8348 C   0  0  2  0  0  0  0  0  0  0  0  0
    1.5272    1.5903    1.5309 C   0  0  0  0  0  0  0  0  0  0  0  0
    2.8842    1.3075    0.8691 C   0  0  1  0  0  0  0  0  0  0  0  0
    3.0194   -0.1927    1.0675 C   0  0  2  0  0  0  0  0  0  0  0  0
    2.2773    0.6060   -1.5620 C   0  0  0  0  0  0  0  0  0  0  0  0
   -3.1372    0.2212   -0.9745 C   0  0  0  0  0  0  0  0  0  0  0  0
   -3.6866    0.1871    1.5333 C   0  0  0  0  0  0  0  0  0  0  0  0
    2.8412    1.6857   -0.6229 C   0  0  2  0  0  0  0  0  0  0  0  0
   -3.0518    1.5392    1.7411 C   0  0  0  0  0  0  0  0  0  0  0  0
   -3.8805   -1.8943    0.2230 C   0  0  0  0  0  0  0  0  0  0  0  0
   -2.1370    1.9244   -2.3866 C   0  0  0  0  0  0  0  0  0  0  0  0
   -1.0912   -3.8324   -0.0221 C   0  0  0  0  0  0  0  0  0  0  0  0
   -3.4771    2.6023   -2.6159 C   0  0  0  0  0  0  0  0  0  0  0  0
   -1.1793    3.4723    2.9833 C   0  0  0  0  0  0  0  0  0  0  0  0
    4.6339   -1.9033    0.8415 C   0  0  0  0  0  0  0  0  0  0  0  0
    4.1452    2.8966   -2.1579 C   0  0  0  0  0  0  0  0  0  0  0  0
   -6.0610   -2.6778   -0.1697 C   0  0  0  0  0  0  0  0  0  0  0  0
    5.7407   -2.3882   -0.0450 C   0  0  0  0  0  0  0  0  0  0  0  0
   -1.4608   -1.5003    1.5799 H   0  0  0  0  0  0  0  0  0  0  0  0
   -0.0891    1.7509   -0.7922 H   0  0  0  0  0  0  0  0  0  0  0  0
    0.5927   -0.1310    2.4101 H   0  0  0  0  0  0  0  0  0  0  0  0
    1.5008   -1.6825    0.9417 H   0  0  0  0  0  0  0  0  0  0  0  0
   -1.6721   -1.8854   -1.3143 H   0  0  0  0  0  0  0  0  0  0  0  0
   -1.3168    1.0630    2.8408 H   0  0  0  0  0  0  0  0  0  0  0  0
    1.6744    1.8084    2.5962 H   0  0  0  0  0  0  0  0  0  0  0  0
    1.0747    2.4750    1.0837 H   0  0  0  0  0  0  0  0  0  0  0  0
    3.6930    1.8536    1.3677 H   0  0  0  0  0  0  0  0  0  0  0  0
    3.1527   -0.3847    2.1421 H   0  0  0  0  0  0  0  0  0  0  0  0
    3.1162    0.1434   -2.1031 H   0  0  0  0  0  0  0  0  0  0  0  0
    1.7061    1.1043   -2.3558 H   0  0  0  0  0  0  0  0  0  0  0  0
   -3.1042   -0.4511   -1.8399 H   0  0  0  0  0  0  0  0  0  0  0  0
   -4.1288    0.6886   -1.0070 H   0  0  0  0  0  0  0  0  0  0  0  0
   -3.5906   -0.4000    2.4567 H   0  0  0  0  0  0  0  0  0  0  0  0
   -4.7611    0.3478    1.3835 H   0  0  0  0  0  0  0  0  0  0  0  0
    2.2305    2.5931   -0.7206 H   0  0  0  0  0  0  0  0  0  0  0  0
   -3.3589    2.2416    0.9569 H   0  0  0  0  0  0  0  0  0  0  0  0
   -3.4649    1.9673    2.6627 H   0  0  0  0  0  0  0  0  0  0  0  0
   -3.5313   -2.5169   -0.6042 H   0  0  0  0  0  0  0  0  0  0  0  0
   -3.8224   -2.4810    1.1479 H   0  0  0  0  0  0  0  0  0  0  0  0
   -1.1773   -0.6652   -2.8727 H   0  0  0  0  0  0  0  0  0  0  0  0
    1.7119   -1.7372   -2.4292 H   0  0  0  0  0  0  0  0  0  0  0  0
   -1.9395    1.2486   -3.2232 H   0  0  0  0  0  0  0  0  0  0  0  0
   -1.3675    2.7055   -2.4173 H   0  0  0  0  0  0  0  0  0  0  0  0
   -1.7511   -3.6754    0.8337 H   0  0  0  0  0  0  0  0  0  0  0  0
   -1.6668   -4.0470   -0.9276 H   0  0  0  0  0  0  0  0  0  0  0  0
   -0.4726   -4.7083    0.1950 H   0  0  0  0  0  0  0  0  0  0  0  0
   -4.2768    1.8849   -2.8245 H   0  0  0  0  0  0  0  0  0  0  0  0
   -3.7694    3.2196   -1.7595 H   0  0  0  0  0  0  0  0  0  0  0  0
   -3.4102    3.2630   -3.4875 H   0  0  0  0  0  0  0  0  0  0  0  0
   -2.2236    3.6319    3.2625 H   0  0  0  0  0  0  0  0  0  0  0  0
   -0.6466    2.9400    3.7778 H   0  0  0  0  0  0  0  0  0  0  0  0
   -0.7144    4.4562    2.8711 H   0  0  0  0  0  0  0  0  0  0  0  0
    5.1790    3.0995   -2.4519 H   0  0  0  0  0  0  0  0  0  0  0  0
    3.6793    3.8477   -1.8812 H   0  0  0  0  0  0  0  0  0  0  0  0
    3.6291    2.4588   -3.0172 H   0  0  0  0  0  0  0  0  0  0  0  0
   -6.0540   -3.2733    0.7483 H   0  0  0  0  0  0  0  0  0  0  0  0
   -7.0811   -2.3315   -0.3554 H   0  0  0  0  0  0  0  0  0  0  0  0
   -5.7372   -3.2872   -1.0190 H   0  0  0  0  0  0  0  0  0  0  0  0
    6.5255   -1.6300   -0.1048 H   0  0  0  0  0  0  0  0  0  0  0  0
    6.1690   -3.3025    0.3754 H   0  0  0  0  0  0  0  0  0  0  0  0
    5.3457   -2.6128   -1.0390 H   0  0  0  0  0  0  0  0  0  0  0  0
  1 14  1  0  0  0  0
  1 58  1  0  0  0  0
  2 16  1  0  0  0  0
  2 59  1  0  0  0  0
  3 17  1  0  0  0  0
  3 30  1  0  0  0  0
  4 19  1  0  0  0  0
  4 32  1  0  0  0  0
  5 22  1  0  0  0  0
  5 33  1  0  0  0  0
  6 26  1  0  0  0  0
  6 34  1  0  0  0  0
  7 28  1  0  0  0  0
  7 35  1  0  0  0  0
  8 33  2  0  0  0  0
  9 12  1  0  0  0  0
  9 24  1  0  0  0  0
  9 29  1  0  0  0  0
 10 11  1  0  0  0  0
 10 12  1  0  0  0  0
 10 13  1  0  0  0  0
 10 19  1  0  0  0  0
 11 17  1  0  0  0  0
 11 18  1  0  0  0  0
 11 37  1  0  0  0  0
 12 14  1  0  0  0  0
 12 38  1  0  0  0  0
 13 15  1  0  0  0  0
 13 20  1  0  0  0  0
 13 39  1  0  0  0  0
 14 16  1  0  0  0  0
 14 17  1  0  0  0  0
 15 16  1  0  0  0  0
 15 22  1  0  0  0  0
 15 40  1  0  0  0  0
 16 23  1  0  0  0  0
 17 41  1  0  0  0  0
 18 24  1  0  0  0  0
 18 25  1  0  0  0  0
 18 28  1  0  0  0  0
 19 27  1  0  0  0  0
 19 42  1  0  0  0  0
 20 21  1  0  0  0  0
 20 43  1  0  0  0  0
 20 44  1  0  0  0  0
 21 22  1  0  0  0  0
 21 26  1  0  0  0  0
 21 45  1  0  0  0  0
 22 46  1  0  0  0  0
 23 26  1  0  0  0  0
 23 47  1  0  0  0  0
 23 48  1  0  0  0  0
 24 49  1  0  0  0  0
 24 50  1  0  0  0  0
 25 27  1  0  0  0  0
 25 51  1  0  0  0  0
 25 52  1  0  0  0  0
 26 53  1  0  0  0  0
 27 54  1  0  0  0  0
 27 55  1  0  0  0  0
 28 56  1  0  0  0  0
 28 57  1  0  0  0  0
 29 31  1  0  0  0  0
 29 60  1  0  0  0  0
 29 61  1  0  0  0  0
 30 62  1  0  0  0  0
 30 63  1  0  0  0  0
 30 64  1  0  0  0  0
 31 65  1  0  0  0  0
 31 66  1  0  0  0  0
 31 67  1  0  0  0  0
 32 68  1  0  0  0  0
 32 69  1  0  0  0  0
 32 70  1  0  0  0  0
 33 36  1  0  0  0  0
 34 71  1  0  0  0  0
 34 72  1  0  0  0  0
 34 73  1  0  0  0  0
 35 74  1  0  0  0  0
 35 75  1  0  0  0  0
 35 76  1  0  0  0  0
 36 77  1  0  0  0  0
 36 78  1  0  0  0  0
 36 79  1  0  0  0  0
M  END
> <PUBCHEM_COMPOUND_CID>
441704

> <PUBCHEM_CONFORMER_RMSD>
1

> <PUBCHEM_CONFORMER_DIVERSEORDER>
1

> <PUBCHEM_MMFF94_PARTIAL_CHARGES>
27
1 -0.68
12 0.27
14 0.28
16 0.28
17 0.28
19 0.28
2 -0.68
22 0.28
24 0.27
26 0.28
28 0.28
29 0.27
3 -0.56
30 0.28
32 0.28
33 0.66
34 0.28
35 0.28
36 0.06
4 -0.56
5 -0.43
58 0.4
59 0.4
6 -0.56
7 -0.56
8 -0.57
9 -0.81

> <PUBCHEM_EFFECTIVE_ROTOR_COUNT>
10

> <PUBCHEM_PHARMACOPHORE_FEATURES>
14
1 1 acceptor
1 1 donor
1 2 acceptor
1 2 donor
1 3 acceptor
1 4 acceptor
1 6 acceptor
1 7 acceptor
1 8 acceptor
1 9 cation
6 10 11 18 19 25 27 rings
8 10 11 12 13 14 15 16 17 rings
8 13 15 16 20 21 22 23 26 rings
8 9 10 11 12 14 17 18 24 rings

> <PUBCHEM_HEAVY_ATOM_COUNT>
36

> <PUBCHEM_ATOM_DEF_STEREO_COUNT>
12

> <PUBCHEM_ATOM_UDEF_STEREO_COUNT>
1

> <PUBCHEM_BOND_DEF_STEREO_COUNT>
0

> <PUBCHEM_BOND_UDEF_STEREO_COUNT>
0

> <PUBCHEM_ISOTOPIC_ATOM_COUNT>
0

> <PUBCHEM_COMPONENT_COUNT>
1

> <PUBCHEM_CACTVS_TAUTO_COUNT>
1

> <PUBCHEM_CONFORMER_ID>
0006BD6800000001

> <PUBCHEM_MMFF94_ENERGY>
188.0201

> <PUBCHEM_FEATURE_SELFOVERLAP>
72.544

> <PUBCHEM_SHAPE_FINGERPRINT>
10863032 1 18267296547969479746
11578080 2 17697312181246927879
12011746 2 17824530890755297679
12107698 1 17632584854916164132
12156800 1 15041842169624020988
12166972 35 18343302539908009703
12553582 1 17458347403130641465
12608794 3 16754665802551735666
12633257 1 18187915205636862979
12788726 201 18114728357132548153
13009979 54 18334291007126271328
13140716 1 17098321297223581226
13224815 77 18040994038048397201
13583140 156 18264228940645711080
13782708 43 18338246990002700911
14178342 30 17971745820731381730
15131766 46 18055891252353656397
16945 1 17458349627970842317
17349148 13 17968385631961596102
17980427 23 17969790855362362184
19319366 153 18121215373279722728
21033648 29 18194712408221541720
23419403 2 18117300072698225565
23559900 14 18130520702877247238
350125 39 18412826905962546519
3633792 109 18202006507993229983
392239 28 18114168736486026987

> <PUBCHEM_SHAPE_MULTIPOLES>
688.93
9.36
3.79
2.49
1.95
0.5
0.26
5.05
0.49
-0.18
-0.28
-0.58
-2.49
-1.29

> <PUBCHEM_SHAPE_SELFOVERLAP>
1493.378

> <PUBCHEM_SHAPE_VOLUME>
372.1

> <PUBCHEM_COORDINATE_TYPE>
2
5
10

$$$$

