12423
  -OEChem-06261206552D

 11 10  0     0  0  0  0  0  0999 V2000
    4.2320   -0.9821    0.0000 I   0  0  0  0  0  0  0  0  0  0  0  0
    5.4641   -0.1160    0.0000 O   0  5  0  0  0  0  0  0  0  0  0  0
    2.0000   -0.1160    0.0000 O   0  5  0  0  0  0  0  0  0  0  0  0
    3.7320    1.6160    0.0000 O   0  5  0  0  0  0  0  0  0  0  0  0
    4.5981    1.3840    0.0000 O   0  0  0  0  0  0  0  0  0  0  0  0
    2.8660   -1.6160    0.0000 O   0  0  0  0  0  0  0  0  0  0  0  0
    2.2320    0.7500    0.0000 O   0  0  0  0  0  0  0  0  0  0  0  0
    4.5981    0.3840    0.0000 N   0  3  0  0  0  0  0  0  0  0  0  0
    2.8660   -0.6160    0.0000 N   0  3  0  0  0  0  0  0  0  0  0  0
    3.2320    0.7500    0.0000 N   0  3  0  0  0  0  0  0  0  0  0  0
    3.7320   -0.1160    0.0000 C   0  0  0  0  0  0  0  0  0  0  0  0
  1 11  1  0  0  0  0
  2  8  1  0  0  0  0
  3  9  1  0  0  0  0
  4 10  1  0  0  0  0
  5  8  2  0  0  0  0
  6  9  2  0  0  0  0
  7 10  2  0  0  0  0
  8 11  1  0  0  0  0
  9 11  1  0  0  0  0
 10 11  1  0  0  0  0
M  CHG  6   2  -1   3  -1   4  -1   8   1   9   1  10   1
M  END
> <PUBCHEM_COMPOUND_CID>
12423

> <PUBCHEM_COMPOUND_CANONICALIZED>
1

> <PUBCHEM_CACTVS_COMPLEXITY>
171

> <PUBCHEM_CACTVS_HBOND_ACCEPTOR>
6

> <PUBCHEM_CACTVS_HBOND_DONOR>
0

> <PUBCHEM_CACTVS_ROTATABLE_BOND>
0

> <PUBCHEM_CACTVS_SUBSKEYS>
AAADcQADOAAAAgAAAAAAAAAAAAAAAAAAAAAAAAAAAAAAAAAAAAAABAAkAAAAAAAAAAABAAAQQAABAAAAAwAAAAAAAAAAAAAAAAAAAAAAAAAAAAAAAAAAAAAAAAAAAAAAAAAAAAAAAAAAAAAAAAAAAAAAAA==

> <PUBCHEM_IUPAC_OPENEYE_NAME>
iodo(trinitro)methane

> <PUBCHEM_IUPAC_CAS_NAME>
iodo(trinitro)methane

> <PUBCHEM_IUPAC_NAME>
iodo(trinitro)methane

> <PUBCHEM_IUPAC_SYSTEMATIC_NAME>
iodanyl(trinitro)methane

> <PUBCHEM_IUPAC_TRADITIONAL_NAME>
iodo(trinitro)methane

> <PUBCHEM_IUPAC_INCHI>
InChI=1S/CIN3O6/c2-1(3(6)7,4(8)9)5(10)11

> <PUBCHEM_IUPAC_INCHIKEY>
PVYWOZWHSJHJFC-UHFFFAOYSA-N

> <PUBCHEM_XLOGP3_AA>
0.8

> <PUBCHEM_EXACT_MASS>
276.883183

> <PUBCHEM_MOLECULAR_FORMULA>
CIN3O6

> <PUBCHEM_MOLECULAR_WEIGHT>
276.93167

> <PUBCHEM_OPENEYE_CAN_SMILES>
C([N+](=O)[O-])([N+](=O)[O-])([N+](=O)[O-])I

> <PUBCHEM_OPENEYE_ISO_SMILES>
C([N+](=O)[O-])([N+](=O)[O-])([N+](=O)[O-])I

> <PUBCHEM_CACTVS_TPSA>
138

> <PUBCHEM_MONOISOTOPIC_WEIGHT>
276.883183

> <PUBCHEM_TOTAL_CHARGE>
0

> <PUBCHEM_HEAVY_ATOM_COUNT>
11

> <PUBCHEM_ATOM_DEF_STEREO_COUNT>
0

> <PUBCHEM_ATOM_UDEF_STEREO_COUNT>
0

> <PUBCHEM_BOND_DEF_STEREO_COUNT>
0

> <PUBCHEM_BOND_UDEF_STEREO_COUNT>
0

> <PUBCHEM_ISOTOPIC_ATOM_COUNT>
0

> <PUBCHEM_COMPONENT_COUNT>
1

> <PUBCHEM_CACTVS_TAUTO_COUNT>
1

> <PUBCHEM_COORDINATE_TYPE>
1
5
255

$$$$

