11569
  -OEChem-06261205503D

 18 18  0     0  0  0  0  0  0999 V2000
    2.3605   -1.0293    0.0001 O   0  0  0  0  0  0  0  0  0  0  0  0
   -3.5741   -0.3207    0.0005 O   0  0  0  0  0  0  0  0  0  0  0  0
    1.2048   -0.3105    0.0001 C   0  0  0  0  0  0  0  0  0  0  0  0
   -1.2098   -0.2307   -0.0003 C   0  0  0  0  0  0  0  0  0  0  0  0
   -0.0254   -0.9676   -0.0001 C   0  0  0  0  0  0  0  0  0  0  0  0
    1.2509    1.0836    0.0001 C   0  0  0  0  0  0  0  0  0  0  0  0
   -1.1637    1.1635   -0.0002 C   0  0  0  0  0  0  0  0  0  0  0  0
    0.0666    1.8206    0.0001 C   0  0  0  0  0  0  0  0  0  0  0  0
   -2.4928   -0.9155   -0.0002 C   0  0  0  0  0  0  0  0  0  0  0  0
    3.5830   -0.2934    0.0001 C   0  0  0  0  0  0  0  0  0  0  0  0
   -0.0512   -2.0548   -0.0001 H   0  0  0  0  0  0  0  0  0  0  0  0
    2.1711    1.6578    0.0002 H   0  0  0  0  0  0  0  0  0  0  0  0
   -2.0734    1.7581   -0.0003 H   0  0  0  0  0  0  0  0  0  0  0  0
    0.1016    2.9063    0.0002 H   0  0  0  0  0  0  0  0  0  0  0  0
   -2.4653   -2.0185   -0.0003 H   0  0  0  0  0  0  0  0  0  0  0  0
    3.6911    0.3072    0.9096 H   0  0  0  0  0  0  0  0  0  0  0  0
    3.6911    0.3073   -0.9094 H   0  0  0  0  0  0  0  0  0  0  0  0
    4.3994   -1.0230    0.0000 H   0  0  0  0  0  0  0  0  0  0  0  0
  1  3  1  0  0  0  0
  1 10  1  0  0  0  0
  2  9  2  0  0  0  0
  3  5  1  0  0  0  0
  3  6  2  0  0  0  0
  4  5  2  0  0  0  0
  4  7  1  0  0  0  0
  4  9  1  0  0  0  0
  5 11  1  0  0  0  0
  6  8  1  0  0  0  0
  6 12  1  0  0  0  0
  7  8  2  0  0  0  0
  7 13  1  0  0  0  0
  8 14  1  0  0  0  0
  9 15  1  0  0  0  0
 10 16  1  0  0  0  0
 10 17  1  0  0  0  0
 10 18  1  0  0  0  0
M  END
> <PUBCHEM_COMPOUND_CID>
11569

> <PUBCHEM_CONFORMER_RMSD>
0.4

> <PUBCHEM_CONFORMER_DIVERSEORDER>
1
3
4
2

> <PUBCHEM_MMFF94_PARTIAL_CHARGES>
15
1 -0.36
10 0.28
11 0.15
12 0.15
13 0.15
14 0.15
15 0.06
2 -0.57
3 0.08
4 0.09
5 -0.15
6 -0.15
7 -0.15
8 -0.15
9 0.42

> <PUBCHEM_EFFECTIVE_ROTOR_COUNT>
2

> <PUBCHEM_PHARMACOPHORE_FEATURES>
3
1 1 acceptor
1 2 acceptor
6 3 4 5 6 7 8 rings

> <PUBCHEM_HEAVY_ATOM_COUNT>
10

> <PUBCHEM_ATOM_DEF_STEREO_COUNT>
0

> <PUBCHEM_ATOM_UDEF_STEREO_COUNT>
0

> <PUBCHEM_BOND_DEF_STEREO_COUNT>
0

> <PUBCHEM_BOND_UDEF_STEREO_COUNT>
0

> <PUBCHEM_ISOTOPIC_ATOM_COUNT>
0

> <PUBCHEM_COMPONENT_COUNT>
1

> <PUBCHEM_CACTVS_TAUTO_COUNT>
1

> <PUBCHEM_CONFORMER_ID>
00002D3100000001

> <PUBCHEM_MMFF94_ENERGY>
32.5047

> <PUBCHEM_FEATURE_SELFOVERLAP>
15.223

> <PUBCHEM_SHAPE_FINGERPRINT>
10219947 1 18187363220529135039
10857977 72 18336559277891356992
12032990 46 18410849958312310186
14128692 85 18409445851877497420
16945 1 18410856551060410982
193761 8 17690280834151514183
20201158 50 18413671309491675507
20871998 184 18114747151998995660
20871998 22 18261662766015561311
21040471 1 17690279309533167073
23402655 69 18193576660550892581
23552423 10 18273211988993248628
2748010 2 18410583889383394380
29004967 10 18340768143883041457
5084963 1 18333168362266380377

> <PUBCHEM_SHAPE_MULTIPOLES>
194.06
4.63
1.52
0.6
0.34
0.6
0
-1.64
0
0.01
0
0.01
0.01
0

> <PUBCHEM_SHAPE_SELFOVERLAP>
402.003

> <PUBCHEM_SHAPE_VOLUME>
111.3

> <PUBCHEM_COORDINATE_TYPE>
2
5
10

$$$$

