9655
  -OEChem-06261203543D

 44 45  0     1  0  0  0  0  0999 V2000
    5.5266   -1.1880    0.8649 Cl  0  0  0  0  0  0  0  0  0  0  0  0
   -0.0812    0.0087   -2.2547 O   0  0  0  0  0  0  0  0  0  0  0  0
   -3.4090   -0.9461    0.1264 N   0  3  0  0  0  0  0  0  0  0  0  0
   -1.1120   -0.1247   -0.0299 C   0  0  2  0  0  0  0  0  0  0  0  0
    0.0117    0.5216   -0.9132 C   0  0  2  0  0  0  0  0  0  0  0  0
   -2.4871   -0.1659   -0.7194 C   0  0  0  0  0  0  0  0  0  0  0  0
   -1.2125    0.5755    1.3375 C   0  0  0  0  0  0  0  0  0  0  0  0
   -0.2189    2.0548   -1.0028 C   0  0  0  0  0  0  0  0  0  0  0  0
   -1.4546    2.0760    1.2131 C   0  0  0  0  0  0  0  0  0  0  0  0
   -0.3933    2.7466    0.3510 C   0  0  0  0  0  0  0  0  0  0  0  0
    1.4145    0.0867   -0.4599 C   0  0  0  0  0  0  0  0  0  0  0  0
   -3.5603   -0.3076    1.5178 C   0  0  0  0  0  0  0  0  0  0  0  0
   -2.8987   -2.3840    0.3230 C   0  0  0  0  0  0  0  0  0  0  0  0
   -4.8086   -1.0275   -0.5070 C   0  0  0  0  0  0  0  0  0  0  0  0
    2.3741    1.0496   -0.1628 C   0  0  0  0  0  0  0  0  0  0  0  0
    1.7165   -1.2675   -0.3505 C   0  0  0  0  0  0  0  0  0  0  0  0
    3.6476    0.6549    0.2475 C   0  0  0  0  0  0  0  0  0  0  0  0
    2.9898   -1.6623    0.0599 C   0  0  0  0  0  0  0  0  0  0  0  0
    3.9554   -0.7010    0.3591 C   0  0  0  0  0  0  0  0  0  0  0  0
   -0.7969   -1.1514    0.1530 H   0  0  0  0  0  0  0  0  0  0  0  0
   -2.4336   -0.6714   -1.6900 H   0  0  0  0  0  0  0  0  0  0  0  0
   -2.9163    0.8289   -0.8781 H   0  0  0  0  0  0  0  0  0  0  0  0
   -0.1677    0.5332    1.6979 H   0  0  0  0  0  0  0  0  0  0  0  0
   -1.6071    0.1184    2.2313 H   0  0  0  0  0  0  0  0  0  0  0  0
   -1.1309    2.2414   -1.5875 H   0  0  0  0  0  0  0  0  0  0  0  0
    0.5668    2.5445   -1.5913 H   0  0  0  0  0  0  0  0  0  0  0  0
   -1.4355    2.5292    2.2118 H   0  0  0  0  0  0  0  0  0  0  0  0
   -2.4371    2.3055    0.7909 H   0  0  0  0  0  0  0  0  0  0  0  0
   -0.6737    3.7936    0.1843 H   0  0  0  0  0  0  0  0  0  0  0  0
    0.5463    2.7755    0.9099 H   0  0  0  0  0  0  0  0  0  0  0  0
   -3.5632    0.7768    1.4814 H   0  0  0  0  0  0  0  0  0  0  0  0
   -4.5970   -0.5231    1.8204 H   0  0  0  0  0  0  0  0  0  0  0  0
   -3.0261   -0.8782    2.2800 H   0  0  0  0  0  0  0  0  0  0  0  0
   -2.6191   -2.7887   -0.6542 H   0  0  0  0  0  0  0  0  0  0  0  0
   -2.0604   -2.4065    1.0232 H   0  0  0  0  0  0  0  0  0  0  0  0
   -3.7151   -2.9755    0.7504 H   0  0  0  0  0  0  0  0  0  0  0  0
   -5.1995   -0.0094   -0.5950 H   0  0  0  0  0  0  0  0  0  0  0  0
   -4.7045   -1.4854   -1.4951 H   0  0  0  0  0  0  0  0  0  0  0  0
   -5.4560   -1.6391    0.1287 H   0  0  0  0  0  0  0  0  0  0  0  0
   -0.8413    0.4212   -2.6973 H   0  0  0  0  0  0  0  0  0  0  0  0
    2.2094    2.1144   -0.2621 H   0  0  0  0  0  0  0  0  0  0  0  0
    0.9943   -2.0378   -0.6040 H   0  0  0  0  0  0  0  0  0  0  0  0
    4.3930    1.4143    0.4702 H   0  0  0  0  0  0  0  0  0  0  0  0
    3.2176   -2.7224    0.1363 H   0  0  0  0  0  0  0  0  0  0  0  0
  1 19  1  0  0  0  0
  2  5  1  0  0  0  0
  2 40  1  0  0  0  0
  3  6  1  0  0  0  0
  3 12  1  0  0  0  0
  3 13  1  0  0  0  0
  3 14  1  0  0  0  0
  4  5  1  0  0  0  0
  4  6  1  0  0  0  0
  4  7  1  0  0  0  0
  4 20  1  0  0  0  0
  5  8  1  0  0  0  0
  5 11  1  0  0  0  0
  6 21  1  0  0  0  0
  6 22  1  0  0  0  0
  7  9  1  0  0  0  0
  7 23  1  0  0  0  0
  7 24  1  0  0  0  0
  8 10  1  0  0  0  0
  8 25  1  0  0  0  0
  8 26  1  0  0  0  0
  9 10  1  0  0  0  0
  9 27  1  0  0  0  0
  9 28  1  0  0  0  0
 10 29  1  0  0  0  0
 10 30  1  0  0  0  0
 11 15  2  0  0  0  0
 11 16  1  0  0  0  0
 12 31  1  0  0  0  0
 12 32  1  0  0  0  0
 12 33  1  0  0  0  0
 13 34  1  0  0  0  0
 13 35  1  0  0  0  0
 13 36  1  0  0  0  0
 14 37  1  0  0  0  0
 14 38  1  0  0  0  0
 14 39  1  0  0  0  0
 15 17  1  0  0  0  0
 15 41  1  0  0  0  0
 16 18  2  0  0  0  0
 16 42  1  0  0  0  0
 17 19  2  0  0  0  0
 17 43  1  0  0  0  0
 18 19  1  0  0  0  0
 18 44  1  0  0  0  0
M  CHG  1   3   1
M  END
> <PUBCHEM_COMPOUND_CID>
9655

> <PUBCHEM_CONFORMER_RMSD>
0.6

> <PUBCHEM_CONFORMER_DIVERSEORDER>
9
3
8
5
4
6
10
7
1
2
11

> <PUBCHEM_MMFF94_PARTIAL_CHARGES>
19
1 -0.18
11 -0.14
12 0.5
13 0.5
14 0.5
15 -0.15
16 -0.15
17 -0.15
18 -0.15
19 0.18
2 -0.68
3 -1.01
40 0.4
41 0.15
42 0.15
43 0.15
44 0.15
5 0.42
6 0.5

> <PUBCHEM_EFFECTIVE_ROTOR_COUNT>
4.2

> <PUBCHEM_PHARMACOPHORE_FEATURES>
5
1 2 acceptor
1 2 donor
1 3 cation
6 11 15 16 17 18 19 rings
6 4 5 7 8 9 10 rings

> <PUBCHEM_HEAVY_ATOM_COUNT>
19

> <PUBCHEM_ATOM_DEF_STEREO_COUNT>
0

> <PUBCHEM_ATOM_UDEF_STEREO_COUNT>
2

> <PUBCHEM_BOND_DEF_STEREO_COUNT>
0

> <PUBCHEM_BOND_UDEF_STEREO_COUNT>
0

> <PUBCHEM_ISOTOPIC_ATOM_COUNT>
0

> <PUBCHEM_COMPONENT_COUNT>
1

> <PUBCHEM_CACTVS_TAUTO_COUNT>
1

> <PUBCHEM_CONFORMER_ID>
000025B700000009

> <PUBCHEM_MMFF94_ENERGY>
101.2218

> <PUBCHEM_FEATURE_SELFOVERLAP>
25.371

> <PUBCHEM_SHAPE_FINGERPRINT>
10366900 7 18187362112839120514
10922049 32 8935005888539982773
10948715 1 8430327839239996141
11132069 177 16515399659970969077
11265709 11 18410569583126607393
11315181 36 13973957745408810766
11578080 2 18059304179411407237
12251169 10 18260823843202013168
12403814 3 17676497150126953448
12506688 2 18341331093667754967
12507560 40 17386847382305983086
12553582 1 18265592369323638919
12633257 1 17895744201106515312
12808571 1 9511186201006580913
12916754 54 18340488962935837844
12969540 114 7132434558538028203
13004483 165 18339090370822756483
13134695 92 18262524663484804069
13140716 1 18191596259298628190
13296909 8 18337106894669444352
13544653 18 18272367546862128983
13764800 53 16371563842258961744
14178342 30 18194124251363178610
14223421 5 18187925140075351774
14341114 328 17967806128951028346
14787075 74 18124596384229995200
14943859 89 6627751089110652444
15309172 13 15936412259937821550
15375462 189 18266726988082612291
15375462 478 18187363220539645628
15534591 1 7853566898708206165
15775835 57 8935002568224119514
16945 1 18040711450559157916
17834072 14 18202283593418171645
17980427 23 17385718085222856769
1813 80 17774988120593874598
18186145 218 12463572846236001663
18222031 100 17822570508509137933
187816 3 13901912227726863926
19010151 120 18335415751328117553
19862831 5 12679464183548511454
19868273 293 10447922871684157448
200 152 18341338850500030358
20600515 1 18114730573736475625
20671657 53 16845565405311057940
20681677 274 18410300181545513794
21250096 35 18410857625140131019
21296965 67 18341897385343187469
21452121 71 18269263591140294733
21650355 55 18408321120349731905
23388829 49 18335409128472963141
23402539 116 18335709359550574503
23419403 2 18042712562165367601
23526113 38 17346036641350411689
23557571 272 17968646233181152284
23559900 14 18341620274127239008
24859131 72 18260827128641082462
2637199 183 9583528615547321163
26918003 58 18412549803309931491
312423 11 18270668862291713364
3286 77 18411703188589868496
347723 3 15625949763310467469
439807 62 17754191786955105663
5104073 3 18190757521406168602
5283173 99 18129677420667457429
6442390 28 4895270446882676949
7097593 13 18048869990420501138
81228 2 17971724883224736569
90316 7 18187633747924618769

> <PUBCHEM_SHAPE_MULTIPOLES>
382.03
8.47
2.34
1.33
4.53
0.81
-0.15
-5.68
2.21
-0.74
0.28
-0.59
0.24
-0.48

> <PUBCHEM_SHAPE_SELFOVERLAP>
779.409

> <PUBCHEM_SHAPE_VOLUME>
224.5

> <PUBCHEM_COORDINATE_TYPE>
2
5
10

$$$$

