6244
  -OEChem-06261201122D

 40 41  0     0  0  0  0  0  0999 V2000
    3.7320    2.0000    0.0000 Cl  0  0  0  0  0  0  0  0  0  0  0  0
    3.7320   -2.0000    0.0000 Cl  0  0  0  0  0  0  0  0  0  0  0  0
    2.0000    1.0000    0.0000 Cl  0  0  0  0  0  0  0  0  0  0  0  0
    2.0000   -1.0000    0.0000 Cl  0  0  0  0  0  0  0  0  0  0  0  0
    6.1279    0.0000    0.0000 N   0  3  0  0  0  0  0  0  0  0  0  0
    8.6595   -0.7688    0.0000 N   0  3  0  0  0  0  0  0  0  0  0  0
    6.9369   -0.5878    0.0000 C   0  0  0  0  0  0  0  0  0  0  0  0
    5.5443    0.8047    0.0000 C   0  0  0  0  0  0  0  0  0  0  0  0
    5.5443   -0.8047    0.0000 C   0  0  0  0  0  0  0  0  0  0  0  0
    7.8505   -0.1810    0.0000 C   0  0  0  0  0  0  0  0  0  0  0  0
    4.5981    0.5000    0.0000 C   0  0  0  0  0  0  0  0  0  0  0  0
    4.5981   -0.5000    0.0000 C   0  0  0  0  0  0  0  0  0  0  0  0
    6.9369    0.5878    0.0000 C   0  0  0  0  0  0  0  0  0  0  0  0
    9.4685   -1.3566    0.0000 C   0  0  0  0  0  0  0  0  0  0  0  0
    9.2473    0.0402    0.0000 C   0  0  0  0  0  0  0  0  0  0  0  0
    8.0717   -1.5778    0.0000 C   0  0  0  0  0  0  0  0  0  0  0  0
    3.7320    1.0000    0.0000 C   0  0  0  0  0  0  0  0  0  0  0  0
    3.7320   -1.0000    0.0000 C   0  0  0  0  0  0  0  0  0  0  0  0
    2.8660    0.5000    0.0000 C   0  0  0  0  0  0  0  0  0  0  0  0
    2.8660   -0.5000    0.0000 C   0  0  0  0  0  0  0  0  0  0  0  0
    6.4909   -1.0185    0.0000 H   0  0  0  0  0  0  0  0  0  0  0  0
    7.2836   -1.1018    0.0000 H   0  0  0  0  0  0  0  0  0  0  0  0
    6.0817    1.1140    0.0000 H   0  0  0  0  0  0  0  0  0  0  0  0
    5.2933    1.3716    0.0000 H   0  0  0  0  0  0  0  0  0  0  0  0
    5.2933   -1.3716    0.0000 H   0  0  0  0  0  0  0  0  0  0  0  0
    6.0817   -1.1140    0.0000 H   0  0  0  0  0  0  0  0  0  0  0  0
    8.2965    0.2496    0.0000 H   0  0  0  0  0  0  0  0  0  0  0  0
    7.5038    0.3330    0.0000 H   0  0  0  0  0  0  0  0  0  0  0  0
    7.3014    0.0862    0.0000 H   0  0  0  0  0  0  0  0  0  0  0  0
    7.4385    0.9522    0.0000 H   0  0  0  0  0  0  0  0  0  0  0  0
    6.5725    1.0894    0.0000 H   0  0  0  0  0  0  0  0  0  0  0  0
    9.1041   -1.8582    0.0000 H   0  0  0  0  0  0  0  0  0  0  0  0
    9.9701   -1.7210    0.0000 H   0  0  0  0  0  0  0  0  0  0  0  0
    9.8329   -0.8550    0.0000 H   0  0  0  0  0  0  0  0  0  0  0  0
    9.7489   -0.3242    0.0000 H   0  0  0  0  0  0  0  0  0  0  0  0
    9.6117    0.5418    0.0000 H   0  0  0  0  0  0  0  0  0  0  0  0
    8.7457    0.4046    0.0000 H   0  0  0  0  0  0  0  0  0  0  0  0
    7.5701   -1.2134    0.0000 H   0  0  0  0  0  0  0  0  0  0  0  0
    7.7073   -2.0794    0.0000 H   0  0  0  0  0  0  0  0  0  0  0  0
    8.5733   -1.9423    0.0000 H   0  0  0  0  0  0  0  0  0  0  0  0
  1 17  1  0  0  0  0
  2 18  1  0  0  0  0
  3 19  1  0  0  0  0
  4 20  1  0  0  0  0
  5  7  1  0  0  0  0
  5  8  1  0  0  0  0
  5  9  1  0  0  0  0
  5 13  1  0  0  0  0
  6 10  1  0  0  0  0
  6 14  1  0  0  0  0
  6 15  1  0  0  0  0
  6 16  1  0  0  0  0
  7 10  1  0  0  0  0
  7 21  1  0  0  0  0
  7 22  1  0  0  0  0
  8 11  1  0  0  0  0
  8 23  1  0  0  0  0
  8 24  1  0  0  0  0
  9 12  1  0  0  0  0
  9 25  1  0  0  0  0
  9 26  1  0  0  0  0
 10 27  1  0  0  0  0
 10 28  1  0  0  0  0
 11 12  2  0  0  0  0
 11 17  1  0  0  0  0
 12 18  1  0  0  0  0
 13 29  1  0  0  0  0
 13 30  1  0  0  0  0
 13 31  1  0  0  0  0
 14 32  1  0  0  0  0
 14 33  1  0  0  0  0
 14 34  1  0  0  0  0
 15 35  1  0  0  0  0
 15 36  1  0  0  0  0
 15 37  1  0  0  0  0
 16 38  1  0  0  0  0
 16 39  1  0  0  0  0
 16 40  1  0  0  0  0
 17 19  2  0  0  0  0
 18 20  2  0  0  0  0
 19 20  1  0  0  0  0
M  CHG  2   5   1   6   1
M  END
> <PUBCHEM_COMPOUND_CID>
6244

> <PUBCHEM_COMPOUND_CANONICALIZED>
1

> <PUBCHEM_CACTVS_COMPLEXITY>
336

> <PUBCHEM_CACTVS_HBOND_ACCEPTOR>
0

> <PUBCHEM_CACTVS_HBOND_DONOR>
0

> <PUBCHEM_CACTVS_ROTATABLE_BOND>
3

> <PUBCHEM_CACTVS_SUBSKEYS>
AAADceBzAAAHAAAAAAAAAAAAAAAAAWAAAAAwAAAAAAAAAFgBAAAAHAIAAAAADALBGCQCAIMAAACAAgBAAACCAAAgBAAAikAIBogIYCKBkhGUIAhggACIiAcQgIAOhAAQIACRAAQIACBAASIACAAAAAAAAA==

> <PUBCHEM_IUPAC_OPENEYE_NAME>
trimethyl-[2-(4,5,6,7-tetrachloro-2-methyl-isoindolin-2-ium-2-yl)ethyl]ammonium

> <PUBCHEM_IUPAC_CAS_NAME>
trimethyl-[2-(4,5,6,7-tetrachloro-2-methyl-1,3-dihydroisoindol-2-ium-2-yl)ethyl]ammonium

> <PUBCHEM_IUPAC_NAME>
trimethyl-[2-(4,5,6,7-tetrachloro-2-methyl-1,3-dihydroisoindol-2-ium-2-yl)ethyl]azanium

> <PUBCHEM_IUPAC_SYSTEMATIC_NAME>
trimethyl-[2-[4,5,6,7-tetrakis(chloranyl)-2-methyl-1,3-dihydroisoindol-2-ium-2-yl]ethyl]azanium

> <PUBCHEM_IUPAC_TRADITIONAL_NAME>
trimethyl-[2-(4,5,6,7-tetrachloro-2-methyl-isoindolin-2-ium-2-yl)ethyl]ammonium

> <PUBCHEM_IUPAC_INCHI>
InChI=1S/C14H20Cl4N2/c1-19(2,3)5-6-20(4)7-9-10(8-20)12(16)14(18)13(17)11(9)15/h5-8H2,1-4H3/q+2

> <PUBCHEM_IUPAC_INCHIKEY>
IXWDUZLHWJKVPX-UHFFFAOYSA-N

> <PUBCHEM_XLOGP3_AA>
3.9

> <PUBCHEM_EXACT_MASS>
358.035109

> <PUBCHEM_MOLECULAR_FORMULA>
C14H20Cl4N2+2

> <PUBCHEM_MOLECULAR_WEIGHT>
358.134

> <PUBCHEM_OPENEYE_CAN_SMILES>
C[N+]1(CC2=C(C1)C(=C(C(=C2Cl)Cl)Cl)Cl)CC[N+](C)(C)C

> <PUBCHEM_OPENEYE_ISO_SMILES>
C[N+]1(CC2=C(C1)C(=C(C(=C2Cl)Cl)Cl)Cl)CC[N+](C)(C)C

> <PUBCHEM_CACTVS_TPSA>
0

> <PUBCHEM_MONOISOTOPIC_WEIGHT>
356.038059

> <PUBCHEM_TOTAL_CHARGE>
2

> <PUBCHEM_HEAVY_ATOM_COUNT>
20

> <PUBCHEM_ATOM_DEF_STEREO_COUNT>
0

> <PUBCHEM_ATOM_UDEF_STEREO_COUNT>
0

> <PUBCHEM_BOND_DEF_STEREO_COUNT>
0

> <PUBCHEM_BOND_UDEF_STEREO_COUNT>
0

> <PUBCHEM_ISOTOPIC_ATOM_COUNT>
0

> <PUBCHEM_COMPONENT_COUNT>
1

> <PUBCHEM_CACTVS_TAUTO_COUNT>
1

> <PUBCHEM_COORDINATE_TYPE>
1
5
255

> <PUBCHEM_BONDANNOTATIONS>
11  12  8
11  17  8
12  18  8
17  19  8
18  20  8
19  20  8

$$$$

