41428
  -OEChem-07051213002D

 18 18  0     0  0  0  0  0  0999 V2000
    5.4641   -2.4050    0.0000 Cl  0  0  0  0  0  0  0  0  0  0  0  0
    2.0000   -2.4050    0.0000 Cl  0  0  0  0  0  0  0  0  0  0  0  0
    2.0000   -0.4050    0.0000 Cl  0  0  0  0  0  0  0  0  0  0  0  0
    5.4641   -0.4050    0.0000 O   0  0  0  0  0  0  0  0  0  0  0  0
    6.3301    2.0950    0.0000 O   0  0  0  0  0  0  0  0  0  0  0  0
    7.1962    0.5950    0.0000 O   0  0  0  0  0  0  0  0  0  0  0  0
    3.7320   -0.4050    0.0000 N   0  0  0  0  0  0  0  0  0  0  0  0
    4.5981   -0.9050    0.0000 C   0  0  0  0  0  0  0  0  0  0  0  0
    4.5981   -1.9050    0.0000 C   0  0  0  0  0  0  0  0  0  0  0  0
    5.4641    0.5950    0.0000 C   0  0  0  0  0  0  0  0  0  0  0  0
    3.7320   -2.4050    0.0000 C   0  0  0  0  0  0  0  0  0  0  0  0
    2.8660   -1.9050    0.0000 C   0  0  0  0  0  0  0  0  0  0  0  0
    2.8660   -0.9050    0.0000 C   0  0  0  0  0  0  0  0  0  0  0  0
    6.3301    1.0950    0.0000 C   0  0  0  0  0  0  0  0  0  0  0  0
    5.2520    1.1776    0.0000 H   0  0  0  0  0  0  0  0  0  0  0  0
    4.8535    0.4873    0.0000 H   0  0  0  0  0  0  0  0  0  0  0  0
    3.7320   -3.0250    0.0000 H   0  0  0  0  0  0  0  0  0  0  0  0
    6.8671    2.4050    0.0000 H   0  0  0  0  0  0  0  0  0  0  0  0
  1  9  1  0  0  0  0
  2 12  1  0  0  0  0
  3 13  1  0  0  0  0
  4  8  1  0  0  0  0
  4 10  1  0  0  0  0
  5 14  1  0  0  0  0
  5 18  1  0  0  0  0
  6 14  2  0  0  0  0
  7  8  2  0  0  0  0
  7 13  1  0  0  0  0
  8  9  1  0  0  0  0
  9 11  2  0  0  0  0
 10 14  1  0  0  0  0
 10 15  1  0  0  0  0
 10 16  1  0  0  0  0
 11 12  1  0  0  0  0
 11 17  1  0  0  0  0
 12 13  2  0  0  0  0
M  END
> <PUBCHEM_COMPOUND_CID>
41428

> <PUBCHEM_COMPOUND_CANONICALIZED>
1

> <PUBCHEM_CACTVS_COMPLEXITY>
216

> <PUBCHEM_CACTVS_HBOND_ACCEPTOR>
4

> <PUBCHEM_CACTVS_HBOND_DONOR>
1

> <PUBCHEM_CACTVS_ROTATABLE_BOND>
3

> <PUBCHEM_CACTVS_SUBSKEYS>
AAADcYBiMAAGAAAAAAAAAAAAAAAAAAAAAAAsAAAAAAAAAAABgAAAHgIACAAACAKhkiIwjJIIFgCoACDyTAKCiCAhJWAAmmBkT5gNJuPFsp/OOCjkwBHL6AaQEAAAAAAAAAAAAAAAAAAAAAAAAAAAAAAAAA==

> <PUBCHEM_IUPAC_OPENEYE_NAME>
2-[(3,5,6-trichloro-2-pyridyl)oxy]acetic acid

> <PUBCHEM_IUPAC_CAS_NAME>
2-[(3,5,6-trichloro-2-pyridinyl)oxy]acetic acid

> <PUBCHEM_IUPAC_NAME>
2-(3,5,6-trichloropyridin-2-yl)oxyacetic acid

> <PUBCHEM_IUPAC_SYSTEMATIC_NAME>
2-[3,5,6-tris(chloranyl)pyridin-2-yl]oxyethanoic acid

> <PUBCHEM_IUPAC_TRADITIONAL_NAME>
2-[(3,5,6-trichloro-2-pyridyl)oxy]acetic acid

> <PUBCHEM_IUPAC_INCHI>
InChI=1S/C7H4Cl3NO3/c8-3-1-4(9)7(11-6(3)10)14-2-5(12)13/h1H,2H2,(H,12,13)

> <PUBCHEM_IUPAC_INCHIKEY>
REEQLXCGVXDJSQ-UHFFFAOYSA-N

> <PUBCHEM_XLOGP3_AA>
3

> <PUBCHEM_EXACT_MASS>
254.925676

> <PUBCHEM_MOLECULAR_FORMULA>
C7H4Cl3NO3

> <PUBCHEM_MOLECULAR_WEIGHT>
256.47056

> <PUBCHEM_OPENEYE_CAN_SMILES>
C1=C(C(=NC(=C1Cl)Cl)OCC(=O)O)Cl

> <PUBCHEM_OPENEYE_ISO_SMILES>
C1=C(C(=NC(=C1Cl)Cl)OCC(=O)O)Cl

> <PUBCHEM_CACTVS_TPSA>
59.4

> <PUBCHEM_MONOISOTOPIC_WEIGHT>
254.925676

> <PUBCHEM_TOTAL_CHARGE>
0

> <PUBCHEM_HEAVY_ATOM_COUNT>
14

> <PUBCHEM_ATOM_DEF_STEREO_COUNT>
0

> <PUBCHEM_ATOM_UDEF_STEREO_COUNT>
0

> <PUBCHEM_BOND_DEF_STEREO_COUNT>
0

> <PUBCHEM_BOND_UDEF_STEREO_COUNT>
0

> <PUBCHEM_ISOTOPIC_ATOM_COUNT>
0

> <PUBCHEM_COMPONENT_COUNT>
1

> <PUBCHEM_CACTVS_TAUTO_COUNT>
1

> <PUBCHEM_COORDINATE_TYPE>
1
5
255

> <PUBCHEM_BONDANNOTATIONS>
11  12  8
12  13  8
7  13  8
7  8  8
8  9  8
9  11  8

$$$$

