442723
  -OEChem-07051212593D

 26 27  0     0  0  0  0  0  0999 V2000
    0.9539    2.7270    0.0305 O   0  0  0  0  0  0  0  0  0  0  0  0
   -1.5566    2.8709   -0.0036 O   0  0  0  0  0  0  0  0  0  0  0  0
    0.6330   -2.7374    0.0060 O   0  0  0  0  0  0  0  0  0  0  0  0
    2.9806   -1.5926    0.0135 O   0  0  0  0  0  0  0  0  0  0  0  0
   -0.5503   -0.6682    0.0003 C   0  0  0  0  0  0  0  0  0  0  0  0
   -0.4005    0.7242    0.0011 C   0  0  0  0  0  0  0  0  0  0  0  0
   -1.8156   -1.2694   -0.0027 C   0  0  0  0  0  0  0  0  0  0  0  0
    0.9426    1.3446    0.0041 C   0  0  0  0  0  0  0  0  0  0  0  0
    2.0813    0.6226   -0.0032 C   0  0  0  0  0  0  0  0  0  0  0  0
    0.6483   -1.5162    0.0030 C   0  0  0  0  0  0  0  0  0  0  0  0
   -1.5700    1.5046   -0.0014 C   0  0  0  0  0  0  0  0  0  0  0  0
    1.9971   -0.8649    0.0027 C   0  0  0  0  0  0  0  0  0  0  0  0
   -2.9581   -0.4748   -0.0052 C   0  0  0  0  0  0  0  0  0  0  0  0
   -2.8358    0.9109   -0.0046 C   0  0  0  0  0  0  0  0  0  0  0  0
   -2.0323   -2.7489   -0.0040 C   0  0  0  0  0  0  0  0  0  0  0  0
    3.4824    1.1676   -0.0364 C   0  0  0  0  0  0  0  0  0  0  0  0
   -3.9526   -0.9128   -0.0078 H   0  0  0  0  0  0  0  0  0  0  0  0
   -3.7316    1.5266   -0.0071 H   0  0  0  0  0  0  0  0  0  0  0  0
   -1.6055   -3.2056   -0.9028 H   0  0  0  0  0  0  0  0  0  0  0  0
   -1.6120   -3.2061    0.8976 H   0  0  0  0  0  0  0  0  0  0  0  0
   -3.0987   -3.0045   -0.0079 H   0  0  0  0  0  0  0  0  0  0  0  0
    3.5355    2.2274   -0.2958 H   0  0  0  0  0  0  0  0  0  0  0  0
    4.0802    0.6427   -0.7900 H   0  0  0  0  0  0  0  0  0  0  0  0
    3.9619    1.0311    0.9384 H   0  0  0  0  0  0  0  0  0  0  0  0
    1.8574    3.0506    0.1639 H   0  0  0  0  0  0  0  0  0  0  0  0
   -0.6625    3.2079    0.1497 H   0  0  0  0  0  0  0  0  0  0  0  0
  1  8  1  0  0  0  0
  1 25  1  0  0  0  0
  2 11  1  0  0  0  0
  2 26  1  0  0  0  0
  3 10  2  0  0  0  0
  4 12  2  0  0  0  0
  5  6  1  0  0  0  0
  5  7  2  0  0  0  0
  5 10  1  0  0  0  0
  6  8  1  0  0  0  0
  6 11  2  0  0  0  0
  7 13  1  0  0  0  0
  7 15  1  0  0  0  0
  8  9  2  0  0  0  0
  9 12  1  0  0  0  0
  9 16  1  0  0  0  0
 10 12  1  0  0  0  0
 11 14  1  0  0  0  0
 13 14  2  0  0  0  0
 13 17  1  0  0  0  0
 14 18  1  0  0  0  0
 15 19  1  0  0  0  0
 15 20  1  0  0  0  0
 15 21  1  0  0  0  0
 16 22  1  0  0  0  0
 16 23  1  0  0  0  0
 16 24  1  0  0  0  0
M  END
> <PUBCHEM_COMPOUND_CID>
442723

> <PUBCHEM_CONFORMER_RMSD>
0.4

> <PUBCHEM_CONFORMER_DIVERSEORDER>
1

> <PUBCHEM_MMFF94_PARTIAL_CHARGES>
20
1 -0.53
10 0.48
11 0.08
12 0.56
13 -0.15
14 -0.15
15 0.14
16 0.14
17 0.15
18 0.15
2 -0.53
25 0.45
26 0.45
3 -0.57
4 -0.57
5 0.09
6 0.03
7 -0.14
8 0.05
9 -0.12

> <PUBCHEM_EFFECTIVE_ROTOR_COUNT>
0

> <PUBCHEM_PHARMACOPHORE_FEATURES>
6
1 1 donor
1 2 donor
1 3 acceptor
1 4 acceptor
6 5 6 7 11 13 14 rings
6 5 6 8 9 10 12 rings

> <PUBCHEM_HEAVY_ATOM_COUNT>
16

> <PUBCHEM_ATOM_DEF_STEREO_COUNT>
0

> <PUBCHEM_ATOM_UDEF_STEREO_COUNT>
0

> <PUBCHEM_BOND_DEF_STEREO_COUNT>
0

> <PUBCHEM_BOND_UDEF_STEREO_COUNT>
0

> <PUBCHEM_ISOTOPIC_ATOM_COUNT>
0

> <PUBCHEM_COMPONENT_COUNT>
1

> <PUBCHEM_CACTVS_TAUTO_COUNT>
108

> <PUBCHEM_CONFORMER_ID>
0006C16300000001

> <PUBCHEM_MMFF94_ENERGY>
46.9421

> <PUBCHEM_FEATURE_SELFOVERLAP>
30.496

> <PUBCHEM_SHAPE_FINGERPRINT>
10967382 1 18410856525343367719
11132069 177 18410579461546081016
11471102 20 18411142446107121557
12382932 28 18337112254677509418
13140716 1 18266458702823802489
13380535 76 18410860970740254487
13897977 150 18338239254317584101
14614273 12 18272661159500924989
15536298 74 18334013908847673110
16945 1 18410856572735720513
193761 8 18338797926262051975
20510252 161 18189895305924943552
21501502 16 18410012156184520074
2334 1 18050568443669279111
23402539 116 18045792182322434350
23463225 33 18341334482781963018
23552423 10 18197778799863667989
23559900 14 18117835732783077822
238 59 16619587440758219277
2748010 2 18337953394005236462
2897 32 18411980273445292837
335352 9 18266459995403178271
528886 8 18337958887294794875
53812653 166 18261958440528627504
7364860 26 18262800808158926942
8809292 202 18343014506126179427

> <PUBCHEM_SHAPE_MULTIPOLES>
305.8
4.51
3.16
0.59
1.31
0.05
0
-0.12
-0.03
-0.57
0.01
-0.02
-0.01
-0.01

> <PUBCHEM_SHAPE_SELFOVERLAP>
673.79

> <PUBCHEM_SHAPE_VOLUME>
165

> <PUBCHEM_COORDINATE_TYPE>
2
5
10

$$$$

