31211
  -OEChem-07051213103D

 28 28  0     0  0  0  0  0  0999 V2000
   -2.9345   -1.5511   -0.1236 O   0  0  0  0  0  0  0  0  0  0  0  0
   -3.9166    1.0194   -0.5119 O   0  0  0  0  0  0  0  0  0  0  0  0
    4.2799   -0.1612    1.0040 O   0  0  0  0  0  0  0  0  0  0  0  0
    1.5198    0.2289    0.7783 C   0  0  0  0  0  0  0  0  0  0  0  0
    0.0677    0.4367    0.4340 C   0  0  0  0  0  0  0  0  0  0  0  0
    2.3790    0.0630   -0.4737 C   0  0  0  0  0  0  0  0  0  0  0  0
   -0.7685   -0.6634    0.3134 C   0  0  0  0  0  0  0  0  0  0  0  0
   -0.4102    1.7249    0.2423 C   0  0  0  0  0  0  0  0  0  0  0  0
   -2.1127   -0.4712   -0.0060 C   0  0  0  0  0  0  0  0  0  0  0  0
    3.8457   -0.1566   -0.1468 C   0  0  0  0  0  0  0  0  0  0  0  0
   -1.7542    1.9171   -0.0770 C   0  0  0  0  0  0  0  0  0  0  0  0
   -2.6055    0.8192   -0.2011 C   0  0  0  0  0  0  0  0  0  0  0  0
    4.7625   -0.3704   -1.3232 C   0  0  0  0  0  0  0  0  0  0  0  0
   -2.3523   -2.8352    0.0915 C   0  0  0  0  0  0  0  0  0  0  0  0
    1.8813    1.0764    1.3757 H   0  0  0  0  0  0  0  0  0  0  0  0
    1.6245   -0.6485    1.4301 H   0  0  0  0  0  0  0  0  0  0  0  0
    2.3060    0.9557   -1.1058 H   0  0  0  0  0  0  0  0  0  0  0  0
    2.0330   -0.7980   -1.0575 H   0  0  0  0  0  0  0  0  0  0  0  0
   -0.3265   -1.6406    0.4742 H   0  0  0  0  0  0  0  0  0  0  0  0
    0.2452    2.5862    0.3348 H   0  0  0  0  0  0  0  0  0  0  0  0
   -2.1319    2.9247   -0.2282 H   0  0  0  0  0  0  0  0  0  0  0  0
    5.7878   -0.5133   -0.9711 H   0  0  0  0  0  0  0  0  0  0  0  0
    4.4506   -1.2616   -1.8734 H   0  0  0  0  0  0  0  0  0  0  0  0
    4.7319    0.5060   -1.9752 H   0  0  0  0  0  0  0  0  0  0  0  0
   -4.3560    0.1524   -0.5566 H   0  0  0  0  0  0  0  0  0  0  0  0
   -1.9851   -2.9455    1.1176 H   0  0  0  0  0  0  0  0  0  0  0  0
   -1.5820   -3.0594   -0.6543 H   0  0  0  0  0  0  0  0  0  0  0  0
   -3.1478   -3.5758   -0.0420 H   0  0  0  0  0  0  0  0  0  0  0  0
  1  9  1  0  0  0  0
  1 14  1  0  0  0  0
  2 12  1  0  0  0  0
  2 25  1  0  0  0  0
  3 10  2  0  0  0  0
  4  5  1  0  0  0  0
  4  6  1  0  0  0  0
  4 15  1  0  0  0  0
  4 16  1  0  0  0  0
  5  7  2  0  0  0  0
  5  8  1  0  0  0  0
  6 10  1  0  0  0  0
  6 17  1  0  0  0  0
  6 18  1  0  0  0  0
  7  9  1  0  0  0  0
  7 19  1  0  0  0  0
  8 11  2  0  0  0  0
  8 20  1  0  0  0  0
  9 12  2  0  0  0  0
 10 13  1  0  0  0  0
 11 12  1  0  0  0  0
 11 21  1  0  0  0  0
 13 22  1  0  0  0  0
 13 23  1  0  0  0  0
 13 24  1  0  0  0  0
 14 26  1  0  0  0  0
 14 27  1  0  0  0  0
 14 28  1  0  0  0  0
M  END
> <PUBCHEM_COMPOUND_CID>
31211

> <PUBCHEM_CONFORMER_RMSD>
0.6

> <PUBCHEM_CONFORMER_DIVERSEORDER>
1
32
45
36
22
35
28
29
34
10
46
37
41
14
26
39
44
6
11
48
42
23
17
49
12
2
33
15
4
31
13
43
19
27
5
38
7
18
47
24
25
40
8
3
9
30
20
21
16

> <PUBCHEM_MMFF94_PARTIAL_CHARGES>
18
1 -0.36
10 0.45
11 -0.15
12 0.08
13 0.06
14 0.28
19 0.15
2 -0.53
20 0.15
21 0.15
25 0.45
3 -0.57
4 0.14
5 -0.14
6 0.06
7 -0.15
8 -0.15
9 0.08

> <PUBCHEM_EFFECTIVE_ROTOR_COUNT>
4

> <PUBCHEM_PHARMACOPHORE_FEATURES>
4
1 1 acceptor
1 2 donor
1 3 acceptor
6 5 7 8 9 11 12 rings

> <PUBCHEM_HEAVY_ATOM_COUNT>
14

> <PUBCHEM_ATOM_DEF_STEREO_COUNT>
0

> <PUBCHEM_ATOM_UDEF_STEREO_COUNT>
0

> <PUBCHEM_BOND_DEF_STEREO_COUNT>
0

> <PUBCHEM_BOND_UDEF_STEREO_COUNT>
0

> <PUBCHEM_ISOTOPIC_ATOM_COUNT>
0

> <PUBCHEM_COMPONENT_COUNT>
1

> <PUBCHEM_CACTVS_TAUTO_COUNT>
9

> <PUBCHEM_CONFORMER_ID>
000079EB00000001

> <PUBCHEM_MMFF94_ENERGY>
37.485

> <PUBCHEM_FEATURE_SELFOVERLAP>
20.297

> <PUBCHEM_SHAPE_FINGERPRINT>
11127187 94 18412548691166375751
11543360 7 18341319016984577444
13024252 1 16415472766569237385
13296908 3 17821727234946673962
14115302 16 18413103961481213325
14911166 2 18410585002370676893
15219456 202 18041572321177704832
15669948 3 18343026605106749706
16945 1 18339655511436449593
17870717 6 18261937644449857510
19107657 162 18113897161239731758
19141452 34 17895470311643929119
1986462 14 18409444804316888406
20279233 1 17894915148381156614
20281407 28 18260544520172735906
20325693 3 18340474642876608774
20645476 183 17988926695285751871
20645477 56 18411417357915244609
20645477 70 16588024671350818308
20871998 22 17977948977978601907
20871999 31 18342176631237159359
21061003 4 17022615356174509258
21079973 296 18334019363255594696
21728266 224 18270702899638807986
22213442 358 18336828567882545720
23402539 116 18335150820934865397
23557571 272 18261097578563189190
23559900 14 18334860537343869904
2748010 2 18122361094360494049
293599 30 18266458896567426393
3312278 4 18410855468776307258
4175511 318 18130514118797955789
573450 72 18200888356634332842
77492 1 17632864148302702704
8809292 202 18409166588867057475
9709674 26 18188205507024652206

> <PUBCHEM_SHAPE_MULTIPOLES>
270.51
7.92
2.03
0.89
8.9
0.99
0.04
1.41
1.84
-2.81
0
0.83
0.01
0.35

> <PUBCHEM_SHAPE_SELFOVERLAP>
552.598

> <PUBCHEM_SHAPE_VOLUME>
157.5

> <PUBCHEM_COORDINATE_TYPE>
2
5
10

$$$$

