247838
  -OEChem-07051213063D

 54 57  0     1  0  0  0  0  0999 V2000
   -0.5474   -0.4837    1.2100 F   0  0  0  0  0  0  0  0  0  0  0  0
    5.0974   -0.6669    0.0848 O   0  0  0  0  0  0  0  0  0  0  0  0
    0.2663   -2.5951   -1.2329 O   0  0  0  0  0  0  0  0  0  0  0  0
   -5.1656   -0.4711    1.6779 O   0  0  0  0  0  0  0  0  0  0  0  0
    1.7646    0.8268    0.2594 C   0  0  2  0  0  0  0  0  0  0  0  0
    2.6649   -0.3648   -0.1480 C   0  0  1  0  0  0  0  0  0  0  0  0
    0.4170    0.8422   -0.4841 C   0  0  1  0  0  0  0  0  0  0  0  0
   -0.3560   -0.4794   -0.1519 C   0  0  2  0  0  0  0  0  0  0  0  0
    3.9560   -0.0363    0.6614 C   0  0  2  0  0  0  0  0  0  0  0  0
   -1.7803   -0.5129   -0.8052 C   0  0  2  0  0  0  0  0  0  0  0  0
    2.6886    2.0325    0.1210 C   0  0  0  0  0  0  0  0  0  0  0  0
    1.9324   -1.6649    0.2078 C   0  0  0  0  0  0  0  0  0  0  0  0
   -0.4080    2.0900   -0.1206 C   0  0  0  0  0  0  0  0  0  0  0  0
    4.0784    1.5048    0.5230 C   0  0  0  0  0  0  0  0  0  0  0  0
    0.5716   -1.6723   -0.4812 C   0  0  0  0  0  0  0  0  0  0  0  0
   -1.8107    2.0736   -0.7557 C   0  0  1  0  0  0  0  0  0  0  0  0
   -2.5021    0.7753   -0.3408 C   0  0  0  0  0  0  0  0  0  0  0  0
    2.9971   -0.3999   -1.6701 C   0  0  0  0  0  0  0  0  0  0  0  0
   -2.6049   -1.7744   -0.4049 C   0  0  0  0  0  0  0  0  0  0  0  0
    3.9240   -0.4501    2.1381 C   0  0  0  0  0  0  0  0  0  0  0  0
   -1.7085   -0.5381   -2.3562 C   0  0  0  0  0  0  0  0  0  0  0  0
   -3.2410   -1.7052    0.9696 C   0  0  0  0  0  0  0  0  0  0  0  0
   -3.5905    0.7696    0.4503 C   0  0  0  0  0  0  0  0  0  0  0  0
   -2.5374    3.3800   -0.4073 C   0  0  0  0  0  0  0  0  0  0  0  0
   -4.1059   -0.4797    1.0556 C   0  0  0  0  0  0  0  0  0  0  0  0
    1.5262    0.7451    1.3303 H   0  0  0  0  0  0  0  0  0  0  0  0
    0.6158    0.8934   -1.5597 H   0  0  0  0  0  0  0  0  0  0  0  0
    2.3782    2.8602    0.7670 H   0  0  0  0  0  0  0  0  0  0  0  0
    2.7076    2.4080   -0.9082 H   0  0  0  0  0  0  0  0  0  0  0  0
    1.7456   -1.7637    1.2823 H   0  0  0  0  0  0  0  0  0  0  0  0
    2.5066   -2.5427   -0.1088 H   0  0  0  0  0  0  0  0  0  0  0  0
    0.1262    2.9878   -0.4559 H   0  0  0  0  0  0  0  0  0  0  0  0
   -0.4964    2.1681    0.9717 H   0  0  0  0  0  0  0  0  0  0  0  0
    4.8186    1.7858   -0.2354 H   0  0  0  0  0  0  0  0  0  0  0  0
    4.4020    1.9680    1.4623 H   0  0  0  0  0  0  0  0  0  0  0  0
   -1.7075    2.0783   -1.8472 H   0  0  0  0  0  0  0  0  0  0  0  0
    3.5250    0.4984   -2.0048 H   0  0  0  0  0  0  0  0  0  0  0  0
    3.6373   -1.2584   -1.9053 H   0  0  0  0  0  0  0  0  0  0  0  0
    2.1057   -0.4996   -2.2962 H   0  0  0  0  0  0  0  0  0  0  0  0
   -2.0037   -2.6857   -0.4682 H   0  0  0  0  0  0  0  0  0  0  0  0
   -3.4194   -1.9118   -1.1321 H   0  0  0  0  0  0  0  0  0  0  0  0
    3.8918   -1.5407    2.2377 H   0  0  0  0  0  0  0  0  0  0  0  0
    4.8432   -0.1322    2.6449 H   0  0  0  0  0  0  0  0  0  0  0  0
    3.0785   -0.0226    2.6835 H   0  0  0  0  0  0  0  0  0  0  0  0
   -1.0202    0.2010   -2.7731 H   0  0  0  0  0  0  0  0  0  0  0  0
   -1.3874   -1.5155   -2.7306 H   0  0  0  0  0  0  0  0  0  0  0  0
   -2.6947   -0.3396   -2.7945 H   0  0  0  0  0  0  0  0  0  0  0  0
    5.8883   -0.3247    0.5356 H   0  0  0  0  0  0  0  0  0  0  0  0
   -2.4990   -1.6794    1.7724 H   0  0  0  0  0  0  0  0  0  0  0  0
   -3.8722   -2.5881    1.1202 H   0  0  0  0  0  0  0  0  0  0  0  0
   -4.0916    1.6763    0.7678 H   0  0  0  0  0  0  0  0  0  0  0  0
   -1.9847    4.2403   -0.8012 H   0  0  0  0  0  0  0  0  0  0  0  0
   -3.5385    3.4048   -0.8510 H   0  0  0  0  0  0  0  0  0  0  0  0
   -2.6318    3.5191    0.6752 H   0  0  0  0  0  0  0  0  0  0  0  0
  1  8  1  0  0  0  0
  2  9  1  0  0  0  0
  2 48  1  0  0  0  0
  3 15  2  0  0  0  0
  4 25  2  0  0  0  0
  5  6  1  0  0  0  0
  5  7  1  0  0  0  0
  5 11  1  0  0  0  0
  5 26  1  0  0  0  0
  6  9  1  0  0  0  0
  6 12  1  0  0  0  0
  6 18  1  0  0  0  0
  7  8  1  0  0  0  0
  7 13  1  0  0  0  0
  7 27  1  0  0  0  0
  8 10  1  0  0  0  0
  8 15  1  0  0  0  0
  9 14  1  0  0  0  0
  9 20  1  0  0  0  0
 10 17  1  0  0  0  0
 10 19  1  0  0  0  0
 10 21  1  0  0  0  0
 11 14  1  0  0  0  0
 11 28  1  0  0  0  0
 11 29  1  0  0  0  0
 12 15  1  0  0  0  0
 12 30  1  0  0  0  0
 12 31  1  0  0  0  0
 13 16  1  0  0  0  0
 13 32  1  0  0  0  0
 13 33  1  0  0  0  0
 14 34  1  0  0  0  0
 14 35  1  0  0  0  0
 16 17  1  0  0  0  0
 16 24  1  0  0  0  0
 16 36  1  0  0  0  0
 17 23  2  0  0  0  0
 18 37  1  0  0  0  0
 18 38  1  0  0  0  0
 18 39  1  0  0  0  0
 19 22  1  0  0  0  0
 19 40  1  0  0  0  0
 19 41  1  0  0  0  0
 20 42  1  0  0  0  0
 20 43  1  0  0  0  0
 20 44  1  0  0  0  0
 21 45  1  0  0  0  0
 21 46  1  0  0  0  0
 21 47  1  0  0  0  0
 22 25  1  0  0  0  0
 22 49  1  0  0  0  0
 22 50  1  0  0  0  0
 23 25  1  0  0  0  0
 23 51  1  0  0  0  0
 24 52  1  0  0  0  0
 24 53  1  0  0  0  0
 24 54  1  0  0  0  0
M  END
> <PUBCHEM_COMPOUND_CID>
247838

> <PUBCHEM_CONFORMER_RMSD>
0.6

> <PUBCHEM_CONFORMER_DIVERSEORDER>
1

> <PUBCHEM_MMFF94_PARTIAL_CHARGES>
16
1 -0.34
10 0.14
12 0.06
15 0.45
16 0.14
17 -0.28
2 -0.68
22 0.06
23 -0.14
25 0.49
3 -0.57
4 -0.57
48 0.4
51 0.15
8 0.4
9 0.28

> <PUBCHEM_EFFECTIVE_ROTOR_COUNT>
1.6

> <PUBCHEM_PHARMACOPHORE_FEATURES>
8
1 2 acceptor
1 2 donor
1 3 acceptor
1 4 acceptor
5 5 6 9 11 14 rings
6 10 17 19 22 23 25 rings
6 5 6 7 8 12 15 rings
6 7 8 10 13 16 17 rings

> <PUBCHEM_HEAVY_ATOM_COUNT>
25

> <PUBCHEM_ATOM_DEF_STEREO_COUNT>
7

> <PUBCHEM_ATOM_UDEF_STEREO_COUNT>
0

> <PUBCHEM_BOND_DEF_STEREO_COUNT>
0

> <PUBCHEM_BOND_UDEF_STEREO_COUNT>
0

> <PUBCHEM_ISOTOPIC_ATOM_COUNT>
0

> <PUBCHEM_COMPONENT_COUNT>
1

> <PUBCHEM_CACTVS_TAUTO_COUNT>
10

> <PUBCHEM_CONFORMER_ID>
0003C81E00000001

> <PUBCHEM_MMFF94_ENERGY>
91.1417

> <PUBCHEM_FEATURE_SELFOVERLAP>
40.706

> <PUBCHEM_SHAPE_FINGERPRINT>
10646746 165 18337677511545579988
10675989 125 16897104218643599228
10863032 1 18126563655181763613
1100329 8 13942161560358788889
11132069 177 18334012783175903411
11680986 33 18048035464994198060
11796584 16 15698003981783591947
12236239 1 17676209040011430495
12403259 415 18186806894169677840
12403814 3 18334862697295740269
12422481 6 18337099172613515849
12553582 1 18341324514152267703
12633257 1 17967537830886645384
12788726 201 18129923646741944313
12892183 10 18059585697706230544
13140716 1 18266173937960100091
13224815 77 18411707564676187860
13583140 156 17488205762764605582
13675066 3 18187088360171098016
14081887 123 18341890822817639179
14178342 30 18129382768472274924
14223421 5 18339920532139975229
14341114 176 18202560670554073744
14787075 74 17558267618570352064
14790565 3 17549247143520030101
15209289 33 17846497028048525931
15309172 13 18335422352550537119
16945 1 18410862091636788439
17349148 13 17132113537367831930
1813 80 17417803990362620093
18186145 218 17821729455302458358
19784866 170 18409439293842335451
20261772 1 18335420140710763074
20739085 24 18340756049139617396
21033648 29 17896059757213235104
21069387 34 12535350095000140203
21864079 5 18410304605309503108
22182313 1 18189611824918554158
23184049 59 18335978666763382425
2334 1 18265056825329784237
23419403 2 13966673729445100845
23557571 272 18339353166722731788
23559900 14 18128246990193613662
2748010 2 18118967124897414062
296302 2 14490470867879317354
312423 11 17703502268481560732
3187 122 18131069350880334061
350125 39 18410285909301123644
4340502 62 17313090952872877379
465052 167 18058434440291503307
5104073 3 18262244305104275106
7097593 13 17556595548999926386
9709674 26 18265055906190685863
9862522 239 18262253203954615413

> <PUBCHEM_SHAPE_MULTIPOLES>
489.61
8.41
2.6
1.53
2.1
1.33
-0.12
-0.33
3.77
-1.27
-0.41
-0.19
-0.52
0.56

> <PUBCHEM_SHAPE_SELFOVERLAP>
1061.496

> <PUBCHEM_SHAPE_VOLUME>
269.9

> <PUBCHEM_COORDINATE_TYPE>
2
5
10

$$$$

