440102
  -OEChem-07051212483D

 25 25  0     1  0  0  0  0  0999 V2000
   -2.6595   -0.0251   -0.2107 P   0  0  0  0  0  0  0  0  0  0  0  0
    0.1550   -1.0126    1.2319 O   0  0  0  0  0  0  0  0  0  0  0  0
   -1.0704    0.1770   -0.4122 O   0  0  0  0  0  0  0  0  0  0  0  0
    3.1972    1.3102   -0.3227 O   0  0  0  0  0  0  0  0  0  0  0  0
    0.5427    2.4208   -0.0003 O   0  0  0  0  0  0  0  0  0  0  0  0
    3.0849   -1.5839   -0.8846 O   0  0  0  0  0  0  0  0  0  0  0  0
   -2.7823   -1.5024    0.4356 O   0  0  0  0  0  0  0  0  0  0  0  0
   -3.1832   -0.2374   -1.7258 O   0  0  0  0  0  0  0  0  0  0  0  0
   -3.3498    1.0681    0.5513 O   0  0  0  0  0  0  0  0  0  0  0  0
    2.0051    0.5246   -0.3784 C   0  0  2  0  0  0  0  0  0  0  0  0
    0.9678    1.1740    0.5387 C   0  0  2  0  0  0  0  0  0  0  0  0
    2.3118   -0.8974    0.0938 C   0  0  1  0  0  0  0  0  0  0  0  0
   -0.2502    0.2720    0.7514 C   0  0  2  0  0  0  0  0  0  0  0  0
    1.0308   -1.6878    0.3321 C   0  0  0  0  0  0  0  0  0  0  0  0
    1.6667    0.5393   -1.4213 H   0  0  0  0  0  0  0  0  0  0  0  0
    1.4351    1.3793    1.5105 H   0  0  0  0  0  0  0  0  0  0  0  0
    2.9055   -0.8580    1.0146 H   0  0  0  0  0  0  0  0  0  0  0  0
   -0.8581    0.7262    1.5426 H   0  0  0  0  0  0  0  0  0  0  0  0
    0.5063   -1.8996   -0.6080 H   0  0  0  0  0  0  0  0  0  0  0  0
    1.2741   -2.6641    0.7663 H   0  0  0  0  0  0  0  0  0  0  0  0
    3.8605    0.8691   -0.8807 H   0  0  0  0  0  0  0  0  0  0  0  0
    1.3374    2.9631   -0.1417 H   0  0  0  0  0  0  0  0  0  0  0  0
    2.5741   -1.6047   -1.7119 H   0  0  0  0  0  0  0  0  0  0  0  0
   -3.6663   -1.8297    0.7069 H   0  0  0  0  0  0  0  0  0  0  0  0
   -4.1486   -0.2921   -1.8909 H   0  0  0  0  0  0  0  0  0  0  0  0
  1  3  1  0  0  0  0
  1  7  1  0  0  0  0
  1  8  1  0  0  0  0
  1  9  2  0  0  0  0
  2 13  1  0  0  0  0
  2 14  1  0  0  0  0
  3 13  1  0  0  0  0
  4 10  1  0  0  0  0
  4 21  1  0  0  0  0
  5 11  1  0  0  0  0
  5 22  1  0  0  0  0
  6 12  1  0  0  0  0
  6 23  1  0  0  0  0
  7 24  1  0  0  0  0
  8 25  1  0  0  0  0
 10 11  1  0  0  0  0
 10 12  1  0  0  0  0
 10 15  1  0  0  0  0
 11 13  1  0  0  0  0
 11 16  1  0  0  0  0
 12 14  1  0  0  0  0
 12 17  1  0  0  0  0
 13 18  1  0  0  0  0
 14 19  1  0  0  0  0
 14 20  1  0  0  0  0
M  END
> <PUBCHEM_COMPOUND_CID>
440102

> <PUBCHEM_CONFORMER_RMSD>
0.6

> <PUBCHEM_CONFORMER_DIVERSEORDER>
1
2
7
4
5
3
6

> <PUBCHEM_MMFF94_PARTIAL_CHARGES>
19
1 1.51
10 0.28
11 0.28
12 0.28
13 0.56
14 0.28
2 -0.56
21 0.4
22 0.4
23 0.4
24 0.5
25 0.5
3 -0.55
4 -0.68
5 -0.68
6 -0.68
7 -0.77
8 -0.77
9 -0.7

> <PUBCHEM_EFFECTIVE_ROTOR_COUNT>
3.2

> <PUBCHEM_PHARMACOPHORE_FEATURES>
12
1 2 acceptor
1 4 acceptor
1 4 donor
1 5 acceptor
1 5 donor
1 6 acceptor
1 6 donor
1 7 acceptor
1 8 acceptor
1 9 acceptor
4 1 7 8 9 anion
6 2 10 11 12 13 14 rings

> <PUBCHEM_HEAVY_ATOM_COUNT>
14

> <PUBCHEM_ATOM_DEF_STEREO_COUNT>
4

> <PUBCHEM_ATOM_UDEF_STEREO_COUNT>
0

> <PUBCHEM_BOND_DEF_STEREO_COUNT>
0

> <PUBCHEM_BOND_UDEF_STEREO_COUNT>
0

> <PUBCHEM_ISOTOPIC_ATOM_COUNT>
0

> <PUBCHEM_COMPONENT_COUNT>
1

> <PUBCHEM_CACTVS_TAUTO_COUNT>
1

> <PUBCHEM_CONFORMER_ID>
0006B72600000001

> <PUBCHEM_MMFF94_ENERGY>
-1.54

> <PUBCHEM_FEATURE_SELFOVERLAP>
60.937

> <PUBCHEM_SHAPE_FINGERPRINT>
11206711 2 18055340594969909572
12138202 97 17915741981422706202
12423570 1 11862388978355977544
12897270 3 18201722881116415775
12932764 1 17418095446653305379
14128692 85 18113623420987431114
16945 1 18128823117064150114
18186145 218 18131347531352780158
19422 9 18187362147082606223
20201158 50 18341895220621745354
20645477 70 18335144206521692823
23402539 116 18409450323619038470
23402655 69 18409457998736230597
25 1 18272366468893870536
2748010 2 18269254795564386754
3248919 1 18410023125831720051
528886 8 18410856568298335248
8030462 33 18187939347953721897

> <PUBCHEM_SHAPE_MULTIPOLES>
245.01
5.25
1.89
1.03
2.37
0.32
0.18
-0.45
1.46
-0.88
-0.11
0.45
-0.17
0.02

> <PUBCHEM_SHAPE_SELFOVERLAP>
475.217

> <PUBCHEM_SHAPE_VOLUME>
148.6

> <PUBCHEM_COORDINATE_TYPE>
2
5
10

$$$$

