12795
  -OEChem-06261207232D

 21 21  0     0  0  0  0  0  0999 V2000
    4.5981    1.5000    0.0000 Cl  0  0  0  0  0  0  0  0  0  0  0  0
    4.5981   -1.5000    0.0000 N   0  0  0  0  0  0  0  0  0  0  0  0
    5.4641    0.0000    0.0000 N   0  0  0  0  0  0  0  0  0  0  0  0
    3.7320    0.0000    0.0000 N   0  0  0  0  0  0  0  0  0  0  0  0
    2.8660   -1.5000    0.0000 C   0  0  0  0  0  0  0  0  0  0  0  0
    6.3301   -1.5000    0.0000 C   0  0  0  0  0  0  0  0  0  0  0  0
    3.7320   -1.0000    0.0000 C   0  0  0  0  0  0  0  0  0  0  0  0
    5.4641   -1.0000    0.0000 C   0  0  0  0  0  0  0  0  0  0  0  0
    2.0000   -1.0000    0.0000 C   0  0  0  0  0  0  0  0  0  0  0  0
    7.1962   -1.0000    0.0000 C   0  0  0  0  0  0  0  0  0  0  0  0
    4.5981    0.5000    0.0000 C   0  0  0  0  0  0  0  0  0  0  0  0
    2.4675   -1.9750    0.0000 H   0  0  0  0  0  0  0  0  0  0  0  0
    3.2646   -1.9750    0.0000 H   0  0  0  0  0  0  0  0  0  0  0  0
    5.9316   -1.9750    0.0000 H   0  0  0  0  0  0  0  0  0  0  0  0
    6.7287   -1.9750    0.0000 H   0  0  0  0  0  0  0  0  0  0  0  0
    2.3100   -0.4631    0.0000 H   0  0  0  0  0  0  0  0  0  0  0  0
    1.4631   -0.6900    0.0000 H   0  0  0  0  0  0  0  0  0  0  0  0
    1.6900   -1.5369    0.0000 H   0  0  0  0  0  0  0  0  0  0  0  0
    7.5062   -1.5369    0.0000 H   0  0  0  0  0  0  0  0  0  0  0  0
    7.7331   -0.6900    0.0000 H   0  0  0  0  0  0  0  0  0  0  0  0
    6.8862   -0.4631    0.0000 H   0  0  0  0  0  0  0  0  0  0  0  0
  1 11  1  0  0  0  0
  2  7  2  0  0  0  0
  2  8  1  0  0  0  0
  3  8  2  0  0  0  0
  3 11  1  0  0  0  0
  4  7  1  0  0  0  0
  4 11  2  0  0  0  0
  5  7  1  0  0  0  0
  5  9  1  0  0  0  0
  5 12  1  0  0  0  0
  5 13  1  0  0  0  0
  6  8  1  0  0  0  0
  6 10  1  0  0  0  0
  6 14  1  0  0  0  0
  6 15  1  0  0  0  0
  9 16  1  0  0  0  0
  9 17  1  0  0  0  0
  9 18  1  0  0  0  0
 10 19  1  0  0  0  0
 10 20  1  0  0  0  0
 10 21  1  0  0  0  0
M  END
> <PUBCHEM_COMPOUND_CID>
12795

> <PUBCHEM_COMPOUND_CANONICALIZED>
1

> <PUBCHEM_CACTVS_COMPLEXITY>
108

> <PUBCHEM_CACTVS_HBOND_ACCEPTOR>
3

> <PUBCHEM_CACTVS_HBOND_DONOR>
0

> <PUBCHEM_CACTVS_ROTATABLE_BOND>
2

> <PUBCHEM_CACTVS_SUBSKEYS>
AAADccBjAAAEAAAAAAAAAAAAAAAAAAAAAAAsAAAAAAAAAAABgAAAHAIAAAAACACBAwADEAYIEAAgAAIgJAAAgAkAAKABAAAwAACACAAACAAEAAAIAAKAAAAAAAAAAAAAAAAAAAAAAAAAAAAAAAAAAAAAAA==

> <PUBCHEM_IUPAC_OPENEYE_NAME>
2-chloro-4,6-diethyl-1,3,5-triazine

> <PUBCHEM_IUPAC_CAS_NAME>
2-chloro-4,6-diethyl-1,3,5-triazine

> <PUBCHEM_IUPAC_NAME>
2-chloro-4,6-diethyl-1,3,5-triazine

> <PUBCHEM_IUPAC_SYSTEMATIC_NAME>
2-chloranyl-4,6-diethyl-1,3,5-triazine

> <PUBCHEM_IUPAC_TRADITIONAL_NAME>
2-chloro-4,6-diethyl-s-triazine

> <PUBCHEM_IUPAC_INCHI>
InChI=1S/C7H10ClN3/c1-3-5-9-6(4-2)11-7(8)10-5/h3-4H2,1-2H3

> <PUBCHEM_IUPAC_INCHIKEY>
XTLZSQZATHNMBX-UHFFFAOYSA-N

> <PUBCHEM_XLOGP3_AA>
2.6

> <PUBCHEM_EXACT_MASS>
171.056325

> <PUBCHEM_MOLECULAR_FORMULA>
C7H10ClN3

> <PUBCHEM_MOLECULAR_WEIGHT>
171.6274

> <PUBCHEM_OPENEYE_CAN_SMILES>
CCC1=NC(=NC(=N1)Cl)CC

> <PUBCHEM_OPENEYE_ISO_SMILES>
CCC1=NC(=NC(=N1)Cl)CC

> <PUBCHEM_CACTVS_TPSA>
38.7

> <PUBCHEM_MONOISOTOPIC_WEIGHT>
171.056325

> <PUBCHEM_TOTAL_CHARGE>
0

> <PUBCHEM_HEAVY_ATOM_COUNT>
11

> <PUBCHEM_ATOM_DEF_STEREO_COUNT>
0

> <PUBCHEM_ATOM_UDEF_STEREO_COUNT>
0

> <PUBCHEM_BOND_DEF_STEREO_COUNT>
0

> <PUBCHEM_BOND_UDEF_STEREO_COUNT>
0

> <PUBCHEM_ISOTOPIC_ATOM_COUNT>
0

> <PUBCHEM_COMPONENT_COUNT>
1

> <PUBCHEM_CACTVS_TAUTO_COUNT>
4

> <PUBCHEM_COORDINATE_TYPE>
1
5
255

> <PUBCHEM_BONDANNOTATIONS>
2  7  8
2  8  8
3  11  8
3  8  8
4  11  8
4  7  8

$$$$

