4556
  -OEChem-06261200133D

 45 46  0     0  0  0  0  0  0999 V2000
   -0.5275   -0.7704   -0.5011 O   0  0  0  0  0  0  0  0  0  0  0  0
    1.4907    2.9278    1.6737 O   0  0  0  0  0  0  0  0  0  0  0  0
    2.8500    1.2711    0.8739 N   0  0  0  0  0  0  0  0  0  0  0  0
    0.4242    1.1073    0.5780 C   0  0  0  0  0  0  0  0  0  0  0  0
    0.5790   -0.0655   -0.0634 C   0  0  0  0  0  0  0  0  0  0  0  0
    1.9196   -0.6367   -0.3051 C   0  0  0  0  0  0  0  0  0  0  0  0
    3.0314    0.0581    0.1922 C   0  0  0  0  0  0  0  0  0  0  0  0
   -0.9073    1.7462    0.8530 C   0  0  0  0  0  0  0  0  0  0  0  0
    1.6208    1.8533    1.0886 C   0  0  0  0  0  0  0  0  0  0  0  0
    2.1529   -1.8228   -1.0180 C   0  0  0  0  0  0  0  0  0  0  0  0
    4.3329   -0.4231    0.0108 C   0  0  0  0  0  0  0  0  0  0  0  0
   -1.3253    2.6555   -0.2602 C   0  0  0  0  0  0  0  0  0  0  0  0
    3.4527   -2.3057   -1.2030 C   0  0  0  0  0  0  0  0  0  0  0  0
   -0.9851   -1.6538    0.5026 C   0  0  0  0  0  0  0  0  0  0  0  0
    4.5408   -1.6094   -0.6859 C   0  0  0  0  0  0  0  0  0  0  0  0
   -2.4528    2.5950   -0.9949 C   0  0  0  0  0  0  0  0  0  0  0  0
   -2.1632   -2.4220   -0.0085 C   0  0  0  0  0  0  0  0  0  0  0  0
   -2.8156    3.5419   -2.1035 C   0  0  0  0  0  0  0  0  0  0  0  0
   -3.4789    1.5253   -0.7303 C   0  0  0  0  0  0  0  0  0  0  0  0
   -3.4044   -2.4835    0.5099 C   0  0  0  0  0  0  0  0  0  0  0  0
   -4.4639   -3.3247   -0.1524 C   0  0  0  0  0  0  0  0  0  0  0  0
   -3.8710   -1.7636    1.7435 C   0  0  0  0  0  0  0  0  0  0  0  0
   -1.6555    0.9798    1.0589 H   0  0  0  0  0  0  0  0  0  0  0  0
   -0.8699    2.3301    1.7810 H   0  0  0  0  0  0  0  0  0  0  0  0
    3.6771    1.7525    1.2159 H   0  0  0  0  0  0  0  0  0  0  0  0
    1.3257   -2.3904   -1.4376 H   0  0  0  0  0  0  0  0  0  0  0  0
    5.1878    0.1216    0.4029 H   0  0  0  0  0  0  0  0  0  0  0  0
   -0.6306    3.4650   -0.4832 H   0  0  0  0  0  0  0  0  0  0  0  0
   -0.2031   -2.3875    0.7399 H   0  0  0  0  0  0  0  0  0  0  0  0
   -1.2071   -1.1220    1.4304 H   0  0  0  0  0  0  0  0  0  0  0  0
    3.6120   -3.2286   -1.7535 H   0  0  0  0  0  0  0  0  0  0  0  0
    5.5484   -1.9869   -0.8313 H   0  0  0  0  0  0  0  0  0  0  0  0
   -1.9586   -2.9994   -0.9096 H   0  0  0  0  0  0  0  0  0  0  0  0
   -2.9638    2.9935   -3.0394 H   0  0  0  0  0  0  0  0  0  0  0  0
   -2.0286    4.2842   -2.2723 H   0  0  0  0  0  0  0  0  0  0  0  0
   -3.7371    4.0810   -1.8615 H   0  0  0  0  0  0  0  0  0  0  0  0
   -3.5790    1.2784    0.3298 H   0  0  0  0  0  0  0  0  0  0  0  0
   -4.4729    1.8601   -1.0491 H   0  0  0  0  0  0  0  0  0  0  0  0
   -3.2370    0.6189   -1.2942 H   0  0  0  0  0  0  0  0  0  0  0  0
   -4.8292   -4.0890    0.5414 H   0  0  0  0  0  0  0  0  0  0  0  0
   -5.3089   -2.6984   -0.4570 H   0  0  0  0  0  0  0  0  0  0  0  0
   -4.0926   -3.8379   -1.0457 H   0  0  0  0  0  0  0  0  0  0  0  0
   -4.1930   -2.4869    2.5001 H   0  0  0  0  0  0  0  0  0  0  0  0
   -3.1106   -1.1291    2.2013 H   0  0  0  0  0  0  0  0  0  0  0  0
   -4.7229   -1.1195    1.5005 H   0  0  0  0  0  0  0  0  0  0  0  0
  1  5  1  0  0  0  0
  1 14  1  0  0  0  0
  2  9  2  0  0  0  0
  3  7  1  0  0  0  0
  3  9  1  0  0  0  0
  3 25  1  0  0  0  0
  4  5  2  0  0  0  0
  4  8  1  0  0  0  0
  4  9  1  0  0  0  0
  5  6  1  0  0  0  0
  6  7  1  0  0  0  0
  6 10  2  0  0  0  0
  7 11  2  0  0  0  0
  8 12  1  0  0  0  0
  8 23  1  0  0  0  0
  8 24  1  0  0  0  0
 10 13  1  0  0  0  0
 10 26  1  0  0  0  0
 11 15  1  0  0  0  0
 11 27  1  0  0  0  0
 12 16  2  0  0  0  0
 12 28  1  0  0  0  0
 13 15  2  0  0  0  0
 13 31  1  0  0  0  0
 14 17  1  0  0  0  0
 14 29  1  0  0  0  0
 14 30  1  0  0  0  0
 15 32  1  0  0  0  0
 16 18  1  0  0  0  0
 16 19  1  0  0  0  0
 17 20  2  0  0  0  0
 17 33  1  0  0  0  0
 18 34  1  0  0  0  0
 18 35  1  0  0  0  0
 18 36  1  0  0  0  0
 19 37  1  0  0  0  0
 19 38  1  0  0  0  0
 19 39  1  0  0  0  0
 20 21  1  0  0  0  0
 20 22  1  0  0  0  0
 21 40  1  0  0  0  0
 21 41  1  0  0  0  0
 21 42  1  0  0  0  0
 22 43  1  0  0  0  0
 22 44  1  0  0  0  0
 22 45  1  0  0  0  0
M  END
> <PUBCHEM_COMPOUND_CID>
4556

> <PUBCHEM_CONFORMER_RMSD>
0.8

> <PUBCHEM_CONFORMER_DIVERSEORDER>
1
55
18
48
51
5
47
22
9
56
65
19
20
69
15
37
70
6
35
10
36
23
73
42
29
32
72
14
57
66
67
71
58
11
26
50
64
44
52
28
17
63
74
31
41
46
61
49
16
12
53
33
40
7
62
8
59
34
30
13
43
25
38
60
54
24
3
68
39
2
4
27
21
75
45

> <PUBCHEM_MMFF94_PARTIAL_CHARGES>
29
1 -0.36
10 -0.15
11 -0.15
12 -0.29
13 -0.15
14 0.42
15 -0.15
16 -0.28
17 -0.29
18 0.14
19 0.14
2 -0.57
20 -0.28
21 0.14
22 0.14
25 0.37
26 0.15
27 0.15
28 0.15
3 -0.55
31 0.15
32 0.15
33 0.15
4 -0.12
5 0.05
6 0.03
7 0.12
8 0.28
9 0.62

> <PUBCHEM_EFFECTIVE_ROTOR_COUNT>
5

> <PUBCHEM_PHARMACOPHORE_FEATURES>
7
1 1 acceptor
1 2 acceptor
1 3 donor
3 16 18 19 hydrophobe
3 20 21 22 hydrophobe
6 3 4 5 6 7 9 rings
6 6 7 10 11 13 15 rings

> <PUBCHEM_HEAVY_ATOM_COUNT>
22

> <PUBCHEM_ATOM_DEF_STEREO_COUNT>
0

> <PUBCHEM_ATOM_UDEF_STEREO_COUNT>
0

> <PUBCHEM_BOND_DEF_STEREO_COUNT>
0

> <PUBCHEM_BOND_UDEF_STEREO_COUNT>
0

> <PUBCHEM_ISOTOPIC_ATOM_COUNT>
0

> <PUBCHEM_COMPONENT_COUNT>
1

> <PUBCHEM_CACTVS_TAUTO_COUNT>
2

> <PUBCHEM_CONFORMER_ID>
000011CC00000001

> <PUBCHEM_MMFF94_ENERGY>
51.1329

> <PUBCHEM_FEATURE_SELFOVERLAP>
35.545

> <PUBCHEM_SHAPE_FINGERPRINT>
10688039 33 18271519797880835839
108634 29 18337398243717855671
1100329 8 17549265182255760939
11680986 33 18187655708213572896
116883 192 18340769239099760287
12293681 160 17540268956700288648
12403259 226 18336547127255238323
12730499 353 17694504050378755333
12788726 201 18131067091568871522
13140716 1 18187925144797606834
13149001 5 18263936590564114596
13402501 40 18337388344477354767
13540713 4 18333740122020743016
13899415 180 18195537999773179015
14251757 17 18337111296947534907
14790565 3 17470722204765002536
15420108 30 16463909208631629425
17357779 13 18337685105100448703
1813 80 18127962023640391883
20739085 24 17762060938847436720
21049683 271 18049987910325496110
21285901 2 18267309737845928135
21452121 99 18199206146266227817
21641784 216 18057301938803642996
221490 88 18334297556787756692
22182313 1 18114472193147250744
23419403 2 17677064463809307235
23559900 14 18118685659365712654
2748010 2 18113909251804862992
352729 6 17974561708934145726
4409770 3 18267578199071829311
5283268 108 18198059167134370899
7164475 11 18271233963612345590
7237137 82 18267845294735085566
81228 2 18272081652780815473
9709674 26 18335148612820307316
9981440 41 16885599650086746720

> <PUBCHEM_SHAPE_MULTIPOLES>
436.03
8.19
4.61
1.44
1.78
0.89
-0.02
-5.39
-1.25
-5.69
-0.81
-0.51
0.82
3.35

> <PUBCHEM_SHAPE_SELFOVERLAP>
908.291

> <PUBCHEM_SHAPE_VOLUME>
247.4

> <PUBCHEM_COORDINATE_TYPE>
2
5
10

$$$$

