5281342
  -OEChem-07051212563D

 35 37  0     0  0  0  0  0  0999 V2000
   -0.5461    0.2399    0.0311 O   0  0  0  0  0  0  0  0  0  0  0  0
   -2.2130    1.9096   -0.0778 O   0  0  0  0  0  0  0  0  0  0  0  0
    4.7270   -1.3952    0.2387 O   0  0  0  0  0  0  0  0  0  0  0  0
    4.1827    1.2774    0.1222 O   0  0  0  0  0  0  0  0  0  0  0  0
    2.6671   -3.2400    0.2515 O   0  0  0  0  0  0  0  0  0  0  0  0
    2.3161    3.1357   -0.0013 O   0  0  0  0  0  0  0  0  0  0  0  0
   -5.7867   -2.2863   -0.0184 O   0  0  0  0  0  0  0  0  0  0  0  0
    1.8137    0.8147    0.0746 C   0  0  0  0  0  0  0  0  0  0  0  0
    0.7775   -0.1172    0.0812 C   0  0  0  0  0  0  0  0  0  0  0  0
    3.1445    0.3936    0.1275 C   0  0  0  0  0  0  0  0  0  0  0  0
    3.4314   -0.9706    0.1872 C   0  0  0  0  0  0  0  0  0  0  0  0
    1.0677   -1.4806    0.1407 C   0  0  0  0  0  0  0  0  0  0  0  0
    1.4782    2.2445    0.0109 C   0  0  0  0  0  0  0  0  0  0  0  0
    2.3955   -1.9058    0.1936 C   0  0  0  0  0  0  0  0  0  0  0  0
   -0.8715    1.5869   -0.0286 C   0  0  0  0  0  0  0  0  0  0  0  0
    0.0402    2.5716   -0.0411 C   0  0  0  0  0  0  0  0  0  0  0  0
   -3.0978    0.8702   -0.0625 C   0  0  0  0  0  0  0  0  0  0  0  0
   -3.5805    0.3877    1.1516 C   0  0  0  0  0  0  0  0  0  0  0  0
   -3.5140    0.2969   -1.2618 C   0  0  0  0  0  0  0  0  0  0  0  0
   -4.4848   -0.6741    1.1664 C   0  0  0  0  0  0  0  0  0  0  0  0
   -4.4185   -0.7648   -1.2469 C   0  0  0  0  0  0  0  0  0  0  0  0
   -4.9040   -1.2503   -0.0328 C   0  0  0  0  0  0  0  0  0  0  0  0
    5.3754   -1.6435   -1.0060 C   0  0  0  0  0  0  0  0  0  0  0  0
    0.2623   -2.2108    0.1459 H   0  0  0  0  0  0  0  0  0  0  0  0
   -0.2452    3.6162   -0.0886 H   0  0  0  0  0  0  0  0  0  0  0  0
    5.0160    0.7867    0.2248 H   0  0  0  0  0  0  0  0  0  0  0  0
   -3.2589    0.8327    2.0891 H   0  0  0  0  0  0  0  0  0  0  0  0
   -3.1403    0.6711   -2.2110 H   0  0  0  0  0  0  0  0  0  0  0  0
    3.6294   -3.3567    0.3301 H   0  0  0  0  0  0  0  0  0  0  0  0
   -4.8595   -1.0480    2.1154 H   0  0  0  0  0  0  0  0  0  0  0  0
   -4.7370   -1.2047   -2.1880 H   0  0  0  0  0  0  0  0  0  0  0  0
    5.4109   -0.7340   -1.6140 H   0  0  0  0  0  0  0  0  0  0  0  0
    4.8646   -2.4398   -1.5564 H   0  0  0  0  0  0  0  0  0  0  0  0
    6.4000   -1.9648   -0.7998 H   0  0  0  0  0  0  0  0  0  0  0  0
   -5.9655   -2.5606   -0.9343 H   0  0  0  0  0  0  0  0  0  0  0  0
  1  9  1  0  0  0  0
  1 15  1  0  0  0  0
  2 15  1  0  0  0  0
  2 17  1  0  0  0  0
  3 11  1  0  0  0  0
  3 23  1  0  0  0  0
  4 10  1  0  0  0  0
  4 26  1  0  0  0  0
  5 14  1  0  0  0  0
  5 29  1  0  0  0  0
  6 13  2  0  0  0  0
  7 22  1  0  0  0  0
  7 35  1  0  0  0  0
  8  9  2  0  0  0  0
  8 10  1  0  0  0  0
  8 13  1  0  0  0  0
  9 12  1  0  0  0  0
 10 11  2  0  0  0  0
 11 14  1  0  0  0  0
 12 14  2  0  0  0  0
 12 24  1  0  0  0  0
 13 16  1  0  0  0  0
 15 16  2  0  0  0  0
 16 25  1  0  0  0  0
 17 18  2  0  0  0  0
 17 19  1  0  0  0  0
 18 20  1  0  0  0  0
 18 27  1  0  0  0  0
 19 21  2  0  0  0  0
 19 28  1  0  0  0  0
 20 22  2  0  0  0  0
 20 30  1  0  0  0  0
 21 22  1  0  0  0  0
 21 31  1  0  0  0  0
 23 32  1  0  0  0  0
 23 33  1  0  0  0  0
 23 34  1  0  0  0  0
M  END
> <PUBCHEM_COMPOUND_CID>
5281342

> <PUBCHEM_CONFORMER_RMSD>
0.6

> <PUBCHEM_CONFORMER_DIVERSEORDER>
1
6
7
2
15
11
16
18
10
13
14
3
4
12
17
9
5
8

> <PUBCHEM_MMFF94_PARTIAL_CHARGES>
32
1 -0.16
10 0.08
11 0.08
12 -0.15
13 0.47
14 0.08
15 0.15
16 -0.14
17 0.08
18 -0.15
19 -0.15
2 -0.16
20 -0.15
21 -0.15
22 0.08
23 0.28
24 0.15
25 0.15
26 0.45
27 0.15
28 0.15
29 0.45
3 -0.36
30 0.15
31 0.15
35 0.45
4 -0.53
5 -0.53
6 -0.57
7 -0.53
8 0.09
9 0.08

> <PUBCHEM_EFFECTIVE_ROTOR_COUNT>
3

> <PUBCHEM_PHARMACOPHORE_FEATURES>
10
1 1 acceptor
1 2 acceptor
1 3 acceptor
1 4 donor
1 5 donor
1 6 acceptor
1 7 donor
6 1 8 9 13 15 16 rings
6 17 18 19 20 21 22 rings
6 8 9 10 11 12 14 rings

> <PUBCHEM_HEAVY_ATOM_COUNT>
23

> <PUBCHEM_ATOM_DEF_STEREO_COUNT>
0

> <PUBCHEM_ATOM_UDEF_STEREO_COUNT>
0

> <PUBCHEM_BOND_DEF_STEREO_COUNT>
0

> <PUBCHEM_BOND_UDEF_STEREO_COUNT>
0

> <PUBCHEM_ISOTOPIC_ATOM_COUNT>
0

> <PUBCHEM_COMPONENT_COUNT>
1

> <PUBCHEM_CACTVS_TAUTO_COUNT>
24

> <PUBCHEM_CONFORMER_ID>
0050963E00000001

> <PUBCHEM_MMFF94_ENERGY>
80.0215

> <PUBCHEM_FEATURE_SELFOVERLAP>
50.81

> <PUBCHEM_SHAPE_FINGERPRINT>
10366900 7 17917706907327541003
10622 236 17679327199327978295
11806522 49 18413109463291952268
12107183 9 18191010391869110721
12236239 1 17894347757595036137
12553582 1 18338240465245394338
12596602 18 17313384500369479635
12916754 54 18410293584602522625
13009979 54 17967522497769204185
13140716 1 18121503457868327792
13533116 47 18189617142921516107
13544653 18 18341891900780804629
13862211 1 18412547647874723898
14576447 43 18411421747656592854
14767858 380 18270945900630374966
14787075 74 18201430411456028506
14790565 3 17980191985994927228
15196674 1 18410575097643218689
15352361 1 18411702105962782123
15375462 189 18040716914353722321
17349148 13 18059851800831380394
17492 89 18409732893506844167
19591789 44 18409730707473725790
200 152 18334299730473796569
20028762 73 18260269628996742870
20261772 1 18113341890287214535
20645477 70 18200039443157752209
21033650 10 16343716473351475917
21267235 1 18409161129984937590
221490 88 18413109467655536845
22393880 68 17988658401716588527
22950370 63 18336258050328526758
23402539 116 18339363083971166290
23559900 14 18341341028265097569
2871803 45 18272940414285309977
312423 11 18334847308322813409
3737641 26 18043803415017710214
46194498 28 17560243492721507461
5104073 3 18334582377248807056
602551 16 15430326771815062901
6669772 16 18121771730627754556
7970288 3 18338238266296712918
9709674 26 18272650096150265691

> <PUBCHEM_SHAPE_MULTIPOLES>
432.24
11.43
3.04
0.92
5.03
0.47
0.09
-7.75
0.9
-1.94
-0.03
0.83
-0.15
0.15

> <PUBCHEM_SHAPE_SELFOVERLAP>
958.213

> <PUBCHEM_SHAPE_VOLUME>
229.8

> <PUBCHEM_COORDINATE_TYPE>
2
5
10

$$$$

