3083575
  -OEChem-07051213092D

 33 35  0     0  0  0  0  0  0999 V2000
    6.4144    1.7623    0.0000 O   0  0  0  0  0  0  0  0  0  0  0  0
    8.1962    0.7519    0.0000 O   0  0  0  0  0  0  0  0  0  0  0  0
    4.6660    1.7277    0.0000 O   0  0  0  0  0  0  0  0  0  0  0  0
    4.6660   -2.2723    0.0000 O   0  0  0  0  0  0  0  0  0  0  0  0
    2.9176    1.7623    0.0000 O   0  0  0  0  0  0  0  0  0  0  0  0
    5.5321    0.2277    0.0000 C   0  0  0  0  0  0  0  0  0  0  0  0
    5.5321   -0.7723    0.0000 C   0  0  0  0  0  0  0  0  0  0  0  0
    3.8000    0.2277    0.0000 C   0  0  0  0  0  0  0  0  0  0  0  0
    3.8000   -0.7723    0.0000 C   0  0  0  0  0  0  0  0  0  0  0  0
    4.6660    0.7277    0.0000 C   0  0  0  0  0  0  0  0  0  0  0  0
    4.6660   -1.2723    0.0000 C   0  0  0  0  0  0  0  0  0  0  0  0
    6.4260    0.7624    0.0000 C   0  0  0  0  0  0  0  0  0  0  0  0
    6.4260   -1.3070    0.0000 C   0  0  0  0  0  0  0  0  0  0  0  0
    7.3321   -0.7931    0.0000 C   0  0  0  0  0  0  0  0  0  0  0  0
    7.3321    0.2485    0.0000 C   0  0  0  0  0  0  0  0  0  0  0  0
    2.9061    0.7624    0.0000 C   0  0  0  0  0  0  0  0  0  0  0  0
    2.9061   -1.3070    0.0000 C   0  0  0  0  0  0  0  0  0  0  0  0
    8.1962   -1.2964    0.0000 C   0  0  0  0  0  0  0  0  0  0  0  0
    2.0000    0.2485    0.0000 C   0  0  0  0  0  0  0  0  0  0  0  0
    2.0000   -0.7931    0.0000 C   0  0  0  0  0  0  0  0  0  0  0  0
    7.2746    2.2723    0.0000 C   0  0  0  0  0  0  0  0  0  0  0  0
    6.4188   -1.9269    0.0000 H   0  0  0  0  0  0  0  0  0  0  0  0
    2.9132   -1.9269    0.0000 H   0  0  0  0  0  0  0  0  0  0  0  0
    7.8841   -1.8322    0.0000 H   0  0  0  0  0  0  0  0  0  0  0  0
    8.7319   -1.6085    0.0000 H   0  0  0  0  0  0  0  0  0  0  0  0
    8.5082   -0.7607    0.0000 H   0  0  0  0  0  0  0  0  0  0  0  0
    1.4643    0.5606    0.0000 H   0  0  0  0  0  0  0  0  0  0  0  0
    1.4643   -1.1052    0.0000 H   0  0  0  0  0  0  0  0  0  0  0  0
    8.7343    0.4439    0.0000 H   0  0  0  0  0  0  0  0  0  0  0  0
    7.5908    1.7390    0.0000 H   0  0  0  0  0  0  0  0  0  0  0  0
    7.8079    2.5885    0.0000 H   0  0  0  0  0  0  0  0  0  0  0  0
    6.9584    2.8056    0.0000 H   0  0  0  0  0  0  0  0  0  0  0  0
    2.3843    2.0785    0.0000 H   0  0  0  0  0  0  0  0  0  0  0  0
  1 12  1  0  0  0  0
  1 21  1  0  0  0  0
  2 15  1  0  0  0  0
  2 29  1  0  0  0  0
  3 10  2  0  0  0  0
  4 11  2  0  0  0  0
  5 16  1  0  0  0  0
  5 33  1  0  0  0  0
  6  7  1  0  0  0  0
  6 10  1  0  0  0  0
  6 12  2  0  0  0  0
  7 11  1  0  0  0  0
  7 13  2  0  0  0  0
  8  9  2  0  0  0  0
  8 10  1  0  0  0  0
  8 16  1  0  0  0  0
  9 11  1  0  0  0  0
  9 17  1  0  0  0  0
 12 15  1  0  0  0  0
 13 14  1  0  0  0  0
 13 22  1  0  0  0  0
 14 15  2  0  0  0  0
 14 18  1  0  0  0  0
 16 19  2  0  0  0  0
 17 20  2  0  0  0  0
 17 23  1  0  0  0  0
 18 24  1  0  0  0  0
 18 25  1  0  0  0  0
 18 26  1  0  0  0  0
 19 20  1  0  0  0  0
 19 27  1  0  0  0  0
 20 28  1  0  0  0  0
 21 30  1  0  0  0  0
 21 31  1  0  0  0  0
 21 32  1  0  0  0  0
M  END
> <PUBCHEM_COMPOUND_CID>
3083575

> <PUBCHEM_COMPOUND_CANONICALIZED>
1

> <PUBCHEM_CACTVS_COMPLEXITY>
448

> <PUBCHEM_CACTVS_HBOND_ACCEPTOR>
5

> <PUBCHEM_CACTVS_HBOND_DONOR>
2

> <PUBCHEM_CACTVS_ROTATABLE_BOND>
1

> <PUBCHEM_CACTVS_SUBSKEYS>
AAADccB4OAAAAAAAAAAAAAAAAAAAAAAAAAAwYMAAAAAAAADBQAAAGgAACAAADASAmAIyBoAABgCIAqBSAAACCAAkIAAIiAEGiMgNJjaGNRqAcWMk4BELuYeL7PzO4AADAAAYQADAAAYAADCAAAAAAAAAAA==

> <PUBCHEM_IUPAC_OPENEYE_NAME>
2,8-dihydroxy-1-methoxy-3-methyl-anthracene-9,10-dione

> <PUBCHEM_IUPAC_CAS_NAME>
2,8-dihydroxy-1-methoxy-3-methylanthracene-9,10-dione

> <PUBCHEM_IUPAC_NAME>
2,8-dihydroxy-1-methoxy-3-methylanthracene-9,10-dione

> <PUBCHEM_IUPAC_SYSTEMATIC_NAME>
1-methoxy-3-methyl-2,8-bis(oxidanyl)anthracene-9,10-dione

> <PUBCHEM_IUPAC_TRADITIONAL_NAME>
2,8-dihydroxy-1-methoxy-3-methyl-9,10-anthraquinone

> <PUBCHEM_IUPAC_INCHI>
InChI=1S/C16H12O5/c1-7-6-9-12(16(21-2)13(7)18)15(20)11-8(14(9)19)4-3-5-10(11)17/h3-6,17-18H,1-2H3

> <PUBCHEM_IUPAC_INCHIKEY>
NYRXUBDGDSRBGB-UHFFFAOYSA-N

> <PUBCHEM_XLOGP3_AA>
3

> <PUBCHEM_EXACT_MASS>
284.068473

> <PUBCHEM_MOLECULAR_FORMULA>
C16H12O5

> <PUBCHEM_MOLECULAR_WEIGHT>
284.26348

> <PUBCHEM_OPENEYE_CAN_SMILES>
CC1=C(C(=C2C(=C1)C(=O)C3=C(C2=O)C(=CC=C3)O)OC)O

> <PUBCHEM_OPENEYE_ISO_SMILES>
CC1=C(C(=C2C(=C1)C(=O)C3=C(C2=O)C(=CC=C3)O)OC)O

> <PUBCHEM_CACTVS_TPSA>
83.8

> <PUBCHEM_MONOISOTOPIC_WEIGHT>
284.068473

> <PUBCHEM_TOTAL_CHARGE>
0

> <PUBCHEM_HEAVY_ATOM_COUNT>
21

> <PUBCHEM_ATOM_DEF_STEREO_COUNT>
0

> <PUBCHEM_ATOM_UDEF_STEREO_COUNT>
0

> <PUBCHEM_BOND_DEF_STEREO_COUNT>
0

> <PUBCHEM_BOND_UDEF_STEREO_COUNT>
0

> <PUBCHEM_ISOTOPIC_ATOM_COUNT>
0

> <PUBCHEM_COMPONENT_COUNT>
1

> <PUBCHEM_CACTVS_TAUTO_COUNT>
86

> <PUBCHEM_COORDINATE_TYPE>
1
5
255

> <PUBCHEM_BONDANNOTATIONS>
12  15  8
13  14  8
14  15  8
16  19  8
17  20  8
19  20  8
6  12  8
6  7  8
7  13  8
8  16  8
8  9  8
9  17  8

$$$$

