8812
  -OEChem-06261203083D

 46 46  0     0  0  0  0  0  0999 V2000
   -6.3818   -0.7940    0.0051 S   0  0  0  0  0  0  0  0  0  0  0  0
   -6.1609   -2.4114    0.0976 O   0  0  0  0  0  0  0  0  0  0  0  0
   -7.0373   -0.3841    1.2384 O   0  0  0  0  0  0  0  0  0  0  0  0
   -6.9782   -0.4932   -1.2872 O   0  0  0  0  0  0  0  0  0  0  0  0
    4.2217    0.7149   -0.0235 C   0  0  0  0  0  0  0  0  0  0  0  0
    2.8217    0.1004    0.0422 C   0  0  0  0  0  0  0  0  0  0  0  0
    5.3042   -0.3649    0.0434 C   0  0  0  0  0  0  0  0  0  0  0  0
    1.6982    1.1382   -0.0441 C   0  0  0  0  0  0  0  0  0  0  0  0
    6.7045    0.2439   -0.0606 C   0  0  0  0  0  0  0  0  0  0  0  0
    0.2972    0.5233    0.0466 C   0  0  0  0  0  0  0  0  0  0  0  0
    7.7860   -0.8340    0.0406 C   0  0  0  0  0  0  0  0  0  0  0  0
   -0.8203    1.5709   -0.0299 C   0  0  0  0  0  0  0  0  0  0  0  0
    9.2084   -0.2746   -0.0337 C   0  0  0  0  0  0  0  0  0  0  0  0
   -2.2083    0.9813   -0.0208 C   0  0  0  0  0  0  0  0  0  0  0  0
   10.2863   -1.3449    0.0409 C   0  0  0  0  0  0  0  0  0  0  0  0
   -2.8292    0.6413   -1.2227 C   0  0  0  0  0  0  0  0  0  0  0  0
   -2.8707    0.7749    1.1893 C   0  0  0  0  0  0  0  0  0  0  0  0
   -4.7750   -0.1114   -0.0045 C   0  0  0  0  0  0  0  0  0  0  0  0
   -4.1125    0.0949   -1.2146 C   0  0  0  0  0  0  0  0  0  0  0  0
   -4.1541    0.2285    1.1974 C   0  0  0  0  0  0  0  0  0  0  0  0
    4.3520    1.4216    0.8049 H   0  0  0  0  0  0  0  0  0  0  0  0
    4.3262    1.2843   -0.9549 H   0  0  0  0  0  0  0  0  0  0  0  0
    2.7033   -0.6214   -0.7755 H   0  0  0  0  0  0  0  0  0  0  0  0
    2.7185   -0.4623    0.9784 H   0  0  0  0  0  0  0  0  0  0  0  0
    5.1576   -1.0854   -0.7705 H   0  0  0  0  0  0  0  0  0  0  0  0
    5.2111   -0.9180    0.9859 H   0  0  0  0  0  0  0  0  0  0  0  0
    1.7899    1.6898   -0.9879 H   0  0  0  0  0  0  0  0  0  0  0  0
    1.8219    1.8693    0.7643 H   0  0  0  0  0  0  0  0  0  0  0  0
    6.8468    0.9795    0.7403 H   0  0  0  0  0  0  0  0  0  0  0  0
    6.8063    0.7780   -1.0130 H   0  0  0  0  0  0  0  0  0  0  0  0
    0.2065   -0.0390    0.9845 H   0  0  0  0  0  0  0  0  0  0  0  0
    0.1732   -0.2046   -0.7654 H   0  0  0  0  0  0  0  0  0  0  0  0
    7.6669   -1.3804    0.9846 H   0  0  0  0  0  0  0  0  0  0  0  0
    7.6450   -1.5634   -0.7669 H   0  0  0  0  0  0  0  0  0  0  0  0
   -0.6962    2.1757   -0.9378 H   0  0  0  0  0  0  0  0  0  0  0  0
   -0.7212    2.2761    0.8058 H   0  0  0  0  0  0  0  0  0  0  0  0
    9.3606    0.4396    0.7844 H   0  0  0  0  0  0  0  0  0  0  0  0
    9.3300    0.2838   -0.9695 H   0  0  0  0  0  0  0  0  0  0  0  0
   10.2193   -1.9009    0.9813 H   0  0  0  0  0  0  0  0  0  0  0  0
   11.2798   -0.8892   -0.0162 H   0  0  0  0  0  0  0  0  0  0  0  0
   10.1886   -2.0553   -0.7861 H   0  0  0  0  0  0  0  0  0  0  0  0
   -2.3215    0.7939   -2.1714 H   0  0  0  0  0  0  0  0  0  0  0  0
   -2.3955    1.0325    2.1321 H   0  0  0  0  0  0  0  0  0  0  0  0
   -4.5723   -0.1696   -2.1626 H   0  0  0  0  0  0  0  0  0  0  0  0
   -4.6480    0.0699    2.1519 H   0  0  0  0  0  0  0  0  0  0  0  0
   -6.9878   -2.9482    0.1164 H   0  0  0  0  0  0  0  0  0  0  0  0
  1  2  1  0  0  0  0
  1  3  2  0  0  0  0
  1  4  2  0  0  0  0
  1 18  1  0  0  0  0
  2 46  1  0  0  0  0
  5  6  1  0  0  0  0
  5  7  1  0  0  0  0
  5 21  1  0  0  0  0
  5 22  1  0  0  0  0
  6  8  1  0  0  0  0
  6 23  1  0  0  0  0
  6 24  1  0  0  0  0
  7  9  1  0  0  0  0
  7 25  1  0  0  0  0
  7 26  1  0  0  0  0
  8 10  1  0  0  0  0
  8 27  1  0  0  0  0
  8 28  1  0  0  0  0
  9 11  1  0  0  0  0
  9 29  1  0  0  0  0
  9 30  1  0  0  0  0
 10 12  1  0  0  0  0
 10 31  1  0  0  0  0
 10 32  1  0  0  0  0
 11 13  1  0  0  0  0
 11 33  1  0  0  0  0
 11 34  1  0  0  0  0
 12 14  1  0  0  0  0
 12 35  1  0  0  0  0
 12 36  1  0  0  0  0
 13 15  1  0  0  0  0
 13 37  1  0  0  0  0
 13 38  1  0  0  0  0
 14 16  2  0  0  0  0
 14 17  1  0  0  0  0
 15 39  1  0  0  0  0
 15 40  1  0  0  0  0
 15 41  1  0  0  0  0
 16 19  1  0  0  0  0
 16 42  1  0  0  0  0
 17 20  2  0  0  0  0
 17 43  1  0  0  0  0
 18 19  2  0  0  0  0
 18 20  1  0  0  0  0
 19 44  1  0  0  0  0
 20 45  1  0  0  0  0
M  END
> <PUBCHEM_COMPOUND_CID>
8812

> <PUBCHEM_CONFORMER_RMSD>
1

> <PUBCHEM_CONFORMER_DIVERSEORDER>
1
11
16
35
4
60
76
42
52
15
37
46
74
68
87
7
44
59
55
82
80
43
9
14
78
45
39
38
93
26
89
64
79
20
75
12
19
53
58
31
17
66
5
22
8
63
71
81
57
54
51
65
33
36
62
69
24
91
6
13
10
41
70
50
85
61
88
40
73
3
2
90
92
56
67
34
32
23
48
47
27
83
30
49
72
86
21
28
25
77
29
84
18

> <PUBCHEM_MMFF94_PARTIAL_CHARGES>
16
1 1.49
12 0.14
14 -0.14
16 -0.15
17 -0.15
18 -0.01
19 -0.15
2 -0.68
20 -0.15
3 -0.65
4 -0.65
42 0.15
43 0.15
44 0.15
45 0.15
46 0.5

> <PUBCHEM_EFFECTIVE_ROTOR_COUNT>
10

> <PUBCHEM_PHARMACOPHORE_FEATURES>
6
1 15 hydrophobe
1 2 acceptor
1 3 acceptor
1 4 acceptor
4 1 2 3 4 anion
6 14 16 17 18 19 20 rings

> <PUBCHEM_HEAVY_ATOM_COUNT>
20

> <PUBCHEM_ATOM_DEF_STEREO_COUNT>
0

> <PUBCHEM_ATOM_UDEF_STEREO_COUNT>
0

> <PUBCHEM_BOND_DEF_STEREO_COUNT>
0

> <PUBCHEM_BOND_UDEF_STEREO_COUNT>
0

> <PUBCHEM_ISOTOPIC_ATOM_COUNT>
0

> <PUBCHEM_COMPONENT_COUNT>
1

> <PUBCHEM_CACTVS_TAUTO_COUNT>
1

> <PUBCHEM_CONFORMER_ID>
0000226C00000001

> <PUBCHEM_MMFF94_ENERGY>
17.2319

> <PUBCHEM_FEATURE_SELFOVERLAP>
30.503

> <PUBCHEM_SHAPE_FINGERPRINT>
10 15 4751157410885908188
10299344 5 17822009809698860468
106641 1 6050442631044497821
10670039 82 14405192776157008333
10968037 39 15052016758480471969
11315181 36 14045736036679150628
12091667 2 18408886274138463840
12498461 61 18040998394396228815
125118 31 8286189562507069194
13288520 33 18413671293118752461
13668630 136 18343865506751097914
13885169 127 18341332283632724037
14123256 10 17275103933727954746
14251764 18 17603585214649171252
14251764 46 18410012143299592204
14344974 52 13038893405260794676
14729087 3 8286203846639328586
15183329 4 14620799310210144316
15461852 350 13686289171567925592
155225 1 9655582907373077055
15690457 1 18410295818317825914
15716309 27 17967251988218312132
17093844 174 6916256347385446677
1818759 1 18334289882303873094
20281389 69 7781520308919660058
21095086 128 18261111894596749070
21150785 3 16988843882793006044
21267235 1 18409448094647296692
21315763 28 18412262853252355156
21360443 89 14851902318163237965
22224240 67 16008752407332240524
22288116 15 13398342431278504457
23035841 295 18186801365786924084
23559900 14 15984818173784221197
246663 6 18335419076212871412
33532 11 18410293649391295282
4325135 7 17989488524326646454
636775 72 7925642098308457659
67123 10 18412262836346422276
8209 1 14046021906282805804
9953998 17 15285362812159811204

> <PUBCHEM_SHAPE_MULTIPOLES>
397.83
30.43
1.36
1.03
63.3
0.4
0.02
16.66
-0.28
-0.89
-0.03
-1.91
-0.05
-0.09

> <PUBCHEM_SHAPE_SELFOVERLAP>
768.149

> <PUBCHEM_SHAPE_VOLUME>
242.3

> <PUBCHEM_COORDINATE_TYPE>
2
5
10

$$$$

