656612
  -OEChem-07051213032D

 35 36  0     1  0  0  0  0  0999 V2000
    9.0622    1.3170    0.0000 Cl  0  0  0  0  0  0  0  0  0  0  0  0
    8.1962    2.8170    0.0000 Cl  0  0  0  0  0  0  0  0  0  0  0  0
    2.0000   -1.1830    0.0000 F   0  0  0  0  0  0  0  0  0  0  0  0
    5.4641   -1.1830    0.0000 F   0  0  0  0  0  0  0  0  0  0  0  0
    5.4641   -3.1830    0.0000 F   0  0  0  0  0  0  0  0  0  0  0  0
    2.0000   -3.1830    0.0000 F   0  0  0  0  0  0  0  0  0  0  0  0
    4.5981    0.3170    0.0000 O   0  0  0  0  0  0  0  0  0  0  0  0
    3.7320    1.8170    0.0000 O   0  0  0  0  0  0  0  0  0  0  0  0
    5.9641    2.6830    0.0000 C   0  0  0  0  0  0  0  0  0  0  0  0
    5.4641    1.8170    0.0000 C   0  0  1  0  0  0  0  0  0  0  0  0
    6.4641    1.8170    0.0000 C   0  0  1  0  0  0  0  0  0  0  0  0
    6.8301    3.1830    0.0000 C   0  0  0  0  0  0  0  0  0  0  0  0
    5.0981    3.1830    0.0000 C   0  0  0  0  0  0  0  0  0  0  0  0
    7.3301    1.3170    0.0000 C   0  0  0  0  0  0  0  0  0  0  0  0
    4.5981    1.3170    0.0000 C   0  0  0  0  0  0  0  0  0  0  0  0
    8.1962    1.8170    0.0000 C   0  0  0  0  0  0  0  0  0  0  0  0
    3.7320   -0.1830    0.0000 C   0  0  0  0  0  0  0  0  0  0  0  0
    3.7320   -1.1830    0.0000 C   0  0  0  0  0  0  0  0  0  0  0  0
    2.8660   -1.6830    0.0000 C   0  0  0  0  0  0  0  0  0  0  0  0
    4.5981   -1.6830    0.0000 C   0  0  0  0  0  0  0  0  0  0  0  0
    4.5981   -2.6830    0.0000 C   0  0  0  0  0  0  0  0  0  0  0  0
    2.8660   -2.6830    0.0000 C   0  0  0  0  0  0  0  0  0  0  0  0
    3.7320   -3.1830    0.0000 C   0  0  0  0  0  0  0  0  0  0  0  0
    5.6246    1.2181    0.0000 H   0  0  0  0  0  0  0  0  0  0  0  0
    6.3036    1.2181    0.0000 H   0  0  0  0  0  0  0  0  0  0  0  0
    5.4081    3.7200    0.0000 H   0  0  0  0  0  0  0  0  0  0  0  0
    4.5611    3.4930    0.0000 H   0  0  0  0  0  0  0  0  0  0  0  0
    4.7881    2.6461    0.0000 H   0  0  0  0  0  0  0  0  0  0  0  0
    7.1401    2.6461    0.0000 H   0  0  0  0  0  0  0  0  0  0  0  0
    7.3671    3.4930    0.0000 H   0  0  0  0  0  0  0  0  0  0  0  0
    6.5201    3.7200    0.0000 H   0  0  0  0  0  0  0  0  0  0  0  0
    7.3301    0.6970    0.0000 H   0  0  0  0  0  0  0  0  0  0  0  0
    3.5200    0.3996    0.0000 H   0  0  0  0  0  0  0  0  0  0  0  0
    3.1215   -0.2907    0.0000 H   0  0  0  0  0  0  0  0  0  0  0  0
    3.7320   -3.8030    0.0000 H   0  0  0  0  0  0  0  0  0  0  0  0
  1 16  1  0  0  0  0
  2 16  1  0  0  0  0
  3 19  1  0  0  0  0
  4 20  1  0  0  0  0
  5 21  1  0  0  0  0
  6 22  1  0  0  0  0
  7 15  1  0  0  0  0
  7 17  1  0  0  0  0
  8 15  2  0  0  0  0
  9 10  1  0  0  0  0
  9 11  1  0  0  0  0
  9 12  1  0  0  0  0
  9 13  1  0  0  0  0
 10 11  1  0  0  0  0
 10 15  1  1  0  0  0
 10 24  1  0  0  0  0
 11 14  1  6  0  0  0
 11 25  1  0  0  0  0
 12 29  1  0  0  0  0
 12 30  1  0  0  0  0
 12 31  1  0  0  0  0
 13 26  1  0  0  0  0
 13 27  1  0  0  0  0
 13 28  1  0  0  0  0
 14 16  2  0  0  0  0
 14 32  1  0  0  0  0
 17 18  1  0  0  0  0
 17 33  1  0  0  0  0
 17 34  1  0  0  0  0
 18 19  2  0  0  0  0
 18 20  1  0  0  0  0
 19 22  1  0  0  0  0
 20 21  2  0  0  0  0
 21 23  1  0  0  0  0
 22 23  2  0  0  0  0
 23 35  1  0  0  0  0
M  END
> <PUBCHEM_COMPOUND_CID>
656612

> <PUBCHEM_COMPOUND_CANONICALIZED>
1

> <PUBCHEM_CACTVS_COMPLEXITY>
482

> <PUBCHEM_CACTVS_HBOND_ACCEPTOR>
6

> <PUBCHEM_CACTVS_HBOND_DONOR>
0

> <PUBCHEM_CACTVS_ROTATABLE_BOND>
5

> <PUBCHEM_CACTVS_SUBSKEYS>
AAADccBwMcAGAAAAAAAAAAAAGAAAAAAAAAAwAAAAAAAAAAABAAAAGwIAAAAADwKgmIoyCIAABACIAiDSCAACAAAgAAAAiAEACIgIJjKAMBiCMAAkwAEIqAeIwCAPgAAAAAAAAAAAAAAAAAAAAAAAAAAAAA==

> <PUBCHEM_IUPAC_OPENEYE_NAME>
(2,3,5,6-tetrafluorophenyl)methyl (1R,3S)-3-(2,2-dichlorovinyl)-2,2-dimethyl-cyclopropanecarboxylate

> <PUBCHEM_IUPAC_CAS_NAME>
(1R,3S)-3-(2,2-dichloroethenyl)-2,2-dimethyl-1-cyclopropanecarboxylic acid (2,3,5,6-tetrafluorophenyl)methyl ester

> <PUBCHEM_IUPAC_NAME>
(2,3,5,6-tetrafluorophenyl)methyl (1R,3S)-3-(2,2-dichloroethenyl)-2,2-dimethylcyclopropane-1-carboxylate

> <PUBCHEM_IUPAC_SYSTEMATIC_NAME>
[2,3,5,6-tetrakis(fluoranyl)phenyl]methyl (1R,3S)-3-[2,2-bis(chloranyl)ethenyl]-2,2-dimethyl-cyclopropane-1-carboxylate

> <PUBCHEM_IUPAC_TRADITIONAL_NAME>
(1R,3S)-3-(2,2-dichlorovinyl)-2,2-dimethyl-cyclopropanecarboxylic acid (2,3,5,6-tetrafluorobenzyl) ester

> <PUBCHEM_IUPAC_INCHI>
InChI=1S/C15H12Cl2F4O2/c1-15(2)7(3-10(16)17)11(15)14(22)23-5-6-12(20)8(18)4-9(19)13(6)21/h3-4,7,11H,5H2,1-2H3/t7-,11+/m1/s1

> <PUBCHEM_IUPAC_INCHIKEY>
DDVNRFNDOPPVQJ-HQJQHLMTSA-N

> <PUBCHEM_XLOGP3_AA>
5

> <PUBCHEM_EXACT_MASS>
370.015048

> <PUBCHEM_MOLECULAR_FORMULA>
C15H12Cl2F4O2

> <PUBCHEM_MOLECULAR_WEIGHT>
371.154193

> <PUBCHEM_OPENEYE_CAN_SMILES>
CC1(C(C1C(=O)OCC2=C(C(=CC(=C2F)F)F)F)C=C(Cl)Cl)C

> <PUBCHEM_OPENEYE_ISO_SMILES>
CC1([C@@H]([C@H]1C(=O)OCC2=C(C(=CC(=C2F)F)F)F)C=C(Cl)Cl)C

> <PUBCHEM_CACTVS_TPSA>
26.3

> <PUBCHEM_MONOISOTOPIC_WEIGHT>
370.015048

> <PUBCHEM_TOTAL_CHARGE>
0

> <PUBCHEM_HEAVY_ATOM_COUNT>
23

> <PUBCHEM_ATOM_DEF_STEREO_COUNT>
2

> <PUBCHEM_ATOM_UDEF_STEREO_COUNT>
0

> <PUBCHEM_BOND_DEF_STEREO_COUNT>
0

> <PUBCHEM_BOND_UDEF_STEREO_COUNT>
0

> <PUBCHEM_ISOTOPIC_ATOM_COUNT>
0

> <PUBCHEM_COMPONENT_COUNT>
1

> <PUBCHEM_CACTVS_TAUTO_COUNT>
1

> <PUBCHEM_COORDINATE_TYPE>
1
5
255

> <PUBCHEM_BONDANNOTATIONS>
10  15  5
11  14  6
18  19  8
18  20  8
19  22  8
20  21  8
21  23  8
22  23  8

$$$$

