11954176
  -OEChem-07051213072D

 34 33  0     0  0  0  0  0  0999 V2000
    3.0000    4.3100    0.0000 Cl  0  0  0  0  0  0  0  0  0  0  0  0
    0.0000    4.3100    0.0000 Cl  0  0  0  0  0  0  0  0  0  0  0  0
    8.2690    8.8100    0.0000 N   0  0  0  0  0  0  0  0  0  0  0  0
    7.4030    0.3100    0.0000 N   0  0  0  0  0  0  0  0  0  0  0  0
    7.4030    3.3100    0.0000 C   0  0  0  0  0  0  0  0  0  0  0  0
    8.2690    5.8100    0.0000 C   0  0  0  0  0  0  0  0  0  0  0  0
    7.4030    4.3100    0.0000 C   0  0  0  0  0  0  0  0  0  0  0  0
    8.2690    4.8100    0.0000 C   0  0  0  0  0  0  0  0  0  0  0  0
    9.1350    6.3100    0.0000 C   0  0  0  0  0  0  0  0  0  0  0  0
    6.5369    2.8100    0.0000 C   0  0  0  0  0  0  0  0  0  0  0  0
    7.4030    6.3100    0.0000 C   0  0  0  0  0  0  0  0  0  0  0  0
    8.2690    2.8100    0.0000 C   0  0  0  0  0  0  0  0  0  0  0  0
    7.4030    1.3100    0.0000 C   0  0  0  0  0  0  0  0  0  0  0  0
    8.2690    7.8100    0.0000 C   0  0  0  0  0  0  0  0  0  0  0  0
    6.5369    1.8100    0.0000 C   0  0  0  0  0  0  0  0  0  0  0  0
    9.1350    7.3100    0.0000 C   0  0  0  0  0  0  0  0  0  0  0  0
    8.2690    1.8100    0.0000 C   0  0  0  0  0  0  0  0  0  0  0  0
    7.4030    7.3100    0.0000 C   0  0  0  0  0  0  0  0  0  0  0  0
    6.8660    4.6200    0.0000 H   0  0  0  0  0  0  0  0  0  0  0  0
    8.8059    4.5000    0.0000 H   0  0  0  0  0  0  0  0  0  0  0  0
    9.6720    6.0000    0.0000 H   0  0  0  0  0  0  0  0  0  0  0  0
    6.0000    3.1200    0.0000 H   0  0  0  0  0  0  0  0  0  0  0  0
    6.8660    6.0000    0.0000 H   0  0  0  0  0  0  0  0  0  0  0  0
    8.8059    3.1200    0.0000 H   0  0  0  0  0  0  0  0  0  0  0  0
    6.0000    1.5000    0.0000 H   0  0  0  0  0  0  0  0  0  0  0  0
    9.6720    7.6200    0.0000 H   0  0  0  0  0  0  0  0  0  0  0  0
    8.8059    1.5000    0.0000 H   0  0  0  0  0  0  0  0  0  0  0  0
    6.8660    7.6200    0.0000 H   0  0  0  0  0  0  0  0  0  0  0  0
    6.8660    0.0000    0.0000 H   0  0  0  0  0  0  0  0  0  0  0  0
    7.9399    0.0000    0.0000 H   0  0  0  0  0  0  0  0  0  0  0  0
    8.8059    9.1200    0.0000 H   0  0  0  0  0  0  0  0  0  0  0  0
    7.7320    9.1200    0.0000 H   0  0  0  0  0  0  0  0  0  0  0  0
    4.0000    4.3100    0.0000 H   0  0  0  0  0  0  0  0  0  0  0  0
    1.0000    4.3100    0.0000 H   0  0  0  0  0  0  0  0  0  0  0  0
  1 33  1  0  0  0  0
  2 34  1  0  0  0  0
  3 14  1  0  0  0  0
  3 31  1  0  0  0  0
  3 32  1  0  0  0  0
  4 13  1  0  0  0  0
  4 29  1  0  0  0  0
  4 30  1  0  0  0  0
  5  7  1  0  0  0  0
  5 10  2  0  0  0  0
  5 12  1  0  0  0  0
  6  8  1  0  0  0  0
  6  9  2  0  0  0  0
  6 11  1  0  0  0  0
  7  8  2  0  0  0  0
  7 19  1  0  0  0  0
  8 20  1  0  0  0  0
  9 16  1  0  0  0  0
  9 21  1  0  0  0  0
 10 15  1  0  0  0  0
 10 22  1  0  0  0  0
 11 18  2  0  0  0  0
 11 23  1  0  0  0  0
 12 17  2  0  0  0  0
 12 24  1  0  0  0  0
 13 15  2  0  0  0  0
 13 17  1  0  0  0  0
 14 16  2  0  0  0  0
 14 18  1  0  0  0  0
 15 25  1  0  0  0  0
 16 26  1  0  0  0  0
 17 27  1  0  0  0  0
 18 28  1  0  0  0  0
M  END
> <PUBCHEM_COMPOUND_CID>
11954176

> <PUBCHEM_COMPOUND_CANONICALIZED>
1

> <PUBCHEM_CACTVS_COMPLEXITY>
197

> <PUBCHEM_CACTVS_HBOND_ACCEPTOR>
2

> <PUBCHEM_CACTVS_HBOND_DONOR>
4

> <PUBCHEM_CACTVS_ROTATABLE_BOND>
2

> <PUBCHEM_CACTVS_SUBSKEYS>
AAADceBzAAAGAAAAAAAAAAAAAAAAAAAAAAAwYAAAAAAAAAABQAAAHAAQAAAADAiBGAAwwIBAAACAAiRCQACCAAAgAgAIiAAAZIgIICKAkZGAIABgkAAIyAcQgAAOCAAAAAAAAAAQAAAAAAAAAAAAAAAAAA==

> <PUBCHEM_IUPAC_OPENEYE_NAME>
4-[(E)-2-(4-aminophenyl)vinyl]aniline dihydrochloride

> <PUBCHEM_IUPAC_CAS_NAME>
4-[(E)-2-(4-aminophenyl)ethenyl]aniline dihydrochloride

> <PUBCHEM_IUPAC_NAME>
4-[(E)-2-(4-aminophenyl)ethenyl]aniline dihydrochloride

> <PUBCHEM_IUPAC_SYSTEMATIC_NAME>
4-[(E)-2-(4-aminophenyl)ethenyl]aniline dihydrochloride

> <PUBCHEM_IUPAC_TRADITIONAL_NAME>
[4-[(E)-2-(4-aminophenyl)vinyl]phenyl]amine dihydrochloride

> <PUBCHEM_IUPAC_INCHI>
InChI=1S/C14H14N2.2ClH/c15-13-7-3-11(4-8-13)1-2-12-5-9-14(16)10-6-12;;/h1-10H,15-16H2;2*1H/b2-1+;;

> <PUBCHEM_IUPAC_INCHIKEY>
QHDAFTKIEDDTPV-SEPHDYHBSA-N

> <PUBCHEM_EXACT_MASS>
282.069054

> <PUBCHEM_MOLECULAR_FORMULA>
C14H16Cl2N2

> <PUBCHEM_MOLECULAR_WEIGHT>
283.19624

> <PUBCHEM_OPENEYE_CAN_SMILES>
C1=CC(=CC=C1C=CC2=CC=C(C=C2)N)N.Cl.Cl

> <PUBCHEM_OPENEYE_ISO_SMILES>
C1=CC(=CC=C1/C=C/C2=CC=C(C=C2)N)N.Cl.Cl

> <PUBCHEM_CACTVS_TPSA>
52

> <PUBCHEM_MONOISOTOPIC_WEIGHT>
282.069054

> <PUBCHEM_TOTAL_CHARGE>
0

> <PUBCHEM_HEAVY_ATOM_COUNT>
18

> <PUBCHEM_ATOM_DEF_STEREO_COUNT>
0

> <PUBCHEM_ATOM_UDEF_STEREO_COUNT>
0

> <PUBCHEM_BOND_DEF_STEREO_COUNT>
1

> <PUBCHEM_BOND_UDEF_STEREO_COUNT>
0

> <PUBCHEM_ISOTOPIC_ATOM_COUNT>
0

> <PUBCHEM_COMPONENT_COUNT>
3

> <PUBCHEM_CACTVS_TAUTO_COUNT>
2

> <PUBCHEM_COORDINATE_TYPE>
1
5
255

> <PUBCHEM_BONDANNOTATIONS>
10  15  8
11  18  8
12  17  8
13  15  8
13  17  8
14  16  8
14  18  8
5  10  8
5  12  8
6  11  8
6  9  8
9  16  8

$$$$

