5281702
  -OEChem-07051212593D

 38 40  0     0  0  0  0  0  0999 V2000
   -0.8498    0.7221    0.1162 O   0  0  0  0  0  0  0  0  0  0  0  0
    4.4627   -1.9719    0.6214 O   0  0  0  0  0  0  0  0  0  0  0  0
    3.7275    2.5353   -0.8212 O   0  0  0  0  0  0  0  0  0  0  0  0
   -4.9558   -1.8149   -0.3309 O   0  0  0  0  0  0  0  0  0  0  0  0
   -2.5807   -2.8923   -0.6180 O   0  0  0  0  0  0  0  0  0  0  0  0
    5.4680    0.5095   -0.0871 O   0  0  0  0  0  0  0  0  0  0  0  0
   -5.0698    2.8288    0.6587 O   0  0  0  0  0  0  0  0  0  0  0  0
   -0.0905   -0.4108   -0.1345 C   0  0  0  0  0  0  0  0  0  0  0  0
    1.3665   -0.1709   -0.1237 C   0  0  0  0  0  0  0  0  0  0  0  0
   -2.8731   -0.6011   -0.1191 C   0  0  0  0  0  0  0  0  0  0  0  0
   -2.2166    0.6045    0.1225 C   0  0  0  0  0  0  0  0  0  0  0  0
   -0.6051   -1.6247   -0.3876 C   0  0  0  0  0  0  0  0  0  0  0  0
   -2.0712   -1.8030   -0.3944 C   0  0  0  0  0  0  0  0  0  0  0  0
    1.8736    1.0809   -0.4811 C   0  0  0  0  0  0  0  0  0  0  0  0
    2.2444   -1.1930    0.2458 C   0  0  0  0  0  0  0  0  0  0  0  0
   -4.2684   -0.6618   -0.1008 C   0  0  0  0  0  0  0  0  0  0  0  0
    3.6204   -0.9647    0.2578 C   0  0  0  0  0  0  0  0  0  0  0  0
    3.2496    1.3092   -0.4693 C   0  0  0  0  0  0  0  0  0  0  0  0
   -2.9539    1.7595    0.3843 C   0  0  0  0  0  0  0  0  0  0  0  0
    4.1230    0.2863   -0.0999 C   0  0  0  0  0  0  0  0  0  0  0  0
   -4.3477    1.7031    0.4038 C   0  0  0  0  0  0  0  0  0  0  0  0
   -5.0033    0.4949    0.1618 C   0  0  0  0  0  0  0  0  0  0  0  0
    3.8677   -3.2195    0.9724 C   0  0  0  0  0  0  0  0  0  0  0  0
    3.8826    3.4945    0.2229 C   0  0  0  0  0  0  0  0  0  0  0  0
   -0.0130   -2.5035   -0.6142 H   0  0  0  0  0  0  0  0  0  0  0  0
    1.2110    1.8898   -0.7813 H   0  0  0  0  0  0  0  0  0  0  0  0
    1.8206   -2.1433    0.5481 H   0  0  0  0  0  0  0  0  0  0  0  0
   -2.4456    2.7018    0.5729 H   0  0  0  0  0  0  0  0  0  0  0  0
   -6.0898    0.4498    0.1765 H   0  0  0  0  0  0  0  0  0  0  0  0
   -4.3441   -2.5481   -0.4979 H   0  0  0  0  0  0  0  0  0  0  0  0
    5.6357    1.4140   -0.4032 H   0  0  0  0  0  0  0  0  0  0  0  0
   -6.0169    2.6086    0.6332 H   0  0  0  0  0  0  0  0  0  0  0  0
    3.3323   -3.6655    0.1272 H   0  0  0  0  0  0  0  0  0  0  0  0
    3.2416   -3.1315    1.8670 H   0  0  0  0  0  0  0  0  0  0  0  0
    4.6840   -3.9043    1.2252 H   0  0  0  0  0  0  0  0  0  0  0  0
    4.5614    3.1216    0.9964 H   0  0  0  0  0  0  0  0  0  0  0  0
    2.9108    3.7391    0.6631 H   0  0  0  0  0  0  0  0  0  0  0  0
    4.3099    4.4040   -0.2082 H   0  0  0  0  0  0  0  0  0  0  0  0
  1  8  1  0  0  0  0
  1 11  1  0  0  0  0
  2 17  1  0  0  0  0
  2 23  1  0  0  0  0
  3 18  1  0  0  0  0
  3 24  1  0  0  0  0
  4 16  1  0  0  0  0
  4 30  1  0  0  0  0
  5 13  2  0  0  0  0
  6 20  1  0  0  0  0
  6 31  1  0  0  0  0
  7 21  1  0  0  0  0
  7 32  1  0  0  0  0
  8  9  1  0  0  0  0
  8 12  2  0  0  0  0
  9 14  2  0  0  0  0
  9 15  1  0  0  0  0
 10 11  1  0  0  0  0
 10 13  1  0  0  0  0
 10 16  2  0  0  0  0
 11 19  2  0  0  0  0
 12 13  1  0  0  0  0
 12 25  1  0  0  0  0
 14 18  1  0  0  0  0
 14 26  1  0  0  0  0
 15 17  2  0  0  0  0
 15 27  1  0  0  0  0
 16 22  1  0  0  0  0
 17 20  1  0  0  0  0
 18 20  2  0  0  0  0
 19 21  1  0  0  0  0
 19 28  1  0  0  0  0
 21 22  2  0  0  0  0
 22 29  1  0  0  0  0
 23 33  1  0  0  0  0
 23 34  1  0  0  0  0
 23 35  1  0  0  0  0
 24 36  1  0  0  0  0
 24 37  1  0  0  0  0
 24 38  1  0  0  0  0
M  END
> <PUBCHEM_COMPOUND_CID>
5281702

> <PUBCHEM_CONFORMER_RMSD>
0.6

> <PUBCHEM_CONFORMER_DIVERSEORDER>
1
2
3
4

> <PUBCHEM_MMFF94_PARTIAL_CHARGES>
32
1 -0.16
10 0.09
11 0.08
12 -0.14
13 0.47
14 -0.15
15 -0.15
16 0.08
17 0.08
18 0.08
19 -0.15
2 -0.36
20 0.08
21 0.08
22 -0.15
23 0.28
24 0.28
25 0.15
26 0.15
27 0.15
28 0.15
29 0.15
3 -0.36
30 0.45
31 0.45
32 0.45
4 -0.53
5 -0.57
6 -0.53
7 -0.53
8 0.05
9 0.03

> <PUBCHEM_EFFECTIVE_ROTOR_COUNT>
3

> <PUBCHEM_PHARMACOPHORE_FEATURES>
10
1 1 acceptor
1 2 acceptor
1 3 acceptor
1 4 donor
1 5 acceptor
1 6 donor
1 7 donor
6 1 8 10 11 12 13 rings
6 10 11 16 19 21 22 rings
6 9 14 15 17 18 20 rings

> <PUBCHEM_HEAVY_ATOM_COUNT>
24

> <PUBCHEM_ATOM_DEF_STEREO_COUNT>
0

> <PUBCHEM_ATOM_UDEF_STEREO_COUNT>
0

> <PUBCHEM_BOND_DEF_STEREO_COUNT>
0

> <PUBCHEM_BOND_UDEF_STEREO_COUNT>
0

> <PUBCHEM_ISOTOPIC_ATOM_COUNT>
0

> <PUBCHEM_COMPONENT_COUNT>
1

> <PUBCHEM_CACTVS_TAUTO_COUNT>
57

> <PUBCHEM_CONFORMER_ID>
005097A600000001

> <PUBCHEM_MMFF94_ENERGY>
92.5

> <PUBCHEM_FEATURE_SELFOVERLAP>
50.772

> <PUBCHEM_SHAPE_FINGERPRINT>
10595046 47 18338517443649555653
10616163 171 18336263440328458246
10759866 29 18410851019453835132
11405975 8 18412262856565699163
12107183 9 18122908899721140402
12236239 1 18410573994237348842
12390115 104 17969484053037165225
12403260 363 18335146427214638469
12633257 1 18337952423332078197
12788726 201 17603857961804334121
13073987 5 18411419514067864291
13140716 1 18412824702654554907
13167823 11 18411138030395717255
13533116 47 18343021081842402819
13583140 156 18201140105546334544
13785724 45 17760645171925646602
14117953 113 17976821218267069973
14739800 52 18115319856282719112
14849402 71 18270683040248562128
15196674 1 18410292536155716231
15250474 111 18337402560118420030
15420108 30 16820793717828345408
15442244 35 18339926012692402622
17349148 13 17968099767080026574
17492 89 18411981347161646074
17818456 19 18189616223065428288
17844677 252 18410284800887870243
17868525 174 18268155429912900784
1813 80 16988558052429664862
18681886 176 18186522090714501830
20715895 44 18048597320364760585
21033648 144 18341060635329995836
21065198 48 18411982472473965959
21065198 57 18411981368646109579
21267235 1 18410847737967238070
21315764 268 18342741857819120981
21421861 104 17988090014603661370
21859007 373 17629783402437054109
22393880 68 18262509283222488116
23402539 116 18187654634634941421
23559900 14 17968647341414623030
245318 6 16767315151560095508
2838139 119 18127136492904924413
3004659 81 18336543923631485694
335352 9 18266177420930852502
350125 39 18412263943509215292
3680242 22 18264478654228660945
4073 2 18059566962742504378
4214541 1 18409729568985444077
4409770 3 17194336240840603756
474 4 17773593819802052564
5104073 3 18412824694301919899
543358 83 18412260653833083874
7097593 13 18340774840090879854
77779 3 18411417306438511847
9709674 26 18408315596895565407
9981440 41 17909552762067042136

> <PUBCHEM_SHAPE_MULTIPOLES>
452.82
12.25
3.47
0.76
1.85
0.55
-0.03
2.68
-1.21
-1.94
-0.38
-0.16
-0.07
-1.96

> <PUBCHEM_SHAPE_SELFOVERLAP>
1001.638

> <PUBCHEM_SHAPE_VOLUME>
242.9

> <PUBCHEM_COORDINATE_TYPE>
2
5
10

$$$$

