91596
  -OEChem-07051213132D

 28 28  0     0  0  0  0  0  0999 V2000
    7.9575   -0.3346    0.0000 S   0  0  0  0  0  0  0  0  0  0  0  0
    6.1974   -0.6133    0.0000 S   0  0  0  0  0  0  0  0  0  0  0  0
    8.2665    0.6165    0.0000 O   0  0  0  0  0  0  0  0  0  0  0  0
    7.6485   -1.2856    0.0000 O   0  0  0  0  0  0  0  0  0  0  0  0
    3.9021    1.3127    0.0000 O   0  0  0  0  0  0  0  0  0  0  0  0
    4.4374   -0.3346    0.0000 N   0  0  0  0  0  0  0  0  0  0  0  0
    6.6974    0.9255    0.0000 N   0  0  0  0  0  0  0  0  0  0  0  0
    5.6974    0.9255    0.0000 N   0  0  0  0  0  0  0  0  0  0  0  0
    2.7431    0.0255    0.0000 N   0  0  0  0  0  0  0  0  0  0  0  0
    8.9086   -0.6436    0.0000 C   0  0  0  0  0  0  0  0  0  0  0  0
    7.0064   -0.0255    0.0000 C   0  0  0  0  0  0  0  0  0  0  0  0
    9.6517    0.0255    0.0000 C   0  0  0  0  0  0  0  0  0  0  0  0
    5.3884   -0.0255    0.0000 C   0  0  0  0  0  0  0  0  0  0  0  0
    4.2294   -1.3127    0.0000 C   0  0  0  0  0  0  0  0  0  0  0  0
    3.6942    0.3346    0.0000 C   0  0  0  0  0  0  0  0  0  0  0  0
    2.0000    0.6947    0.0000 C   0  0  0  0  0  0  0  0  0  0  0  0
    8.6175   -1.1910    0.0000 H   0  0  0  0  0  0  0  0  0  0  0  0
    9.3971   -1.0253    0.0000 H   0  0  0  0  0  0  0  0  0  0  0  0
   10.0666   -0.4352    0.0000 H   0  0  0  0  0  0  0  0  0  0  0  0
   10.1124    0.4404    0.0000 H   0  0  0  0  0  0  0  0  0  0  0  0
    9.2368    0.4863    0.0000 H   0  0  0  0  0  0  0  0  0  0  0  0
    3.6230   -1.1838    0.0000 H   0  0  0  0  0  0  0  0  0  0  0  0
    4.1005   -1.9192    0.0000 H   0  0  0  0  0  0  0  0  0  0  0  0
    4.8359   -1.4416    0.0000 H   0  0  0  0  0  0  0  0  0  0  0  0
    2.6142   -0.5809    0.0000 H   0  0  0  0  0  0  0  0  0  0  0  0
    2.4149    1.1554    0.0000 H   0  0  0  0  0  0  0  0  0  0  0  0
    1.5392    1.1095    0.0000 H   0  0  0  0  0  0  0  0  0  0  0  0
    1.5851    0.2339    0.0000 H   0  0  0  0  0  0  0  0  0  0  0  0
  1  3  2  0  0  0  0
  1  4  2  0  0  0  0
  1 10  1  0  0  0  0
  1 11  1  0  0  0  0
  2 11  1  0  0  0  0
  2 13  1  0  0  0  0
  5 15  2  0  0  0  0
  6 13  1  0  0  0  0
  6 14  1  0  0  0  0
  6 15  1  0  0  0  0
  7  8  1  0  0  0  0
  7 11  2  0  0  0  0
  8 13  2  0  0  0  0
  9 15  1  0  0  0  0
  9 16  1  0  0  0  0
  9 25  1  0  0  0  0
 10 12  1  0  0  0  0
 10 17  1  0  0  0  0
 10 18  1  0  0  0  0
 12 19  1  0  0  0  0
 12 20  1  0  0  0  0
 12 21  1  0  0  0  0
 14 22  1  0  0  0  0
 14 23  1  0  0  0  0
 14 24  1  0  0  0  0
 16 26  1  0  0  0  0
 16 27  1  0  0  0  0
 16 28  1  0  0  0  0
M  END
> <PUBCHEM_COMPOUND_CID>
91596

> <PUBCHEM_COMPOUND_CANONICALIZED>
1

> <PUBCHEM_CACTVS_COMPLEXITY>
353

> <PUBCHEM_CACTVS_HBOND_ACCEPTOR>
6

> <PUBCHEM_CACTVS_HBOND_DONOR>
1

> <PUBCHEM_CACTVS_ROTATABLE_BOND>
3

> <PUBCHEM_CACTVS_SUBSKEYS>
AAADccBjsABgAAAAAAAAAAAAAAAAAWAAAAAAAAAAAAAAAAABgAAAHgQYAAAAAACEQASDEAPAAAouAAAAMHBYAQJAABgFAIAIAACAAAAAAAAAAAAIAwAAAAAAAAAAAAAAAAAAAAAAAAAAAAAAAAAAAAAAAA==

> <PUBCHEM_IUPAC_OPENEYE_NAME>
1-(5-ethylsulfonyl-1,3,4-thiadiazol-2-yl)-1,3-dimethyl-urea

> <PUBCHEM_IUPAC_CAS_NAME>
1-(5-ethylsulfonyl-1,3,4-thiadiazol-2-yl)-1,3-dimethylurea

> <PUBCHEM_IUPAC_NAME>
1-(5-ethylsulfonyl-1,3,4-thiadiazol-2-yl)-1,3-dimethylurea

> <PUBCHEM_IUPAC_SYSTEMATIC_NAME>
1-(5-ethylsulfonyl-1,3,4-thiadiazol-2-yl)-1,3-dimethyl-urea

> <PUBCHEM_IUPAC_TRADITIONAL_NAME>
1-(5-esyl-1,3,4-thiadiazol-2-yl)-1,3-dimethyl-urea

> <PUBCHEM_IUPAC_INCHI>
InChI=1S/C7H12N4O3S2/c1-4-16(13,14)7-10-9-6(15-7)11(3)5(12)8-2/h4H2,1-3H3,(H,8,12)

> <PUBCHEM_IUPAC_INCHIKEY>
KCOCSOWTADCKOL-UHFFFAOYSA-N

> <PUBCHEM_XLOGP3_AA>
-0.2

> <PUBCHEM_EXACT_MASS>
264.035082

> <PUBCHEM_MOLECULAR_FORMULA>
C7H12N4O3S2

> <PUBCHEM_MOLECULAR_WEIGHT>
264.32518

> <PUBCHEM_OPENEYE_CAN_SMILES>
CCS(=O)(=O)C1=NN=C(S1)N(C)C(=O)NC

> <PUBCHEM_OPENEYE_ISO_SMILES>
CCS(=O)(=O)C1=NN=C(S1)N(C)C(=O)NC

> <PUBCHEM_CACTVS_TPSA>
129

> <PUBCHEM_MONOISOTOPIC_WEIGHT>
264.035082

> <PUBCHEM_TOTAL_CHARGE>
0

> <PUBCHEM_HEAVY_ATOM_COUNT>
16

> <PUBCHEM_ATOM_DEF_STEREO_COUNT>
0

> <PUBCHEM_ATOM_UDEF_STEREO_COUNT>
0

> <PUBCHEM_BOND_DEF_STEREO_COUNT>
0

> <PUBCHEM_BOND_UDEF_STEREO_COUNT>
0

> <PUBCHEM_ISOTOPIC_ATOM_COUNT>
0

> <PUBCHEM_COMPONENT_COUNT>
1

> <PUBCHEM_CACTVS_TAUTO_COUNT>
2

> <PUBCHEM_COORDINATE_TYPE>
1
5
255

> <PUBCHEM_BONDANNOTATIONS>
2  11  8
2  13  8
7  11  8
7  8  8
8  13  8

$$$$

