4377
  -OEChem-06261200053D

 16 15  0     1  0  0  0  0  0999 V2000
   -1.8372    0.3411    0.8500 O   0  0  0  0  0  0  0  0  0  0  0  0
   -0.8485    1.0244   -1.0783 O   0  0  0  0  0  0  0  0  0  0  0  0
    1.5185   -0.1555   -0.1606 N   0  0  0  0  0  0  0  0  0  0  0  0
    0.2359   -0.6590    0.3265 C   0  0  2  0  0  0  0  0  0  0  0  0
   -0.0395   -2.0307   -0.2745 C   0  0  0  0  0  0  0  0  0  0  0  0
   -0.8395    0.3290   -0.0727 C   0  0  0  0  0  0  0  0  0  0  0  0
    1.8103    1.1508    0.4096 C   0  0  0  0  0  0  0  0  0  0  0  0
    0.2672   -0.7409    1.4201 H   0  0  0  0  0  0  0  0  0  0  0  0
    0.7352   -2.7513    0.0091 H   0  0  0  0  0  0  0  0  0  0  0  0
   -1.0033   -2.4174    0.0748 H   0  0  0  0  0  0  0  0  0  0  0  0
   -0.0849   -1.9888   -1.3690 H   0  0  0  0  0  0  0  0  0  0  0  0
    2.2566   -0.8089    0.1014 H   0  0  0  0  0  0  0  0  0  0  0  0
    1.1686    1.9492    0.0276 H   0  0  0  0  0  0  0  0  0  0  0  0
    2.8345    1.4299    0.1382 H   0  0  0  0  0  0  0  0  0  0  0  0
    1.7602    1.1393    1.5038 H   0  0  0  0  0  0  0  0  0  0  0  0
   -2.5495    0.9711    0.6092 H   0  0  0  0  0  0  0  0  0  0  0  0
  1  6  1  0  0  0  0
  1 16  1  0  0  0  0
  2  6  2  0  0  0  0
  3  4  1  0  0  0  0
  3  7  1  0  0  0  0
  3 12  1  0  0  0  0
  4  5  1  0  0  0  0
  4  6  1  0  0  0  0
  4  8  1  0  0  0  0
  5  9  1  0  0  0  0
  5 10  1  0  0  0  0
  5 11  1  0  0  0  0
  7 13  1  0  0  0  0
  7 14  1  0  0  0  0
  7 15  1  0  0  0  0
M  END
> <PUBCHEM_COMPOUND_CID>
4377

> <PUBCHEM_CONFORMER_RMSD>
0.4

> <PUBCHEM_CONFORMER_DIVERSEORDER>
3
2
9
8
6
4
7
5
1
10

> <PUBCHEM_MMFF94_PARTIAL_CHARGES>
8
1 -0.65
12 0.36
16 0.5
2 -0.57
3 -0.9
4 0.33
6 0.66
7 0.27

> <PUBCHEM_EFFECTIVE_ROTOR_COUNT>
2

> <PUBCHEM_PHARMACOPHORE_FEATURES>
5
1 1 acceptor
1 2 acceptor
1 3 cation
1 3 donor
3 1 2 6 anion

> <PUBCHEM_HEAVY_ATOM_COUNT>
7

> <PUBCHEM_ATOM_DEF_STEREO_COUNT>
0

> <PUBCHEM_ATOM_UDEF_STEREO_COUNT>
1

> <PUBCHEM_BOND_DEF_STEREO_COUNT>
0

> <PUBCHEM_BOND_UDEF_STEREO_COUNT>
0

> <PUBCHEM_ISOTOPIC_ATOM_COUNT>
0

> <PUBCHEM_COMPONENT_COUNT>
1

> <PUBCHEM_CACTVS_TAUTO_COUNT>
1

> <PUBCHEM_CONFORMER_ID>
0000111900000003

> <PUBCHEM_MMFF94_ENERGY>
6.4728

> <PUBCHEM_FEATURE_SELFOVERLAP>
25.429

> <PUBCHEM_SHAPE_FINGERPRINT>
16714656 1 18200296737431325548
20096714 4 18334012804550506768
21040471 1 18337104579729291264
24536 1 17823427002413487360
29004967 10 17615968145944122475
5943 1 5033193443274079623

> <PUBCHEM_SHAPE_MULTIPOLES>
127.34
2
1.66
0.85
0.95
0.82
0.06
-0.66
-0.36
-0.43
0.19
-0.2
-0.21
0.01

> <PUBCHEM_SHAPE_SELFOVERLAP>
232.4

> <PUBCHEM_SHAPE_VOLUME>
81.9

> <PUBCHEM_COORDINATE_TYPE>
2
5
10

$$$$

