46173862
  -OEChem-07051213092D

 95101  0     1  0  0  0  0  0999 V2000
    5.5954   -4.3916    0.0000 O   0  0  0  0  0  0  0  0  0  0  0  0
    3.9300   -3.3104    0.0000 O   0  0  0  0  0  0  0  0  0  0  0  0
   12.0027    0.9876    0.0000 O   0  0  0  0  0  0  0  0  0  0  0  0
   12.8630    2.4909    0.0000 O   0  0  0  0  0  0  0  0  0  0  0  0
   10.2668    1.9809    0.0000 O   0  0  0  0  0  0  0  0  0  0  0  0
   10.2591    3.9809    0.0000 O   0  0  0  0  0  0  0  0  0  0  0  0
   11.9873    4.9876    0.0000 O   0  0  0  0  0  0  0  0  0  0  0  0
   14.5912    3.4976    0.0000 O   0  0  0  0  0  0  0  0  0  0  0  0
    6.6628   -2.1568    0.0000 C   0  0  1  0  0  0  0  0  0  0  0  0
    7.5288   -2.6568    0.0000 C   0  0  2  0  0  0  0  0  0  0  0  0
    8.3948   -2.1568    0.0000 C   0  0  1  0  0  0  0  0  0  0  0  0
    5.9258   -2.8239    0.0000 C   0  0  2  0  0  0  0  0  0  0  0  0
    8.3948   -1.1568    0.0000 C   0  0  1  0  0  0  0  0  0  0  0  0
    6.3309   -3.7316    0.0000 C   0  0  2  0  0  0  0  0  0  0  0  0
    9.2888   -0.6221    0.0000 C   0  0  2  0  0  0  0  0  0  0  0  0
    7.3196   -3.6286    0.0000 C   0  0  0  0  0  0  0  0  0  0  0  0
    6.6628   -1.1568    0.0000 C   0  0  0  0  0  0  0  0  0  0  0  0
    7.5288   -0.6568    0.0000 C   0  0  0  0  0  0  0  0  0  0  0  0
    4.9434   -2.9306    0.0000 C   0  0  1  0  0  0  0  0  0  0  0  0
   10.1949   -1.1360    0.0000 C   0  0  2  0  0  0  0  0  0  0  0  0
    9.2888   -2.6914    0.0000 C   0  0  0  0  0  0  0  0  0  0  0  0
    4.7396   -3.8975    0.0000 C   0  0  1  0  0  0  0  0  0  0  0  0
   10.1949   -2.1776    0.0000 C   0  0  0  0  0  0  0  0  0  0  0  0
    5.7968   -1.6568    0.0000 C   0  0  0  0  0  0  0  0  0  0  0  0
    9.2637    0.4626    0.0000 C   0  0  0  0  0  0  0  0  0  0  0  0
   11.1386   -0.6007    0.0000 C   0  0  0  0  0  0  0  0  0  0  0  0
    8.4189   -0.1288    0.0000 C   0  0  0  0  0  0  0  0  0  0  0  0
   10.1949    1.0195    0.0000 C   0  0  0  0  0  0  0  0  0  0  0  0
    4.2723   -2.1892    0.0000 C   0  0  0  0  0  0  0  0  0  0  0  0
   11.1386    0.4843    0.0000 C   0  0  2  0  0  0  0  0  0  0  0  0
    4.6359   -4.8921    0.0000 C   0  0  0  0  0  0  0  0  0  0  0  0
    3.7227   -5.2996    0.0000 C   0  0  0  0  0  0  0  0  0  0  0  0
    3.0169   -3.7180    0.0000 C   0  0  0  0  0  0  0  0  0  0  0  0
    2.9132   -4.7126    0.0000 C   0  0  3  0  0  0  0  0  0  0  0  0
    2.0000   -5.1201    0.0000 C   0  0  0  0  0  0  0  0  0  0  0  0
   11.9989    1.9876    0.0000 C   0  0  2  0  0  0  0  0  0  0  0  0
   11.1309    2.4843    0.0000 C   0  0  1  0  0  0  0  0  0  0  0  0
   11.1271    3.4842    0.0000 C   0  0  2  0  0  0  0  0  0  0  0  0
   12.8591    3.4909    0.0000 C   0  0  1  0  0  0  0  0  0  0  0  0
   11.9912    3.9876    0.0000 C   0  0  2  0  0  0  0  0  0  0  0  0
   13.7232    3.9943    0.0000 C   0  0  0  0  0  0  0  0  0  0  0  0
    8.2158   -3.1573    0.0000 H   0  0  0  0  0  0  0  0  0  0  0  0
    8.3883   -3.0067    0.0000 H   0  0  0  0  0  0  0  0  0  0  0  0
    5.5777   -2.0484    0.0000 H   0  0  0  0  0  0  0  0  0  0  0  0
    8.3883   -0.3068    0.0000 H   0  0  0  0  0  0  0  0  0  0  0  0
    6.6756   -4.5086    0.0000 H   0  0  0  0  0  0  0  0  0  0  0  0
    7.3187   -4.2486    0.0000 H   0  0  0  0  0  0  0  0  0  0  0  0
    7.9361   -3.6946    0.0000 H   0  0  0  0  0  0  0  0  0  0  0  0
    6.4507   -0.5742    0.0000 H   0  0  0  0  0  0  0  0  0  0  0  0
    6.0522   -1.2644    0.0000 H   0  0  0  0  0  0  0  0  0  0  0  0
    7.9274   -0.1818    0.0000 H   0  0  0  0  0  0  0  0  0  0  0  0
    7.1303   -0.1818    0.0000 H   0  0  0  0  0  0  0  0  0  0  0  0
    4.3448   -3.0923    0.0000 H   0  0  0  0  0  0  0  0  0  0  0  0
   10.9293   -1.5638    0.0000 H   0  0  0  0  0  0  0  0  0  0  0  0
    8.8842   -3.1612    0.0000 H   0  0  0  0  0  0  0  0  0  0  0  0
    9.6824   -3.1705    0.0000 H   0  0  0  0  0  0  0  0  0  0  0  0
   10.4039   -2.7613    0.0000 H   0  0  0  0  0  0  0  0  0  0  0  0
   10.8057   -2.0715    0.0000 H   0  0  0  0  0  0  0  0  0  0  0  0
    6.1068   -1.1198    0.0000 H   0  0  0  0  0  0  0  0  0  0  0  0
    5.2598   -1.3468    0.0000 H   0  0  0  0  0  0  0  0  0  0  0  0
    5.4868   -2.1937    0.0000 H   0  0  0  0  0  0  0  0  0  0  0  0
    9.0412    1.0413    0.0000 H   0  0  0  0  0  0  0  0  0  0  0  0
    8.6555    0.3424    0.0000 H   0  0  0  0  0  0  0  0  0  0  0  0
   11.3477   -1.1844    0.0000 H   0  0  0  0  0  0  0  0  0  0  0  0
   11.7495   -0.4946    0.0000 H   0  0  0  0  0  0  0  0  0  0  0  0
    8.7248    0.4105    0.0000 H   0  0  0  0  0  0  0  0  0  0  0  0
    7.8796    0.1770    0.0000 H   0  0  0  0  0  0  0  0  0  0  0  0
    8.1131   -0.6681    0.0000 H   0  0  0  0  0  0  0  0  0  0  0  0
   10.5885    1.4985    0.0000 H   0  0  0  0  0  0  0  0  0  0  0  0
    9.7903    1.4893    0.0000 H   0  0  0  0  0  0  0  0  0  0  0  0
    4.7320   -1.7731    0.0000 H   0  0  0  0  0  0  0  0  0  0  0  0
    3.8562   -1.7295    0.0000 H   0  0  0  0  0  0  0  0  0  0  0  0
    3.8126   -2.6052    0.0000 H   0  0  0  0  0  0  0  0  0  0  0  0
   11.1351    1.1043    0.0000 H   0  0  0  0  0  0  0  0  0  0  0  0
    4.7864   -5.4936    0.0000 H   0  0  0  0  0  0  0  0  0  0  0  0
    5.2544   -4.8483    0.0000 H   0  0  0  0  0  0  0  0  0  0  0  0
    3.2771   -5.7307    0.0000 H   0  0  0  0  0  0  0  0  0  0  0  0
    4.0699   -5.8134    0.0000 H   0  0  0  0  0  0  0  0  0  0  0  0
    2.8664   -3.1165    0.0000 H   0  0  0  0  0  0  0  0  0  0  0  0
    2.3984   -3.7617    0.0000 H   0  0  0  0  0  0  0  0  0  0  0  0
    2.4113   -4.3486    0.0000 H   0  0  0  0  0  0  0  0  0  0  0  0
    1.7473   -4.5539    0.0000 H   0  0  0  0  0  0  0  0  0  0  0  0
    1.4338   -5.3728    0.0000 H   0  0  0  0  0  0  0  0  0  0  0  0
    2.2527   -5.6863    0.0000 H   0  0  0  0  0  0  0  0  0  0  0  0
   11.4631    1.6755    0.0000 H   0  0  0  0  0  0  0  0  0  0  0  0
   10.5928    2.7922    0.0000 H   0  0  0  0  0  0  0  0  0  0  0  0
   11.1247    4.1043    0.0000 H   0  0  0  0  0  0  0  0  0  0  0  0
   13.3972    3.1830    0.0000 H   0  0  0  0  0  0  0  0  0  0  0  0
   11.4530    4.2955    0.0000 H   0  0  0  0  0  0  0  0  0  0  0  0
    9.7287    2.2888    0.0000 H   0  0  0  0  0  0  0  0  0  0  0  0
   14.1199    4.4707    0.0000 H   0  0  0  0  0  0  0  0  0  0  0  0
   13.3229    4.4677    0.0000 H   0  0  0  0  0  0  0  0  0  0  0  0
   10.2567    4.6009    0.0000 H   0  0  0  0  0  0  0  0  0  0  0  0
   12.5231    5.2996    0.0000 H   0  0  0  0  0  0  0  0  0  0  0  0
   15.1269    3.8097    0.0000 H   0  0  0  0  0  0  0  0  0  0  0  0
  1 14  1  0  0  0  0
 22  1  1  1  0  0  0
  2 22  1  0  0  0  0
  2 33  1  0  0  0  0
 30  3  1  6  0  0  0
 36  3  1  1  0  0  0
  4 36  1  0  0  0  0
  4 39  1  0  0  0  0
 37  5  1  6  0  0  0
  5 90  1  0  0  0  0
 38  6  1  1  0  0  0
  6 93  1  0  0  0  0
 40  7  1  1  0  0  0
  7 94  1  0  0  0  0
  8 41  1  0  0  0  0
  8 95  1  0  0  0  0
  9 10  1  0  0  0  0
  9 12  1  0  0  0  0
  9 17  1  0  0  0  0
  9 24  1  6  0  0  0
 10 11  1  0  0  0  0
 10 16  1  0  0  0  0
 10 42  1  1  0  0  0
 11 13  1  0  0  0  0
 11 21  1  0  0  0  0
 11 43  1  6  0  0  0
 12 14  1  0  0  0  0
 12 19  1  0  0  0  0
 12 44  1  1  0  0  0
 13 15  1  0  0  0  0
 13 18  1  0  0  0  0
 13 45  1  1  0  0  0
 14 16  1  0  0  0  0
 14 46  1  1  0  0  0
 15 20  1  0  0  0  0
 15 25  1  0  0  0  0
 15 27  1  6  0  0  0
 16 47  1  0  0  0  0
 16 48  1  0  0  0  0
 17 18  1  0  0  0  0
 17 49  1  0  0  0  0
 17 50  1  0  0  0  0
 18 51  1  0  0  0  0
 18 52  1  0  0  0  0
 19 22  1  0  0  0  0
 19 29  1  1  0  0  0
 19 53  1  0  0  0  0
 20 23  1  0  0  0  0
 20 26  1  0  0  0  0
 20 54  1  6  0  0  0
 21 23  1  0  0  0  0
 21 55  1  0  0  0  0
 21 56  1  0  0  0  0
 22 31  1  0  0  0  0
 23 57  1  0  0  0  0
 23 58  1  0  0  0  0
 24 59  1  0  0  0  0
 24 60  1  0  0  0  0
 24 61  1  0  0  0  0
 25 28  1  0  0  0  0
 25 62  1  0  0  0  0
 25 63  1  0  0  0  0
 26 30  1  0  0  0  0
 26 64  1  0  0  0  0
 26 65  1  0  0  0  0
 27 66  1  0  0  0  0
 27 67  1  0  0  0  0
 27 68  1  0  0  0  0
 28 30  1  0  0  0  0
 28 69  1  0  0  0  0
 28 70  1  0  0  0  0
 29 71  1  0  0  0  0
 29 72  1  0  0  0  0
 29 73  1  0  0  0  0
 30 74  1  0  0  0  0
 31 32  1  0  0  0  0
 31 75  1  0  0  0  0
 31 76  1  0  0  0  0
 32 34  1  0  0  0  0
 32 77  1  0  0  0  0
 32 78  1  0  0  0  0
 33 34  1  0  0  0  0
 33 79  1  0  0  0  0
 33 80  1  0  0  0  0
 34 35  1  0  0  0  0
 34 81  1  0  0  0  0
 35 82  1  0  0  0  0
 35 83  1  0  0  0  0
 35 84  1  0  0  0  0
 36 37  1  0  0  0  0
 36 85  1  0  0  0  0
 37 38  1  0  0  0  0
 37 86  1  0  0  0  0
 38 40  1  0  0  0  0
 38 87  1  0  0  0  0
 39 40  1  0  0  0  0
 39 41  1  1  0  0  0
 39 88  1  0  0  0  0
 40 89  1  0  0  0  0
 41 91  1  0  0  0  0
 41 92  1  0  0  0  0
M  END
> <PUBCHEM_COMPOUND_CID>
46173862

> <PUBCHEM_COMPOUND_CANONICALIZED>
1

> <PUBCHEM_CACTVS_COMPLEXITY>
979

> <PUBCHEM_CACTVS_HBOND_ACCEPTOR>
8

> <PUBCHEM_CACTVS_HBOND_DONOR>
4

> <PUBCHEM_CACTVS_ROTATABLE_BOND>
3

> <PUBCHEM_CACTVS_SUBSKEYS>
AAADcfB8PAAAAAAAAAAAAAAAAAAAAaIAAAA0aMECAAASAGDAAAAAGgAACAAADxSwgAMCCAAABgAAAAAAAAAAAAAAAAAAAAAAAAAREAIAAAAiQAAFAAAHAAHA4PwPgAAAAAAAAADAAAYAACAAAYAADAAAAA==

> <PUBCHEM_IUPAC_INCHI>
InChI=1S/C33H54O8/c1-17-7-12-33(38-16-17)18(2)26-24(41-33)14-23-21-6-5-19-13-20(8-10-31(19,3)22(21)9-11-32(23,26)4)39-30-29(37)28(36)27(35)25(15-34)40-30/h17-30,34-37H,5-16H2,1-4H3/t17?,18-,19+,20-,21+,22-,23-,24-,25+,26-,27-,28-,29+,30+,31-,32-,33+/m0/s1

> <PUBCHEM_IUPAC_INCHIKEY>
ZNEIIZNXGCIAAL-GEUMLUQESA-N

> <PUBCHEM_XLOGP3_AA>
4.9

> <PUBCHEM_EXACT_MASS>
578.381869

> <PUBCHEM_MOLECULAR_FORMULA>
C33H54O8

> <PUBCHEM_MOLECULAR_WEIGHT>
578.77706

> <PUBCHEM_OPENEYE_CAN_SMILES>
CC1CCC2(C(C3C(O2)CC4C3(CCC5C4CCC6C5(CCC(C6)OC7C(C(C(C(O7)CO)O)O)O)C)C)C)OC1

> <PUBCHEM_OPENEYE_ISO_SMILES>
C[C@H]1[C@H]2[C@H](C[C@@H]3[C@@]2(CC[C@H]4[C@H]3CC[C@H]5[C@@]4(CC[C@@H](C5)O[C@H]6[C@@H]([C@H]([C@H]([C@H](O6)CO)O)O)O)C)C)O[C@]17CCC(CO7)C

> <PUBCHEM_CACTVS_TPSA>
118

> <PUBCHEM_MONOISOTOPIC_WEIGHT>
578.381869

> <PUBCHEM_TOTAL_CHARGE>
0

> <PUBCHEM_HEAVY_ATOM_COUNT>
41

> <PUBCHEM_ATOM_DEF_STEREO_COUNT>
16

> <PUBCHEM_ATOM_UDEF_STEREO_COUNT>
1

> <PUBCHEM_BOND_DEF_STEREO_COUNT>
0

> <PUBCHEM_BOND_UDEF_STEREO_COUNT>
0

> <PUBCHEM_ISOTOPIC_ATOM_COUNT>
0

> <PUBCHEM_COMPONENT_COUNT>
1

> <PUBCHEM_CACTVS_TAUTO_COUNT>
1

> <PUBCHEM_COORDINATE_TYPE>
1
5
255

> <PUBCHEM_BONDANNOTATIONS>
22  1  5
10  42  5
11  43  6
12  44  5
13  45  5
14  46  5
15  27  6
19  29  5
20  54  6
30  3  6
36  3  5
34  35  3
39  41  5
37  5  6
38  6  5
40  7  5
9  24  6

$$$$

