5281696
  -OEChem-07051212593D

 67 72  0     0  0  0  0  0  0999 V2000
   -2.5841   -0.1156    0.1525 O   0  0  0  0  0  0  0  0  0  0  0  0
    2.6852    0.4503    0.0360 O   0  0  0  0  0  0  0  0  0  0  0  0
   -2.7286    2.0966   -2.7950 O   0  0  0  0  0  0  0  0  0  0  0  0
   -1.5804    4.5302   -0.2025 O   0  0  0  0  0  0  0  0  0  0  0  0
   -4.8937    3.1528    2.8867 O   0  0  0  0  0  0  0  0  0  0  0  0
   -5.3949    0.5808    3.0184 O   0  0  0  0  0  0  0  0  0  0  0  0
    5.3568   -1.3448    3.5261 O   0  0  0  0  0  0  0  0  0  0  0  0
    7.5125    0.2954   -0.3750 O   0  0  0  0  0  0  0  0  0  0  0  0
    5.9564    1.2645   -2.2521 O   0  0  0  0  0  0  0  0  0  0  0  0
   -2.0110   -6.2462   -1.2849 O   0  0  0  0  0  0  0  0  0  0  0  0
   -2.0852    2.1856   -0.0237 C   0  0  0  0  0  0  0  0  0  0  0  0
   -1.0969    1.8781   -1.0432 C   0  0  0  0  0  0  0  0  0  0  0  0
   -2.8296    1.1672    0.5721 C   0  0  0  0  0  0  0  0  0  0  0  0
   -3.7753    1.4756    1.5486 C   0  0  0  0  0  0  0  0  0  0  0  0
    1.1784    1.3189   -1.6200 C   0  0  0  0  0  0  0  0  0  0  0  0
    0.2154    1.6163   -0.6556 C   0  0  0  0  0  0  0  0  0  0  0  0
   -2.2902    3.5107    0.3612 C   0  0  0  0  0  0  0  0  0  0  0  0
   -1.4510    1.8441   -2.3901 C   0  0  0  0  0  0  0  0  0  0  0  0
   -3.9838    2.8010    1.9366 C   0  0  0  0  0  0  0  0  0  0  0  0
    2.5705    1.0408   -1.2134 C   0  0  0  0  0  0  0  0  0  0  0  0
   -3.2375    3.8175    1.3392 C   0  0  0  0  0  0  0  0  0  0  0  0
   -3.3042   -1.1493    0.7319 C   0  0  0  0  0  0  0  0  0  0  0  0
   -4.5474    0.3825    2.1588 C   0  0  0  0  0  0  0  0  0  0  0  0
    0.8268    1.2841   -2.9692 C   0  0  0  0  0  0  0  0  0  0  0  0
   -0.4878    1.5468   -3.3543 C   0  0  0  0  0  0  0  0  0  0  0  0
   -4.2445   -0.9795    1.6748 C   0  0  0  0  0  0  0  0  0  0  0  0
    5.0994    0.3998   -0.2268 C   0  0  0  0  0  0  0  0  0  0  0  0
    3.9390    0.1470    0.5029 C   0  0  0  0  0  0  0  0  0  0  0  0
   -2.9656   -2.4861    0.2035 C   0  0  0  0  0  0  0  0  0  0  0  0
    3.6108    1.3269   -2.0123 C   0  0  0  0  0  0  0  0  0  0  0  0
    4.9810    1.0178   -1.5563 C   0  0  0  0  0  0  0  0  0  0  0  0
    6.3505    0.0690    0.2986 C   0  0  0  0  0  0  0  0  0  0  0  0
    4.0235   -0.4399    1.7656 C   0  0  0  0  0  0  0  0  0  0  0  0
   -3.9368   -3.4890    0.1546 C   0  0  0  0  0  0  0  0  0  0  0  0
   -1.6716   -2.7533   -0.2506 C   0  0  0  0  0  0  0  0  0  0  0  0
    5.2714   -0.7717    2.2942 C   0  0  0  0  0  0  0  0  0  0  0  0
    6.4321   -0.5176    1.5620 C   0  0  0  0  0  0  0  0  0  0  0  0
   -3.6162   -4.7513   -0.3448 C   0  0  0  0  0  0  0  0  0  0  0  0
   -1.3508   -4.0156   -0.7502 C   0  0  0  0  0  0  0  0  0  0  0  0
   -2.3232   -5.0147   -0.7974 C   0  0  0  0  0  0  0  0  0  0  0  0
   -3.6115    0.9807   -2.8828 C   0  0  0  0  0  0  0  0  0  0  0  0
    6.6629   -1.6586    4.0066 C   0  0  0  0  0  0  0  0  0  0  0  0
   -0.6707   -6.4478   -1.7309 C   0  0  0  0  0  0  0  0  0  0  0  0
    0.4814    1.6540    0.3992 H   0  0  0  0  0  0  0  0  0  0  0  0
   -3.4000    4.8495    1.6416 H   0  0  0  0  0  0  0  0  0  0  0  0
    1.5418    1.0347   -3.7485 H   0  0  0  0  0  0  0  0  0  0  0  0
   -0.7557    1.5135   -4.4070 H   0  0  0  0  0  0  0  0  0  0  0  0
   -4.7974   -1.7903    2.1348 H   0  0  0  0  0  0  0  0  0  0  0  0
    3.5199    1.8001   -2.9830 H   0  0  0  0  0  0  0  0  0  0  0  0
    3.1208   -0.6391    2.3378 H   0  0  0  0  0  0  0  0  0  0  0  0
   -4.9605   -3.3174    0.4767 H   0  0  0  0  0  0  0  0  0  0  0  0
   -0.8929   -1.9948   -0.2180 H   0  0  0  0  0  0  0  0  0  0  0  0
   -1.8627    5.3730    0.1922 H   0  0  0  0  0  0  0  0  0  0  0  0
    7.4280   -0.7544    1.9227 H   0  0  0  0  0  0  0  0  0  0  0  0
   -5.3465    2.3681    3.2314 H   0  0  0  0  0  0  0  0  0  0  0  0
   -4.3788   -5.5244   -0.3838 H   0  0  0  0  0  0  0  0  0  0  0  0
   -0.3277   -4.1526   -1.0833 H   0  0  0  0  0  0  0  0  0  0  0  0
   -4.1315    1.0287   -3.8438 H   0  0  0  0  0  0  0  0  0  0  0  0
   -3.0862    0.0214   -2.8160 H   0  0  0  0  0  0  0  0  0  0  0  0
   -4.3542    1.0475   -2.0831 H   0  0  0  0  0  0  0  0  0  0  0  0
    7.3329    0.7062   -1.2346 H   0  0  0  0  0  0  0  0  0  0  0  0
    7.2721   -0.7575    4.1351 H   0  0  0  0  0  0  0  0  0  0  0  0
    7.1550   -2.4071    3.3763 H   0  0  0  0  0  0  0  0  0  0  0  0
    6.5430   -2.1064    4.9986 H   0  0  0  0  0  0  0  0  0  0  0  0
   -0.4278   -5.8005   -2.5804 H   0  0  0  0  0  0  0  0  0  0  0  0
   -0.6001   -7.4812   -2.0860 H   0  0  0  0  0  0  0  0  0  0  0  0
    0.0466   -6.3421   -0.9099 H   0  0  0  0  0  0  0  0  0  0  0  0
  1 13  1  0  0  0  0
  1 22  1  0  0  0  0
  2 20  1  0  0  0  0
  2 28  1  0  0  0  0
  3 18  1  0  0  0  0
  3 41  1  0  0  0  0
  4 17  1  0  0  0  0
  4 53  1  0  0  0  0
  5 19  1  0  0  0  0
  5 55  1  0  0  0  0
  6 23  2  0  0  0  0
  7 36  1  0  0  0  0
  7 42  1  0  0  0  0
  8 32  1  0  0  0  0
  8 61  1  0  0  0  0
  9 31  2  0  0  0  0
 10 40  1  0  0  0  0
 10 43  1  0  0  0  0
 11 12  1  0  0  0  0
 11 13  1  0  0  0  0
 11 17  2  0  0  0  0
 12 16  1  0  0  0  0
 12 18  2  0  0  0  0
 13 14  2  0  0  0  0
 14 19  1  0  0  0  0
 14 23  1  0  0  0  0
 15 16  2  0  0  0  0
 15 20  1  0  0  0  0
 15 24  1  0  0  0  0
 16 44  1  0  0  0  0
 17 21  1  0  0  0  0
 18 25  1  0  0  0  0
 19 21  2  0  0  0  0
 20 30  2  0  0  0  0
 21 45  1  0  0  0  0
 22 26  2  0  0  0  0
 22 29  1  0  0  0  0
 23 26  1  0  0  0  0
 24 25  2  0  0  0  0
 24 46  1  0  0  0  0
 25 47  1  0  0  0  0
 26 48  1  0  0  0  0
 27 28  1  0  0  0  0
 27 31  1  0  0  0  0
 27 32  2  0  0  0  0
 28 33  2  0  0  0  0
 29 34  2  0  0  0  0
 29 35  1  0  0  0  0
 30 31  1  0  0  0  0
 30 49  1  0  0  0  0
 32 37  1  0  0  0  0
 33 36  1  0  0  0  0
 33 50  1  0  0  0  0
 34 38  1  0  0  0  0
 34 51  1  0  0  0  0
 35 39  2  0  0  0  0
 35 52  1  0  0  0  0
 36 37  2  0  0  0  0
 37 54  1  0  0  0  0
 38 40  2  0  0  0  0
 38 56  1  0  0  0  0
 39 40  1  0  0  0  0
 39 57  1  0  0  0  0
 41 58  1  0  0  0  0
 41 59  1  0  0  0  0
 41 60  1  0  0  0  0
 42 62  1  0  0  0  0
 42 63  1  0  0  0  0
 42 64  1  0  0  0  0
 43 65  1  0  0  0  0
 43 66  1  0  0  0  0
 43 67  1  0  0  0  0
M  END
> <PUBCHEM_COMPOUND_CID>
5281696

> <PUBCHEM_CONFORMER_RMSD>
1

> <PUBCHEM_CONFORMER_DIVERSEORDER>
1
11
5
7
6
12
3
8
2
4
10
9

> <PUBCHEM_MMFF94_PARTIAL_CHARGES>
56
1 -0.16
10 -0.36
13 0.08
14 0.09
15 0.03
16 -0.15
17 0.08
18 0.08
19 0.08
2 -0.16
20 0.05
21 -0.15
22 0.05
23 0.47
24 -0.15
25 -0.15
26 -0.14
27 0.09
28 0.08
29 0.03
3 -0.36
30 -0.14
31 0.47
32 0.08
33 -0.15
34 -0.15
35 -0.15
36 0.08
37 -0.15
38 -0.15
39 -0.15
4 -0.53
40 0.08
41 0.28
42 0.28
43 0.28
44 0.15
45 0.15
46 0.15
47 0.15
48 0.15
49 0.15
5 -0.53
50 0.15
51 0.15
52 0.15
53 0.45
54 0.15
55 0.45
56 0.15
57 0.15
6 -0.57
61 0.45
7 -0.36
8 -0.53
9 -0.57

> <PUBCHEM_EFFECTIVE_ROTOR_COUNT>
6

> <PUBCHEM_PHARMACOPHORE_FEATURES>
16
1 1 acceptor
1 10 acceptor
1 2 acceptor
1 3 acceptor
1 4 donor
1 5 donor
1 6 acceptor
1 7 acceptor
1 8 donor
1 9 acceptor
6 1 13 14 22 23 26 rings
6 11 13 14 17 19 21 rings
6 12 15 16 18 24 25 rings
6 2 20 27 28 30 31 rings
6 27 28 32 33 36 37 rings
6 29 34 35 38 39 40 rings

> <PUBCHEM_HEAVY_ATOM_COUNT>
43

> <PUBCHEM_ATOM_DEF_STEREO_COUNT>
0

> <PUBCHEM_ATOM_UDEF_STEREO_COUNT>
0

> <PUBCHEM_BOND_DEF_STEREO_COUNT>
0

> <PUBCHEM_BOND_UDEF_STEREO_COUNT>
0

> <PUBCHEM_ISOTOPIC_ATOM_COUNT>
0

> <PUBCHEM_COMPONENT_COUNT>
1

> <PUBCHEM_CACTVS_TAUTO_COUNT>
60

> <PUBCHEM_CONFORMER_ID>
005097A000000001

> <PUBCHEM_MMFF94_ENERGY>
173.5845

> <PUBCHEM_FEATURE_SELFOVERLAP>
81.247

> <PUBCHEM_SHAPE_FINGERPRINT>
10074138 170 18259981553028863375
10462674 125 17471880008047141350
10622 236 17916323657671343594
11135926 11 16701450136490672924
12128747 34 17387947980375934374
12422481 6 17986098824034840801
12559416 138 17632580422996004938
14068700 675 18118408346011780567
14395042 24 18265884775879134547
14674994 50 18270415905707892711
14705955 166 17169245183431151297
14856354 85 18261103059342925044
14950920 106 18335985272761421440
15320294 125 18272363174860020603
15361156 5 15410040941798272476
15484559 13 15688478108860443236
15513586 35 17606703335021135984
16728300 4 17917416624137531425
18603816 31 17556619657015147086
19319366 153 16402202494688294617
20775530 9 17910111313557447927
21133410 221 17189833761805182690
3882209 13 17535470323412040207
4394409 98 18338511946978121207
44880168 125 18338507634356488142
484985 159 18411708660219909319
513202 73 16558746862208994161
5171179 24 17188116338165333573
581034 39 18336255808313835554

> <PUBCHEM_SHAPE_MULTIPOLES>
826.23
14.91
6.99
3.74
29.77
12.9
-0.9
0.82
-11.54
-12.09
2.62
1.64
-1.21
-5.43

> <PUBCHEM_SHAPE_SELFOVERLAP>
1866.052

> <PUBCHEM_SHAPE_VOLUME>
432.2

> <PUBCHEM_COORDINATE_TYPE>
2
5
10

$$$$

