440202
  -OEChem-07051212492D

 22 23  0     0  0  0  0  0  0999 V2000
    3.7320   -1.6467    0.0000 O   0  0  0  0  0  0  0  0  0  0  0  0
    5.4804   -1.6813    0.0000 O   0  0  0  0  0  0  0  0  0  0  0  0
    7.2622    1.3775    0.0000 O   0  0  0  0  0  0  0  0  0  0  0  0
    2.0000    1.3533    0.0000 O   0  0  0  0  0  0  0  0  0  0  0  0
    4.5981   -0.1467    0.0000 C   0  0  0  0  0  0  0  0  0  0  0  0
    4.5981    0.8533    0.0000 C   0  0  0  0  0  0  0  0  0  0  0  0
    3.7320   -0.6467    0.0000 C   0  0  0  0  0  0  0  0  0  0  0  0
    5.4920   -0.6813    0.0000 C   0  0  0  0  0  0  0  0  0  0  0  0
    3.7320    1.3533    0.0000 C   0  0  0  0  0  0  0  0  0  0  0  0
    5.4920    1.3880    0.0000 C   0  0  0  0  0  0  0  0  0  0  0  0
    6.3981    0.8741    0.0000 C   0  0  0  0  0  0  0  0  0  0  0  0
    2.8660    0.8533    0.0000 C   0  0  0  0  0  0  0  0  0  0  0  0
    2.8660   -0.1467    0.0000 C   0  0  0  0  0  0  0  0  0  0  0  0
    6.3981   -0.1675    0.0000 C   0  0  0  0  0  0  0  0  0  0  0  0
    3.7320    1.9733    0.0000 H   0  0  0  0  0  0  0  0  0  0  0  0
    5.4848    2.0079    0.0000 H   0  0  0  0  0  0  0  0  0  0  0  0
    2.3291   -0.4567    0.0000 H   0  0  0  0  0  0  0  0  0  0  0  0
    6.9338   -0.4796    0.0000 H   0  0  0  0  0  0  0  0  0  0  0  0
    3.1951   -1.9567    0.0000 H   0  0  0  0  0  0  0  0  0  0  0  0
    6.0138   -1.9975    0.0000 H   0  0  0  0  0  0  0  0  0  0  0  0
    7.2598    1.9975    0.0000 H   0  0  0  0  0  0  0  0  0  0  0  0
    2.0000    1.9733    0.0000 H   0  0  0  0  0  0  0  0  0  0  0  0
  1  7  1  0  0  0  0
  1 19  1  0  0  0  0
  2  8  1  0  0  0  0
  2 20  1  0  0  0  0
  3 11  1  0  0  0  0
  3 21  1  0  0  0  0
  4 12  1  0  0  0  0
  4 22  1  0  0  0  0
  5  6  1  0  0  0  0
  5  7  2  0  0  0  0
  5  8  1  0  0  0  0
  6  9  2  0  0  0  0
  6 10  1  0  0  0  0
  7 13  1  0  0  0  0
  8 14  2  0  0  0  0
  9 12  1  0  0  0  0
  9 15  1  0  0  0  0
 10 11  2  0  0  0  0
 10 16  1  0  0  0  0
 11 14  1  0  0  0  0
 12 13  2  0  0  0  0
 13 17  1  0  0  0  0
 14 18  1  0  0  0  0
M  END
> <PUBCHEM_COMPOUND_CID>
440202

> <PUBCHEM_COMPOUND_CANONICALIZED>
1

> <PUBCHEM_CACTVS_COMPLEXITY>
188

> <PUBCHEM_CACTVS_HBOND_ACCEPTOR>
4

> <PUBCHEM_CACTVS_HBOND_DONOR>
4

> <PUBCHEM_CACTVS_ROTATABLE_BOND>
0

> <PUBCHEM_CACTVS_SUBSKEYS>
AAADccBwOAAAAAAAAAAAAAAAAAAAAAAAAAAwYAAAAAAAAADBUAAAGgAACAAADASAmAAwBsAAAgCAAiBCAAACAAAgIAAAiAAGCIgIJyKCERKAcAAlwBUImAeA4LQOoAABCAAYAABAAAIQADAAAAAAAAAAAA==

> <PUBCHEM_IUPAC_OPENEYE_NAME>
naphthalene-1,3,6,8-tetrol

> <PUBCHEM_IUPAC_CAS_NAME>
naphthalene-1,3,6,8-tetrol

> <PUBCHEM_IUPAC_NAME>
naphthalene-1,3,6,8-tetrol

> <PUBCHEM_IUPAC_SYSTEMATIC_NAME>
naphthalene-1,3,6,8-tetrol

> <PUBCHEM_IUPAC_TRADITIONAL_NAME>
naphthalene-1,3,6,8-tetrol

> <PUBCHEM_IUPAC_INCHI>
InChI=1S/C10H8O4/c11-6-1-5-2-7(12)4-9(14)10(5)8(13)3-6/h1-4,11-14H

> <PUBCHEM_IUPAC_INCHIKEY>
BCMKHWMDTMUUSI-UHFFFAOYSA-N

> <PUBCHEM_XLOGP3_AA>
2.3

> <PUBCHEM_EXACT_MASS>
192.042259

> <PUBCHEM_MOLECULAR_FORMULA>
C10H8O4

> <PUBCHEM_MOLECULAR_WEIGHT>
192.16812

> <PUBCHEM_OPENEYE_CAN_SMILES>
C1=C2C=C(C=C(C2=C(C=C1O)O)O)O

> <PUBCHEM_OPENEYE_ISO_SMILES>
C1=C2C=C(C=C(C2=C(C=C1O)O)O)O

> <PUBCHEM_CACTVS_TPSA>
80.9

> <PUBCHEM_MONOISOTOPIC_WEIGHT>
192.042259

> <PUBCHEM_TOTAL_CHARGE>
0

> <PUBCHEM_HEAVY_ATOM_COUNT>
14

> <PUBCHEM_ATOM_DEF_STEREO_COUNT>
0

> <PUBCHEM_ATOM_UDEF_STEREO_COUNT>
0

> <PUBCHEM_BOND_DEF_STEREO_COUNT>
0

> <PUBCHEM_BOND_UDEF_STEREO_COUNT>
0

> <PUBCHEM_ISOTOPIC_ATOM_COUNT>
0

> <PUBCHEM_COMPONENT_COUNT>
1

> <PUBCHEM_CACTVS_TAUTO_COUNT>
44

> <PUBCHEM_COORDINATE_TYPE>
1
5
255

> <PUBCHEM_BONDANNOTATIONS>
10  11  8
11  14  8
12  13  8
5  6  8
5  7  8
5  8  8
6  10  8
6  9  8
7  13  8
8  14  8
9  12  8

$$$$

