49787023
  -OEChem-07051213083D

 50 50  0     1  0  0  0  0  0999 V2000
   -2.1580    1.6717    1.4500 O   0  0  0  0  0  0  0  0  0  0  0  0
   -3.5410    0.9952   -1.8621 O   0  0  0  0  0  0  0  0  0  0  0  0
    5.3100    1.9977   -0.2519 O   0  0  0  0  0  0  0  0  0  0  0  0
   -5.8860   -0.3416   -0.4558 O   0  0  0  0  0  0  0  0  0  0  0  0
   -2.1987    1.6424    0.0252 C   0  0  1  0  0  0  0  0  0  0  0  0
   -0.9043    0.9992   -0.4965 C   0  0  0  0  0  0  0  0  0  0  0  0
    0.3452    1.7363    0.0041 C   0  0  0  0  0  0  0  0  0  0  0  0
   -3.4769    0.9219   -0.4380 C   0  0  2  0  0  0  0  0  0  0  0  0
    1.6212    1.0965   -0.5484 C   0  0  0  0  0  0  0  0  0  0  0  0
    2.9036    1.8166   -0.1109 C   0  0  0  0  0  0  0  0  0  0  0  0
   -3.5440   -0.5439   -0.0009 C   0  0  0  0  0  0  0  0  0  0  0  0
    4.1968    1.2113   -0.6757 C   0  0  2  0  0  0  0  0  0  0  0  0
   -4.9680   -1.0668   -0.0734 C   0  0  0  0  0  0  0  0  0  0  0  0
    4.3669   -0.2322   -0.2498 C   0  0  0  0  0  0  0  0  0  0  0  0
   -5.1890   -2.5017    0.3743 C   0  0  0  0  0  0  0  0  0  0  0  0
   -3.0166    2.6747    1.9714 C   0  0  0  0  0  0  0  0  0  0  0  0
    5.0444   -0.5361    0.9310 C   0  0  0  0  0  0  0  0  0  0  0  0
    3.8460   -1.2579   -1.0386 C   0  0  0  0  0  0  0  0  0  0  0  0
   -6.6361   -2.9391    0.2355 C   0  0  0  0  0  0  0  0  0  0  0  0
    5.2012   -1.8656    1.3230 C   0  0  0  0  0  0  0  0  0  0  0  0
    4.0027   -2.5873   -0.6467 C   0  0  0  0  0  0  0  0  0  0  0  0
    4.6803   -2.8912    0.5341 C   0  0  0  0  0  0  0  0  0  0  0  0
   -2.2098    2.6698   -0.3661 H   0  0  0  0  0  0  0  0  0  0  0  0
   -0.9090    0.9817   -1.5925 H   0  0  0  0  0  0  0  0  0  0  0  0
   -0.8402   -0.0393   -0.1499 H   0  0  0  0  0  0  0  0  0  0  0  0
    0.2993    2.7870   -0.3064 H   0  0  0  0  0  0  0  0  0  0  0  0
    0.3824    1.7224    1.0996 H   0  0  0  0  0  0  0  0  0  0  0  0
   -4.3498    1.4623   -0.0592 H   0  0  0  0  0  0  0  0  0  0  0  0
    1.6382    0.0565   -0.2070 H   0  0  0  0  0  0  0  0  0  0  0  0
    1.5756    1.0804   -1.6441 H   0  0  0  0  0  0  0  0  0  0  0  0
    2.8460    2.8704   -0.4137 H   0  0  0  0  0  0  0  0  0  0  0  0
    2.9544    1.8337    0.9862 H   0  0  0  0  0  0  0  0  0  0  0  0
   -2.9301   -1.1749   -0.6525 H   0  0  0  0  0  0  0  0  0  0  0  0
   -3.2168   -0.6578    1.0376 H   0  0  0  0  0  0  0  0  0  0  0  0
    4.1830    1.2606   -1.7714 H   0  0  0  0  0  0  0  0  0  0  0  0
   -3.5424    1.9357   -2.1091 H   0  0  0  0  0  0  0  0  0  0  0  0
   -4.8785   -2.5845    1.4209 H   0  0  0  0  0  0  0  0  0  0  0  0
   -4.5506   -3.1507   -0.2340 H   0  0  0  0  0  0  0  0  0  0  0  0
   -2.7919    3.6550    1.5396 H   0  0  0  0  0  0  0  0  0  0  0  0
   -4.0691    2.4223    1.8222 H   0  0  0  0  0  0  0  0  0  0  0  0
   -2.8429    2.7350    3.0499 H   0  0  0  0  0  0  0  0  0  0  0  0
    5.1676    2.9048   -0.5720 H   0  0  0  0  0  0  0  0  0  0  0  0
    5.4493    0.2463    1.5669 H   0  0  0  0  0  0  0  0  0  0  0  0
    3.3205   -1.0366   -1.9637 H   0  0  0  0  0  0  0  0  0  0  0  0
   -6.9705   -2.8672   -0.8047 H   0  0  0  0  0  0  0  0  0  0  0  0
   -6.7534   -3.9770    0.5618 H   0  0  0  0  0  0  0  0  0  0  0  0
   -7.2965   -2.3125    0.8440 H   0  0  0  0  0  0  0  0  0  0  0  0
    5.7266   -2.1023    2.2436 H   0  0  0  0  0  0  0  0  0  0  0  0
    3.5979   -3.3860   -1.2613 H   0  0  0  0  0  0  0  0  0  0  0  0
    4.8019   -3.9264    0.8394 H   0  0  0  0  0  0  0  0  0  0  0  0
  1  5  1  0  0  0  0
  1 16  1  0  0  0  0
  2  8  1  0  0  0  0
  2 36  1  0  0  0  0
  3 12  1  0  0  0  0
  3 42  1  0  0  0  0
  4 13  2  0  0  0  0
  5  6  1  0  0  0  0
  5  8  1  0  0  0  0
  5 23  1  0  0  0  0
  6  7  1  0  0  0  0
  6 24  1  0  0  0  0
  6 25  1  0  0  0  0
  7  9  1  0  0  0  0
  7 26  1  0  0  0  0
  7 27  1  0  0  0  0
  8 11  1  0  0  0  0
  8 28  1  0  0  0  0
  9 10  1  0  0  0  0
  9 29  1  0  0  0  0
  9 30  1  0  0  0  0
 10 12  1  0  0  0  0
 10 31  1  0  0  0  0
 10 32  1  0  0  0  0
 11 13  1  0  0  0  0
 11 33  1  0  0  0  0
 11 34  1  0  0  0  0
 12 14  1  0  0  0  0
 12 35  1  0  0  0  0
 13 15  1  0  0  0  0
 14 17  2  0  0  0  0
 14 18  1  0  0  0  0
 15 19  1  0  0  0  0
 15 37  1  0  0  0  0
 15 38  1  0  0  0  0
 16 39  1  0  0  0  0
 16 40  1  0  0  0  0
 16 41  1  0  0  0  0
 17 20  1  0  0  0  0
 17 43  1  0  0  0  0
 18 21  2  0  0  0  0
 18 44  1  0  0  0  0
 19 45  1  0  0  0  0
 19 46  1  0  0  0  0
 19 47  1  0  0  0  0
 20 22  2  0  0  0  0
 20 48  1  0  0  0  0
 21 22  1  0  0  0  0
 21 49  1  0  0  0  0
 22 50  1  0  0  0  0
M  END
> <PUBCHEM_COMPOUND_CID>
49787023

> <PUBCHEM_CONFORMER_RMSD>
1

> <PUBCHEM_CONFORMER_DIVERSEORDER>
2
209
43
148
205
206
1
87
202
64
62
119
238
97
229
154
225
77
98
230
39
75
21
69
222
129
46
159
167
20
41
55
53
121
18
189
232
13
22
196
50
45
3
74
33
223
94
192
58
210
17
211
38
9
80
143
186
217
183
188
152
51
233
32
89
28
127
161
136
110
6
172
16
7
25
52
47
23
76
82
91
199
54
178
31
83
85
235
40
95
168
14
163
29
177
207
157
185
195
240
175
125
10
66
11
44
56
12
182
37
242
165
42
164
236
224
169
71
63
150
176
179
5
227
180
144
49
231
59
221
26
173
160
114
73
153
78
68
81
35
181
220
134
65
106
57
24
90
116
124
237
104
107
100
30
212
86
194
109
213
8
101
133
34
60
130
4
243
131
184
226
149
120
111
112
48
200
139
191
72
193
145
126
155
113
190
128
118
142
61
99
115
197
219
218
15
166
96
187
92
204
132
108
228
137
103
214
117
67
151
19
158
138
36
216
141
171
147
239
105
241
93
70
174
198
162
84
208
79
102
27
123
215
140
201
122
234
170
146
135
156
88
203

> <PUBCHEM_MMFF94_PARTIAL_CHARGES>
24
1 -0.56
11 0.06
12 0.42
13 0.45
14 -0.14
15 0.06
16 0.28
17 -0.15
18 -0.15
2 -0.68
20 -0.15
21 -0.15
22 -0.15
3 -0.68
36 0.4
4 -0.57
42 0.4
43 0.15
44 0.15
48 0.15
49 0.15
5 0.28
50 0.15
8 0.28

> <PUBCHEM_EFFECTIVE_ROTOR_COUNT>
11

> <PUBCHEM_PHARMACOPHORE_FEATURES>
9
1 1 acceptor
1 19 hydrophobe
1 2 acceptor
1 2 donor
1 3 acceptor
1 3 donor
1 4 acceptor
4 6 7 9 10 hydrophobe
6 14 17 18 20 21 22 rings

> <PUBCHEM_HEAVY_ATOM_COUNT>
22

> <PUBCHEM_ATOM_DEF_STEREO_COUNT>
3

> <PUBCHEM_ATOM_UDEF_STEREO_COUNT>
0

> <PUBCHEM_BOND_DEF_STEREO_COUNT>
0

> <PUBCHEM_BOND_UDEF_STEREO_COUNT>
0

> <PUBCHEM_ISOTOPIC_ATOM_COUNT>
0

> <PUBCHEM_COMPONENT_COUNT>
1

> <PUBCHEM_CACTVS_TAUTO_COUNT>
3

> <PUBCHEM_CONFORMER_ID>
02F7B08F00000002

> <PUBCHEM_MMFF94_ENERGY>
43.271

> <PUBCHEM_FEATURE_SELFOVERLAP>
45.67

> <PUBCHEM_SHAPE_MULTIPOLES>
429.27
17.15
3.62
1.27
7.78
1.61
0.29
13.03
1.13
0.82
0.89
0.17
-0.45
-1.13

> <PUBCHEM_SHAPE_SELFOVERLAP>
849.437

> <PUBCHEM_SHAPE_VOLUME>
254.8

> <PUBCHEM_COORDINATE_TYPE>
2
5
10

$$$$

