155
  -OEChem-07051212502D

 18 18  0     0  0  0  0  0  0999 V2000
    4.7770   -2.5723    0.0000 O   0  0  0  0  0  0  0  0  0  0  0  0
    5.3122   -0.9250    0.0000 O   0  0  0  0  0  0  0  0  0  0  0  0
    2.4955    1.4930    0.0000 O   0  0  0  0  0  0  0  0  0  0  0  0
    2.8090   -1.8729    0.0000 N   0  0  0  0  0  0  0  0  0  0  0  0
    3.8968    0.4749    0.0000 N   0  0  0  0  0  0  0  0  0  0  0  0
    2.3090   -0.3341    0.0000 N   0  0  0  0  0  0  0  0  0  0  0  0
    4.0778    2.1975    0.0000 N   0  0  0  0  0  0  0  0  0  0  0  0
    3.6180   -1.2851    0.0000 C   0  0  0  0  0  0  0  0  0  0  0  0
    3.3090   -0.3341    0.0000 C   0  0  0  0  0  0  0  0  0  0  0  0
    2.0000   -1.2851    0.0000 C   0  0  0  0  0  0  0  0  0  0  0  0
    4.5691   -1.5942    0.0000 C   0  0  0  0  0  0  0  0  0  0  0  0
    3.4901    1.3885    0.0000 C   0  0  0  0  0  0  0  0  0  0  0  0
    2.8090   -2.4929    0.0000 H   0  0  0  0  0  0  0  0  0  0  0  0
    4.5134    0.4101    0.0000 H   0  0  0  0  0  0  0  0  0  0  0  0
    1.4103   -1.4767    0.0000 H   0  0  0  0  0  0  0  0  0  0  0  0
    3.8257    2.7639    0.0000 H   0  0  0  0  0  0  0  0  0  0  0  0
    4.6944    2.1327    0.0000 H   0  0  0  0  0  0  0  0  0  0  0  0
    5.3667   -2.7639    0.0000 H   0  0  0  0  0  0  0  0  0  0  0  0
  1 11  1  0  0  0  0
  1 18  1  0  0  0  0
  2 11  2  0  0  0  0
  3 12  2  0  0  0  0
  4  8  1  0  0  0  0
  4 10  1  0  0  0  0
  4 13  1  0  0  0  0
  5  9  1  0  0  0  0
  5 12  1  0  0  0  0
  5 14  1  0  0  0  0
  6  9  1  0  0  0  0
  6 10  2  0  0  0  0
  7 12  1  0  0  0  0
  7 16  1  0  0  0  0
  7 17  1  0  0  0  0
  8  9  2  0  0  0  0
  8 11  1  0  0  0  0
 10 15  1  0  0  0  0
M  END
> <PUBCHEM_COMPOUND_CID>
155

> <PUBCHEM_COMPOUND_CANONICALIZED>
1

> <PUBCHEM_CACTVS_COMPLEXITY>
207

> <PUBCHEM_CACTVS_HBOND_ACCEPTOR>
4

> <PUBCHEM_CACTVS_HBOND_DONOR>
4

> <PUBCHEM_CACTVS_ROTATABLE_BOND>
2

> <PUBCHEM_CACTVS_SUBSKEYS>
AAADcYBjsAAAAAAAAAAAAAAAAAAAAWAAAAAAAAAAAAAAAAABgAAAHgAQCAAACAgBlgQFuBbJkgCoAQbxfAQAgC2XEKABUYGoWECCTAhACCAUQIAKBQJQEGAAAAAAAAAAAAAAAAAAAAAAAAAAAAAAAAAAAA==

> <PUBCHEM_IUPAC_OPENEYE_NAME>
4-ureido-1H-imidazole-5-carboxylic acid

> <PUBCHEM_IUPAC_CAS_NAME>
4-(carbamoylamino)-1H-imidazole-5-carboxylic acid

> <PUBCHEM_IUPAC_NAME>
4-(carbamoylamino)-1H-imidazole-5-carboxylic acid

> <PUBCHEM_IUPAC_SYSTEMATIC_NAME>
4-(aminocarbonylamino)-1H-imidazole-5-carboxylic acid

> <PUBCHEM_IUPAC_TRADITIONAL_NAME>
4-ureido-1H-imidazole-5-carboxylic acid

> <PUBCHEM_IUPAC_INCHI>
InChI=1S/C5H6N4O3/c6-5(12)9-3-2(4(10)11)7-1-8-3/h1H,(H,7,8)(H,10,11)(H3,6,9,12)

> <PUBCHEM_IUPAC_INCHIKEY>
PQSKWIHIUOGLHX-UHFFFAOYSA-N

> <PUBCHEM_XLOGP3_AA>
-0.6

> <PUBCHEM_EXACT_MASS>
170.04399

> <PUBCHEM_MOLECULAR_FORMULA>
C5H6N4O3

> <PUBCHEM_MOLECULAR_WEIGHT>
170.12614

> <PUBCHEM_OPENEYE_CAN_SMILES>
C1=NC(=C(N1)C(=O)O)NC(=O)N

> <PUBCHEM_OPENEYE_ISO_SMILES>
C1=NC(=C(N1)C(=O)O)NC(=O)N

> <PUBCHEM_CACTVS_TPSA>
121

> <PUBCHEM_MONOISOTOPIC_WEIGHT>
170.04399

> <PUBCHEM_TOTAL_CHARGE>
0

> <PUBCHEM_HEAVY_ATOM_COUNT>
12

> <PUBCHEM_ATOM_DEF_STEREO_COUNT>
0

> <PUBCHEM_ATOM_UDEF_STEREO_COUNT>
0

> <PUBCHEM_BOND_DEF_STEREO_COUNT>
0

> <PUBCHEM_BOND_UDEF_STEREO_COUNT>
0

> <PUBCHEM_ISOTOPIC_ATOM_COUNT>
0

> <PUBCHEM_COMPONENT_COUNT>
1

> <PUBCHEM_CACTVS_TAUTO_COUNT>
20

> <PUBCHEM_COORDINATE_TYPE>
1
5
255

> <PUBCHEM_BONDANNOTATIONS>
4  10  8
4  8  8
6  10  8
6  9  8
8  9  8

$$$$

