42540
  -OEChem-07051213113D

 22 24  0     0  0  0  0  0  0999 V2000
   -2.6176   -2.9005   -0.0008 Cl  0  0  0  0  0  0  0  0  0  0  0  0
    2.6177    2.9007    0.0001 Cl  0  0  0  0  0  0  0  0  0  0  0  0
   -5.2100   -1.0708    0.0002 Cl  0  0  0  0  0  0  0  0  0  0  0  0
    5.2101    1.0707   -0.0001 Cl  0  0  0  0  0  0  0  0  0  0  0  0
   -4.8539    2.1008    0.0006 Cl  0  0  0  0  0  0  0  0  0  0  0  0
    4.8539   -2.1009    0.0003 Cl  0  0  0  0  0  0  0  0  0  0  0  0
   -0.1352   -1.4204    0.0000 O   0  0  0  0  0  0  0  0  0  0  0  0
    0.1351    1.4205   -0.0004 O   0  0  0  0  0  0  0  0  0  0  0  0
   -1.2224   -0.5838    0.0000 C   0  0  0  0  0  0  0  0  0  0  0  0
    1.2224    0.5839   -0.0003 C   0  0  0  0  0  0  0  0  0  0  0  0
    1.0904   -0.8040    0.0001 C   0  0  0  0  0  0  0  0  0  0  0  0
   -1.0905    0.8039   -0.0002 C   0  0  0  0  0  0  0  0  0  0  0  0
   -2.4886   -1.1680    0.0001 C   0  0  0  0  0  0  0  0  0  0  0  0
    2.4886    1.1680   -0.0004 C   0  0  0  0  0  0  0  0  0  0  0  0
    2.2238   -1.6163    0.0004 C   0  0  0  0  0  0  0  0  0  0  0  0
   -2.2237    1.6163   -0.0001 C   0  0  0  0  0  0  0  0  0  0  0  0
   -3.6234   -0.3565    0.0001 C   0  0  0  0  0  0  0  0  0  0  0  0
    3.6234    0.3565    0.0000 C   0  0  0  0  0  0  0  0  0  0  0  0
   -3.4912    1.0333    0.0000 C   0  0  0  0  0  0  0  0  0  0  0  0
    3.4913   -1.0333    0.0004 C   0  0  0  0  0  0  0  0  0  0  0  0
    2.1089   -2.6978    0.0006 H   0  0  0  0  0  0  0  0  0  0  0  0
   -2.1088    2.6977   -0.0001 H   0  0  0  0  0  0  0  0  0  0  0  0
  1 13  1  0  0  0  0
  2 14  1  0  0  0  0
  3 17  1  0  0  0  0
  4 18  1  0  0  0  0
  5 19  1  0  0  0  0
  6 20  1  0  0  0  0
  7  9  1  0  0  0  0
  7 11  1  0  0  0  0
  8 10  1  0  0  0  0
  8 12  1  0  0  0  0
  9 12  1  0  0  0  0
  9 13  2  0  0  0  0
 10 11  1  0  0  0  0
 10 14  2  0  0  0  0
 11 15  2  0  0  0  0
 12 16  2  0  0  0  0
 13 17  1  0  0  0  0
 14 18  1  0  0  0  0
 15 20  1  0  0  0  0
 15 21  1  0  0  0  0
 16 19  1  0  0  0  0
 16 22  1  0  0  0  0
 17 19  2  0  0  0  0
 18 20  2  0  0  0  0
M  END
> <PUBCHEM_COMPOUND_CID>
42540

> <PUBCHEM_CONFORMER_RMSD>
0.6

> <PUBCHEM_CONFORMER_DIVERSEORDER>
1

> <PUBCHEM_MMFF94_PARTIAL_CHARGES>
22
1 -0.18
10 0.08
11 0.08
12 0.08
13 0.18
14 0.18
15 -0.15
16 -0.15
17 0.18
18 0.18
19 0.18
2 -0.18
20 0.18
21 0.15
22 0.15
3 -0.18
4 -0.18
5 -0.18
6 -0.18
7 -0.17
8 -0.17
9 0.08

> <PUBCHEM_EFFECTIVE_ROTOR_COUNT>
0.4

> <PUBCHEM_PHARMACOPHORE_FEATURES>
5
1 7 acceptor
1 8 acceptor
6 10 11 14 15 18 20 rings
6 7 8 9 10 11 12 rings
6 9 12 13 16 17 19 rings

> <PUBCHEM_HEAVY_ATOM_COUNT>
20

> <PUBCHEM_ATOM_DEF_STEREO_COUNT>
0

> <PUBCHEM_ATOM_UDEF_STEREO_COUNT>
0

> <PUBCHEM_BOND_DEF_STEREO_COUNT>
0

> <PUBCHEM_BOND_UDEF_STEREO_COUNT>
0

> <PUBCHEM_ISOTOPIC_ATOM_COUNT>
0

> <PUBCHEM_COMPONENT_COUNT>
1

> <PUBCHEM_CACTVS_TAUTO_COUNT>
1

> <PUBCHEM_CONFORMER_ID>
0000A62C00000001

> <PUBCHEM_MMFF94_ENERGY>
56.9641

> <PUBCHEM_FEATURE_SELFOVERLAP>
25.449

> <PUBCHEM_SHAPE_FINGERPRINT>
10608611 8 18411140216555163425
10616163 171 18337106748508824038
10967382 1 18410575050313896550
1100329 8 16609134464915734681
11471102 20 18410577301293510636
11578080 2 17024889060395595435
12107183 9 18050568735479038585
12403259 226 18412550937207989780
12507560 40 18409729560226600431
12788726 201 17531520005080821033
13140716 1 18410855460128162105
14341114 176 18410287016943243490
14790565 3 18048872193776439641
14866123 147 17252577393086020242
15196674 1 18410855485897965568
15442244 35 18410575115017974392
15536298 74 18407760348292551186
16945 1 18338517546459725830
17492 89 18339360751831090810
17804303 29 18410852200247984278
1813 80 17132113550416212444
18186145 218 17775009002513812199
19591789 44 18411700997734840059
200 152 18113622283116386277
20510252 161 18261390079206407801
20645477 70 18335700576733052430
21065198 57 18410575071778177082
21267235 1 18411129238713823819
21279426 13 18338799042911273373
21421861 104 17773326827628851994
21501502 16 18410856525280051230
221490 88 18340480063494809202
23227448 37 18410013221652959973
23366157 5 18131071477147179324
23402539 116 18262245520548156423
23402655 69 18408044030434260668
23557571 272 18187638085561518877
23558518 356 17986107405294965649
23559900 14 18335424590819043224
3004659 81 18271521005404865158
335352 9 18338799047206240703
34934 24 18411986879178860082
350125 39 18410571769397018169
3545911 37 18409448055517551512
4214541 1 18410855477608782785
474 4 17632009728862606988
5104073 3 18410855485897966512
543358 83 18411133662825290992
559249 180 18340773761553130155
633830 44 17275099527028335304
69090 78 18410577314241767935
7364860 26 18336265652774243872
77779 3 18411135839888211973
8809292 202 18342453738010876203
9709674 26 18410007719520642415
9981440 41 17692815883233370144

> <PUBCHEM_SHAPE_MULTIPOLES>
411.07
10.83
2.91
0.62
0
0
0
0
0
0
0
0
0
0

> <PUBCHEM_SHAPE_SELFOVERLAP>
860.303

> <PUBCHEM_SHAPE_VOLUME>
237.7

> <PUBCHEM_COORDINATE_TYPE>
2
5
10

$$$$

