5281760
  -OEChem-07051212593D

 42 43  0     1  0  0  0  0  0999 V2000
    1.3068    0.7109   -0.0735 O   0  0  0  0  0  0  0  0  0  0  0  0
    4.8140   -1.8462   -2.1217 O   0  0  0  0  0  0  0  0  0  0  0  0
    5.5240    0.9922    1.0441 O   0  0  0  0  0  0  0  0  0  0  0  0
    2.4366    0.7880    2.3611 O   0  0  0  0  0  0  0  0  0  0  0  0
    3.0898   -1.3093    1.7524 O   0  0  0  0  0  0  0  0  0  0  0  0
    0.7091   -1.4864    0.3163 O   0  0  0  0  0  0  0  0  0  0  0  0
   -6.7138   -1.3665    0.8105 O   0  0  0  0  0  0  0  0  0  0  0  0
   -7.3360    0.9974   -0.5127 O   0  0  0  0  0  0  0  0  0  0  0  0
    2.6876    0.3733    0.0593 C   0  0  0  0  0  0  0  0  0  0  0  0
    3.0563   -0.6861   -0.9797 C   0  0  0  0  0  0  0  0  0  0  0  0
    3.5110    1.6571   -0.1028 C   0  0  0  0  0  0  0  0  0  0  0  0
    4.5601   -0.9442   -1.0488 C   0  0  2  0  0  0  0  0  0  0  0  0
    5.0168    1.4087   -0.2212 C   0  0  2  0  0  0  0  0  0  0  0  0
    5.3353    0.3540   -1.2791 C   0  0  0  0  0  0  0  0  0  0  0  0
    2.7699   -0.1671    1.4588 C   0  0  0  0  0  0  0  0  0  0  0  0
    0.4314   -0.3213    0.0802 C   0  0  0  0  0  0  0  0  0  0  0  0
   -0.9367    0.2178   -0.0921 C   0  0  0  0  0  0  0  0  0  0  0  0
   -1.9899   -0.6035    0.0242 C   0  0  0  0  0  0  0  0  0  0  0  0
   -3.3962   -0.1857   -0.1148 C   0  0  0  0  0  0  0  0  0  0  0  0
   -4.3965   -0.9818    0.4189 C   0  0  0  0  0  0  0  0  0  0  0  0
   -3.6904    0.9949   -0.7775 C   0  0  0  0  0  0  0  0  0  0  0  0
   -5.7277   -0.5863    0.2863 C   0  0  0  0  0  0  0  0  0  0  0  0
   -5.0213    1.3903   -0.9100 C   0  0  0  0  0  0  0  0  0  0  0  0
   -6.0400    0.5998   -0.3781 C   0  0  0  0  0  0  0  0  0  0  0  0
    2.6941   -0.3690   -1.9685 H   0  0  0  0  0  0  0  0  0  0  0  0
    2.5813   -1.6588   -0.8240 H   0  0  0  0  0  0  0  0  0  0  0  0
    3.3117    2.3594    0.7160 H   0  0  0  0  0  0  0  0  0  0  0  0
    3.1711    2.1715   -1.0125 H   0  0  0  0  0  0  0  0  0  0  0  0
    4.9150   -1.4251   -0.1308 H   0  0  0  0  0  0  0  0  0  0  0  0
    5.5259    2.3437   -0.4808 H   0  0  0  0  0  0  0  0  0  0  0  0
    6.4086    0.1268   -1.2762 H   0  0  0  0  0  0  0  0  0  0  0  0
    5.1071    0.7454   -2.2788 H   0  0  0  0  0  0  0  0  0  0  0  0
    4.3373   -2.6722   -1.9315 H   0  0  0  0  0  0  0  0  0  0  0  0
    5.3283    1.6962    1.6855 H   0  0  0  0  0  0  0  0  0  0  0  0
    2.4835    0.4539    3.2821 H   0  0  0  0  0  0  0  0  0  0  0  0
   -1.0250    1.2805   -0.2855 H   0  0  0  0  0  0  0  0  0  0  0  0
   -1.8377   -1.6574    0.2464 H   0  0  0  0  0  0  0  0  0  0  0  0
   -4.1546   -1.9059    0.9384 H   0  0  0  0  0  0  0  0  0  0  0  0
   -2.9328    1.6298   -1.2258 H   0  0  0  0  0  0  0  0  0  0  0  0
   -5.2515    2.3142   -1.4340 H   0  0  0  0  0  0  0  0  0  0  0  0
   -6.3118   -2.1452    1.2324 H   0  0  0  0  0  0  0  0  0  0  0  0
   -7.3600    1.8397   -0.9984 H   0  0  0  0  0  0  0  0  0  0  0  0
  1  9  1  0  0  0  0
  1 16  1  0  0  0  0
  2 12  1  0  0  0  0
  2 33  1  0  0  0  0
  3 13  1  0  0  0  0
  3 34  1  0  0  0  0
  4 15  1  0  0  0  0
  4 35  1  0  0  0  0
  5 15  2  0  0  0  0
  6 16  2  0  0  0  0
  7 22  1  0  0  0  0
  7 41  1  0  0  0  0
  8 24  1  0  0  0  0
  8 42  1  0  0  0  0
  9 10  1  0  0  0  0
  9 11  1  0  0  0  0
  9 15  1  0  0  0  0
 10 12  1  0  0  0  0
 10 25  1  0  0  0  0
 10 26  1  0  0  0  0
 11 13  1  0  0  0  0
 11 27  1  0  0  0  0
 11 28  1  0  0  0  0
 12 14  1  0  0  0  0
 12 29  1  0  0  0  0
 13 14  1  0  0  0  0
 13 30  1  0  0  0  0
 14 31  1  0  0  0  0
 14 32  1  0  0  0  0
 16 17  1  0  0  0  0
 17 18  2  0  0  0  0
 17 36  1  0  0  0  0
 18 19  1  0  0  0  0
 18 37  1  0  0  0  0
 19 20  2  0  0  0  0
 19 21  1  0  0  0  0
 20 22  1  0  0  0  0
 20 38  1  0  0  0  0
 21 23  2  0  0  0  0
 21 39  1  0  0  0  0
 22 24  2  0  0  0  0
 23 24  1  0  0  0  0
 23 40  1  0  0  0  0
M  END
> <PUBCHEM_COMPOUND_CID>
5281760

> <PUBCHEM_CONFORMER_RMSD>
0.8

> <PUBCHEM_CONFORMER_DIVERSEORDER>
1
97
72
35
9
79
92
120
17
12
88
98
20
6
21
52
41
123
105
103
57
73
67
34
129
66
71
51
102
50
111
24
83
134
125
142
116
137
106
55
60
78
61
132
31
141
7
81
118
30
108
8
45
56
77
16
126
89
19
36
107
140
94
47
138
39
91
135
18
128
84
121
32
11
25
44
114
112
3
117
95
33
100
122
85
143
133
46
28
64
87
130
49
115
101
68
127
5
104
26
65
82
4
38
27
13
63
139
110
43
62
96
70
119
90
124
75
37
76
131
113
93
42
22
136
23
53
109
2
40
10
86
29
99
54
69
14
74
80
58
15
48
59

> <PUBCHEM_MMFF94_PARTIAL_CHARGES>
31
1 -0.43
12 0.28
13 0.28
15 0.66
16 0.71
17 -0.14
18 -0.18
19 0.03
2 -0.68
20 -0.15
21 -0.15
22 0.08
23 -0.15
24 0.08
3 -0.68
33 0.4
34 0.4
35 0.5
36 0.15
37 0.15
38 0.15
39 0.15
4 -0.65
40 0.15
41 0.45
42 0.45
5 -0.57
6 -0.57
7 -0.53
8 -0.53
9 0.34

> <PUBCHEM_EFFECTIVE_ROTOR_COUNT>
6.2

> <PUBCHEM_PHARMACOPHORE_FEATURES>
12
1 2 acceptor
1 2 donor
1 3 acceptor
1 3 donor
1 4 acceptor
1 5 acceptor
1 6 acceptor
1 7 donor
1 8 donor
3 4 5 15 anion
6 19 20 21 22 23 24 rings
6 9 10 11 12 13 14 rings

> <PUBCHEM_HEAVY_ATOM_COUNT>
24

> <PUBCHEM_ATOM_DEF_STEREO_COUNT>
2

> <PUBCHEM_ATOM_UDEF_STEREO_COUNT>
0

> <PUBCHEM_BOND_DEF_STEREO_COUNT>
1

> <PUBCHEM_BOND_UDEF_STEREO_COUNT>
0

> <PUBCHEM_ISOTOPIC_ATOM_COUNT>
0

> <PUBCHEM_COMPONENT_COUNT>
1

> <PUBCHEM_CACTVS_TAUTO_COUNT>
10

> <PUBCHEM_CONFORMER_ID>
005097E000000001

> <PUBCHEM_MMFF94_ENERGY>
68.0373

> <PUBCHEM_FEATURE_SELFOVERLAP>
60.957

> <PUBCHEM_SHAPE_FINGERPRINT>
10354089 29 17275386503589289341
10554248 39 17344652515794888111
10670039 82 18341046431810051973
10912923 1 16702025301004153185
11405975 8 15864077533341100879
12107183 9 16982959485355633281
12166972 35 6266901285464475042
12236239 1 17060623291487974649
12516196 113 18408322168633098661
12596602 18 17275390897968626329
12730499 353 18333725810746880406
12916748 109 18413668006593071213
13073987 5 17846504750916630065
13533116 47 16805318929006867270
13955234 65 17821451249186276034
14170010 4 17385446518824816424
14528608 73 17917990568473967799
14933364 13 18412539908237947149
15183329 4 15068620496308732685
15788980 27 5761652603067884031
17349148 13 5112010546984096150
17844677 252 18343860022320824365
17857418 61 15213019375210846999
19377110 9 15913332403075455789
20645477 70 17968368031259788942
21033648 29 18187096056926994721
220451 1 17418091040575827499
22061861 79 18113332037684660471
221357 26 17967250922634172568
22224240 67 14908183002484661256
2297311 6 18342167882974229501
2303208 19 18334847312791808711
23081809 10 16702305659315571649
23559900 14 18333449824595507341
239999 70 18412822478468020726
29717793 49 17313379067051084220
300161 21 17967820418101454543
3004659 81 18186515540778723046
3014965 18 17822569507549857334
34797466 226 18340478985115042285
4073 2 17060051515007638691
4340502 62 15482673472478543552
46194498 28 18335414690940954412
5104073 3 17846500383172403761
542803 24 16773797000454235095
90127 26 18272925021011972273

> <PUBCHEM_SHAPE_MULTIPOLES>
446.95
17.93
1.53
1.43
20.29
0.04
-0.02
2.59
2.17
0.37
-0.04
-3.03
-0.37
0.94

> <PUBCHEM_SHAPE_SELFOVERLAP>
955.114

> <PUBCHEM_SHAPE_VOLUME>
244

> <PUBCHEM_COORDINATE_TYPE>
2
5
10

$$$$

