441295
  -OEChem-07051212532D

 55 60  0     1  0  0  0  0  0999 V2000
    6.3423    1.6778    0.0000 O   0  0  0  0  0  0  0  0  0  0  0  0
    4.6512   -0.7913    0.0000 O   0  0  0  0  0  0  0  0  0  0  0  0
    8.1324    1.0961    0.0000 O   0  0  0  0  0  0  0  0  0  0  0  0
    3.2568    0.1550    0.0000 O   0  0  0  0  0  0  0  0  0  0  0  0
    4.8612    2.0472    0.0000 O   0  0  0  0  0  0  0  0  0  0  0  0
    5.0470   -1.4266    0.0000 O   0  0  0  0  0  0  0  0  0  0  0  0
    6.3423   -2.3678    0.0000 O   0  0  0  0  0  0  0  0  0  0  0  0
    7.6377   -1.4266    0.0000 O   0  0  0  0  0  0  0  0  0  0  0  0
    3.7551    0.8622    0.0000 O   0  0  0  0  0  0  0  0  0  0  0  0
    9.3893   -0.1540    0.0000 O   0  0  0  0  0  0  0  0  0  0  0  0
    2.0000    1.4051    0.0000 O   0  0  0  0  0  0  0  0  0  0  0  0
    5.8475    0.1550    0.0000 C   0  0  3  0  0  0  0  0  0  0  0  0
    6.8371    0.1550    0.0000 C   0  0  3  0  0  0  0  0  0  0  0  0
    5.5418    1.0961    0.0000 C   0  0  2  0  0  0  0  0  0  0  0  0
    5.5418   -0.7861    0.0000 C   0  0  1  0  0  0  0  0  0  0  0  0
    7.1429   -0.7861    0.0000 C   0  0  1  0  0  0  0  0  0  0  0  0
    4.5522    1.0961    0.0000 C   0  0  1  0  0  0  0  0  0  0  0  0
    5.0470   -0.4266    0.0000 C   0  0  3  0  0  0  0  0  0  0  0  0
    7.1429    1.0961    0.0000 C   0  0  2  0  0  0  0  0  0  0  0  0
    6.3423   -1.3678    0.0000 C   0  0  1  0  0  0  0  0  0  0  0  0
    4.2464    0.1550    0.0000 C   0  0  2  0  0  0  0  0  0  0  0  0
    7.6377   -0.4266    0.0000 C   0  0  3  0  0  0  0  0  0  0  0  0
    4.6512    0.4182    0.0000 C   0  0  0  0  0  0  0  0  0  0  0  0
    8.0939   -1.0952    0.0000 C   0  0  0  0  0  0  0  0  0  0  0  0
    3.7516    1.6778    0.0000 C   0  0  1  0  0  0  0  0  0  0  0  0
    8.4382    0.1550    0.0000 C   0  0  0  0  0  0  0  0  0  0  0  0
    2.9511    1.0961    0.0000 C   0  0  0  0  0  0  0  0  0  0  0  0
    9.0450   -1.4042    0.0000 C   0  0  0  0  0  0  0  0  0  0  0  0
    7.7849   -2.0462    0.0000 C   0  0  0  0  0  0  0  0  0  0  0  0
    8.9420   -0.5652    0.0000 C   0  0  0  0  0  0  0  0  0  0  0  0
    3.7516    2.6778    0.0000 C   0  0  0  0  0  0  0  0  0  0  0  0
    5.2814   -1.5953    0.0000 H   0  0  0  0  0  0  0  0  0  0  0  0
    7.5813   -0.3477    0.0000 H   0  0  0  0  0  0  0  0  0  0  0  0
    4.2896   -0.8125    0.0000 H   0  0  0  0  0  0  0  0  0  0  0  0
    7.4056    1.9045    0.0000 H   0  0  0  0  0  0  0  0  0  0  0  0
    5.7899   -1.6492    0.0000 H   0  0  0  0  0  0  0  0  0  0  0  0
    3.9837   -0.6534    0.0000 H   0  0  0  0  0  0  0  0  0  0  0  0
    6.8803   -0.8125    0.0000 H   0  0  0  0  0  0  0  0  0  0  0  0
    4.3040    1.9592    0.0000 H   0  0  0  0  0  0  0  0  0  0  0  0
    5.4677    2.1761    0.0000 H   0  0  0  0  0  0  0  0  0  0  0  0
    4.5100   -1.7366    0.0000 H   0  0  0  0  0  0  0  0  0  0  0  0
    5.8054   -2.6778    0.0000 H   0  0  0  0  0  0  0  0  0  0  0  0
    9.2705   -1.0910    0.0000 H   0  0  0  0  0  0  0  0  0  0  0  0
    9.4678   -0.2367    0.0000 H   0  0  0  0  0  0  0  0  0  0  0  0
    8.6134   -0.0394    0.0000 H   0  0  0  0  0  0  0  0  0  0  0  0
    7.1952   -1.8546    0.0000 H   0  0  0  0  0  0  0  0  0  0  0  0
    7.5933   -2.6359    0.0000 H   0  0  0  0  0  0  0  0  0  0  0  0
    8.3746   -2.2378    0.0000 H   0  0  0  0  0  0  0  0  0  0  0  0
    8.8534   -1.9938    0.0000 H   0  0  0  0  0  0  0  0  0  0  0  0
    9.6346   -1.5958    0.0000 H   0  0  0  0  0  0  0  0  0  0  0  0
    9.2366   -0.8145    0.0000 H   0  0  0  0  0  0  0  0  0  0  0  0
    4.3716    2.6778    0.0000 H   0  0  0  0  0  0  0  0  0  0  0  0
    3.7516    3.2978    0.0000 H   0  0  0  0  0  0  0  0  0  0  0  0
    3.1316    2.6778    0.0000 H   0  0  0  0  0  0  0  0  0  0  0  0
    7.1007   -1.7366    0.0000 H   0  0  0  0  0  0  0  0  0  0  0  0
 14  1  1  1  0  0  0
  1 19  1  0  0  0  0
  2 15  1  0  0  0  0
  2 23  1  0  0  0  0
  3 19  1  0  0  0  0
  3 26  1  0  0  0  0
  4 21  1  0  0  0  0
  4 27  1  0  0  0  0
 17  5  1  1  0  0  0
  5 40  1  0  0  0  0
  6 18  1  0  0  0  0
  6 41  1  0  0  0  0
 20  7  1  1  0  0  0
  7 42  1  0  0  0  0
  8 22  1  0  0  0  0
  8 55  1  0  0  0  0
  9 23  2  0  0  0  0
 10 26  2  0  0  0  0
 11 27  2  0  0  0  0
 12 13  1  0  0  0  0
 12 14  1  0  0  0  0
 12 15  1  0  0  0  0
 12 18  1  0  0  0  0
 13 16  1  0  0  0  0
 13 19  1  0  0  0  0
 13 22  1  0  0  0  0
 14 17  1  0  0  0  0
 14 23  1  0  0  0  0
 15 20  1  0  0  0  0
 15 32  1  6  0  0  0
 16 20  1  0  0  0  0
 16 24  1  0  0  0  0
 16 33  1  0  0  0  0
 17 21  1  0  0  0  0
 17 25  1  0  0  0  0
 18 21  1  0  0  0  0
 18 34  1  0  0  0  0
 19 35  1  1  0  0  0
 20 36  1  0  0  0  0
 21 37  1  1  0  0  0
 22 26  1  0  0  0  0
 22 38  1  0  0  0  0
 24 28  1  0  0  0  0
 24 29  1  0  0  0  0
 24 30  1  0  0  0  0
 25 27  1  0  0  0  0
 25 31  1  1  0  0  0
 25 39  1  0  0  0  0
 28 49  1  0  0  0  0
 28 50  1  0  0  0  0
 28 51  1  0  0  0  0
 29 46  1  0  0  0  0
 29 47  1  0  0  0  0
 29 48  1  0  0  0  0
 30 43  1  0  0  0  0
 30 44  1  0  0  0  0
 30 45  1  0  0  0  0
 31 52  1  0  0  0  0
 31 53  1  0  0  0  0
 31 54  1  0  0  0  0
M  END
> <PUBCHEM_COMPOUND_CID>
441295

> <PUBCHEM_COMPOUND_CANONICALIZED>
1

> <PUBCHEM_CACTVS_COMPLEXITY>
957

> <PUBCHEM_CACTVS_HBOND_ACCEPTOR>
11

> <PUBCHEM_CACTVS_HBOND_DONOR>
4

> <PUBCHEM_CACTVS_ROTATABLE_BOND>
1

> <PUBCHEM_CACTVS_SUBSKEYS>
AAADceB4PAAAAAAAAAAAAAAAAAAAAaNEiRAAAAAAAAASJAAAAAAAGgAACAAAD1SwgAMCCAAABgAIAACQCAIAAAAAAAAAAAFAAAAREBYAAAQiQAAFIAAHAAHK7vzPgAAAAAAAAAAAAAAAAAAAAYQADCAAAA==

> <PUBCHEM_IUPAC_INCHI>
InChI=1S/C20H24O11/c1-5-12(24)28-11-8(22)18-10-6(21)7(16(2,3)4)17(18)9(23)13(25)30-15(17)31-20(18,14(26)29-10)19(5,11)27/h5-11,15,21-23,27H,1-4H3/t5-,6-,7+,8?,9?,10-,11+,15+,17?,18?,19-,20-/m1/s1

> <PUBCHEM_IUPAC_INCHIKEY>
AMOGMTLMADGEOQ-WXQWCWKOSA-N

> <PUBCHEM_XLOGP3_AA>
-1.4

> <PUBCHEM_EXACT_MASS>
440.131862

> <PUBCHEM_MOLECULAR_FORMULA>
C20H24O11

> <PUBCHEM_MOLECULAR_WEIGHT>
440.39796

> <PUBCHEM_OPENEYE_CAN_SMILES>
CC1C(=O)OC2C1(C34C(=O)OC5C3(C2O)C6(C(C5O)C(C)(C)C)C(C(=O)OC6O4)O)O

> <PUBCHEM_OPENEYE_ISO_SMILES>
C[C@@H]1C(=O)O[C@@H]2[C@]1([C@@]34C(=O)O[C@H]5C3(C2O)C6([C@@H]([C@H]5O)C(C)(C)C)[C@H](O4)OC(=O)C6O)O

> <PUBCHEM_CACTVS_TPSA>
169

> <PUBCHEM_MONOISOTOPIC_WEIGHT>
440.131862

> <PUBCHEM_TOTAL_CHARGE>
0

> <PUBCHEM_HEAVY_ATOM_COUNT>
31

> <PUBCHEM_ATOM_DEF_STEREO_COUNT>
8

> <PUBCHEM_ATOM_UDEF_STEREO_COUNT>
4

> <PUBCHEM_BOND_DEF_STEREO_COUNT>
0

> <PUBCHEM_BOND_UDEF_STEREO_COUNT>
0

> <PUBCHEM_ISOTOPIC_ATOM_COUNT>
0

> <PUBCHEM_COMPONENT_COUNT>
1

> <PUBCHEM_CACTVS_TAUTO_COUNT>
6

> <PUBCHEM_COORDINATE_TYPE>
1
5
255

> <PUBCHEM_BONDANNOTATIONS>
14  1  5
12  18  3
13  16  3
15  32  6
18  34  3
19  35  5
21  37  5
22  38  3
25  31  5
17  5  5
20  7  5

$$$$

