14427
  -OEChem-06241222432D

 53 55  0     0  0  0  0  0  0999 V2000
    2.0000    5.0670    0.0000 F   0  0  0  0  0  0  0  0  0  0  0  0
    3.3660    5.4330    0.0000 F   0  0  0  0  0  0  0  0  0  0  0  0
    2.3660    3.7010    0.0000 F   0  0  0  0  0  0  0  0  0  0  0  0
    4.5981    1.5670    0.0000 O   0  0  0  0  0  0  0  0  0  0  0  0
    2.8660   -1.4330    0.0000 N   0  0  0  0  0  0  0  0  0  0  0  0
    2.8660   -3.4330    0.0000 C   0  0  0  0  0  0  0  0  0  0  0  0
    3.7320   -3.9330    0.0000 C   0  0  0  0  0  0  0  0  0  0  0  0
    2.0000   -3.9330    0.0000 C   0  0  0  0  0  0  0  0  0  0  0  0
    3.7320   -2.9330    0.0000 C   0  0  0  0  0  0  0  0  0  0  0  0
    2.0000   -2.9330    0.0000 C   0  0  0  0  0  0  0  0  0  0  0  0
    3.7320   -4.9330    0.0000 C   0  0  0  0  0  0  0  0  0  0  0  0
    2.0000   -4.9330    0.0000 C   0  0  0  0  0  0  0  0  0  0  0  0
    3.7320   -1.9330    0.0000 C   0  0  0  0  0  0  0  0  0  0  0  0
    2.0000   -1.9330    0.0000 C   0  0  0  0  0  0  0  0  0  0  0  0
    2.8660   -5.4330    0.0000 C   0  0  0  0  0  0  0  0  0  0  0  0
    2.8660   -0.4330    0.0000 C   0  0  0  0  0  0  0  0  0  0  0  0
    3.7320    0.0670    0.0000 C   0  0  0  0  0  0  0  0  0  0  0  0
    3.7320    1.0670    0.0000 C   0  0  0  0  0  0  0  0  0  0  0  0
    4.5981    2.5670    0.0000 C   0  0  0  0  0  0  0  0  0  0  0  0
    3.7320    3.0670    0.0000 C   0  0  0  0  0  0  0  0  0  0  0  0
    5.4641    3.0670    0.0000 C   0  0  0  0  0  0  0  0  0  0  0  0
    3.7320    4.0670    0.0000 C   0  0  0  0  0  0  0  0  0  0  0  0
    5.4641    4.0670    0.0000 C   0  0  0  0  0  0  0  0  0  0  0  0
    4.5981    4.5670    0.0000 C   0  0  0  0  0  0  0  0  0  0  0  0
    2.8660    4.5670    0.0000 C   0  0  0  0  0  0  0  0  0  0  0  0
    4.3426   -4.0407    0.0000 H   0  0  0  0  0  0  0  0  0  0  0  0
    3.9441   -3.3504    0.0000 H   0  0  0  0  0  0  0  0  0  0  0  0
    1.7880   -3.3504    0.0000 H   0  0  0  0  0  0  0  0  0  0  0  0
    1.3894   -4.0407    0.0000 H   0  0  0  0  0  0  0  0  0  0  0  0
    1.3894   -2.8253    0.0000 H   0  0  0  0  0  0  0  0  0  0  0  0
    1.7880   -3.5156    0.0000 H   0  0  0  0  0  0  0  0  0  0  0  0
    3.9441   -3.5156    0.0000 H   0  0  0  0  0  0  0  0  0  0  0  0
    4.3426   -2.8253    0.0000 H   0  0  0  0  0  0  0  0  0  0  0  0
    3.9441   -5.5156    0.0000 H   0  0  0  0  0  0  0  0  0  0  0  0
    4.3426   -4.8254    0.0000 H   0  0  0  0  0  0  0  0  0  0  0  0
    1.3894   -4.8254    0.0000 H   0  0  0  0  0  0  0  0  0  0  0  0
    1.7880   -5.5156    0.0000 H   0  0  0  0  0  0  0  0  0  0  0  0
    1.7880   -1.3504    0.0000 H   0  0  0  0  0  0  0  0  0  0  0  0
    1.3894   -2.0407    0.0000 H   0  0  0  0  0  0  0  0  0  0  0  0
    4.3426   -2.0407    0.0000 H   0  0  0  0  0  0  0  0  0  0  0  0
    3.9441   -1.3504    0.0000 H   0  0  0  0  0  0  0  0  0  0  0  0
    2.4675   -5.9080    0.0000 H   0  0  0  0  0  0  0  0  0  0  0  0
    3.2646   -5.9080    0.0000 H   0  0  0  0  0  0  0  0  0  0  0  0
    2.6540    0.1496    0.0000 H   0  0  0  0  0  0  0  0  0  0  0  0
    2.2554   -0.5407    0.0000 H   0  0  0  0  0  0  0  0  0  0  0  0
    3.9441   -0.5156    0.0000 H   0  0  0  0  0  0  0  0  0  0  0  0
    4.3426    0.1746    0.0000 H   0  0  0  0  0  0  0  0  0  0  0  0
    3.5200    1.6496    0.0000 H   0  0  0  0  0  0  0  0  0  0  0  0
    3.1215    0.9593    0.0000 H   0  0  0  0  0  0  0  0  0  0  0  0
    3.1951    2.7570    0.0000 H   0  0  0  0  0  0  0  0  0  0  0  0
    6.0010    2.7570    0.0000 H   0  0  0  0  0  0  0  0  0  0  0  0
    6.0010    4.3770    0.0000 H   0  0  0  0  0  0  0  0  0  0  0  0
    4.5981    5.1870    0.0000 H   0  0  0  0  0  0  0  0  0  0  0  0
  1 25  1  0  0  0  0
  2 25  1  0  0  0  0
  3 25  1  0  0  0  0
  4 18  1  0  0  0  0
  4 19  1  0  0  0  0
  5 13  1  0  0  0  0
  5 14  1  0  0  0  0
  5 16  1  0  0  0  0
  6  7  1  0  0  0  0
  6  8  1  0  0  0  0
  6  9  1  0  0  0  0
  6 10  1  0  0  0  0
  7 11  1  0  0  0  0
  7 26  1  0  0  0  0
  7 27  1  0  0  0  0
  8 12  1  0  0  0  0
  8 28  1  0  0  0  0
  8 29  1  0  0  0  0
  9 13  1  0  0  0  0
  9 32  1  0  0  0  0
  9 33  1  0  0  0  0
 10 14  1  0  0  0  0
 10 30  1  0  0  0  0
 10 31  1  0  0  0  0
 11 15  1  0  0  0  0
 11 34  1  0  0  0  0
 11 35  1  0  0  0  0
 12 15  1  0  0  0  0
 12 36  1  0  0  0  0
 12 37  1  0  0  0  0
 13 40  1  0  0  0  0
 13 41  1  0  0  0  0
 14 38  1  0  0  0  0
 14 39  1  0  0  0  0
 15 42  1  0  0  0  0
 15 43  1  0  0  0  0
 16 17  1  0  0  0  0
 16 44  1  0  0  0  0
 16 45  1  0  0  0  0
 17 18  1  0  0  0  0
 17 46  1  0  0  0  0
 17 47  1  0  0  0  0
 18 48  1  0  0  0  0
 18 49  1  0  0  0  0
 19 20  1  0  0  0  0
 19 21  2  0  0  0  0
 20 22  2  0  0  0  0
 20 50  1  0  0  0  0
 21 23  1  0  0  0  0
 21 51  1  0  0  0  0
 22 24  1  0  0  0  0
 22 25  1  0  0  0  0
 23 24  2  0  0  0  0
 23 52  1  0  0  0  0
 24 53  1  0  0  0  0
M  END
> <PUBCHEM_COMPOUND_CID>
14427

> <PUBCHEM_COMPOUND_CANONICALIZED>
1

> <PUBCHEM_CACTVS_COMPLEXITY>
396

> <PUBCHEM_CACTVS_HBOND_ACCEPTOR>
5

> <PUBCHEM_CACTVS_HBOND_DONOR>
0

> <PUBCHEM_CACTVS_ROTATABLE_BOND>
5

> <PUBCHEM_CACTVS_SUBSKEYS>
AAADceB6IYAAAAAAAAAAAAAAAAAAAAAAAAA8YIAAAAAAAAABAAAAHwAAAAAADgThmBYwBoMABACAAiBCAAACCAAgIAAIiAAOCIgMJiKEsRqGOCCmwBGIqAeQwNAPAAABAAAAAAAAAAIAAAAAAAAAAAAAAA==

> <PUBCHEM_IUPAC_OPENEYE_NAME>
3-[3-[3-(trifluoromethyl)phenoxy]propyl]-3-azaspiro[5.5]undecane

> <PUBCHEM_IUPAC_CAS_NAME>
3-[3-[3-(trifluoromethyl)phenoxy]propyl]-3-azaspiro[5.5]undecane

> <PUBCHEM_IUPAC_NAME>
3-[3-[3-(trifluoromethyl)phenoxy]propyl]-3-azaspiro[5.5]undecane

> <PUBCHEM_IUPAC_SYSTEMATIC_NAME>
3-[3-[3-(trifluoromethyl)phenoxy]propyl]-3-azaspiro[5.5]undecane

> <PUBCHEM_IUPAC_TRADITIONAL_NAME>
3-[3-[3-(trifluoromethyl)phenoxy]propyl]-3-azaspiro[5.5]undecane

> <PUBCHEM_IUPAC_INCHI>
InChI=1S/C20H28F3NO/c21-20(22,23)17-6-4-7-18(16-17)25-15-5-12-24-13-10-19(11-14-24)8-2-1-3-9-19/h4,6-7,16H,1-3,5,8-15H2

> <PUBCHEM_IUPAC_INCHIKEY>
DJBUNNYSMQHCMK-UHFFFAOYSA-N

> <PUBCHEM_XLOGP3_AA>
6.3

> <PUBCHEM_EXACT_MASS>
355.212299

> <PUBCHEM_MOLECULAR_FORMULA>
C20H28F3NO

> <PUBCHEM_MOLECULAR_WEIGHT>
355.43763

> <PUBCHEM_OPENEYE_CAN_SMILES>
C1CCC2(CC1)CCN(CC2)CCCOC3=CC=CC(=C3)C(F)(F)F

> <PUBCHEM_OPENEYE_ISO_SMILES>
C1CCC2(CC1)CCN(CC2)CCCOC3=CC=CC(=C3)C(F)(F)F

> <PUBCHEM_CACTVS_TPSA>
12.5

> <PUBCHEM_MONOISOTOPIC_WEIGHT>
355.212299

> <PUBCHEM_TOTAL_CHARGE>
0

> <PUBCHEM_HEAVY_ATOM_COUNT>
25

> <PUBCHEM_ATOM_DEF_STEREO_COUNT>
0

> <PUBCHEM_ATOM_UDEF_STEREO_COUNT>
0

> <PUBCHEM_BOND_DEF_STEREO_COUNT>
0

> <PUBCHEM_BOND_UDEF_STEREO_COUNT>
0

> <PUBCHEM_ISOTOPIC_ATOM_COUNT>
0

> <PUBCHEM_COMPONENT_COUNT>
1

> <PUBCHEM_CACTVS_TAUTO_COUNT>
1

> <PUBCHEM_COORDINATE_TYPE>
1
5
255

> <PUBCHEM_BONDANNOTATIONS>
19  20  8
19  21  8
20  22  8
21  23  8
22  24  8
23  24  8

$$$$

