4783
  -OEChem-06261200203D

 41 41  0     0  0  0  0  0  0999 V2000
   -0.8010   -2.7735   -1.9290 I   0  0  0  0  0  0  0  0  0  0  0  0
   -1.7609    1.8238    0.4983 O   0  0  0  0  0  0  0  0  0  0  0  0
   -0.7773    1.0891   -1.4927 O   0  0  0  0  0  0  0  0  0  0  0  0
    3.4841    1.7951    0.5195 C   0  0  0  0  0  0  0  0  0  0  0  0
    4.4823    0.8184   -0.1115 C   0  0  0  0  0  0  0  0  0  0  0  0
    2.1961    1.9572   -0.2918 C   0  0  0  0  0  0  0  0  0  0  0  0
    3.9714   -0.6124   -0.3144 C   0  0  0  0  0  0  0  0  0  0  0  0
    1.2332    2.9374    0.3871 C   0  0  0  0  0  0  0  0  0  0  0  0
    3.6075   -1.3180    0.9972 C   0  0  0  0  0  0  0  0  0  0  0  0
   -0.0489    3.1528   -0.4167 C   0  0  0  0  0  0  0  0  0  0  0  0
    3.0968   -2.7435    0.7761 C   0  0  0  0  0  0  0  0  0  0  0  0
   -0.8788    1.8966   -0.5796 C   0  0  0  0  0  0  0  0  0  0  0  0
    1.8949   -2.7681   -0.0695 C   0  0  0  0  0  0  0  0  0  0  0  0
   -2.5991    0.7038    0.4812 C   0  0  0  0  0  0  0  0  0  0  0  0
   -2.1964   -0.4787    1.1021 C   0  0  0  0  0  0  0  0  0  0  0  0
   -3.8376    0.7693   -0.1574 C   0  0  0  0  0  0  0  0  0  0  0  0
    0.9087   -2.7762   -0.7537 C   0  0  0  0  0  0  0  0  0  0  0  0
   -3.0318   -1.5955    1.0843 C   0  0  0  0  0  0  0  0  0  0  0  0
   -4.6730   -0.3476   -0.1751 C   0  0  0  0  0  0  0  0  0  0  0  0
   -4.2701   -1.5300    0.4458 C   0  0  0  0  0  0  0  0  0  0  0  0
    3.9736    2.7729    0.6110 H   0  0  0  0  0  0  0  0  0  0  0  0
    3.2447    1.4772    1.5405 H   0  0  0  0  0  0  0  0  0  0  0  0
    5.3842    0.7901    0.5125 H   0  0  0  0  0  0  0  0  0  0  0  0
    4.7945    1.2147   -1.0859 H   0  0  0  0  0  0  0  0  0  0  0  0
    1.7017    0.9863   -0.3928 H   0  0  0  0  0  0  0  0  0  0  0  0
    2.4373    2.3108   -1.3011 H   0  0  0  0  0  0  0  0  0  0  0  0
    4.7621   -1.1878   -0.8128 H   0  0  0  0  0  0  0  0  0  0  0  0
    3.1250   -0.6000   -1.0079 H   0  0  0  0  0  0  0  0  0  0  0  0
    0.9783    2.5621    1.3858 H   0  0  0  0  0  0  0  0  0  0  0  0
    1.7310    3.9050    0.5216 H   0  0  0  0  0  0  0  0  0  0  0  0
    4.4863   -1.3503    1.6522 H   0  0  0  0  0  0  0  0  0  0  0  0
    2.8338   -0.7482    1.5249 H   0  0  0  0  0  0  0  0  0  0  0  0
   -0.6653    3.9266    0.0564 H   0  0  0  0  0  0  0  0  0  0  0  0
    0.1838    3.5288   -1.4201 H   0  0  0  0  0  0  0  0  0  0  0  0
    2.8716   -3.1985    1.7474 H   0  0  0  0  0  0  0  0  0  0  0  0
    3.8849   -3.3499    0.3148 H   0  0  0  0  0  0  0  0  0  0  0  0
   -1.2325   -0.5357    1.6004 H   0  0  0  0  0  0  0  0  0  0  0  0
   -4.1568    1.6875   -0.6427 H   0  0  0  0  0  0  0  0  0  0  0  0
   -2.7182   -2.5160    1.5679 H   0  0  0  0  0  0  0  0  0  0  0  0
   -5.6371   -0.2968   -0.6725 H   0  0  0  0  0  0  0  0  0  0  0  0
   -4.9203   -2.3998    0.4315 H   0  0  0  0  0  0  0  0  0  0  0  0
  1 17  1  0  0  0  0
  2 12  1  0  0  0  0
  2 14  1  0  0  0  0
  3 12  2  0  0  0  0
  4  5  1  0  0  0  0
  4  6  1  0  0  0  0
  4 21  1  0  0  0  0
  4 22  1  0  0  0  0
  5  7  1  0  0  0  0
  5 23  1  0  0  0  0
  5 24  1  0  0  0  0
  6  8  1  0  0  0  0
  6 25  1  0  0  0  0
  6 26  1  0  0  0  0
  7  9  1  0  0  0  0
  7 27  1  0  0  0  0
  7 28  1  0  0  0  0
  8 10  1  0  0  0  0
  8 29  1  0  0  0  0
  8 30  1  0  0  0  0
  9 11  1  0  0  0  0
  9 31  1  0  0  0  0
  9 32  1  0  0  0  0
 10 12  1  0  0  0  0
 10 33  1  0  0  0  0
 10 34  1  0  0  0  0
 11 13  1  0  0  0  0
 11 35  1  0  0  0  0
 11 36  1  0  0  0  0
 13 17  3  0  0  0  0
 14 15  2  0  0  0  0
 14 16  1  0  0  0  0
 15 18  1  0  0  0  0
 15 37  1  0  0  0  0
 16 19  2  0  0  0  0
 16 38  1  0  0  0  0
 18 20  2  0  0  0  0
 18 39  1  0  0  0  0
 19 20  1  0  0  0  0
 19 40  1  0  0  0  0
 20 41  1  0  0  0  0
M  END
> <PUBCHEM_COMPOUND_CID>
4783

> <PUBCHEM_CONFORMER_RMSD>
1.2

> <PUBCHEM_CONFORMER_DIVERSEORDER>
1
111
153
96
63
16
157
183
71
18
159
112
2
19
125
8
123
117
172
141
61
70
20
34
132
184
6
10
170
149
167
119
44
13
84
151
113
105
163
43
146
143
118
94
164
108
53
130
134
120
95
52
66
51
174
72
166
176
23
90
155
178
188
177
42
46
150
128
93
22
11
27
104
189
140
186
81
181
168
17
110
173
131
57
37
124
97
154
116
145
7
68
98
15
60
32
87
24
179
106
21
79
26
54
152
77
185
80
142
4
5
133
175
76
156
86
41
48
160
101
137
3
129
14
99
78
69
31
165
30
182
121
147
73
92
136
65
40
180
58
126
39
148
139
158
12
25
102
114
67
100
64
62
88
85
29
47
162
161
35
83
45
36
82
75
9
122
56
103
144
169
33
89
38
59
115
28
74
171
55
135
187
91
109
50
49
127
107
138

> <PUBCHEM_MMFF94_PARTIAL_CHARGES>
19
1 -0.01
10 0.06
11 0.2
12 0.66
13 -0.2
14 0.08
15 -0.15
16 -0.15
17 0.01
18 -0.15
19 -0.15
2 -0.23
20 -0.15
3 -0.57
37 0.15
38 0.15
39 0.15
40 0.15
41 0.15

> <PUBCHEM_EFFECTIVE_ROTOR_COUNT>
10

> <PUBCHEM_PHARMACOPHORE_FEATURES>
3
1 1 hydrophobe
1 3 acceptor
6 14 15 16 18 19 20 rings

> <PUBCHEM_HEAVY_ATOM_COUNT>
20

> <PUBCHEM_ATOM_DEF_STEREO_COUNT>
0

> <PUBCHEM_ATOM_UDEF_STEREO_COUNT>
0

> <PUBCHEM_BOND_DEF_STEREO_COUNT>
0

> <PUBCHEM_BOND_UDEF_STEREO_COUNT>
0

> <PUBCHEM_ISOTOPIC_ATOM_COUNT>
0

> <PUBCHEM_COMPONENT_COUNT>
1

> <PUBCHEM_CACTVS_TAUTO_COUNT>
1

> <PUBCHEM_CONFORMER_ID>
000012AF00000001

> <PUBCHEM_MMFF94_ENERGY>
27.5965

> <PUBCHEM_FEATURE_SELFOVERLAP>
15.223

> <PUBCHEM_SHAPE_FINGERPRINT>
10616163 171 18339357582345010824
10708813 3 18190746327634678710
11578080 2 16557647376387783183
12038231 1 16249409470776608090
12596602 18 17095802101314876360
12633257 1 18051969509108893914
13122387 1 18122343738197164786
13402501 40 18341892978907065594
13642711 20 16614220784727506229
14117953 113 18117564148261195927
14251705 54 18267304420834359400
14251757 5 15812539428928298558
14840074 17 18261106349250755255
15352361 1 18342176691408893080
19930381 70 18340208599802171947
20261772 1 18334580122849924734
20645477 70 18057889039263652057
20765182 20 18193811830641166147
21315764 371 16733850626014867655
21673915 165 18263927627151548760
23227448 37 18336545997658143207
23419403 2 18129678507515164591
23559900 14 18341618062214255081
3493558 16 15077343222710361689
4283 87 18265060136781178806
463206 1 18120373151525668131
5309563 4 18410855451543807312
6287921 2 17532357850358490479

> <PUBCHEM_SHAPE_MULTIPOLES>
411.79
8.69
4.44
1.31
0.72
0.32
-0.36
1.14
2.18
-2.28
-0.94
0.37
0.84
-0.35

> <PUBCHEM_SHAPE_SELFOVERLAP>
792.825

> <PUBCHEM_SHAPE_VOLUME>
251.2

> <PUBCHEM_COORDINATE_TYPE>
2
5
10

$$$$

