17395754
  -OEChem-06241222523D

 45 47  0     1  0  0  0  0  0999 V2000
    1.5396    2.3634   -0.3999 O   0  0  0  0  0  0  0  0  0  0  0  0
   -1.8199    2.7627   -1.7683 O   0  0  0  0  0  0  0  0  0  0  0  0
   -2.9837   -0.5646    1.1932 O   0  0  0  0  0  0  0  0  0  0  0  0
   -1.7340    2.3316    0.5121 N   0  0  0  0  0  0  0  0  0  0  0  0
   -3.3129    0.1114   -1.0047 N   0  0  0  0  0  0  0  0  0  0  0  0
   -0.4579    2.9878    0.7785 C   0  0  2  0  0  0  0  0  0  0  0  0
    0.6693    2.0625    0.5988 C   0  0  0  0  0  0  0  0  0  0  0  0
    2.2388    0.4667    0.6086 C   0  0  0  0  0  0  0  0  0  0  0  0
    1.0513    0.9110    1.2477 C   0  0  0  0  0  0  0  0  0  0  0  0
    2.4966    1.3933   -0.3964 C   0  0  0  0  0  0  0  0  0  0  0  0
   -0.5306    3.6418    2.1737 C   0  0  0  0  0  0  0  0  0  0  0  0
   -2.2994    2.2803   -0.7453 C   0  0  0  0  0  0  0  0  0  0  0  0
   -3.5905    1.4899   -0.7282 C   0  0  0  0  0  0  0  0  0  0  0  0
    3.1229   -0.6146    0.7681 C   0  0  0  0  0  0  0  0  0  0  0  0
    3.5841    1.3215   -1.2652 C   0  0  0  0  0  0  0  0  0  0  0  0
    4.2258   -0.7140   -0.0911 C   0  0  0  0  0  0  0  0  0  0  0  0
    4.4502    0.2383   -1.0887 C   0  0  0  0  0  0  0  0  0  0  0  0
   -2.7788   -2.2021   -0.5793 C   0  0  0  0  0  0  0  0  0  0  0  0
   -3.0274   -0.8196   -0.0076 C   0  0  0  0  0  0  0  0  0  0  0  0
   -1.4093   -2.7417   -0.2618 C   0  0  0  0  0  0  0  0  0  0  0  0
   -0.3444   -2.4946   -1.1281 C   0  0  0  0  0  0  0  0  0  0  0  0
   -1.2055   -3.4882    0.8988 C   0  0  0  0  0  0  0  0  0  0  0  0
    0.9244   -2.9942   -0.8341 C   0  0  0  0  0  0  0  0  0  0  0  0
    0.0633   -3.9877    1.1928 C   0  0  0  0  0  0  0  0  0  0  0  0
    1.1282   -3.7407    0.3263 C   0  0  0  0  0  0  0  0  0  0  0  0
   -0.3603    3.8047    0.0513 H   0  0  0  0  0  0  0  0  0  0  0  0
    0.5386    0.4447    2.0774 H   0  0  0  0  0  0  0  0  0  0  0  0
   -2.1716    1.8238    1.2759 H   0  0  0  0  0  0  0  0  0  0  0  0
    0.3958    4.1818    2.3969 H   0  0  0  0  0  0  0  0  0  0  0  0
   -1.3646    4.3502    2.2271 H   0  0  0  0  0  0  0  0  0  0  0  0
   -0.6800    2.8909    2.9581 H   0  0  0  0  0  0  0  0  0  0  0  0
   -4.2504    1.8730   -1.5127 H   0  0  0  0  0  0  0  0  0  0  0  0
   -4.1041    1.5897    0.2335 H   0  0  0  0  0  0  0  0  0  0  0  0
    2.9639   -1.3596    1.5417 H   0  0  0  0  0  0  0  0  0  0  0  0
    3.7513    2.0637   -2.0366 H   0  0  0  0  0  0  0  0  0  0  0  0
    4.9169   -1.5454    0.0219 H   0  0  0  0  0  0  0  0  0  0  0  0
   -2.9327   -2.2192   -1.6651 H   0  0  0  0  0  0  0  0  0  0  0  0
   -3.5491   -2.8678   -0.1689 H   0  0  0  0  0  0  0  0  0  0  0  0
   -3.3082   -0.1791   -1.9778 H   0  0  0  0  0  0  0  0  0  0  0  0
    5.3143    0.1354   -1.7406 H   0  0  0  0  0  0  0  0  0  0  0  0
   -0.4902   -1.9115   -2.0336 H   0  0  0  0  0  0  0  0  0  0  0  0
   -2.0265   -3.6858    1.5829 H   0  0  0  0  0  0  0  0  0  0  0  0
    1.7534   -2.8016   -1.5089 H   0  0  0  0  0  0  0  0  0  0  0  0
    0.2225   -4.5680    2.0969 H   0  0  0  0  0  0  0  0  0  0  0  0
    2.1163   -4.1286    0.5557 H   0  0  0  0  0  0  0  0  0  0  0  0
  1  7  1  0  0  0  0
  1 10  1  0  0  0  0
  2 12  2  0  0  0  0
  3 19  2  0  0  0  0
  4  6  1  0  0  0  0
  4 12  1  0  0  0  0
  4 28  1  0  0  0  0
  5 13  1  0  0  0  0
  5 19  1  0  0  0  0
  5 39  1  0  0  0  0
  6  7  1  0  0  0  0
  6 11  1  0  0  0  0
  6 26  1  0  0  0  0
  7  9  2  0  0  0  0
  8  9  1  0  0  0  0
  8 10  1  0  0  0  0
  8 14  2  0  0  0  0
  9 27  1  0  0  0  0
 10 15  2  0  0  0  0
 11 29  1  0  0  0  0
 11 30  1  0  0  0  0
 11 31  1  0  0  0  0
 12 13  1  0  0  0  0
 13 32  1  0  0  0  0
 13 33  1  0  0  0  0
 14 16  1  0  0  0  0
 14 34  1  0  0  0  0
 15 17  1  0  0  0  0
 15 35  1  0  0  0  0
 16 17  2  0  0  0  0
 16 36  1  0  0  0  0
 17 40  1  0  0  0  0
 18 19  1  0  0  0  0
 18 20  1  0  0  0  0
 18 37  1  0  0  0  0
 18 38  1  0  0  0  0
 20 21  2  0  0  0  0
 20 22  1  0  0  0  0
 21 23  1  0  0  0  0
 21 41  1  0  0  0  0
 22 24  2  0  0  0  0
 22 42  1  0  0  0  0
 23 25  2  0  0  0  0
 23 43  1  0  0  0  0
 24 25  1  0  0  0  0
 24 44  1  0  0  0  0
 25 45  1  0  0  0  0
M  END
> <PUBCHEM_COMPOUND_CID>
17395754

> <PUBCHEM_CONFORMER_RMSD>
1.2

> <PUBCHEM_CONFORMER_DIVERSEORDER>
3
91
49
119
26
34
88
55
6
22
103
71
23
28
44
62
122
75
83
27
51
13
24
1
48
100
82
81
16
7
43
76
95
66
96
17
4
36
127
45
107
32
8
92
20
64
124
58
108
110
10
38
47
98
77
89
68
40
63
69
70
18
99
87
19
67
53
21
117
109
12
52
115
33
106
37
41
61
105
85
2
112
15
90
101
118
74
31
93
84
54
116
72
102
126
86
56
9
113
60
42
29
94
123
14
50
121
79
104
97
65
114
39
30
46
120
11
57
59
73
35
78
125
5
80
25
111

> <PUBCHEM_MMFF94_PARTIAL_CHARGES>
35
1 -0.28
10 0.14
12 0.57
13 0.36
14 -0.15
15 -0.15
16 -0.15
17 -0.15
18 0.2
19 0.57
2 -0.57
20 -0.14
21 -0.15
22 -0.15
23 -0.15
24 -0.15
25 -0.15
27 0.15
28 0.37
3 -0.57
34 0.15
35 0.15
36 0.15
39 0.37
4 -0.73
40 0.15
41 0.15
42 0.15
43 0.15
44 0.15
45 0.15
5 -0.73
6 0.48
7 -0.04
9 -0.15

> <PUBCHEM_EFFECTIVE_ROTOR_COUNT>
8

> <PUBCHEM_PHARMACOPHORE_FEATURES>
8
1 1 acceptor
1 2 acceptor
1 3 acceptor
1 4 donor
1 5 donor
5 1 7 8 9 10 rings
6 20 21 22 23 24 25 rings
6 8 10 14 15 16 17 rings

> <PUBCHEM_HEAVY_ATOM_COUNT>
25

> <PUBCHEM_ATOM_DEF_STEREO_COUNT>
0

> <PUBCHEM_ATOM_UDEF_STEREO_COUNT>
1

> <PUBCHEM_BOND_DEF_STEREO_COUNT>
0

> <PUBCHEM_BOND_UDEF_STEREO_COUNT>
0

> <PUBCHEM_ISOTOPIC_ATOM_COUNT>
0

> <PUBCHEM_COMPONENT_COUNT>
1

> <PUBCHEM_CACTVS_TAUTO_COUNT>
4

> <PUBCHEM_CONFORMER_ID>
0109702A00000003

> <PUBCHEM_MMFF94_ENERGY>
45.7159

> <PUBCHEM_FEATURE_SELFOVERLAP>
40.697

> <PUBCHEM_SHAPE_FINGERPRINT>
10708813 3 17616534398874872970
10759866 29 18202560692350676550
12054548 360 17906727008277146460
12156800 1 13811080721942739347
12539773 59 15087164476649149551
12553582 1 18335978653947124048
12712778 12 18267327399109990090
12788726 201 18334565837946609488
13122387 1 16752691088258080007
13941206 138 18129368445231596614
14117953 113 15454810056623439980
14251740 79 18263063540172482926
14251757 5 18268415851144224622
14289585 56 17273400893854960550
14363568 33 17401182492512053322
14725015 67 18122649179181402427
14931854 50 18337397148464207535
17093844 170 18335990873556342314
20764821 26 18194957672022926919
20775438 99 17035326612662236215
20905425 154 18044664332394983231
21141583 151 18262515871280092744
238 59 18122378806652571199
2818148 4 17048206266031049479
3052486 1 18124308570293791958
3298306 158 18339095890219703109
35225 105 18335708208409591334
463206 1 18189920728120997367
5282940 2 17907292509261799926
5283178 26 18046887317526176571

> <PUBCHEM_SHAPE_MULTIPOLES>
486.92
6.31
5.81
1.5
3.27
2.03
-0.2
-0.42
2.21
-2.6
-1.54
-0.05
-0.72
0.39

> <PUBCHEM_SHAPE_SELFOVERLAP>
1045.052

> <PUBCHEM_SHAPE_VOLUME>
269.5

> <PUBCHEM_COORDINATE_TYPE>
2
5
10

$$$$

