83852
  -OEChem-07051212532D

 34 36  0     1  0  0  0  0  0999 V2000
    3.9491    2.3497    0.0000 O   0  0  0  0  0  0  0  0  0  0  0  0
    5.8169    2.3497    0.0000 O   0  0  0  0  0  0  0  0  0  0  0  0
    5.7490   -2.2420    0.0000 O   0  0  0  0  0  0  0  0  0  0  0  0
    4.8830   -0.7419    0.0000 N   0  0  0  0  0  0  0  0  0  0  0  0
    4.0170   -2.2419    0.0000 N   0  0  0  0  0  0  0  0  0  0  0  0
    4.3830    1.4487    0.0000 C   0  0  3  0  0  0  0  0  0  0  0  0
    5.3830    1.4487    0.0000 C   0  0  3  0  0  0  0  0  0  0  0  0
    3.7595    0.6669    0.0000 C   0  0  0  0  0  0  0  0  0  0  0  0
    6.0065    0.6669    0.0000 C   0  0  0  0  0  0  0  0  0  0  0  0
    3.9820   -0.3081    0.0000 C   0  0  0  0  0  0  0  0  0  0  0  0
    5.7840   -0.3081    0.0000 C   0  0  0  0  0  0  0  0  0  0  0  0
    2.7690    0.9892    0.0000 C   0  0  0  0  0  0  0  0  0  0  0  0
    6.9970    0.9892    0.0000 C   0  0  0  0  0  0  0  0  0  0  0  0
    3.2295   -1.0282    0.0000 C   0  0  0  0  0  0  0  0  0  0  0  0
    6.5365   -1.0283    0.0000 C   0  0  0  0  0  0  0  0  0  0  0  0
    4.8830   -1.7420    0.0000 C   0  0  0  0  0  0  0  0  0  0  0  0
    7.7660    0.2866    0.0000 C   0  0  0  0  0  0  0  0  0  0  0  0
    2.0000    0.2866    0.0000 C   0  0  0  0  0  0  0  0  0  0  0  0
    2.2318   -0.7289    0.0000 C   0  0  0  0  0  0  0  0  0  0  0  0
    7.5342   -0.7289    0.0000 C   0  0  0  0  0  0  0  0  0  0  0  0
    4.7129    1.9737    0.0000 H   0  0  0  0  0  0  0  0  0  0  0  0
    5.9991    1.5181    0.0000 H   0  0  0  0  0  0  0  0  0  0  0  0
    2.6380    1.5952    0.0000 H   0  0  0  0  0  0  0  0  0  0  0  0
    7.1280    1.5952    0.0000 H   0  0  0  0  0  0  0  0  0  0  0  0
    3.3744   -1.6311    0.0000 H   0  0  0  0  0  0  0  0  0  0  0  0
    6.3916   -1.6311    0.0000 H   0  0  0  0  0  0  0  0  0  0  0  0
    4.2984    2.8619    0.0000 H   0  0  0  0  0  0  0  0  0  0  0  0
    6.4352    2.3960    0.0000 H   0  0  0  0  0  0  0  0  0  0  0  0
    1.4083    0.4717    0.0000 H   0  0  0  0  0  0  0  0  0  0  0  0
    8.3578    0.4716    0.0000 H   0  0  0  0  0  0  0  0  0  0  0  0
    1.7789   -1.1523    0.0000 H   0  0  0  0  0  0  0  0  0  0  0  0
    7.9871   -1.1524    0.0000 H   0  0  0  0  0  0  0  0  0  0  0  0
    4.0169   -2.8619    0.0000 H   0  0  0  0  0  0  0  0  0  0  0  0
    3.4800   -1.9319    0.0000 H   0  0  0  0  0  0  0  0  0  0  0  0
  1  6  1  0  0  0  0
  1 27  1  0  0  0  0
  2  7  1  0  0  0  0
  2 28  1  0  0  0  0
  3 16  2  0  0  0  0
  4 10  1  0  0  0  0
  4 11  1  0  0  0  0
  4 16  1  0  0  0  0
  5 16  1  0  0  0  0
  5 33  1  0  0  0  0
  5 34  1  0  0  0  0
  6  7  1  0  0  0  0
  6  8  1  0  0  0  0
  6 21  1  0  0  0  0
  7  9  1  0  0  0  0
  7 22  1  0  0  0  0
  8 10  1  0  0  0  0
  8 12  2  0  0  0  0
  9 11  1  0  0  0  0
  9 13  2  0  0  0  0
 10 14  2  0  0  0  0
 11 15  2  0  0  0  0
 12 18  1  0  0  0  0
 12 23  1  0  0  0  0
 13 17  1  0  0  0  0
 13 24  1  0  0  0  0
 14 19  1  0  0  0  0
 14 25  1  0  0  0  0
 15 20  1  0  0  0  0
 15 26  1  0  0  0  0
 17 20  2  0  0  0  0
 17 30  1  0  0  0  0
 18 19  2  0  0  0  0
 18 29  1  0  0  0  0
 19 31  1  0  0  0  0
 20 32  1  0  0  0  0
M  END
> <PUBCHEM_COMPOUND_CID>
83852

> <PUBCHEM_COMPOUND_CANONICALIZED>
1

> <PUBCHEM_CACTVS_COMPLEXITY>
348

> <PUBCHEM_CACTVS_HBOND_ACCEPTOR>
3

> <PUBCHEM_CACTVS_HBOND_DONOR>
3

> <PUBCHEM_CACTVS_ROTATABLE_BOND>
0

> <PUBCHEM_CACTVS_SUBSKEYS>
AAADccBzMAAAAAAAAAAAAAAAAAAAAAAAAAAwYAAABYAAAAABQAAAHgAQCAAADByhmAIxwINAAgCIAiRCUACCAAAhAgAIiAAAbIiJNmLAkZGEcAhmxAPJ2CewwOAOAAAAAAACAAAAAAAAAAQAAAAAAAAAAA==

> <PUBCHEM_IUPAC_OPENEYE_NAME>
5,6-dihydroxy-5,6-dihydrobenzo[b][1]benzazepine-11-carboxamide

> <PUBCHEM_IUPAC_CAS_NAME>
5,6-dihydroxy-5,6-dihydrobenzo[b][1]benzazepine-11-carboxamide

> <PUBCHEM_IUPAC_NAME>
5,6-dihydroxy-5,6-dihydrobenzo[b][1]benzazepine-11-carboxamide

> <PUBCHEM_IUPAC_SYSTEMATIC_NAME>
5,6-bis(oxidanyl)-5,6-dihydrobenzo[b][1]benzazepine-11-carboxamide

> <PUBCHEM_IUPAC_TRADITIONAL_NAME>
5,6-dihydroxy-5,6-dihydrobenzo[b][1]benzazepine-11-carboxamide

> <PUBCHEM_IUPAC_INCHI>
InChI=1S/C15H14N2O3/c16-15(20)17-11-7-3-1-5-9(11)13(18)14(19)10-6-2-4-8-12(10)17/h1-8,13-14,18-19H,(H2,16,20)

> <PUBCHEM_IUPAC_INCHIKEY>
PRGQOPPDPVELEG-UHFFFAOYSA-N

> <PUBCHEM_XLOGP3_AA>
0.3

> <PUBCHEM_EXACT_MASS>
270.100442

> <PUBCHEM_MOLECULAR_FORMULA>
C15H14N2O3

> <PUBCHEM_MOLECULAR_WEIGHT>
270.28326

> <PUBCHEM_OPENEYE_CAN_SMILES>
C1=CC=C2C(=C1)C(C(C3=CC=CC=C3N2C(=O)N)O)O

> <PUBCHEM_OPENEYE_ISO_SMILES>
C1=CC=C2C(=C1)C(C(C3=CC=CC=C3N2C(=O)N)O)O

> <PUBCHEM_CACTVS_TPSA>
86.8

> <PUBCHEM_MONOISOTOPIC_WEIGHT>
270.100442

> <PUBCHEM_TOTAL_CHARGE>
0

> <PUBCHEM_HEAVY_ATOM_COUNT>
20

> <PUBCHEM_ATOM_DEF_STEREO_COUNT>
0

> <PUBCHEM_ATOM_UDEF_STEREO_COUNT>
2

> <PUBCHEM_BOND_DEF_STEREO_COUNT>
0

> <PUBCHEM_BOND_UDEF_STEREO_COUNT>
0

> <PUBCHEM_ISOTOPIC_ATOM_COUNT>
0

> <PUBCHEM_COMPONENT_COUNT>
1

> <PUBCHEM_CACTVS_TAUTO_COUNT>
2

> <PUBCHEM_COORDINATE_TYPE>
1
5
255

> <PUBCHEM_BONDANNOTATIONS>
6  1  3
10  14  8
11  15  8
12  18  8
13  17  8
14  19  8
15  20  8
17  20  8
18  19  8
7  2  3
8  10  8
8  12  8
9  11  8
9  13  8

$$$$

