23724552
  -OEChem-07051213072D

109109  0     1  0  0  0  0  0999 V2000
    6.3301   -0.4050    0.0000 O   0  0  0  0  0  0  0  0  0  0  0  0
    8.0622   -3.4050    0.0000 O   0  0  0  0  0  0  0  0  0  0  0  0
    4.5981   -4.4050    0.0000 O   0  0  0  0  0  0  0  0  0  0  0  0
    4.5981   -0.4050    0.0000 O   0  0  0  0  0  0  0  0  0  0  0  0
    8.9282   -2.9050    0.0000 O   0  0  0  0  0  0  0  0  0  0  0  0
    2.0000   -1.9050    0.0000 O   0  0  0  0  0  0  0  0  0  0  0  0
    2.8660    1.5950    0.0000 O   0  0  0  0  0  0  0  0  0  0  0  0
    8.0622    2.5950    0.0000 O   0  0  0  0  0  0  0  0  0  0  0  0
    6.3301   -3.4050    0.0000 N   0  0  0  0  0  0  0  0  0  0  0  0
    8.0622   -1.4050    0.0000 N   0  0  0  0  0  0  0  0  0  0  0  0
    3.7320   -2.9050    0.0000 N   0  0  0  0  0  0  0  0  0  0  0  0
    4.5981    1.5950    0.0000 N   0  0  0  0  0  0  0  0  0  0  0  0
    2.8660   -0.4050    0.0000 N   0  0  0  0  0  0  0  0  0  0  0  0
    7.1962    4.0950    0.0000 N   0  0  0  0  0  0  0  0  0  0  0  0
    5.4641   -2.9050    0.0000 C   0  0  1  0  0  0  0  0  0  0  0  0
    6.1069   -2.1390    0.0000 C   0  0  0  0  0  0  0  0  0  0  0  0
    5.7649   -1.1993    0.0000 C   0  0  0  0  0  0  0  0  0  0  0  0
    7.1962   -1.9050    0.0000 C   0  0  1  0  0  0  0  0  0  0  0  0
    6.3301   -1.4050    0.0000 C   0  0  1  0  0  0  0  0  0  0  0  0
    7.1962   -2.9050    0.0000 C   0  0  0  0  0  0  0  0  0  0  0  0
    4.5981   -3.4050    0.0000 C   0  0  0  0  0  0  0  0  0  0  0  0
    4.7801   -1.0256    0.0000 C   0  0  0  0  0  0  0  0  0  0  0  0
    6.7046   -0.8572    0.0000 C   0  0  0  0  0  0  0  0  0  0  0  0
    5.4641   -1.9050    0.0000 C   0  0  0  0  0  0  0  0  0  0  0  0
    5.4641    1.0950    0.0000 C   0  0  2  0  0  0  0  0  0  0  0  0
    3.7320   -1.9050    0.0000 C   0  0  2  0  0  0  0  0  0  0  0  0
    5.4641    0.0950    0.0000 C   0  0  0  0  0  0  0  0  0  0  0  0
    6.3301    1.5950    0.0000 C   0  0  0  0  0  0  0  0  0  0  0  0
    8.0622   -0.4050    0.0000 C   0  0  0  0  0  0  0  0  0  0  0  0
    3.7320    0.0950    0.0000 C   0  0  2  0  0  0  0  0  0  0  0  0
    8.9282   -1.9050    0.0000 C   0  0  0  0  0  0  0  0  0  0  0  0
    2.8660   -1.4050    0.0000 C   0  0  0  0  0  0  0  0  0  0  0  0
    4.7320   -1.9050    0.0000 C   0  0  0  0  0  0  0  0  0  0  0  0
    3.7320    1.0950    0.0000 C   0  0  0  0  0  0  0  0  0  0  0  0
    6.3301    2.5950    0.0000 C   0  0  0  0  0  0  0  0  0  0  0  0
    4.5981    0.5950    0.0000 C   0  0  0  0  0  0  0  0  0  0  0  0
    9.7942   -1.4050    0.0000 C   0  0  0  0  0  0  0  0  0  0  0  0
    7.1962    3.0950    0.0000 C   0  0  0  0  0  0  0  0  0  0  0  0
   10.6603   -1.9050    0.0000 C   0  0  0  0  0  0  0  0  0  0  0  0
   11.5263   -1.4050    0.0000 C   0  0  0  0  0  0  0  0  0  0  0  0
   12.3923   -1.9050    0.0000 C   0  0  0  0  0  0  0  0  0  0  0  0
   13.2583   -1.4050    0.0000 C   0  0  0  0  0  0  0  0  0  0  0  0
   14.1244   -1.9050    0.0000 C   0  0  0  0  0  0  0  0  0  0  0  0
   14.9904   -1.4050    0.0000 C   0  0  0  0  0  0  0  0  0  0  0  0
   15.8564   -1.9050    0.0000 C   0  0  0  0  0  0  0  0  0  0  0  0
   16.7224   -1.4050    0.0000 C   0  0  0  0  0  0  0  0  0  0  0  0
   17.5885   -1.9050    0.0000 C   0  0  0  0  0  0  0  0  0  0  0  0
   18.4545   -1.4050    0.0000 C   0  0  0  0  0  0  0  0  0  0  0  0
   19.3205   -1.9050    0.0000 C   0  0  0  0  0  0  0  0  0  0  0  0
   20.1865   -1.4050    0.0000 C   0  0  0  0  0  0  0  0  0  0  0  0
   21.9186   -1.4050    0.0000 C   0  0  0  0  0  0  0  0  0  0  0  0
   21.0526   -1.9050    0.0000 C   0  0  0  0  0  0  0  0  0  0  0  0
   22.7846   -1.9050    0.0000 C   0  0  0  0  0  0  0  0  0  0  0  0
    6.0747   -2.7973    0.0000 H   0  0  0  0  0  0  0  0  0  0  0  0
    6.5054   -2.6139    0.0000 H   0  0  0  0  0  0  0  0  0  0  0  0
    6.6438   -1.8290    0.0000 H   0  0  0  0  0  0  0  0  0  0  0  0
    5.7108   -0.5816    0.0000 H   0  0  0  0  0  0  0  0  0  0  0  0
    7.7331   -2.2150    0.0000 H   0  0  0  0  0  0  0  0  0  0  0  0
    5.7932   -1.0950    0.0000 H   0  0  0  0  0  0  0  0  0  0  0  0
    6.3301   -4.0250    0.0000 H   0  0  0  0  0  0  0  0  0  0  0  0
    4.8877   -0.4150    0.0000 H   0  0  0  0  0  0  0  0  0  0  0  0
    4.1695   -0.9180    0.0000 H   0  0  0  0  0  0  0  0  0  0  0  0
    4.6724   -1.6362    0.0000 H   0  0  0  0  0  0  0  0  0  0  0  0
    6.9166   -1.4398    0.0000 H   0  0  0  0  0  0  0  0  0  0  0  0
    7.2872   -0.6452    0.0000 H   0  0  0  0  0  0  0  0  0  0  0  0
    6.4925   -0.2746    0.0000 H   0  0  0  0  0  0  0  0  0  0  0  0
    5.1541   -1.3681    0.0000 H   0  0  0  0  0  0  0  0  0  0  0  0
    4.9272   -2.2150    0.0000 H   0  0  0  0  0  0  0  0  0  0  0  0
    5.7741   -2.4419    0.0000 H   0  0  0  0  0  0  0  0  0  0  0  0
    5.4641    1.7150    0.0000 H   0  0  0  0  0  0  0  0  0  0  0  0
    3.1951   -3.2150    0.0000 H   0  0  0  0  0  0  0  0  0  0  0  0
    4.1705   -2.3434    0.0000 H   0  0  0  0  0  0  0  0  0  0  0  0
    6.5422    1.0124    0.0000 H   0  0  0  0  0  0  0  0  0  0  0  0
    6.9407    1.7027    0.0000 H   0  0  0  0  0  0  0  0  0  0  0  0
    8.6822   -0.4050    0.0000 H   0  0  0  0  0  0  0  0  0  0  0  0
    8.0622    0.2150    0.0000 H   0  0  0  0  0  0  0  0  0  0  0  0
    7.4422   -0.4050    0.0000 H   0  0  0  0  0  0  0  0  0  0  0  0
    4.0420   -0.4419    0.0000 H   0  0  0  0  0  0  0  0  0  0  0  0
    4.5981    2.2150    0.0000 H   0  0  0  0  0  0  0  0  0  0  0  0
    4.7320   -2.5250    0.0000 H   0  0  0  0  0  0  0  0  0  0  0  0
    5.3520   -1.9050    0.0000 H   0  0  0  0  0  0  0  0  0  0  0  0
    4.7320   -1.2850    0.0000 H   0  0  0  0  0  0  0  0  0  0  0  0
    2.3291   -0.0950    0.0000 H   0  0  0  0  0  0  0  0  0  0  0  0
    6.1181    3.1776    0.0000 H   0  0  0  0  0  0  0  0  0  0  0  0
    5.7196    2.4873    0.0000 H   0  0  0  0  0  0  0  0  0  0  0  0
    4.9081    0.0581    0.0000 H   0  0  0  0  0  0  0  0  0  0  0  0
    5.1350    0.9050    0.0000 H   0  0  0  0  0  0  0  0  0  0  0  0
    4.2881    1.1319    0.0000 H   0  0  0  0  0  0  0  0  0  0  0  0
    9.7942   -0.7850    0.0000 H   0  0  0  0  0  0  0  0  0  0  0  0
   10.6603   -2.5250    0.0000 H   0  0  0  0  0  0  0  0  0  0  0  0
    7.7331    4.4050    0.0000 H   0  0  0  0  0  0  0  0  0  0  0  0
    6.6592    4.4050    0.0000 H   0  0  0  0  0  0  0  0  0  0  0  0
   11.5263   -0.7850    0.0000 H   0  0  0  0  0  0  0  0  0  0  0  0
   12.3923   -2.5250    0.0000 H   0  0  0  0  0  0  0  0  0  0  0  0
   13.2583   -0.7850    0.0000 H   0  0  0  0  0  0  0  0  0  0  0  0
   14.1244   -2.5250    0.0000 H   0  0  0  0  0  0  0  0  0  0  0  0
   14.9904   -0.7850    0.0000 H   0  0  0  0  0  0  0  0  0  0  0  0
   15.8564   -2.5250    0.0000 H   0  0  0  0  0  0  0  0  0  0  0  0
   16.7224   -0.7850    0.0000 H   0  0  0  0  0  0  0  0  0  0  0  0
   17.5885   -2.5250    0.0000 H   0  0  0  0  0  0  0  0  0  0  0  0
   18.4545   -0.7850    0.0000 H   0  0  0  0  0  0  0  0  0  0  0  0
   19.3205   -2.5250    0.0000 H   0  0  0  0  0  0  0  0  0  0  0  0
   22.3171   -0.9301    0.0000 H   0  0  0  0  0  0  0  0  0  0  0  0
   21.5201   -0.9301    0.0000 H   0  0  0  0  0  0  0  0  0  0  0  0
   20.1865   -0.7850    0.0000 H   0  0  0  0  0  0  0  0  0  0  0  0
   21.0526   -2.5250    0.0000 H   0  0  0  0  0  0  0  0  0  0  0  0
   22.4746   -2.4419    0.0000 H   0  0  0  0  0  0  0  0  0  0  0  0
   23.3215   -2.2150    0.0000 H   0  0  0  0  0  0  0  0  0  0  0  0
   23.0946   -1.3681    0.0000 H   0  0  0  0  0  0  0  0  0  0  0  0
  1 19  1  0  0  0  0
  1 27  1  0  0  0  0
  2 20  2  0  0  0  0
  3 21  2  0  0  0  0
  4 27  2  0  0  0  0
  5 31  2  0  0  0  0
  6 32  2  0  0  0  0
  7 34  2  0  0  0  0
  8 38  2  0  0  0  0
  9 15  1  0  0  0  0
  9 20  1  0  0  0  0
  9 60  1  0  0  0  0
 18 10  1  6  0  0  0
 10 29  1  0  0  0  0
 10 31  1  0  0  0  0
 11 21  1  0  0  0  0
 11 26  1  0  0  0  0
 11 71  1  0  0  0  0
 12 25  1  0  0  0  0
 12 34  1  0  0  0  0
 12 79  1  0  0  0  0
 13 30  1  0  0  0  0
 13 32  1  0  0  0  0
 13 83  1  0  0  0  0
 14 38  1  0  0  0  0
 14 91  1  0  0  0  0
 14 92  1  0  0  0  0
 15 16  1  6  0  0  0
 15 21  1  0  0  0  0
 15 54  1  0  0  0  0
 16 17  1  0  0  0  0
 16 55  1  0  0  0  0
 16 56  1  0  0  0  0
 17 22  1  0  0  0  0
 17 23  1  0  0  0  0
 17 57  1  0  0  0  0
 18 19  1  0  0  0  0
 18 20  1  0  0  0  0
 18 58  1  0  0  0  0
 19 24  1  1  0  0  0
 19 59  1  0  0  0  0
 22 61  1  0  0  0  0
 22 62  1  0  0  0  0
 22 63  1  0  0  0  0
 23 64  1  0  0  0  0
 23 65  1  0  0  0  0
 23 66  1  0  0  0  0
 24 67  1  0  0  0  0
 24 68  1  0  0  0  0
 24 69  1  0  0  0  0
 25 27  1  0  0  0  0
 25 28  1  1  0  0  0
 25 70  1  0  0  0  0
 26 32  1  0  0  0  0
 26 33  1  6  0  0  0
 26 72  1  0  0  0  0
 28 35  1  0  0  0  0
 28 73  1  0  0  0  0
 28 74  1  0  0  0  0
 29 75  1  0  0  0  0
 29 76  1  0  0  0  0
 29 77  1  0  0  0  0
 30 34  1  0  0  0  0
 30 36  1  6  0  0  0
 30 78  1  0  0  0  0
 31 37  1  0  0  0  0
 33 80  1  0  0  0  0
 33 81  1  0  0  0  0
 33 82  1  0  0  0  0
 35 38  1  0  0  0  0
 35 84  1  0  0  0  0
 35 85  1  0  0  0  0
 36 86  1  0  0  0  0
 36 87  1  0  0  0  0
 36 88  1  0  0  0  0
 37 39  2  0  0  0  0
 37 89  1  0  0  0  0
 39 40  1  0  0  0  0
 39 90  1  0  0  0  0
 40 41  2  0  0  0  0
 40 93  1  0  0  0  0
 41 42  1  0  0  0  0
 41 94  1  0  0  0  0
 42 43  2  0  0  0  0
 42 95  1  0  0  0  0
 43 44  1  0  0  0  0
 43 96  1  0  0  0  0
 44 45  2  0  0  0  0
 44 97  1  0  0  0  0
 45 46  1  0  0  0  0
 45 98  1  0  0  0  0
 46 47  2  0  0  0  0
 46 99  1  0  0  0  0
 47 48  1  0  0  0  0
 47100  1  0  0  0  0
 48 49  2  0  0  0  0
 48101  1  0  0  0  0
 49 50  1  0  0  0  0
 49102  1  0  0  0  0
 50 52  2  0  0  0  0
 50105  1  0  0  0  0
 51 52  1  0  0  0  0
 51 53  1  0  0  0  0
 51103  1  0  0  0  0
 51104  1  0  0  0  0
 52106  1  0  0  0  0
 53107  1  0  0  0  0
 53108  1  0  0  0  0
 53109  1  0  0  0  0
M  END
> <PUBCHEM_COMPOUND_CID>
23724552

> <PUBCHEM_COMPOUND_CANONICALIZED>
1

> <PUBCHEM_CACTVS_COMPLEXITY>
1490

> <PUBCHEM_CACTVS_HBOND_ACCEPTOR>
8

> <PUBCHEM_CACTVS_HBOND_DONOR>
5

> <PUBCHEM_CACTVS_ROTATABLE_BOND>
14

> <PUBCHEM_CACTVS_SUBSKEYS>
AAADcfB/vAAAAAAAAAAAAAAAAAAAAAAAAAAAAAAAAAAAAAAAAAAAHgAQAAAADTzhgAYCCAPABACIACHSGACAAAAgAAAICIGIAEgKQBYAgSAXAAAGNgCYgYKcFwAMAAAAAAAAAAAAAAAAAAAAAAAAAAAAAA==

> <PUBCHEM_IUPAC_OPENEYE_NAME>
(2E,4E,6E,8E,10E,12E,14E)-N-[(3S,6S,9S,12S,15S,16R)-3-(3-amino-3-oxo-propyl)-12-isobutyl-6,9,16-trimethyl-2,5,8,11,14-pentaoxo-1-oxa-4,7,10,13-tetrazacyclohexadec-15-yl]-N-methyl-heptadeca-2,4,6,8,10,12,14-heptaenamide

> <PUBCHEM_IUPAC_CAS_NAME>
(2E,4E,6E,8E,10E,12E,14E)-N-[(3S,6S,9S,12S,15S,16R)-3-(3-amino-3-oxopropyl)-6,9,16-trimethyl-12-(2-methylpropyl)-2,5,8,11,14-pentaoxo-1-oxa-4,7,10,13-tetrazacyclohexadec-15-yl]-N-methylheptadeca-2,4,6,8,10,12,14-heptaenamide

> <PUBCHEM_IUPAC_NAME>
(2E,4E,6E,8E,10E,12E,14E)-N-[(3S,6S,9S,12S,15S,16R)-3-(3-amino-3-oxopropyl)-6,9,16-trimethyl-12-(2-methylpropyl)-2,5,8,11,14-pentaoxo-1-oxa-4,7,10,13-tetrazacyclohexadec-15-yl]-N-methylheptadeca-2,4,6,8,10,12,14-heptaenamide

> <PUBCHEM_IUPAC_SYSTEMATIC_NAME>
(2E,4E,6E,8E,10E,12E,14E)-N-[(3S,6S,9S,12S,15S,16R)-3-(3-azanyl-3-oxidanylidene-propyl)-6,9,16-trimethyl-12-(2-methylpropyl)-2,5,8,11,14-pentakis(oxidanylidene)-1-oxa-4,7,10,13-tetrazacyclohexadec-15-yl]-N-methyl-heptadeca-2,4,6,8,10,12,14-heptaenamide

> <PUBCHEM_IUPAC_TRADITIONAL_NAME>
(2E,4E,6E,8E,10E,12E,14E)-N-[(3S,6S,9S,12S,15S,16R)-3-(3-amino-3-keto-propyl)-12-isobutyl-2,5,8,11,14-pentaketo-6,9,16-trimethyl-1-oxa-4,7,10,13-tetrazacyclohexadec-15-yl]-N-methyl-heptadeca-2,4,6,8,10,12,14-heptaenamide

> <PUBCHEM_IUPAC_INCHI>
InChI=1S/C39H56N6O8/c1-8-9-10-11-12-13-14-15-16-17-18-19-20-21-22-33(47)45(7)34-29(6)53-39(52)30(23-24-32(40)46)43-36(49)28(5)41-35(48)27(4)42-37(50)31(25-26(2)3)44-38(34)51/h9-22,26-31,34H,8,23-25H2,1-7H3,(H2,40,46)(H,41,48)(H,42,50)(H,43,49)(H,44,51)/b10-9+,12-11+,14-13+,16-15+,18-17+,20-19+,22-21+/t27-,28-,29+,30-,31-,34-/m0/s1

> <PUBCHEM_IUPAC_INCHIKEY>
XDRGEWSCPMOTER-NDSCBTMZSA-N

> <PUBCHEM_XLOGP3_AA>
4.1

> <PUBCHEM_EXACT_MASS>
736.415963

> <PUBCHEM_MOLECULAR_FORMULA>
C39H56N6O8

> <PUBCHEM_MOLECULAR_WEIGHT>
736.89734

> <PUBCHEM_OPENEYE_CAN_SMILES>
CCC=CC=CC=CC=CC=CC=CC=CC(=O)N(C)C1C(OC(=O)C(NC(=O)C(NC(=O)C(NC(=O)C(NC1=O)CC(C)C)C)C)CCC(=O)N)C

> <PUBCHEM_OPENEYE_ISO_SMILES>
CC/C=C/C=C/C=C/C=C/C=C/C=C/C=C/C(=O)N(C)[C@H]1[C@H](OC(=O)[C@@H](NC(=O)[C@@H](NC(=O)[C@@H](NC(=O)[C@@H](NC1=O)CC(C)C)C)C)CCC(=O)N)C

> <PUBCHEM_CACTVS_TPSA>
206

> <PUBCHEM_MONOISOTOPIC_WEIGHT>
736.415963

> <PUBCHEM_TOTAL_CHARGE>
0

> <PUBCHEM_HEAVY_ATOM_COUNT>
53

> <PUBCHEM_ATOM_DEF_STEREO_COUNT>
6

> <PUBCHEM_ATOM_UDEF_STEREO_COUNT>
0

> <PUBCHEM_BOND_DEF_STEREO_COUNT>
7

> <PUBCHEM_BOND_UDEF_STEREO_COUNT>
0

> <PUBCHEM_ISOTOPIC_ATOM_COUNT>
0

> <PUBCHEM_COMPONENT_COUNT>
1

> <PUBCHEM_CACTVS_TAUTO_COUNT>
486

> <PUBCHEM_COORDINATE_TYPE>
1
5
255

> <PUBCHEM_BONDANNOTATIONS>
18  10  6
15  16  6
19  24  5
25  28  5
26  33  6
30  36  6

$$$$

