1329
  -OEChem-07051213043D

 46 48  0     0  0  0  0  0  0999 V2000
    1.8545   -2.7937    0.0104 O   0  0  0  0  0  0  0  0  0  0  0  0
    3.0633    1.6840    0.7413 O   0  0  0  0  0  0  0  0  0  0  0  0
   -0.9568   -1.7948   -0.0657 N   0  0  0  0  0  0  0  0  0  0  0  0
   -1.4938    0.3526    0.1988 N   0  0  0  0  0  0  0  0  0  0  0  0
    0.8048    1.1803    0.4953 N   0  0  0  0  0  0  0  0  0  0  0  0
    2.4881   -0.5572    0.3779 N   0  0  0  0  0  0  0  0  0  0  0  0
   -3.4123   -1.2578   -0.1785 C   0  0  0  0  0  0  0  0  0  0  0  0
   -4.1032   -0.5850   -1.3804 C   0  0  0  0  0  0  0  0  0  0  0  0
   -4.2714   -0.9128    1.0497 C   0  0  0  0  0  0  0  0  0  0  0  0
   -5.2314    0.2540   -0.7905 C   0  0  0  0  0  0  0  0  0  0  0  0
   -5.6161   -0.4947    0.4735 C   0  0  0  0  0  0  0  0  0  0  0  0
   -1.9595   -0.8615   -0.0100 C   0  0  0  0  0  0  0  0  0  0  0  0
    0.2195   -1.1269    0.1201 C   0  0  0  0  0  0  0  0  0  0  0  0
   -0.1376    0.1841    0.2797 C   0  0  0  0  0  0  0  0  0  0  0  0
    1.5616   -1.6105    0.1556 C   0  0  0  0  0  0  0  0  0  0  0  0
    0.3750    2.5634    0.6600 C   0  0  0  0  0  0  0  0  0  0  0  0
    2.1796    0.8402    0.5528 C   0  0  0  0  0  0  0  0  0  0  0  0
    3.8981   -0.9278    0.4351 C   0  0  0  0  0  0  0  0  0  0  0  0
    0.3281    3.2684   -0.6932 C   0  0  0  0  0  0  0  0  0  0  0  0
    4.5203   -0.8612   -0.9573 C   0  0  0  0  0  0  0  0  0  0  0  0
   -0.0975    4.7213   -0.5463 C   0  0  0  0  0  0  0  0  0  0  0  0
    5.9866   -1.2643   -0.9285 C   0  0  0  0  0  0  0  0  0  0  0  0
   -3.4561   -2.3446   -0.3354 H   0  0  0  0  0  0  0  0  0  0  0  0
   -4.5288   -1.3583   -2.0321 H   0  0  0  0  0  0  0  0  0  0  0  0
   -3.4297    0.0231   -1.9932 H   0  0  0  0  0  0  0  0  0  0  0  0
   -3.8406   -0.0804    1.6199 H   0  0  0  0  0  0  0  0  0  0  0  0
   -4.3672   -1.7628    1.7333 H   0  0  0  0  0  0  0  0  0  0  0  0
   -6.0710    0.3652   -1.4825 H   0  0  0  0  0  0  0  0  0  0  0  0
   -4.8609    1.2548   -0.5384 H   0  0  0  0  0  0  0  0  0  0  0  0
   -6.1903    0.1256    1.1674 H   0  0  0  0  0  0  0  0  0  0  0  0
   -6.2145   -1.3793    0.2254 H   0  0  0  0  0  0  0  0  0  0  0  0
   -1.0668   -2.7892   -0.2158 H   0  0  0  0  0  0  0  0  0  0  0  0
   -0.6019    2.5909    1.1567 H   0  0  0  0  0  0  0  0  0  0  0  0
    1.0849    3.0778    1.3185 H   0  0  0  0  0  0  0  0  0  0  0  0
    4.4312   -0.2575    1.1188 H   0  0  0  0  0  0  0  0  0  0  0  0
    3.9937   -1.9425    0.8390 H   0  0  0  0  0  0  0  0  0  0  0  0
    1.3126    3.2276   -1.1744 H   0  0  0  0  0  0  0  0  0  0  0  0
   -0.3715    2.7541   -1.3629 H   0  0  0  0  0  0  0  0  0  0  0  0
    3.9792   -1.5217   -1.6452 H   0  0  0  0  0  0  0  0  0  0  0  0
    4.4326    0.1541   -1.3620 H   0  0  0  0  0  0  0  0  0  0  0  0
   -1.0948    4.7941   -0.1009 H   0  0  0  0  0  0  0  0  0  0  0  0
    0.6039    5.2731    0.0874 H   0  0  0  0  0  0  0  0  0  0  0  0
   -0.1263    5.2085   -1.5259 H   0  0  0  0  0  0  0  0  0  0  0  0
    6.5632   -0.5996   -0.2773 H   0  0  0  0  0  0  0  0  0  0  0  0
    6.1043   -2.2901   -0.5647 H   0  0  0  0  0  0  0  0  0  0  0  0
    6.4144   -1.2094   -1.9343 H   0  0  0  0  0  0  0  0  0  0  0  0
  1 15  2  0  0  0  0
  2 17  2  0  0  0  0
  3 12  1  0  0  0  0
  3 13  1  0  0  0  0
  3 32  1  0  0  0  0
  4 12  2  0  0  0  0
  4 14  1  0  0  0  0
  5 14  1  0  0  0  0
  5 16  1  0  0  0  0
  5 17  1  0  0  0  0
  6 15  1  0  0  0  0
  6 17  1  0  0  0  0
  6 18  1  0  0  0  0
  7  8  1  0  0  0  0
  7  9  1  0  0  0  0
  7 12  1  0  0  0  0
  7 23  1  0  0  0  0
  8 10  1  0  0  0  0
  8 24  1  0  0  0  0
  8 25  1  0  0  0  0
  9 11  1  0  0  0  0
  9 26  1  0  0  0  0
  9 27  1  0  0  0  0
 10 11  1  0  0  0  0
 10 28  1  0  0  0  0
 10 29  1  0  0  0  0
 11 30  1  0  0  0  0
 11 31  1  0  0  0  0
 13 14  2  0  0  0  0
 13 15  1  0  0  0  0
 16 19  1  0  0  0  0
 16 33  1  0  0  0  0
 16 34  1  0  0  0  0
 18 20  1  0  0  0  0
 18 35  1  0  0  0  0
 18 36  1  0  0  0  0
 19 21  1  0  0  0  0
 19 37  1  0  0  0  0
 19 38  1  0  0  0  0
 20 22  1  0  0  0  0
 20 39  1  0  0  0  0
 20 40  1  0  0  0  0
 21 41  1  0  0  0  0
 21 42  1  0  0  0  0
 21 43  1  0  0  0  0
 22 44  1  0  0  0  0
 22 45  1  0  0  0  0
 22 46  1  0  0  0  0
M  END
> <PUBCHEM_COMPOUND_CID>
1329

> <PUBCHEM_CONFORMER_RMSD>
0.8

> <PUBCHEM_CONFORMER_DIVERSEORDER>
1
3
21
18
15
17
2
8
7
4
19
13
11
22
16
9
6
10
14
20
5
12

> <PUBCHEM_MMFF94_PARTIAL_CHARGES>
15
1 -0.57
12 0.01
13 -0.24
14 0.29
15 0.71
16 0.3
17 0.69
18 0.3
2 -0.57
3 0.03
32 0.27
4 -0.57
5 -0.42
6 -0.42
7 0.18

> <PUBCHEM_EFFECTIVE_ROTOR_COUNT>
6

> <PUBCHEM_PHARMACOPHORE_FEATURES>
9
1 1 acceptor
1 2 acceptor
1 21 hydrophobe
1 22 hydrophobe
1 3 donor
3 3 4 12 cation
5 3 4 12 13 14 rings
5 7 8 9 10 11 rings
6 5 6 13 14 15 17 rings

> <PUBCHEM_HEAVY_ATOM_COUNT>
22

> <PUBCHEM_ATOM_DEF_STEREO_COUNT>
0

> <PUBCHEM_ATOM_UDEF_STEREO_COUNT>
0

> <PUBCHEM_BOND_DEF_STEREO_COUNT>
0

> <PUBCHEM_BOND_UDEF_STEREO_COUNT>
0

> <PUBCHEM_ISOTOPIC_ATOM_COUNT>
0

> <PUBCHEM_COMPONENT_COUNT>
1

> <PUBCHEM_CACTVS_TAUTO_COUNT>
5

> <PUBCHEM_CONFORMER_ID>
0000053100000001

> <PUBCHEM_MMFF94_ENERGY>
22.7225

> <PUBCHEM_FEATURE_SELFOVERLAP>
45.784

> <PUBCHEM_SHAPE_FINGERPRINT>
10366900 7 17632585920680217347
11471102 20 18336272253790701395
12173636 292 16826153235544602429
12236239 1 17385443207231373515
12553582 1 18410301323463962978
12788726 201 18200598136708620698
13009979 54 17968365763590468001
13134695 92 18341343227266871093
13140716 1 17980205180028290249
13583140 156 17272601368386508459
13862211 1 18335424594945900442
14022347 108 18343868797065188922
14289585 56 18262537977571608143
14347332 77 18120650490765708966
14363568 33 18127115395302795093
14508225 48 18410008862551785564
14955137 171 18340473474814452099
15081414 286 18338234847576351472
15210252 30 18059853948299906220
1601671 61 18410012160743354903
16087824 20 18195243554528399749
17357779 13 18336275625081650573
1813 80 18261376871591070468
18186145 218 18410581647869375691
18785283 64 18055912091903280225
20612939 158 18335700511833340801
20645477 70 18260270724255055415
20739085 24 18337940229899066425
21029758 27 18412257341869914811
21049683 271 18129649808158908229
21267235 1 18334005099590538067
21285901 2 18041830835512407014
21641784 216 18128238155841414900
21792961 116 18059294378332583439
221357 26 18339936982450359717
22182313 1 18267045945234069004
22289505 5 18341343278906595077
23175994 123 18341890779883731799
23402539 116 18186803607786564238
23557571 272 18338513170162423286
23558518 356 17695627737902180194
23559900 14 18335988558052096371
266924 87 18195809802161415294
2748010 2 18337400323004006346
283562 15 18339073921498686338
335352 9 18335138687309460183
352729 6 17325498094829521242
474 4 18194126222679294913
5104073 3 18263369101141602499
6443956 14 18411419475286759340
68521 5 18339360885064000740
7164475 11 18124880316070755310
7495541 125 18130499730911033371
9709674 26 18123754154007663307
9971528 1 18261118426213468801
9981440 41 17110456194916857329

> <PUBCHEM_SHAPE_MULTIPOLES>
421.09
10.61
3.65
0.99
2.56
6.14
0.15
-6.47
2.24
-1.55
0.56
0.23
0.04
0.7

> <PUBCHEM_SHAPE_SELFOVERLAP>
883.278

> <PUBCHEM_SHAPE_VOLUME>
236.8

> <PUBCHEM_COORDINATE_TYPE>
2
5
10

$$$$

