46173806
  -OEChem-07051213073D

 49 52  0     1  0  0  0  0  0999 V2000
   -1.8464    0.0940   -0.2094 O   0  0  0  0  0  0  0  0  0  0  0  0
   -0.2082   -0.6569    1.2743 O   0  0  0  0  0  0  0  0  0  0  0  0
   -4.2455   -3.1361    0.6258 O   0  0  0  0  0  0  0  0  0  0  0  0
   -4.7391   -1.5778   -1.7354 O   0  0  0  0  0  0  0  0  0  0  0  0
   -1.3998   -3.2505    1.2229 O   0  0  0  0  0  0  0  0  0  0  0  0
   -4.0281    1.7289   -0.6792 O   0  0  0  0  0  0  0  0  0  0  0  0
    2.5509    1.2603   -0.2419 O   0  0  0  0  0  0  0  0  0  0  0  0
    1.7798   -2.5695    0.9170 O   0  0  0  0  0  0  0  0  0  0  0  0
   -3.2315   -2.4187   -0.0802 C   0  0  1  0  0  0  0  0  0  0  0  0
   -3.8599   -1.1663   -0.6917 C   0  0  1  0  0  0  0  0  0  0  0  0
   -2.1060   -2.0563    0.8888 C   0  0  2  0  0  0  0  0  0  0  0  0
   -2.7809   -0.2298   -1.2404 C   0  0  1  0  0  0  0  0  0  0  0  0
   -1.1394   -1.0489    0.2664 C   0  0  1  0  0  0  0  0  0  0  0  0
   -3.3625    1.0852   -1.7503 C   0  0  0  0  0  0  0  0  0  0  0  0
    1.0180   -0.3348    0.7339 C   0  0  0  0  0  0  0  0  0  0  0  0
    1.3407    0.9088    0.3346 C   0  0  0  0  0  0  0  0  0  0  0  0
    2.0160   -1.4194    0.5721 C   0  0  0  0  0  0  0  0  0  0  0  0
    3.3043   -1.0371   -0.0263 C   0  0  0  0  0  0  0  0  0  0  0  0
    3.5043    0.2887   -0.4043 C   0  0  0  0  0  0  0  0  0  0  0  0
    0.4082    2.0437    0.4513 C   0  0  0  0  0  0  0  0  0  0  0  0
    4.3130   -1.9849   -0.2160 C   0  0  0  0  0  0  0  0  0  0  0  0
    4.7165    0.6758   -0.9764 C   0  0  0  0  0  0  0  0  0  0  0  0
   -0.0738    2.4243    1.7037 C   0  0  0  0  0  0  0  0  0  0  0  0
    0.0076    2.7373   -0.6905 C   0  0  0  0  0  0  0  0  0  0  0  0
    5.5248   -1.5952   -0.7878 C   0  0  0  0  0  0  0  0  0  0  0  0
    5.7263   -0.2676   -1.1674 C   0  0  0  0  0  0  0  0  0  0  0  0
   -0.9566    3.4987    1.8143 C   0  0  0  0  0  0  0  0  0  0  0  0
   -0.8752    3.8116   -0.5801 C   0  0  0  0  0  0  0  0  0  0  0  0
   -1.3573    4.1923    0.6723 C   0  0  0  0  0  0  0  0  0  0  0  0
   -2.8697   -3.0955   -0.8634 H   0  0  0  0  0  0  0  0  0  0  0  0
   -4.4693   -0.6637    0.0686 H   0  0  0  0  0  0  0  0  0  0  0  0
   -2.5187   -1.6614    1.8248 H   0  0  0  0  0  0  0  0  0  0  0  0
   -2.2485   -0.7024   -2.0764 H   0  0  0  0  0  0  0  0  0  0  0  0
   -0.6110   -1.5257   -0.5731 H   0  0  0  0  0  0  0  0  0  0  0  0
   -4.0744    0.9186   -2.5644 H   0  0  0  0  0  0  0  0  0  0  0  0
   -2.5667    1.7468   -2.1041 H   0  0  0  0  0  0  0  0  0  0  0  0
   -4.5799   -2.5647    1.3380 H   0  0  0  0  0  0  0  0  0  0  0  0
   -4.2046   -1.9989   -2.4301 H   0  0  0  0  0  0  0  0  0  0  0  0
   -0.9956   -3.5991    0.4101 H   0  0  0  0  0  0  0  0  0  0  0  0
   -4.3741    2.5708   -1.0210 H   0  0  0  0  0  0  0  0  0  0  0  0
    4.1746   -3.0230    0.0725 H   0  0  0  0  0  0  0  0  0  0  0  0
    4.8817    1.7075   -1.2748 H   0  0  0  0  0  0  0  0  0  0  0  0
    0.2317    1.9015    2.6068 H   0  0  0  0  0  0  0  0  0  0  0  0
    0.3699    2.4507   -1.6748 H   0  0  0  0  0  0  0  0  0  0  0  0
    6.3132   -2.3271   -0.9381 H   0  0  0  0  0  0  0  0  0  0  0  0
    6.6709    0.0316   -1.6124 H   0  0  0  0  0  0  0  0  0  0  0  0
   -1.3313    3.7959    2.7894 H   0  0  0  0  0  0  0  0  0  0  0  0
   -1.1893    4.3500   -1.4694 H   0  0  0  0  0  0  0  0  0  0  0  0
   -2.0455    5.0281    0.7580 H   0  0  0  0  0  0  0  0  0  0  0  0
  1 12  1  0  0  0  0
  1 13  1  0  0  0  0
  2 13  1  0  0  0  0
  2 15  1  0  0  0  0
  3  9  1  0  0  0  0
  3 37  1  0  0  0  0
  4 10  1  0  0  0  0
  4 38  1  0  0  0  0
  5 11  1  0  0  0  0
  5 39  1  0  0  0  0
  6 14  1  0  0  0  0
  6 40  1  0  0  0  0
  7 16  1  0  0  0  0
  7 19  1  0  0  0  0
  8 17  2  0  0  0  0
  9 10  1  0  0  0  0
  9 11  1  0  0  0  0
  9 30  1  0  0  0  0
 10 12  1  0  0  0  0
 10 31  1  0  0  0  0
 11 13  1  0  0  0  0
 11 32  1  0  0  0  0
 12 14  1  0  0  0  0
 12 33  1  0  0  0  0
 13 34  1  0  0  0  0
 14 35  1  0  0  0  0
 14 36  1  0  0  0  0
 15 16  2  0  0  0  0
 15 17  1  0  0  0  0
 16 20  1  0  0  0  0
 17 18  1  0  0  0  0
 18 19  1  0  0  0  0
 18 21  2  0  0  0  0
 19 22  2  0  0  0  0
 20 23  2  0  0  0  0
 20 24  1  0  0  0  0
 21 25  1  0  0  0  0
 21 41  1  0  0  0  0
 22 26  1  0  0  0  0
 22 42  1  0  0  0  0
 23 27  1  0  0  0  0
 23 43  1  0  0  0  0
 24 28  2  0  0  0  0
 24 44  1  0  0  0  0
 25 26  2  0  0  0  0
 25 45  1  0  0  0  0
 26 46  1  0  0  0  0
 27 29  2  0  0  0  0
 27 47  1  0  0  0  0
 28 29  1  0  0  0  0
 28 48  1  0  0  0  0
 29 49  1  0  0  0  0
M  END
> <PUBCHEM_COMPOUND_CID>
46173806

> <PUBCHEM_CONFORMER_RMSD>
0.8

> <PUBCHEM_CONFORMER_DIVERSEORDER>
1
21
13
19
17
10
14
22
20
15
8
12
4
6
16
3
2
18
11
9
7
5

> <PUBCHEM_MMFF94_PARTIAL_CHARGES>
42
1 -0.56
10 0.28
11 0.28
12 0.28
13 0.56
14 0.28
15 0.09
16 0.05
17 0.47
18 0.09
19 0.08
2 -0.36
20 0.03
21 -0.15
22 -0.15
23 -0.15
24 -0.15
25 -0.15
26 -0.15
27 -0.15
28 -0.15
29 -0.15
3 -0.68
37 0.4
38 0.4
39 0.4
4 -0.68
40 0.4
41 0.15
42 0.15
43 0.15
44 0.15
45 0.15
46 0.15
47 0.15
48 0.15
49 0.15
5 -0.68
6 -0.68
7 -0.16
8 -0.57
9 0.28

> <PUBCHEM_EFFECTIVE_ROTOR_COUNT>
5.2

> <PUBCHEM_PHARMACOPHORE_FEATURES>
16
1 1 acceptor
1 2 acceptor
1 3 acceptor
1 3 donor
1 4 acceptor
1 4 donor
1 5 acceptor
1 5 donor
1 6 acceptor
1 6 donor
1 7 acceptor
1 8 acceptor
6 1 9 10 11 12 13 rings
6 18 19 21 22 25 26 rings
6 20 23 24 27 28 29 rings
6 7 15 16 17 18 19 rings

> <PUBCHEM_HEAVY_ATOM_COUNT>
29

> <PUBCHEM_ATOM_DEF_STEREO_COUNT>
4

> <PUBCHEM_ATOM_UDEF_STEREO_COUNT>
1

> <PUBCHEM_BOND_DEF_STEREO_COUNT>
0

> <PUBCHEM_BOND_UDEF_STEREO_COUNT>
0

> <PUBCHEM_ISOTOPIC_ATOM_COUNT>
0

> <PUBCHEM_COMPONENT_COUNT>
1

> <PUBCHEM_CACTVS_TAUTO_COUNT>
1

> <PUBCHEM_CONFORMER_ID>
02C08E6E00000001

> <PUBCHEM_MMFF94_ENERGY>
92.3949

> <PUBCHEM_FEATURE_SELFOVERLAP>
81.284

> <PUBCHEM_SHAPE_FINGERPRINT>
10190206 1 17910357682500273052
10764073 3 5831226318687080916
1100329 8 17402331967716378138
11045515 52 18339636746228220809
11115154 58 18113909230530447565
11578080 2 17386019381077792480
12035759 4 18200032979384718800
12156800 1 10929332334394616165
12403259 226 18125439705248550347
12553582 1 18410858758810745091
12788726 201 18118129292779153921
13134695 92 17898003534335301369
13140716 1 18268448952246262875
13631057 29 18335139808844323244
13911987 19 17693352470851608348
14114206 34 18121245283189892917
14251740 79 18266459991261249988
14251757 5 18337394958241940869
14363568 33 18050557444163069113
14790565 3 18051409875055536117
14866123 147 18192424392921460371
14931854 50 18270973422232499879
15210252 30 17988649562241877428
16752209 62 18191877931627069560
17138139 8 17612633241768797757
17909252 39 18334856096057678482
1813 80 17677595497950389854
20775438 99 17180848084937465391
21049683 271 17910939258497202062
221357 26 18340772533540604231
22182313 1 18193569877984810744
22393880 68 18272091595772985054
23536364 44 18411980277740351367
23558518 356 18049722124616761402
23559900 14 18126015858300263207
25147074 1 18055352702894479042
283562 15 18411692184936377914
3027735 51 18116147964199264446
3493558 16 17343771596121031884
38695281 34 17329704835139922544
394222 165 16913425253196741257
46194498 28 17628074486388829863
463206 1 18193272996982183950
469060 322 16127502965835330985
6287921 2 17404582174112747783
7164475 11 18336824303644594174

> <PUBCHEM_SHAPE_MULTIPOLES>
549.85
9.54
4.75
1.46
8.82
3.1
0
-6.52
-5.17
-4.49
1.59
-0.86
0.34
-0.11

> <PUBCHEM_SHAPE_SELFOVERLAP>
1205.406

> <PUBCHEM_SHAPE_VOLUME>
293.2

> <PUBCHEM_COORDINATE_TYPE>
2
5
10

$$$$

