17395919
  -OEChem-06241222532D

 46 47  0     0  0  0  0  0  0999 V2000
    2.0000    4.3770    0.0000 F   0  0  0  0  0  0  0  0  0  0  0  0
    3.3660    4.7430    0.0000 F   0  0  0  0  0  0  0  0  0  0  0  0
    2.3660    3.0110    0.0000 F   0  0  0  0  0  0  0  0  0  0  0  0
    6.3301   -1.1230    0.0000 O   0  0  0  0  0  0  0  0  0  0  0  0
    9.7942   -1.1230    0.0000 O   0  0  0  0  0  0  0  0  0  0  0  0
    7.1962    0.3770    0.0000 N   0  0  0  0  0  0  0  0  0  0  0  0
    9.7942   -4.1230    0.0000 N   0  0  0  0  0  0  0  0  0  0  0  0
   10.6603   -2.6230    0.0000 N   0  0  0  0  0  0  0  0  0  0  0  0
    8.0622   -2.1230    0.0000 C   0  0  0  0  0  0  0  0  0  0  0  0
    8.0622   -1.1230    0.0000 C   0  0  0  0  0  0  0  0  0  0  0  0
    8.9282   -2.6230    0.0000 C   0  0  0  0  0  0  0  0  0  0  0  0
    6.3301    1.8770    0.0000 C   0  0  0  0  0  0  0  0  0  0  0  0
    6.3301    0.8770    0.0000 C   0  0  0  0  0  0  0  0  0  0  0  0
    8.9282   -3.6230    0.0000 C   0  0  0  0  0  0  0  0  0  0  0  0
    5.4641    2.3770    0.0000 C   0  0  0  0  0  0  0  0  0  0  0  0
    7.1962   -0.6230    0.0000 C   0  0  0  0  0  0  0  0  0  0  0  0
    9.7942   -2.1230    0.0000 C   0  0  0  0  0  0  0  0  0  0  0  0
    5.4641    3.3770    0.0000 C   0  0  0  0  0  0  0  0  0  0  0  0
    4.5981    1.8770    0.0000 C   0  0  0  0  0  0  0  0  0  0  0  0
    8.0622   -4.1230    0.0000 C   0  0  0  0  0  0  0  0  0  0  0  0
   10.6603   -3.6230    0.0000 C   0  0  0  0  0  0  0  0  0  0  0  0
    3.7320    3.3770    0.0000 C   0  0  0  0  0  0  0  0  0  0  0  0
    4.5981    3.8770    0.0000 C   0  0  0  0  0  0  0  0  0  0  0  0
    3.7320    2.3770    0.0000 C   0  0  0  0  0  0  0  0  0  0  0  0
   11.5263   -4.1230    0.0000 C   0  0  0  0  0  0  0  0  0  0  0  0
    2.8660    3.8770    0.0000 C   0  0  0  0  0  0  0  0  0  0  0  0
    7.4516   -2.0154    0.0000 H   0  0  0  0  0  0  0  0  0  0  0  0
    7.8501   -2.7056    0.0000 H   0  0  0  0  0  0  0  0  0  0  0  0
    8.6728   -1.2307    0.0000 H   0  0  0  0  0  0  0  0  0  0  0  0
    8.2742   -0.5404    0.0000 H   0  0  0  0  0  0  0  0  0  0  0  0
    6.9407    1.7693    0.0000 H   0  0  0  0  0  0  0  0  0  0  0  0
    6.5422    2.4596    0.0000 H   0  0  0  0  0  0  0  0  0  0  0  0
    5.7196    0.9846    0.0000 H   0  0  0  0  0  0  0  0  0  0  0  0
    6.1181    0.2944    0.0000 H   0  0  0  0  0  0  0  0  0  0  0  0
    7.7331    0.6870    0.0000 H   0  0  0  0  0  0  0  0  0  0  0  0
    9.7942   -4.7430    0.0000 H   0  0  0  0  0  0  0  0  0  0  0  0
    6.0010    3.6870    0.0000 H   0  0  0  0  0  0  0  0  0  0  0  0
    4.5981    1.2570    0.0000 H   0  0  0  0  0  0  0  0  0  0  0  0
    7.7522   -3.5861    0.0000 H   0  0  0  0  0  0  0  0  0  0  0  0
    7.5252   -4.4330    0.0000 H   0  0  0  0  0  0  0  0  0  0  0  0
    8.3722   -4.6600    0.0000 H   0  0  0  0  0  0  0  0  0  0  0  0
    4.5981    4.4970    0.0000 H   0  0  0  0  0  0  0  0  0  0  0  0
    3.1951    2.0670    0.0000 H   0  0  0  0  0  0  0  0  0  0  0  0
   11.2163   -4.6600    0.0000 H   0  0  0  0  0  0  0  0  0  0  0  0
   12.0632   -4.4330    0.0000 H   0  0  0  0  0  0  0  0  0  0  0  0
   11.8363   -3.5861    0.0000 H   0  0  0  0  0  0  0  0  0  0  0  0
  1 26  1  0  0  0  0
  2 26  1  0  0  0  0
  3 26  1  0  0  0  0
  4 16  2  0  0  0  0
  5 17  2  0  0  0  0
  6 13  1  0  0  0  0
  6 16  1  0  0  0  0
  6 35  1  0  0  0  0
  7 14  1  0  0  0  0
  7 21  1  0  0  0  0
  7 36  1  0  0  0  0
  8 17  1  0  0  0  0
  8 21  2  0  0  0  0
  9 10  1  0  0  0  0
  9 11  1  0  0  0  0
  9 27  1  0  0  0  0
  9 28  1  0  0  0  0
 10 16  1  0  0  0  0
 10 29  1  0  0  0  0
 10 30  1  0  0  0  0
 11 14  2  0  0  0  0
 11 17  1  0  0  0  0
 12 13  1  0  0  0  0
 12 15  1  0  0  0  0
 12 31  1  0  0  0  0
 12 32  1  0  0  0  0
 13 33  1  0  0  0  0
 13 34  1  0  0  0  0
 14 20  1  0  0  0  0
 15 18  2  0  0  0  0
 15 19  1  0  0  0  0
 18 23  1  0  0  0  0
 18 37  1  0  0  0  0
 19 24  2  0  0  0  0
 19 38  1  0  0  0  0
 20 39  1  0  0  0  0
 20 40  1  0  0  0  0
 20 41  1  0  0  0  0
 21 25  1  0  0  0  0
 22 23  2  0  0  0  0
 22 24  1  0  0  0  0
 22 26  1  0  0  0  0
 23 42  1  0  0  0  0
 24 43  1  0  0  0  0
 25 44  1  0  0  0  0
 25 45  1  0  0  0  0
 25 46  1  0  0  0  0
M  END
> <PUBCHEM_COMPOUND_CID>
17395919

> <PUBCHEM_COMPOUND_CANONICALIZED>
1

> <PUBCHEM_CACTVS_COMPLEXITY>
603

> <PUBCHEM_CACTVS_HBOND_ACCEPTOR>
5

> <PUBCHEM_CACTVS_HBOND_DONOR>
2

> <PUBCHEM_CACTVS_ROTATABLE_BOND>
6

> <PUBCHEM_CACTVS_SUBSKEYS>
AAADceB7MYAAAAAAAAAAAAAAAAAAAAAAAAAwQAAAAAAAAAABAAAAHwAQAAAADAjBmBQzAILAAACoAidydACCAAEgAAAJiIEYAMgIIDKAmRGEIAAglgCIiUcYg8AOQAAAAAAAAACAAAAAAAAAAAAAAAAAAA==

> <PUBCHEM_IUPAC_OPENEYE_NAME>
3-(2,6-dimethyl-4-oxo-1H-pyrimidin-5-yl)-N-[2-[4-(trifluoromethyl)phenyl]ethyl]propanamide

> <PUBCHEM_IUPAC_CAS_NAME>
3-(2,6-dimethyl-4-oxo-1H-pyrimidin-5-yl)-N-[2-[4-(trifluoromethyl)phenyl]ethyl]propanamide

> <PUBCHEM_IUPAC_NAME>
3-(2,6-dimethyl-4-oxo-1H-pyrimidin-5-yl)-N-[2-[4-(trifluoromethyl)phenyl]ethyl]propanamide

> <PUBCHEM_IUPAC_SYSTEMATIC_NAME>
3-(2,6-dimethyl-4-oxidanylidene-1H-pyrimidin-5-yl)-N-[2-[4-(trifluoromethyl)phenyl]ethyl]propanamide

> <PUBCHEM_IUPAC_TRADITIONAL_NAME>
3-(4-keto-2,6-dimethyl-1H-pyrimidin-5-yl)-N-[2-[4-(trifluoromethyl)phenyl]ethyl]propionamide

> <PUBCHEM_IUPAC_INCHI>
InChI=1S/C18H20F3N3O2/c1-11-15(17(26)24-12(2)23-11)7-8-16(25)22-10-9-13-3-5-14(6-4-13)18(19,20)21/h3-6H,7-10H2,1-2H3,(H,22,25)(H,23,24,26)

> <PUBCHEM_IUPAC_INCHIKEY>
SILXJGBAUBSEJE-UHFFFAOYSA-N

> <PUBCHEM_XLOGP3_AA>
2

> <PUBCHEM_EXACT_MASS>
367.150762

> <PUBCHEM_MOLECULAR_FORMULA>
C18H20F3N3O2

> <PUBCHEM_MOLECULAR_WEIGHT>
367.36551

> <PUBCHEM_OPENEYE_CAN_SMILES>
CC1=C(C(=O)N=C(N1)C)CCC(=O)NCCC2=CC=C(C=C2)C(F)(F)F

> <PUBCHEM_OPENEYE_ISO_SMILES>
CC1=C(C(=O)N=C(N1)C)CCC(=O)NCCC2=CC=C(C=C2)C(F)(F)F

> <PUBCHEM_CACTVS_TPSA>
70.6

> <PUBCHEM_MONOISOTOPIC_WEIGHT>
367.150762

> <PUBCHEM_TOTAL_CHARGE>
0

> <PUBCHEM_HEAVY_ATOM_COUNT>
26

> <PUBCHEM_ATOM_DEF_STEREO_COUNT>
0

> <PUBCHEM_ATOM_UDEF_STEREO_COUNT>
0

> <PUBCHEM_BOND_DEF_STEREO_COUNT>
0

> <PUBCHEM_BOND_UDEF_STEREO_COUNT>
0

> <PUBCHEM_ISOTOPIC_ATOM_COUNT>
0

> <PUBCHEM_COMPONENT_COUNT>
1

> <PUBCHEM_CACTVS_TAUTO_COUNT>
6

> <PUBCHEM_COORDINATE_TYPE>
1
5
255

> <PUBCHEM_BONDANNOTATIONS>
11  14  8
11  17  8
15  18  8
15  19  8
18  23  8
19  24  8
22  23  8
22  24  8
7  14  8
7  21  8
8  17  8
8  21  8

$$$$

