17395287
  -OEChem-06241222493D

 41 43  0     0  0  0  0  0  0999 V2000
   -0.5120   -1.4538    1.3581 Cl  0  0  0  0  0  0  0  0  0  0  0  0
   -6.6416   -0.2403    0.1155 O   0  0  0  0  0  0  0  0  0  0  0  0
    3.2144    2.9817   -0.4472 O   0  0  0  0  0  0  0  0  0  0  0  0
    2.1719   -0.8206    0.2613 N   0  0  0  0  0  0  0  0  0  0  0  0
    1.5511    1.4542   -0.0590 N   0  0  0  0  0  0  0  0  0  0  0  0
    3.5311   -0.5428    0.1022 C   0  0  0  0  0  0  0  0  0  0  0  0
    3.9283    0.7766   -0.1463 C   0  0  0  0  0  0  0  0  0  0  0  0
    4.5012   -1.5453    0.1848 C   0  0  0  0  0  0  0  0  0  0  0  0
    1.2514    0.2014    0.1710 C   0  0  0  0  0  0  0  0  0  0  0  0
    5.2788    1.0960   -0.3115 C   0  0  0  0  0  0  0  0  0  0  0  0
    5.8510   -1.2300    0.0200 C   0  0  0  0  0  0  0  0  0  0  0  0
    2.8735    1.8231   -0.2292 C   0  0  0  0  0  0  0  0  0  0  0  0
   -2.5485    0.3888   -0.1823 C   0  0  0  0  0  0  0  0  0  0  0  0
    6.2382    0.0873   -0.2273 C   0  0  0  0  0  0  0  0  0  0  0  0
    4.1316   -2.9693    0.4483 C   0  0  0  0  0  0  0  0  0  0  0  0
   -4.5556   -0.6996   -0.9721 C   0  0  0  0  0  0  0  0  0  0  0  0
   -0.1895   -0.1089    0.3420 C   0  0  0  0  0  0  0  0  0  0  0  0
   -3.1807   -0.4841   -1.0677 C   0  0  0  0  0  0  0  0  0  0  0  0
   -1.1014    0.6160   -0.2819 C   0  0  0  0  0  0  0  0  0  0  0  0
   -5.2980   -0.0423    0.0091 C   0  0  0  0  0  0  0  0  0  0  0  0
   -3.2910    1.0462    0.7988 C   0  0  0  0  0  0  0  0  0  0  0  0
   -4.6656    0.8307    0.8944 C   0  0  0  0  0  0  0  0  0  0  0  0
   -5.2164   -1.6370   -1.9280 C   0  0  0  0  0  0  0  0  0  0  0  0
   -7.3220    0.4720    1.1470 C   0  0  0  0  0  0  0  0  0  0  0  0
    1.8805   -1.7736    0.4403 H   0  0  0  0  0  0  0  0  0  0  0  0
    5.6004    2.1153   -0.5048 H   0  0  0  0  0  0  0  0  0  0  0  0
    6.6161   -1.9996    0.0815 H   0  0  0  0  0  0  0  0  0  0  0  0
    7.2898    0.3279   -0.3547 H   0  0  0  0  0  0  0  0  0  0  0  0
    3.6226   -3.0600    1.4136 H   0  0  0  0  0  0  0  0  0  0  0  0
    3.4776   -3.3476   -0.3444 H   0  0  0  0  0  0  0  0  0  0  0  0
    5.0113   -3.6213    0.4826 H   0  0  0  0  0  0  0  0  0  0  0  0
   -2.6005   -0.9957   -1.8328 H   0  0  0  0  0  0  0  0  0  0  0  0
   -0.8327    1.4457   -0.9308 H   0  0  0  0  0  0  0  0  0  0  0  0
   -2.8110    1.7296    1.4953 H   0  0  0  0  0  0  0  0  0  0  0  0
   -5.1764    1.3758    1.6806 H   0  0  0  0  0  0  0  0  0  0  0  0
   -5.6887   -2.4627   -1.3855 H   0  0  0  0  0  0  0  0  0  0  0  0
   -5.9774   -1.1096   -2.5128 H   0  0  0  0  0  0  0  0  0  0  0  0
   -4.5021   -2.0732   -2.6343 H   0  0  0  0  0  0  0  0  0  0  0  0
   -8.3795    0.1946    1.0858 H   0  0  0  0  0  0  0  0  0  0  0  0
   -7.2688    1.5551    0.9927 H   0  0  0  0  0  0  0  0  0  0  0  0
   -6.9731    0.1739    2.1416 H   0  0  0  0  0  0  0  0  0  0  0  0
  1 17  1  0  0  0  0
  2 20  1  0  0  0  0
  2 24  1  0  0  0  0
  3 12  2  0  0  0  0
  4  6  1  0  0  0  0
  4  9  1  0  0  0  0
  4 25  1  0  0  0  0
  5  9  2  0  0  0  0
  5 12  1  0  0  0  0
  6  7  1  0  0  0  0
  6  8  2  0  0  0  0
  7 10  2  0  0  0  0
  7 12  1  0  0  0  0
  8 11  1  0  0  0  0
  8 15  1  0  0  0  0
  9 17  1  0  0  0  0
 10 14  1  0  0  0  0
 10 26  1  0  0  0  0
 11 14  2  0  0  0  0
 11 27  1  0  0  0  0
 13 18  2  0  0  0  0
 13 19  1  0  0  0  0
 13 21  1  0  0  0  0
 14 28  1  0  0  0  0
 15 29  1  0  0  0  0
 15 30  1  0  0  0  0
 15 31  1  0  0  0  0
 16 18  1  0  0  0  0
 16 20  2  0  0  0  0
 16 23  1  0  0  0  0
 17 19  2  0  0  0  0
 18 32  1  0  0  0  0
 19 33  1  0  0  0  0
 20 22  1  0  0  0  0
 21 22  2  0  0  0  0
 21 34  1  0  0  0  0
 22 35  1  0  0  0  0
 23 36  1  0  0  0  0
 23 37  1  0  0  0  0
 23 38  1  0  0  0  0
 24 39  1  0  0  0  0
 24 40  1  0  0  0  0
 24 41  1  0  0  0  0
M  END
> <PUBCHEM_COMPOUND_CID>
17395287

> <PUBCHEM_CONFORMER_RMSD>
0.6

> <PUBCHEM_CONFORMER_DIVERSEORDER>
1
20
9
27
4
13
18
29
3
5
12
8
26
15
2
7
16
19
6
25
11
28
17
14
31
24
10
22
21
30
23

> <PUBCHEM_MMFF94_PARTIAL_CHARGES>
32
1 -0.14
10 -0.15
11 -0.15
12 0.69
13 0.03
14 -0.15
15 0.14
16 -0.14
17 0.15
18 -0.15
19 -0.18
2 -0.36
20 0.08
21 -0.15
22 -0.15
23 0.14
24 0.28
25 0.4
26 0.15
27 0.15
28 0.15
3 -0.57
32 0.15
33 0.15
34 0.15
35 0.15
4 -0.55
5 -0.66
6 0.1
7 0.09
8 -0.14
9 0.49

> <PUBCHEM_EFFECTIVE_ROTOR_COUNT>
3

> <PUBCHEM_PHARMACOPHORE_FEATURES>
7
1 2 acceptor
1 3 acceptor
1 4 donor
1 5 donor
6 13 16 18 20 21 22 rings
6 4 5 6 7 9 12 rings
6 6 7 8 10 11 14 rings

> <PUBCHEM_HEAVY_ATOM_COUNT>
24

> <PUBCHEM_ATOM_DEF_STEREO_COUNT>
0

> <PUBCHEM_ATOM_UDEF_STEREO_COUNT>
0

> <PUBCHEM_BOND_DEF_STEREO_COUNT>
1

> <PUBCHEM_BOND_UDEF_STEREO_COUNT>
0

> <PUBCHEM_ISOTOPIC_ATOM_COUNT>
0

> <PUBCHEM_COMPONENT_COUNT>
1

> <PUBCHEM_CACTVS_TAUTO_COUNT>
3

> <PUBCHEM_CONFORMER_ID>
01096E5700000001

> <PUBCHEM_MMFF94_ENERGY>
89.0983

> <PUBCHEM_FEATURE_SELFOVERLAP>
35.581

> <PUBCHEM_SHAPE_FINGERPRINT>
10299344 5 18260266343931530999
10411042 1 18125441076229425626
10595046 47 18261394416464090837
11796584 16 17312821550305411926
12107183 9 17758391164128688216
12166972 35 18260547814233927936
12236239 1 18113337496398293021
12403259 415 17418100910036302917
12596602 18 17313390006902564314
12616971 3 18335422357441415085
12730499 353 17846779611506756370
12788726 201 17531237400885861987
13167823 11 18260552207773916167
13533116 47 18409167727439404056
1361 2 18409166645203532670
13685833 64 18202842171231886377
13782708 43 17131276877691572754
14170010 4 18342738507791803696
14251764 18 18040435486816655367
14294032 229 16735208630444598425
15183329 4 18409174319824131687
15250474 111 18187377492948670511
15419008 47 16845858983938691309
15483637 11 18126843798703931986
17844677 252 18341327881175045285
17857418 61 18260833695751547183
18681886 176 17603589582820672356
200 152 18260830397079435840
20612939 158 18342174440877925260
20645477 70 18341895234071221122
21033648 144 18270970024828939996
21033648 29 17346332474281539125
21033650 10 17388223919229815160
21150785 3 15769768052907830582
21267235 1 18411412934193654436
21285901 2 17560522910625050582
220451 1 18260266347809695495
221357 26 18272654566816043076
2303208 19 17203887474944352403
23081809 10 18041000596943506349
23402539 116 18259988175631329805
23516275 137 17824237462458601430
23522609 53 18116408424001762033
23536379 177 18113336422709041233
23557571 272 14707197859835801512
23559900 14 18271808956659417320
23569914 152 16905574770366351399
23569943 247 18051408767091390874
3004659 81 17967529073548399588
314194 84 18411138060819204162
335352 9 18342733015103340006
345986 75 18190471634912261544
34797466 226 16515400751547140872
4015057 19 18270962336895638649
4073 2 18201151044881025186
4325135 7 18334012804508289287
46194498 28 17489867133719665660
5104073 3 17313951810305543539
7495541 125 17313389980758259593
9981440 41 17399810297637888576

> <PUBCHEM_SHAPE_MULTIPOLES>
474.08
18
2.12
1.1
11.22
0.16
-0.15
2.1
-0.12
-3.02
-0.08
1.75
0.36
-1.97

> <PUBCHEM_SHAPE_SELFOVERLAP>
1024.96

> <PUBCHEM_SHAPE_VOLUME>
261.2

> <PUBCHEM_COORDINATE_TYPE>
2
5
10

$$$$

