441898
  -OEChem-07051212562D

 93 99  0     1  0  0  0  0  0999 V2000
    5.5954   -4.3745    0.0000 O   0  0  0  0  0  0  0  0  0  0  0  0
    3.9300   -3.2933    0.0000 O   0  0  0  0  0  0  0  0  0  0  0  0
    8.3882    0.9630    0.0000 O   0  0  0  0  0  0  0  0  0  0  0  0
   10.1833    2.0366    0.0000 O   0  0  0  0  0  0  0  0  0  0  0  0
   12.0027    1.0048    0.0000 O   0  0  0  0  0  0  0  0  0  0  0  0
    9.2252    2.4794    0.0000 O   0  0  0  0  0  0  0  0  0  0  0  0
    6.6372    1.9294    0.0000 O   0  0  0  0  0  0  0  0  0  0  0  0
    6.5986    3.9290    0.0000 O   0  0  0  0  0  0  0  0  0  0  0  0
    8.3111    4.9622    0.0000 O   0  0  0  0  0  0  0  0  0  0  0  0
    6.6628   -2.1396    0.0000 C   0  0  1  0  0  0  0  0  0  0  0  0
    7.5288   -2.6396    0.0000 C   0  0  2  0  0  0  0  0  0  0  0  0
    8.3948   -2.1396    0.0000 C   0  0  1  0  0  0  0  0  0  0  0  0
    5.9258   -2.8067    0.0000 C   0  0  2  0  0  0  0  0  0  0  0  0
    8.3948   -1.1396    0.0000 C   0  0  1  0  0  0  0  0  0  0  0  0
    9.2888   -0.6050    0.0000 C   0  0  2  0  0  0  0  0  0  0  0  0
    6.3309   -3.7145    0.0000 C   0  0  2  0  0  0  0  0  0  0  0  0
    7.3196   -3.6114    0.0000 C   0  0  0  0  0  0  0  0  0  0  0  0
    6.6628   -1.1396    0.0000 C   0  0  0  0  0  0  0  0  0  0  0  0
    7.5288   -0.6396    0.0000 C   0  0  0  0  0  0  0  0  0  0  0  0
    4.9434   -2.9134    0.0000 C   0  0  1  0  0  0  0  0  0  0  0  0
   10.1949   -1.1188    0.0000 C   0  0  2  0  0  0  0  0  0  0  0  0
    9.2888   -2.6743    0.0000 C   0  0  0  0  0  0  0  0  0  0  0  0
    4.7396   -3.8804    0.0000 C   0  0  1  0  0  0  0  0  0  0  0  0
   10.1949   -2.1604    0.0000 C   0  0  0  0  0  0  0  0  0  0  0  0
    9.2637    0.4797    0.0000 C   0  0  1  0  0  0  0  0  0  0  0  0
    5.7968   -1.6396    0.0000 C   0  0  0  0  0  0  0  0  0  0  0  0
   11.1386   -0.5836    0.0000 C   0  0  0  0  0  0  0  0  0  0  0  0
    8.4189   -0.1117    0.0000 C   0  0  0  0  0  0  0  0  0  0  0  0
   10.1949    1.0367    0.0000 C   0  0  1  0  0  0  0  0  0  0  0  0
   11.1386    0.5014    0.0000 C   0  0  1  0  0  0  0  0  0  0  0  0
    4.2723   -2.1720    0.0000 C   0  0  0  0  0  0  0  0  0  0  0  0
    4.6359   -4.8750    0.0000 C   0  0  0  0  0  0  0  0  0  0  0  0
    3.7227   -5.2825    0.0000 C   0  0  0  0  0  0  0  0  0  0  0  0
    3.0169   -3.7008    0.0000 C   0  0  0  0  0  0  0  0  0  0  0  0
    2.9132   -4.6954    0.0000 C   0  0  2  0  0  0  0  0  0  0  0  0
    8.3689    1.9628    0.0000 C   0  0  2  0  0  0  0  0  0  0  0  0
    2.0000   -5.1029    0.0000 C   0  0  0  0  0  0  0  0  0  0  0  0
    7.4934    2.4460    0.0000 C   0  0  1  0  0  0  0  0  0  0  0  0
    7.4742    3.4458    0.0000 C   0  0  2  0  0  0  0  0  0  0  0  0
    9.2059    3.4792    0.0000 C   0  0  0  0  0  0  0  0  0  0  0  0
    8.3304    3.9624    0.0000 C   0  0  2  0  0  0  0  0  0  0  0  0
    8.2158   -3.1401    0.0000 H   0  0  0  0  0  0  0  0  0  0  0  0
    8.3883   -2.9896    0.0000 H   0  0  0  0  0  0  0  0  0  0  0  0
    5.5777   -2.0312    0.0000 H   0  0  0  0  0  0  0  0  0  0  0  0
    8.3883   -0.2897    0.0000 H   0  0  0  0  0  0  0  0  0  0  0  0
    6.6756   -4.4915    0.0000 H   0  0  0  0  0  0  0  0  0  0  0  0
    7.3187   -4.2314    0.0000 H   0  0  0  0  0  0  0  0  0  0  0  0
    7.9361   -3.6775    0.0000 H   0  0  0  0  0  0  0  0  0  0  0  0
    6.4507   -0.5570    0.0000 H   0  0  0  0  0  0  0  0  0  0  0  0
    6.0522   -1.2473    0.0000 H   0  0  0  0  0  0  0  0  0  0  0  0
    7.9274   -0.1647    0.0000 H   0  0  0  0  0  0  0  0  0  0  0  0
    7.1303   -0.1647    0.0000 H   0  0  0  0  0  0  0  0  0  0  0  0
    5.1638   -2.3339    0.0000 H   0  0  0  0  0  0  0  0  0  0  0  0
   10.9293   -1.5466    0.0000 H   0  0  0  0  0  0  0  0  0  0  0  0
    8.8842   -3.1441    0.0000 H   0  0  0  0  0  0  0  0  0  0  0  0
    9.6824   -3.1533    0.0000 H   0  0  0  0  0  0  0  0  0  0  0  0
   10.4039   -2.7441    0.0000 H   0  0  0  0  0  0  0  0  0  0  0  0
   10.8057   -2.0544    0.0000 H   0  0  0  0  0  0  0  0  0  0  0  0
    9.2529    1.0996    0.0000 H   0  0  0  0  0  0  0  0  0  0  0  0
    6.1068   -1.1027    0.0000 H   0  0  0  0  0  0  0  0  0  0  0  0
    5.2598   -1.3296    0.0000 H   0  0  0  0  0  0  0  0  0  0  0  0
    5.4868   -2.1766    0.0000 H   0  0  0  0  0  0  0  0  0  0  0  0
   11.3477   -1.1673    0.0000 H   0  0  0  0  0  0  0  0  0  0  0  0
   11.7495   -0.4775    0.0000 H   0  0  0  0  0  0  0  0  0  0  0  0
    8.7248    0.4276    0.0000 H   0  0  0  0  0  0  0  0  0  0  0  0
    7.8796    0.1942    0.0000 H   0  0  0  0  0  0  0  0  0  0  0  0
    8.1131   -0.6510    0.0000 H   0  0  0  0  0  0  0  0  0  0  0  0
    9.6538    1.3394    0.0000 H   0  0  0  0  0  0  0  0  0  0  0  0
   11.1351    1.1214    0.0000 H   0  0  0  0  0  0  0  0  0  0  0  0
    4.7320   -1.7560    0.0000 H   0  0  0  0  0  0  0  0  0  0  0  0
    3.8562   -1.7123    0.0000 H   0  0  0  0  0  0  0  0  0  0  0  0
    3.8126   -2.5881    0.0000 H   0  0  0  0  0  0  0  0  0  0  0  0
    4.7864   -5.4764    0.0000 H   0  0  0  0  0  0  0  0  0  0  0  0
    5.2544   -4.8312    0.0000 H   0  0  0  0  0  0  0  0  0  0  0  0
    3.2771   -5.7136    0.0000 H   0  0  0  0  0  0  0  0  0  0  0  0
    4.0699   -5.7962    0.0000 H   0  0  0  0  0  0  0  0  0  0  0  0
    2.8664   -3.0994    0.0000 H   0  0  0  0  0  0  0  0  0  0  0  0
    2.3984   -3.7446    0.0000 H   0  0  0  0  0  0  0  0  0  0  0  0
    2.4113   -4.3314    0.0000 H   0  0  0  0  0  0  0  0  0  0  0  0
   10.7166    2.3528    0.0000 H   0  0  0  0  0  0  0  0  0  0  0  0
    7.8381    1.6425    0.0000 H   0  0  0  0  0  0  0  0  0  0  0  0
   12.5409    0.6968    0.0000 H   0  0  0  0  0  0  0  0  0  0  0  0
    1.7473   -4.5368    0.0000 H   0  0  0  0  0  0  0  0  0  0  0  0
    1.4338   -5.3556    0.0000 H   0  0  0  0  0  0  0  0  0  0  0  0
    2.2527   -5.6691    0.0000 H   0  0  0  0  0  0  0  0  0  0  0  0
    6.9506    2.7456    0.0000 H   0  0  0  0  0  0  0  0  0  0  0  0
    7.4622    4.0657    0.0000 H   0  0  0  0  0  0  0  0  0  0  0  0
    9.8184    3.3833    0.0000 H   0  0  0  0  0  0  0  0  0  0  0  0
    9.4067    4.0658    0.0000 H   0  0  0  0  0  0  0  0  0  0  0  0
    8.8612    4.2827    0.0000 H   0  0  0  0  0  0  0  0  0  0  0  0
    6.0944    2.2290    0.0000 H   0  0  0  0  0  0  0  0  0  0  0  0
    6.5867    4.5489    0.0000 H   0  0  0  0  0  0  0  0  0  0  0  0
    8.8420    5.2825    0.0000 H   0  0  0  0  0  0  0  0  0  0  0  0
  1 16  1  0  0  0  0
 23  1  1  1  0  0  0
  2 23  1  0  0  0  0
  2 34  1  0  0  0  0
 25  3  1  6  0  0  0
 36  3  1  1  0  0  0
 29  4  1  6  0  0  0
  4 80  1  0  0  0  0
 30  5  1  1  0  0  0
  5 82  1  0  0  0  0
  6 36  1  0  0  0  0
  6 40  1  0  0  0  0
 38  7  1  6  0  0  0
  7 91  1  0  0  0  0
 39  8  1  1  0  0  0
  8 92  1  0  0  0  0
 41  9  1  1  0  0  0
  9 93  1  0  0  0  0
 10 11  1  0  0  0  0
 10 13  1  0  0  0  0
 10 18  1  0  0  0  0
 10 26  1  6  0  0  0
 11 12  1  0  0  0  0
 11 17  1  0  0  0  0
 11 42  1  1  0  0  0
 12 14  1  0  0  0  0
 12 22  1  0  0  0  0
 12 43  1  6  0  0  0
 13 16  1  0  0  0  0
 13 20  1  0  0  0  0
 13 44  1  1  0  0  0
 14 15  1  0  0  0  0
 14 19  1  0  0  0  0
 14 45  1  1  0  0  0
 15 21  1  0  0  0  0
 15 25  1  0  0  0  0
 15 28  1  6  0  0  0
 16 17  1  0  0  0  0
 16 46  1  1  0  0  0
 17 47  1  0  0  0  0
 17 48  1  0  0  0  0
 18 19  1  0  0  0  0
 18 49  1  0  0  0  0
 18 50  1  0  0  0  0
 19 51  1  0  0  0  0
 19 52  1  0  0  0  0
 20 23  1  0  0  0  0
 20 31  1  1  0  0  0
 20 53  1  0  0  0  0
 21 24  1  0  0  0  0
 21 27  1  0  0  0  0
 21 54  1  6  0  0  0
 22 24  1  0  0  0  0
 22 55  1  0  0  0  0
 22 56  1  0  0  0  0
 23 32  1  0  0  0  0
 24 57  1  0  0  0  0
 24 58  1  0  0  0  0
 25 29  1  0  0  0  0
 25 59  1  0  0  0  0
 26 60  1  0  0  0  0
 26 61  1  0  0  0  0
 26 62  1  0  0  0  0
 27 30  1  0  0  0  0
 27 63  1  0  0  0  0
 27 64  1  0  0  0  0
 28 65  1  0  0  0  0
 28 66  1  0  0  0  0
 28 67  1  0  0  0  0
 29 30  1  0  0  0  0
 29 68  1  0  0  0  0
 30 69  1  0  0  0  0
 31 70  1  0  0  0  0
 31 71  1  0  0  0  0
 31 72  1  0  0  0  0
 32 33  1  0  0  0  0
 32 73  1  0  0  0  0
 32 74  1  0  0  0  0
 33 35  1  0  0  0  0
 33 75  1  0  0  0  0
 33 76  1  0  0  0  0
 34 35  1  0  0  0  0
 34 77  1  0  0  0  0
 34 78  1  0  0  0  0
 35 37  1  1  0  0  0
 35 79  1  0  0  0  0
 36 38  1  0  0  0  0
 36 81  1  0  0  0  0
 37 83  1  0  0  0  0
 37 84  1  0  0  0  0
 37 85  1  0  0  0  0
 38 39  1  0  0  0  0
 38 86  1  0  0  0  0
 39 41  1  0  0  0  0
 39 87  1  0  0  0  0
 40 41  1  0  0  0  0
 40 88  1  0  0  0  0
 40 89  1  0  0  0  0
 41 90  1  0  0  0  0
M  END
> <PUBCHEM_COMPOUND_CID>
441898

> <PUBCHEM_COMPOUND_CANONICALIZED>
1

> <PUBCHEM_CACTVS_COMPLEXITY>
996

> <PUBCHEM_CACTVS_HBOND_ACCEPTOR>
9

> <PUBCHEM_CACTVS_HBOND_DONOR>
5

> <PUBCHEM_CACTVS_ROTATABLE_BOND>
2

> <PUBCHEM_CACTVS_SUBSKEYS>
AAADcfB8PAAAAAAAAAAAAAAAAAAAAaIAAAA0aMECAAASAGDAAAAAGgAACAAADxSwgAMCCAAABgAAAAAAAAAAAAAAAAAAAAAAAAAREAIAAAAiQAAFAAAHAAHA4PwPgAAAAAAAAADAAAYQADCAAYAADAAAAA==

> <PUBCHEM_IUPAC_INCHI>
InChI=1S/C32H52O9/c1-15-7-10-32(39-13-15)16(2)24-23(41-32)12-20-18-6-5-17-11-21(33)26(36)28(31(17,4)19(18)8-9-30(20,24)3)40-29-27(37)25(35)22(34)14-38-29/h15-29,33-37H,5-14H2,1-4H3/t15-,16+,17-,18-,19+,20+,21+,22+,23+,24+,25+,26-,27-,28-,29+,30+,31+,32-/m1/s1

> <PUBCHEM_IUPAC_INCHIKEY>
GZMNAJUVLAIUAJ-QULIKHEVSA-N

> <PUBCHEM_XLOGP3_AA>
3

> <PUBCHEM_EXACT_MASS>
580.361133

> <PUBCHEM_MOLECULAR_FORMULA>
C32H52O9

> <PUBCHEM_MOLECULAR_WEIGHT>
580.74988

> <PUBCHEM_OPENEYE_CAN_SMILES>
CC1CCC2(C(C3C(O2)CC4C3(CCC5C4CCC6C5(C(C(C(C6)O)O)OC7C(C(C(CO7)O)O)O)C)C)C)OC1

> <PUBCHEM_OPENEYE_ISO_SMILES>
C[C@@H]1CC[C@@]2([C@H]([C@H]3[C@@H](O2)C[C@@H]4[C@@]3(CC[C@H]5[C@H]4CC[C@H]6[C@@]5([C@@H]([C@@H]([C@H](C6)O)O)O[C@H]7[C@@H]([C@H]([C@H](CO7)O)O)O)C)C)C)OC1

> <PUBCHEM_CACTVS_TPSA>
138

> <PUBCHEM_MONOISOTOPIC_WEIGHT>
580.361133

> <PUBCHEM_TOTAL_CHARGE>
0

> <PUBCHEM_HEAVY_ATOM_COUNT>
41

> <PUBCHEM_ATOM_DEF_STEREO_COUNT>
18

> <PUBCHEM_ATOM_UDEF_STEREO_COUNT>
0

> <PUBCHEM_BOND_DEF_STEREO_COUNT>
0

> <PUBCHEM_BOND_UDEF_STEREO_COUNT>
0

> <PUBCHEM_ISOTOPIC_ATOM_COUNT>
0

> <PUBCHEM_COMPONENT_COUNT>
1

> <PUBCHEM_CACTVS_TAUTO_COUNT>
1

> <PUBCHEM_COORDINATE_TYPE>
1
5
255

> <PUBCHEM_BONDANNOTATIONS>
23  1  5
10  26  6
11  42  5
12  43  6
13  44  5
14  45  5
15  28  6
16  46  5
20  31  5
21  54  6
25  3  6
36  3  5
35  37  5
29  4  6
30  5  5
38  7  6
39  8  5
41  9  5

$$$$

