51090887
  -OEChem-06241223003D

 54 55  0     1  0  0  0  0  0999 V2000
   -5.5237    0.0113   -0.0004 O   0  0  0  0  0  0  0  0  0  0  0  0
   -0.6700   -2.3257   -0.8929 O   0  0  0  0  0  0  0  0  0  0  0  0
    2.6468   -1.3785    0.8391 O   0  0  0  0  0  0  0  0  0  0  0  0
   -2.7826    0.7730   -0.0377 N   0  0  0  0  0  0  0  0  0  0  0  0
   -0.0737   -0.2699    0.0112 N   0  0  0  0  0  0  0  0  0  0  0  0
   -3.3476   -0.1112   -1.0676 C   0  0  0  0  0  0  0  0  0  0  0  0
   -3.8237    1.6772    0.4725 C   0  0  0  0  0  0  0  0  0  0  0  0
   -1.6525    1.5318   -0.5697 C   0  0  2  0  0  0  0  0  0  0  0  0
   -4.9954    0.8584    1.0259 C   0  0  1  0  0  0  0  0  0  0  0  0
   -4.5283   -0.8964   -0.4853 C   0  0  2  0  0  0  0  0  0  0  0  0
   -0.5784    0.5547   -1.0536 C   0  0  0  0  0  0  0  0  0  0  0  0
   -1.1302    2.4683    0.5192 C   0  0  0  0  0  0  0  0  0  0  0  0
   -6.1212    1.7659    1.5029 C   0  0  0  0  0  0  0  0  0  0  0  0
   -5.1790   -1.7743   -1.5458 C   0  0  0  0  0  0  0  0  0  0  0  0
   -0.1620   -1.6582    0.0039 C   0  0  0  0  0  0  0  0  0  0  0  0
    0.4539   -2.2684    1.2529 C   0  0  0  0  0  0  0  0  0  0  0  0
    1.9336   -2.5820    1.0927 C   0  0  0  0  0  0  0  0  0  0  0  0
    3.9134   -1.6376    0.2495 C   0  0  0  0  0  0  0  0  0  0  0  0
    4.6164   -0.3344    0.0064 C   0  0  0  0  0  0  0  0  0  0  0  0
    4.4451    0.3353   -1.2051 C   0  0  0  0  0  0  0  0  0  0  0  0
    5.4414    0.2072    0.9920 C   0  0  0  0  0  0  0  0  0  0  0  0
    5.0988    1.5467   -1.4311 C   0  0  0  0  0  0  0  0  0  0  0  0
    6.0951    1.4185    0.7663 C   0  0  0  0  0  0  0  0  0  0  0  0
    5.9238    2.0882   -0.4453 C   0  0  0  0  0  0  0  0  0  0  0  0
   -3.4633    2.2930    1.3022 H   0  0  0  0  0  0  0  0  0  0  0  0
   -4.1742    2.3438   -0.3269 H   0  0  0  0  0  0  0  0  0  0  0  0
   -3.6842    0.4823   -1.9286 H   0  0  0  0  0  0  0  0  0  0  0  0
   -2.6396   -0.8558   -1.4304 H   0  0  0  0  0  0  0  0  0  0  0  0
   -1.9601    2.1459   -1.4272 H   0  0  0  0  0  0  0  0  0  0  0  0
   -4.6681    0.2340    1.8677 H   0  0  0  0  0  0  0  0  0  0  0  0
   -4.1966   -1.5359    0.3433 H   0  0  0  0  0  0  0  0  0  0  0  0
    0.2846    1.1360   -1.4034 H   0  0  0  0  0  0  0  0  0  0  0  0
   -0.8774   -0.0451   -1.9176 H   0  0  0  0  0  0  0  0  0  0  0  0
   -1.0275    1.9707    1.4906 H   0  0  0  0  0  0  0  0  0  0  0  0
   -0.1385    2.8491    0.2468 H   0  0  0  0  0  0  0  0  0  0  0  0
   -1.7643    3.3526    0.6433 H   0  0  0  0  0  0  0  0  0  0  0  0
   -5.5707   -1.1693   -2.3710 H   0  0  0  0  0  0  0  0  0  0  0  0
   -6.5138    2.3718    0.6788 H   0  0  0  0  0  0  0  0  0  0  0  0
   -5.7838    2.4339    2.3011 H   0  0  0  0  0  0  0  0  0  0  0  0
   -6.9585    1.1680    1.8788 H   0  0  0  0  0  0  0  0  0  0  0  0
   -6.0318   -2.3150   -1.1213 H   0  0  0  0  0  0  0  0  0  0  0  0
   -4.4701   -2.5034   -1.9496 H   0  0  0  0  0  0  0  0  0  0  0  0
    0.4224    0.1879    0.7703 H   0  0  0  0  0  0  0  0  0  0  0  0
    0.3071   -1.5798    2.0939 H   0  0  0  0  0  0  0  0  0  0  0  0
   -0.1009   -3.1839    1.4869 H   0  0  0  0  0  0  0  0  0  0  0  0
    2.0615   -3.2847    0.2601 H   0  0  0  0  0  0  0  0  0  0  0  0
    2.3262   -3.0433    2.0051 H   0  0  0  0  0  0  0  0  0  0  0  0
    3.7868   -2.1739   -0.6994 H   0  0  0  0  0  0  0  0  0  0  0  0
    4.5116   -2.2745    0.9131 H   0  0  0  0  0  0  0  0  0  0  0  0
    3.8024   -0.0751   -1.9795 H   0  0  0  0  0  0  0  0  0  0  0  0
    5.5812   -0.3042    1.9408 H   0  0  0  0  0  0  0  0  0  0  0  0
    4.9648    2.0687   -2.3740 H   0  0  0  0  0  0  0  0  0  0  0  0
    6.7371    1.8406    1.5339 H   0  0  0  0  0  0  0  0  0  0  0  0
    6.4326    3.0316   -0.6210 H   0  0  0  0  0  0  0  0  0  0  0  0
  1  9  1  0  0  0  0
  1 10  1  0  0  0  0
  2 15  2  0  0  0  0
  3 17  1  0  0  0  0
  3 18  1  0  0  0  0
  4  6  1  0  0  0  0
  4  7  1  0  0  0  0
  4  8  1  0  0  0  0
  5 11  1  0  0  0  0
  5 15  1  0  0  0  0
  5 43  1  0  0  0  0
  6 10  1  0  0  0  0
  6 27  1  0  0  0  0
  6 28  1  0  0  0  0
  7  9  1  0  0  0  0
  7 25  1  0  0  0  0
  7 26  1  0  0  0  0
  8 11  1  0  0  0  0
  8 12  1  0  0  0  0
  8 29  1  0  0  0  0
  9 13  1  0  0  0  0
  9 30  1  0  0  0  0
 10 14  1  0  0  0  0
 10 31  1  0  0  0  0
 11 32  1  0  0  0  0
 11 33  1  0  0  0  0
 12 34  1  0  0  0  0
 12 35  1  0  0  0  0
 12 36  1  0  0  0  0
 13 38  1  0  0  0  0
 13 39  1  0  0  0  0
 13 40  1  0  0  0  0
 14 37  1  0  0  0  0
 14 41  1  0  0  0  0
 14 42  1  0  0  0  0
 15 16  1  0  0  0  0
 16 17  1  0  0  0  0
 16 44  1  0  0  0  0
 16 45  1  0  0  0  0
 17 46  1  0  0  0  0
 17 47  1  0  0  0  0
 18 19  1  0  0  0  0
 18 48  1  0  0  0  0
 18 49  1  0  0  0  0
 19 20  2  0  0  0  0
 19 21  1  0  0  0  0
 20 22  1  0  0  0  0
 20 50  1  0  0  0  0
 21 23  2  0  0  0  0
 21 51  1  0  0  0  0
 22 24  2  0  0  0  0
 22 52  1  0  0  0  0
 23 24  1  0  0  0  0
 23 53  1  0  0  0  0
 24 54  1  0  0  0  0
M  END
> <PUBCHEM_COMPOUND_CID>
51090887

> <PUBCHEM_CONFORMER_RMSD>
1.4

> <PUBCHEM_CONFORMER_DIVERSEORDER>
14
41
5
30
54
85
94
36
66
78
51
10
12
97
35
18
100
23
104
48
75
16
1
55
40
26
31
96
80
82
99
86
15
22
20
89
45
73
24
9
92
63
67
62
76
44
58
84
65
42
88
102
33
49
79
19
11
39
21
8
98
101
2
68
64
47
32
50
71
59
13
90
46
56
28
38
91
53
25
77
61
69
95
7
3
52
6
70
103
17
83
81
60
37
57
29
87
27
4
34
74
72
93
43

> <PUBCHEM_MMFF94_PARTIAL_CHARGES>
27
1 -0.56
10 0.28
11 0.3
15 0.57
16 0.06
17 0.28
18 0.42
19 -0.14
2 -0.57
20 -0.15
21 -0.15
22 -0.15
23 -0.15
24 -0.15
3 -0.56
4 -0.81
43 0.37
5 -0.73
50 0.15
51 0.15
52 0.15
53 0.15
54 0.15
6 0.27
7 0.27
8 0.27
9 0.28

> <PUBCHEM_EFFECTIVE_ROTOR_COUNT>
10.2

> <PUBCHEM_PHARMACOPHORE_FEATURES>
7
1 1 acceptor
1 2 acceptor
1 3 acceptor
1 4 cation
1 5 donor
6 1 4 6 7 9 10 rings
6 19 20 21 22 23 24 rings

> <PUBCHEM_HEAVY_ATOM_COUNT>
24

> <PUBCHEM_ATOM_DEF_STEREO_COUNT>
0

> <PUBCHEM_ATOM_UDEF_STEREO_COUNT>
3

> <PUBCHEM_BOND_DEF_STEREO_COUNT>
0

> <PUBCHEM_BOND_UDEF_STEREO_COUNT>
0

> <PUBCHEM_ISOTOPIC_ATOM_COUNT>
0

> <PUBCHEM_COMPONENT_COUNT>
1

> <PUBCHEM_CACTVS_TAUTO_COUNT>
2

> <PUBCHEM_CONFORMER_ID>
030B95C70000000E

> <PUBCHEM_MMFF94_ENERGY>
48.1979

> <PUBCHEM_FEATURE_SELFOVERLAP>
35.52

> <PUBCHEM_SHAPE_MULTIPOLES>
466.34
16.53
2.86
1.4
4.16
0.67
0.09
-7.56
-0.81
0.37
-0.51
-0.4
0.08
-2.72

> <PUBCHEM_SHAPE_SELFOVERLAP>
941.269

> <PUBCHEM_SHAPE_VOLUME>
273.1

> <PUBCHEM_COORDINATE_TYPE>
2
5
10

$$$$

