3032307
  -OEChem-07051212533D

 38 38  0     1  0  0  0  0  0999 V2000
   -1.8011   -3.7900    0.1114 S   0  0  0  0  0  0  0  0  0  0  0  0
    4.3839    0.9299   -0.8790 S   0  0  0  0  0  0  0  0  0  0  0  0
    1.1147   -1.1350    2.2139 O   0  0  0  0  0  0  0  0  0  0  0  0
   -0.2890   -0.0969   -2.1540 O   0  0  0  0  0  0  0  0  0  0  0  0
    2.5229   -0.0772    0.7440 N   0  0  0  0  0  0  0  0  0  0  0  0
    1.8221    0.4417   -1.4361 N   0  0  0  0  0  0  0  0  0  0  0  0
    0.1221   -0.1395    0.2366 C   0  0  0  0  0  0  0  0  0  0  0  0
   -0.4058    1.2197    0.7295 C   0  0  1  0  0  0  0  0  0  0  0  0
   -0.9944   -1.1879    0.3460 C   0  0  0  0  0  0  0  0  0  0  0  0
   -1.5884    1.7337   -0.1124 C   0  0  0  0  0  0  0  0  0  0  0  0
    1.2780   -0.5283    1.1555 C   0  0  0  0  0  0  0  0  0  0  0  0
    0.5116    0.0387   -1.2291 C   0  0  0  0  0  0  0  0  0  0  0  0
   -0.8277    1.1084    2.1968 C   0  0  0  0  0  0  0  0  0  0  0  0
   -2.0884    3.1148    0.3178 C   0  0  0  0  0  0  0  0  0  0  0  0
   -0.4690   -2.5641   -0.0222 C   0  0  0  0  0  0  0  0  0  0  0  0
    2.8357    0.4242   -0.5016 C   0  0  0  0  0  0  0  0  0  0  0  0
   -3.2071    3.6063   -0.5886 C   0  0  0  0  0  0  0  0  0  0  0  0
   -2.9199   -3.0985   -1.1283 C   0  0  0  0  0  0  0  0  0  0  0  0
    0.3989    1.9664    0.6724 H   0  0  0  0  0  0  0  0  0  0  0  0
   -1.8215   -0.9198   -0.3145 H   0  0  0  0  0  0  0  0  0  0  0  0
   -1.3975   -1.2517    1.3620 H   0  0  0  0  0  0  0  0  0  0  0  0
   -2.4397    1.0468   -0.0624 H   0  0  0  0  0  0  0  0  0  0  0  0
   -1.3026    1.8218   -1.1643 H   0  0  0  0  0  0  0  0  0  0  0  0
   -1.0361    2.1079    2.5967 H   0  0  0  0  0  0  0  0  0  0  0  0
   -0.0544    0.7274    2.8642 H   0  0  0  0  0  0  0  0  0  0  0  0
   -1.7453    0.5314    2.3429 H   0  0  0  0  0  0  0  0  0  0  0  0
   -1.2629    3.8353    0.2970 H   0  0  0  0  0  0  0  0  0  0  0  0
   -2.4784    3.0883    1.3401 H   0  0  0  0  0  0  0  0  0  0  0  0
   -0.0701   -2.5995   -1.0406 H   0  0  0  0  0  0  0  0  0  0  0  0
    0.3253   -2.9021    0.6475 H   0  0  0  0  0  0  0  0  0  0  0  0
    3.2932   -0.1993    1.3954 H   0  0  0  0  0  0  0  0  0  0  0  0
    2.0779    0.7004   -2.3849 H   0  0  0  0  0  0  0  0  0  0  0  0
   -2.8640    3.6933   -1.6245 H   0  0  0  0  0  0  0  0  0  0  0  0
   -4.0612    2.9219   -0.5653 H   0  0  0  0  0  0  0  0  0  0  0  0
   -3.5531    4.5923   -0.2626 H   0  0  0  0  0  0  0  0  0  0  0  0
   -3.4939   -2.2645   -0.7172 H   0  0  0  0  0  0  0  0  0  0  0  0
   -3.6331   -3.8735   -1.4237 H   0  0  0  0  0  0  0  0  0  0  0  0
   -2.3768   -2.7812   -2.0225 H   0  0  0  0  0  0  0  0  0  0  0  0
  1 15  1  0  0  0  0
  1 18  1  0  0  0  0
  2 16  2  0  0  0  0
  3 11  2  0  0  0  0
  4 12  2  0  0  0  0
  5 11  1  0  0  0  0
  5 16  1  0  0  0  0
  5 31  1  0  0  0  0
  6 12  1  0  0  0  0
  6 16  1  0  0  0  0
  6 32  1  0  0  0  0
  7  8  1  0  0  0  0
  7  9  1  0  0  0  0
  7 11  1  0  0  0  0
  7 12  1  0  0  0  0
  8 10  1  0  0  0  0
  8 13  1  0  0  0  0
  8 19  1  0  0  0  0
  9 15  1  0  0  0  0
  9 20  1  0  0  0  0
  9 21  1  0  0  0  0
 10 14  1  0  0  0  0
 10 22  1  0  0  0  0
 10 23  1  0  0  0  0
 13 24  1  0  0  0  0
 13 25  1  0  0  0  0
 13 26  1  0  0  0  0
 14 17  1  0  0  0  0
 14 27  1  0  0  0  0
 14 28  1  0  0  0  0
 15 29  1  0  0  0  0
 15 30  1  0  0  0  0
 17 33  1  0  0  0  0
 17 34  1  0  0  0  0
 17 35  1  0  0  0  0
 18 36  1  0  0  0  0
 18 37  1  0  0  0  0
 18 38  1  0  0  0  0
M  END
> <PUBCHEM_COMPOUND_CID>
3032307

> <PUBCHEM_CONFORMER_RMSD>
0.8

> <PUBCHEM_CONFORMER_DIVERSEORDER>
2
22
6
13
10
1
20
27
9
4
19
25
24
23
21
15
18
16
5
26
14
7
17
11
12
8
3

> <PUBCHEM_MMFF94_PARTIAL_CHARGES>
14
1 -0.46
11 0.57
12 0.57
15 0.23
16 0.5
18 0.23
2 -0.38
3 -0.57
31 0.37
32 0.37
4 -0.57
5 -0.49
6 -0.49
7 0.12

> <PUBCHEM_EFFECTIVE_ROTOR_COUNT>
6.6

> <PUBCHEM_PHARMACOPHORE_FEATURES>
9
1 13 hydrophobe
1 17 hydrophobe
1 18 hydrophobe
1 2 acceptor
1 3 acceptor
1 4 acceptor
1 5 donor
1 6 donor
6 5 6 7 11 12 16 rings

> <PUBCHEM_HEAVY_ATOM_COUNT>
18

> <PUBCHEM_ATOM_DEF_STEREO_COUNT>
0

> <PUBCHEM_ATOM_UDEF_STEREO_COUNT>
1

> <PUBCHEM_BOND_DEF_STEREO_COUNT>
0

> <PUBCHEM_BOND_UDEF_STEREO_COUNT>
0

> <PUBCHEM_ISOTOPIC_ATOM_COUNT>
0

> <PUBCHEM_COMPONENT_COUNT>
1

> <PUBCHEM_CACTVS_TAUTO_COUNT>
5

> <PUBCHEM_CONFORMER_ID>
002E44F300000002

> <PUBCHEM_MMFF94_ENERGY>
49.2416

> <PUBCHEM_FEATURE_SELFOVERLAP>
45.709

> <PUBCHEM_SHAPE_FINGERPRINT>
10756046 70 17843132660302279466
11833330 49 18195809565800907868
12138202 97 18189040027622789524
12423570 1 10009943706060005634
12788726 201 18341056211439755782
13134695 92 16883559940400828859
13681431 1 17324338732721608175
14004458 79 18265878182106341309
14142880 1 17917710167550882740
14617773 55 18130795516671022154
14817 1 12445672801209559594
15906896 17 18129924733204756986
16945 1 18339080389265798714
20233049 118 18054243037479036751
20600515 1 17611722545018099118
20671657 53 17686606957686646382
21524375 3 18058153093990075564
22112679 90 17762581076524458635
2255824 54 17471292228797747365
23402539 116 18118951500091610678
23419403 2 17096651997954085816
3060560 45 17764589115580139766
4175511 376 16825574892248582710
7364860 26 17475227380708056613
81228 2 18046034130488357371

> <PUBCHEM_SHAPE_MULTIPOLES>
356.43
4.84
4.36
1.76
3.96
4.53
0.41
-3.06
-2.12
-6.34
-0.39
0.21
-0.07
-0.28

> <PUBCHEM_SHAPE_SELFOVERLAP>
693.367

> <PUBCHEM_SHAPE_VOLUME>
219.4

> <PUBCHEM_COORDINATE_TYPE>
2
5
10

$$$$

