11637
  -OEChem-06261205552D

  9  7  0     0  0  0  0  0  0999 V2000
    0.7199    0.0000    0.0000 Cl  0  5  0  0  0  0  0  0  0  0  0  0
    0.5369    3.0369    0.0000 N   0  3  0  0  0  0  0  0  0  0  0  0
    1.4030    3.5369    0.0000 C   0  0  0  0  0  0  0  0  0  0  0  0
    0.0000    2.7269    0.0000 H   0  0  0  0  0  0  0  0  0  0  0  0
    0.2269    3.5739    0.0000 H   0  0  0  0  0  0  0  0  0  0  0  0
    0.8469    2.5000    0.0000 H   0  0  0  0  0  0  0  0  0  0  0  0
    1.7130    3.0000    0.0000 H   0  0  0  0  0  0  0  0  0  0  0  0
    1.9399    3.8469    0.0000 H   0  0  0  0  0  0  0  0  0  0  0  0
    1.0930    4.0739    0.0000 H   0  0  0  0  0  0  0  0  0  0  0  0
  2  3  1  0  0  0  0
  2  4  1  0  0  0  0
  2  5  1  0  0  0  0
  2  6  1  0  0  0  0
  3  7  1  0  0  0  0
  3  8  1  0  0  0  0
  3  9  1  0  0  0  0
M  CHG  2   1  -1   2   1
M  END
> <PUBCHEM_COMPOUND_CID>
11637

> <PUBCHEM_COMPOUND_CANONICALIZED>
1

> <PUBCHEM_CACTVS_COMPLEXITY>
2

> <PUBCHEM_CACTVS_HBOND_ACCEPTOR>
1

> <PUBCHEM_CACTVS_HBOND_DONOR>
1

> <PUBCHEM_CACTVS_ROTATABLE_BOND>
0

> <PUBCHEM_CACTVS_SUBSKEYS>
AAADcYACAAAEAAAAAAAAAAAAAAAAAAAAAAAAAAAAAAAAAAAAAAAAFAAQAAAAAAAAAAQCAABAAAAAAAAAAAAAAAAAAAAAAIAAAAAAAAAAAAAAAAAAAAAAAAAAAAAAAAAAAAAAAAAAAAAAAAAAAAAAAAAAAA==

> <PUBCHEM_IUPAC_OPENEYE_NAME>
methylammonium chloride

> <PUBCHEM_IUPAC_CAS_NAME>
methylammonium chloride

> <PUBCHEM_IUPAC_NAME>
methylazanium chloride

> <PUBCHEM_IUPAC_SYSTEMATIC_NAME>
methylazanium chloride

> <PUBCHEM_IUPAC_TRADITIONAL_NAME>
methylammonium chloride

> <PUBCHEM_IUPAC_INCHI>
InChI=1S/CH5N.ClH/c1-2;/h2H2,1H3;1H

> <PUBCHEM_IUPAC_INCHIKEY>
NQMRYBIKMRVZLB-UHFFFAOYSA-N

> <PUBCHEM_EXACT_MASS>
67.018877

> <PUBCHEM_MOLECULAR_FORMULA>
CH6ClN

> <PUBCHEM_MOLECULAR_WEIGHT>
67.51804

> <PUBCHEM_OPENEYE_CAN_SMILES>
C[NH3+].[Cl-]

> <PUBCHEM_OPENEYE_ISO_SMILES>
C[NH3+].[Cl-]

> <PUBCHEM_CACTVS_TPSA>
27.6

> <PUBCHEM_MONOISOTOPIC_WEIGHT>
67.018877

> <PUBCHEM_TOTAL_CHARGE>
0

> <PUBCHEM_HEAVY_ATOM_COUNT>
3

> <PUBCHEM_ATOM_DEF_STEREO_COUNT>
0

> <PUBCHEM_ATOM_UDEF_STEREO_COUNT>
0

> <PUBCHEM_BOND_DEF_STEREO_COUNT>
0

> <PUBCHEM_BOND_UDEF_STEREO_COUNT>
0

> <PUBCHEM_ISOTOPIC_ATOM_COUNT>
0

> <PUBCHEM_COMPONENT_COUNT>
2

> <PUBCHEM_CACTVS_TAUTO_COUNT>
1

> <PUBCHEM_COORDINATE_TYPE>
1
5
255

$$$$

