160577
  -OEChem-07051212482D

 44 45  0     1  0  0  0  0  0999 V2000
    5.1350   -0.7934    0.0000 S   0  0  0  0  0  0  0  0  0  0  0  0
    7.7150    1.4193    0.0000 O   0  0  0  0  0  0  0  0  0  0  0  0
    2.5369    0.7066    0.0000 O   0  0  0  0  0  0  0  0  0  0  0  0
    8.9422    0.2162    0.0000 O   0  0  0  0  0  0  0  0  0  0  0  0
    4.2690    2.7066    0.0000 O   0  0  0  0  0  0  0  0  0  0  0  0
    6.0010    2.7066    0.0000 O   0  0  0  0  0  0  0  0  0  0  0  0
   13.6977   -2.1044    0.0000 O   0  0  0  0  0  0  0  0  0  0  0  0
   12.4705   -3.3266    0.0000 O   0  0  0  0  0  0  0  0  0  0  0  0
    6.0010    0.7066    0.0000 N   0  0  0  0  0  0  0  0  0  0  0  0
    7.7150   -1.0061    0.0000 N   0  0  0  0  0  0  0  0  0  0  0  0
   12.2864   -0.6873    0.0000 N   0  0  0  0  0  0  0  0  0  0  0  0
    6.0010   -0.2934    0.0000 C   0  0  1  0  0  0  0  0  0  0  0  0
    7.0093   -0.2975    0.0000 C   0  0  1  0  0  0  0  0  0  0  0  0
    7.0093    0.7108    0.0000 C   0  0  0  0  0  0  0  0  0  0  0  0
    5.1350    1.2066    0.0000 C   0  0  0  0  0  0  0  0  0  0  0  0
    4.2690    0.7066    0.0000 C   0  0  0  0  0  0  0  0  0  0  0  0
    4.2690   -0.2934    0.0000 C   0  0  0  0  0  0  0  0  0  0  0  0
    8.6814   -0.7492    0.0000 C   0  0  0  0  0  0  0  0  0  0  0  0
    9.3871   -1.4578    0.0000 C   0  0  0  0  0  0  0  0  0  0  0  0
    3.4030    1.2066    0.0000 C   0  0  0  0  0  0  0  0  0  0  0  0
    5.1350    2.2066    0.0000 C   0  0  0  0  0  0  0  0  0  0  0  0
   10.3535   -1.2010    0.0000 C   0  0  0  0  0  0  0  0  0  0  0  0
   11.0592   -1.9095    0.0000 C   0  0  0  0  0  0  0  0  0  0  0  0
   12.0256   -1.6527    0.0000 C   0  0  2  0  0  0  0  0  0  0  0  0
   12.7313   -2.3612    0.0000 C   0  0  0  0  0  0  0  0  0  0  0  0
    6.2194   -1.1148    0.0000 H   0  0  0  0  0  0  0  0  0  0  0  0
    6.7703   -0.8696    0.0000 H   0  0  0  0  0  0  0  0  0  0  0  0
    7.5533   -1.6046    0.0000 H   0  0  0  0  0  0  0  0  0  0  0  0
    3.6584   -0.1857    0.0000 H   0  0  0  0  0  0  0  0  0  0  0  0
    4.0569   -0.8760    0.0000 H   0  0  0  0  0  0  0  0  0  0  0  0
    8.8785   -1.8124    0.0000 H   0  0  0  0  0  0  0  0  0  0  0  0
    9.6480   -2.0202    0.0000 H   0  0  0  0  0  0  0  0  0  0  0  0
    3.8015    1.6816    0.0000 H   0  0  0  0  0  0  0  0  0  0  0  0
    3.0044    1.6816    0.0000 H   0  0  0  0  0  0  0  0  0  0  0  0
   10.8621   -0.8464    0.0000 H   0  0  0  0  0  0  0  0  0  0  0  0
   10.0927   -0.6385    0.0000 H   0  0  0  0  0  0  0  0  0  0  0  0
   10.5506   -2.2641    0.0000 H   0  0  0  0  0  0  0  0  0  0  0  0
   11.3201   -2.4720    0.0000 H   0  0  0  0  0  0  0  0  0  0  0  0
   11.5881   -1.2134    0.0000 H   0  0  0  0  0  0  0  0  0  0  0  0
    2.0000    1.0166    0.0000 H   0  0  0  0  0  0  0  0  0  0  0  0
    4.2690    3.3266    0.0000 H   0  0  0  0  0  0  0  0  0  0  0  0
   12.8856   -0.5281    0.0000 H   0  0  0  0  0  0  0  0  0  0  0  0
   11.8489   -0.2480    0.0000 H   0  0  0  0  0  0  0  0  0  0  0  0
   14.1353   -2.5437    0.0000 H   0  0  0  0  0  0  0  0  0  0  0  0
  1 12  1  0  0  0  0
  1 17  1  0  0  0  0
  2 14  2  0  0  0  0
  3 20  1  0  0  0  0
  3 40  1  0  0  0  0
  4 18  2  0  0  0  0
  5 21  1  0  0  0  0
  5 41  1  0  0  0  0
  6 21  2  0  0  0  0
  7 25  1  0  0  0  0
  7 44  1  0  0  0  0
  8 25  2  0  0  0  0
  9 12  1  0  0  0  0
  9 14  1  0  0  0  0
  9 15  1  0  0  0  0
 13 10  1  1  0  0  0
 10 18  1  0  0  0  0
 10 28  1  0  0  0  0
 24 11  1  1  0  0  0
 11 42  1  0  0  0  0
 11 43  1  0  0  0  0
 12 13  1  0  0  0  0
 12 26  1  6  0  0  0
 13 14  1  0  0  0  0
 13 27  1  0  0  0  0
 15 16  2  0  0  0  0
 15 21  1  0  0  0  0
 16 17  1  0  0  0  0
 16 20  1  0  0  0  0
 17 29  1  0  0  0  0
 17 30  1  0  0  0  0
 18 19  1  0  0  0  0
 19 22  1  0  0  0  0
 19 31  1  0  0  0  0
 19 32  1  0  0  0  0
 20 33  1  0  0  0  0
 20 34  1  0  0  0  0
 22 23  1  0  0  0  0
 22 35  1  0  0  0  0
 22 36  1  0  0  0  0
 23 24  1  0  0  0  0
 23 37  1  0  0  0  0
 23 38  1  0  0  0  0
 24 25  1  0  0  0  0
 24 39  1  0  0  0  0
M  END
> <PUBCHEM_COMPOUND_CID>
160577

> <PUBCHEM_COMPOUND_CANONICALIZED>
1

> <PUBCHEM_CACTVS_COMPLEXITY>
636

> <PUBCHEM_CACTVS_HBOND_ACCEPTOR>
9

> <PUBCHEM_CACTVS_HBOND_DONOR>
5

> <PUBCHEM_CACTVS_ROTATABLE_BOND>
8

> <PUBCHEM_CACTVS_SUBSKEYS>
AAADceBzOABAAAAAAAAAAAAAAABYAAAAAAAgAAAAAAAQAAAAAAAAHgQQCAAADCjlwAaACAPAAgiIAgXQWAAAAABAABAACIGIAEACVBoggCAUUAAEFgCwEQGYSQAQAAAAAAAAAAAAAAAAAAAAAAAAAAAAAA==

> <PUBCHEM_IUPAC_OPENEYE_NAME>
(6R,7R)-7-[[(5R)-5-amino-5-carboxy-pentanoyl]amino]-3-(hydroxymethyl)-8-oxo-5-thia-1-azabicyclo[4.2.0]oct-2-ene-2-carboxylic acid

> <PUBCHEM_IUPAC_CAS_NAME>
(6R,7R)-7-[[(5R)-5-amino-5-carboxy-1-oxopentyl]amino]-3-(hydroxymethyl)-8-oxo-5-thia-1-azabicyclo[4.2.0]oct-2-ene-2-carboxylic acid

> <PUBCHEM_IUPAC_NAME>
(6R,7R)-7-[[(5R)-5-amino-5-carboxypentanoyl]amino]-3-(hydroxymethyl)-8-oxo-5-thia-1-azabicyclo[4.2.0]oct-2-ene-2-carboxylic acid

> <PUBCHEM_IUPAC_SYSTEMATIC_NAME>
(6R,7R)-7-[[(5R)-5-azanyl-6-oxidanyl-6-oxidanylidene-hexanoyl]amino]-3-(hydroxymethyl)-8-oxidanylidene-5-thia-1-azabicyclo[4.2.0]oct-2-ene-2-carboxylic acid

> <PUBCHEM_IUPAC_TRADITIONAL_NAME>
(6R,7R)-7-[[(5R)-5-amino-5-carboxy-pentanoyl]amino]-8-keto-3-methylol-5-thia-1-azabicyclo[4.2.0]oct-2-ene-2-carboxylic acid

> <PUBCHEM_IUPAC_INCHI>
InChI=1S/C14H19N3O7S/c15-7(13(21)22)2-1-3-8(19)16-9-11(20)17-10(14(23)24)6(4-18)5-25-12(9)17/h7,9,12,18H,1-5,15H2,(H,16,19)(H,21,22)(H,23,24)/t7-,9-,12-/m1/s1

> <PUBCHEM_IUPAC_INCHIKEY>
XWCFYHBHOFBVIV-JWKOBGCHSA-N

> <PUBCHEM_XLOGP3>
-5

> <PUBCHEM_EXACT_MASS>
373.094371

> <PUBCHEM_MOLECULAR_FORMULA>
C14H19N3O7S

> <PUBCHEM_MOLECULAR_WEIGHT>
373.38156

> <PUBCHEM_OPENEYE_CAN_SMILES>
C1C(=C(N2C(S1)C(C2=O)NC(=O)CCCC(C(=O)O)N)C(=O)O)CO

> <PUBCHEM_OPENEYE_ISO_SMILES>
C1C(=C(N2[C@H](S1)[C@@H](C2=O)NC(=O)CCC[C@H](C(=O)O)N)C(=O)O)CO

> <PUBCHEM_CACTVS_TPSA>
196

> <PUBCHEM_MONOISOTOPIC_WEIGHT>
373.094371

> <PUBCHEM_TOTAL_CHARGE>
0

> <PUBCHEM_HEAVY_ATOM_COUNT>
25

> <PUBCHEM_ATOM_DEF_STEREO_COUNT>
3

> <PUBCHEM_ATOM_UDEF_STEREO_COUNT>
0

> <PUBCHEM_BOND_DEF_STEREO_COUNT>
0

> <PUBCHEM_BOND_UDEF_STEREO_COUNT>
0

> <PUBCHEM_ISOTOPIC_ATOM_COUNT>
0

> <PUBCHEM_COMPONENT_COUNT>
1

> <PUBCHEM_CACTVS_TAUTO_COUNT>
4

> <PUBCHEM_COORDINATE_TYPE>
1
5
255

> <PUBCHEM_BONDANNOTATIONS>
13  10  5
24  11  5
12  26  6

$$$$

