121336
  -OEChem-07051212572D

 39 43  0     1  0  0  0  0  0999 V2000
    7.1246    0.7976    0.0000 O   0  0  0  0  0  0  0  0  0  0  0  0
    7.1246    2.4071    0.0000 O   0  0  0  0  0  0  0  0  0  0  0  0
    7.1067   -2.6024    0.0000 O   0  0  0  0  0  0  0  0  0  0  0  0
    2.8261    0.8781    0.0000 N   0  0  3  0  0  0  0  0  0  0  0  0
    3.7094    0.4353    0.0000 C   0  0  1  0  0  0  0  0  0  0  0  0
    5.1032   -0.3695    0.0000 C   0  0  0  0  0  0  0  0  0  0  0  0
    4.1145   -0.4725    0.0000 C   0  0  0  0  0  0  0  0  0  0  0  0
    4.4464    1.1024    0.0000 C   0  0  0  0  0  0  0  0  0  0  0  0
    5.3124    0.6024    0.0000 C   0  0  0  0  0  0  0  0  0  0  0  0
    4.4464    2.1024    0.0000 C   0  0  0  0  0  0  0  0  0  0  0  0
    2.7361    1.8620    0.0000 C   0  0  0  0  0  0  0  0  0  0  0  0
    3.5244    2.4576    0.0000 C   0  0  0  0  0  0  0  0  0  0  0  0
    6.1784    1.1024    0.0000 C   0  0  0  0  0  0  0  0  0  0  0  0
    6.0817   -0.1632    0.0000 C   0  0  0  0  0  0  0  0  0  0  0  0
    4.7925   -1.3200    0.0000 C   0  0  0  0  0  0  0  0  0  0  0  0
    5.3124    2.6024    0.0000 C   0  0  0  0  0  0  0  0  0  0  0  0
    6.1784    2.1024    0.0000 C   0  0  0  0  0  0  0  0  0  0  0  0
    2.0000    0.3145    0.0000 C   0  0  0  0  0  0  0  0  0  0  0  0
    6.7496   -0.9075    0.0000 C   0  0  0  0  0  0  0  0  0  0  0  0
    5.4604   -2.0643    0.0000 C   0  0  0  0  0  0  0  0  0  0  0  0
    6.4389   -1.8581    0.0000 C   0  0  0  0  0  0  0  0  0  0  0  0
    7.7083    1.6024    0.0000 C   0  0  0  0  0  0  0  0  0  0  0  0
    3.0950   -0.1521    0.0000 H   0  0  0  0  0  0  0  0  0  0  0  0
    3.5249   -0.6643    0.0000 H   0  0  0  0  0  0  0  0  0  0  0  0
    4.2432   -1.0790    0.0000 H   0  0  0  0  0  0  0  0  0  0  0  0
    2.4599    2.4171    0.0000 H   0  0  0  0  0  0  0  0  0  0  0  0
    2.1397    1.6928    0.0000 H   0  0  0  0  0  0  0  0  0  0  0  0
    3.8502    2.9852    0.0000 H   0  0  0  0  0  0  0  0  0  0  0  0
    3.0659    2.8750    0.0000 H   0  0  0  0  0  0  0  0  0  0  0  0
    6.2743    0.4261    0.0000 H   0  0  0  0  0  0  0  0  0  0  0  0
    4.1859   -1.4478    0.0000 H   0  0  0  0  0  0  0  0  0  0  0  0
    5.3124    3.2224    0.0000 H   0  0  0  0  0  0  0  0  0  0  0  0
    1.6506    0.8267    0.0000 H   0  0  0  0  0  0  0  0  0  0  0  0
    1.4878   -0.0348    0.0000 H   0  0  0  0  0  0  0  0  0  0  0  0
    2.3494   -0.1976    0.0000 H   0  0  0  0  0  0  0  0  0  0  0  0
    7.3562   -0.7797    0.0000 H   0  0  0  0  0  0  0  0  0  0  0  0
    5.2678   -2.6536    0.0000 H   0  0  0  0  0  0  0  0  0  0  0  0
    8.1691    1.1876    0.0000 H   0  0  0  0  0  0  0  0  0  0  0  0
    8.1691    2.0171    0.0000 H   0  0  0  0  0  0  0  0  0  0  0  0
  1 13  1  0  0  0  0
  1 22  1  0  0  0  0
  2 17  1  0  0  0  0
  2 22  1  0  0  0  0
  3 21  2  0  0  0  0
  4  5  1  0  0  0  0
  4 11  1  0  0  0  0
  4 18  1  0  0  0  0
  5  7  1  0  0  0  0
  5  8  1  0  0  0  0
  5 23  1  1  0  0  0
  6  7  1  0  0  0  0
  6  9  1  0  0  0  0
  6 14  1  0  0  0  0
  6 15  1  0  0  0  0
  7 24  1  0  0  0  0
  7 25  1  0  0  0  0
  8  9  2  0  0  0  0
  8 10  1  0  0  0  0
  9 13  1  0  0  0  0
 10 12  1  0  0  0  0
 10 16  2  0  0  0  0
 11 12  1  0  0  0  0
 11 26  1  0  0  0  0
 11 27  1  0  0  0  0
 12 28  1  0  0  0  0
 12 29  1  0  0  0  0
 13 17  2  0  0  0  0
 14 19  2  0  0  0  0
 14 30  1  0  0  0  0
 15 20  2  0  0  0  0
 15 31  1  0  0  0  0
 16 17  1  0  0  0  0
 16 32  1  0  0  0  0
 18 33  1  0  0  0  0
 18 34  1  0  0  0  0
 18 35  1  0  0  0  0
 19 21  1  0  0  0  0
 19 36  1  0  0  0  0
 20 21  1  0  0  0  0
 20 37  1  0  0  0  0
 22 38  1  0  0  0  0
 22 39  1  0  0  0  0
M  END
> <PUBCHEM_COMPOUND_CID>
121336

> <PUBCHEM_COMPOUND_CANONICALIZED>
1

> <PUBCHEM_CACTVS_COMPLEXITY>
553

> <PUBCHEM_CACTVS_HBOND_ACCEPTOR>
4

> <PUBCHEM_CACTVS_HBOND_DONOR>
0

> <PUBCHEM_CACTVS_ROTATABLE_BOND>
0

> <PUBCHEM_CACTVS_SUBSKEYS>
AAADceB6MAAAAAAAAAAAAAAAAAAAAaIAAAA8QIAAAAAAAHixAAAAHgAAAAAADizBmAcyDoMABACIAqBSAACCCAAgIAAIiAAOjMgdJiKEsRukMCpkwBGOqYew0PMPoAADAAAYQABAAAYAADCAASAACQAAAA==

> <PUBCHEM_IUPAC_INCHI>
InChI=1S/C18H17NO3/c1-19-7-4-11-8-14-17(22-10-21-14)16-15(11)13(19)9-18(16)5-2-12(20)3-6-18/h2-3,5-6,8,13H,4,7,9-10H2,1H3/t13-/m0/s1

> <PUBCHEM_IUPAC_INCHIKEY>
NMVDXQMYKKNYFO-ZDUSSCGKSA-N

> <PUBCHEM_XLOGP3_AA>
2.4

> <PUBCHEM_EXACT_MASS>
295.120843

> <PUBCHEM_MOLECULAR_FORMULA>
C18H17NO3

> <PUBCHEM_MOLECULAR_WEIGHT>
295.33248

> <PUBCHEM_OPENEYE_CAN_SMILES>
CN1CCC2=CC3=C(C4=C2C1CC45C=CC(=O)C=C5)OCO3

> <PUBCHEM_OPENEYE_ISO_SMILES>
CN1CCC2=CC3=C(C4=C2[C@@H]1CC45C=CC(=O)C=C5)OCO3

> <PUBCHEM_CACTVS_TPSA>
38.8

> <PUBCHEM_MONOISOTOPIC_WEIGHT>
295.120843

> <PUBCHEM_TOTAL_CHARGE>
0

> <PUBCHEM_HEAVY_ATOM_COUNT>
22

> <PUBCHEM_ATOM_DEF_STEREO_COUNT>
1

> <PUBCHEM_ATOM_UDEF_STEREO_COUNT>
0

> <PUBCHEM_BOND_DEF_STEREO_COUNT>
0

> <PUBCHEM_BOND_UDEF_STEREO_COUNT>
0

> <PUBCHEM_ISOTOPIC_ATOM_COUNT>
0

> <PUBCHEM_COMPONENT_COUNT>
1

> <PUBCHEM_CACTVS_TAUTO_COUNT>
1

> <PUBCHEM_COORDINATE_TYPE>
1
5
255

> <PUBCHEM_BONDANNOTATIONS>
10  16  8
13  17  8
16  17  8
5  23  5
8  10  8
8  9  8
9  13  8

$$$$

