73201
  -OEChem-07051213082D

 34 36  0     1  0  0  0  0  0999 V2000
    5.4641    0.9254    0.0000 O   0  0  0  0  0  0  0  0  0  0  0  0
    5.4641   -2.0746    0.0000 O   0  0  0  0  0  0  0  0  0  0  0  0
    7.2125   -2.1092    0.0000 O   0  0  0  0  0  0  0  0  0  0  0  0
    8.9942    0.9495    0.0000 O   0  0  0  0  0  0  0  0  0  0  0  0
    4.5981    0.4254    0.0000 C   0  0  1  0  0  0  0  0  0  0  0  0
    4.5981   -0.5746    0.0000 C   0  0  0  0  0  0  0  0  0  0  0  0
    6.3301   -0.5746    0.0000 C   0  0  0  0  0  0  0  0  0  0  0  0
    3.7320    0.9254    0.0000 C   0  0  0  0  0  0  0  0  0  0  0  0
    5.4641   -1.0746    0.0000 C   0  0  0  0  0  0  0  0  0  0  0  0
    6.3301    0.4254    0.0000 C   0  0  0  0  0  0  0  0  0  0  0  0
    7.2241   -1.1093    0.0000 C   0  0  0  0  0  0  0  0  0  0  0  0
    7.2241    0.9601    0.0000 C   0  0  0  0  0  0  0  0  0  0  0  0
    3.7320    1.9254    0.0000 C   0  0  0  0  0  0  0  0  0  0  0  0
    2.8660    0.4254    0.0000 C   0  0  0  0  0  0  0  0  0  0  0  0
    8.1301    0.4462    0.0000 C   0  0  0  0  0  0  0  0  0  0  0  0
    8.1301   -0.5954    0.0000 C   0  0  0  0  0  0  0  0  0  0  0  0
    2.8660    2.4254    0.0000 C   0  0  0  0  0  0  0  0  0  0  0  0
    2.0000    0.9254    0.0000 C   0  0  0  0  0  0  0  0  0  0  0  0
    2.0000    1.9254    0.0000 C   0  0  0  0  0  0  0  0  0  0  0  0
    9.8622    0.4529    0.0000 C   0  0  0  0  0  0  0  0  0  0  0  0
    4.5981    1.0454    0.0000 H   0  0  0  0  0  0  0  0  0  0  0  0
    3.9875   -0.4669    0.0000 H   0  0  0  0  0  0  0  0  0  0  0  0
    4.3860   -1.1572    0.0000 H   0  0  0  0  0  0  0  0  0  0  0  0
    7.2169    1.5800    0.0000 H   0  0  0  0  0  0  0  0  0  0  0  0
    4.2690    2.2354    0.0000 H   0  0  0  0  0  0  0  0  0  0  0  0
    2.8660   -0.1946    0.0000 H   0  0  0  0  0  0  0  0  0  0  0  0
    8.6659   -0.9075    0.0000 H   0  0  0  0  0  0  0  0  0  0  0  0
    2.8660    3.0454    0.0000 H   0  0  0  0  0  0  0  0  0  0  0  0
    1.4631    0.6154    0.0000 H   0  0  0  0  0  0  0  0  0  0  0  0
    1.4631    2.2354    0.0000 H   0  0  0  0  0  0  0  0  0  0  0  0
    7.7458   -2.4254    0.0000 H   0  0  0  0  0  0  0  0  0  0  0  0
    9.5542   -0.0852    0.0000 H   0  0  0  0  0  0  0  0  0  0  0  0
   10.4003    0.1450    0.0000 H   0  0  0  0  0  0  0  0  0  0  0  0
   10.1701    0.9910    0.0000 H   0  0  0  0  0  0  0  0  0  0  0  0
  1  5  1  0  0  0  0
  1 10  1  0  0  0  0
  2  9  2  0  0  0  0
  3 11  1  0  0  0  0
  3 31  1  0  0  0  0
  4 15  1  0  0  0  0
  4 20  1  0  0  0  0
  5  6  1  0  0  0  0
  5  8  1  1  0  0  0
  5 21  1  0  0  0  0
  6  9  1  0  0  0  0
  6 22  1  0  0  0  0
  6 23  1  0  0  0  0
  7  9  1  0  0  0  0
  7 10  1  0  0  0  0
  7 11  2  0  0  0  0
  8 13  2  0  0  0  0
  8 14  1  0  0  0  0
 10 12  2  0  0  0  0
 11 16  1  0  0  0  0
 12 15  1  0  0  0  0
 12 24  1  0  0  0  0
 13 17  1  0  0  0  0
 13 25  1  0  0  0  0
 14 18  2  0  0  0  0
 14 26  1  0  0  0  0
 15 16  2  0  0  0  0
 16 27  1  0  0  0  0
 17 19  2  0  0  0  0
 17 28  1  0  0  0  0
 18 19  1  0  0  0  0
 18 29  1  0  0  0  0
 19 30  1  0  0  0  0
 20 32  1  0  0  0  0
 20 33  1  0  0  0  0
 20 34  1  0  0  0  0
M  END
> <PUBCHEM_COMPOUND_CID>
73201

> <PUBCHEM_COMPOUND_CANONICALIZED>
1

> <PUBCHEM_CACTVS_COMPLEXITY>
350

> <PUBCHEM_CACTVS_HBOND_ACCEPTOR>
4

> <PUBCHEM_CACTVS_HBOND_DONOR>
1

> <PUBCHEM_CACTVS_ROTATABLE_BOND>
2

> <PUBCHEM_CACTVS_SUBSKEYS>
AAADccB4OAAAAAAAAAAAAAAAAAAAAAAAAAA0YIAAAAAAAACRQAAAGgAACAAADBSgmAIyBoAABgCIAqBSAAACCAAkIAAIiAEGCMgMJzaGNRqCeWCl4BUIuQeI7OzOIAAACAAIAABAAAAQABAAAAAAAAAAAA==

> <PUBCHEM_IUPAC_OPENEYE_NAME>
(2S)-5-hydroxy-7-methoxy-2-phenyl-chroman-4-one

> <PUBCHEM_IUPAC_CAS_NAME>
(2S)-5-hydroxy-7-methoxy-2-phenyl-3,4-dihydro-2H-1-benzopyran-4-one

> <PUBCHEM_IUPAC_NAME>
(2S)-5-hydroxy-7-methoxy-2-phenyl-2,3-dihydrochromen-4-one

> <PUBCHEM_IUPAC_SYSTEMATIC_NAME>
(2S)-7-methoxy-5-oxidanyl-2-phenyl-2,3-dihydrochromen-4-one

> <PUBCHEM_IUPAC_TRADITIONAL_NAME>
(2S)-5-hydroxy-7-methoxy-2-phenyl-chroman-4-one

> <PUBCHEM_IUPAC_INCHI>
InChI=1S/C16H14O4/c1-19-11-7-12(17)16-13(18)9-14(20-15(16)8-11)10-5-3-2-4-6-10/h2-8,14,17H,9H2,1H3/t14-/m0/s1

> <PUBCHEM_IUPAC_INCHIKEY>
ORJDDOBAOGKRJV-AWEZNQCLSA-N

> <PUBCHEM_XLOGP3_AA>
3.1

> <PUBCHEM_EXACT_MASS>
270.089209

> <PUBCHEM_MOLECULAR_FORMULA>
C16H14O4

> <PUBCHEM_MOLECULAR_WEIGHT>
270.27996

> <PUBCHEM_OPENEYE_CAN_SMILES>
COC1=CC(=C2C(=O)CC(OC2=C1)C3=CC=CC=C3)O

> <PUBCHEM_OPENEYE_ISO_SMILES>
COC1=CC(=C2C(=O)C[C@H](OC2=C1)C3=CC=CC=C3)O

> <PUBCHEM_CACTVS_TPSA>
55.8

> <PUBCHEM_MONOISOTOPIC_WEIGHT>
270.089209

> <PUBCHEM_TOTAL_CHARGE>
0

> <PUBCHEM_HEAVY_ATOM_COUNT>
20

> <PUBCHEM_ATOM_DEF_STEREO_COUNT>
1

> <PUBCHEM_ATOM_UDEF_STEREO_COUNT>
0

> <PUBCHEM_BOND_DEF_STEREO_COUNT>
0

> <PUBCHEM_BOND_UDEF_STEREO_COUNT>
0

> <PUBCHEM_ISOTOPIC_ATOM_COUNT>
0

> <PUBCHEM_COMPONENT_COUNT>
1

> <PUBCHEM_CACTVS_TAUTO_COUNT>
9

> <PUBCHEM_COORDINATE_TYPE>
1
5
255

> <PUBCHEM_BONDANNOTATIONS>
10  12  8
11  16  8
12  15  8
13  17  8
14  18  8
15  16  8
17  19  8
18  19  8
5  8  5
7  10  8
7  11  8
8  13  8
8  14  8

$$$$

