511
  -OEChem-07051212473D

 50 51  0     1  0  0  0  0  0999 V2000
    1.4848   -3.4051   -1.0487 S   0  0  0  0  0  0  0  0  0  0  0  0
    4.0568    0.5574   -0.6737 P   0  0  1  0  0  0  0  0  0  0  0  0
    1.4280    1.8630   -0.4495 P   0  0  2  0  0  0  0  0  0  0  0  0
   -0.4870    3.5859    0.9885 P   0  0  0  0  0  0  0  0  0  0  0  0
    3.4995   -0.8932   -0.2225 O   0  0  0  0  0  0  0  0  0  0  0  0
    2.9797    1.6072   -0.0841 O   0  0  0  0  0  0  0  0  0  0  0  0
    5.3561    0.7969    0.2600 O   0  0  0  0  0  0  0  0  0  0  0  0
    4.3158    0.7033   -2.1450 O   0  0  0  0  0  0  0  0  0  0  0  0
    0.9602    2.9523    0.6481 O   0  0  0  0  0  0  0  0  0  0  0  0
    0.6892    0.5067    0.0275 O   0  0  0  0  0  0  0  0  0  0  0  0
    1.1631    2.2573   -1.8727 O   0  0  0  0  0  0  0  0  0  0  0  0
   -1.3196    2.3177    1.5463 O   0  0  0  0  0  0  0  0  0  0  0  0
   -0.2126    4.4687    2.3141 O   0  0  0  0  0  0  0  0  0  0  0  0
   -1.1315    4.3210   -0.1496 O   0  0  0  0  0  0  0  0  0  0  0  0
   -0.7704   -2.9972   -0.0330 N   0  3  0  0  0  0  0  0  0  0  0  0
   -4.0199    0.4173    0.0315 N   0  0  0  0  0  0  0  0  0  0  0  0
   -2.5987    0.2438   -1.9069 N   0  0  0  0  0  0  0  0  0  0  0  0
   -4.1056   -1.3485    1.6123 N   0  0  0  0  0  0  0  0  0  0  0  0
    0.1197   -2.6575    0.9613 C   0  0  0  0  0  0  0  0  0  0  0  0
    1.4266   -2.8242    0.5694 C   0  0  0  0  0  0  0  0  0  0  0  0
   -2.2036   -2.9151    0.1180 C   0  0  0  0  0  0  0  0  0  0  0  0
    2.7064   -2.5757    1.3318 C   0  0  0  0  0  0  0  0  0  0  0  0
   -0.2225   -3.4108   -1.1553 C   0  0  0  0  0  0  0  0  0  0  0  0
    3.2179   -1.1501    1.1427 C   0  0  0  0  0  0  0  0  0  0  0  0
   -0.4163   -2.1869    2.2470 C   0  0  0  0  0  0  0  0  0  0  0  0
   -2.6798   -1.5533   -0.3075 C   0  0  0  0  0  0  0  0  0  0  0  0
   -3.5906   -0.8047    0.4096 C   0  0  0  0  0  0  0  0  0  0  0  0
   -2.2131   -0.9728   -1.4693 C   0  0  0  0  0  0  0  0  0  0  0  0
   -3.4910    0.8743   -1.1196 C   0  0  0  0  0  0  0  0  0  0  0  0
   -3.9415    2.2223   -1.5704 C   0  0  0  0  0  0  0  0  0  0  0  0
    2.5458   -2.7717    2.3980 H   0  0  0  0  0  0  0  0  0  0  0  0
    3.4721   -3.2847    0.9922 H   0  0  0  0  0  0  0  0  0  0  0  0
   -2.6838   -3.6652   -0.5250 H   0  0  0  0  0  0  0  0  0  0  0  0
   -2.4824   -3.1896    1.1375 H   0  0  0  0  0  0  0  0  0  0  0  0
   -0.7738   -3.7295   -2.0295 H   0  0  0  0  0  0  0  0  0  0  0  0
    2.4887   -0.4269    1.5178 H   0  0  0  0  0  0  0  0  0  0  0  0
    4.1393   -1.0245    1.7208 H   0  0  0  0  0  0  0  0  0  0  0  0
   -1.0590   -1.3114    2.1211 H   0  0  0  0  0  0  0  0  0  0  0  0
   -0.9756   -2.9763    2.7582 H   0  0  0  0  0  0  0  0  0  0  0  0
    0.3887   -1.8821    2.9239 H   0  0  0  0  0  0  0  0  0  0  0  0
   -1.5170   -1.4574   -2.1406 H   0  0  0  0  0  0  0  0  0  0  0  0
   -4.2892   -2.3435    1.6480 H   0  0  0  0  0  0  0  0  0  0  0  0
   -4.7486   -0.7542    2.1228 H   0  0  0  0  0  0  0  0  0  0  0  0
   -4.8931    2.1354   -2.1027 H   0  0  0  0  0  0  0  0  0  0  0  0
   -4.0766    2.8889   -0.7129 H   0  0  0  0  0  0  0  0  0  0  0  0
   -3.2056    2.6778   -2.2404 H   0  0  0  0  0  0  0  0  0  0  0  0
    5.9387    1.5639    0.0742 H   0  0  0  0  0  0  0  0  0  0  0  0
   -0.2737    0.4133   -0.1291 H   0  0  0  0  0  0  0  0  0  0  0  0
   -2.2777    2.4213    1.7294 H   0  0  0  0  0  0  0  0  0  0  0  0
   -0.9376    5.0227    2.6742 H   0  0  0  0  0  0  0  0  0  0  0  0
  1 20  1  0  0  0  0
  1 23  1  0  0  0  0
  2  5  1  0  0  0  0
  2  6  1  0  0  0  0
  2  7  1  0  0  0  0
  2  8  2  0  0  0  0
  3  6  1  0  0  0  0
  3  9  1  0  0  0  0
  3 10  1  0  0  0  0
  3 11  2  0  0  0  0
  4  9  1  0  0  0  0
  4 12  1  0  0  0  0
  4 13  1  0  0  0  0
  4 14  2  0  0  0  0
  5 24  1  0  0  0  0
  7 47  1  0  0  0  0
 10 48  1  0  0  0  0
 12 49  1  0  0  0  0
 13 50  1  0  0  0  0
 15 19  1  0  0  0  0
 15 21  1  0  0  0  0
 15 23  2  0  0  0  0
 16 27  2  0  0  0  0
 16 29  1  0  0  0  0
 17 28  1  0  0  0  0
 17 29  2  0  0  0  0
 18 27  1  0  0  0  0
 18 42  1  0  0  0  0
 18 43  1  0  0  0  0
 19 20  2  0  0  0  0
 19 25  1  0  0  0  0
 20 22  1  0  0  0  0
 21 26  1  0  0  0  0
 21 33  1  0  0  0  0
 21 34  1  0  0  0  0
 22 24  1  0  0  0  0
 22 31  1  0  0  0  0
 22 32  1  0  0  0  0
 23 35  1  0  0  0  0
 24 36  1  0  0  0  0
 24 37  1  0  0  0  0
 25 38  1  0  0  0  0
 25 39  1  0  0  0  0
 25 40  1  0  0  0  0
 26 27  1  0  0  0  0
 26 28  2  0  0  0  0
 28 41  1  0  0  0  0
 29 30  1  0  0  0  0
 30 44  1  0  0  0  0
 30 45  1  0  0  0  0
 30 46  1  0  0  0  0
M  CHG  1  15   1
M  END
> <PUBCHEM_COMPOUND_CID>
511

> <PUBCHEM_CONFORMER_RMSD>
1.4

> <PUBCHEM_CONFORMER_DIVERSEORDER>
15
108
129
2
22
71
1
120
136
7
94
131
36
137
115
134
99
85
102
87
38
60
103
93
32
81
104
4
83
96
110
44
28
100
132
107
13
59
9
46
35
122
92
135
55
86
112
30
69
77
138
70
73
113
45
48
95
21
121
49
84
90
41
63
29
127
42
78
75
124
67
54
27
12
34
52
23
57
53
26
128
106
111
125
51
16
74
17
82
101
97
10
116
14
47
130
37
66
39
18
20
64
105
79
88
114
91
33
62
80
61
126
24
89
56
43
50
109
6
58
98
118
31
40
25
72
119
76
117
123
3
5
133
68
11
19
65
8

> <PUBCHEM_MMFF94_PARTIAL_CHARGES>
38
1 -0.08
10 -0.77
11 -0.7
12 -0.77
13 -0.77
14 -0.7
15 -0.18
16 -0.62
17 -0.62
18 -0.9
19 0.15
2 1.51
20 -0.14
21 0.66
22 0.18
23 0.22
24 0.28
25 0.18
26 -0.14
27 0.41
28 0.16
29 0.48
3 1.51
30 0.14
35 0.15
4 1.51
41 0.15
42 0.4
43 0.4
47 0.5
48 0.5
49 0.5
5 -0.55
50 0.5
6 -0.54
7 -0.77
8 -0.7
9 -0.54

> <PUBCHEM_EFFECTIVE_ROTOR_COUNT>
10

> <PUBCHEM_PHARMACOPHORE_FEATURES>
13
1 10 acceptor
1 11 acceptor
1 12 acceptor
1 13 acceptor
1 14 acceptor
1 18 donor
1 7 acceptor
1 8 acceptor
3 16 17 29 cation
3 16 18 27 cation
4 4 12 13 14 anion
5 1 15 19 20 23 rings
6 16 17 26 27 28 29 rings

> <PUBCHEM_HEAVY_ATOM_COUNT>
30

> <PUBCHEM_ATOM_DEF_STEREO_COUNT>
0

> <PUBCHEM_ATOM_UDEF_STEREO_COUNT>
0

> <PUBCHEM_BOND_DEF_STEREO_COUNT>
0

> <PUBCHEM_BOND_UDEF_STEREO_COUNT>
0

> <PUBCHEM_ISOTOPIC_ATOM_COUNT>
0

> <PUBCHEM_COMPONENT_COUNT>
1

> <PUBCHEM_CACTVS_TAUTO_COUNT>
3

> <PUBCHEM_CONFORMER_ID>
000001FF0000000F

> <PUBCHEM_MMFF94_ENERGY>
-11.0327

> <PUBCHEM_FEATURE_SELFOVERLAP>
66.16

> <PUBCHEM_SHAPE_FINGERPRINT>
10708813 3 17182789199326721381
11513181 2 17608659636441151231
12422481 6 18055102997775117514
12788726 201 18261954149940882936
13122387 1 18340498750464724476
14251751 93 18201164238962672335
14251757 5 18196352746494684980
14466204 15 18197511623487239706
14725015 67 17981337689605289483
19930381 70 16465869633205022010
20764821 26 17185882688002343209
23558518 356 17615131413590308123
3052486 1 17618504728318629486
3298306 158 18341057354338504015
338550 245 17762059147872733940
7226269 152 18410580544400189344
81228 2 17330287571891222607

> <PUBCHEM_SHAPE_MULTIPOLES>
554.17
7.51
5.91
1.94
2.05
3.05
0.18
1.34
-1.78
-0.47
1.63
-0.27
0.45
-0.35

> <PUBCHEM_SHAPE_SELFOVERLAP>
1091.177

> <PUBCHEM_SHAPE_VOLUME>
334.3

> <PUBCHEM_COORDINATE_TYPE>
2
5
10

$$$$

