442161
  -OEChem-07051212572D

 67 71  0     1  0  0  0  0  0999 V2000
    4.6660    1.9874    0.0000 O   0  0  0  0  0  0  0  0  0  0  0  0
    6.4361    1.9632    0.0000 O   0  0  0  0  0  0  0  0  0  0  0  0
    5.5758    3.4666    0.0000 O   0  0  0  0  0  0  0  0  0  0  0  0
    2.0520    0.4181    0.0000 O   0  0  0  0  0  0  0  0  0  0  0  0
    8.1720    2.9565    0.0000 O   0  0  0  0  0  0  0  0  0  0  0  0
    8.1797    4.9565    0.0000 O   0  0  0  0  0  0  0  0  0  0  0  0
    6.4515    5.9632    0.0000 O   0  0  0  0  0  0  0  0  0  0  0  0
    3.8372   -5.7786    0.0000 O   0  0  0  0  0  0  0  0  0  0  0  0
    5.6405   -4.7188    0.0000 O   0  0  0  0  0  0  0  0  0  0  0  0
    4.7194    5.9699    0.0000 O   0  0  0  0  0  0  0  0  0  0  0  0
    2.9180   -1.0819    0.0000 N   0  0  0  0  0  0  0  0  0  0  0  0
    4.6501   -0.0819    0.0000 C   0  0  1  0  0  0  0  0  0  0  0  0
    3.7841   -1.5819    0.0000 C   0  0  2  0  0  0  0  0  0  0  0  0
    4.6501   -1.0819    0.0000 C   0  0  0  0  0  0  0  0  0  0  0  0
    5.5601    0.4250    0.0000 C   0  0  2  0  0  0  0  0  0  0  0  0
    3.7841    0.4181    0.0000 C   0  0  0  0  0  0  0  0  0  0  0  0
    5.5681    1.4666    0.0000 C   0  0  1  0  0  0  0  0  0  0  0  0
    3.8001   -2.6234    0.0000 C   0  0  0  0  0  0  0  0  0  0  0  0
    2.0080   -1.5887    0.0000 C   0  0  0  0  0  0  0  0  0  0  0  0
    2.9180   -0.0819    0.0000 C   0  0  0  0  0  0  0  0  0  0  0  0
    2.0000   -2.6303    0.0000 C   0  0  0  0  0  0  0  0  0  0  0  0
    2.9021   -3.1512    0.0000 C   0  0  0  0  0  0  0  0  0  0  0  0
    3.7680    1.4596    0.0000 C   0  0  0  0  0  0  0  0  0  0  0  0
    6.4399    2.9632    0.0000 C   0  0  2  0  0  0  0  0  0  0  0  0
    6.4203   -0.0850    0.0000 C   0  0  0  0  0  0  0  0  0  0  0  0
    7.3079    3.4599    0.0000 C   0  0  1  0  0  0  0  0  0  0  0  0
    7.3117    4.4599    0.0000 C   0  0  2  0  0  0  0  0  0  0  0  0
    6.4476    4.9632    0.0000 C   0  0  1  0  0  0  0  0  0  0  0  0
    4.7520   -3.1440    0.0000 C   0  0  0  0  0  0  0  0  0  0  0  0
    5.5797    4.4665    0.0000 C   0  0  1  0  0  0  0  0  0  0  0  0
    2.8937   -4.2361    0.0000 C   0  0  0  0  0  0  0  0  0  0  0  0
    4.7688   -4.2289    0.0000 C   0  0  0  0  0  0  0  0  0  0  0  0
    3.8334   -4.7786    0.0000 C   0  0  0  0  0  0  0  0  0  0  0  0
    4.7156    4.9699    0.0000 C   0  0  0  0  0  0  0  0  0  0  0  0
    7.2920    0.4049    0.0000 C   0  0  0  0  0  0  0  0  0  0  0  0
    2.9731   -6.2819    0.0000 C   0  0  0  0  0  0  0  0  0  0  0  0
    5.3829   -0.5125    0.0000 H   0  0  0  0  0  0  0  0  0  0  0  0
    4.5234   -2.0012    0.0000 H   0  0  0  0  0  0  0  0  0  0  0  0
    4.8621   -1.6645    0.0000 H   0  0  0  0  0  0  0  0  0  0  0  0
    5.2607   -0.9742    0.0000 H   0  0  0  0  0  0  0  0  0  0  0  0
    5.5517   -0.1950    0.0000 H   0  0  0  0  0  0  0  0  0  0  0  0
    6.1032    1.1535    0.0000 H   0  0  0  0  0  0  0  0  0  0  0  0
    1.8035   -1.0034    0.0000 H   0  0  0  0  0  0  0  0  0  0  0  0
    1.3964   -1.6901    0.0000 H   0  0  0  0  0  0  0  0  0  0  0  0
    1.3900   -2.5195    0.0000 H   0  0  0  0  0  0  0  0  0  0  0  0
    1.7864   -3.2124    0.0000 H   0  0  0  0  0  0  0  0  0  0  0  0
    3.2275    1.7634    0.0000 H   0  0  0  0  0  0  0  0  0  0  0  0
    6.9756    2.6511    0.0000 H   0  0  0  0  0  0  0  0  0  0  0  0
    6.4131   -0.7050    0.0000 H   0  0  0  0  0  0  0  0  0  0  0  0
    7.8460    3.7678    0.0000 H   0  0  0  0  0  0  0  0  0  0  0  0
    7.8474    4.1478    0.0000 H   0  0  0  0  0  0  0  0  0  0  0  0
    6.9858    5.2711    0.0000 H   0  0  0  0  0  0  0  0  0  0  0  0
    5.2829   -2.8237    0.0000 H   0  0  0  0  0  0  0  0  0  0  0  0
    5.0416    4.1586    0.0000 H   0  0  0  0  0  0  0  0  0  0  0  0
    2.3556   -4.5440    0.0000 H   0  0  0  0  0  0  0  0  0  0  0  0
    4.1054    5.0799    0.0000 H   0  0  0  0  0  0  0  0  0  0  0  0
    4.5013    4.3881    0.0000 H   0  0  0  0  0  0  0  0  0  0  0  0
    7.8253    0.0887    0.0000 H   0  0  0  0  0  0  0  0  0  0  0  0
    7.2992    1.0249    0.0000 H   0  0  0  0  0  0  0  0  0  0  0  0
    8.7101    3.2645    0.0000 H   0  0  0  0  0  0  0  0  0  0  0  0
    8.1820    5.5765    0.0000 H   0  0  0  0  0  0  0  0  0  0  0  0
    6.9896    6.2711    0.0000 H   0  0  0  0  0  0  0  0  0  0  0  0
    5.6477   -5.3388    0.0000 H   0  0  0  0  0  0  0  0  0  0  0  0
    4.1837    6.2819    0.0000 H   0  0  0  0  0  0  0  0  0  0  0  0
    2.6610   -5.7462    0.0000 H   0  0  0  0  0  0  0  0  0  0  0  0
    2.4374   -6.5940    0.0000 H   0  0  0  0  0  0  0  0  0  0  0  0
    3.2852   -6.8177    0.0000 H   0  0  0  0  0  0  0  0  0  0  0  0
  1 17  1  0  0  0  0
  1 23  1  0  0  0  0
 17  2  1  1  0  0  0
 24  2  1  6  0  0  0
  3 24  1  0  0  0  0
  3 30  1  0  0  0  0
  4 20  2  0  0  0  0
 26  5  1  1  0  0  0
  5 60  1  0  0  0  0
 27  6  1  6  0  0  0
  6 61  1  0  0  0  0
 28  7  1  1  0  0  0
  7 62  1  0  0  0  0
  8 33  1  0  0  0  0
  8 36  1  0  0  0  0
  9 32  1  0  0  0  0
  9 63  1  0  0  0  0
 10 34  1  0  0  0  0
 10 64  1  0  0  0  0
 11 13  1  0  0  0  0
 11 19  1  0  0  0  0
 11 20  1  0  0  0  0
 12 14  1  0  0  0  0
 12 15  1  0  0  0  0
 12 16  1  0  0  0  0
 12 37  1  1  0  0  0
 13 14  1  0  0  0  0
 13 18  1  0  0  0  0
 13 38  1  1  0  0  0
 14 39  1  0  0  0  0
 14 40  1  0  0  0  0
 15 17  1  0  0  0  0
 15 25  1  6  0  0  0
 15 41  1  0  0  0  0
 16 20  1  0  0  0  0
 16 23  2  0  0  0  0
 17 42  1  0  0  0  0
 18 22  1  0  0  0  0
 18 29  2  0  0  0  0
 19 21  1  0  0  0  0
 19 43  1  0  0  0  0
 19 44  1  0  0  0  0
 21 22  1  0  0  0  0
 21 45  1  0  0  0  0
 21 46  1  0  0  0  0
 22 31  2  0  0  0  0
 23 47  1  0  0  0  0
 24 26  1  0  0  0  0
 24 48  1  0  0  0  0
 25 35  2  0  0  0  0
 25 49  1  0  0  0  0
 26 27  1  0  0  0  0
 26 50  1  0  0  0  0
 27 28  1  0  0  0  0
 27 51  1  0  0  0  0
 28 30  1  0  0  0  0
 28 52  1  0  0  0  0
 29 32  1  0  0  0  0
 29 53  1  0  0  0  0
 30 34  1  6  0  0  0
 30 54  1  0  0  0  0
 31 33  1  0  0  0  0
 31 55  1  0  0  0  0
 32 33  2  0  0  0  0
 34 56  1  0  0  0  0
 34 57  1  0  0  0  0
 35 58  1  0  0  0  0
 35 59  1  0  0  0  0
 36 65  1  0  0  0  0
 36 66  1  0  0  0  0
 36 67  1  0  0  0  0
M  END
> <PUBCHEM_COMPOUND_CID>
442161

> <PUBCHEM_COMPOUND_CANONICALIZED>
1

> <PUBCHEM_CACTVS_COMPLEXITY>
868

> <PUBCHEM_CACTVS_HBOND_ACCEPTOR>
10

> <PUBCHEM_CACTVS_HBOND_DONOR>
5

> <PUBCHEM_CACTVS_ROTATABLE_BOND>
5

> <PUBCHEM_CACTVS_SUBSKEYS>
AAADceB6PAAAAAAAAAAAAAAAAAAAAAAAAAA8WJECAAAAAACxAAAAHgAACAAADTzxmAcyDoMABgCIAiFSEACCCAAgIAAIiAEOjMgdNjKGsRumcCtlxhGPuIf4/f+eoAABAAAQQABAAAIAACCAAAAAAAAAAA==

> <PUBCHEM_IUPAC_INCHI>
InChI=1S/C25H31NO10/c1-3-12-14-7-16-13-8-17(28)18(33-2)6-11(13)4-5-26(16)23(32)15(14)10-34-24(12)36-25-22(31)21(30)20(29)19(9-27)35-25/h3,6,8,10,12,14,16,19-22,24-25,27-31H,1,4-5,7,9H2,2H3/t12-,14+,16-,19-,20-,21+,22-,24+,25+/m1/s1

> <PUBCHEM_IUPAC_INCHIKEY>
BCYNGTTVQNJTCV-MDXCLUIBSA-N

> <PUBCHEM_XLOGP3_AA>
-0.1

> <PUBCHEM_EXACT_MASS>
505.194796

> <PUBCHEM_MOLECULAR_FORMULA>
C25H31NO10

> <PUBCHEM_MOLECULAR_WEIGHT>
505.51434

> <PUBCHEM_OPENEYE_CAN_SMILES>
COC1=C(C=C2C3CC4C(C(OC=C4C(=O)N3CCC2=C1)OC5C(C(C(C(O5)CO)O)O)O)C=C)O

> <PUBCHEM_OPENEYE_ISO_SMILES>
COC1=C(C=C2[C@H]3C[C@H]4[C@H]([C@@H](OC=C4C(=O)N3CCC2=C1)O[C@H]5[C@@H]([C@H]([C@@H]([C@H](O5)CO)O)O)O)C=C)O

> <PUBCHEM_CACTVS_TPSA>
158

> <PUBCHEM_MONOISOTOPIC_WEIGHT>
505.194796

> <PUBCHEM_TOTAL_CHARGE>
0

> <PUBCHEM_HEAVY_ATOM_COUNT>
36

> <PUBCHEM_ATOM_DEF_STEREO_COUNT>
9

> <PUBCHEM_ATOM_UDEF_STEREO_COUNT>
0

> <PUBCHEM_BOND_DEF_STEREO_COUNT>
0

> <PUBCHEM_BOND_UDEF_STEREO_COUNT>
0

> <PUBCHEM_ISOTOPIC_ATOM_COUNT>
0

> <PUBCHEM_COMPONENT_COUNT>
1

> <PUBCHEM_CACTVS_TAUTO_COUNT>
3

> <PUBCHEM_COORDINATE_TYPE>
1
5
255

> <PUBCHEM_BONDANNOTATIONS>
12  37  5
13  38  5
15  25  6
18  22  8
18  29  8
17  2  5
24  2  6
22  31  8
29  32  8
30  34  6
31  33  8
32  33  8
26  5  5
27  6  6
28  7  5

$$$$

