13453
  -OEChem-06261214233D

 26 27  0     0  0  0  0  0  0999 V2000
    3.7453    1.2601   -0.0346 O   0  0  0  0  0  0  0  0  0  0  0  0
   -3.7455    1.2601   -0.0364 O   0  0  0  0  0  0  0  0  0  0  0  0
    0.0000   -2.2109   -0.0324 O   0  0  0  0  0  0  0  0  0  0  0  0
    3.6926   -0.0867    0.0022 C   0  0  0  0  0  0  0  0  0  0  0  0
   -3.6926   -0.0866    0.0045 C   0  0  0  0  0  0  0  0  0  0  0  0
    2.4417   -0.7870   -0.0145 C   0  0  0  0  0  0  0  0  0  0  0  0
   -2.4416   -0.7868   -0.0133 C   0  0  0  0  0  0  0  0  0  0  0  0
    4.9360   -0.6438    0.0565 C   0  0  0  0  0  0  0  0  0  0  0  0
   -4.9359   -0.6437    0.0597 C   0  0  0  0  0  0  0  0  0  0  0  0
    1.2490   -0.1728   -0.0294 C   0  0  0  0  0  0  0  0  0  0  0  0
   -1.2489   -0.1727   -0.0290 C   0  0  0  0  0  0  0  0  0  0  0  0
    0.0000   -0.9861   -0.0296 C   0  0  0  0  0  0  0  0  0  0  0  0
    5.8386    0.4464    0.0532 C   0  0  0  0  0  0  0  0  0  0  0  0
   -5.8387    0.4462    0.0527 C   0  0  0  0  0  0  0  0  0  0  0  0
    5.0651    1.5823   -0.0030 C   0  0  0  0  0  0  0  0  0  0  0  0
   -5.0653    1.5821   -0.0066 C   0  0  0  0  0  0  0  0  0  0  0  0
    2.4941   -1.8730   -0.0053 H   0  0  0  0  0  0  0  0  0  0  0  0
   -2.4940   -1.8728   -0.0039 H   0  0  0  0  0  0  0  0  0  0  0  0
    5.1829   -1.6956    0.0946 H   0  0  0  0  0  0  0  0  0  0  0  0
   -5.1826   -1.6956    0.1000 H   0  0  0  0  0  0  0  0  0  0  0  0
    1.1610    0.9086   -0.0342 H   0  0  0  0  0  0  0  0  0  0  0  0
   -1.1608    0.9086   -0.0337 H   0  0  0  0  0  0  0  0  0  0  0  0
    6.9179    0.4089    0.0876 H   0  0  0  0  0  0  0  0  0  0  0  0
   -6.9179    0.4088    0.0865 H   0  0  0  0  0  0  0  0  0  0  0  0
    5.2889    2.6389   -0.0262 H   0  0  0  0  0  0  0  0  0  0  0  0
   -5.2893    2.6386   -0.0332 H   0  0  0  0  0  0  0  0  0  0  0  0
  1  4  1  0  0  0  0
  1 15  1  0  0  0  0
  2  5  1  0  0  0  0
  2 16  1  0  0  0  0
  3 12  2  0  0  0  0
  4  6  1  0  0  0  0
  4  8  2  0  0  0  0
  5  7  1  0  0  0  0
  5  9  2  0  0  0  0
  6 10  2  0  0  0  0
  6 17  1  0  0  0  0
  7 11  2  0  0  0  0
  7 18  1  0  0  0  0
  8 13  1  0  0  0  0
  8 19  1  0  0  0  0
  9 14  1  0  0  0  0
  9 20  1  0  0  0  0
 10 12  1  0  0  0  0
 10 21  1  0  0  0  0
 11 12  1  0  0  0  0
 11 22  1  0  0  0  0
 13 15  2  0  0  0  0
 13 23  1  0  0  0  0
 14 16  2  0  0  0  0
 14 24  1  0  0  0  0
 15 25  1  0  0  0  0
 16 26  1  0  0  0  0
M  END
> <PUBCHEM_COMPOUND_CID>
13453

> <PUBCHEM_CONFORMER_RMSD>
0.6

> <PUBCHEM_CONFORMER_DIVERSEORDER>
1
32
33
10
20
29
3
26
6
31
9
19
2
23
5
27
30
4
14
34
18
12
22
13
15
25
28
11
21
16
8
17
24
7

> <PUBCHEM_MMFF94_PARTIAL_CHARGES>
26
1 -0.28
10 -0.14
11 -0.14
12 0.54
13 -0.15
14 -0.15
15 -0.01
16 -0.01
17 0.15
18 0.15
19 0.15
2 -0.28
20 0.15
21 0.15
22 0.15
23 0.15
24 0.15
25 0.15
26 0.15
3 -0.57
4 0.09
5 0.09
6 -0.11
7 -0.11
8 -0.15
9 -0.15

> <PUBCHEM_EFFECTIVE_ROTOR_COUNT>
4

> <PUBCHEM_PHARMACOPHORE_FEATURES>
5
1 1 acceptor
1 2 acceptor
1 3 acceptor
5 1 4 8 13 15 rings
5 2 5 9 14 16 rings

> <PUBCHEM_HEAVY_ATOM_COUNT>
16

> <PUBCHEM_ATOM_DEF_STEREO_COUNT>
0

> <PUBCHEM_ATOM_UDEF_STEREO_COUNT>
0

> <PUBCHEM_BOND_DEF_STEREO_COUNT>
0

> <PUBCHEM_BOND_UDEF_STEREO_COUNT>
2

> <PUBCHEM_ISOTOPIC_ATOM_COUNT>
0

> <PUBCHEM_COMPONENT_COUNT>
1

> <PUBCHEM_CACTVS_TAUTO_COUNT>
1

> <PUBCHEM_CONFORMER_ID>
0000348D00000001

> <PUBCHEM_MMFF94_ENERGY>
21.7007

> <PUBCHEM_FEATURE_SELFOVERLAP>
25.371

> <PUBCHEM_SHAPE_FINGERPRINT>
100836 57 18410571786133476844
10354089 29 17846498132287572136
11128504 68 14562533955291122080
11287383 113 18408882923404375699
117890 112 18409167705896151440
12107183 9 17620479442173590769
12507557 5 17775282751546049101
12555020 224 9078824148985432057
12596602 18 16774075141961870041
12714333 28 17022904553481370770
12916748 109 18408316700690909200
13167372 99 18337390543063202248
13533116 47 17458343096175456878
13740256 8 9295279547803510135
13785724 45 17762905763843478754
14251764 18 18273219690745167346
14528608 73 18334579031421504662
14933364 13 18410852165893546504
15048467 5 18410293609686589136
15188451 53 15338542835948487353
15778101 99 18334571395840272329
17834072 33 18187086130793018503
19489759 90 17418375796633362577
200 152 10303815380184440951
20281389 69 18272091612372423445
20374829 77 8358261431987075767
20645477 56 18410855456207974863
20645477 70 17386276705648816470
20767249 213 18410856560151453533
212847 35 18408324376478079264
22224240 67 17989204842063878035
22950370 63 9295289447460631727
23035841 295 8358261440624548237
23272321 79 18411418384696836309
23402539 116 18260272927520141142
23402655 69 17967814955024483686
23536379 177 18410575102022445842
23559900 14 9294992541326056711
26918003 58 12319736968831853263
2767999 5 18407763637726115417
2916195 48 18408608032617726728
293599 30 18408885131086053098
29717793 49 16877933963177310516
300161 21 17821734914443333214
314194 84 10231745695650115721
351380 180 18411981360161832352
351380 3 9295289430280885965
3545911 37 18409164411276466238
4073 2 17988637451009031218
42788 4 18410573989446444427
4325135 7 18260270720687776887
441001 317 18409165537169847145
465052 167 11095883783121384368
49783359 22 11455885854428334033
5104073 3 18129656543179071771
542803 24 18410294709198028518
54446538 1 18411139134128543745
8272917 22 18336546105691533374

> <PUBCHEM_SHAPE_MULTIPOLES>
311.66
15.82
1.54
0.6
0
0.06
0
6.24
-0.32
0
0.01
0
0
0

> <PUBCHEM_SHAPE_SELFOVERLAP>
668.678

> <PUBCHEM_SHAPE_VOLUME>
173.3

> <PUBCHEM_COORDINATE_TYPE>
2
5
10

$$$$

