17100
  -OEChem-07051213093D

 29 29  0     1  0  0  0  0  0999 V2000
   -2.1424    0.1465   -1.3740 O   0  0  0  0  0  0  0  0  0  0  0  0
   -0.4981   -0.0185    0.3677 C   0  0  1  0  0  0  0  0  0  0  0  0
   -1.9892    0.0047    0.0391 C   0  0  0  0  0  0  0  0  0  0  0  0
    0.1872   -1.2387   -0.2557 C   0  0  0  0  0  0  0  0  0  0  0  0
    0.1850    1.2743   -0.1063 C   0  0  0  0  0  0  0  0  0  0  0  0
    1.6716   -1.2920    0.1189 C   0  0  0  0  0  0  0  0  0  0  0  0
    2.3670    0.0437    0.0350 C   0  0  0  0  0  0  0  0  0  0  0  0
    1.6834    1.1951   -0.0814 C   0  0  0  0  0  0  0  0  0  0  0  0
   -2.6806    1.1839    0.7229 C   0  0  0  0  0  0  0  0  0  0  0  0
   -2.6498   -1.3121    0.4428 C   0  0  0  0  0  0  0  0  0  0  0  0
    3.8658    0.0132    0.0909 C   0  0  0  0  0  0  0  0  0  0  0  0
   -0.3772   -0.0898    1.4590 H   0  0  0  0  0  0  0  0  0  0  0  0
    0.0954   -1.2109   -1.3493 H   0  0  0  0  0  0  0  0  0  0  0  0
   -0.2587   -2.1801    0.0798 H   0  0  0  0  0  0  0  0  0  0  0  0
   -0.1099    2.1040    0.5468 H   0  0  0  0  0  0  0  0  0  0  0  0
   -0.1140    1.5440   -1.1257 H   0  0  0  0  0  0  0  0  0  0  0  0
    2.1691   -2.0127   -0.5413 H   0  0  0  0  0  0  0  0  0  0  0  0
    1.7744   -1.6707    1.1437 H   0  0  0  0  0  0  0  0  0  0  0  0
    2.2201    2.1369   -0.1596 H   0  0  0  0  0  0  0  0  0  0  0  0
   -2.5109    1.1819    1.8046 H   0  0  0  0  0  0  0  0  0  0  0  0
   -3.7633    1.1487    0.5513 H   0  0  0  0  0  0  0  0  0  0  0  0
   -2.3551    2.1452    0.3120 H   0  0  0  0  0  0  0  0  0  0  0  0
   -2.3736   -2.1391   -0.2197 H   0  0  0  0  0  0  0  0  0  0  0  0
   -2.4218   -1.5829    1.4789 H   0  0  0  0  0  0  0  0  0  0  0  0
   -3.7406   -1.2352    0.3537 H   0  0  0  0  0  0  0  0  0  0  0  0
   -3.0943    0.1654   -1.5725 H   0  0  0  0  0  0  0  0  0  0  0  0
    4.2006   -0.4498    1.0248 H   0  0  0  0  0  0  0  0  0  0  0  0
    4.3018    1.0166    0.0414 H   0  0  0  0  0  0  0  0  0  0  0  0
    4.2657   -0.5659   -0.7476 H   0  0  0  0  0  0  0  0  0  0  0  0
  1  3  1  0  0  0  0
  1 26  1  0  0  0  0
  2  3  1  0  0  0  0
  2  4  1  0  0  0  0
  2  5  1  0  0  0  0
  2 12  1  0  0  0  0
  3  9  1  0  0  0  0
  3 10  1  0  0  0  0
  4  6  1  0  0  0  0
  4 13  1  0  0  0  0
  4 14  1  0  0  0  0
  5  8  1  0  0  0  0
  5 15  1  0  0  0  0
  5 16  1  0  0  0  0
  6  7  1  0  0  0  0
  6 17  1  0  0  0  0
  6 18  1  0  0  0  0
  7  8  2  0  0  0  0
  7 11  1  0  0  0  0
  8 19  1  0  0  0  0
  9 20  1  0  0  0  0
  9 21  1  0  0  0  0
  9 22  1  0  0  0  0
 10 23  1  0  0  0  0
 10 24  1  0  0  0  0
 10 25  1  0  0  0  0
 11 27  1  0  0  0  0
 11 28  1  0  0  0  0
 11 29  1  0  0  0  0
M  END
> <PUBCHEM_COMPOUND_CID>
17100

> <PUBCHEM_CONFORMER_RMSD>
0.4

> <PUBCHEM_CONFORMER_DIVERSEORDER>
1
4
2
3

> <PUBCHEM_MMFF94_PARTIAL_CHARGES>
9
1 -0.68
11 0.14
19 0.15
26 0.4
3 0.28
5 0.14
6 0.14
7 -0.28
8 -0.29

> <PUBCHEM_EFFECTIVE_ROTOR_COUNT>
1.8

> <PUBCHEM_PHARMACOPHORE_FEATURES>
4
1 1 acceptor
1 1 donor
3 3 9 10 hydrophobe
6 2 4 5 6 7 8 rings

> <PUBCHEM_HEAVY_ATOM_COUNT>
11

> <PUBCHEM_ATOM_DEF_STEREO_COUNT>
0

> <PUBCHEM_ATOM_UDEF_STEREO_COUNT>
1

> <PUBCHEM_BOND_DEF_STEREO_COUNT>
0

> <PUBCHEM_BOND_UDEF_STEREO_COUNT>
0

> <PUBCHEM_ISOTOPIC_ATOM_COUNT>
0

> <PUBCHEM_COMPONENT_COUNT>
1

> <PUBCHEM_CACTVS_TAUTO_COUNT>
1

> <PUBCHEM_CONFORMER_ID>
000042CC00000001

> <PUBCHEM_MMFF94_ENERGY>
18.9404

> <PUBCHEM_FEATURE_SELFOVERLAP>
20.297

> <PUBCHEM_SHAPE_FINGERPRINT>
10857977 72 18412268302579020674
12032990 46 18410284809820910510
12138202 97 17345777277007564703
12897270 3 18411985758144819134
12932764 1 17418376904302239370
14325111 11 18409727344355908576
15775835 57 17894347808454304704
16945 1 18343304803118300372
17844478 74 17704060824562170793
200 152 18261683571427902431
20201158 50 18343303673357415219
23235685 24 18410576201502372984
23402539 116 18260837012120492397
23402655 69 18264221369024790965
23463225 33 18341894121421152602
23552423 10 18271802406417286475
2748010 2 18123189009272556460
29004967 10 18413386548869881464
3248919 1 18409454699531232650
369184 2 17632580465433168395
5084963 1 17916869010705260141
528886 8 18409451418165643201
8030462 33 18187373137766669101

> <PUBCHEM_SHAPE_MULTIPOLES>
220.51
5.08
1.49
0.82
1.84
0.07
0.14
-0.02
-0.44
-0.27
-0.09
-0.42
-0.04
-0.08

> <PUBCHEM_SHAPE_SELFOVERLAP>
435.345

> <PUBCHEM_SHAPE_VOLUME>
132.2

> <PUBCHEM_COORDINATE_TYPE>
2
5
10

$$$$

