854348
  -OEChem-06241222482D

 30 31  0     0  0  0  0  0  0999 V2000
    4.5981   -2.1900    0.0000 N   0  0  0  0  0  0  0  0  0  0  0  0
    3.7320    2.3100    0.0000 N   0  0  0  0  0  0  0  0  0  0  0  0
    2.0000    0.3100    0.0000 N   0  0  0  0  0  0  0  0  0  0  0  0
    7.1962    0.3100    0.0000 N   0  0  0  0  0  0  0  0  0  0  0  0
    4.5981   -0.1900    0.0000 C   0  0  0  0  0  0  0  0  0  0  0  0
    3.7320   -0.6900    0.0000 C   0  0  0  0  0  0  0  0  0  0  0  0
    5.4641   -0.6900    0.0000 C   0  0  0  0  0  0  0  0  0  0  0  0
    4.5981    0.8100    0.0000 C   0  0  0  0  0  0  0  0  0  0  0  0
    5.4641   -1.6900    0.0000 C   0  0  0  0  0  0  0  0  0  0  0  0
    3.7320   -1.6900    0.0000 C   0  0  0  0  0  0  0  0  0  0  0  0
    6.3301   -2.1900    0.0000 C   0  0  0  0  0  0  0  0  0  0  0  0
    2.8660   -2.1900    0.0000 C   0  0  0  0  0  0  0  0  0  0  0  0
    5.4641    1.3100    0.0000 C   0  0  0  0  0  0  0  0  0  0  0  0
    3.7320    1.3100    0.0000 C   0  0  0  0  0  0  0  0  0  0  0  0
    2.8660   -0.1900    0.0000 C   0  0  0  0  0  0  0  0  0  0  0  0
    6.3301   -0.1900    0.0000 C   0  0  0  0  0  0  0  0  0  0  0  0
    5.4641    2.3100    0.0000 C   0  0  0  0  0  0  0  0  0  0  0  0
    4.5981    2.8100    0.0000 C   0  0  0  0  0  0  0  0  0  0  0  0
    5.1350    0.1200    0.0000 H   0  0  0  0  0  0  0  0  0  0  0  0
    4.5981   -2.8100    0.0000 H   0  0  0  0  0  0  0  0  0  0  0  0
    6.0201   -2.7269    0.0000 H   0  0  0  0  0  0  0  0  0  0  0  0
    6.8671   -2.5000    0.0000 H   0  0  0  0  0  0  0  0  0  0  0  0
    2.5560   -1.6531    0.0000 H   0  0  0  0  0  0  0  0  0  0  0  0
    2.3291   -2.5000    0.0000 H   0  0  0  0  0  0  0  0  0  0  0  0
    3.1760   -2.7269    0.0000 H   0  0  0  0  0  0  0  0  0  0  0  0
    6.6401   -1.6531    0.0000 H   0  0  0  0  0  0  0  0  0  0  0  0
    6.0010    1.0000    0.0000 H   0  0  0  0  0  0  0  0  0  0  0  0
    3.1951    1.0000    0.0000 H   0  0  0  0  0  0  0  0  0  0  0  0
    6.0010    2.6200    0.0000 H   0  0  0  0  0  0  0  0  0  0  0  0
    4.5981    3.4300    0.0000 H   0  0  0  0  0  0  0  0  0  0  0  0
  1  9  1  0  0  0  0
  1 10  1  0  0  0  0
  1 20  1  0  0  0  0
  2 14  1  0  0  0  0
  2 18  2  0  0  0  0
  3 15  3  0  0  0  0
  4 16  3  0  0  0  0
  5  6  1  0  0  0  0
  5  7  1  0  0  0  0
  5  8  1  0  0  0  0
  5 19  1  0  0  0  0
  6 10  2  0  0  0  0
  6 15  1  0  0  0  0
  7  9  2  0  0  0  0
  7 16  1  0  0  0  0
  8 13  1  0  0  0  0
  8 14  2  0  0  0  0
  9 11  1  0  0  0  0
 10 12  1  0  0  0  0
 11 21  1  0  0  0  0
 11 22  1  0  0  0  0
 11 26  1  0  0  0  0
 12 23  1  0  0  0  0
 12 24  1  0  0  0  0
 12 25  1  0  0  0  0
 13 17  2  0  0  0  0
 13 27  1  0  0  0  0
 14 28  1  0  0  0  0
 17 18  1  0  0  0  0
 17 29  1  0  0  0  0
 18 30  1  0  0  0  0
M  END
> <PUBCHEM_COMPOUND_CID>
854348

> <PUBCHEM_COMPOUND_CANONICALIZED>
1

> <PUBCHEM_CACTVS_COMPLEXITY>
470

> <PUBCHEM_CACTVS_HBOND_ACCEPTOR>
4

> <PUBCHEM_CACTVS_HBOND_DONOR>
1

> <PUBCHEM_CACTVS_ROTATABLE_BOND>
1

> <PUBCHEM_CACTVS_SUBSKEYS>
AAADccBzgAAAAAAAAAAAAAAAAAAAAAAAAAAsQAAAAAAAAAABgAAAHAAQAAAADQjBGgQ+gJLIEACwBjRnRACigCAxAiAI2CA4ZJgIoOLAkZGEIAhgkADIyA8QgAAOgAAAAAAAAAAAAAAAAAAAAAAAAAAAAA==

> <PUBCHEM_IUPAC_OPENEYE_NAME>
2,6-dimethyl-4-(3-pyridyl)-1,4-dihydropyridine-3,5-dicarbonitrile

> <PUBCHEM_IUPAC_CAS_NAME>
2,6-dimethyl-4-(3-pyridinyl)-1,4-dihydropyridine-3,5-dicarbonitrile

> <PUBCHEM_IUPAC_NAME>
2,6-dimethyl-4-pyridin-3-yl-1,4-dihydropyridine-3,5-dicarbonitrile

> <PUBCHEM_IUPAC_SYSTEMATIC_NAME>
2,6-dimethyl-4-pyridin-3-yl-1,4-dihydropyridine-3,5-dicarbonitrile

> <PUBCHEM_IUPAC_TRADITIONAL_NAME>
2,6-dimethyl-4-(3-pyridyl)-1,4-dihydropyridine-3,5-dicarbonitrile

> <PUBCHEM_IUPAC_INCHI>
InChI=1S/C14H12N4/c1-9-12(6-15)14(11-4-3-5-17-8-11)13(7-16)10(2)18-9/h3-5,8,14,18H,1-2H3

> <PUBCHEM_IUPAC_INCHIKEY>
HQRBSQHVTZZIRC-UHFFFAOYSA-N

> <PUBCHEM_XLOGP3_AA>
1.2

> <PUBCHEM_EXACT_MASS>
236.106196

> <PUBCHEM_MOLECULAR_FORMULA>
C14H12N4

> <PUBCHEM_MOLECULAR_WEIGHT>
236.27188

> <PUBCHEM_OPENEYE_CAN_SMILES>
CC1=C(C(C(=C(N1)C)C#N)C2=CN=CC=C2)C#N

> <PUBCHEM_OPENEYE_ISO_SMILES>
CC1=C(C(C(=C(N1)C)C#N)C2=CN=CC=C2)C#N

> <PUBCHEM_CACTVS_TPSA>
72.5

> <PUBCHEM_MONOISOTOPIC_WEIGHT>
236.106196

> <PUBCHEM_TOTAL_CHARGE>
0

> <PUBCHEM_HEAVY_ATOM_COUNT>
18

> <PUBCHEM_ATOM_DEF_STEREO_COUNT>
0

> <PUBCHEM_ATOM_UDEF_STEREO_COUNT>
0

> <PUBCHEM_BOND_DEF_STEREO_COUNT>
0

> <PUBCHEM_BOND_UDEF_STEREO_COUNT>
0

> <PUBCHEM_ISOTOPIC_ATOM_COUNT>
0

> <PUBCHEM_COMPONENT_COUNT>
1

> <PUBCHEM_CACTVS_TAUTO_COUNT>
1

> <PUBCHEM_COORDINATE_TYPE>
1
5
255

> <PUBCHEM_BONDANNOTATIONS>
13  17  8
17  18  8
2  14  8
2  18  8
8  13  8
8  14  8

$$$$

