441020
  -OEChem-07051212512D

 25 25  0     1  0  0  0  0  0999 V2000
    6.3909    1.8094    0.0000 P   0  0  0  0  0  0  0  0  0  0  0  0
    5.0298   -0.2919    0.0000 O   0  0  0  0  0  0  0  0  0  0  0  0
    3.6330    1.1049    0.0000 O   0  0  0  0  0  0  0  0  0  0  0  0
    2.4608    0.0171    0.0000 O   0  0  0  0  0  0  0  0  0  0  0  0
    3.1330   -2.0520    0.0000 O   0  0  0  0  0  0  0  0  0  0  0  0
    5.8031    1.0004    0.0000 O   0  0  0  0  0  0  0  0  0  0  0  0
    6.9787    2.6184    0.0000 O   0  0  0  0  0  0  0  0  0  0  0  0
    7.1999    1.2216    0.0000 O   0  0  0  0  0  0  0  0  0  0  0  0
    5.5819    2.3972    0.0000 O   0  0  0  0  0  0  0  0  0  0  0  0
    4.2208    0.2959    0.0000 C   0  0  3  0  0  0  0  0  0  0  0  0
    3.4118   -0.2919    0.0000 C   0  0  1  0  0  0  0  0  0  0  0  0
    3.7208   -1.2430    0.0000 C   0  0  2  0  0  0  0  0  0  0  0  0
    4.7208   -1.2430    0.0000 C   0  0  0  0  0  0  0  0  0  0  0  0
    4.8086    1.1049    0.0000 C   0  0  0  0  0  0  0  0  0  0  0  0
    2.9734   -0.7303    0.0000 H   0  0  0  0  0  0  0  0  0  0  0  0
    4.0023   -1.7954    0.0000 H   0  0  0  0  0  0  0  0  0  0  0  0
    4.6560   -1.8596    0.0000 H   0  0  0  0  0  0  0  0  0  0  0  0
    5.3273   -1.3719    0.0000 H   0  0  0  0  0  0  0  0  0  0  0  0
    4.9795    1.7009    0.0000 H   0  0  0  0  0  0  0  0  0  0  0  0
    4.2514    1.3767    0.0000 H   0  0  0  0  0  0  0  0  0  0  0  0
    3.8852    1.6713    0.0000 H   0  0  0  0  0  0  0  0  0  0  0  0
    2.0000   -0.3978    0.0000 H   0  0  0  0  0  0  0  0  0  0  0  0
    3.3852   -2.6184    0.0000 H   0  0  0  0  0  0  0  0  0  0  0  0
    7.5953    2.5536    0.0000 H   0  0  0  0  0  0  0  0  0  0  0  0
    7.1351    0.6050    0.0000 H   0  0  0  0  0  0  0  0  0  0  0  0
  1  6  1  0  0  0  0
  1  7  1  0  0  0  0
  1  8  1  0  0  0  0
  1  9  2  0  0  0  0
  2 10  1  0  0  0  0
  2 13  1  0  0  0  0
  3 10  1  0  0  0  0
  3 21  1  0  0  0  0
 11  4  1  1  0  0  0
  4 22  1  0  0  0  0
 12  5  1  6  0  0  0
  5 23  1  0  0  0  0
  6 14  1  0  0  0  0
  7 24  1  0  0  0  0
  8 25  1  0  0  0  0
 10 11  1  0  0  0  0
 10 14  1  0  0  0  0
 11 12  1  0  0  0  0
 11 15  1  0  0  0  0
 12 13  1  0  0  0  0
 12 16  1  0  0  0  0
 13 17  1  0  0  0  0
 13 18  1  0  0  0  0
 14 19  1  0  0  0  0
 14 20  1  0  0  0  0
M  END
> <PUBCHEM_COMPOUND_CID>
441020

> <PUBCHEM_COMPOUND_CANONICALIZED>
1

> <PUBCHEM_CACTVS_COMPLEXITY>
250

> <PUBCHEM_CACTVS_HBOND_ACCEPTOR>
8

> <PUBCHEM_CACTVS_HBOND_DONOR>
5

> <PUBCHEM_CACTVS_ROTATABLE_BOND>
3

> <PUBCHEM_CACTVS_SUBSKEYS>
AAADccBgPAIAAAAAAAAAAAAAAAAAASAAAAAAAAAAAAAAAAAAAAAAGgAACCAACBSggAIACAAABxAAQAAAAIAAAAAAAAAAAAAAAAAREAIAAAACQAAFAAAHAADAIAAAAAAAAAAAAAAAAAAAAAAAAAAAAAAAAA==

> <PUBCHEM_IUPAC_OPENEYE_NAME>
[(3R,4S)-2,3,4-trihydroxytetrahydrofuran-2-yl]methyl dihydrogen phosphate

> <PUBCHEM_IUPAC_CAS_NAME>
[(3R,4S)-2,3,4-trihydroxy-2-oxolanyl]methyl dihydrogen phosphate

> <PUBCHEM_IUPAC_NAME>
[(3R,4S)-2,3,4-trihydroxyoxolan-2-yl]methyl dihydrogen phosphate

> <PUBCHEM_IUPAC_SYSTEMATIC_NAME>
[(3R,4S)-2,3,4-tris(oxidanyl)oxolan-2-yl]methyl dihydrogen phosphate

> <PUBCHEM_IUPAC_TRADITIONAL_NAME>
[(3R,4S)-2,3,4-trihydroxytetrahydrofuran-2-yl]methyl dihydrogen phosphate

> <PUBCHEM_IUPAC_INCHI>
InChI=1S/C5H11O8P/c6-3-1-12-5(8,4(3)7)2-13-14(9,10)11/h3-4,6-8H,1-2H2,(H2,9,10,11)/t3-,4+,5?/m0/s1

> <PUBCHEM_IUPAC_INCHIKEY>
XALHHFQIICWKJR-PYHARJCCSA-N

> <PUBCHEM_XLOGP3_AA>
-3.9

> <PUBCHEM_EXACT_MASS>
230.019154

> <PUBCHEM_MOLECULAR_FORMULA>
C5H11O8P

> <PUBCHEM_MOLECULAR_WEIGHT>
230.109802

> <PUBCHEM_OPENEYE_CAN_SMILES>
C1C(C(C(O1)(COP(=O)(O)O)O)O)O

> <PUBCHEM_OPENEYE_ISO_SMILES>
C1[C@@H]([C@H](C(O1)(COP(=O)(O)O)O)O)O

> <PUBCHEM_CACTVS_TPSA>
137

> <PUBCHEM_MONOISOTOPIC_WEIGHT>
230.019154

> <PUBCHEM_TOTAL_CHARGE>
0

> <PUBCHEM_HEAVY_ATOM_COUNT>
14

> <PUBCHEM_ATOM_DEF_STEREO_COUNT>
2

> <PUBCHEM_ATOM_UDEF_STEREO_COUNT>
1

> <PUBCHEM_BOND_DEF_STEREO_COUNT>
0

> <PUBCHEM_BOND_UDEF_STEREO_COUNT>
0

> <PUBCHEM_ISOTOPIC_ATOM_COUNT>
0

> <PUBCHEM_COMPONENT_COUNT>
1

> <PUBCHEM_CACTVS_TAUTO_COUNT>
1

> <PUBCHEM_COORDINATE_TYPE>
1
5
255

> <PUBCHEM_BONDANNOTATIONS>
10  14  3
11  4  5
12  5  6

$$$$

