439661
  -OEChem-07051212463D

 28 27  0     0  0  0  0  0  0999 V2000
   -3.1384    1.2059   -1.0753 O   0  0  0  0  0  0  0  0  0  0  0  0
   -2.6102   -0.5810    0.3220 N   0  0  0  0  0  0  0  0  0  0  0  0
    1.9883    0.2305    0.1094 N   0  0  0  0  0  0  0  0  0  0  0  0
    3.5255    1.9067   -0.3367 N   0  0  0  0  0  0  0  0  0  0  0  0
    4.3581   -0.1609    0.1393 N   0  0  0  0  0  0  0  0  0  0  0  0
   -0.4767   -1.1653   -0.7596 C   0  0  0  0  0  0  0  0  0  0  0  0
    0.2583   -1.4401    0.5578 C   0  0  0  0  0  0  0  0  0  0  0  0
   -1.9770   -1.4215   -0.6562 C   0  0  0  0  0  0  0  0  0  0  0  0
    1.7563   -1.1730    0.4543 C   0  0  0  0  0  0  0  0  0  0  0  0
   -3.1407    0.6689    0.0292 C   0  0  0  0  0  0  0  0  0  0  0  0
    3.2237    0.6045   -0.0144 C   0  0  0  0  0  0  0  0  0  0  0  0
   -3.7671    1.3253    1.2302 C   0  0  0  0  0  0  0  0  0  0  0  0
   -0.0609   -1.8043   -1.5478 H   0  0  0  0  0  0  0  0  0  0  0  0
   -0.3143   -0.1260   -1.0695 H   0  0  0  0  0  0  0  0  0  0  0  0
    0.0999   -2.4835    0.8551 H   0  0  0  0  0  0  0  0  0  0  0  0
   -0.1563   -0.8106    1.3542 H   0  0  0  0  0  0  0  0  0  0  0  0
   -2.4465   -1.2510   -1.6312 H   0  0  0  0  0  0  0  0  0  0  0  0
   -2.1684   -2.4606   -0.3681 H   0  0  0  0  0  0  0  0  0  0  0  0
    2.2187   -1.4092    1.4202 H   0  0  0  0  0  0  0  0  0  0  0  0
    2.1863   -1.8332   -0.3088 H   0  0  0  0  0  0  0  0  0  0  0  0
   -2.6726   -0.9300    1.2742 H   0  0  0  0  0  0  0  0  0  0  0  0
   -3.9511    2.3820    1.0180 H   0  0  0  0  0  0  0  0  0  0  0  0
   -4.7158    0.8328    1.4604 H   0  0  0  0  0  0  0  0  0  0  0  0
   -3.1000    1.2536    2.0941 H   0  0  0  0  0  0  0  0  0  0  0  0
    2.7933    2.5932   -0.4826 H   0  0  0  0  0  0  0  0  0  0  0  0
    4.4849    2.2193   -0.4383 H   0  0  0  0  0  0  0  0  0  0  0  0
    5.2808    0.2422    0.0174 H   0  0  0  0  0  0  0  0  0  0  0  0
    4.3184   -1.1451    0.3787 H   0  0  0  0  0  0  0  0  0  0  0  0
  1 10  2  0  0  0  0
  2  8  1  0  0  0  0
  2 10  1  0  0  0  0
  2 21  1  0  0  0  0
  3  9  1  0  0  0  0
  3 11  2  0  0  0  0
  4 11  1  0  0  0  0
  4 25  1  0  0  0  0
  4 26  1  0  0  0  0
  5 11  1  0  0  0  0
  5 27  1  0  0  0  0
  5 28  1  0  0  0  0
  6  7  1  0  0  0  0
  6  8  1  0  0  0  0
  6 13  1  0  0  0  0
  6 14  1  0  0  0  0
  7  9  1  0  0  0  0
  7 15  1  0  0  0  0
  7 16  1  0  0  0  0
  8 17  1  0  0  0  0
  8 18  1  0  0  0  0
  9 19  1  0  0  0  0
  9 20  1  0  0  0  0
 10 12  1  0  0  0  0
 12 22  1  0  0  0  0
 12 23  1  0  0  0  0
 12 24  1  0  0  0  0
M  END
> <PUBCHEM_COMPOUND_CID>
439661

> <PUBCHEM_CONFORMER_RMSD>
0.6

> <PUBCHEM_CONFORMER_DIVERSEORDER>
1
170
9
152
47
149
20
143
37
169
10
154
105
168
137
112
42
114
31
34
171
68
157
77
117
145
49
146
6
165
39
110
158
74
175
95
140
14
147
83
129
5
138
55
23
167
166
45
27
121
69
153
107
160
151
63
79
17
161
84
75
62
118
163
54
119
80
94
7
172
8
125
173
115
36
123
70
111
91
141
124
136
30
85
11
133
127
2
130
134
100
155
25
67
150
60
142
128
4
116
29
164
12
139
120
90
108
18
174
122
96
132
13
88
51
126
19
41
93
98
156
24
73
64
32
72
35
15
162
148
97
144
92
38
57
59
81
104
159
48
78
66
113
58
102
76
40
56
61
89
87
28
135
52
106
131
50
71
53
99
21
33
44
16
82
109
3
46
65
43
86
103
101
22
26

> <PUBCHEM_MMFF94_PARTIAL_CHARGES>
15
1 -0.57
10 0.57
11 0.55
12 0.06
2 -0.73
21 0.37
25 0.4
26 0.4
27 0.4
28 0.4
3 -0.7
4 -0.85
5 -0.85
8 0.3
9 0.25

> <PUBCHEM_EFFECTIVE_ROTOR_COUNT>
6

> <PUBCHEM_PHARMACOPHORE_FEATURES>
5
1 1 acceptor
1 2 donor
1 4 donor
1 5 donor
4 3 4 5 11 cation

> <PUBCHEM_HEAVY_ATOM_COUNT>
12

> <PUBCHEM_ATOM_DEF_STEREO_COUNT>
0

> <PUBCHEM_ATOM_UDEF_STEREO_COUNT>
0

> <PUBCHEM_BOND_DEF_STEREO_COUNT>
0

> <PUBCHEM_BOND_UDEF_STEREO_COUNT>
0

> <PUBCHEM_ISOTOPIC_ATOM_COUNT>
0

> <PUBCHEM_COMPONENT_COUNT>
1

> <PUBCHEM_CACTVS_TAUTO_COUNT>
4

> <PUBCHEM_CONFORMER_ID>
0006B56D00000001

> <PUBCHEM_MMFF94_ENERGY>
16.8927

> <PUBCHEM_FEATURE_SELFOVERLAP>
25.428

> <PUBCHEM_SHAPE_FINGERPRINT>
10149128 111 18187080697933624217
11769659 78 9799693683768186851
122479 349 18411412904012800027
13618510 140 18336549403693036385
14123260 362 17967525800899364769
14251710 61 8718543947473511917
15775835 57 18409446998834257993
1741750 31 18259987063076622611
177051 138 10879992462714202762
17834072 14 7637395203479695566
17834072 32 18193839464782657285
17834072 8 18260263092715141230
18186145 218 18410572894657168822
19107657 162 12175632788572528544
19107657 9 18041278867695116681
201361 129 18342460365409099626
20653085 51 18336539439379764562
20671657 53 7781512620427339371
20711983 171 18187083940343925350
21524375 3 18409453574318834063
22485316 2 9295294928002464234
23402539 116 17095245851932234744
27216 239 18343297068293715689
3086196 2 12103571870251324167
6430166 295 18410579491816560810
8199 26 18408037398973282472
9882013 296 15626213598492464147

> <PUBCHEM_SHAPE_MULTIPOLES>
221.16
8.09
1.83
0.95
2.72
0.17
0.01
4.63
0.49
-0.15
-0.07
-0.72
0.09
-0.74

> <PUBCHEM_SHAPE_SELFOVERLAP>
411.31

> <PUBCHEM_SHAPE_VOLUME>
136.8

> <PUBCHEM_COORDINATE_TYPE>
2
5
10

$$$$

