7846935
  -OEChem-06241222472D

 38 40  0     0  0  0  0  0  0999 V2000
    4.6783    2.0368    0.0000 S   0  0  0  0  0  0  0  0  0  0  0  0
    8.2619   -0.5000    0.0000 O   0  0  0  0  0  0  0  0  0  0  0  0
   11.0406    0.3940    0.0000 O   0  0  0  0  0  0  0  0  0  0  0  0
    9.2619   -2.2320    0.0000 O   0  0  0  0  0  0  0  0  0  0  0  0
    8.2619    1.2320    0.0000 O   0  0  0  0  0  0  0  0  0  0  0  0
   10.7619   -1.3660    0.0000 N   0  0  0  0  0  0  0  0  0  0  0  0
   12.3007   -0.8660    0.0000 N   0  0  0  0  0  0  0  0  0  0  0  0
    4.6783    0.4273    0.0000 N   0  0  0  0  0  0  0  0  0  0  0  0
   11.3497   -2.1750    0.0000 C   0  0  0  0  0  0  0  0  0  0  0  0
   12.3007   -1.8660    0.0000 C   0  0  0  0  0  0  0  0  0  0  0  0
   11.3497   -0.5570    0.0000 C   0  0  0  0  0  0  0  0  0  0  0  0
    9.7619   -1.3660    0.0000 C   0  0  0  0  0  0  0  0  0  0  0  0
    6.2619    1.2320    0.0000 C   0  0  0  0  0  0  0  0  0  0  0  0
    6.7619    0.3660    0.0000 C   0  0  0  0  0  0  0  0  0  0  0  0
    9.2619   -0.5000    0.0000 C   0  0  0  0  0  0  0  0  0  0  0  0
    5.2619    1.2320    0.0000 C   0  0  0  0  0  0  0  0  0  0  0  0
    3.7320    1.7320    0.0000 C   0  0  0  0  0  0  0  0  0  0  0  0
    3.7320    0.7321    0.0000 C   0  0  0  0  0  0  0  0  0  0  0  0
    7.7619    0.3660    0.0000 C   0  0  0  0  0  0  0  0  0  0  0  0
    2.8660    2.2320    0.0000 C   0  0  0  0  0  0  0  0  0  0  0  0
    2.8660    0.2321    0.0000 C   0  0  0  0  0  0  0  0  0  0  0  0
    2.0000    1.7320    0.0000 C   0  0  0  0  0  0  0  0  0  0  0  0
    2.0000    0.7321    0.0000 C   0  0  0  0  0  0  0  0  0  0  0  0
   10.8127   -2.4850    0.0000 H   0  0  0  0  0  0  0  0  0  0  0  0
   11.6018   -2.7414    0.0000 H   0  0  0  0  0  0  0  0  0  0  0  0
   12.4296   -2.4725    0.0000 H   0  0  0  0  0  0  0  0  0  0  0  0
   12.9173   -1.8012    0.0000 H   0  0  0  0  0  0  0  0  0  0  0  0
   12.8023   -0.5016    0.0000 H   0  0  0  0  0  0  0  0  0  0  0  0
    6.8445    1.4441    0.0000 H   0  0  0  0  0  0  0  0  0  0  0  0
    6.1542    1.8426    0.0000 H   0  0  0  0  0  0  0  0  0  0  0  0
    6.1793    0.1540    0.0000 H   0  0  0  0  0  0  0  0  0  0  0  0
    6.8695   -0.2446    0.0000 H   0  0  0  0  0  0  0  0  0  0  0  0
    9.8445   -0.2879    0.0000 H   0  0  0  0  0  0  0  0  0  0  0  0
    9.1542    0.1106    0.0000 H   0  0  0  0  0  0  0  0  0  0  0  0
    2.8660    2.8521    0.0000 H   0  0  0  0  0  0  0  0  0  0  0  0
    2.8660   -0.3879    0.0000 H   0  0  0  0  0  0  0  0  0  0  0  0
    1.4631    2.0420    0.0000 H   0  0  0  0  0  0  0  0  0  0  0  0
    1.4631    0.4221    0.0000 H   0  0  0  0  0  0  0  0  0  0  0  0
  1 16  1  0  0  0  0
  1 17  1  0  0  0  0
  2 15  1  0  0  0  0
  2 19  1  0  0  0  0
  3 11  2  0  0  0  0
  4 12  2  0  0  0  0
  5 19  2  0  0  0  0
  6  9  1  0  0  0  0
  6 11  1  0  0  0  0
  6 12  1  0  0  0  0
  7 10  1  0  0  0  0
  7 11  1  0  0  0  0
  7 28  1  0  0  0  0
  8 16  2  0  0  0  0
  8 18  1  0  0  0  0
  9 10  1  0  0  0  0
  9 24  1  0  0  0  0
  9 25  1  0  0  0  0
 10 26  1  0  0  0  0
 10 27  1  0  0  0  0
 12 15  1  0  0  0  0
 13 14  1  0  0  0  0
 13 16  1  0  0  0  0
 13 29  1  0  0  0  0
 13 30  1  0  0  0  0
 14 19  1  0  0  0  0
 14 31  1  0  0  0  0
 14 32  1  0  0  0  0
 15 33  1  0  0  0  0
 15 34  1  0  0  0  0
 17 18  1  0  0  0  0
 17 20  2  0  0  0  0
 18 21  2  0  0  0  0
 20 22  1  0  0  0  0
 20 35  1  0  0  0  0
 21 23  1  0  0  0  0
 21 36  1  0  0  0  0
 22 23  2  0  0  0  0
 22 37  1  0  0  0  0
 23 38  1  0  0  0  0
M  END
> <PUBCHEM_COMPOUND_CID>
7846935

> <PUBCHEM_COMPOUND_CANONICALIZED>
1

> <PUBCHEM_CACTVS_COMPLEXITY>
487

> <PUBCHEM_CACTVS_HBOND_ACCEPTOR>
6

> <PUBCHEM_CACTVS_HBOND_DONOR>
1

> <PUBCHEM_CACTVS_ROTATABLE_BOND>
6

> <PUBCHEM_CACTVS_SUBSKEYS>
AAADccBzOABAAAAAAAAAAAAAAAAAAWLAAAAwAAAAAAAAAFgB8AAAHgQQAAAACAjh1gYxybPIFAisASXyXAKD8KBhCjhImL14ZJiKYLLgkZWXIAhslyL4yAc0AAAAAAAAAAAAAQAAAAAAAAACAAAAAAAAAA==

> <PUBCHEM_IUPAC_OPENEYE_NAME>
[2-oxo-2-(2-oxoimidazolidin-1-yl)ethyl] 3-(1,3-benzothiazol-2-yl)propanoate

> <PUBCHEM_IUPAC_CAS_NAME>
3-(1,3-benzothiazol-2-yl)propanoic acid [2-oxo-2-(2-oxo-1-imidazolidinyl)ethyl] ester

> <PUBCHEM_IUPAC_NAME>
[2-oxo-2-(2-oxoimidazolidin-1-yl)ethyl] 3-(1,3-benzothiazol-2-yl)propanoate

> <PUBCHEM_IUPAC_SYSTEMATIC_NAME>
[2-oxidanylidene-2-(2-oxidanylideneimidazolidin-1-yl)ethyl] 3-(1,3-benzothiazol-2-yl)propanoate

> <PUBCHEM_IUPAC_TRADITIONAL_NAME>
3-(1,3-benzothiazol-2-yl)propionic acid [2-keto-2-(2-ketoimidazolidin-1-yl)ethyl] ester

> <PUBCHEM_IUPAC_INCHI>
InChI=1S/C15H15N3O4S/c19-13(18-8-7-16-15(18)21)9-22-14(20)6-5-12-17-10-3-1-2-4-11(10)23-12/h1-4H,5-9H2,(H,16,21)

> <PUBCHEM_IUPAC_INCHIKEY>
YKAUVKCVFXKNGL-UHFFFAOYSA-N

> <PUBCHEM_XLOGP3_AA>
1.4

> <PUBCHEM_EXACT_MASS>
333.078327

> <PUBCHEM_MOLECULAR_FORMULA>
C15H15N3O4S

> <PUBCHEM_MOLECULAR_WEIGHT>
333.3623

> <PUBCHEM_OPENEYE_CAN_SMILES>
C1CN(C(=O)N1)C(=O)COC(=O)CCC2=NC3=CC=CC=C3S2

> <PUBCHEM_OPENEYE_ISO_SMILES>
C1CN(C(=O)N1)C(=O)COC(=O)CCC2=NC3=CC=CC=C3S2

> <PUBCHEM_CACTVS_TPSA>
117

> <PUBCHEM_MONOISOTOPIC_WEIGHT>
333.078327

> <PUBCHEM_TOTAL_CHARGE>
0

> <PUBCHEM_HEAVY_ATOM_COUNT>
23

> <PUBCHEM_ATOM_DEF_STEREO_COUNT>
0

> <PUBCHEM_ATOM_UDEF_STEREO_COUNT>
0

> <PUBCHEM_BOND_DEF_STEREO_COUNT>
0

> <PUBCHEM_BOND_UDEF_STEREO_COUNT>
0

> <PUBCHEM_ISOTOPIC_ATOM_COUNT>
0

> <PUBCHEM_COMPONENT_COUNT>
1

> <PUBCHEM_CACTVS_TAUTO_COUNT>
4

> <PUBCHEM_COORDINATE_TYPE>
1
5
255

> <PUBCHEM_BONDANNOTATIONS>
1  16  8
1  17  8
17  18  8
17  20  8
18  21  8
20  22  8
21  23  8
22  23  8
8  16  8
8  18  8

$$$$

