9102
  -OEChem-06261203242D

 17 19  0     1  0  0  0  0  0999 V2000
    3.4786   -0.5658    0.0000 C   0  0  3  0  0  0  0  0  0  0  0  0
    2.6696    0.0219    0.0000 C   0  0  3  0  0  0  0  0  0  0  0  0
    4.2876    0.0219    0.0000 C   0  0  3  0  0  0  0  0  0  0  0  0
    2.9786    0.9730    0.0000 C   0  0  3  0  0  0  0  0  0  0  0  0
    4.3925   -0.9730    0.0000 C   0  0  0  0  0  0  0  0  0  0  0  0
    2.0000    0.7652    0.0000 C   0  0  0  0  0  0  0  0  0  0  0  0
    3.9786    0.9730    0.0000 C   0  0  0  0  0  0  0  0  0  0  0  0
    3.1686   -1.1027    0.0000 H   0  0  0  0  0  0  0  0  0  0  0  0
    2.2548   -0.4389    0.0000 H   0  0  0  0  0  0  0  0  0  0  0  0
    4.8941    0.1509    0.0000 H   0  0  0  0  0  0  0  0  0  0  0  0
    2.9139    1.5896    0.0000 H   0  0  0  0  0  0  0  0  0  0  0  0
    4.2424   -1.5746    0.0000 H   0  0  0  0  0  0  0  0  0  0  0  0
    5.0110   -1.0162    0.0000 H   0  0  0  0  0  0  0  0  0  0  0  0
    1.7678    1.3401    0.0000 H   0  0  0  0  0  0  0  0  0  0  0  0
    1.4742    0.4366    0.0000 H   0  0  0  0  0  0  0  0  0  0  0  0
    4.5851    1.1019    0.0000 H   0  0  0  0  0  0  0  0  0  0  0  0
    3.9138    1.5896    0.0000 H   0  0  0  0  0  0  0  0  0  0  0  0
  1  2  1  0  0  0  0
  1  3  1  0  0  0  0
  1  5  1  0  0  0  0
  1  8  1  0  0  0  0
  2  4  1  0  0  0  0
  2  6  1  0  0  0  0
  2  9  1  0  0  0  0
  3  5  1  0  0  0  0
  3  7  1  0  0  0  0
  3 10  1  0  0  0  0
  4  6  1  0  0  0  0
  4  7  1  0  0  0  0
  4 11  1  0  0  0  0
  5 12  1  0  0  0  0
  5 13  1  0  0  0  0
  6 14  1  0  0  0  0
  6 15  1  0  0  0  0
  7 16  1  0  0  0  0
  7 17  1  0  0  0  0
M  END
> <PUBCHEM_COMPOUND_CID>
9102

> <PUBCHEM_COMPOUND_CANONICALIZED>
1

> <PUBCHEM_CACTVS_COMPLEXITY>
103

> <PUBCHEM_CACTVS_HBOND_ACCEPTOR>
0

> <PUBCHEM_CACTVS_HBOND_DONOR>
0

> <PUBCHEM_CACTVS_ROTATABLE_BOND>
0

> <PUBCHEM_CACTVS_SUBSKEYS>
AAADccBgAAAAAAAAAAAAAAAAGDAAAYAAAAAwYAAAAAAAAAAAAAAAGAAAAAAADQCAAAAAAAAAAAAAAAAAAAAAAAAAAAAAAAAAAAAAAAIAAAAAAAAAAAAAAAEAgAAOgAAAAAAAAAAAAAAAAAAAAQAACAAAAA==

> <PUBCHEM_IUPAC_INCHI>
InChI=1S/C7H10/c1-4-2-6(4)7-3-5(1)7/h4-7H,1-3H2

> <PUBCHEM_IUPAC_INCHIKEY>
XIIJQOYMVIJNEP-UHFFFAOYSA-N

> <PUBCHEM_XLOGP3_AA>
2.2

> <PUBCHEM_EXACT_MASS>
94.07825

> <PUBCHEM_MOLECULAR_FORMULA>
C7H10

> <PUBCHEM_MOLECULAR_WEIGHT>
94.1543

> <PUBCHEM_OPENEYE_CAN_SMILES>
C1C2CC2C3C1C3

> <PUBCHEM_OPENEYE_ISO_SMILES>
C1C2CC2C3C1C3

> <PUBCHEM_CACTVS_TPSA>
0

> <PUBCHEM_MONOISOTOPIC_WEIGHT>
94.07825

> <PUBCHEM_TOTAL_CHARGE>
0

> <PUBCHEM_HEAVY_ATOM_COUNT>
7

> <PUBCHEM_ATOM_DEF_STEREO_COUNT>
0

> <PUBCHEM_ATOM_UDEF_STEREO_COUNT>
4

> <PUBCHEM_BOND_DEF_STEREO_COUNT>
0

> <PUBCHEM_BOND_UDEF_STEREO_COUNT>
0

> <PUBCHEM_ISOTOPIC_ATOM_COUNT>
0

> <PUBCHEM_COMPONENT_COUNT>
1

> <PUBCHEM_CACTVS_TAUTO_COUNT>
1

> <PUBCHEM_COORDINATE_TYPE>
1
5
255

> <PUBCHEM_BONDANNOTATIONS>
1  5  3
2  6  3
3  5  3
4  7  3

$$$$

