443830
  -OEChem-07051213033D

 66 70  0     1  0  0  0  0  0999 V2000
   -2.3330    0.4645    0.2466 O   0  0  0  0  0  0  0  0  0  0  0  0
   -2.8095   -2.0320   -0.9742 O   0  0  0  0  0  0  0  0  0  0  0  0
   -4.6174    1.0681    0.4567 O   0  0  0  0  0  0  0  0  0  0  0  0
   -3.0849   -4.7623   -0.6032 O   0  0  0  0  0  0  0  0  0  0  0  0
   -5.4875    3.6517   -0.4868 O   0  0  0  0  0  0  0  0  0  0  0  0
    0.3713    1.5218    1.4156 O   0  0  0  0  0  0  0  0  0  0  0  0
    1.7196   -3.3604   -0.7751 O   0  0  0  0  0  0  0  0  0  0  0  0
    2.7366    2.2616    1.0107 O   0  0  0  0  0  0  0  0  0  0  0  0
    4.0595   -2.4774   -1.0725 O   0  0  0  0  0  0  0  0  0  0  0  0
    5.1212    3.1547    0.7151 O   0  0  0  0  0  0  0  0  0  0  0  0
   -2.8384    4.6099   -0.9677 N   0  0  0  0  0  0  0  0  0  0  0  0
   -2.3712   -2.6331    0.2467 C   0  0  2  0  0  0  0  0  0  0  0  0
   -2.5089   -1.6367    1.4086 C   0  0  0  0  0  0  0  0  0  0  0  0
   -1.6669   -0.3753    1.1905 C   0  0  1  0  0  0  0  0  0  0  0  0
   -0.9029   -3.0523    0.0726 C   0  0  0  0  0  0  0  0  0  0  0  0
   -0.2583   -0.6719    0.7327 C   0  0  0  0  0  0  0  0  0  0  0  0
    0.0877   -1.9145    0.1760 C   0  0  0  0  0  0  0  0  0  0  0  0
   -3.2469   -3.8660    0.4871 C   0  0  1  0  0  0  0  0  0  0  0  0
   -3.2780    1.3151    0.8893 C   0  0  2  0  0  0  0  0  0  0  0  0
   -2.8878    2.7777    0.6679 C   0  0  0  0  0  0  0  0  0  0  0  0
   -3.1199    3.1865   -0.7912 C   0  0  1  0  0  0  0  0  0  0  0  0
   -4.5564    2.8494   -1.2150 C   0  0  1  0  0  0  0  0  0  0  0  0
    0.7205    0.3311    0.8408 C   0  0  0  0  0  0  0  0  0  0  0  0
   -4.8483    1.3695   -0.9261 C   0  0  2  0  0  0  0  0  0  0  0  0
    1.4091   -2.1374   -0.2469 C   0  0  0  0  0  0  0  0  0  0  0  0
    2.0319    0.1026    0.4086 C   0  0  0  0  0  0  0  0  0  0  0  0
    2.3763   -1.1322   -0.1353 C   0  0  0  0  0  0  0  0  0  0  0  0
   -4.7101   -3.4904    0.6247 C   0  0  0  0  0  0  0  0  0  0  0  0
   -6.2931    0.9920   -1.2355 C   0  0  0  0  0  0  0  0  0  0  0  0
    3.0404    1.1748    0.5344 C   0  0  0  0  0  0  0  0  0  0  0  0
    3.7568   -1.3916   -0.5932 C   0  0  0  0  0  0  0  0  0  0  0  0
    4.4213    0.9170    0.0781 C   0  0  0  0  0  0  0  0  0  0  0  0
    4.7670   -0.3217   -0.4659 C   0  0  0  0  0  0  0  0  0  0  0  0
    5.3876    1.9232    0.1936 C   0  0  0  0  0  0  0  0  0  0  0  0
    6.0793   -0.5543   -0.8945 C   0  0  0  0  0  0  0  0  0  0  0  0
    6.6941    1.6874   -0.2352 C   0  0  0  0  0  0  0  0  0  0  0  0
    7.0392    0.4513   -0.7780 C   0  0  0  0  0  0  0  0  0  0  0  0
   -2.1931   -2.1281    2.3387 H   0  0  0  0  0  0  0  0  0  0  0  0
   -3.5508   -1.3275    1.5351 H   0  0  0  0  0  0  0  0  0  0  0  0
   -1.6010    0.0935    2.1817 H   0  0  0  0  0  0  0  0  0  0  0  0
   -0.7915   -3.5314   -0.9085 H   0  0  0  0  0  0  0  0  0  0  0  0
   -0.6390   -3.7810    0.8507 H   0  0  0  0  0  0  0  0  0  0  0  0
   -2.9265   -4.3964    1.3911 H   0  0  0  0  0  0  0  0  0  0  0  0
   -3.2978    1.1496    1.9728 H   0  0  0  0  0  0  0  0  0  0  0  0
   -1.8434    2.9557    0.9371 H   0  0  0  0  0  0  0  0  0  0  0  0
   -3.5059    3.4063    1.3227 H   0  0  0  0  0  0  0  0  0  0  0  0
   -2.4259    2.6274   -1.4311 H   0  0  0  0  0  0  0  0  0  0  0  0
   -4.6914    3.0652   -2.2820 H   0  0  0  0  0  0  0  0  0  0  0  0
   -4.1918    0.7372   -1.5369 H   0  0  0  0  0  0  0  0  0  0  0  0
   -2.6185   -2.6406   -1.7072 H   0  0  0  0  0  0  0  0  0  0  0  0
   -4.9222   -2.9606    1.5571 H   0  0  0  0  0  0  0  0  0  0  0  0
   -5.0661   -2.8856   -0.2161 H   0  0  0  0  0  0  0  0  0  0  0  0
   -5.3260   -4.3977    0.6228 H   0  0  0  0  0  0  0  0  0  0  0  0
   -3.5549   -4.3977   -1.3719 H   0  0  0  0  0  0  0  0  0  0  0  0
   -6.5609    1.2476   -2.2651 H   0  0  0  0  0  0  0  0  0  0  0  0
   -6.4335   -0.0864   -1.1001 H   0  0  0  0  0  0  0  0  0  0  0  0
   -6.9957    1.4778   -0.5502 H   0  0  0  0  0  0  0  0  0  0  0  0
   -1.9001    4.8192   -0.6287 H   0  0  0  0  0  0  0  0  0  0  0  0
   -3.4757    5.1607   -0.3934 H   0  0  0  0  0  0  0  0  0  0  0  0
   -6.3439    3.5994   -0.9435 H   0  0  0  0  0  0  0  0  0  0  0  0
   -0.5569    1.5545    1.6771 H   0  0  0  0  0  0  0  0  0  0  0  0
    1.1564   -4.0521   -0.3938 H   0  0  0  0  0  0  0  0  0  0  0  0
    6.3736   -1.5095   -1.3210 H   0  0  0  0  0  0  0  0  0  0  0  0
    7.4502    2.4635   -0.1491 H   0  0  0  0  0  0  0  0  0  0  0  0
    8.0572    0.2702   -1.1108 H   0  0  0  0  0  0  0  0  0  0  0  0
    4.1930    3.2206    0.9844 H   0  0  0  0  0  0  0  0  0  0  0  0
  1 14  1  0  0  0  0
  1 19  1  0  0  0  0
  2 12  1  0  0  0  0
  2 50  1  0  0  0  0
  3 19  1  0  0  0  0
  3 24  1  0  0  0  0
  4 18  1  0  0  0  0
  4 54  1  0  0  0  0
  5 22  1  0  0  0  0
  5 60  1  0  0  0  0
  6 23  1  0  0  0  0
  6 61  1  0  0  0  0
  7 25  1  0  0  0  0
  7 62  1  0  0  0  0
  8 30  2  0  0  0  0
  9 31  2  0  0  0  0
 10 34  1  0  0  0  0
 10 66  1  0  0  0  0
 11 21  1  0  0  0  0
 11 58  1  0  0  0  0
 11 59  1  0  0  0  0
 12 13  1  0  0  0  0
 12 15  1  0  0  0  0
 12 18  1  0  0  0  0
 13 14  1  0  0  0  0
 13 38  1  0  0  0  0
 13 39  1  0  0  0  0
 14 16  1  0  0  0  0
 14 40  1  0  0  0  0
 15 17  1  0  0  0  0
 15 41  1  0  0  0  0
 15 42  1  0  0  0  0
 16 17  2  0  0  0  0
 16 23  1  0  0  0  0
 17 25  1  0  0  0  0
 18 28  1  0  0  0  0
 18 43  1  0  0  0  0
 19 20  1  0  0  0  0
 19 44  1  0  0  0  0
 20 21  1  0  0  0  0
 20 45  1  0  0  0  0
 20 46  1  0  0  0  0
 21 22  1  0  0  0  0
 21 47  1  0  0  0  0
 22 24  1  0  0  0  0
 22 48  1  0  0  0  0
 23 26  2  0  0  0  0
 24 29  1  0  0  0  0
 24 49  1  0  0  0  0
 25 27  2  0  0  0  0
 26 27  1  0  0  0  0
 26 30  1  0  0  0  0
 27 31  1  0  0  0  0
 28 51  1  0  0  0  0
 28 52  1  0  0  0  0
 28 53  1  0  0  0  0
 29 55  1  0  0  0  0
 29 56  1  0  0  0  0
 29 57  1  0  0  0  0
 30 32  1  0  0  0  0
 31 33  1  0  0  0  0
 32 33  2  0  0  0  0
 32 34  1  0  0  0  0
 33 35  1  0  0  0  0
 34 36  2  0  0  0  0
 35 37  2  0  0  0  0
 35 63  1  0  0  0  0
 36 37  1  0  0  0  0
 36 64  1  0  0  0  0
 37 65  1  0  0  0  0
M  END
> <PUBCHEM_COMPOUND_CID>
443830

> <PUBCHEM_CONFORMER_RMSD>
0.8

> <PUBCHEM_CONFORMER_DIVERSEORDER>
1
8
13
11
6
14
10
7
12
16
3
5
9
4
2
15

> <PUBCHEM_MMFF94_PARTIAL_CHARGES>
44
1 -0.56
10 -0.53
11 -0.99
12 0.28
14 0.42
15 0.14
16 -0.14
17 -0.14
18 0.28
19 0.56
2 -0.68
21 0.27
22 0.28
23 0.08
24 0.28
25 0.08
26 0.09
27 0.09
3 -0.56
30 0.4
31 0.4
32 0.09
33 0.09
34 0.08
35 -0.15
36 -0.15
37 -0.15
4 -0.68
5 -0.68
50 0.4
54 0.4
58 0.36
59 0.36
6 -0.53
60 0.4
61 0.45
62 0.45
63 0.15
64 0.15
65 0.15
66 0.45
7 -0.53
8 -0.57
9 -0.57

> <PUBCHEM_EFFECTIVE_ROTOR_COUNT>
5

> <PUBCHEM_PHARMACOPHORE_FEATURES>
20
1 1 acceptor
1 10 donor
1 11 cation
1 11 donor
1 2 acceptor
1 2 donor
1 3 acceptor
1 4 acceptor
1 4 donor
1 5 acceptor
1 5 donor
1 6 donor
1 7 donor
1 8 acceptor
1 9 acceptor
6 12 13 14 15 16 17 rings
6 16 17 23 25 26 27 rings
6 26 27 30 31 32 33 rings
6 3 19 20 21 22 24 rings
6 32 33 34 35 36 37 rings

> <PUBCHEM_HEAVY_ATOM_COUNT>
37

> <PUBCHEM_ATOM_DEF_STEREO_COUNT>
6

> <PUBCHEM_ATOM_UDEF_STEREO_COUNT>
1

> <PUBCHEM_BOND_DEF_STEREO_COUNT>
0

> <PUBCHEM_BOND_UDEF_STEREO_COUNT>
0

> <PUBCHEM_ISOTOPIC_ATOM_COUNT>
0

> <PUBCHEM_COMPONENT_COUNT>
1

> <PUBCHEM_CACTVS_TAUTO_COUNT>
186

> <PUBCHEM_CONFORMER_ID>
0006C5B600000001

> <PUBCHEM_MMFF94_ENERGY>
121.611

> <PUBCHEM_FEATURE_SELFOVERLAP>
101.605

> <PUBCHEM_SHAPE_FINGERPRINT>
10050765 1 18412262857099377802
10258939 38 18195523701653101130
10556698 54 16688810541033096565
10675989 125 17545599410361882193
11578080 2 18343297102463823046
12107183 9 18056491766839433882
12788726 201 18200604570876124595
13383668 254 15936688156074152258
13690498 29 18337101251230233926
13944108 23 17045990174344270941
14713325 29 18411698742977152195
14790565 3 18050566541115064905
15064981 194 18339625777325527565
15198563 99 18339929191432400215
15439362 3 18194682806900657957
17899979 129 17836089244871529893
18608769 82 18411133598691114011
19958102 18 18337952406146940869
20715895 44 18339361984955521096
21033648 144 18335977644624515037
21033648 29 17774145946543408809
21236236 1 18335697191845064562
21279426 13 18261662732663261686
21360443 126 18342462534535921437
21859007 373 18338248115621866216
22393880 68 18409165494188629586
23559900 14 18187364312199888984
23569914 152 17319565083316176014
23576562 1 18199734883512853644
255183 451 17543918902209607975
2838139 119 18270121356249339205
3380486 145 18266440037396970969
3388396 114 17479998814348794605
350125 39 18116704124078474866
376196 1 17698725045304576209
4015057 19 17895193341776221272
44249763 50 18336273353613747344
508706 21 18337677421018743074
5283173 99 18410855443496886480
6700243 42 17830414389843692934

> <PUBCHEM_SHAPE_MULTIPOLES>
697.77
15.23
5.57
1.16
13.22
0.91
-0.03
-8.87
4.42
-8.31
0.93
-0.55
-0.21
2.53

> <PUBCHEM_SHAPE_SELFOVERLAP>
1546.638

> <PUBCHEM_SHAPE_VOLUME>
366.9

> <PUBCHEM_COORDINATE_TYPE>
2
5
10

$$$$

