251632
  -OEChem-07051213073D

 53 56  0     1  0  0  0  0  0999 V2000
    0.5613    1.8076    1.8195 O   0  0  0  0  0  0  0  0  0  0  0  0
    4.9549    0.7449   -0.5850 O   0  0  0  0  0  0  0  0  0  0  0  0
   -5.1346    0.1320   -1.7458 O   0  0  0  0  0  0  0  0  0  0  0  0
    2.5821    0.3074   -0.0091 C   0  0  2  0  0  0  0  0  0  0  0  0
    1.7132   -0.9167   -0.3683 C   0  0  2  0  0  0  0  0  0  0  0  0
    0.4088   -0.9987    0.4354 C   0  0  1  0  0  0  0  0  0  0  0  0
   -0.4338    0.3007    0.1623 C   0  0  2  0  0  0  0  0  0  0  0  0
    1.7853    1.6207   -0.2797 C   0  0  2  0  0  0  0  0  0  0  0  0
    0.3906    1.5983    0.4222 C   0  0  2  0  0  0  0  0  0  0  0  0
   -1.8481    0.2307    0.8607 C   0  0  2  0  0  0  0  0  0  0  0  0
    3.7918    0.0180   -0.9316 C   0  0  2  0  0  0  0  0  0  0  0  0
    2.6923   -2.0894   -0.2948 C   0  0  0  0  0  0  0  0  0  0  0  0
   -0.3727   -2.2791    0.0687 C   0  0  0  0  0  0  0  0  0  0  0  0
    4.0239   -1.4994   -0.7907 C   0  0  0  0  0  0  0  0  0  0  0  0
    3.0756    0.3049    1.4694 C   0  0  0  0  0  0  0  0  0  0  0  0
   -2.5001   -1.0531    0.3310 C   0  0  0  0  0  0  0  0  0  0  0  0
   -1.7741   -2.3278    0.6760 C   0  0  0  0  0  0  0  0  0  0  0  0
   -2.7520    1.4550    0.5419 C   0  0  0  0  0  0  0  0  0  0  0  0
    1.6025    1.9584   -1.7678 C   0  0  0  0  0  0  0  0  0  0  0  0
   -1.7682    0.1690    2.4076 C   0  0  0  0  0  0  0  0  0  0  0  0
   -3.3270    1.4366   -0.8627 C   0  0  0  0  0  0  0  0  0  0  0  0
   -3.5591   -1.0855   -0.4947 C   0  0  0  0  0  0  0  0  0  0  0  0
   -4.1125    0.1657   -1.0643 C   0  0  0  0  0  0  0  0  0  0  0  0
    1.4230   -0.8450   -1.4281 H   0  0  0  0  0  0  0  0  0  0  0  0
    0.6487   -1.0621    1.5014 H   0  0  0  0  0  0  0  0  0  0  0  0
   -0.6299    0.3018   -0.9214 H   0  0  0  0  0  0  0  0  0  0  0  0
    2.3601    2.4532    0.1501 H   0  0  0  0  0  0  0  0  0  0  0  0
   -0.1748    2.4591    0.0467 H   0  0  0  0  0  0  0  0  0  0  0  0
    3.5670    0.2238   -1.9835 H   0  0  0  0  0  0  0  0  0  0  0  0
    2.3737   -2.9293   -0.9208 H   0  0  0  0  0  0  0  0  0  0  0  0
    2.7970   -2.4615    0.7305 H   0  0  0  0  0  0  0  0  0  0  0  0
    0.1848   -3.1635    0.3996 H   0  0  0  0  0  0  0  0  0  0  0  0
   -0.4569   -2.3547   -1.0240 H   0  0  0  0  0  0  0  0  0  0  0  0
    4.8396   -1.7330   -0.0974 H   0  0  0  0  0  0  0  0  0  0  0  0
    4.3017   -1.9284   -1.7603 H   0  0  0  0  0  0  0  0  0  0  0  0
    3.6029    1.2375    1.7017 H   0  0  0  0  0  0  0  0  0  0  0  0
    2.2658    0.1977    2.1930 H   0  0  0  0  0  0  0  0  0  0  0  0
    3.7766   -0.5092    1.6797 H   0  0  0  0  0  0  0  0  0  0  0  0
   -1.7210   -2.4611    1.7617 H   0  0  0  0  0  0  0  0  0  0  0  0
   -2.2996   -3.2087    0.2874 H   0  0  0  0  0  0  0  0  0  0  0  0
   -2.2234    2.3979    0.7145 H   0  0  0  0  0  0  0  0  0  0  0  0
   -3.6003    1.4661    1.2430 H   0  0  0  0  0  0  0  0  0  0  0  0
    1.0014    2.8671   -1.8853 H   0  0  0  0  0  0  0  0  0  0  0  0
    2.5659    2.1620   -2.2454 H   0  0  0  0  0  0  0  0  0  0  0  0
    1.1040    1.1602   -2.3237 H   0  0  0  0  0  0  0  0  0  0  0  0
   -1.5742    1.1525    2.8465 H   0  0  0  0  0  0  0  0  0  0  0  0
   -2.7213   -0.1721    2.8322 H   0  0  0  0  0  0  0  0  0  0  0  0
   -0.9961   -0.5113    2.7752 H   0  0  0  0  0  0  0  0  0  0  0  0
   -0.0221    2.5398    2.0816 H   0  0  0  0  0  0  0  0  0  0  0  0
   -2.5481    1.5027   -1.6285 H   0  0  0  0  0  0  0  0  0  0  0  0
   -4.0047    2.2883   -0.9878 H   0  0  0  0  0  0  0  0  0  0  0  0
   -3.9798   -2.0173   -0.8568 H   0  0  0  0  0  0  0  0  0  0  0  0
    4.7350    1.6901   -0.6437 H   0  0  0  0  0  0  0  0  0  0  0  0
  1  9  1  0  0  0  0
  1 49  1  0  0  0  0
  2 11  1  0  0  0  0
  2 53  1  0  0  0  0
  3 23  2  0  0  0  0
  4  5  1  0  0  0  0
  4  8  1  0  0  0  0
  4 11  1  0  0  0  0
  4 15  1  0  0  0  0
  5  6  1  0  0  0  0
  5 12  1  0  0  0  0
  5 24  1  0  0  0  0
  6  7  1  0  0  0  0
  6 13  1  0  0  0  0
  6 25  1  0  0  0  0
  7  9  1  0  0  0  0
  7 10  1  0  0  0  0
  7 26  1  0  0  0  0
  8  9  1  0  0  0  0
  8 19  1  0  0  0  0
  8 27  1  0  0  0  0
  9 28  1  0  0  0  0
 10 16  1  0  0  0  0
 10 18  1  0  0  0  0
 10 20  1  0  0  0  0
 11 14  1  0  0  0  0
 11 29  1  0  0  0  0
 12 14  1  0  0  0  0
 12 30  1  0  0  0  0
 12 31  1  0  0  0  0
 13 17  1  0  0  0  0
 13 32  1  0  0  0  0
 13 33  1  0  0  0  0
 14 34  1  0  0  0  0
 14 35  1  0  0  0  0
 15 36  1  0  0  0  0
 15 37  1  0  0  0  0
 15 38  1  0  0  0  0
 16 17  1  0  0  0  0
 16 22  2  0  0  0  0
 17 39  1  0  0  0  0
 17 40  1  0  0  0  0
 18 21  1  0  0  0  0
 18 41  1  0  0  0  0
 18 42  1  0  0  0  0
 19 43  1  0  0  0  0
 19 44  1  0  0  0  0
 19 45  1  0  0  0  0
 20 46  1  0  0  0  0
 20 47  1  0  0  0  0
 20 48  1  0  0  0  0
 21 23  1  0  0  0  0
 21 50  1  0  0  0  0
 21 51  1  0  0  0  0
 22 23  1  0  0  0  0
 22 52  1  0  0  0  0
M  END
> <PUBCHEM_COMPOUND_CID>
251632

> <PUBCHEM_CONFORMER_RMSD>
0.6

> <PUBCHEM_CONFORMER_DIVERSEORDER>
1

> <PUBCHEM_MMFF94_PARTIAL_CHARGES>
14
1 -0.68
10 0.14
11 0.28
16 -0.28
17 0.14
2 -0.68
21 0.06
22 -0.14
23 0.49
3 -0.57
49 0.4
52 0.15
53 0.4
9 0.28

> <PUBCHEM_EFFECTIVE_ROTOR_COUNT>
1.8

> <PUBCHEM_PHARMACOPHORE_FEATURES>
9
1 1 acceptor
1 1 donor
1 2 acceptor
1 2 donor
1 3 acceptor
5 4 5 11 12 14 rings
6 10 16 18 21 22 23 rings
6 4 5 6 7 8 9 rings
6 6 7 10 13 16 17 rings

> <PUBCHEM_HEAVY_ATOM_COUNT>
23

> <PUBCHEM_ATOM_DEF_STEREO_COUNT>
8

> <PUBCHEM_ATOM_UDEF_STEREO_COUNT>
0

> <PUBCHEM_BOND_DEF_STEREO_COUNT>
0

> <PUBCHEM_BOND_UDEF_STEREO_COUNT>
0

> <PUBCHEM_ISOTOPIC_ATOM_COUNT>
0

> <PUBCHEM_COMPONENT_COUNT>
1

> <PUBCHEM_CACTVS_TAUTO_COUNT>
5

> <PUBCHEM_CONFORMER_ID>
0003D6F000000001

> <PUBCHEM_MMFF94_ENERGY>
88.1495

> <PUBCHEM_FEATURE_SELFOVERLAP>
45.782

> <PUBCHEM_SHAPE_FINGERPRINT>
10062212 137 17968375753521016975
10366900 7 17822008692780406616
10498660 4 18342452634499309950
10863032 1 18260550060274385194
11370993 70 18341056215808173550
11961588 58 17775293733402755111
12011746 2 18334858316481885198
12236239 1 17821721776148749049
12363563 72 17240759575427150241
12553582 1 18264188331835182240
12592029 89 18131073766317386299
12633257 1 12823290178676042942
12788726 201 17460577345929890584
13140716 1 17686332071374377994
13224815 77 18187076261084818202
13571099 22 18409445907949455614
14251745 187 18343309179674261325
14289901 80 15068615024282936322
14341114 328 8069737529095985975
14713325 29 16263162673729505940
15163728 17 15983708960188768583
15196674 1 18410005563747558246
15238133 3 16486987227374339604
15375358 24 18413389830641620368
15420108 30 16316112426049368912
16752209 62 18268994348394012480
16945 1 18341038653850456442
17349148 13 18260829323348291226
17357779 13 18410857702280555732
18186145 218 18411981399032757371
18219364 16 18272075102808171299
18769570 83 16988571207946219012
18981168 100 15481812464437010485
192875 21 18334299781401338037
19862831 5 18410291432191008583
19868273 293 17846503612523332731
200 152 17530966878049407551
20775438 99 16957928764026517879
21069387 34 17821445785228135861
21285901 2 18129389348319695959
221357 26 18334867129976368285
22182313 1 18193849132869591835
22393880 68 18337681926529257151
2334 1 18335411374698719602
23402539 116 17022615403403331448
23419403 2 15949721741097779986
23493267 7 17417516016836438658
23557571 272 14779536916176482355
23559900 14 18334859360259580568
25 1 18270965760242808643
2748010 2 17542787508273799827
2838139 119 16270549480718341559
296302 2 17561360673580727974
3286 77 17240773946841422986
34934 24 17918275346681578940
350125 39 18269540668497788291
4280585 95 17322666835246007934
46194498 28 17916576527864540031
5161694 15 17632572747245042701
74978 22 18201433640780675202
9709674 26 18337955575933324119

> <PUBCHEM_SHAPE_MULTIPOLES>
455.72
8.01
2.31
1.59
0.4
0.49
0.49
-0.06
-3.59
-0.29
-0.17
0.62
-0.53
0.27

> <PUBCHEM_SHAPE_SELFOVERLAP>
976.411

> <PUBCHEM_SHAPE_VOLUME>
250.1

> <PUBCHEM_COORDINATE_TYPE>
2
5
10

$$$$

