440222
  -OEChem-07051212492D

 90 90  0     1  0  0  0  0  0999 V2000
    6.3301   -3.9050    0.0000 O   0  0  0  0  0  0  0  0  0  0  0  0
    4.5981   -3.9050    0.0000 O   0  0  0  0  0  0  0  0  0  0  0  0
    6.3301   -5.9050    0.0000 O   0  0  0  0  0  0  0  0  0  0  0  0
    4.5981   -6.9050    0.0000 O   0  0  0  0  0  0  0  0  0  0  0  0
    2.8660   -5.9050    0.0000 O   0  0  0  0  0  0  0  0  0  0  0  0
    2.8660   -2.9050    0.0000 O   0  0  0  0  0  0  0  0  0  0  0  0
   12.3923    6.5950    0.0000 O   0  0  0  0  0  0  0  0  0  0  0  0
   10.6603    6.5950    0.0000 O   0  0  0  0  0  0  0  0  0  0  0  0
    5.4641   -4.4050    0.0000 C   0  0  2  0  0  0  0  0  0  0  0  0
    5.4641   -5.4050    0.0000 C   0  0  1  0  0  0  0  0  0  0  0  0
    4.5981   -5.9050    0.0000 C   0  0  2  0  0  0  0  0  0  0  0  0
    6.3301   -2.9050    0.0000 C   0  0  3  0  0  0  0  0  0  0  0  0
    3.7320   -5.4050    0.0000 C   0  0  1  0  0  0  0  0  0  0  0  0
    3.7320   -4.4050    0.0000 C   0  0  1  0  0  0  0  0  0  0  0  0
    7.1962   -2.4050    0.0000 C   0  0  0  0  0  0  0  0  0  0  0  0
    5.4641   -2.4050    0.0000 C   0  0  0  0  0  0  0  0  0  0  0  0
    7.1962   -1.4050    0.0000 C   0  0  0  0  0  0  0  0  0  0  0  0
    5.4641   -1.4050    0.0000 C   0  0  0  0  0  0  0  0  0  0  0  0
    8.0622   -0.9050    0.0000 C   0  0  0  0  0  0  0  0  0  0  0  0
    2.8660   -3.9050    0.0000 C   0  0  0  0  0  0  0  0  0  0  0  0
    4.5981   -0.9050    0.0000 C   0  0  0  0  0  0  0  0  0  0  0  0
    8.0622    0.0950    0.0000 C   0  0  0  0  0  0  0  0  0  0  0  0
    4.5981    0.0950    0.0000 C   0  0  0  0  0  0  0  0  0  0  0  0
    8.9282    0.5950    0.0000 C   0  0  0  0  0  0  0  0  0  0  0  0
    3.7320    0.5950    0.0000 C   0  0  0  0  0  0  0  0  0  0  0  0
    8.9282    1.5950    0.0000 C   0  0  0  0  0  0  0  0  0  0  0  0
    9.7942    2.0950    0.0000 C   0  0  0  0  0  0  0  0  0  0  0  0
    3.7320    1.5950    0.0000 C   0  0  0  0  0  0  0  0  0  0  0  0
    9.7942    3.0950    0.0000 C   0  0  0  0  0  0  0  0  0  0  0  0
    2.8660    2.0950    0.0000 C   0  0  0  0  0  0  0  0  0  0  0  0
   10.6603    3.5950    0.0000 C   0  0  0  0  0  0  0  0  0  0  0  0
    2.8660    3.0950    0.0000 C   0  0  0  0  0  0  0  0  0  0  0  0
   10.6603    4.5950    0.0000 C   0  0  0  0  0  0  0  0  0  0  0  0
   11.5263    5.0950    0.0000 C   0  0  0  0  0  0  0  0  0  0  0  0
    2.0000    3.5950    0.0000 C   0  0  0  0  0  0  0  0  0  0  0  0
   11.5263    6.0950    0.0000 C   0  0  0  0  0  0  0  0  0  0  0  0
    6.0010   -4.7150    0.0000 H   0  0  0  0  0  0  0  0  0  0  0  0
    5.4641   -6.0250    0.0000 H   0  0  0  0  0  0  0  0  0  0  0  0
    5.1350   -6.2150    0.0000 H   0  0  0  0  0  0  0  0  0  0  0  0
    7.0662   -3.3300    0.0000 H   0  0  0  0  0  0  0  0  0  0  0  0
    3.7320   -6.0250    0.0000 H   0  0  0  0  0  0  0  0  0  0  0  0
    3.7320   -3.7850    0.0000 H   0  0  0  0  0  0  0  0  0  0  0  0
    7.4082   -2.9876    0.0000 H   0  0  0  0  0  0  0  0  0  0  0  0
    7.8067   -2.2973    0.0000 H   0  0  0  0  0  0  0  0  0  0  0  0
    4.8535   -2.2973    0.0000 H   0  0  0  0  0  0  0  0  0  0  0  0
    5.2520   -2.9876    0.0000 H   0  0  0  0  0  0  0  0  0  0  0  0
    6.9841   -0.8224    0.0000 H   0  0  0  0  0  0  0  0  0  0  0  0
    6.5856   -1.5127    0.0000 H   0  0  0  0  0  0  0  0  0  0  0  0
    6.0747   -1.5127    0.0000 H   0  0  0  0  0  0  0  0  0  0  0  0
    5.6762   -0.8224    0.0000 H   0  0  0  0  0  0  0  0  0  0  0  0
    8.2742   -1.4876    0.0000 H   0  0  0  0  0  0  0  0  0  0  0  0
    8.6728   -0.7973    0.0000 H   0  0  0  0  0  0  0  0  0  0  0  0
    2.2554   -3.7973    0.0000 H   0  0  0  0  0  0  0  0  0  0  0  0
    2.6540   -4.4876    0.0000 H   0  0  0  0  0  0  0  0  0  0  0  0
    3.9875   -0.7973    0.0000 H   0  0  0  0  0  0  0  0  0  0  0  0
    4.3860   -1.4876    0.0000 H   0  0  0  0  0  0  0  0  0  0  0  0
    7.8501    0.6776    0.0000 H   0  0  0  0  0  0  0  0  0  0  0  0
    7.4516   -0.0127    0.0000 H   0  0  0  0  0  0  0  0  0  0  0  0
    5.2087   -0.0127    0.0000 H   0  0  0  0  0  0  0  0  0  0  0  0
    4.8101    0.6776    0.0000 H   0  0  0  0  0  0  0  0  0  0  0  0
    9.1403    0.0124    0.0000 H   0  0  0  0  0  0  0  0  0  0  0  0
    9.5388    0.7027    0.0000 H   0  0  0  0  0  0  0  0  0  0  0  0
    6.8671   -5.5950    0.0000 H   0  0  0  0  0  0  0  0  0  0  0  0
    4.0611   -7.2150    0.0000 H   0  0  0  0  0  0  0  0  0  0  0  0
    2.3291   -5.5950    0.0000 H   0  0  0  0  0  0  0  0  0  0  0  0
    3.1215    0.7027    0.0000 H   0  0  0  0  0  0  0  0  0  0  0  0
    3.5200    0.0124    0.0000 H   0  0  0  0  0  0  0  0  0  0  0  0
    8.7162    2.1776    0.0000 H   0  0  0  0  0  0  0  0  0  0  0  0
    8.3176    1.4873    0.0000 H   0  0  0  0  0  0  0  0  0  0  0  0
   10.0063    1.5124    0.0000 H   0  0  0  0  0  0  0  0  0  0  0  0
   10.4048    2.2027    0.0000 H   0  0  0  0  0  0  0  0  0  0  0  0
    4.3426    1.4873    0.0000 H   0  0  0  0  0  0  0  0  0  0  0  0
    3.9441    2.1776    0.0000 H   0  0  0  0  0  0  0  0  0  0  0  0
    9.5822    3.6776    0.0000 H   0  0  0  0  0  0  0  0  0  0  0  0
    9.1836    2.9873    0.0000 H   0  0  0  0  0  0  0  0  0  0  0  0
    2.3291   -2.5950    0.0000 H   0  0  0  0  0  0  0  0  0  0  0  0
    2.2554    2.2027    0.0000 H   0  0  0  0  0  0  0  0  0  0  0  0
    2.6540    1.5124    0.0000 H   0  0  0  0  0  0  0  0  0  0  0  0
   10.8723    3.0124    0.0000 H   0  0  0  0  0  0  0  0  0  0  0  0
   11.2708    3.7027    0.0000 H   0  0  0  0  0  0  0  0  0  0  0  0
    3.4766    2.9873    0.0000 H   0  0  0  0  0  0  0  0  0  0  0  0
    3.0781    3.6776    0.0000 H   0  0  0  0  0  0  0  0  0  0  0  0
   10.4482    5.1776    0.0000 H   0  0  0  0  0  0  0  0  0  0  0  0
   10.0497    4.4873    0.0000 H   0  0  0  0  0  0  0  0  0  0  0  0
   11.7383    4.5124    0.0000 H   0  0  0  0  0  0  0  0  0  0  0  0
   12.1369    5.2027    0.0000 H   0  0  0  0  0  0  0  0  0  0  0  0
    2.3100    4.1319    0.0000 H   0  0  0  0  0  0  0  0  0  0  0  0
    1.4631    3.9050    0.0000 H   0  0  0  0  0  0  0  0  0  0  0  0
    1.6900    3.0581    0.0000 H   0  0  0  0  0  0  0  0  0  0  0  0
   12.3923    7.2150    0.0000 H   0  0  0  0  0  0  0  0  0  0  0  0
  9  1  1  1  0  0  0
  1 12  1  0  0  0  0
  2  9  1  0  0  0  0
  2 14  1  0  0  0  0
 10  3  1  6  0  0  0
  3 63  1  0  0  0  0
 11  4  1  1  0  0  0
  4 64  1  0  0  0  0
 13  5  1  6  0  0  0
  5 65  1  0  0  0  0
  6 20  1  0  0  0  0
  6 76  1  0  0  0  0
  7 36  1  0  0  0  0
  7 90  1  0  0  0  0
  8 36  2  0  0  0  0
  9 10  1  0  0  0  0
  9 37  1  0  0  0  0
 10 11  1  0  0  0  0
 10 38  1  0  0  0  0
 11 13  1  0  0  0  0
 11 39  1  0  0  0  0
 12 15  1  0  0  0  0
 12 16  1  0  0  0  0
 12 40  1  0  0  0  0
 13 14  1  0  0  0  0
 13 41  1  0  0  0  0
 14 20  1  1  0  0  0
 14 42  1  0  0  0  0
 15 17  1  0  0  0  0
 15 43  1  0  0  0  0
 15 44  1  0  0  0  0
 16 18  1  0  0  0  0
 16 45  1  0  0  0  0
 16 46  1  0  0  0  0
 17 19  1  0  0  0  0
 17 47  1  0  0  0  0
 17 48  1  0  0  0  0
 18 21  1  0  0  0  0
 18 49  1  0  0  0  0
 18 50  1  0  0  0  0
 19 22  1  0  0  0  0
 19 51  1  0  0  0  0
 19 52  1  0  0  0  0
 20 53  1  0  0  0  0
 20 54  1  0  0  0  0
 21 23  1  0  0  0  0
 21 55  1  0  0  0  0
 21 56  1  0  0  0  0
 22 24  1  0  0  0  0
 22 57  1  0  0  0  0
 22 58  1  0  0  0  0
 23 25  1  0  0  0  0
 23 59  1  0  0  0  0
 23 60  1  0  0  0  0
 24 26  1  0  0  0  0
 24 61  1  0  0  0  0
 24 62  1  0  0  0  0
 25 28  1  0  0  0  0
 25 66  1  0  0  0  0
 25 67  1  0  0  0  0
 26 27  1  0  0  0  0
 26 68  1  0  0  0  0
 26 69  1  0  0  0  0
 27 29  1  0  0  0  0
 27 70  1  0  0  0  0
 27 71  1  0  0  0  0
 28 30  1  0  0  0  0
 28 72  1  0  0  0  0
 28 73  1  0  0  0  0
 29 31  1  0  0  0  0
 29 74  1  0  0  0  0
 29 75  1  0  0  0  0
 30 32  1  0  0  0  0
 30 77  1  0  0  0  0
 30 78  1  0  0  0  0
 31 33  1  0  0  0  0
 31 79  1  0  0  0  0
 31 80  1  0  0  0  0
 32 35  1  0  0  0  0
 32 81  1  0  0  0  0
 32 82  1  0  0  0  0
 33 34  1  0  0  0  0
 33 83  1  0  0  0  0
 33 84  1  0  0  0  0
 34 36  1  0  0  0  0
 34 85  1  0  0  0  0
 34 86  1  0  0  0  0
 35 87  1  0  0  0  0
 35 88  1  0  0  0  0
 35 89  1  0  0  0  0
M  END
> <PUBCHEM_COMPOUND_CID>
440222

> <PUBCHEM_COMPOUND_CANONICALIZED>
1

> <PUBCHEM_CACTVS_COMPLEXITY>
532

> <PUBCHEM_CACTVS_HBOND_ACCEPTOR>
8

> <PUBCHEM_CACTVS_HBOND_DONOR>
5

> <PUBCHEM_CACTVS_ROTATABLE_BOND>
23

> <PUBCHEM_CACTVS_SUBSKEYS>
AAADcfB4PAAAAAAAAAAAAAAAAAAAAAAAAAAkAAAAAAAAAAAAAAAAGgAACAAACBSwgAMCCAAABgAIAACQCAAAAAAAAAAAAAEAAAAREBIAAAAiQAAFAAAHAAHI6KyAAAAAAAAAAAAAAAAAAAAAAAAAAAAAAA==

> <PUBCHEM_IUPAC_OPENEYE_NAME>
13-[(2R,3R,4S,5S,6R)-3,4,5-trihydroxy-6-(hydroxymethyl)tetrahydropyran-2-yl]oxydocosanoic acid

> <PUBCHEM_IUPAC_CAS_NAME>
13-[[(2R,3R,4S,5S,6R)-3,4,5-trihydroxy-6-(hydroxymethyl)-2-oxanyl]oxy]docosanoic acid

> <PUBCHEM_IUPAC_NAME>
13-[(2R,3R,4S,5S,6R)-3,4,5-trihydroxy-6-(hydroxymethyl)oxan-2-yl]oxydocosanoic acid

> <PUBCHEM_IUPAC_SYSTEMATIC_NAME>
13-[(2R,3R,4S,5S,6R)-6-(hydroxymethyl)-3,4,5-tris(oxidanyl)oxan-2-yl]oxydocosanoic acid

> <PUBCHEM_IUPAC_TRADITIONAL_NAME>
13-[(2R,3R,4S,5S,6R)-3,4,5-trihydroxy-6-methylol-tetrahydropyran-2-yl]oxybehenic acid

> <PUBCHEM_IUPAC_INCHI>
InChI=1S/C28H54O8/c1-2-3-4-5-9-12-15-18-22(35-28-27(34)26(33)25(32)23(21-29)36-28)19-16-13-10-7-6-8-11-14-17-20-24(30)31/h22-23,25-29,32-34H,2-21H2,1H3,(H,30,31)/t22?,23-,25-,26+,27-,28-/m1/s1

> <PUBCHEM_IUPAC_INCHIKEY>
MVSYTBQOJXSHFZ-SFOFOFCKSA-N

> <PUBCHEM_XLOGP3_AA>
6.9

> <PUBCHEM_EXACT_MASS>
518.381869

> <PUBCHEM_MOLECULAR_FORMULA>
C28H54O8

> <PUBCHEM_MOLECULAR_WEIGHT>
518.72356

> <PUBCHEM_OPENEYE_CAN_SMILES>
CCCCCCCCCC(CCCCCCCCCCCC(=O)O)OC1C(C(C(C(O1)CO)O)O)O

> <PUBCHEM_OPENEYE_ISO_SMILES>
CCCCCCCCCC(CCCCCCCCCCCC(=O)O)O[C@H]1[C@@H]([C@H]([C@@H]([C@H](O1)CO)O)O)O

> <PUBCHEM_CACTVS_TPSA>
137

> <PUBCHEM_MONOISOTOPIC_WEIGHT>
518.381869

> <PUBCHEM_TOTAL_CHARGE>
0

> <PUBCHEM_HEAVY_ATOM_COUNT>
36

> <PUBCHEM_ATOM_DEF_STEREO_COUNT>
5

> <PUBCHEM_ATOM_UDEF_STEREO_COUNT>
1

> <PUBCHEM_BOND_DEF_STEREO_COUNT>
0

> <PUBCHEM_BOND_UDEF_STEREO_COUNT>
0

> <PUBCHEM_ISOTOPIC_ATOM_COUNT>
0

> <PUBCHEM_COMPONENT_COUNT>
1

> <PUBCHEM_CACTVS_TAUTO_COUNT>
1

> <PUBCHEM_COORDINATE_TYPE>
1
5
255

> <PUBCHEM_BONDANNOTATIONS>
9  1  5
12  40  3
14  20  5
10  3  6
11  4  5
13  5  6

$$$$

