442051
  -OEChem-07051212562D

 61 63  0     1  0  0  0  0  0999 V2000
    7.5836   -1.3851    0.0000 O   0  0  0  0  0  0  0  0  0  0  0  0
    5.0000   -0.5804    0.0000 O   0  0  0  0  0  0  0  0  0  0  0  0
    7.2730    1.1749    0.0000 O   0  0  0  0  0  0  0  0  0  0  0  0
    9.3798    1.4612    0.0000 O   0  0  0  0  0  0  0  0  0  0  0  0
    5.0000   -2.3124    0.0000 O   0  0  0  0  0  0  0  0  0  0  0  0
    8.4297    2.4641    0.0000 O   0  0  0  0  0  0  0  0  0  0  0  0
   10.2740    2.9889    0.0000 O   0  0  0  0  0  0  0  0  0  0  0  0
    7.0000   -0.5804    0.0000 C   0  0  2  0  0  0  0  0  0  0  0  0
    6.0000   -0.5804    0.0000 C   0  0  0  0  0  0  0  0  0  0  0  0
    7.5836    0.2244    0.0000 C   0  0  1  0  0  0  0  0  0  0  0  0
    8.5298   -0.0804    0.0000 C   0  0  0  0  0  0  0  0  0  0  0  0
    8.5298   -1.0804    0.0000 C   0  0  0  0  0  0  0  0  0  0  0  0
    6.0000   -1.5804    0.0000 C   0  0  0  0  0  0  0  0  0  0  0  0
    6.0000    0.4196    0.0000 C   0  0  0  0  0  0  0  0  0  0  0  0
    9.3958    0.4196    0.0000 C   0  0  0  0  0  0  0  0  0  0  0  0
    9.3958   -1.5804    0.0000 C   0  0  0  0  0  0  0  0  0  0  0  0
   10.2619   -0.0804    0.0000 C   0  0  0  0  0  0  0  0  0  0  0  0
   10.2619   -1.0804    0.0000 C   0  0  0  0  0  0  0  0  0  0  0  0
    4.5000   -1.4464    0.0000 C   0  0  0  0  0  0  0  0  0  0  0  0
    7.4792    2.1534    0.0000 C   0  0  0  0  0  0  0  0  0  0  0  0
    3.5000   -1.4464    0.0000 C   0  0  0  0  0  0  0  0  0  0  0  0
    6.7349    2.8212    0.0000 C   0  0  0  0  0  0  0  0  0  0  0  0
    3.0000   -2.3124    0.0000 C   0  0  0  0  0  0  0  0  0  0  0  0
   11.1719    0.4265    0.0000 C   0  0  0  0  0  0  0  0  0  0  0  0
    5.7843    2.5106    0.0000 C   0  0  0  0  0  0  0  0  0  0  0  0
   10.2778    1.9889    0.0000 C   0  0  0  0  0  0  0  0  0  0  0  0
   11.1799    1.4681    0.0000 C   0  0  0  0  0  0  0  0  0  0  0  0
    2.0000   -2.3124    0.0000 C   0  0  0  0  0  0  0  0  0  0  0  0
    3.5000   -3.1784    0.0000 C   0  0  0  0  0  0  0  0  0  0  0  0
    5.0400    3.1784    0.0000 C   0  0  0  0  0  0  0  0  0  0  0  0
    5.5781    1.5321    0.0000 C   0  0  0  0  0  0  0  0  0  0  0  0
    6.6138   -1.3375    0.0000 H   0  0  0  0  0  0  0  0  0  0  0  0
    6.9711    0.3206    0.0000 H   0  0  0  0  0  0  0  0  0  0  0  0
    5.3800   -1.5804    0.0000 H   0  0  0  0  0  0  0  0  0  0  0  0
    6.0000   -2.2003    0.0000 H   0  0  0  0  0  0  0  0  0  0  0  0
    6.6200   -1.5804    0.0000 H   0  0  0  0  0  0  0  0  0  0  0  0
    6.6200    0.4196    0.0000 H   0  0  0  0  0  0  0  0  0  0  0  0
    6.0000    1.0396    0.0000 H   0  0  0  0  0  0  0  0  0  0  0  0
    5.3800    0.4196    0.0000 H   0  0  0  0  0  0  0  0  0  0  0  0
    9.3958   -2.2003    0.0000 H   0  0  0  0  0  0  0  0  0  0  0  0
   10.7988   -1.3904    0.0000 H   0  0  0  0  0  0  0  0  0  0  0  0
    3.6077   -0.8358    0.0000 H   0  0  0  0  0  0  0  0  0  0  0  0
    2.9174   -1.2343    0.0000 H   0  0  0  0  0  0  0  0  0  0  0  0
    7.2228    3.2038    0.0000 H   0  0  0  0  0  0  0  0  0  0  0  0
    6.4428    3.3682    0.0000 H   0  0  0  0  0  0  0  0  0  0  0  0
    2.6900   -1.7755    0.0000 H   0  0  0  0  0  0  0  0  0  0  0  0
    5.9122    3.1173    0.0000 H   0  0  0  0  0  0  0  0  0  0  0  0
   11.7052    0.1103    0.0000 H   0  0  0  0  0  0  0  0  0  0  0  0
   11.7180    1.7760    0.0000 H   0  0  0  0  0  0  0  0  0  0  0  0
    2.0000   -1.6924    0.0000 H   0  0  0  0  0  0  0  0  0  0  0  0
    1.3800   -2.3124    0.0000 H   0  0  0  0  0  0  0  0  0  0  0  0
    2.0000   -2.9324    0.0000 H   0  0  0  0  0  0  0  0  0  0  0  0
    2.9631   -3.4884    0.0000 H   0  0  0  0  0  0  0  0  0  0  0  0
    3.8100   -3.7154    0.0000 H   0  0  0  0  0  0  0  0  0  0  0  0
    4.0369   -2.8684    0.0000 H   0  0  0  0  0  0  0  0  0  0  0  0
    5.4541    3.6399    0.0000 H   0  0  0  0  0  0  0  0  0  0  0  0
    4.5786    3.5925    0.0000 H   0  0  0  0  0  0  0  0  0  0  0  0
    4.6260    2.7170    0.0000 H   0  0  0  0  0  0  0  0  0  0  0  0
    4.9714    1.6599    0.0000 H   0  0  0  0  0  0  0  0  0  0  0  0
    5.4503    0.9254    0.0000 H   0  0  0  0  0  0  0  0  0  0  0  0
    6.1848    1.4042    0.0000 H   0  0  0  0  0  0  0  0  0  0  0  0
  1  8  1  0  0  0  0
  1 12  1  0  0  0  0
  2  9  1  0  0  0  0
  2 19  1  0  0  0  0
 10  3  1  6  0  0  0
  3 20  1  0  0  0  0
  4 15  1  0  0  0  0
  4 26  1  0  0  0  0
  5 19  2  0  0  0  0
  6 20  2  0  0  0  0
  7 26  2  0  0  0  0
  8  9  1  0  0  0  0
  8 10  1  0  0  0  0
  8 32  1  1  0  0  0
  9 13  1  0  0  0  0
  9 14  1  0  0  0  0
 10 11  1  0  0  0  0
 10 33  1  0  0  0  0
 11 12  2  0  0  0  0
 11 15  1  0  0  0  0
 12 16  1  0  0  0  0
 13 34  1  0  0  0  0
 13 35  1  0  0  0  0
 13 36  1  0  0  0  0
 14 37  1  0  0  0  0
 14 38  1  0  0  0  0
 14 39  1  0  0  0  0
 15 17  2  0  0  0  0
 16 18  2  0  0  0  0
 16 40  1  0  0  0  0
 17 18  1  0  0  0  0
 17 24  1  0  0  0  0
 18 41  1  0  0  0  0
 19 21  1  0  0  0  0
 20 22  1  0  0  0  0
 21 23  1  0  0  0  0
 21 42  1  0  0  0  0
 21 43  1  0  0  0  0
 22 25  1  0  0  0  0
 22 44  1  0  0  0  0
 22 45  1  0  0  0  0
 23 28  1  0  0  0  0
 23 29  1  0  0  0  0
 23 46  1  0  0  0  0
 24 27  2  0  0  0  0
 24 48  1  0  0  0  0
 25 30  1  0  0  0  0
 25 31  1  0  0  0  0
 25 47  1  0  0  0  0
 26 27  1  0  0  0  0
 27 49  1  0  0  0  0
 28 50  1  0  0  0  0
 28 51  1  0  0  0  0
 28 52  1  0  0  0  0
 29 53  1  0  0  0  0
 29 54  1  0  0  0  0
 29 55  1  0  0  0  0
 30 56  1  0  0  0  0
 30 57  1  0  0  0  0
 30 58  1  0  0  0  0
 31 59  1  0  0  0  0
 31 60  1  0  0  0  0
 31 61  1  0  0  0  0
M  END
> <PUBCHEM_COMPOUND_CID>
442051

> <PUBCHEM_COMPOUND_CANONICALIZED>
1

> <PUBCHEM_CACTVS_COMPLEXITY>
723

> <PUBCHEM_CACTVS_HBOND_ACCEPTOR>
7

> <PUBCHEM_CACTVS_HBOND_DONOR>
0

> <PUBCHEM_CACTVS_ROTATABLE_BOND>
9

> <PUBCHEM_CACTVS_SUBSKEYS>
AAADceB4OAAAAAAAAAAAAAAAAAAAASAAAAAwQAAAAAAAAEiBAAAAGgAAAAAADVSgmAIyDoAABACIAiDSCAACCAAgIAAIiAEGCMgNJzKEMRqCOiClwBUKqYfA4PwOIAACCAAIAABAAAQQABAAAAAAAAAAAA==

> <PUBCHEM_IUPAC_OPENEYE_NAME>
[(8S,9R)-8-[1-methyl-1-(3-methylbutanoyloxy)ethyl]-2-oxo-8,9-dihydrofuro[2,3-h]chromen-9-yl] 3-methylbutanoate

> <PUBCHEM_IUPAC_CAS_NAME>
3-methylbutanoic acid [(8S,9R)-8-[2-(3-methyl-1-oxobutoxy)propan-2-yl]-2-oxo-8,9-dihydrofuro[2,3-h][1]benzopyran-9-yl] ester

> <PUBCHEM_IUPAC_NAME>
[(8S,9R)-8-[2-(3-methylbutanoyloxy)propan-2-yl]-2-oxo-8,9-dihydrofuro[2,3-h]chromen-9-yl] 3-methylbutanoate

> <PUBCHEM_IUPAC_SYSTEMATIC_NAME>
[(8S,9R)-8-[2-(3-methylbutanoyloxy)propan-2-yl]-2-oxidanylidene-8,9-dihydrofuro[2,3-h]chromen-9-yl] 3-methylbutanoate

> <PUBCHEM_IUPAC_TRADITIONAL_NAME>
3-methylbutyric acid [(8S,9R)-8-(1-isovaleryloxy-1-methyl-ethyl)-2-keto-8,9-dihydrofuro[2,3-h]chromen-9-yl] ester

> <PUBCHEM_IUPAC_INCHI>
InChI=1S/C24H30O7/c1-13(2)11-18(26)30-22-20-16(9-7-15-8-10-17(25)29-21(15)20)28-23(22)24(5,6)31-19(27)12-14(3)4/h7-10,13-14,22-23H,11-12H2,1-6H3/t22-,23+/m1/s1

> <PUBCHEM_IUPAC_INCHIKEY>
KPLBOWKEQXYXSD-PKTZIBPZSA-N

> <PUBCHEM_XLOGP3_AA>
4.5

> <PUBCHEM_EXACT_MASS>
430.199153

> <PUBCHEM_MOLECULAR_FORMULA>
C24H30O7

> <PUBCHEM_MOLECULAR_WEIGHT>
430.4908

> <PUBCHEM_OPENEYE_CAN_SMILES>
CC(C)CC(=O)OC1C(OC2=C1C3=C(C=C2)C=CC(=O)O3)C(C)(C)OC(=O)CC(C)C

> <PUBCHEM_OPENEYE_ISO_SMILES>
CC(C)CC(=O)O[C@H]1[C@H](OC2=C1C3=C(C=C2)C=CC(=O)O3)C(C)(C)OC(=O)CC(C)C

> <PUBCHEM_CACTVS_TPSA>
88.1

> <PUBCHEM_MONOISOTOPIC_WEIGHT>
430.199153

> <PUBCHEM_TOTAL_CHARGE>
0

> <PUBCHEM_HEAVY_ATOM_COUNT>
31

> <PUBCHEM_ATOM_DEF_STEREO_COUNT>
2

> <PUBCHEM_ATOM_UDEF_STEREO_COUNT>
0

> <PUBCHEM_BOND_DEF_STEREO_COUNT>
0

> <PUBCHEM_BOND_UDEF_STEREO_COUNT>
0

> <PUBCHEM_ISOTOPIC_ATOM_COUNT>
0

> <PUBCHEM_COMPONENT_COUNT>
1

> <PUBCHEM_CACTVS_TAUTO_COUNT>
1

> <PUBCHEM_COORDINATE_TYPE>
1
5
255

> <PUBCHEM_BONDANNOTATIONS>
11  12  8
11  15  8
12  16  8
15  17  8
16  18  8
17  18  8
17  24  8
24  27  8
26  27  8
10  3  6
4  15  8
4  26  8
8  32  5

$$$$

