5287432
  -OEChem-07051212503D

 29 29  0     1  0  0  0  0  0999 V2000
   -3.6863    0.2748    1.3094 O   0  0  0  0  0  0  0  0  0  0  0  0
   -0.8944    2.8275    0.3024 O   0  0  0  0  0  0  0  0  0  0  0  0
    1.0131   -0.2373    1.8570 O   0  0  0  0  0  0  0  0  0  0  0  0
   -0.2532    1.4773   -1.4185 O   0  0  0  0  0  0  0  0  0  0  0  0
    4.3813    0.8413    0.3274 O   0  0  0  0  0  0  0  0  0  0  0  0
    2.7580    0.6535   -1.2511 O   0  0  0  0  0  0  0  0  0  0  0  0
   -1.4153    0.5415    0.4871 C   0  0  1  0  0  0  0  0  0  0  0  0
   -2.9140    0.4157    0.1157 C   0  0  1  0  0  0  0  0  0  0  0  0
   -0.6009   -0.6966    0.2242 C   0  0  0  0  0  0  0  0  0  0  0  0
    0.7427   -0.8115    0.8007 C   0  0  0  0  0  0  0  0  0  0  0  0
   -3.2516   -0.7473   -0.7771 C   0  0  0  0  0  0  0  0  0  0  0  0
   -1.0526   -1.7352   -0.4937 C   0  0  0  0  0  0  0  0  0  0  0  0
    1.7429   -1.6657    0.0344 C   0  0  0  0  0  0  0  0  0  0  0  0
   -0.7887    1.6341   -0.3313 C   0  0  0  0  0  0  0  0  0  0  0  0
   -2.3761   -1.7198   -1.0650 C   0  0  0  0  0  0  0  0  0  0  0  0
    3.1902   -1.2222    0.2097 C   0  0  0  0  0  0  0  0  0  0  0  0
    3.4051    0.1697   -0.3313 C   0  0  0  0  0  0  0  0  0  0  0  0
   -1.3203    0.8031    1.5494 H   0  0  0  0  0  0  0  0  0  0  0  0
   -3.2648    1.3333   -0.3708 H   0  0  0  0  0  0  0  0  0  0  0  0
   -4.2505   -0.7879   -1.2025 H   0  0  0  0  0  0  0  0  0  0  0  0
   -0.4927   -2.6484   -0.6607 H   0  0  0  0  0  0  0  0  0  0  0  0
    1.6425   -2.6975    0.3905 H   0  0  0  0  0  0  0  0  0  0  0  0
    1.5146   -1.6451   -1.0377 H   0  0  0  0  0  0  0  0  0  0  0  0
   -2.6588   -2.5433   -1.7118 H   0  0  0  0  0  0  0  0  0  0  0  0
    3.8667   -1.9013   -0.3192 H   0  0  0  0  0  0  0  0  0  0  0  0
    3.4515   -1.2315    1.2740 H   0  0  0  0  0  0  0  0  0  0  0  0
   -3.3561   -0.5042    1.7896 H   0  0  0  0  0  0  0  0  0  0  0  0
   -0.4894    3.5549   -0.2165 H   0  0  0  0  0  0  0  0  0  0  0  0
    4.5043    1.7481   -0.0258 H   0  0  0  0  0  0  0  0  0  0  0  0
  1  8  1  0  0  0  0
  1 27  1  0  0  0  0
  2 14  1  0  0  0  0
  2 28  1  0  0  0  0
  3 10  2  0  0  0  0
  4 14  2  0  0  0  0
  5 17  1  0  0  0  0
  5 29  1  0  0  0  0
  6 17  2  0  0  0  0
  7  8  1  0  0  0  0
  7  9  1  0  0  0  0
  7 14  1  0  0  0  0
  7 18  1  0  0  0  0
  8 11  1  0  0  0  0
  8 19  1  0  0  0  0
  9 10  1  0  0  0  0
  9 12  2  0  0  0  0
 10 13  1  0  0  0  0
 11 15  2  0  0  0  0
 11 20  1  0  0  0  0
 12 15  1  0  0  0  0
 12 21  1  0  0  0  0
 13 16  1  0  0  0  0
 13 22  1  0  0  0  0
 13 23  1  0  0  0  0
 15 24  1  0  0  0  0
 16 17  1  0  0  0  0
 16 25  1  0  0  0  0
 16 26  1  0  0  0  0
M  END
> <PUBCHEM_COMPOUND_CID>
5287432

> <PUBCHEM_CONFORMER_RMSD>
0.8

> <PUBCHEM_CONFORMER_DIVERSEORDER>
1
5
15
16
21
38
23
6
13
30
24
2
33
31
18
7
20
8
26
36
19
35
32
3
37
29
12
25
4
17
28
10
27
14
11
34
22
9

> <PUBCHEM_MMFF94_PARTIAL_CHARGES>
23
1 -0.68
10 0.49
11 -0.29
12 -0.15
13 0.06
14 0.66
15 -0.15
16 0.06
17 0.66
2 -0.65
20 0.15
21 0.15
24 0.15
27 0.4
28 0.5
29 0.5
3 -0.57
4 -0.57
5 -0.65
6 -0.57
7 0.2
8 0.42
9 -0.12

> <PUBCHEM_EFFECTIVE_ROTOR_COUNT>
5.4

> <PUBCHEM_PHARMACOPHORE_FEATURES>
10
1 1 acceptor
1 1 donor
1 2 acceptor
1 3 acceptor
1 4 acceptor
1 5 acceptor
1 6 acceptor
3 2 4 14 anion
3 5 6 17 anion
6 7 8 9 11 12 15 rings

> <PUBCHEM_HEAVY_ATOM_COUNT>
17

> <PUBCHEM_ATOM_DEF_STEREO_COUNT>
2

> <PUBCHEM_ATOM_UDEF_STEREO_COUNT>
0

> <PUBCHEM_BOND_DEF_STEREO_COUNT>
0

> <PUBCHEM_BOND_UDEF_STEREO_COUNT>
0

> <PUBCHEM_ISOTOPIC_ATOM_COUNT>
0

> <PUBCHEM_COMPONENT_COUNT>
1

> <PUBCHEM_CACTVS_TAUTO_COUNT>
2

> <PUBCHEM_CONFORMER_ID>
0050AE0800000001

> <PUBCHEM_MMFF94_ENERGY>
25.5061

> <PUBCHEM_FEATURE_SELFOVERLAP>
50.858

> <PUBCHEM_SHAPE_FINGERPRINT>
11132069 177 18410017636768498630
11715629 250 18339927112288290038
12173636 292 17968944217827480449
12403814 3 18411139172967528187
13214271 11 18202559575321647411
13221675 6 18341891896105821355
14250199 8 18202275927312888326
14787075 74 17630869522313992155
14993402 34 18408892819568097623
15775835 57 18407755941619279674
16945 1 18188503465980141747
192875 21 17703797994413090868
19868273 325 18410022030556985199
20525323 117 18342742956913341408
20871999 31 18338533962463398935
21501502 16 18260555566565286178
22112679 90 18261662672074640645
23388829 49 18341889697225224733
23402539 116 18343311349001997822
23557571 272 18113615647545024766
23559900 14 17603303782986429134
2748010 2 17972342653950891283
353137 74 18131078155309446302
537710 114 18343298145897866837
7364860 26 17829338986294388581

> <PUBCHEM_SHAPE_MULTIPOLES>
314.64
6.1
2.09
1.2
3.57
0.7
0.13
-0.14
-0.08
-0.51
-0.34
-0.15
0.07
-0.69

> <PUBCHEM_SHAPE_SELFOVERLAP>
652.143

> <PUBCHEM_SHAPE_VOLUME>
176.6

> <PUBCHEM_COORDINATE_TYPE>
2
5
10

$$$$

