10979
  -OEChem-06261205113D

 13 12  0     0  0  0  0  0  0999 V2000
    0.6469   -0.3851   -0.0002 O   0  0  0  0  0  0  0  0  0  0  0  0
    2.9136   -0.2061   -0.0037 O   0  0  0  0  0  0  0  0  0  0  0  0
    1.7712    0.4871    0.0011 N   0  0  0  0  0  0  0  0  0  0  0  0
   -1.7422   -0.5319    0.0037 C   0  0  0  0  0  0  0  0  0  0  0  0
   -0.5387    0.3981    0.0051 C   0  0  0  0  0  0  0  0  0  0  0  0
   -3.0508    0.2378   -0.0060 C   0  0  0  0  0  0  0  0  0  0  0  0
   -1.6945   -1.1945   -0.8688 H   0  0  0  0  0  0  0  0  0  0  0  0
   -1.7020   -1.1872    0.8820 H   0  0  0  0  0  0  0  0  0  0  0  0
   -0.5637    1.0391   -0.8854 H   0  0  0  0  0  0  0  0  0  0  0  0
   -0.5611    1.0331    0.9000 H   0  0  0  0  0  0  0  0  0  0  0  0
   -3.1282    0.8693   -0.8967 H   0  0  0  0  0  0  0  0  0  0  0  0
   -3.8982   -0.4548   -0.0063 H   0  0  0  0  0  0  0  0  0  0  0  0
   -3.1360    0.8780    0.8779 H   0  0  0  0  0  0  0  0  0  0  0  0
  1  3  1  0  0  0  0
  1  5  1  0  0  0  0
  2  3  2  0  0  0  0
  4  5  1  0  0  0  0
  4  6  1  0  0  0  0
  4  7  1  0  0  0  0
  4  8  1  0  0  0  0
  5  9  1  0  0  0  0
  5 10  1  0  0  0  0
  6 11  1  0  0  0  0
  6 12  1  0  0  0  0
  6 13  1  0  0  0  0
M  END
> <PUBCHEM_COMPOUND_CID>
10979

> <PUBCHEM_CONFORMER_RMSD>
0.4

> <PUBCHEM_CONFORMER_DIVERSEORDER>
1
24
12
26
5
23
13
4
16
17
19
18
21
25
6
10
8
15
22
11
20
14
3
2
7
9

> <PUBCHEM_MMFF94_PARTIAL_CHARGES>
4
1 -0.09
2 -0.3
3 0.12
5 0.28

> <PUBCHEM_EFFECTIVE_ROTOR_COUNT>
3

> <PUBCHEM_PHARMACOPHORE_FEATURES>
1
1 6 hydrophobe

> <PUBCHEM_HEAVY_ATOM_COUNT>
6

> <PUBCHEM_ATOM_DEF_STEREO_COUNT>
0

> <PUBCHEM_ATOM_UDEF_STEREO_COUNT>
0

> <PUBCHEM_BOND_DEF_STEREO_COUNT>
0

> <PUBCHEM_BOND_UDEF_STEREO_COUNT>
0

> <PUBCHEM_ISOTOPIC_ATOM_COUNT>
0

> <PUBCHEM_COMPONENT_COUNT>
1

> <PUBCHEM_CACTVS_TAUTO_COUNT>
1

> <PUBCHEM_CONFORMER_ID>
00002AE300000001

> <PUBCHEM_MMFF94_ENERGY>
0.1495

> <PUBCHEM_FEATURE_SELFOVERLAP>
5.074

> <PUBCHEM_SHAPE_FINGERPRINT>
14390081 3 18260833687293617801
16714656 1 18412265034367312589
29004967 10 18413101758289201123
5460574 1 9295291642389133189

> <PUBCHEM_SHAPE_MULTIPOLES>
106.76
4.61
0.72
0.57
0.83
0
0
-0.06
0.01
-0.11
0
-0.1
0
0

> <PUBCHEM_SHAPE_SELFOVERLAP>
179.428

> <PUBCHEM_SHAPE_VOLUME>
73.2

> <PUBCHEM_COORDINATE_TYPE>
2
5
10

$$$$

