47205789
  -OEChem-06241223003D

 42 42  0     0  0  0  0  0  0999 V2000
   -1.1984   -0.9563   -1.3703 O   0  0  0  0  0  0  0  0  0  0  0  0
    4.6599    2.4212    0.2055 O   0  0  0  0  0  0  0  0  0  0  0  0
   -2.9167    1.0146    1.1089 O   0  0  0  0  0  0  0  0  0  0  0  0
    0.2432   -2.1275    0.0199 N   0  0  0  0  0  0  0  0  0  0  0  0
   -3.3090   -1.1030    0.2425 N   0  0  0  0  0  0  0  0  0  0  0  0
    1.3964   -2.0665   -0.8695 C   0  0  0  0  0  0  0  0  0  0  0  0
    2.2633   -0.8742   -0.5845 C   0  0  0  0  0  0  0  0  0  0  0  0
   -2.0899   -1.7079    0.7241 C   0  0  0  0  0  0  0  0  0  0  0  0
   -0.9896   -1.5538   -0.3111 C   0  0  0  0  0  0  0  0  0  0  0  0
   -4.9547    0.6094   -0.1336 C   0  0  0  0  0  0  0  0  0  0  0  0
    0.4658   -2.8303    1.2811 C   0  0  0  0  0  0  0  0  0  0  0  0
   -5.3159    2.0704    0.1182 C   0  0  0  0  0  0  0  0  0  0  0  0
    1.8572    0.3970   -0.9907 C   0  0  0  0  0  0  0  0  0  0  0  0
    3.4748   -1.0379    0.0872 C   0  0  0  0  0  0  0  0  0  0  0  0
   -3.6203    0.2276    0.4813 C   0  0  0  0  0  0  0  0  0  0  0  0
    2.6628    1.5044   -0.7255 C   0  0  0  0  0  0  0  0  0  0  0  0
    4.2804    0.0694    0.3523 C   0  0  0  0  0  0  0  0  0  0  0  0
    3.8744    1.3405   -0.0540 C   0  0  0  0  0  0  0  0  0  0  0  0
   -6.6695    2.4209   -0.4776 C   0  0  0  0  0  0  0  0  0  0  0  0
    5.8857    2.1819    0.8957 C   0  0  0  0  0  0  0  0  0  0  0  0
    1.9603   -3.0043   -0.7969 H   0  0  0  0  0  0  0  0  0  0  0  0
    1.0435   -2.0031   -1.9065 H   0  0  0  0  0  0  0  0  0  0  0  0
   -2.3065   -2.7678    0.8843 H   0  0  0  0  0  0  0  0  0  0  0  0
   -1.7948   -1.2232    1.6595 H   0  0  0  0  0  0  0  0  0  0  0  0
   -4.9039    0.4166   -1.2119 H   0  0  0  0  0  0  0  0  0  0  0  0
   -5.7255   -0.0455    0.2903 H   0  0  0  0  0  0  0  0  0  0  0  0
   -5.3337    2.2713    1.1961 H   0  0  0  0  0  0  0  0  0  0  0  0
   -4.5488    2.7245   -0.3134 H   0  0  0  0  0  0  0  0  0  0  0  0
    0.7832   -3.8533    1.0556 H   0  0  0  0  0  0  0  0  0  0  0  0
   -0.4056   -2.8856    1.9313 H   0  0  0  0  0  0  0  0  0  0  0  0
    1.2640   -2.3217    1.8299 H   0  0  0  0  0  0  0  0  0  0  0  0
   -3.9450   -1.6758   -0.3049 H   0  0  0  0  0  0  0  0  0  0  0  0
    0.9236    0.5445   -1.5245 H   0  0  0  0  0  0  0  0  0  0  0  0
    3.8012   -2.0230    0.4104 H   0  0  0  0  0  0  0  0  0  0  0  0
    2.3425    2.4919   -1.0464 H   0  0  0  0  0  0  0  0  0  0  0  0
    5.2081   -0.1291    0.8781 H   0  0  0  0  0  0  0  0  0  0  0  0
   -7.4626    1.8080   -0.0375 H   0  0  0  0  0  0  0  0  0  0  0  0
   -6.9071    3.4721   -0.2865 H   0  0  0  0  0  0  0  0  0  0  0  0
   -6.6739    2.2631   -1.5608 H   0  0  0  0  0  0  0  0  0  0  0  0
    6.3825    3.1501    1.0171 H   0  0  0  0  0  0  0  0  0  0  0  0
    6.5601    1.5478    0.3102 H   0  0  0  0  0  0  0  0  0  0  0  0
    5.7104    1.7844    1.9012 H   0  0  0  0  0  0  0  0  0  0  0  0
  1  9  2  0  0  0  0
  2 18  1  0  0  0  0
  2 20  1  0  0  0  0
  3 15  2  0  0  0  0
  4  6  1  0  0  0  0
  4  9  1  0  0  0  0
  4 11  1  0  0  0  0
  5  8  1  0  0  0  0
  5 15  1  0  0  0  0
  5 32  1  0  0  0  0
  6  7  1  0  0  0  0
  6 21  1  0  0  0  0
  6 22  1  0  0  0  0
  7 13  2  0  0  0  0
  7 14  1  0  0  0  0
  8  9  1  0  0  0  0
  8 23  1  0  0  0  0
  8 24  1  0  0  0  0
 10 12  1  0  0  0  0
 10 15  1  0  0  0  0
 10 25  1  0  0  0  0
 10 26  1  0  0  0  0
 11 29  1  0  0  0  0
 11 30  1  0  0  0  0
 11 31  1  0  0  0  0
 12 19  1  0  0  0  0
 12 27  1  0  0  0  0
 12 28  1  0  0  0  0
 13 16  1  0  0  0  0
 13 33  1  0  0  0  0
 14 17  2  0  0  0  0
 14 34  1  0  0  0  0
 16 18  2  0  0  0  0
 16 35  1  0  0  0  0
 17 18  1  0  0  0  0
 17 36  1  0  0  0  0
 19 37  1  0  0  0  0
 19 38  1  0  0  0  0
 19 39  1  0  0  0  0
 20 40  1  0  0  0  0
 20 41  1  0  0  0  0
 20 42  1  0  0  0  0
M  END
> <PUBCHEM_COMPOUND_CID>
47205789

> <PUBCHEM_CONFORMER_RMSD>
1

> <PUBCHEM_CONFORMER_DIVERSEORDER>
1
132
90
92
3
101
137
113
91
82
108
131
53
165
96
86
23
9
87
141
133
66
18
41
61
120
13
162
153
157
110
134
109
125
69
98
130
97
64
54
79
46
48
104
145
84
114
42
103
8
146
151
51
119
49
33
70
19
75
116
121
6
152
106
111
43
142
112
150
71
55
122
52
34
20
11
136
155
129
14
107
161
74
24
139
59
73
44
37
47
76
164
29
25
31
57
83
72
163
135
62
99
81
27
93
117
147
100
26
39
124
36
7
128
160
15
156
50
56
63
5
105
85
127
35
45
154
89
123
118
95
88
80
30
21
32
158
102
2
60
149
10
17
140
12
58
28
138
22
94
115
68
144
78
159
77
40
166
148
4
65
67
38
16
126
143

> <PUBCHEM_MMFF94_PARTIAL_CHARGES>
23
1 -0.57
10 0.06
11 0.3
13 -0.15
14 -0.15
15 0.57
16 -0.15
17 -0.15
18 0.08
2 -0.36
20 0.28
3 -0.57
32 0.37
33 0.15
34 0.15
35 0.15
36 0.15
4 -0.66
5 -0.73
6 0.44
7 -0.14
8 0.36
9 0.57

> <PUBCHEM_EFFECTIVE_ROTOR_COUNT>
9

> <PUBCHEM_PHARMACOPHORE_FEATURES>
6
1 1 acceptor
1 19 hydrophobe
1 2 acceptor
1 3 acceptor
1 5 donor
6 7 13 14 16 17 18 rings

> <PUBCHEM_HEAVY_ATOM_COUNT>
20

> <PUBCHEM_ATOM_DEF_STEREO_COUNT>
0

> <PUBCHEM_ATOM_UDEF_STEREO_COUNT>
0

> <PUBCHEM_BOND_DEF_STEREO_COUNT>
0

> <PUBCHEM_BOND_UDEF_STEREO_COUNT>
0

> <PUBCHEM_ISOTOPIC_ATOM_COUNT>
0

> <PUBCHEM_COMPONENT_COUNT>
1

> <PUBCHEM_CACTVS_TAUTO_COUNT>
2

> <PUBCHEM_CONFORMER_ID>
02D04D9D00000001

> <PUBCHEM_MMFF94_ENERGY>
50.0738

> <PUBCHEM_FEATURE_SELFOVERLAP>
30.446

> <PUBCHEM_SHAPE_FINGERPRINT>
10498660 4 18260257547374181289
11089746 13 18268711778564911151
12107183 9 18342469174835495058
12403259 118 18058725797745147717
12633257 1 15841267060568099931
13103583 49 16486978336860498232
13551218 46 10519693493683387593
13955234 65 17983853660642636043
13965767 371 17918280865239969686
14123255 352 18334011653604779384
14123256 34 10735884997179975568
14178342 30 17345738730019539683
14251764 38 18269551637712503829
14251764 75 18336250302429844257
14576447 43 7997971267311734550
15061688 2 18408039598007126382
15188451 53 16055749829508397763
15209294 21 18340206280804415238
15238133 3 18201432533460094868
15342816 4 6266621936686317438
17810953 82 18341046401750250172
20157964 124 18336828710265079381
20291156 8 9727634977465656555
20621476 21 12319196048008936616
20715895 44 18411420652297618145
20775530 9 9262346417035363689
21401589 2 18336816494829743243
21452121 103 18340769333420573450
21475661 188 18342173379825402021
21713013 43 7348621668436202250
22765269 38 18411986888333518069
22950370 63 9367347050436647439
235170 7 14201393932278128561
23559900 14 18191862547181666743
270888 7 18336267860092177880
2838139 119 18335706087096666565
3472631 163 18334859459090807551
351380 3 10447927269688672049
465052 167 10952043472614907793
474 4 18411696603872481019
5104073 3 18131351916657185139
6328613 192 18271230644204012540
633830 44 18410858758916961230
7062679 13 9079124344801322148
8217 86 9079121076768806624
9981440 41 18343298137619669411

> <PUBCHEM_SHAPE_MULTIPOLES>
384.02
13.7
3.21
1.05
11.57
0.07
0
-15.6
1.56
-0.37
0.51
-0.2
0.21
0.89

> <PUBCHEM_SHAPE_SELFOVERLAP>
771.036

> <PUBCHEM_SHAPE_VOLUME>
226

> <PUBCHEM_COORDINATE_TYPE>
2
5
10

$$$$

