91768
  -OEChem-07051213123D

 57 59  0     1  0  0  0  0  0999 V2000
   -2.5497   -0.9773    3.2579 Cl  0  0  0  0  0  0  0  0  0  0  0  0
   -6.2120    0.7252   -1.6484 F   0  0  0  0  0  0  0  0  0  0  0  0
   -7.0110   -0.1430    0.1715 F   0  0  0  0  0  0  0  0  0  0  0  0
   -6.1207    1.8404    0.2161 F   0  0  0  0  0  0  0  0  0  0  0  0
    2.3260   -1.6280   -0.6330 O   0  0  0  0  0  0  0  0  0  0  0  0
    1.7458   -2.3028    1.4931 O   0  0  0  0  0  0  0  0  0  0  0  0
    2.9766    3.2801   -0.1608 O   0  0  0  0  0  0  0  0  0  0  0  0
   -0.8892   -1.6538    0.8149 N   0  0  0  0  0  0  0  0  0  0  0  0
    5.2593   -2.1388   -2.2788 N   0  0  0  0  0  0  0  0  0  0  0  0
   -0.3220   -3.4182   -0.8183 C   0  0  0  0  0  0  0  0  0  0  0  0
    0.0405   -2.0400   -0.2271 C   0  0  2  0  0  0  0  0  0  0  0  0
    0.5873   -3.7710   -1.9997 C   0  0  0  0  0  0  0  0  0  0  0  0
   -0.2951   -4.5483    0.2170 C   0  0  0  0  0  0  0  0  0  0  0  0
    1.4486   -2.0130    0.3412 C   0  0  0  0  0  0  0  0  0  0  0  0
   -2.1330   -1.1037    0.5637 C   0  0  0  0  0  0  0  0  0  0  0  0
    3.7003   -1.5696   -0.2384 C   0  0  2  0  0  0  0  0  0  0  0  0
   -2.9921   -0.7485    1.6036 C   0  0  0  0  0  0  0  0  0  0  0  0
   -2.5225   -0.9067   -0.7610 C   0  0  0  0  0  0  0  0  0  0  0  0
    3.9921   -0.2002    0.3297 C   0  0  0  0  0  0  0  0  0  0  0  0
   -4.6302    0.0013   -0.0061 C   0  0  0  0  0  0  0  0  0  0  0  0
   -4.2406   -0.1959    1.3187 C   0  0  0  0  0  0  0  0  0  0  0  0
   -3.7712   -0.3542   -1.0461 C   0  0  0  0  0  0  0  0  0  0  0  0
    3.3420    0.9217   -0.1847 C   0  0  0  0  0  0  0  0  0  0  0  0
    4.9118   -0.0580    1.3686 C   0  0  0  0  0  0  0  0  0  0  0  0
   -5.9654    0.5912   -0.3115 C   0  0  0  0  0  0  0  0  0  0  0  0
    3.6114    2.1854    0.3402 C   0  0  0  0  0  0  0  0  0  0  0  0
    4.5701   -1.8870   -1.3798 C   0  0  0  0  0  0  0  0  0  0  0  0
    5.1814    1.2059    1.8935 C   0  0  0  0  0  0  0  0  0  0  0  0
    4.5311    2.3276    1.3793 C   0  0  0  0  0  0  0  0  0  0  0  0
    1.6124    3.1886   -0.3808 C   0  0  0  0  0  0  0  0  0  0  0  0
    0.7868    2.6154    0.5863 C   0  0  0  0  0  0  0  0  0  0  0  0
    1.0640    3.6696   -1.5698 C   0  0  0  0  0  0  0  0  0  0  0  0
   -0.5873    2.5234    0.3646 C   0  0  0  0  0  0  0  0  0  0  0  0
   -0.3101    3.5776   -1.7914 C   0  0  0  0  0  0  0  0  0  0  0  0
   -1.1357    3.0045   -0.8243 C   0  0  0  0  0  0  0  0  0  0  0  0
   -1.3457   -3.3804   -1.2097 H   0  0  0  0  0  0  0  0  0  0  0  0
    0.0490   -1.2734   -1.0129 H   0  0  0  0  0  0  0  0  0  0  0  0
    1.6157   -3.9695   -1.6817 H   0  0  0  0  0  0  0  0  0  0  0  0
    0.6014   -2.9635   -2.7390 H   0  0  0  0  0  0  0  0  0  0  0  0
    0.2228   -4.6732   -2.5034 H   0  0  0  0  0  0  0  0  0  0  0  0
    0.7103   -4.7073    0.6197 H   0  0  0  0  0  0  0  0  0  0  0  0
   -0.6188   -5.4905   -0.2390 H   0  0  0  0  0  0  0  0  0  0  0  0
   -0.9707   -4.3416    1.0529 H   0  0  0  0  0  0  0  0  0  0  0  0
   -0.6511   -1.8584    1.7794 H   0  0  0  0  0  0  0  0  0  0  0  0
    3.8939   -2.3313    0.5290 H   0  0  0  0  0  0  0  0  0  0  0  0
   -1.9072   -1.1596   -1.6170 H   0  0  0  0  0  0  0  0  0  0  0  0
   -4.9157    0.0834    2.1247 H   0  0  0  0  0  0  0  0  0  0  0  0
   -4.0574   -0.2077   -2.0840 H   0  0  0  0  0  0  0  0  0  0  0  0
    2.6531    0.8120   -1.0186 H   0  0  0  0  0  0  0  0  0  0  0  0
    5.4259   -0.9237    1.7777 H   0  0  0  0  0  0  0  0  0  0  0  0
    5.8975    1.3167    2.7025 H   0  0  0  0  0  0  0  0  0  0  0  0
    4.7446    3.3096    1.7925 H   0  0  0  0  0  0  0  0  0  0  0  0
    1.1840    2.2520    1.5302 H   0  0  0  0  0  0  0  0  0  0  0  0
    1.7027    4.1165   -2.3268 H   0  0  0  0  0  0  0  0  0  0  0  0
   -1.2309    2.0837    1.1206 H   0  0  0  0  0  0  0  0  0  0  0  0
   -0.7372    3.9519   -2.7171 H   0  0  0  0  0  0  0  0  0  0  0  0
   -2.2058    2.9333   -0.9961 H   0  0  0  0  0  0  0  0  0  0  0  0
  1 17  1  0  0  0  0
  2 25  1  0  0  0  0
  3 25  1  0  0  0  0
  4 25  1  0  0  0  0
  5 14  1  0  0  0  0
  5 16  1  0  0  0  0
  6 14  2  0  0  0  0
  7 26  1  0  0  0  0
  7 30  1  0  0  0  0
  8 11  1  0  0  0  0
  8 15  1  0  0  0  0
  8 44  1  0  0  0  0
  9 27  3  0  0  0  0
 10 11  1  0  0  0  0
 10 12  1  0  0  0  0
 10 13  1  0  0  0  0
 10 36  1  0  0  0  0
 11 14  1  0  0  0  0
 11 37  1  0  0  0  0
 12 38  1  0  0  0  0
 12 39  1  0  0  0  0
 12 40  1  0  0  0  0
 13 41  1  0  0  0  0
 13 42  1  0  0  0  0
 13 43  1  0  0  0  0
 15 17  2  0  0  0  0
 15 18  1  0  0  0  0
 16 19  1  0  0  0  0
 16 27  1  0  0  0  0
 16 45  1  0  0  0  0
 17 21  1  0  0  0  0
 18 22  2  0  0  0  0
 18 46  1  0  0  0  0
 19 23  2  0  0  0  0
 19 24  1  0  0  0  0
 20 21  2  0  0  0  0
 20 22  1  0  0  0  0
 20 25  1  0  0  0  0
 21 47  1  0  0  0  0
 22 48  1  0  0  0  0
 23 26  1  0  0  0  0
 23 49  1  0  0  0  0
 24 28  2  0  0  0  0
 24 50  1  0  0  0  0
 26 29  2  0  0  0  0
 28 29  1  0  0  0  0
 28 51  1  0  0  0  0
 29 52  1  0  0  0  0
 30 31  2  0  0  0  0
 30 32  1  0  0  0  0
 31 33  1  0  0  0  0
 31 53  1  0  0  0  0
 32 34  2  0  0  0  0
 32 54  1  0  0  0  0
 33 35  2  0  0  0  0
 33 55  1  0  0  0  0
 34 35  1  0  0  0  0
 34 56  1  0  0  0  0
 35 57  1  0  0  0  0
M  END
> <PUBCHEM_COMPOUND_CID>
91768

> <PUBCHEM_CONFORMER_RMSD>
1.4

> <PUBCHEM_CONFORMER_DIVERSEORDER>
1
370
215
26
447
241
280
175
135
50
38
15
171
104
281
430
400
437
410
439
224
69
200
229
424
178
66
155
316
265
379
338
134
170
515
489
223
32
90
288
455
378
258
131
292
282
156
322
336
422
358
60
77
23
62
95
86
432
41
166
306
256
230
523
105
81
128
163
487
91
144
89
514
372
325
340
397
385
132
3
113
388
19
112
151
420
43
361
429
150
414
125
272
285
405
228
111
341
250
480
458
353
11
201
118
168
313
176
6
4
290
415
209
37
232
321
103
493
235
42
12
205
54
96
324
17
28
63
158
276
165
360
295
174
466
56
122
333
472
362
391
53
428
390
51
252
5
233
22
13
25
216
504
55
7
348
409
145
239
301
39
404
58
36
180
334
10
193
152
70
107
204
236
64
59
309
34
177
16
102
227
317
137
329
24
221
44
207
2
33
355
108
161
65
40

> <PUBCHEM_MMFF94_PARTIAL_CHARGES>
45
1 -0.18
11 0.43
14 0.66
15 0.1
16 0.62
17 0.18
18 -0.15
19 -0.14
2 -0.34
20 -0.14
21 -0.15
22 -0.15
23 -0.15
24 -0.15
25 1.16
26 0.08
27 0.36
28 -0.15
29 -0.15
3 -0.34
30 0.08
31 -0.15
32 -0.15
33 -0.15
34 -0.15
35 -0.15
4 -0.34
44 0.4
46 0.15
47 0.15
48 0.15
49 0.15
5 -0.43
50 0.15
51 0.15
52 0.15
53 0.15
54 0.15
55 0.15
56 0.15
57 0.15
6 -0.57
7 -0.17
8 -0.87
9 -0.56

> <PUBCHEM_EFFECTIVE_ROTOR_COUNT>
10

> <PUBCHEM_PHARMACOPHORE_FEATURES>
9
1 6 acceptor
1 7 acceptor
1 8 cation
1 8 donor
1 9 acceptor
3 10 12 13 hydrophobe
6 15 17 18 20 21 22 rings
6 19 23 24 26 28 29 rings
6 30 31 32 33 34 35 rings

> <PUBCHEM_HEAVY_ATOM_COUNT>
35

> <PUBCHEM_ATOM_DEF_STEREO_COUNT>
1

> <PUBCHEM_ATOM_UDEF_STEREO_COUNT>
1

> <PUBCHEM_BOND_DEF_STEREO_COUNT>
0

> <PUBCHEM_BOND_UDEF_STEREO_COUNT>
0

> <PUBCHEM_ISOTOPIC_ATOM_COUNT>
0

> <PUBCHEM_COMPONENT_COUNT>
1

> <PUBCHEM_CACTVS_TAUTO_COUNT>
1

> <PUBCHEM_CONFORMER_ID>
0001667800000001

> <PUBCHEM_MMFF94_ENERGY>
96.0652

> <PUBCHEM_FEATURE_SELFOVERLAP>
45.669

> <PUBCHEM_SHAPE_FINGERPRINT>
10006869 2 18199487604353174410
11513181 2 18040426664563440022
11578080 2 14260768540069210820
11828042 279 17700425689788691663
12422481 6 18412832412200512224
13402501 40 18343591745520196829
1361 2 18409454674268097439
14020679 6 17703790284825144401
14117953 113 18410015450825532068
14725015 67 18269000950022509978
150020 26 17984691221808678033
15003188 8 18336555897936854312
15274700 34 17911790290142811275
15403338 16 17345498009306415146
15840311 113 17968366957955840873
16728300 4 17484554426626004034
20715895 44 18335709321085630458
20764821 26 18127426552755829740
21033648 29 18273208677679374338
21298829 104 18333452032388786601
22113638 7 18268155257771226468
5081480 168 17974249254632233254
508706 21 18200303441733291624
513532 50 17822000974771947692
550186 83 17560256763764893248

> <PUBCHEM_SHAPE_MULTIPOLES>
672.76
12.4
5.41
2.05
10.99
0.28
0.66
-2.77
1
-3.12
-2.54
-0.19
0.47
2.16

> <PUBCHEM_SHAPE_SELFOVERLAP>
1434.263

> <PUBCHEM_SHAPE_VOLUME>
374.9

> <PUBCHEM_COORDINATE_TYPE>
2
5
10

$$$$

