56927940
  -OEChem-07051213152D

 53 56  0     1  0  0  0  0  0999 V2000
    2.5390    0.3859    0.0000 O   0  0  0  0  0  0  0  0  0  0  0  0
    5.2766   -0.1465    0.0000 C   0  0  1  0  0  0  0  0  0  0  0  0
    6.1840    0.3648    0.0000 C   0  0  1  0  0  0  0  0  0  0  0  0
    7.0525   -0.1308    0.0000 C   0  0  1  0  0  0  0  0  0  0  0  0
    5.2737   -1.1882    0.0000 C   0  0  1  0  0  0  0  0  0  0  0  0
    7.0738   -1.1722    0.0000 C   0  0  0  0  0  0  0  0  0  0  0  0
    4.3410   -1.7425    0.0000 C   0  0  0  0  0  0  0  0  0  0  0  0
    7.0280    1.0505    0.0000 C   0  0  0  0  0  0  0  0  0  0  0  0
    6.1784   -1.7045    0.0000 C   0  0  0  0  0  0  0  0  0  0  0  0
    6.0300    1.3529    0.0000 C   0  0  0  0  0  0  0  0  0  0  0  0
    4.3469    0.4129    0.0000 C   0  0  0  0  0  0  0  0  0  0  0  0
    7.7041    2.0196    0.0000 C   0  0  1  0  0  0  0  0  0  0  0  0
    6.7066    2.0894    0.0000 C   0  0  0  0  0  0  0  0  0  0  0  0
    7.9816    0.2391    0.0000 C   0  0  0  0  0  0  0  0  0  0  0  0
    3.3987   -1.2047    0.0000 C   0  0  0  0  0  0  0  0  0  0  0  0
    3.4017   -0.1197    0.0000 C   0  0  1  0  0  0  0  0  0  0  0  0
    4.9371    0.7941    0.0000 C   0  0  0  0  0  0  0  0  0  0  0  0
    8.2716    1.1962    0.0000 C   0  0  0  0  0  0  0  0  0  0  0  0
    3.8487   -2.6130    0.0000 C   0  0  0  0  0  0  0  0  0  0  0  0
    4.8487   -2.6041    0.0000 C   0  0  0  0  0  0  0  0  0  0  0  0
    9.2596    1.3502    0.0000 C   0  0  0  0  0  0  0  0  0  0  0  0
    5.4458    0.7862    0.0000 H   0  0  0  0  0  0  0  0  0  0  0  0
    5.2812   -2.0381    0.0000 H   0  0  0  0  0  0  0  0  0  0  0  0
    7.2947   -1.7516    0.0000 H   0  0  0  0  0  0  0  0  0  0  0  0
    7.6824   -1.0537    0.0000 H   0  0  0  0  0  0  0  0  0  0  0  0
    6.6538    1.5448    0.0000 H   0  0  0  0  0  0  0  0  0  0  0  0
    6.4424    0.8471    0.0000 H   0  0  0  0  0  0  0  0  0  0  0  0
    5.7835   -2.1824    0.0000 H   0  0  0  0  0  0  0  0  0  0  0  0
    6.5817   -2.1754    0.0000 H   0  0  0  0  0  0  0  0  0  0  0  0
    5.6782    1.8634    0.0000 H   0  0  0  0  0  0  0  0  0  0  0  0
    5.4540    1.1235    0.0000 H   0  0  0  0  0  0  0  0  0  0  0  0
    4.7528    0.8816    0.0000 H   0  0  0  0  0  0  0  0  0  0  0  0
    3.9546    0.8930    0.0000 H   0  0  0  0  0  0  0  0  0  0  0  0
    7.9506    2.8331    0.0000 H   0  0  0  0  0  0  0  0  0  0  0  0
    6.8864    2.6827    0.0000 H   0  0  0  0  0  0  0  0  0  0  0  0
    6.1681    2.3967    0.0000 H   0  0  0  0  0  0  0  0  0  0  0  0
    8.4382   -0.1803    0.0000 H   0  0  0  0  0  0  0  0  0  0  0  0
    2.7882   -1.0970    0.0000 H   0  0  0  0  0  0  0  0  0  0  0  0
    3.1881   -1.7879    0.0000 H   0  0  0  0  0  0  0  0  0  0  0  0
    2.8633   -0.4272    0.0000 H   0  0  0  0  0  0  0  0  0  0  0  0
    5.5203    1.0046    0.0000 H   0  0  0  0  0  0  0  0  0  0  0  0
    4.7266    1.3773    0.0000 H   0  0  0  0  0  0  0  0  0  0  0  0
    4.3539    0.5836    0.0000 H   0  0  0  0  0  0  0  0  0  0  0  0
    3.3091   -2.3077    0.0000 H   0  0  0  0  0  0  0  0  0  0  0  0
    3.5435   -3.1526    0.0000 H   0  0  0  0  0  0  0  0  0  0  0  0
    4.3884   -2.9182    0.0000 H   0  0  0  0  0  0  0  0  0  0  0  0
    4.3145   -2.9188    0.0000 H   0  0  0  0  0  0  0  0  0  0  0  0
    5.1634   -3.1383    0.0000 H   0  0  0  0  0  0  0  0  0  0  0  0
    5.3829   -2.2894    0.0000 H   0  0  0  0  0  0  0  0  0  0  0  0
    9.3551    0.7375    0.0000 H   0  0  0  0  0  0  0  0  0  0  0  0
    9.8722    1.4456    0.0000 H   0  0  0  0  0  0  0  0  0  0  0  0
    9.1642    1.9628    0.0000 H   0  0  0  0  0  0  0  0  0  0  0  0
    2.0000    0.0795    0.0000 H   0  0  0  0  0  0  0  0  0  0  0  0
 16  1  1  1  0  0  0
  1 53  1  0  0  0  0
  2  3  1  0  0  0  0
  2  5  1  0  0  0  0
  2 11  1  0  0  0  0
  2 17  1  6  0  0  0
  3  4  1  0  0  0  0
  3 10  1  0  0  0  0
  3 22  1  1  0  0  0
  4  6  1  6  0  0  0
  4  8  1  0  0  0  0
  4 14  1  0  0  0  0
  5  7  1  0  0  0  0
  5  9  1  0  0  0  0
  5 23  1  1  0  0  0
  6  9  1  0  0  0  0
  6 24  1  0  0  0  0
  6 25  1  0  0  0  0
  7 15  1  0  0  0  0
  7 19  1  0  0  0  0
  7 20  1  0  0  0  0
  8 12  1  0  0  0  0
  8 26  1  0  0  0  0
  8 27  1  0  0  0  0
  9 28  1  0  0  0  0
  9 29  1  0  0  0  0
 10 13  1  0  0  0  0
 10 30  1  0  0  0  0
 10 31  1  0  0  0  0
 11 16  1  0  0  0  0
 11 32  1  0  0  0  0
 11 33  1  0  0  0  0
 12 13  1  0  0  0  0
 12 18  1  0  0  0  0
 12 34  1  6  0  0  0
 13 35  1  0  0  0  0
 13 36  1  0  0  0  0
 14 18  2  0  0  0  0
 14 37  1  0  0  0  0
 15 16  1  0  0  0  0
 15 38  1  0  0  0  0
 15 39  1  0  0  0  0
 16 40  1  0  0  0  0
 17 41  1  0  0  0  0
 17 42  1  0  0  0  0
 17 43  1  0  0  0  0
 18 21  1  0  0  0  0
 19 44  1  0  0  0  0
 19 45  1  0  0  0  0
 19 46  1  0  0  0  0
 20 47  1  0  0  0  0
 20 48  1  0  0  0  0
 20 49  1  0  0  0  0
 21 50  1  0  0  0  0
 21 51  1  0  0  0  0
 21 52  1  0  0  0  0
M  END
> <PUBCHEM_COMPOUND_CID>
56927940

> <PUBCHEM_COMPOUND_CANONICALIZED>
1

> <PUBCHEM_CACTVS_COMPLEXITY>
490

> <PUBCHEM_CACTVS_HBOND_ACCEPTOR>
1

> <PUBCHEM_CACTVS_HBOND_DONOR>
1

> <PUBCHEM_CACTVS_ROTATABLE_BOND>
0

> <PUBCHEM_CACTVS_SUBSKEYS>
AAADcfB4IAAAAAAAAAAAAAAAAAAAAQAAAAAwYMAABAAAAADAAAAAGgAACAAADxSggAICAAAAAgCAAiBCAAAAAAAgAAAACAAAAAgAEAIAAQAAQAAEgAAIAAOAwPAPgAAAAAAAAADAAAYAACAAAAAAAAAAAA==

> <PUBCHEM_IUPAC_INCHI>
InChI=1S/C20H32O/c1-13-9-20-8-7-16-18(2,3)11-15(21)12-19(16,4)17(20)6-5-14(13)10-20/h9,14-17,21H,5-8,10-12H2,1-4H3/t14-,15-,16-,17+,19-,20-/m1/s1

> <PUBCHEM_IUPAC_INCHIKEY>
KMRGROLDAASNIW-JGFIGGHZSA-N

> <PUBCHEM_XLOGP3_AA>
5.4

> <PUBCHEM_EXACT_MASS>
288.245316

> <PUBCHEM_MOLECULAR_FORMULA>
C20H32O

> <PUBCHEM_MOLECULAR_WEIGHT>
288.46748

> <PUBCHEM_OPENEYE_CAN_SMILES>
CC1=CC23CCC4C(CC(CC4(C2CCC1C3)C)O)(C)C

> <PUBCHEM_OPENEYE_ISO_SMILES>
CC1=C[C@@]23CC[C@H]4[C@]([C@@H]2CC[C@@H]1C3)(C[C@@H](CC4(C)C)O)C

> <PUBCHEM_CACTVS_TPSA>
20.2

> <PUBCHEM_MONOISOTOPIC_WEIGHT>
288.245316

> <PUBCHEM_TOTAL_CHARGE>
0

> <PUBCHEM_HEAVY_ATOM_COUNT>
21

> <PUBCHEM_ATOM_DEF_STEREO_COUNT>
6

> <PUBCHEM_ATOM_UDEF_STEREO_COUNT>
0

> <PUBCHEM_BOND_DEF_STEREO_COUNT>
0

> <PUBCHEM_BOND_UDEF_STEREO_COUNT>
0

> <PUBCHEM_ISOTOPIC_ATOM_COUNT>
0

> <PUBCHEM_COMPONENT_COUNT>
1

> <PUBCHEM_CACTVS_TAUTO_COUNT>
1

> <PUBCHEM_COORDINATE_TYPE>
1
5
255

> <PUBCHEM_BONDANNOTATIONS>
16  1  5
12  34  6
2  17  6
3  22  5
4  6  6
5  23  5

$$$$

