11736
  -OEChem-06261206033D

  6  5  0     0  0  0  0  0  0999 V2000
   -2.0479   -0.6514   -0.0003 Cl  0  0  0  0  0  0  0  0  0  0  0  0
    2.0479    0.6515   -0.0003 Cl  0  0  0  0  0  0  0  0  0  0  0  0
   -0.7095    1.6356    0.0001 F   0  0  0  0  0  0  0  0  0  0  0  0
    0.7095   -1.6356    0.0001 F   0  0  0  0  0  0  0  0  0  0  0  0
   -0.6029    0.2881    0.0002 C   0  0  0  0  0  0  0  0  0  0  0  0
    0.6028   -0.2882    0.0002 C   0  0  0  0  0  0  0  0  0  0  0  0
  1  5  1  0  0  0  0
  2  6  1  0  0  0  0
  3  5  1  0  0  0  0
  4  6  1  0  0  0  0
  5  6  2  0  0  0  0
M  END
> <PUBCHEM_COMPOUND_CID>
11736

> <PUBCHEM_CONFORMER_RMSD>
0.4

> <PUBCHEM_CONFORMER_DIVERSEORDER>
1

> <PUBCHEM_MMFF94_PARTIAL_CHARGES>
6
1 -0.14
2 -0.14
3 -0.15
4 -0.15
5 0.29
6 0.29

> <PUBCHEM_EFFECTIVE_ROTOR_COUNT>
0

> <PUBCHEM_PHARMACOPHORE_FEATURES>
0

> <PUBCHEM_HEAVY_ATOM_COUNT>
6

> <PUBCHEM_ATOM_DEF_STEREO_COUNT>
0

> <PUBCHEM_ATOM_UDEF_STEREO_COUNT>
0

> <PUBCHEM_BOND_DEF_STEREO_COUNT>
0

> <PUBCHEM_BOND_UDEF_STEREO_COUNT>
1

> <PUBCHEM_ISOTOPIC_ATOM_COUNT>
0

> <PUBCHEM_COMPONENT_COUNT>
1

> <PUBCHEM_CACTVS_TAUTO_COUNT>
1

> <PUBCHEM_CONFORMER_ID>
00002DD800000001

> <PUBCHEM_MMFF94_ENERGY>
1.3706

> <PUBCHEM_FEATURE_SELFOVERLAP>
0

> <PUBCHEM_SHAPE_FINGERPRINT>
139733 1 9295294941029557027
16714656 1 18265610987943381676
20096714 4 18122060076929093640
21015797 1 9295277344237289487
21040471 1 18266458689870224416
24536 1 18195263327533326852
29004967 10 18342168921818231875
5460574 1 9222969065843195907

> <PUBCHEM_SHAPE_MULTIPOLES>
112.67
2.55
1.39
0.59
0
0
0
0
0
0
0
0
0
0

> <PUBCHEM_SHAPE_SELFOVERLAP>
192.806

> <PUBCHEM_SHAPE_VOLUME>
76.9

> <PUBCHEM_COORDINATE_TYPE>
2
5
10

$$$$

