17396654
  -OEChem-06241222573D

 47 48  0     0  0  0  0  0  0999 V2000
   -4.5205    0.3080   -1.8548 O   0  0  0  0  0  0  0  0  0  0  0  0
    0.6064   -0.3849   -1.2152 O   0  0  0  0  0  0  0  0  0  0  0  0
    5.8685   -1.5329    1.6350 O   0  5  0  0  0  0  0  0  0  0  0  0
    5.9652   -2.3033   -0.4183 O   0  0  0  0  0  0  0  0  0  0  0  0
   -4.5063   -1.2312   -0.0955 N   0  0  0  0  0  0  0  0  0  0  0  0
    0.4286    1.4409    0.2555 N   0  0  0  0  0  0  0  0  0  0  0  0
    5.5708   -1.4585    0.4197 N   0  3  0  0  0  0  0  0  0  0  0  0
   -5.4314   -2.1751   -0.7068 C   0  0  0  0  0  0  0  0  0  0  0  0
   -4.0062   -1.6015    1.2268 C   0  0  0  0  0  0  0  0  0  0  0  0
   -4.1190   -0.0400   -0.7363 C   0  0  0  0  0  0  0  0  0  0  0  0
   -3.2033    0.8606   -0.0544 C   0  0  0  0  0  0  0  0  0  0  0  0
   -0.9488    1.5822    0.4280 C   0  0  0  0  0  0  0  0  0  0  0  0
   -1.8265    0.7184   -0.2269 C   0  0  0  0  0  0  0  0  0  0  0  0
    2.5910    0.5852   -0.4861 C   0  0  0  0  0  0  0  0  0  0  0  0
    3.3670   -0.4879   -0.0481 C   0  0  0  0  0  0  0  0  0  0  0  0
   -6.8673   -1.8605   -0.3413 C   0  0  0  0  0  0  0  0  0  0  0  0
   -2.7329   -2.4162    1.1302 C   0  0  0  0  0  0  0  0  0  0  0  0
   -3.7024    1.8664    0.7732 C   0  0  0  0  0  0  0  0  0  0  0  0
    1.1076    0.4990   -0.5286 C   0  0  0  0  0  0  0  0  0  0  0  0
   -1.4478    2.5880    1.2556 C   0  0  0  0  0  0  0  0  0  0  0  0
    4.7574   -0.3789   -0.0237 C   0  0  0  0  0  0  0  0  0  0  0  0
   -2.8246    2.7302    1.4283 C   0  0  0  0  0  0  0  0  0  0  0  0
    3.2054    1.7673   -0.8995 C   0  0  0  0  0  0  0  0  0  0  0  0
    2.7019   -1.7544    0.3955 C   0  0  0  0  0  0  0  0  0  0  0  0
    5.3717    0.8031   -0.4372 C   0  0  0  0  0  0  0  0  0  0  0  0
    4.5957    1.8763   -0.8751 C   0  0  0  0  0  0  0  0  0  0  0  0
   -5.1664   -3.1958   -0.4113 H   0  0  0  0  0  0  0  0  0  0  0  0
   -5.3231   -2.1109   -1.7953 H   0  0  0  0  0  0  0  0  0  0  0  0
   -4.7796   -2.1741    1.7515 H   0  0  0  0  0  0  0  0  0  0  0  0
   -3.8221   -0.7109    1.8333 H   0  0  0  0  0  0  0  0  0  0  0  0
   -1.5058   -0.0713   -0.8919 H   0  0  0  0  0  0  0  0  0  0  0  0
   -7.5477   -2.5672   -0.8262 H   0  0  0  0  0  0  0  0  0  0  0  0
   -7.1427   -0.8491   -0.6585 H   0  0  0  0  0  0  0  0  0  0  0  0
   -7.0251   -1.9233    0.7402 H   0  0  0  0  0  0  0  0  0  0  0  0
   -2.3779   -2.6796    2.1317 H   0  0  0  0  0  0  0  0  0  0  0  0
   -1.9292   -1.8821    0.6206 H   0  0  0  0  0  0  0  0  0  0  0  0
   -2.9037   -3.3479    0.5806 H   0  0  0  0  0  0  0  0  0  0  0  0
   -4.7734    1.9858    0.9152 H   0  0  0  0  0  0  0  0  0  0  0  0
    1.0004    2.1037    0.7750 H   0  0  0  0  0  0  0  0  0  0  0  0
   -0.7755    3.2682    1.7722 H   0  0  0  0  0  0  0  0  0  0  0  0
   -3.2133    3.5131    2.0728 H   0  0  0  0  0  0  0  0  0  0  0  0
    2.6152    2.6105   -1.2493 H   0  0  0  0  0  0  0  0  0  0  0  0
    1.7712   -1.5516    0.9367 H   0  0  0  0  0  0  0  0  0  0  0  0
    2.4794   -2.3844   -0.4720 H   0  0  0  0  0  0  0  0  0  0  0  0
    3.3098   -2.3380    1.0930 H   0  0  0  0  0  0  0  0  0  0  0  0
    6.4544    0.9031   -0.4239 H   0  0  0  0  0  0  0  0  0  0  0  0
    5.0741    2.7962   -1.1984 H   0  0  0  0  0  0  0  0  0  0  0  0
  1 10  2  0  0  0  0
  2 19  2  0  0  0  0
  3  7  1  0  0  0  0
  4  7  2  0  0  0  0
  5  8  1  0  0  0  0
  5  9  1  0  0  0  0
  5 10  1  0  0  0  0
  6 12  1  0  0  0  0
  6 19  1  0  0  0  0
  6 39  1  0  0  0  0
  7 21  1  0  0  0  0
  8 16  1  0  0  0  0
  8 27  1  0  0  0  0
  8 28  1  0  0  0  0
  9 17  1  0  0  0  0
  9 29  1  0  0  0  0
  9 30  1  0  0  0  0
 10 11  1  0  0  0  0
 11 13  2  0  0  0  0
 11 18  1  0  0  0  0
 12 13  1  0  0  0  0
 12 20  2  0  0  0  0
 13 31  1  0  0  0  0
 14 15  2  0  0  0  0
 14 19  1  0  0  0  0
 14 23  1  0  0  0  0
 15 21  1  0  0  0  0
 15 24  1  0  0  0  0
 16 32  1  0  0  0  0
 16 33  1  0  0  0  0
 16 34  1  0  0  0  0
 17 35  1  0  0  0  0
 17 36  1  0  0  0  0
 17 37  1  0  0  0  0
 18 22  2  0  0  0  0
 18 38  1  0  0  0  0
 20 22  1  0  0  0  0
 20 40  1  0  0  0  0
 21 25  2  0  0  0  0
 22 41  1  0  0  0  0
 23 26  2  0  0  0  0
 23 42  1  0  0  0  0
 24 43  1  0  0  0  0
 24 44  1  0  0  0  0
 24 45  1  0  0  0  0
 25 26  1  0  0  0  0
 25 46  1  0  0  0  0
 26 47  1  0  0  0  0
M  CHG  2   3  -1   7   1
M  END
> <PUBCHEM_COMPOUND_CID>
17396654

> <PUBCHEM_CONFORMER_RMSD>
0.8

> <PUBCHEM_CONFORMER_DIVERSEORDER>
1
61
96
51
38
45
92
83
94
74
76
103
58
107
110
73
104
66
67
75
33
88
37
39
102
99
106
77
57
53
36
44
82
93
89
71
84
55
42
100
27
68
101
109
70
97
69
78
85
23
105
2
81
108
86
14
62
40
20
9
87
50
54
32
47
30
41
6
24
46
52
65
49
60
48
98
95
5
72
79
80
64
3
31
10
18
63
28
19
56
16
11
91
59
26
22
8
90
43
35
13
34
21
15
4
25
29
7
17
12

> <PUBCHEM_MMFF94_PARTIAL_CHARGES>
32
1 -0.57
10 0.54
11 0.09
12 0.12
13 -0.15
14 0.09
15 -0.14
18 -0.15
19 0.54
2 -0.57
20 -0.15
21 0.13
22 -0.15
23 -0.15
24 0.14
25 -0.15
26 -0.15
3 -0.52
31 0.15
38 0.15
39 0.37
4 -0.52
40 0.15
41 0.15
42 0.15
46 0.15
47 0.15
5 -0.66
6 -0.55
7 0.91
8 0.3
9 0.3

> <PUBCHEM_EFFECTIVE_ROTOR_COUNT>
8

> <PUBCHEM_PHARMACOPHORE_FEATURES>
8
1 1 acceptor
1 2 acceptor
1 3 acceptor
1 3 anion
1 4 acceptor
1 6 donor
6 11 12 13 18 20 22 rings
6 14 15 21 23 25 26 rings

> <PUBCHEM_HEAVY_ATOM_COUNT>
26

> <PUBCHEM_ATOM_DEF_STEREO_COUNT>
0

> <PUBCHEM_ATOM_UDEF_STEREO_COUNT>
0

> <PUBCHEM_BOND_DEF_STEREO_COUNT>
0

> <PUBCHEM_BOND_UDEF_STEREO_COUNT>
0

> <PUBCHEM_ISOTOPIC_ATOM_COUNT>
0

> <PUBCHEM_COMPONENT_COUNT>
1

> <PUBCHEM_CACTVS_TAUTO_COUNT>
2

> <PUBCHEM_CONFORMER_ID>
010973AE00000001

> <PUBCHEM_MMFF94_ENERGY>
86.6495

> <PUBCHEM_FEATURE_SELFOVERLAP>
40.676

> <PUBCHEM_SHAPE_FINGERPRINT>
105312 117 12175622880162299505
10554248 39 10447663352322146217
10595046 47 18410286987200992388
11578080 2 11887093355380818814
12107183 9 17689712386840447144
12166972 35 18202000997597675485
12236239 1 18410855481682542044
12553582 1 17749394715815399013
12616971 3 18270387403867637560
12760667 363 18410007711753523843
12788726 201 18333445439882265457
13167823 11 18411134753662555708
13533116 47 18411981321791852848
13631057 29 18334854996076669193
14211702 104 18335977649225996302
14251740 79 18202563977911214851
14844126 61 18041002873355079963
14931854 50 18272940410212545007
15064986 266 18060409214988850789
15183329 4 17203336606159162154
15188451 53 18410020948320308770
15250474 111 18411702122942327842
17349148 13 18412256246801135764
17492 89 18189047749826658750
17857418 61 18343021107801655920
18927931 339 18186794807656719509
19377110 9 18260822692209125280
19958102 18 17703797994028319419
20028762 73 18411141372593034250
21065198 48 18411131442374905668
22393880 68 17775297087429347773
23402539 116 18408886269405666245
23522609 53 18046876370103711665
23559900 14 18127979607584596237
2838139 119 8790344187788449475
3004659 81 18130794446897117635
329604 57 18337387149843638473
4015057 19 17846207817957748560
4098825 35 18059863878881050685
439807 62 18341896247736179095
469060 322 17022915527518685541
504579 68 18271230660866943316
5104073 3 17967813855544907912
531348 171 17130719455270916005
7495541 125 17894917321693020848
7970288 3 18188495662310005991
9709674 26 18263069067288984006

> <PUBCHEM_SHAPE_MULTIPOLES>
496.65
15.88
3.04
1.28
4.47
0.15
0.1
-9.98
-1.37
-1.36
1.05
-0.57
0.09
-1.85

> <PUBCHEM_SHAPE_SELFOVERLAP>
1050.296

> <PUBCHEM_SHAPE_VOLUME>
278.6

> <PUBCHEM_COORDINATE_TYPE>
2
5
10

$$$$

