441433
  -OEChem-07051212543D

 66 68  0     1  0  0  0  0  0999 V2000
   -1.2509    0.3209   -0.6867 O   0  0  0  0  0  0  0  0  0  0  0  0
   -2.9661    0.6293    0.9163 O   0  0  0  0  0  0  0  0  0  0  0  0
   -1.4180   -1.6187    0.6663 O   0  0  0  0  0  0  0  0  0  0  0  0
    1.5465    0.2207   -0.4890 O   0  0  0  0  0  0  0  0  0  0  0  0
    3.0800   -0.0644    1.2911 O   0  0  0  0  0  0  0  0  0  0  0  0
   -3.5634    0.6890   -2.0360 O   0  0  0  0  0  0  0  0  0  0  0  0
    2.0954   -2.4974   -1.3172 O   0  0  0  0  0  0  0  0  0  0  0  0
   -4.2982    3.4885    0.0843 O   0  0  0  0  0  0  0  0  0  0  0  0
   -0.3034   -3.9331   -1.9774 O   0  0  0  0  0  0  0  0  0  0  0  0
    2.1070    2.9293   -0.5918 O   0  0  0  0  0  0  0  0  0  0  0  0
   -0.6274    3.0221   -0.5038 O   0  0  0  0  0  0  0  0  0  0  0  0
    4.9435    2.8107   -1.0575 O   0  0  0  0  0  0  0  0  0  0  0  0
    5.6553    1.2422    1.1180 O   0  0  0  0  0  0  0  0  0  0  0  0
   -5.1061   -0.6353    2.1627 O   0  0  0  0  0  0  0  0  0  0  0  0
   -3.7010   -3.1043    0.4849 O   0  0  0  0  0  0  0  0  0  0  0  0
    4.2467   -2.7662    1.3429 O   0  0  0  0  0  0  0  0  0  0  0  0
   -2.1791    1.2386   -0.1178 C   0  0  2  0  0  0  0  0  0  0  0  0
    0.7881   -0.9068   -0.0661 C   0  0  1  0  0  0  0  0  0  0  0  0
   -0.6294   -0.4790    0.3175 C   0  0  1  0  0  0  0  0  0  0  0  0
   -3.1875    1.7427   -1.1502 C   0  0  2  0  0  0  0  0  0  0  0  0
    0.7799   -1.9562   -1.1759 C   0  0  2  0  0  0  0  0  0  0  0  0
   -4.3924    2.1233   -0.3100 C   0  0  1  0  0  0  0  0  0  0  0  0
   -0.1747   -3.1001   -0.8277 C   0  0  1  0  0  0  0  0  0  0  0  0
   -4.2727    1.2397    0.9350 C   0  0  1  0  0  0  0  0  0  0  0  0
   -1.5483   -2.5659   -0.4000 C   0  0  1  0  0  0  0  0  0  0  0  0
    2.2082    0.8431    0.6115 C   0  0  1  0  0  0  0  0  0  0  0  0
    2.9835    2.0735    0.1337 C   0  0  1  0  0  0  0  0  0  0  0  0
   -1.3540    2.3586    0.5163 C   0  0  0  0  0  0  0  0  0  0  0  0
    4.1660    1.6591   -0.7421 C   0  0  2  0  0  0  0  0  0  0  0  0
    5.0297    0.6273   -0.0110 C   0  0  2  0  0  0  0  0  0  0  0  0
    4.1632   -0.5408    0.4774 C   0  0  1  0  0  0  0  0  0  0  0  0
   -5.3090    0.1267    0.9841 C   0  0  0  0  0  0  0  0  0  0  0  0
   -2.4649   -3.6782    0.1018 C   0  0  0  0  0  0  0  0  0  0  0  0
    4.9534   -1.5392    1.3166 C   0  0  0  0  0  0  0  0  0  0  0  0
    1.2447   -1.3918    0.8075 H   0  0  0  0  0  0  0  0  0  0  0  0
   -0.5266    0.0741    1.2530 H   0  0  0  0  0  0  0  0  0  0  0  0
   -2.7960    2.5612   -1.7618 H   0  0  0  0  0  0  0  0  0  0  0  0
    0.5272   -1.5034   -2.1415 H   0  0  0  0  0  0  0  0  0  0  0  0
   -5.3456    1.9942   -0.8331 H   0  0  0  0  0  0  0  0  0  0  0  0
    0.2595   -3.7128   -0.0282 H   0  0  0  0  0  0  0  0  0  0  0  0
   -4.3283    1.8261    1.8601 H   0  0  0  0  0  0  0  0  0  0  0  0
   -2.0521   -2.0725   -1.2419 H   0  0  0  0  0  0  0  0  0  0  0  0
    1.4546    1.1757    1.3313 H   0  0  0  0  0  0  0  0  0  0  0  0
    3.3442    2.6435    0.9982 H   0  0  0  0  0  0  0  0  0  0  0  0
   -0.6505    2.0282    1.2810 H   0  0  0  0  0  0  0  0  0  0  0  0
   -1.9944    3.0933    1.0146 H   0  0  0  0  0  0  0  0  0  0  0  0
    3.8002    1.2497   -1.6916 H   0  0  0  0  0  0  0  0  0  0  0  0
    5.8349    0.2769   -0.6654 H   0  0  0  0  0  0  0  0  0  0  0  0
    3.7541   -1.0552   -0.3941 H   0  0  0  0  0  0  0  0  0  0  0  0
   -6.3239    0.5356    0.9988 H   0  0  0  0  0  0  0  0  0  0  0  0
   -5.2013   -0.5472    0.1280 H   0  0  0  0  0  0  0  0  0  0  0  0
   -2.6475   -4.4266   -0.6752 H   0  0  0  0  0  0  0  0  0  0  0  0
   -2.0370   -4.1677    0.9830 H   0  0  0  0  0  0  0  0  0  0  0  0
   -4.2303    1.0462   -2.6471 H   0  0  0  0  0  0  0  0  0  0  0  0
    2.3334   -2.9374   -0.4833 H   0  0  0  0  0  0  0  0  0  0  0  0
   -5.0660    3.6823    0.6488 H   0  0  0  0  0  0  0  0  0  0  0  0
   -0.7217   -3.4094   -2.6820 H   0  0  0  0  0  0  0  0  0  0  0  0
    5.0779   -1.1929    2.3477 H   0  0  0  0  0  0  0  0  0  0  0  0
    5.9358   -1.7326    0.8745 H   0  0  0  0  0  0  0  0  0  0  0  0
    2.6329    3.6836   -0.9085 H   0  0  0  0  0  0  0  0  0  0  0  0
   -0.1189    3.7335   -0.0785 H   0  0  0  0  0  0  0  0  0  0  0  0
    5.6955    2.5158   -1.5990 H   0  0  0  0  0  0  0  0  0  0  0  0
    4.9800    1.3872    1.8018 H   0  0  0  0  0  0  0  0  0  0  0  0
   -5.7748   -1.3411    2.1658 H   0  0  0  0  0  0  0  0  0  0  0  0
   -4.2670   -3.8275    0.8045 H   0  0  0  0  0  0  0  0  0  0  0  0
    4.7694   -3.3874    1.8781 H   0  0  0  0  0  0  0  0  0  0  0  0
  1 17  1  0  0  0  0
  1 19  1  0  0  0  0
  2 17  1  0  0  0  0
  2 24  1  0  0  0  0
  3 19  1  0  0  0  0
  3 25  1  0  0  0  0
  4 18  1  0  0  0  0
  4 26  1  0  0  0  0
  5 26  1  0  0  0  0
  5 31  1  0  0  0  0
  6 20  1  0  0  0  0
  6 54  1  0  0  0  0
  7 21  1  0  0  0  0
  7 55  1  0  0  0  0
  8 22  1  0  0  0  0
  8 56  1  0  0  0  0
  9 23  1  0  0  0  0
  9 57  1  0  0  0  0
 10 27  1  0  0  0  0
 10 60  1  0  0  0  0
 11 28  1  0  0  0  0
 11 61  1  0  0  0  0
 12 29  1  0  0  0  0
 12 62  1  0  0  0  0
 13 30  1  0  0  0  0
 13 63  1  0  0  0  0
 14 32  1  0  0  0  0
 14 64  1  0  0  0  0
 15 33  1  0  0  0  0
 15 65  1  0  0  0  0
 16 34  1  0  0  0  0
 16 66  1  0  0  0  0
 17 20  1  0  0  0  0
 17 28  1  0  0  0  0
 18 19  1  0  0  0  0
 18 21  1  0  0  0  0
 18 35  1  0  0  0  0
 19 36  1  0  0  0  0
 20 22  1  0  0  0  0
 20 37  1  0  0  0  0
 21 23  1  0  0  0  0
 21 38  1  0  0  0  0
 22 24  1  0  0  0  0
 22 39  1  0  0  0  0
 23 25  1  0  0  0  0
 23 40  1  0  0  0  0
 24 32  1  0  0  0  0
 24 41  1  0  0  0  0
 25 33  1  0  0  0  0
 25 42  1  0  0  0  0
 26 27  1  0  0  0  0
 26 43  1  0  0  0  0
 27 29  1  0  0  0  0
 27 44  1  0  0  0  0
 28 45  1  0  0  0  0
 28 46  1  0  0  0  0
 29 30  1  0  0  0  0
 29 47  1  0  0  0  0
 30 31  1  0  0  0  0
 30 48  1  0  0  0  0
 31 34  1  0  0  0  0
 31 49  1  0  0  0  0
 32 50  1  0  0  0  0
 32 51  1  0  0  0  0
 33 52  1  0  0  0  0
 33 53  1  0  0  0  0
 34 58  1  0  0  0  0
 34 59  1  0  0  0  0
M  END
> <PUBCHEM_COMPOUND_CID>
441433

> <PUBCHEM_CONFORMER_RMSD>
1.2

> <PUBCHEM_CONFORMER_DIVERSEORDER>
1
2
11
16
12
20
10
7
14
6
8
21
18
5
9
15
4
17
23
3
22
13
19

> <PUBCHEM_MMFF94_PARTIAL_CHARGES>
45
1 -0.56
10 -0.68
11 -0.68
12 -0.68
13 -0.68
14 -0.68
15 -0.68
16 -0.68
17 0.56
18 0.28
19 0.56
2 -0.56
20 0.28
21 0.28
22 0.28
23 0.28
24 0.28
25 0.28
26 0.56
27 0.28
28 0.28
29 0.28
3 -0.56
30 0.28
31 0.28
32 0.28
33 0.28
34 0.28
4 -0.56
5 -0.56
54 0.4
55 0.4
56 0.4
57 0.4
6 -0.68
60 0.4
61 0.4
62 0.4
63 0.4
64 0.4
65 0.4
66 0.4
7 -0.68
8 -0.68
9 -0.68

> <PUBCHEM_EFFECTIVE_ROTOR_COUNT>
11.4

> <PUBCHEM_PHARMACOPHORE_FEATURES>
30
1 1 acceptor
1 10 acceptor
1 10 donor
1 11 acceptor
1 11 donor
1 12 acceptor
1 12 donor
1 13 acceptor
1 13 donor
1 14 acceptor
1 14 donor
1 15 acceptor
1 15 donor
1 16 acceptor
1 16 donor
1 2 acceptor
1 3 acceptor
1 4 acceptor
1 5 acceptor
1 6 acceptor
1 6 donor
1 7 acceptor
1 7 donor
1 8 acceptor
1 8 donor
1 9 acceptor
1 9 donor
5 2 17 20 22 24 rings
6 3 18 19 21 23 25 rings
6 5 26 27 29 30 31 rings

> <PUBCHEM_HEAVY_ATOM_COUNT>
34

> <PUBCHEM_ATOM_DEF_STEREO_COUNT>
14

> <PUBCHEM_ATOM_UDEF_STEREO_COUNT>
0

> <PUBCHEM_BOND_DEF_STEREO_COUNT>
0

> <PUBCHEM_BOND_UDEF_STEREO_COUNT>
0

> <PUBCHEM_ISOTOPIC_ATOM_COUNT>
0

> <PUBCHEM_COMPONENT_COUNT>
1

> <PUBCHEM_CACTVS_TAUTO_COUNT>
1

> <PUBCHEM_CONFORMER_ID>
0006BC5900000001

> <PUBCHEM_MMFF94_ENERGY>
113.0011

> <PUBCHEM_FEATURE_SELFOVERLAP>
152.424

> <PUBCHEM_SHAPE_FINGERPRINT>
10675989 125 17190114142082125765
11756154 67 17980481484461287330
12107183 9 18198070368420012058
12422481 6 18341035329931105875
12633257 1 18341338889439566138
12788726 201 18124884451897531722
13140716 1 18336551525438574872
13583140 156 17418105333720631809
13726171 33 18044919196340345152
13782708 43 14979687636726285952
14068700 675 17461723888499427559
15403338 16 17200526405005002746
16728300 4 17054169368539161210
17349148 13 18188216497608293280
21033648 144 18341348712083072324
21033648 29 18262253195186132432
22182313 1 18188474831096011334
22907989 373 18193850240475126423
23227448 37 18410573972366808767
23559900 14 18050556641072802263
23598288 3 18265340516757812422
340366 18 18411983602794221886
350125 39 18265330612251432488
352729 6 18334015012158597470
392239 28 18338227271812450939
460360 51 18413106160868621734
469060 322 17415850089190305189
474 4 18263087784856654173
5104073 3 18342174522213545544

> <PUBCHEM_SHAPE_MULTIPOLES>
605.8
11.4
4.66
1.43
4.07
2.41
0.06
-4.94
-3.91
-1.4
1.34
-0.37
0.53
-0.44

> <PUBCHEM_SHAPE_SELFOVERLAP>
1259.543

> <PUBCHEM_SHAPE_VOLUME>
340.1

> <PUBCHEM_COORDINATE_TYPE>
2
5
10

$$$$

