854204
  -OEChem-06241222472D

 35 36  0     0  0  0  0  0  0999 V2000
    3.7320    1.7502    0.0000 O   0  0  0  0  0  0  0  0  0  0  0  0
    2.0000   -1.2498    0.0000 O   0  0  0  0  0  0  0  0  0  0  0  0
    5.5443    0.5550    0.0000 N   0  0  0  0  0  0  0  0  0  0  0  0
    3.7320   -1.2498    0.0000 N   0  0  0  0  0  0  0  0  0  0  0  0
    5.5443   -1.0545    0.0000 N   0  0  0  0  0  0  0  0  0  0  0  0
    7.1279   -0.2498    0.0000 N   0  0  0  0  0  0  0  0  0  0  0  0
    2.8660    0.2502    0.0000 N   0  0  0  0  0  0  0  0  0  0  0  0
    5.8550    1.5055    0.0000 C   0  0  0  0  0  0  0  0  0  0  0  0
    4.5981    0.2502    0.0000 C   0  0  0  0  0  0  0  0  0  0  0  0
    6.1279   -0.2498    0.0000 C   0  0  0  0  0  0  0  0  0  0  0  0
    4.5981   -0.7498    0.0000 C   0  0  0  0  0  0  0  0  0  0  0  0
    6.8335    1.7117    0.0000 C   0  0  0  0  0  0  0  0  0  0  0  0
    5.1871    2.2498    0.0000 C   0  0  0  0  0  0  0  0  0  0  0  0
    3.7320    0.7502    0.0000 C   0  0  0  0  0  0  0  0  0  0  0  0
    2.8660   -0.7498    0.0000 C   0  0  0  0  0  0  0  0  0  0  0  0
    7.6279   -1.1158    0.0000 C   0  0  0  0  0  0  0  0  0  0  0  0
    3.7320   -2.2498    0.0000 C   0  0  0  0  0  0  0  0  0  0  0  0
    8.6279   -1.1158    0.0000 C   0  0  0  0  0  0  0  0  0  0  0  0
    6.2690    1.0440    0.0000 H   0  0  0  0  0  0  0  0  0  0  0  0
    6.9613    1.1050    0.0000 H   0  0  0  0  0  0  0  0  0  0  0  0
    7.4401    1.8396    0.0000 H   0  0  0  0  0  0  0  0  0  0  0  0
    6.7056    2.3184    0.0000 H   0  0  0  0  0  0  0  0  0  0  0  0
    5.6486    2.6638    0.0000 H   0  0  0  0  0  0  0  0  0  0  0  0
    4.7730    2.7112    0.0000 H   0  0  0  0  0  0  0  0  0  0  0  0
    4.7256    1.8357    0.0000 H   0  0  0  0  0  0  0  0  0  0  0  0
    7.4379    0.2872    0.0000 H   0  0  0  0  0  0  0  0  0  0  0  0
    2.3291    0.5602    0.0000 H   0  0  0  0  0  0  0  0  0  0  0  0
    7.0453   -1.3278    0.0000 H   0  0  0  0  0  0  0  0  0  0  0  0
    7.7356   -1.7264    0.0000 H   0  0  0  0  0  0  0  0  0  0  0  0
    3.1120   -2.2498    0.0000 H   0  0  0  0  0  0  0  0  0  0  0  0
    3.7320   -2.8698    0.0000 H   0  0  0  0  0  0  0  0  0  0  0  0
    4.3520   -2.2498    0.0000 H   0  0  0  0  0  0  0  0  0  0  0  0
    8.6279   -1.7358    0.0000 H   0  0  0  0  0  0  0  0  0  0  0  0
    9.2479   -1.1158    0.0000 H   0  0  0  0  0  0  0  0  0  0  0  0
    8.6279   -0.4958    0.0000 H   0  0  0  0  0  0  0  0  0  0  0  0
  1 14  2  0  0  0  0
  2 15  2  0  0  0  0
  3  8  1  0  0  0  0
  3  9  1  0  0  0  0
  3 10  1  0  0  0  0
  4 11  1  0  0  0  0
  4 15  1  0  0  0  0
  4 17  1  0  0  0  0
  5 10  2  0  0  0  0
  5 11  1  0  0  0  0
  6 10  1  0  0  0  0
  6 16  1  0  0  0  0
  6 26  1  0  0  0  0
  7 14  1  0  0  0  0
  7 15  1  0  0  0  0
  7 27  1  0  0  0  0
  8 12  1  0  0  0  0
  8 13  1  0  0  0  0
  8 19  1  0  0  0  0
  9 11  2  0  0  0  0
  9 14  1  0  0  0  0
 12 20  1  0  0  0  0
 12 21  1  0  0  0  0
 12 22  1  0  0  0  0
 13 23  1  0  0  0  0
 13 24  1  0  0  0  0
 13 25  1  0  0  0  0
 16 18  1  0  0  0  0
 16 28  1  0  0  0  0
 16 29  1  0  0  0  0
 17 30  1  0  0  0  0
 17 31  1  0  0  0  0
 17 32  1  0  0  0  0
 18 33  1  0  0  0  0
 18 34  1  0  0  0  0
 18 35  1  0  0  0  0
M  END
> <PUBCHEM_COMPOUND_CID>
854204

> <PUBCHEM_COMPOUND_CANONICALIZED>
1

> <PUBCHEM_CACTVS_COMPLEXITY>
359

> <PUBCHEM_CACTVS_HBOND_ACCEPTOR>
4

> <PUBCHEM_CACTVS_HBOND_DONOR>
2

> <PUBCHEM_CACTVS_ROTATABLE_BOND>
3

> <PUBCHEM_CACTVS_SUBSKEYS>
AAADceBzsAAAAAAAAAAAAAAAAAAAAWAAAAAsAAAAAAAAAFgBgAAAHgAQAAAACCjBlgQDsBfMEACoAQdwdACAgC0HEKABUIGoVECASAhASCAUAIgIFyLAAGAAAAAAAAAAAAAAAAAAAAAAAAAAAAAAAAAAAA==

> <PUBCHEM_IUPAC_OPENEYE_NAME>
8-(ethylamino)-7-isopropyl-3-methyl-purine-2,6-dione

> <PUBCHEM_IUPAC_CAS_NAME>
8-(ethylamino)-3-methyl-7-propan-2-ylpurine-2,6-dione

> <PUBCHEM_IUPAC_NAME>
8-(ethylamino)-3-methyl-7-propan-2-ylpurine-2,6-dione

> <PUBCHEM_IUPAC_SYSTEMATIC_NAME>
8-(ethylamino)-3-methyl-7-propan-2-yl-purine-2,6-dione

> <PUBCHEM_IUPAC_TRADITIONAL_NAME>
8-(ethylamino)-7-isopropyl-3-methyl-xanthine

> <PUBCHEM_IUPAC_INCHI>
InChI=1S/C11H17N5O2/c1-5-12-10-13-8-7(16(10)6(2)3)9(17)14-11(18)15(8)4/h6H,5H2,1-4H3,(H,12,13)(H,14,17,18)

> <PUBCHEM_IUPAC_INCHIKEY>
LSUGHHYFYIEUPE-UHFFFAOYSA-N

> <PUBCHEM_XLOGP3_AA>
0.8

> <PUBCHEM_EXACT_MASS>
251.138225

> <PUBCHEM_MOLECULAR_FORMULA>
C11H17N5O2

> <PUBCHEM_MOLECULAR_WEIGHT>
251.28498

> <PUBCHEM_OPENEYE_CAN_SMILES>
CCNC1=NC2=C(N1C(C)C)C(=O)NC(=O)N2C

> <PUBCHEM_OPENEYE_ISO_SMILES>
CCNC1=NC2=C(N1C(C)C)C(=O)NC(=O)N2C

> <PUBCHEM_CACTVS_TPSA>
79.3

> <PUBCHEM_MONOISOTOPIC_WEIGHT>
251.138225

> <PUBCHEM_TOTAL_CHARGE>
0

> <PUBCHEM_HEAVY_ATOM_COUNT>
18

> <PUBCHEM_ATOM_DEF_STEREO_COUNT>
0

> <PUBCHEM_ATOM_UDEF_STEREO_COUNT>
0

> <PUBCHEM_BOND_DEF_STEREO_COUNT>
0

> <PUBCHEM_BOND_UDEF_STEREO_COUNT>
0

> <PUBCHEM_ISOTOPIC_ATOM_COUNT>
0

> <PUBCHEM_COMPONENT_COUNT>
1

> <PUBCHEM_CACTVS_TAUTO_COUNT>
11

> <PUBCHEM_COORDINATE_TYPE>
1
5
255

> <PUBCHEM_BONDANNOTATIONS>
3  10  8
3  9  8
4  11  8
4  15  8
5  10  8
5  11  8
7  14  8
7  15  8
9  11  8
9  14  8

$$$$

