92094
  -OEChem-07051213043D

 75 76  0     1  0  0  0  0  0999 V2000
    1.0839    1.3135    0.1474 O   0  0  0  0  0  0  0  0  0  0  0  0
    5.5147   -1.6051    1.6712 O   0  0  0  0  0  0  0  0  0  0  0  0
    1.1709    2.2539   -0.9399 C   0  0  2  0  0  0  0  0  0  0  0  0
   -0.2681    2.4527   -1.4385 C   0  0  0  0  0  0  0  0  0  0  0  0
   -3.7526    2.8118    0.3318 C   0  0  1  0  0  0  0  0  0  0  0  0
   -1.2579    2.5491   -0.2759 C   0  0  0  0  0  0  0  0  0  0  0  0
    2.0253    1.7105   -2.0965 C   0  0  0  0  0  0  0  0  0  0  0  0
   -2.6849    2.7806   -0.7847 C   0  0  0  0  0  0  0  0  0  0  0  0
   -3.8142    1.4758    1.1027 C   0  0  0  0  0  0  0  0  0  0  0  0
   -4.1245    0.2645    0.2161 C   0  0  0  0  0  0  0  0  0  0  0  0
    3.4284    1.3500   -1.6292 C   0  0  0  0  0  0  0  0  0  0  0  0
   -4.4485   -2.3351    0.1540 C   0  0  1  0  0  0  0  0  0  0  0  0
   -4.2045   -1.0580    0.9917 C   0  0  0  0  0  0  0  0  0  0  0  0
    1.6892    3.5947   -0.3983 C   0  0  0  0  0  0  0  0  0  0  0  0
    3.3632    0.5778   -0.3452 C   0  0  0  0  0  0  0  0  0  0  0  0
    2.2177    0.6104    0.4587 C   0  0  0  0  0  0  0  0  0  0  0  0
   -3.4080   -2.4834   -0.9759 C   0  0  0  0  0  0  0  0  0  0  0  0
   -3.4618    3.9952    1.2623 C   0  0  0  0  0  0  0  0  0  0  0  0
   -1.9435   -2.5808   -0.5283 C   0  0  0  0  0  0  0  0  0  0  0  0
   -4.4396   -3.5479    1.0936 C   0  0  0  0  0  0  0  0  0  0  0  0
   -0.9103   -2.6714   -1.6581 C   0  0  0  0  0  0  0  0  0  0  0  0
    2.1747   -0.1190    1.6505 C   0  0  0  0  0  0  0  0  0  0  0  0
    4.4740   -0.1648    0.0778 C   0  0  0  0  0  0  0  0  0  0  0  0
    0.5650   -2.6874   -1.2147 C   0  0  0  0  0  0  0  0  0  0  0  0
    3.2806   -0.8643    2.0564 C   0  0  0  0  0  0  0  0  0  0  0  0
    4.4315   -0.8843    1.2722 C   0  0  0  0  0  0  0  0  0  0  0  0
    0.9501   -0.1246    2.5075 C   0  0  0  0  0  0  0  0  0  0  0  0
    1.5302   -2.7197   -2.3999 C   0  0  0  0  0  0  0  0  0  0  0  0
    0.8192   -3.8946   -0.3085 C   0  0  0  0  0  0  0  0  0  0  0  0
   -0.5681    1.5879   -2.0458 H   0  0  0  0  0  0  0  0  0  0  0  0
   -0.3382    3.3327   -2.0895 H   0  0  0  0  0  0  0  0  0  0  0  0
   -4.7271    2.9856   -0.1423 H   0  0  0  0  0  0  0  0  0  0  0  0
   -0.9733    3.3650    0.3926 H   0  0  0  0  0  0  0  0  0  0  0  0
   -1.2334    1.6206    0.3011 H   0  0  0  0  0  0  0  0  0  0  0  0
    2.0782    2.4289   -2.9230 H   0  0  0  0  0  0  0  0  0  0  0  0
    1.5586    0.7975   -2.4924 H   0  0  0  0  0  0  0  0  0  0  0  0
   -2.7135    3.7383   -1.3219 H   0  0  0  0  0  0  0  0  0  0  0  0
   -2.9446    2.0247   -1.5341 H   0  0  0  0  0  0  0  0  0  0  0  0
   -2.8863    1.3024    1.6596 H   0  0  0  0  0  0  0  0  0  0  0  0
   -4.6030    1.5567    1.8622 H   0  0  0  0  0  0  0  0  0  0  0  0
   -5.0677    0.4284   -0.3180 H   0  0  0  0  0  0  0  0  0  0  0  0
   -3.3369    0.1744   -0.5353 H   0  0  0  0  0  0  0  0  0  0  0  0
    4.0281    2.2543   -1.4760 H   0  0  0  0  0  0  0  0  0  0  0  0
    3.9210    0.7540   -2.4065 H   0  0  0  0  0  0  0  0  0  0  0  0
   -5.4407   -2.2644   -0.3093 H   0  0  0  0  0  0  0  0  0  0  0  0
   -3.2876   -1.1735    1.5838 H   0  0  0  0  0  0  0  0  0  0  0  0
   -5.0173   -0.9707    1.7254 H   0  0  0  0  0  0  0  0  0  0  0  0
    1.6879    4.3676   -1.1740 H   0  0  0  0  0  0  0  0  0  0  0  0
    2.7108    3.5069   -0.0140 H   0  0  0  0  0  0  0  0  0  0  0  0
    1.0976    3.9510    0.4505 H   0  0  0  0  0  0  0  0  0  0  0  0
   -3.5163   -1.6598   -1.6910 H   0  0  0  0  0  0  0  0  0  0  0  0
   -3.6495   -3.3908   -1.5457 H   0  0  0  0  0  0  0  0  0  0  0  0
   -4.2986    4.1378    1.9552 H   0  0  0  0  0  0  0  0  0  0  0  0
   -3.3388    4.9254    0.6982 H   0  0  0  0  0  0  0  0  0  0  0  0
   -2.5666    3.8338    1.8706 H   0  0  0  0  0  0  0  0  0  0  0  0
   -1.8414   -3.4617    0.1129 H   0  0  0  0  0  0  0  0  0  0  0  0
   -1.6871   -1.7099    0.0849 H   0  0  0  0  0  0  0  0  0  0  0  0
   -3.5100   -3.6198    1.6669 H   0  0  0  0  0  0  0  0  0  0  0  0
   -4.5669   -4.4770    0.5284 H   0  0  0  0  0  0  0  0  0  0  0  0
   -5.2647   -3.4800    1.8111 H   0  0  0  0  0  0  0  0  0  0  0  0
   -1.0586   -1.8137   -2.3272 H   0  0  0  0  0  0  0  0  0  0  0  0
   -1.1214   -3.5664   -2.2578 H   0  0  0  0  0  0  0  0  0  0  0  0
    5.3728   -0.1814   -0.5347 H   0  0  0  0  0  0  0  0  0  0  0  0
    0.7643   -1.7759   -0.6409 H   0  0  0  0  0  0  0  0  0  0  0  0
    3.2559   -1.4330    2.9827 H   0  0  0  0  0  0  0  0  0  0  0  0
    0.7018    0.8936    2.8251 H   0  0  0  0  0  0  0  0  0  0  0  0
    0.1028   -0.5462    1.9561 H   0  0  0  0  0  0  0  0  0  0  0  0
    1.0853   -0.7260    3.4128 H   0  0  0  0  0  0  0  0  0  0  0  0
    1.3710   -1.8532   -3.0501 H   0  0  0  0  0  0  0  0  0  0  0  0
    2.5702   -2.6940   -2.0575 H   0  0  0  0  0  0  0  0  0  0  0  0
    1.3907   -3.6245   -3.0011 H   0  0  0  0  0  0  0  0  0  0  0  0
    1.8831   -3.9700   -0.0576 H   0  0  0  0  0  0  0  0  0  0  0  0
    0.2785   -3.8079    0.6388 H   0  0  0  0  0  0  0  0  0  0  0  0
    0.5217   -4.8304   -0.7936 H   0  0  0  0  0  0  0  0  0  0  0  0
    6.2207   -1.5063    1.0095 H   0  0  0  0  0  0  0  0  0  0  0  0
  1  3  1  0  0  0  0
  1 16  1  0  0  0  0
  2 26  1  0  0  0  0
  2 75  1  0  0  0  0
  3  4  1  0  0  0  0
  3  7  1  0  0  0  0
  3 14  1  0  0  0  0
  4  6  1  0  0  0  0
  4 30  1  0  0  0  0
  4 31  1  0  0  0  0
  5  8  1  0  0  0  0
  5  9  1  0  0  0  0
  5 18  1  0  0  0  0
  5 32  1  0  0  0  0
  6  8  1  0  0  0  0
  6 33  1  0  0  0  0
  6 34  1  0  0  0  0
  7 11  1  0  0  0  0
  7 35  1  0  0  0  0
  7 36  1  0  0  0  0
  8 37  1  0  0  0  0
  8 38  1  0  0  0  0
  9 10  1  0  0  0  0
  9 39  1  0  0  0  0
  9 40  1  0  0  0  0
 10 13  1  0  0  0  0
 10 41  1  0  0  0  0
 10 42  1  0  0  0  0
 11 15  1  0  0  0  0
 11 43  1  0  0  0  0
 11 44  1  0  0  0  0
 12 13  1  0  0  0  0
 12 17  1  0  0  0  0
 12 20  1  0  0  0  0
 12 45  1  0  0  0  0
 13 46  1  0  0  0  0
 13 47  1  0  0  0  0
 14 48  1  0  0  0  0
 14 49  1  0  0  0  0
 14 50  1  0  0  0  0
 15 16  1  0  0  0  0
 15 23  2  0  0  0  0
 16 22  2  0  0  0  0
 17 19  1  0  0  0  0
 17 51  1  0  0  0  0
 17 52  1  0  0  0  0
 18 53  1  0  0  0  0
 18 54  1  0  0  0  0
 18 55  1  0  0  0  0
 19 21  1  0  0  0  0
 19 56  1  0  0  0  0
 19 57  1  0  0  0  0
 20 58  1  0  0  0  0
 20 59  1  0  0  0  0
 20 60  1  0  0  0  0
 21 24  1  0  0  0  0
 21 61  1  0  0  0  0
 21 62  1  0  0  0  0
 22 25  1  0  0  0  0
 22 27  1  0  0  0  0
 23 26  1  0  0  0  0
 23 63  1  0  0  0  0
 24 28  1  0  0  0  0
 24 29  1  0  0  0  0
 24 64  1  0  0  0  0
 25 26  2  0  0  0  0
 25 65  1  0  0  0  0
 27 66  1  0  0  0  0
 27 67  1  0  0  0  0
 27 68  1  0  0  0  0
 28 69  1  0  0  0  0
 28 70  1  0  0  0  0
 28 71  1  0  0  0  0
 29 72  1  0  0  0  0
 29 73  1  0  0  0  0
 29 74  1  0  0  0  0
M  END
> <PUBCHEM_COMPOUND_CID>
92094

> <PUBCHEM_CONFORMER_RMSD>
1.6

> <PUBCHEM_CONFORMER_DIVERSEORDER>
1
60
33
56
5
54
2
11
45
51
55
16
10
58
72
69
7
35
3
42
43
14
38
15
59
22
41
4
65
29
49
36
24
39
27
71
37
52
18
34
67
26
9
50
46
48
64
44
23
8
31
66
20
53
62
40
57
28
70
32
19
6
13
12
25
17
30
21
47
61
68
63

> <PUBCHEM_MMFF94_PARTIAL_CHARGES>
14
1 -0.36
11 0.14
15 -0.14
16 0.08
2 -0.53
22 -0.14
23 -0.15
25 -0.15
26 0.08
27 0.14
3 0.28
63 0.15
65 0.15
75 0.45

> <PUBCHEM_EFFECTIVE_ROTOR_COUNT>
12.8

> <PUBCHEM_PHARMACOPHORE_FEATURES>
7
1 1 acceptor
1 18 hydrophobe
1 2 donor
1 20 hydrophobe
3 24 28 29 hydrophobe
6 1 3 7 11 15 16 rings
6 15 16 22 23 25 26 rings

> <PUBCHEM_HEAVY_ATOM_COUNT>
29

> <PUBCHEM_ATOM_DEF_STEREO_COUNT>
3

> <PUBCHEM_ATOM_UDEF_STEREO_COUNT>
0

> <PUBCHEM_BOND_DEF_STEREO_COUNT>
0

> <PUBCHEM_BOND_UDEF_STEREO_COUNT>
0

> <PUBCHEM_ISOTOPIC_ATOM_COUNT>
0

> <PUBCHEM_COMPONENT_COUNT>
1

> <PUBCHEM_CACTVS_TAUTO_COUNT>
9

> <PUBCHEM_CONFORMER_ID>
000167BE00000001

> <PUBCHEM_MMFF94_ENERGY>
60.7642

> <PUBCHEM_FEATURE_SELFOVERLAP>
35.549

> <PUBCHEM_SHAPE_FINGERPRINT>
12156800 1 18268133409636686750
12422481 6 18190754222354729274
12786520 15 17268597182650283405
12788726 201 18265321811958531805
13383668 90 16191979698427027538
13726171 33 18120345740802246629
14117953 113 18268999846611645189
14932702 115 17539649862875800438
15001296 14 18269551633686639805
15403338 16 17916881101614004051
15664445 248 14871884464166281150
17093844 170 18119243115280080164
17921350 177 17772479138085880757
19315092 285 16555968237828624467
19319366 153 17264398843601595917
20764821 26 18196079165504203983
238918 7 18113906004177013534
24941158 1 16081921697635709782
3052486 1 18411410726744053710
35225 105 17822016367575897029
508706 21 18335697295319938255

> <PUBCHEM_SHAPE_MULTIPOLES>
585.07
9.69
5.65
2.18
1.61
0.1
-0.18
-2.45
-4.2
5.31
1.39
-1.78
-0.61
-1.49

> <PUBCHEM_SHAPE_SELFOVERLAP>
1168.255

> <PUBCHEM_SHAPE_VOLUME>
347.4

> <PUBCHEM_COORDINATE_TYPE>
2
5
10

$$$$

