16488
  -OEChem-07051213113D

 23 23  0     0  0  0  0  0  0999 V2000
    0.3568   -2.8589   -0.4394 O   0  0  0  0  0  0  0  0  0  0  0  0
    2.4800   -1.0985   -0.2597 O   0  0  0  0  0  0  0  0  0  0  0  0
    1.7219    2.9104   -0.3813 O   0  0  0  0  0  0  0  0  0  0  0  0
   -3.7065   -0.2048   -0.0339 O   0  0  0  0  0  0  0  0  0  0  0  0
    3.1760    1.4318    0.5492 O   0  0  0  0  0  0  0  0  0  0  0  0
   -3.1184    1.9751    0.2285 O   0  0  0  0  0  0  0  0  0  0  0  0
    0.9567    0.7299   -0.0042 C   0  0  0  0  0  0  0  0  0  0  0  0
    0.1330   -1.5258   -0.2696 C   0  0  0  0  0  0  0  0  0  0  0  0
   -1.4216    0.3058   -0.0124 C   0  0  0  0  0  0  0  0  0  0  0  0
    1.2004   -0.6325   -0.1784 C   0  0  0  0  0  0  0  0  0  0  0  0
   -0.3542    1.1990    0.0788 C   0  0  0  0  0  0  0  0  0  0  0  0
   -1.1781   -1.0566   -0.1866 C   0  0  0  0  0  0  0  0  0  0  0  0
    2.0561    1.6802    0.0938 C   0  0  0  0  0  0  0  0  0  0  0  0
   -2.7886    0.7945    0.0747 C   0  0  0  0  0  0  0  0  0  0  0  0
    0.4866   -3.6497    0.7404 C   0  0  0  0  0  0  0  0  0  0  0  0
   -0.5552    2.2573    0.2285 H   0  0  0  0  0  0  0  0  0  0  0  0
   -1.9848   -1.7811   -0.2625 H   0  0  0  0  0  0  0  0  0  0  0  0
    3.1162   -0.3665   -0.2381 H   0  0  0  0  0  0  0  0  0  0  0  0
   -0.4360   -3.6147    1.3286 H   0  0  0  0  0  0  0  0  0  0  0  0
    1.3311   -3.3050    1.3452 H   0  0  0  0  0  0  0  0  0  0  0  0
    0.6710   -4.6849    0.4403 H   0  0  0  0  0  0  0  0  0  0  0  0
    2.4678    3.5438   -0.3117 H   0  0  0  0  0  0  0  0  0  0  0  0
   -4.6249    0.1351    0.0256 H   0  0  0  0  0  0  0  0  0  0  0  0
  1  8  1  0  0  0  0
  1 15  1  0  0  0  0
  2 10  1  0  0  0  0
  2 18  1  0  0  0  0
  3 13  1  0  0  0  0
  3 22  1  0  0  0  0
  4 14  1  0  0  0  0
  4 23  1  0  0  0  0
  5 13  2  0  0  0  0
  6 14  2  0  0  0  0
  7 10  2  0  0  0  0
  7 11  1  0  0  0  0
  7 13  1  0  0  0  0
  8 10  1  0  0  0  0
  8 12  2  0  0  0  0
  9 11  2  0  0  0  0
  9 12  1  0  0  0  0
  9 14  1  0  0  0  0
 11 16  1  0  0  0  0
 12 17  1  0  0  0  0
 15 19  1  0  0  0  0
 15 20  1  0  0  0  0
 15 21  1  0  0  0  0
M  END
> <PUBCHEM_COMPOUND_CID>
16488

> <PUBCHEM_CONFORMER_RMSD>
0.6

> <PUBCHEM_CONFORMER_DIVERSEORDER>
1
4
5
2
3

> <PUBCHEM_MMFF94_PARTIAL_CHARGES>
20
1 -0.36
10 0.08
11 -0.15
12 -0.15
13 0.63
14 0.63
15 0.28
16 0.15
17 0.15
18 0.45
2 -0.53
22 0.5
23 0.5
3 -0.65
4 -0.65
5 -0.57
6 -0.57
7 0.09
8 0.08
9 0.09

> <PUBCHEM_EFFECTIVE_ROTOR_COUNT>
3

> <PUBCHEM_PHARMACOPHORE_FEATURES>
9
1 1 acceptor
1 2 donor
1 3 acceptor
1 4 acceptor
1 5 acceptor
1 6 acceptor
3 3 5 13 anion
3 4 6 14 anion
6 7 8 9 10 11 12 rings

> <PUBCHEM_HEAVY_ATOM_COUNT>
15

> <PUBCHEM_ATOM_DEF_STEREO_COUNT>
0

> <PUBCHEM_ATOM_UDEF_STEREO_COUNT>
0

> <PUBCHEM_BOND_DEF_STEREO_COUNT>
0

> <PUBCHEM_BOND_UDEF_STEREO_COUNT>
0

> <PUBCHEM_ISOTOPIC_ATOM_COUNT>
0

> <PUBCHEM_COMPONENT_COUNT>
1

> <PUBCHEM_CACTVS_TAUTO_COUNT>
5

> <PUBCHEM_CONFORMER_ID>
0000406800000001

> <PUBCHEM_MMFF94_ENERGY>
56.6605

> <PUBCHEM_FEATURE_SELFOVERLAP>
45.785

> <PUBCHEM_SHAPE_FINGERPRINT>
1 1 18410575119128332047
10967382 1 18410011065268075701
13140716 1 18409728477926484259
13380535 76 18263648363935328582
13380536 305 18410002252137622220
14648413 74 18267861873203540993
15442244 35 17687744256937703081
15490181 8 18265336097209512732
15502708 68 18409733992648765192
16945 1 18266743673877433487
17990270 104 18194401319445110427
19021347 4 18338799992109711970
193761 8 18122059810751988638
20510252 161 17901382299207595465
20645476 183 18129366112905378756
20645477 70 18261115222937707279
20871998 184 17396972466694634718
21524375 3 18261395490358707285
21650355 55 17044873074898751219
2334 1 18337108951826566039
23419403 2 17268377297693722414
23552423 10 18336827601884006845
241688 4 17328861509309318843
257057 1 17619638320216077803
2748010 2 18338790135186095951
305870 269 18411425032968782313
3071541 236 17979655441024908586
3091708 16 9262496508867089539
352729 6 18049721823789267438
54173680 148 17763183531740296130
7364860 26 18263363762211902807
81228 2 17615977607909783555

> <PUBCHEM_SHAPE_MULTIPOLES>
273.48
4.24
3.56
0.67
2.59
2.48
0.03
-2.67
0.31
-1.7
0.38
-0.08
0.14
-0.06

> <PUBCHEM_SHAPE_SELFOVERLAP>
582.391

> <PUBCHEM_SHAPE_VOLUME>
153.2

> <PUBCHEM_COORDINATE_TYPE>
2
5
10

$$$$

