5282354
  -OEChem-07051213043D

 77 81  0     1  0  0  0  0  0999 V2000
    3.7546   -2.4281   -1.6702 O   0  0  0  0  0  0  0  0  0  0  0  0
    2.5677   -1.7656    1.7063 O   0  0  0  0  0  0  0  0  0  0  0  0
    7.8664    0.3927    1.1181 O   0  0  0  0  0  0  0  0  0  0  0  0
    3.7695    0.7612   -0.1591 C   0  0  1  0  0  0  0  0  0  0  0  0
    4.5526   -0.5435   -0.4101 C   0  0  2  0  0  0  0  0  0  0  0  0
    4.1952    0.4029   -1.5546 C   0  0  0  0  0  0  0  0  0  0  0  0
    2.2789    0.6756    0.1912 C   0  0  2  0  0  0  0  0  0  0  0  0
    1.6270   -0.6677   -0.2438 C   0  0  1  0  0  0  0  0  0  0  0  0
    3.8424   -1.8951   -0.3476 C   0  0  1  0  0  0  0  0  0  0  0  0
    4.4837    1.9145    0.5382 C   0  0  0  0  0  0  0  0  0  0  0  0
    6.0350   -0.6119   -0.0759 C   0  0  0  0  0  0  0  0  0  0  0  0
    2.4467   -1.8499    0.2883 C   0  0  1  0  0  0  0  0  0  0  0  0
    0.1766   -0.6516    0.2534 C   0  0  1  0  0  0  0  0  0  0  0  0
   -0.6498    0.4930   -0.3821 C   0  0  2  0  0  0  0  0  0  0  0  0
    1.4803    1.8924   -0.3334 C   0  0  0  0  0  0  0  0  0  0  0  0
    6.0031    1.8108    0.5633 C   0  0  0  0  0  0  0  0  0  0  0  0
    6.4499    0.4146    0.9725 C   0  0  2  0  0  0  0  0  0  0  0  0
   -0.0146    1.8294    0.0334 C   0  0  0  0  0  0  0  0  0  0  0  0
   -2.0224    0.1915    0.2675 C   0  0  2  0  0  0  0  0  0  0  0  0
   -0.6978   -1.8829    0.0425 C   0  0  0  0  0  0  0  0  0  0  0  0
   -2.1359   -1.3494    0.1837 C   0  0  0  0  0  0  0  0  0  0  0  0
   -0.7413    0.4297   -1.9281 C   0  0  0  0  0  0  0  0  0  0  0  0
   -3.2294    0.9067   -0.3221 C   0  0  2  0  0  0  0  0  0  0  0  0
   -3.0676    2.4251   -0.2170 C   0  0  0  0  0  0  0  0  0  0  0  0
   -4.4926    0.4729    0.3815 C   0  0  0  0  0  0  0  0  0  0  0  0
   -5.5203   -0.1318   -0.2344 C   0  0  0  0  0  0  0  0  0  0  0  0
   -6.7806   -0.5789    0.4736 C   0  0  1  0  0  0  0  0  0  0  0  0
   -8.0372    0.1317   -0.1052 C   0  0  0  0  0  0  0  0  0  0  0  0
   -6.8691   -2.1059    0.3684 C   0  0  0  0  0  0  0  0  0  0  0  0
   -7.9466    1.6577    0.0147 C   0  0  0  0  0  0  0  0  0  0  0  0
   -9.3245   -0.3400    0.5870 C   0  0  0  0  0  0  0  0  0  0  0  0
    3.4422    0.1089   -2.2759 H   0  0  0  0  0  0  0  0  0  0  0  0
    4.9852    0.9831   -2.0201 H   0  0  0  0  0  0  0  0  0  0  0  0
    2.2195    0.7301    1.2880 H   0  0  0  0  0  0  0  0  0  0  0  0
    1.6202   -0.7507   -1.3355 H   0  0  0  0  0  0  0  0  0  0  0  0
    4.4494   -2.5980    0.2350 H   0  0  0  0  0  0  0  0  0  0  0  0
    4.1328    1.9673    1.5767 H   0  0  0  0  0  0  0  0  0  0  0  0
    4.2045    2.8611    0.0615 H   0  0  0  0  0  0  0  0  0  0  0  0
    6.6284   -0.4766   -0.9904 H   0  0  0  0  0  0  0  0  0  0  0  0
    6.3195   -1.6072    0.2869 H   0  0  0  0  0  0  0  0  0  0  0  0
    1.9225   -2.7862    0.0676 H   0  0  0  0  0  0  0  0  0  0  0  0
    0.2118   -0.4901    1.3437 H   0  0  0  0  0  0  0  0  0  0  0  0
    1.5999    1.9746   -1.4200 H   0  0  0  0  0  0  0  0  0  0  0  0
    1.8917    2.8192    0.0833 H   0  0  0  0  0  0  0  0  0  0  0  0
    6.4230    2.0618   -0.4191 H   0  0  0  0  0  0  0  0  0  0  0  0
    6.4144    2.5572    1.2539 H   0  0  0  0  0  0  0  0  0  0  0  0
    6.0121    0.1600    1.9454 H   0  0  0  0  0  0  0  0  0  0  0  0
   -0.1138    1.9727    1.1170 H   0  0  0  0  0  0  0  0  0  0  0  0
   -0.4917    2.6872   -0.4427 H   0  0  0  0  0  0  0  0  0  0  0  0
   -1.9581    0.4481    1.3373 H   0  0  0  0  0  0  0  0  0  0  0  0
   -0.4903   -2.6638    0.7812 H   0  0  0  0  0  0  0  0  0  0  0  0
   -0.5465   -2.3183   -0.9515 H   0  0  0  0  0  0  0  0  0  0  0  0
   -2.7307   -1.6784   -0.6761 H   0  0  0  0  0  0  0  0  0  0  0  0
   -2.6109   -1.7517    1.0857 H   0  0  0  0  0  0  0  0  0  0  0  0
    0.2394    0.4598   -2.4099 H   0  0  0  0  0  0  0  0  0  0  0  0
   -1.2383   -0.4793   -2.2812 H   0  0  0  0  0  0  0  0  0  0  0  0
   -1.3004    1.2809   -2.3298 H   0  0  0  0  0  0  0  0  0  0  0  0
    3.3585   -3.3137   -1.6049 H   0  0  0  0  0  0  0  0  0  0  0  0
    3.2606   -1.1198    1.9234 H   0  0  0  0  0  0  0  0  0  0  0  0
   -3.3332    0.6573   -1.3856 H   0  0  0  0  0  0  0  0  0  0  0  0
    8.1198   -0.5072    1.3858 H   0  0  0  0  0  0  0  0  0  0  0  0
   -2.6585    2.7345    0.7505 H   0  0  0  0  0  0  0  0  0  0  0  0
   -4.0381    2.9253   -0.3284 H   0  0  0  0  0  0  0  0  0  0  0  0
   -2.4463    2.8202   -1.0235 H   0  0  0  0  0  0  0  0  0  0  0  0
   -4.5539    0.6678    1.4499 H   0  0  0  0  0  0  0  0  0  0  0  0
   -5.4611   -0.3275   -1.3028 H   0  0  0  0  0  0  0  0  0  0  0  0
   -6.7042   -0.3275    1.5404 H   0  0  0  0  0  0  0  0  0  0  0  0
   -8.1260   -0.1128   -1.1724 H   0  0  0  0  0  0  0  0  0  0  0  0
   -7.6557   -2.5043    1.0167 H   0  0  0  0  0  0  0  0  0  0  0  0
   -5.9305   -2.5781    0.6821 H   0  0  0  0  0  0  0  0  0  0  0  0
   -7.0786   -2.4253   -0.6587 H   0  0  0  0  0  0  0  0  0  0  0  0
   -7.8152    1.9651    1.0578 H   0  0  0  0  0  0  0  0  0  0  0  0
   -7.1107    2.0583   -0.5671 H   0  0  0  0  0  0  0  0  0  0  0  0
   -8.8579    2.1329   -0.3647 H   0  0  0  0  0  0  0  0  0  0  0  0
   -9.5245   -1.3961    0.3833 H   0  0  0  0  0  0  0  0  0  0  0  0
   -9.2642   -0.2026    1.6719 H   0  0  0  0  0  0  0  0  0  0  0  0
  -10.1909    0.2231    0.2230 H   0  0  0  0  0  0  0  0  0  0  0  0
  1  9  1  0  0  0  0
  1 58  1  0  0  0  0
  2 12  1  0  0  0  0
  2 59  1  0  0  0  0
  3 17  1  0  0  0  0
  3 61  1  0  0  0  0
  4  5  1  0  0  0  0
  4  6  1  0  0  0  0
  4  7  1  0  0  0  0
  4 10  1  0  0  0  0
  5  6  1  0  0  0  0
  5  9  1  0  0  0  0
  5 11  1  0  0  0  0
  6 32  1  0  0  0  0
  6 33  1  0  0  0  0
  7  8  1  0  0  0  0
  7 15  1  0  0  0  0
  7 34  1  0  0  0  0
  8 12  1  0  0  0  0
  8 13  1  0  0  0  0
  8 35  1  0  0  0  0
  9 12  1  0  0  0  0
  9 36  1  0  0  0  0
 10 16  1  0  0  0  0
 10 37  1  0  0  0  0
 10 38  1  0  0  0  0
 11 17  1  0  0  0  0
 11 39  1  0  0  0  0
 11 40  1  0  0  0  0
 12 41  1  0  0  0  0
 13 14  1  0  0  0  0
 13 20  1  0  0  0  0
 13 42  1  0  0  0  0
 14 18  1  0  0  0  0
 14 19  1  0  0  0  0
 14 22  1  0  0  0  0
 15 18  1  0  0  0  0
 15 43  1  0  0  0  0
 15 44  1  0  0  0  0
 16 17  1  0  0  0  0
 16 45  1  0  0  0  0
 16 46  1  0  0  0  0
 17 47  1  0  0  0  0
 18 48  1  0  0  0  0
 18 49  1  0  0  0  0
 19 21  1  0  0  0  0
 19 23  1  0  0  0  0
 19 50  1  0  0  0  0
 20 21  1  0  0  0  0
 20 51  1  0  0  0  0
 20 52  1  0  0  0  0
 21 53  1  0  0  0  0
 21 54  1  0  0  0  0
 22 55  1  0  0  0  0
 22 56  1  0  0  0  0
 22 57  1  0  0  0  0
 23 24  1  0  0  0  0
 23 25  1  0  0  0  0
 23 60  1  0  0  0  0
 24 62  1  0  0  0  0
 24 63  1  0  0  0  0
 24 64  1  0  0  0  0
 25 26  2  0  0  0  0
 25 65  1  0  0  0  0
 26 27  1  0  0  0  0
 26 66  1  0  0  0  0
 27 28  1  0  0  0  0
 27 29  1  0  0  0  0
 27 67  1  0  0  0  0
 28 30  1  0  0  0  0
 28 31  1  0  0  0  0
 28 68  1  0  0  0  0
 29 69  1  0  0  0  0
 29 70  1  0  0  0  0
 29 71  1  0  0  0  0
 30 72  1  0  0  0  0
 30 73  1  0  0  0  0
 30 74  1  0  0  0  0
 31 75  1  0  0  0  0
 31 76  1  0  0  0  0
 31 77  1  0  0  0  0
M  END
> <PUBCHEM_COMPOUND_CID>
5282354

> <PUBCHEM_CONFORMER_RMSD>
0.8

> <PUBCHEM_CONFORMER_DIVERSEORDER>
1
6
11
4
7
14
5
12
9
2
13
8
3
10

> <PUBCHEM_MMFF94_PARTIAL_CHARGES>
23
1 -0.68
10 0.09
11 0.09
12 0.28
17 0.28
2 -0.68
23 0.14
25 -0.29
26 -0.29
27 0.14
3 -0.68
32 0.1
33 0.1
4 -0.19
5 -0.19
58 0.4
59 0.4
6 -0.2
61 0.4
65 0.15
66 0.15
7 0.09
9 0.38

> <PUBCHEM_EFFECTIVE_ROTOR_COUNT>
6.4

> <PUBCHEM_PHARMACOPHORE_FEATURES>
13
1 1 acceptor
1 1 donor
1 2 acceptor
1 2 donor
1 24 hydrophobe
1 29 hydrophobe
1 3 acceptor
1 3 donor
3 28 30 31 hydrophobe
5 13 14 19 20 21 rings
6 7 8 13 14 15 18 rings
7 4 5 6 10 11 16 17 rings
7 4 5 6 7 8 9 12 rings

> <PUBCHEM_HEAVY_ATOM_COUNT>
31

> <PUBCHEM_ATOM_DEF_STEREO_COUNT>
11

> <PUBCHEM_ATOM_UDEF_STEREO_COUNT>
1

> <PUBCHEM_BOND_DEF_STEREO_COUNT>
1

> <PUBCHEM_BOND_UDEF_STEREO_COUNT>
0

> <PUBCHEM_ISOTOPIC_ATOM_COUNT>
0

> <PUBCHEM_COMPONENT_COUNT>
1

> <PUBCHEM_CACTVS_TAUTO_COUNT>
1

> <PUBCHEM_CONFORMER_ID>
00509A3200000001

> <PUBCHEM_MMFF94_ENERGY>
97.1953

> <PUBCHEM_FEATURE_SELFOVERLAP>
66.151

> <PUBCHEM_SHAPE_FINGERPRINT>
10 15 18271810086499670784
10050765 1 18123470746595804009
10165383 225 17603589608791007762
10411042 1 17975127958124427838
11135926 11 18272941523025780087
11181472 205 16371551735600443489
11578080 2 16807029631644759834
12236239 1 17676486163669207953
12516196 113 18410009940461612225
12838862 33 18339659878927488145
13073987 5 18188489189150231632
13533116 47 17822008735134233611
13692114 37 18131351873882072842
13811026 1 18343582928779980641
13835254 42 17749945691131571616
14170010 4 18343579634186890133
14251764 18 18113617876411680633
14461889 52 18412262805000224826
14849402 71 18114460072765996417
15183329 4 18410003352161063177
15849732 13 18260547814491773509
16120349 18 18260271815545987745
18608769 82 18411704270900670873
19841028 212 17988648557367444546
20157964 124 18186236242770020102
21150785 3 14490189397255577091
21267235 1 18410006667675290862
21792934 111 18338806700859262473
22149856 69 18261940938679120041
22956985 138 15767271195678103186
23559900 14 18342739581897436401
24771293 8 18342459184251064365
249057 3 10087637104717990193
335352 9 18411414008563031382
34797466 226 17458339741283395604
350125 39 18411699898745380293
3633792 109 18260544567512230993
4073 2 18059849512094145707
4093350 32 17530962505435135903
4325135 7 18333731317263757679
4340502 62 18342177760919079110
5104073 3 18268428104090087729
99344 41 18408886235525917255

> <PUBCHEM_SHAPE_MULTIPOLES>
620.36
22.65
2.29
1.09
34.51
0.17
-0.26
-0.9
5.03
-0.51
0
-1.1
0.16
1.03

> <PUBCHEM_SHAPE_SELFOVERLAP>
1306.05

> <PUBCHEM_SHAPE_VOLUME>
350

> <PUBCHEM_COORDINATE_TYPE>
2
5
10

$$$$

