440075
  -OEChem-07051212483D

 21 20  0     1  0  0  0  0  0999 V2000
   -0.4069    0.3709   -1.6189 O   0  0  0  0  0  0  0  0  0  0  0  0
   -2.1513   -0.6640    1.3308 O   0  0  0  0  0  0  0  0  0  0  0  0
    2.7168   -0.7267    0.9604 O   0  0  0  0  0  0  0  0  0  0  0  0
   -2.7368    0.7113   -0.3793 O   0  0  0  0  0  0  0  0  0  0  0  0
    2.4021    0.3766   -0.9960 O   0  0  0  0  0  0  0  0  0  0  0  0
   -0.5098   -0.2968   -0.3617 C   0  0  2  0  0  0  0  0  0  0  0  0
    0.5631    0.2701    0.5995 C   0  0  2  0  0  0  0  0  0  0  0  0
   -0.3660   -1.8028   -0.6054 C   0  0  0  0  0  0  0  0  0  0  0  0
    0.4326    1.7829    0.8239 C   0  0  0  0  0  0  0  0  0  0  0  0
   -1.9131   -0.0120    0.1640 C   0  0  0  0  0  0  0  0  0  0  0  0
    1.9692   -0.0095    0.0827 C   0  0  0  0  0  0  0  0  0  0  0  0
    0.4592   -0.2201    1.5767 H   0  0  0  0  0  0  0  0  0  0  0  0
   -0.3487   -2.3681    0.3322 H   0  0  0  0  0  0  0  0  0  0  0  0
    0.5465   -2.0296   -1.1672 H   0  0  0  0  0  0  0  0  0  0  0  0
   -1.2002   -2.1783   -1.2101 H   0  0  0  0  0  0  0  0  0  0  0  0
    1.1818    2.1198    1.5500 H   0  0  0  0  0  0  0  0  0  0  0  0
    0.6060    2.3549   -0.0934 H   0  0  0  0  0  0  0  0  0  0  0  0
   -0.5510    2.0505    1.2209 H   0  0  0  0  0  0  0  0  0  0  0  0
   -0.6157    1.3113   -1.4932 H   0  0  0  0  0  0  0  0  0  0  0  0
   -3.0521   -0.4824    1.6738 H   0  0  0  0  0  0  0  0  0  0  0  0
    3.6214   -0.8930    0.6195 H   0  0  0  0  0  0  0  0  0  0  0  0
  1  6  1  0  0  0  0
  1 19  1  0  0  0  0
  2 10  1  0  0  0  0
  2 20  1  0  0  0  0
  3 11  1  0  0  0  0
  3 21  1  0  0  0  0
  4 10  2  0  0  0  0
  5 11  2  0  0  0  0
  6  7  1  0  0  0  0
  6  8  1  0  0  0  0
  6 10  1  0  0  0  0
  7  9  1  0  0  0  0
  7 11  1  0  0  0  0
  7 12  1  0  0  0  0
  8 13  1  0  0  0  0
  8 14  1  0  0  0  0
  8 15  1  0  0  0  0
  9 16  1  0  0  0  0
  9 17  1  0  0  0  0
  9 18  1  0  0  0  0
M  END
> <PUBCHEM_COMPOUND_CID>
440075

> <PUBCHEM_CONFORMER_RMSD>
0.6

> <PUBCHEM_CONFORMER_DIVERSEORDER>
1
15
7
20
9
12
4
16
2
8
5
21
13
14
19
6
18
17
3
10
11

> <PUBCHEM_MMFF94_PARTIAL_CHARGES>
12
1 -0.68
10 0.66
11 0.66
19 0.4
2 -0.65
20 0.5
21 0.5
3 -0.65
4 -0.57
5 -0.57
6 0.34
7 0.06

> <PUBCHEM_EFFECTIVE_ROTOR_COUNT>
3

> <PUBCHEM_PHARMACOPHORE_FEATURES>
9
1 1 acceptor
1 1 donor
1 2 acceptor
1 3 acceptor
1 4 acceptor
1 5 acceptor
1 9 hydrophobe
3 2 4 10 anion
3 3 5 11 anion

> <PUBCHEM_HEAVY_ATOM_COUNT>
11

> <PUBCHEM_ATOM_DEF_STEREO_COUNT>
1

> <PUBCHEM_ATOM_UDEF_STEREO_COUNT>
1

> <PUBCHEM_BOND_DEF_STEREO_COUNT>
0

> <PUBCHEM_BOND_UDEF_STEREO_COUNT>
0

> <PUBCHEM_ISOTOPIC_ATOM_COUNT>
0

> <PUBCHEM_COMPONENT_COUNT>
1

> <PUBCHEM_CACTVS_TAUTO_COUNT>
1

> <PUBCHEM_CONFORMER_ID>
0006B70B00000001

> <PUBCHEM_MMFF94_ENERGY>
16.4003

> <PUBCHEM_FEATURE_SELFOVERLAP>
45.797

> <PUBCHEM_SHAPE_FINGERPRINT>
12423570 1 10567016984684688807
14128692 85 13182432470644750979
15310529 11 17846213324205171752
16945 1 17676200282003180681
20653085 51 13912865528292889243
21040471 1 18187366532001609286
23552423 10 17977112253434058716
24536 1 16342048440590682830
29004967 10 18407758140399773482
369184 2 18041577883049303666
5084963 1 17916885585105348797

> <PUBCHEM_SHAPE_MULTIPOLES>
197.03
3.35
1.42
1.18
0.3
0.08
-0.08
0.08
0.38
-0.01
0.07
-0.04
-0.08
0.02

> <PUBCHEM_SHAPE_SELFOVERLAP>
385.926

> <PUBCHEM_SHAPE_VOLUME>
118.4

> <PUBCHEM_COORDINATE_TYPE>
2
5
10

$$$$

