17396437
  -OEChem-06241222563D

 47 48  0     0  0  0  0  0  0999 V2000
   -0.3552   -3.1156   -1.1337 O   0  0  0  0  0  0  0  0  0  0  0  0
    3.4394    1.5713    0.1769 O   0  0  0  0  0  0  0  0  0  0  0  0
    4.6018    0.0502   -1.0718 O   0  0  0  0  0  0  0  0  0  0  0  0
   -3.4425   -0.3815    0.6258 O   0  0  0  0  0  0  0  0  0  0  0  0
    2.4453   -0.4373   -0.3553 N   0  0  0  0  0  0  0  0  0  0  0  0
   -1.5568   -2.5407    0.7755 N   0  0  0  0  0  0  0  0  0  0  0  0
    0.8384   -2.5301    0.8511 C   0  0  0  0  0  0  0  0  0  0  0  0
    2.0833   -2.8423    0.0143 C   0  0  0  0  0  0  0  0  0  0  0  0
    0.8643   -1.1054    1.4142 C   0  0  0  0  0  0  0  0  0  0  0  0
    2.3977   -1.7461   -1.0021 C   0  0  0  0  0  0  0  0  0  0  0  0
    1.2297   -0.0539    0.3663 C   0  0  0  0  0  0  0  0  0  0  0  0
   -0.4041   -2.7719    0.0445 C   0  0  0  0  0  0  0  0  0  0  0  0
    3.5803    0.3703   -0.4665 C   0  0  0  0  0  0  0  0  0  0  0  0
   -2.8847   -2.6804    0.2228 C   0  0  0  0  0  0  0  0  0  0  0  0
   -3.3755   -1.3790   -0.3850 C   0  0  0  0  0  0  0  0  0  0  0  0
    4.5618    2.4583    0.1114 C   0  0  0  0  0  0  0  0  0  0  0  0
    4.2331    3.7265    0.8701 C   0  0  0  0  0  0  0  0  0  0  0  0
   -3.2447    0.9150    0.2283 C   0  0  0  0  0  0  0  0  0  0  0  0
   -3.6053    1.3127   -1.0592 C   0  0  0  0  0  0  0  0  0  0  0  0
   -2.6822    1.8370    1.1112 C   0  0  0  0  0  0  0  0  0  0  0  0
   -3.4032    2.6323   -1.4639 C   0  0  0  0  0  0  0  0  0  0  0  0
   -2.4803    3.1566    0.7064 C   0  0  0  0  0  0  0  0  0  0  0  0
   -2.8408    3.5541   -0.5812 C   0  0  0  0  0  0  0  0  0  0  0  0
    0.8045   -3.2387    1.6898 H   0  0  0  0  0  0  0  0  0  0  0  0
    2.9382   -2.9315    0.6981 H   0  0  0  0  0  0  0  0  0  0  0  0
    1.9935   -3.8085   -0.4961 H   0  0  0  0  0  0  0  0  0  0  0  0
   -0.0728   -0.8144    1.8987 H   0  0  0  0  0  0  0  0  0  0  0  0
    1.6308   -1.0746    2.2008 H   0  0  0  0  0  0  0  0  0  0  0  0
    3.3516   -1.9669   -1.4920 H   0  0  0  0  0  0  0  0  0  0  0  0
    1.6389   -1.6938   -1.7898 H   0  0  0  0  0  0  0  0  0  0  0  0
    0.4278    0.0431   -0.3752 H   0  0  0  0  0  0  0  0  0  0  0  0
    1.3416    0.9202    0.8503 H   0  0  0  0  0  0  0  0  0  0  0  0
   -1.4911   -2.3146    1.7629 H   0  0  0  0  0  0  0  0  0  0  0  0
   -2.8812   -3.4749   -0.5305 H   0  0  0  0  0  0  0  0  0  0  0  0
   -3.5353   -2.9829    1.0501 H   0  0  0  0  0  0  0  0  0  0  0  0
   -2.6808   -1.0993   -1.1881 H   0  0  0  0  0  0  0  0  0  0  0  0
   -4.3759   -1.5272   -0.8068 H   0  0  0  0  0  0  0  0  0  0  0  0
    4.7761    2.6988   -0.9359 H   0  0  0  0  0  0  0  0  0  0  0  0
    5.4360    1.9743    0.5609 H   0  0  0  0  0  0  0  0  0  0  0  0
    5.0711    4.4285    0.8405 H   0  0  0  0  0  0  0  0  0  0  0  0
    3.9980    3.4999    1.9154 H   0  0  0  0  0  0  0  0  0  0  0  0
    3.3491    4.2122    0.4439 H   0  0  0  0  0  0  0  0  0  0  0  0
   -4.0721    0.6345   -1.7672 H   0  0  0  0  0  0  0  0  0  0  0  0
   -2.3979    1.5323    2.1146 H   0  0  0  0  0  0  0  0  0  0  0  0
   -3.6898    2.9440   -2.4641 H   0  0  0  0  0  0  0  0  0  0  0  0
   -2.0420    3.8743    1.3936 H   0  0  0  0  0  0  0  0  0  0  0  0
   -2.6848    4.5818   -0.8958 H   0  0  0  0  0  0  0  0  0  0  0  0
  1 12  2  0  0  0  0
  2 13  1  0  0  0  0
  2 16  1  0  0  0  0
  3 13  2  0  0  0  0
  4 15  1  0  0  0  0
  4 18  1  0  0  0  0
  5 10  1  0  0  0  0
  5 11  1  0  0  0  0
  5 13  1  0  0  0  0
  6 12  1  0  0  0  0
  6 14  1  0  0  0  0
  6 33  1  0  0  0  0
  7  8  1  0  0  0  0
  7  9  1  0  0  0  0
  7 12  1  0  0  0  0
  7 24  1  0  0  0  0
  8 10  1  0  0  0  0
  8 25  1  0  0  0  0
  8 26  1  0  0  0  0
  9 11  1  0  0  0  0
  9 27  1  0  0  0  0
  9 28  1  0  0  0  0
 10 29  1  0  0  0  0
 10 30  1  0  0  0  0
 11 31  1  0  0  0  0
 11 32  1  0  0  0  0
 14 15  1  0  0  0  0
 14 34  1  0  0  0  0
 14 35  1  0  0  0  0
 15 36  1  0  0  0  0
 15 37  1  0  0  0  0
 16 17  1  0  0  0  0
 16 38  1  0  0  0  0
 16 39  1  0  0  0  0
 17 40  1  0  0  0  0
 17 41  1  0  0  0  0
 17 42  1  0  0  0  0
 18 19  2  0  0  0  0
 18 20  1  0  0  0  0
 19 21  1  0  0  0  0
 19 43  1  0  0  0  0
 20 22  2  0  0  0  0
 20 44  1  0  0  0  0
 21 23  2  0  0  0  0
 21 45  1  0  0  0  0
 22 23  1  0  0  0  0
 22 46  1  0  0  0  0
 23 47  1  0  0  0  0
M  END
> <PUBCHEM_COMPOUND_CID>
17396437

> <PUBCHEM_CONFORMER_RMSD>
1

> <PUBCHEM_CONFORMER_DIVERSEORDER>
1
83
86
66
75
93
89
81
34
92
13
95
47
82
36
7
56
55
31
97
4
85
32
53
50
9
26
63
6
100
22
96
71
44
87
70
39
11
35
49
69
29
62
33
74
64
40
25
59
51
38
43
73
45
15
8
76
52
21
101
78
14
30
27
98
28
60
65
94
18
90
68
42
84
48
19
23
61
88
99
17
79
91
67
3
37
57
10
72
54
24
5
41
58
77
16
12
2
46
80
20

> <PUBCHEM_MMFF94_PARTIAL_CHARGES>
26
1 -0.57
10 0.3
11 0.3
12 0.57
13 0.78
14 0.3
15 0.28
16 0.28
18 0.08
19 -0.15
2 -0.43
20 -0.15
21 -0.15
22 -0.15
23 -0.15
3 -0.57
33 0.37
4 -0.36
43 0.15
44 0.15
45 0.15
46 0.15
47 0.15
5 -0.66
6 -0.73
7 0.06

> <PUBCHEM_EFFECTIVE_ROTOR_COUNT>
10.2

> <PUBCHEM_PHARMACOPHORE_FEATURES>
6
1 1 acceptor
1 3 acceptor
1 4 acceptor
1 6 donor
6 18 19 20 21 22 23 rings
6 5 7 8 9 10 11 rings

> <PUBCHEM_HEAVY_ATOM_COUNT>
23

> <PUBCHEM_ATOM_DEF_STEREO_COUNT>
0

> <PUBCHEM_ATOM_UDEF_STEREO_COUNT>
0

> <PUBCHEM_BOND_DEF_STEREO_COUNT>
0

> <PUBCHEM_BOND_UDEF_STEREO_COUNT>
0

> <PUBCHEM_ISOTOPIC_ATOM_COUNT>
0

> <PUBCHEM_COMPONENT_COUNT>
1

> <PUBCHEM_CACTVS_TAUTO_COUNT>
2

> <PUBCHEM_CONFORMER_ID>
010972D500000001

> <PUBCHEM_MMFF94_ENERGY>
44.1551

> <PUBCHEM_FEATURE_SELFOVERLAP>
30.446

> <PUBCHEM_SHAPE_FINGERPRINT>
100830 39 18267308630367514160
10498660 4 18412268328802641295
10670039 82 18126265464614642684
11370993 70 18340773757421381389
11595378 159 17914070710984924208
12633257 1 17695350665266525335
13122387 1 18339079401344686429
13402501 40 18046627798063853648
13561361 72 17615702738931372256
14251751 93 18408320012137302279
14251757 17 17678435662331298806
14251764 38 18409168779880841704
14466204 15 18411422830536776586
15322535 138 18340780315858223404
16992787 43 18411144607182813517
20398071 114 18410859871123430536
20567600 299 17907020925674218188
20621476 13 17908429404264081405
20775530 9 8538681952709267341
21095088 737 18411709807071064421
21315764 268 18339083679432475312
21734292 116 18337671893322181392
21860390 5 17685500144603853399
21864079 5 18197779010633907903
22749437 52 18196097865870704109
238 59 17978527639001324885
3117164 225 18270700748160743362
46194498 28 18041266751155213959
469060 322 17983838013796714899
474 4 17546450433168434469
5048184 11 18268987764230389597
550186 7 18119795933801250900
5895379 119 18117847817987313114
5939293 188 17763468717589992467

> <PUBCHEM_SHAPE_MULTIPOLES>
439.89
8.99
5.49
1.2
4.34
1.5
-0.05
8.26
-1.37
0
0.34
-0.25
0.17
1.25

> <PUBCHEM_SHAPE_SELFOVERLAP>
899.498

> <PUBCHEM_SHAPE_VOLUME>
251.6

> <PUBCHEM_COORDINATE_TYPE>
2
5
10

$$$$

