34633
  -OEChem-07051212542D

 55 58  0     0  0  0  0  0  0999 V2000
    5.4641   -3.2327    0.0000 S   0  0  0  0  0  0  0  0  0  0  0  0
    2.0000    2.7673    0.0000 O   0  0  0  0  0  0  0  0  0  0  0  0
    6.3301    0.2673    0.0000 O   0  0  0  0  0  0  0  0  0  0  0  0
   10.7263   -1.2018    0.0000 O   0  0  0  0  0  0  0  0  0  0  0  0
    9.8660   -2.7052    0.0000 O   0  0  0  0  0  0  0  0  0  0  0  0
    3.7320    1.7673    0.0000 N   0  0  0  0  0  0  0  0  0  0  0  0
    5.4641   -1.2327    0.0000 N   0  0  0  0  0  0  0  0  0  0  0  0
    8.9942   -1.2085    0.0000 N   0  0  0  0  0  0  0  0  0  0  0  0
    4.5981    1.2673    0.0000 C   0  0  0  0  0  0  0  0  0  0  0  0
    2.8660    1.2673    0.0000 C   0  0  0  0  0  0  0  0  0  0  0  0
    3.7320    2.7673    0.0000 C   0  0  0  0  0  0  0  0  0  0  0  0
    4.5981    0.2673    0.0000 C   0  0  0  0  0  0  0  0  0  0  0  0
    2.0000    1.7673    0.0000 C   0  0  0  0  0  0  0  0  0  0  0  0
    2.8660    3.2673    0.0000 C   0  0  0  0  0  0  0  0  0  0  0  0
    5.4641   -0.2327    0.0000 C   0  0  0  0  0  0  0  0  0  0  0  0
    6.3301   -1.7327    0.0000 C   0  0  0  0  0  0  0  0  0  0  0  0
    4.5981   -1.7327    0.0000 C   0  0  0  0  0  0  0  0  0  0  0  0
    6.3301   -2.7327    0.0000 C   0  0  0  0  0  0  0  0  0  0  0  0
    4.5981   -2.7327    0.0000 C   0  0  0  0  0  0  0  0  0  0  0  0
    7.2241   -1.1980    0.0000 C   0  0  0  0  0  0  0  0  0  0  0  0
    3.7041   -1.1980    0.0000 C   0  0  0  0  0  0  0  0  0  0  0  0
    7.2241   -3.2673    0.0000 C   0  0  0  0  0  0  0  0  0  0  0  0
    8.1301   -1.7118    0.0000 C   0  0  0  0  0  0  0  0  0  0  0  0
    3.7041   -3.2673    0.0000 C   0  0  0  0  0  0  0  0  0  0  0  0
    8.1301   -2.7535    0.0000 C   0  0  0  0  0  0  0  0  0  0  0  0
    2.7981   -1.7118    0.0000 C   0  0  0  0  0  0  0  0  0  0  0  0
    2.7981   -2.7535    0.0000 C   0  0  0  0  0  0  0  0  0  0  0  0
    9.8622   -1.7052    0.0000 C   0  0  0  0  0  0  0  0  0  0  0  0
   11.5942   -1.6985    0.0000 C   0  0  0  0  0  0  0  0  0  0  0  0
   12.4583   -1.1952    0.0000 C   0  0  0  0  0  0  0  0  0  0  0  0
    5.2087    1.1597    0.0000 H   0  0  0  0  0  0  0  0  0  0  0  0
    4.8101    1.8499    0.0000 H   0  0  0  0  0  0  0  0  0  0  0  0
    2.4675    0.7924    0.0000 H   0  0  0  0  0  0  0  0  0  0  0  0
    3.2646    0.7924    0.0000 H   0  0  0  0  0  0  0  0  0  0  0  0
    4.3426    2.6597    0.0000 H   0  0  0  0  0  0  0  0  0  0  0  0
    3.9441    3.3499    0.0000 H   0  0  0  0  0  0  0  0  0  0  0  0
    3.9875    0.3750    0.0000 H   0  0  0  0  0  0  0  0  0  0  0  0
    4.3860   -0.3153    0.0000 H   0  0  0  0  0  0  0  0  0  0  0  0
    1.3894    1.8750    0.0000 H   0  0  0  0  0  0  0  0  0  0  0  0
    1.7880    1.1847    0.0000 H   0  0  0  0  0  0  0  0  0  0  0  0
    3.2646    3.7423    0.0000 H   0  0  0  0  0  0  0  0  0  0  0  0
    2.4675    3.7423    0.0000 H   0  0  0  0  0  0  0  0  0  0  0  0
    7.2169   -0.5780    0.0000 H   0  0  0  0  0  0  0  0  0  0  0  0
    3.7113   -0.5780    0.0000 H   0  0  0  0  0  0  0  0  0  0  0  0
    7.2169   -3.8873    0.0000 H   0  0  0  0  0  0  0  0  0  0  0  0
    3.7113   -3.8873    0.0000 H   0  0  0  0  0  0  0  0  0  0  0  0
    8.6659   -3.0656    0.0000 H   0  0  0  0  0  0  0  0  0  0  0  0
    2.2623   -1.3998    0.0000 H   0  0  0  0  0  0  0  0  0  0  0  0
    2.2623   -3.0656    0.0000 H   0  0  0  0  0  0  0  0  0  0  0  0
    8.9918   -0.5885    0.0000 H   0  0  0  0  0  0  0  0  0  0  0  0
   11.1975   -2.1750    0.0000 H   0  0  0  0  0  0  0  0  0  0  0  0
   11.9946   -2.1719    0.0000 H   0  0  0  0  0  0  0  0  0  0  0  0
   12.7704   -1.7309    0.0000 H   0  0  0  0  0  0  0  0  0  0  0  0
   12.9940   -0.8831    0.0000 H   0  0  0  0  0  0  0  0  0  0  0  0
   12.1462   -0.6594    0.0000 H   0  0  0  0  0  0  0  0  0  0  0  0
  1 18  1  0  0  0  0
  1 19  1  0  0  0  0
  2 13  1  0  0  0  0
  2 14  1  0  0  0  0
  3 15  2  0  0  0  0
  4 28  1  0  0  0  0
  4 29  1  0  0  0  0
  5 28  2  0  0  0  0
  6  9  1  0  0  0  0
  6 10  1  0  0  0  0
  6 11  1  0  0  0  0
  7 15  1  0  0  0  0
  7 16  1  0  0  0  0
  7 17  1  0  0  0  0
  8 23  1  0  0  0  0
  8 28  1  0  0  0  0
  8 50  1  0  0  0  0
  9 12  1  0  0  0  0
  9 31  1  0  0  0  0
  9 32  1  0  0  0  0
 10 13  1  0  0  0  0
 10 33  1  0  0  0  0
 10 34  1  0  0  0  0
 11 14  1  0  0  0  0
 11 35  1  0  0  0  0
 11 36  1  0  0  0  0
 12 15  1  0  0  0  0
 12 37  1  0  0  0  0
 12 38  1  0  0  0  0
 13 39  1  0  0  0  0
 13 40  1  0  0  0  0
 14 41  1  0  0  0  0
 14 42  1  0  0  0  0
 16 18  2  0  0  0  0
 16 20  1  0  0  0  0
 17 19  1  0  0  0  0
 17 21  2  0  0  0  0
 18 22  1  0  0  0  0
 19 24  2  0  0  0  0
 20 23  2  0  0  0  0
 20 43  1  0  0  0  0
 21 26  1  0  0  0  0
 21 44  1  0  0  0  0
 22 25  2  0  0  0  0
 22 45  1  0  0  0  0
 23 25  1  0  0  0  0
 24 27  1  0  0  0  0
 24 46  1  0  0  0  0
 25 47  1  0  0  0  0
 26 27  2  0  0  0  0
 26 48  1  0  0  0  0
 27 49  1  0  0  0  0
 29 30  1  0  0  0  0
 29 51  1  0  0  0  0
 29 52  1  0  0  0  0
 30 53  1  0  0  0  0
 30 54  1  0  0  0  0
 30 55  1  0  0  0  0
M  END
> <PUBCHEM_COMPOUND_CID>
34633

> <PUBCHEM_COMPOUND_CANONICALIZED>
1

> <PUBCHEM_CACTVS_COMPLEXITY>
601

> <PUBCHEM_CACTVS_HBOND_ACCEPTOR>
6

> <PUBCHEM_CACTVS_HBOND_DONOR>
1

> <PUBCHEM_CACTVS_ROTATABLE_BOND>
6

> <PUBCHEM_CACTVS_SUBSKEYS>
AAADceB7OABAAAAAAAAAAAAAAAAAAAAAAAA8eIEAAAAAAACxQAAAHgQQAAAACAjh0AYyyYPABAiIACVSWACCAAAhChAIiB0IZIkKIGrg0dGPIAhglAD4yAcQAAAAAAQAAAQAAQAACAAACAACAAAAAAAAAA==

> <PUBCHEM_IUPAC_OPENEYE_NAME>
ethyl N-[10-(3-morpholinopropanoyl)phenothiazin-2-yl]carbamate

> <PUBCHEM_IUPAC_CAS_NAME>
N-[10-[3-(4-morpholinyl)-1-oxopropyl]-2-phenothiazinyl]carbamic acid ethyl ester

> <PUBCHEM_IUPAC_NAME>
ethyl N-[10-(3-morpholin-4-ylpropanoyl)phenothiazin-2-yl]carbamate

> <PUBCHEM_IUPAC_SYSTEMATIC_NAME>
ethyl N-[10-(3-morpholin-4-ylpropanoyl)phenothiazin-2-yl]carbamate

> <PUBCHEM_IUPAC_TRADITIONAL_NAME>
N-[10-(3-morpholinopropanoyl)phenothiazin-2-yl]carbamic acid ethyl ester

> <PUBCHEM_IUPAC_INCHI>
InChI=1S/C22H25N3O4S/c1-2-29-22(27)23-16-7-8-20-18(15-16)25(17-5-3-4-6-19(17)30-20)21(26)9-10-24-11-13-28-14-12-24/h3-8,15H,2,9-14H2,1H3,(H,23,27)

> <PUBCHEM_IUPAC_INCHIKEY>
FUBVWMNBEHXPSU-UHFFFAOYSA-N

> <PUBCHEM_XLOGP3>
3

> <PUBCHEM_EXACT_MASS>
427.156577

> <PUBCHEM_MOLECULAR_FORMULA>
C22H25N3O4S

> <PUBCHEM_MOLECULAR_WEIGHT>
427.5166

> <PUBCHEM_OPENEYE_CAN_SMILES>
CCOC(=O)NC1=CC2=C(C=C1)SC3=CC=CC=C3N2C(=O)CCN4CCOCC4

> <PUBCHEM_OPENEYE_ISO_SMILES>
CCOC(=O)NC1=CC2=C(C=C1)SC3=CC=CC=C3N2C(=O)CCN4CCOCC4

> <PUBCHEM_CACTVS_TPSA>
96.4

> <PUBCHEM_MONOISOTOPIC_WEIGHT>
427.156577

> <PUBCHEM_TOTAL_CHARGE>
0

> <PUBCHEM_HEAVY_ATOM_COUNT>
30

> <PUBCHEM_ATOM_DEF_STEREO_COUNT>
0

> <PUBCHEM_ATOM_UDEF_STEREO_COUNT>
0

> <PUBCHEM_BOND_DEF_STEREO_COUNT>
0

> <PUBCHEM_BOND_UDEF_STEREO_COUNT>
0

> <PUBCHEM_ISOTOPIC_ATOM_COUNT>
0

> <PUBCHEM_COMPONENT_COUNT>
1

> <PUBCHEM_CACTVS_TAUTO_COUNT>
2

> <PUBCHEM_COORDINATE_TYPE>
1
5
255

> <PUBCHEM_BONDANNOTATIONS>
16  18  8
16  20  8
17  19  8
17  21  8
18  22  8
19  24  8
20  23  8
21  26  8
22  25  8
23  25  8
24  27  8
26  27  8

$$$$

