248583
  -OEChem-07051213062D

 46 48  0     1  0  0  0  0  0999 V2000
    6.3580    1.0176    0.0000 O   0  0  0  0  0  0  0  0  0  0  0  0
    4.5981   -2.0171    0.0000 O   0  0  0  0  0  0  0  0  0  0  0  0
    4.5981    1.9829    0.0000 O   0  0  0  0  0  0  0  0  0  0  0  0
    6.3465   -2.0517    0.0000 O   0  0  0  0  0  0  0  0  0  0  0  0
    2.8660   -1.0171    0.0000 O   0  0  0  0  0  0  0  0  0  0  0  0
    2.8660    0.9829    0.0000 O   0  0  0  0  0  0  0  0  0  0  0  0
   10.7205    2.5171    0.0000 O   0  0  0  0  0  0  0  0  0  0  0  0
    7.2641    0.5037    0.0000 C   0  0  3  0  0  0  0  0  0  0  0  0
    7.2641   -0.5379    0.0000 C   0  0  0  0  0  0  0  0  0  0  0  0
    5.4641   -0.5171    0.0000 C   0  0  0  0  0  0  0  0  0  0  0  0
    5.4641    0.4829    0.0000 C   0  0  0  0  0  0  0  0  0  0  0  0
    6.3580   -1.0517    0.0000 C   0  0  0  0  0  0  0  0  0  0  0  0
    8.1282    1.0071    0.0000 C   0  0  0  0  0  0  0  0  0  0  0  0
    4.5981   -1.0171    0.0000 C   0  0  0  0  0  0  0  0  0  0  0  0
    4.5981    0.9829    0.0000 C   0  0  0  0  0  0  0  0  0  0  0  0
    3.7320   -0.5171    0.0000 C   0  0  0  0  0  0  0  0  0  0  0  0
    3.7320    0.4829    0.0000 C   0  0  0  0  0  0  0  0  0  0  0  0
    8.9962    0.5104    0.0000 C   0  0  0  0  0  0  0  0  0  0  0  0
    8.1244    2.0071    0.0000 C   0  0  0  0  0  0  0  0  0  0  0  0
    9.8602    1.0138    0.0000 C   0  0  0  0  0  0  0  0  0  0  0  0
    8.9884    2.5104    0.0000 C   0  0  0  0  0  0  0  0  0  0  0  0
    9.8564    2.0137    0.0000 C   0  0  0  0  0  0  0  0  0  0  0  0
    3.7320   -2.5171    0.0000 C   0  0  0  0  0  0  0  0  0  0  0  0
    3.7320    2.4829    0.0000 C   0  0  0  0  0  0  0  0  0  0  0  0
    2.0000   -0.5171    0.0000 C   0  0  0  0  0  0  0  0  0  0  0  0
    2.0000    0.4829    0.0000 C   0  0  0  0  0  0  0  0  0  0  0  0
    7.2592    1.3537    0.0000 H   0  0  0  0  0  0  0  0  0  0  0  0
    7.4732   -1.1216    0.0000 H   0  0  0  0  0  0  0  0  0  0  0  0
    7.8750   -0.4318    0.0000 H   0  0  0  0  0  0  0  0  0  0  0  0
    8.9985   -0.1096    0.0000 H   0  0  0  0  0  0  0  0  0  0  0  0
    7.5862    2.3150    0.0000 H   0  0  0  0  0  0  0  0  0  0  0  0
   10.3984    0.7058    0.0000 H   0  0  0  0  0  0  0  0  0  0  0  0
    8.9860    3.1304    0.0000 H   0  0  0  0  0  0  0  0  0  0  0  0
    3.4220   -1.9801    0.0000 H   0  0  0  0  0  0  0  0  0  0  0  0
    3.1951   -2.8271    0.0000 H   0  0  0  0  0  0  0  0  0  0  0  0
    4.0420   -3.0540    0.0000 H   0  0  0  0  0  0  0  0  0  0  0  0
    4.0420    3.0199    0.0000 H   0  0  0  0  0  0  0  0  0  0  0  0
    3.1951    2.7929    0.0000 H   0  0  0  0  0  0  0  0  0  0  0  0
    3.4220    1.9460    0.0000 H   0  0  0  0  0  0  0  0  0  0  0  0
    2.3100    0.0199    0.0000 H   0  0  0  0  0  0  0  0  0  0  0  0
    1.4631   -0.2071    0.0000 H   0  0  0  0  0  0  0  0  0  0  0  0
    1.6900   -1.0540    0.0000 H   0  0  0  0  0  0  0  0  0  0  0  0
    1.6900    1.0199    0.0000 H   0  0  0  0  0  0  0  0  0  0  0  0
    1.4631    0.1729    0.0000 H   0  0  0  0  0  0  0  0  0  0  0  0
    2.3100   -0.0540    0.0000 H   0  0  0  0  0  0  0  0  0  0  0  0
   11.2586    2.2092    0.0000 H   0  0  0  0  0  0  0  0  0  0  0  0
  1  8  1  0  0  0  0
  1 11  1  0  0  0  0
  2 14  1  0  0  0  0
  2 23  1  0  0  0  0
  3 15  1  0  0  0  0
  3 24  1  0  0  0  0
  4 12  2  0  0  0  0
  5 16  1  0  0  0  0
  5 25  1  0  0  0  0
  6 17  1  0  0  0  0
  6 26  1  0  0  0  0
  7 22  1  0  0  0  0
  7 46  1  0  0  0  0
  8  9  1  0  0  0  0
  8 13  1  0  0  0  0
  8 27  1  0  0  0  0
  9 12  1  0  0  0  0
  9 28  1  0  0  0  0
  9 29  1  0  0  0  0
 10 11  2  0  0  0  0
 10 12  1  0  0  0  0
 10 14  1  0  0  0  0
 11 15  1  0  0  0  0
 13 18  2  0  0  0  0
 13 19  1  0  0  0  0
 14 16  2  0  0  0  0
 15 17  2  0  0  0  0
 16 17  1  0  0  0  0
 18 20  1  0  0  0  0
 18 30  1  0  0  0  0
 19 21  2  0  0  0  0
 19 31  1  0  0  0  0
 20 22  2  0  0  0  0
 20 32  1  0  0  0  0
 21 22  1  0  0  0  0
 21 33  1  0  0  0  0
 23 34  1  0  0  0  0
 23 35  1  0  0  0  0
 23 36  1  0  0  0  0
 24 37  1  0  0  0  0
 24 38  1  0  0  0  0
 24 39  1  0  0  0  0
 25 40  1  0  0  0  0
 25 41  1  0  0  0  0
 25 42  1  0  0  0  0
 26 43  1  0  0  0  0
 26 44  1  0  0  0  0
 26 45  1  0  0  0  0
M  END
> <PUBCHEM_COMPOUND_CID>
248583

> <PUBCHEM_COMPOUND_CANONICALIZED>
1

> <PUBCHEM_CACTVS_COMPLEXITY>
477

> <PUBCHEM_CACTVS_HBOND_ACCEPTOR>
7

> <PUBCHEM_CACTVS_HBOND_DONOR>
1

> <PUBCHEM_CACTVS_ROTATABLE_BOND>
5

> <PUBCHEM_CACTVS_SUBSKEYS>
AAADceB4OAAAAAAAAAAAAAAAAAAAAAAAAAA0YIAAAAAAAACRQAAAGgAACAAADBSgmAIyBoAABgCIAqBSAAACCAAkIAAIiAEGiMgNJzaGNRqCeWKl4BUKuQfK7PzOIQABCAAIQABCAAIQABCAAAAAAAAAAA==

> <PUBCHEM_IUPAC_OPENEYE_NAME>
2-(4-hydroxyphenyl)-5,6,7,8-tetramethoxy-chroman-4-one

> <PUBCHEM_IUPAC_CAS_NAME>
2-(4-hydroxyphenyl)-5,6,7,8-tetramethoxy-3,4-dihydro-2H-1-benzopyran-4-one

> <PUBCHEM_IUPAC_NAME>
2-(4-hydroxyphenyl)-5,6,7,8-tetramethoxy-2,3-dihydrochromen-4-one

> <PUBCHEM_IUPAC_SYSTEMATIC_NAME>
2-(4-hydroxyphenyl)-5,6,7,8-tetramethoxy-2,3-dihydrochromen-4-one

> <PUBCHEM_IUPAC_TRADITIONAL_NAME>
2-(4-hydroxyphenyl)-5,6,7,8-tetramethoxy-chroman-4-one

> <PUBCHEM_IUPAC_INCHI>
InChI=1S/C19H20O7/c1-22-15-14-12(21)9-13(10-5-7-11(20)8-6-10)26-16(14)18(24-3)19(25-4)17(15)23-2/h5-8,13,20H,9H2,1-4H3

> <PUBCHEM_IUPAC_INCHIKEY>
LLAJMCLDOPZLSR-UHFFFAOYSA-N

> <PUBCHEM_XLOGP3_AA>
2.4

> <PUBCHEM_EXACT_MASS>
360.120903

> <PUBCHEM_MOLECULAR_FORMULA>
C19H20O7

> <PUBCHEM_MOLECULAR_WEIGHT>
360.3579

> <PUBCHEM_OPENEYE_CAN_SMILES>
COC1=C(C(=C(C2=C1C(=O)CC(O2)C3=CC=C(C=C3)O)OC)OC)OC

> <PUBCHEM_OPENEYE_ISO_SMILES>
COC1=C(C(=C(C2=C1C(=O)CC(O2)C3=CC=C(C=C3)O)OC)OC)OC

> <PUBCHEM_CACTVS_TPSA>
83.4

> <PUBCHEM_MONOISOTOPIC_WEIGHT>
360.120903

> <PUBCHEM_TOTAL_CHARGE>
0

> <PUBCHEM_HEAVY_ATOM_COUNT>
26

> <PUBCHEM_ATOM_DEF_STEREO_COUNT>
0

> <PUBCHEM_ATOM_UDEF_STEREO_COUNT>
1

> <PUBCHEM_BOND_DEF_STEREO_COUNT>
0

> <PUBCHEM_BOND_UDEF_STEREO_COUNT>
0

> <PUBCHEM_ISOTOPIC_ATOM_COUNT>
0

> <PUBCHEM_COMPONENT_COUNT>
1

> <PUBCHEM_CACTVS_TAUTO_COUNT>
4

> <PUBCHEM_COORDINATE_TYPE>
1
5
255

> <PUBCHEM_BONDANNOTATIONS>
10  11  8
10  14  8
11  15  8
13  18  8
13  19  8
14  16  8
15  17  8
16  17  8
18  20  8
19  21  8
20  22  8
21  22  8
8  27  3

$$$$

