6437068
  -OEChem-07051213093D

 24 23  0     0  0  0  0  0  0999 V2000
    1.7220    1.7259   -0.5604 O   0  0  0  0  0  0  0  0  0  0  0  0
   -0.0728    2.7518    0.3726 O   0  0  0  0  0  0  0  0  0  0  0  0
    0.6898   -0.7947   -0.5487 C   0  0  0  0  0  0  0  0  0  0  0  0
    1.5827   -1.3795    0.5483 C   0  0  0  0  0  0  0  0  0  0  0  0
   -0.1275    0.3740   -0.0546 C   0  0  0  0  0  0  0  0  0  0  0  0
   -1.3778    0.2799    0.4387 C   0  0  0  0  0  0  0  0  0  0  0  0
   -2.2162   -0.9648    0.5312 C   0  0  0  0  0  0  0  0  0  0  0  0
    2.3801   -2.5695    0.0376 C   0  0  0  0  0  0  0  0  0  0  0  0
    0.4721    1.7396   -0.0414 C   0  0  0  0  0  0  0  0  0  0  0  0
   -3.0524   -1.1628   -0.7232 C   0  0  0  0  0  0  0  0  0  0  0  0
    0.0284   -1.5818   -0.9310 H   0  0  0  0  0  0  0  0  0  0  0  0
    1.2940   -0.5001   -1.4155 H   0  0  0  0  0  0  0  0  0  0  0  0
    2.2779   -0.6171    0.9190 H   0  0  0  0  0  0  0  0  0  0  0  0
    0.9725   -1.6991    1.4016 H   0  0  0  0  0  0  0  0  0  0  0  0
   -1.8913    1.1757    0.7841 H   0  0  0  0  0  0  0  0  0  0  0  0
   -2.8737   -0.8822    1.4045 H   0  0  0  0  0  0  0  0  0  0  0  0
   -1.5924   -1.8484    0.7040 H   0  0  0  0  0  0  0  0  0  0  0  0
    1.7157   -3.3689   -0.3059 H   0  0  0  0  0  0  0  0  0  0  0  0
    3.0120   -2.9727    0.8352 H   0  0  0  0  0  0  0  0  0  0  0  0
    3.0284   -2.2788   -0.7952 H   0  0  0  0  0  0  0  0  0  0  0  0
   -3.6717   -2.0602   -0.6253 H   0  0  0  0  0  0  0  0  0  0  0  0
   -3.7188   -0.3103   -0.8931 H   0  0  0  0  0  0  0  0  0  0  0  0
   -2.4219   -1.2839   -1.6104 H   0  0  0  0  0  0  0  0  0  0  0  0
    2.1299    2.6181   -0.5600 H   0  0  0  0  0  0  0  0  0  0  0  0
  1  9  1  0  0  0  0
  1 24  1  0  0  0  0
  2  9  2  0  0  0  0
  3  4  1  0  0  0  0
  3  5  1  0  0  0  0
  3 11  1  0  0  0  0
  3 12  1  0  0  0  0
  4  8  1  0  0  0  0
  4 13  1  0  0  0  0
  4 14  1  0  0  0  0
  5  6  2  0  0  0  0
  5  9  1  0  0  0  0
  6  7  1  0  0  0  0
  6 15  1  0  0  0  0
  7 10  1  0  0  0  0
  7 16  1  0  0  0  0
  7 17  1  0  0  0  0
  8 18  1  0  0  0  0
  8 19  1  0  0  0  0
  8 20  1  0  0  0  0
 10 21  1  0  0  0  0
 10 22  1  0  0  0  0
 10 23  1  0  0  0  0
M  END
> <PUBCHEM_COMPOUND_CID>
6437068

> <PUBCHEM_CONFORMER_RMSD>
0.6

> <PUBCHEM_CONFORMER_DIVERSEORDER>
2
30
10
5
28
22
19
16
27
25
23
17
12
24
21
26
29
7
18
15
14
20
11
1
8
3
4
13
6
9

> <PUBCHEM_MMFF94_PARTIAL_CHARGES>
9
1 -0.65
15 0.15
2 -0.57
24 0.5
3 0.14
5 -0.12
6 -0.29
7 0.14
9 0.71

> <PUBCHEM_EFFECTIVE_ROTOR_COUNT>
4

> <PUBCHEM_PHARMACOPHORE_FEATURES>
5
1 1 acceptor
1 10 hydrophobe
1 2 acceptor
1 8 hydrophobe
3 1 2 9 anion

> <PUBCHEM_HEAVY_ATOM_COUNT>
10

> <PUBCHEM_ATOM_DEF_STEREO_COUNT>
0

> <PUBCHEM_ATOM_UDEF_STEREO_COUNT>
0

> <PUBCHEM_BOND_DEF_STEREO_COUNT>
1

> <PUBCHEM_BOND_UDEF_STEREO_COUNT>
0

> <PUBCHEM_ISOTOPIC_ATOM_COUNT>
0

> <PUBCHEM_COMPONENT_COUNT>
1

> <PUBCHEM_CACTVS_TAUTO_COUNT>
1

> <PUBCHEM_CONFORMER_ID>
006238CC00000002

> <PUBCHEM_MMFF94_ENERGY>
6.8577

> <PUBCHEM_FEATURE_SELFOVERLAP>
25.431

> <PUBCHEM_SHAPE_FINGERPRINT>
1 1 18051416162775952343
19021347 11 18194684765368665839
20645477 70 18268440044917347855
20871998 184 17688582080038695411
21040471 1 17330550947680621069
23526114 1 18411135796954454447
23552423 10 18265045847804663151
23552449 1 17978514461762261090
528862 383 18198637531430135306
54338 74 17910680087338251090
81228 2 17980203311327106755

> <PUBCHEM_SHAPE_MULTIPOLES>
194.06
3.49
2.92
0.8
0.26
1.62
0.02
-3.39
0.2
-0.7
0.04
0.13
-0.12
-0.44

> <PUBCHEM_SHAPE_SELFOVERLAP>
361.758

> <PUBCHEM_SHAPE_VOLUME>
121.7

> <PUBCHEM_COORDINATE_TYPE>
2
5
10

$$$$

