9674
  -OEChem-06261203563D

 19 18  0     0  0  0  0  0  0999 V2000
    2.7757   -0.1079   -0.0015 F   0  0  0  0  0  0  0  0  0  0  0  0
    1.7762   -1.7149   -1.0724 F   0  0  0  0  0  0  0  0  0  0  0  0
    1.7374   -1.6752    1.1013 F   0  0  0  0  0  0  0  0  0  0  0  0
    1.9695    1.7730   -0.0013 F   0  0  0  0  0  0  0  0  0  0  0  0
    0.1061    2.0228   -1.0917 F   0  0  0  0  0  0  0  0  0  0  0  0
    0.1045    2.0215    1.0874 F   0  0  0  0  0  0  0  0  0  0  0  0
   -0.9207   -1.9621   -0.0055 F   0  0  0  0  0  0  0  0  0  0  0  0
   -1.9652    0.1575   -0.0052 O   0  0  0  0  0  0  0  0  0  0  0  0
    0.4092   -0.0565   -0.0029 C   0  0  0  0  0  0  0  0  0  0  0  0
    1.6624   -0.8865   -0.0025 C   0  0  0  0  0  0  0  0  0  0  0  0
    0.6570    1.4265   -0.0022 C   0  0  0  0  0  0  0  0  0  0  0  0
   -0.8179   -0.6113   -0.0044 C   0  0  0  0  0  0  0  0  0  0  0  0
   -3.1398   -0.6451   -0.0067 C   0  0  0  0  0  0  0  0  0  0  0  0
   -4.3544    0.2583    0.0076 C   0  0  0  0  0  0  0  0  0  0  0  0
   -3.1649   -1.2724   -0.9061 H   0  0  0  0  0  0  0  0  0  0  0  0
   -3.1576   -1.2880    0.8819 H   0  0  0  0  0  0  0  0  0  0  0  0
   -5.2779   -0.3276    0.0068 H   0  0  0  0  0  0  0  0  0  0  0  0
   -4.3455    0.9025    0.8930 H   0  0  0  0  0  0  0  0  0  0  0  0
   -4.3541    0.9185   -0.8661 H   0  0  0  0  0  0  0  0  0  0  0  0
  1 10  1  0  0  0  0
  2 10  1  0  0  0  0
  3 10  1  0  0  0  0
  4 11  1  0  0  0  0
  5 11  1  0  0  0  0
  6 11  1  0  0  0  0
  7 12  1  0  0  0  0
  8 12  1  0  0  0  0
  8 13  1  0  0  0  0
  9 10  1  0  0  0  0
  9 11  1  0  0  0  0
  9 12  2  0  0  0  0
 13 14  1  0  0  0  0
 13 15  1  0  0  0  0
 13 16  1  0  0  0  0
 14 17  1  0  0  0  0
 14 18  1  0  0  0  0
 14 19  1  0  0  0  0
M  END
> <PUBCHEM_COMPOUND_CID>
9674

> <PUBCHEM_CONFORMER_RMSD>
0.6

> <PUBCHEM_CONFORMER_DIVERSEORDER>
1
2
3

> <PUBCHEM_MMFF94_PARTIAL_CHARGES>
13
1 -0.34
10 1.16
11 1.16
12 0.23
13 0.28
2 -0.34
3 -0.34
4 -0.34
5 -0.34
6 -0.34
7 -0.15
8 -0.36
9 -0.28

> <PUBCHEM_EFFECTIVE_ROTOR_COUNT>
4

> <PUBCHEM_PHARMACOPHORE_FEATURES>
1
1 8 acceptor

> <PUBCHEM_HEAVY_ATOM_COUNT>
14

> <PUBCHEM_ATOM_DEF_STEREO_COUNT>
0

> <PUBCHEM_ATOM_UDEF_STEREO_COUNT>
0

> <PUBCHEM_BOND_DEF_STEREO_COUNT>
0

> <PUBCHEM_BOND_UDEF_STEREO_COUNT>
0

> <PUBCHEM_ISOTOPIC_ATOM_COUNT>
0

> <PUBCHEM_COMPONENT_COUNT>
1

> <PUBCHEM_CACTVS_TAUTO_COUNT>
1

> <PUBCHEM_CONFORMER_ID>
000025CA00000001

> <PUBCHEM_MMFF94_ENERGY>
11.784

> <PUBCHEM_FEATURE_SELFOVERLAP>
5.074

> <PUBCHEM_SHAPE_FINGERPRINT>
10130415 120 18271529805107007083
10219947 1 18187081788813379159
10980938 120 18336265656763009201
12932764 1 17846504733932153807
13380535 21 18196358226746229971
13380535 76 18194125118413991075
13922767 16 18409736179388440545
14325111 11 18338516340270286855
14344429 50 18342172271818993095
14648413 74 17985822632158190601
14993402 34 18334289881475594023
15775835 57 18189612757506926453
161256 15 18413393154529914068
16945 1 18262502733033169552
20511035 2 18121500141884432646
20606313 2 18408605877060965847
20645477 70 18409452466950430047
20653091 64 18412539886362015233
20871998 22 18263643046776690398
21040471 1 17401768523524946596
21501502 16 18194686964750831879
23552423 10 18126568920922633127
23559900 14 17827904141402475556
2748010 2 18122353629316748700
7364860 26 18188489064759495889

> <PUBCHEM_SHAPE_MULTIPOLES>
231.33
4.75
2.08
0.82
5.78
0.46
0
-0.51
0
-1.08
0.01
-0.24
0.04
0

> <PUBCHEM_SHAPE_SELFOVERLAP>
466.145

> <PUBCHEM_SHAPE_VOLUME>
136.9

> <PUBCHEM_COORDINATE_TYPE>
2
5
10

$$$$

