5261
  -OEChem-06261200362D

134133  0     1  0  0  0  0  0999 V2000
   14.9904   -0.2220    0.0000 P   0  0  3  0  0  0  0  0  0  0  0  0
   14.9904   -1.2220    0.0000 O   0  0  0  0  0  0  0  0  0  0  0  0
   14.9904    0.7780    0.0000 O   0  0  0  0  0  0  0  0  0  0  0  0
   14.9904    3.7780    0.0000 O   0  0  0  0  0  0  0  0  0  0  0  0
   17.5885    1.2780    0.0000 O   0  0  0  0  0  0  0  0  0  0  0  0
   13.9904   -0.2220    0.0000 O   0  0  0  0  0  0  0  0  0  0  0  0
   15.9904   -0.2220    0.0000 O   0  0  0  0  0  0  0  0  0  0  0  0
   13.2583   -3.2220    0.0000 N   0  3  0  0  0  0  0  0  0  0  0  0
   16.7224    2.7780    0.0000 N   0  0  0  0  0  0  0  0  0  0  0  0
   24.5167    2.2780    0.0000 C   0  0  0  0  0  0  0  0  0  0  0  0
   23.6506    2.7780    0.0000 C   0  0  0  0  0  0  0  0  0  0  0  0
   25.3827    2.7780    0.0000 C   0  0  0  0  0  0  0  0  0  0  0  0
   22.7846    2.2780    0.0000 C   0  0  0  0  0  0  0  0  0  0  0  0
   26.2487    2.2780    0.0000 C   0  0  0  0  0  0  0  0  0  0  0  0
   21.9186    2.7780    0.0000 C   0  0  0  0  0  0  0  0  0  0  0  0
   27.1147    2.7780    0.0000 C   0  0  0  0  0  0  0  0  0  0  0  0
   21.0526    2.2780    0.0000 C   0  0  0  0  0  0  0  0  0  0  0  0
   27.9808    2.2780    0.0000 C   0  0  0  0  0  0  0  0  0  0  0  0
   20.1865    2.7780    0.0000 C   0  0  0  0  0  0  0  0  0  0  0  0
   28.8468    2.7780    0.0000 C   0  0  0  0  0  0  0  0  0  0  0  0
    8.0622    2.7780    0.0000 C   0  0  0  0  0  0  0  0  0  0  0  0
    8.9282    2.2780    0.0000 C   0  0  0  0  0  0  0  0  0  0  0  0
    7.1962    2.2780    0.0000 C   0  0  0  0  0  0  0  0  0  0  0  0
    9.7942    2.7780    0.0000 C   0  0  0  0  0  0  0  0  0  0  0  0
    6.3301    2.7780    0.0000 C   0  0  0  0  0  0  0  0  0  0  0  0
   19.3205    2.2780    0.0000 C   0  0  0  0  0  0  0  0  0  0  0  0
   29.7128    2.2780    0.0000 C   0  0  0  0  0  0  0  0  0  0  0  0
   10.6603    2.2780    0.0000 C   0  0  0  0  0  0  0  0  0  0  0  0
    5.4641    2.2780    0.0000 C   0  0  0  0  0  0  0  0  0  0  0  0
   14.1244   -2.7220    0.0000 C   0  0  0  0  0  0  0  0  0  0  0  0
   15.8564    2.2780    0.0000 C   0  0  3  0  0  0  0  0  0  0  0  0
   11.5263    2.7780    0.0000 C   0  0  0  0  0  0  0  0  0  0  0  0
   18.4545    2.7780    0.0000 C   0  0  0  0  0  0  0  0  0  0  0  0
    4.5981    2.7780    0.0000 C   0  0  0  0  0  0  0  0  0  0  0  0
   30.5788    2.7780    0.0000 C   0  0  0  0  0  0  0  0  0  0  0  0
   14.9904    2.7780    0.0000 C   0  0  3  0  0  0  0  0  0  0  0  0
   12.3923   -3.7220    0.0000 C   0  0  0  0  0  0  0  0  0  0  0  0
   13.7583   -4.0880    0.0000 C   0  0  0  0  0  0  0  0  0  0  0  0
   12.7583   -2.3560    0.0000 C   0  0  0  0  0  0  0  0  0  0  0  0
   12.3923    2.2780    0.0000 C   0  0  0  0  0  0  0  0  0  0  0  0
   14.1244   -1.7220    0.0000 C   0  0  0  0  0  0  0  0  0  0  0  0
    3.7320    2.2780    0.0000 C   0  0  0  0  0  0  0  0  0  0  0  0
   15.8564    1.2780    0.0000 C   0  0  0  0  0  0  0  0  0  0  0  0
   17.5885    2.2780    0.0000 C   0  0  0  0  0  0  0  0  0  0  0  0
   31.4449    2.2780    0.0000 C   0  0  0  0  0  0  0  0  0  0  0  0
   14.1244    2.2780    0.0000 C   0  0  0  0  0  0  0  0  0  0  0  0
   13.2583    2.7780    0.0000 C   0  0  0  0  0  0  0  0  0  0  0  0
    2.8660    2.7780    0.0000 C   0  0  0  0  0  0  0  0  0  0  0  0
   32.3109    2.7780    0.0000 C   0  0  0  0  0  0  0  0  0  0  0  0
    2.0000    2.2780    0.0000 C   0  0  0  0  0  0  0  0  0  0  0  0
   24.1181    1.8031    0.0000 H   0  0  0  0  0  0  0  0  0  0  0  0
   24.9152    1.8031    0.0000 H   0  0  0  0  0  0  0  0  0  0  0  0
   24.0492    3.2530    0.0000 H   0  0  0  0  0  0  0  0  0  0  0  0
   23.2521    3.2530    0.0000 H   0  0  0  0  0  0  0  0  0  0  0  0
   25.7812    3.2530    0.0000 H   0  0  0  0  0  0  0  0  0  0  0  0
   24.9842    3.2530    0.0000 H   0  0  0  0  0  0  0  0  0  0  0  0
   22.3861    1.8031    0.0000 H   0  0  0  0  0  0  0  0  0  0  0  0
   23.1831    1.8031    0.0000 H   0  0  0  0  0  0  0  0  0  0  0  0
   25.8502    1.8031    0.0000 H   0  0  0  0  0  0  0  0  0  0  0  0
   26.6472    1.8031    0.0000 H   0  0  0  0  0  0  0  0  0  0  0  0
   22.3171    3.2530    0.0000 H   0  0  0  0  0  0  0  0  0  0  0  0
   21.5201    3.2530    0.0000 H   0  0  0  0  0  0  0  0  0  0  0  0
   27.5133    3.2530    0.0000 H   0  0  0  0  0  0  0  0  0  0  0  0
   26.7162    3.2530    0.0000 H   0  0  0  0  0  0  0  0  0  0  0  0
   20.6540    1.8031    0.0000 H   0  0  0  0  0  0  0  0  0  0  0  0
   21.4511    1.8031    0.0000 H   0  0  0  0  0  0  0  0  0  0  0  0
   27.5822    1.8031    0.0000 H   0  0  0  0  0  0  0  0  0  0  0  0
   28.3793    1.8031    0.0000 H   0  0  0  0  0  0  0  0  0  0  0  0
   20.5851    3.2530    0.0000 H   0  0  0  0  0  0  0  0  0  0  0  0
   19.7880    3.2530    0.0000 H   0  0  0  0  0  0  0  0  0  0  0  0
   29.2453    3.2530    0.0000 H   0  0  0  0  0  0  0  0  0  0  0  0
   28.4483    3.2530    0.0000 H   0  0  0  0  0  0  0  0  0  0  0  0
    8.4607    3.2530    0.0000 H   0  0  0  0  0  0  0  0  0  0  0  0
    7.6636    3.2530    0.0000 H   0  0  0  0  0  0  0  0  0  0  0  0
    8.5297    1.8031    0.0000 H   0  0  0  0  0  0  0  0  0  0  0  0
    9.3267    1.8031    0.0000 H   0  0  0  0  0  0  0  0  0  0  0  0
    6.7976    1.8031    0.0000 H   0  0  0  0  0  0  0  0  0  0  0  0
    7.5947    1.8031    0.0000 H   0  0  0  0  0  0  0  0  0  0  0  0
   10.1928    3.2530    0.0000 H   0  0  0  0  0  0  0  0  0  0  0  0
    9.3957    3.2530    0.0000 H   0  0  0  0  0  0  0  0  0  0  0  0
    6.7287    3.2530    0.0000 H   0  0  0  0  0  0  0  0  0  0  0  0
    5.9316    3.2530    0.0000 H   0  0  0  0  0  0  0  0  0  0  0  0
   18.9220    1.8031    0.0000 H   0  0  0  0  0  0  0  0  0  0  0  0
   19.7190    1.8031    0.0000 H   0  0  0  0  0  0  0  0  0  0  0  0
   29.3143    1.8031    0.0000 H   0  0  0  0  0  0  0  0  0  0  0  0
   30.1113    1.8031    0.0000 H   0  0  0  0  0  0  0  0  0  0  0  0
   10.2617    1.8031    0.0000 H   0  0  0  0  0  0  0  0  0  0  0  0
   11.0588    1.8031    0.0000 H   0  0  0  0  0  0  0  0  0  0  0  0
    5.0656    1.8031    0.0000 H   0  0  0  0  0  0  0  0  0  0  0  0
    5.8626    1.8031    0.0000 H   0  0  0  0  0  0  0  0  0  0  0  0
   14.3364   -3.3046    0.0000 H   0  0  0  0  0  0  0  0  0  0  0  0
   14.7349   -2.6143    0.0000 H   0  0  0  0  0  0  0  0  0  0  0  0
   16.5925    1.8530    0.0000 H   0  0  0  0  0  0  0  0  0  0  0  0
   11.9248    3.2530    0.0000 H   0  0  0  0  0  0  0  0  0  0  0  0
   11.1278    3.2530    0.0000 H   0  0  0  0  0  0  0  0  0  0  0  0
   18.8530    3.2530    0.0000 H   0  0  0  0  0  0  0  0  0  0  0  0
   18.0560    3.2530    0.0000 H   0  0  0  0  0  0  0  0  0  0  0  0
    4.9966    3.2530    0.0000 H   0  0  0  0  0  0  0  0  0  0  0  0
    4.1996    3.2530    0.0000 H   0  0  0  0  0  0  0  0  0  0  0  0
   30.9774    3.2530    0.0000 H   0  0  0  0  0  0  0  0  0  0  0  0
   30.1803    3.2530    0.0000 H   0  0  0  0  0  0  0  0  0  0  0  0
   15.7265    3.2030    0.0000 H   0  0  0  0  0  0  0  0  0  0  0  0
   12.0823   -3.1850    0.0000 H   0  0  0  0  0  0  0  0  0  0  0  0
   13.2214   -4.3980    0.0000 H   0  0  0  0  0  0  0  0  0  0  0  0
   14.0683   -4.6250    0.0000 H   0  0  0  0  0  0  0  0  0  0  0  0
   13.2953   -2.0460    0.0000 H   0  0  0  0  0  0  0  0  0  0  0  0
   12.4483   -1.8190    0.0000 H   0  0  0  0  0  0  0  0  0  0  0  0
   12.2214   -2.6660    0.0000 H   0  0  0  0  0  0  0  0  0  0  0  0
   14.2953   -3.7780    0.0000 H   0  0  0  0  0  0  0  0  0  0  0  0
   11.8554   -4.0320    0.0000 H   0  0  0  0  0  0  0  0  0  0  0  0
   12.7023   -4.2589    0.0000 H   0  0  0  0  0  0  0  0  0  0  0  0
   11.9938    1.8031    0.0000 H   0  0  0  0  0  0  0  0  0  0  0  0
   12.7908    1.8031    0.0000 H   0  0  0  0  0  0  0  0  0  0  0  0
   13.9123   -1.1394    0.0000 H   0  0  0  0  0  0  0  0  0  0  0  0
   13.5138   -1.8296    0.0000 H   0  0  0  0  0  0  0  0  0  0  0  0
    3.3335    1.8031    0.0000 H   0  0  0  0  0  0  0  0  0  0  0  0
    4.1306    1.8031    0.0000 H   0  0  0  0  0  0  0  0  0  0  0  0
   16.7224    3.3980    0.0000 H   0  0  0  0  0  0  0  0  0  0  0  0
   16.0685    0.6954    0.0000 H   0  0  0  0  0  0  0  0  0  0  0  0
   16.4670    1.3857    0.0000 H   0  0  0  0  0  0  0  0  0  0  0  0
   31.0463    1.8031    0.0000 H   0  0  0  0  0  0  0  0  0  0  0  0
   31.8434    1.8031    0.0000 H   0  0  0  0  0  0  0  0  0  0  0  0
   14.1244    1.6580    0.0000 H   0  0  0  0  0  0  0  0  0  0  0  0
   13.2583    3.3980    0.0000 H   0  0  0  0  0  0  0  0  0  0  0  0
    3.2646    3.2530    0.0000 H   0  0  0  0  0  0  0  0  0  0  0  0
    2.4675    3.2530    0.0000 H   0  0  0  0  0  0  0  0  0  0  0  0
   32.6209    2.2411    0.0000 H   0  0  0  0  0  0  0  0  0  0  0  0
   32.8478    3.0880    0.0000 H   0  0  0  0  0  0  0  0  0  0  0  0
   32.0009    3.3150    0.0000 H   0  0  0  0  0  0  0  0  0  0  0  0
    1.6900    2.8150    0.0000 H   0  0  0  0  0  0  0  0  0  0  0  0
    1.4631    1.9680    0.0000 H   0  0  0  0  0  0  0  0  0  0  0  0
    2.3100    1.7411    0.0000 H   0  0  0  0  0  0  0  0  0  0  0  0
   14.4534    4.0880    0.0000 H   0  0  0  0  0  0  0  0  0  0  0  0
   13.6804   -0.7589    0.0000 H   0  0  0  0  0  0  0  0  0  0  0  0
  1  2  1  0  0  0  0
  1  3  1  0  0  0  0
  1  6  1  0  0  0  0
  1  7  2  0  0  0  0
  2 41  1  0  0  0  0
  3 43  1  0  0  0  0
  4 36  1  0  0  0  0
  4133  1  0  0  0  0
  5 44  2  0  0  0  0
  6134  1  0  0  0  0
  8 30  1  0  0  0  0
  8 37  1  0  0  0  0
  8 38  1  0  0  0  0
  8 39  1  0  0  0  0
  9 31  1  0  0  0  0
  9 44  1  0  0  0  0
  9118  1  0  0  0  0
 10 11  1  0  0  0  0
 10 12  1  0  0  0  0
 10 51  1  0  0  0  0
 10 52  1  0  0  0  0
 11 13  1  0  0  0  0
 11 53  1  0  0  0  0
 11 54  1  0  0  0  0
 12 14  1  0  0  0  0
 12 55  1  0  0  0  0
 12 56  1  0  0  0  0
 13 15  1  0  0  0  0
 13 57  1  0  0  0  0
 13 58  1  0  0  0  0
 14 16  1  0  0  0  0
 14 59  1  0  0  0  0
 14 60  1  0  0  0  0
 15 17  1  0  0  0  0
 15 61  1  0  0  0  0
 15 62  1  0  0  0  0
 16 18  1  0  0  0  0
 16 63  1  0  0  0  0
 16 64  1  0  0  0  0
 17 19  1  0  0  0  0
 17 65  1  0  0  0  0
 17 66  1  0  0  0  0
 18 20  1  0  0  0  0
 18 67  1  0  0  0  0
 18 68  1  0  0  0  0
 19 26  1  0  0  0  0
 19 69  1  0  0  0  0
 19 70  1  0  0  0  0
 20 27  1  0  0  0  0
 20 71  1  0  0  0  0
 20 72  1  0  0  0  0
 21 22  1  0  0  0  0
 21 23  1  0  0  0  0
 21 73  1  0  0  0  0
 21 74  1  0  0  0  0
 22 24  1  0  0  0  0
 22 75  1  0  0  0  0
 22 76  1  0  0  0  0
 23 25  1  0  0  0  0
 23 77  1  0  0  0  0
 23 78  1  0  0  0  0
 24 28  1  0  0  0  0
 24 79  1  0  0  0  0
 24 80  1  0  0  0  0
 25 29  1  0  0  0  0
 25 81  1  0  0  0  0
 25 82  1  0  0  0  0
 26 33  1  0  0  0  0
 26 83  1  0  0  0  0
 26 84  1  0  0  0  0
 27 35  1  0  0  0  0
 27 85  1  0  0  0  0
 27 86  1  0  0  0  0
 28 32  1  0  0  0  0
 28 87  1  0  0  0  0
 28 88  1  0  0  0  0
 29 34  1  0  0  0  0
 29 89  1  0  0  0  0
 29 90  1  0  0  0  0
 30 41  1  0  0  0  0
 30 91  1  0  0  0  0
 30 92  1  0  0  0  0
 31 36  1  0  0  0  0
 31 43  1  0  0  0  0
 31 93  1  0  0  0  0
 32 40  1  0  0  0  0
 32 94  1  0  0  0  0
 32 95  1  0  0  0  0
 33 44  1  0  0  0  0
 33 96  1  0  0  0  0
 33 97  1  0  0  0  0
 34 42  1  0  0  0  0
 34 98  1  0  0  0  0
 34 99  1  0  0  0  0
 35 45  1  0  0  0  0
 35100  1  0  0  0  0
 35101  1  0  0  0  0
 36 46  1  0  0  0  0
 36102  1  0  0  0  0
 37103  1  0  0  0  0
 37110  1  0  0  0  0
 37111  1  0  0  0  0
 38104  1  0  0  0  0
 38105  1  0  0  0  0
 38109  1  0  0  0  0
 39106  1  0  0  0  0
 39107  1  0  0  0  0
 39108  1  0  0  0  0
 40 47  1  0  0  0  0
 40112  1  0  0  0  0
 40113  1  0  0  0  0
 41114  1  0  0  0  0
 41115  1  0  0  0  0
 42 48  1  0  0  0  0
 42116  1  0  0  0  0
 42117  1  0  0  0  0
 43119  1  0  0  0  0
 43120  1  0  0  0  0
 45 49  1  0  0  0  0
 45121  1  0  0  0  0
 45122  1  0  0  0  0
 46 47  2  3  0  0  0
 46123  1  0  0  0  0
 47124  1  0  0  0  0
 48 50  1  0  0  0  0
 48125  1  0  0  0  0
 48126  1  0  0  0  0
 49127  1  0  0  0  0
 49128  1  0  0  0  0
 49129  1  0  0  0  0
 50130  1  0  0  0  0
 50131  1  0  0  0  0
 50132  1  0  0  0  0
M  CHG  1   8   1
M  END
> <PUBCHEM_COMPOUND_CID>
5261

> <PUBCHEM_COMPOUND_CANONICALIZED>
1

> <PUBCHEM_CACTVS_COMPLEXITY>
834

> <PUBCHEM_CACTVS_HBOND_ACCEPTOR>
6

> <PUBCHEM_CACTVS_HBOND_DONOR>
3

> <PUBCHEM_CACTVS_ROTATABLE_BOND>
38

> <PUBCHEM_CACTVS_SUBSKEYS>
AAADcfB/OAIAAAAAAAAAAAAAAAAAAAAAAAAAAAAAAAAAAAAAAAAAHgAQCCAACDzhgAYCAAPAAxCIQCFSEIAAAAAgAAAICIEIAAgCFBIAgQAEUAAFlgCYEAMYiICAAAAAAAAAAAAAAAAAAAAAAAAAAAAAAA==

> <PUBCHEM_IUPAC_OPENEYE_NAME>
2-[hydroxy-[3-hydroxy-2-(octadecanoylamino)octadec-4-enoxy]phosphoryl]oxyethyl-trimethyl-ammonium

> <PUBCHEM_IUPAC_CAS_NAME>
2-[hydroxy-[3-hydroxy-2-(1-oxooctadecylamino)octadec-4-enoxy]phosphoryl]oxyethyl-trimethylammonium

> <PUBCHEM_IUPAC_NAME>
2-[hydroxy-[3-hydroxy-2-(octadecanoylamino)octadec-4-enoxy]phosphoryl]oxyethyl-trimethylazanium

> <PUBCHEM_IUPAC_SYSTEMATIC_NAME>
trimethyl-[2-[[2-(octadecanoylamino)-3-oxidanyl-octadec-4-enoxy]-oxidanyl-phosphoryl]oxyethyl]azanium

> <PUBCHEM_IUPAC_TRADITIONAL_NAME>
2-[hydroxy-(3-hydroxy-2-stearamido-octadec-4-enoxy)phosphoryl]oxyethyl-trimethyl-ammonium

> <PUBCHEM_IUPAC_INCHI>
InChI=1S/C41H83N2O6P/c1-6-8-10-12-14-16-18-20-21-23-25-27-29-31-33-35-41(45)42-39(38-49-50(46,47)48-37-36-43(3,4)5)40(44)34-32-30-28-26-24-22-19-17-15-13-11-9-7-2/h32,34,39-40,44H,6-31,33,35-38H2,1-5H3,(H-,42,45,46,47)/p+1

> <PUBCHEM_IUPAC_INCHIKEY>
LKQLRGMMMAHREN-UHFFFAOYSA-O

> <PUBCHEM_XLOGP3_AA>
13.4

> <PUBCHEM_EXACT_MASS>
731.6067

> <PUBCHEM_MOLECULAR_FORMULA>
C41H84N2O6P+

> <PUBCHEM_MOLECULAR_WEIGHT>
732.089222

> <PUBCHEM_OPENEYE_CAN_SMILES>
CCCCCCCCCCCCCCCCCC(=O)NC(COP(=O)(O)OCC[N+](C)(C)C)C(C=CCCCCCCCCCCCCC)O

> <PUBCHEM_OPENEYE_ISO_SMILES>
CCCCCCCCCCCCCCCCCC(=O)NC(COP(=O)(O)OCC[N+](C)(C)C)C(C=CCCCCCCCCCCCCC)O

> <PUBCHEM_CACTVS_TPSA>
105

> <PUBCHEM_MONOISOTOPIC_WEIGHT>
731.6067

> <PUBCHEM_TOTAL_CHARGE>
1

> <PUBCHEM_HEAVY_ATOM_COUNT>
50

> <PUBCHEM_ATOM_DEF_STEREO_COUNT>
0

> <PUBCHEM_ATOM_UDEF_STEREO_COUNT>
2

> <PUBCHEM_BOND_DEF_STEREO_COUNT>
0

> <PUBCHEM_BOND_UDEF_STEREO_COUNT>
1

> <PUBCHEM_ISOTOPIC_ATOM_COUNT>
0

> <PUBCHEM_COMPONENT_COUNT>
1

> <PUBCHEM_CACTVS_TAUTO_COUNT>
2

> <PUBCHEM_COORDINATE_TYPE>
1
5
255

> <PUBCHEM_BONDANNOTATIONS>
31  93  3
36  102  3
46  47  1

$$$$

