17396625
  -OEChem-06241222573D

 46 47  0     0  0  0  0  0  0999 V2000
   -0.0704   -0.8090   -0.0273 O   0  0  0  0  0  0  0  0  0  0  0  0
   -3.9561   -2.3899   -0.6033 O   0  0  0  0  0  0  0  0  0  0  0  0
   -5.8350   -1.7883    0.5827 O   0  0  0  0  0  0  0  0  0  0  0  0
    2.5057   -0.0716   -0.0652 N   0  0  0  0  0  0  0  0  0  0  0  0
   -0.8401    1.4135    0.0190 N   0  0  0  0  0  0  0  0  0  0  0  0
    4.7653   -0.9318   -0.1385 C   0  0  0  0  0  0  0  0  0  0  0  0
    3.8759    0.1422   -0.1020 C   0  0  0  0  0  0  0  0  0  0  0  0
    4.2731   -2.3425   -0.1401 C   0  0  0  0  0  0  0  0  0  0  0  0
    1.5296    0.9876   -0.0256 C   0  0  0  0  0  0  0  0  0  0  0  0
   -2.2303    1.2754    0.0411 C   0  0  0  0  0  0  0  0  0  0  0  0
   -3.0596    2.3967    0.0658 C   0  0  0  0  0  0  0  0  0  0  0  0
    6.1400   -0.6982   -0.1742 C   0  0  0  0  0  0  0  0  0  0  0  0
    4.3613    1.4499   -0.1014 C   0  0  0  0  0  0  0  0  0  0  0  0
    0.1313    0.4010   -0.0080 C   0  0  0  0  0  0  0  0  0  0  0  0
   -2.7868   -0.0037    0.0376 C   0  0  0  0  0  0  0  0  0  0  0  0
   -4.1727   -0.1615    0.0585 C   0  0  0  0  0  0  0  0  0  0  0  0
    4.1220   -2.9036    1.2703 C   0  0  0  0  0  0  0  0  0  0  0  0
   -4.4455    2.2388    0.0869 C   0  0  0  0  0  0  0  0  0  0  0  0
    6.6254    0.6096   -0.1736 C   0  0  0  0  0  0  0  0  0  0  0  0
    5.7361    1.6835   -0.1374 C   0  0  0  0  0  0  0  0  0  0  0  0
   -5.0020    0.9597    0.0830 C   0  0  0  0  0  0  0  0  0  0  0  0
   -2.4910    3.7785    0.0706 C   0  0  0  0  0  0  0  0  0  0  0  0
   -4.7535   -1.4946    0.0561 C   0  0  0  0  0  0  0  0  0  0  0  0
   -4.4226   -3.7416   -0.6750 C   0  0  0  0  0  0  0  0  0  0  0  0
    4.9899   -2.9716   -0.6855 H   0  0  0  0  0  0  0  0  0  0  0  0
    3.3403   -2.4545   -0.7033 H   0  0  0  0  0  0  0  0  0  0  0  0
    1.6126    1.6269   -0.9125 H   0  0  0  0  0  0  0  0  0  0  0  0
    1.6507    1.5951    0.8790 H   0  0  0  0  0  0  0  0  0  0  0  0
    2.1645   -1.0186    0.0399 H   0  0  0  0  0  0  0  0  0  0  0  0
    6.8454   -1.5247   -0.2003 H   0  0  0  0  0  0  0  0  0  0  0  0
    3.7075    2.3165   -0.0731 H   0  0  0  0  0  0  0  0  0  0  0  0
   -0.4863    2.3663    0.0247 H   0  0  0  0  0  0  0  0  0  0  0  0
   -2.1907   -0.9032    0.0414 H   0  0  0  0  0  0  0  0  0  0  0  0
    3.3884   -2.3327    1.8493 H   0  0  0  0  0  0  0  0  0  0  0  0
    3.7851   -3.9442    1.2282 H   0  0  0  0  0  0  0  0  0  0  0  0
    5.0731   -2.8770    1.8129 H   0  0  0  0  0  0  0  0  0  0  0  0
   -5.1064    3.1014    0.1056 H   0  0  0  0  0  0  0  0  0  0  0  0
    7.6958    0.7916   -0.2007 H   0  0  0  0  0  0  0  0  0  0  0  0
    6.1147    2.7015   -0.1367 H   0  0  0  0  0  0  0  0  0  0  0  0
   -6.0837    0.8545    0.0968 H   0  0  0  0  0  0  0  0  0  0  0  0
   -1.8678    3.9359    0.9572 H   0  0  0  0  0  0  0  0  0  0  0  0
   -1.8963    3.9539   -0.8320 H   0  0  0  0  0  0  0  0  0  0  0  0
   -3.2778    4.5408    0.0909 H   0  0  0  0  0  0  0  0  0  0  0  0
   -4.5242   -4.1590    0.3311 H   0  0  0  0  0  0  0  0  0  0  0  0
   -5.3764   -3.7833   -1.2091 H   0  0  0  0  0  0  0  0  0  0  0  0
   -3.6834   -4.3280   -1.2269 H   0  0  0  0  0  0  0  0  0  0  0  0
  1 14  2  0  0  0  0
  2 23  1  0  0  0  0
  2 24  1  0  0  0  0
  3 23  2  0  0  0  0
  4  7  1  0  0  0  0
  4  9  1  0  0  0  0
  4 29  1  0  0  0  0
  5 10  1  0  0  0  0
  5 14  1  0  0  0  0
  5 32  1  0  0  0  0
  6  7  1  0  0  0  0
  6  8  1  0  0  0  0
  6 12  2  0  0  0  0
  7 13  2  0  0  0  0
  8 17  1  0  0  0  0
  8 25  1  0  0  0  0
  8 26  1  0  0  0  0
  9 14  1  0  0  0  0
  9 27  1  0  0  0  0
  9 28  1  0  0  0  0
 10 11  2  0  0  0  0
 10 15  1  0  0  0  0
 11 18  1  0  0  0  0
 11 22  1  0  0  0  0
 12 19  1  0  0  0  0
 12 30  1  0  0  0  0
 13 20  1  0  0  0  0
 13 31  1  0  0  0  0
 15 16  2  0  0  0  0
 15 33  1  0  0  0  0
 16 21  1  0  0  0  0
 16 23  1  0  0  0  0
 17 34  1  0  0  0  0
 17 35  1  0  0  0  0
 17 36  1  0  0  0  0
 18 21  2  0  0  0  0
 18 37  1  0  0  0  0
 19 20  2  0  0  0  0
 19 38  1  0  0  0  0
 20 39  1  0  0  0  0
 21 40  1  0  0  0  0
 22 41  1  0  0  0  0
 22 42  1  0  0  0  0
 22 43  1  0  0  0  0
 24 44  1  0  0  0  0
 24 45  1  0  0  0  0
 24 46  1  0  0  0  0
M  END
> <PUBCHEM_COMPOUND_CID>
17396625

> <PUBCHEM_CONFORMER_RMSD>
1

> <PUBCHEM_CONFORMER_DIVERSEORDER>
1
12
93
102
29
100
51
77
86
69
97
46
41
75
94
85
65
88
37
28
71
89
63
39
90
55
6
44
25
104
26
42
98
54
95
79
84
87
2
10
45
21
103
31
70
4
38
72
43
14
11
5
80
83
20
23
35
96
78
62
101
64
8
34
59
13
19
22
76
61
3
73
24
67
40
57
99
16
36
53
7
15
9
66
91
48
60
52
18
56
27
92
49
17
30
82
47
74
33
81
32
50
58
68

> <PUBCHEM_MMFF94_PARTIAL_CHARGES>
32
1 -0.57
10 0.12
11 -0.14
12 -0.15
13 -0.15
14 0.57
15 -0.15
16 0.09
18 -0.15
19 -0.15
2 -0.43
20 -0.15
21 -0.15
22 0.14
23 0.63
24 0.28
29 0.4
3 -0.57
30 0.15
31 0.15
32 0.37
33 0.15
37 0.15
38 0.15
39 0.15
4 -0.87
40 0.15
5 -0.55
6 -0.14
7 0.1
8 0.14
9 0.43

> <PUBCHEM_EFFECTIVE_ROTOR_COUNT>
8

> <PUBCHEM_PHARMACOPHORE_FEATURES>
8
1 1 acceptor
1 17 hydrophobe
1 3 acceptor
1 4 cation
1 4 donor
1 5 donor
6 10 11 15 16 18 21 rings
6 6 7 12 13 19 20 rings

> <PUBCHEM_HEAVY_ATOM_COUNT>
24

> <PUBCHEM_ATOM_DEF_STEREO_COUNT>
0

> <PUBCHEM_ATOM_UDEF_STEREO_COUNT>
0

> <PUBCHEM_BOND_DEF_STEREO_COUNT>
0

> <PUBCHEM_BOND_UDEF_STEREO_COUNT>
0

> <PUBCHEM_ISOTOPIC_ATOM_COUNT>
0

> <PUBCHEM_COMPONENT_COUNT>
1

> <PUBCHEM_CACTVS_TAUTO_COUNT>
2

> <PUBCHEM_CONFORMER_ID>
0109739100000001

> <PUBCHEM_MMFF94_ENERGY>
81.2513

> <PUBCHEM_FEATURE_SELFOVERLAP>
40.594

> <PUBCHEM_SHAPE_FINGERPRINT>
10411042 1 18121218685090092959
10462674 296 17251466383763429790
10595046 47 18413106169569124328
11135609 149 16198767907038602042
11524674 6 16732700537226533631
11796584 16 18261672679190256070
12107183 9 17691970783876918864
13073987 5 18411701015098981408
13167823 11 18339926012550010346
13631057 29 18335141943026383211
14251732 16 18409166572225427200
14341114 176 18338792411556147196
14347332 77 18412548708372553459
14461889 52 18336271142090244704
14844126 61 18411133624624201427
15183329 4 18340769338021223248
15196674 1 18411136969749479912
15250474 111 18341061803688005778
15803439 3 17911274842590208527
16087824 20 18411418454640939029
17492 89 18336826519594998542
17844677 252 18410285934986518388
17857418 61 18412829100917538650
18927931 339 18410567375824595327
21236236 1 18409446981907485929
220451 1 18341040908792884064
23402539 116 18342176656970189285
23559900 14 18336555936660774833
239999 70 18261386793989027550
3004659 81 18340766065883709090
335352 9 18409732838579260749
4073 2 18201993322743954690
4214541 1 18410292553198799164
497634 4 18341895225001459909
5104073 3 18334296512994744424
6431902 208 18269273478419377827
7495541 125 17967535640822732472
7970288 3 18049726222628043719

> <PUBCHEM_SHAPE_MULTIPOLES>
466.34
17.46
3.85
0.72
11.76
1.34
-0.07
4.12
0.21
-4.49
0.02
0.15
0.31
-1.25

> <PUBCHEM_SHAPE_SELFOVERLAP>
981.505

> <PUBCHEM_SHAPE_VOLUME>
262.7

> <PUBCHEM_COORDINATE_TYPE>
2
5
10

$$$$

