169732
  -OEChem-07051213093D

 22 21  0     0  0  0  0  0  0999 V2000
    4.4490    0.5262    0.0207 O   0  0  0  0  0  0  0  0  0  0  0  0
    3.3046   -1.4344   -0.0095 O   0  0  0  0  0  0  0  0  0  0  0  0
   -4.3881   -1.1442   -0.0091 O   0  0  0  0  0  0  0  0  0  0  0  0
   -0.4622    0.7966   -0.0014 C   0  0  0  0  0  0  0  0  0  0  0  0
    0.7698   -0.1144    0.0233 C   0  0  0  0  0  0  0  0  0  0  0  0
   -1.7562   -0.0235    0.0288 C   0  0  0  0  0  0  0  0  0  0  0  0
    2.0801    0.6720   -0.0281 C   0  0  0  0  0  0  0  0  0  0  0  0
   -3.0039    0.8542   -0.0172 C   0  0  0  0  0  0  0  0  0  0  0  0
    3.3078   -0.2114   -0.0124 C   0  0  0  0  0  0  0  0  0  0  0  0
   -4.3008    0.0789    0.0049 C   0  0  0  0  0  0  0  0  0  0  0  0
   -0.4358    1.4753    0.8594 H   0  0  0  0  0  0  0  0  0  0  0  0
   -0.4418    1.4167   -0.9056 H   0  0  0  0  0  0  0  0  0  0  0  0
    0.7513   -0.7325    0.9297 H   0  0  0  0  0  0  0  0  0  0  0  0
    0.7296   -0.8074   -0.8266 H   0  0  0  0  0  0  0  0  0  0  0  0
   -1.7786   -0.6415    0.9353 H   0  0  0  0  0  0  0  0  0  0  0  0
   -1.7697   -0.7176   -0.8210 H   0  0  0  0  0  0  0  0  0  0  0  0
    2.1122    1.2742   -0.9429 H   0  0  0  0  0  0  0  0  0  0  0  0
    2.1353    1.3417    0.8376 H   0  0  0  0  0  0  0  0  0  0  0  0
   -3.0050    1.4650   -0.9266 H   0  0  0  0  0  0  0  0  0  0  0  0
   -3.0165    1.5316    0.8439 H   0  0  0  0  0  0  0  0  0  0  0  0
   -5.2120    0.7016    0.0220 H   0  0  0  0  0  0  0  0  0  0  0  0
    5.2495   -0.0404    0.0407 H   0  0  0  0  0  0  0  0  0  0  0  0
  1  9  1  0  0  0  0
  1 22  1  0  0  0  0
  2  9  2  0  0  0  0
  3 10  2  0  0  0  0
  4  5  1  0  0  0  0
  4  6  1  0  0  0  0
  4 11  1  0  0  0  0
  4 12  1  0  0  0  0
  5  7  1  0  0  0  0
  5 13  1  0  0  0  0
  5 14  1  0  0  0  0
  6  8  1  0  0  0  0
  6 15  1  0  0  0  0
  6 16  1  0  0  0  0
  7  9  1  0  0  0  0
  7 17  1  0  0  0  0
  7 18  1  0  0  0  0
  8 10  1  0  0  0  0
  8 19  1  0  0  0  0
  8 20  1  0  0  0  0
 10 21  1  0  0  0  0
M  END
> <PUBCHEM_COMPOUND_CID>
169732

> <PUBCHEM_CONFORMER_RMSD>
0.6

> <PUBCHEM_CONFORMER_DIVERSEORDER>
1
50
108
21
83
109
54
100
119
99
2
3
106
87
4
17
10
86
107
120
15
121
23
115
9
95
59
33
112
123
28
122
25
92
81
102
5
35
96
49
94
91
18
104
44
31
76
24
53
90
45
43
12
65
101
111
26
78
117
27
19
97
113
13
29
89
116
16
36
77
46
93
84
38
14
67
98
39
103
105
30
69
72
20
37
8
118
62
32
88
61
51
47
68
40
7
55
60
85
110
80
73
71
6
114
48
74
58
66
57
82
42
56
41
34
75
11
70
52
22
64
79
63

> <PUBCHEM_MMFF94_PARTIAL_CHARGES>
9
1 -0.65
10 0.45
2 -0.57
21 0.06
22 0.5
3 -0.57
7 0.06
8 0.06
9 0.66

> <PUBCHEM_EFFECTIVE_ROTOR_COUNT>
6

> <PUBCHEM_PHARMACOPHORE_FEATURES>
5
1 1 acceptor
1 2 acceptor
1 3 acceptor
3 1 2 9 anion
5 4 5 6 7 8 hydrophobe

> <PUBCHEM_HEAVY_ATOM_COUNT>
10

> <PUBCHEM_ATOM_DEF_STEREO_COUNT>
0

> <PUBCHEM_ATOM_UDEF_STEREO_COUNT>
0

> <PUBCHEM_BOND_DEF_STEREO_COUNT>
0

> <PUBCHEM_BOND_UDEF_STEREO_COUNT>
0

> <PUBCHEM_ISOTOPIC_ATOM_COUNT>
0

> <PUBCHEM_COMPONENT_COUNT>
1

> <PUBCHEM_CACTVS_TAUTO_COUNT>
2

> <PUBCHEM_CONFORMER_ID>
0002970400000001

> <PUBCHEM_MMFF94_ENERGY>
2.7322

> <PUBCHEM_FEATURE_SELFOVERLAP>
25.43

> <PUBCHEM_SHAPE_FINGERPRINT>
11062470 55 18334857229459624000
11987891 38 18410291423780389515
12932764 1 16805901670042747216
14123238 8 18409730646885072340
14252887 29 17531238474654020094
14325111 11 18410855490214155296
177051 138 18408602586694036886
17834072 33 18340765940596694580
17834074 16 18413105052587646083
18342897 14 17240480316859169569
190213 19 18342177777945869981
20279233 1 17703783730578456162
20645477 70 18339924930466567870
20719005 15 18410573980877608832
20828058 21 17676202485358541244
21119208 17 12031789166888956992
22485316 2 18411703201031535127
23402539 116 17775293767630683189
42 15 18408040736157245781

> <PUBCHEM_SHAPE_MULTIPOLES>
188.19
9.59
1.07
0.59
1.4
0.21
0
1.65
-0.02
-0.02
-0.01
0.04
-0.02
0

> <PUBCHEM_SHAPE_SELFOVERLAP>
344.98

> <PUBCHEM_SHAPE_VOLUME>
118.4

> <PUBCHEM_COORDINATE_TYPE>
2
5
10

$$$$

