155011
  -OEChem-07051213103D

 38 40  0     0  0  0  0  0  0999 V2000
   -2.6650    2.3040    0.2696 O   0  0  0  0  0  0  0  0  0  0  0  0
   -0.1192    2.2158    0.2981 O   0  0  0  0  0  0  0  0  0  0  0  0
   -0.1126   -3.1074   -0.1740 O   0  0  0  0  0  0  0  0  0  0  0  0
    2.4271    2.3030    0.3477 O   0  0  0  0  0  0  0  0  0  0  0  0
    4.7602    0.9211    0.2595 O   0  0  0  0  0  0  0  0  0  0  0  0
   -4.9932    0.9270    0.1165 O   0  0  0  0  0  0  0  0  0  0  0  0
    4.7523   -1.8303    0.0142 O   0  0  0  0  0  0  0  0  0  0  0  0
   -1.3897    0.2499    0.1077 C   0  0  0  0  0  0  0  0  0  0  0  0
   -1.3882   -1.1412   -0.0148 C   0  0  0  0  0  0  0  0  0  0  0  0
    1.1562    0.2496    0.1448 C   0  0  0  0  0  0  0  0  0  0  0  0
    1.1577   -1.1415    0.0220 C   0  0  0  0  0  0  0  0  0  0  0  0
   -0.1176    0.9961    0.1916 C   0  0  0  0  0  0  0  0  0  0  0  0
   -0.1143   -1.8877   -0.0626 C   0  0  0  0  0  0  0  0  0  0  0  0
   -2.6039    0.9455    0.1516 C   0  0  0  0  0  0  0  0  0  0  0  0
   -2.6007   -1.8366   -0.0935 C   0  0  0  0  0  0  0  0  0  0  0  0
   -3.8083   -1.1395   -0.0492 C   0  0  0  0  0  0  0  0  0  0  0  0
    2.3687    0.9448    0.2243 C   0  0  0  0  0  0  0  0  0  0  0  0
   -3.8100    0.2487    0.0730 C   0  0  0  0  0  0  0  0  0  0  0  0
    2.3719   -1.8373   -0.0215 C   0  0  0  0  0  0  0  0  0  0  0  0
    3.5764    0.2477    0.1806 C   0  0  0  0  0  0  0  0  0  0  0  0
    3.5779   -1.1404    0.0580 C   0  0  0  0  0  0  0  0  0  0  0  0
   -5.0910   -1.9000   -0.1348 C   0  0  0  0  0  0  0  0  0  0  0  0
   -2.6763    3.0571   -0.9402 C   0  0  0  0  0  0  0  0  0  0  0  0
    5.3415    1.3518   -0.9685 C   0  0  0  0  0  0  0  0  0  0  0  0
   -2.6085   -2.9196   -0.1892 H   0  0  0  0  0  0  0  0  0  0  0  0
    2.3931   -2.9201   -0.1169 H   0  0  0  0  0  0  0  0  0  0  0  0
   -4.9234   -2.9786   -0.2255 H   0  0  0  0  0  0  0  0  0  0  0  0
   -5.6914   -1.7354    0.7659 H   0  0  0  0  0  0  0  0  0  0  0  0
   -5.6639   -1.5814   -1.0120 H   0  0  0  0  0  0  0  0  0  0  0  0
    1.5397    2.6902    0.3589 H   0  0  0  0  0  0  0  0  0  0  0  0
   -4.8081    1.8669    0.2829 H   0  0  0  0  0  0  0  0  0  0  0  0
   -3.6590    2.9913   -1.4168 H   0  0  0  0  0  0  0  0  0  0  0  0
   -1.9070    2.7118   -1.6388 H   0  0  0  0  0  0  0  0  0  0  0  0
   -2.4795    4.1040   -0.6936 H   0  0  0  0  0  0  0  0  0  0  0  0
    5.4854   -1.2013    0.1274 H   0  0  0  0  0  0  0  0  0  0  0  0
    6.2931    1.8413   -0.7435 H   0  0  0  0  0  0  0  0  0  0  0  0
    4.6886    2.0727   -1.4706 H   0  0  0  0  0  0  0  0  0  0  0  0
    5.5346    0.5000   -1.6281 H   0  0  0  0  0  0  0  0  0  0  0  0
  1 14  1  0  0  0  0
  1 23  1  0  0  0  0
  2 12  2  0  0  0  0
  3 13  2  0  0  0  0
  4 17  1  0  0  0  0
  4 30  1  0  0  0  0
  5 20  1  0  0  0  0
  5 24  1  0  0  0  0
  6 18  1  0  0  0  0
  6 31  1  0  0  0  0
  7 21  1  0  0  0  0
  7 35  1  0  0  0  0
  8  9  2  0  0  0  0
  8 12  1  0  0  0  0
  8 14  1  0  0  0  0
  9 13  1  0  0  0  0
  9 15  1  0  0  0  0
 10 11  1  0  0  0  0
 10 12  1  0  0  0  0
 10 17  2  0  0  0  0
 11 13  1  0  0  0  0
 11 19  2  0  0  0  0
 14 18  2  0  0  0  0
 15 16  2  0  0  0  0
 15 25  1  0  0  0  0
 16 18  1  0  0  0  0
 16 22  1  0  0  0  0
 17 20  1  0  0  0  0
 19 21  1  0  0  0  0
 19 26  1  0  0  0  0
 20 21  2  0  0  0  0
 22 27  1  0  0  0  0
 22 28  1  0  0  0  0
 22 29  1  0  0  0  0
 23 32  1  0  0  0  0
 23 33  1  0  0  0  0
 23 34  1  0  0  0  0
 24 36  1  0  0  0  0
 24 37  1  0  0  0  0
 24 38  1  0  0  0  0
M  END
> <PUBCHEM_COMPOUND_CID>
155011

> <PUBCHEM_CONFORMER_RMSD>
0.6

> <PUBCHEM_CONFORMER_DIVERSEORDER>
1
2

> <PUBCHEM_MMFF94_PARTIAL_CHARGES>
29
1 -0.36
10 0.09
11 0.09
12 0.4
13 0.4
14 0.08
15 -0.15
16 -0.14
17 0.08
18 0.08
19 -0.15
2 -0.57
20 0.08
21 0.08
22 0.14
23 0.28
24 0.28
25 0.15
26 0.15
3 -0.57
30 0.45
31 0.45
35 0.45
4 -0.53
5 -0.36
6 -0.53
7 -0.53
8 0.09
9 0.09

> <PUBCHEM_EFFECTIVE_ROTOR_COUNT>
2

> <PUBCHEM_PHARMACOPHORE_FEATURES>
10
1 1 acceptor
1 2 acceptor
1 3 acceptor
1 4 donor
1 5 acceptor
1 6 donor
1 7 donor
6 10 11 17 19 20 21 rings
6 8 9 10 11 12 13 rings
6 8 9 14 15 16 18 rings

> <PUBCHEM_HEAVY_ATOM_COUNT>
24

> <PUBCHEM_ATOM_DEF_STEREO_COUNT>
0

> <PUBCHEM_ATOM_UDEF_STEREO_COUNT>
0

> <PUBCHEM_BOND_DEF_STEREO_COUNT>
0

> <PUBCHEM_BOND_UDEF_STEREO_COUNT>
0

> <PUBCHEM_ISOTOPIC_ATOM_COUNT>
0

> <PUBCHEM_COMPONENT_COUNT>
1

> <PUBCHEM_CACTVS_TAUTO_COUNT>
60

> <PUBCHEM_CONFORMER_ID>
00025D8300000001

> <PUBCHEM_MMFF94_ENERGY>
96.3023

> <PUBCHEM_FEATURE_SELFOVERLAP>
50.801

> <PUBCHEM_SHAPE_FINGERPRINT>
10411042 1 17473543551855180278
10616163 171 18337107878190483935
10670039 82 18271230669752316020
10967382 1 18337391663738209122
11578080 2 16842770614552934047
12011746 2 18337390435377517166
12107183 9 17765722712258326818
12236239 1 17989209218324062592
12390115 104 18188473761733316553
12403259 226 18409454669672495281
12403259 415 18187932741787995713
13140716 1 18264494055706668402
14787075 74 18412262804968264058
14790565 3 18409721880883513320
15196674 1 18409730668328429186
15536298 74 18334013895662227362
16945 1 18193281784273508194
17492 89 18338517546560953090
19591789 44 18409731767834606843
200 152 18040438772197598339
20510252 161 18333731325167994337
21267235 1 18337102367921724315
21279426 13 18336261362159827462
221357 26 18334858298800881886
221490 88 18410852157456800794
22393880 68 18339078319160354894
23227448 37 18337676424918653045
2334 1 18409169900244527699
23402539 116 18334583403851335823
23559900 14 18334298678011461504
238 59 16833792079941601365
2748010 2 18408888459622267555
2871803 45 18412553102224564431
3004659 81 18341891918572603558
335352 9 18265334091196106511
350125 39 18410008827769858849
4214541 1 18410293656936497713
474 4 17488737870837559884
5104073 3 18409167727038770434
9709674 26 18409725153627649642

> <PUBCHEM_SHAPE_MULTIPOLES>
452.82
10
3.08
0.69
2.94
0.5
-0.08
0.2
-0.92
-1.09
-0.36
0.12
0.18
-0.05

> <PUBCHEM_SHAPE_SELFOVERLAP>
1014.167

> <PUBCHEM_SHAPE_VOLUME>
239.4

> <PUBCHEM_COORDINATE_TYPE>
2
5
10

$$$$

