45789647
  -OEChem-07051213153D

 28 29  0     1  0  0  0  0  0999 V2000
    2.6112   -1.7121    0.1825 O   0  0  0  0  0  0  0  0  0  0  0  0
    3.7419    0.3563   -0.3180 O   0  0  0  0  0  0  0  0  0  0  0  0
   -2.3199    1.5102    0.9595 O   0  0  0  0  0  0  0  0  0  0  0  0
   -3.5608   -0.3643   -0.9051 N   0  0  0  0  0  0  0  0  0  0  0  0
   -2.6087   -0.7408    0.1418 C   0  0  1  0  0  0  0  0  0  0  0  0
   -0.3172    0.4965    0.2771 C   0  0  0  0  0  0  0  0  0  0  0  0
   -1.7553    0.4969    0.4948 C   0  0  0  0  0  0  0  0  0  0  0  0
    1.7578   -0.6528    0.1433 C   0  0  0  0  0  0  0  0  0  0  0  0
    0.3957   -0.7020    0.3584 C   0  0  0  0  0  0  0  0  0  0  0  0
    2.4035    0.5284   -0.1424 C   0  0  0  0  0  0  0  0  0  0  0  0
   -3.3666   -1.2293    1.3693 C   0  0  0  0  0  0  0  0  0  0  0  0
    0.3425    1.7033   -0.0147 C   0  0  0  0  0  0  0  0  0  0  0  0
    1.7229    1.7254   -0.2286 C   0  0  0  0  0  0  0  0  0  0  0  0
    3.8665   -1.0654   -0.1111 C   0  0  0  0  0  0  0  0  0  0  0  0
   -2.9136   -0.3504   -2.2068 C   0  0  0  0  0  0  0  0  0  0  0  0
   -1.9953   -1.5736   -0.2116 H   0  0  0  0  0  0  0  0  0  0  0  0
   -0.0662   -1.6485    0.6128 H   0  0  0  0  0  0  0  0  0  0  0  0
   -2.6689   -1.4790    2.1764 H   0  0  0  0  0  0  0  0  0  0  0  0
   -3.9534   -2.1262    1.1427 H   0  0  0  0  0  0  0  0  0  0  0  0
   -4.0507   -0.4652    1.7566 H   0  0  0  0  0  0  0  0  0  0  0  0
   -0.2112    2.6366   -0.0839 H   0  0  0  0  0  0  0  0  0  0  0  0
   -4.3231   -1.0416   -0.9325 H   0  0  0  0  0  0  0  0  0  0  0  0
    2.2353    2.6535   -0.4549 H   0  0  0  0  0  0  0  0  0  0  0  0
    4.2901   -1.5159   -1.0161 H   0  0  0  0  0  0  0  0  0  0  0  0
    4.5547   -1.2396    0.7240 H   0  0  0  0  0  0  0  0  0  0  0  0
   -2.5066   -1.3324   -2.4703 H   0  0  0  0  0  0  0  0  0  0  0  0
   -3.6501   -0.0835   -2.9716 H   0  0  0  0  0  0  0  0  0  0  0  0
   -2.1142    0.3952   -2.2594 H   0  0  0  0  0  0  0  0  0  0  0  0
  1  8  1  0  0  0  0
  1 14  1  0  0  0  0
  2 10  1  0  0  0  0
  2 14  1  0  0  0  0
  3  7  2  0  0  0  0
  4  5  1  0  0  0  0
  4 15  1  0  0  0  0
  4 22  1  0  0  0  0
  5  7  1  0  0  0  0
  5 11  1  0  0  0  0
  5 16  1  0  0  0  0
  6  7  1  0  0  0  0
  6  9  2  0  0  0  0
  6 12  1  0  0  0  0
  8  9  1  0  0  0  0
  8 10  2  0  0  0  0
  9 17  1  0  0  0  0
 10 13  1  0  0  0  0
 11 18  1  0  0  0  0
 11 19  1  0  0  0  0
 11 20  1  0  0  0  0
 12 13  2  0  0  0  0
 12 21  1  0  0  0  0
 13 23  1  0  0  0  0
 14 24  1  0  0  0  0
 14 25  1  0  0  0  0
 15 26  1  0  0  0  0
 15 27  1  0  0  0  0
 15 28  1  0  0  0  0
M  END
> <PUBCHEM_COMPOUND_CID>
45789647

> <PUBCHEM_CONFORMER_RMSD>
0.6

> <PUBCHEM_CONFORMER_DIVERSEORDER>
1
29
10
15
26
7
30
34
17
25
21
23
19
32
8
14
22
18
27
31
6
9
35
24
16
20
2
3
13
33
5
4
11
28
12

> <PUBCHEM_MMFF94_PARTIAL_CHARGES>
18
1 -0.36
10 0.08
12 -0.15
13 -0.15
14 0.56
15 0.27
17 0.15
2 -0.36
21 0.15
22 0.36
23 0.15
3 -0.57
4 -0.9
5 0.33
6 0.09
7 0.42
8 0.08
9 -0.15

> <PUBCHEM_EFFECTIVE_ROTOR_COUNT>
3.6

> <PUBCHEM_PHARMACOPHORE_FEATURES>
7
1 1 acceptor
1 2 acceptor
1 3 acceptor
1 4 cation
1 4 donor
5 1 2 8 10 14 rings
6 6 8 9 10 12 13 rings

> <PUBCHEM_HEAVY_ATOM_COUNT>
15

> <PUBCHEM_ATOM_DEF_STEREO_COUNT>
0

> <PUBCHEM_ATOM_UDEF_STEREO_COUNT>
1

> <PUBCHEM_BOND_DEF_STEREO_COUNT>
0

> <PUBCHEM_BOND_UDEF_STEREO_COUNT>
0

> <PUBCHEM_ISOTOPIC_ATOM_COUNT>
0

> <PUBCHEM_COMPONENT_COUNT>
1

> <PUBCHEM_CACTVS_TAUTO_COUNT>
2

> <PUBCHEM_CONFORMER_ID>
02BAB1CF00000001

> <PUBCHEM_MMFF94_ENERGY>
36.2806

> <PUBCHEM_FEATURE_SELFOVERLAP>
35.675

> <PUBCHEM_SHAPE_FINGERPRINT>
11543360 7 16056301852816928350
11769659 78 18113623416887545122
11806522 49 18336549317851641338
12032990 46 18340475738462664194
12932764 1 17603864485753797281
13296908 3 18202281385826087163
13581323 91 16443067196689936748
13583140 156 15069485880537026194
13705890 14 18059855039210334642
14123260 362 12751237047040427415
14144814 61 18410849975671261402
14289901 80 17240490216853680522
14576447 43 18261402087386562150
15375462 189 17967806107460263611
16945 1 18336545997704959992
18186145 218 17632292397734444906
19433438 38 17418377973633350403
200 152 18261399940034431829
20201158 50 18272369771702797642
20361792 2 18113345184669373285
20645477 70 18410015420423267703
21501925 9 18410580587033163112
22112679 90 17168420446604735953
221490 88 18128242394583771346
22926399 65 15625956368690470981
232386 152 16733273339454856941
23402539 116 18339363084535590670
23402655 69 18410014372430206869
23559900 14 18060705013845011258
2748010 2 17908974410234146720
77492 1 17749103349106836565
8809292 202 17916010279244840859

> <PUBCHEM_SHAPE_MULTIPOLES>
286.1
6.72
1.66
1.22
0.44
0.28
-0.6
-2.29
-0.91
0.59
0.28
-1.74
-0.12
0.05

> <PUBCHEM_SHAPE_SELFOVERLAP>
608.705

> <PUBCHEM_SHAPE_VOLUME>
161.2

> <PUBCHEM_COORDINATE_TYPE>
2
5
10

$$$$

