26757
  -OEChem-07051212533D

 31 31  0     1  0  0  0  0  0999 V2000
   -2.0759   -0.1101   -0.2416 N   0  0  2  0  0  0  0  0  0  0  0  0
   -0.7117    0.1461    0.2301 C   0  0  1  0  0  0  0  0  0  0  0  0
    0.2983   -0.4049   -0.7929 C   0  0  0  0  0  0  0  0  0  0  0  0
   -0.5554    1.6500    0.4558 C   0  0  0  0  0  0  0  0  0  0  0  0
    1.7388   -0.2250   -0.3775 C   0  0  0  0  0  0  0  0  0  0  0  0
   -3.0500    0.3942    0.7237 C   0  0  0  0  0  0  0  0  0  0  0  0
   -2.2732   -1.5396   -0.4720 C   0  0  0  0  0  0  0  0  0  0  0  0
    2.4121    0.9294   -0.7442 C   0  0  0  0  0  0  0  0  0  0  0  0
    2.3614   -1.2176    0.3625 C   0  0  0  0  0  0  0  0  0  0  0  0
    3.7427    1.0957   -0.3606 C   0  0  0  0  0  0  0  0  0  0  0  0
    3.6921   -1.0512    0.7460 C   0  0  0  0  0  0  0  0  0  0  0  0
    4.3829    0.1054    0.3846 C   0  0  0  0  0  0  0  0  0  0  0  0
   -4.4193    0.1944    0.2390 C   0  0  0  0  0  0  0  0  0  0  0  0
   -5.5426    0.0331   -0.1530 C   0  0  0  0  0  0  0  0  0  0  0  0
   -0.5388   -0.3558    1.1932 H   0  0  0  0  0  0  0  0  0  0  0  0
    0.1439    0.0670   -1.7734 H   0  0  0  0  0  0  0  0  0  0  0  0
    0.1761   -1.4802   -0.9615 H   0  0  0  0  0  0  0  0  0  0  0  0
   -1.1226    2.0142    1.3180 H   0  0  0  0  0  0  0  0  0  0  0  0
   -0.8422    2.2293   -0.4293 H   0  0  0  0  0  0  0  0  0  0  0  0
    0.4753    1.9171    0.7028 H   0  0  0  0  0  0  0  0  0  0  0  0
   -2.9280   -0.0814    1.7051 H   0  0  0  0  0  0  0  0  0  0  0  0
   -2.9723    1.4755    0.8667 H   0  0  0  0  0  0  0  0  0  0  0  0
   -1.7486   -1.8806   -1.3701 H   0  0  0  0  0  0  0  0  0  0  0  0
   -3.3150   -1.8002   -0.6864 H   0  0  0  0  0  0  0  0  0  0  0  0
   -1.9576   -2.1492    0.3833 H   0  0  0  0  0  0  0  0  0  0  0  0
    1.9273    1.7038   -1.3317 H   0  0  0  0  0  0  0  0  0  0  0  0
    1.8317   -2.1206    0.6519 H   0  0  0  0  0  0  0  0  0  0  0  0
    4.2811    1.9955   -0.6437 H   0  0  0  0  0  0  0  0  0  0  0  0
    4.1903   -1.8219    1.3268 H   0  0  0  0  0  0  0  0  0  0  0  0
    5.4191    0.2348    0.6831 H   0  0  0  0  0  0  0  0  0  0  0  0
   -6.5388   -0.1105   -0.5010 H   0  0  0  0  0  0  0  0  0  0  0  0
  1  2  1  0  0  0  0
  1  6  1  0  0  0  0
  1  7  1  0  0  0  0
  2  3  1  0  0  0  0
  2  4  1  0  0  0  0
  2 15  1  0  0  0  0
  3  5  1  0  0  0  0
  3 16  1  0  0  0  0
  3 17  1  0  0  0  0
  4 18  1  0  0  0  0
  4 19  1  0  0  0  0
  4 20  1  0  0  0  0
  5  8  2  0  0  0  0
  5  9  1  0  0  0  0
  6 13  1  0  0  0  0
  6 21  1  0  0  0  0
  6 22  1  0  0  0  0
  7 23  1  0  0  0  0
  7 24  1  0  0  0  0
  7 25  1  0  0  0  0
  8 10  1  0  0  0  0
  8 26  1  0  0  0  0
  9 11  2  0  0  0  0
  9 27  1  0  0  0  0
 10 12  2  0  0  0  0
 10 28  1  0  0  0  0
 11 12  1  0  0  0  0
 11 29  1  0  0  0  0
 12 30  1  0  0  0  0
 13 14  3  0  0  0  0
 14 31  1  0  0  0  0
M  END
> <PUBCHEM_COMPOUND_CID>
26757

> <PUBCHEM_CONFORMER_RMSD>
0.6

> <PUBCHEM_CONFORMER_DIVERSEORDER>
13
10
9
16
6
22
19
14
23
15
18
26
17
1
21
7
27
8
24
4
12
3
20
2
28
11
25
5

> <PUBCHEM_MMFF94_PARTIAL_CHARGES>
19
1 -0.81
10 -0.15
11 -0.15
12 -0.15
13 -0.2
14 -0.18
2 0.27
26 0.15
27 0.15
28 0.15
29 0.15
3 0.14
30 0.15
31 0.18
5 -0.14
6 0.47
7 0.27
8 -0.15
9 -0.15

> <PUBCHEM_EFFECTIVE_ROTOR_COUNT>
4

> <PUBCHEM_PHARMACOPHORE_FEATURES>
3
1 1 cation
1 14 hydrophobe
6 5 8 9 10 11 12 rings

> <PUBCHEM_HEAVY_ATOM_COUNT>
14

> <PUBCHEM_ATOM_DEF_STEREO_COUNT>
1

> <PUBCHEM_ATOM_UDEF_STEREO_COUNT>
0

> <PUBCHEM_BOND_DEF_STEREO_COUNT>
0

> <PUBCHEM_BOND_UDEF_STEREO_COUNT>
0

> <PUBCHEM_ISOTOPIC_ATOM_COUNT>
0

> <PUBCHEM_COMPONENT_COUNT>
1

> <PUBCHEM_CACTVS_TAUTO_COUNT>
1

> <PUBCHEM_CONFORMER_ID>
000068850000000D

> <PUBCHEM_MMFF94_ENERGY>
38.0299

> <PUBCHEM_FEATURE_SELFOVERLAP>
15.223

> <PUBCHEM_SHAPE_FINGERPRINT>
11132069 177 18040996232671067014
11401426 45 18186523220174745757
11471102 20 18273213097195005300
12236239 1 18410293605676302598
12251169 10 18411138043438614974
12815109 37 18409169913293031361
13675066 3 17704068491178754629
13760787 19 18340765944933853310
14123238 8 18202282502765347941
15242433 33 18411698772683064567
15375462 189 18413110545623665690
17834072 33 18410294662512667959
17834076 25 18408040706150503558
18186145 218 17703795803473308814
19050596 39 18411704262036299818
200 152 18342461460356396677
20279233 1 16702014288090717491
20559304 39 18409164450590483416
20645477 70 18130509724899108290
21267235 1 18411692223216666706
22485316 2 18202563964915347963
23048698 100 18342453755274686672
23402539 116 18187654621908431509
23557571 272 17458335381675565496
23559900 14 18413105057124992162
26918003 58 17846779602594750032
300161 21 18410863131045260628
42 15 17847059999645464775
5374978 207 18408608071467611352
537710 114 18334010588268494593
69090 78 18131914849430606819

> <PUBCHEM_SHAPE_MULTIPOLES>
283.13
10.07
1.35
0.86
7.15
0
-0.01
-0.1
0.88
-0.48
0.03
-0.19
0.01
-0.71

> <PUBCHEM_SHAPE_SELFOVERLAP>
569.553

> <PUBCHEM_SHAPE_VOLUME>
166.7

> <PUBCHEM_COORDINATE_TYPE>
2
5
10

$$$$

