54675774
  -OEChem-07051212503D

 27 27  0     0  0  0  0  0  0999 V2000
   -0.7308   -2.7198    0.1595 O   0  0  0  0  0  0  0  0  0  0  0  0
   -0.1845    1.8700   -1.1173 O   0  0  0  0  0  0  0  0  0  0  0  0
    3.9467   -0.6618   -1.2120 O   0  0  0  0  0  0  0  0  0  0  0  0
   -4.6721    1.6352    0.1934 O   0  0  0  0  0  0  0  0  0  0  0  0
    5.7593    0.2384    0.2981 O   0  0  0  0  0  0  0  0  0  0  0  0
   -5.1762   -0.4948    0.8559 O   0  0  0  0  0  0  0  0  0  0  0  0
    4.1856    1.0065    1.7803 O   0  0  0  0  0  0  0  0  0  0  0  0
   -2.2103    1.0915   -0.3607 N   0  0  0  0  0  0  0  0  0  0  0  0
    1.1468   -0.5814   -0.8898 C   0  0  0  0  0  0  0  0  0  0  0  0
   -0.3009   -0.4393   -0.5196 C   0  0  0  0  0  0  0  0  0  0  0  0
    2.0579   -0.0011    0.1836 C   0  0  0  0  0  0  0  0  0  0  0  0
   -1.1059   -1.4137   -0.0559 C   0  0  0  0  0  0  0  0  0  0  0  0
   -0.8744    0.9428   -0.6976 C   0  0  0  0  0  0  0  0  0  0  0  0
   -2.4939   -1.1644    0.2707 C   0  0  0  0  0  0  0  0  0  0  0  0
   -2.9909    0.0669    0.1080 C   0  0  0  0  0  0  0  0  0  0  0  0
    3.5143   -0.1387   -0.1959 C   0  0  0  0  0  0  0  0  0  0  0  0
   -4.3900    0.3362    0.4329 C   0  0  0  0  0  0  0  0  0  0  0  0
    4.5193    0.4275    0.7664 C   0  0  0  0  0  0  0  0  0  0  0  0
    1.3361   -0.1031   -1.8593 H   0  0  0  0  0  0  0  0  0  0  0  0
    1.3919   -1.6410   -1.0395 H   0  0  0  0  0  0  0  0  0  0  0  0
    1.9041   -0.5265    1.1334 H   0  0  0  0  0  0  0  0  0  0  0  0
    1.8520    1.0637    0.3367 H   0  0  0  0  0  0  0  0  0  0  0  0
   -3.1051   -1.9808    0.6412 H   0  0  0  0  0  0  0  0  0  0  0  0
   -2.6372    2.0074   -0.4656 H   0  0  0  0  0  0  0  0  0  0  0  0
   -1.4842   -3.2327    0.4962 H   0  0  0  0  0  0  0  0  0  0  0  0
   -5.6058    1.8536    0.4005 H   0  0  0  0  0  0  0  0  0  0  0  0
    6.4426    0.6178    0.8908 H   0  0  0  0  0  0  0  0  0  0  0  0
  1 12  1  0  0  0  0
  1 25  1  0  0  0  0
  2 13  2  0  0  0  0
  3 16  2  0  0  0  0
  4 17  1  0  0  0  0
  4 26  1  0  0  0  0
  5 18  1  0  0  0  0
  5 27  1  0  0  0  0
  6 17  2  0  0  0  0
  7 18  2  0  0  0  0
  8 13  1  0  0  0  0
  8 15  1  0  0  0  0
  8 24  1  0  0  0  0
  9 10  1  0  0  0  0
  9 11  1  0  0  0  0
  9 19  1  0  0  0  0
  9 20  1  0  0  0  0
 10 12  2  0  0  0  0
 10 13  1  0  0  0  0
 11 16  1  0  0  0  0
 11 21  1  0  0  0  0
 11 22  1  0  0  0  0
 12 14  1  0  0  0  0
 14 15  2  0  0  0  0
 14 23  1  0  0  0  0
 15 17  1  0  0  0  0
 16 18  1  0  0  0  0
M  END
> <PUBCHEM_COMPOUND_CID>
54675774

> <PUBCHEM_CONFORMER_RMSD>
0.6

> <PUBCHEM_CONFORMER_DIVERSEORDER>
1
52
43
15
5
49
46
30
51
21
40
23
32
31
44
14
47
42
11
18
41
24
33
9
10
39
20
45
17
34
8
25
35
7
19
28
36
48
38
26
53
2
27
29
16
6
22
3
50
13
37
4
12

> <PUBCHEM_MMFF94_PARTIAL_CHARGES>
23
1 -0.53
10 -0.12
11 0.06
12 0.08
13 0.62
14 -0.15
15 0.12
16 0.51
17 0.71
18 0.72
2 -0.57
23 0.15
24 0.37
25 0.45
26 0.5
27 0.5
3 -0.57
4 -0.65
5 -0.65
6 -0.57
7 -0.57
8 -0.54
9 0.14

> <PUBCHEM_EFFECTIVE_ROTOR_COUNT>
5

> <PUBCHEM_PHARMACOPHORE_FEATURES>
11
1 1 donor
1 2 acceptor
1 3 acceptor
1 4 acceptor
1 5 acceptor
1 6 acceptor
1 7 acceptor
1 8 donor
3 4 6 17 anion
3 5 7 18 anion
6 8 10 12 13 14 15 rings

> <PUBCHEM_HEAVY_ATOM_COUNT>
18

> <PUBCHEM_ATOM_DEF_STEREO_COUNT>
0

> <PUBCHEM_ATOM_UDEF_STEREO_COUNT>
0

> <PUBCHEM_BOND_DEF_STEREO_COUNT>
0

> <PUBCHEM_BOND_UDEF_STEREO_COUNT>
0

> <PUBCHEM_ISOTOPIC_ATOM_COUNT>
0

> <PUBCHEM_COMPONENT_COUNT>
1

> <PUBCHEM_CACTVS_TAUTO_COUNT>
93

> <PUBCHEM_CONFORMER_ID>
0342493E00000001

> <PUBCHEM_MMFF94_ENERGY>
35.7469

> <PUBCHEM_FEATURE_SELFOVERLAP>
55.942

> <PUBCHEM_SHAPE_FINGERPRINT>
11132069 177 18410855460244239103
12119455 92 17530684329030212399
12236239 1 16988840584020746094
12251169 10 18413389813229753172
12596602 18 17418090996946147080
12633257 1 18337689524653406016
12670543 26 9078847251218384627
13140716 1 18127688236253941488
13214271 11 18334577927989534135
13288520 33 10447931676108670979
13544592 145 18187915218848955254
13675066 3 18335413569590180751
13862211 1 18201438052282157683
15042514 8 18272082739371241547
15209294 21 18261385706877030769
15342168 16 17458914713061489200
15375462 189 17275111608787052920
1813 80 16271923857051972614
19784866 170 18413669123511427966
20510252 161 18335983185064177385
20645477 56 18334859411387296070
20645477 70 13039194719208501440
212916 134 18409177601237278650
21637258 2 14907900423468922497
22224240 67 18408880738231431995
22854114 59 18113617893464695940
2297311 6 18343011229767246100
23366157 5 17271435803818780389
23402539 116 18409454674067494767
23532345 42 18343295972686639061
23559900 14 18337377332097234638
26918003 58 15985101911865369985
2748010 2 17840015575297717167
2916195 48 18113903758019387217
4072396 5 17846221094112285583
449060 50 17749385975171673479
5374978 207 17988924453413160716
69474 34 18411704253125144444
8272917 22 16081637972322664118
90316 7 17917438643770687076

> <PUBCHEM_SHAPE_MULTIPOLES>
324.37
10.79
1.65
1.04
5.12
0.48
-0.1
-2.54
-3.73
-1.09
0.08
0.81
-0.21
0.78

> <PUBCHEM_SHAPE_SELFOVERLAP>
681.733

> <PUBCHEM_SHAPE_VOLUME>
179.4

> <PUBCHEM_COORDINATE_TYPE>
2
5
10

$$$$

