5117
  -OEChem-06261200313D

 37 39  0     1  0  0  0  0  0999 V2000
    0.0023    2.0101    0.4925 O   0  0  0  0  0  0  0  0  0  0  0  0
    0.2336   -1.6296    1.0533 O   0  0  0  0  0  0  0  0  0  0  0  0
    4.8713    0.5326   -1.0172 O   0  0  0  0  0  0  0  0  0  0  0  0
   -2.4293    0.7490   -0.2312 N   0  0  2  0  0  0  0  0  0  0  0  0
   -1.1812   -0.0285   -0.1677 C   0  0  1  0  0  0  0  0  0  0  0  0
    0.0180    0.9056   -0.4195 C   0  0  2  0  0  0  0  0  0  0  0  0
   -2.4114    1.9112    0.6604 C   0  0  0  0  0  0  0  0  0  0  0  0
   -0.9271   -0.7917    1.1426 C   0  0  0  0  0  0  0  0  0  0  0  0
    1.3121    0.1691   -0.1984 C   0  0  0  0  0  0  0  0  0  0  0  0
   -3.6288   -0.0565   -0.0333 C   0  0  0  0  0  0  0  0  0  0  0  0
   -1.1935    2.7745    0.3560 C   0  0  0  0  0  0  0  0  0  0  0  0
    1.3460   -1.0318    0.5217 C   0  0  0  0  0  0  0  0  0  0  0  0
   -3.6377   -1.2396   -0.9980 C   0  0  0  0  0  0  0  0  0  0  0  0
    2.5101    0.6918   -0.7068 C   0  0  0  0  0  0  0  0  0  0  0  0
    2.5534   -1.7122    0.7016 C   0  0  0  0  0  0  0  0  0  0  0  0
    3.7160    0.0169   -0.5154 C   0  0  0  0  0  0  0  0  0  0  0  0
   -4.8906   -2.0846   -0.8266 C   0  0  0  0  0  0  0  0  0  0  0  0
    3.7369   -1.1862    0.1858 C   0  0  0  0  0  0  0  0  0  0  0  0
   -1.1437   -0.7456   -0.9978 H   0  0  0  0  0  0  0  0  0  0  0  0
   -0.0126    1.2874   -1.4496 H   0  0  0  0  0  0  0  0  0  0  0  0
   -2.3889    1.5938    1.7100 H   0  0  0  0  0  0  0  0  0  0  0  0
   -3.3136    2.5168    0.5157 H   0  0  0  0  0  0  0  0  0  0  0  0
   -0.8049   -0.1226    2.0031 H   0  0  0  0  0  0  0  0  0  0  0  0
   -1.7585   -1.4632    1.3760 H   0  0  0  0  0  0  0  0  0  0  0  0
   -3.7168   -0.4082    1.0020 H   0  0  0  0  0  0  0  0  0  0  0  0
   -4.5143    0.5604   -0.2327 H   0  0  0  0  0  0  0  0  0  0  0  0
   -1.2420    3.2030   -0.6525 H   0  0  0  0  0  0  0  0  0  0  0  0
   -1.1400    3.6063    1.0655 H   0  0  0  0  0  0  0  0  0  0  0  0
   -3.5796   -0.8881   -2.0352 H   0  0  0  0  0  0  0  0  0  0  0  0
   -2.7979   -1.9202   -0.8292 H   0  0  0  0  0  0  0  0  0  0  0  0
    2.4943    1.6294   -1.2585 H   0  0  0  0  0  0  0  0  0  0  0  0
    2.5794   -2.6516    1.2478 H   0  0  0  0  0  0  0  0  0  0  0  0
   -4.9565   -2.4884    0.1889 H   0  0  0  0  0  0  0  0  0  0  0  0
   -5.7915   -1.4938   -1.0209 H   0  0  0  0  0  0  0  0  0  0  0  0
   -4.8803   -2.9262   -1.5266 H   0  0  0  0  0  0  0  0  0  0  0  0
    4.6720   -1.7192    0.3349 H   0  0  0  0  0  0  0  0  0  0  0  0
    4.6721    1.3684   -1.4732 H   0  0  0  0  0  0  0  0  0  0  0  0
  1  6  1  0  0  0  0
  1 11  1  0  0  0  0
  2  8  1  0  0  0  0
  2 12  1  0  0  0  0
  3 16  1  0  0  0  0
  3 37  1  0  0  0  0
  4  5  1  0  0  0  0
  4  7  1  0  0  0  0
  4 10  1  0  0  0  0
  5  6  1  0  0  0  0
  5  8  1  0  0  0  0
  5 19  1  0  0  0  0
  6  9  1  0  0  0  0
  6 20  1  0  0  0  0
  7 11  1  0  0  0  0
  7 21  1  0  0  0  0
  7 22  1  0  0  0  0
  8 23  1  0  0  0  0
  8 24  1  0  0  0  0
  9 12  2  0  0  0  0
  9 14  1  0  0  0  0
 10 13  1  0  0  0  0
 10 25  1  0  0  0  0
 10 26  1  0  0  0  0
 11 27  1  0  0  0  0
 11 28  1  0  0  0  0
 12 15  1  0  0  0  0
 13 17  1  0  0  0  0
 13 29  1  0  0  0  0
 13 30  1  0  0  0  0
 14 16  2  0  0  0  0
 14 31  1  0  0  0  0
 15 18  2  0  0  0  0
 15 32  1  0  0  0  0
 16 18  1  0  0  0  0
 17 33  1  0  0  0  0
 17 34  1  0  0  0  0
 17 35  1  0  0  0  0
 18 36  1  0  0  0  0
M  END
> <PUBCHEM_COMPOUND_CID>
5117

> <PUBCHEM_CONFORMER_RMSD>
0.6

> <PUBCHEM_CONFORMER_DIVERSEORDER>
1
3
12
9
10
7
8
4
2
13
5
6
11

> <PUBCHEM_MMFF94_PARTIAL_CHARGES>
20
1 -0.56
10 0.27
11 0.28
12 0.08
14 -0.15
15 -0.15
16 0.08
18 -0.15
2 -0.36
3 -0.53
31 0.15
32 0.15
36 0.15
37 0.45
4 -0.81
5 0.27
6 0.42
7 0.27
8 0.28
9 -0.14

> <PUBCHEM_EFFECTIVE_ROTOR_COUNT>
3.2

> <PUBCHEM_PHARMACOPHORE_FEATURES>
8
1 1 acceptor
1 17 hydrophobe
1 2 acceptor
1 3 donor
1 4 cation
6 1 4 5 6 7 11 rings
6 2 5 6 8 9 12 rings
6 9 12 14 15 16 18 rings

> <PUBCHEM_HEAVY_ATOM_COUNT>
18

> <PUBCHEM_ATOM_DEF_STEREO_COUNT>
0

> <PUBCHEM_ATOM_UDEF_STEREO_COUNT>
2

> <PUBCHEM_BOND_DEF_STEREO_COUNT>
0

> <PUBCHEM_BOND_UDEF_STEREO_COUNT>
0

> <PUBCHEM_ISOTOPIC_ATOM_COUNT>
0

> <PUBCHEM_COMPONENT_COUNT>
1

> <PUBCHEM_CACTVS_TAUTO_COUNT>
3

> <PUBCHEM_CONFORMER_ID>
000013FD00000001

> <PUBCHEM_MMFF94_ENERGY>
43.6034

> <PUBCHEM_FEATURE_SELFOVERLAP>
40.691

> <PUBCHEM_SHAPE_FINGERPRINT>
10062212 137 18270687604911775787
10616163 171 18262801898890969615
11578080 2 18055385588715915620
11725454 13 14548468959430341431
11806522 49 18411985728085316365
12553582 1 18189067425456963551
14576447 43 18338524036398494623
14787075 74 18339361847157949380
15375462 189 18412260636568747467
15442244 35 17982732175697922466
16945 1 18201146698537515128
17349148 13 18060145361946503290
17492 89 18337673147395350230
17844478 74 14634870876743030322
17862501 102 18271252732735512450
18186145 218 18058443386629012462
18222031 100 17822587001637423687
19422 9 18338236088874101846
200 152 18342459231490020175
20300324 65 18335415785782814356
20871999 31 18411429410252542295
21267235 1 18341040908481836178
21501502 16 18269271442725464858
21634736 98 18337676287099845917
221490 88 18052821339116843499
23402539 116 18410014342354587478
23402655 69 18272374221462827373
23557571 272 17749673011920178729
23559900 14 18044664345865434338
23566358 27 18051121785538857302
2748010 2 17694210071970666704
3286 77 18336278911290521746
465052 167 18042966476669210743
5104073 3 18270396217419721328
603831 33 18341617035405217742
7970288 3 18187937123135374567
9709674 26 18340475772891285974

> <PUBCHEM_SHAPE_MULTIPOLES>
347.84
8.01
2.37
1.02
0.07
0.91
-0.03
-3.74
2.86
1.74
-0.36
-0.02
-0.2
-1.36

> <PUBCHEM_SHAPE_SELFOVERLAP>
740.925

> <PUBCHEM_SHAPE_VOLUME>
192.7

> <PUBCHEM_COORDINATE_TYPE>
2
5
10

$$$$

