46173780
  -OEChem-07051212572D

 38 39  0     1  0  0  0  0  0999 V2000
    3.5836   -0.1224    0.0000 O   0  0  0  0  0  0  0  0  0  0  0  0
    7.9939   -1.8176    0.0000 O   0  0  0  0  0  0  0  0  0  0  0  0
    2.0000    0.6824    0.0000 O   0  0  0  0  0  0  0  0  0  0  0  0
    4.5298    1.1824    0.0000 C   0  0  2  0  0  0  0  0  0  0  0  0
    4.5298    0.1824    0.0000 C   0  0  2  0  0  0  0  0  0  0  0  0
    5.3958    1.6824    0.0000 C   0  0  0  0  0  0  0  0  0  0  0  0
    6.2619    1.1824    0.0000 C   0  0  0  0  0  0  0  0  0  0  0  0
    3.5836    1.4871    0.0000 C   0  0  0  0  0  0  0  0  0  0  0  0
    5.3958   -0.3176    0.0000 C   0  0  0  0  0  0  0  0  0  0  0  0
    6.2619    0.1824    0.0000 C   0  0  0  0  0  0  0  0  0  0  0  0
    5.3958   -1.3176    0.0000 C   0  0  0  0  0  0  0  0  0  0  0  0
    6.2619   -1.8176    0.0000 C   0  0  0  0  0  0  0  0  0  0  0  0
    3.0000    0.6824    0.0000 C   0  0  0  0  0  0  0  0  0  0  0  0
    7.1279   -1.3176    0.0000 C   0  0  1  0  0  0  0  0  0  0  0  0
    7.1279   -0.3176    0.0000 C   0  0  0  0  0  0  0  0  0  0  0  0
    3.2729    2.4376    0.0000 C   0  0  0  0  0  0  0  0  0  0  0  0
    5.0745   -0.8139    0.0000 C   0  0  0  0  0  0  0  0  0  0  0  0
    4.5298   -1.8176    0.0000 C   0  0  0  0  0  0  0  0  0  0  0  0
    4.4399    2.0276    0.0000 H   0  0  0  0  0  0  0  0  0  0  0  0
    4.4399   -0.6629    0.0000 H   0  0  0  0  0  0  0  0  0  0  0  0
    5.7944    2.1573    0.0000 H   0  0  0  0  0  0  0  0  0  0  0  0
    4.9973    2.1573    0.0000 H   0  0  0  0  0  0  0  0  0  0  0  0
    6.8725    1.0747    0.0000 H   0  0  0  0  0  0  0  0  0  0  0  0
    6.4739    1.7650    0.0000 H   0  0  0  0  0  0  0  0  0  0  0  0
    5.6079    0.2650    0.0000 H   0  0  0  0  0  0  0  0  0  0  0  0
    5.8633   -2.2926    0.0000 H   0  0  0  0  0  0  0  0  0  0  0  0
    6.6604   -2.2926    0.0000 H   0  0  0  0  0  0  0  0  0  0  0  0
    7.1279   -1.9376    0.0000 H   0  0  0  0  0  0  0  0  0  0  0  0
    7.6648   -0.0076    0.0000 H   0  0  0  0  0  0  0  0  0  0  0  0
    3.6870    2.8991    0.0000 H   0  0  0  0  0  0  0  0  0  0  0  0
    2.6663    2.5655    0.0000 H   0  0  0  0  0  0  0  0  0  0  0  0
    4.6760   -0.3390    0.0000 H   0  0  0  0  0  0  0  0  0  0  0  0
    4.5995   -1.2124    0.0000 H   0  0  0  0  0  0  0  0  0  0  0  0
    5.4730   -1.2889    0.0000 H   0  0  0  0  0  0  0  0  0  0  0  0
    4.2198   -1.2807    0.0000 H   0  0  0  0  0  0  0  0  0  0  0  0
    3.9929   -2.1276    0.0000 H   0  0  0  0  0  0  0  0  0  0  0  0
    4.8398   -2.3546    0.0000 H   0  0  0  0  0  0  0  0  0  0  0  0
    7.9939   -2.4376    0.0000 H   0  0  0  0  0  0  0  0  0  0  0  0
  1  5  1  0  0  0  0
  1 13  1  0  0  0  0
 14  2  1  1  0  0  0
  2 38  1  0  0  0  0
  3 13  2  0  0  0  0
  4  5  1  0  0  0  0
  4  6  1  0  0  0  0
  4  8  1  0  0  0  0
  4 19  1  6  0  0  0
  5  9  1  0  0  0  0
  5 20  1  1  0  0  0
  6  7  1  0  0  0  0
  6 21  1  0  0  0  0
  6 22  1  0  0  0  0
  7 10  1  0  0  0  0
  7 23  1  0  0  0  0
  7 24  1  0  0  0  0
  8 13  1  0  0  0  0
  8 16  2  0  0  0  0
  9 11  2  0  0  0  0
  9 25  1  0  0  0  0
 10 15  2  0  0  0  0
 10 17  1  0  0  0  0
 11 12  1  0  0  0  0
 11 18  1  0  0  0  0
 12 14  1  0  0  0  0
 12 26  1  0  0  0  0
 12 27  1  0  0  0  0
 14 15  1  0  0  0  0
 14 28  1  0  0  0  0
 15 29  1  0  0  0  0
 16 30  1  0  0  0  0
 16 31  1  0  0  0  0
 17 32  1  0  0  0  0
 17 33  1  0  0  0  0
 17 34  1  0  0  0  0
 18 35  1  0  0  0  0
 18 36  1  0  0  0  0
 18 37  1  0  0  0  0
M  END
> <PUBCHEM_COMPOUND_CID>
46173780

> <PUBCHEM_COMPOUND_CANONICALIZED>
1

> <PUBCHEM_CACTVS_COMPLEXITY>
431

> <PUBCHEM_CACTVS_HBOND_ACCEPTOR>
3

> <PUBCHEM_CACTVS_HBOND_DONOR>
1

> <PUBCHEM_CACTVS_ROTATABLE_BOND>
0

> <PUBCHEM_CACTVS_SUBSKEYS>
AAADceBwMAAAAAAAAAAAAAAAAAAAASAAAAAAAAAAAAAAAACAAAAAGgAACAAADRSggAICCAAABgCIAiDSCAAAAAAgAAAACAEAAEgAFBIAIQACUAAEwAAIMIOKyCCOAAAAAAAAAAAAAAAAAAAAAAAAAAAAAA==

> <PUBCHEM_IUPAC_OPENEYE_NAME>
(3aR,6E,8S,10E,11aS)-8-hydroxy-6,10-dimethyl-3-methylene-3a,4,5,8,9,11a-hexahydrocyclodeca[b]furan-2-one

> <PUBCHEM_IUPAC_CAS_NAME>
(3aR,6E,8S,10E,11aS)-8-hydroxy-6,10-dimethyl-3-methylene-3a,4,5,8,9,11a-hexahydrocyclodeca[b]furan-2-one

> <PUBCHEM_IUPAC_NAME>
(3aR,6E,8S,10E,11aS)-8-hydroxy-6,10-dimethyl-3-methylidene-3a,4,5,8,9,11a-hexahydrocyclodeca[b]furan-2-one

> <PUBCHEM_IUPAC_SYSTEMATIC_NAME>
(3aR,6E,8S,10E,11aS)-6,10-dimethyl-3-methylidene-8-oxidanyl-3a,4,5,8,9,11a-hexahydrocyclodeca[b]furan-2-one

> <PUBCHEM_IUPAC_TRADITIONAL_NAME>
(3aR,6E,8S,10E,11aS)-8-hydroxy-6,10-dimethyl-3-methylene-3a,4,5,8,9,11a-hexahydrocyclodeca[b]furan-2-one

> <PUBCHEM_IUPAC_INCHI>
InChI=1S/C15H20O3/c1-9-4-5-13-11(3)15(17)18-14(13)8-10(2)7-12(16)6-9/h6,8,12-14,16H,3-5,7H2,1-2H3/b9-6+,10-8+/t12-,13-,14+/m1/s1

> <PUBCHEM_IUPAC_INCHIKEY>
GDAPCCXIJOBGFV-LHJHVDGASA-N

> <PUBCHEM_XLOGP3>
1

> <PUBCHEM_EXACT_MASS>
248.141245

> <PUBCHEM_MOLECULAR_FORMULA>
C15H20O3

> <PUBCHEM_MOLECULAR_WEIGHT>
248.3175

> <PUBCHEM_OPENEYE_CAN_SMILES>
CC1=CC(CC(=CC2C(CC1)C(=C)C(=O)O2)C)O

> <PUBCHEM_OPENEYE_ISO_SMILES>
C/C/1=C\[C@H](C/C(=C/[C@H]2[C@H](CC1)C(=C)C(=O)O2)/C)O

> <PUBCHEM_CACTVS_TPSA>
46.5

> <PUBCHEM_MONOISOTOPIC_WEIGHT>
248.141245

> <PUBCHEM_TOTAL_CHARGE>
0

> <PUBCHEM_HEAVY_ATOM_COUNT>
18

> <PUBCHEM_ATOM_DEF_STEREO_COUNT>
3

> <PUBCHEM_ATOM_UDEF_STEREO_COUNT>
0

> <PUBCHEM_BOND_DEF_STEREO_COUNT>
2

> <PUBCHEM_BOND_UDEF_STEREO_COUNT>
0

> <PUBCHEM_ISOTOPIC_ATOM_COUNT>
0

> <PUBCHEM_COMPONENT_COUNT>
1

> <PUBCHEM_CACTVS_TAUTO_COUNT>
1

> <PUBCHEM_COORDINATE_TYPE>
1
5
255

> <PUBCHEM_BONDANNOTATIONS>
14  2  5
4  19  6
5  20  5

$$$$

