853921
  -OEChem-06241222463D

 31 32  0     0  0  0  0  0  0999 V2000
    1.3113   -0.0450    0.7771 S   0  0  0  0  0  0  0  0  0  0  0  0
   -1.4315   -2.0070    0.7224 O   0  0  0  0  0  0  0  0  0  0  0  0
    3.9762    0.5147    0.5997 N   0  0  0  0  0  0  0  0  0  0  0  0
   -1.8518   -0.0292   -0.4829 N   0  0  0  0  0  0  0  0  0  0  0  0
    3.2020   -0.6551   -1.0796 N   0  0  0  0  0  0  0  0  0  0  0  0
    4.5499   -0.4377   -1.2849 N   0  0  0  0  0  0  0  0  0  0  0  0
    4.0640    1.2402    1.8115 N   0  0  0  0  0  0  0  0  0  0  0  0
    2.9160   -0.0776    0.0368 C   0  0  0  0  0  0  0  0  0  0  0  0
    4.9957    0.2651   -0.2683 C   0  0  0  0  0  0  0  0  0  0  0  0
    0.3777   -0.9894   -0.4517 C   0  0  0  0  0  0  0  0  0  0  0  0
   -3.2112    0.2000   -0.2680 C   0  0  0  0  0  0  0  0  0  0  0  0
   -1.0643   -1.0849   -0.0014 C   0  0  0  0  0  0  0  0  0  0  0  0
    6.3775    0.7351   -0.0559 C   0  0  0  0  0  0  0  0  0  0  0  0
   -3.8288    1.3153   -0.8342 C   0  0  0  0  0  0  0  0  0  0  0  0
   -3.9529   -0.6867    0.5124 C   0  0  0  0  0  0  0  0  0  0  0  0
   -5.1880    1.5437   -0.6200 C   0  0  0  0  0  0  0  0  0  0  0  0
   -5.3122   -0.4584    0.7265 C   0  0  0  0  0  0  0  0  0  0  0  0
   -5.9297    0.6569    0.1603 C   0  0  0  0  0  0  0  0  0  0  0  0
    0.7799   -2.0038   -0.5429 H   0  0  0  0  0  0  0  0  0  0  0  0
    0.4372   -0.5078   -1.4331 H   0  0  0  0  0  0  0  0  0  0  0  0
   -1.3830    0.6648   -1.0611 H   0  0  0  0  0  0  0  0  0  0  0  0
    7.0223    0.4170   -0.8813 H   0  0  0  0  0  0  0  0  0  0  0  0
    6.4152    1.8276   -0.0034 H   0  0  0  0  0  0  0  0  0  0  0  0
    6.7921    0.3249    0.8703 H   0  0  0  0  0  0  0  0  0  0  0  0
   -3.2631    2.0147   -1.4447 H   0  0  0  0  0  0  0  0  0  0  0  0
   -3.5478   -1.5715    0.9826 H   0  0  0  0  0  0  0  0  0  0  0  0
   -5.6690    2.4120   -1.0608 H   0  0  0  0  0  0  0  0  0  0  0  0
   -5.8912   -1.1483    1.3337 H   0  0  0  0  0  0  0  0  0  0  0  0
    3.7940    0.6755    2.6160 H   0  0  0  0  0  0  0  0  0  0  0  0
    3.4488    2.0528    1.8164 H   0  0  0  0  0  0  0  0  0  0  0  0
   -6.9880    0.8347    0.3271 H   0  0  0  0  0  0  0  0  0  0  0  0
  1  8  1  0  0  0  0
  1 10  1  0  0  0  0
  2 12  2  0  0  0  0
  3  7  1  0  0  0  0
  3  8  1  0  0  0  0
  3  9  1  0  0  0  0
  4 11  1  0  0  0  0
  4 12  1  0  0  0  0
  4 21  1  0  0  0  0
  5  6  1  0  0  0  0
  5  8  2  0  0  0  0
  6  9  2  0  0  0  0
  7 29  1  0  0  0  0
  7 30  1  0  0  0  0
  9 13  1  0  0  0  0
 10 12  1  0  0  0  0
 10 19  1  0  0  0  0
 10 20  1  0  0  0  0
 11 14  2  0  0  0  0
 11 15  1  0  0  0  0
 13 22  1  0  0  0  0
 13 23  1  0  0  0  0
 13 24  1  0  0  0  0
 14 16  1  0  0  0  0
 14 25  1  0  0  0  0
 15 17  2  0  0  0  0
 15 26  1  0  0  0  0
 16 18  2  0  0  0  0
 16 27  1  0  0  0  0
 17 18  1  0  0  0  0
 17 28  1  0  0  0  0
 18 31  1  0  0  0  0
M  END
> <PUBCHEM_COMPOUND_CID>
853921

> <PUBCHEM_CONFORMER_RMSD>
0.6

> <PUBCHEM_CONFORMER_DIVERSEORDER>
1
48
12
44
150
25
41
51
96
18
105
136
145
124
88
159
100
142
112
152
101
133
158
9
94
33
90
7
154
61
125
5
45
115
109
57
29
65
91
15
160
165
2
71
155
62
34
141
148
35
66
55
144
157
164
128
59
74
36
118
31
81
139
43
127
10
21
163
98
116
161
108
106
19
47
129
28
95
131
73
92
143
69
22
93
168
52
78
135
13
120
102
97
86
3
72
42
153
126
40
63
14
151
27
113
130
104
121
89
82
137
4
8
156
169
68
149
16
24
123
84
60
167
58
122
17
53
119
146
83
110
107
79
64
11
87
99
50
147
117
6
138
85
162
20
140
134
46
114
103
80
39
30
77
56
32
76
75
26
38
37
23
132
67
166
49
70
54
111

> <PUBCHEM_MMFF94_PARTIAL_CHARGES>
26
1 -0.29
10 0.29
11 0.12
12 0.57
13 0.18
14 -0.15
15 -0.15
16 -0.15
17 -0.15
18 -0.15
2 -0.57
21 0.37
25 0.15
26 0.15
27 0.15
28 0.15
29 0.36
3 0.45
30 0.36
31 0.15
4 -0.55
5 -0.34
6 -0.34
7 -0.87
8 0.24
9 0.01

> <PUBCHEM_EFFECTIVE_ROTOR_COUNT>
5

> <PUBCHEM_PHARMACOPHORE_FEATURES>
7
1 2 acceptor
1 4 donor
1 7 donor
3 3 5 8 cation
3 3 6 9 cation
5 3 5 6 8 9 rings
6 11 14 15 16 17 18 rings

> <PUBCHEM_HEAVY_ATOM_COUNT>
18

> <PUBCHEM_ATOM_DEF_STEREO_COUNT>
0

> <PUBCHEM_ATOM_UDEF_STEREO_COUNT>
0

> <PUBCHEM_BOND_DEF_STEREO_COUNT>
0

> <PUBCHEM_BOND_UDEF_STEREO_COUNT>
0

> <PUBCHEM_ISOTOPIC_ATOM_COUNT>
0

> <PUBCHEM_COMPONENT_COUNT>
1

> <PUBCHEM_CACTVS_TAUTO_COUNT>
2

> <PUBCHEM_CONFORMER_ID>
000D07A100000001

> <PUBCHEM_MMFF94_ENERGY>
36.3008

> <PUBCHEM_FEATURE_SELFOVERLAP>
38.099

> <PUBCHEM_SHAPE_FINGERPRINT>
10354089 29 16056879135366048588
10912923 1 16487254361391730745
11128504 68 15574720183445543019
12107183 9 15980633672931016569
12236239 1 16845570907180072510
12516196 113 10879988056220441791
12596602 18 16630526232512903761
12730499 353 18259697913104351214
12916748 109 18412541037244607637
13288520 33 7637399627675630083
13533116 47 18335142054917488442
13668630 136 13840263680473767988
13685833 64 8646478636075516565
14341114 328 16630527353757506161
15183329 4 15719391758880972657
16079462 125 18186809045774057496
17834072 8 17821446859117743672
19489759 90 17918273152037524377
200 152 15357693098077151114
20281389 69 18273216396030809316
20374829 77 7493282236149669599
20645477 56 18408042892410416911
20645477 70 17458615757615409126
21033648 29 18335147478986105025
220451 1 4967617165450009351
221357 26 17240767310600142265
22224240 67 13542459827247254380
23198884 109 16370724833841453397
23402539 116 18412266121057504711
23402655 69 17095525084819952926
23559900 14 16660653908203123738
2916195 48 18409735040657838609
29717793 49 14129050405757297352
3545911 37 18335136488101373662
465052 167 10231753397074986752
5104073 3 17844523508594439001
542803 24 17275383201096795382
54446538 1 17632574937710285373
960060 61 15140962837945915760

> <PUBCHEM_SHAPE_MULTIPOLES>
343.51
16.17
1.36
1.09
4.31
0.1
-0.19
-5.82
-0.42
-1.29
-0.03
1.02
-0.12
1.21

> <PUBCHEM_SHAPE_SELFOVERLAP>
708.088

> <PUBCHEM_SHAPE_VOLUME>
198.9

> <PUBCHEM_COORDINATE_TYPE>
2
5
10

$$$$

