193545
  -OEChem-07051212503D

 17 17  0     0  0  0  0  0  0999 V2000
    2.4079    0.7265    1.1070 O   0  0  0  0  0  0  0  0  0  0  0  0
   -1.7562    0.2392    0.0191 N   0  0  0  0  0  0  0  0  0  0  0  0
   -0.1976   -1.3218    0.2763 N   0  0  0  0  0  0  0  0  0  0  0  0
    0.2967   -0.2795   -0.4672 C   0  0  0  0  0  0  0  0  0  0  0  0
   -0.6520    0.7007   -0.6404 C   0  0  0  0  0  0  0  0  0  0  0  0
    1.6787   -0.3067   -0.9697 C   0  0  0  0  0  0  0  0  0  0  0  0
   -1.4357   -0.9778    0.5533 C   0  0  0  0  0  0  0  0  0  0  0  0
   -3.0265    0.9128    0.1332 C   0  0  0  0  0  0  0  0  0  0  0  0
    2.6847    0.3065   -0.0116 C   0  0  0  0  0  0  0  0  0  0  0  0
   -0.6368    1.6514   -1.1554 H   0  0  0  0  0  0  0  0  0  0  0  0
    1.9952   -1.3378   -1.1612 H   0  0  0  0  0  0  0  0  0  0  0  0
    1.7525    0.2416   -1.9155 H   0  0  0  0  0  0  0  0  0  0  0  0
   -2.1381   -1.5629    1.1313 H   0  0  0  0  0  0  0  0  0  0  0  0
   -3.0070    1.5241    1.0386 H   0  0  0  0  0  0  0  0  0  0  0  0
   -3.1785    1.5411   -0.7481 H   0  0  0  0  0  0  0  0  0  0  0  0
   -3.8220    0.1659    0.1940 H   0  0  0  0  0  0  0  0  0  0  0  0
    3.7224    0.3430   -0.3859 H   0  0  0  0  0  0  0  0  0  0  0  0
  1  9  2  0  0  0  0
  2  5  1  0  0  0  0
  2  7  1  0  0  0  0
  2  8  1  0  0  0  0
  3  4  1  0  0  0  0
  3  7  2  0  0  0  0
  4  5  2  0  0  0  0
  4  6  1  0  0  0  0
  5 10  1  0  0  0  0
  6  9  1  0  0  0  0
  6 11  1  0  0  0  0
  6 12  1  0  0  0  0
  7 13  1  0  0  0  0
  8 14  1  0  0  0  0
  8 15  1  0  0  0  0
  8 16  1  0  0  0  0
  9 17  1  0  0  0  0
M  END
> <PUBCHEM_COMPOUND_CID>
193545

> <PUBCHEM_CONFORMER_RMSD>
0.4

> <PUBCHEM_CONFORMER_DIVERSEORDER>
1
9
10
11
6
5
7
12
2
8
3
4

> <PUBCHEM_MMFF94_PARTIAL_CHARGES>
12
1 -0.57
10 0.15
13 0.15
17 0.06
2 0.05
3 -0.57
4 0.05
5 -0.3
6 0.24
7 0.04
8 0.26
9 0.45

> <PUBCHEM_EFFECTIVE_ROTOR_COUNT>
2

> <PUBCHEM_PHARMACOPHORE_FEATURES>
3
1 1 acceptor
3 2 3 7 cation
5 2 3 4 5 7 rings

> <PUBCHEM_HEAVY_ATOM_COUNT>
9

> <PUBCHEM_ATOM_DEF_STEREO_COUNT>
0

> <PUBCHEM_ATOM_UDEF_STEREO_COUNT>
0

> <PUBCHEM_BOND_DEF_STEREO_COUNT>
0

> <PUBCHEM_BOND_UDEF_STEREO_COUNT>
0

> <PUBCHEM_ISOTOPIC_ATOM_COUNT>
0

> <PUBCHEM_COMPONENT_COUNT>
1

> <PUBCHEM_CACTVS_TAUTO_COUNT>
2

> <PUBCHEM_CONFORMER_ID>
0002F40900000001

> <PUBCHEM_MMFF94_ENERGY>
4.9089

> <PUBCHEM_FEATURE_SELFOVERLAP>
15.223

> <PUBCHEM_SHAPE_FINGERPRINT>
10857977 72 18272079462141655499
12897270 3 6483351144750674256
12932741 1 17895739743083409822
14390081 3 18187082892567161713
20645464 45 18335702719763016070
20653085 51 16733529624379973513
21040471 1 18201145650528545703
21293036 1 5761639391574538113
23235685 24 18272365399457602516
23552423 10 16770684132189913263
29004967 10 17458613523725661662
369184 2 18408610236025555226
5084963 1 18270107054024009404

> <PUBCHEM_SHAPE_MULTIPOLES>
169.38
4.02
1.11
0.92
0.01
0.22
0.04
-1.3
0.71
0.4
0.1
-0.46
-0.07
0.29

> <PUBCHEM_SHAPE_SELFOVERLAP>
343.312

> <PUBCHEM_SHAPE_VOLUME>
102

> <PUBCHEM_COORDINATE_TYPE>
2
5
10

$$$$

