9537
  -OEChem-06261203473D

 21 20  0     0  0  0  0  0  0999 V2000
   -4.8899    0.1289    0.0425 F   0  0  0  0  0  0  0  0  0  0  0  0
    4.7941   -0.5969    0.0194 N   0  0  0  0  0  0  0  0  0  0  0  0
   -0.0177    0.5817   -0.0223 C   0  0  0  0  0  0  0  0  0  0  0  0
   -1.2090   -0.3798   -0.0284 C   0  0  0  0  0  0  0  0  0  0  0  0
    1.3103   -0.1842    0.0098 C   0  0  0  0  0  0  0  0  0  0  0  0
   -2.5612    0.3317    0.0089 C   0  0  0  0  0  0  0  0  0  0  0  0
    2.5296    0.7390   -0.0110 C   0  0  0  0  0  0  0  0  0  0  0  0
   -3.7504   -0.6122   -0.0250 C   0  0  0  0  0  0  0  0  0  0  0  0
    3.7943   -0.0083    0.0062 C   0  0  0  0  0  0  0  0  0  0  0  0
   -0.0801    1.2408    0.8519 H   0  0  0  0  0  0  0  0  0  0  0  0
   -0.0562    1.2192   -0.9137 H   0  0  0  0  0  0  0  0  0  0  0  0
   -1.1587   -1.0107   -0.9246 H   0  0  0  0  0  0  0  0  0  0  0  0
   -1.1378   -1.0517    0.8359 H   0  0  0  0  0  0  0  0  0  0  0  0
    1.3451   -0.8144    0.9081 H   0  0  0  0  0  0  0  0  0  0  0  0
    1.3561   -0.8659   -0.8496 H   0  0  0  0  0  0  0  0  0  0  0  0
   -2.6286    0.9519    0.9110 H   0  0  0  0  0  0  0  0  0  0  0  0
   -2.6392    1.0259   -0.8367 H   0  0  0  0  0  0  0  0  0  0  0  0
    2.4955    1.3706   -0.9064 H   0  0  0  0  0  0  0  0  0  0  0  0
    2.4942    1.4116    0.8540 H   0  0  0  0  0  0  0  0  0  0  0  0
   -3.7433   -1.2981    0.8268 H   0  0  0  0  0  0  0  0  0  0  0  0
   -3.7774   -1.1921   -0.9520 H   0  0  0  0  0  0  0  0  0  0  0  0
  1  8  1  0  0  0  0
  2  9  3  0  0  0  0
  3  4  1  0  0  0  0
  3  5  1  0  0  0  0
  3 10  1  0  0  0  0
  3 11  1  0  0  0  0
  4  6  1  0  0  0  0
  4 12  1  0  0  0  0
  4 13  1  0  0  0  0
  5  7  1  0  0  0  0
  5 14  1  0  0  0  0
  5 15  1  0  0  0  0
  6  8  1  0  0  0  0
  6 16  1  0  0  0  0
  6 17  1  0  0  0  0
  7  9  1  0  0  0  0
  7 18  1  0  0  0  0
  7 19  1  0  0  0  0
  8 20  1  0  0  0  0
  8 21  1  0  0  0  0
M  END
> <PUBCHEM_COMPOUND_CID>
9537

> <PUBCHEM_CONFORMER_RMSD>
0.6

> <PUBCHEM_CONFORMER_DIVERSEORDER>
1
75
30
14
78
62
38
67
8
2
73
45
34
70
7
27
19
66
31
32
71
64
22
41
39
13
65
26
50
77
9
43
46
79
18
15
42
6
37
60
48
72
12
51
69
47
16
25
57
53
58
36
11
35
10
17
63
24
55
74
52
59
49
3
29
68
21
61
76
20
5
54
56
23
28
44
4
40
33

> <PUBCHEM_MMFF94_PARTIAL_CHARGES>
5
1 -0.34
2 -0.56
7 0.2
8 0.34
9 0.36

> <PUBCHEM_EFFECTIVE_ROTOR_COUNT>
5

> <PUBCHEM_PHARMACOPHORE_FEATURES>
2
1 2 acceptor
5 3 4 5 6 7 hydrophobe

> <PUBCHEM_HEAVY_ATOM_COUNT>
9

> <PUBCHEM_ATOM_DEF_STEREO_COUNT>
0

> <PUBCHEM_ATOM_UDEF_STEREO_COUNT>
0

> <PUBCHEM_BOND_DEF_STEREO_COUNT>
0

> <PUBCHEM_BOND_UDEF_STEREO_COUNT>
0

> <PUBCHEM_ISOTOPIC_ATOM_COUNT>
0

> <PUBCHEM_COMPONENT_COUNT>
1

> <PUBCHEM_CACTVS_TAUTO_COUNT>
1

> <PUBCHEM_CONFORMER_ID>
0000254100000001

> <PUBCHEM_MMFF94_ENERGY>
-0.0798

> <PUBCHEM_FEATURE_SELFOVERLAP>
10.148

> <PUBCHEM_SHAPE_FINGERPRINT>
11062470 55 9223232948776319436
114248 4 11312054348588788501
12932764 1 15553899784043709964
14123238 8 7997969076651566641
17834076 25 14764349344829343357
18342897 14 9223232948649952830
20719005 15 18410856559639802567
20828058 44 17676206844940263855
21119208 17 17203890755766531862
21293036 1 12535629375364451100
22485316 2 18333454222563079062
23402539 116 17458069278782218781
42788 4 18410856559645103301

> <PUBCHEM_SHAPE_MULTIPOLES>
172.96
9.81
0.81
0.6
0.73
0.02
0
-1.43
-0.1
-0.13
0
-0.01
0
-0.02

> <PUBCHEM_SHAPE_SELFOVERLAP>
308.625

> <PUBCHEM_SHAPE_VOLUME>
110.1

> <PUBCHEM_COORDINATE_TYPE>
2
5
10

$$$$

