251624
  -OEChem-07051213062D

 47 49  0     0  0  0  0  0  0999 V2000
    6.3301    2.0670    0.0000 O   0  0  0  0  0  0  0  0  0  0  0  0
    9.8602    2.0911    0.0000 O   0  0  0  0  0  0  0  0  0  0  0  0
    2.0000   -1.4330    0.0000 O   0  0  0  0  0  0  0  0  0  0  0  0
   10.7321    0.5945    0.0000 O   0  0  0  0  0  0  0  0  0  0  0  0
    5.4641    1.5670    0.0000 C   0  0  0  0  0  0  0  0  0  0  0  0
    5.4641    0.5670    0.0000 C   0  0  0  0  0  0  0  0  0  0  0  0
    6.3301    0.0670    0.0000 C   0  0  0  0  0  0  0  0  0  0  0  0
    7.1962    0.5670    0.0000 C   0  0  0  0  0  0  0  0  0  0  0  0
    4.9641    2.4330    0.0000 C   0  0  0  0  0  0  0  0  0  0  0  0
    4.4641    1.5670    0.0000 C   0  0  0  0  0  0  0  0  0  0  0  0
    7.1962    1.5670    0.0000 C   0  0  0  0  0  0  0  0  0  0  0  0
    4.5981    0.0670    0.0000 C   0  0  0  0  0  0  0  0  0  0  0  0
    6.3301   -0.9330    0.0000 C   0  0  0  0  0  0  0  0  0  0  0  0
    8.0901    0.0323    0.0000 C   0  0  0  0  0  0  0  0  0  0  0  0
    8.0901    2.1016    0.0000 C   0  0  0  0  0  0  0  0  0  0  0  0
    3.7320    0.5670    0.0000 C   0  0  0  0  0  0  0  0  0  0  0  0
    4.5981   -0.9330    0.0000 C   0  0  0  0  0  0  0  0  0  0  0  0
    8.9962    1.5878    0.0000 C   0  0  0  0  0  0  0  0  0  0  0  0
    8.9962    0.5462    0.0000 C   0  0  0  0  0  0  0  0  0  0  0  0
    2.8660    0.0670    0.0000 C   0  0  0  0  0  0  0  0  0  0  0  0
    3.7320   -1.4330    0.0000 C   0  0  0  0  0  0  0  0  0  0  0  0
    2.8660   -0.9330    0.0000 C   0  0  0  0  0  0  0  0  0  0  0  0
   10.7282    1.5945    0.0000 C   0  0  0  0  0  0  0  0  0  0  0  0
    2.0000   -2.4330    0.0000 C   0  0  0  0  0  0  0  0  0  0  0  0
   11.5923    2.0978    0.0000 C   0  0  0  0  0  0  0  0  0  0  0  0
    5.5010    2.7430    0.0000 H   0  0  0  0  0  0  0  0  0  0  0  0
    4.6541    2.9700    0.0000 H   0  0  0  0  0  0  0  0  0  0  0  0
    4.4272    2.1230    0.0000 H   0  0  0  0  0  0  0  0  0  0  0  0
    4.4641    2.1870    0.0000 H   0  0  0  0  0  0  0  0  0  0  0  0
    3.8441    1.5670    0.0000 H   0  0  0  0  0  0  0  0  0  0  0  0
    4.4641    0.9470    0.0000 H   0  0  0  0  0  0  0  0  0  0  0  0
    5.7101   -0.9330    0.0000 H   0  0  0  0  0  0  0  0  0  0  0  0
    6.3301   -1.5530    0.0000 H   0  0  0  0  0  0  0  0  0  0  0  0
    6.9501   -0.9330    0.0000 H   0  0  0  0  0  0  0  0  0  0  0  0
    8.0829   -0.5876    0.0000 H   0  0  0  0  0  0  0  0  0  0  0  0
    8.0829    2.7216    0.0000 H   0  0  0  0  0  0  0  0  0  0  0  0
    3.7320    1.1870    0.0000 H   0  0  0  0  0  0  0  0  0  0  0  0
    5.1350   -1.2430    0.0000 H   0  0  0  0  0  0  0  0  0  0  0  0
    9.5319    0.2341    0.0000 H   0  0  0  0  0  0  0  0  0  0  0  0
    2.3291    0.3770    0.0000 H   0  0  0  0  0  0  0  0  0  0  0  0
    3.7320   -2.0530    0.0000 H   0  0  0  0  0  0  0  0  0  0  0  0
    1.3800   -2.4330    0.0000 H   0  0  0  0  0  0  0  0  0  0  0  0
    2.0000   -3.0530    0.0000 H   0  0  0  0  0  0  0  0  0  0  0  0
    2.6200   -2.4330    0.0000 H   0  0  0  0  0  0  0  0  0  0  0  0
   11.9044    1.5621    0.0000 H   0  0  0  0  0  0  0  0  0  0  0  0
   12.1280    2.4099    0.0000 H   0  0  0  0  0  0  0  0  0  0  0  0
   11.2802    2.6336    0.0000 H   0  0  0  0  0  0  0  0  0  0  0  0
  1  5  1  0  0  0  0
  1 11  1  0  0  0  0
  2 18  1  0  0  0  0
  2 23  1  0  0  0  0
  3 22  1  0  0  0  0
  3 24  1  0  0  0  0
  4 23  2  0  0  0  0
  5  6  1  0  0  0  0
  5  9  1  0  0  0  0
  5 10  1  0  0  0  0
  6  7  2  0  0  0  0
  6 12  1  0  0  0  0
  7  8  1  0  0  0  0
  7 13  1  0  0  0  0
  8 11  2  0  0  0  0
  8 14  1  0  0  0  0
  9 26  1  0  0  0  0
  9 27  1  0  0  0  0
  9 28  1  0  0  0  0
 10 29  1  0  0  0  0
 10 30  1  0  0  0  0
 10 31  1  0  0  0  0
 11 15  1  0  0  0  0
 12 16  2  0  0  0  0
 12 17  1  0  0  0  0
 13 32  1  0  0  0  0
 13 33  1  0  0  0  0
 13 34  1  0  0  0  0
 14 19  2  0  0  0  0
 14 35  1  0  0  0  0
 15 18  2  0  0  0  0
 15 36  1  0  0  0  0
 16 20  1  0  0  0  0
 16 37  1  0  0  0  0
 17 21  2  0  0  0  0
 17 38  1  0  0  0  0
 18 19  1  0  0  0  0
 19 39  1  0  0  0  0
 20 22  2  0  0  0  0
 20 40  1  0  0  0  0
 21 22  1  0  0  0  0
 21 41  1  0  0  0  0
 23 25  1  0  0  0  0
 24 42  1  0  0  0  0
 24 43  1  0  0  0  0
 24 44  1  0  0  0  0
 25 45  1  0  0  0  0
 25 46  1  0  0  0  0
 25 47  1  0  0  0  0
M  END
> <PUBCHEM_COMPOUND_CID>
251624

> <PUBCHEM_COMPOUND_CANONICALIZED>
1

> <PUBCHEM_CACTVS_COMPLEXITY>
528

> <PUBCHEM_CACTVS_HBOND_ACCEPTOR>
4

> <PUBCHEM_CACTVS_HBOND_DONOR>
0

> <PUBCHEM_CACTVS_ROTATABLE_BOND>
4

> <PUBCHEM_CACTVS_SUBSKEYS>
AAADceB4OAAAAAAAAAAAAAAAAAAAAAAAAAAwYIAAAAAAAACBQAAAGgAAAAAADESAmAIyDoAABACIAiDSCAACCAAgIAAIiAAGCIgMJyKEMRqCOiClwBUIqAeA4OwOIAAACAAIAABAAAAQABAAAAAAAAAAAA==

> <PUBCHEM_IUPAC_OPENEYE_NAME>
[3-(4-methoxyphenyl)-2,2,4-trimethyl-chromen-7-yl] acetate

> <PUBCHEM_IUPAC_CAS_NAME>
acetic acid [3-(4-methoxyphenyl)-2,2,4-trimethyl-1-benzopyran-7-yl] ester

> <PUBCHEM_IUPAC_NAME>
[3-(4-methoxyphenyl)-2,2,4-trimethylchromen-7-yl] acetate

> <PUBCHEM_IUPAC_SYSTEMATIC_NAME>
[3-(4-methoxyphenyl)-2,2,4-trimethyl-chromen-7-yl] ethanoate

> <PUBCHEM_IUPAC_TRADITIONAL_NAME>
acetic acid [3-(4-methoxyphenyl)-2,2,4-trimethyl-chromen-7-yl] ester

> <PUBCHEM_IUPAC_INCHI>
InChI=1S/C21H22O4/c1-13-18-11-10-17(24-14(2)22)12-19(18)25-21(3,4)20(13)15-6-8-16(23-5)9-7-15/h6-12H,1-5H3

> <PUBCHEM_IUPAC_INCHIKEY>
FBKRESBGJGGEEA-UHFFFAOYSA-N

> <PUBCHEM_XLOGP3_AA>
3.7

> <PUBCHEM_EXACT_MASS>
338.151809

> <PUBCHEM_MOLECULAR_FORMULA>
C21H22O4

> <PUBCHEM_MOLECULAR_WEIGHT>
338.39698

> <PUBCHEM_OPENEYE_CAN_SMILES>
CC1=C(C(OC2=C1C=CC(=C2)OC(=O)C)(C)C)C3=CC=C(C=C3)OC

> <PUBCHEM_OPENEYE_ISO_SMILES>
CC1=C(C(OC2=C1C=CC(=C2)OC(=O)C)(C)C)C3=CC=C(C=C3)OC

> <PUBCHEM_CACTVS_TPSA>
44.8

> <PUBCHEM_MONOISOTOPIC_WEIGHT>
338.151809

> <PUBCHEM_TOTAL_CHARGE>
0

> <PUBCHEM_HEAVY_ATOM_COUNT>
25

> <PUBCHEM_ATOM_DEF_STEREO_COUNT>
0

> <PUBCHEM_ATOM_UDEF_STEREO_COUNT>
0

> <PUBCHEM_BOND_DEF_STEREO_COUNT>
0

> <PUBCHEM_BOND_UDEF_STEREO_COUNT>
0

> <PUBCHEM_ISOTOPIC_ATOM_COUNT>
0

> <PUBCHEM_COMPONENT_COUNT>
1

> <PUBCHEM_CACTVS_TAUTO_COUNT>
1

> <PUBCHEM_COORDINATE_TYPE>
1
5
255

> <PUBCHEM_BONDANNOTATIONS>
11  15  8
12  16  8
12  17  8
14  19  8
15  18  8
16  20  8
17  21  8
18  19  8
20  22  8
21  22  8
8  11  8
8  14  8

$$$$

