441860
  -OEChem-07051212562D

 80 85  0     1  0  0  0  0  0999 V2000
   11.3876   -1.6432    0.0000 O   0  0  0  0  0  0  0  0  0  0  0  0
    8.7298   -3.1916    0.0000 O   0  0  0  0  0  0  0  0  0  0  0  0
    5.9945   -2.6956    0.0000 O   0  0  0  0  0  0  0  0  0  0  0  0
    7.4273   -0.0265    0.0000 O   0  0  0  0  0  0  0  0  0  0  0  0
   12.6473    3.2300    0.0000 O   0  0  0  0  0  0  0  0  0  0  0  0
    4.2625   -2.6889    0.0000 O   0  0  0  0  0  0  0  0  0  0  0  0
   14.4078    3.5058    0.0000 O   0  0  0  0  0  0  0  0  0  0  0  0
    4.2740    0.3111    0.0000 O   0  0  0  0  0  0  0  0  0  0  0  0
    2.5381   -0.6822    0.0000 O   0  0  0  0  0  0  0  0  0  0  0  0
   11.3876   -0.6432    0.0000 C   0  0  1  0  0  0  0  0  0  0  0  0
   10.5216   -1.1432    0.0000 C   0  0  1  0  0  0  0  0  0  0  0  0
   11.3876    0.3568    0.0000 C   0  0  1  0  0  0  0  0  0  0  0  0
    9.6555   -0.6432    0.0000 C   0  0  1  0  0  0  0  0  0  0  0  0
    8.7455   -1.1501    0.0000 C   0  0  2  0  0  0  0  0  0  0  0  0
    8.7375   -2.1917    0.0000 C   0  0  1  0  0  0  0  0  0  0  0  0
   12.3338    0.6615    0.0000 C   0  0  2  0  0  0  0  0  0  0  0  0
   10.5216    0.8568    0.0000 C   0  0  0  0  0  0  0  0  0  0  0  0
    9.6555    0.3568    0.0000 C   0  0  0  0  0  0  0  0  0  0  0  0
   12.3338   -0.9480    0.0000 C   0  0  0  0  0  0  0  0  0  0  0  0
   10.5376   -2.1847    0.0000 C   0  0  0  0  0  0  0  0  0  0  0  0
    9.6396   -2.7125    0.0000 C   0  0  0  0  0  0  0  0  0  0  0  0
   12.9174   -0.1432    0.0000 C   0  0  0  0  0  0  0  0  0  0  0  0
    7.8187   -0.5860    0.0000 C   0  0  0  0  0  0  0  0  0  0  0  0
    7.8021   -2.7414    0.0000 C   0  0  0  0  0  0  0  0  0  0  0  0
   11.3876    1.3568    0.0000 C   0  0  0  0  0  0  0  0  0  0  0  0
    6.8708   -1.1139    0.0000 C   0  0  0  0  0  0  0  0  0  0  0  0
    6.8624   -2.1989    0.0000 C   0  0  2  0  0  0  0  0  0  0  0  0
    8.4108   -0.2078    0.0000 C   0  0  0  0  0  0  0  0  0  0  0  0
   12.6445    1.6120    0.0000 C   0  0  0  0  0  0  0  0  0  0  0  0
   12.0581    2.4221    0.0000 C   0  0  0  0  0  0  0  0  0  0  0  0
   13.5960    1.9194    0.0000 C   0  0  0  0  0  0  0  0  0  0  0  0
    5.1304   -2.1922    0.0000 C   0  0  2  0  0  0  0  0  0  0  0  0
   13.5978    2.9194    0.0000 C   0  0  0  0  0  0  0  0  0  0  0  0
    5.1343   -1.1922    0.0000 C   0  0  0  0  0  0  0  0  0  0  0  0
    4.2702   -0.6889    0.0000 C   0  0  1  0  0  0  0  0  0  0  0  0
    3.3984   -2.1856    0.0000 C   0  0  1  0  0  0  0  0  0  0  0  0
    3.4022   -1.1856    0.0000 C   0  0  1  0  0  0  0  0  0  0  0  0
    2.5304   -2.6822    0.0000 C   0  0  0  0  0  0  0  0  0  0  0  0
   11.2609   -1.5625    0.0000 H   0  0  0  0  0  0  0  0  0  0  0  0
   10.3916   -0.2182    0.0000 H   0  0  0  0  0  0  0  0  0  0  0  0
   12.9463    0.7577    0.0000 H   0  0  0  0  0  0  0  0  0  0  0  0
   10.9201    1.3317    0.0000 H   0  0  0  0  0  0  0  0  0  0  0  0
   10.1230    1.3317    0.0000 H   0  0  0  0  0  0  0  0  0  0  0  0
    9.4435    0.9394    0.0000 H   0  0  0  0  0  0  0  0  0  0  0  0
    9.0450    0.2491    0.0000 H   0  0  0  0  0  0  0  0  0  0  0  0
   12.0828   -1.5149    0.0000 H   0  0  0  0  0  0  0  0  0  0  0  0
   12.8712   -1.2572    0.0000 H   0  0  0  0  0  0  0  0  0  0  0  0
   10.7556   -2.7651    0.0000 H   0  0  0  0  0  0  0  0  0  0  0  0
   11.1468   -2.0692    0.0000 H   0  0  0  0  0  0  0  0  0  0  0  0
    9.2423   -3.1885    0.0000 H   0  0  0  0  0  0  0  0  0  0  0  0
   10.0405   -3.1854    0.0000 H   0  0  0  0  0  0  0  0  0  0  0  0
   13.3783   -0.5580    0.0000 H   0  0  0  0  0  0  0  0  0  0  0  0
   13.3783    0.2715    0.0000 H   0  0  0  0  0  0  0  0  0  0  0  0
    8.2269   -0.1193    0.0000 H   0  0  0  0  0  0  0  0  0  0  0  0
    7.4288   -0.1040    0.0000 H   0  0  0  0  0  0  0  0  0  0  0  0
    7.4048   -3.2174    0.0000 H   0  0  0  0  0  0  0  0  0  0  0  0
    8.2030   -3.2143    0.0000 H   0  0  0  0  0  0  0  0  0  0  0  0
   12.0076    1.3568    0.0000 H   0  0  0  0  0  0  0  0  0  0  0  0
   11.3876    1.9768    0.0000 H   0  0  0  0  0  0  0  0  0  0  0  0
   10.7676    1.3568    0.0000 H   0  0  0  0  0  0  0  0  0  0  0  0
    6.6662   -0.5287    0.0000 H   0  0  0  0  0  0  0  0  0  0  0  0
    6.2592   -1.2153    0.0000 H   0  0  0  0  0  0  0  0  0  0  0  0
    6.8612   -2.8189    0.0000 H   0  0  0  0  0  0  0  0  0  0  0  0
   11.9245   -1.9532    0.0000 H   0  0  0  0  0  0  0  0  0  0  0  0
    8.8129    0.2641    0.0000 H   0  0  0  0  0  0  0  0  0  0  0  0
    9.2643   -3.5058    0.0000 H   0  0  0  0  0  0  0  0  0  0  0  0
   11.5980    2.8377    0.0000 H   0  0  0  0  0  0  0  0  0  0  0  0
   11.5966    2.0080    0.0000 H   0  0  0  0  0  0  0  0  0  0  0  0
   14.0970    1.5541    0.0000 H   0  0  0  0  0  0  0  0  0  0  0  0
    5.1280   -2.8122    0.0000 H   0  0  0  0  0  0  0  0  0  0  0  0
    5.7444   -1.3022    0.0000 H   0  0  0  0  0  0  0  0  0  0  0  0
    5.3486   -0.6104    0.0000 H   0  0  0  0  0  0  0  0  0  0  0  0
    3.7344   -0.3768    0.0000 H   0  0  0  0  0  0  0  0  0  0  0  0
    3.3960   -2.8056    0.0000 H   0  0  0  0  0  0  0  0  0  0  0  0
    2.8641   -1.4935    0.0000 H   0  0  0  0  0  0  0  0  0  0  0  0
    2.2225   -2.1441    0.0000 H   0  0  0  0  0  0  0  0  0  0  0  0
    1.9923   -2.9901    0.0000 H   0  0  0  0  0  0  0  0  0  0  0  0
    2.8384   -3.2203    0.0000 H   0  0  0  0  0  0  0  0  0  0  0  0
    3.7383    0.6232    0.0000 H   0  0  0  0  0  0  0  0  0  0  0  0
    2.0000   -0.9902    0.0000 H   0  0  0  0  0  0  0  0  0  0  0  0
 10  1  1  1  0  0  0
  1 64  1  0  0  0  0
 15  2  1  1  0  0  0
  2 66  1  0  0  0  0
 27  3  1  1  0  0  0
 32  3  1  6  0  0  0
  4 28  2  0  0  0  0
  5 30  1  0  0  0  0
  5 33  1  0  0  0  0
  6 32  1  0  0  0  0
  6 36  1  0  0  0  0
  7 33  2  0  0  0  0
 35  8  1  1  0  0  0
  8 79  1  0  0  0  0
 37  9  1  1  0  0  0
  9 80  1  0  0  0  0
 10 11  1  0  0  0  0
 10 12  1  0  0  0  0
 10 19  1  0  0  0  0
 11 13  1  0  0  0  0
 11 20  1  0  0  0  0
 11 39  1  1  0  0  0
 12 16  1  0  0  0  0
 12 17  1  0  0  0  0
 12 25  1  1  0  0  0
 13 14  1  0  0  0  0
 13 18  1  0  0  0  0
 13 40  1  6  0  0  0
 14 15  1  0  0  0  0
 14 23  1  0  0  0  0
 14 28  1  1  0  0  0
 15 21  1  0  0  0  0
 15 24  1  0  0  0  0
 16 22  1  0  0  0  0
 16 29  1  1  0  0  0
 16 41  1  0  0  0  0
 17 18  1  0  0  0  0
 17 42  1  0  0  0  0
 17 43  1  0  0  0  0
 18 44  1  0  0  0  0
 18 45  1  0  0  0  0
 19 22  1  0  0  0  0
 19 46  1  0  0  0  0
 19 47  1  0  0  0  0
 20 21  1  0  0  0  0
 20 48  1  0  0  0  0
 20 49  1  0  0  0  0
 21 50  1  0  0  0  0
 21 51  1  0  0  0  0
 22 52  1  0  0  0  0
 22 53  1  0  0  0  0
 23 26  1  0  0  0  0
 23 54  1  0  0  0  0
 23 55  1  0  0  0  0
 24 27  1  0  0  0  0
 24 56  1  0  0  0  0
 24 57  1  0  0  0  0
 25 58  1  0  0  0  0
 25 59  1  0  0  0  0
 25 60  1  0  0  0  0
 26 27  1  0  0  0  0
 26 61  1  0  0  0  0
 26 62  1  0  0  0  0
 27 63  1  0  0  0  0
 28 65  1  0  0  0  0
 29 30  1  0  0  0  0
 29 31  2  0  0  0  0
 30 67  1  0  0  0  0
 30 68  1  0  0  0  0
 31 33  1  0  0  0  0
 31 69  1  0  0  0  0
 32 34  1  0  0  0  0
 32 70  1  0  0  0  0
 34 35  1  0  0  0  0
 34 71  1  0  0  0  0
 34 72  1  0  0  0  0
 35 37  1  0  0  0  0
 35 73  1  0  0  0  0
 36 37  1  0  0  0  0
 36 38  1  6  0  0  0
 36 74  1  0  0  0  0
 37 75  1  0  0  0  0
 38 76  1  0  0  0  0
 38 77  1  0  0  0  0
 38 78  1  0  0  0  0
M  END
> <PUBCHEM_COMPOUND_CID>
441860

> <PUBCHEM_COMPOUND_CANONICALIZED>
1

> <PUBCHEM_CACTVS_COMPLEXITY>
1010

> <PUBCHEM_CACTVS_HBOND_ACCEPTOR>
9

> <PUBCHEM_CACTVS_HBOND_DONOR>
4

> <PUBCHEM_CACTVS_ROTATABLE_BOND>
4

> <PUBCHEM_CACTVS_SUBSKEYS>
AAADcfB4PAAAAAAAAAAAAAAAAAAAAYIAAAA0YMEAAAAAAGDAAAAAGgAACAAAD1SwgAMCCAAABgCIAijSiAAAAAAgAAAACAEAAEgRFBYAIQAiUAAFoAAPIQPI7PzPgAAAAAAAAADAAAYQADAAAYAADAAAAA==

> <PUBCHEM_IUPAC_OPENEYE_NAME>
(3S,5S,8R,9S,10S,13R,14S,17R)-3-[(2R,4S,5S,6R)-4,5-dihydroxy-6-methyl-tetrahydropyran-2-yl]oxy-5,14-dihydroxy-13-methyl-17-(5-oxo-2H-furan-3-yl)-2,3,4,6,7,8,9,11,12,15,16,17-dodecahydro-1H-cyclopenta[a]phenanthrene-10-carbaldehyde

> <PUBCHEM_IUPAC_CAS_NAME>
(3S,5S,8R,9S,10S,13R,14S,17R)-3-[[(2R,4S,5S,6R)-4,5-dihydroxy-6-methyl-2-oxanyl]oxy]-5,14-dihydroxy-13-methyl-17-(5-oxo-2H-furan-3-yl)-2,3,4,6,7,8,9,11,12,15,16,17-dodecahydro-1H-cyclopenta[a]phenanthrene-10-carboxaldehyde

> <PUBCHEM_IUPAC_NAME>
(3S,5S,8R,9S,10S,13R,14S,17R)-3-[(2R,4S,5S,6R)-4,5-dihydroxy-6-methyloxan-2-yl]oxy-5,14-dihydroxy-13-methyl-17-(5-oxo-2H-furan-3-yl)-2,3,4,6,7,8,9,11,12,15,16,17-dodecahydro-1H-cyclopenta[a]phenanthrene-10-carbaldehyde

> <PUBCHEM_IUPAC_SYSTEMATIC_NAME>
(3S,5S,8R,9S,10S,13R,14S,17R)-13-methyl-3-[(2R,4S,5S,6R)-6-methyl-4,5-bis(oxidanyl)oxan-2-yl]oxy-5,14-bis(oxidanyl)-17-(5-oxidanylidene-2H-furan-3-yl)-2,3,4,6,7,8,9,11,12,15,16,17-dodecahydro-1H-cyclopenta[a]phenanthrene-10-carbaldehyde

> <PUBCHEM_IUPAC_TRADITIONAL_NAME>
(3S,5S,8R,9S,10S,13R,14S,17R)-3-[(2R,4S,5S,6R)-4,5-dihydroxy-6-methyl-tetrahydropyran-2-yl]oxy-5,14-dihydroxy-17-(5-keto-2H-furan-3-yl)-13-methyl-2,3,4,6,7,8,9,11,12,15,16,17-dodecahydro-1H-cyclopenta[a]phenanthrene-10-carbaldehyde

> <PUBCHEM_IUPAC_INCHI>
InChI=1S/C29H42O9/c1-16-25(33)22(31)12-24(37-16)38-18-3-8-27(15-30)20-4-7-26(2)19(17-11-23(32)36-14-17)6-10-29(26,35)21(20)5-9-28(27,34)13-18/h11,15-16,18-22,24-25,31,33-35H,3-10,12-14H2,1-2H3/t16-,18+,19-,20+,21-,22+,24+,25-,26-,27+,28+,29+/m1/s1

> <PUBCHEM_IUPAC_INCHIKEY>
QBILRDAMJUPXCX-AGAUEGNUSA-N

> <PUBCHEM_XLOGP3>
0.3

> <PUBCHEM_EXACT_MASS>
534.282883

> <PUBCHEM_MOLECULAR_FORMULA>
C29H42O9

> <PUBCHEM_MOLECULAR_WEIGHT>
534.63838

> <PUBCHEM_OPENEYE_CAN_SMILES>
CC1C(C(CC(O1)OC2CCC3(C4CCC5(C(CCC5(C4CCC3(C2)O)O)C6=CC(=O)OC6)C)C=O)O)O

> <PUBCHEM_OPENEYE_ISO_SMILES>
C[C@@H]1[C@H]([C@H](C[C@@H](O1)O[C@H]2CC[C@@]3([C@H]4CC[C@@]5([C@H](CC[C@@]5([C@@H]4CC[C@@]3(C2)O)O)C6=CC(=O)OC6)C)C=O)O)O

> <PUBCHEM_CACTVS_TPSA>
143

> <PUBCHEM_MONOISOTOPIC_WEIGHT>
534.282883

> <PUBCHEM_TOTAL_CHARGE>
0

> <PUBCHEM_HEAVY_ATOM_COUNT>
38

> <PUBCHEM_ATOM_DEF_STEREO_COUNT>
12

> <PUBCHEM_ATOM_UDEF_STEREO_COUNT>
0

> <PUBCHEM_BOND_DEF_STEREO_COUNT>
0

> <PUBCHEM_BOND_UDEF_STEREO_COUNT>
0

> <PUBCHEM_ISOTOPIC_ATOM_COUNT>
0

> <PUBCHEM_COMPONENT_COUNT>
1

> <PUBCHEM_CACTVS_TAUTO_COUNT>
1

> <PUBCHEM_COORDINATE_TYPE>
1
5
255

> <PUBCHEM_BONDANNOTATIONS>
10  1  5
11  39  5
12  25  5
13  40  6
14  28  5
16  29  5
15  2  5
27  3  5
32  3  6
36  38  6
35  8  5
37  9  5

$$$$

