636398
  -OEChem-07051213033D

 75 78  0     1  0  0  0  0  0999 V2000
    1.7444    1.2911    0.6678 O   0  0  0  0  0  0  0  0  0  0  0  0
   -1.5973   -2.2232   -1.2527 O   0  0  0  0  0  0  0  0  0  0  0  0
    3.4977    0.9667   -2.0724 O   0  0  0  0  0  0  0  0  0  0  0  0
    4.5362   -1.0870   -0.5544 O   0  0  0  0  0  0  0  0  0  0  0  0
   -7.4695   -0.6411    2.3253 O   0  0  0  0  0  0  0  0  0  0  0  0
    3.5798    2.6122    0.2109 O   0  0  0  0  0  0  0  0  0  0  0  0
    4.2557   -3.1554    0.4291 O   0  0  0  0  0  0  0  0  0  0  0  0
    0.2511    0.2543   -0.9876 C   0  0  1  0  0  0  0  0  0  0  0  0
   -0.8151    1.3480   -0.7609 C   0  0  2  0  0  0  0  0  0  0  0  0
   -2.2528    0.8654   -1.0052 C   0  0  1  0  0  0  0  0  0  0  0  0
   -2.5612   -0.3149   -0.0275 C   0  0  1  0  0  0  0  0  0  0  0  0
    1.5346    1.0900   -0.7267 C   0  0  1  0  0  0  0  0  0  0  0  0
   -0.0315   -0.8821    0.0163 C   0  0  0  0  0  0  0  0  0  0  0  0
   -4.0597   -0.8181   -0.1219 C   0  0  2  0  0  0  0  0  0  0  0  0
   -1.4722   -1.4316   -0.0798 C   0  0  2  0  0  0  0  0  0  0  0  0
   -0.2868    2.5303   -1.5689 C   0  0  0  0  0  0  0  0  0  0  0  0
    1.2450    2.4511   -1.4004 C   0  0  0  0  0  0  0  0  0  0  0  0
   -3.2472    2.0159   -0.7837 C   0  0  0  0  0  0  0  0  0  0  0  0
    0.2718   -0.2896   -2.4430 C   0  0  0  0  0  0  0  0  0  0  0  0
   -5.0033    0.3889   -0.0294 C   0  0  0  0  0  0  0  0  0  0  0  0
   -4.6889    1.5548   -0.9344 C   0  0  0  0  0  0  0  0  0  0  0  0
   -4.3182   -1.7877    1.0680 C   0  0  0  0  0  0  0  0  0  0  0  0
   -4.3845   -1.5492   -1.4442 C   0  0  0  0  0  0  0  0  0  0  0  0
    2.7929    0.4359   -1.2153 C   0  0  0  0  0  0  0  0  0  0  0  0
   -5.7931   -2.0382    1.3391 C   0  0  0  0  0  0  0  0  0  0  0  0
   -6.0840    0.4413    0.7671 C   0  0  0  0  0  0  0  0  0  0  0  0
   -6.5093   -0.7327    1.5633 C   0  0  0  0  0  0  0  0  0  0  0  0
    3.1370   -0.9021   -0.5963 C   0  0  0  0  0  0  0  0  0  0  0  0
    2.8123    2.0805    1.0013 C   0  0  0  0  0  0  0  0  0  0  0  0
    2.8953    2.1920    2.5066 C   0  0  0  0  0  0  0  0  0  0  0  0
    4.3347    2.3531    2.9893 C   0  0  0  0  0  0  0  0  0  0  0  0
    4.9765   -2.2705   -0.0111 C   0  0  0  0  0  0  0  0  0  0  0  0
    5.1878    1.1541    2.6088 C   0  0  0  0  0  0  0  0  0  0  0  0
    6.4864   -2.3114   -0.0415 C   0  0  0  0  0  0  0  0  0  0  0  0
    7.0358   -3.5910    0.5644 C   0  0  0  0  0  0  0  0  0  0  0  0
   -0.7722    1.6615    0.2956 H   0  0  0  0  0  0  0  0  0  0  0  0
   -2.3611    0.5276   -2.0407 H   0  0  0  0  0  0  0  0  0  0  0  0
   -2.4591    0.1205    0.9811 H   0  0  0  0  0  0  0  0  0  0  0  0
    0.6622   -1.7133   -0.1386 H   0  0  0  0  0  0  0  0  0  0  0  0
    0.1185   -0.5257    1.0427 H   0  0  0  0  0  0  0  0  0  0  0  0
   -1.6199   -2.1092    0.7687 H   0  0  0  0  0  0  0  0  0  0  0  0
   -0.6764    3.4848   -1.1998 H   0  0  0  0  0  0  0  0  0  0  0  0
   -0.5615    2.4474   -2.6265 H   0  0  0  0  0  0  0  0  0  0  0  0
    1.5552    3.3207   -0.8139 H   0  0  0  0  0  0  0  0  0  0  0  0
    1.7037    2.5502   -2.3904 H   0  0  0  0  0  0  0  0  0  0  0  0
   -3.1049    2.4492    0.2151 H   0  0  0  0  0  0  0  0  0  0  0  0
   -3.0598    2.8190   -1.5060 H   0  0  0  0  0  0  0  0  0  0  0  0
    0.6495    0.4468   -3.1602 H   0  0  0  0  0  0  0  0  0  0  0  0
   -0.7162   -0.5820   -2.8040 H   0  0  0  0  0  0  0  0  0  0  0  0
    0.9116   -1.1737   -2.5281 H   0  0  0  0  0  0  0  0  0  0  0  0
   -5.3527    2.4050   -0.7344 H   0  0  0  0  0  0  0  0  0  0  0  0
   -4.8740    1.2605   -1.9748 H   0  0  0  0  0  0  0  0  0  0  0  0
   -3.8252   -2.7519    0.8951 H   0  0  0  0  0  0  0  0  0  0  0  0
   -3.8730   -1.3718    1.9829 H   0  0  0  0  0  0  0  0  0  0  0  0
   -3.9770   -2.5647   -1.4612 H   0  0  0  0  0  0  0  0  0  0  0  0
   -5.4667   -1.6527   -1.5914 H   0  0  0  0  0  0  0  0  0  0  0  0
   -3.9952   -1.0178   -2.3182 H   0  0  0  0  0  0  0  0  0  0  0  0
   -0.9347   -2.9330   -1.2047 H   0  0  0  0  0  0  0  0  0  0  0  0
   -6.2756   -2.5683    0.5121 H   0  0  0  0  0  0  0  0  0  0  0  0
   -5.8938   -2.6502    2.2422 H   0  0  0  0  0  0  0  0  0  0  0  0
   -6.7216    1.3178    0.8122 H   0  0  0  0  0  0  0  0  0  0  0  0
    2.7608   -0.9499    0.4293 H   0  0  0  0  0  0  0  0  0  0  0  0
    2.6859   -1.6915   -1.2039 H   0  0  0  0  0  0  0  0  0  0  0  0
    2.4623    1.2930    2.9609 H   0  0  0  0  0  0  0  0  0  0  0  0
    2.2934    3.0535    2.8138 H   0  0  0  0  0  0  0  0  0  0  0  0
    4.7790    3.2624    2.5683 H   0  0  0  0  0  0  0  0  0  0  0  0
    4.3358    2.4663    4.0793 H   0  0  0  0  0  0  0  0  0  0  0  0
    4.7535    0.2239    2.9895 H   0  0  0  0  0  0  0  0  0  0  0  0
    5.3059    1.0593    1.5255 H   0  0  0  0  0  0  0  0  0  0  0  0
    6.1892    1.2572    3.0394 H   0  0  0  0  0  0  0  0  0  0  0  0
    6.8664   -1.4516    0.5205 H   0  0  0  0  0  0  0  0  0  0  0  0
    6.8135   -2.2322   -1.0835 H   0  0  0  0  0  0  0  0  0  0  0  0
    8.1295   -3.5903    0.5296 H   0  0  0  0  0  0  0  0  0  0  0  0
    6.6763   -4.4702    0.0195 H   0  0  0  0  0  0  0  0  0  0  0  0
    6.7263   -3.6954    1.6097 H   0  0  0  0  0  0  0  0  0  0  0  0
  1 12  1  0  0  0  0
  1 29  1  0  0  0  0
  2 15  1  0  0  0  0
  2 58  1  0  0  0  0
  3 24  2  0  0  0  0
  4 28  1  0  0  0  0
  4 32  1  0  0  0  0
  5 27  2  0  0  0  0
  6 29  2  0  0  0  0
  7 32  2  0  0  0  0
  8  9  1  0  0  0  0
  8 12  1  0  0  0  0
  8 13  1  0  0  0  0
  8 19  1  0  0  0  0
  9 10  1  0  0  0  0
  9 16  1  0  0  0  0
  9 36  1  0  0  0  0
 10 11  1  0  0  0  0
 10 18  1  0  0  0  0
 10 37  1  0  0  0  0
 11 14  1  0  0  0  0
 11 15  1  0  0  0  0
 11 38  1  0  0  0  0
 12 17  1  0  0  0  0
 12 24  1  0  0  0  0
 13 15  1  0  0  0  0
 13 39  1  0  0  0  0
 13 40  1  0  0  0  0
 14 20  1  0  0  0  0
 14 22  1  0  0  0  0
 14 23  1  0  0  0  0
 15 41  1  0  0  0  0
 16 17  1  0  0  0  0
 16 42  1  0  0  0  0
 16 43  1  0  0  0  0
 17 44  1  0  0  0  0
 17 45  1  0  0  0  0
 18 21  1  0  0  0  0
 18 46  1  0  0  0  0
 18 47  1  0  0  0  0
 19 48  1  0  0  0  0
 19 49  1  0  0  0  0
 19 50  1  0  0  0  0
 20 21  1  0  0  0  0
 20 26  2  0  0  0  0
 21 51  1  0  0  0  0
 21 52  1  0  0  0  0
 22 25  1  0  0  0  0
 22 53  1  0  0  0  0
 22 54  1  0  0  0  0
 23 55  1  0  0  0  0
 23 56  1  0  0  0  0
 23 57  1  0  0  0  0
 24 28  1  0  0  0  0
 25 27  1  0  0  0  0
 25 59  1  0  0  0  0
 25 60  1  0  0  0  0
 26 27  1  0  0  0  0
 26 61  1  0  0  0  0
 28 62  1  0  0  0  0
 28 63  1  0  0  0  0
 29 30  1  0  0  0  0
 30 31  1  0  0  0  0
 30 64  1  0  0  0  0
 30 65  1  0  0  0  0
 31 33  1  0  0  0  0
 31 66  1  0  0  0  0
 31 67  1  0  0  0  0
 32 34  1  0  0  0  0
 33 68  1  0  0  0  0
 33 69  1  0  0  0  0
 33 70  1  0  0  0  0
 34 35  1  0  0  0  0
 34 71  1  0  0  0  0
 34 72  1  0  0  0  0
 35 73  1  0  0  0  0
 35 74  1  0  0  0  0
 35 75  1  0  0  0  0
M  END
> <PUBCHEM_COMPOUND_CID>
636398

> <PUBCHEM_CONFORMER_RMSD>
1

> <PUBCHEM_CONFORMER_DIVERSEORDER>
1
11
3
2
12
14
13
10
4
9
6
15
7
5
8

> <PUBCHEM_MMFF94_PARTIAL_CHARGES>
23
1 -0.43
12 0.34
14 0.14
15 0.28
2 -0.68
20 -0.28
21 0.14
24 0.45
25 0.06
26 -0.14
27 0.49
28 0.34
29 0.66
3 -0.57
30 0.06
32 0.66
34 0.06
4 -0.43
5 -0.57
58 0.4
6 -0.57
61 0.15
7 -0.57

> <PUBCHEM_EFFECTIVE_ROTOR_COUNT>
10.8

> <PUBCHEM_PHARMACOPHORE_FEATURES>
12
1 2 acceptor
1 2 donor
1 3 acceptor
1 33 hydrophobe
1 35 hydrophobe
1 5 acceptor
1 6 acceptor
1 7 acceptor
5 8 9 12 16 17 rings
6 10 11 14 18 20 21 rings
6 14 20 22 25 26 27 rings
6 8 9 10 11 13 15 rings

> <PUBCHEM_HEAVY_ATOM_COUNT>
35

> <PUBCHEM_ATOM_DEF_STEREO_COUNT>
7

> <PUBCHEM_ATOM_UDEF_STEREO_COUNT>
0

> <PUBCHEM_BOND_DEF_STEREO_COUNT>
0

> <PUBCHEM_BOND_UDEF_STEREO_COUNT>
0

> <PUBCHEM_ISOTOPIC_ATOM_COUNT>
0

> <PUBCHEM_COMPONENT_COUNT>
1

> <PUBCHEM_CACTVS_TAUTO_COUNT>
10

> <PUBCHEM_CONFORMER_ID>
0009B5EE00000001

> <PUBCHEM_MMFF94_ENERGY>
98.7927

> <PUBCHEM_FEATURE_SELFOVERLAP>
60.988

> <PUBCHEM_SHAPE_FINGERPRINT>
10319926 262 18272375295437000137
10692045 39 18113337526489639522
11135609 12 18202568363120257460
11456790 92 18187911925141419585
11578080 2 17533492339925215473
117089 54 17916568891424185779
12422481 6 18336273378897916911
12633257 1 17676200265029248071
13673619 4 18339359773084228542
13782708 43 18411140242266971094
14178342 30 17976835181205391886
14950920 106 17967811635410351067
15238133 3 15068342302259690496
15475509 35 18411699911429906810
15475509 84 17895469340622598656
17492 89 18129091239478362327
17980427 23 14851902360627541992
1813 80 16702308940111683628
18365409 1 13250912361669004766
18393751 57 17034194102489222008
21033648 29 18260267417737028881
21130935 74 18269261388735137203
21267235 1 18059282253565937127
21792934 111 18411419527902280049
21792965 106 14491012996375101827
21927370 108 17678458783116140386
22122407 14 16299763436086029539
22182313 1 18198931212762164148
22223350 30 18263639567938031755
23522609 53 17768769295739209645
23559900 14 18272374178508178660
249057 25 16009329650989966317
2838139 119 14780397704700553520
3004659 81 17346594188377172398
3383291 50 17917708011060959211
3411729 13 17604436181136541040
3552219 110 18188203313140129144
392239 28 17675928702863196129
394071 54 17312828199648034490
4112364 45 16950559974387669107
5104073 3 18408597080831177049
563151 74 17604162410945667506
6371380 46 18121793990773355693

> <PUBCHEM_SHAPE_MULTIPOLES>
679.2
16.62
3.5
2.32
4
0.96
1.17
11.36
10.04
-5.57
0.58
-0.95
-1.29
2.74

> <PUBCHEM_SHAPE_SELFOVERLAP>
1437.026

> <PUBCHEM_SHAPE_VOLUME>
374.5

> <PUBCHEM_COORDINATE_TYPE>
2
5
10

$$$$

