17395713
  -OEChem-06241222523D

 35 36  0     0  0  0  0  0  0999 V2000
   -4.6385   -1.4174   -2.1137 Br  0  0  0  0  0  0  0  0  0  0  0  0
    0.6354    1.3576   -0.5234 S   0  0  0  0  0  0  0  0  0  0  0  0
   -5.6512   -0.1690    0.5614 O   0  0  0  0  0  0  0  0  0  0  0  0
    4.5548    1.3460   -0.6992 N   0  0  0  0  0  0  0  0  0  0  0  0
    2.9212   -0.0708    0.0469 N   0  0  0  0  0  0  0  0  0  0  0  0
    3.3306    1.8605   -0.8900 N   0  0  0  0  0  0  0  0  0  0  0  0
    5.3290   -0.7559    0.2683 C   0  0  0  0  0  0  0  0  0  0  0  0
    4.2523    0.1772   -0.1300 C   0  0  0  0  0  0  0  0  0  0  0  0
    5.2707   -2.1053   -0.4841 C   0  0  0  0  0  0  0  0  0  0  0  0
    5.3707   -1.0188    1.7914 C   0  0  0  0  0  0  0  0  0  0  0  0
   -1.5060   -0.1672    0.3135 C   0  0  0  0  0  0  0  0  0  0  0  0
   -0.0167   -0.1608    0.2364 C   0  0  0  0  0  0  0  0  0  0  0  0
    2.3653    1.0123   -0.4441 C   0  0  0  0  0  0  0  0  0  0  0  0
   -2.2573   -0.6913   -0.7384 C   0  0  0  0  0  0  0  0  0  0  0  0
   -2.1477    0.3513    1.4382 C   0  0  0  0  0  0  0  0  0  0  0  0
   -4.2919   -0.1785    0.4590 C   0  0  0  0  0  0  0  0  0  0  0  0
   -3.6503   -0.6971   -0.6656 C   0  0  0  0  0  0  0  0  0  0  0  0
   -3.5406    0.3456    1.5110 C   0  0  0  0  0  0  0  0  0  0  0  0
   -6.3298    0.9815    0.0625 C   0  0  0  0  0  0  0  0  0  0  0  0
    6.2976   -0.3041    0.0100 H   0  0  0  0  0  0  0  0  0  0  0  0
    4.3471   -2.6467   -0.2513 H   0  0  0  0  0  0  0  0  0  0  0  0
    6.1195   -2.7407   -0.2108 H   0  0  0  0  0  0  0  0  0  0  0  0
    5.3000   -1.9446   -1.5674 H   0  0  0  0  0  0  0  0  0  0  0  0
    4.4518   -1.5088    2.1321 H   0  0  0  0  0  0  0  0  0  0  0  0
    5.4719   -0.0776    2.3428 H   0  0  0  0  0  0  0  0  0  0  0  0
    6.2191   -1.6598    2.0529 H   0  0  0  0  0  0  0  0  0  0  0  0
    5.4064    1.8316   -0.9671 H   0  0  0  0  0  0  0  0  0  0  0  0
    0.4060   -0.2703    1.2426 H   0  0  0  0  0  0  0  0  0  0  0  0
    0.3277   -1.0284   -0.3394 H   0  0  0  0  0  0  0  0  0  0  0  0
   -1.7524   -1.0936   -1.6140 H   0  0  0  0  0  0  0  0  0  0  0  0
   -1.5744    0.7634    2.2645 H   0  0  0  0  0  0  0  0  0  0  0  0
   -4.0331    0.7509    2.3908 H   0  0  0  0  0  0  0  0  0  0  0  0
   -7.4044    0.7806    0.0828 H   0  0  0  0  0  0  0  0  0  0  0  0
   -6.0354    1.2052   -0.9675 H   0  0  0  0  0  0  0  0  0  0  0  0
   -6.1243    1.8451    0.7028 H   0  0  0  0  0  0  0  0  0  0  0  0
  1 17  1  0  0  0  0
  2 12  1  0  0  0  0
  2 13  1  0  0  0  0
  3 16  1  0  0  0  0
  3 19  1  0  0  0  0
  4  6  1  0  0  0  0
  4  8  1  0  0  0  0
  4 27  1  0  0  0  0
  5  8  2  0  0  0  0
  5 13  1  0  0  0  0
  6 13  2  0  0  0  0
  7  8  1  0  0  0  0
  7  9  1  0  0  0  0
  7 10  1  0  0  0  0
  7 20  1  0  0  0  0
  9 21  1  0  0  0  0
  9 22  1  0  0  0  0
  9 23  1  0  0  0  0
 10 24  1  0  0  0  0
 10 25  1  0  0  0  0
 10 26  1  0  0  0  0
 11 12  1  0  0  0  0
 11 14  2  0  0  0  0
 11 15  1  0  0  0  0
 12 28  1  0  0  0  0
 12 29  1  0  0  0  0
 14 17  1  0  0  0  0
 14 30  1  0  0  0  0
 15 18  2  0  0  0  0
 15 31  1  0  0  0  0
 16 17  2  0  0  0  0
 16 18  1  0  0  0  0
 18 32  1  0  0  0  0
 19 33  1  0  0  0  0
 19 34  1  0  0  0  0
 19 35  1  0  0  0  0
M  END
> <PUBCHEM_COMPOUND_CID>
17395713

> <PUBCHEM_CONFORMER_RMSD>
0.8

> <PUBCHEM_CONFORMER_DIVERSEORDER>
1
73
74
34
44
80
81
46
32
113
40
17
70
100
102
2
101
57
83
88
5
64
50
53
62
93
33
61
27
35
82
43
110
39
16
4
121
55
7
54
52
65
112
12
25
3
71
8
18
47
77
19
31
45
23
13
66
20
63
114
60
78
49
105
14
24
67
95
115
97
51
15
79
68
21
58
29
22
86
36
94
72
92
38
109
111
56
9
28
91
118
11
99
6
116
103
76
104
69
85
96
120
89
84
106
37
59
10
108
119
98
107
41
87
90
26
117
48
75
30
42

> <PUBCHEM_MMFF94_PARTIAL_CHARGES>
21
1 -0.11
11 -0.14
12 0.37
13 0.57
14 -0.15
15 -0.15
16 0.08
17 0.11
18 -0.15
19 0.28
2 -0.28
27 0.27
3 -0.36
30 0.15
31 0.15
32 0.15
4 0.3
5 -0.57
6 -0.71
7 0.18
8 0.01

> <PUBCHEM_EFFECTIVE_ROTOR_COUNT>
5

> <PUBCHEM_PHARMACOPHORE_FEATURES>
8
1 1 hydrophobe
1 3 acceptor
1 4 donor
3 4 5 8 cation
3 5 6 13 cation
3 7 9 10 hydrophobe
5 4 5 6 8 13 rings
6 11 14 15 16 17 18 rings

> <PUBCHEM_HEAVY_ATOM_COUNT>
19

> <PUBCHEM_ATOM_DEF_STEREO_COUNT>
0

> <PUBCHEM_ATOM_UDEF_STEREO_COUNT>
0

> <PUBCHEM_BOND_DEF_STEREO_COUNT>
0

> <PUBCHEM_BOND_UDEF_STEREO_COUNT>
0

> <PUBCHEM_ISOTOPIC_ATOM_COUNT>
0

> <PUBCHEM_COMPONENT_COUNT>
1

> <PUBCHEM_CACTVS_TAUTO_COUNT>
5

> <PUBCHEM_CONFORMER_ID>
0109700100000001

> <PUBCHEM_MMFF94_ENERGY>
53.0652

> <PUBCHEM_FEATURE_SELFOVERLAP>
43.343

> <PUBCHEM_SHAPE_FINGERPRINT>
10 15 14707220907242422706
10912923 1 18040710329783664168
11809386 21 17677342606767641759
11858739 19 18409444821359672446
12236239 1 18334011683832996323
12390115 104 15338851910453607133
12403259 415 16343709819908693591
12596602 18 17240772761456946562
12616971 3 18410011022571643039
12916748 109 13039187004745630556
13533116 47 18333730230547504090
13760787 5 18343585109689839980
13914758 101 18340487880673001937
14211702 104 18040992908557181159
14251752 14 18410859893178340277
14573314 32 16200439078111413294
15183329 4 17561088037478102409
15188451 53 17530978963834405206
17349148 13 18261107452603474686
17844677 252 15554446292846563620
17857418 61 18186523206720294126
19489759 90 16732979838754365937
200 152 18412263926018044673
20369508 70 17703795821465269240
20511986 3 18041294204638286742
20621476 91 15141257464080968831
20645477 70 18059853957253187386
21033648 29 16845023311882707205
21065201 7 16370987625415300452
21315763 178 18260556623311759966
21728266 224 17458070339401783863
220451 1 18113892736927460262
22061861 79 17703793621598319486
2215653 11 17060625494474135067
22224240 67 18261685788379944730
2297311 6 14979954783443974991
2303208 19 16630521834639946427
23081809 10 18335138661697587093
23175994 123 17489582342759468933
23402539 116 17749111071848503141
23536379 177 18342173363046595905
23557571 272 15358518839815513657
23559900 14 17274820216979113200
23590187 198 18186518821416325150
2838139 119 18341617062257164653
29717793 49 18410007758554753532
300161 21 18260546684794308260
3004659 81 18342171181361296140
345986 75 18268159819585515368
34797466 226 14548726318582623918
5104073 3 16878506705382224299
5281201 14 16845571994160285276
559249 180 18113340812783199279
573450 72 17821444664173106179
90127 26 14692567697834357045

> <PUBCHEM_SHAPE_MULTIPOLES>
379.99
16.13
1.64
1.47
3
1
-0.04
2.85
-2.24
-0.85
0.32
1.35
-0.29
-2.11

> <PUBCHEM_SHAPE_SELFOVERLAP>
763.386

> <PUBCHEM_SHAPE_VOLUME>
230.7

> <PUBCHEM_COORDINATE_TYPE>
2
5
10

$$$$

