84677
  -OEChem-07051213043D

 28 29  0     0  0  0  0  0  0999 V2000
   -1.5088   -3.2075   -0.0012 Cl  0  0  0  0  0  0  0  0  0  0  0  0
    1.4172   -3.2416    0.0012 Cl  0  0  0  0  0  0  0  0  0  0  0  0
    4.8911    1.8359    0.0000 O   0  0  0  0  0  0  0  0  0  0  0  0
   -4.8609    1.8679    0.0004 O   0  0  0  0  0  0  0  0  0  0  0  0
    0.0060   -0.9127   -0.0001 C   0  0  0  0  0  0  0  0  0  0  0  0
    1.2735   -0.1995    0.0000 C   0  0  0  0  0  0  0  0  0  0  0  0
   -1.2944   -0.1697   -0.0002 C   0  0  0  0  0  0  0  0  0  0  0  0
    1.8816    0.1426    1.2079 C   0  0  0  0  0  0  0  0  0  0  0  0
   -1.8626    0.1551   -1.2080 C   0  0  0  0  0  0  0  0  0  0  0  0
    1.8812    0.1429   -1.2080 C   0  0  0  0  0  0  0  0  0  0  0  0
   -1.8621    0.1549    1.2078 C   0  0  0  0  0  0  0  0  0  0  0  0
    3.0970    0.8269    1.2078 C   0  0  0  0  0  0  0  0  0  0  0  0
   -3.0734    0.8475   -1.2077 C   0  0  0  0  0  0  0  0  0  0  0  0
    3.0965    0.8272   -1.2081 C   0  0  0  0  0  0  0  0  0  0  0  0
   -3.0730    0.8473    1.2082 C   0  0  0  0  0  0  0  0  0  0  0  0
    3.7045    1.1694   -0.0002 C   0  0  0  0  0  0  0  0  0  0  0  0
   -3.6786    1.1936    0.0003 C   0  0  0  0  0  0  0  0  0  0  0  0
   -0.0348   -2.2803   -0.0001 C   0  0  0  0  0  0  0  0  0  0  0  0
    1.4224   -0.1176    2.1587 H   0  0  0  0  0  0  0  0  0  0  0  0
   -1.3994   -0.1110   -2.1535 H   0  0  0  0  0  0  0  0  0  0  0  0
    1.4217   -0.1171   -2.1586 H   0  0  0  0  0  0  0  0  0  0  0  0
   -1.3988   -0.1113    2.1532 H   0  0  0  0  0  0  0  0  0  0  0  0
    3.5607    1.0870    2.1555 H   0  0  0  0  0  0  0  0  0  0  0  0
   -3.5353    1.1109   -2.1555 H   0  0  0  0  0  0  0  0  0  0  0  0
    3.5653    1.0906   -2.1524 H   0  0  0  0  0  0  0  0  0  0  0  0
   -3.5399    1.1136    2.1525 H   0  0  0  0  0  0  0  0  0  0  0  0
    5.1657    1.9902    0.9203 H   0  0  0  0  0  0  0  0  0  0  0  0
   -5.1345    2.0243   -0.9198 H   0  0  0  0  0  0  0  0  0  0  0  0
  1 18  1  0  0  0  0
  2 18  1  0  0  0  0
  3 16  1  0  0  0  0
  3 27  1  0  0  0  0
  4 17  1  0  0  0  0
  4 28  1  0  0  0  0
  5  6  1  0  0  0  0
  5  7  1  0  0  0  0
  5 18  2  0  0  0  0
  6  8  2  0  0  0  0
  6 10  1  0  0  0  0
  7  9  2  0  0  0  0
  7 11  1  0  0  0  0
  8 12  1  0  0  0  0
  8 19  1  0  0  0  0
  9 13  1  0  0  0  0
  9 20  1  0  0  0  0
 10 14  2  0  0  0  0
 10 21  1  0  0  0  0
 11 15  2  0  0  0  0
 11 22  1  0  0  0  0
 12 16  2  0  0  0  0
 12 23  1  0  0  0  0
 13 17  2  0  0  0  0
 13 24  1  0  0  0  0
 14 16  1  0  0  0  0
 14 25  1  0  0  0  0
 15 17  1  0  0  0  0
 15 26  1  0  0  0  0
M  END
> <PUBCHEM_COMPOUND_CID>
84677

> <PUBCHEM_CONFORMER_RMSD>
0.6

> <PUBCHEM_CONFORMER_DIVERSEORDER>
1

> <PUBCHEM_MMFF94_PARTIAL_CHARGES>
28
1 -0.14
10 -0.15
11 -0.15
12 -0.15
13 -0.15
14 -0.15
15 -0.15
16 0.08
17 0.08
18 0.28
19 0.15
2 -0.14
20 0.15
21 0.15
22 0.15
23 0.15
24 0.15
25 0.15
26 0.15
27 0.45
28 0.45
3 -0.53
4 -0.53
5 -0.06
6 0.03
7 0.03
8 -0.15
9 -0.15

> <PUBCHEM_EFFECTIVE_ROTOR_COUNT>
2

> <PUBCHEM_PHARMACOPHORE_FEATURES>
4
1 3 donor
1 4 donor
6 6 8 10 12 14 16 rings
6 7 9 11 13 15 17 rings

> <PUBCHEM_HEAVY_ATOM_COUNT>
18

> <PUBCHEM_ATOM_DEF_STEREO_COUNT>
0

> <PUBCHEM_ATOM_UDEF_STEREO_COUNT>
0

> <PUBCHEM_BOND_DEF_STEREO_COUNT>
0

> <PUBCHEM_BOND_UDEF_STEREO_COUNT>
0

> <PUBCHEM_ISOTOPIC_ATOM_COUNT>
0

> <PUBCHEM_COMPONENT_COUNT>
1

> <PUBCHEM_CACTVS_TAUTO_COUNT>
3

> <PUBCHEM_CONFORMER_ID>
00014AC500000001

> <PUBCHEM_MMFF94_ENERGY>
58.3021

> <PUBCHEM_FEATURE_SELFOVERLAP>
20.297

> <PUBCHEM_SHAPE_FINGERPRINT>
10498660 4 18334015003658755953
10618630 7 9223235152078874008
11725454 13 16771583722196947223
12173636 292 18265616476748094836
12251169 10 15769774649851068044
12363563 72 8935001473018255252
12500047 106 18336266718099907754
12633257 1 15697994115563710829
12707595 3 8142078749841955229
12730499 353 18338223973303941193
12788726 201 17837763435448801558
12892183 10 15698010672673127945
13134695 92 17694508439085972535
13140716 1 18341614836825613250
13764800 53 18335692798161891275
13965767 371 18130237029109844316
14123255 52 18410854364917094373
14787075 74 17896604986315968451
15309172 13 18342737416337055293
15342168 16 18413388765469041477
16752209 62 18122922931632938746
1741750 31 18410013195872573882
1813 80 17393318136752914942
18186145 218 18260535745412112404
18222031 100 11599999959808467233
19765921 60 18114753710698990515
204376 136 18412263926049491825
20510252 161 18047471123672170706
20600515 1 17044895640598616042
20671657 1 18266455588746139919
20671657 53 4967616070391734288
20871998 22 9727626194120477159
21499 59 18409169926241132773
21524375 3 18272935998616032419
21731228 192 18059857242381020490
22079108 93 18115012044708259393
2255824 54 18119531196027813911
23402539 116 18187089438398222028
23419403 2 17408186699472435698
23557571 272 18117550726683366324
23559900 14 16557619931620672715
25 1 17967805063830709112
283562 15 18051137990566646186
3082319 5 15647050477673502400
350125 39 18411409609694470667
4028521 119 17749108902452629873
4340502 62 18409726296953652563
458136 41 18338226171916129643
474 4 18335422374078283505
495365 180 18196940091962229317
633830 44 18041831921680150845
6442390 28 18336811014641740731
7364860 26 18192433197552026638
7808743 9 18340767023124138460
81228 2 17907010682055923946
84936 182 18116436031929571809

> <PUBCHEM_SHAPE_MULTIPOLES>
362.43
7.5
2.84
1.27
0.24
3.51
0
-7.05
0
-0.1
0
0.01
-0.35
0

> <PUBCHEM_SHAPE_SELFOVERLAP>
766.711

> <PUBCHEM_SHAPE_VOLUME>
204.4

> <PUBCHEM_COORDINATE_TYPE>
2
5
10

$$$$

