66606
  -OEChem-07051213083D

 18 18  0     0  0  0  0  0  0999 V2000
    1.0758   -2.3977    0.0000 O   0  0  0  0  0  0  0  0  0  0  0  0
    1.0764    2.3976    0.0002 O   0  0  0  0  0  0  0  0  0  0  0  0
   -3.0418    0.0002    0.0000 O   0  0  0  0  0  0  0  0  0  0  0  0
    1.1092   -0.0001    0.0000 C   0  0  0  0  0  0  0  0  0  0  0  0
    0.4115   -1.2080    0.0000 C   0  0  0  0  0  0  0  0  0  0  0  0
    0.4118    1.2080   -0.0001 C   0  0  0  0  0  0  0  0  0  0  0  0
   -0.9834   -1.2078    0.0000 C   0  0  0  0  0  0  0  0  0  0  0  0
   -0.9831    1.2080   -0.0001 C   0  0  0  0  0  0  0  0  0  0  0  0
   -1.6807    0.0002    0.0000 C   0  0  0  0  0  0  0  0  0  0  0  0
    2.6042   -0.0003   -0.0001 C   0  0  0  0  0  0  0  0  0  0  0  0
   -1.5214   -2.1527    0.0000 H   0  0  0  0  0  0  0  0  0  0  0  0
   -1.5341    2.1453   -0.0001 H   0  0  0  0  0  0  0  0  0  0  0  0
    2.9862   -0.5042   -0.8946 H   0  0  0  0  0  0  0  0  0  0  0  0
    3.0321    1.0070   -0.0002 H   0  0  0  0  0  0  0  0  0  0  0  0
    2.9863   -0.5040    0.8944 H   0  0  0  0  0  0  0  0  0  0  0  0
    2.0362   -2.2649    0.0002 H   0  0  0  0  0  0  0  0  0  0  0  0
    0.4291    3.1235    0.0001 H   0  0  0  0  0  0  0  0  0  0  0  0
   -3.3572   -0.9199    0.0001 H   0  0  0  0  0  0  0  0  0  0  0  0
  1  5  1  0  0  0  0
  1 16  1  0  0  0  0
  2  6  1  0  0  0  0
  2 17  1  0  0  0  0
  3  9  1  0  0  0  0
  3 18  1  0  0  0  0
  4  5  2  0  0  0  0
  4  6  1  0  0  0  0
  4 10  1  0  0  0  0
  5  7  1  0  0  0  0
  6  8  2  0  0  0  0
  7  9  2  0  0  0  0
  7 11  1  0  0  0  0
  8  9  1  0  0  0  0
  8 12  1  0  0  0  0
 10 13  1  0  0  0  0
 10 14  1  0  0  0  0
 10 15  1  0  0  0  0
M  END
> <PUBCHEM_COMPOUND_CID>
66606

> <PUBCHEM_CONFORMER_RMSD>
0.4

> <PUBCHEM_CONFORMER_DIVERSEORDER>
1

> <PUBCHEM_MMFF94_PARTIAL_CHARGES>
15
1 -0.53
10 0.14
11 0.15
12 0.15
16 0.45
17 0.45
18 0.45
2 -0.53
3 -0.53
4 -0.14
5 0.08
6 0.08
7 -0.15
8 -0.15
9 0.08

> <PUBCHEM_EFFECTIVE_ROTOR_COUNT>
0

> <PUBCHEM_PHARMACOPHORE_FEATURES>
4
1 1 donor
1 2 donor
1 3 donor
6 4 5 6 7 8 9 rings

> <PUBCHEM_HEAVY_ATOM_COUNT>
10

> <PUBCHEM_ATOM_DEF_STEREO_COUNT>
0

> <PUBCHEM_ATOM_UDEF_STEREO_COUNT>
0

> <PUBCHEM_BOND_DEF_STEREO_COUNT>
0

> <PUBCHEM_BOND_UDEF_STEREO_COUNT>
0

> <PUBCHEM_ISOTOPIC_ATOM_COUNT>
0

> <PUBCHEM_COMPONENT_COUNT>
1

> <PUBCHEM_CACTVS_TAUTO_COUNT>
10

> <PUBCHEM_CONFORMER_ID>
0001042E00000001

> <PUBCHEM_MMFF94_ENERGY>
25.05

> <PUBCHEM_FEATURE_SELFOVERLAP>
20.297

> <PUBCHEM_SHAPE_FINGERPRINT>
12423570 1 5364170804368513831
16945 1 18410856564098274183
18185500 45 18337111262566554479
193761 8 17689999359232637416
21040471 1 17906171750335832581
23402655 69 18193575565334277565
23552423 10 17983567795570564014
241688 4 17906450278948894457
2748010 2 18123749747059318583
29004967 10 18341607157112195467
5084963 1 18042122076759107131

> <PUBCHEM_SHAPE_MULTIPOLES>
188.19
2.92
2.12
0.59
0.8
0
0
0
0
-0.75
0
-0.01
0
0

> <PUBCHEM_SHAPE_SELFOVERLAP>
396.175

> <PUBCHEM_SHAPE_VOLUME>
107.3

> <PUBCHEM_COORDINATE_TYPE>
2
5
10

$$$$

