3609
  -OEChem-06251223323D

 62 63  0     1  0  0  0  0  0999 V2000
    6.9580   -1.7951   -1.7050 O   0  0  0  0  0  0  0  0  0  0  0  0
   -6.9484    1.7264   -1.7691 O   0  0  0  0  0  0  0  0  0  0  0  0
   10.2820    2.0640   -0.6837 O   0  0  0  0  0  0  0  0  0  0  0  0
  -10.2715   -2.0936   -0.6080 O   0  0  0  0  0  0  0  0  0  0  0  0
   11.5356    0.9758    1.5460 O   0  0  0  0  0  0  0  0  0  0  0  0
  -11.5402   -0.9165    1.5672 O   0  0  0  0  0  0  0  0  0  0  0  0
    4.2854   -0.9127   -0.4584 N   0  0  0  0  0  0  0  0  0  0  0  0
   -4.2813    0.9021   -0.4713 N   0  0  0  0  0  0  0  0  0  0  0  0
    0.6627    0.3268   -0.4985 C   0  0  0  0  0  0  0  0  0  0  0  0
   -0.6947   -0.3793   -0.4669 C   0  0  0  0  0  0  0  0  0  0  0  0
    1.8513   -0.6397   -0.5056 C   0  0  0  0  0  0  0  0  0  0  0  0
   -1.8455    0.6302   -0.4926 C   0  0  0  0  0  0  0  0  0  0  0  0
    3.2051    0.0681   -0.4589 C   0  0  0  0  0  0  0  0  0  0  0  0
   -3.1994   -0.0743   -0.4248 C   0  0  0  0  0  0  0  0  0  0  0  0
    5.5831   -0.2543   -0.4245 C   0  0  0  0  0  0  0  0  0  0  0  0
   -5.5785    0.2429   -0.4176 C   0  0  0  0  0  0  0  0  0  0  0  0
    6.7176   -1.2859   -0.3939 C   0  0  2  0  0  0  0  0  0  0  0  0
   -6.7148    1.2726   -0.4364 C   0  0  2  0  0  0  0  0  0  0  0  0
    8.0044   -0.6795    0.1214 C   0  0  0  0  0  0  0  0  0  0  0  0
   -8.0036    0.6855    0.0959 C   0  0  0  0  0  0  0  0  0  0  0  0
    8.5616    0.4255   -0.5221 C   0  0  0  0  0  0  0  0  0  0  0  0
   -8.5550   -0.4464   -0.5046 C   0  0  0  0  0  0  0  0  0  0  0  0
    8.6335   -1.2255    1.2402 C   0  0  0  0  0  0  0  0  0  0  0  0
   -8.6403    1.2761    1.1874 C   0  0  0  0  0  0  0  0  0  0  0  0
    9.7478    0.9848   -0.0467 C   0  0  0  0  0  0  0  0  0  0  0  0
   -9.7430   -0.9879   -0.0133 C   0  0  0  0  0  0  0  0  0  0  0  0
    9.8198   -0.6664    1.7154 C   0  0  0  0  0  0  0  0  0  0  0  0
   -9.8285    0.7347    1.6784 C   0  0  0  0  0  0  0  0  0  0  0  0
   10.3769    0.4388    1.0720 C   0  0  0  0  0  0  0  0  0  0  0  0
  -10.3798   -0.3973    1.0781 C   0  0  0  0  0  0  0  0  0  0  0  0
    0.7196    0.9676   -1.3872 H   0  0  0  0  0  0  0  0  0  0  0  0
    0.7433    0.9874    0.3737 H   0  0  0  0  0  0  0  0  0  0  0  0
   -0.7771   -1.0541   -1.3274 H   0  0  0  0  0  0  0  0  0  0  0  0
   -0.7635   -0.9966    0.4369 H   0  0  0  0  0  0  0  0  0  0  0  0
    1.7945   -1.2676   -1.4041 H   0  0  0  0  0  0  0  0  0  0  0  0
    1.7632   -1.3136    0.3566 H   0  0  0  0  0  0  0  0  0  0  0  0
   -1.7441    1.3213    0.3539 H   0  0  0  0  0  0  0  0  0  0  0  0
   -1.7836    1.2308   -1.4090 H   0  0  0  0  0  0  0  0  0  0  0  0
    3.2563    0.6921    0.4415 H   0  0  0  0  0  0  0  0  0  0  0  0
    3.2935    0.7266   -1.3313 H   0  0  0  0  0  0  0  0  0  0  0  0
   -3.2849   -0.7678   -1.2701 H   0  0  0  0  0  0  0  0  0  0  0  0
   -3.2567   -0.6619    0.4997 H   0  0  0  0  0  0  0  0  0  0  0  0
    4.1882   -1.5293    0.3478 H   0  0  0  0  0  0  0  0  0  0  0  0
   -4.1902    1.5524    0.3088 H   0  0  0  0  0  0  0  0  0  0  0  0
    5.6865    0.3896   -1.3068 H   0  0  0  0  0  0  0  0  0  0  0  0
    5.6355    0.3786    0.4708 H   0  0  0  0  0  0  0  0  0  0  0  0
   -5.6754   -0.4372   -1.2730 H   0  0  0  0  0  0  0  0  0  0  0  0
   -5.6349   -0.3524    0.5030 H   0  0  0  0  0  0  0  0  0  0  0  0
    6.4432   -2.1374    0.2416 H   0  0  0  0  0  0  0  0  0  0  0  0
   -6.4458    2.1503    0.1648 H   0  0  0  0  0  0  0  0  0  0  0  0
    8.0785    0.8503   -1.3986 H   0  0  0  0  0  0  0  0  0  0  0  0
   -8.0660   -0.9062   -1.3598 H   0  0  0  0  0  0  0  0  0  0  0  0
    8.2118   -2.0860    1.7526 H   0  0  0  0  0  0  0  0  0  0  0  0
   -8.2232    2.1580    1.6661 H   0  0  0  0  0  0  0  0  0  0  0  0
    6.1170   -2.1564   -2.0339 H   0  0  0  0  0  0  0  0  0  0  0  0
   -6.1061    2.0754   -2.1076 H   0  0  0  0  0  0  0  0  0  0  0  0
   10.2995   -1.1017    2.5880 H   0  0  0  0  0  0  0  0  0  0  0  0
  -10.3141    1.2049    2.5294 H   0  0  0  0  0  0  0  0  0  0  0  0
    9.7120    2.3040   -1.4343 H   0  0  0  0  0  0  0  0  0  0  0  0
   -9.6964   -2.3636   -1.3445 H   0  0  0  0  0  0  0  0  0  0  0  0
   11.8246    0.4688    2.3241 H   0  0  0  0  0  0  0  0  0  0  0  0
  -11.8350   -0.3780    2.3216 H   0  0  0  0  0  0  0  0  0  0  0  0
  1 17  1  0  0  0  0
  1 55  1  0  0  0  0
  2 18  1  0  0  0  0
  2 56  1  0  0  0  0
  3 25  1  0  0  0  0
  3 59  1  0  0  0  0
  4 26  1  0  0  0  0
  4 60  1  0  0  0  0
  5 29  1  0  0  0  0
  5 61  1  0  0  0  0
  6 30  1  0  0  0  0
  6 62  1  0  0  0  0
  7 13  1  0  0  0  0
  7 15  1  0  0  0  0
  7 43  1  0  0  0  0
  8 14  1  0  0  0  0
  8 16  1  0  0  0  0
  8 44  1  0  0  0  0
  9 10  1  0  0  0  0
  9 11  1  0  0  0  0
  9 31  1  0  0  0  0
  9 32  1  0  0  0  0
 10 12  1  0  0  0  0
 10 33  1  0  0  0  0
 10 34  1  0  0  0  0
 11 13  1  0  0  0  0
 11 35  1  0  0  0  0
 11 36  1  0  0  0  0
 12 14  1  0  0  0  0
 12 37  1  0  0  0  0
 12 38  1  0  0  0  0
 13 39  1  0  0  0  0
 13 40  1  0  0  0  0
 14 41  1  0  0  0  0
 14 42  1  0  0  0  0
 15 17  1  0  0  0  0
 15 45  1  0  0  0  0
 15 46  1  0  0  0  0
 16 18  1  0  0  0  0
 16 47  1  0  0  0  0
 16 48  1  0  0  0  0
 17 19  1  0  0  0  0
 17 49  1  0  0  0  0
 18 20  1  0  0  0  0
 18 50  1  0  0  0  0
 19 21  2  0  0  0  0
 19 23  1  0  0  0  0
 20 22  2  0  0  0  0
 20 24  1  0  0  0  0
 21 25  1  0  0  0  0
 21 51  1  0  0  0  0
 22 26  1  0  0  0  0
 22 52  1  0  0  0  0
 23 27  2  0  0  0  0
 23 53  1  0  0  0  0
 24 28  2  0  0  0  0
 24 54  1  0  0  0  0
 25 29  2  0  0  0  0
 26 30  2  0  0  0  0
 27 29  1  0  0  0  0
 27 57  1  0  0  0  0
 28 30  1  0  0  0  0
 28 58  1  0  0  0  0
M  END
> <PUBCHEM_COMPOUND_CID>
3609

> <PUBCHEM_CONFORMER_RMSD>
1.4

> <PUBCHEM_CONFORMER_DIVERSEORDER>
1
162
178
64
132
28
119
38
4
3
134
123
138
9
61
50
84
73
37
70
15
58
198
44
235
244
88
112
164
71
42
180
245
79
117
106
14
34
59
63
124
203
83
7
31
87
139
205
234
167
223
97
17
159
202
154
48
227
140
156
147
39
49
43
65
89
36
56
193
125
188
102
100
243
85
114
22
184
108
128
116
163
47
241
41
130
33
68
101
66
199
146
110
157
204
136
53
231
200
170
233
103
67
229
5
13
211
237
74
175
92
179
80
62
69
192
142
221
165
195
168
246
149
215
143
10
137
153
212
214
90
21
183
78
158
216
144
177
173
113
11
99
219
189
133
20
213
176
169
207
127
86
45
122
94
197
148
95
160
242
91
75
12
201
129
120
182
52
23
6
19
172
208
141
236
232
2
30
109
171
18
111
145
186
32
161
152
217
60
174
46
224
118
187
8
226
150
55
121
51
218
196
16
194
35
57
82
181
239
206
104
155
115
24
105
26
225
228
166
190
209
29
98
222
185
240
40
230
210
126
96
107
76
220
131
238
25
191
27
54
93
77
151
135
81
72

> <PUBCHEM_MMFF94_PARTIAL_CHARGES>
40
1 -0.68
13 0.27
14 0.27
15 0.27
16 0.27
17 0.42
18 0.42
19 -0.14
2 -0.68
20 -0.14
21 -0.15
22 -0.15
23 -0.15
24 -0.15
25 0.08
26 0.08
27 -0.15
28 -0.15
29 0.08
3 -0.53
30 0.08
4 -0.53
43 0.36
44 0.36
5 -0.53
51 0.15
52 0.15
53 0.15
54 0.15
55 0.4
56 0.4
57 0.15
58 0.15
59 0.45
6 -0.53
60 0.45
61 0.45
62 0.45
7 -0.9
8 -0.9

> <PUBCHEM_EFFECTIVE_ROTOR_COUNT>
13

> <PUBCHEM_PHARMACOPHORE_FEATURES>
15
1 1 acceptor
1 1 donor
1 2 acceptor
1 2 donor
1 3 donor
1 4 donor
1 5 donor
1 6 donor
1 7 cation
1 7 donor
1 8 cation
1 8 donor
4 9 10 11 12 hydrophobe
6 19 21 23 25 27 29 rings
6 20 22 24 26 28 30 rings

> <PUBCHEM_HEAVY_ATOM_COUNT>
30

> <PUBCHEM_ATOM_DEF_STEREO_COUNT>
0

> <PUBCHEM_ATOM_UDEF_STEREO_COUNT>
2

> <PUBCHEM_BOND_DEF_STEREO_COUNT>
0

> <PUBCHEM_BOND_UDEF_STEREO_COUNT>
0

> <PUBCHEM_ISOTOPIC_ATOM_COUNT>
0

> <PUBCHEM_COMPONENT_COUNT>
1

> <PUBCHEM_CACTVS_TAUTO_COUNT>
27

> <PUBCHEM_CONFORMER_ID>
00000E1900000001

> <PUBCHEM_MMFF94_ENERGY>
48.1383

> <PUBCHEM_FEATURE_SELFOVERLAP>
76.126

> <PUBCHEM_SHAPE_FINGERPRINT>
10162869 55 16200428079037642294
11409948 35 6915995738352117900
11966995 178 17676204668404765796
12522641 33 7204776990502452060
12559415 86 6194575402025302154
12559415 90 13039190290501503975
13740195 50 17632857516715000409
14251764 46 18410572894235039206
14428016 248 16805322201597626576
15061470 23 18113899382001873345
15065858 18 18342460386609304878
15247644 1 15698280018735587841
15510794 2 17561361772955407344
16728433 110 17918274233731564644
1754911 235 6699802081636263701
19315958 150 16008744731940762135
21102433 48 15985107409745185306
21360443 89 18343018862625978139
21362267 2 17459209455435479520
21362267 313 18267024049753992762
21895431 317 17274826891026086530
232437 2 17632577162513705362
4017518 198 13039182603343897153
5381727 24 17131834278393889906
67123 10 18410855464423135879
9937071 3 16415477168947503106

> <PUBCHEM_SHAPE_MULTIPOLES>
572.21
59.62
1.5
1.39
0.07
0.02
-0.4
-0.6
-22.35
0
0.25
0.04
-0.02
0.18

> <PUBCHEM_SHAPE_SELFOVERLAP>
1172.046

> <PUBCHEM_SHAPE_VOLUME>
330.1

> <PUBCHEM_COORDINATE_TYPE>
2
5
10

$$$$

