4840
  -OEChem-06261200223D

 40 42  0     0  0  0  0  0  0999 V2000
   -3.5471    1.9891    0.9181 O   0  0  0  0  0  0  0  0  0  0  0  0
    5.0076   -1.7501    0.9720 O   0  0  0  0  0  0  0  0  0  0  0  0
    6.5676   -0.5198   -0.3921 O   0  0  0  0  0  0  0  0  0  0  0  0
   -4.5328   -0.0686    0.4623 N   0  0  0  0  0  0  0  0  0  0  0  0
   -6.6537   -1.3811   -1.0190 C   0  0  0  0  0  0  0  0  0  0  0  0
   -6.6591    0.1267   -0.7825 C   0  0  0  0  0  0  0  0  0  0  0  0
   -5.2256   -1.9192   -1.0291 C   0  0  0  0  0  0  0  0  0  0  0  0
   -5.8909    0.4829    0.4857 C   0  0  0  0  0  0  0  0  0  0  0  0
   -4.4628   -1.5203    0.2341 C   0  0  0  0  0  0  0  0  0  0  0  0
   -3.4532    0.7815    0.6916 C   0  0  0  0  0  0  0  0  0  0  0  0
   -2.0979    0.1961    0.6670 C   0  0  0  0  0  0  0  0  0  0  0  0
   -1.0871    0.9708    0.2794 C   0  0  0  0  0  0  0  0  0  0  0  0
    4.4269   -0.6855    0.3544 C   0  0  0  0  0  0  0  0  0  0  0  0
    2.7074    0.8138   -0.2495 C   0  0  0  0  0  0  0  0  0  0  0  0
    5.3176    0.0172   -0.4243 C   0  0  0  0  0  0  0  0  0  0  0  0
    3.1039   -0.3093    0.4633 C   0  0  0  0  0  0  0  0  0  0  0  0
    0.2760    0.4870    0.2228 C   0  0  0  0  0  0  0  0  0  0  0  0
    1.3047    1.2569   -0.1659 C   0  0  0  0  0  0  0  0  0  0  0  0
    3.6001    1.5371   -1.0443 C   0  0  0  0  0  0  0  0  0  0  0  0
    4.9346    1.1347   -1.1374 C   0  0  0  0  0  0  0  0  0  0  0  0
    6.3637   -1.6397    0.4936 C   0  0  0  0  0  0  0  0  0  0  0  0
   -7.2291   -1.8800   -0.2296 H   0  0  0  0  0  0  0  0  0  0  0  0
   -7.1450   -1.6108   -1.9710 H   0  0  0  0  0  0  0  0  0  0  0  0
   -6.1988    0.6291   -1.6424 H   0  0  0  0  0  0  0  0  0  0  0  0
   -7.6905    0.4884   -0.7081 H   0  0  0  0  0  0  0  0  0  0  0  0
   -5.2398   -3.0105   -1.1253 H   0  0  0  0  0  0  0  0  0  0  0  0
   -4.7006   -1.5237   -1.9077 H   0  0  0  0  0  0  0  0  0  0  0  0
   -5.8693    1.5705    0.6075 H   0  0  0  0  0  0  0  0  0  0  0  0
   -6.3941    0.0671    1.3670 H   0  0  0  0  0  0  0  0  0  0  0  0
   -4.9030   -2.0049    1.1136 H   0  0  0  0  0  0  0  0  0  0  0  0
   -3.4371   -1.8779    0.1433 H   0  0  0  0  0  0  0  0  0  0  0  0
   -1.9370   -0.8224    0.9953 H   0  0  0  0  0  0  0  0  0  0  0  0
   -1.2522    1.9986   -0.0342 H   0  0  0  0  0  0  0  0  0  0  0  0
    2.4465   -0.8828    1.1057 H   0  0  0  0  0  0  0  0  0  0  0  0
    0.4174   -0.5544    0.4962 H   0  0  0  0  0  0  0  0  0  0  0  0
    3.2756    2.4144   -1.5987 H   0  0  0  0  0  0  0  0  0  0  0  0
    1.1219    2.2894   -0.4580 H   0  0  0  0  0  0  0  0  0  0  0  0
    5.6396    1.6851   -1.7500 H   0  0  0  0  0  0  0  0  0  0  0  0
    6.6238   -2.5611   -0.0401 H   0  0  0  0  0  0  0  0  0  0  0  0
    7.0322   -1.5315    1.3555 H   0  0  0  0  0  0  0  0  0  0  0  0
  1 10  2  0  0  0  0
  2 13  1  0  0  0  0
  2 21  1  0  0  0  0
  3 15  1  0  0  0  0
  3 21  1  0  0  0  0
  4  8  1  0  0  0  0
  4  9  1  0  0  0  0
  4 10  1  0  0  0  0
  5  6  1  0  0  0  0
  5  7  1  0  0  0  0
  5 22  1  0  0  0  0
  5 23  1  0  0  0  0
  6  8  1  0  0  0  0
  6 24  1  0  0  0  0
  6 25  1  0  0  0  0
  7  9  1  0  0  0  0
  7 26  1  0  0  0  0
  7 27  1  0  0  0  0
  8 28  1  0  0  0  0
  8 29  1  0  0  0  0
  9 30  1  0  0  0  0
  9 31  1  0  0  0  0
 10 11  1  0  0  0  0
 11 12  2  0  0  0  0
 11 32  1  0  0  0  0
 12 17  1  0  0  0  0
 12 33  1  0  0  0  0
 13 15  2  0  0  0  0
 13 16  1  0  0  0  0
 14 16  2  0  0  0  0
 14 18  1  0  0  0  0
 14 19  1  0  0  0  0
 15 20  1  0  0  0  0
 16 34  1  0  0  0  0
 17 18  2  0  0  0  0
 17 35  1  0  0  0  0
 18 37  1  0  0  0  0
 19 20  2  0  0  0  0
 19 36  1  0  0  0  0
 20 38  1  0  0  0  0
 21 39  1  0  0  0  0
 21 40  1  0  0  0  0
M  END
> <PUBCHEM_COMPOUND_CID>
4840

> <PUBCHEM_CONFORMER_RMSD>
0.8

> <PUBCHEM_CONFORMER_DIVERSEORDER>
1
8
9
3
5
2
4
6
7
11
10

> <PUBCHEM_MMFF94_PARTIAL_CHARGES>
25
1 -0.57
10 0.62
11 -0.14
12 -0.15
13 0.08
14 0.03
15 0.08
16 -0.15
17 -0.15
18 -0.18
19 -0.15
2 -0.36
20 -0.15
21 0.56
3 -0.36
32 0.15
33 0.15
34 0.15
35 0.15
36 0.15
37 0.15
38 0.15
4 -0.66
8 0.3
9 0.3

> <PUBCHEM_EFFECTIVE_ROTOR_COUNT>
5.8

> <PUBCHEM_PHARMACOPHORE_FEATURES>
6
1 1 acceptor
1 2 acceptor
1 3 acceptor
5 2 3 13 15 21 rings
6 13 14 15 16 19 20 rings
6 4 5 6 7 8 9 rings

> <PUBCHEM_HEAVY_ATOM_COUNT>
21

> <PUBCHEM_ATOM_DEF_STEREO_COUNT>
0

> <PUBCHEM_ATOM_UDEF_STEREO_COUNT>
0

> <PUBCHEM_BOND_DEF_STEREO_COUNT>
0

> <PUBCHEM_BOND_UDEF_STEREO_COUNT>
2

> <PUBCHEM_ISOTOPIC_ATOM_COUNT>
0

> <PUBCHEM_COMPONENT_COUNT>
1

> <PUBCHEM_CACTVS_TAUTO_COUNT>
1

> <PUBCHEM_CONFORMER_ID>
000012E800000001

> <PUBCHEM_MMFF94_ENERGY>
46.0369

> <PUBCHEM_FEATURE_SELFOVERLAP>
30.603

> <PUBCHEM_SHAPE_FINGERPRINT>
10 15 15864360133815286962
10299344 5 18411134736577547535
10595046 47 18411695461395531332
106641 1 17603311436696765560
10670039 82 14476972228107786782
10912923 1 18335409171364757040
11315181 36 17822007593501095345
11524674 6 16226048877866703103
11646440 116 14706928445343704386
11719270 70 18040715887250202511
12107183 9 17692810806096450384
12166972 35 18411417297696473481
12236239 1 18409728456420232749
12555020 224 18060419101703068171
12596602 18 17749108898526298154
13288520 33 18186519887512265121
13533116 47 18413670210533799400
13668630 136 18409728465052495598
13862211 1 18334012791554763465
1420 363 16008743602622948453
14251752 14 18343589564156520861
14251764 18 18409728452884660916
15183329 4 17917436427772978427
15188451 53 17967537873788591923
15250474 111 18409731755113800443
15348495 7 14996292370591371343
15716309 27 16587744226818105085
17834072 33 18412822477914470392
17844677 252 17385720287960779305
17857418 61 18409448085381862587
18222031 100 18343306950502137544
19489759 90 17749104504991168153
20028762 73 18409731802954812442
21623969 137 14851601081129335708
220451 1 18410282606233590969
22061861 79 17418095416330038871
221357 26 17561366197114802164
2215653 11 17418091027142370944
22956985 138 17607792109388791246
2303208 19 15430303754811516836
23035841 295 18259982665852582963
23081809 10 18410284809436035617
23198884 109 17418098707277015255
23402539 116 18407759227527964405
23522609 53 18120341394205854481
23559900 14 18264213513424150521
249999 5 17388269943857124040
29717793 49 18343580746330095308
3004659 81 18273498966097242304
3014965 18 17632582681715531530
397830 11 16226628281017161874
4015057 19 17916856929036811497
4073 2 17488733481001143120
4340502 62 14418134028475114276
439807 62 18340204069403270523
465052 167 18335696148758511078
504579 68 18200863020532654724
5104073 3 17604142611331108017
5283156 175 18409166611032743435
531348 171 18200881776950234821
542803 24 9871749078835671784
559249 180 18333733520851122807
7495541 125 17676769790403740728

> <PUBCHEM_SHAPE_MULTIPOLES>
409.58
20.99
1.82
1.04
5.52
0.36
-0.14
8.39
-3.49
0.01
-0.03
0.28
0
-2.47

> <PUBCHEM_SHAPE_SELFOVERLAP>
872.142

> <PUBCHEM_SHAPE_VOLUME>
226.5

> <PUBCHEM_COORDINATE_TYPE>
2
5
10

$$$$

