101253
  -OEChem-07051213003D

 43 45  0     0  0  0  0  0  0999 V2000
    1.2123    2.7953   -0.1923 O   0  0  0  0  0  0  0  0  0  0  0  0
    1.2853   -2.7103   -0.0123 O   0  0  0  0  0  0  0  0  0  0  0  0
    3.5406    1.4584   -0.1125 O   0  0  0  0  0  0  0  0  0  0  0  0
    3.5977   -1.2861   -0.0067 O   0  0  0  0  0  0  0  0  0  0  0  0
   -1.2459   -2.6733   -0.1946 O   0  0  0  0  0  0  0  0  0  0  0  0
   -1.3343    1.3707   -0.3528 N   0  0  0  0  0  0  0  0  0  0  0  0
   -0.0752    0.7355   -0.2579 C   0  0  0  0  0  0  0  0  0  0  0  0
   -0.0116   -0.6690   -0.1716 C   0  0  0  0  0  0  0  0  0  0  0  0
   -2.5520    0.6860   -0.1373 C   0  0  0  0  0  0  0  0  0  0  0  0
   -2.5509   -0.7197   -0.0479 C   0  0  0  0  0  0  0  0  0  0  0  0
   -1.2681   -1.4501   -0.1488 C   0  0  0  0  0  0  0  0  0  0  0  0
    1.1485    1.4292   -0.2274 C   0  0  0  0  0  0  0  0  0  0  0  0
    1.2117   -1.3501   -0.0950 C   0  0  0  0  0  0  0  0  0  0  0  0
    2.3716    0.7542   -0.1467 C   0  0  0  0  0  0  0  0  0  0  0  0
    2.4033   -0.6337   -0.0864 C   0  0  0  0  0  0  0  0  0  0  0  0
   -1.3771    2.8076   -0.6384 C   0  0  0  0  0  0  0  0  0  0  0  0
   -3.7935    1.3305    0.0133 C   0  0  0  0  0  0  0  0  0  0  0  0
   -3.7329   -1.4488    0.1456 C   0  0  0  0  0  0  0  0  0  0  0  0
   -4.9752    0.6076    0.2112 C   0  0  0  0  0  0  0  0  0  0  0  0
   -4.9455   -0.7804    0.2713 C   0  0  0  0  0  0  0  0  0  0  0  0
    1.2288    3.4047    1.0942 C   0  0  0  0  0  0  0  0  0  0  0  0
    1.2826   -3.2789    1.2945 C   0  0  0  0  0  0  0  0  0  0  0  0
    4.3666    1.2823    1.0352 C   0  0  0  0  0  0  0  0  0  0  0  0
    4.2133   -1.6615   -1.2367 C   0  0  0  0  0  0  0  0  0  0  0  0
   -0.6329    3.1147   -1.3802 H   0  0  0  0  0  0  0  0  0  0  0  0
   -1.3085    3.4018    0.2766 H   0  0  0  0  0  0  0  0  0  0  0  0
   -2.3084    3.0954   -1.1400 H   0  0  0  0  0  0  0  0  0  0  0  0
   -3.8819    2.4131    0.0038 H   0  0  0  0  0  0  0  0  0  0  0  0
   -3.7242   -2.5335    0.2092 H   0  0  0  0  0  0  0  0  0  0  0  0
   -5.9183    1.1350    0.3236 H   0  0  0  0  0  0  0  0  0  0  0  0
   -5.8634   -1.3394    0.4257 H   0  0  0  0  0  0  0  0  0  0  0  0
    2.2404    3.3762    1.5091 H   0  0  0  0  0  0  0  0  0  0  0  0
    0.5352    2.9151    1.7862 H   0  0  0  0  0  0  0  0  0  0  0  0
    0.9333    4.4518    0.9831 H   0  0  0  0  0  0  0  0  0  0  0  0
    0.4872   -2.8557    1.9167 H   0  0  0  0  0  0  0  0  0  0  0  0
    2.2522   -3.1171    1.7753 H   0  0  0  0  0  0  0  0  0  0  0  0
    1.1168   -4.3555    1.1994 H   0  0  0  0  0  0  0  0  0  0  0  0
    5.1591    0.5603    0.8199 H   0  0  0  0  0  0  0  0  0  0  0  0
    3.7954    0.9709    1.9170 H   0  0  0  0  0  0  0  0  0  0  0  0
    4.8393    2.2432    1.2596 H   0  0  0  0  0  0  0  0  0  0  0  0
    4.4266   -0.7780   -1.8466 H   0  0  0  0  0  0  0  0  0  0  0  0
    3.5741   -2.3552   -1.7918 H   0  0  0  0  0  0  0  0  0  0  0  0
    5.1573   -2.1635   -1.0075 H   0  0  0  0  0  0  0  0  0  0  0  0
  1 12  1  0  0  0  0
  1 21  1  0  0  0  0
  2 13  1  0  0  0  0
  2 22  1  0  0  0  0
  3 14  1  0  0  0  0
  3 23  1  0  0  0  0
  4 15  1  0  0  0  0
  4 24  1  0  0  0  0
  5 11  2  0  0  0  0
  6  7  1  0  0  0  0
  6  9  1  0  0  0  0
  6 16  1  0  0  0  0
  7  8  2  0  0  0  0
  7 12  1  0  0  0  0
  8 11  1  0  0  0  0
  8 13  1  0  0  0  0
  9 10  1  0  0  0  0
  9 17  2  0  0  0  0
 10 11  1  0  0  0  0
 10 18  2  0  0  0  0
 12 14  2  0  0  0  0
 13 15  2  0  0  0  0
 14 15  1  0  0  0  0
 16 25  1  0  0  0  0
 16 26  1  0  0  0  0
 16 27  1  0  0  0  0
 17 19  1  0  0  0  0
 17 28  1  0  0  0  0
 18 20  1  0  0  0  0
 18 29  1  0  0  0  0
 19 20  2  0  0  0  0
 19 30  1  0  0  0  0
 20 31  1  0  0  0  0
 21 32  1  0  0  0  0
 21 33  1  0  0  0  0
 21 34  1  0  0  0  0
 22 35  1  0  0  0  0
 22 36  1  0  0  0  0
 22 37  1  0  0  0  0
 23 38  1  0  0  0  0
 23 39  1  0  0  0  0
 23 40  1  0  0  0  0
 24 41  1  0  0  0  0
 24 42  1  0  0  0  0
 24 43  1  0  0  0  0
M  END
> <PUBCHEM_COMPOUND_CID>
101253

> <PUBCHEM_CONFORMER_RMSD>
0.8

> <PUBCHEM_CONFORMER_DIVERSEORDER>
2
3
1

> <PUBCHEM_MMFF94_PARTIAL_CHARGES>
28
1 -0.36
10 0.09
11 0.4
12 0.08
13 0.08
14 0.08
15 0.08
16 0.37
17 -0.15
18 -0.15
19 -0.15
2 -0.36
20 -0.15
21 0.28
22 0.28
23 0.28
24 0.28
28 0.15
29 0.15
3 -0.36
30 0.15
31 0.15
4 -0.36
5 -0.57
6 -0.57
7 0.1
8 0.09
9 0.1

> <PUBCHEM_EFFECTIVE_ROTOR_COUNT>
4

> <PUBCHEM_PHARMACOPHORE_FEATURES>
9
1 1 acceptor
1 2 acceptor
1 3 acceptor
1 4 acceptor
1 5 acceptor
1 6 cation
6 6 7 8 9 10 11 rings
6 7 8 12 13 14 15 rings
6 9 10 17 18 19 20 rings

> <PUBCHEM_HEAVY_ATOM_COUNT>
24

> <PUBCHEM_ATOM_DEF_STEREO_COUNT>
0

> <PUBCHEM_ATOM_UDEF_STEREO_COUNT>
0

> <PUBCHEM_BOND_DEF_STEREO_COUNT>
0

> <PUBCHEM_BOND_UDEF_STEREO_COUNT>
0

> <PUBCHEM_ISOTOPIC_ATOM_COUNT>
0

> <PUBCHEM_COMPONENT_COUNT>
1

> <PUBCHEM_CACTVS_TAUTO_COUNT>
1

> <PUBCHEM_CONFORMER_ID>
00018B8500000002

> <PUBCHEM_MMFF94_ENERGY>
135.924

> <PUBCHEM_FEATURE_SELFOVERLAP>
45.749

> <PUBCHEM_SHAPE_FINGERPRINT>
10366900 7 18060128856392582867
10411042 1 17906735061357397655
10906281 52 18196362625146415792
10967382 1 18411419483860356485
1100329 8 18411420592104752962
12011746 2 18340203098180888695
12236239 1 17821729434402485383
12403259 226 18411140246857259557
12553582 1 18339931523024816575
13140716 1 18195532489023565873
13583140 156 14201694125154539511
138480 1 18339080509461637798
14178342 30 17689445888240571929
14223421 5 18269278035231303791
14466204 15 18410302380210606008
14790565 3 18125150542180575572
15196674 1 18410572886009088591
15536298 74 18335137591892021111
1601671 61 18337390440121149944
16945 1 18341060691132460375
17804303 29 18411411834892926045
1813 80 17346318180561702357
19591789 44 18338795723123385206
20028762 73 17973724675690664455
20905425 154 18123188162847657246
21267235 1 18339068372237864039
21421861 104 18058736943037555947
221490 88 18340476777675990115
22182313 1 18340218482595734252
2334 1 17907580229157635525
23559900 14 18408042918148539604
2748010 2 18125158230076147783
2871803 45 18341895224879659655
335352 9 18338514243909567535
34934 24 18335426733395865727
350125 39 18339637970457553892
352729 6 16971957290812993879
5104073 3 18410009948909031883
7364860 26 18335419041114745733
9709674 26 18337948970416125687
9981440 41 17397277031363100008

> <PUBCHEM_SHAPE_MULTIPOLES>
459.58
8.25
3.66
0.88
3.84
0.39
-0.11
-0.49
-0.33
-1.73
-0.71
-0.6
-0.06
0.71

> <PUBCHEM_SHAPE_SELFOVERLAP>
1006.422

> <PUBCHEM_SHAPE_VOLUME>
249.3

> <PUBCHEM_COORDINATE_TYPE>
2
5
10

$$$$

