5281133
  -OEChem-07051212553D

 35 35  0     1  0  0  0  0  0999 V2000
    0.1531    2.4231    0.6654 S   0  0  0  0  0  0  0  0  0  0  0  0
   -3.7518   -0.6549   -0.8003 S   0  0  0  0  0  0  0  0  0  0  0  0
    0.9333   -0.1292    0.8050 O   0  0  0  0  0  0  0  0  0  0  0  0
    3.6291   -2.2281   -0.5067 O   0  0  0  0  0  0  0  0  0  0  0  0
    4.7272    0.4836   -0.6509 O   0  0  0  0  0  0  0  0  0  0  0  0
    2.6533    2.4081   -1.2138 O   0  0  0  0  0  0  0  0  0  0  0  0
   -0.1723   -2.5933    1.3021 O   0  0  0  0  0  0  0  0  0  0  0  0
   -3.2028    0.4798    0.2399 O   0  0  0  0  0  0  0  0  0  0  0  0
   -5.3232   -0.8205   -0.3929 O   0  0  0  0  0  0  0  0  0  0  0  0
   -3.7015   -0.0901   -2.1357 O   0  0  0  0  0  0  0  0  0  0  0  0
   -3.0800   -1.9085   -0.5114 O   0  0  0  0  0  0  0  0  0  0  0  0
   -1.8879    0.8579   -0.0519 N   0  0  0  0  0  0  0  0  0  0  0  0
    3.0547   -1.0819    0.1151 C   0  0  1  0  0  0  0  0  0  0  0  0
    3.3386    0.1573   -0.7347 C   0  0  1  0  0  0  0  0  0  0  0  0
    1.5467   -1.2998    0.2637 C   0  0  1  0  0  0  0  0  0  0  0  0
    2.5389    1.3681   -0.2432 C   0  0  2  0  0  0  0  0  0  0  0  0
    1.0627    1.0061   -0.0503 C   0  0  2  0  0  0  0  0  0  0  0  0
    1.2338   -2.4584    1.2052 C   0  0  0  0  0  0  0  0  0  0  0  0
   -1.4680    1.7570    0.7807 C   0  0  0  0  0  0  0  0  0  0  0  0
   -2.2837    2.3235    1.9149 C   0  0  0  0  0  0  0  0  0  0  0  0
    3.5240   -0.9665    1.1003 H   0  0  0  0  0  0  0  0  0  0  0  0
    3.1312   -0.0477   -1.7924 H   0  0  0  0  0  0  0  0  0  0  0  0
    1.0872   -1.5169   -0.7104 H   0  0  0  0  0  0  0  0  0  0  0  0
    2.9856    1.7290    0.6926 H   0  0  0  0  0  0  0  0  0  0  0  0
    0.6036    0.7895   -1.0230 H   0  0  0  0  0  0  0  0  0  0  0  0
    1.6114   -2.2581    2.2130 H   0  0  0  0  0  0  0  0  0  0  0  0
    1.6554   -3.4043    0.8525 H   0  0  0  0  0  0  0  0  0  0  0  0
    4.5795   -2.0537   -0.6162 H   0  0  0  0  0  0  0  0  0  0  0  0
    4.8724    1.2790   -1.1915 H   0  0  0  0  0  0  0  0  0  0  0  0
    2.1296    3.1622   -0.8933 H   0  0  0  0  0  0  0  0  0  0  0  0
   -0.5122   -2.7967    0.4140 H   0  0  0  0  0  0  0  0  0  0  0  0
   -2.5725    1.5136    2.5918 H   0  0  0  0  0  0  0  0  0  0  0  0
   -3.1889    2.7889    1.5129 H   0  0  0  0  0  0  0  0  0  0  0  0
   -1.7378    3.0754    2.4914 H   0  0  0  0  0  0  0  0  0  0  0  0
   -5.5002   -0.9193    0.5720 H   0  0  0  0  0  0  0  0  0  0  0  0
  1 17  1  0  0  0  0
  1 19  1  0  0  0  0
  2  8  1  0  0  0  0
  2  9  1  0  0  0  0
  2 10  2  0  0  0  0
  2 11  2  0  0  0  0
  3 15  1  0  0  0  0
  3 17  1  0  0  0  0
  4 13  1  0  0  0  0
  4 28  1  0  0  0  0
  5 14  1  0  0  0  0
  5 29  1  0  0  0  0
  6 16  1  0  0  0  0
  6 30  1  0  0  0  0
  7 18  1  0  0  0  0
  7 31  1  0  0  0  0
  8 12  1  0  0  0  0
  9 35  1  0  0  0  0
 12 19  2  0  0  0  0
 13 14  1  0  0  0  0
 13 15  1  0  0  0  0
 13 21  1  0  0  0  0
 14 16  1  0  0  0  0
 14 22  1  0  0  0  0
 15 18  1  0  0  0  0
 15 23  1  0  0  0  0
 16 17  1  0  0  0  0
 16 24  1  0  0  0  0
 17 25  1  0  0  0  0
 18 26  1  0  0  0  0
 18 27  1  0  0  0  0
 19 20  1  0  0  0  0
 20 32  1  0  0  0  0
 20 33  1  0  0  0  0
 20 34  1  0  0  0  0
M  END
> <PUBCHEM_COMPOUND_CID>
5281133

> <PUBCHEM_CONFORMER_RMSD>
0.8

> <PUBCHEM_CONFORMER_DIVERSEORDER>
1
42
37
8
17
44
34
35
7
16
38
27
14
4
33
43
12
13
6
32
46
29
26
9
36
22
5
21
45
20
25
31
18
28
30
47
15
39
19
41
24
3
23
40
11
10
2

> <PUBCHEM_MMFF94_PARTIAL_CHARGES>
25
1 -0.37
10 -0.65
11 -0.65
12 -0.51
13 0.28
14 0.28
15 0.28
16 0.28
17 0.51
18 0.28
19 0.53
2 1.67
20 0.06
28 0.4
29 0.4
3 -0.56
30 0.4
31 0.4
35 0.5
4 -0.68
5 -0.68
6 -0.68
7 -0.68
8 -0.12
9 -0.68

> <PUBCHEM_EFFECTIVE_ROTOR_COUNT>
6.2

> <PUBCHEM_PHARMACOPHORE_FEATURES>
15
1 10 acceptor
1 11 acceptor
1 12 acceptor
1 3 acceptor
1 4 acceptor
1 4 donor
1 5 acceptor
1 5 donor
1 6 acceptor
1 6 donor
1 7 acceptor
1 7 donor
1 9 acceptor
4 2 9 10 11 anion
6 3 13 14 15 16 17 rings

> <PUBCHEM_HEAVY_ATOM_COUNT>
20

> <PUBCHEM_ATOM_DEF_STEREO_COUNT>
5

> <PUBCHEM_ATOM_UDEF_STEREO_COUNT>
0

> <PUBCHEM_BOND_DEF_STEREO_COUNT>
0

> <PUBCHEM_BOND_UDEF_STEREO_COUNT>
1

> <PUBCHEM_ISOTOPIC_ATOM_COUNT>
0

> <PUBCHEM_COMPONENT_COUNT>
1

> <PUBCHEM_CACTVS_TAUTO_COUNT>
1

> <PUBCHEM_CONFORMER_ID>
0050956D00000001

> <PUBCHEM_MMFF94_ENERGY>
39.3461

> <PUBCHEM_FEATURE_SELFOVERLAP>
76.192

> <PUBCHEM_SHAPE_FINGERPRINT>
11578080 2 18046655505093747616
11806522 49 18408605876987333624
12403259 327 5184069279736932133
12553582 1 18114472197257354645
12596599 1 18044929310497002070
12788726 201 17895472635437332513
13032168 30 18334006211828728216
13583140 156 16199860675340694304
14178342 30 18192445275211014736
14251764 3 16558746793473258009
14576447 43 18335138683161867556
14787075 74 18042413443610639848
14931854 50 18411984641643597199
15279307 12 18191854841709125121
16752209 62 17895771719684750949
18915474 69 18334295370295838950
19422 9 18188485903753282276
19433438 48 18120937466998705912
20291156 8 18259990370628500413
21634736 98 18409445890848863694
23402539 116 18267583692746321070
235170 7 17346610672736045687
23557571 272 17530960323929372432
23598288 3 17969785361967282509
23598291 2 18264762349444818336
238 59 17989488528120330729
2748010 2 17257359748791186840
2871803 45 18411985762598158989
3323516 105 18268717112929817995
4409770 3 16319228858277645128

> <PUBCHEM_SHAPE_MULTIPOLES>
361.48
8.21
3.09
1.4
4.17
0.03
0
2.33
-3.56
-0.42
1.09
0.82
-0.11
-1.75

> <PUBCHEM_SHAPE_SELFOVERLAP>
696.258

> <PUBCHEM_SHAPE_VOLUME>
221

> <PUBCHEM_COORDINATE_TYPE>
2
5
10

$$$$

