5461055
  -OEChem-07051212463D

 40 41  0     1  0  0  0  0  0999 V2000
   -3.0048    0.1292    2.1537 O   0  0  0  0  0  0  0  0  0  0  0  0
   -4.5935   -1.3247    1.4236 O   0  0  0  0  0  0  0  0  0  0  0  0
    7.5057    0.5005    0.8725 O   0  0  0  0  0  0  0  0  0  0  0  0
   -2.4000    0.8608   -0.8469 N   0  0  0  0  0  0  0  0  0  0  0  0
   -0.3219    1.6680   -0.8363 N   0  0  0  0  0  0  0  0  0  0  0  0
    2.0928   -0.1700   -0.6444 N   0  0  0  0  0  0  0  0  0  0  0  0
   -1.9250   -1.5157   -0.6821 N   0  0  0  0  0  0  0  0  0  0  0  0
   -5.9455    0.8640    0.3818 N   0  0  0  0  0  0  0  0  0  0  0  0
    0.4773   -1.9345   -0.5832 N   0  0  0  0  0  0  0  0  0  0  0  0
   -3.8421    0.8488   -0.8890 C   0  0  0  0  0  0  0  0  0  0  0  0
   -4.4878    0.9338    0.4981 C   0  0  2  0  0  0  0  0  0  0  0  0
   -1.5739   -0.2229   -0.7534 C   0  0  0  0  0  0  0  0  0  0  0  0
   -0.2901    0.2988   -0.7478 C   0  0  0  0  0  0  0  0  0  0  0  0
   -1.6015    1.9728   -0.8944 C   0  0  0  0  0  0  0  0  0  0  0  0
    0.7760   -0.6054   -0.6581 C   0  0  0  0  0  0  0  0  0  0  0  0
    3.2284   -1.0535   -0.5540 C   0  0  0  0  0  0  0  0  0  0  0  0
   -4.0621   -0.2242    1.3778 C   0  0  0  0  0  0  0  0  0  0  0  0
   -0.8276   -2.2991   -0.5995 C   0  0  0  0  0  0  0  0  0  0  0  0
    4.4849   -0.2394   -0.5899 C   0  0  0  0  0  0  0  0  0  0  0  0
    5.1596    0.2789    0.4546 C   0  0  0  0  0  0  0  0  0  0  0  0
    6.3974    1.1085    0.2222 C   0  0  0  0  0  0  0  0  0  0  0  0
    4.7538    0.1252    1.8948 C   0  0  0  0  0  0  0  0  0  0  0  0
   -4.1429   -0.0686   -1.4112 H   0  0  0  0  0  0  0  0  0  0  0  0
   -4.1603    1.6922   -1.5143 H   0  0  0  0  0  0  0  0  0  0  0  0
   -4.2272    1.8767    0.9925 H   0  0  0  0  0  0  0  0  0  0  0  0
   -2.0059    2.9732   -0.9691 H   0  0  0  0  0  0  0  0  0  0  0  0
    2.2466    0.8317   -0.6992 H   0  0  0  0  0  0  0  0  0  0  0  0
    3.2386   -1.7501   -1.4008 H   0  0  0  0  0  0  0  0  0  0  0  0
    3.1759   -1.6624    0.3549 H   0  0  0  0  0  0  0  0  0  0  0  0
   -6.3699    0.8809    1.3083 H   0  0  0  0  0  0  0  0  0  0  0  0
   -6.2218   -0.0163   -0.0512 H   0  0  0  0  0  0  0  0  0  0  0  0
   -1.0155   -3.3656   -0.5371 H   0  0  0  0  0  0  0  0  0  0  0  0
    4.8673   -0.0497   -1.5923 H   0  0  0  0  0  0  0  0  0  0  0  0
    6.2576    2.1145    0.6321 H   0  0  0  0  0  0  0  0  0  0  0  0
    6.6381    1.2048   -0.8417 H   0  0  0  0  0  0  0  0  0  0  0  0
    5.4864   -0.4832    2.4346 H   0  0  0  0  0  0  0  0  0  0  0  0
    4.6974    1.1072    2.3768 H   0  0  0  0  0  0  0  0  0  0  0  0
    3.7747   -0.3447    2.0175 H   0  0  0  0  0  0  0  0  0  0  0  0
   -2.7187   -0.6048    2.7381 H   0  0  0  0  0  0  0  0  0  0  0  0
    8.2762    1.0735    0.7190 H   0  0  0  0  0  0  0  0  0  0  0  0
  1 17  1  0  0  0  0
  1 39  1  0  0  0  0
  2 17  2  0  0  0  0
  3 21  1  0  0  0  0
  3 40  1  0  0  0  0
  4 10  1  0  0  0  0
  4 12  1  0  0  0  0
  4 14  1  0  0  0  0
  5 13  1  0  0  0  0
  5 14  2  0  0  0  0
  6 15  1  0  0  0  0
  6 16  1  0  0  0  0
  6 27  1  0  0  0  0
  7 12  2  0  0  0  0
  7 18  1  0  0  0  0
  8 11  1  0  0  0  0
  8 30  1  0  0  0  0
  8 31  1  0  0  0  0
  9 15  1  0  0  0  0
  9 18  2  0  0  0  0
 10 11  1  0  0  0  0
 10 23  1  0  0  0  0
 10 24  1  0  0  0  0
 11 17  1  0  0  0  0
 11 25  1  0  0  0  0
 12 13  1  0  0  0  0
 13 15  2  0  0  0  0
 14 26  1  0  0  0  0
 16 19  1  0  0  0  0
 16 28  1  0  0  0  0
 16 29  1  0  0  0  0
 18 32  1  0  0  0  0
 19 20  2  0  0  0  0
 19 33  1  0  0  0  0
 20 21  1  0  0  0  0
 20 22  1  0  0  0  0
 21 34  1  0  0  0  0
 21 35  1  0  0  0  0
 22 36  1  0  0  0  0
 22 37  1  0  0  0  0
 22 38  1  0  0  0  0
M  END
> <PUBCHEM_COMPOUND_CID>
5461055

> <PUBCHEM_CONFORMER_RMSD>
0.8

> <PUBCHEM_CONFORMER_DIVERSEORDER>
1
22
80
45
91
54
92
46
60
115
34
11
4
105
53
55
112
74
75
86
31
44
57
103
32
68
98
122
17
28
72
106
27
30
116
123
84
97
33
76
95
96
40
87
85
6
108
79
73
50
66
101
118
78
107
38
39
67
104
25
100
61
102
21
49
63
62
47
93
124
14
35
89
90
43
5
56
82
110
113
71
70
51
24
120
109
69
48
121
29
88
41
77
64
19
16
52
114
15
94
26
83
13
10
111
65
119
12
7
81
117
18
9
8
3
58
20
59
36
42
37
23
2
99

> <PUBCHEM_MMFF94_PARTIAL_CHARGES>
30
1 -0.65
10 0.26
11 0.33
12 0.11
13 0.23
14 0.04
15 0.41
16 0.51
17 0.66
18 0.47
19 -0.29
2 -0.57
20 -0.28
21 0.42
22 0.14
26 0.15
27 0.4
3 -0.68
30 0.36
31 0.36
32 0.15
33 0.15
39 0.5
4 0.05
40 0.4
5 -0.57
6 -0.87
7 -0.57
8 -0.99
9 -0.62

> <PUBCHEM_EFFECTIVE_ROTOR_COUNT>
7

> <PUBCHEM_PHARMACOPHORE_FEATURES>
15
1 1 acceptor
1 2 acceptor
1 22 hydrophobe
1 3 acceptor
1 3 donor
1 6 cation
1 6 donor
1 8 cation
1 8 donor
3 1 2 17 anion
3 4 5 14 cation
3 4 7 12 cation
3 7 9 18 cation
5 4 5 12 13 14 rings
6 7 9 12 13 15 18 rings

> <PUBCHEM_HEAVY_ATOM_COUNT>
22

> <PUBCHEM_ATOM_DEF_STEREO_COUNT>
1

> <PUBCHEM_ATOM_UDEF_STEREO_COUNT>
0

> <PUBCHEM_BOND_DEF_STEREO_COUNT>
1

> <PUBCHEM_BOND_UDEF_STEREO_COUNT>
0

> <PUBCHEM_ISOTOPIC_ATOM_COUNT>
0

> <PUBCHEM_COMPONENT_COUNT>
1

> <PUBCHEM_CACTVS_TAUTO_COUNT>
3

> <PUBCHEM_CONFORMER_ID>
0053543F00000001

> <PUBCHEM_MMFF94_ENERGY>
32.248

> <PUBCHEM_FEATURE_SELFOVERLAP>
76.778

> <PUBCHEM_SHAPE_FINGERPRINT>
10 15 18343585123429465808
106641 1 18336262367171482075
10670039 82 4967618243450066122
12035758 1 18058711594995305345
12236239 1 17095804421193061525
12403259 118 17918268770506628164
12403259 415 18265332983590416628
12596602 18 17275387599623692208
12633257 1 18334582304830461072
12670543 26 8358264726190023012
12760667 363 11240001178689007116
12954195 1 10231490608936972662
13140716 1 18268144271160279573
13288520 33 14117516545565930141
13583140 156 17060074643696580260
13668630 136 11887948856688864624
14251752 14 5328746253977875196
15048467 5 17530965803917316773
15183329 4 14129055928905684160
17834072 8 7565339834308530556
17857418 61 15267345115405602784
200 152 13686295781369535246
20645477 56 18335426768320009270
20871999 31 8142094164885963982
21033648 29 18263096533811096416
21150785 3 4967606187577046776
21637258 2 15554444051089892939
22079108 93 17822013111858837055
22182313 1 18197209458999125415
22224240 67 18408038524971930731
23198884 109 15791731905911225836
23379529 103 11093586821758997121
23402539 116 11095889275836053134
23559900 14 17629750438299306247
25147074 1 18197213642202040268
2838139 119 15502370132109897442
3545911 37 18335704962358372236
5104073 3 18198623435458213840

> <PUBCHEM_SHAPE_MULTIPOLES>
405.26
14.68
1.75
1.47
19.01
0.53
-0.8
-4.96
-6.76
-0.82
0.47
-0.61
-0.07
0.87

> <PUBCHEM_SHAPE_SELFOVERLAP>
847.331

> <PUBCHEM_SHAPE_VOLUME>
226.9

> <PUBCHEM_COORDINATE_TYPE>
2
5
10

$$$$

