440984
  -OEChem-07051212513D

 22 23  0     1  0  0  0  0  0999 V2000
    1.7093   -1.7242    1.2477 O   0  0  0  0  0  0  0  0  0  0  0  0
    2.9408    0.2160   -1.4777 O   0  0  0  0  0  0  0  0  0  0  0  0
   -3.8218    0.5671   -0.1148 O   0  0  0  0  0  0  0  0  0  0  0  0
   -1.5915    1.0938    0.1742 N   0  0  0  0  0  0  0  0  0  0  0  0
    1.5107   -1.0419    0.0072 C   0  0  2  0  0  0  0  0  0  0  0  0
    2.5448    0.1032   -0.1097 C   0  0  2  0  0  0  0  0  0  0  0  0
    0.0732   -0.5751   -0.0203 C   0  0  0  0  0  0  0  0  0  0  0  0
   -0.2686    0.7082    0.2020 C   0  0  0  0  0  0  0  0  0  0  0  0
    2.0380    1.4447    0.3423 C   0  0  0  0  0  0  0  0  0  0  0  0
    0.7326    1.7078    0.4943 C   0  0  0  0  0  0  0  0  0  0  0  0
   -0.9675   -1.5409   -0.3104 C   0  0  0  0  0  0  0  0  0  0  0  0
   -2.2586   -1.1875   -0.3472 C   0  0  0  0  0  0  0  0  0  0  0  0
   -2.6413    0.2289   -0.0876 C   0  0  0  0  0  0  0  0  0  0  0  0
    1.6780   -1.7727   -0.7933 H   0  0  0  0  0  0  0  0  0  0  0  0
    3.4405   -0.1405    0.4743 H   0  0  0  0  0  0  0  0  0  0  0  0
    2.7669    2.2259    0.5375 H   0  0  0  0  0  0  0  0  0  0  0  0
    0.4126    2.6935    0.8166 H   0  0  0  0  0  0  0  0  0  0  0  0
   -0.6813   -2.5706   -0.4979 H   0  0  0  0  0  0  0  0  0  0  0  0
   -1.8084    2.0701    0.3549 H   0  0  0  0  0  0  0  0  0  0  0  0
   -3.0432   -1.9030   -0.5615 H   0  0  0  0  0  0  0  0  0  0  0  0
    1.6357   -1.0721    1.9658 H   0  0  0  0  0  0  0  0  0  0  0  0
    3.3792   -0.6160   -1.7253 H   0  0  0  0  0  0  0  0  0  0  0  0
  1  5  1  0  0  0  0
  1 21  1  0  0  0  0
  2  6  1  0  0  0  0
  2 22  1  0  0  0  0
  3 13  2  0  0  0  0
  4  8  1  0  0  0  0
  4 13  1  0  0  0  0
  4 19  1  0  0  0  0
  5  6  1  0  0  0  0
  5  7  1  0  0  0  0
  5 14  1  0  0  0  0
  6  9  1  0  0  0  0
  6 15  1  0  0  0  0
  7  8  2  0  0  0  0
  7 11  1  0  0  0  0
  8 10  1  0  0  0  0
  9 10  2  0  0  0  0
  9 16  1  0  0  0  0
 10 17  1  0  0  0  0
 11 12  2  0  0  0  0
 11 18  1  0  0  0  0
 12 13  1  0  0  0  0
 12 20  1  0  0  0  0
M  END
> <PUBCHEM_COMPOUND_CID>
440984

> <PUBCHEM_CONFORMER_RMSD>
0.4

> <PUBCHEM_CONFORMER_DIVERSEORDER>
1
2
3
6
5
4

> <PUBCHEM_MMFF94_PARTIAL_CHARGES>
20
1 -0.68
10 -0.15
11 -0.15
12 -0.14
13 0.62
16 0.15
17 0.15
18 0.15
19 0.37
2 -0.68
20 0.15
21 0.4
22 0.4
3 -0.57
4 -0.54
5 0.42
6 0.42
7 -0.14
8 0.11
9 -0.29

> <PUBCHEM_EFFECTIVE_ROTOR_COUNT>
0.4

> <PUBCHEM_PHARMACOPHORE_FEATURES>
8
1 1 acceptor
1 1 donor
1 2 acceptor
1 2 donor
1 3 acceptor
1 4 donor
6 4 7 8 11 12 13 rings
6 5 6 7 8 9 10 rings

> <PUBCHEM_HEAVY_ATOM_COUNT>
13

> <PUBCHEM_ATOM_DEF_STEREO_COUNT>
0

> <PUBCHEM_ATOM_UDEF_STEREO_COUNT>
2

> <PUBCHEM_BOND_DEF_STEREO_COUNT>
0

> <PUBCHEM_BOND_UDEF_STEREO_COUNT>
0

> <PUBCHEM_ISOTOPIC_ATOM_COUNT>
0

> <PUBCHEM_COMPONENT_COUNT>
1

> <PUBCHEM_CACTVS_TAUTO_COUNT>
2

> <PUBCHEM_CONFORMER_ID>
0006BA9800000001

> <PUBCHEM_MMFF94_ENERGY>
27.5257

> <PUBCHEM_FEATURE_SELFOVERLAP>
40.618

> <PUBCHEM_SHAPE_FINGERPRINT>
11031198 65 17988635298491358858
12423570 1 17246956229956604450
12524768 44 18333167271487176919
12897270 3 18408321060066935932
12932764 1 18413393129023555469
13221675 6 18408600366253986551
13380535 21 18342730802303918203
14144814 61 18334576871438057177
14325111 11 18335423418034729305
14911166 2 18334007306828909237
14993402 34 18261109703356124877
15279308 100 18408888447048855605
15775835 57 18341891887531724101
16945 1 18408040714692997849
17844478 74 18202274776330315497
18186145 218 18260269663872763413
20201158 50 18040710368374891182
20559304 39 18339088201637503298
20645476 183 18130777928368715887
21501502 16 18337402534622214563
2334 1 17976542710832639953
23402655 69 18261405459647968077
23463225 33 18267590284814297219
23552423 10 18268716004416708005
23559900 14 18334286541019724988
2748010 2 18119532033355986845
528886 8 18334580126622308355
53812653 166 18335427828776206072
53812654 25 18190196730871626626
7364860 26 18334019427749052594
8030462 33 18342464698941261503

> <PUBCHEM_SHAPE_MULTIPOLES>
244.94
4.56
1.77
0.86
2.05
0.05
-0.06
-0.51
-0.79
-0.23
0.32
-0.58
0.17
-0.2

> <PUBCHEM_SHAPE_SELFOVERLAP>
527.8

> <PUBCHEM_SHAPE_VOLUME>
133.2

> <PUBCHEM_COORDINATE_TYPE>
2
5
10

$$$$

