60953
  -OEChem-07051213032D

 47 48  0     1  0  0  0  0  0999 V2000
    7.1962   -0.0429    0.0000 F   0  0  0  0  0  0  0  0  0  0  0  0
    6.2731   -3.6307    0.0000 O   0  0  0  0  0  0  0  0  0  0  0  0
    3.7040   -3.3216    0.0000 O   0  0  0  0  0  0  0  0  0  0  0  0
    4.3763   -5.3907    0.0000 O   0  0  0  0  0  0  0  0  0  0  0  0
    3.7320   -2.0429    0.0000 O   0  0  0  0  0  0  0  0  0  0  0  0
    4.5981    2.4571    0.0000 O   0  0  0  0  0  0  0  0  0  0  0  0
    3.7320    0.9571    0.0000 O   0  0  0  0  0  0  0  0  0  0  0  0
    5.4641   -2.0429    0.0000 N   0  0  0  0  0  0  0  0  0  0  0  0
    4.5981   -0.5429    0.0000 N   0  0  0  0  0  0  0  0  0  0  0  0
    5.4641    0.9571    0.0000 N   0  0  0  0  0  0  0  0  0  0  0  0
    4.6551   -3.6307    0.0000 C   0  0  2  0  0  0  0  0  0  0  0  0
    4.9641   -4.5817    0.0000 C   0  0  1  0  0  0  0  0  0  0  0  0
    5.4641   -3.0429    0.0000 C   0  0  1  0  0  0  0  0  0  0  0  0
    5.9641   -4.5817    0.0000 C   0  0  1  0  0  0  0  0  0  0  0  0
    6.5519   -5.3907    0.0000 C   0  0  0  0  0  0  0  0  0  0  0  0
    6.3301   -1.5429    0.0000 C   0  0  0  0  0  0  0  0  0  0  0  0
    4.5981   -1.5429    0.0000 C   0  0  0  0  0  0  0  0  0  0  0  0
    6.3301   -0.5429    0.0000 C   0  0  0  0  0  0  0  0  0  0  0  0
    5.4641   -0.0429    0.0000 C   0  0  0  0  0  0  0  0  0  0  0  0
    2.8660    4.4571    0.0000 C   0  0  0  0  0  0  0  0  0  0  0  0
    3.7320    3.9571    0.0000 C   0  0  0  0  0  0  0  0  0  0  0  0
    2.8660    5.4571    0.0000 C   0  0  0  0  0  0  0  0  0  0  0  0
    3.7320    2.9571    0.0000 C   0  0  0  0  0  0  0  0  0  0  0  0
    4.5981    1.4571    0.0000 C   0  0  0  0  0  0  0  0  0  0  0  0
    2.0000    5.9571    0.0000 C   0  0  0  0  0  0  0  0  0  0  0  0
    4.5581   -3.0183    0.0000 H   0  0  0  0  0  0  0  0  0  0  0  0
    4.3517   -4.4847    0.0000 H   0  0  0  0  0  0  0  0  0  0  0  0
    6.0165   -2.7614    0.0000 H   0  0  0  0  0  0  0  0  0  0  0  0
    6.5765   -4.4847    0.0000 H   0  0  0  0  0  0  0  0  0  0  0  0
    6.0503   -5.7552    0.0000 H   0  0  0  0  0  0  0  0  0  0  0  0
    6.9163   -5.8923    0.0000 H   0  0  0  0  0  0  0  0  0  0  0  0
    7.0535   -5.0263    0.0000 H   0  0  0  0  0  0  0  0  0  0  0  0
    3.2433   -3.7365    0.0000 H   0  0  0  0  0  0  0  0  0  0  0  0
    4.6285   -5.9571    0.0000 H   0  0  0  0  0  0  0  0  0  0  0  0
    6.8671   -1.8529    0.0000 H   0  0  0  0  0  0  0  0  0  0  0  0
    2.2554    4.5648    0.0000 H   0  0  0  0  0  0  0  0  0  0  0  0
    2.6540    3.8745    0.0000 H   0  0  0  0  0  0  0  0  0  0  0  0
    4.3426    3.8495    0.0000 H   0  0  0  0  0  0  0  0  0  0  0  0
    3.9441    4.5397    0.0000 H   0  0  0  0  0  0  0  0  0  0  0  0
    6.0010    1.2671    0.0000 H   0  0  0  0  0  0  0  0  0  0  0  0
    3.4766    5.3495    0.0000 H   0  0  0  0  0  0  0  0  0  0  0  0
    3.0781    6.0397    0.0000 H   0  0  0  0  0  0  0  0  0  0  0  0
    3.1215    3.0648    0.0000 H   0  0  0  0  0  0  0  0  0  0  0  0
    3.5200    2.3745    0.0000 H   0  0  0  0  0  0  0  0  0  0  0  0
    2.3100    6.4941    0.0000 H   0  0  0  0  0  0  0  0  0  0  0  0
    1.4631    6.2671    0.0000 H   0  0  0  0  0  0  0  0  0  0  0  0
    1.6900    5.4202    0.0000 H   0  0  0  0  0  0  0  0  0  0  0  0
  1 18  1  0  0  0  0
  2 13  1  0  0  0  0
  2 14  1  0  0  0  0
 11  3  1  1  0  0  0
  3 33  1  0  0  0  0
 12  4  1  1  0  0  0
  4 34  1  0  0  0  0
  5 17  2  0  0  0  0
  6 23  1  0  0  0  0
  6 24  1  0  0  0  0
  7 24  2  0  0  0  0
 13  8  1  6  0  0  0
  8 16  1  0  0  0  0
  8 17  1  0  0  0  0
  9 17  1  0  0  0  0
  9 19  2  0  0  0  0
 10 19  1  0  0  0  0
 10 24  1  0  0  0  0
 10 40  1  0  0  0  0
 11 12  1  0  0  0  0
 11 13  1  0  0  0  0
 11 26  1  0  0  0  0
 12 14  1  0  0  0  0
 12 27  1  0  0  0  0
 13 28  1  0  0  0  0
 14 15  1  6  0  0  0
 14 29  1  0  0  0  0
 15 30  1  0  0  0  0
 15 31  1  0  0  0  0
 15 32  1  0  0  0  0
 16 18  2  0  0  0  0
 16 35  1  0  0  0  0
 18 19  1  0  0  0  0
 20 21  1  0  0  0  0
 20 22  1  0  0  0  0
 20 36  1  0  0  0  0
 20 37  1  0  0  0  0
 21 23  1  0  0  0  0
 21 38  1  0  0  0  0
 21 39  1  0  0  0  0
 22 25  1  0  0  0  0
 22 41  1  0  0  0  0
 22 42  1  0  0  0  0
 23 43  1  0  0  0  0
 23 44  1  0  0  0  0
 25 45  1  0  0  0  0
 25 46  1  0  0  0  0
 25 47  1  0  0  0  0
M  END
> <PUBCHEM_COMPOUND_CID>
60953

> <PUBCHEM_COMPOUND_CANONICALIZED>
1

> <PUBCHEM_CACTVS_COMPLEXITY>
582

> <PUBCHEM_CACTVS_HBOND_ACCEPTOR>
7

> <PUBCHEM_CACTVS_HBOND_DONOR>
3

> <PUBCHEM_CACTVS_ROTATABLE_BOND>
7

> <PUBCHEM_CACTVS_SUBSKEYS>
AAADceBzOQAAAAAAAAAAAAAAAAAAASAAAAAgAAAAAAAAAAAAAAAAHwAQCAAACBThgAYDCAPABgCoAAJmfACAAAEAAAABAAAIABGDEAIAgAAOQAAHBgITAACwAAAAAAAAAAAAAAAAAAAAAAAAAAAAAAAAAA==

> <PUBCHEM_IUPAC_OPENEYE_NAME>
pentyl N-[1-[(2R,3R,4S,5R)-3,4-dihydroxy-5-methyl-tetrahydrofuran-2-yl]-5-fluoro-2-oxo-pyrimidin-4-yl]carbamate

> <PUBCHEM_IUPAC_CAS_NAME>
N-[1-[(2R,3R,4S,5R)-3,4-dihydroxy-5-methyl-2-oxolanyl]-5-fluoro-2-oxo-4-pyrimidinyl]carbamic acid pentyl ester

> <PUBCHEM_IUPAC_NAME>
pentyl N-[1-[(2R,3R,4S,5R)-3,4-dihydroxy-5-methyloxolan-2-yl]-5-fluoro-2-oxopyrimidin-4-yl]carbamate

> <PUBCHEM_IUPAC_SYSTEMATIC_NAME>
pentyl N-[5-fluoranyl-1-[(2R,3R,4S,5R)-5-methyl-3,4-bis(oxidanyl)oxolan-2-yl]-2-oxidanylidene-pyrimidin-4-yl]carbamate

> <PUBCHEM_IUPAC_TRADITIONAL_NAME>
N-[1-[(2R,3R,4S,5R)-3,4-dihydroxy-5-methyl-tetrahydrofuran-2-yl]-5-fluoro-2-keto-pyrimidin-4-yl]carbamic acid amyl ester

> <PUBCHEM_IUPAC_INCHI>
InChI=1S/C15H22FN3O6/c1-3-4-5-6-24-15(23)18-12-9(16)7-19(14(22)17-12)13-11(21)10(20)8(2)25-13/h7-8,10-11,13,20-21H,3-6H2,1-2H3,(H,17,18,22,23)/t8-,10-,11-,13-/m1/s1

> <PUBCHEM_IUPAC_INCHIKEY>
GAGWJHPBXLXJQN-UORFTKCHSA-N

> <PUBCHEM_XLOGP3_AA>
0.6

> <PUBCHEM_EXACT_MASS>
359.149264

> <PUBCHEM_MOLECULAR_FORMULA>
C15H22FN3O6

> <PUBCHEM_MOLECULAR_WEIGHT>
359.350083

> <PUBCHEM_OPENEYE_CAN_SMILES>
CCCCCOC(=O)NC1=NC(=O)N(C=C1F)C2C(C(C(O2)C)O)O

> <PUBCHEM_OPENEYE_ISO_SMILES>
CCCCCOC(=O)NC1=NC(=O)N(C=C1F)[C@H]2[C@@H]([C@@H]([C@H](O2)C)O)O

> <PUBCHEM_CACTVS_TPSA>
121

> <PUBCHEM_MONOISOTOPIC_WEIGHT>
359.149264

> <PUBCHEM_TOTAL_CHARGE>
0

> <PUBCHEM_HEAVY_ATOM_COUNT>
25

> <PUBCHEM_ATOM_DEF_STEREO_COUNT>
4

> <PUBCHEM_ATOM_UDEF_STEREO_COUNT>
0

> <PUBCHEM_BOND_DEF_STEREO_COUNT>
0

> <PUBCHEM_BOND_UDEF_STEREO_COUNT>
0

> <PUBCHEM_ISOTOPIC_ATOM_COUNT>
0

> <PUBCHEM_COMPONENT_COUNT>
1

> <PUBCHEM_CACTVS_TAUTO_COUNT>
4

> <PUBCHEM_COORDINATE_TYPE>
1
5
255

> <PUBCHEM_BONDANNOTATIONS>
14  15  6
16  18  8
18  19  8
11  3  5
12  4  5
13  8  6
8  16  8
8  17  8
9  17  8
9  19  8

$$$$

