11954145
  -OEChem-07051213073D

 57 60  0     1  0  0  0  0  0999 V2000
   -0.3140   -2.2274    1.1566 O   0  0  0  0  0  0  0  0  0  0  0  0
   -5.0597   -0.8473    0.0753 O   0  0  0  0  0  0  0  0  0  0  0  0
    6.1216    0.0755   -0.4422 O   0  0  0  0  0  0  0  0  0  0  0  0
   -0.4178    0.8571    0.4017 C   0  0  2  0  0  0  0  0  0  0  0  0
    0.3663   -0.3266   -0.2586 C   0  0  1  0  0  0  0  0  0  0  0  0
   -1.8478    0.8743   -0.1629 C   0  0  1  0  0  0  0  0  0  0  0  0
   -2.6312   -0.4270    0.1044 C   0  0  1  0  0  0  0  0  0  0  0  0
    1.8858   -0.3441    0.1767 C   0  0  2  0  0  0  0  0  0  0  0  0
    2.4859    1.0511   -0.2024 C   0  0  1  0  0  0  0  0  0  0  0  0
   -0.3932   -1.6838   -0.1522 C   0  0  2  0  0  0  0  0  0  0  0  0
   -4.0246   -0.0485   -0.4957 C   0  0  2  0  0  0  0  0  0  0  0  0
   -1.8744   -1.5828   -0.5830 C   0  0  0  0  0  0  0  0  0  0  0  0
    0.2761    2.2066    0.1468 C   0  0  0  0  0  0  0  0  0  0  0  0
   -2.8059    1.9671    0.3002 C   0  0  0  0  0  0  0  0  0  0  0  0
    1.7586    2.1978    0.5062 C   0  0  0  0  0  0  0  0  0  0  0  0
   -4.2037    1.4346   -0.0680 C   0  0  0  0  0  0  0  0  0  0  0  0
    2.6642   -1.4276   -0.6226 C   0  0  0  0  0  0  0  0  0  0  0  0
    4.0035    1.1383    0.0098 C   0  0  0  0  0  0  0  0  0  0  0  0
   -2.8075   -0.7400    1.6195 C   0  0  0  0  0  0  0  0  0  0  0  0
    2.0578   -0.6349    1.6901 C   0  0  0  0  0  0  0  0  0  0  0  0
    4.1798   -1.3537   -0.4307 C   0  0  0  0  0  0  0  0  0  0  0  0
    4.7324    0.0318   -0.7511 C   0  0  2  0  0  0  0  0  0  0  0  0
   -4.1521   -0.1908   -2.0180 C   0  0  0  0  0  0  0  0  0  0  0  0
   -0.4554    0.7217    1.4859 H   0  0  0  0  0  0  0  0  0  0  0  0
    0.3714   -0.1064   -1.3390 H   0  0  0  0  0  0  0  0  0  0  0  0
   -1.7408    1.0045   -1.2509 H   0  0  0  0  0  0  0  0  0  0  0  0
    2.3255    1.1957   -1.2824 H   0  0  0  0  0  0  0  0  0  0  0  0
    0.0831   -2.4150   -0.8142 H   0  0  0  0  0  0  0  0  0  0  0  0
   -1.8803   -1.4420   -1.6701 H   0  0  0  0  0  0  0  0  0  0  0  0
   -2.3876   -2.5308   -0.3801 H   0  0  0  0  0  0  0  0  0  0  0  0
   -0.2204    2.9974    0.7215 H   0  0  0  0  0  0  0  0  0  0  0  0
    0.1733    2.4791   -0.9118 H   0  0  0  0  0  0  0  0  0  0  0  0
   -2.6056    2.9251   -0.1905 H   0  0  0  0  0  0  0  0  0  0  0  0
   -2.7346    2.1274    1.3820 H   0  0  0  0  0  0  0  0  0  0  0  0
    2.1970    3.1581    0.2079 H   0  0  0  0  0  0  0  0  0  0  0  0
    1.8808    2.1267    1.5930 H   0  0  0  0  0  0  0  0  0  0  0  0
   -4.8813    1.5338    0.7881 H   0  0  0  0  0  0  0  0  0  0  0  0
   -4.6330    2.0358   -0.8780 H   0  0  0  0  0  0  0  0  0  0  0  0
    2.4440   -1.3210   -1.6930 H   0  0  0  0  0  0  0  0  0  0  0  0
    2.3304   -2.4317   -0.3355 H   0  0  0  0  0  0  0  0  0  0  0  0
    4.3735    2.1109   -0.3407 H   0  0  0  0  0  0  0  0  0  0  0  0
    4.2659    1.1055    1.0737 H   0  0  0  0  0  0  0  0  0  0  0  0
   -3.1423   -1.7734    1.7656 H   0  0  0  0  0  0  0  0  0  0  0  0
   -1.9112   -0.5900    2.2178 H   0  0  0  0  0  0  0  0  0  0  0  0
   -3.5652   -0.0990    2.0849 H   0  0  0  0  0  0  0  0  0  0  0  0
    1.8959   -1.6921    1.9209 H   0  0  0  0  0  0  0  0  0  0  0  0
    3.0708   -0.4165    2.0400 H   0  0  0  0  0  0  0  0  0  0  0  0
    1.3843   -0.0449    2.3162 H   0  0  0  0  0  0  0  0  0  0  0  0
    4.4525   -1.6372    0.5933 H   0  0  0  0  0  0  0  0  0  0  0  0
    4.6692   -2.0971   -1.0722 H   0  0  0  0  0  0  0  0  0  0  0  0
    4.6342    0.2093   -1.8293 H   0  0  0  0  0  0  0  0  0  0  0  0
   -4.0913   -1.2424   -2.3192 H   0  0  0  0  0  0  0  0  0  0  0  0
   -5.1367    0.1570   -2.3537 H   0  0  0  0  0  0  0  0  0  0  0  0
   -3.3946    0.3772   -2.5646 H   0  0  0  0  0  0  0  0  0  0  0  0
   -0.2877   -1.5080    1.8035 H   0  0  0  0  0  0  0  0  0  0  0  0
   -5.9135   -0.4848   -0.2170 H   0  0  0  0  0  0  0  0  0  0  0  0
    6.4460    0.9627   -0.6729 H   0  0  0  0  0  0  0  0  0  0  0  0
  1 10  1  0  0  0  0
  1 55  1  0  0  0  0
  2 11  1  0  0  0  0
  2 56  1  0  0  0  0
  3 22  1  0  0  0  0
  3 57  1  0  0  0  0
  4  5  1  0  0  0  0
  4  6  1  0  0  0  0
  4 13  1  0  0  0  0
  4 24  1  0  0  0  0
  5  8  1  0  0  0  0
  5 10  1  0  0  0  0
  5 25  1  0  0  0  0
  6  7  1  0  0  0  0
  6 14  1  0  0  0  0
  6 26  1  0  0  0  0
  7 11  1  0  0  0  0
  7 12  1  0  0  0  0
  7 19  1  0  0  0  0
  8  9  1  0  0  0  0
  8 17  1  0  0  0  0
  8 20  1  0  0  0  0
  9 15  1  0  0  0  0
  9 18  1  0  0  0  0
  9 27  1  0  0  0  0
 10 12  1  0  0  0  0
 10 28  1  0  0  0  0
 11 16  1  0  0  0  0
 11 23  1  0  0  0  0
 12 29  1  0  0  0  0
 12 30  1  0  0  0  0
 13 15  1  0  0  0  0
 13 31  1  0  0  0  0
 13 32  1  0  0  0  0
 14 16  1  0  0  0  0
 14 33  1  0  0  0  0
 14 34  1  0  0  0  0
 15 35  1  0  0  0  0
 15 36  1  0  0  0  0
 16 37  1  0  0  0  0
 16 38  1  0  0  0  0
 17 21  1  0  0  0  0
 17 39  1  0  0  0  0
 17 40  1  0  0  0  0
 18 22  1  0  0  0  0
 18 41  1  0  0  0  0
 18 42  1  0  0  0  0
 19 43  1  0  0  0  0
 19 44  1  0  0  0  0
 19 45  1  0  0  0  0
 20 46  1  0  0  0  0
 20 47  1  0  0  0  0
 20 48  1  0  0  0  0
 21 22  1  0  0  0  0
 21 49  1  0  0  0  0
 21 50  1  0  0  0  0
 22 51  1  0  0  0  0
 23 52  1  0  0  0  0
 23 53  1  0  0  0  0
 23 54  1  0  0  0  0
M  END
> <PUBCHEM_COMPOUND_CID>
11954145

> <PUBCHEM_CONFORMER_RMSD>
0.6

> <PUBCHEM_CONFORMER_DIVERSEORDER>
1

> <PUBCHEM_MMFF94_PARTIAL_CHARGES>
9
1 -0.68
10 0.28
11 0.28
2 -0.68
22 0.28
3 -0.68
55 0.4
56 0.4
57 0.4

> <PUBCHEM_EFFECTIVE_ROTOR_COUNT>
2.2

> <PUBCHEM_PHARMACOPHORE_FEATURES>
10
1 1 acceptor
1 1 donor
1 2 acceptor
1 2 donor
1 3 acceptor
1 3 donor
5 6 7 11 14 16 rings
6 4 5 6 7 10 12 rings
6 4 5 8 9 13 15 rings
6 8 9 17 18 21 22 rings

> <PUBCHEM_HEAVY_ATOM_COUNT>
23

> <PUBCHEM_ATOM_DEF_STEREO_COUNT>
9

> <PUBCHEM_ATOM_UDEF_STEREO_COUNT>
0

> <PUBCHEM_BOND_DEF_STEREO_COUNT>
0

> <PUBCHEM_BOND_UDEF_STEREO_COUNT>
0

> <PUBCHEM_ISOTOPIC_ATOM_COUNT>
0

> <PUBCHEM_COMPONENT_COUNT>
1

> <PUBCHEM_CACTVS_TAUTO_COUNT>
1

> <PUBCHEM_CONFORMER_ID>
00B667E100000001

> <PUBCHEM_MMFF94_ENERGY>
96.9011

> <PUBCHEM_FEATURE_SELFOVERLAP>
50.829

> <PUBCHEM_SHAPE_FINGERPRINT>
10366900 7 17918277536882713657
10498660 4 17988932192601408501
10863032 1 17775286079623399323
10906281 52 18263624261085285084
10967382 1 18409167696910493480
12011746 2 18413110558677359653
12236239 1 17989207066624581562
12403259 415 18202009811287291461
12553582 1 18336555957618107249
12788726 201 18190743239548438289
12969540 114 18201451271684963143
13140716 1 17905893569604508088
13221675 6 18412262813753189032
13224815 77 18272654558267890501
13583140 156 16702299031574678057
13862211 1 18408044026661493742
14790565 3 18193546985614665096
15099037 51 18410292514533011476
15196674 1 18408884070197495540
15209289 33 18408321103317393069
15375358 24 18409166593641981574
15536298 74 18260270728697546760
15788980 27 18040715878976252348
15848702 151 17822283630226198542
16752209 62 18337962275934463585
16945 1 18261398806273828875
17349148 13 17967255294905156927
17357779 13 18410583893783850549
18186145 218 18202570591975967629
19591789 44 18337953497000016478
19862831 5 18412546513417548436
200 152 17894911832133660636
20645477 70 18338802212739906596
20775438 99 16742599264291732071
20871999 31 18410855486114438412
21029758 11 18333450949814070696
21033648 29 18130519556342999629
21267235 1 18335974307466685030
21279426 13 18266738167861235734
221357 26 18335424569165131589
221490 88 18265892462703769048
22393880 68 18340501018634913413
23402539 116 18333733546019611516
23493267 7 18060698385792432963
23559900 14 18262523581184648432
2748010 2 17544758932532783185
296302 2 15698000746997970952
3004659 81 18270958059825629926
335352 9 18408321107338242604
34934 24 18409732850836180926
350125 39 18336261323584606537
3759504 43 17632572730139410082
4028521 119 18342744017833625783
4214541 1 18335700563373279765
4340502 62 16487246703401849504
474 4 17560511795149656420
5104073 3 18336546104984002704
633830 44 18412266172596995167
69090 78 18259705583799527054
7364860 26 18188213083304848608
9709674 26 18265336092666657875
9981440 41 17326908274490821408

> <PUBCHEM_SHAPE_MULTIPOLES>
455.72
9.93
2.15
1.19
3.98
0.45
0.1
-0.13
-2.72
-0.02
0.23
-0.64
-0.35
0.1

> <PUBCHEM_SHAPE_SELFOVERLAP>
966.156

> <PUBCHEM_SHAPE_VOLUME>
252.2

> <PUBCHEM_COORDINATE_TYPE>
2
5
10

$$$$

