9420
  -OEChem-06261203412D

 76 76  0     1  0  0  0  0  0999 V2000
    4.8278    2.6788    0.0000 Cl  0  0  0  0  0  0  0  0  0  0  0  0
    9.0610   12.2504    0.0000 S   0  0  0  0  0  0  0  0  0  0  0  0
    1.4030    6.6437    0.0000 S   0  0  0  0  0  0  0  0  0  0  0  0
   11.8881    2.6788    0.0000 O   0  0  0  0  0  0  0  0  0  0  0  0
    2.2690    7.1437    0.0000 O   0  0  0  0  0  0  0  0  0  0  0  0
    9.9270   12.7504    0.0000 O   0  0  0  0  0  0  0  0  0  0  0  0
    0.9030    7.5097    0.0000 O   0  0  0  0  0  0  0  0  0  0  0  0
    1.9030    5.7776    0.0000 O   0  0  0  0  0  0  0  0  0  0  0  0
    8.5610   13.1164    0.0000 O   0  0  0  0  0  0  0  0  0  0  0  0
    9.5610   11.3844    0.0000 O   0  0  0  0  0  0  0  0  0  0  0  0
   10.9560    7.1546    0.0000 N   0  0  0  0  0  0  0  0  0  0  0  0
    8.3580    3.6546    0.0000 N   0  0  0  0  0  0  0  0  0  0  0  0
    8.3580    0.6546    0.0000 N   0  0  0  0  0  0  0  0  0  0  0  0
    9.2240    4.1546    0.0000 C   0  0  3  0  0  0  0  0  0  0  0  0
    9.2240    5.1546    0.0000 C   0  0  0  0  0  0  0  0  0  0  0  0
   10.0900    5.6546    0.0000 C   0  0  0  0  0  0  0  0  0  0  0  0
   10.0900    6.6546    0.0000 C   0  0  0  0  0  0  0  0  0  0  0  0
   10.0900    3.6546    0.0000 C   0  0  0  0  0  0  0  0  0  0  0  0
    8.3580    2.6546    0.0000 C   0  0  0  0  0  0  0  0  0  0  0  0
   10.9560    8.1546    0.0000 C   0  0  0  0  0  0  0  0  0  0  0  0
   11.8221    6.6546    0.0000 C   0  0  0  0  0  0  0  0  0  0  0  0
    9.2240    2.1546    0.0000 C   0  0  0  0  0  0  0  0  0  0  0  0
    7.4919    2.1546    0.0000 C   0  0  0  0  0  0  0  0  0  0  0  0
    9.2240    1.1546    0.0000 C   0  0  0  0  0  0  0  0  0  0  0  0
    7.4919    1.1546    0.0000 C   0  0  0  0  0  0  0  0  0  0  0  0
   12.6881    7.1546    0.0000 C   0  0  0  0  0  0  0  0  0  0  0  0
   11.8221    8.6546    0.0000 C   0  0  0  0  0  0  0  0  0  0  0  0
   10.1179    2.6893    0.0000 C   0  0  0  0  0  0  0  0  0  0  0  0
    6.5980    2.6893    0.0000 C   0  0  0  0  0  0  0  0  0  0  0  0
   10.1179    0.6200    0.0000 C   0  0  0  0  0  0  0  0  0  0  0  0
    6.5980    0.6200    0.0000 C   0  0  0  0  0  0  0  0  0  0  0  0
   11.0240    2.1754    0.0000 C   0  0  0  0  0  0  0  0  0  0  0  0
    5.6919    2.1754    0.0000 C   0  0  0  0  0  0  0  0  0  0  0  0
   11.0240    1.1338    0.0000 C   0  0  0  0  0  0  0  0  0  0  0  0
    5.6919    1.1338    0.0000 C   0  0  0  0  0  0  0  0  0  0  0  0
   12.7560    2.1821    0.0000 C   0  0  0  0  0  0  0  0  0  0  0  0
    8.1950   11.7504    0.0000 C   0  0  0  0  0  0  0  0  0  0  0  0
    0.5369    6.1437    0.0000 C   0  0  0  0  0  0  0  0  0  0  0  0
    8.6870    4.4646    0.0000 H   0  0  0  0  0  0  0  0  0  0  0  0
    9.0119    5.7372    0.0000 H   0  0  0  0  0  0  0  0  0  0  0  0
    8.6134    5.0470    0.0000 H   0  0  0  0  0  0  0  0  0  0  0  0
   10.3021    5.0720    0.0000 H   0  0  0  0  0  0  0  0  0  0  0  0
   10.7006    5.7623    0.0000 H   0  0  0  0  0  0  0  0  0  0  0  0
    9.8780    7.2372    0.0000 H   0  0  0  0  0  0  0  0  0  0  0  0
    9.4794    6.5470    0.0000 H   0  0  0  0  0  0  0  0  0  0  0  0
    7.8210    3.9646    0.0000 H   0  0  0  0  0  0  0  0  0  0  0  0
    9.7800    3.1177    0.0000 H   0  0  0  0  0  0  0  0  0  0  0  0
   10.6269    3.3446    0.0000 H   0  0  0  0  0  0  0  0  0  0  0  0
   10.4000    4.1916    0.0000 H   0  0  0  0  0  0  0  0  0  0  0  0
   11.4235    6.1797    0.0000 H   0  0  0  0  0  0  0  0  0  0  0  0
   12.2206    6.1797    0.0000 H   0  0  0  0  0  0  0  0  0  0  0  0
   10.7440    8.7372    0.0000 H   0  0  0  0  0  0  0  0  0  0  0  0
   10.3455    8.0470    0.0000 H   0  0  0  0  0  0  0  0  0  0  0  0
   12.1321    8.1177    0.0000 H   0  0  0  0  0  0  0  0  0  0  0  0
   12.3590    8.9646    0.0000 H   0  0  0  0  0  0  0  0  0  0  0  0
   12.9981    6.6177    0.0000 H   0  0  0  0  0  0  0  0  0  0  0  0
   13.2250    7.4646    0.0000 H   0  0  0  0  0  0  0  0  0  0  0  0
   12.3781    7.6916    0.0000 H   0  0  0  0  0  0  0  0  0  0  0  0
   11.5121    9.1916    0.0000 H   0  0  0  0  0  0  0  0  0  0  0  0
   10.1108    3.3092    0.0000 H   0  0  0  0  0  0  0  0  0  0  0  0
    6.6052    3.3092    0.0000 H   0  0  0  0  0  0  0  0  0  0  0  0
   10.1108    0.0000    0.0000 H   0  0  0  0  0  0  0  0  0  0  0  0
    6.6052    0.0000    0.0000 H   0  0  0  0  0  0  0  0  0  0  0  0
   11.5597    0.8217    0.0000 H   0  0  0  0  0  0  0  0  0  0  0  0
    5.1562    0.8217    0.0000 H   0  0  0  0  0  0  0  0  0  0  0  0
   12.4481    1.6440    0.0000 H   0  0  0  0  0  0  0  0  0  0  0  0
   13.2942    1.8742    0.0000 H   0  0  0  0  0  0  0  0  0  0  0  0
   13.0640    2.7202    0.0000 H   0  0  0  0  0  0  0  0  0  0  0  0
    7.8850   12.2873    0.0000 H   0  0  0  0  0  0  0  0  0  0  0  0
    7.6580   11.4404    0.0000 H   0  0  0  0  0  0  0  0  0  0  0  0
    8.5050   11.2135    0.0000 H   0  0  0  0  0  0  0  0  0  0  0  0
    0.2269    6.6806    0.0000 H   0  0  0  0  0  0  0  0  0  0  0  0
    0.0000    5.8337    0.0000 H   0  0  0  0  0  0  0  0  0  0  0  0
    0.8469    5.6067    0.0000 H   0  0  0  0  0  0  0  0  0  0  0  0
   10.4640   12.4404    0.0000 H   0  0  0  0  0  0  0  0  0  0  0  0
    2.8059    6.8337    0.0000 H   0  0  0  0  0  0  0  0  0  0  0  0
  1 33  1  0  0  0  0
  2  6  1  0  0  0  0
  2  9  2  0  0  0  0
  2 10  2  0  0  0  0
  2 37  1  0  0  0  0
  3  5  1  0  0  0  0
  3  7  2  0  0  0  0
  3  8  2  0  0  0  0
  3 38  1  0  0  0  0
  4 32  1  0  0  0  0
  4 36  1  0  0  0  0
  5 76  1  0  0  0  0
  6 75  1  0  0  0  0
 11 17  1  0  0  0  0
 11 20  1  0  0  0  0
 11 21  1  0  0  0  0
 12 14  1  0  0  0  0
 12 19  1  0  0  0  0
 12 46  1  0  0  0  0
 13 24  1  0  0  0  0
 13 25  2  0  0  0  0
 14 15  1  0  0  0  0
 14 18  1  0  0  0  0
 14 39  1  0  0  0  0
 15 16  1  0  0  0  0
 15 40  1  0  0  0  0
 15 41  1  0  0  0  0
 16 17  1  0  0  0  0
 16 42  1  0  0  0  0
 16 43  1  0  0  0  0
 17 44  1  0  0  0  0
 17 45  1  0  0  0  0
 18 47  1  0  0  0  0
 18 48  1  0  0  0  0
 18 49  1  0  0  0  0
 19 22  1  0  0  0  0
 19 23  2  0  0  0  0
 20 27  1  0  0  0  0
 20 52  1  0  0  0  0
 20 53  1  0  0  0  0
 21 26  1  0  0  0  0
 21 50  1  0  0  0  0
 21 51  1  0  0  0  0
 22 24  2  0  0  0  0
 22 28  1  0  0  0  0
 23 25  1  0  0  0  0
 23 29  1  0  0  0  0
 24 30  1  0  0  0  0
 25 31  1  0  0  0  0
 26 56  1  0  0  0  0
 26 57  1  0  0  0  0
 26 58  1  0  0  0  0
 27 54  1  0  0  0  0
 27 55  1  0  0  0  0
 27 59  1  0  0  0  0
 28 32  2  0  0  0  0
 28 60  1  0  0  0  0
 29 33  2  0  0  0  0
 29 61  1  0  0  0  0
 30 34  2  0  0  0  0
 30 62  1  0  0  0  0
 31 35  2  0  0  0  0
 31 63  1  0  0  0  0
 32 34  1  0  0  0  0
 33 35  1  0  0  0  0
 34 64  1  0  0  0  0
 35 65  1  0  0  0  0
 36 66  1  0  0  0  0
 36 67  1  0  0  0  0
 36 68  1  0  0  0  0
 37 69  1  0  0  0  0
 37 70  1  0  0  0  0
 37 71  1  0  0  0  0
 38 72  1  0  0  0  0
 38 73  1  0  0  0  0
 38 74  1  0  0  0  0
M  END
> <PUBCHEM_COMPOUND_CID>
9420

> <PUBCHEM_COMPOUND_CANONICALIZED>
1

> <PUBCHEM_CACTVS_COMPLEXITY>
554

> <PUBCHEM_CACTVS_HBOND_ACCEPTOR>
10

> <PUBCHEM_CACTVS_HBOND_DONOR>
3

> <PUBCHEM_CACTVS_ROTATABLE_BOND>
9

> <PUBCHEM_CACTVS_SUBSKEYS>
AAADcfB7OABkAAAAAAAAAAAAAAAAAAAAAAA8YIAAAAAAAACx/AAAHgYQCAAADC7BniayxvPIFIKgAyRiRHCCiCAhJyAImKA+bpgMJuLF89uENChk0BHI6AewwPAOAEBBIAACAAAAgIJAAAQAAAAAAAAAAA==

> <PUBCHEM_IUPAC_OPENEYE_NAME>
N4-(2-chloro-7-methoxy-acridin-9-yl)-N1,N1-diethyl-pentane-1,4-diamine; methanesulfonic acid

> <PUBCHEM_IUPAC_CAS_NAME>
N4-(2-chloro-7-methoxy-9-acridinyl)-N1,N1-diethylpentane-1,4-diamine; methanesulfonic acid

> <PUBCHEM_IUPAC_NAME>
4-N-(2-chloro-7-methoxyacridin-9-yl)-1-N,1-N-diethylpentane-1,4-diamine; methanesulfonic acid

> <PUBCHEM_IUPAC_SYSTEMATIC_NAME>
N4-(2-chloranyl-7-methoxy-acridin-9-yl)-N1,N1-diethyl-pentane-1,4-diamine; methanesulfonic acid

> <PUBCHEM_IUPAC_TRADITIONAL_NAME>
4-[(2-chloro-7-methoxy-acridin-9-yl)amino]pentyl-diethyl-amine; mesylic acid

> <PUBCHEM_IUPAC_INCHI>
InChI=1S/C23H30ClN3O.2CH4O3S/c1-5-27(6-2)13-7-8-16(3)25-23-19-14-17(24)9-11-21(19)26-22-12-10-18(28-4)15-20(22)23;2*1-5(2,3)4/h9-12,14-16H,5-8,13H2,1-4H3,(H,25,26);2*1H3,(H,2,3,4)

> <PUBCHEM_IUPAC_INCHIKEY>
WWVNAZRWEIACFQ-UHFFFAOYSA-N

> <PUBCHEM_EXACT_MASS>
591.18397

> <PUBCHEM_MOLECULAR_FORMULA>
C25H38ClN3O7S2

> <PUBCHEM_MOLECULAR_WEIGHT>
592.16812

> <PUBCHEM_OPENEYE_CAN_SMILES>
CCN(CC)CCCC(C)NC1=C2C=C(C=CC2=NC3=C1C=C(C=C3)OC)Cl.CS(=O)(=O)O.CS(=O)(=O)O

> <PUBCHEM_OPENEYE_ISO_SMILES>
CCN(CC)CCCC(C)NC1=C2C=C(C=CC2=NC3=C1C=C(C=C3)OC)Cl.CS(=O)(=O)O.CS(=O)(=O)O

> <PUBCHEM_CACTVS_TPSA>
163

> <PUBCHEM_MONOISOTOPIC_WEIGHT>
591.18397

> <PUBCHEM_TOTAL_CHARGE>
0

> <PUBCHEM_HEAVY_ATOM_COUNT>
38

> <PUBCHEM_ATOM_DEF_STEREO_COUNT>
0

> <PUBCHEM_ATOM_UDEF_STEREO_COUNT>
1

> <PUBCHEM_BOND_DEF_STEREO_COUNT>
0

> <PUBCHEM_BOND_UDEF_STEREO_COUNT>
0

> <PUBCHEM_ISOTOPIC_ATOM_COUNT>
0

> <PUBCHEM_COMPONENT_COUNT>
3

> <PUBCHEM_CACTVS_TAUTO_COUNT>
2

> <PUBCHEM_COORDINATE_TYPE>
1
5
255

> <PUBCHEM_BONDANNOTATIONS>
13  24  8
13  25  8
14  18  3
19  22  8
19  23  8
22  24  8
22  28  8
23  25  8
23  29  8
24  30  8
25  31  8
28  32  8
29  33  8
30  34  8
31  35  8
32  34  8
33  35  8

$$$$

