5280404
  -OEChem-07051212452D

 19 18  0     0  0  0  0  0  0999 V2000
    2.8660   -1.7500    0.0000 O   0  0  0  0  0  0  0  0  0  0  0  0
    4.0741   -2.1897    0.0000 O   0  0  0  0  0  0  0  0  0  0  0  0
    2.0000    1.7500    0.0000 O   0  0  0  0  0  0  0  0  0  0  0  0
    6.3301   -1.7500    0.0000 O   0  0  0  0  0  0  0  0  0  0  0  0
    3.7320    1.7500    0.0000 O   0  0  0  0  0  0  0  0  0  0  0  0
    5.1220   -2.1897    0.0000 O   0  0  0  0  0  0  0  0  0  0  0  0
    3.7320   -0.2500    0.0000 C   0  0  0  0  0  0  0  0  0  0  0  0
    4.5981    0.2500    0.0000 C   0  0  0  0  0  0  0  0  0  0  0  0
    2.8660    0.2500    0.0000 C   0  0  0  0  0  0  0  0  0  0  0  0
    5.4641   -0.2500    0.0000 C   0  0  0  0  0  0  0  0  0  0  0  0
    3.7320   -1.2500    0.0000 C   0  0  0  0  0  0  0  0  0  0  0  0
    2.8660    1.2500    0.0000 C   0  0  0  0  0  0  0  0  0  0  0  0
    5.4641   -1.2500    0.0000 C   0  0  0  0  0  0  0  0  0  0  0  0
    4.5981    0.8700    0.0000 H   0  0  0  0  0  0  0  0  0  0  0  0
    2.3291   -0.0600    0.0000 H   0  0  0  0  0  0  0  0  0  0  0  0
    6.0010    0.0600    0.0000 H   0  0  0  0  0  0  0  0  0  0  0  0
    2.8660   -2.3700    0.0000 H   0  0  0  0  0  0  0  0  0  0  0  0
    2.0000    2.3700    0.0000 H   0  0  0  0  0  0  0  0  0  0  0  0
    6.3301   -2.3700    0.0000 H   0  0  0  0  0  0  0  0  0  0  0  0
  1 11  1  0  0  0  0
  1 17  1  0  0  0  0
  2 11  2  0  0  0  0
  3 12  1  0  0  0  0
  3 18  1  0  0  0  0
  4 13  1  0  0  0  0
  4 19  1  0  0  0  0
  5 12  2  0  0  0  0
  6 13  2  0  0  0  0
  7  8  1  0  0  0  0
  7  9  2  0  0  0  0
  7 11  1  0  0  0  0
  8 10  2  0  0  0  0
  8 14  1  0  0  0  0
  9 12  1  0  0  0  0
  9 15  1  0  0  0  0
 10 13  1  0  0  0  0
 10 16  1  0  0  0  0
M  END
> <PUBCHEM_COMPOUND_CID>
5280404

> <PUBCHEM_COMPOUND_CANONICALIZED>
1

> <PUBCHEM_CACTVS_COMPLEXITY>
298

> <PUBCHEM_CACTVS_HBOND_ACCEPTOR>
6

> <PUBCHEM_CACTVS_HBOND_DONOR>
3

> <PUBCHEM_CACTVS_ROTATABLE_BOND>
4

> <PUBCHEM_CACTVS_SUBSKEYS>
AAADcYBgOAAAAAAAAAAAAAAAAAAAAAAAAAAAAAAAAAAAAAAAAAAAGgAACAAADACAgAAACAAAAgCIAiDSCAAAAAAgAAAICAEAAEgIBAAAAQAAUAAAQAAIkYIAAAAAAAAAAAAAAAAAAAAAAAAAAAAAAAAAAA==

> <PUBCHEM_IUPAC_OPENEYE_NAME>
(1E,3Z)-buta-1,3-diene-1,2,4-tricarboxylic acid

> <PUBCHEM_IUPAC_CAS_NAME>
(1E,3Z)-buta-1,3-diene-1,2,4-tricarboxylic acid

> <PUBCHEM_IUPAC_NAME>
(1E,3Z)-buta-1,3-diene-1,2,4-tricarboxylic acid

> <PUBCHEM_IUPAC_SYSTEMATIC_NAME>
(1E,3Z)-buta-1,3-diene-1,2,4-tricarboxylic acid

> <PUBCHEM_IUPAC_TRADITIONAL_NAME>
(1E,3Z)-buta-1,3-diene-1,2,4-tricarboxylic acid

> <PUBCHEM_IUPAC_INCHI>
InChI=1S/C7H6O6/c8-5(9)2-1-4(7(12)13)3-6(10)11/h1-3H,(H,8,9)(H,10,11)(H,12,13)/b2-1-,4-3+

> <PUBCHEM_IUPAC_INCHIKEY>
KJOVGYUGXHIVAY-BXTBVDPRSA-N

> <PUBCHEM_XLOGP3_AA>
-0.5

> <PUBCHEM_EXACT_MASS>
186.016438

> <PUBCHEM_MOLECULAR_FORMULA>
C7H6O6

> <PUBCHEM_MOLECULAR_WEIGHT>
186.11894

> <PUBCHEM_OPENEYE_CAN_SMILES>
C(=CC(=O)O)C(=CC(=O)O)C(=O)O

> <PUBCHEM_OPENEYE_ISO_SMILES>
C(=C\C(=O)O)\C(=C/C(=O)O)\C(=O)O

> <PUBCHEM_CACTVS_TPSA>
112

> <PUBCHEM_MONOISOTOPIC_WEIGHT>
186.016438

> <PUBCHEM_TOTAL_CHARGE>
0

> <PUBCHEM_HEAVY_ATOM_COUNT>
13

> <PUBCHEM_ATOM_DEF_STEREO_COUNT>
0

> <PUBCHEM_ATOM_UDEF_STEREO_COUNT>
0

> <PUBCHEM_BOND_DEF_STEREO_COUNT>
2

> <PUBCHEM_BOND_UDEF_STEREO_COUNT>
0

> <PUBCHEM_ISOTOPIC_ATOM_COUNT>
0

> <PUBCHEM_COMPONENT_COUNT>
1

> <PUBCHEM_CACTVS_TAUTO_COUNT>
1

> <PUBCHEM_COORDINATE_TYPE>
1
5
255

$$$$

