13083
  -OEChem-06261207443D

 30 32  0     1  0  0  0  0  0999 V2000
    5.0191    2.0826   -0.1454 Cl  0  0  0  0  0  0  0  0  0  0  0  0
   -0.2002    1.6839    0.6048 O   0  0  0  0  0  0  0  0  0  0  0  0
   -4.5973    0.2105    0.8459 N   0  0  0  0  0  0  0  0  0  0  0  0
   -0.9159   -0.6240    0.5097 C   0  0  1  0  0  0  0  0  0  0  0  0
   -0.4954   -1.8185   -0.3527 C   0  0  0  0  0  0  0  0  0  0  0  0
    0.8890   -2.3078    0.0556 C   0  0  0  0  0  0  0  0  0  0  0  0
    1.8982   -1.1941   -0.0057 C   0  0  0  0  0  0  0  0  0  0  0  0
    0.1044    0.5081    0.4204 C   0  0  0  0  0  0  0  0  0  0  0  0
    1.5261    0.1473    0.1720 C   0  0  0  0  0  0  0  0  0  0  0  0
   -2.3178   -0.1610    0.1555 C   0  0  0  0  0  0  0  0  0  0  0  0
    3.2518   -1.5032   -0.2027 C   0  0  0  0  0  0  0  0  0  0  0  0
    2.4924    1.1602    0.1245 C   0  0  0  0  0  0  0  0  0  0  0  0
   -2.6119    0.2954   -1.1200 C   0  0  0  0  0  0  0  0  0  0  0  0
   -3.3293   -0.1860    1.0960 C   0  0  0  0  0  0  0  0  0  0  0  0
    4.2125   -0.4928   -0.2480 C   0  0  0  0  0  0  0  0  0  0  0  0
    3.8323    0.8371   -0.0879 C   0  0  0  0  0  0  0  0  0  0  0  0
   -3.9052    0.7120   -1.4155 C   0  0  0  0  0  0  0  0  0  0  0  0
   -4.8528    0.6503   -0.4067 C   0  0  0  0  0  0  0  0  0  0  0  0
   -0.9098   -0.9398    1.5630 H   0  0  0  0  0  0  0  0  0  0  0  0
   -0.4768   -1.5469   -1.4165 H   0  0  0  0  0  0  0  0  0  0  0  0
   -1.2164   -2.6387   -0.2476 H   0  0  0  0  0  0  0  0  0  0  0  0
    1.1849   -3.1230   -0.6154 H   0  0  0  0  0  0  0  0  0  0  0  0
    0.8653   -2.7082    1.0763 H   0  0  0  0  0  0  0  0  0  0  0  0
    3.5658   -2.5370   -0.3255 H   0  0  0  0  0  0  0  0  0  0  0  0
    2.2084    2.2018    0.2557 H   0  0  0  0  0  0  0  0  0  0  0  0
   -1.8510    0.3424   -1.8935 H   0  0  0  0  0  0  0  0  0  0  0  0
   -3.1575   -0.5333    2.1098 H   0  0  0  0  0  0  0  0  0  0  0  0
    5.2541   -0.7592   -0.4079 H   0  0  0  0  0  0  0  0  0  0  0  0
   -4.1628    1.0754   -2.4037 H   0  0  0  0  0  0  0  0  0  0  0  0
   -5.8759    0.9642   -0.5860 H   0  0  0  0  0  0  0  0  0  0  0  0
  1 16  1  0  0  0  0
  2  8  2  0  0  0  0
  3 14  1  0  0  0  0
  3 18  2  0  0  0  0
  4  5  1  0  0  0  0
  4  8  1  0  0  0  0
  4 10  1  0  0  0  0
  4 19  1  0  0  0  0
  5  6  1  0  0  0  0
  5 20  1  0  0  0  0
  5 21  1  0  0  0  0
  6  7  1  0  0  0  0
  6 22  1  0  0  0  0
  6 23  1  0  0  0  0
  7  9  2  0  0  0  0
  7 11  1  0  0  0  0
  8  9  1  0  0  0  0
  9 12  1  0  0  0  0
 10 13  1  0  0  0  0
 10 14  2  0  0  0  0
 11 15  2  0  0  0  0
 11 24  1  0  0  0  0
 12 16  2  0  0  0  0
 12 25  1  0  0  0  0
 13 17  2  0  0  0  0
 13 26  1  0  0  0  0
 14 27  1  0  0  0  0
 15 16  1  0  0  0  0
 15 28  1  0  0  0  0
 17 18  1  0  0  0  0
 17 29  1  0  0  0  0
 18 30  1  0  0  0  0
M  END
> <PUBCHEM_COMPOUND_CID>
13083

> <PUBCHEM_CONFORMER_RMSD>
0.6

> <PUBCHEM_CONFORMER_DIVERSEORDER>
2
10
7
14
16
6
11
1
5
3
12
4
9
15
8
13

> <PUBCHEM_MMFF94_PARTIAL_CHARGES>
24
1 -0.18
10 -0.14
11 -0.15
12 -0.15
13 -0.15
14 0.16
15 -0.15
16 0.18
17 -0.15
18 0.16
2 -0.57
24 0.15
25 0.15
26 0.15
27 0.15
28 0.15
29 0.15
3 -0.62
30 0.15
4 0.2
6 0.14
7 -0.14
8 0.42
9 0.09

> <PUBCHEM_EFFECTIVE_ROTOR_COUNT>
1.6

> <PUBCHEM_PHARMACOPHORE_FEATURES>
5
1 2 acceptor
1 3 acceptor
6 3 10 13 14 17 18 rings
6 4 5 6 7 8 9 rings
6 7 9 11 12 15 16 rings

> <PUBCHEM_HEAVY_ATOM_COUNT>
18

> <PUBCHEM_ATOM_DEF_STEREO_COUNT>
0

> <PUBCHEM_ATOM_UDEF_STEREO_COUNT>
1

> <PUBCHEM_BOND_DEF_STEREO_COUNT>
0

> <PUBCHEM_BOND_UDEF_STEREO_COUNT>
0

> <PUBCHEM_ISOTOPIC_ATOM_COUNT>
0

> <PUBCHEM_COMPONENT_COUNT>
1

> <PUBCHEM_CACTVS_TAUTO_COUNT>
2

> <PUBCHEM_CONFORMER_ID>
0000331B00000002

> <PUBCHEM_MMFF94_ENERGY>
45.2963

> <PUBCHEM_FEATURE_SELFOVERLAP>
25.393

> <PUBCHEM_SHAPE_FINGERPRINT>
10411042 1 17761490687919987534
10646746 165 17131838719400441532
11471102 20 18409167731444350642
11543360 7 15285640950099913608
12236239 1 17458344165405379587
12403259 415 18130784585536012292
12730499 353 18272368720042523491
12969540 114 18410865338647940508
13140716 1 18336833000674235754
13583140 156 16558210210376729636
13675066 3 17988920054939193274
13760787 5 18260547848339782550
14289901 80 16486965206834250867
15196674 1 18409446951711183810
15219456 202 18202282532867204583
15375358 24 18273215304676261851
16945 1 18336547230445242714
18186145 218 18408601470071261206
18785283 64 17772172133934839005
19026448 4 17632574976306877443
19784866 34 18410015416223070226
19862831 5 17821449062230108254
200 152 18041001786032099745
204376 136 18410854330705023094
20612939 158 18335421300357136366
20645477 56 18201723899255838588
20645477 70 18336264638671572678
21267235 1 18335690693923529338
231179 274 18131355219323121390
23227448 37 18128533760948987252
23402539 116 17748827436081164680
23402655 69 18187366519274794140
23493267 7 17775006812170207969
23557571 272 17131544054990647567
23559900 14 17059772350992819258
25 1 18410015433281704562
2748010 2 18191580861724684642
293599 30 18338794520891199364
296302 2 18410572868465228950
335352 9 18409446978171779126
34797466 226 14707215365922130464
34934 24 18335988563059128936
4072396 5 18269009703276635858
474 4 18409448055459555352
5104073 3 18343580741702858371
633830 44 18114731737314053303
77492 1 17385728036550973643
8272917 22 18189331445591403663

> <PUBCHEM_SHAPE_MULTIPOLES>
361.45
9.86
1.93
0.96
1.55
0.42
-0.1
-4.46
-0.99
-2.01
-0.09
1
-0.11
0.39

> <PUBCHEM_SHAPE_SELFOVERLAP>
784.793

> <PUBCHEM_SHAPE_VOLUME>
197.9

> <PUBCHEM_COORDINATE_TYPE>
2
5
10

$$$$

