23724653
  -OEChem-07051213083D

 20 20  0     1  0  0  0  0  0999 V2000
    2.7081   -1.5993    0.4029 Cl  0  0  0  0  0  0  0  0  0  0  0  0
    2.7004    1.6102   -0.4036 Cl  0  0  0  0  0  0  0  0  0  0  0  0
   -2.7011   -1.6095    0.4039 Cl  0  0  0  0  0  0  0  0  0  0  0  0
   -2.7070    1.6000   -0.4047 Cl  0  0  0  0  0  0  0  0  0  0  0  0
    0.0055   -2.7698   -0.4337 O   0  0  0  0  0  0  0  0  0  0  0  0
   -0.0052    2.7690    0.4350 O   0  0  0  0  0  0  0  0  0  0  0  0
    0.0031   -1.4767    0.1779 C   0  0  0  0  0  0  0  0  0  0  0  0
   -0.0033    1.4764   -0.1779 C   0  0  0  0  0  0  0  0  0  0  0  0
    1.2713   -0.7242   -0.2450 C   0  0  1  0  0  0  0  0  0  0  0  0
    1.2680    0.7281    0.2449 C   0  0  1  0  0  0  0  0  0  0  0  0
   -1.2684   -0.7283   -0.2447 C   0  0  2  0  0  0  0  0  0  0  0  0
   -1.2716    0.7241    0.2450 C   0  0  2  0  0  0  0  0  0  0  0  0
    0.0035   -1.6266    1.2652 H   0  0  0  0  0  0  0  0  0  0  0  0
   -0.0034    1.6272   -1.2652 H   0  0  0  0  0  0  0  0  0  0  0  0
    1.3748   -0.7623   -1.3362 H   0  0  0  0  0  0  0  0  0  0  0  0
    1.3717    0.7666    1.3361 H   0  0  0  0  0  0  0  0  0  0  0  0
   -1.3721   -0.7670   -1.3359 H   0  0  0  0  0  0  0  0  0  0  0  0
   -1.3758    0.7626    1.3362 H   0  0  0  0  0  0  0  0  0  0  0  0
    0.0047   -2.6451   -1.3981 H   0  0  0  0  0  0  0  0  0  0  0  0
   -0.0048    2.6434    1.3993 H   0  0  0  0  0  0  0  0  0  0  0  0
  1  9  1  0  0  0  0
  2 10  1  0  0  0  0
  3 11  1  0  0  0  0
  4 12  1  0  0  0  0
  5  7  1  0  0  0  0
  5 19  1  0  0  0  0
  6  8  1  0  0  0  0
  6 20  1  0  0  0  0
  7  9  1  0  0  0  0
  7 11  1  0  0  0  0
  7 13  1  0  0  0  0
  8 10  1  0  0  0  0
  8 12  1  0  0  0  0
  8 14  1  0  0  0  0
  9 10  1  0  0  0  0
  9 15  1  0  0  0  0
 10 16  1  0  0  0  0
 11 12  1  0  0  0  0
 11 17  1  0  0  0  0
 12 18  1  0  0  0  0
M  END
> <PUBCHEM_COMPOUND_CID>
23724653

> <PUBCHEM_CONFORMER_RMSD>
0.4

> <PUBCHEM_CONFORMER_DIVERSEORDER>
1

> <PUBCHEM_MMFF94_PARTIAL_CHARGES>
14
1 -0.29
10 0.29
11 0.29
12 0.29
19 0.4
2 -0.29
20 0.4
3 -0.29
4 -0.29
5 -0.68
6 -0.68
7 0.28
8 0.28
9 0.29

> <PUBCHEM_EFFECTIVE_ROTOR_COUNT>
1.2

> <PUBCHEM_PHARMACOPHORE_FEATURES>
5
1 5 acceptor
1 5 donor
1 6 acceptor
1 6 donor
6 7 8 9 10 11 12 rings

> <PUBCHEM_HEAVY_ATOM_COUNT>
12

> <PUBCHEM_ATOM_DEF_STEREO_COUNT>
4

> <PUBCHEM_ATOM_UDEF_STEREO_COUNT>
0

> <PUBCHEM_BOND_DEF_STEREO_COUNT>
0

> <PUBCHEM_BOND_UDEF_STEREO_COUNT>
0

> <PUBCHEM_ISOTOPIC_ATOM_COUNT>
0

> <PUBCHEM_COMPONENT_COUNT>
1

> <PUBCHEM_CACTVS_TAUTO_COUNT>
1

> <PUBCHEM_CONFORMER_ID>
016A026D00000001

> <PUBCHEM_MMFF94_ENERGY>
24.3234

> <PUBCHEM_FEATURE_SELFOVERLAP>
25.371

> <PUBCHEM_SHAPE_FINGERPRINT>
10967382 1 18122626316684837509
11206711 2 18267021648514073933
12423570 1 10828315583918404689
13140716 1 18410575131907726128
13380535 76 18122352547074979015
161256 15 18050002195196941653
16945 1 18049714410649288713
193761 8 18411699889353261063
20511035 2 18335998544025041646
20588541 1 18050006889443189399
21040471 1 18337957796425965972
21501502 16 18412262835349299207
2334 1 18410575054598307847
23526114 1 18410855455833207621
23552423 10 18272369776140046634
23559900 14 18190739929204494238
241688 4 18410574019516497138
2748010 2 18410011039503553220
5255222 1 18121220870246965865
53812653 166 18262519178220632393
66348 1 18410292531654864704

> <PUBCHEM_SHAPE_MULTIPOLES>
242.69
3.87
3.05
0.72
0
0
0
0
0
0
0
0
0
0

> <PUBCHEM_SHAPE_SELFOVERLAP>
445.938

> <PUBCHEM_SHAPE_VOLUME>
157

> <PUBCHEM_COORDINATE_TYPE>
2
5
10

$$$$

