4287
  -OEChem-06261200012D

 40 41  0     0  0  0  0  0  0999 V2000
    8.0622    3.1900    0.0000 S   0  0  0  0  0  0  0  0  0  0  0  0
    2.0000   -1.3100    0.0000 F   0  0  0  0  0  0  0  0  0  0  0  0
    5.4641   -1.3100    0.0000 F   0  0  0  0  0  0  0  0  0  0  0  0
    5.4641   -3.3100    0.0000 F   0  0  0  0  0  0  0  0  0  0  0  0
    2.0000   -3.3100    0.0000 F   0  0  0  0  0  0  0  0  0  0  0  0
    3.7320   -4.3100    0.0000 F   0  0  0  0  0  0  0  0  0  0  0  0
    7.5622    4.0560    0.0000 O   0  0  0  0  0  0  0  0  0  0  0  0
    8.5622    2.3240    0.0000 O   0  0  0  0  0  0  0  0  0  0  0  0
    3.7320    1.6900    0.0000 O   0  0  0  0  0  0  0  0  0  0  0  0
    4.5981    0.1900    0.0000 N   0  0  0  0  0  0  0  0  0  0  0  0
    8.9282    3.6900    0.0000 N   0  0  0  0  0  0  0  0  0  0  0  0
    7.1962    2.6900    0.0000 C   0  0  0  0  0  0  0  0  0  0  0  0
    5.4641    1.6900    0.0000 C   0  0  0  0  0  0  0  0  0  0  0  0
    6.3301    3.1900    0.0000 C   0  0  0  0  0  0  0  0  0  0  0  0
    7.1962    1.6900    0.0000 C   0  0  0  0  0  0  0  0  0  0  0  0
    6.3301    1.1900    0.0000 C   0  0  0  0  0  0  0  0  0  0  0  0
    5.4641    2.6900    0.0000 C   0  0  0  0  0  0  0  0  0  0  0  0
    4.5981    1.1900    0.0000 C   0  0  0  0  0  0  0  0  0  0  0  0
    3.7320   -0.3100    0.0000 C   0  0  0  0  0  0  0  0  0  0  0  0
    3.7320   -1.3100    0.0000 C   0  0  0  0  0  0  0  0  0  0  0  0
    2.8660   -1.8100    0.0000 C   0  0  0  0  0  0  0  0  0  0  0  0
    4.5981   -1.8100    0.0000 C   0  0  0  0  0  0  0  0  0  0  0  0
    4.5981   -2.8100    0.0000 C   0  0  0  0  0  0  0  0  0  0  0  0
    2.8660   -2.8100    0.0000 C   0  0  0  0  0  0  0  0  0  0  0  0
    3.7320   -3.3100    0.0000 C   0  0  0  0  0  0  0  0  0  0  0  0
    7.7331    2.3800    0.0000 H   0  0  0  0  0  0  0  0  0  0  0  0
    5.4641    1.0700    0.0000 H   0  0  0  0  0  0  0  0  0  0  0  0
    6.7287    3.6650    0.0000 H   0  0  0  0  0  0  0  0  0  0  0  0
    5.9316    3.6650    0.0000 H   0  0  0  0  0  0  0  0  0  0  0  0
    7.4082    1.1074    0.0000 H   0  0  0  0  0  0  0  0  0  0  0  0
    7.8067    1.7977    0.0000 H   0  0  0  0  0  0  0  0  0  0  0  0
    5.2520    3.2726    0.0000 H   0  0  0  0  0  0  0  0  0  0  0  0
    5.9316    0.7151    0.0000 H   0  0  0  0  0  0  0  0  0  0  0  0
    6.7287    0.7151    0.0000 H   0  0  0  0  0  0  0  0  0  0  0  0
    4.8535    2.5823    0.0000 H   0  0  0  0  0  0  0  0  0  0  0  0
    5.1350   -0.1200    0.0000 H   0  0  0  0  0  0  0  0  0  0  0  0
    8.9282    4.3100    0.0000 H   0  0  0  0  0  0  0  0  0  0  0  0
    9.4651    3.3800    0.0000 H   0  0  0  0  0  0  0  0  0  0  0  0
    3.5200    0.2726    0.0000 H   0  0  0  0  0  0  0  0  0  0  0  0
    3.1215   -0.4177    0.0000 H   0  0  0  0  0  0  0  0  0  0  0  0
  1  7  2  0  0  0  0
  1  8  2  0  0  0  0
  1 11  1  0  0  0  0
  1 12  1  0  0  0  0
  2 21  1  0  0  0  0
  3 22  1  0  0  0  0
  4 23  1  0  0  0  0
  5 24  1  0  0  0  0
  6 25  1  0  0  0  0
  9 18  2  0  0  0  0
 10 18  1  0  0  0  0
 10 19  1  0  0  0  0
 10 36  1  0  0  0  0
 11 37  1  0  0  0  0
 11 38  1  0  0  0  0
 12 14  1  0  0  0  0
 12 15  1  0  0  0  0
 12 26  1  0  0  0  0
 13 16  1  0  0  0  0
 13 17  1  0  0  0  0
 13 18  1  0  0  0  0
 13 27  1  0  0  0  0
 14 17  1  0  0  0  0
 14 28  1  0  0  0  0
 14 29  1  0  0  0  0
 15 16  1  0  0  0  0
 15 30  1  0  0  0  0
 15 31  1  0  0  0  0
 16 33  1  0  0  0  0
 16 34  1  0  0  0  0
 17 32  1  0  0  0  0
 17 35  1  0  0  0  0
 19 20  1  0  0  0  0
 19 39  1  0  0  0  0
 19 40  1  0  0  0  0
 20 21  2  0  0  0  0
 20 22  1  0  0  0  0
 21 24  1  0  0  0  0
 22 23  2  0  0  0  0
 23 25  1  0  0  0  0
 24 25  2  0  0  0  0
M  END
> <PUBCHEM_COMPOUND_CID>
4287

> <PUBCHEM_COMPOUND_CANONICALIZED>
1

> <PUBCHEM_CACTVS_COMPLEXITY>
564

> <PUBCHEM_CACTVS_HBOND_ACCEPTOR>
9

> <PUBCHEM_CACTVS_HBOND_DONOR>
2

> <PUBCHEM_CACTVS_ROTATABLE_BOND>
4

> <PUBCHEM_CACTVS_SUBSKEYS>
AAADccBzMcBAAAAAAAAAAAAAAAAAAAAAAAAwYAAAAAAAAAABAAAAHwQQQAAADQDF2AyAAILAAAKIAgFQEHDCAAAgAAAAiIEIBIgIIDKAkBGEIAhglgCIiAcYiACOAAAAAAAAAAAgAAAAAAAAAAAAAAAAAA==

> <PUBCHEM_IUPAC_OPENEYE_NAME>
N-[(2,3,4,5,6-pentafluorophenyl)methyl]-4-sulfamoyl-cyclohexanecarboxamide

> <PUBCHEM_IUPAC_CAS_NAME>
N-[(2,3,4,5,6-pentafluorophenyl)methyl]-4-sulfamoyl-1-cyclohexanecarboxamide

> <PUBCHEM_IUPAC_NAME>
N-[(2,3,4,5,6-pentafluorophenyl)methyl]-4-sulfamoylcyclohexane-1-carboxamide

> <PUBCHEM_IUPAC_SYSTEMATIC_NAME>
N-[[2,3,4,5,6-pentakis(fluoranyl)phenyl]methyl]-4-sulfamoyl-cyclohexane-1-carboxamide

> <PUBCHEM_IUPAC_TRADITIONAL_NAME>
N-(2,3,4,5,6-pentafluorobenzyl)-4-sulfamoyl-cyclohexanecarboxamide

> <PUBCHEM_IUPAC_INCHI>
InChI=1S/C14H15F5N2O3S/c15-9-8(10(16)12(18)13(19)11(9)17)5-21-14(22)6-1-3-7(4-2-6)25(20,23)24/h6-7H,1-5H2,(H,21,22)(H2,20,23,24)

> <PUBCHEM_IUPAC_INCHIKEY>
OWAYZSPMLQDLTI-UHFFFAOYSA-N

> <PUBCHEM_XLOGP3_AA>
1.5

> <PUBCHEM_EXACT_MASS>
386.072354

> <PUBCHEM_MOLECULAR_FORMULA>
C14H15F5N2O3S

> <PUBCHEM_MOLECULAR_WEIGHT>
386.337516

> <PUBCHEM_OPENEYE_CAN_SMILES>
C1CC(CCC1C(=O)NCC2=C(C(=C(C(=C2F)F)F)F)F)S(=O)(=O)N

> <PUBCHEM_OPENEYE_ISO_SMILES>
C1CC(CCC1C(=O)NCC2=C(C(=C(C(=C2F)F)F)F)F)S(=O)(=O)N

> <PUBCHEM_CACTVS_TPSA>
97.6

> <PUBCHEM_MONOISOTOPIC_WEIGHT>
386.072354

> <PUBCHEM_TOTAL_CHARGE>
0

> <PUBCHEM_HEAVY_ATOM_COUNT>
25

> <PUBCHEM_ATOM_DEF_STEREO_COUNT>
0

> <PUBCHEM_ATOM_UDEF_STEREO_COUNT>
0

> <PUBCHEM_BOND_DEF_STEREO_COUNT>
0

> <PUBCHEM_BOND_UDEF_STEREO_COUNT>
0

> <PUBCHEM_ISOTOPIC_ATOM_COUNT>
0

> <PUBCHEM_COMPONENT_COUNT>
1

> <PUBCHEM_CACTVS_TAUTO_COUNT>
2

> <PUBCHEM_COORDINATE_TYPE>
1
5
255

> <PUBCHEM_BONDANNOTATIONS>
20  21  8
20  22  8
21  24  8
22  23  8
23  25  8
24  25  8

$$$$

