17395358
  -OEChem-06241222492D

 37 39  0     0  0  0  0  0  0999 V2000
    8.9076    1.1080    0.0000 S   0  0  0  0  0  0  0  0  0  0  0  0
    5.4921    0.2867    0.0000 S   0  0  0  0  0  0  0  0  0  0  0  0
    2.0000   -0.9921    0.0000 F   0  0  0  0  0  0  0  0  0  0  0  0
    7.3942   -0.3314    0.0000 O   0  0  0  0  0  0  0  0  0  0  0  0
    3.7320    0.0079    0.0000 N   0  0  0  0  0  0  0  0  0  0  0  0
    4.2320    1.5467    0.0000 N   0  0  0  0  0  0  0  0  0  0  0  0
    3.2320    1.5467    0.0000 N   0  0  0  0  0  0  0  0  0  0  0  0
    9.4076    1.9740    0.0000 C   0  0  0  0  0  0  0  0  0  0  0  0
   10.4021    2.0786    0.0000 C   0  0  0  0  0  0  0  0  0  0  0  0
    7.9295    1.3159    0.0000 C   0  0  0  0  0  0  0  0  0  0  0  0
    3.7320   -0.9921    0.0000 C   0  0  0  0  0  0  0  0  0  0  0  0
    8.7385    2.7172    0.0000 C   0  0  0  0  0  0  0  0  0  0  0  0
    7.8249    2.3104    0.0000 C   0  0  0  0  0  0  0  0  0  0  0  0
    6.2353    0.9558    0.0000 C   0  0  0  0  0  0  0  0  0  0  0  0
    7.1863    0.6468    0.0000 C   0  0  0  0  0  0  0  0  0  0  0  0
    4.5411    0.5957    0.0000 C   0  0  0  0  0  0  0  0  0  0  0  0
   10.8089    2.9921    0.0000 C   0  0  0  0  0  0  0  0  0  0  0  0
    2.8660   -1.4921    0.0000 C   0  0  0  0  0  0  0  0  0  0  0  0
    4.5981   -1.4921    0.0000 C   0  0  0  0  0  0  0  0  0  0  0  0
    2.9230    0.5957    0.0000 C   0  0  0  0  0  0  0  0  0  0  0  0
    2.8660   -2.4921    0.0000 C   0  0  0  0  0  0  0  0  0  0  0  0
    4.5981   -2.4921    0.0000 C   0  0  0  0  0  0  0  0  0  0  0  0
    3.7320   -2.9921    0.0000 C   0  0  0  0  0  0  0  0  0  0  0  0
   10.3589    1.4601    0.0000 H   0  0  0  0  0  0  0  0  0  0  0  0
   11.0037    1.9286    0.0000 H   0  0  0  0  0  0  0  0  0  0  0  0
    8.8674    3.3236    0.0000 H   0  0  0  0  0  0  0  0  0  0  0  0
    6.5263    1.5032    0.0000 H   0  0  0  0  0  0  0  0  0  0  0  0
    5.7467    1.3375    0.0000 H   0  0  0  0  0  0  0  0  0  0  0  0
    7.2880    2.6204    0.0000 H   0  0  0  0  0  0  0  0  0  0  0  0
   11.3753    2.7399    0.0000 H   0  0  0  0  0  0  0  0  0  0  0  0
   11.0611    3.5585    0.0000 H   0  0  0  0  0  0  0  0  0  0  0  0
   10.2425    3.2443    0.0000 H   0  0  0  0  0  0  0  0  0  0  0  0
    5.1350   -1.1821    0.0000 H   0  0  0  0  0  0  0  0  0  0  0  0
    2.3334    0.4041    0.0000 H   0  0  0  0  0  0  0  0  0  0  0  0
    2.3291   -2.8021    0.0000 H   0  0  0  0  0  0  0  0  0  0  0  0
    5.1350   -2.8021    0.0000 H   0  0  0  0  0  0  0  0  0  0  0  0
    3.7320   -3.6121    0.0000 H   0  0  0  0  0  0  0  0  0  0  0  0
  1  8  1  0  0  0  0
  1 10  1  0  0  0  0
  2 14  1  0  0  0  0
  2 16  1  0  0  0  0
  3 18  1  0  0  0  0
  4 15  2  0  0  0  0
  5 11  1  0  0  0  0
  5 16  1  0  0  0  0
  5 20  1  0  0  0  0
  6  7  1  0  0  0  0
  6 16  2  0  0  0  0
  7 20  2  0  0  0  0
  8  9  1  0  0  0  0
  8 12  2  0  0  0  0
  9 17  1  0  0  0  0
  9 24  1  0  0  0  0
  9 25  1  0  0  0  0
 10 13  2  0  0  0  0
 10 15  1  0  0  0  0
 11 18  1  0  0  0  0
 11 19  2  0  0  0  0
 12 13  1  0  0  0  0
 12 26  1  0  0  0  0
 13 29  1  0  0  0  0
 14 15  1  0  0  0  0
 14 27  1  0  0  0  0
 14 28  1  0  0  0  0
 17 30  1  0  0  0  0
 17 31  1  0  0  0  0
 17 32  1  0  0  0  0
 18 21  2  0  0  0  0
 19 22  1  0  0  0  0
 19 33  1  0  0  0  0
 20 34  1  0  0  0  0
 21 23  1  0  0  0  0
 21 35  1  0  0  0  0
 22 23  2  0  0  0  0
 22 36  1  0  0  0  0
 23 37  1  0  0  0  0
M  END
> <PUBCHEM_COMPOUND_CID>
17395358

> <PUBCHEM_COMPOUND_CANONICALIZED>
1

> <PUBCHEM_CACTVS_COMPLEXITY>
415

> <PUBCHEM_CACTVS_HBOND_ACCEPTOR>
6

> <PUBCHEM_CACTVS_HBOND_DONOR>
0

> <PUBCHEM_CACTVS_ROTATABLE_BOND>
6

> <PUBCHEM_CACTVS_SUBSKEYS>
AAADccB7IQBgAAAAAAAAAAAAAAAAAWJAAAAwAAAAAAAAAAAB8AAAHwQIAAAACAyF0Ay30YcMEAiuAKRTZACTUKt1ipBNyBkIZMiIKDLgnZGEIQhggAJoyacYiICAAAAAAAAAAAAAAAAAAAAAAAAAAAAAAA==

> <PUBCHEM_IUPAC_OPENEYE_NAME>
1-(5-ethyl-2-thienyl)-2-[[4-(2-fluorophenyl)-1,2,4-triazol-3-yl]sulfanyl]ethanone

> <PUBCHEM_IUPAC_CAS_NAME>
1-(5-ethyl-2-thiophenyl)-2-[[4-(2-fluorophenyl)-1,2,4-triazol-3-yl]thio]ethanone

> <PUBCHEM_IUPAC_NAME>
1-(5-ethylthiophen-2-yl)-2-[[4-(2-fluorophenyl)-1,2,4-triazol-3-yl]sulfanyl]ethanone

> <PUBCHEM_IUPAC_SYSTEMATIC_NAME>
1-(5-ethylthiophen-2-yl)-2-[[4-(2-fluorophenyl)-1,2,4-triazol-3-yl]sulfanyl]ethanone

> <PUBCHEM_IUPAC_TRADITIONAL_NAME>
1-(5-ethyl-2-thienyl)-2-[[4-(2-fluorophenyl)-1,2,4-triazol-3-yl]thio]ethanone

> <PUBCHEM_IUPAC_INCHI>
InChI=1S/C16H14FN3OS2/c1-2-11-7-8-15(23-11)14(21)9-22-16-19-18-10-20(16)13-6-4-3-5-12(13)17/h3-8,10H,2,9H2,1H3

> <PUBCHEM_IUPAC_INCHIKEY>
JMPAHXAALKWGOK-UHFFFAOYSA-N

> <PUBCHEM_XLOGP3_AA>
4.3

> <PUBCHEM_EXACT_MASS>
347.056232

> <PUBCHEM_MOLECULAR_FORMULA>
C16H14FN3OS2

> <PUBCHEM_MOLECULAR_WEIGHT>
347.430263

> <PUBCHEM_OPENEYE_CAN_SMILES>
CCC1=CC=C(S1)C(=O)CSC2=NN=CN2C3=CC=CC=C3F

> <PUBCHEM_OPENEYE_ISO_SMILES>
CCC1=CC=C(S1)C(=O)CSC2=NN=CN2C3=CC=CC=C3F

> <PUBCHEM_CACTVS_TPSA>
101

> <PUBCHEM_MONOISOTOPIC_WEIGHT>
347.056232

> <PUBCHEM_TOTAL_CHARGE>
0

> <PUBCHEM_HEAVY_ATOM_COUNT>
23

> <PUBCHEM_ATOM_DEF_STEREO_COUNT>
0

> <PUBCHEM_ATOM_UDEF_STEREO_COUNT>
0

> <PUBCHEM_BOND_DEF_STEREO_COUNT>
0

> <PUBCHEM_BOND_UDEF_STEREO_COUNT>
0

> <PUBCHEM_ISOTOPIC_ATOM_COUNT>
0

> <PUBCHEM_COMPONENT_COUNT>
1

> <PUBCHEM_CACTVS_TAUTO_COUNT>
7

> <PUBCHEM_COORDINATE_TYPE>
1
5
255

> <PUBCHEM_BONDANNOTATIONS>
1  10  8
1  8  8
10  13  8
11  18  8
11  19  8
12  13  8
18  21  8
19  22  8
21  23  8
22  23  8
5  16  8
5  20  8
6  16  8
6  7  8
7  20  8
8  12  8

$$$$

