15787
  -OEChem-07051213013D

 25 26  0     0  0  0  0  0  0999 V2000
    2.6070   -2.3928    1.4596 Cl  0  0  0  0  0  0  0  0  0  0  0  0
    5.2594    2.1190    0.1844 Cl  0  0  0  0  0  0  0  0  0  0  0  0
    0.6488   -1.4330   -0.6082 O   0  0  0  0  0  0  0  0  0  0  0  0
   -5.3220    0.4986   -0.5076 O   0  5  0  0  0  0  0  0  0  0  0  0
   -4.5988    1.3854    1.3659 O   0  0  0  0  0  0  0  0  0  0  0  0
   -4.4085    0.7082    0.3268 N   0  3  0  0  0  0  0  0  0  0  0  0
   -0.5868   -0.9098   -0.3796 C   0  0  0  0  0  0  0  0  0  0  0  0
    1.7438   -0.6101   -0.4051 C   0  0  0  0  0  0  0  0  0  0  0  0
   -1.6174   -1.1309   -1.2933 C   0  0  0  0  0  0  0  0  0  0  0  0
   -0.8229   -0.1529    0.7682 C   0  0  0  0  0  0  0  0  0  0  0  0
   -3.1199    0.1615    0.0881 C   0  0  0  0  0  0  0  0  0  0  0  0
   -2.8839   -0.5952   -1.0595 C   0  0  0  0  0  0  0  0  0  0  0  0
   -2.0895    0.3827    1.0020 C   0  0  0  0  0  0  0  0  0  0  0  0
    2.7133   -0.9483    0.5228 C   0  0  0  0  0  0  0  0  0  0  0  0
    1.8332    0.5498   -1.1561 C   0  0  0  0  0  0  0  0  0  0  0  0
    3.8061   -0.1009    0.7061 C   0  0  0  0  0  0  0  0  0  0  0  0
    2.9258    1.3971   -0.9728 C   0  0  0  0  0  0  0  0  0  0  0  0
    3.9123    1.0718   -0.0417 C   0  0  0  0  0  0  0  0  0  0  0  0
   -1.4388   -1.7195   -2.1891 H   0  0  0  0  0  0  0  0  0  0  0  0
   -0.0448    0.0204    1.5064 H   0  0  0  0  0  0  0  0  0  0  0  0
   -3.6625   -0.7877   -1.7932 H   0  0  0  0  0  0  0  0  0  0  0  0
   -2.2379    0.9639    1.9086 H   0  0  0  0  0  0  0  0  0  0  0  0
    1.0790    0.8103   -1.8931 H   0  0  0  0  0  0  0  0  0  0  0  0
    4.5762   -0.3533    1.4320 H   0  0  0  0  0  0  0  0  0  0  0  0
    2.9967    2.3064   -1.5641 H   0  0  0  0  0  0  0  0  0  0  0  0
  1 14  1  0  0  0  0
  2 18  1  0  0  0  0
  3  7  1  0  0  0  0
  3  8  1  0  0  0  0
  4  6  1  0  0  0  0
  5  6  2  0  0  0  0
  6 11  1  0  0  0  0
  7  9  2  0  0  0  0
  7 10  1  0  0  0  0
  8 14  2  0  0  0  0
  8 15  1  0  0  0  0
  9 12  1  0  0  0  0
  9 19  1  0  0  0  0
 10 13  2  0  0  0  0
 10 20  1  0  0  0  0
 11 12  2  0  0  0  0
 11 13  1  0  0  0  0
 12 21  1  0  0  0  0
 13 22  1  0  0  0  0
 14 16  1  0  0  0  0
 15 17  2  0  0  0  0
 15 23  1  0  0  0  0
 16 18  2  0  0  0  0
 16 24  1  0  0  0  0
 17 18  1  0  0  0  0
 17 25  1  0  0  0  0
M  CHG  2   4  -1   6   1
M  END
> <PUBCHEM_COMPOUND_CID>
15787

> <PUBCHEM_CONFORMER_RMSD>
0.6

> <PUBCHEM_CONFORMER_DIVERSEORDER>
1
2
5
6
3
4
7

> <PUBCHEM_MMFF94_PARTIAL_CHARGES>
25
1 -0.18
10 -0.15
11 0.13
12 -0.15
13 -0.15
14 0.18
15 -0.15
16 -0.15
17 -0.15
18 0.18
19 0.15
2 -0.18
20 0.15
21 0.15
22 0.15
23 0.15
24 0.15
25 0.15
3 -0.17
4 -0.52
5 -0.52
6 0.91
7 0.08
8 0.08
9 -0.15

> <PUBCHEM_EFFECTIVE_ROTOR_COUNT>
3

> <PUBCHEM_PHARMACOPHORE_FEATURES>
6
1 3 acceptor
1 4 acceptor
1 4 anion
1 5 acceptor
6 7 9 10 11 12 13 rings
6 8 14 15 16 17 18 rings

> <PUBCHEM_HEAVY_ATOM_COUNT>
18

> <PUBCHEM_ATOM_DEF_STEREO_COUNT>
0

> <PUBCHEM_ATOM_UDEF_STEREO_COUNT>
0

> <PUBCHEM_BOND_DEF_STEREO_COUNT>
0

> <PUBCHEM_BOND_UDEF_STEREO_COUNT>
0

> <PUBCHEM_ISOTOPIC_ATOM_COUNT>
0

> <PUBCHEM_COMPONENT_COUNT>
1

> <PUBCHEM_CACTVS_TAUTO_COUNT>
1

> <PUBCHEM_CONFORMER_ID>
00003DAB00000001

> <PUBCHEM_MMFF94_ENERGY>
58.9573

> <PUBCHEM_FEATURE_SELFOVERLAP>
30.528

> <PUBCHEM_SHAPE_FINGERPRINT>
10498660 4 17168141230395636448
11046707 91 11383844752774503478
11089746 13 18259991448844808676
11543360 7 6482770559988479419
11640471 11 18335978684196472364
12236239 1 18335144184677493454
12403814 3 18412830205225241901
12633257 1 16343421696423192592
12670546 56 18130229375662349345
12892183 10 17989200486497424209
13533116 47 17774159144925045419
13583140 156 18271803476423254291
13675066 3 16845570946182963743
1420 369 11311783864623734240
14251764 38 18124602143634329837
14252887 29 16988847211113261130
14739800 52 17750254542709251528
15188451 53 15338548329127503129
15342168 16 18129937880268500668
15527383 91 18130510833749503682
15775835 57 18335138665945042428
1813 80 17977944910898527126
18186145 218 18272090521424421710
19049666 15 16485589803951194502
20157964 124 18201444705217719215
20715895 44 17831866025077997417
20871999 31 16515972467275183975
21503847 285 18411415142244597010
21618674 25 17988645177227480450
23048698 100 18410856585583894218
23402539 116 17458068131988930244
23402655 69 17748822999569969020
23503958 8 12607142715394508044
23557571 272 15719971115556866943
23559900 14 15338544041969763474
2838139 119 17170688666622369536
3060560 45 5328738561522668884
3472631 163 17967811613445423669
4028521 119 16950277412388736249
42 15 13470691438167028549
4340502 62 18060692893152020011
465052 167 10735865197639060753
474 4 18271525295502141768
4990 188 14634871967838783487
5104073 3 18272369754501895122
633830 44 18261672661710038215
76465 3 11600002120424878065
8272917 22 18201440311281909642

> <PUBCHEM_SHAPE_MULTIPOLES>
351.58
10.27
1.88
1.29
4.39
0.5
0.01
-6.06
2.05
-2.3
0.45
0.53
0.12
-1.27

> <PUBCHEM_SHAPE_SELFOVERLAP>
743.54

> <PUBCHEM_SHAPE_VOLUME>
199.6

> <PUBCHEM_COORDINATE_TYPE>
2
5
10

$$$$

