46174014
  -OEChem-07051213113D

 47 48  0     1  0  0  0  0  0999 V2000
   -0.2466   -0.3385   -0.3570 O   0  0  0  0  0  0  0  0  0  0  0  0
   -1.8029    0.4171    1.2573 O   0  0  0  0  0  0  0  0  0  0  0  0
    1.3272   -2.1139    1.2163 O   0  0  0  0  0  0  0  0  0  0  0  0
    3.6855    2.2090   -1.4120 O   0  0  0  0  0  0  0  0  0  0  0  0
    4.1148   -2.1786    0.4171 O   0  0  0  0  0  0  0  0  0  0  0  0
    5.2593    0.4268    0.1632 O   0  0  0  0  0  0  0  0  0  0  0  0
   -4.1734   -2.0289   -1.0846 O   0  0  0  0  0  0  0  0  0  0  0  0
   -4.4500    0.8265   -1.2727 O   0  0  0  0  0  0  0  0  0  0  0  0
   -2.1650    3.1087    1.5343 O   0  0  0  0  0  0  0  0  0  0  0  0
    0.8868    2.3023   -0.7183 N   0  0  0  0  0  0  0  0  0  0  0  0
   -1.4935   -2.9070   -0.3712 N   0  0  0  0  0  0  0  0  0  0  0  0
    1.0469    0.0043    0.1486 C   0  0  2  0  0  0  0  0  0  0  0  0
    1.6675    1.0585   -0.7789 C   0  0  2  0  0  0  0  0  0  0  0  0
    1.8930   -1.2693    0.2096 C   0  0  1  0  0  0  0  0  0  0  0  0
    3.1276    1.3543   -0.4099 C   0  0  1  0  0  0  0  0  0  0  0  0
    3.3498   -0.9793    0.5674 C   0  0  2  0  0  0  0  0  0  0  0  0
    3.9688    0.0767   -0.3460 C   0  0  2  0  0  0  0  0  0  0  0  0
   -1.1293   -0.7145    0.6979 C   0  0  1  0  0  0  0  0  0  0  0  0
   -2.1592   -1.7400    0.2085 C   0  0  1  0  0  0  0  0  0  0  0  0
   -3.1173   -1.1075   -0.8068 C   0  0  2  0  0  0  0  0  0  0  0  0
   -3.7249    0.1767   -0.2314 C   0  0  1  0  0  0  0  0  0  0  0  0
   -2.6370    1.1064    0.3197 C   0  0  1  0  0  0  0  0  0  0  0  0
   -3.2282    2.3099    1.0489 C   0  0  0  0  0  0  0  0  0  0  0  0
    0.9501    0.4382    1.1554 H   0  0  0  0  0  0  0  0  0  0  0  0
    1.6130    0.7076   -1.8181 H   0  0  0  0  0  0  0  0  0  0  0  0
    1.8207   -1.8274   -0.7313 H   0  0  0  0  0  0  0  0  0  0  0  0
    3.1900    1.8964    0.5420 H   0  0  0  0  0  0  0  0  0  0  0  0
    3.4452   -0.6890    1.6203 H   0  0  0  0  0  0  0  0  0  0  0  0
    4.1400   -0.3266   -1.3512 H   0  0  0  0  0  0  0  0  0  0  0  0
   -0.6083   -1.1610    1.5450 H   0  0  0  0  0  0  0  0  0  0  0  0
   -2.7493   -2.0827    1.0692 H   0  0  0  0  0  0  0  0  0  0  0  0
   -2.6135   -0.9006   -1.7590 H   0  0  0  0  0  0  0  0  0  0  0  0
   -4.4438   -0.0786    0.5565 H   0  0  0  0  0  0  0  0  0  0  0  0
   -2.0132    1.4875   -0.4964 H   0  0  0  0  0  0  0  0  0  0  0  0
    1.3090    2.9976   -1.3327 H   0  0  0  0  0  0  0  0  0  0  0  0
   -0.0483    2.1313   -1.0831 H   0  0  0  0  0  0  0  0  0  0  0  0
    1.4887   -1.7012    2.0821 H   0  0  0  0  0  0  0  0  0  0  0  0
   -3.8247    1.9893    1.9095 H   0  0  0  0  0  0  0  0  0  0  0  0
   -3.8505    2.9147    0.3824 H   0  0  0  0  0  0  0  0  0  0  0  0
    3.6351    1.7454   -2.2653 H   0  0  0  0  0  0  0  0  0  0  0  0
    4.0335   -2.4746   -0.5056 H   0  0  0  0  0  0  0  0  0  0  0  0
   -0.9016   -3.3482    0.3315 H   0  0  0  0  0  0  0  0  0  0  0  0
   -2.1909   -3.5999   -0.6398 H   0  0  0  0  0  0  0  0  0  0  0  0
    5.1430    0.7806    1.0616 H   0  0  0  0  0  0  0  0  0  0  0  0
   -4.6297   -2.2269   -0.2490 H   0  0  0  0  0  0  0  0  0  0  0  0
   -3.8164    1.0871   -1.9628 H   0  0  0  0  0  0  0  0  0  0  0  0
   -2.5628    3.8661    1.9964 H   0  0  0  0  0  0  0  0  0  0  0  0
  1 12  1  0  0  0  0
  1 18  1  0  0  0  0
  2 18  1  0  0  0  0
  2 22  1  0  0  0  0
  3 14  1  0  0  0  0
  3 37  1  0  0  0  0
  4 15  1  0  0  0  0
  4 40  1  0  0  0  0
  5 16  1  0  0  0  0
  5 41  1  0  0  0  0
  6 17  1  0  0  0  0
  6 44  1  0  0  0  0
  7 20  1  0  0  0  0
  7 45  1  0  0  0  0
  8 21  1  0  0  0  0
  8 46  1  0  0  0  0
  9 23  1  0  0  0  0
  9 47  1  0  0  0  0
 10 13  1  0  0  0  0
 10 35  1  0  0  0  0
 10 36  1  0  0  0  0
 11 19  1  0  0  0  0
 11 42  1  0  0  0  0
 11 43  1  0  0  0  0
 12 13  1  0  0  0  0
 12 14  1  0  0  0  0
 12 24  1  0  0  0  0
 13 15  1  0  0  0  0
 13 25  1  0  0  0  0
 14 16  1  0  0  0  0
 14 26  1  0  0  0  0
 15 17  1  0  0  0  0
 15 27  1  0  0  0  0
 16 17  1  0  0  0  0
 16 28  1  0  0  0  0
 17 29  1  0  0  0  0
 18 19  1  0  0  0  0
 18 30  1  0  0  0  0
 19 20  1  0  0  0  0
 19 31  1  0  0  0  0
 20 21  1  0  0  0  0
 20 32  1  0  0  0  0
 21 22  1  0  0  0  0
 21 33  1  0  0  0  0
 22 23  1  0  0  0  0
 22 34  1  0  0  0  0
 23 38  1  0  0  0  0
 23 39  1  0  0  0  0
M  END
> <PUBCHEM_COMPOUND_CID>
46174014

> <PUBCHEM_CONFORMER_RMSD>
0.8

> <PUBCHEM_CONFORMER_DIVERSEORDER>
1
10
6
2
7
8
5
3
9
4

> <PUBCHEM_MMFF94_PARTIAL_CHARGES>
34
1 -0.56
10 -0.99
11 -0.99
12 0.28
13 0.27
14 0.28
15 0.28
16 0.28
17 0.28
18 0.56
19 0.27
2 -0.56
20 0.28
21 0.28
22 0.28
23 0.28
3 -0.68
35 0.36
36 0.36
37 0.4
4 -0.68
40 0.4
41 0.4
42 0.36
43 0.36
44 0.4
45 0.4
46 0.4
47 0.4
5 -0.68
6 -0.68
7 -0.68
8 -0.68
9 -0.68

> <PUBCHEM_EFFECTIVE_ROTOR_COUNT>
5.4

> <PUBCHEM_PHARMACOPHORE_FEATURES>
22
1 1 acceptor
1 10 cation
1 10 donor
1 11 cation
1 11 donor
1 2 acceptor
1 3 acceptor
1 3 donor
1 4 acceptor
1 4 donor
1 5 acceptor
1 5 donor
1 6 acceptor
1 6 donor
1 7 acceptor
1 7 donor
1 8 acceptor
1 8 donor
1 9 acceptor
1 9 donor
6 12 13 14 15 16 17 rings
6 2 18 19 20 21 22 rings

> <PUBCHEM_HEAVY_ATOM_COUNT>
23

> <PUBCHEM_ATOM_DEF_STEREO_COUNT>
11

> <PUBCHEM_ATOM_UDEF_STEREO_COUNT>
0

> <PUBCHEM_BOND_DEF_STEREO_COUNT>
0

> <PUBCHEM_BOND_UDEF_STEREO_COUNT>
0

> <PUBCHEM_ISOTOPIC_ATOM_COUNT>
0

> <PUBCHEM_COMPONENT_COUNT>
1

> <PUBCHEM_CACTVS_TAUTO_COUNT>
1

> <PUBCHEM_CONFORMER_ID>
02C08F3E00000001

> <PUBCHEM_MMFF94_ENERGY>
58.4159

> <PUBCHEM_FEATURE_SELFOVERLAP>
111.71

> <PUBCHEM_SHAPE_FINGERPRINT>
10369192 42 14114092559305030182
10756046 5 18341056228904442263
11640471 11 18265037201819439729
12107183 9 17904762537585987946
12173636 292 18261396675938492551
12236239 1 18408042909416173694
12788726 201 18114174251218655921
13583140 156 16371589101399550434
14790565 3 18129362849316536932
15420108 30 17254844590114862313
15442244 35 18339641251996989370
16752209 62 18113909272926446851
17349148 13 18410581668869075182
17492 89 18410290298278165447
17818456 19 18117277162730382024
192875 21 18337679624141780565
19862831 5 18410292480136499247
200 152 18337397049917361751
20775438 99 16601300977962363599
21267235 1 18341041943700894662
23184049 59 18199738318410068512
23402539 116 18260553307781312221
23557571 272 17095519634221877673
23559900 14 18187656777591572128
23598291 2 18412261765707575574
2838139 119 17129607841163954541
34934 24 18272658956488637402
474 4 18131630075960879496
5104073 3 18342459244195535842
543358 83 18271806852278208574
6992083 37 18341324608457165501
7471813 234 18116444643254636693
7615 1 18409444803995271528
7832392 63 18339352059048443944
90525 40 18334010583915739055
9709674 26 18409442579239746054

> <PUBCHEM_SHAPE_MULTIPOLES>
410.54
9.02
2.98
1.16
3.42
0.36
0.04
0.59
-1.46
-1.06
0.33
-0.52
0.38
-2.12

> <PUBCHEM_SHAPE_SELFOVERLAP>
841.322

> <PUBCHEM_SHAPE_VOLUME>
233

> <PUBCHEM_COORDINATE_TYPE>
2
5
10

$$$$

