247863
  -OEChem-07051213062D

 54 57  0     1  0  0  0  0  0999 V2000
    2.0024   -1.8438    0.0000 O   0  0  0  0  0  0  0  0  0  0  0  0
    8.6524    2.4638    0.0000 O   0  0  0  0  0  0  0  0  0  0  0  0
    5.6634    0.2085    0.0000 C   0  0  2  0  0  0  0  0  0  0  0  0
    4.7534   -0.2983    0.0000 C   0  0  2  0  0  0  0  0  0  0  0  0
    6.5294   -0.2915    0.0000 C   0  0  2  0  0  0  0  0  0  0  0  0
    7.3955    0.2085    0.0000 C   0  0  1  0  0  0  0  0  0  0  0  0
    4.7454   -1.3399    0.0000 C   0  0  1  0  0  0  0  0  0  0  0  0
    7.3955    1.2085    0.0000 C   0  0  2  0  0  0  0  0  0  0  0  0
    5.6634    1.2085    0.0000 C   0  0  0  0  0  0  0  0  0  0  0  0
    6.5455   -1.3330    0.0000 C   0  0  0  0  0  0  0  0  0  0  0  0
    5.6475   -1.8607    0.0000 C   0  0  0  0  0  0  0  0  0  0  0  0
    3.8266    0.2658    0.0000 C   0  0  0  0  0  0  0  0  0  0  0  0
    6.5294    1.7085    0.0000 C   0  0  0  0  0  0  0  0  0  0  0  0
    8.3417   -0.0962    0.0000 C   0  0  0  0  0  0  0  0  0  0  0  0
    3.8100   -1.8896    0.0000 C   0  0  0  0  0  0  0  0  0  0  0  0
    2.8787   -0.2622    0.0000 C   0  0  2  0  0  0  0  0  0  0  0  0
    4.7611    0.7017    0.0000 C   0  0  0  0  0  0  0  0  0  0  0  0
    2.8703   -1.3471    0.0000 C   0  0  1  0  0  0  0  0  0  0  0  0
    8.3417    1.5133    0.0000 C   0  0  0  0  0  0  0  0  0  0  0  0
    8.9253    0.7085    0.0000 C   0  0  0  0  0  0  0  0  0  0  0  0
    7.3955    2.2085    0.0000 C   0  0  0  0  0  0  0  0  0  0  0  0
    2.0185    0.2478    0.0000 C   0  0  0  0  0  0  0  0  0  0  0  0
    6.3995    0.6335    0.0000 H   0  0  0  0  0  0  0  0  0  0  0  0
    7.2688   -0.7108    0.0000 H   0  0  0  0  0  0  0  0  0  0  0  0
    7.4854   -0.6367    0.0000 H   0  0  0  0  0  0  0  0  0  0  0  0
    4.7487   -2.1899    0.0000 H   0  0  0  0  0  0  0  0  0  0  0  0
    5.4514    1.7912    0.0000 H   0  0  0  0  0  0  0  0  0  0  0  0
    5.0528    1.1009    0.0000 H   0  0  0  0  0  0  0  0  0  0  0  0
    6.7635   -1.9134    0.0000 H   0  0  0  0  0  0  0  0  0  0  0  0
    7.1546   -1.2175    0.0000 H   0  0  0  0  0  0  0  0  0  0  0  0
    5.2502   -2.3367    0.0000 H   0  0  0  0  0  0  0  0  0  0  0  0
    6.0484   -2.3336    0.0000 H   0  0  0  0  0  0  0  0  0  0  0  0
    4.2348    0.7324    0.0000 H   0  0  0  0  0  0  0  0  0  0  0  0
    3.4367    0.7478    0.0000 H   0  0  0  0  0  0  0  0  0  0  0  0
    6.9280    2.1835    0.0000 H   0  0  0  0  0  0  0  0  0  0  0  0
    6.1309    2.1835    0.0000 H   0  0  0  0  0  0  0  0  0  0  0  0
    8.0907   -0.6631    0.0000 H   0  0  0  0  0  0  0  0  0  0  0  0
    8.8791   -0.4054    0.0000 H   0  0  0  0  0  0  0  0  0  0  0  0
    3.4127   -2.3656    0.0000 H   0  0  0  0  0  0  0  0  0  0  0  0
    4.2109   -2.3625    0.0000 H   0  0  0  0  0  0  0  0  0  0  0  0
    2.8871    0.3578    0.0000 H   0  0  0  0  0  0  0  0  0  0  0  0
    5.3811    0.6969    0.0000 H   0  0  0  0  0  0  0  0  0  0  0  0
    4.7659    1.3216    0.0000 H   0  0  0  0  0  0  0  0  0  0  0  0
    4.1412    0.7064    0.0000 H   0  0  0  0  0  0  0  0  0  0  0  0
    2.8691   -1.9671    0.0000 H   0  0  0  0  0  0  0  0  0  0  0  0
    9.3862    0.2938    0.0000 H   0  0  0  0  0  0  0  0  0  0  0  0
    9.3862    1.1233    0.0000 H   0  0  0  0  0  0  0  0  0  0  0  0
    8.0155    2.2085    0.0000 H   0  0  0  0  0  0  0  0  0  0  0  0
    7.3955    2.8285    0.0000 H   0  0  0  0  0  0  0  0  0  0  0  0
    6.7755    2.2085    0.0000 H   0  0  0  0  0  0  0  0  0  0  0  0
    2.3347    0.7811    0.0000 H   0  0  0  0  0  0  0  0  0  0  0  0
    1.4852    0.5640    0.0000 H   0  0  0  0  0  0  0  0  0  0  0  0
    1.7023   -0.2855    0.0000 H   0  0  0  0  0  0  0  0  0  0  0  0
    2.0000   -2.4638    0.0000 H   0  0  0  0  0  0  0  0  0  0  0  0
 18  1  1  6  0  0  0
  1 54  1  0  0  0  0
  2 19  2  0  0  0  0
  3  4  1  0  0  0  0
  3  5  1  0  0  0  0
  3  9  1  0  0  0  0
  3 23  1  6  0  0  0
  4  7  1  0  0  0  0
  4 12  1  0  0  0  0
  4 17  1  1  0  0  0
  5  6  1  0  0  0  0
  5 10  1  0  0  0  0
  5 24  1  1  0  0  0
  6  8  1  0  0  0  0
  6 14  1  0  0  0  0
  6 25  1  6  0  0  0
  7 11  1  0  0  0  0
  7 15  1  0  0  0  0
  7 26  1  6  0  0  0
  8 13  1  0  0  0  0
  8 19  1  0  0  0  0
  8 21  1  1  0  0  0
  9 13  1  0  0  0  0
  9 27  1  0  0  0  0
  9 28  1  0  0  0  0
 10 11  1  0  0  0  0
 10 29  1  0  0  0  0
 10 30  1  0  0  0  0
 11 31  1  0  0  0  0
 11 32  1  0  0  0  0
 12 16  1  0  0  0  0
 12 33  1  0  0  0  0
 12 34  1  0  0  0  0
 13 35  1  0  0  0  0
 13 36  1  0  0  0  0
 14 20  1  0  0  0  0
 14 37  1  0  0  0  0
 14 38  1  0  0  0  0
 15 18  1  0  0  0  0
 15 39  1  0  0  0  0
 15 40  1  0  0  0  0
 16 18  1  0  0  0  0
 16 22  1  6  0  0  0
 16 41  1  0  0  0  0
 17 42  1  0  0  0  0
 17 43  1  0  0  0  0
 17 44  1  0  0  0  0
 18 45  1  0  0  0  0
 19 20  1  0  0  0  0
 20 46  1  0  0  0  0
 20 47  1  0  0  0  0
 21 48  1  0  0  0  0
 21 49  1  0  0  0  0
 21 50  1  0  0  0  0
 22 51  1  0  0  0  0
 22 52  1  0  0  0  0
 22 53  1  0  0  0  0
M  END
> <PUBCHEM_COMPOUND_CID>
247863

> <PUBCHEM_COMPOUND_CANONICALIZED>
1

> <PUBCHEM_CACTVS_COMPLEXITY>
486

> <PUBCHEM_CACTVS_HBOND_ACCEPTOR>
2

> <PUBCHEM_CACTVS_HBOND_DONOR>
1

> <PUBCHEM_CACTVS_ROTATABLE_BOND>
0

> <PUBCHEM_CACTVS_SUBSKEYS>
AAADcfB4MAAAAAAAAAAAAAAAAAAAAYAAAAAwYMAAAAAAAGDAAAAAGgAACAAADxSggAICAAAAAgAIAIAQAAAAAAAAAAAAAAEAAAAAEBIAAAAAQAAEAAAAAAGIyPCPgAAAAAAAAADAAAYAADAAAAAACAAAAA==

> <PUBCHEM_IUPAC_OPENEYE_NAME>
(2R,3S,5S,8R,9S,10S,13S,14S)-3-hydroxy-2,10,13-trimethyl-1,2,3,4,5,6,7,8,9,11,12,14,15,16-tetradecahydrocyclopenta[a]phenanthren-17-one

> <PUBCHEM_IUPAC_CAS_NAME>
(2R,3S,5S,8R,9S,10S,13S,14S)-3-hydroxy-2,10,13-trimethyl-1,2,3,4,5,6,7,8,9,11,12,14,15,16-tetradecahydrocyclopenta[a]phenanthren-17-one

> <PUBCHEM_IUPAC_NAME>
(2R,3S,5S,8R,9S,10S,13S,14S)-3-hydroxy-2,10,13-trimethyl-1,2,3,4,5,6,7,8,9,11,12,14,15,16-tetradecahydrocyclopenta[a]phenanthren-17-one

> <PUBCHEM_IUPAC_SYSTEMATIC_NAME>
(2R,3S,5S,8R,9S,10S,13S,14S)-2,10,13-trimethyl-3-oxidanyl-1,2,3,4,5,6,7,8,9,11,12,14,15,16-tetradecahydrocyclopenta[a]phenanthren-17-one

> <PUBCHEM_IUPAC_TRADITIONAL_NAME>
(2R,3S,5S,8R,9S,10S,13S,14S)-3-hydroxy-2,10,13-trimethyl-1,2,3,4,5,6,7,8,9,11,12,14,15,16-tetradecahydrocyclopenta[a]phenanthren-17-one

> <PUBCHEM_IUPAC_INCHI>
InChI=1S/C20H32O2/c1-12-11-20(3)13(10-17(12)21)4-5-14-15-6-7-18(22)19(15,2)9-8-16(14)20/h12-17,21H,4-11H2,1-3H3/t12-,13+,14+,15+,16+,17+,19+,20+/m1/s1

> <PUBCHEM_IUPAC_INCHIKEY>
FDGQIVOIHOIMNK-URBDGJAYSA-N

> <PUBCHEM_XLOGP3>
4.1

> <PUBCHEM_EXACT_MASS>
304.24023

> <PUBCHEM_MOLECULAR_FORMULA>
C20H32O2

> <PUBCHEM_MOLECULAR_WEIGHT>
304.46688

> <PUBCHEM_OPENEYE_CAN_SMILES>
CC1CC2(C(CCC3C2CCC4(C3CCC4=O)C)CC1O)C

> <PUBCHEM_OPENEYE_ISO_SMILES>
C[C@@H]1C[C@]2([C@@H](CC[C@@H]3[C@@H]2CC[C@]4([C@H]3CCC4=O)C)C[C@@H]1O)C

> <PUBCHEM_CACTVS_TPSA>
37.3

> <PUBCHEM_MONOISOTOPIC_WEIGHT>
304.24023

> <PUBCHEM_TOTAL_CHARGE>
0

> <PUBCHEM_HEAVY_ATOM_COUNT>
22

> <PUBCHEM_ATOM_DEF_STEREO_COUNT>
8

> <PUBCHEM_ATOM_UDEF_STEREO_COUNT>
0

> <PUBCHEM_BOND_DEF_STEREO_COUNT>
0

> <PUBCHEM_BOND_UDEF_STEREO_COUNT>
0

> <PUBCHEM_ISOTOPIC_ATOM_COUNT>
0

> <PUBCHEM_COMPONENT_COUNT>
1

> <PUBCHEM_CACTVS_TAUTO_COUNT>
2

> <PUBCHEM_COORDINATE_TYPE>
1
5
255

> <PUBCHEM_BONDANNOTATIONS>
18  1  6
16  22  6
3  23  6
4  17  5
5  24  5
6  25  6
7  26  6
8  21  5

$$$$

