442157
  -OEChem-07051212572D

 43 46  0     1  0  0  0  0  0999 V2000
    2.0520    2.5654    0.0000 O   0  0  0  0  0  0  0  0  0  0  0  0
    3.8372   -3.6313    0.0000 O   0  0  0  0  0  0  0  0  0  0  0  0
    7.2920    2.5522    0.0000 O   0  0  0  0  0  0  0  0  0  0  0  0
    5.6405   -2.5716    0.0000 O   0  0  0  0  0  0  0  0  0  0  0  0
    2.9180    1.0654    0.0000 N   0  0  0  0  0  0  0  0  0  0  0  0
    4.6660    4.1346    0.0000 N   0  0  0  0  0  0  0  0  0  0  0  0
    2.0080    0.5585    0.0000 C   0  0  0  0  0  0  0  0  0  0  0  0
    3.7841    0.5654    0.0000 C   0  0  0  0  0  0  0  0  0  0  0  0
    2.0000   -0.4831    0.0000 C   0  0  0  0  0  0  0  0  0  0  0  0
    3.8001   -0.4761    0.0000 C   0  0  0  0  0  0  0  0  0  0  0  0
    2.9021   -1.0039    0.0000 C   0  0  0  0  0  0  0  0  0  0  0  0
    4.6501    2.0654    0.0000 C   0  0  0  0  0  0  0  0  0  0  0  0
    4.6501    1.0654    0.0000 C   0  0  0  0  0  0  0  0  0  0  0  0
    2.9180    2.0654    0.0000 C   0  0  0  0  0  0  0  0  0  0  0  0
    3.7841    2.5654    0.0000 C   0  0  0  0  0  0  0  0  0  0  0  0
    5.5601    2.5722    0.0000 C   0  0  0  0  0  0  0  0  0  0  0  0
    2.8937   -2.0888    0.0000 C   0  0  0  0  0  0  0  0  0  0  0  0
    4.7520   -0.9967    0.0000 C   0  0  0  0  0  0  0  0  0  0  0  0
    6.4203    2.0623    0.0000 C   0  0  1  0  0  0  0  0  0  0  0  0
    3.8334   -2.6313    0.0000 C   0  0  0  0  0  0  0  0  0  0  0  0
    4.7688   -2.0816    0.0000 C   0  0  0  0  0  0  0  0  0  0  0  0
    3.7680    3.6069    0.0000 C   0  0  0  0  0  0  0  0  0  0  0  0
    5.5681    3.6138    0.0000 C   0  0  0  0  0  0  0  0  0  0  0  0
    6.4087    1.0623    0.0000 C   0  0  0  0  0  0  0  0  0  0  0  0
    2.9731   -4.1346    0.0000 C   0  0  0  0  0  0  0  0  0  0  0  0
    1.8035    1.1438    0.0000 H   0  0  0  0  0  0  0  0  0  0  0  0
    1.3964    0.4572    0.0000 H   0  0  0  0  0  0  0  0  0  0  0  0
    1.3900   -0.3723    0.0000 H   0  0  0  0  0  0  0  0  0  0  0  0
    1.7864   -1.0651    0.0000 H   0  0  0  0  0  0  0  0  0  0  0  0
    5.1870    0.7554    0.0000 H   0  0  0  0  0  0  0  0  0  0  0  0
    2.3556   -2.3968    0.0000 H   0  0  0  0  0  0  0  0  0  0  0  0
    5.2829   -0.6764    0.0000 H   0  0  0  0  0  0  0  0  0  0  0  0
    6.9536    1.7461    0.0000 H   0  0  0  0  0  0  0  0  0  0  0  0
    3.2275    3.9107    0.0000 H   0  0  0  0  0  0  0  0  0  0  0  0
    6.1062    3.9218    0.0000 H   0  0  0  0  0  0  0  0  0  0  0  0
    5.7888    1.0695    0.0000 H   0  0  0  0  0  0  0  0  0  0  0  0
    6.4015    0.4424    0.0000 H   0  0  0  0  0  0  0  0  0  0  0  0
    7.0287    1.0552    0.0000 H   0  0  0  0  0  0  0  0  0  0  0  0
    7.8253    2.2360    0.0000 H   0  0  0  0  0  0  0  0  0  0  0  0
    5.6477   -3.1915    0.0000 H   0  0  0  0  0  0  0  0  0  0  0  0
    2.6610   -3.5989    0.0000 H   0  0  0  0  0  0  0  0  0  0  0  0
    2.4374   -4.4467    0.0000 H   0  0  0  0  0  0  0  0  0  0  0  0
    3.2852   -4.6704    0.0000 H   0  0  0  0  0  0  0  0  0  0  0  0
  1 14  2  0  0  0  0
  2 20  1  0  0  0  0
  2 25  1  0  0  0  0
 19  3  1  6  0  0  0
  3 39  1  0  0  0  0
  4 21  1  0  0  0  0
  4 40  1  0  0  0  0
  5  7  1  0  0  0  0
  5  8  1  0  0  0  0
  5 14  1  0  0  0  0
  6 22  1  0  0  0  0
  6 23  2  0  0  0  0
  7  9  1  0  0  0  0
  7 26  1  0  0  0  0
  7 27  1  0  0  0  0
  8 10  1  0  0  0  0
  8 13  2  0  0  0  0
  9 11  1  0  0  0  0
  9 28  1  0  0  0  0
  9 29  1  0  0  0  0
 10 11  1  0  0  0  0
 10 18  2  0  0  0  0
 11 17  2  0  0  0  0
 12 13  1  0  0  0  0
 12 15  1  0  0  0  0
 12 16  2  0  0  0  0
 13 30  1  0  0  0  0
 14 15  1  0  0  0  0
 15 22  2  0  0  0  0
 16 19  1  0  0  0  0
 16 23  1  0  0  0  0
 17 20  1  0  0  0  0
 17 31  1  0  0  0  0
 18 21  1  0  0  0  0
 18 32  1  0  0  0  0
 19 24  1  0  0  0  0
 19 33  1  0  0  0  0
 20 21  2  0  0  0  0
 22 34  1  0  0  0  0
 23 35  1  0  0  0  0
 24 36  1  0  0  0  0
 24 37  1  0  0  0  0
 24 38  1  0  0  0  0
 25 41  1  0  0  0  0
 25 42  1  0  0  0  0
 25 43  1  0  0  0  0
M  END
> <PUBCHEM_COMPOUND_CID>
442157

> <PUBCHEM_COMPOUND_CANONICALIZED>
1

> <PUBCHEM_CACTVS_COMPLEXITY>
566

> <PUBCHEM_CACTVS_HBOND_ACCEPTOR>
5

> <PUBCHEM_CACTVS_HBOND_DONOR>
2

> <PUBCHEM_CACTVS_ROTATABLE_BOND>
2

> <PUBCHEM_CACTVS_SUBSKEYS>
AAADceB7OAAAAAAAAAAAAAAAAAAAAAAAAAA8WIEAAAAAAACxwAAAHgAACAAADBzhmgY+hpMIFgCoAjV3VACCiCA1IiAA2CEuzNgNNnrG9ZuEcatmxhHL+ce43bJOoAABAAAQQABAAAIAACCAAAAAAAAAAA==

> <PUBCHEM_IUPAC_OPENEYE_NAME>
2-hydroxy-12-[(1R)-1-hydroxyethyl]-3-methoxy-5,6-dihydroisoquinolino[2,1-b][2,7]naphthyridin-8-one

> <PUBCHEM_IUPAC_CAS_NAME>
2-hydroxy-12-[(1R)-1-hydroxyethyl]-3-methoxy-5,6-dihydroisoquinolino[2,1-b][2,7]naphthyridin-8-one

> <PUBCHEM_IUPAC_NAME>
2-hydroxy-12-[(1R)-1-hydroxyethyl]-3-methoxy-5,6-dihydroisoquinolino[2,1-b][2,7]naphthyridin-8-one

> <PUBCHEM_IUPAC_SYSTEMATIC_NAME>
3-methoxy-2-oxidanyl-12-[(1R)-1-oxidanylethyl]-5,6-dihydroisoquinolino[2,1-b][2,7]naphthyridin-8-one

> <PUBCHEM_IUPAC_TRADITIONAL_NAME>
2-hydroxy-12-[(1R)-1-hydroxyethyl]-3-methoxy-5,6-dihydroisoquinolino[2,1-b][2,7]naphthyridin-8-one

> <PUBCHEM_IUPAC_INCHI>
InChI=1S/C19H18N2O4/c1-10(22)14-8-20-9-15-13(14)6-16-12-7-17(23)18(25-2)5-11(12)3-4-21(16)19(15)24/h5-10,22-23H,3-4H2,1-2H3/t10-/m1/s1

> <PUBCHEM_IUPAC_INCHIKEY>
HDIPTJUHEOGXQC-SNVBAGLBSA-N

> <PUBCHEM_XLOGP3_AA>
1.2

> <PUBCHEM_EXACT_MASS>
338.126657

> <PUBCHEM_MOLECULAR_FORMULA>
C19H18N2O4

> <PUBCHEM_MOLECULAR_WEIGHT>
338.35722

> <PUBCHEM_OPENEYE_CAN_SMILES>
CC(C1=C2C=C3C4=CC(=C(C=C4CCN3C(=O)C2=CN=C1)OC)O)O

> <PUBCHEM_OPENEYE_ISO_SMILES>
C[C@H](C1=C2C=C3C4=CC(=C(C=C4CCN3C(=O)C2=CN=C1)OC)O)O

> <PUBCHEM_CACTVS_TPSA>
82.9

> <PUBCHEM_MONOISOTOPIC_WEIGHT>
338.126657

> <PUBCHEM_TOTAL_CHARGE>
0

> <PUBCHEM_HEAVY_ATOM_COUNT>
25

> <PUBCHEM_ATOM_DEF_STEREO_COUNT>
1

> <PUBCHEM_ATOM_UDEF_STEREO_COUNT>
0

> <PUBCHEM_BOND_DEF_STEREO_COUNT>
0

> <PUBCHEM_BOND_UDEF_STEREO_COUNT>
0

> <PUBCHEM_ISOTOPIC_ATOM_COUNT>
0

> <PUBCHEM_COMPONENT_COUNT>
1

> <PUBCHEM_CACTVS_TAUTO_COUNT>
3

> <PUBCHEM_COORDINATE_TYPE>
1
5
255

> <PUBCHEM_BONDANNOTATIONS>
10  11  8
10  18  8
11  17  8
12  13  8
12  15  8
12  16  8
14  15  8
15  22  8
16  23  8
17  20  8
18  21  8
20  21  8
19  3  6
5  14  8
5  8  8
6  22  8
6  23  8
8  13  8

$$$$

