439434
  -OEChem-07051212483D

 16 15  0     1  0  0  0  0  0999 V2000
   -1.7289   -1.1913   -0.5429 O   0  0  0  0  0  0  0  0  0  0  0  0
   -1.7780    0.6361    0.8004 O   0  0  0  0  0  0  0  0  0  0  0  0
    2.6216   -0.4511    0.1070 N   0  0  0  0  0  0  0  0  0  0  0  0
    0.2658    0.1236   -0.4272 C   0  0  2  0  0  0  0  0  0  0  0  0
    1.2279   -0.6486    0.4902 C   0  0  0  0  0  0  0  0  0  0  0  0
    0.5619    1.6221   -0.4529 C   0  0  0  0  0  0  0  0  0  0  0  0
   -1.1702   -0.0908    0.0255 C   0  0  0  0  0  0  0  0  0  0  0  0
    0.3493   -0.2475   -1.4572 H   0  0  0  0  0  0  0  0  0  0  0  0
    0.9918   -1.7187    0.4578 H   0  0  0  0  0  0  0  0  0  0  0  0
    1.0957   -0.3271    1.5300 H   0  0  0  0  0  0  0  0  0  0  0  0
   -0.1976    2.1592   -1.0324 H   0  0  0  0  0  0  0  0  0  0  0  0
    1.5334    1.8297   -0.9128 H   0  0  0  0  0  0  0  0  0  0  0  0
    0.5660    2.0468    0.5572 H   0  0  0  0  0  0  0  0  0  0  0  0
    2.7625   -0.7752   -0.8490 H   0  0  0  0  0  0  0  0  0  0  0  0
    3.2194   -1.0288    0.6964 H   0  0  0  0  0  0  0  0  0  0  0  0
   -2.6568   -1.3214   -0.2523 H   0  0  0  0  0  0  0  0  0  0  0  0
  1  7  1  0  0  0  0
  1 16  1  0  0  0  0
  2  7  2  0  0  0  0
  3  5  1  0  0  0  0
  3 14  1  0  0  0  0
  3 15  1  0  0  0  0
  4  5  1  0  0  0  0
  4  6  1  0  0  0  0
  4  7  1  0  0  0  0
  4  8  1  0  0  0  0
  5  9  1  0  0  0  0
  5 10  1  0  0  0  0
  6 11  1  0  0  0  0
  6 12  1  0  0  0  0
  6 13  1  0  0  0  0
M  END
> <PUBCHEM_COMPOUND_CID>
439434

> <PUBCHEM_CONFORMER_RMSD>
0.4

> <PUBCHEM_CONFORMER_DIVERSEORDER>
2
9
7
5
1
8
4
3
6

> <PUBCHEM_MMFF94_PARTIAL_CHARGES>
9
1 -0.65
14 0.36
15 0.36
16 0.5
2 -0.57
3 -0.99
4 0.06
5 0.27
7 0.66

> <PUBCHEM_EFFECTIVE_ROTOR_COUNT>
2

> <PUBCHEM_PHARMACOPHORE_FEATURES>
6
1 1 acceptor
1 2 acceptor
1 3 cation
1 3 donor
1 6 hydrophobe
3 1 2 7 anion

> <PUBCHEM_HEAVY_ATOM_COUNT>
7

> <PUBCHEM_ATOM_DEF_STEREO_COUNT>
1

> <PUBCHEM_ATOM_UDEF_STEREO_COUNT>
0

> <PUBCHEM_BOND_DEF_STEREO_COUNT>
0

> <PUBCHEM_BOND_UDEF_STEREO_COUNT>
0

> <PUBCHEM_ISOTOPIC_ATOM_COUNT>
0

> <PUBCHEM_COMPONENT_COUNT>
1

> <PUBCHEM_CACTVS_TAUTO_COUNT>
1

> <PUBCHEM_CONFORMER_ID>
0006B48A00000002

> <PUBCHEM_MMFF94_ENERGY>
3.3546

> <PUBCHEM_FEATURE_SELFOVERLAP>
30.505

> <PUBCHEM_SHAPE_FINGERPRINT>
139733 1 7492998583265765756
16714656 1 18266454493745224566
18185500 45 18412829083542399658
20096714 4 18266441140628857589
21040471 1 17751338780916298801
24536 1 17676474034818740253
29004967 10 17489579095537008304
5943 1 9915083576702151941

> <PUBCHEM_SHAPE_MULTIPOLES>
127.34
2.65
1.31
0.78
0.73
0.47
0.04
-0.76
0.24
0.07
-0.16
-0.18
0.01
-0.36

> <PUBCHEM_SHAPE_SELFOVERLAP>
232.047

> <PUBCHEM_SHAPE_VOLUME>
81.6

> <PUBCHEM_COORDINATE_TYPE>
2
5
10

$$$$

