439867
  -OEChem-07051212473D

 45 46  0     1  0  0  0  0  0999 V2000
   -0.1163   -0.9124   -0.8181 O   0  0  0  0  0  0  0  0  0  0  0  0
    1.3332    0.7551   -0.0683 O   0  0  0  0  0  0  0  0  0  0  0  0
   -3.4961   -0.6202    0.5925 O   0  0  0  0  0  0  0  0  0  0  0  0
   -0.8747    1.7840   -1.5260 O   0  0  0  0  0  0  0  0  0  0  0  0
    1.9797   -2.8012   -0.6012 O   0  0  0  0  0  0  0  0  0  0  0  0
    4.6273   -1.5471   -0.9145 O   0  0  0  0  0  0  0  0  0  0  0  0
    4.8806    0.7345    0.8421 O   0  0  0  0  0  0  0  0  0  0  0  0
   -2.9222    2.1359    0.3352 O   0  0  0  0  0  0  0  0  0  0  0  0
   -5.3150    0.7540    0.0336 O   0  0  0  0  0  0  0  0  0  0  0  0
   -2.8299   -3.0657    1.6307 O   0  0  0  0  0  0  0  0  0  0  0  0
    1.4228    3.1268    1.3185 O   0  0  0  0  0  0  0  0  0  0  0  0
   -1.2385   -0.2340   -0.2596 C   0  0  1  0  0  0  0  0  0  0  0  0
   -1.8124    0.7361   -1.2956 C   0  0  1  0  0  0  0  0  0  0  0  0
    1.0731   -0.6466   -0.0752 C   0  0  2  0  0  0  0  0  0  0  0  0
   -2.2971   -1.2664    0.1524 C   0  0  1  0  0  0  0  0  0  0  0  0
    2.2229   -1.4018   -0.7418 C   0  0  1  0  0  0  0  0  0  0  0  0
    3.5647   -1.0527   -0.0976 C   0  0  2  0  0  0  0  0  0  0  0  0
    3.7369    0.4603    0.0374 C   0  0  1  0  0  0  0  0  0  0  0  0
   -3.1428    1.3178   -0.8180 C   0  0  1  0  0  0  0  0  0  0  0  0
    2.5010    1.0920    0.6826 C   0  0  1  0  0  0  0  0  0  0  0  0
   -4.0922    0.1860   -0.4263 C   0  0  1  0  0  0  0  0  0  0  0  0
   -1.8049   -2.1481    1.2956 C   0  0  0  0  0  0  0  0  0  0  0  0
    2.5998    2.6137    0.7214 C   0  0  0  0  0  0  0  0  0  0  0  0
   -0.9520    0.3397    0.6332 H   0  0  0  0  0  0  0  0  0  0  0  0
   -1.9495    0.2182   -2.2521 H   0  0  0  0  0  0  0  0  0  0  0  0
    0.9260   -1.0037    0.9530 H   0  0  0  0  0  0  0  0  0  0  0  0
   -2.5503   -1.9197   -0.6937 H   0  0  0  0  0  0  0  0  0  0  0  0
    2.2517   -1.1914   -1.8175 H   0  0  0  0  0  0  0  0  0  0  0  0
    3.6659   -1.5486    0.8757 H   0  0  0  0  0  0  0  0  0  0  0  0
    3.9202    0.8960   -0.9524 H   0  0  0  0  0  0  0  0  0  0  0  0
    2.3674    0.7345    1.7127 H   0  0  0  0  0  0  0  0  0  0  0  0
   -3.5833    1.9697   -1.5792 H   0  0  0  0  0  0  0  0  0  0  0  0
   -4.3329   -0.4458   -1.2887 H   0  0  0  0  0  0  0  0  0  0  0  0
   -1.5787   -1.5577    2.1897 H   0  0  0  0  0  0  0  0  0  0  0  0
   -0.9159   -2.7190    1.0142 H   0  0  0  0  0  0  0  0  0  0  0  0
    2.6735    3.0358   -0.2863 H   0  0  0  0  0  0  0  0  0  0  0  0
    3.4591    2.9497    1.3086 H   0  0  0  0  0  0  0  0  0  0  0  0
   -0.8048    2.3035   -0.7073 H   0  0  0  0  0  0  0  0  0  0  0  0
    1.9460   -3.0077    0.3484 H   0  0  0  0  0  0  0  0  0  0  0  0
    5.4640   -1.2979   -0.4858 H   0  0  0  0  0  0  0  0  0  0  0  0
    4.7239    0.3580    1.7250 H   0  0  0  0  0  0  0  0  0  0  0  0
   -2.7330    1.5563    1.0922 H   0  0  0  0  0  0  0  0  0  0  0  0
   -5.1068    1.5742    0.5119 H   0  0  0  0  0  0  0  0  0  0  0  0
   -3.6164   -2.5504    1.8793 H   0  0  0  0  0  0  0  0  0  0  0  0
    0.6649    2.8024    0.8037 H   0  0  0  0  0  0  0  0  0  0  0  0
  1 12  1  0  0  0  0
  1 14  1  0  0  0  0
  2 14  1  0  0  0  0
  2 20  1  0  0  0  0
  3 15  1  0  0  0  0
  3 21  1  0  0  0  0
  4 13  1  0  0  0  0
  4 38  1  0  0  0  0
  5 16  1  0  0  0  0
  5 39  1  0  0  0  0
  6 17  1  0  0  0  0
  6 40  1  0  0  0  0
  7 18  1  0  0  0  0
  7 41  1  0  0  0  0
  8 19  1  0  0  0  0
  8 42  1  0  0  0  0
  9 21  1  0  0  0  0
  9 43  1  0  0  0  0
 10 22  1  0  0  0  0
 10 44  1  0  0  0  0
 11 23  1  0  0  0  0
 11 45  1  0  0  0  0
 12 13  1  0  0  0  0
 12 15  1  0  0  0  0
 12 24  1  0  0  0  0
 13 19  1  0  0  0  0
 13 25  1  0  0  0  0
 14 16  1  0  0  0  0
 14 26  1  0  0  0  0
 15 22  1  0  0  0  0
 15 27  1  0  0  0  0
 16 17  1  0  0  0  0
 16 28  1  0  0  0  0
 17 18  1  0  0  0  0
 17 29  1  0  0  0  0
 18 20  1  0  0  0  0
 18 30  1  0  0  0  0
 19 21  1  0  0  0  0
 19 32  1  0  0  0  0
 20 23  1  0  0  0  0
 20 31  1  0  0  0  0
 21 33  1  0  0  0  0
 22 34  1  0  0  0  0
 22 35  1  0  0  0  0
 23 36  1  0  0  0  0
 23 37  1  0  0  0  0
M  END
> <PUBCHEM_COMPOUND_CID>
439867

> <PUBCHEM_CONFORMER_RMSD>
0.8

> <PUBCHEM_CONFORMER_DIVERSEORDER>
1
62
42
47
57
39
33
27
37
15
43
65
54
70
67
78
77
41
68
31
30
56
71
3
16
53
44
2
64
28
11
59
21
25
73
72
76
69
38
63
9
55
14
29
5
61
8
50
48
6
75
13
17
52
40
20
32
7
58
74
22
35
51
79
60
19
45
4
66
12
36
18
23
46
49
24
34
10
26

> <PUBCHEM_MMFF94_PARTIAL_CHARGES>
31
1 -0.56
10 -0.68
11 -0.68
12 0.28
13 0.28
14 0.56
15 0.28
16 0.28
17 0.28
18 0.28
19 0.28
2 -0.56
20 0.28
21 0.56
22 0.28
23 0.28
3 -0.56
38 0.4
39 0.4
4 -0.68
40 0.4
41 0.4
42 0.4
43 0.4
44 0.4
45 0.4
5 -0.68
6 -0.68
7 -0.68
8 -0.68
9 -0.68

> <PUBCHEM_EFFECTIVE_ROTOR_COUNT>
6.4

> <PUBCHEM_PHARMACOPHORE_FEATURES>
21
1 1 acceptor
1 10 acceptor
1 10 donor
1 11 acceptor
1 11 donor
1 2 acceptor
1 3 acceptor
1 4 acceptor
1 4 donor
1 5 acceptor
1 5 donor
1 6 acceptor
1 6 donor
1 7 acceptor
1 7 donor
1 8 acceptor
1 8 donor
1 9 acceptor
1 9 donor
6 2 14 16 17 18 20 rings
6 3 12 13 15 19 21 rings

> <PUBCHEM_HEAVY_ATOM_COUNT>
23

> <PUBCHEM_ATOM_DEF_STEREO_COUNT>
10

> <PUBCHEM_ATOM_UDEF_STEREO_COUNT>
0

> <PUBCHEM_BOND_DEF_STEREO_COUNT>
0

> <PUBCHEM_BOND_UDEF_STEREO_COUNT>
0

> <PUBCHEM_ISOTOPIC_ATOM_COUNT>
0

> <PUBCHEM_COMPONENT_COUNT>
1

> <PUBCHEM_CACTVS_TAUTO_COUNT>
1

> <PUBCHEM_CONFORMER_ID>
0006B63B00000001

> <PUBCHEM_MMFF94_ENERGY>
65.1287

> <PUBCHEM_FEATURE_SELFOVERLAP>
106.697

> <PUBCHEM_SHAPE_FINGERPRINT>
10165383 225 17396406218312319224
10366900 7 18411421695800201583
10608611 8 18410295787240081620
11045977 3 18411698786010857301
11471102 20 18260552233939189838
12236239 1 16226052205785829279
12293681 4 18337386157859076960
12633257 1 18342750606128848416
12670545 47 18412822465045184911
12969540 114 17845113881935384663
13140716 1 18270124495992024568
13402501 40 18411983576354180302
13544592 145 18341609360472895567
14223421 5 18267864990848482011
14341114 176 18333728039734582621
14866123 147 16174817506442239810
15219456 202 18410013242990737118
15295992 7 18261395503333475193
15375358 24 18412546517644203726
17804303 29 18342171180744117807
19049666 15 18339923826174383726
200 152 17676493843392538735
20510252 161 18270120265818516277
20600515 1 17417535692050012061
20645477 70 17894630400676680062
20681677 76 18336830775458910027
21033648 29 18059027171606710109
221357 26 18262522614437016861
23175994 123 18187921836986966940
23402539 116 18343025493380386567
23557571 272 18057603174924992395
23558518 356 17906751202149782086
23559900 14 18343580715901308012
2748010 2 18268158565069910028
351380 180 18334581243720117045
3524813 1 18341619255882288933
49207404 50 18194121819900005584
495365 180 18114476586165402667
5104073 3 18338518650292812355
6049 1 18340198588248878226
6287921 2 18125435311460051148
81228 2 17917142793886440075
8809292 202 18342455975862644214
9709674 26 18410575050488340199

> <PUBCHEM_SHAPE_MULTIPOLES>
408.77
8.87
3.03
1.21
0
0.02
-0.09
-0.45
-0.48
0.39
-1.03
-0.26
0.08
2.27

> <PUBCHEM_SHAPE_SELFOVERLAP>
837.289

> <PUBCHEM_SHAPE_VOLUME>
230.2

> <PUBCHEM_COORDINATE_TYPE>
2
5
10

$$$$

