443065
  -OEChem-07051213012D

 19 19  0     1  0  0  0  0  0999 V2000
    2.8090    0.0380    0.0000 S   0  0  0  0  0  0  0  0  0  0  0  0
    5.7281   -0.9704    0.0000 O   0  0  0  0  0  0  0  0  0  0  0  0
    4.0339   -1.3305    0.0000 O   0  0  0  0  0  0  0  0  0  0  0  0
    3.6180    0.6258    0.0000 C   0  0  3  0  0  0  0  0  0  0  0  0
    3.3090    1.5768    0.0000 C   0  0  0  0  0  0  0  0  0  0  0  0
    2.3090    1.5768    0.0000 C   0  0  0  0  0  0  0  0  0  0  0  0
    2.0000    0.6258    0.0000 C   0  0  0  0  0  0  0  0  0  0  0  0
    4.5691    0.3168    0.0000 C   0  0  0  0  0  0  0  0  0  0  0  0
    4.7770   -0.6614    0.0000 C   0  0  0  0  0  0  0  0  0  0  0  0
    3.7510   -0.2137    0.0000 H   0  0  0  0  0  0  0  0  0  0  0  0
    3.9155    1.7058    0.0000 H   0  0  0  0  0  0  0  0  0  0  0  0
    3.2442    2.1934    0.0000 H   0  0  0  0  0  0  0  0  0  0  0  0
    2.3738    2.1934    0.0000 H   0  0  0  0  0  0  0  0  0  0  0  0
    1.7026    1.7058    0.0000 H   0  0  0  0  0  0  0  0  0  0  0  0
    1.4336    0.8780    0.0000 H   0  0  0  0  0  0  0  0  0  0  0  0
    1.6900    0.0889    0.0000 H   0  0  0  0  0  0  0  0  0  0  0  0
    5.1887    0.3384    0.0000 H   0  0  0  0  0  0  0  0  0  0  0  0
    4.6554    0.9307    0.0000 H   0  0  0  0  0  0  0  0  0  0  0  0
    5.8570   -1.5768    0.0000 H   0  0  0  0  0  0  0  0  0  0  0  0
  1  4  1  0  0  0  0
  1  7  1  0  0  0  0
  2  9  1  0  0  0  0
  2 19  1  0  0  0  0
  3  9  2  0  0  0  0
  4  5  1  0  0  0  0
  4  8  1  0  0  0  0
  4 10  1  0  0  0  0
  5  6  1  0  0  0  0
  5 11  1  0  0  0  0
  5 12  1  0  0  0  0
  6  7  1  0  0  0  0
  6 13  1  0  0  0  0
  6 14  1  0  0  0  0
  7 15  1  0  0  0  0
  7 16  1  0  0  0  0
  8  9  1  0  0  0  0
  8 17  1  0  0  0  0
  8 18  1  0  0  0  0
M  END
> <PUBCHEM_COMPOUND_CID>
443065

> <PUBCHEM_COMPOUND_CANONICALIZED>
1

> <PUBCHEM_CACTVS_COMPLEXITY>
114

> <PUBCHEM_CACTVS_HBOND_ACCEPTOR>
3

> <PUBCHEM_CACTVS_HBOND_DONOR>
1

> <PUBCHEM_CACTVS_ROTATABLE_BOND>
2

> <PUBCHEM_CACTVS_SUBSKEYS>
AAADccBgMABAAAAAAAAAAAAAAAAAASAAAAAAAAAAAAAAAAAAAAAAGgQACAAACACEwACACAAAAggIAACQCAAAAAAAABAAAAEAAAAAABIgAAAAQAAEAAAgAAGISAAAAAAAAAAAAAAAAAAAAAAAAAAAAAAAAA==

> <PUBCHEM_IUPAC_OPENEYE_NAME>
2-tetrahydrothiophen-2-ylacetic acid

> <PUBCHEM_IUPAC_CAS_NAME>
2-(2-thiolanyl)acetic acid

> <PUBCHEM_IUPAC_NAME>
2-(thiolan-2-yl)acetic acid

> <PUBCHEM_IUPAC_SYSTEMATIC_NAME>
2-(thiolan-2-yl)ethanoic acid

> <PUBCHEM_IUPAC_TRADITIONAL_NAME>
2-tetrahydrothiophen-2-ylacetic acid

> <PUBCHEM_IUPAC_INCHI>
InChI=1S/C6H10O2S/c7-6(8)4-5-2-1-3-9-5/h5H,1-4H2,(H,7,8)

> <PUBCHEM_IUPAC_INCHIKEY>
YNFYCBDMMKUYKX-UHFFFAOYSA-N

> <PUBCHEM_XLOGP3_AA>
0.9

> <PUBCHEM_EXACT_MASS>
146.040151

> <PUBCHEM_MOLECULAR_FORMULA>
C6H10O2S

> <PUBCHEM_MOLECULAR_WEIGHT>
146.2074

> <PUBCHEM_OPENEYE_CAN_SMILES>
C1CC(SC1)CC(=O)O

> <PUBCHEM_OPENEYE_ISO_SMILES>
C1CC(SC1)CC(=O)O

> <PUBCHEM_CACTVS_TPSA>
62.6

> <PUBCHEM_MONOISOTOPIC_WEIGHT>
146.040151

> <PUBCHEM_TOTAL_CHARGE>
0

> <PUBCHEM_HEAVY_ATOM_COUNT>
9

> <PUBCHEM_ATOM_DEF_STEREO_COUNT>
0

> <PUBCHEM_ATOM_UDEF_STEREO_COUNT>
1

> <PUBCHEM_BOND_DEF_STEREO_COUNT>
0

> <PUBCHEM_BOND_UDEF_STEREO_COUNT>
0

> <PUBCHEM_ISOTOPIC_ATOM_COUNT>
0

> <PUBCHEM_COMPONENT_COUNT>
1

> <PUBCHEM_CACTVS_TAUTO_COUNT>
1

> <PUBCHEM_COORDINATE_TYPE>
1
5
255

> <PUBCHEM_BONDANNOTATIONS>
4  10  3

$$$$

