161937
  -OEChem-07051212573D

 41 42  0     1  0  0  0  0  0999 V2000
   -3.3893    2.1432    0.1177 O   0  0  0  0  0  0  0  0  0  0  0  0
   -2.6616   -2.1256   -0.3494 O   0  0  0  0  0  0  0  0  0  0  0  0
   -0.3500   -0.0251   -0.7688 C   0  0  1  0  0  0  0  0  0  0  0  0
   -1.1759    1.2802   -0.4593 C   0  0  1  0  0  0  0  0  0  0  0  0
    1.1780    0.2770   -0.9509 C   0  0  0  0  0  0  0  0  0  0  0  0
   -0.6185   -1.0599    0.3335 C   0  0  0  0  0  0  0  0  0  0  0  0
   -2.6723    0.9522   -0.2022 C   0  0  1  0  0  0  0  0  0  0  0  0
    2.0340    0.0807    0.3084 C   0  0  1  0  0  0  0  0  0  0  0  0
   -2.0613   -1.3571    0.6884 C   0  0  1  0  0  0  0  0  0  0  0  0
   -2.8568   -0.0708    0.9237 C   0  0  0  0  0  0  0  0  0  0  0  0
   -0.8032   -0.5872   -2.1464 C   0  0  0  0  0  0  0  0  0  0  0  0
    1.8210   -1.3267    0.8709 C   0  0  0  0  0  0  0  0  0  0  0  0
    0.3695   -1.6466    1.0336 C   0  0  0  0  0  0  0  0  0  0  0  0
   -0.5982    2.1259    0.6914 C   0  0  0  0  0  0  0  0  0  0  0  0
    3.4855    0.3216    0.0136 C   0  0  0  0  0  0  0  0  0  0  0  0
    4.1390    1.4366    0.7748 C   0  0  0  0  0  0  0  0  0  0  0  0
    4.1600   -0.4184   -0.8789 C   0  0  0  0  0  0  0  0  0  0  0  0
   -1.1376    1.9309   -1.3450 H   0  0  0  0  0  0  0  0  0  0  0  0
    1.3118    1.2930   -1.3464 H   0  0  0  0  0  0  0  0  0  0  0  0
    1.5691   -0.3834   -1.7377 H   0  0  0  0  0  0  0  0  0  0  0  0
   -3.1345    0.5613   -1.1143 H   0  0  0  0  0  0  0  0  0  0  0  0
    1.7119    0.7961    1.0737 H   0  0  0  0  0  0  0  0  0  0  0  0
   -2.1203   -1.9672    1.5978 H   0  0  0  0  0  0  0  0  0  0  0  0
   -3.9267   -0.2977    1.0161 H   0  0  0  0  0  0  0  0  0  0  0  0
   -2.5663    0.3802    1.8811 H   0  0  0  0  0  0  0  0  0  0  0  0
   -0.5393    0.1080   -2.9528 H   0  0  0  0  0  0  0  0  0  0  0  0
   -0.3147   -1.5456   -2.3611 H   0  0  0  0  0  0  0  0  0  0  0  0
   -1.8791   -0.7566   -2.2221 H   0  0  0  0  0  0  0  0  0  0  0  0
    2.3061   -1.3945    1.8533 H   0  0  0  0  0  0  0  0  0  0  0  0
    2.2696   -2.1064    0.2441 H   0  0  0  0  0  0  0  0  0  0  0  0
    0.1267   -2.3802    1.7985 H   0  0  0  0  0  0  0  0  0  0  0  0
   -1.2241    2.9997    0.9001 H   0  0  0  0  0  0  0  0  0  0  0  0
   -0.5085    1.5532    1.6190 H   0  0  0  0  0  0  0  0  0  0  0  0
    0.3886    2.5210    0.4325 H   0  0  0  0  0  0  0  0  0  0  0  0
   -3.2736    2.7616   -0.6238 H   0  0  0  0  0  0  0  0  0  0  0  0
   -3.5822   -2.3021   -0.0911 H   0  0  0  0  0  0  0  0  0  0  0  0
    3.6340    2.3856    0.5665 H   0  0  0  0  0  0  0  0  0  0  0  0
    4.0884    1.2429    1.8512 H   0  0  0  0  0  0  0  0  0  0  0  0
    5.1943    1.5556    0.5073 H   0  0  0  0  0  0  0  0  0  0  0  0
    5.2100   -0.2305   -1.0798 H   0  0  0  0  0  0  0  0  0  0  0  0
    3.6972   -1.2282   -1.4318 H   0  0  0  0  0  0  0  0  0  0  0  0
  1  7  1  0  0  0  0
  1 35  1  0  0  0  0
  2  9  1  0  0  0  0
  2 36  1  0  0  0  0
  3  4  1  0  0  0  0
  3  5  1  0  0  0  0
  3  6  1  0  0  0  0
  3 11  1  0  0  0  0
  4  7  1  0  0  0  0
  4 14  1  0  0  0  0
  4 18  1  0  0  0  0
  5  8  1  0  0  0  0
  5 19  1  0  0  0  0
  5 20  1  0  0  0  0
  6  9  1  0  0  0  0
  6 13  2  0  0  0  0
  7 10  1  0  0  0  0
  7 21  1  0  0  0  0
  8 12  1  0  0  0  0
  8 15  1  0  0  0  0
  8 22  1  0  0  0  0
  9 10  1  0  0  0  0
  9 23  1  0  0  0  0
 10 24  1  0  0  0  0
 10 25  1  0  0  0  0
 11 26  1  0  0  0  0
 11 27  1  0  0  0  0
 11 28  1  0  0  0  0
 12 13  1  0  0  0  0
 12 29  1  0  0  0  0
 12 30  1  0  0  0  0
 13 31  1  0  0  0  0
 14 32  1  0  0  0  0
 14 33  1  0  0  0  0
 14 34  1  0  0  0  0
 15 16  1  0  0  0  0
 15 17  2  0  0  0  0
 16 37  1  0  0  0  0
 16 38  1  0  0  0  0
 16 39  1  0  0  0  0
 17 40  1  0  0  0  0
 17 41  1  0  0  0  0
M  END
> <PUBCHEM_COMPOUND_CID>
161937

> <PUBCHEM_CONFORMER_RMSD>
0.6

> <PUBCHEM_CONFORMER_DIVERSEORDER>
1
2

> <PUBCHEM_MMFF94_PARTIAL_CHARGES>
17
1 -0.68
12 0.14
13 -0.29
15 -0.28
16 0.14
17 -0.3
2 -0.68
3 0.14
31 0.15
35 0.4
36 0.4
40 0.15
41 0.15
6 -0.28
7 0.28
8 0.14
9 0.42

> <PUBCHEM_EFFECTIVE_ROTOR_COUNT>
2.4

> <PUBCHEM_PHARMACOPHORE_FEATURES>
6
1 1 acceptor
1 1 donor
1 2 acceptor
1 2 donor
6 3 4 6 7 9 10 rings
6 3 5 6 8 12 13 rings

> <PUBCHEM_HEAVY_ATOM_COUNT>
17

> <PUBCHEM_ATOM_DEF_STEREO_COUNT>
5

> <PUBCHEM_ATOM_UDEF_STEREO_COUNT>
0

> <PUBCHEM_BOND_DEF_STEREO_COUNT>
0

> <PUBCHEM_BOND_UDEF_STEREO_COUNT>
0

> <PUBCHEM_ISOTOPIC_ATOM_COUNT>
0

> <PUBCHEM_COMPONENT_COUNT>
1

> <PUBCHEM_CACTVS_TAUTO_COUNT>
1

> <PUBCHEM_CONFORMER_ID>
0002789100000001

> <PUBCHEM_MMFF94_ENERGY>
44.8629

> <PUBCHEM_FEATURE_SELFOVERLAP>
30.473

> <PUBCHEM_SHAPE_FINGERPRINT>
10863032 1 18341051916593493515
10948715 1 18336265764116235545
11132069 177 18343021069004642296
12119455 92 17531242910996579733
12173636 292 18411705391380596662
12382932 28 18272369801693592337
12403814 3 17531528659402569758
12423570 1 8395208789472072319
12491281 212 18270958050280478123
13024252 1 18060140920776096191
13132413 78 18343294860390550405
13140716 1 17554037745704030970
13214271 11 18334581196343608028
13296909 8 18342174436482276319
13380535 21 18200590418668479858
13538477 17 18341057418557252378
13764800 53 18412543236378665760
14614273 12 17632312171526810711
14787075 74 18122906426046850440
14817 1 5437143200987177943
15076042 46 18122066660976613643
15209294 21 18272092703663161152
15219456 202 18188197810153003382
15775835 57 18272083958751043776
16945 1 17845929628493291155
18186145 218 18342742927344553124
19026448 4 18040992921736682374
19786989 88 16878216477314645172
19868273 325 18335987467135573669
200 152 18199764556386677743
20510252 161 18338794524853675808
20525323 117 18273219676921586978
21501502 16 18200882871602893202
22344851 262 17489578000394285325
22802520 49 18187355588994430358
2306618 200 17417551141015558204
23236772 104 17988924483113798715
23388829 49 18129942269651301679
23402539 116 18410300186088381028
23419403 2 17551540754670400239
23493267 7 18187922949272733265
23557571 272 18260817177275762582
23559900 14 18335983151642961512
2748010 2 17056694899429350526
7364860 26 18124033696212057074
90316 7 16630539422647321644

> <PUBCHEM_SHAPE_MULTIPOLES>
338.11
6.15
2.05
1.32
4.85
0.3
-0.53
1.54
0.5
-1.22
0.5
-0.01
-0.23
0.15

> <PUBCHEM_SHAPE_SELFOVERLAP>
695.338

> <PUBCHEM_SHAPE_VOLUME>
193.4

> <PUBCHEM_COORDINATE_TYPE>
2
5
10

$$$$

