5281496
  -OEChem-07051212573D

 44 46  0     1  0  0  0  0  0999 V2000
   -3.2589   -2.1490    0.7463 O   0  0  0  0  0  0  0  0  0  0  0  0
    1.3892   -2.7842   -0.0809 O   0  0  0  0  0  0  0  0  0  0  0  0
    1.5838    1.9397    0.5731 O   0  0  0  0  0  0  0  0  0  0  0  0
    3.6590   -3.0446   -0.2931 O   0  0  0  0  0  0  0  0  0  0  0  0
    0.4573    3.5628   -0.6240 O   0  0  0  0  0  0  0  0  0  0  0  0
   -2.0544   -1.6394    0.1458 C   0  0  1  0  0  0  0  0  0  0  0  0
   -2.9725   -0.7679    0.9675 C   0  0  1  0  0  0  0  0  0  0  0  0
   -0.7650   -2.1268    0.7241 C   0  0  0  0  0  0  0  0  0  0  0  0
    0.4583   -1.6749   -0.0991 C   0  0  1  0  0  0  0  0  0  0  0  0
   -3.8089    0.2428    0.2470 C   0  0  0  0  0  0  0  0  0  0  0  0
    1.2516   -0.4724    0.4437 C   0  0  2  0  0  0  0  0  0  0  0  0
   -2.2012   -1.7706   -1.3400 C   0  0  0  0  0  0  0  0  0  0  0  0
   -3.0723    1.5908    0.1384 C   0  0  0  0  0  0  0  0  0  0  0  0
    0.7873    0.9230   -0.0479 C   0  0  1  0  0  0  0  0  0  0  0  0
    2.6299   -0.8769   -0.0021 C   0  0  0  0  0  0  0  0  0  0  0  0
   -1.6936    1.4479   -0.4857 C   0  0  0  0  0  0  0  0  0  0  0  0
   -0.6339    1.2331    0.3199 C   0  0  0  0  0  0  0  0  0  0  0  0
    2.6728   -2.3445   -0.1520 C   0  0  0  0  0  0  0  0  0  0  0  0
   -1.6588    1.4818   -1.9859 C   0  0  0  0  0  0  0  0  0  0  0  0
    3.7147   -0.1531   -0.2947 C   0  0  0  0  0  0  0  0  0  0  0  0
    1.3059    3.2164    0.1864 C   0  0  0  0  0  0  0  0  0  0  0  0
    2.2096    4.1659    0.9131 C   0  0  0  0  0  0  0  0  0  0  0  0
   -2.6974   -0.4737    1.9711 H   0  0  0  0  0  0  0  0  0  0  0  0
   -0.8029   -3.2240    0.7503 H   0  0  0  0  0  0  0  0  0  0  0  0
   -0.6566   -1.8105    1.7684 H   0  0  0  0  0  0  0  0  0  0  0  0
    0.2346   -1.5249   -1.1578 H   0  0  0  0  0  0  0  0  0  0  0  0
   -4.7279    0.4000    0.8250 H   0  0  0  0  0  0  0  0  0  0  0  0
   -4.1386   -0.0844   -0.7423 H   0  0  0  0  0  0  0  0  0  0  0  0
    1.2630   -0.4896    1.5427 H   0  0  0  0  0  0  0  0  0  0  0  0
   -1.6134   -1.0495   -1.9006 H   0  0  0  0  0  0  0  0  0  0  0  0
   -1.8627   -2.7667   -1.6521 H   0  0  0  0  0  0  0  0  0  0  0  0
   -3.2374   -1.6985   -1.6849 H   0  0  0  0  0  0  0  0  0  0  0  0
   -2.9809    2.0280    1.1419 H   0  0  0  0  0  0  0  0  0  0  0  0
   -3.6751    2.3010   -0.4403 H   0  0  0  0  0  0  0  0  0  0  0  0
    0.9543    0.9832   -1.1293 H   0  0  0  0  0  0  0  0  0  0  0  0
   -0.8158    1.2287    1.3956 H   0  0  0  0  0  0  0  0  0  0  0  0
   -2.4967    0.9240   -2.4151 H   0  0  0  0  0  0  0  0  0  0  0  0
   -0.7383    1.0737   -2.4089 H   0  0  0  0  0  0  0  0  0  0  0  0
   -1.7518    2.5182   -2.3279 H   0  0  0  0  0  0  0  0  0  0  0  0
    3.7231    0.9267   -0.2141 H   0  0  0  0  0  0  0  0  0  0  0  0
    4.6380   -0.6181   -0.6255 H   0  0  0  0  0  0  0  0  0  0  0  0
    3.2520    3.9435    0.6716 H   0  0  0  0  0  0  0  0  0  0  0  0
    2.0385    4.0897    1.9898 H   0  0  0  0  0  0  0  0  0  0  0  0
    1.9898    5.1896    0.5966 H   0  0  0  0  0  0  0  0  0  0  0  0
  1  6  1  0  0  0  0
  1  7  1  0  0  0  0
  2  9  1  0  0  0  0
  2 18  1  0  0  0  0
  3 14  1  0  0  0  0
  3 21  1  0  0  0  0
  4 18  2  0  0  0  0
  5 21  2  0  0  0  0
  6  7  1  0  0  0  0
  6  8  1  0  0  0  0
  6 12  1  0  0  0  0
  7 10  1  0  0  0  0
  7 23  1  0  0  0  0
  8  9  1  0  0  0  0
  8 24  1  0  0  0  0
  8 25  1  0  0  0  0
  9 11  1  0  0  0  0
  9 26  1  0  0  0  0
 10 13  1  0  0  0  0
 10 27  1  0  0  0  0
 10 28  1  0  0  0  0
 11 14  1  0  0  0  0
 11 15  1  0  0  0  0
 11 29  1  0  0  0  0
 12 30  1  0  0  0  0
 12 31  1  0  0  0  0
 12 32  1  0  0  0  0
 13 16  1  0  0  0  0
 13 33  1  0  0  0  0
 13 34  1  0  0  0  0
 14 17  1  0  0  0  0
 14 35  1  0  0  0  0
 15 18  1  0  0  0  0
 15 20  2  0  0  0  0
 16 17  2  0  0  0  0
 16 19  1  0  0  0  0
 17 36  1  0  0  0  0
 19 37  1  0  0  0  0
 19 38  1  0  0  0  0
 19 39  1  0  0  0  0
 20 40  1  0  0  0  0
 20 41  1  0  0  0  0
 21 22  1  0  0  0  0
 22 42  1  0  0  0  0
 22 43  1  0  0  0  0
 22 44  1  0  0  0  0
M  END
> <PUBCHEM_COMPOUND_CID>
5281496

> <PUBCHEM_CONFORMER_RMSD>
0.6

> <PUBCHEM_CONFORMER_DIVERSEORDER>
2
3
1

> <PUBCHEM_MMFF94_PARTIAL_CHARGES>
26
1 -0.3
10 0.09
11 0.14
12 0.09
13 0.14
14 0.42
15 -0.12
16 -0.28
17 -0.29
18 0.71
19 0.14
2 -0.43
20 -0.3
21 0.66
22 0.06
23 0.1
3 -0.43
36 0.15
4 -0.57
40 0.15
41 0.15
5 -0.57
6 -0.04
7 -0.05
8 0.09
9 0.28

> <PUBCHEM_EFFECTIVE_ROTOR_COUNT>
3.2

> <PUBCHEM_PHARMACOPHORE_FEATURES>
4
1 1 acceptor
1 4 acceptor
1 5 acceptor
5 2 9 11 15 18 rings

> <PUBCHEM_HEAVY_ATOM_COUNT>
22

> <PUBCHEM_ATOM_DEF_STEREO_COUNT>
5

> <PUBCHEM_ATOM_UDEF_STEREO_COUNT>
0

> <PUBCHEM_BOND_DEF_STEREO_COUNT>
1

> <PUBCHEM_BOND_UDEF_STEREO_COUNT>
0

> <PUBCHEM_ISOTOPIC_ATOM_COUNT>
0

> <PUBCHEM_COMPONENT_COUNT>
1

> <PUBCHEM_CACTVS_TAUTO_COUNT>
1

> <PUBCHEM_CONFORMER_ID>
005096D800000002

> <PUBCHEM_MMFF94_ENERGY>
58.8664

> <PUBCHEM_FEATURE_SELFOVERLAP>
20.297

> <PUBCHEM_SHAPE_FINGERPRINT>
10967382 1 18411135874316548210
11370993 70 17831865642271650089
11578080 2 17314254209983248859
11680986 33 18410858750479480993
12011746 2 18197779015155429951
12054548 360 18411695530272679166
12553582 1 18265057014403173620
12788726 201 17545328939275617008
13027679 85 18267020737949416773
13132413 78 18408597067719070902
13140716 1 17907861700124735434
138480 1 18410289211750789512
14223421 5 18268710498453172993
14790565 3 18195233417988577020
14863182 85 17550369749312666967
15196674 1 18339637966368438307
16945 1 18338238146042305699
17357779 13 18342751701920924463
19591789 44 18122620553340262988
20028762 73 16243197637859915886
20510252 161 17616255118668577376
21141583 151 18267302225731745562
2334 1 18411702114468522050
23419403 2 18057627398355828319
23559900 14 18337677408171225817
238 59 17980240523218996565
2748010 2 18337401529599964778
3091708 16 9573484577096625954
350125 39 18267298721059927368
3524813 1 17771627025317042359
352729 6 17330555856891504984
484989 97 15529413325039425406
6287921 2 18124020235541360607
7364860 26 18337106748535093872
9862522 239 17690871985029448120
9981440 41 17761220916226999027

> <PUBCHEM_SHAPE_MULTIPOLES>
423.4
5.74
4.7
1.07
0.51
2.77
0.37
-1.79
-0.37
-3.77
-0.27
0.61
0.25
0.99

> <PUBCHEM_SHAPE_SELFOVERLAP>
889.691

> <PUBCHEM_SHAPE_VOLUME>
238.9

> <PUBCHEM_COORDINATE_TYPE>
2
5
10

$$$$

