16942
  -OEChem-07051212463D

 24 23  0     1  0  0  0  0  0999 V2000
    1.4111    1.2666    0.0555 O   0  0  0  0  0  0  0  0  0  0  0  0
   -1.1060   -0.0783    0.0138 N   0  3  0  0  0  0  0  0  0  0  0  0
    0.1869   -0.7661    0.4281 C   0  0  0  0  0  0  0  0  0  0  0  0
    1.3917   -0.1251   -0.2529 C   0  0  2  0  0  0  0  0  0  0  0  0
   -1.2529   -0.1433   -1.4996 C   0  0  0  0  0  0  0  0  0  0  0  0
   -2.2865   -0.7808    0.6688 C   0  0  0  0  0  0  0  0  0  0  0  0
   -1.0716    1.3770    0.4580 C   0  0  0  0  0  0  0  0  0  0  0  0
    2.7273   -0.7501    0.1283 C   0  0  0  0  0  0  0  0  0  0  0  0
    0.2574   -0.6826    1.5196 H   0  0  0  0  0  0  0  0  0  0  0  0
    0.1034   -1.8261    0.1607 H   0  0  0  0  0  0  0  0  0  0  0  0
    1.3183   -0.2136   -1.3404 H   0  0  0  0  0  0  0  0  0  0  0  0
   -1.1186   -1.1804   -1.8207 H   0  0  0  0  0  0  0  0  0  0  0  0
   -2.2618    0.1975   -1.7545 H   0  0  0  0  0  0  0  0  0  0  0  0
   -0.5301    0.5189   -1.9823 H   0  0  0  0  0  0  0  0  0  0  0  0
   -2.1699   -0.7104    1.7543 H   0  0  0  0  0  0  0  0  0  0  0  0
   -3.2105   -0.2887    0.3506 H   0  0  0  0  0  0  0  0  0  0  0  0
   -2.2861   -1.8273    0.3495 H   0  0  0  0  0  0  0  0  0  0  0  0
   -0.6199    1.4534    1.4514 H   0  0  0  0  0  0  0  0  0  0  0  0
   -0.6028    2.0101   -0.2990 H   0  0  0  0  0  0  0  0  0  0  0  0
   -2.1107    1.7193    0.5318 H   0  0  0  0  0  0  0  0  0  0  0  0
    2.9065   -0.6605    1.2052 H   0  0  0  0  0  0  0  0  0  0  0  0
    3.5511   -0.2312   -0.3732 H   0  0  0  0  0  0  0  0  0  0  0  0
    2.7598   -1.8094   -0.1438 H   0  0  0  0  0  0  0  0  0  0  0  0
    1.6662    1.3606    0.9895 H   0  0  0  0  0  0  0  0  0  0  0  0
  1  4  1  0  0  0  0
  1 24  1  0  0  0  0
  2  3  1  0  0  0  0
  2  5  1  0  0  0  0
  2  6  1  0  0  0  0
  2  7  1  0  0  0  0
  3  4  1  0  0  0  0
  3  9  1  0  0  0  0
  3 10  1  0  0  0  0
  4  8  1  0  0  0  0
  4 11  1  0  0  0  0
  5 12  1  0  0  0  0
  5 13  1  0  0  0  0
  5 14  1  0  0  0  0
  6 15  1  0  0  0  0
  6 16  1  0  0  0  0
  6 17  1  0  0  0  0
  7 18  1  0  0  0  0
  7 19  1  0  0  0  0
  7 20  1  0  0  0  0
  8 21  1  0  0  0  0
  8 22  1  0  0  0  0
  8 23  1  0  0  0  0
M  CHG  1   2   1
M  END
> <PUBCHEM_COMPOUND_CID>
16942

> <PUBCHEM_CONFORMER_RMSD>
0.4

> <PUBCHEM_CONFORMER_DIVERSEORDER>
1
3
2

> <PUBCHEM_MMFF94_PARTIAL_CHARGES>
8
1 -0.68
2 -1.01
24 0.4
3 0.5
4 0.28
5 0.5
6 0.5
7 0.5

> <PUBCHEM_EFFECTIVE_ROTOR_COUNT>
2

> <PUBCHEM_PHARMACOPHORE_FEATURES>
3
1 1 acceptor
1 1 donor
1 2 cation

> <PUBCHEM_HEAVY_ATOM_COUNT>
8

> <PUBCHEM_ATOM_DEF_STEREO_COUNT>
0

> <PUBCHEM_ATOM_UDEF_STEREO_COUNT>
1

> <PUBCHEM_BOND_DEF_STEREO_COUNT>
0

> <PUBCHEM_BOND_UDEF_STEREO_COUNT>
0

> <PUBCHEM_ISOTOPIC_ATOM_COUNT>
0

> <PUBCHEM_COMPONENT_COUNT>
1

> <PUBCHEM_CACTVS_TAUTO_COUNT>
1

> <PUBCHEM_CONFORMER_ID>
0000422E00000001

> <PUBCHEM_MMFF94_ENERGY>
31.3737

> <PUBCHEM_FEATURE_SELFOVERLAP>
15.223

> <PUBCHEM_SHAPE_FINGERPRINT>
12932764 1 17386011697666050946
15310529 11 18260258655596965406
16714656 1 17530963596504385391
21040471 1 17905317786336122832
23235687 12 16877946009969738324
23552423 10 18202275896942259290
24536 1 18340497715488395456
29004967 10 18335416893926633274
369184 2 15213307455757776118
5084963 1 17561360677765061866

> <PUBCHEM_SHAPE_MULTIPOLES>
153.79
3.23
1.24
1.02
1.39
0.39
-0.39
-0.76
0.3
-0.1
0.23
-0.51
-0.08
0.01

> <PUBCHEM_SHAPE_SELFOVERLAP>
273.349

> <PUBCHEM_SHAPE_VOLUME>
102.9

> <PUBCHEM_COORDINATE_TYPE>
2
5
10

$$$$

