2662
  -OEChem-07051212532D

 40 42  0     0  0  0  0  0  0999 V2000
    3.8968   -2.9234    0.0000 S   0  0  0  0  0  0  0  0  0  0  0  0
    2.2212    4.2334    0.0000 F   0  0  0  0  0  0  0  0  0  0  0  0
    3.6180    4.0122    0.0000 F   0  0  0  0  0  0  0  0  0  0  0  0
    2.0000    2.8366    0.0000 F   0  0  0  0  0  0  0  0  0  0  0  0
    2.8968   -2.9234    0.0000 O   0  0  0  0  0  0  0  0  0  0  0  0
    4.8968   -2.9234    0.0000 O   0  0  0  0  0  0  0  0  0  0  0  0
    3.8968    1.0766    0.0000 N   0  0  0  0  0  0  0  0  0  0  0  0
    3.0878    1.6644    0.0000 N   0  0  0  0  0  0  0  0  0  0  0  0
    3.8968   -3.9234    0.0000 N   0  0  0  0  0  0  0  0  0  0  0  0
    4.7058    1.6644    0.0000 C   0  0  0  0  0  0  0  0  0  0  0  0
    3.8968    0.0766    0.0000 C   0  0  0  0  0  0  0  0  0  0  0  0
    5.6569    1.3553    0.0000 C   0  0  0  0  0  0  0  0  0  0  0  0
    4.3968    2.6154    0.0000 C   0  0  0  0  0  0  0  0  0  0  0  0
    3.3968    2.6154    0.0000 C   0  0  0  0  0  0  0  0  0  0  0  0
    3.0308   -0.4234    0.0000 C   0  0  0  0  0  0  0  0  0  0  0  0
    4.7628   -0.4234    0.0000 C   0  0  0  0  0  0  0  0  0  0  0  0
    3.8968   -1.9234    0.0000 C   0  0  0  0  0  0  0  0  0  0  0  0
    5.8648    0.3772    0.0000 C   0  0  0  0  0  0  0  0  0  0  0  0
    6.4000    2.0245    0.0000 C   0  0  0  0  0  0  0  0  0  0  0  0
    3.0308   -1.4234    0.0000 C   0  0  0  0  0  0  0  0  0  0  0  0
    4.7628   -1.4234    0.0000 C   0  0  0  0  0  0  0  0  0  0  0  0
    7.5590    0.7373    0.0000 C   0  0  0  0  0  0  0  0  0  0  0  0
    6.8158    0.0682    0.0000 C   0  0  0  0  0  0  0  0  0  0  0  0
    7.3511    1.7154    0.0000 C   0  0  0  0  0  0  0  0  0  0  0  0
    2.8090    3.4244    0.0000 C   0  0  0  0  0  0  0  0  0  0  0  0
    8.5100    0.4283    0.0000 C   0  0  0  0  0  0  0  0  0  0  0  0
    4.7612    3.1170    0.0000 H   0  0  0  0  0  0  0  0  0  0  0  0
    2.4938   -0.1134    0.0000 H   0  0  0  0  0  0  0  0  0  0  0  0
    5.2998   -0.1134    0.0000 H   0  0  0  0  0  0  0  0  0  0  0  0
    5.4040   -0.0377    0.0000 H   0  0  0  0  0  0  0  0  0  0  0  0
    6.2711    2.6309    0.0000 H   0  0  0  0  0  0  0  0  0  0  0  0
    2.4938   -1.7334    0.0000 H   0  0  0  0  0  0  0  0  0  0  0  0
    5.2998   -1.7334    0.0000 H   0  0  0  0  0  0  0  0  0  0  0  0
    6.9448   -0.5383    0.0000 H   0  0  0  0  0  0  0  0  0  0  0  0
    7.8118    2.1303    0.0000 H   0  0  0  0  0  0  0  0  0  0  0  0
    8.3184   -0.1614    0.0000 H   0  0  0  0  0  0  0  0  0  0  0  0
    9.0997    0.2367    0.0000 H   0  0  0  0  0  0  0  0  0  0  0  0
    8.7016    1.0179    0.0000 H   0  0  0  0  0  0  0  0  0  0  0  0
    3.3599   -4.2334    0.0000 H   0  0  0  0  0  0  0  0  0  0  0  0
    4.4337   -4.2334    0.0000 H   0  0  0  0  0  0  0  0  0  0  0  0
  1  5  2  0  0  0  0
  1  6  2  0  0  0  0
  1  9  1  0  0  0  0
  1 17  1  0  0  0  0
  2 25  1  0  0  0  0
  3 25  1  0  0  0  0
  4 25  1  0  0  0  0
  7  8  1  0  0  0  0
  7 10  1  0  0  0  0
  7 11  1  0  0  0  0
  8 14  2  0  0  0  0
  9 39  1  0  0  0  0
  9 40  1  0  0  0  0
 10 12  1  0  0  0  0
 10 13  2  0  0  0  0
 11 15  2  0  0  0  0
 11 16  1  0  0  0  0
 12 18  2  0  0  0  0
 12 19  1  0  0  0  0
 13 14  1  0  0  0  0
 13 27  1  0  0  0  0
 14 25  1  0  0  0  0
 15 20  1  0  0  0  0
 15 28  1  0  0  0  0
 16 21  2  0  0  0  0
 16 29  1  0  0  0  0
 17 20  2  0  0  0  0
 17 21  1  0  0  0  0
 18 23  1  0  0  0  0
 18 30  1  0  0  0  0
 19 24  2  0  0  0  0
 19 31  1  0  0  0  0
 20 32  1  0  0  0  0
 21 33  1  0  0  0  0
 22 23  2  0  0  0  0
 22 24  1  0  0  0  0
 22 26  1  0  0  0  0
 23 34  1  0  0  0  0
 24 35  1  0  0  0  0
 26 36  1  0  0  0  0
 26 37  1  0  0  0  0
 26 38  1  0  0  0  0
M  END
> <PUBCHEM_COMPOUND_CID>
2662

> <PUBCHEM_COMPOUND_CANONICALIZED>
1

> <PUBCHEM_CACTVS_COMPLEXITY>
577

> <PUBCHEM_CACTVS_HBOND_ACCEPTOR>
7

> <PUBCHEM_CACTVS_HBOND_DONOR>
1

> <PUBCHEM_CACTVS_ROTATABLE_BOND>
3

> <PUBCHEM_CACTVS_SUBSKEYS>
AAADccB7MYBAAAAAAAAAAAAAAAAAAWAAAAAwYAAAAAAAAAAB0AAAHQQYQAAADAiBXhAywZIIAAKiAyRiRHDSBDAhAgAYmDgwZJgIIOLA0dGEpAhgiADIyAcQgMAOQAQAAAAAAACACAAAAAAAAAAAAAAAAA==

> <PUBCHEM_IUPAC_OPENEYE_NAME>
4-[5-(p-tolyl)-3-(trifluoromethyl)pyrazol-1-yl]benzenesulfonamide

> <PUBCHEM_IUPAC_CAS_NAME>
4-[5-(4-methylphenyl)-3-(trifluoromethyl)-1-pyrazolyl]benzenesulfonamide

> <PUBCHEM_IUPAC_NAME>
4-[5-(4-methylphenyl)-3-(trifluoromethyl)pyrazol-1-yl]benzenesulfonamide

> <PUBCHEM_IUPAC_SYSTEMATIC_NAME>
4-[5-(4-methylphenyl)-3-(trifluoromethyl)pyrazol-1-yl]benzenesulfonamide

> <PUBCHEM_IUPAC_TRADITIONAL_NAME>
4-[5-(p-tolyl)-3-(trifluoromethyl)pyrazol-1-yl]benzenesulfonamide

> <PUBCHEM_IUPAC_INCHI>
InChI=1S/C17H14F3N3O2S/c1-11-2-4-12(5-3-11)15-10-16(17(18,19)20)22-23(15)13-6-8-14(9-7-13)26(21,24)25/h2-10H,1H3,(H2,21,24,25)

> <PUBCHEM_IUPAC_INCHIKEY>
RZEKVGVHFLEQIL-UHFFFAOYSA-N

> <PUBCHEM_XLOGP3_AA>
3.4

> <PUBCHEM_EXACT_MASS>
381.075882

> <PUBCHEM_MOLECULAR_FORMULA>
C17H14F3N3O2S

> <PUBCHEM_MOLECULAR_WEIGHT>
381.37217

> <PUBCHEM_OPENEYE_CAN_SMILES>
CC1=CC=C(C=C1)C2=CC(=NN2C3=CC=C(C=C3)S(=O)(=O)N)C(F)(F)F

> <PUBCHEM_OPENEYE_ISO_SMILES>
CC1=CC=C(C=C1)C2=CC(=NN2C3=CC=C(C=C3)S(=O)(=O)N)C(F)(F)F

> <PUBCHEM_CACTVS_TPSA>
86.4

> <PUBCHEM_MONOISOTOPIC_WEIGHT>
381.075882

> <PUBCHEM_TOTAL_CHARGE>
0

> <PUBCHEM_HEAVY_ATOM_COUNT>
26

> <PUBCHEM_ATOM_DEF_STEREO_COUNT>
0

> <PUBCHEM_ATOM_UDEF_STEREO_COUNT>
0

> <PUBCHEM_BOND_DEF_STEREO_COUNT>
0

> <PUBCHEM_BOND_UDEF_STEREO_COUNT>
0

> <PUBCHEM_ISOTOPIC_ATOM_COUNT>
0

> <PUBCHEM_COMPONENT_COUNT>
1

> <PUBCHEM_CACTVS_TAUTO_COUNT>
1

> <PUBCHEM_COORDINATE_TYPE>
1
5
255

> <PUBCHEM_BONDANNOTATIONS>
10  13  8
11  15  8
11  16  8
12  18  8
12  19  8
13  14  8
15  20  8
16  21  8
17  20  8
17  21  8
18  23  8
19  24  8
22  23  8
22  24  8
7  10  8
7  8  8
8  14  8

$$$$

