14428
  -OEChem-06241222432D

 50 52  0     0  0  0  0  0  0999 V2000
    0.0000    4.3001    0.0000 Cl  0  5  0  0  0  0  0  0  0  0  0  0
    8.6870    4.2361    0.0000 S   0  0  0  0  0  0  0  0  0  0  0  0
    4.1231    7.5672    0.0000 N   0  3  0  0  0  0  0  0  0  0  0  0
    4.4179    6.6116    0.0000 C   0  0  0  0  0  0  0  0  0  0  0  0
    6.6625    5.2110    0.0000 C   0  0  0  0  0  0  0  0  0  0  0  0
    5.3928    6.3891    0.0000 C   0  0  0  0  0  0  0  0  0  0  0  0
    6.8850    4.2361    0.0000 C   0  0  0  0  0  0  0  0  0  0  0  0
    7.2860    5.9928    0.0000 C   0  0  0  0  0  0  0  0  0  0  0  0
    5.6876    5.4335    0.0000 C   0  0  0  0  0  0  0  0  0  0  0  0
    7.7860    3.8022    0.0000 C   0  0  0  0  0  0  0  0  0  0  0  0
    8.2860    5.9928    0.0000 C   0  0  0  0  0  0  0  0  0  0  0  0
    7.8798    2.7648    0.0000 C   0  0  0  0  0  0  0  0  0  0  0  0
    8.9095    5.2110    0.0000 C   0  0  0  0  0  0  0  0  0  0  0  0
    3.8284    8.5228    0.0000 C   0  0  0  0  0  0  0  0  0  0  0  0
    3.1676    7.2724    0.0000 C   0  0  0  0  0  0  0  0  0  0  0  0
    6.0154    3.6626    0.0000 C   0  0  0  0  0  0  0  0  0  0  0  0
    7.0238    2.1714    0.0000 C   0  0  0  0  0  0  0  0  0  0  0  0
    6.7513    6.8868    0.0000 C   0  0  0  0  0  0  0  0  0  0  0  0
    6.0853    2.6233    0.0000 C   0  0  0  0  0  0  0  0  0  0  0  0
    8.8207    6.8868    0.0000 C   0  0  0  0  0  0  0  0  0  0  0  0
    8.8680    2.3168    0.0000 C   0  0  0  0  0  0  0  0  0  0  0  0
    7.0965    1.0888    0.0000 C   0  0  0  0  0  0  0  0  0  0  0  0
    7.2652    7.7928    0.0000 C   0  0  0  0  0  0  0  0  0  0  0  0
    8.3068    7.7928    0.0000 C   0  0  0  0  0  0  0  0  0  0  0  0
    8.9658    1.2362    0.0000 C   0  0  0  0  0  0  0  0  0  0  0  0
    8.0740    0.6181    0.0000 C   0  0  0  0  0  0  0  0  0  0  0  0
    4.3870    5.9924    0.0000 H   0  0  0  0  0  0  0  0  0  0  0  0
    3.8027    6.5345    0.0000 H   0  0  0  0  0  0  0  0  0  0  0  0
    4.7156    7.7499    0.0000 H   0  0  0  0  0  0  0  0  0  0  0  0
    5.4237    7.0083    0.0000 H   0  0  0  0  0  0  0  0  0  0  0  0
    6.0080    6.4662    0.0000 H   0  0  0  0  0  0  0  0  0  0  0  0
    5.2659    4.9790    0.0000 H   0  0  0  0  0  0  0  0  0  0  0  0
    9.2961    5.6957    0.0000 H   0  0  0  0  0  0  0  0  0  0  0  0
    9.4681    4.9420    0.0000 H   0  0  0  0  0  0  0  0  0  0  0  0
    4.4208    8.7055    0.0000 H   0  0  0  0  0  0  0  0  0  0  0  0
    3.6456    9.1152    0.0000 H   0  0  0  0  0  0  0  0  0  0  0  0
    3.2359    8.3400    0.0000 H   0  0  0  0  0  0  0  0  0  0  0  0
    2.9848    7.8649    0.0000 H   0  0  0  0  0  0  0  0  0  0  0  0
    2.5751    7.0897    0.0000 H   0  0  0  0  0  0  0  0  0  0  0  0
    3.3503    6.6800    0.0000 H   0  0  0  0  0  0  0  0  0  0  0  0
    5.4600    3.9381    0.0000 H   0  0  0  0  0  0  0  0  0  0  0  0
    6.1314    6.8796    0.0000 H   0  0  0  0  0  0  0  0  0  0  0  0
    5.5717    2.2761    0.0000 H   0  0  0  0  0  0  0  0  0  0  0  0
    9.4406    6.8796    0.0000 H   0  0  0  0  0  0  0  0  0  0  0  0
    9.3735    2.6758    0.0000 H   0  0  0  0  0  0  0  0  0  0  0  0
    6.5829    0.7416    0.0000 H   0  0  0  0  0  0  0  0  0  0  0  0
    6.9531    8.3286    0.0000 H   0  0  0  0  0  0  0  0  0  0  0  0
    8.6189    8.3286    0.0000 H   0  0  0  0  0  0  0  0  0  0  0  0
    9.5274    0.9736    0.0000 H   0  0  0  0  0  0  0  0  0  0  0  0
    8.1228    0.0000    0.0000 H   0  0  0  0  0  0  0  0  0  0  0  0
  2 10  1  0  0  0  0
  2 13  1  0  0  0  0
  3  4  1  0  0  0  0
  3 14  1  0  0  0  0
  3 15  1  0  0  0  0
  3 29  1  0  0  0  0
  4  6  1  0  0  0  0
  4 27  1  0  0  0  0
  4 28  1  0  0  0  0
  5  7  1  0  0  0  0
  5  8  1  0  0  0  0
  5  9  2  3  0  0  0
  6  9  1  0  0  0  0
  6 30  1  0  0  0  0
  6 31  1  0  0  0  0
  7 10  2  0  0  0  0
  7 16  1  0  0  0  0
  8 11  1  0  0  0  0
  8 18  2  0  0  0  0
  9 32  1  0  0  0  0
 10 12  1  0  0  0  0
 11 13  1  0  0  0  0
 11 20  2  0  0  0  0
 12 17  1  0  0  0  0
 12 21  2  0  0  0  0
 13 33  1  0  0  0  0
 13 34  1  0  0  0  0
 14 35  1  0  0  0  0
 14 36  1  0  0  0  0
 14 37  1  0  0  0  0
 15 38  1  0  0  0  0
 15 39  1  0  0  0  0
 15 40  1  0  0  0  0
 16 19  2  0  0  0  0
 16 41  1  0  0  0  0
 17 19  1  0  0  0  0
 17 22  2  0  0  0  0
 18 23  1  0  0  0  0
 18 42  1  0  0  0  0
 19 43  1  0  0  0  0
 20 24  1  0  0  0  0
 20 44  1  0  0  0  0
 21 25  1  0  0  0  0
 21 45  1  0  0  0  0
 22 26  1  0  0  0  0
 22 46  1  0  0  0  0
 23 24  2  0  0  0  0
 23 47  1  0  0  0  0
 24 48  1  0  0  0  0
 25 26  2  0  0  0  0
 25 49  1  0  0  0  0
 26 50  1  0  0  0  0
M  CHG  2   1  -1   3   1
M  END
> <PUBCHEM_COMPOUND_CID>
14428

> <PUBCHEM_COMPOUND_CANONICALIZED>
1

> <PUBCHEM_CACTVS_COMPLEXITY>
471

> <PUBCHEM_CACTVS_HBOND_ACCEPTOR>
2

> <PUBCHEM_CACTVS_HBOND_DONOR>
1

> <PUBCHEM_CACTVS_ROTATABLE_BOND>
3

> <PUBCHEM_CACTVS_SUBSKEYS>
AAADceB6AABEAAAAAAAAAAAAAAAAAAAAAAAwYMAABIAAAADBVAAAHAQQAAAADADFWASyAcPAAAiAAiBCAAACAAAgCBAIiJAIAIgIICKgERCEIAAgkAAoiAcAgMAOwAACgAAUAACAAAUAACgAAAAAAAAAAA==

> <PUBCHEM_IUPAC_INCHI>
InChI=1S/C23H23NS.ClH/c1-24(2)15-7-12-21-19-10-5-4-9-18(19)16-25-23-20-11-6-3-8-17(20)13-14-22(21)23;/h3-6,8-14H,7,15-16H2,1-2H3;1H

> <PUBCHEM_IUPAC_INCHIKEY>
YFHOKVZSYPLNFG-UHFFFAOYSA-N

> <PUBCHEM_EXACT_MASS>
381.131798

> <PUBCHEM_MOLECULAR_FORMULA>
C23H24ClNS

> <PUBCHEM_MOLECULAR_WEIGHT>
381.96136

> <PUBCHEM_OPENEYE_CAN_SMILES>
C[NH+](C)CCC=C1C2=C(C3=CC=CC=C3C=C2)SCC4=CC=CC=C41.[Cl-]

> <PUBCHEM_OPENEYE_ISO_SMILES>
C[NH+](C)CCC=C1C2=C(C3=CC=CC=C3C=C2)SCC4=CC=CC=C41.[Cl-]

> <PUBCHEM_CACTVS_TPSA>
29.7

> <PUBCHEM_MONOISOTOPIC_WEIGHT>
381.131798

> <PUBCHEM_TOTAL_CHARGE>
0

> <PUBCHEM_HEAVY_ATOM_COUNT>
26

> <PUBCHEM_ATOM_DEF_STEREO_COUNT>
0

> <PUBCHEM_ATOM_UDEF_STEREO_COUNT>
0

> <PUBCHEM_BOND_DEF_STEREO_COUNT>
0

> <PUBCHEM_BOND_UDEF_STEREO_COUNT>
1

> <PUBCHEM_ISOTOPIC_ATOM_COUNT>
0

> <PUBCHEM_COMPONENT_COUNT>
2

> <PUBCHEM_CACTVS_TAUTO_COUNT>
1

> <PUBCHEM_COORDINATE_TYPE>
1
5
255

> <PUBCHEM_BONDANNOTATIONS>
10  12  8
11  20  8
12  17  8
12  21  8
16  19  8
17  19  8
17  22  8
18  23  8
20  24  8
21  25  8
22  26  8
23  24  8
25  26  8
5  9  1
7  10  8
7  16  8
8  11  8
8  18  8

$$$$

