9576138
  -OEChem-07051212472D

 26 25  0     1  0  0  0  0  0999 V2000
    6.8671    1.2500    0.0000 O   0  0  0  0  0  0  0  0  0  0  0  0
    6.0010   -1.2500    0.0000 O   0  0  0  0  0  0  0  0  0  0  0  0
    7.7331   -1.2500    0.0000 O   0  0  0  0  0  0  0  0  0  0  0  0
    5.1350    1.2500    0.0000 O   0  0  0  0  0  0  0  0  0  0  0  0
    9.4651   -0.2500    0.0000 O   0  0  0  0  0  0  0  0  0  0  0  0
    2.5369   -0.2500    0.0000 O   0  0  0  0  0  0  0  0  0  0  0  0
    3.4030    0.2500    0.0000 N   0  0  0  0  0  0  0  0  0  0  0  0
    6.8671    0.2500    0.0000 C   0  0  1  0  0  0  0  0  0  0  0  0
    6.0010   -0.2500    0.0000 C   0  0  1  0  0  0  0  0  0  0  0  0
    7.7331   -0.2500    0.0000 C   0  0  1  0  0  0  0  0  0  0  0  0
    5.1350    0.2500    0.0000 C   0  0  2  0  0  0  0  0  0  0  0  0
    8.5991    0.2500    0.0000 C   0  0  0  0  0  0  0  0  0  0  0  0
    4.2690   -0.2500    0.0000 C   0  0  0  0  0  0  0  0  0  0  0  0
    6.3301    0.5600    0.0000 H   0  0  0  0  0  0  0  0  0  0  0  0
    6.5380   -0.5600    0.0000 H   0  0  0  0  0  0  0  0  0  0  0  0
    8.2700   -0.5600    0.0000 H   0  0  0  0  0  0  0  0  0  0  0  0
    5.6720    0.5600    0.0000 H   0  0  0  0  0  0  0  0  0  0  0  0
    8.9976    0.7249    0.0000 H   0  0  0  0  0  0  0  0  0  0  0  0
    8.2006    0.7249    0.0000 H   0  0  0  0  0  0  0  0  0  0  0  0
    7.4040    1.5600    0.0000 H   0  0  0  0  0  0  0  0  0  0  0  0
    5.4641   -1.5600    0.0000 H   0  0  0  0  0  0  0  0  0  0  0  0
    4.2690   -0.8700    0.0000 H   0  0  0  0  0  0  0  0  0  0  0  0
    8.2700   -1.5600    0.0000 H   0  0  0  0  0  0  0  0  0  0  0  0
    4.5981    1.5600    0.0000 H   0  0  0  0  0  0  0  0  0  0  0  0
   10.0021    0.0600    0.0000 H   0  0  0  0  0  0  0  0  0  0  0  0
    2.0000    0.0600    0.0000 H   0  0  0  0  0  0  0  0  0  0  0  0
  8  1  1  6  0  0  0
  1 20  1  0  0  0  0
  9  2  1  6  0  0  0
  2 21  1  0  0  0  0
 10  3  1  1  0  0  0
  3 23  1  0  0  0  0
 11  4  1  6  0  0  0
  4 24  1  0  0  0  0
  5 12  1  0  0  0  0
  5 25  1  0  0  0  0
  6  7  1  0  0  0  0
  6 26  1  0  0  0  0
  7 13  2  0  0  0  0
  8  9  1  0  0  0  0
  8 10  1  0  0  0  0
  8 14  1  0  0  0  0
  9 11  1  0  0  0  0
  9 15  1  0  0  0  0
 10 12  1  0  0  0  0
 10 16  1  0  0  0  0
 11 13  1  0  0  0  0
 11 17  1  0  0  0  0
 12 18  1  0  0  0  0
 12 19  1  0  0  0  0
 13 22  1  0  0  0  0
M  END
> <PUBCHEM_COMPOUND_CID>
9576138

> <PUBCHEM_COMPOUND_CANONICALIZED>
1

> <PUBCHEM_CACTVS_COMPLEXITY>
163

> <PUBCHEM_CACTVS_HBOND_ACCEPTOR>
7

> <PUBCHEM_CACTVS_HBOND_DONOR>
6

> <PUBCHEM_CACTVS_ROTATABLE_BOND>
5

> <PUBCHEM_CACTVS_SUBSKEYS>
AAADccBiOAAAAAAAAAAAAAAAAAAAAAAAAAAAAAAAAAAAAAAAAAAAHgAECAAACBThgAYAAAAQAgAgABAhAAQAAAAAAAAAAAAwAAABEAIAAAAAQAAFAAABAAHAYAQAAAAAAAAAAAAAAAAAAAAAAAAAAAAAAA==

> <PUBCHEM_IUPAC_OPENEYE_NAME>
(1E,2S,3R,4R,5R)-2,3,4,5,6-pentahydroxyhexanal oxime

> <PUBCHEM_IUPAC_CAS_NAME>
(1E,2S,3R,4R,5R)-2,3,4,5,6-pentahydroxyhexanal oxime

> <PUBCHEM_IUPAC_NAME>
(2R,3R,4R,5S,6E)-6-hydroxyiminohexane-1,2,3,4,5-pentol

> <PUBCHEM_IUPAC_SYSTEMATIC_NAME>
(2R,3R,4R,5S,6E)-6-hydroxyiminohexane-1,2,3,4,5-pentol

> <PUBCHEM_IUPAC_TRADITIONAL_NAME>
(1E,2S,3R,4R,5R)-2,3,4,5,6-pentahydroxyhexanal oxime

> <PUBCHEM_IUPAC_INCHI>
InChI=1S/C6H13NO6/c8-2-4(10)6(12)5(11)3(9)1-7-13/h1,3-6,8-13H,2H2/b7-1+/t3-,4+,5+,6+/m0/s1

> <PUBCHEM_IUPAC_INCHIKEY>
FQDOAQMGAIINEJ-LJVFLWCUSA-N

> <PUBCHEM_XLOGP3_AA>
-3.2

> <PUBCHEM_EXACT_MASS>
195.074287

> <PUBCHEM_MOLECULAR_FORMULA>
C6H13NO6

> <PUBCHEM_MOLECULAR_WEIGHT>
195.17052

> <PUBCHEM_OPENEYE_CAN_SMILES>
C(C(C(C(C(C=NO)O)O)O)O)O

> <PUBCHEM_OPENEYE_ISO_SMILES>
C([C@H]([C@H]([C@@H]([C@H](/C=N/O)O)O)O)O)O

> <PUBCHEM_CACTVS_TPSA>
134

> <PUBCHEM_MONOISOTOPIC_WEIGHT>
195.074287

> <PUBCHEM_TOTAL_CHARGE>
0

> <PUBCHEM_HEAVY_ATOM_COUNT>
13

> <PUBCHEM_ATOM_DEF_STEREO_COUNT>
4

> <PUBCHEM_ATOM_UDEF_STEREO_COUNT>
0

> <PUBCHEM_BOND_DEF_STEREO_COUNT>
1

> <PUBCHEM_BOND_UDEF_STEREO_COUNT>
0

> <PUBCHEM_ISOTOPIC_ATOM_COUNT>
0

> <PUBCHEM_COMPONENT_COUNT>
1

> <PUBCHEM_CACTVS_TAUTO_COUNT>
12

> <PUBCHEM_COORDINATE_TYPE>
1
5
255

> <PUBCHEM_BONDANNOTATIONS>
8  1  6
9  2  6
10  3  5
11  4  6

$$$$

