6318
  -OEChem-07051212473D

 15 15  0     0  0  0  0  0  0999 V2000
    3.7826    0.0264    0.0006 Cl  0  0  0  0  0  0  0  0  0  0  0  0
   -2.7202    1.1948    0.0007 O   0  0  0  0  0  0  0  0  0  0  0  0
   -2.8834   -1.0723    0.0011 O   0  0  0  0  0  0  0  0  0  0  0  0
   -0.7276   -0.0347   -0.0013 C   0  0  0  0  0  0  0  0  0  0  0  0
   -0.0136   -1.2331   -0.0009 C   0  0  0  0  0  0  0  0  0  0  0  0
   -0.0468    1.1827   -0.0008 C   0  0  0  0  0  0  0  0  0  0  0  0
    1.3811   -1.2139    0.0000 C   0  0  0  0  0  0  0  0  0  0  0  0
    1.3480    1.2018    0.0002 C   0  0  0  0  0  0  0  0  0  0  0  0
    2.0619    0.0036    0.0006 C   0  0  0  0  0  0  0  0  0  0  0  0
   -2.1819   -0.0554   -0.0001 C   0  0  0  0  0  0  0  0  0  0  0  0
   -0.5252   -2.1920   -0.0010 H   0  0  0  0  0  0  0  0  0  0  0  0
   -0.5630    2.1386   -0.0008 H   0  0  0  0  0  0  0  0  0  0  0  0
    1.9245   -2.1553    0.0002 H   0  0  0  0  0  0  0  0  0  0  0  0
    1.8657    2.1576    0.0005 H   0  0  0  0  0  0  0  0  0  0  0  0
   -3.7009    1.1699    0.0020 H   0  0  0  0  0  0  0  0  0  0  0  0
  1  9  1  0  0  0  0
  2 10  1  0  0  0  0
  2 15  1  0  0  0  0
  3 10  2  0  0  0  0
  4  5  2  0  0  0  0
  4  6  1  0  0  0  0
  4 10  1  0  0  0  0
  5  7  1  0  0  0  0
  5 11  1  0  0  0  0
  6  8  2  0  0  0  0
  6 12  1  0  0  0  0
  7  9  2  0  0  0  0
  7 13  1  0  0  0  0
  8  9  1  0  0  0  0
  8 14  1  0  0  0  0
M  END
> <PUBCHEM_COMPOUND_CID>
6318

> <PUBCHEM_CONFORMER_RMSD>
0.4

> <PUBCHEM_CONFORMER_DIVERSEORDER>
1
2

> <PUBCHEM_MMFF94_PARTIAL_CHARGES>
15
1 -0.18
10 0.63
11 0.15
12 0.15
13 0.15
14 0.15
15 0.5
2 -0.65
3 -0.57
4 0.09
5 -0.15
6 -0.15
7 -0.15
8 -0.15
9 0.18

> <PUBCHEM_EFFECTIVE_ROTOR_COUNT>
1

> <PUBCHEM_PHARMACOPHORE_FEATURES>
4
1 2 acceptor
1 3 acceptor
3 2 3 10 anion
6 4 5 6 7 8 9 rings

> <PUBCHEM_HEAVY_ATOM_COUNT>
10

> <PUBCHEM_ATOM_DEF_STEREO_COUNT>
0

> <PUBCHEM_ATOM_UDEF_STEREO_COUNT>
0

> <PUBCHEM_BOND_DEF_STEREO_COUNT>
0

> <PUBCHEM_BOND_UDEF_STEREO_COUNT>
0

> <PUBCHEM_ISOTOPIC_ATOM_COUNT>
0

> <PUBCHEM_COMPONENT_COUNT>
1

> <PUBCHEM_CACTVS_TAUTO_COUNT>
1

> <PUBCHEM_CONFORMER_ID>
000018AE00000001

> <PUBCHEM_MMFF94_ENERGY>
25.1508

> <PUBCHEM_FEATURE_SELFOVERLAP>
20.355

> <PUBCHEM_SHAPE_FINGERPRINT>
10857977 72 18410302388641752058
12032990 46 18409441484286348822
12897270 3 18410294726414814573
12932764 1 17095532789627297790
14325111 11 18410855451839011488
16945 1 18410856529675336230
193761 8 17617941778258926948
20201158 50 18412827996968479747
21040471 1 18338517422074498788
23235685 24 18411142441606419264
23402655 69 18192447457640112925
23552423 10 18271803557505607471
2748010 2 18266176330125112702
29004967 10 18412542128160896274
5084963 1 18261671476293315257
528886 8 18410299141625390137
53812653 166 18334862735707931064

> <PUBCHEM_SHAPE_MULTIPOLES>
195.93
4.77
1.41
0.6
0.87
0.01
0
0
0
-0.23
0
0.07
0
0

> <PUBCHEM_SHAPE_SELFOVERLAP>
402.721

> <PUBCHEM_SHAPE_VOLUME>
114

> <PUBCHEM_COORDINATE_TYPE>
2
5
10

$$$$

