80630
  -OEChem-07051213053D

 29 30  0     0  0  0  0  0  0999 V2000
    5.5745    0.0163   -0.4038 O   0  0  0  0  0  0  0  0  0  0  0  0
    0.0385   -0.0195    0.6842 C   0  0  0  0  0  0  0  0  0  0  0  0
   -0.8302   -0.0179   -0.5892 C   0  0  0  0  0  0  0  0  0  0  0  0
    1.5195   -0.0095    0.3936 C   0  0  0  0  0  0  0  0  0  0  0  0
   -2.2978   -0.0063   -0.3237 C   0  0  0  0  0  0  0  0  0  0  0  0
    2.1925   -1.2131    0.2557 C   0  0  0  0  0  0  0  0  0  0  0  0
    2.1796    1.2027    0.2689 C   0  0  0  0  0  0  0  0  0  0  0  0
   -2.9928   -1.2089   -0.1954 C   0  0  0  0  0  0  0  0  0  0  0  0
   -2.9756    1.2069   -0.2040 C   0  0  0  0  0  0  0  0  0  0  0  0
    3.5611   -1.2043   -0.0137 C   0  0  0  0  0  0  0  0  0  0  0  0
    3.5482    1.2116   -0.0005 C   0  0  0  0  0  0  0  0  0  0  0  0
    4.2390    0.0080   -0.1417 C   0  0  0  0  0  0  0  0  0  0  0  0
   -4.3653   -1.1983    0.0528 C   0  0  0  0  0  0  0  0  0  0  0  0
   -4.3481    1.2175    0.0442 C   0  0  0  0  0  0  0  0  0  0  0  0
   -5.0431    0.0149    0.1727 C   0  0  0  0  0  0  0  0  0  0  0  0
   -0.2056   -0.8953    1.3006 H   0  0  0  0  0  0  0  0  0  0  0  0
   -0.2141    0.8482    1.3086 H   0  0  0  0  0  0  0  0  0  0  0  0
   -0.5786   -0.8913   -1.2064 H   0  0  0  0  0  0  0  0  0  0  0  0
   -0.5677    0.8484   -1.2119 H   0  0  0  0  0  0  0  0  0  0  0  0
    1.6727   -2.1620    0.3517 H   0  0  0  0  0  0  0  0  0  0  0  0
    1.6495    2.1448    0.3750 H   0  0  0  0  0  0  0  0  0  0  0  0
   -2.4758   -2.1608   -0.2847 H   0  0  0  0  0  0  0  0  0  0  0  0
   -2.4452    2.1507   -0.2999 H   0  0  0  0  0  0  0  0  0  0  0  0
    4.0937   -2.1451   -0.1231 H   0  0  0  0  0  0  0  0  0  0  0  0
    4.0645    2.1627   -0.0984 H   0  0  0  0  0  0  0  0  0  0  0  0
   -4.9063   -2.1347    0.1535 H   0  0  0  0  0  0  0  0  0  0  0  0
   -4.8759    2.1621    0.1381 H   0  0  0  0  0  0  0  0  0  0  0  0
   -6.1117    0.0232    0.3664 H   0  0  0  0  0  0  0  0  0  0  0  0
    5.8789    0.9384   -0.4595 H   0  0  0  0  0  0  0  0  0  0  0  0
  1 12  1  0  0  0  0
  1 29  1  0  0  0  0
  2  3  1  0  0  0  0
  2  4  1  0  0  0  0
  2 16  1  0  0  0  0
  2 17  1  0  0  0  0
  3  5  1  0  0  0  0
  3 18  1  0  0  0  0
  3 19  1  0  0  0  0
  4  6  2  0  0  0  0
  4  7  1  0  0  0  0
  5  8  2  0  0  0  0
  5  9  1  0  0  0  0
  6 10  1  0  0  0  0
  6 20  1  0  0  0  0
  7 11  2  0  0  0  0
  7 21  1  0  0  0  0
  8 13  1  0  0  0  0
  8 22  1  0  0  0  0
  9 14  2  0  0  0  0
  9 23  1  0  0  0  0
 10 12  2  0  0  0  0
 10 24  1  0  0  0  0
 11 12  1  0  0  0  0
 11 25  1  0  0  0  0
 13 15  2  0  0  0  0
 13 26  1  0  0  0  0
 14 15  1  0  0  0  0
 14 27  1  0  0  0  0
 15 28  1  0  0  0  0
M  END
> <PUBCHEM_COMPOUND_CID>
80630

> <PUBCHEM_CONFORMER_RMSD>
0.6

> <PUBCHEM_CONFORMER_DIVERSEORDER>
1
5
3
4
2
6

> <PUBCHEM_MMFF94_PARTIAL_CHARGES>
25
1 -0.53
10 -0.15
11 -0.15
12 0.08
13 -0.15
14 -0.15
15 -0.15
2 0.14
20 0.15
21 0.15
22 0.15
23 0.15
24 0.15
25 0.15
26 0.15
27 0.15
28 0.15
29 0.45
3 0.14
4 -0.14
5 -0.14
6 -0.15
7 -0.15
8 -0.15
9 -0.15

> <PUBCHEM_EFFECTIVE_ROTOR_COUNT>
3

> <PUBCHEM_PHARMACOPHORE_FEATURES>
3
1 1 donor
6 4 6 7 10 11 12 rings
6 5 8 9 13 14 15 rings

> <PUBCHEM_HEAVY_ATOM_COUNT>
15

> <PUBCHEM_ATOM_DEF_STEREO_COUNT>
0

> <PUBCHEM_ATOM_UDEF_STEREO_COUNT>
0

> <PUBCHEM_BOND_DEF_STEREO_COUNT>
0

> <PUBCHEM_BOND_UDEF_STEREO_COUNT>
0

> <PUBCHEM_ISOTOPIC_ATOM_COUNT>
0

> <PUBCHEM_COMPONENT_COUNT>
1

> <PUBCHEM_CACTVS_TAUTO_COUNT>
2

> <PUBCHEM_CONFORMER_ID>
00013AF600000001

> <PUBCHEM_MMFF94_ENERGY>
37.6848

> <PUBCHEM_FEATURE_SELFOVERLAP>
15.223

> <PUBCHEM_SHAPE_FINGERPRINT>
10616163 171 18336547118876696695
10680689 15 17846780715492484757
11287383 113 18341892965837488768
11615757 297 17967811626509076193
12107183 9 17689999359311733433
12236239 1 17894629258061975736
128620 24 15626224628089896855
13167823 11 18410577283866052811
13675066 3 17748834011544245586
13760787 19 18408325492610621231
14123238 8 18272370875408977367
14341114 176 18410567384087547009
15239154 128 18410855464660882705
15242433 33 18409449201941666102
17834072 33 18410575063214635837
17844677 252 18408597046260532849
18186145 218 18130796663005140904
19489759 90 9439405718200412839
200 152 18187082853648517282
20645477 70 18335701706235760582
21267235 1 18410003330095421999
22485316 2 18411703196641817179
2297311 6 18334004000094487757
23402539 116 17703795829395827268
23402655 69 18410293627161701524
23557571 272 18341047501335750709
23559900 14 18408891711107988553
300161 21 18341622524573732629
3268164 11 16845584123147890175
3545911 37 18410855469040018669
42 15 18411418418877239637
4214541 1 18410012152316983089
42788 4 18410573985167288396
474 4 17488458577303744340
4990 188 18334288777943162654
5104073 3 18411140242261339859
522135 26 18408324401947124506
5281201 14 18342174488064225132
542803 24 18060420213687991253
77779 3 18410575089195410065
9709674 26 18410851053740383007

> <PUBCHEM_SHAPE_MULTIPOLES>
302.82
11.78
1.4
0.71
0.43
0
0.01
0.05
-0.6
-0.27
0.02
0
0
0.01

> <PUBCHEM_SHAPE_SELFOVERLAP>
644.353

> <PUBCHEM_SHAPE_VOLUME>
168.6

> <PUBCHEM_COORDINATE_TYPE>
2
5
10

$$$$

