5460219
  -OEChem-07051212473D

 21 21  0     1  0  0  0  0  0999 V2000
    0.0680   -1.2472    0.0302 O   0  0  0  0  0  0  0  0  0  0  0  0
    0.1747    1.5432    1.0093 O   0  0  0  0  0  0  0  0  0  0  0  0
    2.6273    1.1750   -0.0958 O   0  0  0  0  0  0  0  0  0  0  0  0
   -2.7271    1.1057   -0.1614 O   0  0  0  0  0  0  0  0  0  0  0  0
    2.3019   -1.6500    0.3944 O   0  0  0  0  0  0  0  0  0  0  0  0
   -0.7031   -0.1455   -0.4887 C   0  0  2  0  0  0  0  0  0  0  0  0
    0.2124    1.0566   -0.3288 C   0  0  2  0  0  0  0  0  0  0  0  0
    1.5613    0.4352   -0.6261 C   0  0  2  0  0  0  0  0  0  0  0  0
   -2.0225   -0.0602    0.2577 C   0  0  2  0  0  0  0  0  0  0  0  0
    1.4020   -0.9291   -0.0054 C   0  0  0  0  0  0  0  0  0  0  0  0
   -2.8948   -1.2837    0.0146 C   0  0  0  0  0  0  0  0  0  0  0  0
   -0.8775   -0.3385   -1.5558 H   0  0  0  0  0  0  0  0  0  0  0  0
   -0.0422    1.8834   -0.9983 H   0  0  0  0  0  0  0  0  0  0  0  0
    1.7030    0.3033   -1.7050 H   0  0  0  0  0  0  0  0  0  0  0  0
   -1.8542    0.0190    1.3376 H   0  0  0  0  0  0  0  0  0  0  0  0
   -2.4156   -2.2001    0.3716 H   0  0  0  0  0  0  0  0  0  0  0  0
   -3.8558   -1.1727    0.5287 H   0  0  0  0  0  0  0  0  0  0  0  0
   -3.1226   -1.3994   -1.0508 H   0  0  0  0  0  0  0  0  0  0  0  0
    0.8595    2.2294    1.0862 H   0  0  0  0  0  0  0  0  0  0  0  0
    3.4506    0.7134   -0.3294 H   0  0  0  0  0  0  0  0  0  0  0  0
   -2.8896    1.0288   -1.1172 H   0  0  0  0  0  0  0  0  0  0  0  0
  1  6  1  0  0  0  0
  1 10  1  0  0  0  0
  2  7  1  0  0  0  0
  2 19  1  0  0  0  0
  3  8  1  0  0  0  0
  3 20  1  0  0  0  0
  4  9  1  0  0  0  0
  4 21  1  0  0  0  0
  5 10  2  0  0  0  0
  6  7  1  0  0  0  0
  6  9  1  0  0  0  0
  6 12  1  0  0  0  0
  7  8  1  0  0  0  0
  7 13  1  0  0  0  0
  8 10  1  0  0  0  0
  8 14  1  0  0  0  0
  9 11  1  0  0  0  0
  9 15  1  0  0  0  0
 11 16  1  0  0  0  0
 11 17  1  0  0  0  0
 11 18  1  0  0  0  0
M  END
> <PUBCHEM_COMPOUND_CID>
5460219

> <PUBCHEM_CONFORMER_RMSD>
0.4

> <PUBCHEM_CONFORMER_DIVERSEORDER>
1
5
6
2
4
3

> <PUBCHEM_MMFF94_PARTIAL_CHARGES>
13
1 -0.43
10 0.66
19 0.4
2 -0.68
20 0.4
21 0.4
3 -0.68
4 -0.68
5 -0.57
6 0.28
7 0.28
8 0.34
9 0.28

> <PUBCHEM_EFFECTIVE_ROTOR_COUNT>
1.8

> <PUBCHEM_PHARMACOPHORE_FEATURES>
8
1 2 acceptor
1 2 donor
1 3 acceptor
1 3 donor
1 4 acceptor
1 4 donor
1 5 acceptor
5 1 6 7 8 10 rings

> <PUBCHEM_HEAVY_ATOM_COUNT>
11

> <PUBCHEM_ATOM_DEF_STEREO_COUNT>
4

> <PUBCHEM_ATOM_UDEF_STEREO_COUNT>
0

> <PUBCHEM_BOND_DEF_STEREO_COUNT>
0

> <PUBCHEM_BOND_UDEF_STEREO_COUNT>
0

> <PUBCHEM_ISOTOPIC_ATOM_COUNT>
0

> <PUBCHEM_COMPONENT_COUNT>
1

> <PUBCHEM_CACTVS_TAUTO_COUNT>
6

> <PUBCHEM_CONFORMER_ID>
005350FB00000001

> <PUBCHEM_MMFF94_ENERGY>
16.953

> <PUBCHEM_FEATURE_SELFOVERLAP>
40.61

> <PUBCHEM_SHAPE_FINGERPRINT>
12932764 1 18411125940331466703
14128692 85 18342734165126122022
14325111 11 18412543189060081349
16945 1 18127962023260349871
20653091 64 18343303660446016258
21040471 1 18340482245084715158
21501502 16 18412827992989776765
23402655 69 18336840766396814469
23552333 60 18411695525946134864
23552423 10 18201432592808713567
2748010 2 18411699902343781687
29004967 10 17917986161705795988
3248919 1 17203040803398060863
5084963 1 18130509639247201527
53812653 166 18261675852817764073

> <PUBCHEM_SHAPE_MULTIPOLES>
197.03
3.86
1.66
0.74
1.43
0.15
0.03
0.47
0.01
-0.31
0.22
-0.06
-0.12
-0.12

> <PUBCHEM_SHAPE_SELFOVERLAP>
399.731

> <PUBCHEM_SHAPE_VOLUME>
116.1

> <PUBCHEM_COORDINATE_TYPE>
2
5
10

$$$$

