441254
  -OEChem-07051212533D

 20 20  0     1  0  0  0  0  0999 V2000
    1.4476   -1.4980    1.1451 O   0  0  0  0  0  0  0  0  0  0  0  0
    2.5166   -0.4880   -1.1995 O   0  0  0  0  0  0  0  0  0  0  0  0
    2.4717    1.6023   -0.2425 N   0  0  0  0  0  0  0  0  0  0  0  0
    1.1489   -0.1517    0.7809 C   0  0  2  0  0  0  0  0  0  0  0  0
   -0.2796   -0.0510    0.3638 C   0  0  0  0  0  0  0  0  0  0  0  0
   -0.9857    1.1334    0.5744 C   0  0  0  0  0  0  0  0  0  0  0  0
   -0.9096   -1.1411   -0.2365 C   0  0  0  0  0  0  0  0  0  0  0  0
    2.1089    0.2755   -0.3275 C   0  0  0  0  0  0  0  0  0  0  0  0
   -2.3216    1.2277    0.1844 C   0  0  0  0  0  0  0  0  0  0  0  0
   -2.2455   -1.0468   -0.6265 C   0  0  0  0  0  0  0  0  0  0  0  0
   -2.9516    0.1376   -0.4161 C   0  0  0  0  0  0  0  0  0  0  0  0
    1.3191    0.4549    1.6787 H   0  0  0  0  0  0  0  0  0  0  0  0
   -0.5069    1.9903    1.0408 H   0  0  0  0  0  0  0  0  0  0  0  0
   -0.3802   -2.0712   -0.4246 H   0  0  0  0  0  0  0  0  0  0  0  0
   -2.8714    2.1500    0.3480 H   0  0  0  0  0  0  0  0  0  0  0  0
   -2.7355   -1.8944   -1.0968 H   0  0  0  0  0  0  0  0  0  0  0  0
   -3.9915    0.2115   -0.7205 H   0  0  0  0  0  0  0  0  0  0  0  0
    2.3403   -1.5039    1.5311 H   0  0  0  0  0  0  0  0  0  0  0  0
    2.1204    2.2186    0.4834 H   0  0  0  0  0  0  0  0  0  0  0  0
    3.1075    2.0125   -0.9185 H   0  0  0  0  0  0  0  0  0  0  0  0
  1  4  1  0  0  0  0
  1 18  1  0  0  0  0
  2  8  2  0  0  0  0
  3  8  1  0  0  0  0
  3 19  1  0  0  0  0
  3 20  1  0  0  0  0
  4  5  1  0  0  0  0
  4  8  1  0  0  0  0
  4 12  1  0  0  0  0
  5  6  2  0  0  0  0
  5  7  1  0  0  0  0
  6  9  1  0  0  0  0
  6 13  1  0  0  0  0
  7 10  2  0  0  0  0
  7 14  1  0  0  0  0
  9 11  2  0  0  0  0
  9 15  1  0  0  0  0
 10 11  1  0  0  0  0
 10 16  1  0  0  0  0
 11 17  1  0  0  0  0
M  END
> <PUBCHEM_COMPOUND_CID>
441254

> <PUBCHEM_CONFORMER_RMSD>
0.4

> <PUBCHEM_CONFORMER_DIVERSEORDER>
3
1
13
11
6
10
8
2
9
12
7
5
4

> <PUBCHEM_MMFF94_PARTIAL_CHARGES>
19
1 -0.68
10 -0.15
11 -0.15
13 0.15
14 0.15
15 0.15
16 0.15
17 0.15
18 0.4
19 0.37
2 -0.57
20 0.37
3 -0.8
4 0.48
5 -0.14
6 -0.15
7 -0.15
8 0.57
9 -0.15

> <PUBCHEM_EFFECTIVE_ROTOR_COUNT>
2

> <PUBCHEM_PHARMACOPHORE_FEATURES>
5
1 1 acceptor
1 1 donor
1 2 acceptor
1 3 donor
6 5 6 7 9 10 11 rings

> <PUBCHEM_HEAVY_ATOM_COUNT>
11

> <PUBCHEM_ATOM_DEF_STEREO_COUNT>
1

> <PUBCHEM_ATOM_UDEF_STEREO_COUNT>
0

> <PUBCHEM_BOND_DEF_STEREO_COUNT>
0

> <PUBCHEM_BOND_UDEF_STEREO_COUNT>
0

> <PUBCHEM_ISOTOPIC_ATOM_COUNT>
0

> <PUBCHEM_COMPONENT_COUNT>
1

> <PUBCHEM_CACTVS_TAUTO_COUNT>
2

> <PUBCHEM_CONFORMER_ID>
0006BBA600000003

> <PUBCHEM_MMFF94_ENERGY>
22.2908

> <PUBCHEM_FEATURE_SELFOVERLAP>
25.376

> <PUBCHEM_SHAPE_FINGERPRINT>
11031198 65 17417518207153630198
12326174 3 16701473393074059778
12423570 1 5726474213799949865
12716758 59 18113898281804150675
12897270 3 18114457847397267404
12932764 1 18201156641386798781
14390081 3 18272371949240667069
15775835 57 18201153342619917524
16945 1 18335708294656940107
20201158 50 17168418358939244814
20645476 183 18342179985754512039
20653085 51 18337939173463633833
21028194 46 17418093183073457120
21040471 1 17970918983987459537
22802520 49 18114727304886717822
23552423 10 18338805614438472483
2748010 2 16966625763214351745
29004967 10 14996294608073933035
3248919 1 17822297902539685769
369184 2 11887676147913977957
5084963 1 17677049160909337603
8030462 33 18343868831087401019

> <PUBCHEM_SHAPE_MULTIPOLES>
209.66
4.24
1.48
0.96
0.13
0.12
0.05
0.5
-1.09
-0.05
0.07
0.41
-0.19
-0.41

> <PUBCHEM_SHAPE_SELFOVERLAP>
434.822

> <PUBCHEM_SHAPE_VOLUME>
119.1

> <PUBCHEM_COORDINATE_TYPE>
2
5
10

$$$$

