11274
  -OEChem-06261205283D

 55 58  0     1  0  0  0  0  0999 V2000
    5.4652   -1.5123    0.1420 O   0  0  0  0  0  0  0  0  0  0  0  0
   -5.2027    0.7319    0.5995 O   0  0  0  0  0  0  0  0  0  0  0  0
   -4.5081   -1.9257    1.5155 O   0  0  0  0  0  0  0  0  0  0  0  0
    0.1895   -0.2738    0.0904 C   0  0  1  0  0  0  0  0  0  0  0  0
    1.1636    0.9276   -0.1400 C   0  0  2  0  0  0  0  0  0  0  0  0
    2.5122    0.5944    0.5069 C   0  0  1  0  0  0  0  0  0  0  0  0
   -1.2435    0.0075   -0.5018 C   0  0  2  0  0  0  0  0  0  0  0  0
    3.1570   -0.6752   -0.0827 C   0  0  2  0  0  0  0  0  0  0  0  0
   -1.7628    1.3357    0.1375 C   0  0  1  0  0  0  0  0  0  0  0  0
    0.8146   -1.6236   -0.3544 C   0  0  0  0  0  0  0  0  0  0  0  0
    2.2281   -1.8605    0.2087 C   0  0  0  0  0  0  0  0  0  0  0  0
    0.5800    2.2308    0.4219 C   0  0  0  0  0  0  0  0  0  0  0  0
    3.6383    1.6237    0.4526 C   0  0  0  0  0  0  0  0  0  0  0  0
    4.4758   -0.6788    0.7140 C   0  0  2  0  0  0  0  0  0  0  0  0
   -0.8196    2.5173   -0.1145 C   0  0  0  0  0  0  0  0  0  0  0  0
   -2.2323   -1.1219   -0.0862 C   0  0  0  0  0  0  0  0  0  0  0  0
    4.9101    0.7998    0.7244 C   0  0  0  0  0  0  0  0  0  0  0  0
   -3.1944    1.6820   -0.2764 C   0  0  0  0  0  0  0  0  0  0  0  0
   -1.1950    0.0834   -2.0481 C   0  0  0  0  0  0  0  0  0  0  0  0
    3.4467   -0.6075   -1.6039 C   0  0  0  0  0  0  0  0  0  0  0  0
   -3.6986   -0.8439   -0.4548 C   0  0  2  0  0  0  0  0  0  0  0  0
   -4.1219    0.5313    0.0457 C   0  0  0  0  0  0  0  0  0  0  0  0
   -4.6022   -1.9421    0.1035 C   0  0  0  0  0  0  0  0  0  0  0  0
    0.0614   -0.3608    1.1814 H   0  0  0  0  0  0  0  0  0  0  0  0
    1.3158    1.0780   -1.2137 H   0  0  0  0  0  0  0  0  0  0  0  0
    2.3144    0.4185    1.5778 H   0  0  0  0  0  0  0  0  0  0  0  0
   -1.7879    1.1798    1.2279 H   0  0  0  0  0  0  0  0  0  0  0  0
    0.8514   -1.6863   -1.4461 H   0  0  0  0  0  0  0  0  0  0  0  0
    0.1838   -2.4545   -0.0195 H   0  0  0  0  0  0  0  0  0  0  0  0
    2.1489   -2.0186    1.2922 H   0  0  0  0  0  0  0  0  0  0  0  0
    2.6393   -2.7876   -0.2084 H   0  0  0  0  0  0  0  0  0  0  0  0
    1.2332    3.0750    0.1723 H   0  0  0  0  0  0  0  0  0  0  0  0
    0.5395    2.1775    1.5176 H   0  0  0  0  0  0  0  0  0  0  0  0
    3.5088    2.4134    1.1996 H   0  0  0  0  0  0  0  0  0  0  0  0
    3.6971    2.1034   -0.5306 H   0  0  0  0  0  0  0  0  0  0  0  0
    4.3108   -1.0105    1.7471 H   0  0  0  0  0  0  0  0  0  0  0  0
   -1.2079    3.4154    0.3816 H   0  0  0  0  0  0  0  0  0  0  0  0
   -0.7690    2.7524   -1.1840 H   0  0  0  0  0  0  0  0  0  0  0  0
   -2.1452   -1.2700    0.9986 H   0  0  0  0  0  0  0  0  0  0  0  0
   -1.9380   -2.0700   -0.5526 H   0  0  0  0  0  0  0  0  0  0  0  0
    5.6784    1.0088   -0.0284 H   0  0  0  0  0  0  0  0  0  0  0  0
    5.3407    1.0579    1.6984 H   0  0  0  0  0  0  0  0  0  0  0  0
   -3.2789    1.9161   -1.3418 H   0  0  0  0  0  0  0  0  0  0  0  0
   -3.5377    2.5622    0.2803 H   0  0  0  0  0  0  0  0  0  0  0  0
   -0.4636    0.8097   -2.4111 H   0  0  0  0  0  0  0  0  0  0  0  0
   -0.9364   -0.8868   -2.4848 H   0  0  0  0  0  0  0  0  0  0  0  0
   -2.1567    0.3692   -2.4829 H   0  0  0  0  0  0  0  0  0  0  0  0
    4.1477    0.1930   -1.8607 H   0  0  0  0  0  0  0  0  0  0  0  0
    3.8897   -1.5469   -1.9546 H   0  0  0  0  0  0  0  0  0  0  0  0
    2.5453   -0.4418   -2.1996 H   0  0  0  0  0  0  0  0  0  0  0  0
   -3.8161   -0.8371   -1.5445 H   0  0  0  0  0  0  0  0  0  0  0  0
    5.1127   -2.4183    0.1300 H   0  0  0  0  0  0  0  0  0  0  0  0
   -4.2947   -2.9272   -0.2623 H   0  0  0  0  0  0  0  0  0  0  0  0
   -5.6470   -1.7743   -0.1784 H   0  0  0  0  0  0  0  0  0  0  0  0
   -5.0872   -2.6317    1.8498 H   0  0  0  0  0  0  0  0  0  0  0  0
  1 14  1  0  0  0  0
  1 52  1  0  0  0  0
  2 22  2  0  0  0  0
  3 23  1  0  0  0  0
  3 55  1  0  0  0  0
  4  5  1  0  0  0  0
  4  7  1  0  0  0  0
  4 10  1  0  0  0  0
  4 24  1  0  0  0  0
  5  6  1  0  0  0  0
  5 12  1  0  0  0  0
  5 25  1  0  0  0  0
  6  8  1  0  0  0  0
  6 13  1  0  0  0  0
  6 26  1  0  0  0  0
  7  9  1  0  0  0  0
  7 16  1  0  0  0  0
  7 19  1  0  0  0  0
  8 11  1  0  0  0  0
  8 14  1  0  0  0  0
  8 20  1  0  0  0  0
  9 15  1  0  0  0  0
  9 18  1  0  0  0  0
  9 27  1  0  0  0  0
 10 11  1  0  0  0  0
 10 28  1  0  0  0  0
 10 29  1  0  0  0  0
 11 30  1  0  0  0  0
 11 31  1  0  0  0  0
 12 15  1  0  0  0  0
 12 32  1  0  0  0  0
 12 33  1  0  0  0  0
 13 17  1  0  0  0  0
 13 34  1  0  0  0  0
 13 35  1  0  0  0  0
 14 17  1  0  0  0  0
 14 36  1  0  0  0  0
 15 37  1  0  0  0  0
 15 38  1  0  0  0  0
 16 21  1  0  0  0  0
 16 39  1  0  0  0  0
 16 40  1  0  0  0  0
 17 41  1  0  0  0  0
 17 42  1  0  0  0  0
 18 22  1  0  0  0  0
 18 43  1  0  0  0  0
 18 44  1  0  0  0  0
 19 45  1  0  0  0  0
 19 46  1  0  0  0  0
 19 47  1  0  0  0  0
 20 48  1  0  0  0  0
 20 49  1  0  0  0  0
 20 50  1  0  0  0  0
 21 22  1  0  0  0  0
 21 23  1  0  0  0  0
 21 51  1  0  0  0  0
 23 53  1  0  0  0  0
 23 54  1  0  0  0  0
M  END
> <PUBCHEM_COMPOUND_CID>
11274

> <PUBCHEM_CONFORMER_RMSD>
0.6

> <PUBCHEM_CONFORMER_DIVERSEORDER>
1
2

> <PUBCHEM_MMFF94_PARTIAL_CHARGES>
10
1 -0.68
14 0.28
18 0.06
2 -0.57
21 0.06
22 0.45
23 0.28
3 -0.68
52 0.4
55 0.4

> <PUBCHEM_EFFECTIVE_ROTOR_COUNT>
3

> <PUBCHEM_PHARMACOPHORE_FEATURES>
9
1 1 acceptor
1 1 donor
1 2 acceptor
1 3 acceptor
1 3 donor
5 6 8 13 14 17 rings
6 4 5 6 8 10 11 rings
6 4 5 7 9 12 15 rings
6 7 9 16 18 21 22 rings

> <PUBCHEM_HEAVY_ATOM_COUNT>
23

> <PUBCHEM_ATOM_DEF_STEREO_COUNT>
8

> <PUBCHEM_ATOM_UDEF_STEREO_COUNT>
0

> <PUBCHEM_BOND_DEF_STEREO_COUNT>
0

> <PUBCHEM_BOND_UDEF_STEREO_COUNT>
0

> <PUBCHEM_ISOTOPIC_ATOM_COUNT>
0

> <PUBCHEM_COMPONENT_COUNT>
1

> <PUBCHEM_CACTVS_TAUTO_COUNT>
3

> <PUBCHEM_CONFORMER_ID>
00002C0A00000001

> <PUBCHEM_MMFF94_ENERGY>
78.6819

> <PUBCHEM_FEATURE_SELFOVERLAP>
45.763

> <PUBCHEM_SHAPE_FINGERPRINT>
10616163 171 18336549416366902767
11045977 3 18411983554953294371
11552529 35 15864927404495648991
11578080 2 16985196965289151718
12166972 35 17775281677888517428
12236239 1 17531252755251428631
12403259 226 18339369668715479520
12403814 3 17894922831703285029
12596602 18 17096082489960468107
12633257 1 18410568513906435321
128620 24 18202003235217250078
13140716 1 18408041822773961609
13214271 11 18334864926262460917
13224815 77 18335145292821058916
13544653 18 18270960150978629295
13675066 3 18113624469043886336
14223421 5 18264489653412695086
14252887 29 17967808345317722070
14341114 176 18411415124484479313
14787075 74 18341613655318651416
14790565 3 17978224963813931176
15196674 1 18409451375316307272
15209289 33 18202002097330751611
15536298 74 18259987076219811804
15788980 27 18334579040106540542
15927050 60 17470727706723155260
16945 1 18119528983903060412
17349148 13 17060615611801781802
17492 89 18339366395676554754
17804303 29 18411134715139699381
1813 80 17489868220003551805
18785283 64 18054226535914141364
19141452 34 17894354371401736135
19591789 44 18409172077830103838
200 152 18187090541840378489
20028762 73 18043251232706049639
20261772 1 18041565749693008462
21033648 29 17023198166146449939
21267235 1 18409443704430902518
21421861 104 18056766652608019898
221490 88 18411417302238646168
22182313 1 17823130292924092724
23402539 116 18412553123272009662
23557571 272 18263362645626069980
23559900 14 18191873542207734574
26918003 58 18342742927080672483
3286 77 18271811176788016876
335352 9 18409450323413518357
34934 24 18336836385076341933
350125 39 18408325493343902808
392239 28 18411416211069053163
4214541 1 18410295847517602665
5104073 3 18408606963191898328
9709674 26 18190461751760002710

> <PUBCHEM_SHAPE_MULTIPOLES>
455.72
10.62
2.35
1.1
0.12
0.43
-0.39
-3.13
2.56
-0.64
0.31
-0.1
-0.21
0.73

> <PUBCHEM_SHAPE_SELFOVERLAP>
968.296

> <PUBCHEM_SHAPE_VOLUME>
251.2

> <PUBCHEM_COORDINATE_TYPE>
2
5
10

$$$$

