440349
  -OEChem-07051212493D

 35 34  0     1  0  0  0  0  0999 V2000
    0.2565   -2.8843   -1.7099 O   0  0  0  0  0  0  0  0  0  0  0  0
   -1.0376   -3.8628   -0.1333 O   0  0  0  0  0  0  0  0  0  0  0  0
    2.5059   -0.7059    1.8299 O   0  0  0  0  0  0  0  0  0  0  0  0
   -3.7132    0.9852   -1.5419 O   0  0  0  0  0  0  0  0  0  0  0  0
   -5.7679    2.2621   -0.8175 O   0  0  0  0  0  0  0  0  0  0  0  0
    6.2862    2.3141    0.3475 O   0  0  0  0  0  0  0  0  0  0  0  0
   -5.3311    1.7773    1.3820 O   0  0  0  0  0  0  0  0  0  0  0  0
    5.0943    1.9598   -1.5531 O   0  0  0  0  0  0  0  0  0  0  0  0
    1.2377   -1.0600   -0.0860 N   0  0  0  0  0  0  0  0  0  0  0  0
   -0.9323   -1.0905    1.0858 C   0  0  0  0  0  0  0  0  0  0  0  0
    0.2306   -1.9034    0.5031 C   0  0  1  0  0  0  0  0  0  0  0  0
   -1.8076   -0.3952    0.0353 C   0  0  0  0  0  0  0  0  0  0  0  0
   -2.9705    0.3479    0.6927 C   0  0  0  0  0  0  0  0  0  0  0  0
   -0.2550   -2.9765   -0.4590 C   0  0  0  0  0  0  0  0  0  0  0  0
    2.3015   -0.5262    0.6323 C   0  0  0  0  0  0  0  0  0  0  0  0
    3.2020    0.3245   -0.2453 C   0  0  0  0  0  0  0  0  0  0  0  0
   -3.8685    1.0041   -0.3300 C   0  0  0  0  0  0  0  0  0  0  0  0
    4.3756    0.9190    0.5264 C   0  0  0  0  0  0  0  0  0  0  0  0
   -5.0664    1.7416    0.1974 C   0  0  0  0  0  0  0  0  0  0  0  0
    5.2596    1.7689   -0.3562 C   0  0  0  0  0  0  0  0  0  0  0  0
   -0.5409   -0.3389    1.7832 H   0  0  0  0  0  0  0  0  0  0  0  0
   -1.5683   -1.7640    1.6750 H   0  0  0  0  0  0  0  0  0  0  0  0
    0.7161   -2.4444    1.3257 H   0  0  0  0  0  0  0  0  0  0  0  0
   -1.2025    0.3097   -0.5478 H   0  0  0  0  0  0  0  0  0  0  0  0
   -2.2061   -1.1309   -0.6733 H   0  0  0  0  0  0  0  0  0  0  0  0
   -2.5854    1.1256    1.3613 H   0  0  0  0  0  0  0  0  0  0  0  0
   -3.5758   -0.3545    1.2763 H   0  0  0  0  0  0  0  0  0  0  0  0
    1.1510   -0.8346   -1.0731 H   0  0  0  0  0  0  0  0  0  0  0  0
    3.5702   -0.2997   -1.0688 H   0  0  0  0  0  0  0  0  0  0  0  0
    2.5961    1.1262   -0.6855 H   0  0  0  0  0  0  0  0  0  0  0  0
    4.9877    0.1161    0.9526 H   0  0  0  0  0  0  0  0  0  0  0  0
    4.0035    1.5469    1.3440 H   0  0  0  0  0  0  0  0  0  0  0  0
   -0.0779   -3.5960   -2.2963 H   0  0  0  0  0  0  0  0  0  0  0  0
    6.8642    2.8681   -0.2194 H   0  0  0  0  0  0  0  0  0  0  0  0
   -6.5728    2.7316   -0.5111 H   0  0  0  0  0  0  0  0  0  0  0  0
  1 14  1  0  0  0  0
  1 33  1  0  0  0  0
  2 14  2  0  0  0  0
  3 15  2  0  0  0  0
  4 17  2  0  0  0  0
  5 19  1  0  0  0  0
  5 35  1  0  0  0  0
  6 20  1  0  0  0  0
  6 34  1  0  0  0  0
  7 19  2  0  0  0  0
  8 20  2  0  0  0  0
  9 11  1  0  0  0  0
  9 15  1  0  0  0  0
  9 28  1  0  0  0  0
 10 11  1  0  0  0  0
 10 12  1  0  0  0  0
 10 21  1  0  0  0  0
 10 22  1  0  0  0  0
 11 14  1  0  0  0  0
 11 23  1  0  0  0  0
 12 13  1  0  0  0  0
 12 24  1  0  0  0  0
 12 25  1  0  0  0  0
 13 17  1  0  0  0  0
 13 26  1  0  0  0  0
 13 27  1  0  0  0  0
 15 16  1  0  0  0  0
 16 18  1  0  0  0  0
 16 29  1  0  0  0  0
 16 30  1  0  0  0  0
 17 19  1  0  0  0  0
 18 20  1  0  0  0  0
 18 31  1  0  0  0  0
 18 32  1  0  0  0  0
M  END
> <PUBCHEM_COMPOUND_CID>
440349

> <PUBCHEM_CONFORMER_RMSD>
1

> <PUBCHEM_CONFORMER_DIVERSEORDER>
1
101
42
103
72
20
96
28
34
30
81
74
98
10
59
75
107
95
54
45
41
70
79
3
108
86
37
11
64
83
5
7
12
71
57
53
17
102
26
36
47
94
65
51
8
29
9
92
61
112
16
6
24
73
77
82
14
63
23
106
44
90
13
76
35
15
69
100
27
91
68
62
58
32
99
89
67
21
39
104
49
50
40
19
55
33
97
93
2
78
46
85
84
66
105
43
87
110
22
109
88
25
4
111
38
48
52
60
80
18
31
56

> <PUBCHEM_MMFF94_PARTIAL_CHARGES>
22
1 -0.65
11 0.36
13 0.06
14 0.66
15 0.57
16 0.06
17 0.51
18 0.06
19 0.72
2 -0.57
20 0.66
28 0.37
3 -0.57
33 0.5
34 0.5
35 0.5
4 -0.57
5 -0.65
6 -0.65
7 -0.57
8 -0.57
9 -0.73

> <PUBCHEM_EFFECTIVE_ROTOR_COUNT>
11

> <PUBCHEM_PHARMACOPHORE_FEATURES>
12
1 1 acceptor
1 2 acceptor
1 3 acceptor
1 4 acceptor
1 5 acceptor
1 6 acceptor
1 7 acceptor
1 8 acceptor
1 9 donor
3 1 2 14 anion
3 5 7 19 anion
3 6 8 20 anion

> <PUBCHEM_HEAVY_ATOM_COUNT>
20

> <PUBCHEM_ATOM_DEF_STEREO_COUNT>
1

> <PUBCHEM_ATOM_UDEF_STEREO_COUNT>
0

> <PUBCHEM_BOND_DEF_STEREO_COUNT>
0

> <PUBCHEM_BOND_UDEF_STEREO_COUNT>
0

> <PUBCHEM_ISOTOPIC_ATOM_COUNT>
0

> <PUBCHEM_COMPONENT_COUNT>
1

> <PUBCHEM_CACTVS_TAUTO_COUNT>
4

> <PUBCHEM_CONFORMER_ID>
0006B81D00000001

> <PUBCHEM_MMFF94_ENERGY>
24.191

> <PUBCHEM_FEATURE_SELFOVERLAP>
61.082

> <PUBCHEM_SHAPE_FINGERPRINT>
105312 117 18261950756821429558
12390115 104 18335128774693466651
12633257 1 15051728651710259448
12788726 201 18124046628037325899
12892183 10 15769503126445249929
12895836 83 18409168770768674272
12895837 130 18126840496327229020
13103583 49 11743841412654827709
13955234 65 18053374681059787979
14123256 34 8430315761771425984
1420 369 8790889583888869304
14251740 79 6483088331623292059
14251764 75 18412537704382141360
14774955 27 18341617057281000277
15163728 17 18334568066486198455
15188451 53 13758060871762371465
15342168 16 18412267267729220631
167882 2 18261668272834035134
17834072 32 18411417280827210488
17980427 23 17775279431441384031
18785283 64 18196657521178930594
193927 3 8070033293729843496
204376 136 18410858789171194315
20621476 66 18130783396943791068
21401589 2 18272644641320455489
2255824 54 17755586284956686727
270888 7 18413109463345122072
2838139 119 18412832382388824668
3057174 1 18113900497876148054
474 4 18336830917604151243
6327066 14 18412548695192720484
77188 2 17332530575459587298
7808743 9 18339927021825114080
7970288 3 9223229645905232280
9999458 23 17987236814549662266

> <PUBCHEM_SHAPE_MULTIPOLES>
359.66
13.35
3.62
1.31
2.89
2.96
0.1
-18.57
0.85
-0.48
1.04
-0.05
0.05
-0.52

> <PUBCHEM_SHAPE_SELFOVERLAP>
708.322

> <PUBCHEM_SHAPE_VOLUME>
211.3

> <PUBCHEM_COORDINATE_TYPE>
2
5
10

$$$$

