47205502
  -OEChem-06241222593D

 33 35  0     1  0  0  0  0  0999 V2000
   -4.1815   -0.7527    0.8695 S   0  0  0  0  0  0  0  0  0  0  0  0
    1.4124    2.4794    0.6870 O   0  0  0  0  0  0  0  0  0  0  0  0
   -0.3648    1.3077   -0.2523 N   0  0  0  0  0  0  0  0  0  0  0  0
    2.3488   -0.4700   -0.1185 N   0  0  0  0  0  0  0  0  0  0  0  0
    2.9275   -2.5821    0.2504 N   0  0  0  0  0  0  0  0  0  0  0  0
   -1.3806    2.1581    0.3959 C   0  0  0  0  0  0  0  0  0  0  0  0
   -0.8685    0.2571   -1.1658 C   0  0  0  0  0  0  0  0  0  0  0  0
   -2.3372    1.3252    1.2570 C   0  0  0  0  0  0  0  0  0  0  0  0
   -2.1208   -0.3625   -0.6264 C   0  0  0  0  0  0  0  0  0  0  0  0
   -2.7899    0.1383    0.4731 C   0  0  0  0  0  0  0  0  0  0  0  0
    1.9690    0.7823   -0.8717 C   0  0  1  0  0  0  0  0  0  0  0  0
    0.9886    1.6050   -0.0729 C   0  0  0  0  0  0  0  0  0  0  0  0
   -2.7891   -1.5089   -1.1546 C   0  0  0  0  0  0  0  0  0  0  0  0
    3.1726    1.6394   -1.2426 C   0  0  0  0  0  0  0  0  0  0  0  0
   -3.9220   -1.8293   -0.4370 C   0  0  0  0  0  0  0  0  0  0  0  0
    2.4736   -0.5926    1.2367 C   0  0  0  0  0  0  0  0  0  0  0  0
    2.6309   -1.6897   -0.6681 C   0  0  0  0  0  0  0  0  0  0  0  0
    2.8312   -1.9046    1.4401 C   0  0  0  0  0  0  0  0  0  0  0  0
   -1.9277    2.6670   -0.4078 H   0  0  0  0  0  0  0  0  0  0  0  0
   -0.9112    2.9330    1.0102 H   0  0  0  0  0  0  0  0  0  0  0  0
   -1.0653    0.7327   -2.1328 H   0  0  0  0  0  0  0  0  0  0  0  0
   -0.1365   -0.5392   -1.3056 H   0  0  0  0  0  0  0  0  0  0  0  0
   -1.8140    0.9771    2.1560 H   0  0  0  0  0  0  0  0  0  0  0  0
   -3.1824    1.9451    1.5753 H   0  0  0  0  0  0  0  0  0  0  0  0
    1.5373    0.4405   -1.8163 H   0  0  0  0  0  0  0  0  0  0  0  0
   -2.4565   -2.0717   -2.0175 H   0  0  0  0  0  0  0  0  0  0  0  0
    3.8585    1.0816   -1.8898 H   0  0  0  0  0  0  0  0  0  0  0  0
    2.8643    2.5456   -1.7751 H   0  0  0  0  0  0  0  0  0  0  0  0
    3.7420    1.9443   -0.3571 H   0  0  0  0  0  0  0  0  0  0  0  0
   -4.6085   -2.6444   -0.6177 H   0  0  0  0  0  0  0  0  0  0  0  0
    2.3146    0.2256    1.9244 H   0  0  0  0  0  0  0  0  0  0  0  0
    2.6046   -1.8664   -1.7345 H   0  0  0  0  0  0  0  0  0  0  0  0
    3.0264   -2.3951    2.3825 H   0  0  0  0  0  0  0  0  0  0  0  0
  1 10  1  0  0  0  0
  1 15  1  0  0  0  0
  2 12  2  0  0  0  0
  3  6  1  0  0  0  0
  3  7  1  0  0  0  0
  3 12  1  0  0  0  0
  4 11  1  0  0  0  0
  4 16  1  0  0  0  0
  4 17  1  0  0  0  0
  5 17  2  0  0  0  0
  5 18  1  0  0  0  0
  6  8  1  0  0  0  0
  6 19  1  0  0  0  0
  6 20  1  0  0  0  0
  7  9  1  0  0  0  0
  7 21  1  0  0  0  0
  7 22  1  0  0  0  0
  8 10  1  0  0  0  0
  8 23  1  0  0  0  0
  8 24  1  0  0  0  0
  9 10  2  0  0  0  0
  9 13  1  0  0  0  0
 11 12  1  0  0  0  0
 11 14  1  0  0  0  0
 11 25  1  0  0  0  0
 13 15  2  0  0  0  0
 13 26  1  0  0  0  0
 14 27  1  0  0  0  0
 14 28  1  0  0  0  0
 14 29  1  0  0  0  0
 15 30  1  0  0  0  0
 16 18  2  0  0  0  0
 16 31  1  0  0  0  0
 17 32  1  0  0  0  0
 18 33  1  0  0  0  0
M  END
> <PUBCHEM_COMPOUND_CID>
47205502

> <PUBCHEM_CONFORMER_RMSD>
0.6

> <PUBCHEM_CONFORMER_DIVERSEORDER>
1
7
90
79
107
34
82
94
33
108
24
98
38
30
66
46
13
26
53
23
93
78
43
92
99
9
103
65
57
76
20
31
67
29
44
96
85
72
104
63
71
86
28
15
42
25
105
89
100
75
45
39
106
19
88
97
87
17
58
16
50
11
101
37
64
69
5
40
62
4
2
21
49
10
54
48
41
18
74
36
56
14
6
95
8
102
91
83
60
52
3
55
81
84
32
22
51
73
68
12
61
80
35
59
47
77
27
70

> <PUBCHEM_MMFF94_PARTIAL_CHARGES>
22
1 -0.08
10 -0.14
11 0.32
12 0.57
13 -0.15
15 -0.11
16 -0.3
17 0.04
18 0.08
2 -0.57
26 0.15
3 -0.66
30 0.15
31 0.15
32 0.15
33 0.15
4 0.05
5 -0.57
6 0.3
7 0.48
8 0.18
9 -0.18

> <PUBCHEM_EFFECTIVE_ROTOR_COUNT>
3.8

> <PUBCHEM_PHARMACOPHORE_FEATURES>
5
1 2 acceptor
3 4 5 17 cation
5 1 9 10 13 15 rings
5 4 5 16 17 18 rings
6 3 6 7 8 9 10 rings

> <PUBCHEM_HEAVY_ATOM_COUNT>
18

> <PUBCHEM_ATOM_DEF_STEREO_COUNT>
0

> <PUBCHEM_ATOM_UDEF_STEREO_COUNT>
1

> <PUBCHEM_BOND_DEF_STEREO_COUNT>
0

> <PUBCHEM_BOND_UDEF_STEREO_COUNT>
0

> <PUBCHEM_ISOTOPIC_ATOM_COUNT>
0

> <PUBCHEM_COMPONENT_COUNT>
1

> <PUBCHEM_CACTVS_TAUTO_COUNT>
1

> <PUBCHEM_CONFORMER_ID>
02D04C7E00000001

> <PUBCHEM_MMFF94_ENERGY>
31.3579

> <PUBCHEM_FEATURE_SELFOVERLAP>
25.432

> <PUBCHEM_SHAPE_FINGERPRINT>
11067466 332 18341055099533570228
11578080 2 18267606691642940509
11725454 13 14187284862243308206
12202030 40 17131823244891717457
12553582 1 18334857190873431911
12596599 1 18337386166301721195
12670545 47 15357691981543909693
13083527 12 17988103126954400696
13533116 47 18340204090867408275
14178342 30 18122074353495422434
15295992 7 14274277281286823907
15375462 189 18337384959420763089
16945 1 17967526896200713261
17134984 74 17687208399928688343
18186145 218 11023290718283282897
18522851 12 18337656585921335125
18981168 100 6338664266283666616
20291156 8 18339641256054885178
20361792 2 17773876583126098252
20442098 301 18333730242783617775
20559304 39 18334294249441243324
20645477 70 18201168663185169271
21421861 104 18409444752577100457
21634736 98 18342165717920490814
21731516 1 18341334482386382586
22445834 79 18335695023081609229
2255824 54 18123466081591868980
23184049 29 18409453625768484997
23559900 14 17241307158282953613
23598291 2 18127110073605966380
7097593 13 18335414729136372643
90316 7 18113893880043213793

> <PUBCHEM_SHAPE_MULTIPOLES>
353.47
7.14
2.73
1.35
2.89
0.05
0.11
3.69
0.44
-1.55
0.32
-0.19
0.14
-1.44

> <PUBCHEM_SHAPE_SELFOVERLAP>
744.218

> <PUBCHEM_SHAPE_VOLUME>
202.1

> <PUBCHEM_COORDINATE_TYPE>
2
5
10

$$$$

