56928116
  -OEChem-07051213153D

 39 41  0     1  0  0  0  0  0999 V2000
    1.9237    0.7904    0.5145 C   0  0  0  0  0  0  0  0  0  0  0  0
    3.2462    0.2552    0.0570 C   0  0  1  0  0  0  0  0  0  0  0  0
    2.5628   -0.3612    1.2286 C   0  0  2  0  0  0  0  0  0  0  0  0
    0.8392    0.2447   -0.4053 C   0  0  1  0  0  0  0  0  0  0  0  0
    1.5908   -1.1237   -0.6870 C   0  0  0  0  0  0  0  0  0  0  0  0
    3.0198   -0.6556   -1.1295 C   0  0  0  0  0  0  0  0  0  0  0  0
    1.9214   -1.6464    0.7533 C   0  0  0  0  0  0  0  0  0  0  0  0
    1.8143    2.1190    1.1502 C   0  0  0  0  0  0  0  0  0  0  0  0
   -0.5101    0.0706    0.3021 C   0  0  0  0  0  0  0  0  0  0  0  0
    0.6344    1.1033   -1.6589 C   0  0  0  0  0  0  0  0  0  0  0  0
   -1.4723   -0.7470   -0.5508 C   0  0  0  0  0  0  0  0  0  0  0  0
   -2.7954   -0.9079    0.1430 C   0  0  0  0  0  0  0  0  0  0  0  0
   -3.8477   -0.0682    0.1153 C   0  0  0  0  0  0  0  0  0  0  0  0
   -5.1482   -0.2891    0.8347 C   0  0  0  0  0  0  0  0  0  0  0  0
   -3.7790    1.2159   -0.6674 C   0  0  0  0  0  0  0  0  0  0  0  0
    4.1691    0.7944    0.1448 H   0  0  0  0  0  0  0  0  0  0  0  0
    2.9561   -0.2998    2.2244 H   0  0  0  0  0  0  0  0  0  0  0  0
    1.1095   -1.8346   -1.3586 H   0  0  0  0  0  0  0  0  0  0  0  0
    3.7404   -1.4791   -1.1576 H   0  0  0  0  0  0  0  0  0  0  0  0
    3.0305   -0.1233   -2.0830 H   0  0  0  0  0  0  0  0  0  0  0  0
    1.0436   -1.9313    1.3360 H   0  0  0  0  0  0  0  0  0  0  0  0
    2.6352   -2.4765    0.7406 H   0  0  0  0  0  0  0  0  0  0  0  0
    0.9396    2.1663    1.8064 H   0  0  0  0  0  0  0  0  0  0  0  0
    1.7162    2.9055    0.3955 H   0  0  0  0  0  0  0  0  0  0  0  0
    2.6954    2.3523    1.7580 H   0  0  0  0  0  0  0  0  0  0  0  0
   -0.4006   -0.3878    1.2915 H   0  0  0  0  0  0  0  0  0  0  0  0
   -0.9403    1.0604    0.5080 H   0  0  0  0  0  0  0  0  0  0  0  0
    1.5722    1.5320   -2.0276 H   0  0  0  0  0  0  0  0  0  0  0  0
    0.1959    0.5262   -2.4789 H   0  0  0  0  0  0  0  0  0  0  0  0
   -0.0204    1.9580   -1.4527 H   0  0  0  0  0  0  0  0  0  0  0  0
   -1.0745   -1.7540   -0.7216 H   0  0  0  0  0  0  0  0  0  0  0  0
   -1.6228   -0.3172   -1.5450 H   0  0  0  0  0  0  0  0  0  0  0  0
   -2.8894   -1.8139    0.7403 H   0  0  0  0  0  0  0  0  0  0  0  0
   -2.8072    1.4262   -1.1182 H   0  0  0  0  0  0  0  0  0  0  0  0
   -4.0104    2.0626   -0.0115 H   0  0  0  0  0  0  0  0  0  0  0  0
   -4.5194    1.1992   -1.4744 H   0  0  0  0  0  0  0  0  0  0  0  0
   -5.1480   -1.2351    1.3860 H   0  0  0  0  0  0  0  0  0  0  0  0
   -5.9784   -0.3173    0.1218 H   0  0  0  0  0  0  0  0  0  0  0  0
   -5.3295    0.5168    1.5530 H   0  0  0  0  0  0  0  0  0  0  0  0
  1  2  1  0  0  0  0
  1  3  1  0  0  0  0
  1  4  1  0  0  0  0
  1  8  1  0  0  0  0
  2  3  1  0  0  0  0
  2  6  1  0  0  0  0
  2 16  1  0  0  0  0
  3  7  1  0  0  0  0
  3 17  1  0  0  0  0
  4  5  1  0  0  0  0
  4  9  1  0  0  0  0
  4 10  1  0  0  0  0
  5  6  1  0  0  0  0
  5  7  1  0  0  0  0
  5 18  1  0  0  0  0
  6 19  1  0  0  0  0
  6 20  1  0  0  0  0
  7 21  1  0  0  0  0
  7 22  1  0  0  0  0
  8 23  1  0  0  0  0
  8 24  1  0  0  0  0
  8 25  1  0  0  0  0
  9 11  1  0  0  0  0
  9 26  1  0  0  0  0
  9 27  1  0  0  0  0
 10 28  1  0  0  0  0
 10 29  1  0  0  0  0
 10 30  1  0  0  0  0
 11 12  1  0  0  0  0
 11 31  1  0  0  0  0
 11 32  1  0  0  0  0
 12 13  2  0  0  0  0
 12 33  1  0  0  0  0
 13 14  1  0  0  0  0
 13 15  1  0  0  0  0
 14 37  1  0  0  0  0
 14 38  1  0  0  0  0
 14 39  1  0  0  0  0
 15 34  1  0  0  0  0
 15 35  1  0  0  0  0
 15 36  1  0  0  0  0
M  END
> <PUBCHEM_COMPOUND_CID>
56928116

> <PUBCHEM_CONFORMER_RMSD>
0.6

> <PUBCHEM_CONFORMER_DIVERSEORDER>
2
4
5
8
6
9
3
1
7

> <PUBCHEM_MMFF94_PARTIAL_CHARGES>
15
1 -0.19
11 0.14
12 -0.29
13 -0.28
14 0.14
15 0.14
16 0.1
17 0.1
2 -0.19
3 -0.19
33 0.15
4 0.09
6 0.09
7 0.09
8 0.09

> <PUBCHEM_EFFECTIVE_ROTOR_COUNT>
3.6

> <PUBCHEM_PHARMACOPHORE_FEATURES>
2
3 13 14 15 hydrophobe
7 1 2 3 4 5 6 7 rings

> <PUBCHEM_HEAVY_ATOM_COUNT>
15

> <PUBCHEM_ATOM_DEF_STEREO_COUNT>
2

> <PUBCHEM_ATOM_UDEF_STEREO_COUNT>
1

> <PUBCHEM_BOND_DEF_STEREO_COUNT>
0

> <PUBCHEM_BOND_UDEF_STEREO_COUNT>
0

> <PUBCHEM_ISOTOPIC_ATOM_COUNT>
0

> <PUBCHEM_COMPONENT_COUNT>
1

> <PUBCHEM_CACTVS_TAUTO_COUNT>
1

> <PUBCHEM_CONFORMER_ID>
0364A77400000002

> <PUBCHEM_MMFF94_ENERGY>
62.4344

> <PUBCHEM_FEATURE_SELFOVERLAP>
10.148

> <PUBCHEM_SHAPE_FINGERPRINT>
10922523 26 18271810155086921415
12500047 106 18413395328083994047
12616999 72 17060046060483892778
12932764 1 18411424998936104647
13134695 92 16443063924067223728
13296908 3 17967811618093493959
13675066 3 18341892992055652907
14144814 61 17846780719692409047
14178342 30 17915190026432803211
14252887 29 17346878957298237427
14344429 50 18334573529705639316
15501101 241 18342184353551336804
15653759 3 18202563986622253881
16945 1 18262535710076943870
18186145 218 18040435503658946775
19422 9 16343984740934141359
200 152 12535631566014088863
20233049 118 18410290337148285092
20645477 70 17676481787203399231
21503847 285 17967523575900700529
21730867 7 18260828176607782355
22485316 2 13183021796424860075
22892500 29 18187660101627564885
23402539 116 16702029703065985294
23402655 69 7637402938752673587
2838139 119 13769359397156100762
3060560 45 17822007622943504334
4047638 21 17967248685224840403
42 15 18202001040905784275
54040823 5 17060329721872822082
74978 22 18040998406204230087

> <PUBCHEM_SHAPE_MULTIPOLES>
308.69
7.71
1.55
1.28
11.26
0.39
0.15
-0.27
-1.23
-0.67
-0.21
-0.57
0.22
0.54

> <PUBCHEM_SHAPE_SELFOVERLAP>
653.759

> <PUBCHEM_SHAPE_VOLUME>
173.2

> <PUBCHEM_COORDINATE_TYPE>
2
5
10

$$$$

