23724585
  -OEChem-07051213083D

 80 83  0     1  0  0  0  0  0999 V2000
    5.0754    2.5468    1.1350 O   0  0  0  0  0  0  0  0  0  0  0  0
    7.0889   -0.9438   -1.7055 O   0  0  0  0  0  0  0  0  0  0  0  0
   -3.8581    0.5016   -2.4886 O   0  0  0  0  0  0  0  0  0  0  0  0
   -6.4127    0.4889   -1.7353 O   0  0  0  0  0  0  0  0  0  0  0  0
   -0.3219    0.0277    0.0559 C   0  0  1  0  0  0  0  0  0  0  0  0
    0.6884    1.1386   -0.3032 C   0  0  2  0  0  0  0  0  0  0  0  0
    2.0700    0.9146    0.3200 C   0  0  1  0  0  0  0  0  0  0  0  0
    2.6342   -0.4522   -0.1954 C   0  0  1  0  0  0  0  0  0  0  0  0
    4.0786   -0.7409    0.3689 C   0  0  2  0  0  0  0  0  0  0  0  0
   -1.5721    0.5892   -0.6647 C   0  0  2  0  0  0  0  0  0  0  0  0
    0.2111   -1.2939   -0.5151 C   0  0  0  0  0  0  0  0  0  0  0  0
    1.6236   -1.6122    0.0084 C   0  0  0  0  0  0  0  0  0  0  0  0
   -0.0661    2.4267    0.0115 C   0  0  0  0  0  0  0  0  0  0  0  0
   -1.5281    2.1026   -0.3479 C   0  0  0  0  0  0  0  0  0  0  0  0
    4.9932    0.4419   -0.0625 C   0  0  1  0  0  0  0  0  0  0  0  0
    3.0190    2.0745   -0.0005 C   0  0  0  0  0  0  0  0  0  0  0  0
   -2.9073   -0.0507   -0.3122 C   0  0  1  0  0  0  0  0  0  0  0  0
    4.6624   -2.0390   -0.2565 C   0  0  0  0  0  0  0  0  0  0  0  0
   -0.5782   -0.1282    1.5760 C   0  0  0  0  0  0  0  0  0  0  0  0
    4.4262    1.7563    0.4537 C   0  0  0  0  0  0  0  0  0  0  0  0
    6.4677    0.2402    0.3090 C   0  0  0  0  0  0  0  0  0  0  0  0
    4.0512   -0.9031    1.9107 C   0  0  0  0  0  0  0  0  0  0  0  0
    6.1480   -2.2646    0.0580 C   0  0  0  0  0  0  0  0  0  0  0  0
    7.0183   -1.0575   -0.2844 C   0  0  1  0  0  0  0  0  0  0  0  0
   -4.1122    0.5553   -1.0778 C   0  0  2  0  0  0  0  0  0  0  0  0
   -2.8293   -1.5665   -0.5555 C   0  0  0  0  0  0  0  0  0  0  0  0
   -5.4851   -0.1129   -0.8267 C   0  0  1  0  0  0  0  0  0  0  0  0
   -6.0190   -0.0351    0.6318 C   0  0  2  0  0  0  0  0  0  0  0  0
   -7.3398   -0.8540    0.7986 C   0  0  0  0  0  0  0  0  0  0  0  0
   -6.1375    1.4079    1.1409 C   0  0  0  0  0  0  0  0  0  0  0  0
   -7.2870   -2.2971    0.2900 C   0  0  0  0  0  0  0  0  0  0  0  0
   -7.8014   -0.8610    2.2636 C   0  0  0  0  0  0  0  0  0  0  0  0
    0.8350    1.1342   -1.3967 H   0  0  0  0  0  0  0  0  0  0  0  0
    1.9669    0.8755    1.4091 H   0  0  0  0  0  0  0  0  0  0  0  0
    2.7421   -0.3517   -1.2875 H   0  0  0  0  0  0  0  0  0  0  0  0
   -1.4119    0.4824   -1.7482 H   0  0  0  0  0  0  0  0  0  0  0  0
   -0.3986   -2.1600   -0.2637 H   0  0  0  0  0  0  0  0  0  0  0  0
    0.2482   -1.2437   -1.6110 H   0  0  0  0  0  0  0  0  0  0  0  0
    1.9765   -2.5069   -0.5170 H   0  0  0  0  0  0  0  0  0  0  0  0
    1.5601   -1.8821    1.0669 H   0  0  0  0  0  0  0  0  0  0  0  0
    0.0169    2.6922    1.0713 H   0  0  0  0  0  0  0  0  0  0  0  0
    0.3080    3.2737   -0.5725 H   0  0  0  0  0  0  0  0  0  0  0  0
   -1.8538    2.6861   -1.2163 H   0  0  0  0  0  0  0  0  0  0  0  0
   -2.1805    2.3706    0.4910 H   0  0  0  0  0  0  0  0  0  0  0  0
    4.9553    0.5330   -1.1587 H   0  0  0  0  0  0  0  0  0  0  0  0
    2.6886    2.9886    0.5050 H   0  0  0  0  0  0  0  0  0  0  0  0
    3.0519    2.2799   -1.0765 H   0  0  0  0  0  0  0  0  0  0  0  0
   -3.1114    0.1001    0.7546 H   0  0  0  0  0  0  0  0  0  0  0  0
    4.1066   -2.9172    0.0928 H   0  0  0  0  0  0  0  0  0  0  0  0
    4.5374   -2.0059   -1.3469 H   0  0  0  0  0  0  0  0  0  0  0  0
   -1.0269    0.7679    2.0163 H   0  0  0  0  0  0  0  0  0  0  0  0
   -1.2491   -0.9636    1.7952 H   0  0  0  0  0  0  0  0  0  0  0  0
    0.3394   -0.3241    2.1374 H   0  0  0  0  0  0  0  0  0  0  0  0
    7.0487    1.0904   -0.0713 H   0  0  0  0  0  0  0  0  0  0  0  0
    6.5975    0.2397    1.3971 H   0  0  0  0  0  0  0  0  0  0  0  0
    3.6559   -0.0189    2.4181 H   0  0  0  0  0  0  0  0  0  0  0  0
    3.4380   -1.7587    2.2106 H   0  0  0  0  0  0  0  0  0  0  0  0
    5.0466   -1.0759    2.3295 H   0  0  0  0  0  0  0  0  0  0  0  0
    6.4893   -3.1379   -0.5114 H   0  0  0  0  0  0  0  0  0  0  0  0
    6.2675   -2.5131    1.1185 H   0  0  0  0  0  0  0  0  0  0  0  0
    8.0383   -1.2293    0.0764 H   0  0  0  0  0  0  0  0  0  0  0  0
   -4.1853    1.6238   -0.8512 H   0  0  0  0  0  0  0  0  0  0  0  0
   -3.8031   -2.0565   -0.5068 H   0  0  0  0  0  0  0  0  0  0  0  0
   -2.3980   -1.8057   -1.5326 H   0  0  0  0  0  0  0  0  0  0  0  0
   -2.2755   -2.0695    0.2371 H   0  0  0  0  0  0  0  0  0  0  0  0
   -5.4266   -1.1485   -1.1639 H   0  0  0  0  0  0  0  0  0  0  0  0
    7.6630   -0.1863   -1.9107 H   0  0  0  0  0  0  0  0  0  0  0  0
   -5.2714   -0.5282    1.2677 H   0  0  0  0  0  0  0  0  0  0  0  0
   -4.6122    0.9209   -2.9372 H   0  0  0  0  0  0  0  0  0  0  0  0
   -8.1301   -0.3451    0.2308 H   0  0  0  0  0  0  0  0  0  0  0  0
   -7.2211   -0.0501   -1.7407 H   0  0  0  0  0  0  0  0  0  0  0  0
   -6.3893    1.4410    2.2047 H   0  0  0  0  0  0  0  0  0  0  0  0
   -6.9079    1.9573    0.5904 H   0  0  0  0  0  0  0  0  0  0  0  0
   -5.1936    1.9506    1.0409 H   0  0  0  0  0  0  0  0  0  0  0  0
   -7.1915   -2.3382   -0.7987 H   0  0  0  0  0  0  0  0  0  0  0  0
   -6.4436   -2.8378    0.7322 H   0  0  0  0  0  0  0  0  0  0  0  0
   -8.2052   -2.8384    0.5431 H   0  0  0  0  0  0  0  0  0  0  0  0
   -8.0831    0.1394    2.6044 H   0  0  0  0  0  0  0  0  0  0  0  0
   -7.0169   -1.2459    2.9236 H   0  0  0  0  0  0  0  0  0  0  0  0
   -8.6876   -1.4927    2.3915 H   0  0  0  0  0  0  0  0  0  0  0  0
  1 20  2  0  0  0  0
  2 24  1  0  0  0  0
  2 67  1  0  0  0  0
  3 25  1  0  0  0  0
  3 69  1  0  0  0  0
  4 27  1  0  0  0  0
  4 71  1  0  0  0  0
  5  6  1  0  0  0  0
  5 10  1  0  0  0  0
  5 11  1  0  0  0  0
  5 19  1  0  0  0  0
  6  7  1  0  0  0  0
  6 13  1  0  0  0  0
  6 33  1  0  0  0  0
  7  8  1  0  0  0  0
  7 16  1  0  0  0  0
  7 34  1  0  0  0  0
  8  9  1  0  0  0  0
  8 12  1  0  0  0  0
  8 35  1  0  0  0  0
  9 15  1  0  0  0  0
  9 18  1  0  0  0  0
  9 22  1  0  0  0  0
 10 14  1  0  0  0  0
 10 17  1  0  0  0  0
 10 36  1  0  0  0  0
 11 12  1  0  0  0  0
 11 37  1  0  0  0  0
 11 38  1  0  0  0  0
 12 39  1  0  0  0  0
 12 40  1  0  0  0  0
 13 14  1  0  0  0  0
 13 41  1  0  0  0  0
 13 42  1  0  0  0  0
 14 43  1  0  0  0  0
 14 44  1  0  0  0  0
 15 20  1  0  0  0  0
 15 21  1  0  0  0  0
 15 45  1  0  0  0  0
 16 20  1  0  0  0  0
 16 46  1  0  0  0  0
 16 47  1  0  0  0  0
 17 25  1  0  0  0  0
 17 26  1  0  0  0  0
 17 48  1  0  0  0  0
 18 23  1  0  0  0  0
 18 49  1  0  0  0  0
 18 50  1  0  0  0  0
 19 51  1  0  0  0  0
 19 52  1  0  0  0  0
 19 53  1  0  0  0  0
 21 24  1  0  0  0  0
 21 54  1  0  0  0  0
 21 55  1  0  0  0  0
 22 56  1  0  0  0  0
 22 57  1  0  0  0  0
 22 58  1  0  0  0  0
 23 24  1  0  0  0  0
 23 59  1  0  0  0  0
 23 60  1  0  0  0  0
 24 61  1  0  0  0  0
 25 27  1  0  0  0  0
 25 62  1  0  0  0  0
 26 63  1  0  0  0  0
 26 64  1  0  0  0  0
 26 65  1  0  0  0  0
 27 28  1  0  0  0  0
 27 66  1  0  0  0  0
 28 29  1  0  0  0  0
 28 30  1  0  0  0  0
 28 68  1  0  0  0  0
 29 31  1  0  0  0  0
 29 32  1  0  0  0  0
 29 70  1  0  0  0  0
 30 72  1  0  0  0  0
 30 73  1  0  0  0  0
 30 74  1  0  0  0  0
 31 75  1  0  0  0  0
 31 76  1  0  0  0  0
 31 77  1  0  0  0  0
 32 78  1  0  0  0  0
 32 79  1  0  0  0  0
 32 80  1  0  0  0  0
M  END
> <PUBCHEM_COMPOUND_CID>
23724585

> <PUBCHEM_CONFORMER_RMSD>
1

> <PUBCHEM_CONFORMER_DIVERSEORDER>
1
10
8
4
11
12
2
9
6
5
7
3

> <PUBCHEM_MMFF94_PARTIAL_CHARGES>
13
1 -0.57
15 0.06
16 0.06
2 -0.68
20 0.45
24 0.28
25 0.28
27 0.28
3 -0.68
4 -0.68
67 0.4
69 0.4
71 0.4

> <PUBCHEM_EFFECTIVE_ROTOR_COUNT>
7

> <PUBCHEM_PHARMACOPHORE_FEATURES>
14
1 1 acceptor
1 2 acceptor
1 2 donor
1 26 hydrophobe
1 3 acceptor
1 3 donor
1 30 hydrophobe
1 4 acceptor
1 4 donor
3 29 31 32 hydrophobe
5 5 6 10 13 14 rings
6 5 6 7 8 11 12 rings
6 7 8 9 15 16 20 rings
6 9 15 18 21 23 24 rings

> <PUBCHEM_HEAVY_ATOM_COUNT>
32

> <PUBCHEM_ATOM_DEF_STEREO_COUNT>
11

> <PUBCHEM_ATOM_UDEF_STEREO_COUNT>
1

> <PUBCHEM_BOND_DEF_STEREO_COUNT>
0

> <PUBCHEM_BOND_UDEF_STEREO_COUNT>
0

> <PUBCHEM_ISOTOPIC_ATOM_COUNT>
0

> <PUBCHEM_COMPONENT_COUNT>
1

> <PUBCHEM_CACTVS_TAUTO_COUNT>
3

> <PUBCHEM_CONFORMER_ID>
016A022900000001

> <PUBCHEM_MMFF94_ENERGY>
115.3724

> <PUBCHEM_FEATURE_SELFOVERLAP>
71.148

> <PUBCHEM_SHAPE_FINGERPRINT>
10076449 9 18272642450544112566
10299344 5 17894349969186831967
11135926 11 18261680354239351007
11181472 205 14924209539773739234
11456790 92 18041286538833736378
11578080 2 16879936049371519898
117089 54 17974563904211736078
11963148 33 18343591754205889363
12166972 35 17775562044020257196
12236239 1 17530969072461314661
12616971 3 17894640248609213829
12730499 353 18343867719065651826
13533116 47 18041002826237475616
13673619 4 17917428710112477605
13685833 64 18411699893732760847
13782708 43 17560807632465213259
13811026 1 18412269432086782547
14251764 18 17821729399858078597
14294032 229 16081909568431625993
14849402 71 18042966472205613841
14856354 85 16805330968459314917
14955137 171 18342172224949184997
15131766 46 4676808516716193946
15142383 8 5761651469470967394
15183329 4 18335147500708562271
15328829 1 17458339775316086603
15352257 5 18272368659659962307
15419008 47 17918278653601305917
15510800 12 17489013848736550611
1577012 14 17313105215773510749
18335252 98 17775562044051840306
18608769 82 17846494816151210210
20105231 36 18335975437333916614
21130935 74 18335138661882664691
21150785 3 15195562398836827095
21267235 1 18409444813070353300
21521721 280 18260548874910806683
21623969 137 18413387627460736019
21781051 124 17988347192191015266
221357 26 18336551603386399956
22149856 69 18411972564607147169
2303208 19 17989209252694408957
23081809 10 17022911116376210525
23522609 53 17386556952244015185
23559900 14 18337963303180772416
23569943 247 18261680392841542311
24771750 20 17698994098978190732
2747138 104 18341611508004159561
3004659 81 18342747325301425900
3178227 256 18409444795363379250
34797466 226 16916776406098919838
350125 39 18334859458890710912
404807 78 16845277311827116442
4073 2 18199749150423363738
4093350 32 17167579372218495900
4258327 124 16055729016202415054
437795 51 18131349708854162122
465052 167 18409449202426865574
484989 97 18272644624024827186
5104073 3 18337962203041228907
5381727 24 16702023081144423410
6009941 240 18272368729044304537
999808 66 18201715146729771755

> <PUBCHEM_SHAPE_MULTIPOLES>
635.07
21.88
2.35
1.48
15.88
0.37
-0.05
-8.49
-3.07
-1.52
-0.19
1.84
-0.05
1.42

> <PUBCHEM_SHAPE_SELFOVERLAP>
1318.426

> <PUBCHEM_SHAPE_VOLUME>
361.6

> <PUBCHEM_COORDINATE_TYPE>
2
5
10

$$$$

