441307
  -OEChem-07051212542D

 54 53  0     1  0  0  0  0  0999 V2000
    5.2331    0.0000    0.0000 Cl  0  0  0  0  0  0  0  0  0  0  0  0
    5.7331    8.0369    0.0000 O   0  0  0  0  0  0  0  0  0  0  0  0
    4.0010    9.0369    0.0000 O   0  0  0  0  0  0  0  0  0  0  0  0
    6.5991    9.5369    0.0000 O   0  0  0  0  0  0  0  0  0  0  0  0
    8.3312    4.5369    0.0000 O   0  0  0  0  0  0  0  0  0  0  0  0
    2.2690    8.0369    0.0000 N   0  0  0  0  0  0  0  0  0  0  0  0
    9.1972    6.0369    0.0000 N   0  0  0  0  0  0  0  0  0  0  0  0
    4.0010    8.0369    0.0000 C   0  0  3  0  0  0  0  0  0  0  0  0
    3.1350    7.5369    0.0000 C   0  0  0  0  0  0  0  0  0  0  0  0
    1.4030    7.5369    0.0000 C   0  0  0  0  0  0  0  0  0  0  0  0
    4.8671    7.5369    0.0000 C   0  0  0  0  0  0  0  0  0  0  0  0
    0.5369    8.0369    0.0000 C   0  0  0  0  0  0  0  0  0  0  0  0
    1.4030    6.5369    0.0000 C   0  0  0  0  0  0  0  0  0  0  0  0
    6.5991    7.5369    0.0000 C   0  0  0  0  0  0  0  0  0  0  0  0
    7.4651    8.0369    0.0000 C   0  0  0  0  0  0  0  0  0  0  0  0
    8.3312    6.5369    0.0000 C   0  0  0  0  0  0  0  0  0  0  0  0
    6.5991    6.5369    0.0000 C   0  0  0  0  0  0  0  0  0  0  0  0
    8.3312    7.5369    0.0000 C   0  0  0  0  0  0  0  0  0  0  0  0
    7.4651    6.0369    0.0000 C   0  0  0  0  0  0  0  0  0  0  0  0
   10.0632    4.5369    0.0000 C   0  0  0  0  0  0  0  0  0  0  0  0
    7.4651    9.0369    0.0000 C   0  0  0  0  0  0  0  0  0  0  0  0
   10.0632    3.5369    0.0000 C   0  0  0  0  0  0  0  0  0  0  0  0
    9.1972    5.0369    0.0000 C   0  0  0  0  0  0  0  0  0  0  0  0
   10.9292    3.0369    0.0000 C   0  0  0  0  0  0  0  0  0  0  0  0
    8.3312    9.5369    0.0000 C   0  0  0  0  0  0  0  0  0  0  0  0
    4.5380    8.3469    0.0000 H   0  0  0  0  0  0  0  0  0  0  0  0
    2.7365    7.0620    0.0000 H   0  0  0  0  0  0  0  0  0  0  0  0
    3.5335    7.0620    0.0000 H   0  0  0  0  0  0  0  0  0  0  0  0
    1.4030    8.1569    0.0000 H   0  0  0  0  0  0  0  0  0  0  0  0
    2.2690    8.6569    0.0000 H   0  0  0  0  0  0  0  0  0  0  0  0
    4.4685    7.0620    0.0000 H   0  0  0  0  0  0  0  0  0  0  0  0
    5.2656    7.0620    0.0000 H   0  0  0  0  0  0  0  0  0  0  0  0
    0.8469    8.5739    0.0000 H   0  0  0  0  0  0  0  0  0  0  0  0
    0.0000    8.3469    0.0000 H   0  0  0  0  0  0  0  0  0  0  0  0
    0.2269    7.5000    0.0000 H   0  0  0  0  0  0  0  0  0  0  0  0
    0.7830    6.5369    0.0000 H   0  0  0  0  0  0  0  0  0  0  0  0
    1.4030    5.9169    0.0000 H   0  0  0  0  0  0  0  0  0  0  0  0
    2.0230    6.5369    0.0000 H   0  0  0  0  0  0  0  0  0  0  0  0
    3.4641    9.3469    0.0000 H   0  0  0  0  0  0  0  0  0  0  0  0
    8.8681    7.8469    0.0000 H   0  0  0  0  0  0  0  0  0  0  0  0
    6.0622    6.2269    0.0000 H   0  0  0  0  0  0  0  0  0  0  0  0
    7.4651    5.4169    0.0000 H   0  0  0  0  0  0  0  0  0  0  0  0
   10.6738    4.4293    0.0000 H   0  0  0  0  0  0  0  0  0  0  0  0
   10.2753    5.1195    0.0000 H   0  0  0  0  0  0  0  0  0  0  0  0
    9.7341    6.3469    0.0000 H   0  0  0  0  0  0  0  0  0  0  0  0
    9.4526    3.6446    0.0000 H   0  0  0  0  0  0  0  0  0  0  0  0
    9.8512    2.9543    0.0000 H   0  0  0  0  0  0  0  0  0  0  0  0
   10.6192    2.5000    0.0000 H   0  0  0  0  0  0  0  0  0  0  0  0
   11.4662    2.7269    0.0000 H   0  0  0  0  0  0  0  0  0  0  0  0
   11.2392    3.5739    0.0000 H   0  0  0  0  0  0  0  0  0  0  0  0
    8.6412    9.0000    0.0000 H   0  0  0  0  0  0  0  0  0  0  0  0
    8.8681    9.8469    0.0000 H   0  0  0  0  0  0  0  0  0  0  0  0
    8.0212   10.0739    0.0000 H   0  0  0  0  0  0  0  0  0  0  0  0
    6.2331    0.0000    0.0000 H   0  0  0  0  0  0  0  0  0  0  0  0
  1 54  1  0  0  0  0
  2 11  1  0  0  0  0
  2 14  1  0  0  0  0
  3  8  1  0  0  0  0
  3 39  1  0  0  0  0
  4 21  2  0  0  0  0
  5 23  2  0  0  0  0
  6  9  1  0  0  0  0
  6 10  1  0  0  0  0
  6 30  1  0  0  0  0
  7 16  1  0  0  0  0
  7 23  1  0  0  0  0
  7 45  1  0  0  0  0
  8  9  1  0  0  0  0
  8 11  1  0  0  0  0
  8 26  1  0  0  0  0
  9 27  1  0  0  0  0
  9 28  1  0  0  0  0
 10 12  1  0  0  0  0
 10 13  1  0  0  0  0
 10 29  1  0  0  0  0
 11 31  1  0  0  0  0
 11 32  1  0  0  0  0
 12 33  1  0  0  0  0
 12 34  1  0  0  0  0
 12 35  1  0  0  0  0
 13 36  1  0  0  0  0
 13 37  1  0  0  0  0
 13 38  1  0  0  0  0
 14 15  2  0  0  0  0
 14 17  1  0  0  0  0
 15 18  1  0  0  0  0
 15 21  1  0  0  0  0
 16 18  2  0  0  0  0
 16 19  1  0  0  0  0
 17 19  2  0  0  0  0
 17 41  1  0  0  0  0
 18 40  1  0  0  0  0
 19 42  1  0  0  0  0
 20 22  1  0  0  0  0
 20 23  1  0  0  0  0
 20 43  1  0  0  0  0
 20 44  1  0  0  0  0
 21 25  1  0  0  0  0
 22 24  1  0  0  0  0
 22 46  1  0  0  0  0
 22 47  1  0  0  0  0
 24 48  1  0  0  0  0
 24 49  1  0  0  0  0
 24 50  1  0  0  0  0
 25 51  1  0  0  0  0
 25 52  1  0  0  0  0
 25 53  1  0  0  0  0
M  END
> <PUBCHEM_COMPOUND_CID>
441307

> <PUBCHEM_COMPOUND_CANONICALIZED>
1

> <PUBCHEM_CACTVS_COMPLEXITY>
401

> <PUBCHEM_CACTVS_HBOND_ACCEPTOR>
5

> <PUBCHEM_CACTVS_HBOND_DONOR>
4

> <PUBCHEM_CACTVS_ROTATABLE_BOND>
10

> <PUBCHEM_CACTVS_SUBSKEYS>
AAADceB7OAAEAAAAAAAAAAAAAAAAAAAAAAAwAAAAAAAAAAABAAAAHgAQCAAADDzhmAYyxoLABgCIAqVSUACCCAAlIgAIiIEObMgPNjbEtZuGOWjm9BHb6Ye8yKCOAEAAQAAIAAAAgACAABAAAAAAAAAAAA==

> <PUBCHEM_IUPAC_OPENEYE_NAME>
N-[3-acetyl-4-[2-hydroxy-3-(isopropylamino)propoxy]phenyl]butanamide hydrochloride

> <PUBCHEM_IUPAC_CAS_NAME>
N-[3-acetyl-4-[2-hydroxy-3-(propan-2-ylamino)propoxy]phenyl]butanamide hydrochloride

> <PUBCHEM_IUPAC_NAME>
N-[3-acetyl-4-[2-hydroxy-3-(propan-2-ylamino)propoxy]phenyl]butanamide hydrochloride

> <PUBCHEM_IUPAC_SYSTEMATIC_NAME>
N-[3-ethanoyl-4-[2-oxidanyl-3-(propan-2-ylamino)propoxy]phenyl]butanamide hydrochloride

> <PUBCHEM_IUPAC_TRADITIONAL_NAME>
N-[3-acetyl-4-[2-hydroxy-3-(isopropylamino)propoxy]phenyl]butyramide hydrochloride

> <PUBCHEM_IUPAC_INCHI>
InChI=1S/C18H28N2O4.ClH/c1-5-6-18(23)20-14-7-8-17(16(9-14)13(4)21)24-11-15(22)10-19-12(2)3;/h7-9,12,15,19,22H,5-6,10-11H2,1-4H3,(H,20,23);1H

> <PUBCHEM_IUPAC_INCHIKEY>
KTUFKADDDORSSI-UHFFFAOYSA-N

> <PUBCHEM_EXACT_MASS>
372.181585

> <PUBCHEM_MOLECULAR_FORMULA>
C18H29ClN2O4

> <PUBCHEM_MOLECULAR_WEIGHT>
372.88686

> <PUBCHEM_OPENEYE_CAN_SMILES>
CCCC(=O)NC1=CC(=C(C=C1)OCC(CNC(C)C)O)C(=O)C.Cl

> <PUBCHEM_OPENEYE_ISO_SMILES>
CCCC(=O)NC1=CC(=C(C=C1)OCC(CNC(C)C)O)C(=O)C.Cl

> <PUBCHEM_CACTVS_TPSA>
87.7

> <PUBCHEM_MONOISOTOPIC_WEIGHT>
372.181585

> <PUBCHEM_TOTAL_CHARGE>
0

> <PUBCHEM_HEAVY_ATOM_COUNT>
25

> <PUBCHEM_ATOM_DEF_STEREO_COUNT>
0

> <PUBCHEM_ATOM_UDEF_STEREO_COUNT>
1

> <PUBCHEM_BOND_DEF_STEREO_COUNT>
0

> <PUBCHEM_BOND_UDEF_STEREO_COUNT>
0

> <PUBCHEM_ISOTOPIC_ATOM_COUNT>
0

> <PUBCHEM_COMPONENT_COUNT>
2

> <PUBCHEM_CACTVS_TAUTO_COUNT>
6

> <PUBCHEM_COORDINATE_TYPE>
1
5
255

> <PUBCHEM_BONDANNOTATIONS>
14  15  8
14  17  8
15  18  8
16  18  8
16  19  8
17  19  8
8  3  3

$$$$

