17395666
  -OEChem-06241222513D

 44 46  0     0  0  0  0  0  0999 V2000
    0.8776    2.2438   -0.3821 O   0  0  0  0  0  0  0  0  0  0  0  0
   -3.7141    0.1448   -0.0817 N   0  0  0  0  0  0  0  0  0  0  0  0
   -0.8856    0.7354   -0.2574 N   0  0  0  0  0  0  0  0  0  0  0  0
    2.7565    0.5411   -0.0710 N   0  0  0  0  0  0  0  0  0  0  0  0
    8.6160    1.0021    0.0560 N   0  0  0  0  0  0  0  0  0  0  0  0
   -2.7828   -0.8348   -0.6471 C   0  0  0  0  0  0  0  0  0  0  0  0
   -3.1854    1.4522    0.3175 C   0  0  0  0  0  0  0  0  0  0  0  0
   -1.3758   -0.6338   -0.0838 C   0  0  0  0  0  0  0  0  0  0  0  0
   -1.9001    1.7696   -0.4437 C   0  0  0  0  0  0  0  0  0  0  0  0
   -5.0718   -0.1405    0.0406 C   0  0  0  0  0  0  0  0  0  0  0  0
    0.4638    1.0902   -0.2444 C   0  0  0  0  0  0  0  0  0  0  0  0
    1.4479   -0.0377   -0.0530 C   0  0  0  0  0  0  0  0  0  0  0  0
   -5.8244    0.4659    1.0464 C   0  0  0  0  0  0  0  0  0  0  0  0
   -5.6791   -1.0331   -0.8429 C   0  0  0  0  0  0  0  0  0  0  0  0
   -7.1840    0.1794    1.1692 C   0  0  0  0  0  0  0  0  0  0  0  0
   -7.0388   -1.3193   -0.7202 C   0  0  0  0  0  0  0  0  0  0  0  0
   -7.7912   -0.7129    0.2859 C   0  0  0  0  0  0  0  0  0  0  0  0
    3.9248   -0.1700    0.0329 C   0  0  0  0  0  0  0  0  0  0  0  0
    5.1511    0.4942    0.0040 C   0  0  0  0  0  0  0  0  0  0  0  0
    3.8864   -1.5579    0.1676 C   0  0  0  0  0  0  0  0  0  0  0  0
    6.3389   -0.2297    0.1098 C   0  0  0  0  0  0  0  0  0  0  0  0
    5.0742   -2.2816    0.2732 C   0  0  0  0  0  0  0  0  0  0  0  0
    6.3004   -1.6175    0.2443 C   0  0  0  0  0  0  0  0  0  0  0  0
    7.5955    0.4501    0.0801 C   0  0  0  0  0  0  0  0  0  0  0  0
   -2.7664   -0.7298   -1.7388 H   0  0  0  0  0  0  0  0  0  0  0  0
   -3.0937   -1.8592   -0.4083 H   0  0  0  0  0  0  0  0  0  0  0  0
   -2.9867    1.4489    1.3961 H   0  0  0  0  0  0  0  0  0  0  0  0
   -3.9089    2.2486    0.1041 H   0  0  0  0  0  0  0  0  0  0  0  0
   -0.6945   -1.3465   -0.5554 H   0  0  0  0  0  0  0  0  0  0  0  0
   -1.3680   -0.8340    0.9947 H   0  0  0  0  0  0  0  0  0  0  0  0
   -1.5081    2.7428   -0.1294 H   0  0  0  0  0  0  0  0  0  0  0  0
   -2.0976    1.8296   -1.5211 H   0  0  0  0  0  0  0  0  0  0  0  0
    1.2447   -0.5305    0.9036 H   0  0  0  0  0  0  0  0  0  0  0  0
    1.3369   -0.7420   -0.8835 H   0  0  0  0  0  0  0  0  0  0  0  0
   -5.3798    1.1540    1.7600 H   0  0  0  0  0  0  0  0  0  0  0  0
   -5.1268   -1.5102   -1.6477 H   0  0  0  0  0  0  0  0  0  0  0  0
    2.8385    1.5492   -0.1568 H   0  0  0  0  0  0  0  0  0  0  0  0
   -7.7695    0.6488    1.9543 H   0  0  0  0  0  0  0  0  0  0  0  0
   -7.5129   -2.0115   -1.4099 H   0  0  0  0  0  0  0  0  0  0  0  0
   -8.8498   -0.9358    0.3813 H   0  0  0  0  0  0  0  0  0  0  0  0
    5.1806    1.5772   -0.1011 H   0  0  0  0  0  0  0  0  0  0  0  0
    2.9535   -2.1134    0.1961 H   0  0  0  0  0  0  0  0  0  0  0  0
    5.0446   -3.3622    0.3784 H   0  0  0  0  0  0  0  0  0  0  0  0
    7.2177   -2.1956    0.3278 H   0  0  0  0  0  0  0  0  0  0  0  0
  1 11  2  0  0  0  0
  2  6  1  0  0  0  0
  2  7  1  0  0  0  0
  2 10  1  0  0  0  0
  3  8  1  0  0  0  0
  3  9  1  0  0  0  0
  3 11  1  0  0  0  0
  4 12  1  0  0  0  0
  4 18  1  0  0  0  0
  4 37  1  0  0  0  0
  5 24  3  0  0  0  0
  6  8  1  0  0  0  0
  6 25  1  0  0  0  0
  6 26  1  0  0  0  0
  7  9  1  0  0  0  0
  7 27  1  0  0  0  0
  7 28  1  0  0  0  0
  8 29  1  0  0  0  0
  8 30  1  0  0  0  0
  9 31  1  0  0  0  0
  9 32  1  0  0  0  0
 10 13  2  0  0  0  0
 10 14  1  0  0  0  0
 11 12  1  0  0  0  0
 12 33  1  0  0  0  0
 12 34  1  0  0  0  0
 13 15  1  0  0  0  0
 13 35  1  0  0  0  0
 14 16  2  0  0  0  0
 14 36  1  0  0  0  0
 15 17  2  0  0  0  0
 15 38  1  0  0  0  0
 16 17  1  0  0  0  0
 16 39  1  0  0  0  0
 17 40  1  0  0  0  0
 18 19  1  0  0  0  0
 18 20  2  0  0  0  0
 19 21  2  0  0  0  0
 19 41  1  0  0  0  0
 20 22  1  0  0  0  0
 20 42  1  0  0  0  0
 21 23  1  0  0  0  0
 21 24  1  0  0  0  0
 22 23  2  0  0  0  0
 22 43  1  0  0  0  0
 23 44  1  0  0  0  0
M  END
> <PUBCHEM_COMPOUND_CID>
17395666

> <PUBCHEM_CONFORMER_RMSD>
0.8

> <PUBCHEM_CONFORMER_DIVERSEORDER>
1
190
159
120
20
69
145
66
52
112
205
104
17
181
151
173
105
162
63
150
198
27
166
114
184
176
163
127
206
161
76
86
109
8
180
119
95
65
51
175
30
38
160
60
186
178
193
192
85
37
117
137
70
87
57
31
169
147
61
130
83
149
121
170
107
2
129
56
74
24
154
11
84
156
82
164
44
28
75
136
19
89
111
21
33
155
118
88
92
165
146
194
46
113
73
23
143
67
36
195
171
102
201
182
40
203
94
148
115
153
35
103
106
135
133
53
22
34
43
200
108
68
158
9
72
122
47
110
185
77
123
125
50
131
157
187
80
97
32
152
59
132
71
140
81
191
183
168
204
90
64
48
49
91
144
18
55
42
197
100
142
172
78
116
188
124
202
3
93
96
199
16
62
14
128
79
141
54
39
196
98
189
26
174
29
138
167
139
101
6
126
179
12
41
99
4
5
25
13
10
15
177
7
45
58
134

> <PUBCHEM_MMFF94_PARTIAL_CHARGES>
34
1 -0.57
10 0.1
11 0.57
12 0.43
13 -0.15
14 -0.15
15 -0.15
16 -0.15
17 -0.15
18 0.1
19 -0.15
2 -0.84
20 -0.15
21 0.07
22 -0.15
23 -0.15
24 0.48
3 -0.66
35 0.15
36 0.15
37 0.4
38 0.15
39 0.15
4 -0.87
40 0.15
41 0.15
42 0.15
43 0.15
44 0.15
5 -0.56
6 0.37
7 0.37
8 0.3
9 0.3

> <PUBCHEM_EFFECTIVE_ROTOR_COUNT>
6.2

> <PUBCHEM_PHARMACOPHORE_FEATURES>
8
1 1 acceptor
1 2 cation
1 4 cation
1 4 donor
1 5 acceptor
6 10 13 14 15 16 17 rings
6 18 19 20 21 22 23 rings
6 2 3 6 7 8 9 rings

> <PUBCHEM_HEAVY_ATOM_COUNT>
24

> <PUBCHEM_ATOM_DEF_STEREO_COUNT>
0

> <PUBCHEM_ATOM_UDEF_STEREO_COUNT>
0

> <PUBCHEM_BOND_DEF_STEREO_COUNT>
0

> <PUBCHEM_BOND_UDEF_STEREO_COUNT>
0

> <PUBCHEM_ISOTOPIC_ATOM_COUNT>
0

> <PUBCHEM_COMPONENT_COUNT>
1

> <PUBCHEM_CACTVS_TAUTO_COUNT>
1

> <PUBCHEM_CONFORMER_ID>
01096FD200000001

> <PUBCHEM_MMFF94_ENERGY>
81.071

> <PUBCHEM_FEATURE_SELFOVERLAP>
40.594

> <PUBCHEM_SHAPE_FINGERPRINT>
10 15 16008752398504837737
10066227 49 14476695147389158896
10299344 5 18260266347751634074
10391435 84 18060137592092169850
10595046 47 18339363067345074688
106641 1 18113620062766097888
10670039 82 11312066435228653463
11135609 127 11527649862346921750
11315181 36 18113899360769194673
11524674 6 16153430532682552559
11724838 91 18413671306077280172
12166972 35 18334294249647654217
12236239 1 18333731325611027763
12516196 113 18407761447693636632
12643181 29 17561081376421871787
12760667 363 18413669124038734289
13073987 5 18340770459218735888
13533116 47 18410573955277110376
13668630 136 17203606003751081467
13685833 64 18342457053709336562
13862211 1 18411418415030736743
13885169 127 18272653493696730805
13968360 50 14261359071959450040
14123256 10 17704072893367291378
14178184 131 18190739727252126831
14251764 18 18187083953202440294
14251764 46 18410855451538233707
14849402 71 18041842800811823921
15183329 4 18413674612516809107
15301273 46 16226040107158582924
15461852 350 16226056596213421485
15510794 2 17274819117920776763
15716309 27 18335139808522420139
15728490 51 18335986380788864598
16120349 18 18338519638584156884
17492 89 18053387888342718170
18006028 8 18411700980386113909
18335252 98 18413107277870854506
19611394 137 7131851938204285629
20157964 124 9511464429193848096
21049683 271 18410292480933928640
21130935 74 18188208813912346354
21150785 3 15769775749599760911
21267235 1 18411696617031293302
21585482 111 7636863061923612931
220451 1 16877670080149293718
22224240 67 18113339695949160270
22896161 15 18411420609679897108
232437 2 18408603670070410726
23516275 137 17823676707333740558
23522609 53 18192963037919769265
23559900 14 17845650336014211561
2838139 119 9511460017993422811
335352 9 18410015417051154831
34797466 226 17894627051108461164
3663271 9 18187080706396978202
397830 11 14924527221056197159
4073 2 18269837506504179074
4325135 7 18342175558117613268
5104073 3 18263652934350309328
5969126 39 17775290482292432413
6691757 9 16877659042801202999
9962374 69 18269280075657261007
999808 66 17988634191249997483

> <PUBCHEM_SHAPE_MULTIPOLES>
468.12
25.8
1.78
0.81
7.49
0.07
-0.07
5.79
-3.31
1.16
0.11
-1.09
0.03
-1.01

> <PUBCHEM_SHAPE_SELFOVERLAP>
997.307

> <PUBCHEM_SHAPE_VOLUME>
256.8

> <PUBCHEM_COORDINATE_TYPE>
2
5
10

$$$$

