442710
  -OEChem-07051212592D

 57 61  0     0  0  0  0  0  0999 V2000
    5.7976   -4.7354    0.0000 O   0  0  0  0  0  0  0  0  0  0  0  0
    5.9382    3.2887    0.0000 O   0  0  0  0  0  0  0  0  0  0  0  0
    6.2659   -4.0980    0.0000 O   0  0  0  0  0  0  0  0  0  0  0  0
    8.2287    4.4437    0.0000 O   0  0  0  0  0  0  0  0  0  0  0  0
    9.8594    3.8786    0.0000 O   0  0  0  0  0  0  0  0  0  0  0  0
    2.5884   -2.8825    0.0000 C   0  0  0  0  0  0  0  0  0  0  0  0
    9.9362   -0.0859    0.0000 C   0  0  0  0  0  0  0  0  0  0  0  0
    9.9114   -1.5029    0.0000 C   0  0  0  0  0  0  0  0  0  0  0  0
    2.0497   -1.5717    0.0000 C   0  0  0  0  0  0  0  0  0  0  0  0
    3.5490   -3.9244    0.0000 C   0  0  0  0  0  0  0  0  0  0  0  0
    9.4672    1.2513    0.0000 C   0  0  0  0  0  0  0  0  0  0  0  0
    9.3958   -2.8229    0.0000 C   0  0  0  0  0  0  0  0  0  0  0  0
    2.0000   -0.1555    0.0000 C   0  0  0  0  0  0  0  0  0  0  0  0
    4.4150   -4.4244    0.0000 C   0  0  0  0  0  0  0  0  0  0  0  0
    8.4535   -3.8814    0.0000 C   0  0  0  0  0  0  0  0  0  0  0  0
    8.5626    2.3422    0.0000 C   0  0  0  0  0  0  0  0  0  0  0  0
    7.2022   -4.5465    0.0000 C   0  0  0  0  0  0  0  0  0  0  0  0
    7.3353    3.0508    0.0000 C   0  0  0  0  0  0  0  0  0  0  0  0
    3.5490   -2.9244    0.0000 C   0  0  0  0  0  0  0  0  0  0  0  0
    9.6994    2.2315    0.0000 C   0  0  0  0  0  0  0  0  0  0  0  0
    8.4828   -2.3971    0.0000 C   0  0  0  0  0  0  0  0  0  0  0  0
    2.8113    0.9346    0.0000 C   0  0  0  0  0  0  0  0  0  0  0  0
    2.4456    1.1898    0.0000 C   0  0  0  0  0  0  0  0  0  0  0  0
    4.5456    3.0264    0.0000 C   0  0  0  0  0  0  0  0  0  0  0  0
    5.2811   -3.9244    0.0000 C   0  0  0  0  0  0  0  0  0  0  0  0
    8.2626    3.4443    0.0000 C   0  0  0  0  0  0  0  0  0  0  0  0
    9.2144    3.1144    0.0000 C   0  0  0  0  0  0  0  0  0  0  0  0
    3.6602    1.9956    0.0000 C   0  0  0  0  0  0  0  0  0  0  0  0
    3.3309    2.2964    0.0000 C   0  0  0  0  0  0  0  0  0  0  0  0
    7.0044   -3.5588    0.0000 C   0  0  0  0  0  0  0  0  0  0  0  0
    7.5200   -2.6934    0.0000 C   0  0  0  0  0  0  0  0  0  0  0  0
    4.4150   -2.4244    0.0000 C   0  0  0  0  0  0  0  0  0  0  0  0
    5.2811   -2.9244    0.0000 C   0  0  0  0  0  0  0  0  0  0  0  0
    1.9684   -2.8730    0.0000 H   0  0  0  0  0  0  0  0  0  0  0  0
    3.1112   -2.5493    0.0000 H   0  0  0  0  0  0  0  0  0  0  0  0
   10.5017   -0.3403    0.0000 H   0  0  0  0  0  0  0  0  0  0  0  0
    9.3242   -0.1847    0.0000 H   0  0  0  0  0  0  0  0  0  0  0  0
   10.3532   -1.9379    0.0000 H   0  0  0  0  0  0  0  0  0  0  0  0
    9.3032   -1.3827    0.0000 H   0  0  0  0  0  0  0  0  0  0  0  0
    1.4717   -1.3474    0.0000 H   0  0  0  0  0  0  0  0  0  0  0  0
    2.6557   -1.4410    0.0000 H   0  0  0  0  0  0  0  0  0  0  0  0
    8.8366   -4.3689    0.0000 H   0  0  0  0  0  0  0  0  0  0  0  0
    8.9625    2.8160    0.0000 H   0  0  0  0  0  0  0  0  0  0  0  0
    3.0121   -2.6144    0.0000 H   0  0  0  0  0  0  0  0  0  0  0  0
   10.3137    2.3149    0.0000 H   0  0  0  0  0  0  0  0  0  0  0  0
    8.5255   -1.7786    0.0000 H   0  0  0  0  0  0  0  0  0  0  0  0
    2.3205    1.3134    0.0000 H   0  0  0  0  0  0  0  0  0  0  0  0
    1.9007    1.4856    0.0000 H   0  0  0  0  0  0  0  0  0  0  0  0
    3.1829    2.3913    0.0000 H   0  0  0  0  0  0  0  0  0  0  0  0
    2.9228    2.7631    0.0000 H   0  0  0  0  0  0  0  0  0  0  0  0
    6.3934   -3.4540    0.0000 H   0  0  0  0  0  0  0  0  0  0  0  0
    7.1370   -2.2059    0.0000 H   0  0  0  0  0  0  0  0  0  0  0  0
    4.4150   -1.8044    0.0000 H   0  0  0  0  0  0  0  0  0  0  0  0
    5.8180   -2.6144    0.0000 H   0  0  0  0  0  0  0  0  0  0  0  0
    6.4779   -4.6806    0.0000 H   0  0  0  0  0  0  0  0  0  0  0  0
    7.6816    4.7354    0.0000 H   0  0  0  0  0  0  0  0  0  0  0  0
   10.4697    3.7692    0.0000 H   0  0  0  0  0  0  0  0  0  0  0  0
  1 14  1  0  0  0  0
  1 17  1  0  0  0  0
  2 18  1  0  0  0  0
  2 24  1  0  0  0  0
  3 25  1  0  0  0  0
  3 55  1  0  0  0  0
  4 26  1  0  0  0  0
  4 56  1  0  0  0  0
  5 27  1  0  0  0  0
  5 57  1  0  0  0  0
  6  9  1  0  0  0  0
  6 10  1  0  0  0  0
  6 34  1  0  0  0  0
  6 35  1  0  0  0  0
  7  8  1  0  0  0  0
  7 11  1  0  0  0  0
  7 36  1  0  0  0  0
  7 37  1  0  0  0  0
  8 12  1  0  0  0  0
  8 38  1  0  0  0  0
  8 39  1  0  0  0  0
  9 13  1  0  0  0  0
  9 40  1  0  0  0  0
  9 41  1  0  0  0  0
 10 14  2  0  0  0  0
 10 19  1  0  0  0  0
 11 16  1  0  0  0  0
 11 20  2  0  0  0  0
 12 15  2  0  0  0  0
 12 21  1  0  0  0  0
 13 22  2  0  0  0  0
 13 23  1  0  0  0  0
 14 25  1  0  0  0  0
 15 17  1  0  0  0  0
 15 42  1  0  0  0  0
 16 18  2  0  0  0  0
 16 43  1  0  0  0  0
 17 30  2  0  0  0  0
 18 26  1  0  0  0  0
 19 32  2  0  0  0  0
 19 44  1  0  0  0  0
 20 27  1  0  0  0  0
 20 45  1  0  0  0  0
 21 31  2  0  0  0  0
 21 46  1  0  0  0  0
 22 28  1  0  0  0  0
 22 47  1  0  0  0  0
 23 29  2  0  0  0  0
 23 48  1  0  0  0  0
 24 28  2  0  0  0  0
 24 29  1  0  0  0  0
 25 33  2  0  0  0  0
 26 27  2  0  0  0  0
 28 49  1  0  0  0  0
 29 50  1  0  0  0  0
 30 31  1  0  0  0  0
 30 51  1  0  0  0  0
 31 52  1  0  0  0  0
 32 33  1  0  0  0  0
 32 53  1  0  0  0  0
 33 54  1  0  0  0  0
M  END
> <PUBCHEM_COMPOUND_CID>
442710

> <PUBCHEM_COMPOUND_CANONICALIZED>
1

> <PUBCHEM_CACTVS_COMPLEXITY>
605

> <PUBCHEM_CACTVS_HBOND_ACCEPTOR>
5

> <PUBCHEM_CACTVS_HBOND_DONOR>
3

> <PUBCHEM_CACTVS_ROTATABLE_BOND>
0

> <PUBCHEM_CACTVS_SUBSKEYS>
AAADceB4OAAAAAAAAAAAAAAAAAAAAAAAAAAwYMGAAAAAAAABVAAAGgAACAAADASAmAAwBoAABgCAAiBCAAACCAAgIAAIiAAGiIgNJyKGMRqCeCOlwBULuAeA4PwOIAABCAAIQABAAAIQABCAAAAAAAAAAA==

> <PUBCHEM_IUPAC_INCHI>
InChI=1S/C28H24O5/c29-24-6-2-4-21-12-9-18-10-13-22(14-11-18)32-26-17-20(16-25(30)27(26)31)8-7-19-3-1-5-23(15-19)33-28(21)24/h1-6,10-11,13-17,29-31H,7-9,12H2

> <PUBCHEM_IUPAC_INCHIKEY>
LLMFFOXSSQHNFR-UHFFFAOYSA-N

> <PUBCHEM_XLOGP3_AA>
6.4

> <PUBCHEM_EXACT_MASS>
440.162374

> <PUBCHEM_MOLECULAR_FORMULA>
C28H24O5

> <PUBCHEM_MOLECULAR_WEIGHT>
440.48716

> <PUBCHEM_OPENEYE_CAN_SMILES>
C1CC2=C(C(=CC=C2)O)OC3=CC=CC(=C3)CCC4=CC(=C(C(=C4)O)O)OC5=CC=C1C=C5

> <PUBCHEM_OPENEYE_ISO_SMILES>
C1CC2=C(C(=CC=C2)O)OC3=CC=CC(=C3)CCC4=CC(=C(C(=C4)O)O)OC5=CC=C1C=C5

> <PUBCHEM_CACTVS_TPSA>
79.2

> <PUBCHEM_MONOISOTOPIC_WEIGHT>
440.162374

> <PUBCHEM_TOTAL_CHARGE>
0

> <PUBCHEM_HEAVY_ATOM_COUNT>
33

> <PUBCHEM_ATOM_DEF_STEREO_COUNT>
0

> <PUBCHEM_ATOM_UDEF_STEREO_COUNT>
0

> <PUBCHEM_BOND_DEF_STEREO_COUNT>
0

> <PUBCHEM_BOND_UDEF_STEREO_COUNT>
0

> <PUBCHEM_ISOTOPIC_ATOM_COUNT>
0

> <PUBCHEM_COMPONENT_COUNT>
1

> <PUBCHEM_CACTVS_TAUTO_COUNT>
7

> <PUBCHEM_COORDINATE_TYPE>
1
5
255

> <PUBCHEM_BONDANNOTATIONS>
10  14  8
10  19  8
11  16  8
11  20  8
12  15  8
12  21  8
13  22  8
13  23  8
14  25  8
15  17  8
16  18  8
17  30  8
18  26  8
19  32  8
20  27  8
21  31  8
22  28  8
23  29  8
24  28  8
24  29  8
25  33  8
26  27  8
30  31  8
32  33  8

$$$$

