441595
  -OEChem-07051212552D

 56 60  0     1  0  0  0  0  0999 V2000
    6.4927   -2.4221    0.0000 O   0  0  0  0  0  0  0  0  0  0  0  0
    7.3413   -0.9121    0.0000 O   0  0  0  0  0  0  0  0  0  0  0  0
    2.8779   -2.4360    0.0000 O   0  0  0  0  0  0  0  0  0  0  0  0
    4.6894   -3.4818    0.0000 O   0  0  0  0  0  0  0  0  0  0  0  0
    8.2362   -3.4020    0.0000 O   0  0  0  0  0  0  0  0  0  0  0  0
    9.9566   -2.3820    0.0000 O   0  0  0  0  0  0  0  0  0  0  0  0
    9.9334   -0.3821    0.0000 O   0  0  0  0  0  0  0  0  0  0  0  0
    9.0501    1.1078    0.0000 O   0  0  0  0  0  0  0  0  0  0  0  0
    2.0000    1.2180    0.0000 O   0  0  0  0  0  0  0  0  0  0  0  0
    6.2392    2.8820    0.0000 O   0  0  0  0  0  0  0  0  0  0  0  0
    4.8454    3.6867    0.0000 O   0  0  0  0  0  0  0  0  0  0  0  0
    2.9042    2.7149    0.0000 O   0  0  0  0  0  0  0  0  0  0  0  0
    2.8522   -0.3336    0.0000 N   0  0  0  0  0  0  0  0  0  0  0  0
    3.7542   -0.8544    0.0000 C   0  0  1  0  0  0  0  0  0  0  0  0
    3.7459   -1.9393    0.0000 C   0  0  1  0  0  0  0  0  0  0  0  0
    5.6209   -1.9321    0.0000 C   0  0  2  0  0  0  0  0  0  0  0  0
    4.6855   -2.4818    0.0000 C   0  0  1  0  0  0  0  0  0  0  0  0
    4.6523   -0.3266    0.0000 C   0  0  0  0  0  0  0  0  0  0  0  0
    7.3529   -1.9121    0.0000 C   0  0  2  0  0  0  0  0  0  0  0  0
    8.2246   -2.4020    0.0000 C   0  0  1  0  0  0  0  0  0  0  0  0
    9.0848   -1.8920    0.0000 C   0  0  2  0  0  0  0  0  0  0  0  0
    5.6042   -0.8472    0.0000 C   0  0  0  0  0  0  0  0  0  0  0  0
    9.0732   -0.8921    0.0000 C   0  0  1  0  0  0  0  0  0  0  0  0
    8.2015   -0.4022    0.0000 C   0  0  1  0  0  0  0  0  0  0  0  0
    4.6362    0.7149    0.0000 C   0  0  0  0  0  0  0  0  0  0  0  0
    3.7702    1.2149    0.0000 C   0  0  0  0  0  0  0  0  0  0  0  0
    2.8602    0.7080    0.0000 C   0  0  0  0  0  0  0  0  0  0  0  0
    8.1899    0.5978    0.0000 C   0  0  0  0  0  0  0  0  0  0  0  0
    5.5022    1.2149    0.0000 C   0  0  0  0  0  0  0  0  0  0  0  0
    3.7702    2.2149    0.0000 C   0  0  0  0  0  0  0  0  0  0  0  0
    5.5022    2.2149    0.0000 C   0  0  0  0  0  0  0  0  0  0  0  0
    4.6362    2.7149    0.0000 C   0  0  0  0  0  0  0  0  0  0  0  0
    5.8341    3.7898    0.0000 C   0  0  0  0  0  0  0  0  0  0  0  0
    3.0165   -1.2765    0.0000 H   0  0  0  0  0  0  0  0  0  0  0  0
    3.2107   -1.6262    0.0000 H   0  0  0  0  0  0  0  0  0  0  0  0
    6.1536   -1.6149    0.0000 H   0  0  0  0  0  0  0  0  0  0  0  0
    4.1492   -2.7929    0.0000 H   0  0  0  0  0  0  0  0  0  0  0  0
    7.3600   -2.5320    0.0000 H   0  0  0  0  0  0  0  0  0  0  0  0
    8.7651   -2.7058    0.0000 H   0  0  0  0  0  0  0  0  0  0  0  0
    9.6181   -1.5759    0.0000 H   0  0  0  0  0  0  0  0  0  0  0  0
    6.1351   -0.5270    0.0000 H   0  0  0  0  0  0  0  0  0  0  0  0
    9.6137   -1.1959    0.0000 H   0  0  0  0  0  0  0  0  0  0  0  0
    7.6610   -0.0984    0.0000 H   0  0  0  0  0  0  0  0  0  0  0  0
    2.3140   -0.6415    0.0000 H   0  0  0  0  0  0  0  0  0  0  0  0
    7.9712    1.1779    0.0000 H   0  0  0  0  0  0  0  0  0  0  0  0
    7.5806    0.4830    0.0000 H   0  0  0  0  0  0  0  0  0  0  0  0
    2.8755   -3.0560    0.0000 H   0  0  0  0  0  0  0  0  0  0  0  0
    5.2275   -3.7898    0.0000 H   0  0  0  0  0  0  0  0  0  0  0  0
    6.0392    0.9049    0.0000 H   0  0  0  0  0  0  0  0  0  0  0  0
    8.7767   -3.7057    0.0000 H   0  0  0  0  0  0  0  0  0  0  0  0
   10.4899   -2.0658    0.0000 H   0  0  0  0  0  0  0  0  0  0  0  0
   10.4739   -0.6859    0.0000 H   0  0  0  0  0  0  0  0  0  0  0  0
    9.0429    1.7277    0.0000 H   0  0  0  0  0  0  0  0  0  0  0  0
    6.4237    3.9815    0.0000 H   0  0  0  0  0  0  0  0  0  0  0  0
    5.7054    4.3962    0.0000 H   0  0  0  0  0  0  0  0  0  0  0  0
    2.9042    3.3349    0.0000 H   0  0  0  0  0  0  0  0  0  0  0  0
 16  1  1  6  0  0  0
 19  1  1  6  0  0  0
  2 19  1  0  0  0  0
  2 24  1  0  0  0  0
 15  3  1  1  0  0  0
  3 47  1  0  0  0  0
 17  4  1  1  0  0  0
  4 48  1  0  0  0  0
 20  5  1  1  0  0  0
  5 50  1  0  0  0  0
 21  6  1  6  0  0  0
  6 51  1  0  0  0  0
 23  7  1  1  0  0  0
  7 52  1  0  0  0  0
  8 28  1  0  0  0  0
  8 53  1  0  0  0  0
  9 27  2  0  0  0  0
 10 31  1  0  0  0  0
 10 33  1  0  0  0  0
 11 32  1  0  0  0  0
 11 33  1  0  0  0  0
 12 30  1  0  0  0  0
 12 56  1  0  0  0  0
 13 14  1  0  0  0  0
 13 27  1  0  0  0  0
 13 44  1  0  0  0  0
 14 15  1  0  0  0  0
 14 18  1  0  0  0  0
 14 34  1  1  0  0  0
 15 17  1  0  0  0  0
 15 35  1  0  0  0  0
 16 17  1  0  0  0  0
 16 22  1  0  0  0  0
 16 36  1  0  0  0  0
 17 37  1  0  0  0  0
 18 22  2  0  0  0  0
 18 25  1  0  0  0  0
 19 20  1  0  0  0  0
 19 38  1  0  0  0  0
 20 21  1  0  0  0  0
 20 39  1  0  0  0  0
 21 23  1  0  0  0  0
 21 40  1  0  0  0  0
 22 41  1  0  0  0  0
 23 24  1  0  0  0  0
 23 42  1  0  0  0  0
 24 28  1  6  0  0  0
 24 43  1  0  0  0  0
 25 26  1  0  0  0  0
 25 29  2  0  0  0  0
 26 27  1  0  0  0  0
 26 30  2  0  0  0  0
 28 45  1  0  0  0  0
 28 46  1  0  0  0  0
 29 31  1  0  0  0  0
 29 49  1  0  0  0  0
 30 32  1  0  0  0  0
 31 32  2  0  0  0  0
 33 54  1  0  0  0  0
 33 55  1  0  0  0  0
M  END
> <PUBCHEM_COMPOUND_CID>
441595

> <PUBCHEM_COMPOUND_CANONICALIZED>
1

> <PUBCHEM_CACTVS_COMPLEXITY>
795

> <PUBCHEM_CACTVS_HBOND_ACCEPTOR>
12

> <PUBCHEM_CACTVS_HBOND_DONOR>
8

> <PUBCHEM_CACTVS_ROTATABLE_BOND>
3

> <PUBCHEM_CACTVS_SUBSKEYS>
AAADceB6PAAAAAAAAAAAAAAAAAAAASAAAAA8SIEAAAAAAEixAAAAHgAQCAAADDzxmAcwDoLABgCIAiFSEACCCAAkIAAAiIEOjMgfNzaGtRumcWtn9hWfuQf6/f/eoAABCAAYQABAAAIQADCAAAAAAAAAAA==

> <PUBCHEM_IUPAC_OPENEYE_NAME>
(2S,3S,4S,4aR)-3,4,7-trihydroxy-2-[(2R,3R,4S,5S,6R)-3,4,5-trihydroxy-6-(hydroxymethyl)tetrahydropyran-2-yl]oxy-3,4,4a,5-tetrahydro-2H-[1,3]dioxolo[4,5-j]phenanthridin-6-one

> <PUBCHEM_IUPAC_CAS_NAME>
(2S,3S,4S,4aR)-3,4,7-trihydroxy-2-[[(2R,3R,4S,5S,6R)-3,4,5-trihydroxy-6-(hydroxymethyl)-2-oxanyl]oxy]-3,4,4a,5-tetrahydro-2H-[1,3]dioxolo[4,5-j]phenanthridin-6-one

> <PUBCHEM_IUPAC_NAME>
(2S,3S,4S,4aR)-3,4,7-trihydroxy-2-[(2R,3R,4S,5S,6R)-3,4,5-trihydroxy-6-(hydroxymethyl)oxan-2-yl]oxy-3,4,4a,5-tetrahydro-2H-[1,3]dioxolo[4,5-j]phenanthridin-6-one

> <PUBCHEM_IUPAC_SYSTEMATIC_NAME>
(2S,3S,4S,4aR)-2-[(2R,3R,4S,5S,6R)-6-(hydroxymethyl)-3,4,5-tris(oxidanyl)oxan-2-yl]oxy-3,4,7-tris(oxidanyl)-3,4,4a,5-tetrahydro-2H-[1,3]dioxolo[4,5-j]phenanthridin-6-one

> <PUBCHEM_IUPAC_TRADITIONAL_NAME>
(2S,3S,4S,4aR)-3,4,7-trihydroxy-2-[(2R,3R,4S,5S,6R)-3,4,5-trihydroxy-6-methylol-tetrahydropyran-2-yl]oxy-3,4,4a,5-tetrahydro-2H-[1,3]dioxolo[4,5-j]phenanthridin-6-one

> <PUBCHEM_IUPAC_INCHI>
InChI=1S/C20H23NO12/c22-3-9-13(24)16(27)17(28)20(33-9)32-7-2-6-5-1-8-18(31-4-30-8)14(25)10(5)19(29)21-11(6)15(26)12(7)23/h1-2,7,9,11-13,15-17,20,22-28H,3-4H2,(H,21,29)/t7-,9+,11+,12+,13+,15-,16-,17+,20+/m0/s1

> <PUBCHEM_IUPAC_INCHIKEY>
SHDYPIISBMIEEN-IVALFBGTSA-N

> <PUBCHEM_XLOGP3_AA>
-2.8

> <PUBCHEM_EXACT_MASS>
469.122025

> <PUBCHEM_MOLECULAR_FORMULA>
C20H23NO12

> <PUBCHEM_MOLECULAR_WEIGHT>
469.39612

> <PUBCHEM_OPENEYE_CAN_SMILES>
C1OC2=C(O1)C(=C3C(=C2)C4=CC(C(C(C4NC3=O)O)O)OC5C(C(C(C(O5)CO)O)O)O)O

> <PUBCHEM_OPENEYE_ISO_SMILES>
C1OC2=C(O1)C(=C3C(=C2)C4=C[C@@H]([C@H]([C@H]([C@@H]4NC3=O)O)O)O[C@H]5[C@@H]([C@H]([C@@H]([C@H](O5)CO)O)O)O)O

> <PUBCHEM_CACTVS_TPSA>
208

> <PUBCHEM_MONOISOTOPIC_WEIGHT>
469.122025

> <PUBCHEM_TOTAL_CHARGE>
0

> <PUBCHEM_HEAVY_ATOM_COUNT>
33

> <PUBCHEM_ATOM_DEF_STEREO_COUNT>
9

> <PUBCHEM_ATOM_UDEF_STEREO_COUNT>
0

> <PUBCHEM_BOND_DEF_STEREO_COUNT>
0

> <PUBCHEM_BOND_UDEF_STEREO_COUNT>
0

> <PUBCHEM_ISOTOPIC_ATOM_COUNT>
0

> <PUBCHEM_COMPONENT_COUNT>
1

> <PUBCHEM_CACTVS_TAUTO_COUNT>
5

> <PUBCHEM_COORDINATE_TYPE>
1
5
255

> <PUBCHEM_BONDANNOTATIONS>
16  1  6
19  1  6
14  34  5
24  28  6
25  26  8
25  29  8
26  30  8
29  31  8
15  3  5
30  32  8
31  32  8
17  4  5
20  5  5
21  6  6
23  7  5

$$$$

