17396073
  -OEChem-06241222542D

 47 49  0     1  0  0  0  0  0999 V2000
    6.3582    0.1209    0.0000 S   0  0  0  0  0  0  0  0  0  0  0  0
    8.2603   -0.4971    0.0000 O   0  0  0  0  0  0  0  0  0  0  0  0
    7.8249    2.6447    0.0000 O   0  0  0  0  0  0  0  0  0  0  0  0
    8.7955    1.1502    0.0000 N   0  0  0  0  0  0  0  0  0  0  0  0
    4.5981   -0.1579    0.0000 N   0  0  0  0  0  0  0  0  0  0  0  0
    9.6045    2.5514    0.0000 N   0  0  0  0  0  0  0  0  0  0  0  0
    5.0981    1.3810    0.0000 N   0  0  0  0  0  0  0  0  0  0  0  0
    9.7736    0.9422    0.0000 C   0  0  0  0  0  0  0  0  0  0  0  0
    2.8660   -1.1579    0.0000 C   0  0  0  0  0  0  0  0  0  0  0  0
   10.2736    1.8083    0.0000 C   0  0  0  0  0  0  0  0  0  0  0  0
    3.7320   -1.6579    0.0000 C   0  0  0  0  0  0  0  0  0  0  0  0
    7.1013    0.7900    0.0000 C   0  0  3  0  0  0  0  0  0  0  0  0
    4.5981   -1.1579    0.0000 C   0  0  0  0  0  0  0  0  0  0  0  0
    8.0524    0.4810    0.0000 C   0  0  0  0  0  0  0  0  0  0  0  0
    8.6910    2.1447    0.0000 C   0  0  0  0  0  0  0  0  0  0  0  0
    5.4071    0.4299    0.0000 C   0  0  0  0  0  0  0  0  0  0  0  0
    2.0000   -1.6579    0.0000 C   0  0  0  0  0  0  0  0  0  0  0  0
    2.8660   -0.1579    0.0000 C   0  0  0  0  0  0  0  0  0  0  0  0
    3.7320   -2.6579    0.0000 C   0  0  0  0  0  0  0  0  0  0  0  0
    5.4641   -1.6579    0.0000 C   0  0  0  0  0  0  0  0  0  0  0  0
    6.8934    1.7682    0.0000 C   0  0  0  0  0  0  0  0  0  0  0  0
    3.7891    0.4299    0.0000 C   0  0  0  0  0  0  0  0  0  0  0  0
    4.5981   -3.1579    0.0000 C   0  0  0  0  0  0  0  0  0  0  0  0
    5.4641   -2.6579    0.0000 C   0  0  0  0  0  0  0  0  0  0  0  0
    4.0981    1.3810    0.0000 C   0  0  0  0  0  0  0  0  0  0  0  0
    9.5820    0.3526    0.0000 H   0  0  0  0  0  0  0  0  0  0  0  0
   10.3400    0.6901    0.0000 H   0  0  0  0  0  0  0  0  0  0  0  0
    2.8660   -1.7779    0.0000 H   0  0  0  0  0  0  0  0  0  0  0  0
   10.7752    1.4438    0.0000 H   0  0  0  0  0  0  0  0  0  0  0  0
   10.6885    2.2690    0.0000 H   0  0  0  0  0  0  0  0  0  0  0  0
    6.5116    0.9816    0.0000 H   0  0  0  0  0  0  0  0  0  0  0  0
    9.7334    3.1579    0.0000 H   0  0  0  0  0  0  0  0  0  0  0  0
    3.4860   -0.1579    0.0000 H   0  0  0  0  0  0  0  0  0  0  0  0
    1.6900   -1.1209    0.0000 H   0  0  0  0  0  0  0  0  0  0  0  0
    1.4631   -1.9679    0.0000 H   0  0  0  0  0  0  0  0  0  0  0  0
    2.3100   -2.1948    0.0000 H   0  0  0  0  0  0  0  0  0  0  0  0
    2.8660    0.4621    0.0000 H   0  0  0  0  0  0  0  0  0  0  0  0
    2.2460   -0.1579    0.0000 H   0  0  0  0  0  0  0  0  0  0  0  0
    3.1951   -2.9679    0.0000 H   0  0  0  0  0  0  0  0  0  0  0  0
    6.0010   -1.3479    0.0000 H   0  0  0  0  0  0  0  0  0  0  0  0
    7.4998    1.8971    0.0000 H   0  0  0  0  0  0  0  0  0  0  0  0
    6.7645    2.3746    0.0000 H   0  0  0  0  0  0  0  0  0  0  0  0
    6.2869    1.6393    0.0000 H   0  0  0  0  0  0  0  0  0  0  0  0
    3.1994    0.2383    0.0000 H   0  0  0  0  0  0  0  0  0  0  0  0
    4.5981   -3.7779    0.0000 H   0  0  0  0  0  0  0  0  0  0  0  0
    6.0010   -2.9679    0.0000 H   0  0  0  0  0  0  0  0  0  0  0  0
    3.7336    1.8826    0.0000 H   0  0  0  0  0  0  0  0  0  0  0  0
  1 12  1  0  0  0  0
  1 16  1  0  0  0  0
  2 14  2  0  0  0  0
  3 15  2  0  0  0  0
  4  8  1  0  0  0  0
  4 14  1  0  0  0  0
  4 15  1  0  0  0  0
  5 13  1  0  0  0  0
  5 16  1  0  0  0  0
  5 22  1  0  0  0  0
  6 10  1  0  0  0  0
  6 15  1  0  0  0  0
  6 32  1  0  0  0  0
  7 16  2  0  0  0  0
  7 25  1  0  0  0  0
  8 10  1  0  0  0  0
  8 26  1  0  0  0  0
  8 27  1  0  0  0  0
  9 11  1  0  0  0  0
  9 17  1  0  0  0  0
  9 18  1  0  0  0  0
  9 28  1  0  0  0  0
 10 29  1  0  0  0  0
 10 30  1  0  0  0  0
 11 13  1  0  0  0  0
 11 19  2  0  0  0  0
 12 14  1  0  0  0  0
 12 21  1  0  0  0  0
 12 31  1  0  0  0  0
 13 20  2  0  0  0  0
 17 34  1  0  0  0  0
 17 35  1  0  0  0  0
 17 36  1  0  0  0  0
 18 33  1  0  0  0  0
 18 37  1  0  0  0  0
 18 38  1  0  0  0  0
 19 23  1  0  0  0  0
 19 39  1  0  0  0  0
 20 24  1  0  0  0  0
 20 40  1  0  0  0  0
 21 41  1  0  0  0  0
 21 42  1  0  0  0  0
 21 43  1  0  0  0  0
 22 25  2  0  0  0  0
 22 44  1  0  0  0  0
 23 24  2  0  0  0  0
 23 45  1  0  0  0  0
 24 46  1  0  0  0  0
 25 47  1  0  0  0  0
M  END
> <PUBCHEM_COMPOUND_CID>
17396073

> <PUBCHEM_COMPOUND_CANONICALIZED>
1

> <PUBCHEM_CACTVS_COMPLEXITY>
502

> <PUBCHEM_CACTVS_HBOND_ACCEPTOR>
4

> <PUBCHEM_CACTVS_HBOND_DONOR>
1

> <PUBCHEM_CACTVS_ROTATABLE_BOND>
5

> <PUBCHEM_CACTVS_SUBSKEYS>
AAADceB7sABAAAAAAAAAAAAAAAAAAWLAAAAwAAAAAAAAAAABwAAAHgQQAAAADQjF2gS/0JfMEAioAjV3dACC0C1xErAJyIEYdIiIaGLAmZGUIAholyLIyCcQgMAOgAAAAAACAAAAAAAAAAQAAAAAAAAAAA==

> <PUBCHEM_IUPAC_OPENEYE_NAME>
1-[2-[1-(2-isopropylphenyl)imidazol-2-yl]sulfanylpropanoyl]imidazolidin-2-one

> <PUBCHEM_IUPAC_CAS_NAME>
1-[1-oxo-2-[[1-(2-propan-2-ylphenyl)-2-imidazolyl]thio]propyl]-2-imidazolidinone

> <PUBCHEM_IUPAC_NAME>
1-[2-[1-(2-propan-2-ylphenyl)imidazol-2-yl]sulfanylpropanoyl]imidazolidin-2-one

> <PUBCHEM_IUPAC_SYSTEMATIC_NAME>
1-[2-[1-(2-propan-2-ylphenyl)imidazol-2-yl]sulfanylpropanoyl]imidazolidin-2-one

> <PUBCHEM_IUPAC_TRADITIONAL_NAME>
1-[2-[(1-o-cumenylimidazol-2-yl)thio]propanoyl]-2-imidazolidinone

> <PUBCHEM_IUPAC_INCHI>
InChI=1S/C18H22N4O2S/c1-12(2)14-6-4-5-7-15(14)21-10-9-20-18(21)25-13(3)16(23)22-11-8-19-17(22)24/h4-7,9-10,12-13H,8,11H2,1-3H3,(H,19,24)

> <PUBCHEM_IUPAC_INCHIKEY>
OHTWODPLSVCJBM-UHFFFAOYSA-N

> <PUBCHEM_XLOGP3_AA>
3

> <PUBCHEM_EXACT_MASS>
358.146347

> <PUBCHEM_MOLECULAR_FORMULA>
C18H22N4O2S

> <PUBCHEM_MOLECULAR_WEIGHT>
358.45788

> <PUBCHEM_OPENEYE_CAN_SMILES>
CC(C)C1=CC=CC=C1N2C=CN=C2SC(C)C(=O)N3CCNC3=O

> <PUBCHEM_OPENEYE_ISO_SMILES>
CC(C)C1=CC=CC=C1N2C=CN=C2SC(C)C(=O)N3CCNC3=O

> <PUBCHEM_CACTVS_TPSA>
92.5

> <PUBCHEM_MONOISOTOPIC_WEIGHT>
358.146347

> <PUBCHEM_TOTAL_CHARGE>
0

> <PUBCHEM_HEAVY_ATOM_COUNT>
25

> <PUBCHEM_ATOM_DEF_STEREO_COUNT>
0

> <PUBCHEM_ATOM_UDEF_STEREO_COUNT>
1

> <PUBCHEM_BOND_DEF_STEREO_COUNT>
0

> <PUBCHEM_BOND_UDEF_STEREO_COUNT>
0

> <PUBCHEM_ISOTOPIC_ATOM_COUNT>
0

> <PUBCHEM_COMPONENT_COUNT>
1

> <PUBCHEM_CACTVS_TAUTO_COUNT>
2

> <PUBCHEM_COORDINATE_TYPE>
1
5
255

> <PUBCHEM_BONDANNOTATIONS>
11  13  8
11  19  8
12  21  3
13  20  8
19  23  8
20  24  8
22  25  8
23  24  8
5  16  8
5  22  8
7  16  8
7  25  8

$$$$

