17395726
  -OEChem-06241222522D

 41 43  0     0  0  0  0  0  0999 V2000
    2.5000    0.6315    0.0000 O   0  0  0  0  0  0  0  0  0  0  0  0
    5.3147   -0.5709    0.0000 O   0  0  0  0  0  0  0  0  0  0  0  0
    4.4487   -2.0709    0.0000 O   0  0  0  0  0  0  0  0  0  0  0  0
    7.9128    1.9291    0.0000 O   0  0  0  0  0  0  0  0  0  0  0  0
    7.9128   -1.0709    0.0000 N   0  0  0  0  0  0  0  0  0  0  0  0
    2.0000   -0.2345    0.0000 N   0  0  0  0  0  0  0  0  0  0  0  0
    7.0468    0.4291    0.0000 N   0  0  0  0  0  0  0  0  0  0  0  0
    4.2213    1.0928    0.0000 C   0  0  0  0  0  0  0  0  0  0  0  0
    3.4782    0.4236    0.0000 C   0  0  0  0  0  0  0  0  0  0  0  0
    3.5827   -0.5709    0.0000 C   0  0  0  0  0  0  0  0  0  0  0  0
    4.0134    2.0709    0.0000 C   0  0  0  0  0  0  0  0  0  0  0  0
    5.1724    0.7837    0.0000 C   0  0  0  0  0  0  0  0  0  0  0  0
    2.6691   -0.9776    0.0000 C   0  0  0  0  0  0  0  0  0  0  0  0
    4.4487   -1.0709    0.0000 C   0  0  0  0  0  0  0  0  0  0  0  0
    8.7788   -0.5709    0.0000 C   0  0  0  0  0  0  0  0  0  0  0  0
    7.0468   -0.5709    0.0000 C   0  0  0  0  0  0  0  0  0  0  0  0
    6.1808   -1.0709    0.0000 C   0  0  0  0  0  0  0  0  0  0  0  0
    8.7788    0.4291    0.0000 C   0  0  0  0  0  0  0  0  0  0  0  0
    2.4612   -1.9558    0.0000 C   0  0  0  0  0  0  0  0  0  0  0  0
    7.9128    0.9291    0.0000 C   0  0  0  0  0  0  0  0  0  0  0  0
    9.6728   -1.1056    0.0000 C   0  0  0  0  0  0  0  0  0  0  0  0
    9.6728    0.9638    0.0000 C   0  0  0  0  0  0  0  0  0  0  0  0
   10.5788   -0.5917    0.0000 C   0  0  0  0  0  0  0  0  0  0  0  0
   10.5788    0.4499    0.0000 C   0  0  0  0  0  0  0  0  0  0  0  0
    4.6820    1.5076    0.0000 H   0  0  0  0  0  0  0  0  0  0  0  0
    4.6198    2.1998    0.0000 H   0  0  0  0  0  0  0  0  0  0  0  0
    3.8845    2.6774    0.0000 H   0  0  0  0  0  0  0  0  0  0  0  0
    3.4069    1.9420    0.0000 H   0  0  0  0  0  0  0  0  0  0  0  0
    4.9808    0.1941    0.0000 H   0  0  0  0  0  0  0  0  0  0  0  0
    5.7620    0.5921    0.0000 H   0  0  0  0  0  0  0  0  0  0  0  0
    5.3639    1.3734    0.0000 H   0  0  0  0  0  0  0  0  0  0  0  0
    5.7822   -1.5458    0.0000 H   0  0  0  0  0  0  0  0  0  0  0  0
    6.5793   -1.5458    0.0000 H   0  0  0  0  0  0  0  0  0  0  0  0
    7.9128   -1.6909    0.0000 H   0  0  0  0  0  0  0  0  0  0  0  0
    1.8548   -1.8269    0.0000 H   0  0  0  0  0  0  0  0  0  0  0  0
    2.3323   -2.5622    0.0000 H   0  0  0  0  0  0  0  0  0  0  0  0
    3.0677   -2.0847    0.0000 H   0  0  0  0  0  0  0  0  0  0  0  0
    9.6656   -1.7255    0.0000 H   0  0  0  0  0  0  0  0  0  0  0  0
    9.6656    1.5837    0.0000 H   0  0  0  0  0  0  0  0  0  0  0  0
   11.1146   -0.9038    0.0000 H   0  0  0  0  0  0  0  0  0  0  0  0
   11.1146    0.7620    0.0000 H   0  0  0  0  0  0  0  0  0  0  0  0
  1  6  1  0  0  0  0
  1  9  1  0  0  0  0
  2 14  1  0  0  0  0
  2 17  1  0  0  0  0
  3 14  2  0  0  0  0
  4 20  2  0  0  0  0
  5 15  1  0  0  0  0
  5 16  1  0  0  0  0
  5 34  1  0  0  0  0
  6 13  2  0  0  0  0
  7 16  2  0  0  0  0
  7 20  1  0  0  0  0
  8  9  1  0  0  0  0
  8 11  1  0  0  0  0
  8 12  1  0  0  0  0
  8 25  1  0  0  0  0
  9 10  2  0  0  0  0
 10 13  1  0  0  0  0
 10 14  1  0  0  0  0
 11 26  1  0  0  0  0
 11 27  1  0  0  0  0
 11 28  1  0  0  0  0
 12 29  1  0  0  0  0
 12 30  1  0  0  0  0
 12 31  1  0  0  0  0
 13 19  1  0  0  0  0
 15 18  1  0  0  0  0
 15 21  2  0  0  0  0
 16 17  1  0  0  0  0
 17 32  1  0  0  0  0
 17 33  1  0  0  0  0
 18 20  1  0  0  0  0
 18 22  2  0  0  0  0
 19 35  1  0  0  0  0
 19 36  1  0  0  0  0
 19 37  1  0  0  0  0
 21 23  1  0  0  0  0
 21 38  1  0  0  0  0
 22 24  1  0  0  0  0
 22 39  1  0  0  0  0
 23 24  2  0  0  0  0
 23 40  1  0  0  0  0
 24 41  1  0  0  0  0
M  END
> <PUBCHEM_COMPOUND_CID>
17395726

> <PUBCHEM_COMPOUND_CANONICALIZED>
1

> <PUBCHEM_CACTVS_COMPLEXITY>
534

> <PUBCHEM_CACTVS_HBOND_ACCEPTOR>
5

> <PUBCHEM_CACTVS_HBOND_DONOR>
1

> <PUBCHEM_CACTVS_ROTATABLE_BOND>
5

> <PUBCHEM_CACTVS_SUBSKEYS>
AAADceB7OAAAAAAAAAAAAAAAAAAAAWAAAAAwQAAAAAAAAACBwAAAHgAUAAAADQyhngIzzJLQBACpA6fyfgSCAAElIgApmCE0bNoKJz7I/ZuHMchnsBjY6ceYiACOAAAAAAACAAAAAAAAAAQAAAAAAAAAAA==

> <PUBCHEM_IUPAC_OPENEYE_NAME>
(4-oxo-1H-quinazolin-2-yl)methyl 5-isopropyl-3-methyl-isoxazole-4-carboxylate

> <PUBCHEM_IUPAC_CAS_NAME>
3-methyl-5-propan-2-yl-4-isoxazolecarboxylic acid (4-oxo-1H-quinazolin-2-yl)methyl ester

> <PUBCHEM_IUPAC_NAME>
(4-oxo-1H-quinazolin-2-yl)methyl 3-methyl-5-propan-2-yl-1,2-oxazole-4-carboxylate

> <PUBCHEM_IUPAC_SYSTEMATIC_NAME>
(4-oxidanylidene-1H-quinazolin-2-yl)methyl 3-methyl-5-propan-2-yl-1,2-oxazole-4-carboxylate

> <PUBCHEM_IUPAC_TRADITIONAL_NAME>
5-isopropyl-3-methyl-isoxazole-4-carboxylic acid (4-keto-1H-quinazolin-2-yl)methyl ester

> <PUBCHEM_IUPAC_INCHI>
InChI=1S/C17H17N3O4/c1-9(2)15-14(10(3)20-24-15)17(22)23-8-13-18-12-7-5-4-6-11(12)16(21)19-13/h4-7,9H,8H2,1-3H3,(H,18,19,21)

> <PUBCHEM_IUPAC_INCHIKEY>
MECRPELYLZGADD-UHFFFAOYSA-N

> <PUBCHEM_XLOGP3_AA>
2.3

> <PUBCHEM_EXACT_MASS>
327.121906

> <PUBCHEM_MOLECULAR_FORMULA>
C17H17N3O4

> <PUBCHEM_MOLECULAR_WEIGHT>
327.33458

> <PUBCHEM_OPENEYE_CAN_SMILES>
CC1=NOC(=C1C(=O)OCC2=NC(=O)C3=CC=CC=C3N2)C(C)C

> <PUBCHEM_OPENEYE_ISO_SMILES>
CC1=NOC(=C1C(=O)OCC2=NC(=O)C3=CC=CC=C3N2)C(C)C

> <PUBCHEM_CACTVS_TPSA>
93.8

> <PUBCHEM_MONOISOTOPIC_WEIGHT>
327.121906

> <PUBCHEM_TOTAL_CHARGE>
0

> <PUBCHEM_HEAVY_ATOM_COUNT>
24

> <PUBCHEM_ATOM_DEF_STEREO_COUNT>
0

> <PUBCHEM_ATOM_UDEF_STEREO_COUNT>
0

> <PUBCHEM_BOND_DEF_STEREO_COUNT>
0

> <PUBCHEM_BOND_UDEF_STEREO_COUNT>
0

> <PUBCHEM_ISOTOPIC_ATOM_COUNT>
0

> <PUBCHEM_COMPONENT_COUNT>
1

> <PUBCHEM_CACTVS_TAUTO_COUNT>
10

> <PUBCHEM_COORDINATE_TYPE>
1
5
255

> <PUBCHEM_BONDANNOTATIONS>
1  6  8
1  9  8
10  13  8
15  18  8
15  21  8
18  20  8
18  22  8
21  23  8
22  24  8
23  24  8
5  15  8
5  16  8
6  13  8
7  16  8
7  20  8
9  10  8

$$$$

