31343
  -OEChem-07051213132D

 31 30  0     1  0  0  0  0  0999 V2000
    2.0000    2.3170    0.0000 Cl  0  0  0  0  0  0  0  0  0  0  0  0
    2.3660    0.9510    0.0000 Cl  0  0  0  0  0  0  0  0  0  0  0  0
    3.3660    2.6830    0.0000 Cl  0  0  0  0  0  0  0  0  0  0  0  0
    4.5981    1.8170    0.0000 P   0  0  0  0  0  0  0  0  0  0  0  0
    3.7320    0.3170    0.0000 O   0  0  0  0  0  0  0  0  0  0  0  0
    5.4641    2.3170    0.0000 O   0  0  0  0  0  0  0  0  0  0  0  0
    5.0981    0.9510    0.0000 O   0  0  0  0  0  0  0  0  0  0  0  0
    4.0981    2.6830    0.0000 O   0  0  0  0  0  0  0  0  0  0  0  0
    2.0000    0.3170    0.0000 O   0  0  0  0  0  0  0  0  0  0  0  0
    3.7320    1.3170    0.0000 C   0  0  3  0  0  0  0  0  0  0  0  0
    2.8660    1.8170    0.0000 C   0  0  0  0  0  0  0  0  0  0  0  0
    2.8660   -1.1830    0.0000 C   0  0  0  0  0  0  0  0  0  0  0  0
    2.8660   -0.1830    0.0000 C   0  0  0  0  0  0  0  0  0  0  0  0
    2.0000   -1.6830    0.0000 C   0  0  0  0  0  0  0  0  0  0  0  0
    2.0000   -2.6830    0.0000 C   0  0  0  0  0  0  0  0  0  0  0  0
    6.3301    1.8170    0.0000 C   0  0  0  0  0  0  0  0  0  0  0  0
    6.0981    0.9510    0.0000 C   0  0  0  0  0  0  0  0  0  0  0  0
    3.1951    1.0070    0.0000 H   0  0  0  0  0  0  0  0  0  0  0  0
    3.0781   -1.7656    0.0000 H   0  0  0  0  0  0  0  0  0  0  0  0
    3.4766   -1.0754    0.0000 H   0  0  0  0  0  0  0  0  0  0  0  0
    1.7880   -1.1004    0.0000 H   0  0  0  0  0  0  0  0  0  0  0  0
    1.3894   -1.7907    0.0000 H   0  0  0  0  0  0  0  0  0  0  0  0
    1.3800   -2.6830    0.0000 H   0  0  0  0  0  0  0  0  0  0  0  0
    2.0000   -3.3030    0.0000 H   0  0  0  0  0  0  0  0  0  0  0  0
    2.6200   -2.6830    0.0000 H   0  0  0  0  0  0  0  0  0  0  0  0
    6.0981    0.3310    0.0000 H   0  0  0  0  0  0  0  0  0  0  0  0
    6.7181    0.9510    0.0000 H   0  0  0  0  0  0  0  0  0  0  0  0
    6.0981    1.5710    0.0000 H   0  0  0  0  0  0  0  0  0  0  0  0
    6.0201    1.2800    0.0000 H   0  0  0  0  0  0  0  0  0  0  0  0
    6.8671    1.5070    0.0000 H   0  0  0  0  0  0  0  0  0  0  0  0
    6.6401    2.3539    0.0000 H   0  0  0  0  0  0  0  0  0  0  0  0
  1 11  1  0  0  0  0
  2 11  1  0  0  0  0
  3 11  1  0  0  0  0
  4  6  1  0  0  0  0
  4  7  1  0  0  0  0
  4  8  2  0  0  0  0
  4 10  1  0  0  0  0
  5 10  1  0  0  0  0
  5 13  1  0  0  0  0
  6 16  1  0  0  0  0
  7 17  1  0  0  0  0
  9 13  2  0  0  0  0
 10 11  1  0  0  0  0
 10 18  1  0  0  0  0
 12 13  1  0  0  0  0
 12 14  1  0  0  0  0
 12 19  1  0  0  0  0
 12 20  1  0  0  0  0
 14 15  1  0  0  0  0
 14 21  1  0  0  0  0
 14 22  1  0  0  0  0
 15 23  1  0  0  0  0
 15 24  1  0  0  0  0
 15 25  1  0  0  0  0
 16 29  1  0  0  0  0
 16 30  1  0  0  0  0
 16 31  1  0  0  0  0
 17 26  1  0  0  0  0
 17 27  1  0  0  0  0
 17 28  1  0  0  0  0
M  END
> <PUBCHEM_COMPOUND_CID>
31343

> <PUBCHEM_COMPOUND_CANONICALIZED>
1

> <PUBCHEM_CACTVS_COMPLEXITY>
296

> <PUBCHEM_CACTVS_HBOND_ACCEPTOR>
5

> <PUBCHEM_CACTVS_HBOND_DONOR>
0

> <PUBCHEM_CACTVS_ROTATABLE_BOND>
7

> <PUBCHEM_CACTVS_SUBSKEYS>
AAADccBwOAIGAAAAAAAAAAAAAAAAAAAAAAAAAAAAAAAAAAAAAAAAGgoAACAACAKogIICCAAABRAIQACQCIAAAAAAAAAAAAEAAQAAABAAAAACAAAEAAAAAAAAAAAAAAAAAAAAAAAAAAAAAAAAAAAAAAAAAA==

> <PUBCHEM_IUPAC_OPENEYE_NAME>
(2,2,2-trichloro-1-dimethoxyphosphoryl-ethyl) butanoate

> <PUBCHEM_IUPAC_CAS_NAME>
butanoic acid (2,2,2-trichloro-1-dimethoxyphosphorylethyl) ester

> <PUBCHEM_IUPAC_NAME>
(2,2,2-trichloro-1-dimethoxyphosphorylethyl) butanoate

> <PUBCHEM_IUPAC_SYSTEMATIC_NAME>
[2,2,2-tris(chloranyl)-1-dimethoxyphosphoryl-ethyl] butanoate

> <PUBCHEM_IUPAC_TRADITIONAL_NAME>
butyric acid (2,2,2-trichloro-1-dimethoxyphosphoryl-ethyl) ester

> <PUBCHEM_IUPAC_INCHI>
InChI=1S/C8H14Cl3O5P/c1-4-5-6(12)16-7(8(9,10)11)17(13,14-2)15-3/h7H,4-5H2,1-3H3

> <PUBCHEM_IUPAC_INCHIKEY>
BKAQXYNWONVOAX-UHFFFAOYSA-N

> <PUBCHEM_XLOGP3_AA>
2.2

> <PUBCHEM_EXACT_MASS>
325.964443

> <PUBCHEM_MOLECULAR_FORMULA>
C8H14Cl3O5P

> <PUBCHEM_MOLECULAR_WEIGHT>
327.526522

> <PUBCHEM_OPENEYE_CAN_SMILES>
CCCC(=O)OC(C(Cl)(Cl)Cl)P(=O)(OC)OC

> <PUBCHEM_OPENEYE_ISO_SMILES>
CCCC(=O)OC(C(Cl)(Cl)Cl)P(=O)(OC)OC

> <PUBCHEM_CACTVS_TPSA>
61.8

> <PUBCHEM_MONOISOTOPIC_WEIGHT>
325.964443

> <PUBCHEM_TOTAL_CHARGE>
0

> <PUBCHEM_HEAVY_ATOM_COUNT>
17

> <PUBCHEM_ATOM_DEF_STEREO_COUNT>
0

> <PUBCHEM_ATOM_UDEF_STEREO_COUNT>
1

> <PUBCHEM_BOND_DEF_STEREO_COUNT>
0

> <PUBCHEM_BOND_UDEF_STEREO_COUNT>
0

> <PUBCHEM_ISOTOPIC_ATOM_COUNT>
0

> <PUBCHEM_COMPONENT_COUNT>
1

> <PUBCHEM_CACTVS_TAUTO_COUNT>
1

> <PUBCHEM_COORDINATE_TYPE>
1
5
255

> <PUBCHEM_BONDANNOTATIONS>
10  11  3

$$$$

