5281798
  -OEChem-07051212592D

 81 84  0     1  0  0  0  0  0999 V2000
    5.1350   -1.2500    0.0000 O   0  0  0  0  0  0  0  0  0  0  0  0
    6.8671   -0.2500    0.0000 O   0  0  0  0  0  0  0  0  0  0  0  0
    8.5991   -0.2500    0.0000 O   0  0  0  0  0  0  0  0  0  0  0  0
    4.2690    1.2500    0.0000 O   0  0  0  0  0  0  0  0  0  0  0  0
    4.2690   -2.7500    0.0000 O   0  0  0  0  0  0  0  0  0  0  0  0
    2.5369    0.2500    0.0000 O   0  0  0  0  0  0  0  0  0  0  0  0
    2.5369   -1.7500    0.0000 O   0  0  0  0  0  0  0  0  0  0  0  0
    6.8671    1.7500    0.0000 O   0  0  0  0  0  0  0  0  0  0  0  0
    8.5991    2.7500    0.0000 O   0  0  0  0  0  0  0  0  0  0  0  0
   10.3312    1.7500    0.0000 O   0  0  0  0  0  0  0  0  0  0  0  0
    4.2690   -4.7500    0.0000 O   0  0  0  0  0  0  0  0  0  0  0  0
    6.0010    1.2500    0.0000 O   0  0  0  0  0  0  0  0  0  0  0  0
    6.8671   -7.2500    0.0000 O   0  0  0  0  0  0  0  0  0  0  0  0
    8.5991   -6.2500    0.0000 O   0  0  0  0  0  0  0  0  0  0  0  0
    6.0010    6.2500    0.0000 O   0  0  0  0  0  0  0  0  0  0  0  0
    4.2690    7.2500    0.0000 O   0  0  0  0  0  0  0  0  0  0  0  0
    5.1350   -0.2500    0.0000 C   0  0  1  0  0  0  0  0  0  0  0  0
    4.2690    0.2500    0.0000 C   0  0  2  0  0  0  0  0  0  0  0  0
    3.4030   -0.2500    0.0000 C   0  0  1  0  0  0  0  0  0  0  0  0
    3.4030   -1.2500    0.0000 C   0  0  2  0  0  0  0  0  0  0  0  0
    4.2690   -1.7500    0.0000 C   0  0  1  0  0  0  0  0  0  0  0  0
    7.7331    0.2500    0.0000 C   0  0  2  0  0  0  0  0  0  0  0  0
    7.7331    1.2500    0.0000 C   0  0  1  0  0  0  0  0  0  0  0  0
    6.0010    0.2500    0.0000 C   0  0  0  0  0  0  0  0  0  0  0  0
    8.5991    1.7500    0.0000 C   0  0  1  0  0  0  0  0  0  0  0  0
    9.4651    1.2500    0.0000 C   0  0  2  0  0  0  0  0  0  0  0  0
    9.4651    0.2500    0.0000 C   0  0  2  0  0  0  0  0  0  0  0  0
   10.3312   -0.2500    0.0000 C   0  0  0  0  0  0  0  0  0  0  0  0
    5.1350   -3.2500    0.0000 C   0  0  0  0  0  0  0  0  0  0  0  0
    5.1350    1.7500    0.0000 C   0  0  0  0  0  0  0  0  0  0  0  0
    5.1350   -4.2500    0.0000 C   0  0  3  0  0  0  0  0  0  0  0  0
    6.0010   -4.7500    0.0000 C   0  0  0  0  0  0  0  0  0  0  0  0
    5.1350    2.7500    0.0000 C   0  0  0  0  0  0  0  0  0  0  0  0
    6.0010   -5.7500    0.0000 C   0  0  0  0  0  0  0  0  0  0  0  0
    6.8671   -4.2500    0.0000 C   0  0  0  0  0  0  0  0  0  0  0  0
    4.2690    3.2500    0.0000 C   0  0  0  0  0  0  0  0  0  0  0  0
    6.8671   -6.2500    0.0000 C   0  0  0  0  0  0  0  0  0  0  0  0
    7.7331   -4.7500    0.0000 C   0  0  0  0  0  0  0  0  0  0  0  0
    7.7331   -5.7500    0.0000 C   0  0  0  0  0  0  0  0  0  0  0  0
    4.2690    4.2500    0.0000 C   0  0  0  0  0  0  0  0  0  0  0  0
    5.1350    4.7500    0.0000 C   0  0  0  0  0  0  0  0  0  0  0  0
    3.4030    4.7500    0.0000 C   0  0  0  0  0  0  0  0  0  0  0  0
    5.1350    5.7500    0.0000 C   0  0  0  0  0  0  0  0  0  0  0  0
    3.4030    5.7500    0.0000 C   0  0  0  0  0  0  0  0  0  0  0  0
    4.2690    6.2500    0.0000 C   0  0  0  0  0  0  0  0  0  0  0  0
    5.6720   -0.5600    0.0000 H   0  0  0  0  0  0  0  0  0  0  0  0
    4.8059    0.5600    0.0000 H   0  0  0  0  0  0  0  0  0  0  0  0
    3.4030    0.3700    0.0000 H   0  0  0  0  0  0  0  0  0  0  0  0
    3.4030   -1.8700    0.0000 H   0  0  0  0  0  0  0  0  0  0  0  0
    3.7320   -2.0600    0.0000 H   0  0  0  0  0  0  0  0  0  0  0  0
    7.7331   -0.3700    0.0000 H   0  0  0  0  0  0  0  0  0  0  0  0
    7.7331    1.8700    0.0000 H   0  0  0  0  0  0  0  0  0  0  0  0
    6.3996    0.7249    0.0000 H   0  0  0  0  0  0  0  0  0  0  0  0
    5.6025    0.7249    0.0000 H   0  0  0  0  0  0  0  0  0  0  0  0
    8.0622    2.0600    0.0000 H   0  0  0  0  0  0  0  0  0  0  0  0
   10.0021    0.9400    0.0000 H   0  0  0  0  0  0  0  0  0  0  0  0
    9.4651   -0.3700    0.0000 H   0  0  0  0  0  0  0  0  0  0  0  0
   10.0212   -0.7869    0.0000 H   0  0  0  0  0  0  0  0  0  0  0  0
   10.8681   -0.5600    0.0000 H   0  0  0  0  0  0  0  0  0  0  0  0
   10.6412    0.2869    0.0000 H   0  0  0  0  0  0  0  0  0  0  0  0
    2.0000   -0.0600    0.0000 H   0  0  0  0  0  0  0  0  0  0  0  0
    2.5369   -2.3700    0.0000 H   0  0  0  0  0  0  0  0  0  0  0  0
    6.8671    2.3700    0.0000 H   0  0  0  0  0  0  0  0  0  0  0  0
    9.1360    3.0600    0.0000 H   0  0  0  0  0  0  0  0  0  0  0  0
    5.7456   -3.3577    0.0000 H   0  0  0  0  0  0  0  0  0  0  0  0
    5.3471   -2.6674    0.0000 H   0  0  0  0  0  0  0  0  0  0  0  0
   10.8681    1.4400    0.0000 H   0  0  0  0  0  0  0  0  0  0  0  0
    5.1350   -5.1000    0.0000 H   0  0  0  0  0  0  0  0  0  0  0  0
    5.6720    3.0600    0.0000 H   0  0  0  0  0  0  0  0  0  0  0  0
    4.2690   -5.3700    0.0000 H   0  0  0  0  0  0  0  0  0  0  0  0
    5.4641   -6.0600    0.0000 H   0  0  0  0  0  0  0  0  0  0  0  0
    6.8671   -3.6300    0.0000 H   0  0  0  0  0  0  0  0  0  0  0  0
    3.7320    2.9400    0.0000 H   0  0  0  0  0  0  0  0  0  0  0  0
    8.2700   -4.4400    0.0000 H   0  0  0  0  0  0  0  0  0  0  0  0
    5.6720    4.4400    0.0000 H   0  0  0  0  0  0  0  0  0  0  0  0
    2.8660    4.4400    0.0000 H   0  0  0  0  0  0  0  0  0  0  0  0
    6.3301   -7.5600    0.0000 H   0  0  0  0  0  0  0  0  0  0  0  0
    9.1360   -5.9400    0.0000 H   0  0  0  0  0  0  0  0  0  0  0  0
    2.8660    6.0600    0.0000 H   0  0  0  0  0  0  0  0  0  0  0  0
    6.0010    6.8700    0.0000 H   0  0  0  0  0  0  0  0  0  0  0  0
    3.7320    7.5600    0.0000 H   0  0  0  0  0  0  0  0  0  0  0  0
  1 17  1  0  0  0  0
  1 21  1  0  0  0  0
 22  2  1  1  0  0  0
  2 24  1  0  0  0  0
  3 22  1  0  0  0  0
  3 27  1  0  0  0  0
 18  4  1  6  0  0  0
  4 30  1  0  0  0  0
 21  5  1  1  0  0  0
  5 29  1  0  0  0  0
 19  6  1  1  0  0  0
  6 61  1  0  0  0  0
 20  7  1  6  0  0  0
  7 62  1  0  0  0  0
 23  8  1  6  0  0  0
  8 63  1  0  0  0  0
 25  9  1  6  0  0  0
  9 64  1  0  0  0  0
 26 10  1  1  0  0  0
 10 67  1  0  0  0  0
 11 31  1  0  0  0  0
 11 70  1  0  0  0  0
 12 30  2  0  0  0  0
 13 37  1  0  0  0  0
 13 77  1  0  0  0  0
 14 39  1  0  0  0  0
 14 78  1  0  0  0  0
 15 43  1  0  0  0  0
 15 80  1  0  0  0  0
 16 45  1  0  0  0  0
 16 81  1  0  0  0  0
 17 18  1  0  0  0  0
 17 24  1  1  0  0  0
 17 46  1  0  0  0  0
 18 19  1  0  0  0  0
 18 47  1  0  0  0  0
 19 20  1  0  0  0  0
 19 48  1  0  0  0  0
 20 21  1  0  0  0  0
 20 49  1  0  0  0  0
 21 50  1  0  0  0  0
 22 23  1  0  0  0  0
 22 51  1  0  0  0  0
 23 25  1  0  0  0  0
 23 52  1  0  0  0  0
 24 53  1  0  0  0  0
 24 54  1  0  0  0  0
 25 26  1  0  0  0  0
 25 55  1  0  0  0  0
 26 27  1  0  0  0  0
 26 56  1  0  0  0  0
 27 28  1  6  0  0  0
 27 57  1  0  0  0  0
 28 58  1  0  0  0  0
 28 59  1  0  0  0  0
 28 60  1  0  0  0  0
 29 31  1  0  0  0  0
 29 65  1  0  0  0  0
 29 66  1  0  0  0  0
 30 33  1  0  0  0  0
 31 32  1  0  0  0  0
 31 68  1  0  0  0  0
 32 34  2  0  0  0  0
 32 35  1  0  0  0  0
 33 36  2  0  0  0  0
 33 69  1  0  0  0  0
 34 37  1  0  0  0  0
 34 71  1  0  0  0  0
 35 38  2  0  0  0  0
 35 72  1  0  0  0  0
 36 40  1  0  0  0  0
 36 73  1  0  0  0  0
 37 39  2  0  0  0  0
 38 39  1  0  0  0  0
 38 74  1  0  0  0  0
 40 41  2  0  0  0  0
 40 42  1  0  0  0  0
 41 43  1  0  0  0  0
 41 75  1  0  0  0  0
 42 44  2  0  0  0  0
 42 76  1  0  0  0  0
 43 45  2  0  0  0  0
 44 45  1  0  0  0  0
 44 79  1  0  0  0  0
M  END
> <PUBCHEM_COMPOUND_CID>
5281798

> <PUBCHEM_COMPOUND_CANONICALIZED>
1

> <PUBCHEM_CACTVS_COMPLEXITY>
969

> <PUBCHEM_CACTVS_HBOND_ACCEPTOR>
16

> <PUBCHEM_CACTVS_HBOND_DONOR>
10

> <PUBCHEM_CACTVS_ROTATABLE_BOND>
11

> <PUBCHEM_CACTVS_SUBSKEYS>
AAADcfB4PgAAAAAAAAAAAAAAAAAAAAAAAAA0aIEAAAAAAAABQAAAGgAACAAADBSwmAMyDoAABgCIAiDSCAACAAAgIAAIiAAGiMgZNiKCMRKicAElwBEPuYfA4LwOIAABAAAAQABAAAIAAACAAAAAAAAAAA==

> <PUBCHEM_IUPAC_OPENEYE_NAME>
[(2R,3S,4R,5R,6R)-6-[2-(3,4-dihydroxyphenyl)-2-hydroxy-ethoxy]-4,5-dihydroxy-2-[[(2R,3R,4R,5R,6S)-3,4,5-trihydroxy-6-methyl-tetrahydropyran-2-yl]oxymethyl]tetrahydropyran-3-yl] (E)-3-(3,4-dihydroxyphenyl)prop-2-enoate

> <PUBCHEM_IUPAC_CAS_NAME>
(E)-3-(3,4-dihydroxyphenyl)-2-propenoic acid [(2R,3S,4R,5R,6R)-6-[2-(3,4-dihydroxyphenyl)-2-hydroxyethoxy]-4,5-dihydroxy-2-[[(2R,3R,4R,5R,6S)-3,4,5-trihydroxy-6-methyl-2-oxanyl]oxymethyl]-3-oxanyl] ester

> <PUBCHEM_IUPAC_NAME>
[(2R,3S,4R,5R,6R)-6-[2-(3,4-dihydroxyphenyl)-2-hydroxyethoxy]-4,5-dihydroxy-2-[[(2R,3R,4R,5R,6S)-3,4,5-trihydroxy-6-methyloxan-2-yl]oxymethyl]oxan-3-yl] (E)-3-(3,4-dihydroxyphenyl)prop-2-enoate

> <PUBCHEM_IUPAC_SYSTEMATIC_NAME>
[(2R,3S,4R,5R,6R)-6-[2-[3,4-bis(oxidanyl)phenyl]-2-oxidanyl-ethoxy]-2-[[(2R,3R,4R,5R,6S)-6-methyl-3,4,5-tris(oxidanyl)oxan-2-yl]oxymethyl]-4,5-bis(oxidanyl)oxan-3-yl] (E)-3-[3,4-bis(oxidanyl)phenyl]prop-2-enoate

> <PUBCHEM_IUPAC_TRADITIONAL_NAME>
(E)-3-(3,4-dihydroxyphenyl)acrylic acid [(2R,3S,4R,5R,6R)-6-[2-(3,4-dihydroxyphenyl)-2-hydroxy-ethoxy]-4,5-dihydroxy-2-[[(2R,3R,4R,5R,6S)-3,4,5-trihydroxy-6-methyl-tetrahydropyran-2-yl]oxymethyl]tetrahydropyran-3-yl] ester

> <PUBCHEM_IUPAC_INCHI>
InChI=1S/C29H36O16/c1-12-22(36)23(37)25(39)28(43-12)42-11-20-27(45-21(35)7-3-13-2-5-15(30)17(32)8-13)24(38)26(40)29(44-20)41-10-19(34)14-4-6-16(31)18(33)9-14/h2-9,12,19-20,22-34,36-40H,10-11H2,1H3/b7-3+/t12-,19?,20+,22-,23+,24+,25+,26+,27+,28+,29+/m0/s1

> <PUBCHEM_IUPAC_INCHIKEY>
IAXBXCJUSPUULA-RHTWPPHESA-N

> <PUBCHEM_XLOGP3_AA>
-1.6

> <PUBCHEM_EXACT_MASS>
640.200335

> <PUBCHEM_MOLECULAR_FORMULA>
C29H36O16

> <PUBCHEM_MOLECULAR_WEIGHT>
640.58654

> <PUBCHEM_OPENEYE_CAN_SMILES>
CC1C(C(C(C(O1)OCC2C(C(C(C(O2)OCC(C3=CC(=C(C=C3)O)O)O)O)O)OC(=O)C=CC4=CC(=C(C=C4)O)O)O)O)O

> <PUBCHEM_OPENEYE_ISO_SMILES>
C[C@H]1[C@@H]([C@H]([C@H]([C@@H](O1)OC[C@@H]2[C@H]([C@@H]([C@H]([C@@H](O2)OCC(C3=CC(=C(C=C3)O)O)O)O)O)OC(=O)/C=C/C4=CC(=C(C=C4)O)O)O)O)O

> <PUBCHEM_CACTVS_TPSA>
266

> <PUBCHEM_MONOISOTOPIC_WEIGHT>
640.200335

> <PUBCHEM_TOTAL_CHARGE>
0

> <PUBCHEM_HEAVY_ATOM_COUNT>
45

> <PUBCHEM_ATOM_DEF_STEREO_COUNT>
10

> <PUBCHEM_ATOM_UDEF_STEREO_COUNT>
1

> <PUBCHEM_BOND_DEF_STEREO_COUNT>
1

> <PUBCHEM_BOND_UDEF_STEREO_COUNT>
0

> <PUBCHEM_ISOTOPIC_ATOM_COUNT>
0

> <PUBCHEM_COMPONENT_COUNT>
1

> <PUBCHEM_CACTVS_TAUTO_COUNT>
160

> <PUBCHEM_COORDINATE_TYPE>
1
5
255

> <PUBCHEM_BONDANNOTATIONS>
26  10  5
17  24  5
22  2  5
27  28  6
31  68  3
32  34  8
32  35  8
34  37  8
35  38  8
37  39  8
38  39  8
18  4  6
40  41  8
40  42  8
41  43  8
42  44  8
43  45  8
44  45  8
21  5  5
19  6  5
20  7  6
23  8  6
25  9  6

$$$$

