47205625
  -OEChem-06241222593D

 27 28  0     0  0  0  0  0  0999 V2000
    1.1865    1.6679    0.2332 O   0  0  0  0  0  0  0  0  0  0  0  0
    1.9566   -0.5285   -0.0757 N   0  0  0  0  0  0  0  0  0  0  0  0
    5.5143   -0.7603   -0.1249 N   0  0  0  0  0  0  0  0  0  0  0  0
    5.4410    0.5689    0.0599 N   0  0  0  0  0  0  0  0  0  0  0  0
    3.3649   -0.3761   -0.0612 C   0  0  0  0  0  0  0  0  0  0  0  0
   -2.8477    0.2516    0.0458 C   0  0  0  0  0  0  0  0  0  0  0  0
   -1.4651    0.6984    0.1104 C   0  0  0  0  0  0  0  0  0  0  0  0
    4.2984   -1.3735   -0.2044 C   0  0  0  0  0  0  0  0  0  0  0  0
   -3.1583   -1.0898    0.2690 C   0  0  0  0  0  0  0  0  0  0  0  0
   -3.8630    1.1644   -0.2392 C   0  0  0  0  0  0  0  0  0  0  0  0
    1.0000    0.4683    0.0669 C   0  0  0  0  0  0  0  0  0  0  0  0
   -0.3805   -0.1012   -0.0055 C   0  0  0  0  0  0  0  0  0  0  0  0
    4.1256    0.7977    0.0980 C   0  0  0  0  0  0  0  0  0  0  0  0
   -4.4843   -1.5184    0.2071 C   0  0  0  0  0  0  0  0  0  0  0  0
   -5.1889    0.7360   -0.3012 C   0  0  0  0  0  0  0  0  0  0  0  0
   -5.4995   -0.6054   -0.0781 C   0  0  0  0  0  0  0  0  0  0  0  0
    1.6517   -1.4904   -0.2075 H   0  0  0  0  0  0  0  0  0  0  0  0
   -1.3274    1.7679    0.2540 H   0  0  0  0  0  0  0  0  0  0  0  0
    4.2119   -2.4407   -0.3523 H   0  0  0  0  0  0  0  0  0  0  0  0
   -2.4049   -1.8324    0.5146 H   0  0  0  0  0  0  0  0  0  0  0  0
   -3.6403    2.2138   -0.4172 H   0  0  0  0  0  0  0  0  0  0  0  0
   -0.4654   -1.1686   -0.1760 H   0  0  0  0  0  0  0  0  0  0  0  0
    3.7903    1.8147    0.2407 H   0  0  0  0  0  0  0  0  0  0  0  0
   -4.7275   -2.5618    0.3855 H   0  0  0  0  0  0  0  0  0  0  0  0
   -5.9797    1.4467   -0.5233 H   0  0  0  0  0  0  0  0  0  0  0  0
    6.4305   -1.1861   -0.1885 H   0  0  0  0  0  0  0  0  0  0  0  0
   -6.5321   -0.9388   -0.1253 H   0  0  0  0  0  0  0  0  0  0  0  0
  1 11  2  0  0  0  0
  2  5  1  0  0  0  0
  2 11  1  0  0  0  0
  2 17  1  0  0  0  0
  3  4  1  0  0  0  0
  3  8  1  0  0  0  0
  3 26  1  0  0  0  0
  4 13  2  0  0  0  0
  5  8  2  0  0  0  0
  5 13  1  0  0  0  0
  6  7  1  0  0  0  0
  6  9  2  0  0  0  0
  6 10  1  0  0  0  0
  7 12  2  0  0  0  0
  7 18  1  0  0  0  0
  8 19  1  0  0  0  0
  9 14  1  0  0  0  0
  9 20  1  0  0  0  0
 10 15  2  0  0  0  0
 10 21  1  0  0  0  0
 11 12  1  0  0  0  0
 12 22  1  0  0  0  0
 13 23  1  0  0  0  0
 14 16  2  0  0  0  0
 14 24  1  0  0  0  0
 15 16  1  0  0  0  0
 15 25  1  0  0  0  0
 16 27  1  0  0  0  0
M  END
> <PUBCHEM_COMPOUND_CID>
47205625

> <PUBCHEM_CONFORMER_RMSD>
0.6

> <PUBCHEM_CONFORMER_DIVERSEORDER>
1
3
2
5
4

> <PUBCHEM_MMFF94_PARTIAL_CHARGES>
27
1 -0.57
10 -0.15
11 0.62
12 -0.14
13 0.14
14 -0.15
15 -0.15
16 -0.15
17 0.37
18 0.15
19 0.15
2 -0.49
20 0.15
21 0.15
22 0.15
23 0.15
24 0.15
25 0.15
26 0.27
27 0.15
3 0.3
4 -0.71
5 0.06
6 0.03
7 -0.18
8 -0.3
9 -0.15

> <PUBCHEM_EFFECTIVE_ROTOR_COUNT>
4

> <PUBCHEM_PHARMACOPHORE_FEATURES>
6
1 1 acceptor
1 2 donor
1 3 donor
1 4 acceptor
5 3 4 5 8 13 rings
6 6 9 10 14 15 16 rings

> <PUBCHEM_HEAVY_ATOM_COUNT>
16

> <PUBCHEM_ATOM_DEF_STEREO_COUNT>
0

> <PUBCHEM_ATOM_UDEF_STEREO_COUNT>
0

> <PUBCHEM_BOND_DEF_STEREO_COUNT>
0

> <PUBCHEM_BOND_UDEF_STEREO_COUNT>
1

> <PUBCHEM_ISOTOPIC_ATOM_COUNT>
0

> <PUBCHEM_COMPONENT_COUNT>
1

> <PUBCHEM_CACTVS_TAUTO_COUNT>
4

> <PUBCHEM_CONFORMER_ID>
02D04CF900000001

> <PUBCHEM_MMFF94_ENERGY>
34.3389

> <PUBCHEM_FEATURE_SELFOVERLAP>
30.446

> <PUBCHEM_SHAPE_FINGERPRINT>
10680689 15 17846494855306796001
10968037 39 18412261722973888167
11287383 113 18412262818095694000
11315181 36 18260264148796983129
12091667 2 17489585679679752833
12107183 9 17618504723563986328
12815109 37 18411138039022302279
12916748 109 9367347050262470190
13167823 11 18412546513343916179
13288520 33 18410854365454826847
13533116 47 13912594005498955702
14123238 8 17967250892542488454
1420 363 18187361034548926494
14251718 22 18343865498018641057
14251731 8 18413672422304540341
14251764 18 18186514398591423385
14252887 29 17313376855617660894
15196674 1 18410855473081992762
15242439 84 18411140242546324969
17834072 33 18410573955239823404
17834072 8 18272658952615475157
17844677 252 18409161117036953016
19489759 90 18060701701871233753
200 152 18040718065262214521
20374829 77 18343586243835395569
20621476 66 18263638623693917057
20645477 70 18334856177630811470
20681677 155 17988925587373964113
21267235 1 18409721859387239915
220451 1 18201714084965423354
22485316 2 18341895207615368282
23402539 116 17275388715692378805
23536379 177 18343302586714702737
23557571 272 18131069389313104164
23559900 14 18338525144921959209
239999 70 18334572460987016998
26918003 58 18114180835012734155
300161 21 17846788420278711467
3004659 81 18272931665780215666
3545911 37 18412826902310793561
4214541 1 18411699906997652733
42788 4 18410856568234998924
465052 167 18040431114471500022
5104073 3 18408604772732171136
542803 24 16732980929523065409
77779 3 18411981347382367029
9971528 1 17704070686044459852

> <PUBCHEM_SHAPE_MULTIPOLES>
308.46
14.54
1.4
0.62
4.98
0.09
0
2.33
0.72
-0.38
-0.03
-0.12
0.01
0.44

> <PUBCHEM_SHAPE_SELFOVERLAP>
657.094

> <PUBCHEM_SHAPE_VOLUME>
171.4

> <PUBCHEM_COORDINATE_TYPE>
2
5
10

$$$$

