440910
  -OEChem-07051212513D

 58 61  0     1  0  0  0  0  0999 V2000
   -4.2674    1.7549   -0.5826 O   0  0  0  0  0  0  0  0  0  0  0  0
    2.9728    1.8963    1.4615 O   0  0  0  0  0  0  0  0  0  0  0  0
    5.1602   -0.4364    1.3985 O   0  0  0  0  0  0  0  0  0  0  0  0
   -4.2981   -0.7505    2.0235 O   0  0  0  0  0  0  0  0  0  0  0  0
   -0.7951   -0.0880   -0.5054 C   0  0  2  0  0  0  0  0  0  0  0  0
    0.7057    0.2295   -0.8975 C   0  0  2  0  0  0  0  0  0  0  0  0
   -1.0201   -1.6363   -0.6775 C   0  0  2  0  0  0  0  0  0  0  0  0
    1.6018   -0.5642    0.1501 C   0  0  2  0  0  0  0  0  0  0  0  0
   -1.9407    0.3447   -1.4149 C   0  0  0  0  0  0  0  0  0  0  0  0
   -3.1263   -0.3969   -0.6800 C   0  0  1  0  0  0  0  0  0  0  0  0
   -2.5577   -1.8438   -0.7756 C   0  0  0  0  0  0  0  0  0  0  0  0
   -1.1788    0.4812    0.9608 C   0  0  0  0  0  0  0  0  0  0  0  0
   -0.1961   -2.4479    0.3036 C   0  0  0  0  0  0  0  0  0  0  0  0
    3.1335   -0.1962    0.1576 C   0  0  1  0  0  0  0  0  0  0  0  0
    1.2998   -2.0958    0.1508 C   0  0  0  0  0  0  0  0  0  0  0  0
   -3.6979    0.7235    0.2331 C   0  0  1  0  0  0  0  0  0  0  0  0
    1.0019    1.7539   -0.8378 C   0  0  0  0  0  0  0  0  0  0  0  0
   -2.4911    1.3465    1.0286 C   0  0  0  0  0  0  0  0  0  0  0  0
    0.9912   -0.2011   -2.3679 C   0  0  0  0  0  0  0  0  0  0  0  0
    3.3095    1.3538    0.1805 C   0  0  1  0  0  0  0  0  0  0  0  0
    2.4958    2.0943   -0.8821 C   0  0  0  0  0  0  0  0  0  0  0  0
    3.7960   -0.7778    1.4377 C   0  0  0  0  0  0  0  0  0  0  0  0
    3.9231   -0.7875   -1.0286 C   0  0  0  0  0  0  0  0  0  0  0  0
   -4.8221    0.2438    1.1637 C   0  0  0  0  0  0  0  0  0  0  0  0
   -0.6723   -1.9498   -1.6709 H   0  0  0  0  0  0  0  0  0  0  0  0
    1.2661   -0.2333    1.1423 H   0  0  0  0  0  0  0  0  0  0  0  0
   -1.8540   -0.0296   -2.4432 H   0  0  0  0  0  0  0  0  0  0  0  0
   -2.0320    1.4319   -1.5021 H   0  0  0  0  0  0  0  0  0  0  0  0
   -3.9360   -0.4624   -1.4276 H   0  0  0  0  0  0  0  0  0  0  0  0
   -2.8226   -2.3211   -1.7266 H   0  0  0  0  0  0  0  0  0  0  0  0
   -2.9421   -2.4593    0.0427 H   0  0  0  0  0  0  0  0  0  0  0  0
   -0.3781    1.0728    1.4093 H   0  0  0  0  0  0  0  0  0  0  0  0
   -1.3275   -0.3606    1.6450 H   0  0  0  0  0  0  0  0  0  0  0  0
   -0.3343   -3.5187    0.1130 H   0  0  0  0  0  0  0  0  0  0  0  0
   -0.5140   -2.2785    1.3365 H   0  0  0  0  0  0  0  0  0  0  0  0
    1.8266   -2.5920    0.9715 H   0  0  0  0  0  0  0  0  0  0  0  0
    1.6744   -2.5523   -0.7715 H   0  0  0  0  0  0  0  0  0  0  0  0
    0.5986    2.2072    0.0711 H   0  0  0  0  0  0  0  0  0  0  0  0
    0.4942    2.2664   -1.6652 H   0  0  0  0  0  0  0  0  0  0  0  0
   -2.7568    1.4989    2.0816 H   0  0  0  0  0  0  0  0  0  0  0  0
   -2.2579    2.3441    0.6333 H   0  0  0  0  0  0  0  0  0  0  0  0
    1.1360   -1.2770   -2.4858 H   0  0  0  0  0  0  0  0  0  0  0  0
    0.1808    0.1004   -3.0378 H   0  0  0  0  0  0  0  0  0  0  0  0
    1.8754    0.2780   -2.7893 H   0  0  0  0  0  0  0  0  0  0  0  0
    4.3634    1.6120    0.0124 H   0  0  0  0  0  0  0  0  0  0  0  0
    2.9073    1.8913   -1.8755 H   0  0  0  0  0  0  0  0  0  0  0  0
    2.5972    3.1760   -0.7254 H   0  0  0  0  0  0  0  0  0  0  0  0
    3.7411   -1.8697    1.4595 H   0  0  0  0  0  0  0  0  0  0  0  0
    3.3435   -0.4011    2.3604 H   0  0  0  0  0  0  0  0  0  0  0  0
    3.8736   -1.8814   -1.0382 H   0  0  0  0  0  0  0  0  0  0  0  0
    3.5737   -0.4347   -1.9959 H   0  0  0  0  0  0  0  0  0  0  0  0
    4.9845   -0.5157   -0.9926 H   0  0  0  0  0  0  0  0  0  0  0  0
   -5.6517   -0.1774    0.5854 H   0  0  0  0  0  0  0  0  0  0  0  0
   -5.2186    1.0695    1.7648 H   0  0  0  0  0  0  0  0  0  0  0  0
   -4.5539    2.4761    0.0035 H   0  0  0  0  0  0  0  0  0  0  0  0
    3.7260    1.7403    2.0560 H   0  0  0  0  0  0  0  0  0  0  0  0
    5.5744   -0.8037    2.1977 H   0  0  0  0  0  0  0  0  0  0  0  0
   -5.0245   -1.0430    2.5997 H   0  0  0  0  0  0  0  0  0  0  0  0
  1 16  1  0  0  0  0
  1 55  1  0  0  0  0
  2 20  1  0  0  0  0
  2 56  1  0  0  0  0
  3 22  1  0  0  0  0
  3 57  1  0  0  0  0
  4 24  1  0  0  0  0
  4 58  1  0  0  0  0
  5  6  1  0  0  0  0
  5  7  1  0  0  0  0
  5  9  1  0  0  0  0
  5 12  1  0  0  0  0
  6  8  1  0  0  0  0
  6 17  1  0  0  0  0
  6 19  1  0  0  0  0
  7 11  1  0  0  0  0
  7 13  1  0  0  0  0
  7 25  1  0  0  0  0
  8 14  1  0  0  0  0
  8 15  1  0  0  0  0
  8 26  1  0  0  0  0
  9 10  1  0  0  0  0
  9 27  1  0  0  0  0
  9 28  1  0  0  0  0
 10 11  1  0  0  0  0
 10 16  1  0  0  0  0
 10 29  1  0  0  0  0
 11 30  1  0  0  0  0
 11 31  1  0  0  0  0
 12 18  1  0  0  0  0
 12 32  1  0  0  0  0
 12 33  1  0  0  0  0
 13 15  1  0  0  0  0
 13 34  1  0  0  0  0
 13 35  1  0  0  0  0
 14 20  1  0  0  0  0
 14 22  1  0  0  0  0
 14 23  1  0  0  0  0
 15 36  1  0  0  0  0
 15 37  1  0  0  0  0
 16 18  1  0  0  0  0
 16 24  1  0  0  0  0
 17 21  1  0  0  0  0
 17 38  1  0  0  0  0
 17 39  1  0  0  0  0
 18 40  1  0  0  0  0
 18 41  1  0  0  0  0
 19 42  1  0  0  0  0
 19 43  1  0  0  0  0
 19 44  1  0  0  0  0
 20 21  1  0  0  0  0
 20 45  1  0  0  0  0
 21 46  1  0  0  0  0
 21 47  1  0  0  0  0
 22 48  1  0  0  0  0
 22 49  1  0  0  0  0
 23 50  1  0  0  0  0
 23 51  1  0  0  0  0
 23 52  1  0  0  0  0
 24 53  1  0  0  0  0
 24 54  1  0  0  0  0
M  END
> <PUBCHEM_COMPOUND_CID>
440910

> <PUBCHEM_CONFORMER_RMSD>
0.8

> <PUBCHEM_CONFORMER_DIVERSEORDER>
1
2

> <PUBCHEM_MMFF94_PARTIAL_CHARGES>
12
1 -0.68
16 0.28
2 -0.68
20 0.28
22 0.28
24 0.28
3 -0.68
4 -0.68
55 0.4
56 0.4
57 0.4
58 0.4

> <PUBCHEM_EFFECTIVE_ROTOR_COUNT>
4.2

> <PUBCHEM_PHARMACOPHORE_FEATURES>
11
1 1 acceptor
1 1 donor
1 2 acceptor
1 2 donor
1 3 acceptor
1 3 donor
1 4 acceptor
1 4 donor
6 5 6 7 8 13 15 rings
6 6 8 14 17 20 21 rings
8 5 7 9 10 11 12 16 18 rings

> <PUBCHEM_HEAVY_ATOM_COUNT>
24

> <PUBCHEM_ATOM_DEF_STEREO_COUNT>
8

> <PUBCHEM_ATOM_UDEF_STEREO_COUNT>
0

> <PUBCHEM_BOND_DEF_STEREO_COUNT>
0

> <PUBCHEM_BOND_UDEF_STEREO_COUNT>
0

> <PUBCHEM_ISOTOPIC_ATOM_COUNT>
0

> <PUBCHEM_COMPONENT_COUNT>
1

> <PUBCHEM_CACTVS_TAUTO_COUNT>
1

> <PUBCHEM_CONFORMER_ID>
0006BA4E00000001

> <PUBCHEM_MMFF94_ENERGY>
160.2661

> <PUBCHEM_FEATURE_SELFOVERLAP>
55.845

> <PUBCHEM_SHAPE_FINGERPRINT>
10498660 4 15502929857186555017
10646746 165 16949998140851567768
10863032 1 18114465556752729014
10948715 1 18113901558869511503
11132069 177 18113904874452323540
11640471 11 18334011696470062733
12011746 2 18340203115439729630
12403814 3 18342174445705434549
12553582 1 18272092725354230046
12592029 89 18343298197632809163
12633257 1 18335148583193282192
12670546 177 6411002171372535921
12714826 92 13039193619090147127
12788726 201 17609792898064649582
12892183 10 17847059960927767449
13140716 1 18341055116565694426
13224815 77 18410009892947816635
13583140 156 17561096808070307147
13675066 3 18412822499631640127
13965767 371 17321520005984046081
14004511 7 18411142424115313967
14223421 5 18268424805818681549
14341114 328 18187358797139841321
14787075 74 17470185660259181270
14955137 171 18272359915143184790
15163728 17 16009304297729160704
15209294 21 18260276260462391322
15295992 7 18114464448772518906
15309172 13 18272374182613176511
15375462 189 17846226578775044682
16945 1 18342186604072086598
17349148 13 17967533484532664165
17492 89 18262520273727859238
17980427 23 17895768300411105764
1813 80 17489020587102290174
18186145 218 18409732850271769822
20691752 17 17488758778617115222
20715895 44 18047756194133211129
20739085 24 18131067143483122932
21033648 29 18336277824216124265
21637258 2 14836132069835092592
22182313 1 18053393381246661430
23184049 59 18201722851146499428
23557571 272 17168699722368397815
23559900 14 17748823029977599230
23622692 88 18408606976403743158
238 59 8069730949607053974
25147074 1 18197499528347793766
2748010 2 17837221741493886542
2838139 119 15502674667383121064
296302 2 18335143055322640628
3286 77 17560793308580332853
4340502 62 18410002252939579547
465052 167 17131818859804175659
474 4 18411135797039045252
5104073 3 18336831879291762658
633830 44 18187649089499807630
9981440 41 17464558403214959384

> <PUBCHEM_SHAPE_MULTIPOLES>
470.43
8.54
2.16
1.67
1.32
0.21
-0.05
-1.32
3.66
-0.34
-0.04
-0.11
-0.04
-0.25

> <PUBCHEM_SHAPE_SELFOVERLAP>
994.485

> <PUBCHEM_SHAPE_VOLUME>
263.2

> <PUBCHEM_COORDINATE_TYPE>
2
5
10

$$$$

