5873
  -OEChem-06261200572D

 60 62  0     1  0  0  0  0  0999 V2000
    8.6210    5.3377    0.0000 Cl  0  0  0  0  0  0  0  0  0  0  0  0
    3.5010    8.9065    0.0000 O   0  0  0  0  0  0  0  0  0  0  0  0
    4.8671    3.5404    0.0000 O   0  0  0  0  0  0  0  0  0  0  0  0
    3.1920    1.4526    0.0000 O   0  0  0  0  0  0  0  0  0  0  0  0
    4.0010    6.0404    0.0000 N   0  0  0  0  0  0  0  0  0  0  0  0
    3.1350    3.5404    0.0000 N   0  0  0  0  0  0  0  0  0  0  0  0
    4.0010    8.0404    0.0000 C   0  0  0  0  0  0  0  0  0  0  0  0
    4.8671    7.5404    0.0000 C   0  0  0  0  0  0  0  0  0  0  0  0
    3.1350    7.5404    0.0000 C   0  0  0  0  0  0  0  0  0  0  0  0
    4.8671    6.5404    0.0000 C   0  0  0  0  0  0  0  0  0  0  0  0
    3.1350    6.5404    0.0000 C   0  0  0  0  0  0  0  0  0  0  0  0
    4.0010    5.0404    0.0000 C   0  0  0  0  0  0  0  0  0  0  0  0
    4.5010    8.9065    0.0000 C   0  0  0  0  0  0  0  0  0  0  0  0
    3.1350    4.5404    0.0000 C   0  0  3  0  0  0  0  0  0  0  0  0
    2.2690    5.0404    0.0000 C   0  0  0  0  0  0  0  0  0  0  0  0
    5.5010    8.9065    0.0000 C   0  0  0  0  0  0  0  0  0  0  0  0
    4.0010    9.7725    0.0000 C   0  0  0  0  0  0  0  0  0  0  0  0
    2.2690    3.0404    0.0000 C   0  0  0  0  0  0  0  0  0  0  0  0
    6.0010    9.7725    0.0000 C   0  0  0  0  0  0  0  0  0  0  0  0
    4.5010   10.6385    0.0000 C   0  0  0  0  0  0  0  0  0  0  0  0
    4.0010    3.0404    0.0000 C   0  0  0  0  0  0  0  0  0  0  0  0
    5.5010   10.6385    0.0000 C   0  0  0  0  0  0  0  0  0  0  0  0
    1.4030    3.5404    0.0000 C   0  0  0  0  0  0  0  0  0  0  0  0
    2.2690    2.0404    0.0000 C   0  0  0  0  0  0  0  0  0  0  0  0
    4.0010    2.0404    0.0000 C   0  0  0  0  0  0  0  0  0  0  0  0
    0.5369    3.0404    0.0000 C   0  0  0  0  0  0  0  0  0  0  0  0
    1.4030    1.5404    0.0000 C   0  0  0  0  0  0  0  0  0  0  0  0
    4.8101    1.4526    0.0000 C   0  0  0  0  0  0  0  0  0  0  0  0
    0.5369    2.0404    0.0000 C   0  0  0  0  0  0  0  0  0  0  0  0
    4.5010    0.5016    0.0000 C   0  0  0  0  0  0  0  0  0  0  0  0
    3.5010    0.5016    0.0000 C   0  0  0  0  0  0  0  0  0  0  0  0
    2.9230    8.1230    0.0000 H   0  0  0  0  0  0  0  0  0  0  0  0
    2.5244    7.4328    0.0000 H   0  0  0  0  0  0  0  0  0  0  0  0
    5.4776    7.4328    0.0000 H   0  0  0  0  0  0  0  0  0  0  0  0
    5.0791    8.1230    0.0000 H   0  0  0  0  0  0  0  0  0  0  0  0
    2.5244    6.6481    0.0000 H   0  0  0  0  0  0  0  0  0  0  0  0
    2.9230    5.9578    0.0000 H   0  0  0  0  0  0  0  0  0  0  0  0
    5.0791    5.9578    0.0000 H   0  0  0  0  0  0  0  0  0  0  0  0
    5.4776    6.6481    0.0000 H   0  0  0  0  0  0  0  0  0  0  0  0
    4.2131    4.4578    0.0000 H   0  0  0  0  0  0  0  0  0  0  0  0
    4.6116    5.1481    0.0000 H   0  0  0  0  0  0  0  0  0  0  0  0
    3.6720    4.2304    0.0000 H   0  0  0  0  0  0  0  0  0  0  0  0
    2.8810    8.9065    0.0000 H   0  0  0  0  0  0  0  0  0  0  0  0
    2.5790    5.5774    0.0000 H   0  0  0  0  0  0  0  0  0  0  0  0
    1.7320    5.3504    0.0000 H   0  0  0  0  0  0  0  0  0  0  0  0
    1.9590    4.5035    0.0000 H   0  0  0  0  0  0  0  0  0  0  0  0
    5.8110    8.3695    0.0000 H   0  0  0  0  0  0  0  0  0  0  0  0
    3.3810    9.7725    0.0000 H   0  0  0  0  0  0  0  0  0  0  0  0
    6.6210    9.7725    0.0000 H   0  0  0  0  0  0  0  0  0  0  0  0
    4.1910   11.1754    0.0000 H   0  0  0  0  0  0  0  0  0  0  0  0
    5.8110   11.1754    0.0000 H   0  0  0  0  0  0  0  0  0  0  0  0
    1.4030    4.1604    0.0000 H   0  0  0  0  0  0  0  0  0  0  0  0
    2.8059    1.7304    0.0000 H   0  0  0  0  0  0  0  0  0  0  0  0
    0.0000    3.3504    0.0000 H   0  0  0  0  0  0  0  0  0  0  0  0
    1.4030    0.9204    0.0000 H   0  0  0  0  0  0  0  0  0  0  0  0
    5.3997    1.6442    0.0000 H   0  0  0  0  0  0  0  0  0  0  0  0
    0.0000    1.7304    0.0000 H   0  0  0  0  0  0  0  0  0  0  0  0
    4.8655    0.0000    0.0000 H   0  0  0  0  0  0  0  0  0  0  0  0
    3.1366    0.0000    0.0000 H   0  0  0  0  0  0  0  0  0  0  0  0
    9.6210    5.3377    0.0000 H   0  0  0  0  0  0  0  0  0  0  0  0
  1 60  1  0  0  0  0
  2  7  1  0  0  0  0
  2 43  1  0  0  0  0
  3 21  2  0  0  0  0
  4 25  1  0  0  0  0
  4 31  1  0  0  0  0
  5 10  1  0  0  0  0
  5 11  1  0  0  0  0
  5 12  1  0  0  0  0
  6 14  1  0  0  0  0
  6 18  1  0  0  0  0
  6 21  1  0  0  0  0
  7  8  1  0  0  0  0
  7  9  1  0  0  0  0
  7 13  1  0  0  0  0
  8 10  1  0  0  0  0
  8 34  1  0  0  0  0
  8 35  1  0  0  0  0
  9 11  1  0  0  0  0
  9 32  1  0  0  0  0
  9 33  1  0  0  0  0
 10 38  1  0  0  0  0
 10 39  1  0  0  0  0
 11 36  1  0  0  0  0
 11 37  1  0  0  0  0
 12 14  1  0  0  0  0
 12 40  1  0  0  0  0
 12 41  1  0  0  0  0
 13 16  2  0  0  0  0
 13 17  1  0  0  0  0
 14 15  1  0  0  0  0
 14 42  1  0  0  0  0
 15 44  1  0  0  0  0
 15 45  1  0  0  0  0
 15 46  1  0  0  0  0
 16 19  1  0  0  0  0
 16 47  1  0  0  0  0
 17 20  2  0  0  0  0
 17 48  1  0  0  0  0
 18 23  2  0  0  0  0
 18 24  1  0  0  0  0
 19 22  2  0  0  0  0
 19 49  1  0  0  0  0
 20 22  1  0  0  0  0
 20 50  1  0  0  0  0
 21 25  1  0  0  0  0
 22 51  1  0  0  0  0
 23 26  1  0  0  0  0
 23 52  1  0  0  0  0
 24 27  2  0  0  0  0
 24 53  1  0  0  0  0
 25 28  2  0  0  0  0
 26 29  2  0  0  0  0
 26 54  1  0  0  0  0
 27 29  1  0  0  0  0
 27 55  1  0  0  0  0
 28 30  1  0  0  0  0
 28 56  1  0  0  0  0
 29 57  1  0  0  0  0
 30 31  2  0  0  0  0
 30 58  1  0  0  0  0
 31 59  1  0  0  0  0
M  END
> <PUBCHEM_COMPOUND_CID>
5873

> <PUBCHEM_COMPOUND_CANONICALIZED>
1

> <PUBCHEM_CACTVS_COMPLEXITY>
549

> <PUBCHEM_CACTVS_HBOND_ACCEPTOR>
4

> <PUBCHEM_CACTVS_HBOND_DONOR>
2

> <PUBCHEM_CACTVS_ROTATABLE_BOND>
6

> <PUBCHEM_CACTVS_SUBSKEYS>
AAADceB7MAAEAAAAAAAAAAAAAAAAASAAAAA8YIAAAAAAAAAB0AAAHgAACAAADGzhmAYyxIMABkCIAq1S0AKCCAAlIgAIiAHObMgOZjLEtb+XeSjmxhHY+YeY1+IOgAAAAAAAAAAAAAAAAAAAAAAAAAAAAA==

> <PUBCHEM_IUPAC_OPENEYE_NAME>
N-[2-(4-hydroxy-4-phenyl-1-piperidyl)-1-methyl-ethyl]-N-phenyl-furan-2-carboxamide hydrochloride

> <PUBCHEM_IUPAC_CAS_NAME>
N-[1-(4-hydroxy-4-phenyl-1-piperidinyl)propan-2-yl]-N-phenyl-2-furancarboxamide hydrochloride

> <PUBCHEM_IUPAC_NAME>
N-[1-(4-hydroxy-4-phenylpiperidin-1-yl)propan-2-yl]-N-phenylfuran-2-carboxamide hydrochloride

> <PUBCHEM_IUPAC_SYSTEMATIC_NAME>
N-[1-(4-oxidanyl-4-phenyl-piperidin-1-yl)propan-2-yl]-N-phenyl-furan-2-carboxamide hydrochloride

> <PUBCHEM_IUPAC_TRADITIONAL_NAME>
N-[2-(4-hydroxy-4-phenyl-piperidino)-1-methyl-ethyl]-N-phenyl-2-furamide hydrochloride

> <PUBCHEM_IUPAC_INCHI>
InChI=1S/C25H28N2O3.ClH/c1-20(19-26-16-14-25(29,15-17-26)21-9-4-2-5-10-21)27(22-11-6-3-7-12-22)24(28)23-13-8-18-30-23;/h2-13,18,20,29H,14-17,19H2,1H3;1H

> <PUBCHEM_IUPAC_INCHIKEY>
IEPPCSKVUNZEMU-UHFFFAOYSA-N

> <PUBCHEM_EXACT_MASS>
440.18667

> <PUBCHEM_MOLECULAR_FORMULA>
C25H29ClN2O3

> <PUBCHEM_MOLECULAR_WEIGHT>
440.96236

> <PUBCHEM_OPENEYE_CAN_SMILES>
CC(CN1CCC(CC1)(C2=CC=CC=C2)O)N(C3=CC=CC=C3)C(=O)C4=CC=CO4.Cl

> <PUBCHEM_OPENEYE_ISO_SMILES>
CC(CN1CCC(CC1)(C2=CC=CC=C2)O)N(C3=CC=CC=C3)C(=O)C4=CC=CO4.Cl

> <PUBCHEM_CACTVS_TPSA>
56.9

> <PUBCHEM_MONOISOTOPIC_WEIGHT>
440.18667

> <PUBCHEM_TOTAL_CHARGE>
0

> <PUBCHEM_HEAVY_ATOM_COUNT>
31

> <PUBCHEM_ATOM_DEF_STEREO_COUNT>
0

> <PUBCHEM_ATOM_UDEF_STEREO_COUNT>
1

> <PUBCHEM_BOND_DEF_STEREO_COUNT>
0

> <PUBCHEM_BOND_UDEF_STEREO_COUNT>
0

> <PUBCHEM_ISOTOPIC_ATOM_COUNT>
0

> <PUBCHEM_COMPONENT_COUNT>
2

> <PUBCHEM_CACTVS_TAUTO_COUNT>
1

> <PUBCHEM_COORDINATE_TYPE>
1
5
255

> <PUBCHEM_BONDANNOTATIONS>
13  16  8
13  17  8
14  15  3
16  19  8
17  20  8
18  23  8
18  24  8
19  22  8
20  22  8
23  26  8
24  27  8
25  28  8
26  29  8
27  29  8
28  30  8
30  31  8
4  25  8
4  31  8

$$$$

