854096
  -OEChem-06241222473D

 44 47  0     0  0  0  0  0  0999 V2000
    2.3660    1.7096   -0.3828 O   0  0  0  0  0  0  0  0  0  0  0  0
   -1.5852   -0.9569   -0.7108 O   0  0  0  0  0  0  0  0  0  0  0  0
    4.1917    3.0686   -0.2470 O   0  0  0  0  0  0  0  0  0  0  0  0
   -7.5018    0.7987   -0.0128 O   0  0  0  0  0  0  0  0  0  0  0  0
    2.5552   -0.7060   -0.0713 C   0  0  0  0  0  0  0  0  0  0  0  0
    1.7797    0.4271   -0.3281 C   0  0  0  0  0  0  0  0  0  0  0  0
    3.9982   -0.5395    0.1417 C   0  0  0  0  0  0  0  0  0  0  0  0
    0.4002    0.3714   -0.5440 C   0  0  0  0  0  0  0  0  0  0  0  0
   -0.2428   -0.8591   -0.5051 C   0  0  0  0  0  0  0  0  0  0  0  0
    4.5603    0.7479    0.0828 C   0  0  0  0  0  0  0  0  0  0  0  0
    1.8777   -1.9359   -0.0377 C   0  0  0  0  0  0  0  0  0  0  0  0
    0.4951   -2.0119   -0.2521 C   0  0  0  0  0  0  0  0  0  0  0  0
    4.8692   -1.6132    0.4064 C   0  0  0  0  0  0  0  0  0  0  0  0
    3.7215    1.9395   -0.1907 C   0  0  0  0  0  0  0  0  0  0  0  0
   -0.3800    1.6165   -0.8148 C   0  0  0  0  0  0  0  0  0  0  0  0
    5.9357    0.9495    0.2809 C   0  0  0  0  0  0  0  0  0  0  0  0
   -2.3657   -1.5078    0.3487 C   0  0  0  0  0  0  0  0  0  0  0  0
    6.2387   -1.4126    0.6037 C   0  0  0  0  0  0  0  0  0  0  0  0
   -3.7286   -0.8960    0.2531 C   0  0  0  0  0  0  0  0  0  0  0  0
    6.7716   -0.1318    0.5410 C   0  0  0  0  0  0  0  0  0  0  0  0
   -4.7107   -1.5116   -0.5176 C   0  0  0  0  0  0  0  0  0  0  0  0
   -4.0054    0.2855    0.9349 C   0  0  0  0  0  0  0  0  0  0  0  0
   -5.9802   -0.9408   -0.6072 C   0  0  0  0  0  0  0  0  0  0  0  0
   -5.2750    0.8562    0.8454 C   0  0  0  0  0  0  0  0  0  0  0  0
   -6.2625    0.2431    0.0744 C   0  0  0  0  0  0  0  0  0  0  0  0
   -7.7230    2.0094    0.7091 C   0  0  0  0  0  0  0  0  0  0  0  0
    2.4016   -2.8683    0.1531 H   0  0  0  0  0  0  0  0  0  0  0  0
    0.0128   -2.9857   -0.2258 H   0  0  0  0  0  0  0  0  0  0  0  0
    4.5069   -2.6358    0.4667 H   0  0  0  0  0  0  0  0  0  0  0  0
    0.1289    2.2402   -1.5578 H   0  0  0  0  0  0  0  0  0  0  0  0
   -1.3771    1.4135   -1.2181 H   0  0  0  0  0  0  0  0  0  0  0  0
   -0.5006    2.1907    0.1096 H   0  0  0  0  0  0  0  0  0  0  0  0
    6.3729    1.9435    0.2358 H   0  0  0  0  0  0  0  0  0  0  0  0
   -1.9226   -1.2934    1.3305 H   0  0  0  0  0  0  0  0  0  0  0  0
   -2.4196   -2.5971    0.2353 H   0  0  0  0  0  0  0  0  0  0  0  0
    6.8860   -2.2611    0.8064 H   0  0  0  0  0  0  0  0  0  0  0  0
    7.8350    0.0251    0.6941 H   0  0  0  0  0  0  0  0  0  0  0  0
   -4.5016   -2.4328   -1.0546 H   0  0  0  0  0  0  0  0  0  0  0  0
   -3.2419    0.7727    1.5357 H   0  0  0  0  0  0  0  0  0  0  0  0
   -6.7453   -1.4227   -1.2098 H   0  0  0  0  0  0  0  0  0  0  0  0
   -5.4261    1.7764    1.3994 H   0  0  0  0  0  0  0  0  0  0  0  0
   -7.0858    2.8201    0.3399 H   0  0  0  0  0  0  0  0  0  0  0  0
   -7.6190    1.8587    1.7889 H   0  0  0  0  0  0  0  0  0  0  0  0
   -8.7601    2.3097    0.5267 H   0  0  0  0  0  0  0  0  0  0  0  0
  1  6  1  0  0  0  0
  1 14  1  0  0  0  0
  2  9  1  0  0  0  0
  2 17  1  0  0  0  0
  3 14  2  0  0  0  0
  4 25  1  0  0  0  0
  4 26  1  0  0  0  0
  5  6  2  0  0  0  0
  5  7  1  0  0  0  0
  5 11  1  0  0  0  0
  6  8  1  0  0  0  0
  7 10  1  0  0  0  0
  7 13  2  0  0  0  0
  8  9  2  0  0  0  0
  8 15  1  0  0  0  0
  9 12  1  0  0  0  0
 10 14  1  0  0  0  0
 10 16  2  0  0  0  0
 11 12  2  0  0  0  0
 11 27  1  0  0  0  0
 12 28  1  0  0  0  0
 13 18  1  0  0  0  0
 13 29  1  0  0  0  0
 15 30  1  0  0  0  0
 15 31  1  0  0  0  0
 15 32  1  0  0  0  0
 16 20  1  0  0  0  0
 16 33  1  0  0  0  0
 17 19  1  0  0  0  0
 17 34  1  0  0  0  0
 17 35  1  0  0  0  0
 18 20  2  0  0  0  0
 18 36  1  0  0  0  0
 19 21  2  0  0  0  0
 19 22  1  0  0  0  0
 20 37  1  0  0  0  0
 21 23  1  0  0  0  0
 21 38  1  0  0  0  0
 22 24  2  0  0  0  0
 22 39  1  0  0  0  0
 23 25  2  0  0  0  0
 23 40  1  0  0  0  0
 24 25  1  0  0  0  0
 24 41  1  0  0  0  0
 26 42  1  0  0  0  0
 26 43  1  0  0  0  0
 26 44  1  0  0  0  0
M  END
> <PUBCHEM_COMPOUND_CID>
854096

> <PUBCHEM_CONFORMER_RMSD>
0.8

> <PUBCHEM_CONFORMER_DIVERSEORDER>
1
12
7
18
20
24
10
23
9
6
15
16
22
21
17
13
4
19
5
14
3
11
2
8

> <PUBCHEM_MMFF94_PARTIAL_CHARGES>
34
1 -0.23
10 0.09
11 -0.15
12 -0.15
13 -0.15
14 0.63
15 0.14
16 -0.15
17 0.42
18 -0.15
19 -0.14
2 -0.36
20 -0.15
21 -0.15
22 -0.15
23 -0.15
24 -0.15
25 0.08
26 0.28
27 0.15
28 0.15
29 0.15
3 -0.57
33 0.15
36 0.15
37 0.15
38 0.15
39 0.15
4 -0.36
40 0.15
41 0.15
6 0.08
8 -0.14
9 0.08

> <PUBCHEM_EFFECTIVE_ROTOR_COUNT>
4

> <PUBCHEM_PHARMACOPHORE_FEATURES>
7
1 2 acceptor
1 3 acceptor
1 4 acceptor
6 1 5 6 7 10 14 rings
6 19 21 22 23 24 25 rings
6 5 6 8 9 11 12 rings
6 7 10 13 16 18 20 rings

> <PUBCHEM_HEAVY_ATOM_COUNT>
26

> <PUBCHEM_ATOM_DEF_STEREO_COUNT>
0

> <PUBCHEM_ATOM_UDEF_STEREO_COUNT>
0

> <PUBCHEM_BOND_DEF_STEREO_COUNT>
0

> <PUBCHEM_BOND_UDEF_STEREO_COUNT>
0

> <PUBCHEM_ISOTOPIC_ATOM_COUNT>
0

> <PUBCHEM_COMPONENT_COUNT>
1

> <PUBCHEM_CACTVS_TAUTO_COUNT>
1

> <PUBCHEM_CONFORMER_ID>
000D085000000001

> <PUBCHEM_MMFF94_ENERGY>
104.4286

> <PUBCHEM_FEATURE_SELFOVERLAP>
35.568

> <PUBCHEM_SHAPE_FINGERPRINT>
10411042 1 17978510072934419414
10906281 52 18272072894889149406
11045977 3 17917426489092256690
11089746 13 17967818219283914129
11578080 2 17315935260736472842
11719270 70 18040154036850626198
12107183 9 18410856598389713915
12236239 1 18259988154325408879
13167372 99 18408040723515106001
13533116 47 17417823884841215122
13668630 136 12319742492027907970
13785724 45 18048032162940827230
13914758 101 18409448111605256249
14251764 18 18411419501488774463
14347424 109 18410299108104565016
14849402 71 18337670793906044968
15142383 8 18060142059047944340
15183329 4 18333724719460891409
15348495 7 17774433880770787083
15419008 145 18270689799809356504
15461852 350 17167869643219495031
15475509 35 16486712341589540304
1577012 14 18334856082792916501
16087824 20 18412261774466718028
16120349 18 18411705379060086693
20028762 73 18333452058280013478
20511986 3 18261122876369059203
21130935 74 18411140216592678218
21150785 3 7781510421377508402
21267235 1 18341615954318631890
21298829 104 18262233426363856265
21315763 28 18410294701288894239
21344244 181 12823299052659063760
21591340 7 18408044022988869093
21774942 28 17386559297390909449
21792934 111 18337685191437475736
22122407 14 18334565824851036489
22956985 138 13396698794565749160
23035841 295 11671782676192606267
255183 451 17972312083007487214
2838139 119 18335141986424507517
3178227 256 18131635604101066154
335352 9 18411699868701689110
34797466 226 15864626155067149761
350125 39 18411983555407260836
397830 11 16486116285168506905
4017518 198 17385715899332839742
4073 2 17988076682250156290
4340502 62 16200436866736207746
5104073 3 18200877262101142530
6328613 192 18409446947104947777
999808 66 8069737538693866205

> <PUBCHEM_SHAPE_MULTIPOLES>
511.59
20.19
2.34
0.83
18.93
0.8
-0.03
5.04
-4.4
-1.06
0.13
0.37
0.04
-1.31

> <PUBCHEM_SHAPE_SELFOVERLAP>
1134.442

> <PUBCHEM_SHAPE_VOLUME>
274.1

> <PUBCHEM_COORDINATE_TYPE>
2
5
10

$$$$

