236825
  -OEChem-07051213063D

 56 59  0     1  0  0  0  0  0999 V2000
    0.1718    2.1332   -1.2650 O   0  0  0  0  0  0  0  0  0  0  0  0
   -3.7011   -2.6231    1.2556 O   0  0  0  0  0  0  0  0  0  0  0  0
   -5.3909   -0.1335   -0.3661 O   0  0  0  0  0  0  0  0  0  0  0  0
    6.3805    0.0662    1.3708 O   0  0  0  0  0  0  0  0  0  0  0  0
   -5.7462    2.3174    0.8452 O   0  0  0  0  0  0  0  0  0  0  0  0
   -1.9217    0.1356   -0.1608 C   0  0  1  0  0  0  0  0  0  0  0  0
   -1.0160   -1.0889    0.0800 C   0  0  2  0  0  0  0  0  0  0  0  0
    0.3848   -0.9401   -0.5299 C   0  0  1  0  0  0  0  0  0  0  0  0
    1.0804    0.3047    0.1126 C   0  0  1  0  0  0  0  0  0  0  0  0
   -3.2026   -0.3678    0.5456 C   0  0  2  0  0  0  0  0  0  0  0  0
   -1.2608    1.3486    0.5188 C   0  0  0  0  0  0  0  0  0  0  0  0
    2.5787    0.4886   -0.3659 C   0  0  2  0  0  0  0  0  0  0  0  0
    0.1905    1.5859    0.0461 C   0  0  2  0  0  0  0  0  0  0  0  0
   -1.8921   -2.2696   -0.3374 C   0  0  0  0  0  0  0  0  0  0  0  0
   -3.3031   -1.8525    0.1277 C   0  0  1  0  0  0  0  0  0  0  0  0
    1.2159   -2.2072   -0.2766 C   0  0  0  0  0  0  0  0  0  0  0  0
   -2.2014    0.4223   -1.6590 C   0  0  0  0  0  0  0  0  0  0  0  0
    3.3232   -0.8449   -0.2140 C   0  0  0  0  0  0  0  0  0  0  0  0
    2.6406   -2.0616   -0.7894 C   0  0  0  0  0  0  0  0  0  0  0  0
    3.2417    1.5732    0.5325 C   0  0  0  0  0  0  0  0  0  0  0  0
    2.7076    0.9156   -1.8456 C   0  0  0  0  0  0  0  0  0  0  0  0
   -4.4368    0.4057    0.1925 C   0  0  0  0  0  0  0  0  0  0  0  0
    4.7604    1.5769    0.4610 C   0  0  0  0  0  0  0  0  0  0  0  0
    4.5330   -0.9719    0.3565 C   0  0  0  0  0  0  0  0  0  0  0  0
    5.2998    0.2135    0.8037 C   0  0  0  0  0  0  0  0  0  0  0  0
   -4.4362    1.8740    0.5611 C   0  0  0  0  0  0  0  0  0  0  0  0
   -0.8690   -1.1976    1.1684 H   0  0  0  0  0  0  0  0  0  0  0  0
    0.3105   -0.8104   -1.6136 H   0  0  0  0  0  0  0  0  0  0  0  0
    1.1413    0.0696    1.1889 H   0  0  0  0  0  0  0  0  0  0  0  0
   -3.0966   -0.3071    1.6381 H   0  0  0  0  0  0  0  0  0  0  0  0
   -1.2481    1.2007    1.6062 H   0  0  0  0  0  0  0  0  0  0  0  0
   -1.8318    2.2609    0.3232 H   0  0  0  0  0  0  0  0  0  0  0  0
    0.6176    2.3586    0.6939 H   0  0  0  0  0  0  0  0  0  0  0  0
   -1.8715   -2.3911   -1.4264 H   0  0  0  0  0  0  0  0  0  0  0  0
   -1.5620   -3.2073    0.1207 H   0  0  0  0  0  0  0  0  0  0  0  0
   -4.0182   -2.0540   -0.6764 H   0  0  0  0  0  0  0  0  0  0  0  0
    0.7514   -3.0669   -0.7738 H   0  0  0  0  0  0  0  0  0  0  0  0
    1.2359   -2.4357    0.7972 H   0  0  0  0  0  0  0  0  0  0  0  0
   -2.5874    1.4363   -1.8057 H   0  0  0  0  0  0  0  0  0  0  0  0
   -1.3289    0.3079   -2.3012 H   0  0  0  0  0  0  0  0  0  0  0  0
   -2.9510   -0.2611   -2.0739 H   0  0  0  0  0  0  0  0  0  0  0  0
    2.6316   -1.9835   -1.8835 H   0  0  0  0  0  0  0  0  0  0  0  0
    3.1946   -2.9785   -0.5531 H   0  0  0  0  0  0  0  0  0  0  0  0
    2.9536    1.4073    1.5802 H   0  0  0  0  0  0  0  0  0  0  0  0
    2.8757    2.5721    0.2660 H   0  0  0  0  0  0  0  0  0  0  0  0
    2.4612    1.9714   -1.9930 H   0  0  0  0  0  0  0  0  0  0  0  0
    3.7364    0.7941   -2.2073 H   0  0  0  0  0  0  0  0  0  0  0  0
    2.0728    0.3199   -2.5086 H   0  0  0  0  0  0  0  0  0  0  0  0
    5.1526    2.2986    1.1860 H   0  0  0  0  0  0  0  0  0  0  0  0
    5.1217    1.8605   -0.5324 H   0  0  0  0  0  0  0  0  0  0  0  0
    0.2163    1.4157   -1.9135 H   0  0  0  0  0  0  0  0  0  0  0  0
    5.0228   -1.9348    0.4548 H   0  0  0  0  0  0  0  0  0  0  0  0
   -4.5808   -2.3091    1.5262 H   0  0  0  0  0  0  0  0  0  0  0  0
   -4.0460    2.4616   -0.2720 H   0  0  0  0  0  0  0  0  0  0  0  0
   -3.8327    2.0438    1.4562 H   0  0  0  0  0  0  0  0  0  0  0  0
   -6.0496    1.8458    1.6398 H   0  0  0  0  0  0  0  0  0  0  0  0
  1 13  1  0  0  0  0
  1 51  1  0  0  0  0
  2 15  1  0  0  0  0
  2 53  1  0  0  0  0
  3 22  2  0  0  0  0
  4 25  2  0  0  0  0
  5 26  1  0  0  0  0
  5 56  1  0  0  0  0
  6  7  1  0  0  0  0
  6 10  1  0  0  0  0
  6 11  1  0  0  0  0
  6 17  1  0  0  0  0
  7  8  1  0  0  0  0
  7 14  1  0  0  0  0
  7 27  1  0  0  0  0
  8  9  1  0  0  0  0
  8 16  1  0  0  0  0
  8 28  1  0  0  0  0
  9 12  1  0  0  0  0
  9 13  1  0  0  0  0
  9 29  1  0  0  0  0
 10 15  1  0  0  0  0
 10 22  1  0  0  0  0
 10 30  1  0  0  0  0
 11 13  1  0  0  0  0
 11 31  1  0  0  0  0
 11 32  1  0  0  0  0
 12 18  1  0  0  0  0
 12 20  1  0  0  0  0
 12 21  1  0  0  0  0
 13 33  1  0  0  0  0
 14 15  1  0  0  0  0
 14 34  1  0  0  0  0
 14 35  1  0  0  0  0
 15 36  1  0  0  0  0
 16 19  1  0  0  0  0
 16 37  1  0  0  0  0
 16 38  1  0  0  0  0
 17 39  1  0  0  0  0
 17 40  1  0  0  0  0
 17 41  1  0  0  0  0
 18 19  1  0  0  0  0
 18 24  2  0  0  0  0
 19 42  1  0  0  0  0
 19 43  1  0  0  0  0
 20 23  1  0  0  0  0
 20 44  1  0  0  0  0
 20 45  1  0  0  0  0
 21 46  1  0  0  0  0
 21 47  1  0  0  0  0
 21 48  1  0  0  0  0
 22 26  1  0  0  0  0
 23 25  1  0  0  0  0
 23 49  1  0  0  0  0
 23 50  1  0  0  0  0
 24 25  1  0  0  0  0
 24 52  1  0  0  0  0
 26 54  1  0  0  0  0
 26 55  1  0  0  0  0
M  END
> <PUBCHEM_COMPOUND_CID>
236825

> <PUBCHEM_CONFORMER_RMSD>
0.8

> <PUBCHEM_CONFORMER_DIVERSEORDER>
1
2

> <PUBCHEM_MMFF94_PARTIAL_CHARGES>
20
1 -0.68
10 0.06
12 0.14
13 0.28
15 0.28
18 -0.28
19 0.14
2 -0.68
22 0.45
23 0.06
24 -0.14
25 0.49
26 0.34
3 -0.57
4 -0.57
5 -0.68
51 0.4
52 0.15
53 0.4
56 0.4

> <PUBCHEM_EFFECTIVE_ROTOR_COUNT>
3.8

> <PUBCHEM_PHARMACOPHORE_FEATURES>
12
1 1 acceptor
1 1 donor
1 2 acceptor
1 2 donor
1 3 acceptor
1 4 acceptor
1 5 acceptor
1 5 donor
5 6 7 10 14 15 rings
6 12 18 20 23 24 25 rings
6 6 7 8 9 11 13 rings
6 8 9 12 16 18 19 rings

> <PUBCHEM_HEAVY_ATOM_COUNT>
26

> <PUBCHEM_ATOM_DEF_STEREO_COUNT>
8

> <PUBCHEM_ATOM_UDEF_STEREO_COUNT>
0

> <PUBCHEM_BOND_DEF_STEREO_COUNT>
0

> <PUBCHEM_BOND_UDEF_STEREO_COUNT>
0

> <PUBCHEM_ISOTOPIC_ATOM_COUNT>
0

> <PUBCHEM_COMPONENT_COUNT>
1

> <PUBCHEM_CACTVS_TAUTO_COUNT>
20

> <PUBCHEM_CONFORMER_ID>
00039D1900000001

> <PUBCHEM_MMFF94_ENERGY>
85.1401

> <PUBCHEM_FEATURE_SELFOVERLAP>
60.992

> <PUBCHEM_SHAPE_FINGERPRINT>
10062212 137 18341896238460500703
10366900 7 6699800982113982871
10906281 52 18200578247100135748
11045977 3 18113621175194328280
11089746 13 17676497150143063537
11132069 177 18412821378339467687
11405975 8 18272086084728031515
11961588 58 5400786285783532454
12035758 1 18272356608382227817
12236239 1 18059856122090810380
12403259 415 18042123172688086728
12403814 3 17775287157987140741
12422481 6 18342740749426946696
12616971 3 17203605973723097236
12633257 1 17632295653156202846
12788726 201 17023179491470690416
13140716 1 18411980303484209882
13224815 77 18335699412559297894
13583140 156 17095529439711361299
14178342 30 18411976944819173645
14790565 3 18050842213881661364
15142383 8 16415206722898266661
15196674 1 18409446960206081906
15238133 3 18338226150246237908
15375358 24 18260264148696736663
15788980 27 17060624382040428781
15840311 113 17825655923538403961
1601671 61 18409726266134708788
17349148 13 18411427210501273244
17980427 23 18272090448974155836
1813 80 17203888574271234276
19141452 34 18413107255947560159
20511986 3 18114477745996424539
20715895 44 18266459982903820097
21033648 29 17894925009146157538
21267235 1 18410282601754312623
21279426 13 18189895499198335285
21304253 335 18337382842186775677
21421861 104 18059020617544353082
21452121 103 18261111911143615522
21859007 373 17629492057725646029
22182313 1 18057328498638756060
23402539 116 18339089202602318414
23559900 14 18262795310627571246
26918003 58 18411422795491131864
335352 9 18337105777930306142
34797466 226 16588301648790082661
34934 24 18334860545216697983
3633792 109 18263370355715046845
3680242 22 18269556194683406858
392239 28 17895474709521044594
4073 2 18272084968569746042
4340502 62 18261108612297528417
5104073 3 18341615884717785170
7064713 232 18410012122130788908
7226269 152 18114181977553806265
7495541 125 13326847821100204220
9709674 26 18261948651997641975

> <PUBCHEM_SHAPE_MULTIPOLES>
505.72
11.79
2.55
1.16
1.35
0.54
0.33
-3.03
-4.17
-1.54
-0.18
0.36
-0.18
0.16

> <PUBCHEM_SHAPE_SELFOVERLAP>
1084.829

> <PUBCHEM_SHAPE_VOLUME>
275.7

> <PUBCHEM_COORDINATE_TYPE>
2
5
10

$$$$

