193042
  -OEChem-07051212593D

 48 51  0     1  0  0  0  0  0999 V2000
    0.2466    2.2465    1.8165 O   0  0  0  0  0  0  0  0  0  0  0  0
   -0.2461   -2.2474    1.8161 O   0  0  0  0  0  0  0  0  0  0  0  0
    6.1035    1.4964   -0.8396 O   0  0  0  0  0  0  0  0  0  0  0  0
   -6.1037   -1.4960   -0.8398 O   0  0  0  0  0  0  0  0  0  0  0  0
    7.0823   -0.5019    0.0862 O   0  0  0  0  0  0  0  0  0  0  0  0
   -7.0823    0.5021    0.0861 O   0  0  0  0  0  0  0  0  0  0  0  0
    0.7541    0.2075    0.6064 C   0  0  1  0  0  0  0  0  0  0  0  0
   -0.7538   -0.2078    0.6067 C   0  0  1  0  0  0  0  0  0  0  0  0
    1.5316   -0.3546   -0.6154 C   0  0  0  0  0  0  0  0  0  0  0  0
   -1.5317    0.3546   -0.6150 C   0  0  0  0  0  0  0  0  0  0  0  0
    0.9515    1.7320    0.6914 C   0  0  0  0  0  0  0  0  0  0  0  0
   -0.9511   -1.7323    0.6913 C   0  0  0  0  0  0  0  0  0  0  0  0
    3.0267   -0.4290   -0.4120 C   0  0  0  0  0  0  0  0  0  0  0  0
   -3.0268    0.4290   -0.4117 C   0  0  0  0  0  0  0  0  0  0  0  0
    3.8110    0.6607   -0.7638 C   0  0  0  0  0  0  0  0  0  0  0  0
   -3.8111   -0.6606   -0.7637 C   0  0  0  0  0  0  0  0  0  0  0  0
    3.5797   -1.5939    0.1255 C   0  0  0  0  0  0  0  0  0  0  0  0
   -3.5798    1.5938    0.1259 C   0  0  0  0  0  0  0  0  0  0  0  0
    5.1707    0.5457   -0.5596 C   0  0  0  0  0  0  0  0  0  0  0  0
   -5.1709   -0.5455   -0.5596 C   0  0  0  0  0  0  0  0  0  0  0  0
    4.9597   -1.6843    0.3223 C   0  0  0  0  0  0  0  0  0  0  0  0
   -4.9597    1.6844    0.3225 C   0  0  0  0  0  0  0  0  0  0  0  0
    5.7297   -0.5954   -0.0311 C   0  0  0  0  0  0  0  0  0  0  0  0
   -5.7298    0.5955   -0.0310 C   0  0  0  0  0  0  0  0  0  0  0  0
    7.3122    0.8260   -0.4273 C   0  0  0  0  0  0  0  0  0  0  0  0
   -7.3123   -0.8257   -0.4275 C   0  0  0  0  0  0  0  0  0  0  0  0
    1.1901   -0.2120    1.5240 H   0  0  0  0  0  0  0  0  0  0  0  0
   -1.1931    0.2067    1.5244 H   0  0  0  0  0  0  0  0  0  0  0  0
    1.1909   -1.3635   -0.8691 H   0  0  0  0  0  0  0  0  0  0  0  0
    1.3134    0.2458   -1.5089 H   0  0  0  0  0  0  0  0  0  0  0  0
   -1.1896    1.3636   -0.8673 H   0  0  0  0  0  0  0  0  0  0  0  0
   -1.3135   -0.2452   -1.5089 H   0  0  0  0  0  0  0  0  0  0  0  0
    2.0041    1.9744    0.8585 H   0  0  0  0  0  0  0  0  0  0  0  0
    0.6335    2.2652   -0.2090 H   0  0  0  0  0  0  0  0  0  0  0  0
   -0.6078   -2.2567   -0.2039 H   0  0  0  0  0  0  0  0  0  0  0  0
   -2.0035   -1.9906    0.8370 H   0  0  0  0  0  0  0  0  0  0  0  0
    3.3869    1.5636   -1.1883 H   0  0  0  0  0  0  0  0  0  0  0  0
   -3.3871   -1.5633   -1.1887 H   0  0  0  0  0  0  0  0  0  0  0  0
    2.9481   -2.4354    0.3977 H   0  0  0  0  0  0  0  0  0  0  0  0
   -2.9487    2.4359    0.3974 H   0  0  0  0  0  0  0  0  0  0  0  0
   -0.6872    2.3365    1.5621 H   0  0  0  0  0  0  0  0  0  0  0  0
   -0.5917   -1.8013    2.6081 H   0  0  0  0  0  0  0  0  0  0  0  0
    5.4037   -2.5812    0.7389 H   0  0  0  0  0  0  0  0  0  0  0  0
   -5.4039    2.5814    0.7389 H   0  0  0  0  0  0  0  0  0  0  0  0
    7.7970    1.4247    0.3523 H   0  0  0  0  0  0  0  0  0  0  0  0
    7.9865    0.7573   -1.2887 H   0  0  0  0  0  0  0  0  0  0  0  0
   -7.7972   -1.4245    0.3521 H   0  0  0  0  0  0  0  0  0  0  0  0
   -7.9866   -0.7569   -1.2888 H   0  0  0  0  0  0  0  0  0  0  0  0
  1 11  1  0  0  0  0
  1 41  1  0  0  0  0
  2 12  1  0  0  0  0
  2 42  1  0  0  0  0
  3 19  1  0  0  0  0
  3 25  1  0  0  0  0
  4 20  1  0  0  0  0
  4 26  1  0  0  0  0
  5 23  1  0  0  0  0
  5 25  1  0  0  0  0
  6 24  1  0  0  0  0
  6 26  1  0  0  0  0
  7  8  1  0  0  0  0
  7  9  1  0  0  0  0
  7 11  1  0  0  0  0
  7 27  1  0  0  0  0
  8 10  1  0  0  0  0
  8 12  1  0  0  0  0
  8 28  1  0  0  0  0
  9 13  1  0  0  0  0
  9 29  1  0  0  0  0
  9 30  1  0  0  0  0
 10 14  1  0  0  0  0
 10 31  1  0  0  0  0
 10 32  1  0  0  0  0
 11 33  1  0  0  0  0
 11 34  1  0  0  0  0
 12 35  1  0  0  0  0
 12 36  1  0  0  0  0
 13 15  2  0  0  0  0
 13 17  1  0  0  0  0
 14 16  2  0  0  0  0
 14 18  1  0  0  0  0
 15 19  1  0  0  0  0
 15 37  1  0  0  0  0
 16 20  1  0  0  0  0
 16 38  1  0  0  0  0
 17 21  2  0  0  0  0
 17 39  1  0  0  0  0
 18 22  2  0  0  0  0
 18 40  1  0  0  0  0
 19 23  2  0  0  0  0
 20 24  2  0  0  0  0
 21 23  1  0  0  0  0
 21 43  1  0  0  0  0
 22 24  1  0  0  0  0
 22 44  1  0  0  0  0
 25 45  1  0  0  0  0
 25 46  1  0  0  0  0
 26 47  1  0  0  0  0
 26 48  1  0  0  0  0
M  END
> <PUBCHEM_COMPOUND_CID>
193042

> <PUBCHEM_CONFORMER_RMSD>
1

> <PUBCHEM_CONFORMER_DIVERSEORDER>
1
5
51
52
9
22
11
45
33
16
4
38
40
2
30
15
42
20
43
13
12
32
50
10
19
37
21
7
31
26
47
34
35
39
24
25
8
23
6
44
49
18
46
3
14
29
27
48
17
41
28
36

> <PUBCHEM_MMFF94_PARTIAL_CHARGES>
32
1 -0.68
10 0.14
11 0.28
12 0.28
13 -0.14
14 -0.14
15 -0.15
16 -0.15
17 -0.15
18 -0.15
19 0.08
2 -0.68
20 0.08
21 -0.15
22 -0.15
23 0.08
24 0.08
25 0.56
26 0.56
3 -0.36
37 0.15
38 0.15
39 0.15
4 -0.36
40 0.15
41 0.4
42 0.4
43 0.15
44 0.15
5 -0.36
6 -0.36
9 0.14

> <PUBCHEM_EFFECTIVE_ROTOR_COUNT>
8.2

> <PUBCHEM_PHARMACOPHORE_FEATURES>
13
1 1 acceptor
1 1 donor
1 2 acceptor
1 2 donor
1 3 acceptor
1 4 acceptor
1 5 acceptor
1 6 acceptor
4 7 8 9 10 hydrophobe
5 3 5 19 23 25 rings
5 4 6 20 24 26 rings
6 13 15 17 19 21 23 rings
6 14 16 18 20 22 24 rings

> <PUBCHEM_HEAVY_ATOM_COUNT>
26

> <PUBCHEM_ATOM_DEF_STEREO_COUNT>
2

> <PUBCHEM_ATOM_UDEF_STEREO_COUNT>
0

> <PUBCHEM_BOND_DEF_STEREO_COUNT>
0

> <PUBCHEM_BOND_UDEF_STEREO_COUNT>
0

> <PUBCHEM_ISOTOPIC_ATOM_COUNT>
0

> <PUBCHEM_COMPONENT_COUNT>
1

> <PUBCHEM_CACTVS_TAUTO_COUNT>
1

> <PUBCHEM_CONFORMER_ID>
0002F21200000001

> <PUBCHEM_MMFF94_ENERGY>
71.9271

> <PUBCHEM_FEATURE_SELFOVERLAP>
66.28

> <PUBCHEM_SHAPE_FINGERPRINT>
10 15 14907896051418945092
10299344 5 18408040714967343591
10319688 140 14201939307784720388
10595046 47 18410856598294495260
10835480 77 18129659687195676820
10906281 52 18188470454940509000
11315181 36 18407758141244019365
11524674 6 13901903401864892601
11646440 116 15697994154402799772
11719270 70 17822292418283752638
12107698 1 18113902650350685433
12166972 35 18411980256640626244
12236239 1 18410574019511189622
12516196 113 17749109993511083296
12788726 201 17895753023449479992
13533116 47 18339645650608412386
13899415 154 17385442111951312392
14123256 10 18410855455833194742
14251764 18 18410292510174740782
14251764 46 18202002127790894950
14849402 71 18337386046164391177
14856354 85 17748824099471727519
15131766 46 13181014032496111230
15183329 4 18410856563940031771
15419008 47 15864074294713961225
15537594 2 16081374076235646109
15849732 13 16660364766219458501
16993438 75 17986663784018282803
17492 89 17973723868468564006
18608769 82 18200588104309128107
18681886 176 18114191809065632195
20157964 124 18202562878721145294
21033650 10 18046597231119309028
21049683 271 18334857169304494360
21150785 3 18410575071778177097
21267235 1 17967248689377486729
21315763 28 18411701015315168260
21521721 280 18343578538395054571
23522609 53 18117532146386663289
23536379 177 18410855490192932964
23559900 14 18268151963568311649
3004659 81 18412261774898896918
3178227 256 18341319038491082243
3411729 13 17169289048322671928
34797466 226 16153426126230832648
397830 11 15266194961481310164
4073 2 17917424281716540826
4258327 124 17273958182846221956
4325135 7 18410575084668354116
4340502 62 17917992789457785138
5265222 85 17458913617322466390

> <PUBCHEM_SHAPE_MULTIPOLES>
499.85
20.4
1.9
1.04
0
0
0.29
0
-4.75
0
0.63
0
0
-1.06

> <PUBCHEM_SHAPE_SELFOVERLAP>
1086.974

> <PUBCHEM_SHAPE_VOLUME>
273.2

> <PUBCHEM_COORDINATE_TYPE>
2
5
10

$$$$

