9543340
  -OEChem-07051213113D

 36 39  0     0  0  0  0  0  0999 V2000
    0.6629   -2.2081   -1.7704 O   0  0  0  0  0  0  0  0  0  0  0  0
    1.1028   -3.0381    0.2993 O   0  0  0  0  0  0  0  0  0  0  0  0
    2.8375   -2.2959   -0.4773 O   0  0  0  0  0  0  0  0  0  0  0  0
    2.5867   -1.6887    1.6987 O   0  0  0  0  0  0  0  0  0  0  0  0
   -0.0187    0.2681    0.0136 C   0  0  0  0  0  0  0  0  0  0  0  0
   -1.1342    1.1557    0.0036 C   0  0  0  0  0  0  0  0  0  0  0  0
    1.3316    0.7809   -0.0251 C   0  0  0  0  0  0  0  0  0  0  0  0
   -2.4846    0.6427    0.0424 C   0  0  0  0  0  0  0  0  0  0  0  0
    1.5394    2.1801   -0.0733 C   0  0  0  0  0  0  0  0  0  0  0  0
   -0.2978   -1.1130    0.0625 C   0  0  0  0  0  0  0  0  0  0  0  0
   -2.6924   -0.7564    0.0907 C   0  0  0  0  0  0  0  0  0  0  0  0
   -0.8551    2.5366   -0.0453 C   0  0  0  0  0  0  0  0  0  0  0  0
   -1.5972   -1.6139    0.1001 C   0  0  0  0  0  0  0  0  0  0  0  0
    2.5012   -0.0247   -0.0182 C   0  0  0  0  0  0  0  0  0  0  0  0
    0.4443    3.0376   -0.0828 C   0  0  0  0  0  0  0  0  0  0  0  0
   -3.6541    1.4484    0.0361 C   0  0  0  0  0  0  0  0  0  0  0  0
    2.8376    2.7193   -0.1117 C   0  0  0  0  0  0  0  0  0  0  0  0
   -3.9904   -1.2956    0.1297 C   0  0  0  0  0  0  0  0  0  0  0  0
    3.7884    0.5201   -0.0568 C   0  0  0  0  0  0  0  0  0  0  0  0
    3.9565    1.8941   -0.1036 C   0  0  0  0  0  0  0  0  0  0  0  0
    0.5468   -2.2031   -0.4162 C   0  0  0  0  0  0  0  0  0  0  0  0
   -4.9413    0.9037    0.0750 C   0  0  0  0  0  0  0  0  0  0  0  0
   -5.1095   -0.4704    0.1220 C   0  0  0  0  0  0  0  0  0  0  0  0
    2.6396   -1.3796    0.5070 C   0  0  0  0  0  0  0  0  0  0  0  0
   -1.6521    3.2756   -0.0558 H   0  0  0  0  0  0  0  0  0  0  0  0
   -1.7716   -2.6909    0.0812 H   0  0  0  0  0  0  0  0  0  0  0  0
    0.5816    4.1169   -0.1196 H   0  0  0  0  0  0  0  0  0  0  0  0
   -3.5906    2.5329    0.0003 H   0  0  0  0  0  0  0  0  0  0  0  0
    2.9884    3.7969   -0.1454 H   0  0  0  0  0  0  0  0  0  0  0  0
   -4.1420   -2.3730    0.1671 H   0  0  0  0  0  0  0  0  0  0  0  0
    4.6774   -0.1046    0.0110 H   0  0  0  0  0  0  0  0  0  0  0  0
    4.9529    2.3248   -0.1191 H   0  0  0  0  0  0  0  0  0  0  0  0
   -5.8073    1.5592    0.0684 H   0  0  0  0  0  0  0  0  0  0  0  0
   -6.1060   -0.9001    0.1525 H   0  0  0  0  0  0  0  0  0  0  0  0
    1.2317   -2.9425   -2.0857 H   0  0  0  0  0  0  0  0  0  0  0  0
    3.0073   -3.1937   -0.1184 H   0  0  0  0  0  0  0  0  0  0  0  0
  1 21  1  0  0  0  0
  1 35  1  0  0  0  0
  2 21  2  0  0  0  0
  3 24  1  0  0  0  0
  3 36  1  0  0  0  0
  4 24  2  0  0  0  0
  5  6  2  0  0  0  0
  5  7  1  0  0  0  0
  5 10  1  0  0  0  0
  6  8  1  0  0  0  0
  6 12  1  0  0  0  0
  7  9  2  0  0  0  0
  7 14  1  0  0  0  0
  8 11  1  0  0  0  0
  8 16  2  0  0  0  0
  9 15  1  0  0  0  0
  9 17  1  0  0  0  0
 10 13  2  0  0  0  0
 10 21  1  0  0  0  0
 11 13  1  0  0  0  0
 11 18  2  0  0  0  0
 12 15  2  0  0  0  0
 12 25  1  0  0  0  0
 13 26  1  0  0  0  0
 14 19  2  0  0  0  0
 14 24  1  0  0  0  0
 15 27  1  0  0  0  0
 16 22  1  0  0  0  0
 16 28  1  0  0  0  0
 17 20  2  0  0  0  0
 17 29  1  0  0  0  0
 18 23  1  0  0  0  0
 18 30  1  0  0  0  0
 19 20  1  0  0  0  0
 19 31  1  0  0  0  0
 20 32  1  0  0  0  0
 22 23  2  0  0  0  0
 22 33  1  0  0  0  0
 23 34  1  0  0  0  0
M  END
> <PUBCHEM_COMPOUND_CID>
9543340

> <PUBCHEM_CONFORMER_RMSD>
0.6

> <PUBCHEM_CONFORMER_DIVERSEORDER>
1

> <PUBCHEM_MMFF94_PARTIAL_CHARGES>
30
1 -0.65
10 0.09
12 -0.15
13 -0.15
14 0.09
15 -0.15
16 -0.15
17 -0.15
18 -0.15
19 -0.15
2 -0.57
20 -0.15
21 0.63
22 -0.15
23 -0.15
24 0.63
25 0.15
26 0.15
27 0.15
28 0.15
29 0.15
3 -0.65
30 0.15
31 0.15
32 0.15
33 0.15
34 0.15
35 0.5
36 0.5
4 -0.57

> <PUBCHEM_EFFECTIVE_ROTOR_COUNT>
2

> <PUBCHEM_PHARMACOPHORE_FEATURES>
10
1 1 acceptor
1 2 acceptor
1 3 acceptor
1 4 acceptor
3 1 2 21 anion
3 3 4 24 anion
6 5 6 7 9 12 15 rings
6 5 6 8 10 11 13 rings
6 7 9 14 17 19 20 rings
6 8 11 16 18 22 23 rings

> <PUBCHEM_HEAVY_ATOM_COUNT>
24

> <PUBCHEM_ATOM_DEF_STEREO_COUNT>
0

> <PUBCHEM_ATOM_UDEF_STEREO_COUNT>
0

> <PUBCHEM_BOND_DEF_STEREO_COUNT>
0

> <PUBCHEM_BOND_UDEF_STEREO_COUNT>
0

> <PUBCHEM_ISOTOPIC_ATOM_COUNT>
0

> <PUBCHEM_COMPONENT_COUNT>
1

> <PUBCHEM_CACTVS_TAUTO_COUNT>
1

> <PUBCHEM_CONFORMER_ID>
00919EAC00000001

> <PUBCHEM_MMFF94_ENERGY>
161.6802

> <PUBCHEM_FEATURE_SELFOVERLAP>
51.165

> <PUBCHEM_SHAPE_FINGERPRINT>
10411042 1 17762337311704401051
10493431 412 18193278481760629896
10616163 171 18337951169607932871
10948715 1 18266739082662863068
10967382 1 18410855434421856420
1100329 8 18194404377530682872
11578080 2 13684571699945920317
116883 192 18120089739154450285
12011746 2 18410568475003946292
12422481 6 18268735903380317624
12553582 1 18339083820754796525
12592029 89 18340483365997378657
12633257 1 18197219354756456825
12644460 14 18342170077053645529
12838862 33 18266197057775004652
13140716 1 18410862057234917048
138480 1 18338797947953088334
14178342 30 17615707132502911528
14223421 5 18339926038093168749
14790565 3 18196363724051979980
15196674 1 18411136939827211617
15536298 74 18407758144642044945
1601671 61 18409446968669422512
16945 1 18123475144156953426
17492 89 18410011018599338291
19591789 44 18122905334908781745
20028762 73 17898568666538804679
20645477 70 18412265034430726485
20691752 17 17632572781931945569
20715895 44 17981618370630443101
20739085 24 18268688654292379265
20905425 154 18337951306825353532
21197605 99 17906723714449311011
21267235 1 18411409601103672066
21421861 104 18129100202563140369
221490 88 18412818084479470267
2334 1 18338237055120437100
23419403 2 17844267300082370046
23463225 33 18411983567891008593
23559900 14 18336267962859714830
2748010 2 18410853218297918044
335352 9 18267021854741043365
33824 294 18412263904643539016
34934 24 18338521824606082672
350125 39 18411701015341866712
3680242 22 18126284375218087449
4409770 3 16617589679838403310
44154327 71 18409729547505267902
474 4 18411136918320785251
484985 159 14969310673216020722
5104073 3 18413105078842461513
5939293 188 18410014351102764408
6138700 20 18410004460373317726
6443956 14 18411695530093837853
7364860 26 18409164419850459652
81228 2 17614551966799228899
8272917 22 18408598175989386301
9709674 26 18412257329354693843

> <PUBCHEM_SHAPE_MULTIPOLES>
470.43
7.84
3.46
0.82
6.65
0.04
-0.02
-1.4
0.52
-2.18
-0.21
-0.32
0.43
-0.22

> <PUBCHEM_SHAPE_SELFOVERLAP>
1096.639

> <PUBCHEM_SHAPE_VOLUME>
237.4

> <PUBCHEM_COORDINATE_TYPE>
2
5
10

$$$$

