161538
  -OEChem-07051212572D

 65 68  0     1  0  0  0  0  0999 V2000
    7.1854    0.1969    0.0000 O   0  0  0  0  0  0  0  0  0  0  0  0
   10.8125    3.3696    0.0000 O   0  0  0  0  0  0  0  0  0  0  0  0
   10.3483   -1.3263    0.0000 O   0  0  0  0  0  0  0  0  0  0  0  0
    5.5839   -0.4627    0.0000 O   0  0  0  0  0  0  0  0  0  0  0  0
   12.5523    3.7278    0.0000 O   0  0  0  0  0  0  0  0  0  0  0  0
    7.9471   -1.6524    0.0000 O   0  0  0  0  0  0  0  0  0  0  0  0
    6.7264   -3.2367    0.0000 O   0  0  0  0  0  0  0  0  0  0  0  0
    4.7440   -2.9716    0.0000 O   0  0  0  0  0  0  0  0  0  0  0  0
    3.6015   -0.1977    0.0000 O   0  0  0  0  0  0  0  0  0  0  0  0
    2.0000   -0.8573    0.0000 O   0  0  0  0  0  0  0  0  0  0  0  0
    8.8617    0.7846    0.0000 C   0  0  2  0  0  0  0  0  0  0  0  0
    9.7627    0.3508    0.0000 C   0  0  2  0  0  0  0  0  0  0  0  0
    8.6392    1.7596    0.0000 C   0  0  1  0  0  0  0  0  0  0  0  0
    8.1766    0.0643    0.0000 C   0  0  2  0  0  0  0  0  0  0  0  0
   10.6637    0.7846    0.0000 C   0  0  0  0  0  0  0  0  0  0  0  0
   10.8862    1.7596    0.0000 C   0  0  1  0  0  0  0  0  0  0  0  0
    9.2627    2.5414    0.0000 C   0  0  0  0  0  0  0  0  0  0  0  0
   10.2627    2.5414    0.0000 C   0  0  1  0  0  0  0  0  0  0  0  0
    9.6267   -0.6340    0.0000 C   0  0  0  0  0  0  0  0  0  0  0  0
    8.6484   -0.8106    0.0000 C   0  0  0  0  0  0  0  0  0  0  0  0
   10.6637   -0.0831    0.0000 C   0  0  0  0  0  0  0  0  0  0  0  0
    7.6643    1.9821    0.0000 C   0  0  0  0  0  0  0  0  0  0  0  0
   11.8160    2.1113    0.0000 C   0  0  0  0  0  0  0  0  0  0  0  0
    6.5751   -0.5953    0.0000 C   0  0  2  0  0  0  0  0  0  0  0  0
   11.7705    3.1043    0.0000 C   0  0  0  0  0  0  0  0  0  0  0  0
    6.9559   -1.5199    0.0000 C   0  0  1  0  0  0  0  0  0  0  0  0
   12.6515    1.5618    0.0000 C   0  0  0  0  0  0  0  0  0  0  0  0
    6.3456   -2.3120    0.0000 C   0  0  2  0  0  0  0  0  0  0  0  0
    4.9735   -1.2549    0.0000 C   0  0  1  0  0  0  0  0  0  0  0  0
    5.3544   -2.1795    0.0000 C   0  0  1  0  0  0  0  0  0  0  0  0
    3.9824   -1.1224    0.0000 C   0  0  0  0  0  0  0  0  0  0  0  0
    2.6104   -0.0652    0.0000 C   0  0  0  0  0  0  0  0  0  0  0  0
    2.2295    0.8595    0.0000 C   0  0  0  0  0  0  0  0  0  0  0  0
    8.0420    1.0097    0.0000 H   0  0  0  0  0  0  0  0  0  0  0  0
    8.2008    1.3212    0.0000 H   0  0  0  0  0  0  0  0  0  0  0  0
    7.9706    0.6491    0.0000 H   0  0  0  0  0  0  0  0  0  0  0  0
   10.8016    0.1802    0.0000 H   0  0  0  0  0  0  0  0  0  0  0  0
   11.2837    0.7846    0.0000 H   0  0  0  0  0  0  0  0  0  0  0  0
   11.5270    1.2012    0.0000 H   0  0  0  0  0  0  0  0  0  0  0  0
    9.4006    3.1459    0.0000 H   0  0  0  0  0  0  0  0  0  0  0  0
    8.7041    2.8104    0.0000 H   0  0  0  0  0  0  0  0  0  0  0  0
    9.8609    3.2904    0.0000 H   0  0  0  0  0  0  0  0  0  0  0  0
    8.0748   -1.0459    0.0000 H   0  0  0  0  0  0  0  0  0  0  0  0
    8.8221   -1.4058    0.0000 H   0  0  0  0  0  0  0  0  0  0  0  0
   10.3946   -0.6417    0.0000 H   0  0  0  0  0  0  0  0  0  0  0  0
   11.2223   -0.3521    0.0000 H   0  0  0  0  0  0  0  0  0  0  0  0
   10.9327    0.4755    0.0000 H   0  0  0  0  0  0  0  0  0  0  0  0
    7.8022    2.5865    0.0000 H   0  0  0  0  0  0  0  0  0  0  0  0
    7.0598    2.1200    0.0000 H   0  0  0  0  0  0  0  0  0  0  0  0
    7.5263    1.3776    0.0000 H   0  0  0  0  0  0  0  0  0  0  0  0
    6.3390   -0.0220    0.0000 H   0  0  0  0  0  0  0  0  0  0  0  0
    7.3343   -1.0288    0.0000 H   0  0  0  0  0  0  0  0  0  0  0  0
   12.6155    0.9429    0.0000 H   0  0  0  0  0  0  0  0  0  0  0  0
   13.2055    1.8401    0.0000 H   0  0  0  0  0  0  0  0  0  0  0  0
    5.9671   -2.8032    0.0000 H   0  0  0  0  0  0  0  0  0  0  0  0
    4.7374   -0.6816    0.0000 H   0  0  0  0  0  0  0  0  0  0  0  0
    5.5905   -2.7528    0.0000 H   0  0  0  0  0  0  0  0  0  0  0  0
    3.3768   -1.2553    0.0000 H   0  0  0  0  0  0  0  0  0  0  0  0
    4.0082   -1.7418    0.0000 H   0  0  0  0  0  0  0  0  0  0  0  0
    8.1832   -2.2257    0.0000 H   0  0  0  0  0  0  0  0  0  0  0  0
    6.3480   -3.7278    0.0000 H   0  0  0  0  0  0  0  0  0  0  0  0
    4.1295   -2.8895    0.0000 H   0  0  0  0  0  0  0  0  0  0  0  0
    2.8028    1.0956    0.0000 H   0  0  0  0  0  0  0  0  0  0  0  0
    1.9934    1.4327    0.0000 H   0  0  0  0  0  0  0  0  0  0  0  0
    1.6562    0.6233    0.0000 H   0  0  0  0  0  0  0  0  0  0  0  0
 14  1  1  6  0  0  0
 24  1  1  1  0  0  0
  2 18  1  0  0  0  0
  2 25  1  0  0  0  0
  3 19  2  0  0  0  0
  4 24  1  0  0  0  0
  4 29  1  0  0  0  0
  5 25  2  0  0  0  0
 26  6  1  6  0  0  0
  6 60  1  0  0  0  0
 28  7  1  1  0  0  0
  7 61  1  0  0  0  0
 30  8  1  6  0  0  0
  8 62  1  0  0  0  0
  9 31  1  0  0  0  0
  9 32  1  0  0  0  0
 10 32  2  0  0  0  0
 11 12  1  0  0  0  0
 11 13  1  0  0  0  0
 11 14  1  0  0  0  0
 11 34  1  6  0  0  0
 12 15  1  0  0  0  0
 12 19  1  0  0  0  0
 12 21  1  1  0  0  0
 13 17  1  0  0  0  0
 13 22  1  6  0  0  0
 13 35  1  0  0  0  0
 14 20  1  0  0  0  0
 14 36  1  0  0  0  0
 15 16  1  0  0  0  0
 15 37  1  0  0  0  0
 15 38  1  0  0  0  0
 16 18  1  0  0  0  0
 16 23  1  0  0  0  0
 16 39  1  6  0  0  0
 17 18  1  0  0  0  0
 17 40  1  0  0  0  0
 17 41  1  0  0  0  0
 18 42  1  6  0  0  0
 19 20  1  0  0  0  0
 20 43  1  0  0  0  0
 20 44  1  0  0  0  0
 21 45  1  0  0  0  0
 21 46  1  0  0  0  0
 21 47  1  0  0  0  0
 22 48  1  0  0  0  0
 22 49  1  0  0  0  0
 22 50  1  0  0  0  0
 23 25  1  0  0  0  0
 23 27  2  0  0  0  0
 24 26  1  0  0  0  0
 24 51  1  0  0  0  0
 26 28  1  0  0  0  0
 26 52  1  0  0  0  0
 27 53  1  0  0  0  0
 27 54  1  0  0  0  0
 28 30  1  0  0  0  0
 28 55  1  0  0  0  0
 29 30  1  0  0  0  0
 29 31  1  1  0  0  0
 29 56  1  0  0  0  0
 30 57  1  0  0  0  0
 31 58  1  0  0  0  0
 31 59  1  0  0  0  0
 32 33  1  0  0  0  0
 33 63  1  0  0  0  0
 33 64  1  0  0  0  0
 33 65  1  0  0  0  0
M  END
> <PUBCHEM_COMPOUND_CID>
161538

> <PUBCHEM_COMPOUND_CANONICALIZED>
1

> <PUBCHEM_CACTVS_COMPLEXITY>
841

> <PUBCHEM_CACTVS_HBOND_ACCEPTOR>
10

> <PUBCHEM_CACTVS_HBOND_DONOR>
3

> <PUBCHEM_CACTVS_ROTATABLE_BOND>
5

> <PUBCHEM_CACTVS_SUBSKEYS>
AAADcfB4PAAAAAAAAAAAAAAAAAAAAaIAAAAkAAAABgAAAADQAAAAGgAACAAADxSwgAMCCAAABgCIAoDSCAAAAAAgAAAAAAEAAEgRFBYAIQAiQAAF4AAHIIHK7PzPgAAAAAAAAAAAAAAAAAAAAIAADAAAAA==

> <PUBCHEM_IUPAC_OPENEYE_NAME>
[(2R,3S,4S,5R,6R)-6-[[(3aR,5R,5aS,6S,8aS,9aR)-5,8a-dimethyl-1-methylene-2,8-dioxo-3a,4,5,5a,6,7,9,9a-octahydroazuleno[6,5-b]furan-6-yl]oxy]-3,4,5-trihydroxy-tetrahydropyran-2-yl]methyl acetate

> <PUBCHEM_IUPAC_CAS_NAME>
acetic acid [(2R,3S,4S,5R,6R)-6-[[(3aR,5R,5aS,6S,8aS,9aR)-5,8a-dimethyl-1-methylene-2,8-dioxo-3a,4,5,5a,6,7,9,9a-octahydroazuleno[6,5-b]furan-6-yl]oxy]-3,4,5-trihydroxy-2-oxanyl]methyl ester

> <PUBCHEM_IUPAC_NAME>
[(2R,3S,4S,5R,6R)-6-[[(3aR,5R,5aS,6S,8aS,9aR)-5,8a-dimethyl-1-methylidene-2,8-dioxo-3a,4,5,5a,6,7,9,9a-octahydroazuleno[6,5-b]furan-6-yl]oxy]-3,4,5-trihydroxyoxan-2-yl]methyl acetate

> <PUBCHEM_IUPAC_SYSTEMATIC_NAME>
[(2R,3S,4S,5R,6R)-6-[[(3aR,5R,5aS,6S,8aS,9aR)-5,8a-dimethyl-1-methylidene-2,8-bis(oxidanylidene)-3a,4,5,5a,6,7,9,9a-octahydroazuleno[6,5-b]furan-6-yl]oxy]-3,4,5-tris(oxidanyl)oxan-2-yl]methyl ethanoate

> <PUBCHEM_IUPAC_TRADITIONAL_NAME>
acetic acid [(2R,3S,4S,5R,6R)-6-[[(3aR,5R,5aS,6S,8aS,9aR)-2,8-diketo-5,8a-dimethyl-1-methylene-3a,4,5,5a,6,7,9,9a-octahydroazuleno[6,5-b]furan-6-yl]oxy]-3,4,5-trihydroxy-tetrahydropyran-2-yl]methyl ester

> <PUBCHEM_IUPAC_INCHI>
InChI=1S/C23H32O10/c1-9-5-13-12(10(2)21(29)31-13)7-23(4)16(25)6-14(17(9)23)32-22-20(28)19(27)18(26)15(33-22)8-30-11(3)24/h9,12-15,17-20,22,26-28H,2,5-8H2,1,3-4H3/t9-,12-,13-,14+,15-,17-,18-,19+,20-,22-,23-/m1/s1

> <PUBCHEM_IUPAC_INCHIKEY>
GUDGKGBWXIZDPA-ZOWPBZTMSA-N

> <PUBCHEM_XLOGP3_AA>
-0.2

> <PUBCHEM_EXACT_MASS>
468.199547

> <PUBCHEM_MOLECULAR_FORMULA>
C23H32O10

> <PUBCHEM_MOLECULAR_WEIGHT>
468.49418

> <PUBCHEM_OPENEYE_CAN_SMILES>
CC1CC2C(CC3(C1C(CC3=O)OC4C(C(C(C(O4)COC(=O)C)O)O)O)C)C(=C)C(=O)O2

> <PUBCHEM_OPENEYE_ISO_SMILES>
C[C@@H]1C[C@@H]2[C@H](C[C@]3([C@H]1[C@H](CC3=O)O[C@H]4[C@@H]([C@H]([C@@H]([C@H](O4)COC(=O)C)O)O)O)C)C(=C)C(=O)O2

> <PUBCHEM_CACTVS_TPSA>
149

> <PUBCHEM_MONOISOTOPIC_WEIGHT>
468.199547

> <PUBCHEM_TOTAL_CHARGE>
0

> <PUBCHEM_HEAVY_ATOM_COUNT>
33

> <PUBCHEM_ATOM_DEF_STEREO_COUNT>
11

> <PUBCHEM_ATOM_UDEF_STEREO_COUNT>
0

> <PUBCHEM_BOND_DEF_STEREO_COUNT>
0

> <PUBCHEM_BOND_UDEF_STEREO_COUNT>
0

> <PUBCHEM_ISOTOPIC_ATOM_COUNT>
0

> <PUBCHEM_COMPONENT_COUNT>
1

> <PUBCHEM_CACTVS_TAUTO_COUNT>
2

> <PUBCHEM_COORDINATE_TYPE>
1
5
255

> <PUBCHEM_BONDANNOTATIONS>
14  1  6
24  1  5
11  34  6
12  21  5
13  22  6
16  39  6
18  42  6
29  31  5
26  6  6
28  7  5
30  8  6

$$$$

