10630
  -OEChem-07051213103D

 22 22  0     0  0  0  0  0  0999 V2000
    0.8618   -1.3289    0.1600 O   0  0  0  0  0  0  0  0  0  0  0  0
    0.3645    2.0985   -0.2900 O   0  0  0  0  0  0  0  0  0  0  0  0
   -1.2348   -2.1934   -0.0736 O   0  0  0  0  0  0  0  0  0  0  0  0
   -0.8057    0.0792   -0.2729 N   0  0  0  0  0  0  0  0  0  0  0  0
    1.4684   -0.0261    0.1051 C   0  0  0  0  0  0  0  0  0  0  0  0
    0.2973    0.8834   -0.1762 C   0  0  0  0  0  0  0  0  0  0  0  0
    2.0986    0.2877    1.4534 C   0  0  0  0  0  0  0  0  0  0  0  0
    2.4762    0.0066   -1.0340 C   0  0  0  0  0  0  0  0  0  0  0  0
   -2.1506    0.5482   -0.5425 C   0  0  0  0  0  0  0  0  0  0  0  0
   -0.4833   -1.2278   -0.0670 C   0  0  0  0  0  0  0  0  0  0  0  0
   -2.8923    0.8725    0.7378 C   0  0  0  0  0  0  0  0  0  0  0  0
    2.8649   -0.4528    1.7073 H   0  0  0  0  0  0  0  0  0  0  0  0
    2.5552    1.2828    1.4628 H   0  0  0  0  0  0  0  0  0  0  0  0
    1.3502    0.2528    2.2538 H   0  0  0  0  0  0  0  0  0  0  0  0
    1.9952   -0.2280   -1.9907 H   0  0  0  0  0  0  0  0  0  0  0  0
    2.9473    0.9907   -1.1266 H   0  0  0  0  0  0  0  0  0  0  0  0
    3.2591   -0.7448   -0.8832 H   0  0  0  0  0  0  0  0  0  0  0  0
   -2.0907    1.4454   -1.1680 H   0  0  0  0  0  0  0  0  0  0  0  0
   -2.6925   -0.2268   -1.0950 H   0  0  0  0  0  0  0  0  0  0  0  0
   -2.9733   -0.0102    1.3809 H   0  0  0  0  0  0  0  0  0  0  0  0
   -2.3739    1.6514    1.3068 H   0  0  0  0  0  0  0  0  0  0  0  0
   -3.9032    1.2271    0.5148 H   0  0  0  0  0  0  0  0  0  0  0  0
  1  5  1  0  0  0  0
  1 10  1  0  0  0  0
  2  6  2  0  0  0  0
  3 10  2  0  0  0  0
  4  6  1  0  0  0  0
  4  9  1  0  0  0  0
  4 10  1  0  0  0  0
  5  6  1  0  0  0  0
  5  7  1  0  0  0  0
  5  8  1  0  0  0  0
  7 12  1  0  0  0  0
  7 13  1  0  0  0  0
  7 14  1  0  0  0  0
  8 15  1  0  0  0  0
  8 16  1  0  0  0  0
  8 17  1  0  0  0  0
  9 11  1  0  0  0  0
  9 18  1  0  0  0  0
  9 19  1  0  0  0  0
 11 20  1  0  0  0  0
 11 21  1  0  0  0  0
 11 22  1  0  0  0  0
M  END
> <PUBCHEM_COMPOUND_CID>
10630

> <PUBCHEM_CONFORMER_RMSD>
0.4

> <PUBCHEM_CONFORMER_DIVERSEORDER>
1
2

> <PUBCHEM_MMFF94_PARTIAL_CHARGES>
8
1 -0.43
10 0.78
2 -0.57
3 -0.57
4 -0.42
5 0.34
6 0.57
9 0.3

> <PUBCHEM_EFFECTIVE_ROTOR_COUNT>
1.6

> <PUBCHEM_PHARMACOPHORE_FEATURES>
4
1 2 acceptor
1 3 acceptor
3 5 7 8 hydrophobe
5 1 4 5 6 10 rings

> <PUBCHEM_HEAVY_ATOM_COUNT>
11

> <PUBCHEM_ATOM_DEF_STEREO_COUNT>
0

> <PUBCHEM_ATOM_UDEF_STEREO_COUNT>
0

> <PUBCHEM_BOND_DEF_STEREO_COUNT>
0

> <PUBCHEM_BOND_UDEF_STEREO_COUNT>
0

> <PUBCHEM_ISOTOPIC_ATOM_COUNT>
0

> <PUBCHEM_COMPONENT_COUNT>
1

> <PUBCHEM_CACTVS_TAUTO_COUNT>
1

> <PUBCHEM_CONFORMER_ID>
0000298600000001

> <PUBCHEM_MMFF94_ENERGY>
11.0104

> <PUBCHEM_FEATURE_SELFOVERLAP>
20.297

> <PUBCHEM_SHAPE_FINGERPRINT>
12423570 1 8173103081280129126
13839132 238 17822019657389029000
15310529 11 16630526249639700628
16945 1 18412832394941033965
20653085 51 16370999724343214265
20653091 64 17842849819283096024
21040471 1 18411143562239501198
21930827 45 18334854987402318994
23235685 24 18410288142251204701
23552423 10 17769941173011615422
23559900 14 18334285488794766790
2748010 2 18194403294771253644
29004967 10 18201437051148407561
5084963 1 18114175346081628369
528886 8 18339068376142135900

> <PUBCHEM_SHAPE_MULTIPOLES>
203.79
3.43
1.72
1.01
1.03
0.45
0.21
-0.72
0.33
0.46
-0.07
-0.49
-0.16
-0.04

> <PUBCHEM_SHAPE_SELFOVERLAP>
414.833

> <PUBCHEM_SHAPE_VOLUME>
121.6

> <PUBCHEM_COORDINATE_TYPE>
2
5
10

$$$$

