3185
  -OEChem-07051213043D

 55 57  0     0  0  0  0  0  0999 V2000
    7.6230    1.3778    0.1948 S   0  0  0  0  0  0  0  0  0  0  0  0
    1.6809   -2.8130    0.7936 O   0  0  0  0  0  0  0  0  0  0  0  0
    8.6431    2.2240   -0.3961 O   0  0  0  0  0  0  0  0  0  0  0  0
    6.9171    1.7990    1.3886 O   0  0  0  0  0  0  0  0  0  0  0  0
   -2.3101   -0.4464   -0.4207 N   0  0  0  0  0  0  0  0  0  0  0  0
   -6.5581    0.4532    0.8555 N   0  0  0  0  0  0  0  0  0  0  0  0
    6.5184    0.9127   -1.0419 N   0  0  0  0  0  0  0  0  0  0  0  0
    0.4228   -0.8132    0.5519 C   0  0  0  0  0  0  0  0  0  0  0  0
    0.1200   -0.2229   -0.8240 C   0  0  0  0  0  0  0  0  0  0  0  0
   -0.7327   -1.6980    1.0167 C   0  0  0  0  0  0  0  0  0  0  0  0
   -1.2429    0.4716   -0.8419 C   0  0  0  0  0  0  0  0  0  0  0  0
   -2.0674   -0.9551    0.9365 C   0  0  0  0  0  0  0  0  0  0  0  0
   -3.6126    0.2154   -0.4936 C   0  0  0  0  0  0  0  0  0  0  0  0
    1.6840   -1.6189    0.5036 C   0  0  0  0  0  0  0  0  0  0  0  0
   -4.7437   -0.7660   -0.1848 C   0  0  0  0  0  0  0  0  0  0  0  0
    2.9537   -0.9534    0.0967 C   0  0  0  0  0  0  0  0  0  0  0  0
   -6.0941   -0.1014   -0.2785 C   0  0  0  0  0  0  0  0  0  0  0  0
    3.1165    0.3861    0.3725 C   0  0  0  0  0  0  0  0  0  0  0  0
    3.9185   -1.7025   -0.5397 C   0  0  0  0  0  0  0  0  0  0  0  0
   -6.7525   -0.1037   -1.4891 C   0  0  0  0  0  0  0  0  0  0  0  0
    4.3053    1.0086   -0.0079 C   0  0  0  0  0  0  0  0  0  0  0  0
    5.1074   -1.0798   -0.9199 C   0  0  0  0  0  0  0  0  0  0  0  0
    5.3008    0.2756   -0.6541 C   0  0  0  0  0  0  0  0  0  0  0  0
   -7.7690    1.0477    0.7665 C   0  0  0  0  0  0  0  0  0  0  0  0
   -7.9953    0.5175   -1.5411 C   0  0  0  0  0  0  0  0  0  0  0  0
   -8.5204    1.1066   -0.3961 C   0  0  0  0  0  0  0  0  0  0  0  0
   -8.3018    1.6692    2.0141 C   0  0  0  0  0  0  0  0  0  0  0  0
    8.3889   -0.1906    0.5383 C   0  0  0  0  0  0  0  0  0  0  0  0
    0.5314   -0.0154    1.2958 H   0  0  0  0  0  0  0  0  0  0  0  0
    0.8779    0.5051   -1.1307 H   0  0  0  0  0  0  0  0  0  0  0  0
    0.1345   -1.0164   -1.5840 H   0  0  0  0  0  0  0  0  0  0  0  0
   -0.7974   -2.6054    0.4001 H   0  0  0  0  0  0  0  0  0  0  0  0
   -0.5640   -2.0321    2.0483 H   0  0  0  0  0  0  0  0  0  0  0  0
   -1.4338    0.8188   -1.8647 H   0  0  0  0  0  0  0  0  0  0  0  0
   -1.2123    1.3595   -0.1964 H   0  0  0  0  0  0  0  0  0  0  0  0
   -2.0830   -0.1401    1.6718 H   0  0  0  0  0  0  0  0  0  0  0  0
   -2.8181   -1.6891    1.2402 H   0  0  0  0  0  0  0  0  0  0  0  0
   -3.7626    0.6115   -1.5067 H   0  0  0  0  0  0  0  0  0  0  0  0
   -3.6585    1.0743    0.1899 H   0  0  0  0  0  0  0  0  0  0  0  0
   -4.7045   -1.6304   -0.8602 H   0  0  0  0  0  0  0  0  0  0  0  0
   -4.6813   -1.1646    0.8327 H   0  0  0  0  0  0  0  0  0  0  0  0
    2.3741    0.9841    0.8882 H   0  0  0  0  0  0  0  0  0  0  0  0
    3.7789   -2.7571   -0.7567 H   0  0  0  0  0  0  0  0  0  0  0  0
   -6.3316   -0.5650   -2.3754 H   0  0  0  0  0  0  0  0  0  0  0  0
    4.4379    2.0675    0.1987 H   0  0  0  0  0  0  0  0  0  0  0  0
    5.8764   -1.6609   -1.4225 H   0  0  0  0  0  0  0  0  0  0  0  0
   -8.5535    0.5430   -2.4721 H   0  0  0  0  0  0  0  0  0  0  0  0
    6.9506    0.5083   -1.8835 H   0  0  0  0  0  0  0  0  0  0  0  0
   -9.4890    1.5943   -0.4245 H   0  0  0  0  0  0  0  0  0  0  0  0
   -9.2497    1.2010    2.2980 H   0  0  0  0  0  0  0  0  0  0  0  0
   -8.4622    2.7419    1.8667 H   0  0  0  0  0  0  0  0  0  0  0  0
   -7.6010    1.5441    2.8462 H   0  0  0  0  0  0  0  0  0  0  0  0
    9.1771   -0.0243    1.2763 H   0  0  0  0  0  0  0  0  0  0  0  0
    8.8238   -0.5838   -0.3825 H   0  0  0  0  0  0  0  0  0  0  0  0
    7.6438   -0.8752    0.9465 H   0  0  0  0  0  0  0  0  0  0  0  0
  1  3  2  0  0  0  0
  1  4  2  0  0  0  0
  1  7  1  0  0  0  0
  1 28  1  0  0  0  0
  2 14  2  0  0  0  0
  5 11  1  0  0  0  0
  5 12  1  0  0  0  0
  5 13  1  0  0  0  0
  6 17  1  0  0  0  0
  6 24  2  0  0  0  0
  7 23  1  0  0  0  0
  7 48  1  0  0  0  0
  8  9  1  0  0  0  0
  8 10  1  0  0  0  0
  8 14  1  0  0  0  0
  8 29  1  0  0  0  0
  9 11  1  0  0  0  0
  9 30  1  0  0  0  0
  9 31  1  0  0  0  0
 10 12  1  0  0  0  0
 10 32  1  0  0  0  0
 10 33  1  0  0  0  0
 11 34  1  0  0  0  0
 11 35  1  0  0  0  0
 12 36  1  0  0  0  0
 12 37  1  0  0  0  0
 13 15  1  0  0  0  0
 13 38  1  0  0  0  0
 13 39  1  0  0  0  0
 14 16  1  0  0  0  0
 15 17  1  0  0  0  0
 15 40  1  0  0  0  0
 15 41  1  0  0  0  0
 16 18  2  0  0  0  0
 16 19  1  0  0  0  0
 17 20  2  0  0  0  0
 18 21  1  0  0  0  0
 18 42  1  0  0  0  0
 19 22  2  0  0  0  0
 19 43  1  0  0  0  0
 20 25  1  0  0  0  0
 20 44  1  0  0  0  0
 21 23  2  0  0  0  0
 21 45  1  0  0  0  0
 22 23  1  0  0  0  0
 22 46  1  0  0  0  0
 24 26  1  0  0  0  0
 24 27  1  0  0  0  0
 25 26  2  0  0  0  0
 25 47  1  0  0  0  0
 26 49  1  0  0  0  0
 27 50  1  0  0  0  0
 27 51  1  0  0  0  0
 27 52  1  0  0  0  0
 28 53  1  0  0  0  0
 28 54  1  0  0  0  0
 28 55  1  0  0  0  0
M  END
> <PUBCHEM_COMPOUND_CID>
3185

> <PUBCHEM_CONFORMER_RMSD>
1.2

> <PUBCHEM_CONFORMER_DIVERSEORDER>
2
155
194
5
68
160
38
98
87
157
103
177
197
8
200
152
181
102
198
34
201
143
29
178
168
109
12
183
159
16
175
100
193
134
40
31
14
81
163
164
112
23
6
93
63
190
61
138
64
77
9
182
41
116
59
85
20
158
66
173
54
133
111
117
171
57
30
33
145
10
170
165
122
17
79
180
162
47
196
191
101
161
86
76
176
104
166
153
1
141
71
148
55
105
110
186
184
185
99
154
18
28
80
139
42
167
136
69
32
106
132
107
188
15
53
114
13
91
22
121
199
19
27
84
95
120
45
60
35
62
115
67
187
169
202
7
39
144
192
65
51
50
88
113
127
37
125
131
146
4
21
147
73
82
26
137
24
90
36
172
149
151
58
108
72
94
124
128
75
97
126
89
195
179
3
123
46
189
78
174
11
74
56
150
92
142
96
156
135
52
119
49
25
44
70
140
83
129
43
48
130
118

> <PUBCHEM_MMFF94_PARTIAL_CHARGES>
34
1 1.33
11 0.27
12 0.27
13 0.27
14 0.42
15 0.14
16 0.09
17 0.17
18 -0.15
19 -0.15
2 -0.57
20 -0.15
21 -0.15
22 -0.15
23 0.2
24 0.17
25 -0.15
26 -0.15
27 0.14
28 0.11
3 -0.65
4 -0.65
42 0.15
43 0.15
44 0.15
45 0.15
46 0.15
47 0.15
48 0.42
49 0.15
5 -0.81
6 -0.62
7 -0.76
8 0.06

> <PUBCHEM_EFFECTIVE_ROTOR_COUNT>
8.2

> <PUBCHEM_PHARMACOPHORE_FEATURES>
9
1 2 acceptor
1 3 acceptor
1 4 acceptor
1 5 cation
1 6 acceptor
1 7 donor
6 16 18 19 21 22 23 rings
6 5 8 9 10 11 12 rings
6 6 17 20 24 25 26 rings

> <PUBCHEM_HEAVY_ATOM_COUNT>
28

> <PUBCHEM_ATOM_DEF_STEREO_COUNT>
0

> <PUBCHEM_ATOM_UDEF_STEREO_COUNT>
0

> <PUBCHEM_BOND_DEF_STEREO_COUNT>
0

> <PUBCHEM_BOND_UDEF_STEREO_COUNT>
0

> <PUBCHEM_ISOTOPIC_ATOM_COUNT>
0

> <PUBCHEM_COMPONENT_COUNT>
1

> <PUBCHEM_CACTVS_TAUTO_COUNT>
14

> <PUBCHEM_CONFORMER_ID>
00000C7100000002

> <PUBCHEM_MMFF94_ENERGY>
68.1501

> <PUBCHEM_FEATURE_SELFOVERLAP>
45.687

> <PUBCHEM_SHAPE_FINGERPRINT>
10 15 16845852382188366749
10076449 9 6988322746285679450
10299344 5 17967253131011987575
10319688 140 18194964273393936127
10533779 47 16271651190958013704
10666366 153 6916267317058831939
11135926 11 16128666232237724171
11181472 205 16951112010618162257
11315181 36 18259705602324269583
11409948 35 18059297682539573450
11456790 92 16702306745710910516
11638347 137 14620799314547160408
12592606 108 8646765595240407725
12730499 353 17989202698290070131
12838862 33 18201734924236421020
13617811 41 14129058115429257378
13685833 64 8142088667454159286
14251757 52 17821729437690072393
14251764 18 17967253100213921728
15183329 4 16660359303511304459
15276724 80 18260830453484229509
15439362 3 17316778577586979864
15461852 350 15864075352209916725
15690457 1 11023825054742780009
1577012 14 17968096447782339763
16728433 281 15937798822153963577
1754908 1 14764344925203124525
1754911 235 17676203567869907796
1768 4 18201995517673020865
1818759 1 8935000395282274349
19301679 30 13757814658640648970
195137 175 17821723945123304641
2026 5 8934184528286792156
20554085 129 18341626893041095066
20812841 46 17846224388874649474
21150785 3 16805323283918672931
21521721 280 18343016718498476187
21792934 111 17346607416554625638
22224240 67 18060702779586551098
23576562 1 16371586777954268089
246663 6 7348891091681659685
24771293 8 18272370849808187141
249057 3 16805609126856089773
3004659 81 14490194899330508450
3178227 256 17203886357730836677
3633792 109 17530957004088587550
3711267 37 18337379518257323233
4073 2 18409444783090920127
4093350 32 18187078490083499302
4340502 62 14405183988981162907
445580 126 18343025488995397594
5104073 3 17130998736126025905
5470011 282 14634868626913825168
5758199 1 18412825789640106883
5937810 71 18114177588677725201
6328613 192 18260267443653914867

> <PUBCHEM_SHAPE_MULTIPOLES>
547.53
30.58
1.89
1.32
12.62
0.23
0.13
-19.91
-0.06
-2.49
0.55
1.96
-0.22
-0.75

> <PUBCHEM_SHAPE_SELFOVERLAP>
1141.633

> <PUBCHEM_SHAPE_VOLUME>
313.2

> <PUBCHEM_COORDINATE_TYPE>
2
5
10

$$$$

