11275
  -OEChem-06261205283D

 54 57  0     1  0  0  0  0  0999 V2000
   -5.1692    1.6655   -0.0177 O   0  0  0  0  0  0  0  0  0  0  0  0
    4.8116    2.3779    1.2631 O   0  0  0  0  0  0  0  0  0  0  0  0
   -0.9655   -0.9556   -0.0824 C   0  0  2  0  0  0  0  0  0  0  0  0
    0.0451    0.2108    0.1576 C   0  0  1  0  0  0  0  0  0  0  0  0
   -2.3233   -0.5529    0.5031 C   0  0  1  0  0  0  0  0  0  0  0  0
   -2.8911    0.7295   -0.1358 C   0  0  2  0  0  0  0  0  0  0  0  0
    1.4836   -0.1378   -0.3729 C   0  0  2  0  0  0  0  0  0  0  0  0
   -0.5041    1.5760   -0.3363 C   0  0  0  0  0  0  0  0  0  0  0  0
    1.9348   -1.4753    0.2924 C   0  0  1  0  0  0  0  0  0  0  0  0
   -1.9256    1.8822    0.1694 C   0  0  0  0  0  0  0  0  0  0  0  0
   -0.4544   -2.2624    0.5400 C   0  0  0  0  0  0  0  0  0  0  0  0
   -3.4884   -1.5364    0.4252 C   0  0  0  0  0  0  0  0  0  0  0  0
   -4.2385    0.8035    0.6081 C   0  0  2  0  0  0  0  0  0  0  0  0
    0.9467   -2.6235    0.0559 C   0  0  0  0  0  0  0  0  0  0  0  0
   -4.7346   -0.6556    0.6278 C   0  0  0  0  0  0  0  0  0  0  0  0
    2.5003    0.9647    0.0580 C   0  0  0  0  0  0  0  0  0  0  0  0
   -3.1244    0.6408   -1.6656 C   0  0  0  0  0  0  0  0  0  0  0  0
    1.4982   -0.2386   -1.9212 C   0  0  0  0  0  0  0  0  0  0  0  0
    3.3596   -1.8850   -0.1188 C   0  0  0  0  0  0  0  0  0  0  0  0
    3.9535    0.5494   -0.0043 C   0  0  0  0  0  0  0  0  0  0  0  0
    4.3260   -0.7384   -0.0977 C   0  0  0  0  0  0  0  0  0  0  0  0
    4.9598    1.6611    0.0519 C   0  0  0  0  0  0  0  0  0  0  0  0
   -1.0795   -1.1293   -1.1576 H   0  0  0  0  0  0  0  0  0  0  0  0
    0.1368    0.3153    1.2507 H   0  0  0  0  0  0  0  0  0  0  0  0
   -2.1600   -0.3621    1.5773 H   0  0  0  0  0  0  0  0  0  0  0  0
   -0.5018    1.6175   -1.4294 H   0  0  0  0  0  0  0  0  0  0  0  0
    0.1529    2.3851    0.0025 H   0  0  0  0  0  0  0  0  0  0  0  0
    1.9609   -1.3037    1.3806 H   0  0  0  0  0  0  0  0  0  0  0  0
   -1.8800    2.0582    1.2520 H   0  0  0  0  0  0  0  0  0  0  0  0
   -2.2826    2.8167   -0.2800 H   0  0  0  0  0  0  0  0  0  0  0  0
   -1.1347   -3.0870    0.2974 H   0  0  0  0  0  0  0  0  0  0  0  0
   -0.4439   -2.1742    1.6340 H   0  0  0  0  0  0  0  0  0  0  0  0
   -3.4213   -2.3134    1.1935 H   0  0  0  0  0  0  0  0  0  0  0  0
   -3.5281   -2.0356   -0.5493 H   0  0  0  0  0  0  0  0  0  0  0  0
   -4.0997    1.1485    1.6406 H   0  0  0  0  0  0  0  0  0  0  0  0
    1.2857   -3.5192    0.5909 H   0  0  0  0  0  0  0  0  0  0  0  0
    0.9126   -2.8926   -1.0061 H   0  0  0  0  0  0  0  0  0  0  0  0
   -5.4794   -0.8480   -0.1526 H   0  0  0  0  0  0  0  0  0  0  0  0
   -5.2156   -0.8757    1.5875 H   0  0  0  0  0  0  0  0  0  0  0  0
    2.2895    1.2759    1.0897 H   0  0  0  0  0  0  0  0  0  0  0  0
    2.3597    1.8512   -0.5736 H   0  0  0  0  0  0  0  0  0  0  0  0
   -3.5112    1.5907   -2.0527 H   0  0  0  0  0  0  0  0  0  0  0  0
   -2.2089    0.4222   -2.2215 H   0  0  0  0  0  0  0  0  0  0  0  0
   -3.8498   -0.1338   -1.9338 H   0  0  0  0  0  0  0  0  0  0  0  0
    1.2376    0.7172   -2.3867 H   0  0  0  0  0  0  0  0  0  0  0  0
    2.4859   -0.5046   -2.3104 H   0  0  0  0  0  0  0  0  0  0  0  0
    0.7968   -0.9873   -2.2982 H   0  0  0  0  0  0  0  0  0  0  0  0
    3.3667   -2.3340   -1.1190 H   0  0  0  0  0  0  0  0  0  0  0  0
    3.7188   -2.6576    0.5724 H   0  0  0  0  0  0  0  0  0  0  0  0
    5.3808   -0.9937   -0.1568 H   0  0  0  0  0  0  0  0  0  0  0  0
   -4.7787    2.5558   -0.0326 H   0  0  0  0  0  0  0  0  0  0  0  0
    4.8074    2.3482   -0.7873 H   0  0  0  0  0  0  0  0  0  0  0  0
    5.9870    1.2850   -0.0005 H   0  0  0  0  0  0  0  0  0  0  0  0
    5.4650    3.0980    1.2527 H   0  0  0  0  0  0  0  0  0  0  0  0
  1 13  1  0  0  0  0
  1 51  1  0  0  0  0
  2 22  1  0  0  0  0
  2 54  1  0  0  0  0
  3  4  1  0  0  0  0
  3  5  1  0  0  0  0
  3 11  1  0  0  0  0
  3 23  1  0  0  0  0
  4  7  1  0  0  0  0
  4  8  1  0  0  0  0
  4 24  1  0  0  0  0
  5  6  1  0  0  0  0
  5 12  1  0  0  0  0
  5 25  1  0  0  0  0
  6 10  1  0  0  0  0
  6 13  1  0  0  0  0
  6 17  1  0  0  0  0
  7  9  1  0  0  0  0
  7 16  1  0  0  0  0
  7 18  1  0  0  0  0
  8 10  1  0  0  0  0
  8 26  1  0  0  0  0
  8 27  1  0  0  0  0
  9 14  1  0  0  0  0
  9 19  1  0  0  0  0
  9 28  1  0  0  0  0
 10 29  1  0  0  0  0
 10 30  1  0  0  0  0
 11 14  1  0  0  0  0
 11 31  1  0  0  0  0
 11 32  1  0  0  0  0
 12 15  1  0  0  0  0
 12 33  1  0  0  0  0
 12 34  1  0  0  0  0
 13 15  1  0  0  0  0
 13 35  1  0  0  0  0
 14 36  1  0  0  0  0
 14 37  1  0  0  0  0
 15 38  1  0  0  0  0
 15 39  1  0  0  0  0
 16 20  1  0  0  0  0
 16 40  1  0  0  0  0
 16 41  1  0  0  0  0
 17 42  1  0  0  0  0
 17 43  1  0  0  0  0
 17 44  1  0  0  0  0
 18 45  1  0  0  0  0
 18 46  1  0  0  0  0
 18 47  1  0  0  0  0
 19 21  1  0  0  0  0
 19 48  1  0  0  0  0
 19 49  1  0  0  0  0
 20 21  2  0  0  0  0
 20 22  1  0  0  0  0
 21 50  1  0  0  0  0
 22 52  1  0  0  0  0
 22 53  1  0  0  0  0
M  END
> <PUBCHEM_COMPOUND_CID>
11275

> <PUBCHEM_CONFORMER_RMSD>
0.6

> <PUBCHEM_CONFORMER_DIVERSEORDER>
1

> <PUBCHEM_MMFF94_PARTIAL_CHARGES>
11
1 -0.68
13 0.28
16 0.14
19 0.14
2 -0.68
20 -0.28
21 -0.29
22 0.42
50 0.15
51 0.4
54 0.4

> <PUBCHEM_EFFECTIVE_ROTOR_COUNT>
2.8

> <PUBCHEM_PHARMACOPHORE_FEATURES>
8
1 1 acceptor
1 1 donor
1 2 acceptor
1 2 donor
5 5 6 12 13 15 rings
6 3 4 5 6 8 10 rings
6 3 4 7 9 11 14 rings
6 7 9 16 19 20 21 rings

> <PUBCHEM_HEAVY_ATOM_COUNT>
22

> <PUBCHEM_ATOM_DEF_STEREO_COUNT>
7

> <PUBCHEM_ATOM_UDEF_STEREO_COUNT>
0

> <PUBCHEM_BOND_DEF_STEREO_COUNT>
0

> <PUBCHEM_BOND_UDEF_STEREO_COUNT>
0

> <PUBCHEM_ISOTOPIC_ATOM_COUNT>
0

> <PUBCHEM_COMPONENT_COUNT>
1

> <PUBCHEM_CACTVS_TAUTO_COUNT>
1

> <PUBCHEM_CONFORMER_ID>
00002C0B00000001

> <PUBCHEM_MMFF94_ENERGY>
69.0749

> <PUBCHEM_FEATURE_SELFOVERLAP>
40.686

> <PUBCHEM_SHAPE_FINGERPRINT>
10366900 7 4751153000191735869
10411042 1 17546164568097857282
10498660 4 18413108380938964781
10646746 165 18413385458280595086
10967382 1 18340766039233255554
11112241 14 17243035461518061968
11132069 177 18131344220259984023
11370993 70 18341898493508059842
11578080 2 16412953931042588527
11595378 159 17274837864852201872
12236239 1 17895195532694753941
12403259 226 18126005112218222462
12403259 415 18272652384940813468
12403814 3 17418088832936237797
12507560 40 18342175574522152134
12596602 18 17895459398363704051
12788726 201 17168418393468016081
13140716 1 18342458192018608347
13224815 77 18341612641743383639
13675066 3 18059849575869645747
14223421 5 18268710682846720374
14787075 74 18262521390112536667
14790565 3 18410285904573691785
15196674 1 18412260649037106203
15375358 24 18412824707276550251
15536298 74 18410569621654881294
16945 1 18053669358385794091
17349148 13 17275098436027397366
17980427 23 17560234717633738844
1813 80 16702297953500788414
18186145 218 18341891934971699198
200 152 18334018311252474671
20510252 161 18408600370385547360
21033648 29 18130799974668195092
21267235 1 18340474668620499794
21452121 103 18409732863631477322
21756936 100 18116722799202900004
22182313 1 17774165741551570575
23227448 37 18190462662577853990
23402539 116 18408045095543783247
23557571 272 18335972087016299639
23559900 14 18410574011622991846
2748010 2 18342727537828209838
2838139 119 17604156905120035864
296302 2 18186518804420812351
335352 9 18340485698344436062
34797466 226 17168134603377234013
34934 24 18409450310718136909
350125 39 18340767130887885918
3545911 37 18342452664263303108
392239 28 18408037403405289912
474 4 18411698760178172104
474229 33 18340205198150961610
5104073 3 18341890822548744499
542803 24 17530678822924317185
633830 44 18187927321654987838
69090 78 18410855455870540026
6913067 236 17917722262104370255
7364860 26 18192990637247205478
7808743 9 18122909716688397776
9709674 26 18340196470672356354

> <PUBCHEM_SHAPE_MULTIPOLES>
441.01
10.05
2.47
1.05
0.41
0.45
0.43
-4.12
-1.72
1.08
-0.45
-0.02
-0.18
0.93

> <PUBCHEM_SHAPE_SELFOVERLAP>
935.835

> <PUBCHEM_SHAPE_VOLUME>
243.8

> <PUBCHEM_COORDINATE_TYPE>
2
5
10

$$$$

