21082
  -OEChem-07051213082D

 26 28  0     0  0  0  0  0  0999 V2000
    4.6660    2.0000    0.0000 O   0  0  0  0  0  0  0  0  0  0  0  0
    4.6660   -2.0000    0.0000 O   0  0  0  0  0  0  0  0  0  0  0  0
    3.8000   -0.5000    0.0000 C   0  0  0  0  0  0  0  0  0  0  0  0
    3.8000    0.5000    0.0000 C   0  0  0  0  0  0  0  0  0  0  0  0
    5.5321   -0.5000    0.0000 C   0  0  0  0  0  0  0  0  0  0  0  0
    5.5321    0.5000    0.0000 C   0  0  0  0  0  0  0  0  0  0  0  0
    4.6660    1.0000    0.0000 C   0  0  0  0  0  0  0  0  0  0  0  0
    4.6660   -1.0000    0.0000 C   0  0  0  0  0  0  0  0  0  0  0  0
    2.9061   -1.0347    0.0000 C   0  0  0  0  0  0  0  0  0  0  0  0
    2.9061    1.0347    0.0000 C   0  0  0  0  0  0  0  0  0  0  0  0
    6.4260   -1.0347    0.0000 C   0  0  0  0  0  0  0  0  0  0  0  0
    6.4260    1.0347    0.0000 C   0  0  0  0  0  0  0  0  0  0  0  0
    2.0000    0.5208    0.0000 C   0  0  0  0  0  0  0  0  0  0  0  0
    2.0000   -0.5208    0.0000 C   0  0  0  0  0  0  0  0  0  0  0  0
    7.3321    0.5208    0.0000 C   0  0  0  0  0  0  0  0  0  0  0  0
    7.3321   -0.5208    0.0000 C   0  0  0  0  0  0  0  0  0  0  0  0
    2.9132   -1.6546    0.0000 H   0  0  0  0  0  0  0  0  0  0  0  0
    2.9132    1.6546    0.0000 H   0  0  0  0  0  0  0  0  0  0  0  0
    6.4188   -1.6546    0.0000 H   0  0  0  0  0  0  0  0  0  0  0  0
    6.4188    1.6546    0.0000 H   0  0  0  0  0  0  0  0  0  0  0  0
    1.4643   -0.8329    0.0000 H   0  0  0  0  0  0  0  0  0  0  0  0
    1.4643    0.8329    0.0000 H   0  0  0  0  0  0  0  0  0  0  0  0
    7.8678   -0.8329    0.0000 H   0  0  0  0  0  0  0  0  0  0  0  0
    7.8678    0.8329    0.0000 H   0  0  0  0  0  0  0  0  0  0  0  0
    4.1291   -2.3100    0.0000 H   0  0  0  0  0  0  0  0  0  0  0  0
    5.2030    2.3100    0.0000 H   0  0  0  0  0  0  0  0  0  0  0  0
  1  7  1  0  0  0  0
  1 26  1  0  0  0  0
  2  8  1  0  0  0  0
  2 25  1  0  0  0  0
  3  4  1  0  0  0  0
  3  8  2  0  0  0  0
  3  9  1  0  0  0  0
  4  7  2  0  0  0  0
  4 10  1  0  0  0  0
  5  6  1  0  0  0  0
  5  8  1  0  0  0  0
  5 11  2  0  0  0  0
  6  7  1  0  0  0  0
  6 12  2  0  0  0  0
  9 14  2  0  0  0  0
  9 17  1  0  0  0  0
 10 13  2  0  0  0  0
 10 18  1  0  0  0  0
 11 16  1  0  0  0  0
 11 19  1  0  0  0  0
 12 15  1  0  0  0  0
 12 20  1  0  0  0  0
 13 14  1  0  0  0  0
 13 22  1  0  0  0  0
 14 21  1  0  0  0  0
 15 16  2  0  0  0  0
 15 24  1  0  0  0  0
 16 23  1  0  0  0  0
M  END
> <PUBCHEM_COMPOUND_CID>
21082

> <PUBCHEM_COMPOUND_CANONICALIZED>
1

> <PUBCHEM_CACTVS_COMPLEXITY>
203

> <PUBCHEM_CACTVS_HBOND_ACCEPTOR>
2

> <PUBCHEM_CACTVS_HBOND_DONOR>
2

> <PUBCHEM_CACTVS_ROTATABLE_BOND>
0

> <PUBCHEM_CACTVS_SUBSKEYS>
AAADccBwMAAAAAAAAAAAAAAAAAAAAAAAAAAwYMAAAAAAAADBVAAAGgAACAAADASAmAAwBsAAAgCAAiBCAAACAAAgIAAIiAAECIgIJiKCERKAcAAkwBEImAfAwPAOwQADAAAYAACCAAYAADAAAAAAAAAAAA==

> <PUBCHEM_IUPAC_OPENEYE_NAME>
anthracene-9,10-diol

> <PUBCHEM_IUPAC_CAS_NAME>
anthracene-9,10-diol

> <PUBCHEM_IUPAC_NAME>
anthracene-9,10-diol

> <PUBCHEM_IUPAC_SYSTEMATIC_NAME>
anthracene-9,10-diol

> <PUBCHEM_IUPAC_TRADITIONAL_NAME>
anthracene-9,10-diol

> <PUBCHEM_IUPAC_INCHI>
InChI=1S/C14H10O2/c15-13-9-5-1-2-6-10(9)14(16)12-8-4-3-7-11(12)13/h1-8,15-16H

> <PUBCHEM_IUPAC_INCHIKEY>
PCFMUWBCZZUMRX-UHFFFAOYSA-N

> <PUBCHEM_XLOGP3_AA>
3.7

> <PUBCHEM_EXACT_MASS>
210.06808

> <PUBCHEM_MOLECULAR_FORMULA>
C14H10O2

> <PUBCHEM_MOLECULAR_WEIGHT>
210.228

> <PUBCHEM_OPENEYE_CAN_SMILES>
C1=CC=C2C(=C1)C(=C3C=CC=CC3=C2O)O

> <PUBCHEM_OPENEYE_ISO_SMILES>
C1=CC=C2C(=C1)C(=C3C=CC=CC3=C2O)O

> <PUBCHEM_CACTVS_TPSA>
40.5

> <PUBCHEM_MONOISOTOPIC_WEIGHT>
210.06808

> <PUBCHEM_TOTAL_CHARGE>
0

> <PUBCHEM_HEAVY_ATOM_COUNT>
16

> <PUBCHEM_ATOM_DEF_STEREO_COUNT>
0

> <PUBCHEM_ATOM_UDEF_STEREO_COUNT>
0

> <PUBCHEM_BOND_DEF_STEREO_COUNT>
0

> <PUBCHEM_BOND_UDEF_STEREO_COUNT>
0

> <PUBCHEM_ISOTOPIC_ATOM_COUNT>
0

> <PUBCHEM_COMPONENT_COUNT>
1

> <PUBCHEM_CACTVS_TAUTO_COUNT>
1

> <PUBCHEM_COORDINATE_TYPE>
1
5
255

> <PUBCHEM_BONDANNOTATIONS>
10  13  8
11  16  8
12  15  8
13  14  8
15  16  8
3  4  8
3  8  8
3  9  8
4  10  8
4  7  8
5  11  8
5  6  8
5  8  8
6  12  8
6  7  8
9  14  8

$$$$

