6437804
  -OEChem-07051212462D

119121  0     1  0  0  0  0  0999 V2000
    8.0622    3.4050    0.0000 O   0  0  0  0  0  0  0  0  0  0  0  0
    9.7942    3.4050    0.0000 O   0  0  0  0  0  0  0  0  0  0  0  0
    8.0622    5.4050    0.0000 O   0  0  0  0  0  0  0  0  0  0  0  0
   11.5263    5.4050    0.0000 O   0  0  0  0  0  0  0  0  0  0  0  0
    6.3301    3.4050    0.0000 O   0  0  0  0  0  0  0  0  0  0  0  0
    5.4641   -4.0950    0.0000 O   0  0  0  0  0  0  0  0  0  0  0  0
    4.5981    0.4050    0.0000 O   0  0  0  0  0  0  0  0  0  0  0  0
    4.5981   -2.5950    0.0000 O   0  0  0  0  0  0  0  0  0  0  0  0
    2.8660   -5.5950    0.0000 O   0  0  0  0  0  0  0  0  0  0  0  0
    2.8660   -3.5950    0.0000 O   0  0  0  0  0  0  0  0  0  0  0  0
    4.5981   -6.5950    0.0000 O   0  0  0  0  0  0  0  0  0  0  0  0
   10.6603   -1.0950    0.0000 O   0  0  0  0  0  0  0  0  0  0  0  0
   11.5263    2.4050    0.0000 O   0  0  0  0  0  0  0  0  0  0  0  0
    6.4641    0.9050    0.0000 O   0  0  0  0  0  0  0  0  0  0  0  0
    9.7942    6.4050    0.0000 N   0  0  0  0  0  0  0  0  0  0  0  0
    8.0622    2.4050    0.0000 C   0  0  1  0  0  0  0  0  0  0  0  0
    8.9282    1.9050    0.0000 C   0  0  2  0  0  0  0  0  0  0  0  0
    7.1962    1.9050    0.0000 C   0  0  2  0  0  0  0  0  0  0  0  0
    9.7942    5.4050    0.0000 C   0  0  2  0  0  0  0  0  0  0  0  0
    8.9282    4.9050    0.0000 C   0  0  2  0  0  0  0  0  0  0  0  0
    8.9282    3.9050    0.0000 C   0  0  2  0  0  0  0  0  0  0  0  0
   10.6603    4.9050    0.0000 C   0  0  1  0  0  0  0  0  0  0  0  0
   10.6603    3.9050    0.0000 C   0  0  1  0  0  0  0  0  0  0  0  0
    8.9282    0.9050    0.0000 C   0  0  0  0  0  0  0  0  0  0  0  0
    6.3301    2.4050    0.0000 C   0  0  1  0  0  0  0  0  0  0  0  0
    9.7942    2.4050    0.0000 C   0  0  0  0  0  0  0  0  0  0  0  0
    9.7942    0.4050    0.0000 C   0  0  1  0  0  0  0  0  0  0  0  0
    7.1962    0.9050    0.0000 C   0  0  0  0  0  0  0  0  0  0  0  0
    5.4641    1.9050    0.0000 C   0  0  0  0  0  0  0  0  0  0  0  0
   11.5263    3.4050    0.0000 C   0  0  0  0  0  0  0  0  0  0  0  0
   10.6603    6.9050    0.0000 C   0  0  0  0  0  0  0  0  0  0  0  0
    8.9282    6.9050    0.0000 C   0  0  0  0  0  0  0  0  0  0  0  0
   10.7942    0.4050    0.0000 C   0  0  0  0  0  0  0  0  0  0  0  0
    9.7942   -0.5950    0.0000 C   0  0  0  0  0  0  0  0  0  0  0  0
   10.6603    1.9050    0.0000 C   0  0  0  0  0  0  0  0  0  0  0  0
    3.7320   -5.0950    0.0000 C   0  0  1  0  0  0  0  0  0  0  0  0
    3.7320   -4.0950    0.0000 C   0  0  2  0  0  0  0  0  0  0  0  0
    5.4641    0.9050    0.0000 C   0  0  0  0  0  0  0  0  0  0  0  0
    4.5981   -5.5950    0.0000 C   0  0  1  0  0  0  0  0  0  0  0  0
    4.5981   -3.5950    0.0000 C   0  0  1  0  0  0  0  0  0  0  0  0
    5.4641   -1.0950    0.0000 C   0  0  1  0  0  0  0  0  0  0  0  0
    5.4641   -5.0950    0.0000 C   0  0  1  0  0  0  0  0  0  0  0  0
    4.5981   -0.5950    0.0000 C   0  0  1  0  0  0  0  0  0  0  0  0
    5.4641   -2.0950    0.0000 C   0  0  0  0  0  0  0  0  0  0  0  0
    8.9282   -1.0950    0.0000 C   0  0  0  0  0  0  0  0  0  0  0  0
    3.7320   -1.0950    0.0000 C   0  0  0  0  0  0  0  0  0  0  0  0
    6.3301   -0.5950    0.0000 C   0  0  0  0  0  0  0  0  0  0  0  0
    6.3301   -5.5950    0.0000 C   0  0  0  0  0  0  0  0  0  0  0  0
    7.1962   -1.0950    0.0000 C   0  0  0  0  0  0  0  0  0  0  0  0
    8.0622   -0.5950    0.0000 C   0  0  0  0  0  0  0  0  0  0  0  0
    2.8660   -0.5950    0.0000 C   0  0  0  0  0  0  0  0  0  0  0  0
    2.8660   -6.5950    0.0000 C   0  0  0  0  0  0  0  0  0  0  0  0
    2.0000   -4.0950    0.0000 C   0  0  0  0  0  0  0  0  0  0  0  0
    7.1962   -2.0950    0.0000 C   0  0  0  0  0  0  0  0  0  0  0  0
    7.5252    2.7150    0.0000 H   0  0  0  0  0  0  0  0  0  0  0  0
    9.4651    1.5950    0.0000 H   0  0  0  0  0  0  0  0  0  0  0  0
    6.6592    1.5950    0.0000 H   0  0  0  0  0  0  0  0  0  0  0  0
    9.2573    5.7150    0.0000 H   0  0  0  0  0  0  0  0  0  0  0  0
    8.9282    5.5250    0.0000 H   0  0  0  0  0  0  0  0  0  0  0  0
    8.9282    3.2850    0.0000 H   0  0  0  0  0  0  0  0  0  0  0  0
   11.1972    4.5950    0.0000 H   0  0  0  0  0  0  0  0  0  0  0  0
   10.6603    3.2850    0.0000 H   0  0  0  0  0  0  0  0  0  0  0  0
    8.3176    1.0127    0.0000 H   0  0  0  0  0  0  0  0  0  0  0  0
    8.7162    0.3224    0.0000 H   0  0  0  0  0  0  0  0  0  0  0  0
    6.8671    2.7150    0.0000 H   0  0  0  0  0  0  0  0  0  0  0  0
   10.1928    2.8800    0.0000 H   0  0  0  0  0  0  0  0  0  0  0  0
    9.3957    2.8800    0.0000 H   0  0  0  0  0  0  0  0  0  0  0  0
    9.9547    1.0039    0.0000 H   0  0  0  0  0  0  0  0  0  0  0  0
    6.5762    0.9050    0.0000 H   0  0  0  0  0  0  0  0  0  0  0  0
    7.1962    0.2850    0.0000 H   0  0  0  0  0  0  0  0  0  0  0  0
    7.8162    0.9050    0.0000 H   0  0  0  0  0  0  0  0  0  0  0  0
    5.2520    2.4876    0.0000 H   0  0  0  0  0  0  0  0  0  0  0  0
    4.8535    1.7973    0.0000 H   0  0  0  0  0  0  0  0  0  0  0  0
   11.2163    2.8681    0.0000 H   0  0  0  0  0  0  0  0  0  0  0  0
   12.0632    3.0950    0.0000 H   0  0  0  0  0  0  0  0  0  0  0  0
   11.8363    3.9419    0.0000 H   0  0  0  0  0  0  0  0  0  0  0  0
    7.5252    5.0950    0.0000 H   0  0  0  0  0  0  0  0  0  0  0  0
   12.0632    5.0950    0.0000 H   0  0  0  0  0  0  0  0  0  0  0  0
   10.9703    6.3681    0.0000 H   0  0  0  0  0  0  0  0  0  0  0  0
    9.2382    7.4419    0.0000 H   0  0  0  0  0  0  0  0  0  0  0  0
    8.3913    7.2150    0.0000 H   0  0  0  0  0  0  0  0  0  0  0  0
    8.6182    6.3681    0.0000 H   0  0  0  0  0  0  0  0  0  0  0  0
   11.1972    7.2150    0.0000 H   0  0  0  0  0  0  0  0  0  0  0  0
   10.3503    7.4419    0.0000 H   0  0  0  0  0  0  0  0  0  0  0  0
   10.7942   -0.2150    0.0000 H   0  0  0  0  0  0  0  0  0  0  0  0
   11.4142    0.4050    0.0000 H   0  0  0  0  0  0  0  0  0  0  0  0
   10.7942    1.0250    0.0000 H   0  0  0  0  0  0  0  0  0  0  0  0
   10.9703    1.3681    0.0000 H   0  0  0  0  0  0  0  0  0  0  0  0
    5.7932    3.7150    0.0000 H   0  0  0  0  0  0  0  0  0  0  0  0
    3.7320   -5.7150    0.0000 H   0  0  0  0  0  0  0  0  0  0  0  0
    3.7320   -3.4750    0.0000 H   0  0  0  0  0  0  0  0  0  0  0  0
    5.1350   -5.9050    0.0000 H   0  0  0  0  0  0  0  0  0  0  0  0
    4.0611   -3.2850    0.0000 H   0  0  0  0  0  0  0  0  0  0  0  0
    6.0010   -4.7850    0.0000 H   0  0  0  0  0  0  0  0  0  0  0  0
    6.0010   -1.4050    0.0000 H   0  0  0  0  0  0  0  0  0  0  0  0
    4.0611   -0.2850    0.0000 H   0  0  0  0  0  0  0  0  0  0  0  0
    5.6762   -2.6776    0.0000 H   0  0  0  0  0  0  0  0  0  0  0  0
    6.0747   -1.9873    0.0000 H   0  0  0  0  0  0  0  0  0  0  0  0
    8.9282   -1.7150    0.0000 H   0  0  0  0  0  0  0  0  0  0  0  0
    3.3335   -1.5700    0.0000 H   0  0  0  0  0  0  0  0  0  0  0  0
    4.1306   -1.5700    0.0000 H   0  0  0  0  0  0  0  0  0  0  0  0
    6.3301    0.0250    0.0000 H   0  0  0  0  0  0  0  0  0  0  0  0
    6.0201   -6.1319    0.0000 H   0  0  0  0  0  0  0  0  0  0  0  0
    6.8671   -5.9050    0.0000 H   0  0  0  0  0  0  0  0  0  0  0  0
    6.6401   -5.0581    0.0000 H   0  0  0  0  0  0  0  0  0  0  0  0
    8.0622    0.0250    0.0000 H   0  0  0  0  0  0  0  0  0  0  0  0
    5.1350   -6.9050    0.0000 H   0  0  0  0  0  0  0  0  0  0  0  0
    3.1760   -0.0581    0.0000 H   0  0  0  0  0  0  0  0  0  0  0  0
    2.3291   -0.2850    0.0000 H   0  0  0  0  0  0  0  0  0  0  0  0
    2.5560   -1.1319    0.0000 H   0  0  0  0  0  0  0  0  0  0  0  0
    2.2460   -6.5950    0.0000 H   0  0  0  0  0  0  0  0  0  0  0  0
    2.8660   -7.2150    0.0000 H   0  0  0  0  0  0  0  0  0  0  0  0
    3.4860   -6.5950    0.0000 H   0  0  0  0  0  0  0  0  0  0  0  0
    1.6900   -3.5581    0.0000 H   0  0  0  0  0  0  0  0  0  0  0  0
    1.4631   -4.4050    0.0000 H   0  0  0  0  0  0  0  0  0  0  0  0
    2.3100   -4.6319    0.0000 H   0  0  0  0  0  0  0  0  0  0  0  0
    6.5762   -2.0950    0.0000 H   0  0  0  0  0  0  0  0  0  0  0  0
    7.1962   -2.7150    0.0000 H   0  0  0  0  0  0  0  0  0  0  0  0
    7.8162   -2.0950    0.0000 H   0  0  0  0  0  0  0  0  0  0  0  0
 16  1  1  1  0  0  0
 21  1  1  1  0  0  0
  2 21  1  0  0  0  0
  2 23  1  0  0  0  0
 20  3  1  6  0  0  0
  3 77  1  0  0  0  0
 22  4  1  6  0  0  0
  4 78  1  0  0  0  0
 25  5  1  1  0  0  0
  5 89  1  0  0  0  0
  6 40  1  0  0  0  0
  6 42  1  0  0  0  0
  7 38  1  0  0  0  0
  7 43  1  0  0  0  0
 40  8  1  6  0  0  0
  8 44  1  0  0  0  0
 36  9  1  1  0  0  0
  9 52  1  0  0  0  0
 37 10  1  1  0  0  0
 10 53  1  0  0  0  0
 39 11  1  1  0  0  0
 11107  1  0  0  0  0
 12 34  2  0  0  0  0
 13 35  2  0  0  0  0
 14 38  2  0  0  0  0
 19 15  1  1  0  0  0
 15 31  1  0  0  0  0
 15 32  1  0  0  0  0
 16 17  1  0  0  0  0
 16 18  1  0  0  0  0
 16 55  1  0  0  0  0
 17 24  1  0  0  0  0
 17 26  1  1  0  0  0
 17 56  1  0  0  0  0
 18 25  1  0  0  0  0
 18 28  1  1  0  0  0
 18 57  1  0  0  0  0
 19 20  1  0  0  0  0
 19 22  1  0  0  0  0
 19 58  1  0  0  0  0
 20 21  1  0  0  0  0
 20 59  1  0  0  0  0
 21 60  1  0  0  0  0
 22 23  1  0  0  0  0
 22 61  1  0  0  0  0
 23 30  1  1  0  0  0
 23 62  1  0  0  0  0
 24 27  1  0  0  0  0
 24 63  1  0  0  0  0
 24 64  1  0  0  0  0
 25 29  1  0  0  0  0
 25 65  1  0  0  0  0
 26 35  1  0  0  0  0
 26 66  1  0  0  0  0
 26 67  1  0  0  0  0
 27 33  1  1  0  0  0
 27 34  1  0  0  0  0
 27 68  1  0  0  0  0
 28 69  1  0  0  0  0
 28 70  1  0  0  0  0
 28 71  1  0  0  0  0
 29 38  1  0  0  0  0
 29 72  1  0  0  0  0
 29 73  1  0  0  0  0
 30 74  1  0  0  0  0
 30 75  1  0  0  0  0
 30 76  1  0  0  0  0
 31 79  1  0  0  0  0
 31 83  1  0  0  0  0
 31 84  1  0  0  0  0
 32 80  1  0  0  0  0
 32 81  1  0  0  0  0
 32 82  1  0  0  0  0
 33 85  1  0  0  0  0
 33 86  1  0  0  0  0
 33 87  1  0  0  0  0
 34 45  1  0  0  0  0
 35 88  1  0  0  0  0
 36 37  1  0  0  0  0
 36 39  1  0  0  0  0
 36 90  1  0  0  0  0
 37 40  1  0  0  0  0
 37 91  1  0  0  0  0
 39 42  1  0  0  0  0
 39 92  1  0  0  0  0
 40 93  1  0  0  0  0
 41 43  1  0  0  0  0
 41 44  1  6  0  0  0
 41 47  1  0  0  0  0
 41 95  1  0  0  0  0
 42 48  1  6  0  0  0
 42 94  1  0  0  0  0
 43 46  1  1  0  0  0
 43 96  1  0  0  0  0
 44 97  1  0  0  0  0
 44 98  1  0  0  0  0
 45 50  2  0  0  0  0
 45 99  1  0  0  0  0
 46 51  1  0  0  0  0
 46100  1  0  0  0  0
 46101  1  0  0  0  0
 47 49  2  0  0  0  0
 47102  1  0  0  0  0
 48103  1  0  0  0  0
 48104  1  0  0  0  0
 48105  1  0  0  0  0
 49 50  1  0  0  0  0
 49 54  1  0  0  0  0
 50106  1  0  0  0  0
 51108  1  0  0  0  0
 51109  1  0  0  0  0
 51110  1  0  0  0  0
 52111  1  0  0  0  0
 52112  1  0  0  0  0
 52113  1  0  0  0  0
 53114  1  0  0  0  0
 53115  1  0  0  0  0
 53116  1  0  0  0  0
 54117  1  0  0  0  0
 54118  1  0  0  0  0
 54119  1  0  0  0  0
M  END
> <PUBCHEM_COMPOUND_CID>
6437804

> <PUBCHEM_COMPOUND_CANONICALIZED>
1

> <PUBCHEM_CACTVS_COMPLEXITY>
1260

> <PUBCHEM_CACTVS_HBOND_ACCEPTOR>
15

> <PUBCHEM_CACTVS_HBOND_DONOR>
4

> <PUBCHEM_CACTVS_ROTATABLE_BOND>
11

> <PUBCHEM_CACTVS_SUBSKEYS>
AAADcfB+PAAAAAAAAAAAAAAAAAAAAAAAAAAkSAAAAAAAAAAAAAAAHgAACAAADTzxgAcCCAMABgCIAqjSiAAAAAAgAAAICAEIAEgbEBYAgQAmQAAH4AAfgYPK7OzOAAAAAAAAAAAAAAAAAAAAAAAAAAAAAA==

> <PUBCHEM_IUPAC_OPENEYE_NAME>
2-[(4R,5S,6S,7R,9R,11E,13E,15R,16R)-6-[(2R,3R,4S,5S,6R)-4-(dimethylamino)-3,5-dihydroxy-6-methyl-tetrahydropyran-2-yl]oxy-16-ethyl-4-hydroxy-15-[[(2R,3R,4R,5R,6R)-5-hydroxy-3,4-dimethoxy-6-methyl-tetrahydropyran-2-yl]oxymethyl]-5,9,13-trimethyl-2,10-dioxo-1-oxacyclohexadeca-11,13-dien-7-yl]acetaldehyde

> <PUBCHEM_IUPAC_CAS_NAME>
2-[(4R,5S,6S,7R,9R,11E,13E,15R,16R)-6-[[(2R,3R,4S,5S,6R)-4-(dimethylamino)-3,5-dihydroxy-6-methyl-2-oxanyl]oxy]-16-ethyl-4-hydroxy-15-[[(2R,3R,4R,5R,6R)-5-hydroxy-3,4-dimethoxy-6-methyl-2-oxanyl]oxymethyl]-5,9,13-trimethyl-2,10-dioxo-1-oxacyclohexadeca-11,13-dien-7-yl]acetaldehyde

> <PUBCHEM_IUPAC_NAME>
2-[(4R,5S,6S,7R,9R,11E,13E,15R,16R)-6-[(2R,3R,4S,5S,6R)-4-(dimethylamino)-3,5-dihydroxy-6-methyloxan-2-yl]oxy-16-ethyl-4-hydroxy-15-[[(2R,3R,4R,5R,6R)-5-hydroxy-3,4-dimethoxy-6-methyloxan-2-yl]oxymethyl]-5,9,13-trimethyl-2,10-dioxo-1-oxacyclohexadeca-11,13-dien-7-yl]acetaldehyde

> <PUBCHEM_IUPAC_SYSTEMATIC_NAME>
2-[(4R,5S,6S,7R,9R,11E,13E,15R,16R)-15-[[(2R,3R,4R,5R,6R)-3,4-dimethoxy-6-methyl-5-oxidanyl-oxan-2-yl]oxymethyl]-6-[(2R,3R,4S,5S,6R)-4-(dimethylamino)-6-methyl-3,5-bis(oxidanyl)oxan-2-yl]oxy-16-ethyl-5,9,13-trimethyl-4-oxidanyl-2,10-bis(oxidanylidene)-1-oxacyclohexadeca-11,13-dien-7-yl]ethanal

> <PUBCHEM_IUPAC_TRADITIONAL_NAME>
2-[(4R,5S,6S,7R,9R,11E,13E,15R,16R)-6-[(2R,3R,4S,5S,6R)-4-(dimethylamino)-3,5-dihydroxy-6-methyl-tetrahydropyran-2-yl]oxy-16-ethyl-4-hydroxy-15-[[(2R,3R,4R,5R,6R)-5-hydroxy-3,4-dimethoxy-6-methyl-tetrahydropyran-2-yl]oxymethyl]-2,10-diketo-5,9,13-trimethyl-1-oxacyclohexadeca-11,13-dien-7-yl]acetaldehyde

> <PUBCHEM_IUPAC_INCHI>
InChI=1S/C39H65NO14/c1-11-29-26(19-50-39-37(49-10)36(48-9)33(46)24(6)52-39)16-20(2)12-13-27(42)21(3)17-25(14-15-41)35(22(4)28(43)18-30(44)53-29)54-38-34(47)31(40(7)8)32(45)23(5)51-38/h12-13,15-16,21-26,28-29,31-39,43,45-47H,11,14,17-19H2,1-10H3/b13-12+,20-16+/t21-,22+,23-,24-,25+,26-,28-,29-,31+,32-,33-,34-,35-,36-,37-,38+,39-/m1/s1

> <PUBCHEM_IUPAC_INCHIKEY>
QRPHLEPFYLNRDA-NLGRAQRVSA-N

> <PUBCHEM_XLOGP3_AA>
0.9

> <PUBCHEM_EXACT_MASS>
771.440506

> <PUBCHEM_MOLECULAR_FORMULA>
C39H65NO14

> <PUBCHEM_MOLECULAR_WEIGHT>
771.9317

> <PUBCHEM_OPENEYE_CAN_SMILES>
CCC1C(C=C(C=CC(=O)C(CC(C(C(C(CC(=O)O1)O)C)OC2C(C(C(C(O2)C)O)N(C)C)O)CC=O)C)C)COC3C(C(C(C(O3)C)O)OC)OC

> <PUBCHEM_OPENEYE_ISO_SMILES>
CC[C@@H]1[C@H](/C=C(/C=C/C(=O)[C@@H](C[C@@H]([C@@H]([C@H]([C@@H](CC(=O)O1)O)C)O[C@H]2[C@@H]([C@H]([C@@H]([C@H](O2)C)O)N(C)C)O)CC=O)C)\C)CO[C@H]3[C@@H]([C@@H]([C@@H]([C@H](O3)C)O)OC)OC

> <PUBCHEM_CACTVS_TPSA>
200

> <PUBCHEM_MONOISOTOPIC_WEIGHT>
771.440506

> <PUBCHEM_TOTAL_CHARGE>
0

> <PUBCHEM_HEAVY_ATOM_COUNT>
54

> <PUBCHEM_ATOM_DEF_STEREO_COUNT>
17

> <PUBCHEM_ATOM_UDEF_STEREO_COUNT>
0

> <PUBCHEM_BOND_DEF_STEREO_COUNT>
2

> <PUBCHEM_BOND_UDEF_STEREO_COUNT>
0

> <PUBCHEM_ISOTOPIC_ATOM_COUNT>
0

> <PUBCHEM_COMPONENT_COUNT>
1

> <PUBCHEM_CACTVS_TAUTO_COUNT>
28

> <PUBCHEM_COORDINATE_TYPE>
1
5
255

> <PUBCHEM_BONDANNOTATIONS>
16  1  5
21  1  5
37  10  5
39  11  5
19  15  5
17  26  5
18  28  5
23  30  5
27  33  5
20  3  6
22  4  6
41  44  6
42  48  6
43  46  5
25  5  5
40  8  6
36  9  5

$$$$

