72307
  -OEChem-07051213003D

 44 49  0     1  0  0  0  0  0999 V2000
   -1.1967    1.4912   -0.8971 O   0  0  0  0  0  0  0  0  0  0  0  0
    1.1963   -1.4912   -0.8974 O   0  0  0  0  0  0  0  0  0  0  0  0
   -5.8224    1.3407    1.2744 O   0  0  0  0  0  0  0  0  0  0  0  0
    5.8223   -1.3408    1.2744 O   0  0  0  0  0  0  0  0  0  0  0  0
   -6.9461   -0.5958    0.3830 O   0  0  0  0  0  0  0  0  0  0  0  0
    6.9461    0.5958    0.3832 O   0  0  0  0  0  0  0  0  0  0  0  0
   -0.5762   -0.4836    0.3048 C   0  0  1  0  0  0  0  0  0  0  0  0
    0.5764    0.4838    0.3045 C   0  0  1  0  0  0  0  0  0  0  0  0
   -1.4940    0.0841   -0.7863 C   0  0  1  0  0  0  0  0  0  0  0  0
    1.4940   -0.0842   -0.7866 C   0  0  1  0  0  0  0  0  0  0  0  0
   -0.0804    1.7991   -0.0506 C   0  0  0  0  0  0  0  0  0  0  0  0
    0.0805   -1.7990   -0.0504 C   0  0  0  0  0  0  0  0  0  0  0  0
   -2.9596   -0.1301   -0.4921 C   0  0  0  0  0  0  0  0  0  0  0  0
    2.9595    0.1301   -0.4923 C   0  0  0  0  0  0  0  0  0  0  0  0
   -3.6546    0.7945    0.2937 C   0  0  0  0  0  0  0  0  0  0  0  0
    3.6547   -0.7946    0.2935 C   0  0  0  0  0  0  0  0  0  0  0  0
   -3.6182   -1.2604   -1.0115 C   0  0  0  0  0  0  0  0  0  0  0  0
    3.6183    1.2604   -1.0116 C   0  0  0  0  0  0  0  0  0  0  0  0
   -4.9921    0.5560    0.5350 C   0  0  0  0  0  0  0  0  0  0  0  0
    4.9920   -0.5560    0.5350 C   0  0  0  0  0  0  0  0  0  0  0  0
   -4.9733   -1.4783   -0.7521 C   0  0  0  0  0  0  0  0  0  0  0  0
    4.9734    1.4783   -0.7521 C   0  0  0  0  0  0  0  0  0  0  0  0
   -5.6337   -0.5499    0.0260 C   0  0  0  0  0  0  0  0  0  0  0  0
    5.6337    0.5499    0.0261 C   0  0  0  0  0  0  0  0  0  0  0  0
   -7.0589    0.6052    1.1733 C   0  0  0  0  0  0  0  0  0  0  0  0
    7.0588   -0.6052    1.1734 C   0  0  0  0  0  0  0  0  0  0  0  0
   -1.0840   -0.5301    1.2748 H   0  0  0  0  0  0  0  0  0  0  0  0
    1.0845    0.5305    1.2744 H   0  0  0  0  0  0  0  0  0  0  0  0
   -1.2641   -0.3443   -1.7703 H   0  0  0  0  0  0  0  0  0  0  0  0
    1.2642    0.3443   -1.7706 H   0  0  0  0  0  0  0  0  0  0  0  0
   -0.4755    2.2913    0.8447 H   0  0  0  0  0  0  0  0  0  0  0  0
    0.5872    2.4978   -0.5626 H   0  0  0  0  0  0  0  0  0  0  0  0
    0.4760   -2.2909    0.8449 H   0  0  0  0  0  0  0  0  0  0  0  0
   -0.5872   -2.4978   -0.5617 H   0  0  0  0  0  0  0  0  0  0  0  0
   -3.1721    1.6696    0.7152 H   0  0  0  0  0  0  0  0  0  0  0  0
    3.1721   -1.6696    0.7149 H   0  0  0  0  0  0  0  0  0  0  0  0
   -3.0750   -1.9785   -1.6211 H   0  0  0  0  0  0  0  0  0  0  0  0
    3.0751    1.9786   -1.6212 H   0  0  0  0  0  0  0  0  0  0  0  0
   -5.4823   -2.3485   -1.1506 H   0  0  0  0  0  0  0  0  0  0  0  0
    5.4824    2.3485   -1.1505 H   0  0  0  0  0  0  0  0  0  0  0  0
   -7.8170    1.2540    0.7196 H   0  0  0  0  0  0  0  0  0  0  0  0
   -7.3880    0.3316    2.1824 H   0  0  0  0  0  0  0  0  0  0  0  0
    7.8170   -1.2540    0.7198 H   0  0  0  0  0  0  0  0  0  0  0  0
    7.3878   -0.3318    2.1825 H   0  0  0  0  0  0  0  0  0  0  0  0
  1  9  1  0  0  0  0
  1 11  1  0  0  0  0
  2 10  1  0  0  0  0
  2 12  1  0  0  0  0
  3 19  1  0  0  0  0
  3 25  1  0  0  0  0
  4 20  1  0  0  0  0
  4 26  1  0  0  0  0
  5 23  1  0  0  0  0
  5 25  1  0  0  0  0
  6 24  1  0  0  0  0
  6 26  1  0  0  0  0
  7  8  1  0  0  0  0
  7  9  1  0  0  0  0
  7 12  1  0  0  0  0
  7 27  1  0  0  0  0
  8 10  1  0  0  0  0
  8 11  1  0  0  0  0
  8 28  1  0  0  0  0
  9 13  1  0  0  0  0
  9 29  1  0  0  0  0
 10 14  1  0  0  0  0
 10 30  1  0  0  0  0
 11 31  1  0  0  0  0
 11 32  1  0  0  0  0
 12 33  1  0  0  0  0
 12 34  1  0  0  0  0
 13 15  2  0  0  0  0
 13 17  1  0  0  0  0
 14 16  2  0  0  0  0
 14 18  1  0  0  0  0
 15 19  1  0  0  0  0
 15 35  1  0  0  0  0
 16 20  1  0  0  0  0
 16 36  1  0  0  0  0
 17 21  2  0  0  0  0
 17 37  1  0  0  0  0
 18 22  2  0  0  0  0
 18 38  1  0  0  0  0
 19 23  2  0  0  0  0
 20 24  2  0  0  0  0
 21 23  1  0  0  0  0
 21 39  1  0  0  0  0
 22 24  1  0  0  0  0
 22 40  1  0  0  0  0
 25 41  1  0  0  0  0
 25 42  1  0  0  0  0
 26 43  1  0  0  0  0
 26 44  1  0  0  0  0
M  END
> <PUBCHEM_COMPOUND_CID>
72307

> <PUBCHEM_CONFORMER_RMSD>
0.8

> <PUBCHEM_CONFORMER_DIVERSEORDER>
1
4
13
18
9
10
3
6
16
15
7
14
8
5
2
11
17
12

> <PUBCHEM_MMFF94_PARTIAL_CHARGES>
30
1 -0.56
10 0.42
11 0.28
12 0.28
13 -0.14
14 -0.14
15 -0.15
16 -0.15
17 -0.15
18 -0.15
19 0.08
2 -0.56
20 0.08
21 -0.15
22 -0.15
23 0.08
24 0.08
25 0.56
26 0.56
3 -0.36
35 0.15
36 0.15
37 0.15
38 0.15
39 0.15
4 -0.36
40 0.15
5 -0.36
6 -0.36
9 0.42

> <PUBCHEM_EFFECTIVE_ROTOR_COUNT>
4.4

> <PUBCHEM_PHARMACOPHORE_FEATURES>
12
1 1 acceptor
1 2 acceptor
1 3 acceptor
1 4 acceptor
1 5 acceptor
1 6 acceptor
5 1 7 8 9 11 rings
5 2 7 8 10 12 rings
5 3 5 19 23 25 rings
5 4 6 20 24 26 rings
6 13 15 17 19 21 23 rings
6 14 16 18 20 22 24 rings

> <PUBCHEM_HEAVY_ATOM_COUNT>
26

> <PUBCHEM_ATOM_DEF_STEREO_COUNT>
4

> <PUBCHEM_ATOM_UDEF_STEREO_COUNT>
0

> <PUBCHEM_BOND_DEF_STEREO_COUNT>
0

> <PUBCHEM_BOND_UDEF_STEREO_COUNT>
0

> <PUBCHEM_ISOTOPIC_ATOM_COUNT>
0

> <PUBCHEM_COMPONENT_COUNT>
1

> <PUBCHEM_CACTVS_TAUTO_COUNT>
1

> <PUBCHEM_CONFORMER_ID>
00011A7300000001

> <PUBCHEM_MMFF94_ENERGY>
77.6998

> <PUBCHEM_FEATURE_SELFOVERLAP>
61.684

> <PUBCHEM_SHAPE_FINGERPRINT>
10 15 18335416863925061953
10299344 5 18411418401644713834
10835480 77 6988020385315765218
10906281 52 18338218397777254782
11315181 36 18334016065169065143
12166972 35 17489586758112547636
12236239 1 18410855455833194517
12516196 113 16298104280885766433
12616971 3 18343302548049369948
12838862 33 18187092788968468257
13533116 47 18060423534557476538
13668630 136 15123507025370721232
13685833 64 16845574231980501858
13782708 43 15985108513330246562
13862211 1 18343024371628810255
14028597 1 18338797921924816307
1420 363 16415760829529686881
14251764 18 18410575063188242446
14849402 71 18264205816236614152
14856354 85 18261391110019787871
15048467 5 16732702761555140987
15131766 46 15359414831024880776
15183329 4 18410855447248541573
15461852 350 16732991912509120949
15716309 27 18201720656528896379
1577012 14 18410572851702234540
15788980 27 16343984693789877479
1601671 61 18040150725672927141
17492 89 18054797440632070882
1813 80 17917417761955809141
18927931 339 12679458678233745065
19377110 9 18410575119022817683
20567600 75 15482681199024676566
21033648 29 16629980831911697765
21130935 74 18260269650898710358
21267235 1 18201720691658826470
21623969 137 17704067408689117795
21781055 127 17968640714960332872
22224240 67 18186805772592454111
22956985 138 12605755183650805584
23035841 295 18202283593729395099
23081809 10 18410856516695398301
23402539 116 18343027691654257116
23522609 53 18268404907035694357
23559900 14 15984817100047411884
24771293 8 17896049754345678728
29717793 49 9943530734943053672
3004659 81 18411130330257710900
3178227 256 18272078384452985225
34797466 226 16370998568728395237
3680242 22 18412541024660210722
4073 2 18201152131676660018
4093350 32 16950839314671338102
4325135 7 18410575084668353901
4340502 62 16225764121265855310
5104073 3 18338798896882385458
5758199 1 18408603647872933370
6009941 240 14418138387434097790

> <PUBCHEM_SHAPE_MULTIPOLES>
499.85
19.43
1.58
1.1
0
0
-0.07
0
-7.05
0
0.15
0
0
-1.88

> <PUBCHEM_SHAPE_SELFOVERLAP>
1137.684

> <PUBCHEM_SHAPE_VOLUME>
263.5

> <PUBCHEM_COORDINATE_TYPE>
2
5
10

$$$$

