854105
  -OEChem-06241222473D

 44 46  0     0  0  0  0  0  0999 V2000
   -0.3786   -2.5420    0.0037 O   0  0  0  0  0  0  0  0  0  0  0  0
    3.0646    0.5490   -1.2102 O   0  0  0  0  0  0  0  0  0  0  0  0
   -2.0256   -4.0169    0.5851 O   0  0  0  0  0  0  0  0  0  0  0  0
   -0.9359   -0.1817   -0.2550 C   0  0  0  0  0  0  0  0  0  0  0  0
   -0.0029   -1.2167   -0.2865 C   0  0  0  0  0  0  0  0  0  0  0  0
    1.3384   -0.9969   -0.6029 C   0  0  0  0  0  0  0  0  0  0  0  0
   -2.3341   -0.4856    0.0860 C   0  0  0  0  0  0  0  0  0  0  0  0
    1.7635    0.2950   -0.8971 C   0  0  0  0  0  0  0  0  0  0  0  0
   -0.4911    1.1132   -0.5524 C   0  0  0  0  0  0  0  0  0  0  0  0
   -3.4301    0.4757    0.1623 C   0  0  0  0  0  0  0  0  0  0  0  0
    0.8505    1.3486   -0.8716 C   0  0  0  0  0  0  0  0  0  0  0  0
   -2.6601   -1.7601    0.3566 C   0  0  0  0  0  0  0  0  0  0  0  0
    2.3105   -2.1313   -0.6271 C   0  0  0  0  0  0  0  0  0  0  0  0
   -1.6861   -2.8666    0.3299 C   0  0  0  0  0  0  0  0  0  0  0  0
   -4.1943    0.7453   -0.9699 C   0  0  0  0  0  0  0  0  0  0  0  0
   -3.7058    1.1174    1.3666 C   0  0  0  0  0  0  0  0  0  0  0  0
    3.7703    1.4543   -0.3634 C   0  0  0  0  0  0  0  0  0  0  0  0
   -5.2421    1.6634   -0.8972 C   0  0  0  0  0  0  0  0  0  0  0  0
   -4.7535    2.0353    1.4396 C   0  0  0  0  0  0  0  0  0  0  0  0
    5.2265    1.1094   -0.3682 C   0  0  0  0  0  0  0  0  0  0  0  0
   -5.5215    2.3084    0.3076 C   0  0  0  0  0  0  0  0  0  0  0  0
    6.0095    0.7921    0.6802 C   0  0  0  0  0  0  0  0  0  0  0  0
    7.4677    0.4778    0.4721 C   0  0  0  0  0  0  0  0  0  0  0  0
    5.5603    0.7129    2.1118 C   0  0  0  0  0  0  0  0  0  0  0  0
   -1.1739    1.9591   -0.5445 H   0  0  0  0  0  0  0  0  0  0  0  0
    1.1650    2.3621   -1.1066 H   0  0  0  0  0  0  0  0  0  0  0  0
   -3.6773   -2.0456    0.6148 H   0  0  0  0  0  0  0  0  0  0  0  0
    2.5451   -2.4444    0.3955 H   0  0  0  0  0  0  0  0  0  0  0  0
    1.8964   -2.9850   -1.1748 H   0  0  0  0  0  0  0  0  0  0  0  0
    3.2508   -1.8745   -1.1248 H   0  0  0  0  0  0  0  0  0  0  0  0
   -3.9883    0.2516   -1.9165 H   0  0  0  0  0  0  0  0  0  0  0  0
   -3.1156    0.9162    2.2573 H   0  0  0  0  0  0  0  0  0  0  0  0
    3.6538    2.4661   -0.7692 H   0  0  0  0  0  0  0  0  0  0  0  0
    3.3433    1.4514    0.6433 H   0  0  0  0  0  0  0  0  0  0  0  0
    5.6840    1.1327   -1.3568 H   0  0  0  0  0  0  0  0  0  0  0  0
   -5.8399    1.8764   -1.7785 H   0  0  0  0  0  0  0  0  0  0  0  0
   -4.9711    2.5379    2.3775 H   0  0  0  0  0  0  0  0  0  0  0  0
   -6.3372    3.0233    0.3643 H   0  0  0  0  0  0  0  0  0  0  0  0
    8.0907    1.1784    1.0378 H   0  0  0  0  0  0  0  0  0  0  0  0
    7.6887   -0.5387    0.8140 H   0  0  0  0  0  0  0  0  0  0  0  0
    7.7642    0.5454   -0.5799 H   0  0  0  0  0  0  0  0  0  0  0  0
    6.1164    1.4349    2.7192 H   0  0  0  0  0  0  0  0  0  0  0  0
    4.4979    0.9165    2.2554 H   0  0  0  0  0  0  0  0  0  0  0  0
    5.7528   -0.2895    2.5092 H   0  0  0  0  0  0  0  0  0  0  0  0
  1  5  1  0  0  0  0
  1 14  1  0  0  0  0
  2  8  1  0  0  0  0
  2 17  1  0  0  0  0
  3 14  2  0  0  0  0
  4  5  2  0  0  0  0
  4  7  1  0  0  0  0
  4  9  1  0  0  0  0
  5  6  1  0  0  0  0
  6  8  2  0  0  0  0
  6 13  1  0  0  0  0
  7 10  1  0  0  0  0
  7 12  2  0  0  0  0
  8 11  1  0  0  0  0
  9 11  2  0  0  0  0
  9 25  1  0  0  0  0
 10 15  2  0  0  0  0
 10 16  1  0  0  0  0
 11 26  1  0  0  0  0
 12 14  1  0  0  0  0
 12 27  1  0  0  0  0
 13 28  1  0  0  0  0
 13 29  1  0  0  0  0
 13 30  1  0  0  0  0
 15 18  1  0  0  0  0
 15 31  1  0  0  0  0
 16 19  2  0  0  0  0
 16 32  1  0  0  0  0
 17 20  1  0  0  0  0
 17 33  1  0  0  0  0
 17 34  1  0  0  0  0
 18 21  2  0  0  0  0
 18 36  1  0  0  0  0
 19 21  1  0  0  0  0
 19 37  1  0  0  0  0
 20 22  2  0  0  0  0
 20 35  1  0  0  0  0
 21 38  1  0  0  0  0
 22 23  1  0  0  0  0
 22 24  1  0  0  0  0
 23 39  1  0  0  0  0
 23 40  1  0  0  0  0
 23 41  1  0  0  0  0
 24 42  1  0  0  0  0
 24 43  1  0  0  0  0
 24 44  1  0  0  0  0
M  END
> <PUBCHEM_COMPOUND_CID>
854105

> <PUBCHEM_CONFORMER_RMSD>
0.8

> <PUBCHEM_CONFORMER_DIVERSEORDER>
1
11
8
10
2
13
7
14
6
12
15
9
3
4
5

> <PUBCHEM_MMFF94_PARTIAL_CHARGES>
33
1 -0.23
10 0.03
11 -0.15
12 -0.14
13 0.14
14 0.71
15 -0.15
16 -0.15
17 0.42
18 -0.15
19 -0.15
2 -0.36
20 -0.29
21 -0.15
22 -0.28
23 0.14
24 0.14
25 0.15
26 0.15
27 0.15
3 -0.57
31 0.15
32 0.15
35 0.15
36 0.15
37 0.15
38 0.15
4 0.03
5 0.08
6 -0.14
7 -0.06
8 0.08
9 -0.15

> <PUBCHEM_EFFECTIVE_ROTOR_COUNT>
4

> <PUBCHEM_PHARMACOPHORE_FEATURES>
6
1 2 acceptor
1 3 acceptor
3 22 23 24 hydrophobe
6 1 4 5 7 12 14 rings
6 10 15 16 18 19 21 rings
6 4 5 6 8 9 11 rings

> <PUBCHEM_HEAVY_ATOM_COUNT>
24

> <PUBCHEM_ATOM_DEF_STEREO_COUNT>
0

> <PUBCHEM_ATOM_UDEF_STEREO_COUNT>
0

> <PUBCHEM_BOND_DEF_STEREO_COUNT>
0

> <PUBCHEM_BOND_UDEF_STEREO_COUNT>
0

> <PUBCHEM_ISOTOPIC_ATOM_COUNT>
0

> <PUBCHEM_COMPONENT_COUNT>
1

> <PUBCHEM_CACTVS_TAUTO_COUNT>
1

> <PUBCHEM_CONFORMER_ID>
000D085900000001

> <PUBCHEM_MMFF94_ENERGY>
82.1276

> <PUBCHEM_FEATURE_SELFOVERLAP>
30.473

> <PUBCHEM_SHAPE_FINGERPRINT>
10 15 18130776841852954409
10042902 136 11671481375367718313
10319926 262 18335989658476321320
10411042 1 17690837861672965423
10493431 412 18411691111015166493
10692045 39 18337957921391799530
11089746 13 17603308159130835820
12107183 9 18272375278541922176
12403260 363 18195528082249820917
12422481 6 18060426849871282812
12616971 3 17275103891258485876
12633257 1 18272652320738064484
13140716 1 18267298729686824292
13540713 4 18190154889374790486
13540713 5 17843671163164585380
14178342 30 18341323379927973678
14466204 15 18410012122157688848
14739800 52 17677061247263950416
15537594 2 17489880332454683856
1813 80 10303804411133210329
19489759 90 18040999518389899528
19784866 34 18337948008780982861
20554085 129 18188225285290774889
21033648 144 18339082696000892871
21033648 29 17845649399716570845
21403212 168 18272661185196914368
21421861 104 17775013440048602738
21452121 103 18339359785515345804
21859007 373 17558841825427568988
22182313 1 18043784568548170078
23559900 14 18263063523230081926
23569917 315 18412823581938220295
23929065 36 18044672913961427067
2838139 119 17022906761221759624
3117164 225 18340492158302400752
312425 54 18341625781045258120
3459 39 18337967773477220025
34934 24 18411702101351265006
350125 39 18268414751801336465
474 4 18194675089725050851
5104073 3 18341884242996534875
5385378 56 18339918350169981971
53917941 68 18408610262333455599
633830 44 18044644533281161237
7226269 152 18334012796045617960
9981440 41 18334853905176627419

> <PUBCHEM_SHAPE_MULTIPOLES>
476.3
14.66
3.07
1.27
17.95
3.28
-0.41
-11.53
-4.38
-3.24
-0.55
0.39
-0.48
0.26

> <PUBCHEM_SHAPE_SELFOVERLAP>
1028.952

> <PUBCHEM_SHAPE_VOLUME>
262.5

> <PUBCHEM_COORDINATE_TYPE>
2
5
10

$$$$

