2733
  -OEChem-07051212543D

 15 16  0     0  0  0  0  0  0999 V2000
    3.7901    0.8156    0.0006 Cl  0  0  0  0  0  0  0  0  0  0  0  0
   -1.7579   -1.0498    0.0001 O   0  0  0  0  0  0  0  0  0  0  0  0
   -3.5653    0.3933    0.0004 O   0  0  0  0  0  0  0  0  0  0  0  0
   -1.3857    1.2181    0.0000 N   0  0  0  0  0  0  0  0  0  0  0  0
   -0.1613    0.6046   -0.0005 C   0  0  0  0  0  0  0  0  0  0  0  0
   -0.4040   -0.7522   -0.0003 C   0  0  0  0  0  0  0  0  0  0  0  0
    1.1072    1.1386   -0.0004 C   0  0  0  0  0  0  0  0  0  0  0  0
    0.6280   -1.6655   -0.0002 C   0  0  0  0  0  0  0  0  0  0  0  0
    2.1692    0.2311   -0.0002 C   0  0  0  0  0  0  0  0  0  0  0  0
   -2.3522    0.2252    0.0002 C   0  0  0  0  0  0  0  0  0  0  0  0
    1.9319   -1.1590    0.0002 C   0  0  0  0  0  0  0  0  0  0  0  0
   -1.5438    2.2180    0.0001 H   0  0  0  0  0  0  0  0  0  0  0  0
    1.2682    2.2107   -0.0004 H   0  0  0  0  0  0  0  0  0  0  0  0
    0.4439   -2.7334    0.0001 H   0  0  0  0  0  0  0  0  0  0  0  0
    2.7662   -1.8571    0.0007 H   0  0  0  0  0  0  0  0  0  0  0  0
  1  9  1  0  0  0  0
  2  6  1  0  0  0  0
  2 10  1  0  0  0  0
  3 10  2  0  0  0  0
  4  5  1  0  0  0  0
  4 10  1  0  0  0  0
  4 12  1  0  0  0  0
  5  6  2  0  0  0  0
  5  7  1  0  0  0  0
  6  8  1  0  0  0  0
  7  9  2  0  0  0  0
  7 13  1  0  0  0  0
  8 11  2  0  0  0  0
  8 14  1  0  0  0  0
  9 11  1  0  0  0  0
 11 15  1  0  0  0  0
M  END
> <PUBCHEM_COMPOUND_CID>
2733

> <PUBCHEM_CONFORMER_RMSD>
0.4

> <PUBCHEM_CONFORMER_DIVERSEORDER>
1

> <PUBCHEM_MMFF94_PARTIAL_CHARGES>
15
1 -0.18
10 0.78
11 -0.15
12 0.37
13 0.15
14 0.15
15 0.15
2 -0.23
3 -0.57
4 -0.55
5 0.12
6 0.08
7 -0.15
8 -0.15
9 0.18

> <PUBCHEM_EFFECTIVE_ROTOR_COUNT>
0

> <PUBCHEM_PHARMACOPHORE_FEATURES>
4
1 3 acceptor
1 4 donor
5 2 4 5 6 10 rings
6 5 6 7 8 9 11 rings

> <PUBCHEM_HEAVY_ATOM_COUNT>
11

> <PUBCHEM_ATOM_DEF_STEREO_COUNT>
0

> <PUBCHEM_ATOM_UDEF_STEREO_COUNT>
0

> <PUBCHEM_BOND_DEF_STEREO_COUNT>
0

> <PUBCHEM_BOND_UDEF_STEREO_COUNT>
0

> <PUBCHEM_ISOTOPIC_ATOM_COUNT>
0

> <PUBCHEM_COMPONENT_COUNT>
1

> <PUBCHEM_CACTVS_TAUTO_COUNT>
2

> <PUBCHEM_CONFORMER_ID>
00000AAD00000001

> <PUBCHEM_MMFF94_ENERGY>
30.2828

> <PUBCHEM_FEATURE_SELFOVERLAP>
20.413

> <PUBCHEM_SHAPE_FINGERPRINT>
10219947 1 18272650155784156268
11471102 20 18410861005342527669
12897270 3 18410011043819632532
13380535 76 18411700971854208010
14325111 11 18410573998078661472
15775835 57 18335700533360976788
16945 1 18410855460159836292
193761 8 17834396005263681248
20645477 70 18265339580755453335
20871998 184 18044087956368740790
21040471 1 18338797806266757250
23235685 24 18411706465169873728
23402655 69 18335997458089614101
23463225 33 18343025518991590226
23552423 10 18269834396641823246
2748010 2 18195810905909669764
369184 2 16272215171407945576
5084963 1 18261674877865202664
528886 8 18410297990695480626
53812653 166 18334018259385897632
7364860 26 18262519329140625454

> <PUBCHEM_SHAPE_MULTIPOLES>
211.52
4.85
1.49
0.6
0.19
0.37
0
-1.4
0
0.31
0
0.08
0
0

> <PUBCHEM_SHAPE_SELFOVERLAP>
457.717

> <PUBCHEM_SHAPE_VOLUME>
118.7

> <PUBCHEM_COORDINATE_TYPE>
2
5
10

$$$$

