56928160
  -OEChem-07051213153D

 65 70  0     1  0  0  0  0  0999 V2000
    1.8790    1.1544    0.3036 O   0  0  0  0  0  0  0  0  0  0  0  0
   -1.3820   -1.8370    1.1436 O   0  0  0  0  0  0  0  0  0  0  0  0
    1.3490    1.2204   -2.5074 O   0  0  0  0  0  0  0  0  0  0  0  0
    3.4829    2.4383    1.4369 O   0  0  0  0  0  0  0  0  0  0  0  0
   -4.7441    1.7318    0.4823 O   0  0  0  0  0  0  0  0  0  0  0  0
   -3.6209   -1.2677   -0.8326 N   0  0  2  0  0  0  0  0  0  0  0  0
    1.5458   -0.0575   -0.4242 C   0  0  1  0  0  0  0  0  0  0  0  0
    2.8919   -0.7766   -0.8631 C   0  0  2  0  0  0  0  0  0  0  0  0
    3.5789   -1.2034    0.4686 C   0  0  1  0  0  0  0  0  0  0  0  0
   -0.7863   -0.5655    0.8164 C   0  0  2  0  0  0  0  0  0  0  0  0
   -1.5495    0.1969   -0.3343 C   0  0  2  0  0  0  0  0  0  0  0  0
    0.7069   -0.9004    0.5613 C   0  0  0  0  0  0  0  0  0  0  0  0
    0.6539    0.3452   -1.6230 C   0  0  1  0  0  0  0  0  0  0  0  0
    3.2747    1.3065    0.5996 C   0  0  1  0  0  0  0  0  0  0  0  0
    3.8832    0.2048   -1.5477 C   0  0  0  0  0  0  0  0  0  0  0  0
   -0.5927    1.0890   -1.1614 C   0  0  0  0  0  0  0  0  0  0  0  0
    3.7812    0.0605    1.3401 C   0  0  0  0  0  0  0  0  0  0  0  0
    4.0261    1.4773   -0.7205 C   0  0  0  0  0  0  0  0  0  0  0  0
    2.7469   -2.2554    1.2039 C   0  0  0  0  0  0  0  0  0  0  0  0
    1.2952   -1.8961    1.2646 C   0  0  0  0  0  0  0  0  0  0  0  0
    2.6731   -1.9757   -1.8034 C   0  0  0  0  0  0  0  0  0  0  0  0
   -0.8856    0.3748    2.0487 C   0  0  0  0  0  0  0  0  0  0  0  0
   -2.4281    1.1698    0.4500 C   0  0  0  0  0  0  0  0  0  0  0  0
   -2.3343   -0.7328   -1.3122 C   0  0  0  0  0  0  0  0  0  0  0  0
   -2.0393    1.2673    1.7280 C   0  0  0  0  0  0  0  0  0  0  0  0
   -3.5073    1.9868   -0.1768 C   0  0  2  0  0  0  0  0  0  0  0  0
   -2.7677   -1.9513    1.3893 C   0  0  0  0  0  0  0  0  0  0  0  0
   -3.4743   -2.3729    0.1152 C   0  0  0  0  0  0  0  0  0  0  0  0
   -4.4377   -1.7086   -1.9694 C   0  0  0  0  0  0  0  0  0  0  0  0
   -3.2190    3.4771   -0.0762 C   0  0  0  0  0  0  0  0  0  0  0  0
    4.5652   -1.6419    0.2647 H   0  0  0  0  0  0  0  0  0  0  0  0
    0.3694   -0.5391   -2.2033 H   0  0  0  0  0  0  0  0  0  0  0  0
    3.5875    0.4485   -2.5729 H   0  0  0  0  0  0  0  0  0  0  0  0
    4.8684   -0.2715   -1.6456 H   0  0  0  0  0  0  0  0  0  0  0  0
   -0.2857    1.9823   -0.5982 H   0  0  0  0  0  0  0  0  0  0  0  0
   -1.1153    1.5051   -2.0346 H   0  0  0  0  0  0  0  0  0  0  0  0
    3.2649   -0.0279    2.3045 H   0  0  0  0  0  0  0  0  0  0  0  0
    4.8444    0.1755    1.5874 H   0  0  0  0  0  0  0  0  0  0  0  0
    3.6120    2.3263   -1.2787 H   0  0  0  0  0  0  0  0  0  0  0  0
    5.0832    1.7126   -0.5484 H   0  0  0  0  0  0  0  0  0  0  0  0
    3.1305   -2.3853    2.2231 H   0  0  0  0  0  0  0  0  0  0  0  0
    2.8448   -3.2304    0.7122 H   0  0  0  0  0  0  0  0  0  0  0  0
    0.7224   -2.4809    1.9796 H   0  0  0  0  0  0  0  0  0  0  0  0
    1.9061   -2.6646   -1.4380 H   0  0  0  0  0  0  0  0  0  0  0  0
    3.6005   -2.5463   -1.9277 H   0  0  0  0  0  0  0  0  0  0  0  0
    2.3617   -1.6458   -2.8005 H   0  0  0  0  0  0  0  0  0  0  0  0
    0.0056    0.9952    2.1924 H   0  0  0  0  0  0  0  0  0  0  0  0
   -1.0781   -0.1810    2.9727 H   0  0  0  0  0  0  0  0  0  0  0  0
   -1.6857   -1.5536   -1.6478 H   0  0  0  0  0  0  0  0  0  0  0  0
   -2.5433   -0.1449   -2.2166 H   0  0  0  0  0  0  0  0  0  0  0  0
   -2.4847    1.9292    2.4575 H   0  0  0  0  0  0  0  0  0  0  0  0
    0.7766    1.3803   -3.2770 H   0  0  0  0  0  0  0  0  0  0  0  0
   -3.6352    1.7201   -1.2303 H   0  0  0  0  0  0  0  0  0  0  0  0
    3.5423    3.2266    0.8716 H   0  0  0  0  0  0  0  0  0  0  0  0
   -3.2134   -1.0708    1.8567 H   0  0  0  0  0  0  0  0  0  0  0  0
   -2.8798   -2.7634    2.1170 H   0  0  0  0  0  0  0  0  0  0  0  0
   -2.9408   -3.2116   -0.3511 H   0  0  0  0  0  0  0  0  0  0  0  0
   -4.4715   -2.7318    0.3994 H   0  0  0  0  0  0  0  0  0  0  0  0
   -4.6394   -0.8724   -2.6483 H   0  0  0  0  0  0  0  0  0  0  0  0
   -5.4152   -2.0684   -1.6285 H   0  0  0  0  0  0  0  0  0  0  0  0
   -3.9526   -2.5095   -2.5390 H   0  0  0  0  0  0  0  0  0  0  0  0
   -3.2187    3.8245    0.9632 H   0  0  0  0  0  0  0  0  0  0  0  0
   -4.0034    4.0480   -0.5862 H   0  0  0  0  0  0  0  0  0  0  0  0
   -2.2590    3.7364   -0.5342 H   0  0  0  0  0  0  0  0  0  0  0  0
   -5.4310    2.2532    0.0328 H   0  0  0  0  0  0  0  0  0  0  0  0
  1  7  1  0  0  0  0
  1 14  1  0  0  0  0
  2 10  1  0  0  0  0
  2 27  1  0  0  0  0
  3 13  1  0  0  0  0
  3 52  1  0  0  0  0
  4 14  1  0  0  0  0
  4 54  1  0  0  0  0
  5 26  1  0  0  0  0
  5 65  1  0  0  0  0
  6 24  1  0  0  0  0
  6 28  1  0  0  0  0
  6 29  1  0  0  0  0
  7  8  1  0  0  0  0
  7 12  1  0  0  0  0
  7 13  1  0  0  0  0
  8  9  1  0  0  0  0
  8 15  1  0  0  0  0
  8 21  1  0  0  0  0
  9 17  1  0  0  0  0
  9 19  1  0  0  0  0
  9 31  1  0  0  0  0
 10 11  1  0  0  0  0
 10 12  1  0  0  0  0
 10 22  1  0  0  0  0
 11 16  1  0  0  0  0
 11 23  1  0  0  0  0
 11 24  1  0  0  0  0
 12 20  2  0  0  0  0
 13 16  1  0  0  0  0
 13 32  1  0  0  0  0
 14 17  1  0  0  0  0
 14 18  1  0  0  0  0
 15 18  1  0  0  0  0
 15 33  1  0  0  0  0
 15 34  1  0  0  0  0
 16 35  1  0  0  0  0
 16 36  1  0  0  0  0
 17 37  1  0  0  0  0
 17 38  1  0  0  0  0
 18 39  1  0  0  0  0
 18 40  1  0  0  0  0
 19 20  1  0  0  0  0
 19 41  1  0  0  0  0
 19 42  1  0  0  0  0
 20 43  1  0  0  0  0
 21 44  1  0  0  0  0
 21 45  1  0  0  0  0
 21 46  1  0  0  0  0
 22 25  1  0  0  0  0
 22 47  1  0  0  0  0
 22 48  1  0  0  0  0
 23 25  2  0  0  0  0
 23 26  1  0  0  0  0
 24 49  1  0  0  0  0
 24 50  1  0  0  0  0
 25 51  1  0  0  0  0
 26 30  1  0  0  0  0
 26 53  1  0  0  0  0
 27 28  1  0  0  0  0
 27 55  1  0  0  0  0
 27 56  1  0  0  0  0
 28 57  1  0  0  0  0
 28 58  1  0  0  0  0
 29 59  1  0  0  0  0
 29 60  1  0  0  0  0
 29 61  1  0  0  0  0
 30 62  1  0  0  0  0
 30 63  1  0  0  0  0
 30 64  1  0  0  0  0
M  END
> <PUBCHEM_COMPOUND_CID>
56928160

> <PUBCHEM_CONFORMER_RMSD>
0.8

> <PUBCHEM_CONFORMER_DIVERSEORDER>
1
3
2

> <PUBCHEM_MMFF94_PARTIAL_CHARGES>
27
1 -0.56
10 0.42
11 0.14
12 -0.28
13 0.28
14 0.56
19 0.14
2 -0.56
20 -0.29
22 0.14
23 -0.28
24 0.27
25 -0.29
26 0.42
27 0.28
28 0.27
29 0.27
3 -0.68
4 -0.68
43 0.15
5 -0.68
51 0.15
52 0.4
54 0.4
6 -0.81
65 0.4
7 0.42

> <PUBCHEM_EFFECTIVE_ROTOR_COUNT>
3.6

> <PUBCHEM_PHARMACOPHORE_FEATURES>
14
1 1 acceptor
1 2 acceptor
1 3 acceptor
1 3 donor
1 4 acceptor
1 4 donor
1 5 acceptor
1 5 donor
1 6 cation
5 10 11 22 23 25 rings
6 7 10 11 12 13 16 rings
6 7 8 9 12 19 20 rings
7 2 6 10 11 24 27 28 rings
8 1 7 8 9 14 15 17 18 rings

> <PUBCHEM_HEAVY_ATOM_COUNT>
30

> <PUBCHEM_ATOM_DEF_STEREO_COUNT>
7

> <PUBCHEM_ATOM_UDEF_STEREO_COUNT>
1

> <PUBCHEM_BOND_DEF_STEREO_COUNT>
0

> <PUBCHEM_BOND_UDEF_STEREO_COUNT>
0

> <PUBCHEM_ISOTOPIC_ATOM_COUNT>
0

> <PUBCHEM_COMPONENT_COUNT>
1

> <PUBCHEM_CACTVS_TAUTO_COUNT>
1

> <PUBCHEM_CONFORMER_ID>
0364A7A000000001

> <PUBCHEM_MMFF94_ENERGY>
119.8716

> <PUBCHEM_FEATURE_SELFOVERLAP>
71.797

> <PUBCHEM_SHAPE_FINGERPRINT>
10366900 7 18265333915281840688
10863032 1 18334300880760134457
10948715 1 18268707393355530161
11578080 2 18334290942443663161
11640471 11 18267016335549844889
12173636 292 18343580776595436899
12553582 1 17275097353737889340
12633257 1 18129678503262505480
12714826 92 17458635484304922415
12788726 201 18408606959603824855
13140716 1 17845935233736959818
13224815 77 17704067382887496170
13583140 156 18040715874528356076
14178342 30 18060697273591192426
14223421 5 18334572404408247272
14289901 80 17749105582395151278
14787075 74 17758122501202769370
15238133 3 18122341543785641168
16752209 62 18333456443309513279
16945 1 17704069611901565934
17349148 13 17632303328257492603
17492 89 18113903774930874374
17980427 23 18342461396306778316
20691752 17 17275105059099212742
20715895 44 16700366129157304895
22393880 68 18334852831734704156
23227448 37 18335708273208873761
23419403 2 16743397427606703467
23557571 272 18338787923441553307
23559900 14 17604430837564131086
3286 77 18337967722543591666
460360 51 17060072496249822507
469060 322 16155428302191645733
9709674 26 18335138699988607519

> <PUBCHEM_SHAPE_MULTIPOLES>
583.06
8.32
2.89
2.02
1.16
0.65
0.39
0.89
0.99
1.92
-0.35
-0.26
-0.27
-0.52

> <PUBCHEM_SHAPE_SELFOVERLAP>
1286.855

> <PUBCHEM_SHAPE_VOLUME>
306

> <PUBCHEM_COORDINATE_TYPE>
2
5
10

$$$$

