442031
  -OEChem-07051212563D

 55 60  0     1  0  0  0  0  0999 V2000
    2.2529    2.2549   -0.6394 N   0  0  2  0  0  0  0  0  0  0  0  0
   -2.8423    1.5795    0.9491 N   0  0  1  0  0  0  0  0  0  0  0  0
    2.2387   -0.3381   -0.6992 N   0  0  2  0  0  0  0  0  0  0  0  0
   -2.4159   -0.9819    0.7703 N   0  0  0  0  0  0  0  0  0  0  0  0
    0.4869    0.9685    0.3457 C   0  0  1  0  0  0  0  0  0  0  0  0
   -0.9274    0.6938   -0.1750 C   0  0  1  0  0  0  0  0  0  0  0  0
    1.5521    0.9591   -0.8184 C   0  0  1  0  0  0  0  0  0  0  0  0
   -1.9572    0.3954    0.9845 C   0  0  1  0  0  0  0  0  0  0  0  0
    0.6056    2.3536    0.9885 C   0  0  0  0  0  0  0  0  0  0  0  0
   -1.5137    1.9054   -0.9175 C   0  0  0  0  0  0  0  0  0  0  0  0
    0.9743   -0.1547    1.2209 C   0  0  0  0  0  0  0  0  0  0  0  0
   -0.9866   -0.5714   -0.9931 C   0  0  0  0  0  0  0  0  0  0  0  0
    1.2745    3.1896   -0.0864 C   0  0  0  0  0  0  0  0  0  0  0  0
   -2.9603    1.9688   -0.4540 C   0  0  0  0  0  0  0  0  0  0  0  0
    1.9792   -0.8654    0.5530 C   0  0  0  0  0  0  0  0  0  0  0  0
   -1.8679   -1.4748   -0.3993 C   0  0  0  0  0  0  0  0  0  0  0  0
    0.5426   -0.5134    2.4900 C   0  0  0  0  0  0  0  0  0  0  0  0
   -0.3115   -0.8883   -2.1627 C   0  0  0  0  0  0  0  0  0  0  0  0
    2.8503    2.7548   -1.8693 C   0  0  0  0  0  0  0  0  0  0  0  0
   -4.1340    1.3462    1.5754 C   0  0  0  0  0  0  0  0  0  0  0  0
    3.3206   -0.7450   -1.5574 C   0  0  0  0  0  0  0  0  0  0  0  0
    2.5660   -1.9634    1.1657 C   0  0  0  0  0  0  0  0  0  0  0  0
   -2.0768   -2.7262   -0.9541 C   0  0  0  0  0  0  0  0  0  0  0  0
    1.1383   -1.6134    3.1043 C   0  0  0  0  0  0  0  0  0  0  0  0
   -0.5278   -2.1425   -2.7347 C   0  0  0  0  0  0  0  0  0  0  0  0
    2.1435   -2.3343    2.4462 C   0  0  0  0  0  0  0  0  0  0  0  0
   -1.4041   -3.0568   -2.1330 C   0  0  0  0  0  0  0  0  0  0  0  0
    1.0814    1.0799   -1.7875 H   0  0  0  0  0  0  0  0  0  0  0  0
   -1.5652    0.4558    1.9858 H   0  0  0  0  0  0  0  0  0  0  0  0
    1.2686    2.3163    1.8649 H   0  0  0  0  0  0  0  0  0  0  0  0
   -0.3290    2.7913    1.3489 H   0  0  0  0  0  0  0  0  0  0  0  0
   -1.4513    1.8198   -2.0077 H   0  0  0  0  0  0  0  0  0  0  0  0
   -1.1158    2.8761   -0.6511 H   0  0  0  0  0  0  0  0  0  0  0  0
    0.6135    3.5812   -0.8608 H   0  0  0  0  0  0  0  0  0  0  0  0
    1.7775    4.0510    0.3676 H   0  0  0  0  0  0  0  0  0  0  0  0
   -3.3766    2.9750   -0.5686 H   0  0  0  0  0  0  0  0  0  0  0  0
   -3.5795    1.2664   -1.0261 H   0  0  0  0  0  0  0  0  0  0  0  0
   -3.1678   -1.4192    1.2810 H   0  0  0  0  0  0  0  0  0  0  0  0
   -0.1361    0.0801    3.0866 H   0  0  0  0  0  0  0  0  0  0  0  0
    0.2810   -0.2088   -2.7533 H   0  0  0  0  0  0  0  0  0  0  0  0
    3.3588    3.7075   -1.6832 H   0  0  0  0  0  0  0  0  0  0  0  0
    2.1119    2.9147   -2.6633 H   0  0  0  0  0  0  0  0  0  0  0  0
    3.6126    2.0633   -2.2410 H   0  0  0  0  0  0  0  0  0  0  0  0
   -4.0057    1.0516    2.6227 H   0  0  0  0  0  0  0  0  0  0  0  0
   -4.7149    0.5691    1.0663 H   0  0  0  0  0  0  0  0  0  0  0  0
   -4.7271    2.2672    1.5751 H   0  0  0  0  0  0  0  0  0  0  0  0
    4.2828   -0.4169   -1.1515 H   0  0  0  0  0  0  0  0  0  0  0  0
    3.2040   -0.3137   -2.5569 H   0  0  0  0  0  0  0  0  0  0  0  0
    3.3417   -1.8330   -1.6789 H   0  0  0  0  0  0  0  0  0  0  0  0
    3.3457   -2.5361    0.6738 H   0  0  0  0  0  0  0  0  0  0  0  0
   -2.7495   -3.4404   -0.4904 H   0  0  0  0  0  0  0  0  0  0  0  0
    0.8421   -1.8992    4.1099 H   0  0  0  0  0  0  0  0  0  0  0  0
   -0.0332   -2.4061   -3.6657 H   0  0  0  0  0  0  0  0  0  0  0  0
    2.6028   -3.1872    2.9385 H   0  0  0  0  0  0  0  0  0  0  0  0
   -1.5632   -4.0296   -2.5902 H   0  0  0  0  0  0  0  0  0  0  0  0
  1  7  1  0  0  0  0
  1 13  1  0  0  0  0
  1 19  1  0  0  0  0
  2  8  1  0  0  0  0
  2 14  1  0  0  0  0
  2 20  1  0  0  0  0
  3  7  1  0  0  0  0
  3 15  1  0  0  0  0
  3 21  1  0  0  0  0
  4  8  1  0  0  0  0
  4 16  1  0  0  0  0
  4 38  1  0  0  0  0
  5  6  1  0  0  0  0
  5  7  1  0  0  0  0
  5  9  1  0  0  0  0
  5 11  1  0  0  0  0
  6  8  1  0  0  0  0
  6 10  1  0  0  0  0
  6 12  1  0  0  0  0
  7 28  1  0  0  0  0
  8 29  1  0  0  0  0
  9 13  1  0  0  0  0
  9 30  1  0  0  0  0
  9 31  1  0  0  0  0
 10 14  1  0  0  0  0
 10 32  1  0  0  0  0
 10 33  1  0  0  0  0
 11 15  1  0  0  0  0
 11 17  2  0  0  0  0
 12 16  1  0  0  0  0
 12 18  2  0  0  0  0
 13 34  1  0  0  0  0
 13 35  1  0  0  0  0
 14 36  1  0  0  0  0
 14 37  1  0  0  0  0
 15 22  2  0  0  0  0
 16 23  2  0  0  0  0
 17 24  1  0  0  0  0
 17 39  1  0  0  0  0
 18 25  1  0  0  0  0
 18 40  1  0  0  0  0
 19 41  1  0  0  0  0
 19 42  1  0  0  0  0
 19 43  1  0  0  0  0
 20 44  1  0  0  0  0
 20 45  1  0  0  0  0
 20 46  1  0  0  0  0
 21 47  1  0  0  0  0
 21 48  1  0  0  0  0
 21 49  1  0  0  0  0
 22 26  1  0  0  0  0
 22 50  1  0  0  0  0
 23 27  1  0  0  0  0
 23 51  1  0  0  0  0
 24 26  2  0  0  0  0
 24 52  1  0  0  0  0
 25 27  2  0  0  0  0
 25 53  1  0  0  0  0
 26 54  1  0  0  0  0
 27 55  1  0  0  0  0
M  END
> <PUBCHEM_COMPOUND_CID>
442031

> <PUBCHEM_CONFORMER_RMSD>
0.6

> <PUBCHEM_CONFORMER_DIVERSEORDER>
2
1

> <PUBCHEM_MMFF94_PARTIAL_CHARGES>
34
1 -0.81
11 -0.14
12 -0.14
13 0.27
14 0.27
15 0.1
16 0.1
17 -0.15
18 -0.15
19 0.27
2 -0.81
20 0.27
21 0.37
22 -0.15
23 -0.15
24 -0.15
25 -0.15
26 -0.15
27 -0.15
3 -0.84
38 0.4
39 0.15
4 -0.87
40 0.15
5 0.14
50 0.15
51 0.15
52 0.15
53 0.15
54 0.15
55 0.15
6 0.14
7 0.64
8 0.64

> <PUBCHEM_EFFECTIVE_ROTOR_COUNT>
2.6

> <PUBCHEM_PHARMACOPHORE_FEATURES>
11
1 1 cation
1 2 cation
1 3 cation
1 4 cation
1 4 donor
5 1 5 7 9 13 rings
5 2 6 8 10 14 rings
5 3 5 7 11 15 rings
5 4 6 8 12 16 rings
6 11 15 17 22 24 26 rings
6 12 16 18 23 25 27 rings

> <PUBCHEM_HEAVY_ATOM_COUNT>
27

> <PUBCHEM_ATOM_DEF_STEREO_COUNT>
4

> <PUBCHEM_ATOM_UDEF_STEREO_COUNT>
0

> <PUBCHEM_BOND_DEF_STEREO_COUNT>
0

> <PUBCHEM_BOND_UDEF_STEREO_COUNT>
0

> <PUBCHEM_ISOTOPIC_ATOM_COUNT>
0

> <PUBCHEM_COMPONENT_COUNT>
1

> <PUBCHEM_CACTVS_TAUTO_COUNT>
1

> <PUBCHEM_CONFORMER_ID>
0006BEAF00000002

> <PUBCHEM_MMFF94_ENERGY>
139.8

> <PUBCHEM_FEATURE_SELFOVERLAP>
56.827

> <PUBCHEM_SHAPE_FINGERPRINT>
10863032 1 18042666347863159765
11578080 2 17412511048760890284
11828532 37 16386849073152447799
121448 382 17696765363127743420
12788726 201 17971211248191400631
133893 2 17486809357185627544
13583140 156 17846491565520174317
14068700 675 17400139219208001258
15664445 248 16814629310303336239
16945 1 18200587111300984364
17980427 26 17988639666731802228
18981168 100 16951415308060232537
20600515 1 17398735232746870815
21421861 104 18052569615193742267
229495 10 17989216953523688093
22956985 138 17615412897859469839
23419403 2 16466060179391529632
25222932 49 17913746355782964747
34934 24 18270124638037097296
465052 167 18270954778301427777
5845 1 15073149161265003351
81228 2 17753934650502427791
9999458 23 17631429276854228653

> <PUBCHEM_SHAPE_MULTIPOLES>
535.72
4.59
3.67
2.82
1.46
0.5
-0.57
0.94
-0.62
-0.27
1.24
-0.89
-1.84
-2.55

> <PUBCHEM_SHAPE_SELFOVERLAP>
1211.924

> <PUBCHEM_SHAPE_VOLUME>
280.4

> <PUBCHEM_COORDINATE_TYPE>
2
5
10

$$$$

