91270
  -OEChem-07051212543D

 70 72  0     1  0  0  0  0  0999 V2000
   -0.6705   -3.8856   -1.0048 O   0  0  0  0  0  0  0  0  0  0  0  0
    3.7575   -4.3407   -0.5504 O   0  0  0  0  0  0  0  0  0  0  0  0
    5.6744    1.9966   -0.4377 O   0  0  0  0  0  0  0  0  0  0  0  0
    4.0370    2.6095    1.7220 O   0  0  0  0  0  0  0  0  0  0  0  0
    2.4514   -3.8182    1.2432 O   0  0  0  0  0  0  0  0  0  0  0  0
   -5.6036   -0.1222    0.5184 O   0  0  0  0  0  0  0  0  0  0  0  0
   -5.0192   -1.5199   -1.2190 O   0  0  0  0  0  0  0  0  0  0  0  0
    0.8279   -2.2866   -0.2085 N   0  0  0  0  0  0  0  0  0  0  0  0
   -2.5706   -1.9419   -0.1692 N   0  0  0  0  0  0  0  0  0  0  0  0
    1.9609   -2.8703   -0.9296 C   0  0  1  0  0  0  0  0  0  0  0  0
    2.8352   -1.8174   -1.6037 C   0  0  0  0  0  0  0  0  0  0  0  0
    1.0982   -1.1573    0.6966 C   0  0  0  0  0  0  0  0  0  0  0  0
    3.1591   -0.6567   -0.7036 C   0  0  0  0  0  0  0  0  0  0  0  0
    2.3218   -0.3401    0.3758 C   0  0  0  0  0  0  0  0  0  0  0  0
   -1.4825   -2.4140    0.6689 C   0  0  2  0  0  0  0  0  0  0  0  0
   -0.4127   -2.9379   -0.2586 C   0  0  0  0  0  0  0  0  0  0  0  0
   -3.4205   -1.0024    0.5527 C   0  0  1  0  0  0  0  0  0  0  0  0
    4.2784    0.1440   -0.9730 C   0  0  0  0  0  0  0  0  0  0  0  0
    2.7213   -3.7117    0.0562 C   0  0  0  0  0  0  0  0  0  0  0  0
    2.6343    0.7618    1.1863 C   0  0  0  0  0  0  0  0  0  0  0  0
   -2.7934    0.3997    0.6149 C   0  0  0  0  0  0  0  0  0  0  0  0
   -1.9469   -3.5177    1.5967 C   0  0  0  0  0  0  0  0  0  0  0  0
    4.5780    1.2372   -0.1612 C   0  0  0  0  0  0  0  0  0  0  0  0
    3.7573    1.5448    0.9199 C   0  0  0  0  0  0  0  0  0  0  0  0
   -2.5536    1.0712   -0.7447 C   0  0  0  0  0  0  0  0  0  0  0  0
   -4.7514   -0.9345   -0.1777 C   0  0  0  0  0  0  0  0  0  0  0  0
   -1.9951    2.4681   -0.6428 C   0  0  0  0  0  0  0  0  0  0  0  0
   -2.8590    3.5612   -0.5724 C   0  0  0  0  0  0  0  0  0  0  0  0
   -0.6147    2.6675   -0.6185 C   0  0  0  0  0  0  0  0  0  0  0  0
    5.4907    3.1044   -1.3172 C   0  0  0  0  0  0  0  0  0  0  0  0
    3.1454    2.8552    2.8079 C   0  0  0  0  0  0  0  0  0  0  0  0
   -6.9089    0.0331   -0.0474 C   0  0  0  0  0  0  0  0  0  0  0  0
   -2.3425    4.8535   -0.4779 C   0  0  0  0  0  0  0  0  0  0  0  0
   -0.0983    3.9599   -0.5239 C   0  0  0  0  0  0  0  0  0  0  0  0
   -0.9624    5.0528   -0.4537 C   0  0  0  0  0  0  0  0  0  0  0  0
   -7.7228    0.9547    0.8358 C   0  0  0  0  0  0  0  0  0  0  0  0
    1.5837   -3.5604   -1.6941 H   0  0  0  0  0  0  0  0  0  0  0  0
    2.2954   -1.4117   -2.4695 H   0  0  0  0  0  0  0  0  0  0  0  0
    3.7610   -2.2669   -1.9817 H   0  0  0  0  0  0  0  0  0  0  0  0
    0.2585   -0.4608    0.6265 H   0  0  0  0  0  0  0  0  0  0  0  0
    1.1628   -1.5496    1.7177 H   0  0  0  0  0  0  0  0  0  0  0  0
   -1.1182   -1.6301    1.3252 H   0  0  0  0  0  0  0  0  0  0  0  0
   -3.6481   -1.3622    1.5628 H   0  0  0  0  0  0  0  0  0  0  0  0
   -3.1209   -2.7410   -0.4852 H   0  0  0  0  0  0  0  0  0  0  0  0
    4.9206   -0.0889   -1.8194 H   0  0  0  0  0  0  0  0  0  0  0  0
    1.9552    0.9567    2.0105 H   0  0  0  0  0  0  0  0  0  0  0  0
   -3.4525    1.0512    1.2055 H   0  0  0  0  0  0  0  0  0  0  0  0
   -1.8548    0.3781    1.1797 H   0  0  0  0  0  0  0  0  0  0  0  0
   -2.4089   -4.3485    1.0499 H   0  0  0  0  0  0  0  0  0  0  0  0
   -1.0960   -3.9371    2.1468 H   0  0  0  0  0  0  0  0  0  0  0  0
   -2.6695   -3.1644    2.3387 H   0  0  0  0  0  0  0  0  0  0  0  0
   -3.4864    1.1136   -1.3207 H   0  0  0  0  0  0  0  0  0  0  0  0
   -1.8673    0.4614   -1.3462 H   0  0  0  0  0  0  0  0  0  0  0  0
    4.2687   -4.8940    0.0779 H   0  0  0  0  0  0  0  0  0  0  0  0
   -3.9363    3.4182   -0.5878 H   0  0  0  0  0  0  0  0  0  0  0  0
    0.0682    1.8247   -0.6745 H   0  0  0  0  0  0  0  0  0  0  0  0
    5.1604    2.7605   -2.3025 H   0  0  0  0  0  0  0  0  0  0  0  0
    6.4505    3.6161   -1.4289 H   0  0  0  0  0  0  0  0  0  0  0  0
    4.7639    3.8099   -0.9023 H   0  0  0  0  0  0  0  0  0  0  0  0
    3.1442    2.0274    3.5253 H   0  0  0  0  0  0  0  0  0  0  0  0
    2.1387    3.1041    2.4549 H   0  0  0  0  0  0  0  0  0  0  0  0
    3.5212    3.7354    3.3400 H   0  0  0  0  0  0  0  0  0  0  0  0
   -7.3978   -0.9453   -0.1120 H   0  0  0  0  0  0  0  0  0  0  0  0
   -6.8221    0.4639   -1.0511 H   0  0  0  0  0  0  0  0  0  0  0  0
   -3.0151    5.7044   -0.4224 H   0  0  0  0  0  0  0  0  0  0  0  0
    0.9767    4.1146   -0.5041 H   0  0  0  0  0  0  0  0  0  0  0  0
   -0.5601    6.0589   -0.3796 H   0  0  0  0  0  0  0  0  0  0  0  0
   -7.8029    0.5462    1.8486 H   0  0  0  0  0  0  0  0  0  0  0  0
   -7.2361    1.9316    0.9247 H   0  0  0  0  0  0  0  0  0  0  0  0
   -8.7288    1.0965    0.4314 H   0  0  0  0  0  0  0  0  0  0  0  0
  1 16  2  0  0  0  0
  2 19  1  0  0  0  0
  2 54  1  0  0  0  0
  3 23  1  0  0  0  0
  3 30  1  0  0  0  0
  4 24  1  0  0  0  0
  4 31  1  0  0  0  0
  5 19  2  0  0  0  0
  6 26  1  0  0  0  0
  6 32  1  0  0  0  0
  7 26  2  0  0  0  0
  8 10  1  0  0  0  0
  8 12  1  0  0  0  0
  8 16  1  0  0  0  0
  9 15  1  0  0  0  0
  9 17  1  0  0  0  0
  9 44  1  0  0  0  0
 10 11  1  0  0  0  0
 10 19  1  0  0  0  0
 10 37  1  0  0  0  0
 11 13  1  0  0  0  0
 11 38  1  0  0  0  0
 11 39  1  0  0  0  0
 12 14  1  0  0  0  0
 12 40  1  0  0  0  0
 12 41  1  0  0  0  0
 13 14  1  0  0  0  0
 13 18  2  0  0  0  0
 14 20  2  0  0  0  0
 15 16  1  0  0  0  0
 15 22  1  0  0  0  0
 15 42  1  0  0  0  0
 17 21  1  0  0  0  0
 17 26  1  0  0  0  0
 17 43  1  0  0  0  0
 18 23  1  0  0  0  0
 18 45  1  0  0  0  0
 20 24  1  0  0  0  0
 20 46  1  0  0  0  0
 21 25  1  0  0  0  0
 21 47  1  0  0  0  0
 21 48  1  0  0  0  0
 22 49  1  0  0  0  0
 22 50  1  0  0  0  0
 22 51  1  0  0  0  0
 23 24  2  0  0  0  0
 25 27  1  0  0  0  0
 25 52  1  0  0  0  0
 25 53  1  0  0  0  0
 27 28  2  0  0  0  0
 27 29  1  0  0  0  0
 28 33  1  0  0  0  0
 28 55  1  0  0  0  0
 29 34  2  0  0  0  0
 29 56  1  0  0  0  0
 30 57  1  0  0  0  0
 30 58  1  0  0  0  0
 30 59  1  0  0  0  0
 31 60  1  0  0  0  0
 31 61  1  0  0  0  0
 31 62  1  0  0  0  0
 32 36  1  0  0  0  0
 32 63  1  0  0  0  0
 32 64  1  0  0  0  0
 33 35  2  0  0  0  0
 33 65  1  0  0  0  0
 34 35  1  0  0  0  0
 34 66  1  0  0  0  0
 35 67  1  0  0  0  0
 36 68  1  0  0  0  0
 36 69  1  0  0  0  0
 36 70  1  0  0  0  0
M  END
> <PUBCHEM_COMPOUND_CID>
91270

> <PUBCHEM_CONFORMER_RMSD>
1.2

> <PUBCHEM_CONFORMER_DIVERSEORDER>
2
32
39
29
4
41
22
44
33
28
3
38
30
10
43
7
45
25
36
12
11
20
8
26
37
40
42
14
6
18
15
19
5
21
46
23
24
9
16
13
35
1
31
17
34
27

> <PUBCHEM_MMFF94_PARTIAL_CHARGES>
42
1 -0.57
10 0.36
11 0.14
12 0.44
13 -0.14
14 -0.14
15 0.33
16 0.57
17 0.33
18 -0.15
19 0.66
2 -0.65
20 -0.15
23 0.08
24 0.08
25 0.14
26 0.66
27 -0.14
28 -0.15
29 -0.15
3 -0.36
30 0.28
31 0.28
32 0.28
33 -0.15
34 -0.15
35 -0.15
4 -0.36
44 0.36
45 0.15
46 0.15
5 -0.57
54 0.5
55 0.15
56 0.15
6 -0.43
65 0.15
66 0.15
67 0.15
7 -0.57
8 -0.66
9 -0.9

> <PUBCHEM_EFFECTIVE_ROTOR_COUNT>
13.8

> <PUBCHEM_PHARMACOPHORE_FEATURES>
12
1 1 acceptor
1 2 acceptor
1 3 acceptor
1 4 acceptor
1 5 acceptor
1 7 acceptor
1 9 cation
1 9 donor
3 2 5 19 anion
6 13 14 18 20 23 24 rings
6 27 28 29 33 34 35 rings
6 8 10 11 12 13 14 rings

> <PUBCHEM_HEAVY_ATOM_COUNT>
36

> <PUBCHEM_ATOM_DEF_STEREO_COUNT>
3

> <PUBCHEM_ATOM_UDEF_STEREO_COUNT>
0

> <PUBCHEM_BOND_DEF_STEREO_COUNT>
0

> <PUBCHEM_BOND_UDEF_STEREO_COUNT>
0

> <PUBCHEM_ISOTOPIC_ATOM_COUNT>
0

> <PUBCHEM_COMPONENT_COUNT>
1

> <PUBCHEM_CACTVS_TAUTO_COUNT>
1

> <PUBCHEM_CONFORMER_ID>
0001648600000002

> <PUBCHEM_MMFF94_ENERGY>
103.3052

> <PUBCHEM_FEATURE_SELFOVERLAP>
60.974

> <PUBCHEM_SHAPE_FINGERPRINT>
10006869 2 18339932614178598999
10864689 126 18266449907085195628
10906281 52 18270673174122321777
12107698 1 18127409175450401643
13165053 371 18334295380157996089
13402501 40 18336546027753965136
13560911 43 18269834392442113938
1361 2 18337113337568469529
13617811 41 18343295955950537973
14020679 6 17773878585029407851
140371 6 18342167831081531565
14092694 8 17750246966139502215
14117953 113 18410855421648114637
14394314 77 18339634552207554965
14725015 67 18268998768084477219
14840074 17 18187366519902672061
15264996 19 17315328527407415145
15276724 80 18265612259981968141
15297060 5 18193540191466649280
15320467 1 18411978027146268429
19611394 137 17698993003708587739
20764821 26 18123469642098391752
21033648 29 17754179687202946536
22113638 7 18122067507433408653
23536364 44 17826771927734445782
24771293 8 18262525784634636161
463206 1 18126280831596508349
469060 322 17980458093077428795
6004065 56 18266466413102287125
7399639 24 18263097568803210896

> <PUBCHEM_SHAPE_MULTIPOLES>
689.82
12.91
7.2
1.48
14.02
2.25
-0.74
3.69
-0.26
-2.21
0.66
-1.39
0.42
1.49

> <PUBCHEM_SHAPE_SELFOVERLAP>
1447.483

> <PUBCHEM_SHAPE_VOLUME>
388.1

> <PUBCHEM_COORDINATE_TYPE>
2
5
10

$$$$

