440722
  -OEChem-07051212503D

 49 48  0     1  0  0  0  0  0999 V2000
   -1.7619   -3.3398    0.0700 S   0  0  0  0  0  0  0  0  0  0  0  0
   -1.9619   -0.0014   -1.6701 O   0  0  0  0  0  0  0  0  0  0  0  0
   -5.4084   -1.4362    0.3839 O   0  0  0  0  0  0  0  0  0  0  0  0
    1.5871   -0.1502    1.4982 O   0  0  0  0  0  0  0  0  0  0  0  0
   -6.6961   -0.2171   -1.0120 O   0  0  0  0  0  0  0  0  0  0  0  0
    6.2863    2.0780   -0.9564 O   0  0  0  0  0  0  0  0  0  0  0  0
    6.8354    1.4895    1.1684 O   0  0  0  0  0  0  0  0  0  0  0  0
   -3.3193    0.1329    0.2067 N   0  0  0  0  0  0  0  0  0  0  0  0
    0.1928   -0.7638   -0.2527 N   0  0  0  0  0  0  0  0  0  0  0  0
    6.8541   -1.1650    0.5368 N   0  0  0  0  0  0  0  0  0  0  0  0
   -4.8461    2.0374    0.0962 C   0  0  0  0  0  0  0  0  0  0  0  0
   -4.4913    0.6437   -0.4652 C   0  0  2  0  0  0  0  0  0  0  0  0
   -1.0450   -0.6507    0.4810 C   0  0  1  0  0  0  0  0  0  0  0  0
    3.9278   -0.4023   -0.0256 C   0  0  0  0  0  0  0  0  0  0  0  0
    5.0534   -0.5617   -1.0561 C   0  0  0  0  0  0  0  0  0  0  0  0
    2.5634   -0.6900   -0.6511 C   0  0  0  0  0  0  0  0  0  0  0  0
   -2.1369   -0.1503   -0.4624 C   0  0  0  0  0  0  0  0  0  0  0  0
   -5.3273    1.9978    1.5499 C   0  0  0  0  0  0  0  0  0  0  0  0
   -3.6920    3.0325   -0.0526 C   0  0  0  0  0  0  0  0  0  0  0  0
    6.4568   -0.2386   -0.5222 C   0  0  1  0  0  0  0  0  0  0  0  0
    1.4225   -0.4986    0.3320 C   0  0  0  0  0  0  0  0  0  0  0  0
   -1.4098   -1.9526    1.1987 C   0  0  0  0  0  0  0  0  0  0  0  0
   -5.6342   -0.3664   -0.4178 C   0  0  0  0  0  0  0  0  0  0  0  0
    6.5505    1.1728    0.0223 C   0  0  0  0  0  0  0  0  0  0  0  0
   -5.6853    2.4212   -0.5002 H   0  0  0  0  0  0  0  0  0  0  0  0
   -4.2522    0.7506   -1.5309 H   0  0  0  0  0  0  0  0  0  0  0  0
   -0.9086    0.1279    1.2434 H   0  0  0  0  0  0  0  0  0  0  0  0
    3.9289    0.6165    0.3797 H   0  0  0  0  0  0  0  0  0  0  0  0
    4.0913   -1.0805    0.8204 H   0  0  0  0  0  0  0  0  0  0  0  0
   -3.3824   -0.0417    1.2047 H   0  0  0  0  0  0  0  0  0  0  0  0
    5.0431   -1.5885   -1.4448 H   0  0  0  0  0  0  0  0  0  0  0  0
    4.8402    0.0905   -1.9130 H   0  0  0  0  0  0  0  0  0  0  0  0
    2.5306   -1.7223   -1.0193 H   0  0  0  0  0  0  0  0  0  0  0  0
    2.3931   -0.0213   -1.5034 H   0  0  0  0  0  0  0  0  0  0  0  0
   -6.1919    1.3367    1.6660 H   0  0  0  0  0  0  0  0  0  0  0  0
   -5.6336    2.9969    1.8788 H   0  0  0  0  0  0  0  0  0  0  0  0
   -4.5403    1.6534    2.2284 H   0  0  0  0  0  0  0  0  0  0  0  0
   -3.3428    3.0716   -1.0898 H   0  0  0  0  0  0  0  0  0  0  0  0
   -4.0168    4.0408    0.2265 H   0  0  0  0  0  0  0  0  0  0  0  0
   -2.8419    2.7709    0.5862 H   0  0  0  0  0  0  0  0  0  0  0  0
    0.1570   -1.0676   -1.2219 H   0  0  0  0  0  0  0  0  0  0  0  0
    7.1853   -0.3282   -1.3368 H   0  0  0  0  0  0  0  0  0  0  0  0
   -0.5879   -2.2640    1.8527 H   0  0  0  0  0  0  0  0  0  0  0  0
   -2.2916   -1.8184    1.8325 H   0  0  0  0  0  0  0  0  0  0  0  0
    6.8096   -2.1219    0.1885 H   0  0  0  0  0  0  0  0  0  0  0  0
    7.8278   -0.9996    0.7895 H   0  0  0  0  0  0  0  0  0  0  0  0
   -0.5588   -3.3630   -0.5224 H   0  0  0  0  0  0  0  0  0  0  0  0
   -6.1755   -2.0470    0.4047 H   0  0  0  0  0  0  0  0  0  0  0  0
    6.3471    3.0001   -0.6271 H   0  0  0  0  0  0  0  0  0  0  0  0
  1 22  1  0  0  0  0
  1 47  1  0  0  0  0
  2 17  2  0  0  0  0
  3 23  1  0  0  0  0
  3 48  1  0  0  0  0
  4 21  2  0  0  0  0
  5 23  2  0  0  0  0
  6 24  1  0  0  0  0
  6 49  1  0  0  0  0
  7 24  2  0  0  0  0
  8 12  1  0  0  0  0
  8 17  1  0  0  0  0
  8 30  1  0  0  0  0
  9 13  1  0  0  0  0
  9 21  1  0  0  0  0
  9 41  1  0  0  0  0
 10 20  1  0  0  0  0
 10 45  1  0  0  0  0
 10 46  1  0  0  0  0
 11 12  1  0  0  0  0
 11 18  1  0  0  0  0
 11 19  1  0  0  0  0
 11 25  1  0  0  0  0
 12 23  1  0  0  0  0
 12 26  1  0  0  0  0
 13 17  1  0  0  0  0
 13 22  1  0  0  0  0
 13 27  1  0  0  0  0
 14 15  1  0  0  0  0
 14 16  1  0  0  0  0
 14 28  1  0  0  0  0
 14 29  1  0  0  0  0
 15 20  1  0  0  0  0
 15 31  1  0  0  0  0
 15 32  1  0  0  0  0
 16 21  1  0  0  0  0
 16 33  1  0  0  0  0
 16 34  1  0  0  0  0
 18 35  1  0  0  0  0
 18 36  1  0  0  0  0
 18 37  1  0  0  0  0
 19 38  1  0  0  0  0
 19 39  1  0  0  0  0
 19 40  1  0  0  0  0
 20 24  1  0  0  0  0
 20 42  1  0  0  0  0
 22 43  1  0  0  0  0
 22 44  1  0  0  0  0
M  END
> <PUBCHEM_COMPOUND_CID>
440722

> <PUBCHEM_CONFORMER_RMSD>
1

> <PUBCHEM_CONFORMER_DIVERSEORDER>
1
136
168
64
173
164
48
26
76
102
63
190
111
175
115
106
27
167
162
129
61
33
50
113
155
120
99
130
74
93
158
139
67
156
49
137
60
174
53
172
169
179
35
183
145
24
95
55
151
69
176
105
186
126
103
19
4
62
148
57
161
11
125
58
78
180
110
59
9
133
141
77
17
20
177
107
160
36
112
122
28
116
13
15
140
171
100
82
182
32
70
144
71
131
149
10
185
123
109
117
127
75
5
21
194
85
31
46
134
132
143
94
154
81
189
138
142
96
40
41
165
14
166
192
18
184
150
159
97
91
188
66
86
84
108
73
43
65
187
191
121
92
54
72
68
6
114
30
8
89
87
45
181
47
119
38
146
153
98
88
193
44
163
101
3
128
51
135
16
152
12
39
90
80
29
118
25
157
2
83
170
147
79
178
7
56
124
104
52
37
42
34
22
23

> <PUBCHEM_MMFF94_PARTIAL_CHARGES>
26
1 -0.41
10 -0.99
12 0.36
13 0.36
16 0.06
17 0.57
2 -0.57
20 0.33
21 0.57
22 0.23
23 0.66
24 0.66
3 -0.65
30 0.37
4 -0.57
41 0.37
45 0.36
46 0.36
47 0.18
48 0.5
49 0.5
5 -0.57
6 -0.65
7 -0.57
8 -0.73
9 -0.73

> <PUBCHEM_EFFECTIVE_ROTOR_COUNT>
13

> <PUBCHEM_PHARMACOPHORE_FEATURES>
13
1 10 cation
1 10 donor
1 2 acceptor
1 3 acceptor
1 4 acceptor
1 5 acceptor
1 6 acceptor
1 7 acceptor
1 8 donor
1 9 donor
3 11 18 19 hydrophobe
3 3 5 23 anion
3 6 7 24 anion

> <PUBCHEM_HEAVY_ATOM_COUNT>
24

> <PUBCHEM_ATOM_DEF_STEREO_COUNT>
2

> <PUBCHEM_ATOM_UDEF_STEREO_COUNT>
1

> <PUBCHEM_BOND_DEF_STEREO_COUNT>
0

> <PUBCHEM_BOND_UDEF_STEREO_COUNT>
0

> <PUBCHEM_ISOTOPIC_ATOM_COUNT>
0

> <PUBCHEM_COMPONENT_COUNT>
1

> <PUBCHEM_CACTVS_TAUTO_COUNT>
4

> <PUBCHEM_CONFORMER_ID>
0006B99200000001

> <PUBCHEM_MMFF94_ENERGY>
33.6908

> <PUBCHEM_FEATURE_SELFOVERLAP>
66.087

> <PUBCHEM_SHAPE_FINGERPRINT>
10 15 15051727578232036926
11315181 36 18273492369412571413
12616971 3 16200430235449094846
13167372 99 18411135879382038516
13533116 47 18059578061782308322
14251752 14 17894352202527530310
14556957 393 15068612760909175032
15183329 4 18412823607960185704
15348495 7 11815600970126959860
20281389 69 18131071554166420956
21150785 3 16588306055874635348
21315763 28 18410013252007926614
22224240 67 17989199378817660475
23198884 109 18410292518859828547
23559900 14 18262806146570868795
2916195 48 18410293631382880812
34797466 226 6627466337839143426
4073 2 18130784500655258826
465052 167 11743836976644557688

> <PUBCHEM_SHAPE_MULTIPOLES>
447.6
20.18
2.68
1.18
23.89
0.03
-0.12
-9.08
0.86
-2.61
-0.46
-0.17
-0.12
-0.4

> <PUBCHEM_SHAPE_SELFOVERLAP>
862.118

> <PUBCHEM_SHAPE_VOLUME>
273.1

> <PUBCHEM_COORDINATE_TYPE>
2
5
10

$$$$

