46173721
  -OEChem-07051212483D

 33 34  0     1  0  0  0  0  0999 V2000
    3.7134    1.0874   -0.0075 P   0  0  0  0  0  0  0  0  0  0  0  0
   -0.0449   -0.6987    1.1295 O   0  0  0  0  0  0  0  0  0  0  0  0
   -0.3158   -3.6494    0.4979 O   0  0  0  0  0  0  0  0  0  0  0  0
   -2.2059   -2.4881   -1.1306 O   0  0  0  0  0  0  0  0  0  0  0  0
    2.5911    0.0937    0.6046 O   0  0  0  0  0  0  0  0  0  0  0  0
    2.9345    1.8607   -1.1952 O   0  0  0  0  0  0  0  0  0  0  0  0
    4.6953    0.0778   -0.8023 O   0  0  0  0  0  0  0  0  0  0  0  0
    4.3922    1.9720    0.9970 O   0  0  0  0  0  0  0  0  0  0  0  0
   -2.0459    0.4001    0.2656 N   0  3  0  0  0  0  0  0  0  0  0  0
   -4.1070    1.5873    0.1306 N   0  0  0  0  0  0  0  0  0  0  0  0
    0.1023   -2.5668   -0.3322 C   0  0  1  0  0  0  0  0  0  0  0  0
   -1.0881   -1.7189   -0.7339 C   0  0  2  0  0  0  0  0  0  0  0  0
    0.9092   -1.6009    0.5261 C   0  0  1  0  0  0  0  0  0  0  0  0
   -1.3417   -0.9089    0.5334 C   0  0  1  0  0  0  0  0  0  0  0  0
    1.9033   -0.7749   -0.2786 C   0  0  0  0  0  0  0  0  0  0  0  0
   -1.3381    1.4910   -0.0578 C   0  0  0  0  0  0  0  0  0  0  0  0
   -3.3801    0.4737    0.3496 C   0  0  0  0  0  0  0  0  0  0  0  0
   -1.9959    2.6860   -0.3022 C   0  0  0  0  0  0  0  0  0  0  0  0
   -3.3779    2.6767   -0.1940 C   0  0  0  0  0  0  0  0  0  0  0  0
    0.6440   -2.9866   -1.1846 H   0  0  0  0  0  0  0  0  0  0  0  0
   -0.8184   -1.0524   -1.5615 H   0  0  0  0  0  0  0  0  0  0  0  0
    1.4276   -2.1050    1.3496 H   0  0  0  0  0  0  0  0  0  0  0  0
   -1.9590   -1.4535    1.2586 H   0  0  0  0  0  0  0  0  0  0  0  0
    1.3915   -0.1724   -1.0348 H   0  0  0  0  0  0  0  0  0  0  0  0
    2.6217   -1.4339   -0.7759 H   0  0  0  0  0  0  0  0  0  0  0  0
    0.4819   -4.1409    0.7583 H   0  0  0  0  0  0  0  0  0  0  0  0
   -1.9247   -3.0487   -1.8736 H   0  0  0  0  0  0  0  0  0  0  0  0
   -0.2624    1.4035   -0.1290 H   0  0  0  0  0  0  0  0  0  0  0  0
   -3.9201   -0.4288    0.6078 H   0  0  0  0  0  0  0  0  0  0  0  0
   -1.4546    3.5854   -0.5682 H   0  0  0  0  0  0  0  0  0  0  0  0
   -3.9528    3.5795   -0.3733 H   0  0  0  0  0  0  0  0  0  0  0  0
    5.5223    0.4307   -1.1944 H   0  0  0  0  0  0  0  0  0  0  0  0
    3.3976    2.5779   -1.6782 H   0  0  0  0  0  0  0  0  0  0  0  0
  1  5  1  0  0  0  0
  1  6  1  0  0  0  0
  1  7  1  0  0  0  0
  1  8  2  0  0  0  0
  2 13  1  0  0  0  0
  2 14  1  0  0  0  0
  3 11  1  0  0  0  0
  3 26  1  0  0  0  0
  4 12  1  0  0  0  0
  4 27  1  0  0  0  0
  5 15  1  0  0  0  0
  6 33  1  0  0  0  0
  7 32  1  0  0  0  0
  9 14  1  0  0  0  0
  9 16  2  0  0  0  0
  9 17  1  0  0  0  0
 10 17  2  0  0  0  0
 10 19  1  0  0  0  0
 11 12  1  0  0  0  0
 11 13  1  0  0  0  0
 11 20  1  0  0  0  0
 12 14  1  0  0  0  0
 12 21  1  0  0  0  0
 13 15  1  0  0  0  0
 13 22  1  0  0  0  0
 14 23  1  0  0  0  0
 15 24  1  0  0  0  0
 15 25  1  0  0  0  0
 16 18  1  0  0  0  0
 16 28  1  0  0  0  0
 17 29  1  0  0  0  0
 18 19  2  0  0  0  0
 18 30  1  0  0  0  0
 19 31  1  0  0  0  0
M  CHG  1   9   1
M  END
> <PUBCHEM_COMPOUND_CID>
46173721

> <PUBCHEM_CONFORMER_RMSD>
0.8

> <PUBCHEM_CONFORMER_DIVERSEORDER>
1
42
44
22
33
31
4
24
14
17
35
23
26
16
9
34
38
36
25
28
37
10
32
19
40
2
41
5
12
20
27
43
13
29
3
30
21
39
8
7
15
18
11
6

> <PUBCHEM_MMFF94_PARTIAL_CHARGES>
27
1 1.51
10 -0.62
11 0.28
12 0.28
13 0.28
14 0.77
15 0.28
16 0.21
17 0.52
18 -0.15
19 0.16
2 -0.56
26 0.4
27 0.4
28 0.15
29 0.15
3 -0.68
30 0.15
31 0.15
32 0.5
33 0.5
4 -0.68
5 -0.55
6 -0.77
7 -0.77
8 -0.7
9 -0.21

> <PUBCHEM_EFFECTIVE_ROTOR_COUNT>
5

> <PUBCHEM_PHARMACOPHORE_FEATURES>
12
1 2 acceptor
1 3 acceptor
1 3 donor
1 4 acceptor
1 4 donor
1 6 acceptor
1 7 acceptor
1 8 acceptor
3 9 10 17 cation
4 1 6 7 8 anion
5 2 11 12 13 14 rings
6 9 10 16 17 18 19 rings

> <PUBCHEM_HEAVY_ATOM_COUNT>
19

> <PUBCHEM_ATOM_DEF_STEREO_COUNT>
4

> <PUBCHEM_ATOM_UDEF_STEREO_COUNT>
0

> <PUBCHEM_BOND_DEF_STEREO_COUNT>
0

> <PUBCHEM_BOND_UDEF_STEREO_COUNT>
0

> <PUBCHEM_ISOTOPIC_ATOM_COUNT>
0

> <PUBCHEM_COMPONENT_COUNT>
1

> <PUBCHEM_CACTVS_TAUTO_COUNT>
1

> <PUBCHEM_CONFORMER_ID>
02C08E1900000001

> <PUBCHEM_MMFF94_ENERGY>
17.5573

> <PUBCHEM_FEATURE_SELFOVERLAP>
60.939

> <PUBCHEM_SHAPE_FINGERPRINT>
10498660 4 18410579517391497669
10608611 8 17837210746673176177
10670039 82 17693368950868502580
10871710 139 18124025732952099013
11833330 49 17978237049582227379
12035759 4 18265636332951551911
12173636 292 18410016498549632350
13134695 92 17189263123901979343
14026960 21 18269268122705312449
14123255 52 18410014372503903744
14250199 8 17761216918219308461
14648413 74 17691123060390485849
15534591 1 18411982451025652706
17134986 127 18265335190781730030
17834072 32 18409728473937939448
1798214 55 18410856602822136336
20645477 56 18262232223382246496
20671657 1 18121501512063454514
21524375 3 18340203106475384954
21864079 5 17986379015349521628
22620623 9 17241337863062214247
23227448 37 18263085435314689268
23402539 116 18046356240198466238
23419403 2 17030443922199602391
23557571 272 18043527214561051480
23558518 356 18271246028202392794
23559900 14 17762910161909945275
238 59 17480054172218981277
43658 37 18337398256745350877
474 4 18269833293030472017
5939293 188 17259631863536398737
7364860 26 17978228592849318827
7808743 9 18268709412238689728
81228 2 17975704895809762611

> <PUBCHEM_SHAPE_MULTIPOLES>
343.81
7.31
3.76
0.94
4.77
1.55
0.05
-7
0.22
-1.19
0.36
0.34
0.08
-0.09

> <PUBCHEM_SHAPE_SELFOVERLAP>
700.204

> <PUBCHEM_SHAPE_VOLUME>
201.3

> <PUBCHEM_COORDINATE_TYPE>
2
5
10

$$$$

