197044
  -OEChem-07051213002D

 92 94  0     0  0  0  0  0  0999 V2000
    8.8533    1.2568    0.0000 O   0  0  0  0  0  0  0  0  0  0  0  0
    3.8660   -0.5584    0.0000 O   0  0  0  0  0  0  0  0  0  0  0  0
   10.5853   -1.7432    0.0000 O   0  0  0  0  0  0  0  0  0  0  0  0
    5.5981    2.4416    0.0000 O   0  0  0  0  0  0  0  0  0  0  0  0
   12.3174    1.2568    0.0000 O   0  0  0  0  0  0  0  0  0  0  0  0
    2.1340    2.4417    0.0000 O   0  0  0  0  0  0  0  0  0  0  0  0
    7.5677    0.7889    0.0000 O   0  0  0  0  0  0  0  0  0  0  0  0
    5.2560   -2.0301    0.0000 O   0  0  0  0  0  0  0  0  0  0  0  0
    8.1692   -2.6225    0.0000 O   0  0  0  0  0  0  0  0  0  0  0  0
   12.3174   -1.7432    0.0000 O   0  0  0  0  0  0  0  0  0  0  0  0
    4.7320    3.9416    0.0000 O   0  0  0  0  0  0  0  0  0  0  0  0
    5.2148   -3.1435    0.0000 O   0  0  0  0  0  0  0  0  0  0  0  0
   10.5853    1.2568    0.0000 C   0  0  0  0  0  0  0  0  0  0  0  0
    3.0000    0.9417    0.0000 C   0  0  0  0  0  0  0  0  0  0  0  0
    9.7193   -0.2432    0.0000 C   0  0  0  0  0  0  0  0  0  0  0  0
    4.7321    0.9417    0.0000 C   0  0  0  0  0  0  0  0  0  0  0  0
    9.7193    0.7568    0.0000 C   0  0  0  0  0  0  0  0  0  0  0  0
    3.8660    0.4416    0.0000 C   0  0  0  0  0  0  0  0  0  0  0  0
    8.8533   -0.7432    0.0000 C   0  0  0  0  0  0  0  0  0  0  0  0
    5.5981    0.4416    0.0000 C   0  0  0  0  0  0  0  0  0  0  0  0
   11.4513    0.7568    0.0000 C   0  0  0  0  0  0  0  0  0  0  0  0
    3.0000    1.9417    0.0000 C   0  0  0  0  0  0  0  0  0  0  0  0
    7.8684   -0.9168    0.0000 C   0  0  0  0  0  0  0  0  0  0  0  0
    6.2409   -0.3244    0.0000 C   0  0  0  0  0  0  0  0  0  0  0  0
   11.4513   -0.2432    0.0000 C   0  0  0  0  0  0  0  0  0  0  0  0
    3.8660    2.4416    0.0000 C   0  0  0  0  0  0  0  0  0  0  0  0
   10.5853   -0.7432    0.0000 C   0  0  0  0  0  0  0  0  0  0  0  0
    4.7320    1.9416    0.0000 C   0  0  0  0  0  0  0  0  0  0  0  0
   11.0853    2.1228    0.0000 C   0  0  0  0  0  0  0  0  0  0  0  0
   10.0853    2.1228    0.0000 C   0  0  0  0  0  0  0  0  0  0  0  0
    2.0000    0.9417    0.0000 C   0  0  0  0  0  0  0  0  0  0  0  0
    2.5000    0.0756    0.0000 C   0  0  0  0  0  0  0  0  0  0  0  0
    7.2257   -0.1508    0.0000 C   0  0  0  0  0  0  0  0  0  0  0  0
    5.8988   -1.2641    0.0000 C   0  0  0  0  0  0  0  0  0  0  0  0
    7.5264   -1.8564    0.0000 C   0  0  0  0  0  0  0  0  0  0  0  0
    6.5416   -2.0302    0.0000 C   0  0  0  0  0  0  0  0  0  0  0  0
   12.3174   -0.7432    0.0000 C   0  0  0  0  0  0  0  0  0  0  0  0
    3.8660    3.4416    0.0000 C   0  0  0  0  0  0  0  0  0  0  0  0
   13.1834   -0.2432    0.0000 C   0  0  0  0  0  0  0  0  0  0  0  0
    3.0000    3.9416    0.0000 C   0  0  0  0  0  0  0  0  0  0  0  0
    6.1995   -2.9698    0.0000 C   0  0  0  0  0  0  0  0  0  0  0  0
    6.8423   -3.7359    0.0000 C   0  0  0  0  0  0  0  0  0  0  0  0
   14.0494   -0.7432    0.0000 C   0  0  0  0  0  0  0  0  0  0  0  0
    3.0000    4.9416    0.0000 C   0  0  0  0  0  0  0  0  0  0  0  0
    6.5003   -4.6756    0.0000 C   0  0  0  0  0  0  0  0  0  0  0  0
   14.9154   -0.2432    0.0000 C   0  0  0  0  0  0  0  0  0  0  0  0
    2.1340    5.4416    0.0000 C   0  0  0  0  0  0  0  0  0  0  0  0
    7.1431   -5.4416    0.0000 C   0  0  0  0  0  0  0  0  0  0  0  0
    8.7103   -1.3465    0.0000 H   0  0  0  0  0  0  0  0  0  0  0  0
    8.6412   -0.1606    0.0000 H   0  0  0  0  0  0  0  0  0  0  0  0
    6.1920    0.6194    0.0000 H   0  0  0  0  0  0  0  0  0  0  0  0
    5.1995   -0.0333    0.0000 H   0  0  0  0  0  0  0  0  0  0  0  0
   11.6222    1.8128    0.0000 H   0  0  0  0  0  0  0  0  0  0  0  0
   11.3953    2.6598    0.0000 H   0  0  0  0  0  0  0  0  0  0  0  0
   10.5484    2.4328    0.0000 H   0  0  0  0  0  0  0  0  0  0  0  0
   10.6222    2.4328    0.0000 H   0  0  0  0  0  0  0  0  0  0  0  0
    9.7753    2.6598    0.0000 H   0  0  0  0  0  0  0  0  0  0  0  0
    9.5484    1.8128    0.0000 H   0  0  0  0  0  0  0  0  0  0  0  0
    2.0000    1.5616    0.0000 H   0  0  0  0  0  0  0  0  0  0  0  0
    1.3800    0.9416    0.0000 H   0  0  0  0  0  0  0  0  0  0  0  0
    2.0000    0.3217    0.0000 H   0  0  0  0  0  0  0  0  0  0  0  0
    1.9631    0.3856    0.0000 H   0  0  0  0  0  0  0  0  0  0  0  0
    2.1900   -0.4613    0.0000 H   0  0  0  0  0  0  0  0  0  0  0  0
    3.0369   -0.2344    0.0000 H   0  0  0  0  0  0  0  0  0  0  0  0
    8.3163    0.9468    0.0000 H   0  0  0  0  0  0  0  0  0  0  0  0
    3.3291   -0.8684    0.0000 H   0  0  0  0  0  0  0  0  0  0  0  0
   13.5819    0.2318    0.0000 H   0  0  0  0  0  0  0  0  0  0  0  0
   12.7849    0.2318    0.0000 H   0  0  0  0  0  0  0  0  0  0  0  0
    2.3894    4.0493    0.0000 H   0  0  0  0  0  0  0  0  0  0  0  0
    2.7879    3.3590    0.0000 H   0  0  0  0  0  0  0  0  0  0  0  0
   11.1222   -2.0532    0.0000 H   0  0  0  0  0  0  0  0  0  0  0  0
    5.5981    3.0616    0.0000 H   0  0  0  0  0  0  0  0  0  0  0  0
    7.3793   -4.0459    0.0000 H   0  0  0  0  0  0  0  0  0  0  0  0
    7.2409   -3.2609    0.0000 H   0  0  0  0  0  0  0  0  0  0  0  0
    7.1692    1.2639    0.0000 H   0  0  0  0  0  0  0  0  0  0  0  0
   13.6509   -1.2181    0.0000 H   0  0  0  0  0  0  0  0  0  0  0  0
   14.4479   -1.2181    0.0000 H   0  0  0  0  0  0  0  0  0  0  0  0
    3.6106    4.8340    0.0000 H   0  0  0  0  0  0  0  0  0  0  0  0
    3.2120    5.5242    0.0000 H   0  0  0  0  0  0  0  0  0  0  0  0
    4.6455   -1.9225    0.0000 H   0  0  0  0  0  0  0  0  0  0  0  0
    8.7798   -2.5149    0.0000 H   0  0  0  0  0  0  0  0  0  0  0  0
    5.9634   -4.3656    0.0000 H   0  0  0  0  0  0  0  0  0  0  0  0
    6.1018   -5.1505    0.0000 H   0  0  0  0  0  0  0  0  0  0  0  0
   15.2254   -0.7801    0.0000 H   0  0  0  0  0  0  0  0  0  0  0  0
   15.4524    0.0668    0.0000 H   0  0  0  0  0  0  0  0  0  0  0  0
   14.6054    0.2938    0.0000 H   0  0  0  0  0  0  0  0  0  0  0  0
    2.4440    5.9786    0.0000 H   0  0  0  0  0  0  0  0  0  0  0  0
    1.5970    5.7516    0.0000 H   0  0  0  0  0  0  0  0  0  0  0  0
    1.8240    4.9047    0.0000 H   0  0  0  0  0  0  0  0  0  0  0  0
    6.6682   -5.8402    0.0000 H   0  0  0  0  0  0  0  0  0  0  0  0
    7.5417   -5.9166    0.0000 H   0  0  0  0  0  0  0  0  0  0  0  0
    7.6181   -5.0431    0.0000 H   0  0  0  0  0  0  0  0  0  0  0  0
  1 17  1  0  0  0  0
  1 65  1  0  0  0  0
  2 18  1  0  0  0  0
  2 66  1  0  0  0  0
  3 27  1  0  0  0  0
  3 71  1  0  0  0  0
  4 28  1  0  0  0  0
  4 72  1  0  0  0  0
  5 21  2  0  0  0  0
  6 22  2  0  0  0  0
  7 33  1  0  0  0  0
  7 75  1  0  0  0  0
  8 34  1  0  0  0  0
  8 80  1  0  0  0  0
  9 35  1  0  0  0  0
  9 81  1  0  0  0  0
 10 37  2  0  0  0  0
 11 38  2  0  0  0  0
 12 41  2  0  0  0  0
 13 17  1  0  0  0  0
 13 21  1  0  0  0  0
 13 29  1  0  0  0  0
 13 30  1  0  0  0  0
 14 18  1  0  0  0  0
 14 22  1  0  0  0  0
 14 31  1  0  0  0  0
 14 32  1  0  0  0  0
 15 17  2  0  0  0  0
 15 19  1  0  0  0  0
 15 27  1  0  0  0  0
 16 18  2  0  0  0  0
 16 20  1  0  0  0  0
 16 28  1  0  0  0  0
 19 23  1  0  0  0  0
 19 49  1  0  0  0  0
 19 50  1  0  0  0  0
 20 24  1  0  0  0  0
 20 51  1  0  0  0  0
 20 52  1  0  0  0  0
 21 25  1  0  0  0  0
 22 26  1  0  0  0  0
 23 33  2  0  0  0  0
 23 35  1  0  0  0  0
 24 33  1  0  0  0  0
 24 34  2  0  0  0  0
 25 27  2  0  0  0  0
 25 37  1  0  0  0  0
 26 28  2  0  0  0  0
 26 38  1  0  0  0  0
 29 53  1  0  0  0  0
 29 54  1  0  0  0  0
 29 55  1  0  0  0  0
 30 56  1  0  0  0  0
 30 57  1  0  0  0  0
 30 58  1  0  0  0  0
 31 59  1  0  0  0  0
 31 60  1  0  0  0  0
 31 61  1  0  0  0  0
 32 62  1  0  0  0  0
 32 63  1  0  0  0  0
 32 64  1  0  0  0  0
 34 36  1  0  0  0  0
 35 36  2  0  0  0  0
 36 41  1  0  0  0  0
 37 39  1  0  0  0  0
 38 40  1  0  0  0  0
 39 43  1  0  0  0  0
 39 67  1  0  0  0  0
 39 68  1  0  0  0  0
 40 44  1  0  0  0  0
 40 69  1  0  0  0  0
 40 70  1  0  0  0  0
 41 42  1  0  0  0  0
 42 45  1  0  0  0  0
 42 73  1  0  0  0  0
 42 74  1  0  0  0  0
 43 46  1  0  0  0  0
 43 76  1  0  0  0  0
 43 77  1  0  0  0  0
 44 47  1  0  0  0  0
 44 78  1  0  0  0  0
 44 79  1  0  0  0  0
 45 48  1  0  0  0  0
 45 82  1  0  0  0  0
 45 83  1  0  0  0  0
 46 84  1  0  0  0  0
 46 85  1  0  0  0  0
 46 86  1  0  0  0  0
 47 87  1  0  0  0  0
 47 88  1  0  0  0  0
 47 89  1  0  0  0  0
 48 90  1  0  0  0  0
 48 91  1  0  0  0  0
 48 92  1  0  0  0  0
M  END
> <PUBCHEM_COMPOUND_CID>
197044

> <PUBCHEM_COMPOUND_CANONICALIZED>
1

> <PUBCHEM_CACTVS_COMPLEXITY>
1400

> <PUBCHEM_CACTVS_HBOND_ACCEPTOR>
12

> <PUBCHEM_CACTVS_HBOND_DONOR>
7

> <PUBCHEM_CACTVS_ROTATABLE_BOND>
13

> <PUBCHEM_CACTVS_SUBSKEYS>
AAADcfB8PAAAAAAAAAAAAAAAAAAAAAAAAAAwQIAAAAAAAAABAAAAGgAACAAADgSAmAACBoAAAgCIAoBQAAACAAAkIAAAiAEECMgIJzaKFBKAcUAl4BUImQeI7OTPIAACCAAIAABAAAQQABAAAAAAAAAAAA==

> <PUBCHEM_IUPAC_OPENEYE_NAME>
2-butanoyl-4-[[3-butanoyl-5-[(5-butanoyl-2,6-dihydroxy-3,3-dimethyl-4-oxo-cyclohexa-1,5-dien-1-yl)methyl]-2,4,6-trihydroxy-phenyl]methyl]-3,5-dihydroxy-6,6-dimethyl-cyclohexa-2,4-dien-1-one

> <PUBCHEM_IUPAC_CAS_NAME>
4-[[3-[[2,6-dihydroxy-3,3-dimethyl-4-oxo-5-(1-oxobutyl)-1-cyclohexa-1,5-dienyl]methyl]-2,4,6-trihydroxy-5-(1-oxobutyl)phenyl]methyl]-3,5-dihydroxy-6,6-dimethyl-2-(1-oxobutyl)-1-cyclohexa-2,4-dienone

> <PUBCHEM_IUPAC_NAME>
2-butanoyl-4-[[3-butanoyl-5-[(5-butanoyl-2,6-dihydroxy-3,3-dimethyl-4-oxocyclohexa-1,5-dien-1-yl)methyl]-2,4,6-trihydroxyphenyl]methyl]-3,5-dihydroxy-6,6-dimethylcyclohexa-2,4-dien-1-one

> <PUBCHEM_IUPAC_SYSTEMATIC_NAME>
2-butanoyl-4-[[3-butanoyl-5-[[5-butanoyl-3,3-dimethyl-2,6-bis(oxidanyl)-4-oxidanylidene-cyclohexa-1,5-dien-1-yl]methyl]-2,4,6-tris(oxidanyl)phenyl]methyl]-6,6-dimethyl-3,5-bis(oxidanyl)cyclohexa-2,4-dien-1-one

> <PUBCHEM_IUPAC_TRADITIONAL_NAME>
2-butyryl-4-[3-butyryl-5-[(5-butyryl-2,6-dihydroxy-4-keto-3,3-dimethyl-cyclohexa-1,5-dien-1-yl)methyl]-2,4,6-trihydroxy-benzyl]-3,5-dihydroxy-6,6-dimethyl-cyclohexa-2,4-dien-1-one

> <PUBCHEM_IUPAC_INCHI>
InChI=1S/C36H44O12/c1-8-11-20(37)23-27(41)16(14-18-29(43)24(21(38)12-9-2)33(47)35(4,5)31(18)45)26(40)17(28(23)42)15-19-30(44)25(22(39)13-10-3)34(48)36(6,7)32(19)46/h40-46H,8-15H2,1-7H3

> <PUBCHEM_IUPAC_INCHIKEY>
FRTCWDLFHSMTNW-UHFFFAOYSA-N

> <PUBCHEM_XLOGP3_AA>
4.9

> <PUBCHEM_EXACT_MASS>
668.283277

> <PUBCHEM_MOLECULAR_FORMULA>
C36H44O12

> <PUBCHEM_MOLECULAR_WEIGHT>
668.72736

> <PUBCHEM_OPENEYE_CAN_SMILES>
CCCC(=O)C1=C(C(=C(C(=C1O)CC2=C(C(C(=O)C(=C2O)C(=O)CCC)(C)C)O)O)CC3=C(C(C(=O)C(=C3O)C(=O)CCC)(C)C)O)O

> <PUBCHEM_OPENEYE_ISO_SMILES>
CCCC(=O)C1=C(C(=C(C(=C1O)CC2=C(C(C(=O)C(=C2O)C(=O)CCC)(C)C)O)O)CC3=C(C(C(=O)C(=C3O)C(=O)CCC)(C)C)O)O

> <PUBCHEM_CACTVS_TPSA>
227

> <PUBCHEM_MONOISOTOPIC_WEIGHT>
668.283277

> <PUBCHEM_TOTAL_CHARGE>
0

> <PUBCHEM_HEAVY_ATOM_COUNT>
48

> <PUBCHEM_ATOM_DEF_STEREO_COUNT>
0

> <PUBCHEM_ATOM_UDEF_STEREO_COUNT>
0

> <PUBCHEM_BOND_DEF_STEREO_COUNT>
0

> <PUBCHEM_BOND_UDEF_STEREO_COUNT>
0

> <PUBCHEM_ISOTOPIC_ATOM_COUNT>
0

> <PUBCHEM_COMPONENT_COUNT>
1

> <PUBCHEM_CACTVS_TAUTO_COUNT>
1001

> <PUBCHEM_COORDINATE_TYPE>
1
5
255

> <PUBCHEM_BONDANNOTATIONS>
23  33  8
23  35  8
24  33  8
24  34  8
34  36  8
35  36  8

$$$$

