5281749
  -OEChem-07051212593D

 65 66  0     1  0  0  0  0  0999 V2000
   -1.1452   -0.3531   -1.6524 O   0  0  0  0  0  0  0  0  0  0  0  0
   -3.8625    0.1578    0.2257 O   0  0  0  0  0  0  0  0  0  0  0  0
    1.7941   -1.6943    0.6039 O   0  0  0  0  0  0  0  0  0  0  0  0
    0.7889   -1.3474   -2.4090 O   0  0  0  0  0  0  0  0  0  0  0  0
   -6.0436    0.0772   -0.5315 O   0  0  0  0  0  0  0  0  0  0  0  0
    3.5160   -3.0670   -0.0629 O   0  0  0  0  0  0  0  0  0  0  0  0
    2.6891    1.2427    0.9165 O   0  0  0  0  0  0  0  0  0  0  0  0
    1.6890    1.5599    2.9718 O   0  0  0  0  0  0  0  0  0  0  0  0
   -2.5925   -1.7137    0.7814 N   0  0  0  0  0  0  0  0  0  0  0  0
   -1.7117   -1.6270   -1.3871 C   0  0  2  0  0  0  0  0  0  0  0  0
   -3.7159   -1.2326   -0.0021 C   0  0  2  0  0  0  0  0  0  0  0  0
   -3.2615   -1.5358   -1.4484 C   0  0  0  0  0  0  0  0  0  0  0  0
   -1.4745   -1.9457    0.0347 C   0  0  0  0  0  0  0  0  0  0  0  0
   -0.4977   -2.4100    0.8750 C   0  0  0  0  0  0  0  0  0  0  0  0
   -2.3985   -2.0167    2.0805 C   0  0  0  0  0  0  0  0  0  0  0  0
   -1.0860   -2.4532    2.1779 C   0  0  0  0  0  0  0  0  0  0  0  0
    0.8794   -2.7916    0.5154 C   0  0  0  0  0  0  0  0  0  0  0  0
    0.1217   -0.3518   -2.1663 C   0  0  0  0  0  0  0  0  0  0  0  0
   -5.0859    0.6926   -0.0831 C   0  0  0  0  0  0  0  0  0  0  0  0
    0.5813    1.0534   -2.3852 C   0  0  0  0  0  0  0  0  0  0  0  0
   -5.0947    2.1626    0.2081 C   0  0  0  0  0  0  0  0  0  0  0  0
    3.0870   -1.9758    0.2849 C   0  0  0  0  0  0  0  0  0  0  0  0
   -0.4426    2.0893   -2.7436 C   0  0  0  0  0  0  0  0  0  0  0  0
    1.9055    1.2631   -2.2685 C   0  0  0  0  0  0  0  0  0  0  0  0
    3.9179   -0.7391    0.4174 C   0  0  0  0  0  0  0  0  0  0  0  0
    2.6329    2.5617   -2.4172 C   0  0  0  0  0  0  0  0  0  0  0  0
    3.5608    0.2682    1.4726 C   0  0  0  0  0  0  0  0  0  0  0  0
    4.9780   -0.6562   -0.4086 C   0  0  0  0  0  0  0  0  0  0  0  0
    5.9653    0.4643   -0.4989 C   0  0  0  0  0  0  0  0  0  0  0  0
    1.7992    1.8109    1.7835 C   0  0  0  0  0  0  0  0  0  0  0  0
    0.9756    2.7752    1.0158 C   0  0  0  0  0  0  0  0  0  0  0  0
   -0.3048    3.0911    1.2810 C   0  0  0  0  0  0  0  0  0  0  0  0
   -1.1413    2.5481    2.4057 C   0  0  0  0  0  0  0  0  0  0  0  0
   -1.0225    4.0928    0.4128 C   0  0  0  0  0  0  0  0  0  0  0  0
   -1.3557   -2.3995   -2.0772 H   0  0  0  0  0  0  0  0  0  0  0  0
   -4.6046   -1.8026    0.2927 H   0  0  0  0  0  0  0  0  0  0  0  0
   -3.6580   -2.5175   -1.7384 H   0  0  0  0  0  0  0  0  0  0  0  0
   -3.6050   -0.7856   -2.1676 H   0  0  0  0  0  0  0  0  0  0  0  0
   -3.1733   -1.9056    2.8262 H   0  0  0  0  0  0  0  0  0  0  0  0
   -0.6047   -2.7724    3.0924 H   0  0  0  0  0  0  0  0  0  0  0  0
    1.2212   -3.5847    1.1929 H   0  0  0  0  0  0  0  0  0  0  0  0
    0.9010   -3.1994   -0.5026 H   0  0  0  0  0  0  0  0  0  0  0  0
   -4.8646    2.3331    1.2629 H   0  0  0  0  0  0  0  0  0  0  0  0
   -6.0887    2.5684   -0.0005 H   0  0  0  0  0  0  0  0  0  0  0  0
   -4.3678    2.6693   -0.4312 H   0  0  0  0  0  0  0  0  0  0  0  0
   -1.0559    1.7337   -3.5791 H   0  0  0  0  0  0  0  0  0  0  0  0
   -0.0080    3.0414   -3.0552 H   0  0  0  0  0  0  0  0  0  0  0  0
   -1.1052    2.2819   -1.8957 H   0  0  0  0  0  0  0  0  0  0  0  0
    2.5558    0.4234   -2.0351 H   0  0  0  0  0  0  0  0  0  0  0  0
    1.9762    3.4335   -2.4358 H   0  0  0  0  0  0  0  0  0  0  0  0
    3.3221    2.6929   -1.5767 H   0  0  0  0  0  0  0  0  0  0  0  0
    3.2243    2.5516   -3.3378 H   0  0  0  0  0  0  0  0  0  0  0  0
    3.1100   -0.2501    2.3285 H   0  0  0  0  0  0  0  0  0  0  0  0
    4.4520    0.7775    1.8541 H   0  0  0  0  0  0  0  0  0  0  0  0
    5.1607   -1.4571   -1.1234 H   0  0  0  0  0  0  0  0  0  0  0  0
    5.6975    1.3278    0.1145 H   0  0  0  0  0  0  0  0  0  0  0  0
    6.9549    0.1140   -0.1903 H   0  0  0  0  0  0  0  0  0  0  0  0
    6.0326    0.8085   -1.5360 H   0  0  0  0  0  0  0  0  0  0  0  0
    1.4721    3.2342    0.1658 H   0  0  0  0  0  0  0  0  0  0  0  0
   -2.1160    2.2229    2.0250 H   0  0  0  0  0  0  0  0  0  0  0  0
   -0.7005    1.6792    2.8979 H   0  0  0  0  0  0  0  0  0  0  0  0
   -1.3090    3.3233    3.1601 H   0  0  0  0  0  0  0  0  0  0  0  0
   -1.3296    4.9573    1.0108 H   0  0  0  0  0  0  0  0  0  0  0  0
   -0.3967    4.4616   -0.4068 H   0  0  0  0  0  0  0  0  0  0  0  0
   -1.9176    3.6426   -0.0280 H   0  0  0  0  0  0  0  0  0  0  0  0
  1 10  1  0  0  0  0
  1 18  1  0  0  0  0
  2 11  1  0  0  0  0
  2 19  1  0  0  0  0
  3 17  1  0  0  0  0
  3 22  1  0  0  0  0
  4 18  2  0  0  0  0
  5 19  2  0  0  0  0
  6 22  2  0  0  0  0
  7 27  1  0  0  0  0
  7 30  1  0  0  0  0
  8 30  2  0  0  0  0
  9 11  1  0  0  0  0
  9 13  1  0  0  0  0
  9 15  1  0  0  0  0
 10 12  1  0  0  0  0
 10 13  1  0  0  0  0
 10 35  1  0  0  0  0
 11 12  1  0  0  0  0
 11 36  1  0  0  0  0
 12 37  1  0  0  0  0
 12 38  1  0  0  0  0
 13 14  2  0  0  0  0
 14 16  1  0  0  0  0
 14 17  1  0  0  0  0
 15 16  2  0  0  0  0
 15 39  1  0  0  0  0
 16 40  1  0  0  0  0
 17 41  1  0  0  0  0
 17 42  1  0  0  0  0
 18 20  1  0  0  0  0
 19 21  1  0  0  0  0
 20 23  1  0  0  0  0
 20 24  2  0  0  0  0
 21 43  1  0  0  0  0
 21 44  1  0  0  0  0
 21 45  1  0  0  0  0
 22 25  1  0  0  0  0
 23 46  1  0  0  0  0
 23 47  1  0  0  0  0
 23 48  1  0  0  0  0
 24 26  1  0  0  0  0
 24 49  1  0  0  0  0
 25 27  1  0  0  0  0
 25 28  2  0  0  0  0
 26 50  1  0  0  0  0
 26 51  1  0  0  0  0
 26 52  1  0  0  0  0
 27 53  1  0  0  0  0
 27 54  1  0  0  0  0
 28 29  1  0  0  0  0
 28 55  1  0  0  0  0
 29 56  1  0  0  0  0
 29 57  1  0  0  0  0
 29 58  1  0  0  0  0
 30 31  1  0  0  0  0
 31 32  2  0  0  0  0
 31 59  1  0  0  0  0
 32 33  1  0  0  0  0
 32 34  1  0  0  0  0
 33 60  1  0  0  0  0
 33 61  1  0  0  0  0
 33 62  1  0  0  0  0
 34 63  1  0  0  0  0
 34 64  1  0  0  0  0
 34 65  1  0  0  0  0
M  END
> <PUBCHEM_COMPOUND_CID>
5281749

> <PUBCHEM_CONFORMER_RMSD>
1.2

> <PUBCHEM_CONFORMER_DIVERSEORDER>
1
59
41
53
19
68
73
13
52
7
78
18
16
43
77
49
44
29
69
62
71
20
17
26
54
27
67
76
4
74
58
56
9
31
57
30
23
24
51
21
35
66
75
8
6
34
45
72
46
36
14
48
38
22
63
15
25
33
64
3
11
70
37
42
65
28
50
10
40
61
60
55
39
2
47
12
5
32

> <PUBCHEM_MMFF94_PARTIAL_CHARGES>
38
1 -0.43
10 0.46
11 0.54
13 -0.33
14 -0.18
15 -0.3
16 -0.15
17 0.46
18 0.71
19 0.66
2 -0.43
20 -0.12
21 0.06
22 0.71
23 0.14
24 -0.29
25 -0.12
26 0.14
27 0.42
28 -0.29
29 0.14
3 -0.43
30 0.71
31 -0.14
32 -0.28
33 0.14
34 0.14
39 0.15
4 -0.57
40 0.15
49 0.15
5 -0.57
55 0.15
59 0.15
6 -0.57
7 -0.43
8 -0.57
9 0.05

> <PUBCHEM_EFFECTIVE_ROTOR_COUNT>
13.6

> <PUBCHEM_PHARMACOPHORE_FEATURES>
11
1 23 hydrophobe
1 26 hydrophobe
1 29 hydrophobe
1 4 acceptor
1 5 acceptor
1 6 acceptor
1 8 acceptor
1 9 cation
3 32 33 34 hydrophobe
5 9 10 11 12 13 rings
5 9 13 14 15 16 rings

> <PUBCHEM_HEAVY_ATOM_COUNT>
34

> <PUBCHEM_ATOM_DEF_STEREO_COUNT>
2

> <PUBCHEM_ATOM_UDEF_STEREO_COUNT>
0

> <PUBCHEM_BOND_DEF_STEREO_COUNT>
2

> <PUBCHEM_BOND_UDEF_STEREO_COUNT>
0

> <PUBCHEM_ISOTOPIC_ATOM_COUNT>
0

> <PUBCHEM_COMPONENT_COUNT>
1

> <PUBCHEM_CACTVS_TAUTO_COUNT>
1

> <PUBCHEM_CONFORMER_ID>
005097D500000001

> <PUBCHEM_MMFF94_ENERGY>
59.9552

> <PUBCHEM_FEATURE_SELFOVERLAP>
56.075

> <PUBCHEM_SHAPE_FINGERPRINT>
10006869 2 17269214030675167271
12156800 1 17611415987690738648
12467345 10 18130782356743989004
12633257 1 17417540128646012774
12788726 201 18336830908898166120
13140716 1 17417522515101429951
13726171 33 16916800633751084892
144659 178 18341326815960358901
15721738 202 17415258564803652547
19930381 70 17254859480951295099
20600515 1 17988932145488584978
21033648 29 18339647732913333362
3493558 16 17684927294930045243
35225 105 17973998746132264932
469060 322 17485361502192968194

> <PUBCHEM_SHAPE_MULTIPOLES>
647.77
9.06
4.31
2.87
1.66
1.64
0.48
-0.32
0.5
0.39
-1.42
-0.61
1.49
-0.36

> <PUBCHEM_SHAPE_SELFOVERLAP>
1338.535

> <PUBCHEM_SHAPE_VOLUME>
371.6

> <PUBCHEM_COORDINATE_TYPE>
2
5
10

$$$$

