12045
  -OEChem-06261206263D

 21 20  0     0  0  0  0  0  0999 V2000
   -2.8075    0.4622   -0.2305 O   0  0  0  0  0  0  0  0  0  0  0  0
    2.7933   -0.8942    0.0678 O   0  0  0  0  0  0  0  0  0  0  0  0
   -1.9439   -1.6106    0.2912 O   0  0  0  0  0  0  0  0  0  0  0  0
    2.2600    1.3003   -0.4075 O   0  0  0  0  0  0  0  0  0  0  0  0
   -0.5197    0.3271    0.1709 C   0  0  0  0  0  0  0  0  0  0  0  0
   -0.5510    1.7526    0.6356 C   0  0  0  0  0  0  0  0  0  0  0  0
    0.5659   -0.3969   -0.1522 C   0  0  0  0  0  0  0  0  0  0  0  0
   -1.8155   -0.4105    0.0964 C   0  0  0  0  0  0  0  0  0  0  0  0
    1.9474    0.1427   -0.1834 C   0  0  0  0  0  0  0  0  0  0  0  0
   -4.1159   -0.1059   -0.3511 C   0  0  0  0  0  0  0  0  0  0  0  0
    4.1869   -0.5667    0.0628 C   0  0  0  0  0  0  0  0  0  0  0  0
   -1.2976    1.8846    1.4266 H   0  0  0  0  0  0  0  0  0  0  0  0
   -0.8049    2.4195   -0.1944 H   0  0  0  0  0  0  0  0  0  0  0  0
    0.4030    2.0750    1.0614 H   0  0  0  0  0  0  0  0  0  0  0  0
    0.4754   -1.4435   -0.4343 H   0  0  0  0  0  0  0  0  0  0  0  0
   -4.1300   -0.8590   -1.1448 H   0  0  0  0  0  0  0  0  0  0  0  0
   -4.8113    0.6953   -0.6149 H   0  0  0  0  0  0  0  0  0  0  0  0
   -4.4283   -0.5425    0.6023 H   0  0  0  0  0  0  0  0  0  0  0  0
    4.7511   -1.4785    0.2763 H   0  0  0  0  0  0  0  0  0  0  0  0
    4.4050    0.1717    0.8402 H   0  0  0  0  0  0  0  0  0  0  0  0
    4.4841   -0.1919   -0.9212 H   0  0  0  0  0  0  0  0  0  0  0  0
  1  8  1  0  0  0  0
  1 10  1  0  0  0  0
  2  9  1  0  0  0  0
  2 11  1  0  0  0  0
  3  8  2  0  0  0  0
  4  9  2  0  0  0  0
  5  6  1  0  0  0  0
  5  7  2  0  0  0  0
  5  8  1  0  0  0  0
  6 12  1  0  0  0  0
  6 13  1  0  0  0  0
  6 14  1  0  0  0  0
  7  9  1  0  0  0  0
  7 15  1  0  0  0  0
 10 16  1  0  0  0  0
 10 17  1  0  0  0  0
 10 18  1  0  0  0  0
 11 19  1  0  0  0  0
 11 20  1  0  0  0  0
 11 21  1  0  0  0  0
M  END
> <PUBCHEM_COMPOUND_CID>
12045

> <PUBCHEM_CONFORMER_RMSD>
0.6

> <PUBCHEM_CONFORMER_DIVERSEORDER>
1
9
4
12
7
5
2
6
10
11
8
3

> <PUBCHEM_MMFF94_PARTIAL_CHARGES>
12
1 -0.43
10 0.28
11 0.28
15 0.15
2 -0.43
3 -0.57
4 -0.57
5 -0.12
6 0.14
7 -0.14
8 0.71
9 0.71

> <PUBCHEM_EFFECTIVE_ROTOR_COUNT>
4

> <PUBCHEM_PHARMACOPHORE_FEATURES>
3
1 3 acceptor
1 4 acceptor
1 6 hydrophobe

> <PUBCHEM_HEAVY_ATOM_COUNT>
11

> <PUBCHEM_ATOM_DEF_STEREO_COUNT>
0

> <PUBCHEM_ATOM_UDEF_STEREO_COUNT>
0

> <PUBCHEM_BOND_DEF_STEREO_COUNT>
0

> <PUBCHEM_BOND_UDEF_STEREO_COUNT>
1

> <PUBCHEM_ISOTOPIC_ATOM_COUNT>
0

> <PUBCHEM_COMPONENT_COUNT>
1

> <PUBCHEM_CACTVS_TAUTO_COUNT>
1

> <PUBCHEM_CONFORMER_ID>
00002F0D00000001

> <PUBCHEM_MMFF94_ENERGY>
24.7923

> <PUBCHEM_FEATURE_SELFOVERLAP>
15.223

> <PUBCHEM_SHAPE_FINGERPRINT>
10130415 120 18408886239208688761
11062470 55 17675927607567459755
12716758 59 18343587308971499963
13690532 89 18341334486892541274
14325111 11 18342455898331485447
18186145 218 17632584824877682293
18619055 16 18411135792648918037
20201158 50 18409165532252549950
20653085 51 16917342632563774589
21119208 17 17846781818718818215
23402539 116 18188218684047346949
23552423 10 18201154352100515306
3248919 1 17676472943685965878

> <PUBCHEM_SHAPE_MULTIPOLES>
202.9
6.67
1.36
0.66
0.98
0.33
0.01
-1.57
-0.65
-0.08
0.19
-0.05
0.06
-0.11

> <PUBCHEM_SHAPE_SELFOVERLAP>
390.994

> <PUBCHEM_SHAPE_VOLUME>
124.4

> <PUBCHEM_COORDINATE_TYPE>
2
5
10

$$$$

