17396301
  -OEChem-06241222552D

 42 46  0     0  0  0  0  0  0999 V2000
   12.4797    2.7371    0.0000 S   0  0  0  0  0  0  0  0  0  0  0  0
    2.1030   -1.3432    0.0000 S   0  0  0  0  0  0  0  0  0  0  0  0
    8.9877   -0.2976    0.0000 O   0  0  0  0  0  0  0  0  0  0  0  0
   14.2499    0.6782    0.0000 O   0  0  0  0  0  0  0  0  0  0  0  0
    3.5749   -2.0000    0.0000 N   0  0  0  0  0  0  0  0  0  0  0  0
   12.4797    0.6677    0.0000 N   0  0  0  0  0  0  0  0  0  0  0  0
    8.1216    1.2024    0.0000 N   0  0  0  0  0  0  0  0  0  0  0  0
    3.7440   -0.3909    0.0000 N   0  0  0  0  0  0  0  0  0  0  0  0
   11.5857    1.2024    0.0000 C   0  0  0  0  0  0  0  0  0  0  0  0
    4.6575   -0.7976    0.0000 C   0  0  0  0  0  0  0  0  0  0  0  0
    5.5236   -0.2976    0.0000 C   0  0  0  0  0  0  0  0  0  0  0  0
   11.5857    2.2024    0.0000 C   0  0  0  0  0  0  0  0  0  0  0  0
    9.8537    1.2024    0.0000 C   0  0  0  0  0  0  0  0  0  0  0  0
   10.7197    0.7024    0.0000 C   0  0  0  0  0  0  0  0  0  0  0  0
    4.5530   -1.7921    0.0000 C   0  0  0  0  0  0  0  0  0  0  0  0
    7.2556    0.7024    0.0000 C   0  0  0  0  0  0  0  0  0  0  0  0
    3.0749   -1.1340    0.0000 C   0  0  0  0  0  0  0  0  0  0  0  0
   10.7197    2.7024    0.0000 C   0  0  0  0  0  0  0  0  0  0  0  0
    6.3896   -0.7976    0.0000 C   0  0  0  0  0  0  0  0  0  0  0  0
    5.5236    0.7024    0.0000 C   0  0  0  0  0  0  0  0  0  0  0  0
    9.8537    2.2024    0.0000 C   0  0  0  0  0  0  0  0  0  0  0  0
    8.9877    0.7024    0.0000 C   0  0  0  0  0  0  0  0  0  0  0  0
   13.3858    2.2232    0.0000 C   0  0  0  0  0  0  0  0  0  0  0  0
    7.2556   -0.2976    0.0000 C   0  0  0  0  0  0  0  0  0  0  0  0
    6.3896    1.2024    0.0000 C   0  0  0  0  0  0  0  0  0  0  0  0
   13.3858    1.1816    0.0000 C   0  0  0  0  0  0  0  0  0  0  0  0
    2.9078   -2.7371    0.0000 C   0  0  0  0  0  0  0  0  0  0  0  0
    2.0000   -2.3319    0.0000 C   0  0  0  0  0  0  0  0  0  0  0  0
   10.7197    0.0824    0.0000 H   0  0  0  0  0  0  0  0  0  0  0  0
    5.0138   -2.2070    0.0000 H   0  0  0  0  0  0  0  0  0  0  0  0
   10.7197    3.3224    0.0000 H   0  0  0  0  0  0  0  0  0  0  0  0
    6.3896   -1.4176    0.0000 H   0  0  0  0  0  0  0  0  0  0  0  0
    4.9866    1.0124    0.0000 H   0  0  0  0  0  0  0  0  0  0  0  0
    9.3168    2.5124    0.0000 H   0  0  0  0  0  0  0  0  0  0  0  0
   12.4725    0.0478    0.0000 H   0  0  0  0  0  0  0  0  0  0  0  0
   13.9966    2.1171    0.0000 H   0  0  0  0  0  0  0  0  0  0  0  0
   13.5948    2.8069    0.0000 H   0  0  0  0  0  0  0  0  0  0  0  0
    7.7926   -0.6076    0.0000 H   0  0  0  0  0  0  0  0  0  0  0  0
    6.3896    1.8224    0.0000 H   0  0  0  0  0  0  0  0  0  0  0  0
    8.1216    1.8224    0.0000 H   0  0  0  0  0  0  0  0  0  0  0  0
    3.0356   -3.3437    0.0000 H   0  0  0  0  0  0  0  0  0  0  0  0
    1.4631   -2.6419    0.0000 H   0  0  0  0  0  0  0  0  0  0  0  0
  1 12  1  0  0  0  0
  1 23  1  0  0  0  0
  2 17  1  0  0  0  0
  2 28  1  0  0  0  0
  3 22  2  0  0  0  0
  4 26  2  0  0  0  0
  5 15  1  0  0  0  0
  5 17  1  0  0  0  0
  5 27  1  0  0  0  0
  6  9  1  0  0  0  0
  6 26  1  0  0  0  0
  6 35  1  0  0  0  0
  7 16  1  0  0  0  0
  7 22  1  0  0  0  0
  7 40  1  0  0  0  0
  8 10  1  0  0  0  0
  8 17  2  0  0  0  0
  9 12  2  0  0  0  0
  9 14  1  0  0  0  0
 10 11  1  0  0  0  0
 10 15  2  0  0  0  0
 11 19  2  0  0  0  0
 11 20  1  0  0  0  0
 12 18  1  0  0  0  0
 13 14  2  0  0  0  0
 13 21  1  0  0  0  0
 13 22  1  0  0  0  0
 14 29  1  0  0  0  0
 15 30  1  0  0  0  0
 16 24  2  0  0  0  0
 16 25  1  0  0  0  0
 18 21  2  0  0  0  0
 18 31  1  0  0  0  0
 19 24  1  0  0  0  0
 19 32  1  0  0  0  0
 20 25  2  0  0  0  0
 20 33  1  0  0  0  0
 21 34  1  0  0  0  0
 23 26  1  0  0  0  0
 23 36  1  0  0  0  0
 23 37  1  0  0  0  0
 24 38  1  0  0  0  0
 25 39  1  0  0  0  0
 27 28  2  0  0  0  0
 27 41  1  0  0  0  0
 28 42  1  0  0  0  0
M  END
> <PUBCHEM_COMPOUND_CID>
17396301

> <PUBCHEM_COMPOUND_CANONICALIZED>
1

> <PUBCHEM_CACTVS_COMPLEXITY>
613

> <PUBCHEM_CACTVS_HBOND_ACCEPTOR>
5

> <PUBCHEM_CACTVS_HBOND_DONOR>
2

> <PUBCHEM_CACTVS_ROTATABLE_BOND>
3

> <PUBCHEM_CACTVS_SUBSKEYS>
AAADccB7sABgAAAAAAAAAAAAAAAAAWLAAAA8YIAAAAAWAACx9AAAHgQQAAAADAjF3gS90ZfMGAisAzV3dACC8K11GrhJ2D04dNiIaPLgnZGUIQholALoyacciICOGAAAQAAAAQAwAACAAAACAAAAAAAAAA==

> <PUBCHEM_IUPAC_OPENEYE_NAME>
N-(4-imidazo[2,1-b]thiazol-6-ylphenyl)-3-oxo-4H-1,4-benzothiazine-6-carboxamide

> <PUBCHEM_IUPAC_CAS_NAME>
N-[4-(6-imidazo[2,1-b]thiazolyl)phenyl]-3-oxo-4H-1,4-benzothiazine-6-carboxamide

> <PUBCHEM_IUPAC_NAME>
N-(4-imidazo[2,1-b][1,3]thiazol-6-ylphenyl)-3-oxo-4H-1,4-benzothiazine-6-carboxamide

> <PUBCHEM_IUPAC_SYSTEMATIC_NAME>
N-(4-imidazo[2,1-b][1,3]thiazol-6-ylphenyl)-3-oxidanylidene-4H-1,4-benzothiazine-6-carboxamide

> <PUBCHEM_IUPAC_TRADITIONAL_NAME>
N-(4-imidazo[2,1-b]thiazol-6-ylphenyl)-3-keto-4H-1,4-benzothiazine-6-carboxamide

> <PUBCHEM_IUPAC_INCHI>
InChI=1S/C20H14N4O2S2/c25-18-11-28-17-6-3-13(9-15(17)22-18)19(26)21-14-4-1-12(2-5-14)16-10-24-7-8-27-20(24)23-16/h1-10H,11H2,(H,21,26)(H,22,25)

> <PUBCHEM_IUPAC_INCHIKEY>
JWBGETOCVKYWNO-UHFFFAOYSA-N

> <PUBCHEM_XLOGP3_AA>
3.9

> <PUBCHEM_EXACT_MASS>
406.055818

> <PUBCHEM_MOLECULAR_FORMULA>
C20H14N4O2S2

> <PUBCHEM_MOLECULAR_WEIGHT>
406.48076

> <PUBCHEM_OPENEYE_CAN_SMILES>
C1C(=O)NC2=C(S1)C=CC(=C2)C(=O)NC3=CC=C(C=C3)C4=CN5C=CSC5=N4

> <PUBCHEM_OPENEYE_ISO_SMILES>
C1C(=O)NC2=C(S1)C=CC(=C2)C(=O)NC3=CC=C(C=C3)C4=CN5C=CSC5=N4

> <PUBCHEM_CACTVS_TPSA>
129

> <PUBCHEM_MONOISOTOPIC_WEIGHT>
406.055818

> <PUBCHEM_TOTAL_CHARGE>
0

> <PUBCHEM_HEAVY_ATOM_COUNT>
28

> <PUBCHEM_ATOM_DEF_STEREO_COUNT>
0

> <PUBCHEM_ATOM_UDEF_STEREO_COUNT>
0

> <PUBCHEM_BOND_DEF_STEREO_COUNT>
0

> <PUBCHEM_BOND_UDEF_STEREO_COUNT>
0

> <PUBCHEM_ISOTOPIC_ATOM_COUNT>
0

> <PUBCHEM_COMPONENT_COUNT>
1

> <PUBCHEM_CACTVS_TAUTO_COUNT>
6

> <PUBCHEM_COORDINATE_TYPE>
1
5
255

> <PUBCHEM_BONDANNOTATIONS>
10  15  8
11  19  8
11  20  8
12  18  8
13  14  8
13  21  8
16  24  8
16  25  8
18  21  8
19  24  8
2  17  8
2  28  8
20  25  8
27  28  8
5  15  8
5  17  8
5  27  8
8  10  8
8  17  8
9  12  8
9  14  8

$$$$

