322636
  -OEChem-07051213083D

 19 20  0     1  0  0  0  0  0999 V2000
   -0.5847    1.4214   -0.1071 O   0  0  0  0  0  0  0  0  0  0  0  0
   -2.9127    1.3627   -0.1028 O   0  0  0  0  0  0  0  0  0  0  0  0
   -2.9365   -1.3143   -0.1153 O   0  0  0  0  0  0  0  0  0  0  0  0
   -0.6414   -1.4040   -0.0320 N   0  0  0  0  0  0  0  0  0  0  0  0
    0.5703   -0.7046    0.0063 C   0  0  0  0  0  0  0  0  0  0  0  0
    0.5680    0.6898   -0.0262 C   0  0  0  0  0  0  0  0  0  0  0  0
   -1.7267    0.7316    0.3661 C   0  0  1  0  0  0  0  0  0  0  0  0
   -1.8536   -0.7509    0.0284 C   0  0  0  0  0  0  0  0  0  0  0  0
    1.7771   -1.4061    0.0254 C   0  0  0  0  0  0  0  0  0  0  0  0
    1.7748    1.3889   -0.0480 C   0  0  0  0  0  0  0  0  0  0  0  0
    2.9832   -0.7048    0.0211 C   0  0  0  0  0  0  0  0  0  0  0  0
    2.9822    0.6902   -0.0160 C   0  0  0  0  0  0  0  0  0  0  0  0
   -1.7407    0.8145    1.4601 H   0  0  0  0  0  0  0  0  0  0  0  0
   -0.6212   -2.4139   -0.1379 H   0  0  0  0  0  0  0  0  0  0  0  0
    1.7907   -2.4927    0.0417 H   0  0  0  0  0  0  0  0  0  0  0  0
    1.7833    2.4746   -0.0896 H   0  0  0  0  0  0  0  0  0  0  0  0
    3.9249   -1.2457    0.0393 H   0  0  0  0  0  0  0  0  0  0  0  0
    3.9230    1.2328   -0.0271 H   0  0  0  0  0  0  0  0  0  0  0  0
   -3.0225    1.1233   -1.0389 H   0  0  0  0  0  0  0  0  0  0  0  0
  1  6  1  0  0  0  0
  1  7  1  0  0  0  0
  2  7  1  0  0  0  0
  2 19  1  0  0  0  0
  3  8  2  0  0  0  0
  4  5  1  0  0  0  0
  4  8  1  0  0  0  0
  4 14  1  0  0  0  0
  5  6  1  0  0  0  0
  5  9  2  0  0  0  0
  6 10  2  0  0  0  0
  7  8  1  0  0  0  0
  7 13  1  0  0  0  0
  9 11  1  0  0  0  0
  9 15  1  0  0  0  0
 10 12  1  0  0  0  0
 10 16  1  0  0  0  0
 11 12  2  0  0  0  0
 11 17  1  0  0  0  0
 12 18  1  0  0  0  0
M  END
> <PUBCHEM_COMPOUND_CID>
322636

> <PUBCHEM_CONFORMER_RMSD>
0.4

> <PUBCHEM_CONFORMER_DIVERSEORDER>
1

> <PUBCHEM_MMFF94_PARTIAL_CHARGES>
18
1 -0.36
10 -0.15
11 -0.15
12 -0.15
14 0.37
15 0.15
16 0.15
17 0.15
18 0.15
19 0.4
2 -0.68
3 -0.57
4 -0.55
5 0.12
6 0.08
7 0.62
8 0.57
9 -0.15

> <PUBCHEM_EFFECTIVE_ROTOR_COUNT>
0.6

> <PUBCHEM_PHARMACOPHORE_FEATURES>
7
1 1 acceptor
1 2 acceptor
1 2 donor
1 3 acceptor
1 4 donor
6 1 4 5 6 7 8 rings
6 5 6 9 10 11 12 rings

> <PUBCHEM_HEAVY_ATOM_COUNT>
12

> <PUBCHEM_ATOM_DEF_STEREO_COUNT>
0

> <PUBCHEM_ATOM_UDEF_STEREO_COUNT>
1

> <PUBCHEM_BOND_DEF_STEREO_COUNT>
0

> <PUBCHEM_BOND_UDEF_STEREO_COUNT>
0

> <PUBCHEM_ISOTOPIC_ATOM_COUNT>
0

> <PUBCHEM_COMPONENT_COUNT>
1

> <PUBCHEM_CACTVS_TAUTO_COUNT>
2

> <PUBCHEM_CONFORMER_ID>
0004EC4C00000001

> <PUBCHEM_MMFF94_ENERGY>
27.7904

> <PUBCHEM_FEATURE_SELFOVERLAP>
35.606

> <PUBCHEM_SHAPE_FINGERPRINT>
10608611 8 18410296908300853608
12897270 3 18410575050371951366
13380535 76 18337393854493296439
14325111 11 18410573981051883536
15775835 57 18340760520268806476
16945 1 18267019445079559258
17844478 74 18130495349917401091
17990270 104 18409727383063465630
19973954 147 18410290311225409432
20201158 50 18336548321266436278
21040471 1 18410572847375507824
21501502 16 18411699889384922568
2334 1 18410854334852011504
23402655 69 18263939885405372237
23463225 33 18341613741523900362
23552423 10 18343862208242549310
23559900 14 18334289912595250694
2748010 2 18410572889950621558
369184 2 18410292514480263867
5084963 1 18261108543593661674
528886 8 18410579525706774896
53812653 166 18334300872470990920

> <PUBCHEM_SHAPE_MULTIPOLES>
224.37
4.58
1.73
0.6
0.45
0.02
-0.01
-0.02
0.05
0.23
0.04
-0.03
0.01
-0.06

> <PUBCHEM_SHAPE_SELFOVERLAP>
486.948

> <PUBCHEM_SHAPE_VOLUME>
120.4

> <PUBCHEM_COORDINATE_TYPE>
2
5
10

$$$$

