5281599
  -OEChem-07051212582D

 58 63  0     0  0  0  0  0  0999 V2000
    6.3962    2.7510    0.0000 O   0  0  0  0  0  0  0  0  0  0  0  0
    4.6523   -1.2559    0.0000 O   0  0  0  0  0  0  0  0  0  0  0  0
    2.9042    1.7856    0.0000 O   0  0  0  0  0  0  0  0  0  0  0  0
    6.3683    1.7856    0.0000 O   0  0  0  0  0  0  0  0  0  0  0  0
    2.9042    2.7856    0.0000 O   0  0  0  0  0  0  0  0  0  0  0  0
    4.6362    5.7857    0.0000 O   0  0  0  0  0  0  0  0  0  0  0  0
    6.3846    5.8202    0.0000 O   0  0  0  0  0  0  0  0  0  0  0  0
    2.0000    0.2888    0.0000 O   0  0  0  0  0  0  0  0  0  0  0  0
   10.7586    1.2515    0.0000 O   0  0  0  0  0  0  0  0  0  0  0  0
    3.7696   -5.7836    0.0000 O   0  0  0  0  0  0  0  0  0  0  0  0
    4.6362    2.7856    0.0000 C   0  0  0  0  0  0  0  0  0  0  0  0
    4.6362    1.7856    0.0000 C   0  0  0  0  0  0  0  0  0  0  0  0
    5.5022    3.2856    0.0000 C   0  0  0  0  0  0  0  0  0  0  0  0
    5.5022    4.2857    0.0000 C   0  0  0  0  0  0  0  0  0  0  0  0
    3.7702    0.2856    0.0000 C   0  0  0  0  0  0  0  0  0  0  0  0
    3.7702    1.2856    0.0000 C   0  0  0  0  0  0  0  0  0  0  0  0
    4.6362   -0.2144    0.0000 C   0  0  0  0  0  0  0  0  0  0  0  0
    5.5022    1.2856    0.0000 C   0  0  0  0  0  0  0  0  0  0  0  0
    3.7702    3.2856    0.0000 C   0  0  0  0  0  0  0  0  0  0  0  0
    5.5022    0.2856    0.0000 C   0  0  0  0  0  0  0  0  0  0  0  0
    4.6362    4.7857    0.0000 C   0  0  0  0  0  0  0  0  0  0  0  0
    3.7702    4.2857    0.0000 C   0  0  0  0  0  0  0  0  0  0  0  0
    6.3962    4.8203    0.0000 C   0  0  0  0  0  0  0  0  0  0  0  0
    7.3022    3.2648    0.0000 C   0  0  0  0  0  0  0  0  0  0  0  0
    2.8602   -0.2212    0.0000 C   0  0  0  0  0  0  0  0  0  0  0  0
    3.7542   -1.7836    0.0000 C   0  0  0  0  0  0  0  0  0  0  0  0
    7.3022    4.3065    0.0000 C   0  0  0  0  0  0  0  0  0  0  0  0
    2.8522   -1.2628    0.0000 C   0  0  0  0  0  0  0  0  0  0  0  0
    8.1663    2.7615    0.0000 C   0  0  0  0  0  0  0  0  0  0  0  0
    3.7581   -2.7836    0.0000 C   0  0  0  0  0  0  0  0  0  0  0  0
    8.1625    1.7615    0.0000 C   0  0  0  0  0  0  0  0  0  0  0  0
    9.0343    3.2582    0.0000 C   0  0  0  0  0  0  0  0  0  0  0  0
    2.8940   -3.2869    0.0000 C   0  0  0  0  0  0  0  0  0  0  0  0
    4.6260   -3.2803    0.0000 C   0  0  0  0  0  0  0  0  0  0  0  0
    9.0266    1.2582    0.0000 C   0  0  0  0  0  0  0  0  0  0  0  0
    9.8984    2.7548    0.0000 C   0  0  0  0  0  0  0  0  0  0  0  0
    9.8945    1.7548    0.0000 C   0  0  0  0  0  0  0  0  0  0  0  0
    2.8978   -4.2869    0.0000 C   0  0  0  0  0  0  0  0  0  0  0  0
    4.6299   -4.2802    0.0000 C   0  0  0  0  0  0  0  0  0  0  0  0
    3.7658   -4.7836    0.0000 C   0  0  0  0  0  0  0  0  0  0  0  0
    6.0392   -0.0244    0.0000 H   0  0  0  0  0  0  0  0  0  0  0  0
    3.2332    4.5956    0.0000 H   0  0  0  0  0  0  0  0  0  0  0  0
    7.8380    4.6185    0.0000 H   0  0  0  0  0  0  0  0  0  0  0  0
    2.3140   -1.5707    0.0000 H   0  0  0  0  0  0  0  0  0  0  0  0
    2.3672    1.4756    0.0000 H   0  0  0  0  0  0  0  0  0  0  0  0
    6.9052    1.4756    0.0000 H   0  0  0  0  0  0  0  0  0  0  0  0
    2.3672    3.0956    0.0000 H   0  0  0  0  0  0  0  0  0  0  0  0
    7.6244    1.4536    0.0000 H   0  0  0  0  0  0  0  0  0  0  0  0
    9.0367    3.8782    0.0000 H   0  0  0  0  0  0  0  0  0  0  0  0
    4.0993    6.0956    0.0000 H   0  0  0  0  0  0  0  0  0  0  0  0
    2.3559   -2.9790    0.0000 H   0  0  0  0  0  0  0  0  0  0  0  0
    5.1618   -2.9682    0.0000 H   0  0  0  0  0  0  0  0  0  0  0  0
    9.0242    0.6382    0.0000 H   0  0  0  0  0  0  0  0  0  0  0  0
   10.4365    3.0628    0.0000 H   0  0  0  0  0  0  0  0  0  0  0  0
    2.3621   -4.5990    0.0000 H   0  0  0  0  0  0  0  0  0  0  0  0
    5.1680   -4.5882    0.0000 H   0  0  0  0  0  0  0  0  0  0  0  0
   11.2967    1.5594    0.0000 H   0  0  0  0  0  0  0  0  0  0  0  0
    3.2339   -6.0956    0.0000 H   0  0  0  0  0  0  0  0  0  0  0  0
  1 13  1  0  0  0  0
  1 24  1  0  0  0  0
  2 17  1  0  0  0  0
  2 26  1  0  0  0  0
  3 16  1  0  0  0  0
  3 45  1  0  0  0  0
  4 18  1  0  0  0  0
  4 46  1  0  0  0  0
  5 19  1  0  0  0  0
  5 47  1  0  0  0  0
  6 21  1  0  0  0  0
  6 50  1  0  0  0  0
  7 23  2  0  0  0  0
  8 25  2  0  0  0  0
  9 37  1  0  0  0  0
  9 57  1  0  0  0  0
 10 40  1  0  0  0  0
 10 58  1  0  0  0  0
 11 12  1  0  0  0  0
 11 13  1  0  0  0  0
 11 19  2  0  0  0  0
 12 16  2  0  0  0  0
 12 18  1  0  0  0  0
 13 14  2  0  0  0  0
 14 21  1  0  0  0  0
 14 23  1  0  0  0  0
 15 16  1  0  0  0  0
 15 17  2  0  0  0  0
 15 25  1  0  0  0  0
 17 20  1  0  0  0  0
 18 20  2  0  0  0  0
 19 22  1  0  0  0  0
 20 41  1  0  0  0  0
 21 22  2  0  0  0  0
 22 42  1  0  0  0  0
 23 27  1  0  0  0  0
 24 27  2  0  0  0  0
 24 29  1  0  0  0  0
 25 28  1  0  0  0  0
 26 28  2  0  0  0  0
 26 30  1  0  0  0  0
 27 43  1  0  0  0  0
 28 44  1  0  0  0  0
 29 31  2  0  0  0  0
 29 32  1  0  0  0  0
 30 33  2  0  0  0  0
 30 34  1  0  0  0  0
 31 35  1  0  0  0  0
 31 48  1  0  0  0  0
 32 36  2  0  0  0  0
 32 49  1  0  0  0  0
 33 38  1  0  0  0  0
 33 51  1  0  0  0  0
 34 39  2  0  0  0  0
 34 52  1  0  0  0  0
 35 37  2  0  0  0  0
 35 53  1  0  0  0  0
 36 37  1  0  0  0  0
 36 54  1  0  0  0  0
 38 40  2  0  0  0  0
 38 55  1  0  0  0  0
 39 40  1  0  0  0  0
 39 56  1  0  0  0  0
M  END
> <PUBCHEM_COMPOUND_CID>
5281599

> <PUBCHEM_COMPOUND_CANONICALIZED>
1

> <PUBCHEM_CACTVS_COMPLEXITY>
1040

> <PUBCHEM_CACTVS_HBOND_ACCEPTOR>
10

> <PUBCHEM_CACTVS_HBOND_DONOR>
6

> <PUBCHEM_CACTVS_ROTATABLE_BOND>
3

> <PUBCHEM_CACTVS_SUBSKEYS>
AAADceB4PAAAAAAAAAAAAAAAAAAAAAAAAAAwYMGCAAAAAACBVAAAGgAACAAADASAmAAwBoAABgCIAqBSAAACCAAkIAAIiAEGCMgMJzaGNRqCeWCl4BUIuQfI7PzOoAACCAAIAABAAAQQABAAAAAAAAAAAA==

> <PUBCHEM_IUPAC_OPENEYE_NAME>
8-[5,7-dihydroxy-2-(4-hydroxyphenyl)-4-oxo-chromen-6-yl]-5,7-dihydroxy-2-(4-hydroxyphenyl)chromen-4-one

> <PUBCHEM_IUPAC_CAS_NAME>
8-[5,7-dihydroxy-2-(4-hydroxyphenyl)-4-oxo-1-benzopyran-6-yl]-5,7-dihydroxy-2-(4-hydroxyphenyl)-1-benzopyran-4-one

> <PUBCHEM_IUPAC_NAME>
8-[5,7-dihydroxy-2-(4-hydroxyphenyl)-4-oxochromen-6-yl]-5,7-dihydroxy-2-(4-hydroxyphenyl)chromen-4-one

> <PUBCHEM_IUPAC_SYSTEMATIC_NAME>
2-(4-hydroxyphenyl)-8-[2-(4-hydroxyphenyl)-5,7-bis(oxidanyl)-4-oxidanylidene-chromen-6-yl]-5,7-bis(oxidanyl)chromen-4-one

> <PUBCHEM_IUPAC_TRADITIONAL_NAME>
8-[5,7-dihydroxy-2-(4-hydroxyphenyl)-4-keto-chromen-6-yl]-5,7-dihydroxy-2-(4-hydroxyphenyl)chromone

> <PUBCHEM_IUPAC_INCHI>
InChI=1S/C30H18O10/c31-15-5-1-13(2-6-15)22-11-20(36)26-24(39-22)12-21(37)27(29(26)38)28-18(34)9-17(33)25-19(35)10-23(40-30(25)28)14-3-7-16(32)8-4-14/h1-12,31-34,37-38H

> <PUBCHEM_IUPAC_INCHIKEY>
BACLASYRJRZXMY-UHFFFAOYSA-N

> <PUBCHEM_XLOGP3_AA>
5

> <PUBCHEM_EXACT_MASS>
538.089997

> <PUBCHEM_MOLECULAR_FORMULA>
C30H18O10

> <PUBCHEM_MOLECULAR_WEIGHT>
538.45792

> <PUBCHEM_OPENEYE_CAN_SMILES>
C1=CC(=CC=C1C2=CC(=O)C3=C(C(=C(C=C3O2)O)C4=C(C=C(C5=C4OC(=CC5=O)C6=CC=C(C=C6)O)O)O)O)O

> <PUBCHEM_OPENEYE_ISO_SMILES>
C1=CC(=CC=C1C2=CC(=O)C3=C(C(=C(C=C3O2)O)C4=C(C=C(C5=C4OC(=CC5=O)C6=CC=C(C=C6)O)O)O)O)O

> <PUBCHEM_CACTVS_TPSA>
174

> <PUBCHEM_MONOISOTOPIC_WEIGHT>
538.089997

> <PUBCHEM_TOTAL_CHARGE>
0

> <PUBCHEM_HEAVY_ATOM_COUNT>
40

> <PUBCHEM_ATOM_DEF_STEREO_COUNT>
0

> <PUBCHEM_ATOM_UDEF_STEREO_COUNT>
0

> <PUBCHEM_BOND_DEF_STEREO_COUNT>
0

> <PUBCHEM_BOND_UDEF_STEREO_COUNT>
0

> <PUBCHEM_ISOTOPIC_ATOM_COUNT>
0

> <PUBCHEM_COMPONENT_COUNT>
1

> <PUBCHEM_CACTVS_TAUTO_COUNT>
998

> <PUBCHEM_COORDINATE_TYPE>
1
5
255

> <PUBCHEM_BONDANNOTATIONS>
1  13  8
1  24  8
11  13  8
11  19  8
12  16  8
12  18  8
13  14  8
14  21  8
14  23  8
15  16  8
15  17  8
15  25  8
17  20  8
18  20  8
19  22  8
2  17  8
2  26  8
21  22  8
23  27  8
24  27  8
25  28  8
26  28  8
29  31  8
29  32  8
30  33  8
30  34  8
31  35  8
32  36  8
33  38  8
34  39  8
35  37  8
36  37  8
38  40  8
39  40  8

$$$$

