583377
  -OEChem-06241222453D

 40 43  0     0  0  0  0  0  0999 V2000
    5.4241   -2.5625    0.1769 F   0  0  0  0  0  0  0  0  0  0  0  0
    3.5474   -2.3736    1.2474 F   0  0  0  0  0  0  0  0  0  0  0  0
    3.5500   -2.4941   -0.9238 F   0  0  0  0  0  0  0  0  0  0  0  0
   -0.2948    0.6966   -0.0485 N   0  0  0  0  0  0  0  0  0  0  0  0
   -3.1218    0.1285   -0.0125 N   0  0  0  0  0  0  0  0  0  0  0  0
    1.9079   -0.0228    0.0036 N   0  0  0  0  0  0  0  0  0  0  0  0
    3.2086    0.3597   -0.0191 N   0  0  0  0  0  0  0  0  0  0  0  0
    5.0233    1.5939   -0.0967 N   0  0  0  0  0  0  0  0  0  0  0  0
    5.3991    0.2690   -0.0087 N   0  0  0  0  0  0  0  0  0  0  0  0
   -1.2560    1.6450    0.5139 C   0  0  0  0  0  0  0  0  0  0  0  0
   -0.8285   -0.5521   -0.5922 C   0  0  0  0  0  0  0  0  0  0  0  0
   -2.4982    0.9279    1.0441 C   0  0  0  0  0  0  0  0  0  0  0  0
   -2.2639   -0.3731   -1.0882 C   0  0  0  0  0  0  0  0  0  0  0  0
    1.0444    0.9648   -0.0636 C   0  0  0  0  0  0  0  0  0  0  0  0
   -4.4865   -0.1456    0.0048 C   0  0  0  0  0  0  0  0  0  0  0  0
    1.4707    2.4055   -0.1585 C   0  0  0  0  0  0  0  0  0  0  0  0
   -5.2151   -0.3303   -1.1934 C   0  0  0  0  0  0  0  0  0  0  0  0
   -5.2006   -0.2517    1.2211 C   0  0  0  0  0  0  0  0  0  0  0  0
    3.7079    1.6375   -0.1032 C   0  0  0  0  0  0  0  0  0  0  0  0
    2.7776    2.6906   -0.1753 C   0  0  0  0  0  0  0  0  0  0  0  0
    4.3029   -0.4538    0.0373 C   0  0  0  0  0  0  0  0  0  0  0  0
   -6.5824   -0.6058   -1.1764 C   0  0  0  0  0  0  0  0  0  0  0  0
   -6.5679   -0.5272    1.2383 C   0  0  0  0  0  0  0  0  0  0  0  0
   -7.2587   -0.7043    0.0395 C   0  0  0  0  0  0  0  0  0  0  0  0
    4.2105   -1.9219    0.1333 C   0  0  0  0  0  0  0  0  0  0  0  0
   -0.8098    2.2031    1.3457 H   0  0  0  0  0  0  0  0  0  0  0  0
   -1.5469    2.3654   -0.2606 H   0  0  0  0  0  0  0  0  0  0  0  0
   -0.2116   -0.8987   -1.4301 H   0  0  0  0  0  0  0  0  0  0  0  0
   -0.7921   -1.3234    0.1869 H   0  0  0  0  0  0  0  0  0  0  0  0
   -3.1926    1.6890    1.4204 H   0  0  0  0  0  0  0  0  0  0  0  0
   -2.2266    0.2734    1.8815 H   0  0  0  0  0  0  0  0  0  0  0  0
   -2.6191   -1.3454   -1.4511 H   0  0  0  0  0  0  0  0  0  0  0  0
   -2.2867    0.3314   -1.9288 H   0  0  0  0  0  0  0  0  0  0  0  0
    0.7322    3.1934   -0.2338 H   0  0  0  0  0  0  0  0  0  0  0  0
   -4.7228   -0.2479   -2.1598 H   0  0  0  0  0  0  0  0  0  0  0  0
   -4.6915   -0.1326    2.1749 H   0  0  0  0  0  0  0  0  0  0  0  0
    3.1252    3.7145   -0.2514 H   0  0  0  0  0  0  0  0  0  0  0  0
   -7.1213   -0.7409   -2.1096 H   0  0  0  0  0  0  0  0  0  0  0  0
   -7.0944   -0.6069    2.1849 H   0  0  0  0  0  0  0  0  0  0  0  0
   -8.3233   -0.9188    0.0529 H   0  0  0  0  0  0  0  0  0  0  0  0
  1 25  1  0  0  0  0
  2 25  1  0  0  0  0
  3 25  1  0  0  0  0
  4 10  1  0  0  0  0
  4 11  1  0  0  0  0
  4 14  1  0  0  0  0
  5 12  1  0  0  0  0
  5 13  1  0  0  0  0
  5 15  1  0  0  0  0
  6  7  1  0  0  0  0
  6 14  2  0  0  0  0
  7 19  1  0  0  0  0
  7 21  1  0  0  0  0
  8  9  1  0  0  0  0
  8 19  2  0  0  0  0
  9 21  2  0  0  0  0
 10 12  1  0  0  0  0
 10 26  1  0  0  0  0
 10 27  1  0  0  0  0
 11 13  1  0  0  0  0
 11 28  1  0  0  0  0
 11 29  1  0  0  0  0
 12 30  1  0  0  0  0
 12 31  1  0  0  0  0
 13 32  1  0  0  0  0
 13 33  1  0  0  0  0
 14 16  1  0  0  0  0
 15 17  2  0  0  0  0
 15 18  1  0  0  0  0
 16 20  2  0  0  0  0
 16 34  1  0  0  0  0
 17 22  1  0  0  0  0
 17 35  1  0  0  0  0
 18 23  2  0  0  0  0
 18 36  1  0  0  0  0
 19 20  1  0  0  0  0
 20 37  1  0  0  0  0
 21 25  1  0  0  0  0
 22 24  2  0  0  0  0
 22 38  1  0  0  0  0
 23 24  1  0  0  0  0
 23 39  1  0  0  0  0
 24 40  1  0  0  0  0
M  END
> <PUBCHEM_COMPOUND_CID>
583377

> <PUBCHEM_CONFORMER_RMSD>
0.8

> <PUBCHEM_CONFORMER_DIVERSEORDER>
1
5
4
2
3
6

> <PUBCHEM_MMFF94_PARTIAL_CHARGES>
32
1 -0.34
10 0.37
11 0.37
12 0.37
13 0.37
14 0.49
15 0.1
16 -0.14
17 -0.15
18 -0.15
19 0.14
2 -0.34
20 -0.11
21 0.01
22 -0.15
23 -0.15
24 -0.15
25 1.2
3 -0.34
34 0.15
35 0.15
36 0.15
37 0.15
38 0.15
39 0.15
4 -0.79
40 0.15
5 -0.84
6 -0.65
7 0.51
8 -0.34
9 -0.34

> <PUBCHEM_EFFECTIVE_ROTOR_COUNT>
4.2

> <PUBCHEM_PHARMACOPHORE_FEATURES>
8
1 5 cation
3 4 6 14 cation
3 7 8 19 cation
3 7 9 21 cation
5 7 8 9 19 21 rings
6 15 17 18 22 23 24 rings
6 4 5 10 11 12 13 rings
6 6 7 14 16 19 20 rings

> <PUBCHEM_HEAVY_ATOM_COUNT>
25

> <PUBCHEM_ATOM_DEF_STEREO_COUNT>
0

> <PUBCHEM_ATOM_UDEF_STEREO_COUNT>
0

> <PUBCHEM_BOND_DEF_STEREO_COUNT>
0

> <PUBCHEM_BOND_UDEF_STEREO_COUNT>
0

> <PUBCHEM_ISOTOPIC_ATOM_COUNT>
0

> <PUBCHEM_COMPONENT_COUNT>
1

> <PUBCHEM_CACTVS_TAUTO_COUNT>
1

> <PUBCHEM_CONFORMER_ID>
0008E6D100000001

> <PUBCHEM_MMFF94_ENERGY>
68.6642

> <PUBCHEM_FEATURE_SELFOVERLAP>
43.21

> <PUBCHEM_SHAPE_FINGERPRINT>
10411042 1 18267305529532429838
10673678 19 17129563667241147052
11059845 2 16085849264781564866
11719270 70 17675924309629020503
12107183 9 17901938974298291089
12166972 35 18186518787299660985
12236239 1 18040432175207030937
12616971 3 18113336401988559389
12730499 353 18201998785947785472
13073987 5 18408323310651482777
13533116 47 18408322172526918672
1361 2 18408602582463191626
13685833 64 18272649047993661459
13782708 43 17917716803417649763
13785724 45 17899964229929711590
13911852 28 18267306615246669142
13914758 101 18410295852809602013
13955234 65 18337957779531349664
14251740 57 17677043668058078110
14251764 18 17822010891234060044
14341114 176 18412539907979282725
14347332 77 18408887373549929837
15183329 4 18040997320020590149
15250474 111 18042135262694445519
15483637 11 18053661373963288490
17349148 13 17894628158518913845
17492 89 18190738841991958710
17844677 252 18341891918103189797
17857418 61 18187085048904235037
19377110 9 17603577543821698139
19427546 62 18054506907653845724
20028762 73 18187085091327420695
20554085 129 15357692029347894703
20567600 75 18060424608130385117
20645477 70 18413673521763440076
21033648 29 18059031484059784853
21065198 48 18260823825790451360
21267235 1 18335978757754293806
21279426 13 18200881789613824661
21315763 178 17967536748528441349
21344244 78 18187096074175455800
21623969 137 18343861104531257291
21682296 61 18339921614788478887
220451 1 18187642462655433029
22061861 79 18202848747233050471
22224240 67 18263371305076970840
22956985 138 16953074681486313119
2303208 19 17632853110563754211
23081809 10 17967531251708754577
23522609 53 17896855717886100801
23559900 14 18059294262811364041
23569914 152 17263606525853288783
239999 70 17703792479421952944
3004659 81 18342460356824082222
3014965 18 18412831291645973053
314194 84 18334575720339264625
345986 75 18187370981724963192
34797466 226 16845286095488715229
4073 2 18129378194611589003
46194498 28 17561366154144082644
465052 167 18408881841125410287
5104073 3 18261674877897352064
531348 171 18408892858839878053
54039377 194 18266456685070920918
6025842 7 18270396093061159756
7970288 3 18125444356914923298

> <PUBCHEM_SHAPE_MULTIPOLES>
462.78
17.5
2.35
1.04
17.12
0.36
0.05
6.62
0.58
-5.27
0.1
1.48
0.22
-0.69

> <PUBCHEM_SHAPE_SELFOVERLAP>
1010.404

> <PUBCHEM_SHAPE_VOLUME>
252.2

> <PUBCHEM_COORDINATE_TYPE>
2
5
10

$$$$

