439982
  -OEChem-07051212483D

 19 19  0     1  0  0  0  0  0999 V2000
    3.5379   -0.1898   -0.2261 O   0  0  0  0  0  0  0  0  0  0  0  0
    2.1522   -1.8521    0.4418 O   0  0  0  0  0  0  0  0  0  0  0  0
   -2.6258   -0.8768    1.2490 O   0  0  0  0  0  0  0  0  0  0  0  0
   -3.0699   -0.8716   -0.9944 O   0  0  0  0  0  0  0  0  0  0  0  0
   -0.0376   -0.5652   -0.2879 N   0  0  0  0  0  0  0  0  0  0  0  0
    1.2074    0.1905   -0.4700 C   0  0  1  0  0  0  0  0  0  0  0  0
    1.2490    1.4882    0.3353 C   0  0  0  0  0  0  0  0  0  0  0  0
   -0.0386    2.2410    0.2126 C   0  0  0  0  0  0  0  0  0  0  0  0
   -1.0998    0.1448   -0.1368 C   0  0  0  0  0  0  0  0  0  0  0  0
   -1.1903    1.6149   -0.0469 C   0  0  0  0  0  0  0  0  0  0  0  0
    2.3020   -0.7298   -0.0357 C   0  0  0  0  0  0  0  0  0  0  0  0
   -2.3865   -0.5941   -0.0411 C   0  0  0  0  0  0  0  0  0  0  0  0
    1.3378    0.3843   -1.5423 H   0  0  0  0  0  0  0  0  0  0  0  0
    2.0691    2.1163   -0.0332 H   0  0  0  0  0  0  0  0  0  0  0  0
    1.4503    1.2989    1.3972 H   0  0  0  0  0  0  0  0  0  0  0  0
   -0.0279    3.3166    0.3562 H   0  0  0  0  0  0  0  0  0  0  0  0
   -2.1420    2.1230   -0.1174 H   0  0  0  0  0  0  0  0  0  0  0  0
    4.2503   -0.7998    0.0615 H   0  0  0  0  0  0  0  0  0  0  0  0
   -3.4671   -1.3662    1.3715 H   0  0  0  0  0  0  0  0  0  0  0  0
  1 11  1  0  0  0  0
  1 18  1  0  0  0  0
  2 11  2  0  0  0  0
  3 12  1  0  0  0  0
  3 19  1  0  0  0  0
  4 12  2  0  0  0  0
  5  6  1  0  0  0  0
  5  9  2  0  0  0  0
  6  7  1  0  0  0  0
  6 11  1  0  0  0  0
  6 13  1  0  0  0  0
  7  8  1  0  0  0  0
  7 14  1  0  0  0  0
  7 15  1  0  0  0  0
  8 10  2  0  0  0  0
  8 16  1  0  0  0  0
  9 10  1  0  0  0  0
  9 12  1  0  0  0  0
 10 17  1  0  0  0  0
M  END
> <PUBCHEM_COMPOUND_CID>
439982

> <PUBCHEM_CONFORMER_RMSD>
0.6

> <PUBCHEM_CONFORMER_DIVERSEORDER>
1
7
2
3
5
6
4

> <PUBCHEM_MMFF94_PARTIAL_CHARGES>
16
1 -0.65
10 -0.14
11 0.66
12 0.72
16 0.15
17 0.15
18 0.5
19 0.5
2 -0.57
3 -0.65
4 -0.57
5 -0.7
6 0.31
7 0.14
8 -0.29
9 0.44

> <PUBCHEM_EFFECTIVE_ROTOR_COUNT>
2.4

> <PUBCHEM_PHARMACOPHORE_FEATURES>
8
1 1 acceptor
1 2 acceptor
1 3 acceptor
1 4 acceptor
1 5 acceptor
3 1 2 11 anion
3 3 4 12 anion
6 5 6 7 8 9 10 rings

> <PUBCHEM_HEAVY_ATOM_COUNT>
12

> <PUBCHEM_ATOM_DEF_STEREO_COUNT>
1

> <PUBCHEM_ATOM_UDEF_STEREO_COUNT>
0

> <PUBCHEM_BOND_DEF_STEREO_COUNT>
0

> <PUBCHEM_BOND_UDEF_STEREO_COUNT>
0

> <PUBCHEM_ISOTOPIC_ATOM_COUNT>
0

> <PUBCHEM_COMPONENT_COUNT>
1

> <PUBCHEM_CACTVS_TAUTO_COUNT>
1

> <PUBCHEM_CONFORMER_ID>
0006B6AE00000001

> <PUBCHEM_MMFF94_ENERGY>
20.9662

> <PUBCHEM_FEATURE_SELFOVERLAP>
40.72

> <PUBCHEM_SHAPE_FINGERPRINT>
10857977 72 18334869337141139264
14128692 85 18335136479643353444
161256 15 18334864874633559040
16945 1 18266740190500960660
20201158 50 18272654527929098803
20645477 70 18190186681160130223
20653085 51 8718249295863892414
20711985 344 18058465346686579165
20871998 184 18115588299768905909
20871998 22 18188477055920296678
23552423 10 18342735213061290412
2748010 2 18336273404742060764
3312278 4 18343298201674406210
81228 2 18195243544930279609

> <PUBCHEM_SHAPE_MULTIPOLES>
218.5
4.4
1.94
0.81
0.43
0.85
0.07
-2.3
-0.11
0.18
0.24
-0.4
-0.15
-0.05

> <PUBCHEM_SHAPE_SELFOVERLAP>
452.823

> <PUBCHEM_SHAPE_VOLUME>
123.3

> <PUBCHEM_COORDINATE_TYPE>
2
5
10

$$$$

