12976
  -OEChem-07051213002D

 14 13  0     0  0  0  0  0  0999 V2000
    2.8660   -0.4400    0.0000 O   0  0  0  0  0  0  0  0  0  0  0  0
    3.7320    1.0600    0.0000 O   0  0  0  0  0  0  0  0  0  0  0  0
    5.4641    1.0600    0.0000 O   0  0  0  0  0  0  0  0  0  0  0  0
    4.5981   -0.4400    0.0000 N   0  0  0  0  0  0  0  0  0  0  0  0
    6.3301   -0.4400    0.0000 N   0  0  0  0  0  0  0  0  0  0  0  0
    3.7320    0.0600    0.0000 C   0  0  0  0  0  0  0  0  0  0  0  0
    5.4641    0.0600    0.0000 C   0  0  0  0  0  0  0  0  0  0  0  0
    2.0000    0.0600    0.0000 C   0  0  0  0  0  0  0  0  0  0  0  0
    4.5981   -1.0600    0.0000 H   0  0  0  0  0  0  0  0  0  0  0  0
    2.3100    0.5969    0.0000 H   0  0  0  0  0  0  0  0  0  0  0  0
    1.4631    0.3700    0.0000 H   0  0  0  0  0  0  0  0  0  0  0  0
    1.6900   -0.4769    0.0000 H   0  0  0  0  0  0  0  0  0  0  0  0
    6.8671   -0.1300    0.0000 H   0  0  0  0  0  0  0  0  0  0  0  0
    6.3301   -1.0600    0.0000 H   0  0  0  0  0  0  0  0  0  0  0  0
  1  6  1  0  0  0  0
  1  8  1  0  0  0  0
  2  6  2  0  0  0  0
  3  7  2  0  0  0  0
  4  6  1  0  0  0  0
  4  7  1  0  0  0  0
  4  9  1  0  0  0  0
  5  7  1  0  0  0  0
  5 13  1  0  0  0  0
  5 14  1  0  0  0  0
  8 10  1  0  0  0  0
  8 11  1  0  0  0  0
  8 12  1  0  0  0  0
M  END
> <PUBCHEM_COMPOUND_CID>
12976

> <PUBCHEM_COMPOUND_CANONICALIZED>
1

> <PUBCHEM_CACTVS_COMPLEXITY>
111

> <PUBCHEM_CACTVS_HBOND_ACCEPTOR>
3

> <PUBCHEM_CACTVS_HBOND_DONOR>
2

> <PUBCHEM_CACTVS_ROTATABLE_BOND>
1

> <PUBCHEM_CACTVS_SUBSKEYS>
AAADcYBDMAAAAAAAAAAAAAAAAAAAAAAAAAAAAAAAAAAAAAAAAAAAFgAQAAAAAAAAAAIDCALABAAIAAAAGAAAAAAAAAAAAAAAAAGAAAAAAAAAAAAAASAAAAAAAAAAAAAAAAAAAAAAAAAAAAAAAAAAAAAAAA==

> <PUBCHEM_IUPAC_OPENEYE_NAME>
methyl N-carbamoylcarbamate

> <PUBCHEM_IUPAC_CAS_NAME>
N-carbamoylcarbamic acid methyl ester

> <PUBCHEM_IUPAC_NAME>
methyl N-carbamoylcarbamate

> <PUBCHEM_IUPAC_SYSTEMATIC_NAME>
methyl N-aminocarbonylcarbamate

> <PUBCHEM_IUPAC_TRADITIONAL_NAME>
N-carbamoylcarbamic acid methyl ester

> <PUBCHEM_IUPAC_INCHI>
InChI=1S/C3H6N2O3/c1-8-3(7)5-2(4)6/h1H3,(H3,4,5,6,7)

> <PUBCHEM_IUPAC_INCHIKEY>
ICYIIEFSHYSYRV-UHFFFAOYSA-N

> <PUBCHEM_XLOGP3_AA>
-0.3

> <PUBCHEM_EXACT_MASS>
118.037842

> <PUBCHEM_MOLECULAR_FORMULA>
C3H6N2O3

> <PUBCHEM_MOLECULAR_WEIGHT>
118.09134

> <PUBCHEM_OPENEYE_CAN_SMILES>
COC(=O)NC(=O)N

> <PUBCHEM_OPENEYE_ISO_SMILES>
COC(=O)NC(=O)N

> <PUBCHEM_CACTVS_TPSA>
81.4

> <PUBCHEM_MONOISOTOPIC_WEIGHT>
118.037842

> <PUBCHEM_TOTAL_CHARGE>
0

> <PUBCHEM_HEAVY_ATOM_COUNT>
8

> <PUBCHEM_ATOM_DEF_STEREO_COUNT>
0

> <PUBCHEM_ATOM_UDEF_STEREO_COUNT>
0

> <PUBCHEM_BOND_DEF_STEREO_COUNT>
0

> <PUBCHEM_BOND_UDEF_STEREO_COUNT>
0

> <PUBCHEM_ISOTOPIC_ATOM_COUNT>
0

> <PUBCHEM_COMPONENT_COUNT>
1

> <PUBCHEM_CACTVS_TAUTO_COUNT>
5

> <PUBCHEM_COORDINATE_TYPE>
1
5
255

$$$$

