3894
  -OEChem-06251223452D

 47 49  0     1  0  0  0  0  0999 V2000
    8.0622    1.5950    0.0000 O   0  0  0  0  0  0  0  0  0  0  0  0
    2.8660    1.5950    0.0000 O   0  0  0  0  0  0  0  0  0  0  0  0
    5.4641   -3.9050    0.0000 O   0  0  0  0  0  0  0  0  0  0  0  0
    4.5981    3.5950    0.0000 O   0  0  0  0  0  0  0  0  0  0  0  0
    2.8660   -2.4050    0.0000 O   0  0  0  0  0  0  0  0  0  0  0  0
    3.7320   -3.9050    0.0000 O   0  0  0  0  0  0  0  0  0  0  0  0
    5.4641    0.0950    0.0000 N   0  0  3  0  0  0  0  0  0  0  0  0
    6.3301    0.5950    0.0000 C   0  0  0  0  0  0  0  0  0  0  0  0
    4.5981    0.5950    0.0000 C   0  0  0  0  0  0  0  0  0  0  0  0
    5.4641   -0.9050    0.0000 C   0  0  0  0  0  0  0  0  0  0  0  0
    6.3301    1.5950    0.0000 C   0  0  0  0  0  0  0  0  0  0  0  0
    3.7320    0.0950    0.0000 C   0  0  0  0  0  0  0  0  0  0  0  0
    4.5981   -1.4050    0.0000 C   0  0  0  0  0  0  0  0  0  0  0  0
    6.3301   -1.4050    0.0000 C   0  0  0  0  0  0  0  0  0  0  0  0
    7.1962    2.0950    0.0000 C   0  0  0  0  0  0  0  0  0  0  0  0
    5.4641    2.0950    0.0000 C   0  0  0  0  0  0  0  0  0  0  0  0
    2.8660    0.5950    0.0000 C   0  0  0  0  0  0  0  0  0  0  0  0
    4.5981   -2.4050    0.0000 C   0  0  0  0  0  0  0  0  0  0  0  0
    3.7320   -0.9050    0.0000 C   0  0  0  0  0  0  0  0  0  0  0  0
    6.3301   -2.4050    0.0000 C   0  0  0  0  0  0  0  0  0  0  0  0
    5.4641   -2.9050    0.0000 C   0  0  0  0  0  0  0  0  0  0  0  0
    5.4641    3.0950    0.0000 C   0  0  0  0  0  0  0  0  0  0  0  0
    7.1962    3.0950    0.0000 C   0  0  0  0  0  0  0  0  0  0  0  0
    2.0000    0.0950    0.0000 C   0  0  0  0  0  0  0  0  0  0  0  0
    2.8660   -1.4050    0.0000 C   0  0  0  0  0  0  0  0  0  0  0  0
    6.3301    3.5950    0.0000 C   0  0  0  0  0  0  0  0  0  0  0  0
    2.0000   -0.9050    0.0000 C   0  0  0  0  0  0  0  0  0  0  0  0
    3.7320   -2.9050    0.0000 C   0  0  0  0  0  0  0  0  0  0  0  0
    6.5422    0.0124    0.0000 H   0  0  0  0  0  0  0  0  0  0  0  0
    6.9407    0.7027    0.0000 H   0  0  0  0  0  0  0  0  0  0  0  0
    4.9966    1.0700    0.0000 H   0  0  0  0  0  0  0  0  0  0  0  0
    4.1996    1.0700    0.0000 H   0  0  0  0  0  0  0  0  0  0  0  0
    4.0611   -1.0950    0.0000 H   0  0  0  0  0  0  0  0  0  0  0  0
    6.8671   -1.0950    0.0000 H   0  0  0  0  0  0  0  0  0  0  0  0
    4.9272    1.7850    0.0000 H   0  0  0  0  0  0  0  0  0  0  0  0
    4.2690   -1.2150    0.0000 H   0  0  0  0  0  0  0  0  0  0  0  0
    6.8671   -2.7150    0.0000 H   0  0  0  0  0  0  0  0  0  0  0  0
    7.7331    3.4050    0.0000 H   0  0  0  0  0  0  0  0  0  0  0  0
    1.4631    0.4050    0.0000 H   0  0  0  0  0  0  0  0  0  0  0  0
    2.8660   -2.0250    0.0000 H   0  0  0  0  0  0  0  0  0  0  0  0
    6.3301    4.2150    0.0000 H   0  0  0  0  0  0  0  0  0  0  0  0
    1.4631   -1.2150    0.0000 H   0  0  0  0  0  0  0  0  0  0  0  0
    8.5991    1.9050    0.0000 H   0  0  0  0  0  0  0  0  0  0  0  0
    2.3291    1.9050    0.0000 H   0  0  0  0  0  0  0  0  0  0  0  0
    6.0010   -4.2150    0.0000 H   0  0  0  0  0  0  0  0  0  0  0  0
    4.5981    4.2150    0.0000 H   0  0  0  0  0  0  0  0  0  0  0  0
    2.3291   -2.7150    0.0000 H   0  0  0  0  0  0  0  0  0  0  0  0
  1 15  1  0  0  0  0
  1 43  1  0  0  0  0
  2 17  1  0  0  0  0
  2 44  1  0  0  0  0
  3 21  1  0  0  0  0
  3 45  1  0  0  0  0
  4 22  1  0  0  0  0
  4 46  1  0  0  0  0
  5 28  1  0  0  0  0
  5 47  1  0  0  0  0
  6 28  2  0  0  0  0
  7  8  1  0  0  0  0
  7  9  1  0  0  0  0
  7 10  1  0  0  0  0
  8 11  1  0  0  0  0
  8 29  1  0  0  0  0
  8 30  1  0  0  0  0
  9 12  1  0  0  0  0
  9 31  1  0  0  0  0
  9 32  1  0  0  0  0
 10 13  2  0  0  0  0
 10 14  1  0  0  0  0
 11 15  2  0  0  0  0
 11 16  1  0  0  0  0
 12 17  1  0  0  0  0
 12 19  2  0  0  0  0
 13 18  1  0  0  0  0
 13 33  1  0  0  0  0
 14 20  2  0  0  0  0
 14 34  1  0  0  0  0
 15 23  1  0  0  0  0
 16 22  2  0  0  0  0
 16 35  1  0  0  0  0
 17 24  2  0  0  0  0
 18 21  2  0  0  0  0
 18 28  1  0  0  0  0
 19 25  1  0  0  0  0
 19 36  1  0  0  0  0
 20 21  1  0  0  0  0
 20 37  1  0  0  0  0
 22 26  1  0  0  0  0
 23 26  2  0  0  0  0
 23 38  1  0  0  0  0
 24 27  1  0  0  0  0
 24 39  1  0  0  0  0
 25 27  2  0  0  0  0
 25 40  1  0  0  0  0
 26 41  1  0  0  0  0
 27 42  1  0  0  0  0
M  END
> <PUBCHEM_COMPOUND_CID>
3894

> <PUBCHEM_COMPOUND_CANONICALIZED>
1

> <PUBCHEM_CACTVS_COMPLEXITY>
517

> <PUBCHEM_CACTVS_HBOND_ACCEPTOR>
7

> <PUBCHEM_CACTVS_HBOND_DONOR>
5

> <PUBCHEM_CACTVS_ROTATABLE_BOND>
6

> <PUBCHEM_CACTVS_SUBSKEYS>
AAADceB6OAAAAAAAAAAAAAAAAAAAAAAAAAAwYMAAAAAAAAABUAAAHgAACAAADAzBmAQwzoMAAgCIAiTSSACCAAAlIgAIiAEObMgIJzbClZOEcUhn4BHI2Yf8yDCOAUABQAAIAAACgAKAABAAAAAAAAAAAA==

> <PUBCHEM_IUPAC_OPENEYE_NAME>
5-[(2,5-dihydroxyphenyl)methyl-[(2-hydroxyphenyl)methyl]amino]-2-hydroxy-benzoic acid

> <PUBCHEM_IUPAC_CAS_NAME>
5-[(2,5-dihydroxyphenyl)methyl-[(2-hydroxyphenyl)methyl]amino]-2-hydroxybenzoic acid

> <PUBCHEM_IUPAC_NAME>
5-[(2,5-dihydroxyphenyl)methyl-[(2-hydroxyphenyl)methyl]amino]-2-hydroxybenzoic acid

> <PUBCHEM_IUPAC_SYSTEMATIC_NAME>
5-[[2,5-bis(oxidanyl)phenyl]methyl-[(2-hydroxyphenyl)methyl]amino]-2-oxidanyl-benzoic acid

> <PUBCHEM_IUPAC_TRADITIONAL_NAME>
5-[(2,5-dihydroxybenzyl)-salicyl-amino]-2-hydroxy-benzoic acid

> <PUBCHEM_IUPAC_INCHI>
InChI=1S/C21H19NO6/c23-16-6-8-19(25)14(9-16)12-22(11-13-3-1-2-4-18(13)24)15-5-7-20(26)17(10-15)21(27)28/h1-10,23-26H,11-12H2,(H,27,28)

> <PUBCHEM_IUPAC_INCHIKEY>
ULTTYPMRMMDONC-UHFFFAOYSA-N

> <PUBCHEM_XLOGP3_AA>
3.7

> <PUBCHEM_EXACT_MASS>
381.121237

> <PUBCHEM_MOLECULAR_FORMULA>
C21H19NO6

> <PUBCHEM_MOLECULAR_WEIGHT>
381.37866

> <PUBCHEM_OPENEYE_CAN_SMILES>
C1=CC=C(C(=C1)CN(CC2=C(C=CC(=C2)O)O)C3=CC(=C(C=C3)O)C(=O)O)O

> <PUBCHEM_OPENEYE_ISO_SMILES>
C1=CC=C(C(=C1)CN(CC2=C(C=CC(=C2)O)O)C3=CC(=C(C=C3)O)C(=O)O)O

> <PUBCHEM_CACTVS_TPSA>
122

> <PUBCHEM_MONOISOTOPIC_WEIGHT>
381.121237

> <PUBCHEM_TOTAL_CHARGE>
0

> <PUBCHEM_HEAVY_ATOM_COUNT>
28

> <PUBCHEM_ATOM_DEF_STEREO_COUNT>
0

> <PUBCHEM_ATOM_UDEF_STEREO_COUNT>
0

> <PUBCHEM_BOND_DEF_STEREO_COUNT>
0

> <PUBCHEM_BOND_UDEF_STEREO_COUNT>
0

> <PUBCHEM_ISOTOPIC_ATOM_COUNT>
0

> <PUBCHEM_COMPONENT_COUNT>
1

> <PUBCHEM_CACTVS_TAUTO_COUNT>
72

> <PUBCHEM_COORDINATE_TYPE>
1
5
255

> <PUBCHEM_BONDANNOTATIONS>
10  13  8
10  14  8
11  15  8
11  16  8
12  17  8
12  19  8
13  18  8
14  20  8
15  23  8
16  22  8
17  24  8
18  21  8
19  25  8
20  21  8
22  26  8
23  26  8
24  27  8
25  27  8

$$$$

