10454589
  -OEChem-07051213112D

 62 64  0     1  0  0  0  0  0999 V2000
    2.8660   -0.4026    0.0000 O   0  0  0  0  0  0  0  0  0  0  0  0
    6.3052   -0.4275    0.0000 O   0  0  0  0  0  0  0  0  0  0  0  0
    6.3301   -2.4026    0.0000 O   0  0  0  0  0  0  0  0  0  0  0  0
    8.3052    3.0366    0.0000 O   0  0  0  0  0  0  0  0  0  0  0  0
    4.5981   -3.4026    0.0000 O   0  0  0  0  0  0  0  0  0  0  0  0
    9.3052    1.3045    0.0000 O   0  0  0  0  0  0  0  0  0  0  0  0
    4.5981    0.5974    0.0000 C   0  0  1  0  0  0  0  0  0  0  0  0
    5.3052    1.3045    0.0000 C   0  0  1  0  0  0  0  0  0  0  0  0
    3.8910    1.3045    0.0000 C   0  0  1  0  0  0  0  0  0  0  0  0
    4.5981    2.0116    0.0000 C   0  0  1  0  0  0  0  0  0  0  0  0
    4.5981   -0.4026    0.0000 C   0  0  0  0  0  0  0  0  0  0  0  0
    6.3052    1.3045    0.0000 C   0  0  0  0  0  0  0  0  0  0  0  0
    2.8910    1.3045    0.0000 C   0  0  0  0  0  0  0  0  0  0  0  0
    4.5981    3.0116    0.0000 C   0  0  0  0  0  0  0  0  0  0  0  0
    3.7320   -0.9026    0.0000 C   0  0  0  0  0  0  0  0  0  0  0  0
    6.8052    0.4385    0.0000 C   0  0  0  0  0  0  0  0  0  0  0  0
    5.4641   -0.9026    0.0000 C   0  0  0  0  0  0  0  0  0  0  0  0
    6.8052    2.1705    0.0000 C   0  0  0  0  0  0  0  0  0  0  0  0
    5.4641   -1.9026    0.0000 C   0  0  0  0  0  0  0  0  0  0  0  0
    7.8052    2.1705    0.0000 C   0  0  0  0  0  0  0  0  0  0  0  0
    3.7320   -1.9026    0.0000 C   0  0  0  0  0  0  0  0  0  0  0  0
    7.8052    0.4385    0.0000 C   0  0  0  0  0  0  0  0  0  0  0  0
    4.5981   -2.4026    0.0000 C   0  0  0  0  0  0  0  0  0  0  0  0
    8.3052    1.3045    0.0000 C   0  0  0  0  0  0  0  0  0  0  0  0
    2.0000   -0.9026    0.0000 C   0  0  0  0  0  0  0  0  0  0  0  0
    6.8052   -1.2936    0.0000 C   0  0  0  0  0  0  0  0  0  0  0  0
    6.3301   -3.4026    0.0000 C   0  0  0  0  0  0  0  0  0  0  0  0
    7.8052    3.9026    0.0000 C   0  0  0  0  0  0  0  0  0  0  0  0
    3.7320   -3.9026    0.0000 C   0  0  0  0  0  0  0  0  0  0  0  0
    9.8052    0.4385    0.0000 C   0  0  0  0  0  0  0  0  0  0  0  0
    5.3834    0.2721    0.0000 H   0  0  0  0  0  0  0  0  0  0  0  0
    5.6305    0.5192    0.0000 H   0  0  0  0  0  0  0  0  0  0  0  0
    3.6537    1.8773    0.0000 H   0  0  0  0  0  0  0  0  0  0  0  0
    5.1709    2.2489    0.0000 H   0  0  0  0  0  0  0  0  0  0  0  0
    2.8910    1.9245    0.0000 H   0  0  0  0  0  0  0  0  0  0  0  0
    2.2710    1.3045    0.0000 H   0  0  0  0  0  0  0  0  0  0  0  0
    2.8910    0.6845    0.0000 H   0  0  0  0  0  0  0  0  0  0  0  0
    5.2181    3.0116    0.0000 H   0  0  0  0  0  0  0  0  0  0  0  0
    4.5981    3.6316    0.0000 H   0  0  0  0  0  0  0  0  0  0  0  0
    3.9781    3.0116    0.0000 H   0  0  0  0  0  0  0  0  0  0  0  0
    6.0010   -0.5926    0.0000 H   0  0  0  0  0  0  0  0  0  0  0  0
    6.4952    2.7075    0.0000 H   0  0  0  0  0  0  0  0  0  0  0  0
    3.1951   -2.2126    0.0000 H   0  0  0  0  0  0  0  0  0  0  0  0
    8.1152   -0.0984    0.0000 H   0  0  0  0  0  0  0  0  0  0  0  0
    1.6900   -0.3657    0.0000 H   0  0  0  0  0  0  0  0  0  0  0  0
    1.4631   -1.2126    0.0000 H   0  0  0  0  0  0  0  0  0  0  0  0
    2.3100   -1.4395    0.0000 H   0  0  0  0  0  0  0  0  0  0  0  0
    6.2682   -1.6036    0.0000 H   0  0  0  0  0  0  0  0  0  0  0  0
    7.1152   -1.8305    0.0000 H   0  0  0  0  0  0  0  0  0  0  0  0
    7.3421   -0.9836    0.0000 H   0  0  0  0  0  0  0  0  0  0  0  0
    5.7101   -3.4026    0.0000 H   0  0  0  0  0  0  0  0  0  0  0  0
    6.3301   -4.0226    0.0000 H   0  0  0  0  0  0  0  0  0  0  0  0
    6.9501   -3.4026    0.0000 H   0  0  0  0  0  0  0  0  0  0  0  0
    8.3421    4.2126    0.0000 H   0  0  0  0  0  0  0  0  0  0  0  0
    7.4952    4.4395    0.0000 H   0  0  0  0  0  0  0  0  0  0  0  0
    7.2682    3.5926    0.0000 H   0  0  0  0  0  0  0  0  0  0  0  0
    3.4220   -3.3657    0.0000 H   0  0  0  0  0  0  0  0  0  0  0  0
    3.1951   -4.2126    0.0000 H   0  0  0  0  0  0  0  0  0  0  0  0
    4.0420   -4.4395    0.0000 H   0  0  0  0  0  0  0  0  0  0  0  0
    9.2682    0.1285    0.0000 H   0  0  0  0  0  0  0  0  0  0  0  0
   10.1152   -0.0984    0.0000 H   0  0  0  0  0  0  0  0  0  0  0  0
   10.3421    0.7485    0.0000 H   0  0  0  0  0  0  0  0  0  0  0  0
  1 15  1  0  0  0  0
  1 25  1  0  0  0  0
  2 16  1  0  0  0  0
  2 26  1  0  0  0  0
  3 19  1  0  0  0  0
  3 27  1  0  0  0  0
  4 20  1  0  0  0  0
  4 28  1  0  0  0  0
  5 23  1  0  0  0  0
  5 29  1  0  0  0  0
  6 24  1  0  0  0  0
  6 30  1  0  0  0  0
  7  8  1  0  0  0  0
  7  9  1  0  0  0  0
  7 11  1  0  0  0  0
  7 31  1  1  0  0  0
  8 10  1  0  0  0  0
  8 12  1  0  0  0  0
  8 32  1  6  0  0  0
  9 10  1  0  0  0  0
  9 13  1  6  0  0  0
  9 33  1  0  0  0  0
 10 14  1  1  0  0  0
 10 34  1  0  0  0  0
 11 15  1  0  0  0  0
 11 17  2  0  0  0  0
 12 16  1  0  0  0  0
 12 18  2  0  0  0  0
 13 35  1  0  0  0  0
 13 36  1  0  0  0  0
 13 37  1  0  0  0  0
 14 38  1  0  0  0  0
 14 39  1  0  0  0  0
 14 40  1  0  0  0  0
 15 21  2  0  0  0  0
 16 22  2  0  0  0  0
 17 19  1  0  0  0  0
 17 41  1  0  0  0  0
 18 20  1  0  0  0  0
 18 42  1  0  0  0  0
 19 23  2  0  0  0  0
 20 24  2  0  0  0  0
 21 23  1  0  0  0  0
 21 43  1  0  0  0  0
 22 24  1  0  0  0  0
 22 44  1  0  0  0  0
 25 45  1  0  0  0  0
 25 46  1  0  0  0  0
 25 47  1  0  0  0  0
 26 48  1  0  0  0  0
 26 49  1  0  0  0  0
 26 50  1  0  0  0  0
 27 51  1  0  0  0  0
 27 52  1  0  0  0  0
 27 53  1  0  0  0  0
 28 54  1  0  0  0  0
 28 55  1  0  0  0  0
 28 56  1  0  0  0  0
 29 57  1  0  0  0  0
 29 58  1  0  0  0  0
 29 59  1  0  0  0  0
 30 60  1  0  0  0  0
 30 61  1  0  0  0  0
 30 62  1  0  0  0  0
M  END
> <PUBCHEM_COMPOUND_CID>
10454589

> <PUBCHEM_COMPOUND_CANONICALIZED>
1

> <PUBCHEM_CACTVS_COMPLEXITY>
484

> <PUBCHEM_CACTVS_HBOND_ACCEPTOR>
6

> <PUBCHEM_CACTVS_HBOND_DONOR>
0

> <PUBCHEM_CACTVS_ROTATABLE_BOND>
8

> <PUBCHEM_CACTVS_SUBSKEYS>
AAADcfB4OAAAAAAAAAAAAAAAAABgAAAAAAAwYAAAAAAAAAABQAAAGgAAAAAADQSAmAIyBoAABACAAiBCAAACCAAgIAAAiAAGiIgNJyKEMRqAMCIlwBUKqAfA4PwOoQABCAAIQABCAAIQABCAAAAAAAAAAA==

> <PUBCHEM_IUPAC_OPENEYE_NAME>
1-[(1R,2R,3R,4R)-2,3-dimethyl-4-(2,4,5-trimethoxyphenyl)cyclobutyl]-2,4,5-trimethoxy-benzene

> <PUBCHEM_IUPAC_CAS_NAME>
1-[(1R,2R,3R,4R)-2,3-dimethyl-4-(2,4,5-trimethoxyphenyl)cyclobutyl]-2,4,5-trimethoxybenzene

> <PUBCHEM_IUPAC_NAME>
1-[(1R,2R,3R,4R)-2,3-dimethyl-4-(2,4,5-trimethoxyphenyl)cyclobutyl]-2,4,5-trimethoxybenzene

> <PUBCHEM_IUPAC_SYSTEMATIC_NAME>
1-[(1R,2R,3R,4R)-2,3-dimethyl-4-(2,4,5-trimethoxyphenyl)cyclobutyl]-2,4,5-trimethoxy-benzene

> <PUBCHEM_IUPAC_TRADITIONAL_NAME>
1-[(1R,2R,3R,4R)-2-asaryl-3,4-dimethyl-cyclobutyl]-2,4,5-trimethoxy-benzene

> <PUBCHEM_IUPAC_INCHI>
InChI=1S/C24H32O6/c1-13-14(2)24(16-10-20(28-6)22(30-8)12-18(16)26-4)23(13)15-9-19(27-5)21(29-7)11-17(15)25-3/h9-14,23-24H,1-8H3/t13-,14-,23+,24+/m1/s1

> <PUBCHEM_IUPAC_INCHIKEY>
WCERJEZPIONOJU-LHEXPUQLSA-N

> <PUBCHEM_XLOGP3_AA>
4.9

> <PUBCHEM_EXACT_MASS>
416.219889

> <PUBCHEM_MOLECULAR_FORMULA>
C24H32O6

> <PUBCHEM_MOLECULAR_WEIGHT>
416.50728

> <PUBCHEM_OPENEYE_CAN_SMILES>
CC1C(C(C1C2=CC(=C(C=C2OC)OC)OC)C3=CC(=C(C=C3OC)OC)OC)C

> <PUBCHEM_OPENEYE_ISO_SMILES>
C[C@@H]1[C@H]([C@H]([C@@H]1C2=CC(=C(C=C2OC)OC)OC)C3=CC(=C(C=C3OC)OC)OC)C

> <PUBCHEM_CACTVS_TPSA>
55.4

> <PUBCHEM_MONOISOTOPIC_WEIGHT>
416.219889

> <PUBCHEM_TOTAL_CHARGE>
0

> <PUBCHEM_HEAVY_ATOM_COUNT>
30

> <PUBCHEM_ATOM_DEF_STEREO_COUNT>
4

> <PUBCHEM_ATOM_UDEF_STEREO_COUNT>
0

> <PUBCHEM_BOND_DEF_STEREO_COUNT>
0

> <PUBCHEM_BOND_UDEF_STEREO_COUNT>
0

> <PUBCHEM_ISOTOPIC_ATOM_COUNT>
0

> <PUBCHEM_COMPONENT_COUNT>
1

> <PUBCHEM_CACTVS_TAUTO_COUNT>
1

> <PUBCHEM_COORDINATE_TYPE>
1
5
255

> <PUBCHEM_BONDANNOTATIONS>
10  14  5
11  15  8
11  17  8
12  16  8
12  18  8
15  21  8
16  22  8
17  19  8
18  20  8
19  23  8
20  24  8
21  23  8
22  24  8
7  31  5
8  32  6
9  13  6

$$$$

