9543084
  -OEChem-07051213113D

 31 35  0     1  0  0  0  0  0999 V2000
    4.4419    0.1235   -0.3423 O   0  0  0  0  0  0  0  0  0  0  0  0
   -3.8757    0.8723    0.2448 O   0  0  0  0  0  0  0  0  0  0  0  0
    3.3446   -0.2278    0.4388 C   0  0  1  0  0  0  0  0  0  0  0  0
    3.3983    0.9820   -0.7314 C   0  0  1  0  0  0  0  0  0  0  0  0
    2.0065   -0.8603    0.1590 C   0  0  0  0  0  0  0  0  0  0  0  0
    0.9068    0.0379    0.1219 C   0  0  0  0  0  0  0  0  0  0  0  0
    2.4072    1.9389   -0.1724 C   0  0  0  0  0  0  0  0  0  0  0  0
    1.1578    1.5185    0.1485 C   0  0  0  0  0  0  0  0  0  0  0  0
   -0.4208   -0.4119    0.0881 C   0  0  0  0  0  0  0  0  0  0  0  0
    1.7536   -2.2236    0.0448 C   0  0  0  0  0  0  0  0  0  0  0  0
   -0.6609   -1.7963   -0.0335 C   0  0  0  0  0  0  0  0  0  0  0  0
   -1.4935    0.5035    0.2002 C   0  0  0  0  0  0  0  0  0  0  0  0
    0.0454    2.4133    0.4122 C   0  0  0  0  0  0  0  0  0  0  0  0
    0.4351   -2.6844   -0.0728 C   0  0  0  0  0  0  0  0  0  0  0  0
   -1.2141    1.9404    0.4227 C   0  0  0  0  0  0  0  0  0  0  0  0
   -2.8069    0.0311    0.1460 C   0  0  0  0  0  0  0  0  0  0  0  0
   -1.9908   -2.2408   -0.0939 C   0  0  0  0  0  0  0  0  0  0  0  0
   -3.0514   -1.3342   -0.0102 C   0  0  0  0  0  0  0  0  0  0  0  0
   -4.3833    1.4182   -0.9705 C   0  0  0  0  0  0  0  0  0  0  0  0
    3.4802    0.0423    1.4848 H   0  0  0  0  0  0  0  0  0  0  0  0
    3.1188    0.7722   -1.7628 H   0  0  0  0  0  0  0  0  0  0  0  0
    2.6628    2.9936   -0.1867 H   0  0  0  0  0  0  0  0  0  0  0  0
    2.5721   -2.9377    0.0689 H   0  0  0  0  0  0  0  0  0  0  0  0
    0.2373    3.4717    0.5529 H   0  0  0  0  0  0  0  0  0  0  0  0
    0.2654   -3.7562   -0.1593 H   0  0  0  0  0  0  0  0  0  0  0  0
   -2.0418    2.6184    0.5993 H   0  0  0  0  0  0  0  0  0  0  0  0
   -2.2139   -3.3007   -0.1963 H   0  0  0  0  0  0  0  0  0  0  0  0
   -4.0723   -1.7056   -0.0537 H   0  0  0  0  0  0  0  0  0  0  0  0
   -5.1926    2.1106   -0.7229 H   0  0  0  0  0  0  0  0  0  0  0  0
   -4.7863    0.6231   -1.6058 H   0  0  0  0  0  0  0  0  0  0  0  0
   -3.6052    1.9685   -1.5086 H   0  0  0  0  0  0  0  0  0  0  0  0
  1  3  1  0  0  0  0
  1  4  1  0  0  0  0
  2 16  1  0  0  0  0
  2 19  1  0  0  0  0
  3  4  1  0  0  0  0
  3  5  1  0  0  0  0
  3 20  1  0  0  0  0
  4  7  1  0  0  0  0
  4 21  1  0  0  0  0
  5  6  2  0  0  0  0
  5 10  1  0  0  0  0
  6  8  1  0  0  0  0
  6  9  1  0  0  0  0
  7  8  2  0  0  0  0
  7 22  1  0  0  0  0
  8 13  1  0  0  0  0
  9 11  2  0  0  0  0
  9 12  1  0  0  0  0
 10 14  2  0  0  0  0
 10 23  1  0  0  0  0
 11 14  1  0  0  0  0
 11 17  1  0  0  0  0
 12 15  1  0  0  0  0
 12 16  2  0  0  0  0
 13 15  2  0  0  0  0
 13 24  1  0  0  0  0
 14 25  1  0  0  0  0
 15 26  1  0  0  0  0
 16 18  1  0  0  0  0
 17 18  2  0  0  0  0
 17 27  1  0  0  0  0
 18 28  1  0  0  0  0
 19 29  1  0  0  0  0
 19 30  1  0  0  0  0
 19 31  1  0  0  0  0
M  END
> <PUBCHEM_COMPOUND_CID>
9543084

> <PUBCHEM_CONFORMER_RMSD>
0.6

> <PUBCHEM_CONFORMER_DIVERSEORDER>
2
1

> <PUBCHEM_MMFF94_PARTIAL_CHARGES>
26
1 -0.3
10 -0.15
12 0.03
13 -0.15
14 -0.15
15 -0.18
16 0.08
17 -0.15
18 -0.15
19 0.28
2 -0.36
20 0.1
21 0.1
22 0.15
23 0.15
24 0.15
25 0.15
26 0.15
27 0.15
28 0.15
3 0.08
4 0.09
5 -0.03
6 0.03
7 -0.19
8 -0.03

> <PUBCHEM_EFFECTIVE_ROTOR_COUNT>
1.2

> <PUBCHEM_PHARMACOPHORE_FEATURES>
6
1 1 acceptor
1 2 acceptor
6 5 6 9 10 11 14 rings
6 6 8 9 12 13 15 rings
6 9 11 12 16 17 18 rings
7 1 3 4 5 6 7 8 rings

> <PUBCHEM_HEAVY_ATOM_COUNT>
19

> <PUBCHEM_ATOM_DEF_STEREO_COUNT>
0

> <PUBCHEM_ATOM_UDEF_STEREO_COUNT>
2

> <PUBCHEM_BOND_DEF_STEREO_COUNT>
0

> <PUBCHEM_BOND_UDEF_STEREO_COUNT>
0

> <PUBCHEM_ISOTOPIC_ATOM_COUNT>
0

> <PUBCHEM_COMPONENT_COUNT>
1

> <PUBCHEM_CACTVS_TAUTO_COUNT>
1

> <PUBCHEM_CONFORMER_ID>
00919DAC00000002

> <PUBCHEM_MMFF94_ENERGY>
106.8393

> <PUBCHEM_FEATURE_SELFOVERLAP>
30.535

> <PUBCHEM_SHAPE_FINGERPRINT>
10062212 137 18411990130390235322
10411042 1 15888277441404146786
10498660 4 18410006637373110476
10616163 171 18410289194555219339
10693767 8 17969232298670115415
10759866 29 18060133246028201838
10863032 1 18411983529004057899
10967382 1 18337953501316043867
11132069 177 18408889525037927288
11458722 379 18409720768919253582
11471102 20 18339084894596905861
12011746 2 18337672026618927820
12236239 1 17917713488076988856
12403259 226 17976821982702312771
12403814 3 17703795820769106005
13132413 78 18410291372092926797
13140716 1 18337391534926023000
13221675 6 18409445890706295834
13380535 76 18410574006652999219
13583140 156 17132113576275959513
14790565 3 18336811083082045473
15196674 1 18410573942544695536
15309172 13 18337098016940180947
16752209 62 18337397011030709734
16945 1 18409162250897198056
18186145 218 18261947457980720816
193761 8 17905323283952076080
19591789 44 18265891354713437715
20510252 161 18117270350690691664
20645476 183 17843103836713134260
20739085 24 17833800022807003393
20905425 154 18189892187862991622
21267235 1 18338506443985544690
21501502 16 18339926991538705755
2334 1 18121217580275591520
23402539 116 18334300846938310622
23463225 33 18412827975762545282
23493267 7 17918276428644020945
23559900 14 18260544490693858380
23566358 2 18120937471214629932
238 59 17695111946916269661
25 1 18341056293455181903
2748010 2 18192715535758829808
335352 9 18410855507678822526
34934 24 18410019857081987403
350125 39 18267579105546896329
5104073 3 18339360769099780712
7364860 26 18263078988837861734

> <PUBCHEM_SHAPE_MULTIPOLES>
379.27
6.44
2.92
0.73
0.93
0.65
-0.06
-1.81
-1.22
0.29
0.02
0.07
-0.14
0.01

> <PUBCHEM_SHAPE_SELFOVERLAP>
871.189

> <PUBCHEM_SHAPE_VOLUME>
197.2

> <PUBCHEM_COORDINATE_TYPE>
2
5
10

$$$$

