11801
  -OEChem-06261206083D

 29 30  0     0  0  0  0  0  0999 V2000
   -3.3566   -0.9759    1.6936 Cl  0  0  0  0  0  0  0  0  0  0  0  0
   -3.1634   -0.1296   -0.1575 S   0  0  0  0  0  0  0  0  0  0  0  0
   -3.1776   -1.2200   -1.1090 O   0  0  0  0  0  0  0  0  0  0  0  0
   -4.1319    0.9456   -0.1890 O   0  0  0  0  0  0  0  0  0  0  0  0
    3.3355    0.1160    0.0545 N   0  0  0  0  0  0  0  0  0  0  0  0
    0.8856    0.3522   -0.0175 C   0  0  0  0  0  0  0  0  0  0  0  0
   -0.3866   -0.2650   -0.0746 C   0  0  0  0  0  0  0  0  0  0  0  0
    2.0381   -0.4501   -0.0029 C   0  0  0  0  0  0  0  0  0  0  0  0
   -1.5390    0.5377   -0.0894 C   0  0  0  0  0  0  0  0  0  0  0  0
    0.9681    1.7537    0.0229 C   0  0  0  0  0  0  0  0  0  0  0  0
   -0.4689   -1.6663   -0.1154 C   0  0  0  0  0  0  0  0  0  0  0  0
    1.9378   -1.8411   -0.0436 C   0  0  0  0  0  0  0  0  0  0  0  0
   -1.4386    1.9287   -0.0482 C   0  0  0  0  0  0  0  0  0  0  0  0
    0.6866   -2.4480   -0.0998 C   0  0  0  0  0  0  0  0  0  0  0  0
   -0.1874    2.5356    0.0076 C   0  0  0  0  0  0  0  0  0  0  0  0
    4.0425    0.4404   -1.1647 C   0  0  0  0  0  0  0  0  0  0  0  0
    3.9557    0.3861    1.3329 C   0  0  0  0  0  0  0  0  0  0  0  0
    1.9231    2.2710    0.0691 H   0  0  0  0  0  0  0  0  0  0  0  0
   -1.3964   -2.2225   -0.1250 H   0  0  0  0  0  0  0  0  0  0  0  0
    2.8296   -2.4629   -0.0301 H   0  0  0  0  0  0  0  0  0  0  0  0
   -2.3138    2.5713   -0.0570 H   0  0  0  0  0  0  0  0  0  0  0  0
    0.6101   -3.5313   -0.1236 H   0  0  0  0  0  0  0  0  0  0  0  0
   -0.1095    3.6185    0.0402 H   0  0  0  0  0  0  0  0  0  0  0  0
    3.5853    1.3035   -1.6595 H   0  0  0  0  0  0  0  0  0  0  0  0
    4.0259   -0.4047   -1.8617 H   0  0  0  0  0  0  0  0  0  0  0  0
    5.0935    0.6815   -0.9733 H   0  0  0  0  0  0  0  0  0  0  0  0
    4.3174   -0.5447    1.7824 H   0  0  0  0  0  0  0  0  0  0  0  0
    3.2473    0.8505    2.0277 H   0  0  0  0  0  0  0  0  0  0  0  0
    4.8076    1.0673    1.2352 H   0  0  0  0  0  0  0  0  0  0  0  0
  1  2  1  0  0  0  0
  2  3  2  0  0  0  0
  2  4  2  0  0  0  0
  2  9  1  0  0  0  0
  5  8  1  0  0  0  0
  5 16  1  0  0  0  0
  5 17  1  0  0  0  0
  6  7  2  0  0  0  0
  6  8  1  0  0  0  0
  6 10  1  0  0  0  0
  7  9  1  0  0  0  0
  7 11  1  0  0  0  0
  8 12  2  0  0  0  0
  9 13  2  0  0  0  0
 10 15  2  0  0  0  0
 10 18  1  0  0  0  0
 11 14  2  0  0  0  0
 11 19  1  0  0  0  0
 12 14  1  0  0  0  0
 12 20  1  0  0  0  0
 13 15  1  0  0  0  0
 13 21  1  0  0  0  0
 14 22  1  0  0  0  0
 15 23  1  0  0  0  0
 16 24  1  0  0  0  0
 16 25  1  0  0  0  0
 16 26  1  0  0  0  0
 17 27  1  0  0  0  0
 17 28  1  0  0  0  0
 17 29  1  0  0  0  0
M  END
> <PUBCHEM_COMPOUND_CID>
11801

> <PUBCHEM_CONFORMER_RMSD>
0.6

> <PUBCHEM_CONFORMER_DIVERSEORDER>
1
2

> <PUBCHEM_MMFF94_PARTIAL_CHARGES>
21
1 -0.19
10 -0.15
11 -0.15
12 -0.15
13 -0.15
14 -0.15
15 -0.15
16 0.37
17 0.37
18 0.15
19 0.15
2 1.49
20 0.15
21 0.15
22 0.15
23 0.15
3 -0.65
4 -0.65
5 -0.84
8 0.1
9 -0.01

> <PUBCHEM_EFFECTIVE_ROTOR_COUNT>
2

> <PUBCHEM_PHARMACOPHORE_FEATURES>
3
1 5 cation
6 6 7 8 11 12 14 rings
6 6 7 9 10 13 15 rings

> <PUBCHEM_HEAVY_ATOM_COUNT>
17

> <PUBCHEM_ATOM_DEF_STEREO_COUNT>
0

> <PUBCHEM_ATOM_UDEF_STEREO_COUNT>
0

> <PUBCHEM_BOND_DEF_STEREO_COUNT>
0

> <PUBCHEM_BOND_UDEF_STEREO_COUNT>
0

> <PUBCHEM_ISOTOPIC_ATOM_COUNT>
0

> <PUBCHEM_COMPONENT_COUNT>
1

> <PUBCHEM_CACTVS_TAUTO_COUNT>
1

> <PUBCHEM_CONFORMER_ID>
00002E1900000001

> <PUBCHEM_MMFF94_ENERGY>
68.0674

> <PUBCHEM_FEATURE_SELFOVERLAP>
15.249

> <PUBCHEM_SHAPE_FINGERPRINT>
10759866 29 17775279448658117426
10967382 1 18410014368145412127
11132069 177 18260834782372861722
12236239 1 17703790302469307868
12553582 1 18410852135855129725
12596599 1 17530958060149265655
12633257 1 17984110740141354035
13140716 1 18194120703097719554
13221675 6 18409165519362113478
13538477 17 18059576828825656242
13583140 156 16916519029608537760
14178342 30 18193283116135915584
14614273 12 18129106804007248693
14787075 74 17773018770535394402
14790565 3 18266721541753630572
15309172 13 18334571339214458627
15375358 24 18343024432222420001
15536298 74 18188776174875892678
16945 1 18410573955229221822
18186145 218 17676202472700375786
193761 8 17905610260776579140
19591789 44 18124020244099906422
20028762 73 17899407589674229279
20510252 161 18260551147392131168
20645477 70 18190183571303068999
21501502 16 18121779705611155168
21634736 98 17828218600930785231
2334 1 17761776165446469542
23388829 49 18409169917561748325
23402539 116 18334869307260984638
23419403 2 15172298030084252496
23463225 33 18342181119578093346
23493267 7 17847059982312602209
23558518 356 17909268331614806497
23559900 14 18128536157762699906
2748010 2 18193556889935005822
296302 2 16917062256908560108
34934 24 18337120063355457701
350125 39 18194118753688968918
4072396 5 18270419280977102481
43471831 8 18340773757590355354
5104073 3 18265895937891507539
537710 114 18413386536101348996
53812653 166 18261402143315828984
568465 68 18338783525547939067
7364860 26 17972604561246713310
81228 2 18126559265683463369
8809292 202 18129092497708523387

> <PUBCHEM_SHAPE_MULTIPOLES>
338.85
6.62
2.38
1.05
0.45
0.13
0.29
0.02
0.48
-0.19
-0.08
-0.04
-0.17
0.23

> <PUBCHEM_SHAPE_SELFOVERLAP>
706.608

> <PUBCHEM_SHAPE_VOLUME>
195.6

> <PUBCHEM_COORDINATE_TYPE>
2
5
10

$$$$

