134184
  -OEChem-07051213033D

 48 51  0     1  0  0  0  0  0999 V2000
    2.4775    0.2922   -1.3708 O   0  0  0  0  0  0  0  0  0  0  0  0
    1.3584   -0.7994    0.3188 O   0  0  0  0  0  0  0  0  0  0  0  0
    4.0234   -2.6075   -0.7186 O   0  0  0  0  0  0  0  0  0  0  0  0
   -6.6798   -0.3550    1.1530 O   0  0  0  0  0  0  0  0  0  0  0  0
   -5.0460    0.8681    2.1537 O   0  0  0  0  0  0  0  0  0  0  0  0
   -1.2364   -0.5002   -1.1290 N   0  0  0  0  0  0  0  0  0  0  0  0
   -2.9192    1.0168    0.4371 N   0  0  0  0  0  0  0  0  0  0  0  0
    0.3103    1.3000   -1.2147 C   0  0  0  0  0  0  0  0  0  0  0  0
    1.2451    0.5000   -2.0668 C   0  0  1  0  0  0  0  0  0  0  0  0
   -0.8965    0.7520   -0.7848 C   0  0  0  0  0  0  0  0  0  0  0  0
   -1.7511    1.5224    0.0105 C   0  0  0  0  0  0  0  0  0  0  0  0
    0.6806    2.5980   -0.8678 C   0  0  0  0  0  0  0  0  0  0  0  0
    1.5429    1.1763   -3.4062 C   0  0  0  0  0  0  0  0  0  0  0  0
   -3.2590   -0.2354    0.0929 C   0  0  0  0  0  0  0  0  0  0  0  0
   -2.4045   -1.0058   -0.7024 C   0  0  0  0  0  0  0  0  0  0  0  0
   -1.3750    2.8194    0.3539 C   0  0  0  0  0  0  0  0  0  0  0  0
   -0.1666    3.3619   -0.0793 C   0  0  0  0  0  0  0  0  0  0  0  0
   -4.4659   -0.7834    0.5227 C   0  0  0  0  0  0  0  0  0  0  0  0
   -2.7805   -2.3028   -1.0456 C   0  0  0  0  0  0  0  0  0  0  0  0
    3.7238   -0.5209    0.4294 C   0  0  0  0  0  0  0  0  0  0  0  0
    2.3829   -0.3723   -0.1905 C   0  0  0  0  0  0  0  0  0  0  0  0
    4.1847    0.4588    1.2883 C   0  0  0  0  0  0  0  0  0  0  0  0
   -4.8362   -2.0814    0.1759 C   0  0  0  0  0  0  0  0  0  0  0  0
   -3.9889   -2.8453   -0.6125 C   0  0  0  0  0  0  0  0  0  0  0  0
    4.4767   -1.6403    0.1283 C   0  0  0  0  0  0  0  0  0  0  0  0
    5.4452    0.3139    1.8677 C   0  0  0  0  0  0  0  0  0  0  0  0
   -5.3805   -0.0082    1.3534 C   0  0  0  0  0  0  0  0  0  0  0  0
    3.3760    1.6711    1.6183 C   0  0  0  0  0  0  0  0  0  0  0  0
    5.7372   -1.7850    0.7077 C   0  0  0  0  0  0  0  0  0  0  0  0
    6.2215   -0.8080    1.5775 C   0  0  0  0  0  0  0  0  0  0  0  0
    0.8405   -0.4900   -2.3100 H   0  0  0  0  0  0  0  0  0  0  0  0
    1.6252    3.0251   -1.1917 H   0  0  0  0  0  0  0  0  0  0  0  0
    2.1015    2.1102   -3.2816 H   0  0  0  0  0  0  0  0  0  0  0  0
    0.6238    1.3885   -3.9619 H   0  0  0  0  0  0  0  0  0  0  0  0
    2.1768    0.5254   -4.0191 H   0  0  0  0  0  0  0  0  0  0  0  0
   -2.0312    3.4279    0.9730 H   0  0  0  0  0  0  0  0  0  0  0  0
    0.1094    4.3734    0.2016 H   0  0  0  0  0  0  0  0  0  0  0  0
   -2.1233   -2.9119   -1.6630 H   0  0  0  0  0  0  0  0  0  0  0  0
   -5.7670   -2.5269    0.5158 H   0  0  0  0  0  0  0  0  0  0  0  0
   -4.2616   -3.8594   -0.8883 H   0  0  0  0  0  0  0  0  0  0  0  0
    5.8384    1.0662    2.5464 H   0  0  0  0  0  0  0  0  0  0  0  0
    3.8216    2.2440    2.4391 H   0  0  0  0  0  0  0  0  0  0  0  0
    3.3160    2.3326    0.7486 H   0  0  0  0  0  0  0  0  0  0  0  0
    2.3659    1.3948    1.9381 H   0  0  0  0  0  0  0  0  0  0  0  0
    6.3531   -2.6537    0.4907 H   0  0  0  0  0  0  0  0  0  0  0  0
    7.2031   -0.9206    2.0283 H   0  0  0  0  0  0  0  0  0  0  0  0
    4.6980   -3.3038   -0.7965 H   0  0  0  0  0  0  0  0  0  0  0  0
   -7.2890    0.1704    1.7145 H   0  0  0  0  0  0  0  0  0  0  0  0
  1  9  1  0  0  0  0
  1 21  1  0  0  0  0
  2 21  2  0  0  0  0
  3 25  1  0  0  0  0
  3 47  1  0  0  0  0
  4 27  1  0  0  0  0
  4 48  1  0  0  0  0
  5 27  2  0  0  0  0
  6 10  1  0  0  0  0
  6 15  2  0  0  0  0
  7 11  1  0  0  0  0
  7 14  2  0  0  0  0
  8  9  1  0  0  0  0
  8 10  2  0  0  0  0
  8 12  1  0  0  0  0
  9 13  1  0  0  0  0
  9 31  1  0  0  0  0
 10 11  1  0  0  0  0
 11 16  2  0  0  0  0
 12 17  2  0  0  0  0
 12 32  1  0  0  0  0
 13 33  1  0  0  0  0
 13 34  1  0  0  0  0
 13 35  1  0  0  0  0
 14 15  1  0  0  0  0
 14 18  1  0  0  0  0
 15 19  1  0  0  0  0
 16 17  1  0  0  0  0
 16 36  1  0  0  0  0
 17 37  1  0  0  0  0
 18 23  2  0  0  0  0
 18 27  1  0  0  0  0
 19 24  2  0  0  0  0
 19 38  1  0  0  0  0
 20 21  1  0  0  0  0
 20 22  2  0  0  0  0
 20 25  1  0  0  0  0
 22 26  1  0  0  0  0
 22 28  1  0  0  0  0
 23 24  1  0  0  0  0
 23 39  1  0  0  0  0
 24 40  1  0  0  0  0
 25 29  2  0  0  0  0
 26 30  2  0  0  0  0
 26 41  1  0  0  0  0
 28 42  1  0  0  0  0
 28 43  1  0  0  0  0
 28 44  1  0  0  0  0
 29 30  1  0  0  0  0
 29 45  1  0  0  0  0
 30 46  1  0  0  0  0
M  END
> <PUBCHEM_COMPOUND_CID>
134184

> <PUBCHEM_CONFORMER_RMSD>
0.8

> <PUBCHEM_CONFORMER_DIVERSEORDER>
10
31
39
77
44
36
63
72
75
37
65
25
59
57
62
54
16
66
28
20
71
50
13
38
56
47
68
2
49
74
67
76
33
9
5
15
3
1
42
34
22
11
45
4
35
55
19
24
40
61
23
52
6
70
73
51
60
48
12
53
64
14
46
29
69
58
27
17
26
30
18
32
8
21
7
43
41

> <PUBCHEM_MMFF94_PARTIAL_CHARGES>
40
1 -0.43
10 0.31
11 0.31
12 -0.15
14 0.31
15 0.31
16 -0.15
17 -0.15
18 0.09
19 -0.15
2 -0.57
20 0.09
21 0.63
22 -0.14
23 -0.15
24 -0.15
25 0.08
26 -0.15
27 0.63
28 0.14
29 -0.15
3 -0.53
30 -0.15
32 0.15
36 0.15
37 0.15
38 0.15
39 0.15
4 -0.65
40 0.15
41 0.15
45 0.15
46 0.15
47 0.45
48 0.5
5 -0.57
6 -0.62
7 -0.62
8 -0.14
9 0.42

> <PUBCHEM_EFFECTIVE_ROTOR_COUNT>
5

> <PUBCHEM_PHARMACOPHORE_FEATURES>
11
1 2 acceptor
1 3 donor
1 4 acceptor
1 5 acceptor
1 6 acceptor
1 7 acceptor
3 4 5 27 anion
6 14 15 18 19 23 24 rings
6 20 22 25 26 29 30 rings
6 6 7 10 11 14 15 rings
6 8 10 11 12 16 17 rings

> <PUBCHEM_HEAVY_ATOM_COUNT>
30

> <PUBCHEM_ATOM_DEF_STEREO_COUNT>
0

> <PUBCHEM_ATOM_UDEF_STEREO_COUNT>
1

> <PUBCHEM_BOND_DEF_STEREO_COUNT>
0

> <PUBCHEM_BOND_UDEF_STEREO_COUNT>
0

> <PUBCHEM_ISOTOPIC_ATOM_COUNT>
0

> <PUBCHEM_COMPONENT_COUNT>
1

> <PUBCHEM_CACTVS_TAUTO_COUNT>
13

> <PUBCHEM_CONFORMER_ID>
00020C280000000A

> <PUBCHEM_MMFF94_ENERGY>
104.0142

> <PUBCHEM_FEATURE_SELFOVERLAP>
55.96

> <PUBCHEM_SHAPE_FINGERPRINT>
10319926 262 17822283596077521494
11370993 144 17531528788510122762
11552529 35 17532391789126623438
12166972 35 17489870418947503628
12422481 6 18260260880374207107
12553582 1 18410283692976141047
12633257 1 17603871104393157562
13544653 18 18272379641642950556
13583140 156 17968958499205578588
13692114 37 18050846917235210913
13782708 43 17558568035302930842
13911987 19 14906172021656003974
13944108 23 8931961349243604442
14341114 176 18186523228622249368
14341114 328 18188210901450711376
14705955 166 17604147159248060433
14931854 50 10231759972480409619
14950920 106 17968104152642491602
15064986 96 16225758641061860294
16110190 28 18261111850655260506
17349148 13 17775283872173830114
17980427 23 17240490165467482381
1813 80 17775284980290996180
20567600 234 16298385734804384825
20600515 1 18113609084845844717
21421861 104 18269546165613341749
21756936 100 5328447246881235630
21859007 373 18341056315606135141
22122407 14 15574715768246005147
22393880 68 10663835043968001115
23366157 5 17907569230306268005
23845131 108 17398667295203122937
2838139 119 7493016171257427082
3117164 225 18259983765006002265
312425 54 18260829319048523842
3459 110 17749683917095266378
3472631 163 7276535517503439202
3737641 26 18199192969787138138
392239 28 18338529568547993530
4098825 35 12895078456768621511
46194498 28 13613944562061650190
463206 1 18200590302694164539
469060 322 17274538866413938420
5104073 3 18118104893919213387
56633871 153 18335979848360066911
6669772 16 15122659182048015604
6823239 73 17460566204784724588
7970288 3 17131834308812381770
9896288 288 18051409861916823008

> <PUBCHEM_SHAPE_MULTIPOLES>
578.08
13.67
3.04
2.05
0.87
0.74
-0.95
-9.14
9.45
-0.64
-0.5
0.87
0.74
-0.92

> <PUBCHEM_SHAPE_SELFOVERLAP>
1299.395

> <PUBCHEM_SHAPE_VOLUME>
303.9

> <PUBCHEM_COORDINATE_TYPE>
2
5
10

$$$$

