111306
  -OEChem-07051213153D

 18 18  0     1  0  0  0  0  0999 V2000
    1.5136    1.2334   -0.4810 O   0  0  0  0  0  0  0  0  0  0  0  0
   -0.7862    0.9336    0.7655 N   0  0  0  0  0  0  0  0  0  0  0  0
    2.2172   -0.9302   -0.1388 N   0  0  0  0  0  0  0  0  0  0  0  0
    0.0811   -0.2438    0.7330 C   0  0  1  0  0  0  0  0  0  0  0  0
   -0.7200   -1.3249    0.0154 C   0  0  0  0  0  0  0  0  0  0  0  0
   -1.9848   -0.6279   -0.4716 C   0  0  0  0  0  0  0  0  0  0  0  0
   -1.6499    0.8481   -0.4078 C   0  0  0  0  0  0  0  0  0  0  0  0
    1.3290    0.1118   -0.0147 C   0  0  0  0  0  0  0  0  0  0  0  0
    0.3546   -0.5477    1.7490 H   0  0  0  0  0  0  0  0  0  0  0  0
   -0.9858   -2.1417    0.6958 H   0  0  0  0  0  0  0  0  0  0  0  0
   -0.1899   -1.7617   -0.8383 H   0  0  0  0  0  0  0  0  0  0  0  0
   -2.2708   -0.9467   -1.4785 H   0  0  0  0  0  0  0  0  0  0  0  0
   -2.8172   -0.8589    0.2045 H   0  0  0  0  0  0  0  0  0  0  0  0
   -1.1185    1.1674   -1.3114 H   0  0  0  0  0  0  0  0  0  0  0  0
   -2.5447    1.4667   -0.2955 H   0  0  0  0  0  0  0  0  0  0  0  0
   -0.2591    1.8042    0.7823 H   0  0  0  0  0  0  0  0  0  0  0  0
    3.0955   -0.8109   -0.6325 H   0  0  0  0  0  0  0  0  0  0  0  0
    2.0421   -1.8456    0.2635 H   0  0  0  0  0  0  0  0  0  0  0  0
  1  8  2  0  0  0  0
  2  4  1  0  0  0  0
  2  7  1  0  0  0  0
  2 16  1  0  0  0  0
  3  8  1  0  0  0  0
  3 17  1  0  0  0  0
  3 18  1  0  0  0  0
  4  5  1  0  0  0  0
  4  8  1  0  0  0  0
  4  9  1  0  0  0  0
  5  6  1  0  0  0  0
  5 10  1  0  0  0  0
  5 11  1  0  0  0  0
  6  7  1  0  0  0  0
  6 12  1  0  0  0  0
  6 13  1  0  0  0  0
  7 14  1  0  0  0  0
  7 15  1  0  0  0  0
M  END
> <PUBCHEM_COMPOUND_CID>
111306

> <PUBCHEM_CONFORMER_RMSD>
0.4

> <PUBCHEM_CONFORMER_DIVERSEORDER>
1
4
5
6
7
2
3

> <PUBCHEM_MMFF94_PARTIAL_CHARGES>
9
1 -0.57
16 0.36
17 0.37
18 0.37
2 -0.9
3 -0.8
4 0.33
7 0.27
8 0.57

> <PUBCHEM_EFFECTIVE_ROTOR_COUNT>
2

> <PUBCHEM_PHARMACOPHORE_FEATURES>
5
1 1 acceptor
1 2 cation
1 2 donor
1 3 donor
5 2 4 5 6 7 rings

> <PUBCHEM_HEAVY_ATOM_COUNT>
8

> <PUBCHEM_ATOM_DEF_STEREO_COUNT>
1

> <PUBCHEM_ATOM_UDEF_STEREO_COUNT>
0

> <PUBCHEM_BOND_DEF_STEREO_COUNT>
0

> <PUBCHEM_BOND_UDEF_STEREO_COUNT>
0

> <PUBCHEM_ISOTOPIC_ATOM_COUNT>
0

> <PUBCHEM_COMPONENT_COUNT>
1

> <PUBCHEM_CACTVS_TAUTO_COUNT>
2

> <PUBCHEM_CONFORMER_ID>
0001B2CA00000001

> <PUBCHEM_MMFF94_ENERGY>
10.0677

> <PUBCHEM_FEATURE_SELFOVERLAP>
25.371

> <PUBCHEM_SHAPE_FINGERPRINT>
12423570 1 15026967267473937451
12897270 3 18195526982775187700
137420 1 14313451295403888561
16714656 1 18410013213121079783
18185500 45 18338803432436590226
20096714 4 18202285826748346537
21040471 1 18265062503466226089
23552423 10 18413392024916630758
24536 1 18340493278755497666
29004967 10 14201402668130604483
369184 2 14779552339077150166
5084963 1 18412547638725236723

> <PUBCHEM_SHAPE_MULTIPOLES>
148.8
2.62
1.32
0.79
0.49
0.03
-0.08
0.15
0.55
-0.04
0.07
-0.08
-0.07
-0.11

> <PUBCHEM_SHAPE_SELFOVERLAP>
295.576

> <PUBCHEM_SHAPE_VOLUME>
89.7

> <PUBCHEM_COORDINATE_TYPE>
2
5
10

$$$$

