219
  -OEChem-07051212483D

 15 14  0     1  0  0  0  0  0999 V2000
    1.1431   -0.8082   -1.1973 O   0  0  0  0  0  0  0  0  0  0  0  0
   -1.3847   -1.4350    0.6204 O   0  0  0  0  0  0  0  0  0  0  0  0
   -2.2303    0.3627   -0.4728 O   0  0  0  0  0  0  0  0  0  0  0  0
    0.0038    1.8504   -0.0446 N   0  0  0  0  0  0  0  0  0  0  0  0
    0.0137    0.4844    0.4729 C   0  0  2  0  0  0  0  0  0  0  0  0
    1.2255   -0.2034   -0.1264 C   0  0  0  0  0  0  0  0  0  0  0  0
   -1.3161   -0.1605    0.1506 C   0  0  0  0  0  0  0  0  0  0  0  0
    2.5451   -0.0904    0.5972 C   0  0  0  0  0  0  0  0  0  0  0  0
    0.1143    0.5105    1.5632 H   0  0  0  0  0  0  0  0  0  0  0  0
    3.3076   -0.6664    0.0655 H   0  0  0  0  0  0  0  0  0  0  0  0
    2.8539    0.9568    0.6378 H   0  0  0  0  0  0  0  0  0  0  0  0
    2.4422   -0.4933    1.6077 H   0  0  0  0  0  0  0  0  0  0  0  0
   -0.7700    2.3702    0.3678 H   0  0  0  0  0  0  0  0  0  0  0  0
   -0.1598    1.8425   -1.0510 H   0  0  0  0  0  0  0  0  0  0  0  0
   -2.2423   -1.8586    0.4026 H   0  0  0  0  0  0  0  0  0  0  0  0
  1  6  2  0  0  0  0
  2  7  1  0  0  0  0
  2 15  1  0  0  0  0
  3  7  2  0  0  0  0
  4  5  1  0  0  0  0
  4 13  1  0  0  0  0
  4 14  1  0  0  0  0
  5  6  1  0  0  0  0
  5  7  1  0  0  0  0
  5  9  1  0  0  0  0
  6  8  1  0  0  0  0
  8 10  1  0  0  0  0
  8 11  1  0  0  0  0
  8 12  1  0  0  0  0
M  END
> <PUBCHEM_COMPOUND_CID>
219

> <PUBCHEM_CONFORMER_RMSD>
0.4

> <PUBCHEM_CONFORMER_DIVERSEORDER>
1
10
12
11
9
13
4
2
18
16
8
14
3
7
6
17
5
15

> <PUBCHEM_MMFF94_PARTIAL_CHARGES>
11
1 -0.57
13 0.36
14 0.36
15 0.5
2 -0.65
3 -0.57
4 -0.99
5 0.39
6 0.45
7 0.66
8 0.06

> <PUBCHEM_EFFECTIVE_ROTOR_COUNT>
2

> <PUBCHEM_PHARMACOPHORE_FEATURES>
7
1 1 acceptor
1 2 acceptor
1 3 acceptor
1 4 cation
1 4 donor
1 5 anion
3 2 3 7 anion

> <PUBCHEM_HEAVY_ATOM_COUNT>
8

> <PUBCHEM_ATOM_DEF_STEREO_COUNT>
0

> <PUBCHEM_ATOM_UDEF_STEREO_COUNT>
1

> <PUBCHEM_BOND_DEF_STEREO_COUNT>
0

> <PUBCHEM_BOND_UDEF_STEREO_COUNT>
0

> <PUBCHEM_ISOTOPIC_ATOM_COUNT>
0

> <PUBCHEM_COMPONENT_COUNT>
1

> <PUBCHEM_CACTVS_TAUTO_COUNT>
8

> <PUBCHEM_CONFORMER_ID>
000000DB00000001

> <PUBCHEM_MMFF94_ENERGY>
9.3759

> <PUBCHEM_FEATURE_SELFOVERLAP>
35.833

> <PUBCHEM_SHAPE_FINGERPRINT>
137420 1 13068687326778295624
20096714 4 12319451069622063799
21040471 1 18054219101288185617
24536 1 18187628190020139851
29004967 10 18187077343247693874

> <PUBCHEM_SHAPE_MULTIPOLES>
142.05
2.81
1.28
0.86
0.5
0.33
-0.11
-0.38
0.19
-0.28
0.03
0.18
-0.17
0.28

> <PUBCHEM_SHAPE_SELFOVERLAP>
268.596

> <PUBCHEM_SHAPE_VOLUME>
87.8

> <PUBCHEM_COORDINATE_TYPE>
2
5
10

$$$$

