10004946
  -OEChem-07051213053D

 84 87  0     1  0  0  0  0  0999 V2000
    7.1578    2.1796    0.6435 O   0  0  0  0  0  0  0  0  0  0  0  0
   -5.1329   -2.9039   -0.9857 O   0  0  0  0  0  0  0  0  0  0  0  0
   -4.8650   -2.6161    1.2488 O   0  0  0  0  0  0  0  0  0  0  0  0
   -0.9102   -0.9020   -0.0386 C   0  0  1  0  0  0  0  0  0  0  0  0
    0.2657   -1.8725    0.3275 C   0  0  2  0  0  0  0  0  0  0  0  0
   -2.1451   -1.7770    0.2849 C   0  0  2  0  0  0  0  0  0  0  0  0
    3.1305    0.7905   -0.1976 C   0  0  1  0  0  0  0  0  0  0  0  0
    1.5989   -1.2319   -0.0372 C   0  0  0  0  0  0  0  0  0  0  0  0
    4.2883   -0.2646   -0.0246 C   0  0  2  0  0  0  0  0  0  0  0  0
    1.7743    0.1058    0.1275 C   0  0  0  0  0  0  0  0  0  0  0  0
   -0.1961   -3.1514   -0.4008 C   0  0  0  0  0  0  0  0  0  0  0  0
   -0.7612    0.3695    0.7977 C   0  0  0  0  0  0  0  0  0  0  0  0
   -1.7297   -3.1814   -0.2161 C   0  0  0  0  0  0  0  0  0  0  0  0
    0.6257    1.0151    0.5885 C   0  0  0  0  0  0  0  0  0  0  0  0
    5.7680    0.2743   -0.1040 C   0  0  0  0  0  0  0  0  0  0  0  0
    2.6906   -2.1628   -0.5062 C   0  0  0  0  0  0  0  0  0  0  0  0
    4.0062   -1.4930   -0.9040 C   0  0  0  0  0  0  0  0  0  0  0  0
    3.4193    1.9711    0.7639 C   0  0  0  0  0  0  0  0  0  0  0  0
   -0.9415   -0.4942   -1.5472 C   0  0  0  0  0  0  0  0  0  0  0  0
    0.3879   -2.2280    1.8421 C   0  0  0  0  0  0  0  0  0  0  0  0
   -3.4832   -1.3203   -0.2842 C   0  0  2  0  0  0  0  0  0  0  0  0
    5.9036    1.5216    0.8191 C   0  0  2  0  0  0  0  0  0  0  0  0
    4.8133    2.5635    0.5974 C   0  0  0  0  0  0  0  0  0  0  0  0
    2.9752    1.3372   -1.6373 C   0  0  0  0  0  0  0  0  0  0  0  0
    6.7318   -0.8183    0.4436 C   0  0  0  0  0  0  0  0  0  0  0  0
    6.2549    0.5833   -1.5350 C   0  0  0  0  0  0  0  0  0  0  0  0
   -3.8392    0.0878    0.2299 C   0  0  0  0  0  0  0  0  0  0  0  0
   -4.5433   -2.3403    0.1002 C   0  0  0  0  0  0  0  0  0  0  0  0
   -5.1855    0.6399   -0.2695 C   0  0  0  0  0  0  0  0  0  0  0  0
   -5.5677    2.0012    0.2832 C   0  0  0  0  0  0  0  0  0  0  0  0
   -5.1633    3.2190   -0.5420 C   0  0  0  0  0  0  0  0  0  0  0  0
   -6.2439    2.0768    1.4431 C   0  0  0  0  0  0  0  0  0  0  0  0
   -4.8505    4.4783    0.2776 C   0  0  0  0  0  0  0  0  0  0  0  0
   -6.2339    3.5433   -1.5886 C   0  0  0  0  0  0  0  0  0  0  0  0
   -2.2612   -1.8349    1.3759 H   0  0  0  0  0  0  0  0  0  0  0  0
    4.1942   -0.6220    1.0161 H   0  0  0  0  0  0  0  0  0  0  0  0
    0.2663   -4.0624   -0.0046 H   0  0  0  0  0  0  0  0  0  0  0  0
    0.0432   -3.1153   -1.4700 H   0  0  0  0  0  0  0  0  0  0  0  0
   -0.8980    0.1462    1.8628 H   0  0  0  0  0  0  0  0  0  0  0  0
   -1.4801    1.1560    0.5817 H   0  0  0  0  0  0  0  0  0  0  0  0
   -2.0138   -3.9444    0.5177 H   0  0  0  0  0  0  0  0  0  0  0  0
   -2.2049   -3.4484   -1.1667 H   0  0  0  0  0  0  0  0  0  0  0  0
    0.5055    1.8110   -0.1568 H   0  0  0  0  0  0  0  0  0  0  0  0
    0.9020    1.5049    1.5293 H   0  0  0  0  0  0  0  0  0  0  0  0
    2.3435   -2.7514   -1.3626 H   0  0  0  0  0  0  0  0  0  0  0  0
    2.9013   -2.8749    0.3017 H   0  0  0  0  0  0  0  0  0  0  0  0
    4.7990   -2.2426   -0.8190 H   0  0  0  0  0  0  0  0  0  0  0  0
    3.9699   -1.2166   -1.9630 H   0  0  0  0  0  0  0  0  0  0  0  0
    3.3061    1.6367    1.8043 H   0  0  0  0  0  0  0  0  0  0  0  0
    2.6917    2.7791    0.6164 H   0  0  0  0  0  0  0  0  0  0  0  0
   -1.6864    0.2842   -1.7402 H   0  0  0  0  0  0  0  0  0  0  0  0
    0.0123   -0.0927   -1.9008 H   0  0  0  0  0  0  0  0  0  0  0  0
   -1.1826   -1.3366   -2.2036 H   0  0  0  0  0  0  0  0  0  0  0  0
    0.6450   -1.3596    2.4585 H   0  0  0  0  0  0  0  0  0  0  0  0
   -0.5233   -2.6656    2.2591 H   0  0  0  0  0  0  0  0  0  0  0  0
    1.1811   -2.9697    2.0004 H   0  0  0  0  0  0  0  0  0  0  0  0
   -3.4472   -1.2898   -1.3801 H   0  0  0  0  0  0  0  0  0  0  0  0
    5.8602    1.1938    1.8663 H   0  0  0  0  0  0  0  0  0  0  0  0
    4.9262    3.0399   -0.3829 H   0  0  0  0  0  0  0  0  0  0  0  0
    4.9419    3.3795    1.3208 H   0  0  0  0  0  0  0  0  0  0  0  0
    2.1531    2.0606   -1.6991 H   0  0  0  0  0  0  0  0  0  0  0  0
    3.8562    1.8670   -1.9934 H   0  0  0  0  0  0  0  0  0  0  0  0
    2.7478    0.5485   -2.3617 H   0  0  0  0  0  0  0  0  0  0  0  0
    7.7518   -0.4299    0.5475 H   0  0  0  0  0  0  0  0  0  0  0  0
    6.4152   -1.1692    1.4320 H   0  0  0  0  0  0  0  0  0  0  0  0
    6.7905   -1.6859   -0.2208 H   0  0  0  0  0  0  0  0  0  0  0  0
    7.3424    0.7269   -1.5561 H   0  0  0  0  0  0  0  0  0  0  0  0
    5.8267    1.4990   -1.9418 H   0  0  0  0  0  0  0  0  0  0  0  0
    6.0360   -0.2352   -2.2271 H   0  0  0  0  0  0  0  0  0  0  0  0
   -3.8104    0.1152    1.3259 H   0  0  0  0  0  0  0  0  0  0  0  0
   -3.1259    0.8081   -0.1565 H   0  0  0  0  0  0  0  0  0  0  0  0
    7.2071    2.9016    1.2929 H   0  0  0  0  0  0  0  0  0  0  0  0
   -5.9814   -0.0716   -0.0131 H   0  0  0  0  0  0  0  0  0  0  0  0
   -5.1815    0.6774   -1.3664 H   0  0  0  0  0  0  0  0  0  0  0  0
   -5.8255   -3.5502   -0.7311 H   0  0  0  0  0  0  0  0  0  0  0  0
   -4.2357    2.9642   -1.0722 H   0  0  0  0  0  0  0  0  0  0  0  0
   -6.5533    3.0236    1.8699 H   0  0  0  0  0  0  0  0  0  0  0  0
   -6.5117    1.1811    1.9947 H   0  0  0  0  0  0  0  0  0  0  0  0
   -4.1155    4.2637    1.0610 H   0  0  0  0  0  0  0  0  0  0  0  0
   -4.4290    5.2575   -0.3673 H   0  0  0  0  0  0  0  0  0  0  0  0
   -5.7467    4.8942    0.7502 H   0  0  0  0  0  0  0  0  0  0  0  0
   -6.4270    2.6828   -2.2384 H   0  0  0  0  0  0  0  0  0  0  0  0
   -7.1813    3.8274   -1.1169 H   0  0  0  0  0  0  0  0  0  0  0  0
   -5.9132    4.3738   -2.2268 H   0  0  0  0  0  0  0  0  0  0  0  0
  1 22  1  0  0  0  0
  1 72  1  0  0  0  0
  2 28  1  0  0  0  0
  2 75  1  0  0  0  0
  3 28  2  0  0  0  0
  4  5  1  0  0  0  0
  4  6  1  0  0  0  0
  4 12  1  0  0  0  0
  4 19  1  0  0  0  0
  5  8  1  0  0  0  0
  5 11  1  0  0  0  0
  5 20  1  0  0  0  0
  6 13  1  0  0  0  0
  6 21  1  0  0  0  0
  6 35  1  0  0  0  0
  7  9  1  0  0  0  0
  7 10  1  0  0  0  0
  7 18  1  0  0  0  0
  7 24  1  0  0  0  0
  8 10  2  0  0  0  0
  8 16  1  0  0  0  0
  9 15  1  0  0  0  0
  9 17  1  0  0  0  0
  9 36  1  0  0  0  0
 10 14  1  0  0  0  0
 11 13  1  0  0  0  0
 11 37  1  0  0  0  0
 11 38  1  0  0  0  0
 12 14  1  0  0  0  0
 12 39  1  0  0  0  0
 12 40  1  0  0  0  0
 13 41  1  0  0  0  0
 13 42  1  0  0  0  0
 14 43  1  0  0  0  0
 14 44  1  0  0  0  0
 15 22  1  0  0  0  0
 15 25  1  0  0  0  0
 15 26  1  0  0  0  0
 16 17  1  0  0  0  0
 16 45  1  0  0  0  0
 16 46  1  0  0  0  0
 17 47  1  0  0  0  0
 17 48  1  0  0  0  0
 18 23  1  0  0  0  0
 18 49  1  0  0  0  0
 18 50  1  0  0  0  0
 19 51  1  0  0  0  0
 19 52  1  0  0  0  0
 19 53  1  0  0  0  0
 20 54  1  0  0  0  0
 20 55  1  0  0  0  0
 20 56  1  0  0  0  0
 21 27  1  0  0  0  0
 21 28  1  0  0  0  0
 21 57  1  0  0  0  0
 22 23  1  0  0  0  0
 22 58  1  0  0  0  0
 23 59  1  0  0  0  0
 23 60  1  0  0  0  0
 24 61  1  0  0  0  0
 24 62  1  0  0  0  0
 24 63  1  0  0  0  0
 25 64  1  0  0  0  0
 25 65  1  0  0  0  0
 25 66  1  0  0  0  0
 26 67  1  0  0  0  0
 26 68  1  0  0  0  0
 26 69  1  0  0  0  0
 27 29  1  0  0  0  0
 27 70  1  0  0  0  0
 27 71  1  0  0  0  0
 29 30  1  0  0  0  0
 29 73  1  0  0  0  0
 29 74  1  0  0  0  0
 30 31  1  0  0  0  0
 30 32  2  0  0  0  0
 31 33  1  0  0  0  0
 31 34  1  0  0  0  0
 31 76  1  0  0  0  0
 32 77  1  0  0  0  0
 32 78  1  0  0  0  0
 33 79  1  0  0  0  0
 33 80  1  0  0  0  0
 33 81  1  0  0  0  0
 34 82  1  0  0  0  0
 34 83  1  0  0  0  0
 34 84  1  0  0  0  0
M  END
> <PUBCHEM_COMPOUND_CID>
10004946

> <PUBCHEM_CONFORMER_RMSD>
1

> <PUBCHEM_CONFORMER_DIVERSEORDER>
1
9
10
13
14
7
11
19
4
15
5
17
18
6
16
3
8
2
12

> <PUBCHEM_MMFF94_PARTIAL_CHARGES>
20
1 -0.68
10 -0.28
14 0.14
16 0.14
2 -0.65
21 0.06
22 0.28
28 0.66
29 0.14
3 -0.57
30 -0.28
31 0.14
32 -0.3
5 0.14
7 0.14
72 0.4
75 0.5
77 0.15
78 0.15
8 -0.28

> <PUBCHEM_EFFECTIVE_ROTOR_COUNT>
8.2

> <PUBCHEM_PHARMACOPHORE_FEATURES>
13
1 1 acceptor
1 1 donor
1 2 acceptor
1 3 acceptor
1 32 hydrophobe
3 15 25 26 hydrophobe
3 2 3 28 anion
3 31 33 34 hydrophobe
5 21 27 29 30 31 hydrophobe
5 4 5 6 11 13 rings
6 4 5 8 10 12 14 rings
6 7 8 9 10 16 17 rings
6 7 9 15 18 22 23 rings

> <PUBCHEM_HEAVY_ATOM_COUNT>
34

> <PUBCHEM_ATOM_DEF_STEREO_COUNT>
6

> <PUBCHEM_ATOM_UDEF_STEREO_COUNT>
1

> <PUBCHEM_BOND_DEF_STEREO_COUNT>
0

> <PUBCHEM_BOND_UDEF_STEREO_COUNT>
0

> <PUBCHEM_ISOTOPIC_ATOM_COUNT>
0

> <PUBCHEM_COMPONENT_COUNT>
1

> <PUBCHEM_CACTVS_TAUTO_COUNT>
1

> <PUBCHEM_CONFORMER_ID>
0098A9D200000001

> <PUBCHEM_MMFF94_ENERGY>
124.1227

> <PUBCHEM_FEATURE_SELFOVERLAP>
66.144

> <PUBCHEM_SHAPE_FINGERPRINT>
10050765 1 18338237167312521299
10674148 151 18273494599012327274
10675989 125 18048031058378955211
10835480 77 18261115153907422584
11456790 92 18130790126956577746
12107183 9 18126576836363062274
12422481 6 17632293531722122469
13690498 29 17677627371652221959
13944108 23 17759524761081791481
14294032 229 18059857294216541068
14790565 3 18410292531918693323
14950920 106 15123212335413189181
15021287 119 17346595253392223813
15183329 4 18410013229926331084
15274700 147 16615868346751499860
15419008 42 17968089880439806438
15510800 12 6987734520835304789
18608769 82 18336825291788058195
19611394 137 17986096424324691531
20511986 3 18041007219888695162
20691028 202 18190457358858571265
20715895 44 18335984259243448482
21033648 144 18334575776543507229
21130935 74 18413110542125920234
21223535 225 18334583455554662420
21236236 1 18409167680337389739
21279426 13 18260824917165324788
21424621 283 18272930544134024386
21859007 373 18407763638227385652
21927370 108 18126556835829285099
21987440 362 18267864076384549517
23522609 53 17559936810687348724
23559900 14 18113338630475361810
23569914 152 17029642575669416396
23569914 2 17537206606184681385
23569943 247 16629148600752493898
249057 25 17774719745051191023
2747138 104 18127401247120180259
2838139 119 18408609179548087517
3418910 222 17771612461104664437
350125 39 18411417328298515708
4058900 60 18200307852796417651
4073 2 18343579612316700866
4144715 1 18342446058715274923
5104073 3 18272371979384930403
5283173 99 18335984181659795744
563151 97 18411709802977349647
6086070 43 17386018259990853961

> <PUBCHEM_SHAPE_MULTIPOLES>
682.1
17.81
4.58
1.29
2.13
1.31
-0.13
14.85
-0.19
-7.4
-0.04
-0.14
0.21
1.06

> <PUBCHEM_SHAPE_SELFOVERLAP>
1425.44

> <PUBCHEM_SHAPE_VOLUME>
385.7

> <PUBCHEM_COORDINATE_TYPE>
2
5
10

$$$$

