440894
  -OEChem-07051212512D

 23 22  0     1  0  0  0  0  0999 V2000
    3.7690    0.8660    0.0000 O   0  0  0  0  0  0  0  0  0  0  0  0
    2.5369    0.0000    0.0000 O   0  0  0  0  0  0  0  0  0  0  0  0
    3.4030   -1.5000    0.0000 O   0  0  0  0  0  0  0  0  0  0  0  0
    7.7331    0.0000    0.0000 O   0  0  0  0  0  0  0  0  0  0  0  0
    6.8671    1.5000    0.0000 O   0  0  0  0  0  0  0  0  0  0  0  0
    6.0010   -1.0000    0.0000 N   0  0  0  0  0  0  0  0  0  0  0  0
    4.2690    0.0000    0.0000 C   0  0  2  0  0  0  0  0  0  0  0  0
    5.1350    0.5000    0.0000 C   0  0  0  0  0  0  0  0  0  0  0  0
    6.0010    0.0000    0.0000 C   0  0  1  0  0  0  0  0  0  0  0  0
    4.7690   -0.8660    0.0000 C   0  0  0  0  0  0  0  0  0  0  0  0
    3.4030   -0.5000    0.0000 C   0  0  0  0  0  0  0  0  0  0  0  0
    6.8671    0.5000    0.0000 C   0  0  0  0  0  0  0  0  0  0  0  0
    5.5335    0.9749    0.0000 H   0  0  0  0  0  0  0  0  0  0  0  0
    4.7365    0.9749    0.0000 H   0  0  0  0  0  0  0  0  0  0  0  0
    6.5380   -0.3100    0.0000 H   0  0  0  0  0  0  0  0  0  0  0  0
    4.2320   -1.1760    0.0000 H   0  0  0  0  0  0  0  0  0  0  0  0
    5.0790   -1.4030    0.0000 H   0  0  0  0  0  0  0  0  0  0  0  0
    5.3059   -0.5560    0.0000 H   0  0  0  0  0  0  0  0  0  0  0  0
    6.5380   -1.3100    0.0000 H   0  0  0  0  0  0  0  0  0  0  0  0
    5.4641   -1.3100    0.0000 H   0  0  0  0  0  0  0  0  0  0  0  0
    4.0790    1.4030    0.0000 H   0  0  0  0  0  0  0  0  0  0  0  0
    2.0000   -0.3100    0.0000 H   0  0  0  0  0  0  0  0  0  0  0  0
    8.2700    0.3100    0.0000 H   0  0  0  0  0  0  0  0  0  0  0  0
  7  1  1  6  0  0  0
  1 21  1  0  0  0  0
  2 11  1  0  0  0  0
  2 22  1  0  0  0  0
  3 11  2  0  0  0  0
  4 12  1  0  0  0  0
  4 23  1  0  0  0  0
  5 12  2  0  0  0  0
  9  6  1  1  0  0  0
  6 19  1  0  0  0  0
  6 20  1  0  0  0  0
  7  8  1  0  0  0  0
  7 10  1  0  0  0  0
  7 11  1  0  0  0  0
  8  9  1  0  0  0  0
  8 13  1  0  0  0  0
  8 14  1  0  0  0  0
  9 12  1  0  0  0  0
  9 15  1  0  0  0  0
 10 16  1  0  0  0  0
 10 17  1  0  0  0  0
 10 18  1  0  0  0  0
M  END
> <PUBCHEM_COMPOUND_CID>
440894

> <PUBCHEM_COMPOUND_CANONICALIZED>
1

> <PUBCHEM_CACTVS_COMPLEXITY>
204

> <PUBCHEM_CACTVS_HBOND_ACCEPTOR>
6

> <PUBCHEM_CACTVS_HBOND_DONOR>
4

> <PUBCHEM_CACTVS_ROTATABLE_BOND>
4

> <PUBCHEM_CACTVS_SUBSKEYS>
AAADccBiOAAAAAAAAAAAAAAAAAAAAAAAAAAAAAAAAAAAAAAAAAAAHgAQCAAADGzBgAQCCABAAgAIAACQCAIAAAAAAAAAAIHAAAADABIAgAAAQAAGEAABAADuJgAMAAAAAAAAAAAAAAAAAAAAAAAAAAAAAA==

> <PUBCHEM_IUPAC_OPENEYE_NAME>
(2S,4S)-4-amino-2-hydroxy-2-methyl-pentanedioic acid

> <PUBCHEM_IUPAC_CAS_NAME>
(2S,4S)-4-amino-2-hydroxy-2-methylpentanedioic acid

> <PUBCHEM_IUPAC_NAME>
(2S,4S)-4-amino-2-hydroxy-2-methylpentanedioic acid

> <PUBCHEM_IUPAC_SYSTEMATIC_NAME>
(2S,4S)-4-azanyl-2-methyl-2-oxidanyl-pentanedioic acid

> <PUBCHEM_IUPAC_TRADITIONAL_NAME>
(2S,4S)-4-amino-2-hydroxy-2-methyl-glutaric acid

> <PUBCHEM_IUPAC_INCHI>
InChI=1S/C6H11NO5/c1-6(12,5(10)11)2-3(7)4(8)9/h3,12H,2,7H2,1H3,(H,8,9)(H,10,11)/t3-,6-/m0/s1

> <PUBCHEM_IUPAC_INCHIKEY>
ONTAOGAXMOTXQW-DZSWIPIPSA-N

> <PUBCHEM_XLOGP3_AA>
-3.9

> <PUBCHEM_EXACT_MASS>
177.063722

> <PUBCHEM_MOLECULAR_FORMULA>
C6H11NO5

> <PUBCHEM_MOLECULAR_WEIGHT>
177.15524

> <PUBCHEM_OPENEYE_CAN_SMILES>
CC(CC(C(=O)O)N)(C(=O)O)O

> <PUBCHEM_OPENEYE_ISO_SMILES>
C[C@](C[C@@H](C(=O)O)N)(C(=O)O)O

> <PUBCHEM_CACTVS_TPSA>
121

> <PUBCHEM_MONOISOTOPIC_WEIGHT>
177.063722

> <PUBCHEM_TOTAL_CHARGE>
0

> <PUBCHEM_HEAVY_ATOM_COUNT>
12

> <PUBCHEM_ATOM_DEF_STEREO_COUNT>
2

> <PUBCHEM_ATOM_UDEF_STEREO_COUNT>
0

> <PUBCHEM_BOND_DEF_STEREO_COUNT>
0

> <PUBCHEM_BOND_UDEF_STEREO_COUNT>
0

> <PUBCHEM_ISOTOPIC_ATOM_COUNT>
0

> <PUBCHEM_COMPONENT_COUNT>
1

> <PUBCHEM_CACTVS_TAUTO_COUNT>
1

> <PUBCHEM_COORDINATE_TYPE>
1
5
255

> <PUBCHEM_BONDANNOTATIONS>
7  1  6
9  6  5

$$$$

