72258
  -OEChem-07051212593D

 24 24  0     1  0  0  0  0  0999 V2000
   -1.0893   -1.8514   -0.2356 O   0  0  0  0  0  0  0  0  0  0  0  0
    1.7372   -1.9878    0.0909 O   0  0  0  0  0  0  0  0  0  0  0  0
    2.2350    0.5524    1.1345 O   0  0  0  0  0  0  0  0  0  0  0  0
   -3.1879   -0.2990    0.1246 O   0  0  0  0  0  0  0  0  0  0  0  0
   -0.1578    1.7537   -0.0290 N   0  0  0  0  0  0  0  0  0  0  0  0
   -0.3147   -0.7239    0.1753 C   0  0  2  0  0  0  0  0  0  0  0  0
   -1.0027    0.5780   -0.2810 C   0  0  1  0  0  0  0  0  0  0  0  0
    1.0695   -0.8584   -0.4667 C   0  0  1  0  0  0  0  0  0  0  0  0
    1.9081    0.4015   -0.2478 C   0  0  1  0  0  0  0  0  0  0  0  0
    1.1430    1.6443   -0.6984 C   0  0  0  0  0  0  0  0  0  0  0  0
   -2.3405    0.7905    0.4331 C   0  0  0  0  0  0  0  0  0  0  0  0
   -0.2414   -0.7689    1.2685 H   0  0  0  0  0  0  0  0  0  0  0  0
   -1.2140    0.5069   -1.3572 H   0  0  0  0  0  0  0  0  0  0  0  0
    0.9674   -1.0514   -1.5414 H   0  0  0  0  0  0  0  0  0  0  0  0
    2.8564    0.3252   -0.7918 H   0  0  0  0  0  0  0  0  0  0  0  0
    1.7206    2.5434   -0.4560 H   0  0  0  0  0  0  0  0  0  0  0  0
    0.9992    1.6343   -1.7852 H   0  0  0  0  0  0  0  0  0  0  0  0
   -0.0037    1.8437    0.9759 H   0  0  0  0  0  0  0  0  0  0  0  0
   -2.8304    1.7148    0.1078 H   0  0  0  0  0  0  0  0  0  0  0  0
   -2.2166    0.8328    1.5206 H   0  0  0  0  0  0  0  0  0  0  0  0
   -1.1955   -1.8089   -1.2013 H   0  0  0  0  0  0  0  0  0  0  0  0
    1.7358   -1.8942    1.0584 H   0  0  0  0  0  0  0  0  0  0  0  0
    2.8241   -0.1819    1.3769 H   0  0  0  0  0  0  0  0  0  0  0  0
   -3.3303   -0.3016   -0.8373 H   0  0  0  0  0  0  0  0  0  0  0  0
  1  6  1  0  0  0  0
  1 21  1  0  0  0  0
  2  8  1  0  0  0  0
  2 22  1  0  0  0  0
  3  9  1  0  0  0  0
  3 23  1  0  0  0  0
  4 11  1  0  0  0  0
  4 24  1  0  0  0  0
  5  7  1  0  0  0  0
  5 10  1  0  0  0  0
  5 18  1  0  0  0  0
  6  7  1  0  0  0  0
  6  8  1  0  0  0  0
  6 12  1  0  0  0  0
  7 11  1  0  0  0  0
  7 13  1  0  0  0  0
  8  9  1  0  0  0  0
  8 14  1  0  0  0  0
  9 10  1  0  0  0  0
  9 15  1  0  0  0  0
 10 16  1  0  0  0  0
 10 17  1  0  0  0  0
 11 19  1  0  0  0  0
 11 20  1  0  0  0  0
M  END
> <PUBCHEM_COMPOUND_CID>
72258

> <PUBCHEM_CONFORMER_RMSD>
0.6

> <PUBCHEM_CONFORMER_DIVERSEORDER>
1
5
4
2
3

> <PUBCHEM_MMFF94_PARTIAL_CHARGES>
16
1 -0.68
10 0.27
11 0.28
18 0.36
2 -0.68
21 0.4
22 0.4
23 0.4
24 0.4
3 -0.68
4 -0.68
5 -0.9
6 0.28
7 0.27
8 0.28
9 0.28

> <PUBCHEM_EFFECTIVE_ROTOR_COUNT>
2.2

> <PUBCHEM_PHARMACOPHORE_FEATURES>
11
1 1 acceptor
1 1 donor
1 2 acceptor
1 2 donor
1 3 acceptor
1 3 donor
1 4 acceptor
1 4 donor
1 5 cation
1 5 donor
6 5 6 7 8 9 10 rings

> <PUBCHEM_HEAVY_ATOM_COUNT>
11

> <PUBCHEM_ATOM_DEF_STEREO_COUNT>
4

> <PUBCHEM_ATOM_UDEF_STEREO_COUNT>
0

> <PUBCHEM_BOND_DEF_STEREO_COUNT>
0

> <PUBCHEM_BOND_UDEF_STEREO_COUNT>
0

> <PUBCHEM_ISOTOPIC_ATOM_COUNT>
0

> <PUBCHEM_COMPONENT_COUNT>
1

> <PUBCHEM_CACTVS_TAUTO_COUNT>
1

> <PUBCHEM_CONFORMER_ID>
00011A4200000001

> <PUBCHEM_MMFF94_ENERGY>
18.3427

> <PUBCHEM_FEATURE_SELFOVERLAP>
55.853

> <PUBCHEM_SHAPE_FINGERPRINT>
10857977 72 18341896298758594745
12423570 1 16042564292155950861
16945 1 18411700958884708837
18185500 45 18410854317693241460
20711978 78 17751085906005421812
21040471 1 18408879620553322141
23235685 24 18410573959608793124
23552423 10 18271234019193511079
241688 4 17981319311476795744
2748010 2 18196093476008186357
29004967 10 18343297093530821273
5084963 1 18263357143603963721
66348 1 17907860961052243373

> <PUBCHEM_SHAPE_MULTIPOLES>
197.92
3.33
1.92
0.78
1.86
0.35
0.08
0.03
0.5
-0.46
-0.19
-0.27
-0.12
-0.11

> <PUBCHEM_SHAPE_SELFOVERLAP>
390.706

> <PUBCHEM_SHAPE_VOLUME>
116.7

> <PUBCHEM_COORDINATE_TYPE>
2
5
10

$$$$

