656729
  -OEChem-07051213042D

 34 36  0     0  0  0  0  0  0999 V2000
    7.3424    0.8047    0.0000 O   0  0  0  0  0  0  0  0  0  0  0  0
    5.5301   -2.0000    0.0000 O   0  0  0  0  0  0  0  0  0  0  0  0
    5.5301    2.0000    0.0000 O   0  0  0  0  0  0  0  0  0  0  0  0
    3.7702    1.0347    0.0000 O   0  0  0  0  0  0  0  0  0  0  0  0
    2.0000    1.0241    0.0000 O   0  0  0  0  0  0  0  0  0  0  0  0
    6.3961   -0.5000    0.0000 C   0  0  0  0  0  0  0  0  0  0  0  0
    4.6641   -0.5000    0.0000 C   0  0  0  0  0  0  0  0  0  0  0  0
    5.5301   -1.0000    0.0000 C   0  0  0  0  0  0  0  0  0  0  0  0
    6.3961    0.5000    0.0000 C   0  0  0  0  0  0  0  0  0  0  0  0
    4.6641    0.5000    0.0000 C   0  0  0  0  0  0  0  0  0  0  0  0
    5.5301    1.0000    0.0000 C   0  0  0  0  0  0  0  0  0  0  0  0
    7.3424   -0.8047    0.0000 C   0  0  0  0  0  0  0  0  0  0  0  0
    3.7702   -1.0347    0.0000 C   0  0  0  0  0  0  0  0  0  0  0  0
    7.9260    0.0000    0.0000 C   0  0  0  0  0  0  0  0  0  0  0  0
    2.8641   -0.5208    0.0000 C   0  0  0  0  0  0  0  0  0  0  0  0
    6.3961   -2.5000    0.0000 C   0  0  0  0  0  0  0  0  0  0  0  0
    6.3961    2.5000    0.0000 C   0  0  0  0  0  0  0  0  0  0  0  0
    2.8641    0.5208    0.0000 C   0  0  0  0  0  0  0  0  0  0  0  0
    6.3961   -3.5000    0.0000 C   0  0  0  0  0  0  0  0  0  0  0  0
    6.3961    3.5000    0.0000 C   0  0  0  0  0  0  0  0  0  0  0  0
    7.5350   -1.3940    0.0000 H   0  0  0  0  0  0  0  0  0  0  0  0
    3.7773   -1.6546    0.0000 H   0  0  0  0  0  0  0  0  0  0  0  0
    8.5460    0.0000    0.0000 H   0  0  0  0  0  0  0  0  0  0  0  0
    2.3284   -0.8329    0.0000 H   0  0  0  0  0  0  0  0  0  0  0  0
    7.0067   -2.6077    0.0000 H   0  0  0  0  0  0  0  0  0  0  0  0
    6.6082   -1.9174    0.0000 H   0  0  0  0  0  0  0  0  0  0  0  0
    6.6082    1.9174    0.0000 H   0  0  0  0  0  0  0  0  0  0  0  0
    7.0067    2.6077    0.0000 H   0  0  0  0  0  0  0  0  0  0  0  0
    5.7762   -3.5000    0.0000 H   0  0  0  0  0  0  0  0  0  0  0  0
    6.3961   -4.1200    0.0000 H   0  0  0  0  0  0  0  0  0  0  0  0
    7.0162   -3.5000    0.0000 H   0  0  0  0  0  0  0  0  0  0  0  0
    7.0162    3.5000    0.0000 H   0  0  0  0  0  0  0  0  0  0  0  0
    6.3961    4.1200    0.0000 H   0  0  0  0  0  0  0  0  0  0  0  0
    5.7762    3.5000    0.0000 H   0  0  0  0  0  0  0  0  0  0  0  0
  1  9  1  0  0  0  0
  1 14  1  0  0  0  0
  2  8  1  0  0  0  0
  2 16  1  0  0  0  0
  3 11  1  0  0  0  0
  3 17  1  0  0  0  0
  4 10  1  0  0  0  0
  4 18  1  0  0  0  0
  5 18  2  0  0  0  0
  6  8  2  0  0  0  0
  6  9  1  0  0  0  0
  6 12  1  0  0  0  0
  7  8  1  0  0  0  0
  7 10  2  0  0  0  0
  7 13  1  0  0  0  0
  9 11  2  0  0  0  0
 10 11  1  0  0  0  0
 12 14  2  0  0  0  0
 12 21  1  0  0  0  0
 13 15  2  0  0  0  0
 13 22  1  0  0  0  0
 14 23  1  0  0  0  0
 15 18  1  0  0  0  0
 15 24  1  0  0  0  0
 16 19  1  0  0  0  0
 16 25  1  0  0  0  0
 16 26  1  0  0  0  0
 17 20  1  0  0  0  0
 17 27  1  0  0  0  0
 17 28  1  0  0  0  0
 19 29  1  0  0  0  0
 19 30  1  0  0  0  0
 19 31  1  0  0  0  0
 20 32  1  0  0  0  0
 20 33  1  0  0  0  0
 20 34  1  0  0  0  0
M  END
> <PUBCHEM_COMPOUND_CID>
656729

> <PUBCHEM_COMPOUND_CANONICALIZED>
1

> <PUBCHEM_CACTVS_COMPLEXITY>
394

> <PUBCHEM_CACTVS_HBOND_ACCEPTOR>
5

> <PUBCHEM_CACTVS_HBOND_DONOR>
0

> <PUBCHEM_CACTVS_ROTATABLE_BOND>
4

> <PUBCHEM_CACTVS_SUBSKEYS>
AAADccBwOAAAAAAAAAAAAAAAAAAAASAAAAAwQAAAAAAAAEiB8AAAGgAAAAAADASgmAIyDsAABECIAqjSiAICCAAkIAAIiAFGiMgNJzaENB6CO2Kl4BUKqYfK7PzOIQADCAAIQABCAAYQABCAAAAAAAAAAA==

> <PUBCHEM_IUPAC_OPENEYE_NAME>
4,9-diethoxyfuro[3,2-g]chromen-7-one

> <PUBCHEM_IUPAC_CAS_NAME>
4,9-diethoxy-7-furo[3,2-g][1]benzopyranone

> <PUBCHEM_IUPAC_NAME>
4,9-diethoxyfuro[3,2-g]chromen-7-one

> <PUBCHEM_IUPAC_SYSTEMATIC_NAME>
4,9-diethoxyfuro[3,2-g]chromen-7-one

> <PUBCHEM_IUPAC_TRADITIONAL_NAME>
4,9-diethoxyfuro[3,2-g]chromen-7-one

> <PUBCHEM_IUPAC_INCHI>
InChI=1S/C15H14O5/c1-3-17-12-9-5-6-11(16)20-14(9)15(18-4-2)13-10(12)7-8-19-13/h5-8H,3-4H2,1-2H3

> <PUBCHEM_IUPAC_INCHIKEY>
XZJRLHJHYQCJTH-UHFFFAOYSA-N

> <PUBCHEM_XLOGP3_AA>
3

> <PUBCHEM_EXACT_MASS>
274.084124

> <PUBCHEM_MOLECULAR_FORMULA>
C15H14O5

> <PUBCHEM_MOLECULAR_WEIGHT>
274.26866

> <PUBCHEM_OPENEYE_CAN_SMILES>
CCOC1=C2C=COC2=C(C3=C1C=CC(=O)O3)OCC

> <PUBCHEM_OPENEYE_ISO_SMILES>
CCOC1=C2C=COC2=C(C3=C1C=CC(=O)O3)OCC

> <PUBCHEM_CACTVS_TPSA>
57.9

> <PUBCHEM_MONOISOTOPIC_WEIGHT>
274.084124

> <PUBCHEM_TOTAL_CHARGE>
0

> <PUBCHEM_HEAVY_ATOM_COUNT>
20

> <PUBCHEM_ATOM_DEF_STEREO_COUNT>
0

> <PUBCHEM_ATOM_UDEF_STEREO_COUNT>
0

> <PUBCHEM_BOND_DEF_STEREO_COUNT>
0

> <PUBCHEM_BOND_UDEF_STEREO_COUNT>
0

> <PUBCHEM_ISOTOPIC_ATOM_COUNT>
0

> <PUBCHEM_COMPONENT_COUNT>
1

> <PUBCHEM_CACTVS_TAUTO_COUNT>
1

> <PUBCHEM_COORDINATE_TYPE>
1
5
255

> <PUBCHEM_BONDANNOTATIONS>
1  14  8
1  9  8
10  11  8
12  14  8
13  15  8
15  18  8
4  10  8
4  18  8
6  12  8
6  8  8
6  9  8
7  10  8
7  13  8
7  8  8
9  11  8

$$$$

