80103
  -OEChem-07051212593D

 29 31  0     0  0  0  0  0  0999 V2000
    4.3226   -0.2542   -0.2677 O   0  0  0  0  0  0  0  0  0  0  0  0
    2.2838   -2.0635   -0.2022 O   0  0  0  0  0  0  0  0  0  0  0  0
   -0.2572   -2.4549   -0.0957 O   0  0  0  0  0  0  0  0  0  0  0  0
   -1.2177    2.8006    0.0347 O   0  0  0  0  0  0  0  0  0  0  0  0
    0.6557   -0.2740   -0.1002 C   0  0  0  0  0  0  0  0  0  0  0  0
    0.3973    1.0979   -0.0660 C   0  0  0  0  0  0  0  0  0  0  0  0
   -1.8438   -0.7475    0.0041 C   0  0  0  0  0  0  0  0  0  0  0  0
   -2.1023    0.6245    0.0379 C   0  0  0  0  0  0  0  0  0  0  0  0
   -0.4554   -1.2468   -0.0661 C   0  0  0  0  0  0  0  0  0  0  0  0
   -0.9912    1.5973    0.0039 C   0  0  0  0  0  0  0  0  0  0  0  0
    1.9761   -0.7344   -0.1675 C   0  0  0  0  0  0  0  0  0  0  0  0
    1.4594    2.0095   -0.0987 C   0  0  0  0  0  0  0  0  0  0  0  0
    3.0316    0.1775   -0.2004 C   0  0  0  0  0  0  0  0  0  0  0  0
   -2.9059   -1.6590    0.0370 C   0  0  0  0  0  0  0  0  0  0  0  0
   -3.4228    1.0850    0.1042 C   0  0  0  0  0  0  0  0  0  0  0  0
    2.7737    1.5464   -0.1658 C   0  0  0  0  0  0  0  0  0  0  0  0
   -4.2203   -1.1960    0.1029 C   0  0  0  0  0  0  0  0  0  0  0  0
   -4.4783    0.1731    0.1363 C   0  0  0  0  0  0  0  0  0  0  0  0
    4.9947   -0.4814    0.9692 C   0  0  0  0  0  0  0  0  0  0  0  0
    1.2848    3.0817   -0.0734 H   0  0  0  0  0  0  0  0  0  0  0  0
   -2.7332   -2.7316    0.0121 H   0  0  0  0  0  0  0  0  0  0  0  0
   -3.6502    2.1473    0.1314 H   0  0  0  0  0  0  0  0  0  0  0  0
    3.5925    2.2606   -0.1921 H   0  0  0  0  0  0  0  0  0  0  0  0
   -5.0439   -1.9037    0.1282 H   0  0  0  0  0  0  0  0  0  0  0  0
   -5.5025    0.5310    0.1875 H   0  0  0  0  0  0  0  0  0  0  0  0
    1.4826   -2.6064   -0.1648 H   0  0  0  0  0  0  0  0  0  0  0  0
    6.0063   -0.8337    0.7499 H   0  0  0  0  0  0  0  0  0  0  0  0
    4.4771   -1.2473    1.5555 H   0  0  0  0  0  0  0  0  0  0  0  0
    5.0647    0.4478    1.5435 H   0  0  0  0  0  0  0  0  0  0  0  0
  1 13  1  0  0  0  0
  1 19  1  0  0  0  0
  2 11  1  0  0  0  0
  2 26  1  0  0  0  0
  3  9  2  0  0  0  0
  4 10  2  0  0  0  0
  5  6  2  0  0  0  0
  5  9  1  0  0  0  0
  5 11  1  0  0  0  0
  6 10  1  0  0  0  0
  6 12  1  0  0  0  0
  7  8  1  0  0  0  0
  7  9  1  0  0  0  0
  7 14  2  0  0  0  0
  8 10  1  0  0  0  0
  8 15  2  0  0  0  0
 11 13  2  0  0  0  0
 12 16  2  0  0  0  0
 12 20  1  0  0  0  0
 13 16  1  0  0  0  0
 14 17  1  0  0  0  0
 14 21  1  0  0  0  0
 15 18  1  0  0  0  0
 15 22  1  0  0  0  0
 16 23  1  0  0  0  0
 17 18  2  0  0  0  0
 17 24  1  0  0  0  0
 18 25  1  0  0  0  0
 19 27  1  0  0  0  0
 19 28  1  0  0  0  0
 19 29  1  0  0  0  0
M  END
> <PUBCHEM_COMPOUND_CID>
80103

> <PUBCHEM_CONFORMER_RMSD>
0.6

> <PUBCHEM_CONFORMER_DIVERSEORDER>
1

> <PUBCHEM_MMFF94_PARTIAL_CHARGES>
26
1 -0.36
10 0.4
11 0.08
12 -0.15
13 0.08
14 -0.15
15 -0.15
16 -0.15
17 -0.15
18 -0.15
19 0.28
2 -0.53
20 0.15
21 0.15
22 0.15
23 0.15
24 0.15
25 0.15
26 0.45
3 -0.57
4 -0.57
5 0.09
6 0.09
7 0.09
8 0.09
9 0.4

> <PUBCHEM_EFFECTIVE_ROTOR_COUNT>
1

> <PUBCHEM_PHARMACOPHORE_FEATURES>
7
1 1 acceptor
1 2 donor
1 3 acceptor
1 4 acceptor
6 5 6 11 12 13 16 rings
6 5 6 7 8 9 10 rings
6 7 8 14 15 17 18 rings

> <PUBCHEM_HEAVY_ATOM_COUNT>
19

> <PUBCHEM_ATOM_DEF_STEREO_COUNT>
0

> <PUBCHEM_ATOM_UDEF_STEREO_COUNT>
0

> <PUBCHEM_BOND_DEF_STEREO_COUNT>
0

> <PUBCHEM_BOND_UDEF_STEREO_COUNT>
0

> <PUBCHEM_ISOTOPIC_ATOM_COUNT>
0

> <PUBCHEM_COMPONENT_COUNT>
1

> <PUBCHEM_CACTVS_TAUTO_COUNT>
5

> <PUBCHEM_CONFORMER_ID>
000138E700000001

> <PUBCHEM_MMFF94_ENERGY>
69.4701

> <PUBCHEM_FEATURE_SELFOVERLAP>
35.562

> <PUBCHEM_SHAPE_FINGERPRINT>
10062212 137 18410580552420496151
10616163 171 18409163324929386759
10967382 1 18410290298514548423
11132069 177 18334011704870008843
11471102 20 18410857611959654741
12236239 1 17846779629118849442
13140716 1 18266181621746361010
13221675 6 18409728469320835542
13288520 33 18410290328716417668
13862211 1 18410860944844045055
14115302 16 17845925247869229542
14178342 30 18192714668624192912
14790565 3 18338504240873414036
15042514 8 18411136892203438859
15196674 1 18410854313482851965
15442244 35 18266456696884268234
15536298 74 18262235525732217768
16945 1 18410567426736539653
17802600 8 18410296899631479396
17804303 29 18408601448833846860
1813 80 17131270307240799094
18522853 276 18408324384619620840
193761 8 17978226389747269917
19591789 44 18338796689496457331
200 152 18113903741008166927
20028762 73 18042967567380368511
20510252 161 18188490305920954112
21267235 1 18410845543344418735
21421861 104 17915462915727528954
21501502 16 18266739086736414356
221490 88 18198052578243186019
22182313 1 18189334748463322694
2334 1 18338232648837224437
23366157 5 17914900825116102572
23402539 116 18334584524737599319
23463225 33 18411979139811355493
23559900 14 18262798592261673006
2748010 2 18410572843138621405
335352 9 18410855485987760245
34934 24 18338523035897571479
350125 39 18411133645171174812
43471831 8 18270120244016911546
5104073 3 18338514140619460177
69090 78 18334297543575878727
8809292 202 18272366434449879219
9709674 26 18409721859356098254
9981440 41 17190380803394755784

> <PUBCHEM_SHAPE_MULTIPOLES>
367.53
8.08
2.38
0.66
1.86
0.36
0.05
-1.56
1.16
-0.29
-0.07
0.25
-0.03
-0.16

> <PUBCHEM_SHAPE_SELFOVERLAP>
828.39

> <PUBCHEM_SHAPE_VOLUME>
192

> <PUBCHEM_COORDINATE_TYPE>
2
5
10

$$$$

