443070
  -OEChem-07051213012D

 33 34  0     1  0  0  0  0  0999 V2000
    5.1350   -0.5189    0.0000 O   0  0  0  0  0  0  0  0  0  0  0  0
    2.5369   -2.0189    0.0000 O   0  0  0  0  0  0  0  0  0  0  0  0
    2.5369   -0.0189    0.0000 O   0  0  0  0  0  0  0  0  0  0  0  0
    4.2690   -3.0189    0.0000 O   0  0  0  0  0  0  0  0  0  0  0  0
    3.4600    1.5689    0.0000 O   0  0  0  0  0  0  0  0  0  0  0  0
    6.8671   -1.5189    0.0000 O   0  0  0  0  0  0  0  0  0  0  0  0
    6.0291    1.2598    0.0000 O   0  0  0  0  0  0  0  0  0  0  0  0
    4.2690    0.9811    0.0000 N   0  0  0  0  0  0  0  0  0  0  0  0
    3.4030   -1.5189    0.0000 C   0  0  2  0  0  0  0  0  0  0  0  0
    3.4030   -0.5189    0.0000 C   0  0  2  0  0  0  0  0  0  0  0  0
    4.2690   -2.0189    0.0000 C   0  0  1  0  0  0  0  0  0  0  0  0
    4.2690   -0.0189    0.0000 C   0  0  2  0  0  0  0  0  0  0  0  0
    5.1350   -1.5189    0.0000 C   0  0  1  0  0  0  0  0  0  0  0  0
    6.0010   -2.0189    0.0000 C   0  0  0  0  0  0  0  0  0  0  0  0
    5.0780    1.5689    0.0000 C   0  0  0  0  0  0  0  0  0  0  0  0
    3.7690    2.5199    0.0000 C   0  0  0  0  0  0  0  0  0  0  0  0
    4.7690    2.5199    0.0000 C   0  0  0  0  0  0  0  0  0  0  0  0
    3.1812    3.3289    0.0000 C   0  0  0  0  0  0  0  0  0  0  0  0
    2.8660   -1.2089    0.0000 H   0  0  0  0  0  0  0  0  0  0  0  0
    3.4030    0.1011    0.0000 H   0  0  0  0  0  0  0  0  0  0  0  0
    3.7320   -2.3289    0.0000 H   0  0  0  0  0  0  0  0  0  0  0  0
    4.8059    0.2911    0.0000 H   0  0  0  0  0  0  0  0  0  0  0  0
    5.6720   -1.2089    0.0000 H   0  0  0  0  0  0  0  0  0  0  0  0
    5.6025   -2.4939    0.0000 H   0  0  0  0  0  0  0  0  0  0  0  0
    6.3996   -2.4939    0.0000 H   0  0  0  0  0  0  0  0  0  0  0  0
    2.5369   -2.6389    0.0000 H   0  0  0  0  0  0  0  0  0  0  0  0
    2.0000   -0.3289    0.0000 H   0  0  0  0  0  0  0  0  0  0  0  0
    4.8059   -3.3289    0.0000 H   0  0  0  0  0  0  0  0  0  0  0  0
    5.1334    3.0215    0.0000 H   0  0  0  0  0  0  0  0  0  0  0  0
    7.4040   -1.8289    0.0000 H   0  0  0  0  0  0  0  0  0  0  0  0
    3.6828    3.6934    0.0000 H   0  0  0  0  0  0  0  0  0  0  0  0
    2.8168    3.8305    0.0000 H   0  0  0  0  0  0  0  0  0  0  0  0
    2.6796    2.9645    0.0000 H   0  0  0  0  0  0  0  0  0  0  0  0
  1 12  1  0  0  0  0
  1 13  1  0  0  0  0
  9  2  1  6  0  0  0
  2 26  1  0  0  0  0
 10  3  1  1  0  0  0
  3 27  1  0  0  0  0
 11  4  1  1  0  0  0
  4 28  1  0  0  0  0
  5  8  1  0  0  0  0
  5 16  1  0  0  0  0
  6 14  1  0  0  0  0
  6 30  1  0  0  0  0
  7 15  2  0  0  0  0
 12  8  1  1  0  0  0
  8 15  1  0  0  0  0
  9 10  1  0  0  0  0
  9 11  1  0  0  0  0
  9 19  1  0  0  0  0
 10 12  1  0  0  0  0
 10 20  1  0  0  0  0
 11 13  1  0  0  0  0
 11 21  1  0  0  0  0
 12 22  1  0  0  0  0
 13 14  1  6  0  0  0
 13 23  1  0  0  0  0
 14 24  1  0  0  0  0
 14 25  1  0  0  0  0
 15 17  1  0  0  0  0
 16 17  2  0  0  0  0
 16 18  1  0  0  0  0
 17 29  1  0  0  0  0
 18 31  1  0  0  0  0
 18 32  1  0  0  0  0
 18 33  1  0  0  0  0
M  END
> <PUBCHEM_COMPOUND_CID>
443070

> <PUBCHEM_COMPOUND_CANONICALIZED>
1

> <PUBCHEM_CACTVS_COMPLEXITY>
371

> <PUBCHEM_CACTVS_HBOND_ACCEPTOR>
7

> <PUBCHEM_CACTVS_HBOND_DONOR>
4

> <PUBCHEM_CACTVS_ROTATABLE_BOND>
2

> <PUBCHEM_CACTVS_SUBSKEYS>
AAADccByOAAAAAAAAAAAAAAAAAAAAQAAAAAkAAAAAAAAAAAAAAAAHgAECAAACBThgAYCAAIQBgCIACFSEACAAAAAIAAgCAAIAEADEAIAgQAOQAAHBgCTAQHwcAYAAAAAAAAAAAAAAAAAAAAAAAAAAAAAAA==

> <PUBCHEM_IUPAC_OPENEYE_NAME>
5-methyl-2-[(2S,3R,4S,5S,6R)-3,4,5-trihydroxy-6-(hydroxymethyl)tetrahydropyran-2-yl]isoxazol-3-one

> <PUBCHEM_IUPAC_CAS_NAME>
5-methyl-2-[(2S,3R,4S,5S,6R)-3,4,5-trihydroxy-6-(hydroxymethyl)-2-oxanyl]-3-isoxazolone

> <PUBCHEM_IUPAC_NAME>
5-methyl-2-[(2S,3R,4S,5S,6R)-3,4,5-trihydroxy-6-(hydroxymethyl)oxan-2-yl]-1,2-oxazol-3-one

> <PUBCHEM_IUPAC_SYSTEMATIC_NAME>
2-[(2S,3R,4S,5S,6R)-6-(hydroxymethyl)-3,4,5-tris(oxidanyl)oxan-2-yl]-5-methyl-1,2-oxazol-3-one

> <PUBCHEM_IUPAC_TRADITIONAL_NAME>
5-methyl-2-[(2S,3R,4S,5S,6R)-3,4,5-trihydroxy-6-methylol-tetrahydropyran-2-yl]-4-isoxazolin-3-one

> <PUBCHEM_IUPAC_INCHI>
InChI=1S/C10H15NO7/c1-4-2-6(13)11(18-4)10-9(16)8(15)7(14)5(3-12)17-10/h2,5,7-10,12,14-16H,3H2,1H3/t5-,7-,8+,9-,10+/m1/s1

> <PUBCHEM_IUPAC_INCHIKEY>
AJQPXMGLDMXYMI-HOQQJHGQSA-N

> <PUBCHEM_XLOGP3_AA>
-1.9

> <PUBCHEM_EXACT_MASS>
261.084852

> <PUBCHEM_MOLECULAR_FORMULA>
C10H15NO7

> <PUBCHEM_MOLECULAR_WEIGHT>
261.2286

> <PUBCHEM_OPENEYE_CAN_SMILES>
CC1=CC(=O)N(O1)C2C(C(C(C(O2)CO)O)O)O

> <PUBCHEM_OPENEYE_ISO_SMILES>
CC1=CC(=O)N(O1)[C@@H]2[C@@H]([C@H]([C@@H]([C@H](O2)CO)O)O)O

> <PUBCHEM_CACTVS_TPSA>
120

> <PUBCHEM_MONOISOTOPIC_WEIGHT>
261.084852

> <PUBCHEM_TOTAL_CHARGE>
0

> <PUBCHEM_HEAVY_ATOM_COUNT>
18

> <PUBCHEM_ATOM_DEF_STEREO_COUNT>
5

> <PUBCHEM_ATOM_UDEF_STEREO_COUNT>
0

> <PUBCHEM_BOND_DEF_STEREO_COUNT>
0

> <PUBCHEM_BOND_UDEF_STEREO_COUNT>
0

> <PUBCHEM_ISOTOPIC_ATOM_COUNT>
0

> <PUBCHEM_COMPONENT_COUNT>
1

> <PUBCHEM_CACTVS_TAUTO_COUNT>
1

> <PUBCHEM_COORDINATE_TYPE>
1
5
255

> <PUBCHEM_BONDANNOTATIONS>
13  14  6
15  17  8
16  17  8
9  2  6
10  3  5
11  4  5
5  16  8
5  8  8
12  8  5
8  15  8

$$$$

