112092
  -OEChem-07051213073D

 65 68  0     1  0  0  0  0  0999 V2000
    2.6925    2.3616   -0.7254 O   0  0  0  0  0  0  0  0  0  0  0  0
    4.3604    0.4645    0.1899 O   0  0  0  0  0  0  0  0  0  0  0  0
   -7.9129   -2.3442    0.9367 O   0  0  0  0  0  0  0  0  0  0  0  0
    4.9180   -1.3321    1.5243 O   0  0  0  0  0  0  0  0  0  0  0  0
    9.6893   -2.3858   -0.0871 O   0  0  0  0  0  0  0  0  0  0  0  0
    9.0375   -0.5438   -1.2467 O   0  0  0  0  0  0  0  0  0  0  0  0
   -1.4784    1.7431    0.4098 C   0  0  2  0  0  0  0  0  0  0  0  0
   -0.2195    1.0167   -0.1099 C   0  0  1  0  0  0  0  0  0  0  0  0
   -2.7706    1.2378   -0.2403 C   0  0  1  0  0  0  0  0  0  0  0  0
   -2.9238   -0.2858    0.0628 C   0  0  1  0  0  0  0  0  0  0  0  0
   -4.2512   -0.8976   -0.5307 C   0  0  2  0  0  0  0  0  0  0  0  0
    0.8594    1.7884    0.6815 C   0  0  2  0  0  0  0  0  0  0  0  0
   -0.3503   -0.4671    0.2591 C   0  0  0  0  0  0  0  0  0  0  0  0
   -1.6423   -1.0818   -0.3085 C   0  0  0  0  0  0  0  0  0  0  0  0
   -1.1125    3.2181    0.2835 C   0  0  0  0  0  0  0  0  0  0  0  0
    0.3847    3.2559    0.6398 C   0  0  0  0  0  0  0  0  0  0  0  0
   -3.9948    2.0030    0.2780 C   0  0  0  0  0  0  0  0  0  0  0  0
    0.0024    1.1596   -1.6384 C   0  0  0  0  0  0  0  0  0  0  0  0
   -5.4424   -0.0131   -0.1400 C   0  0  0  0  0  0  0  0  0  0  0  0
   -5.2795    1.4743   -0.3470 C   0  0  0  0  0  0  0  0  0  0  0  0
   -4.4355   -2.3275    0.0562 C   0  0  0  0  0  0  0  0  0  0  0  0
   -4.2055   -0.9915   -2.0726 C   0  0  0  0  0  0  0  0  0  0  0  0
    2.2508    1.6234    0.1539 C   0  0  0  0  0  0  0  0  0  0  0  0
   -5.8380   -2.8858   -0.1269 C   0  0  0  0  0  0  0  0  0  0  0  0
   -6.6030   -0.4867    0.3435 C   0  0  0  0  0  0  0  0  0  0  0  0
   -6.8579   -1.9414    0.4507 C   0  0  0  0  0  0  0  0  0  0  0  0
    3.0702    0.5050    0.7619 C   0  0  0  0  0  0  0  0  0  0  0  0
    5.2042   -0.5136    0.6617 C   0  0  0  0  0  0  0  0  0  0  0  0
    6.5372   -0.4167   -0.0488 C   0  0  0  0  0  0  0  0  0  0  0  0
    7.5097   -1.5200    0.3507 C   0  0  0  0  0  0  0  0  0  0  0  0
    8.8018   -1.4168   -0.4215 C   0  0  0  0  0  0  0  0  0  0  0  0
   -1.5716    1.5450    1.4911 H   0  0  0  0  0  0  0  0  0  0  0  0
   -2.7160    1.3970   -1.3226 H   0  0  0  0  0  0  0  0  0  0  0  0
   -3.0096   -0.3651    1.1591 H   0  0  0  0  0  0  0  0  0  0  0  0
    0.8583    1.4732    1.7342 H   0  0  0  0  0  0  0  0  0  0  0  0
    0.5051   -1.0392   -0.1161 H   0  0  0  0  0  0  0  0  0  0  0  0
   -0.3534   -0.5878    1.3501 H   0  0  0  0  0  0  0  0  0  0  0  0
   -1.5489   -1.1650   -1.3958 H   0  0  0  0  0  0  0  0  0  0  0  0
   -1.7153   -2.1063    0.0726 H   0  0  0  0  0  0  0  0  0  0  0  0
   -1.2752    3.5866   -0.7353 H   0  0  0  0  0  0  0  0  0  0  0  0
   -1.6972    3.8481    0.9614 H   0  0  0  0  0  0  0  0  0  0  0  0
    0.5288    3.7182    1.6236 H   0  0  0  0  0  0  0  0  0  0  0  0
    0.9213    3.8810   -0.0813 H   0  0  0  0  0  0  0  0  0  0  0  0
   -3.9023    3.0693    0.0412 H   0  0  0  0  0  0  0  0  0  0  0  0
   -4.0557    1.9239    1.3712 H   0  0  0  0  0  0  0  0  0  0  0  0
   -0.8403    0.7847   -2.2251 H   0  0  0  0  0  0  0  0  0  0  0  0
    0.8813    0.5877   -1.9578 H   0  0  0  0  0  0  0  0  0  0  0  0
    0.1614    2.1985   -1.9440 H   0  0  0  0  0  0  0  0  0  0  0  0
   -6.1273    2.0301    0.0722 H   0  0  0  0  0  0  0  0  0  0  0  0
   -5.2773    1.6852   -1.4236 H   0  0  0  0  0  0  0  0  0  0  0  0
   -4.2154   -2.3118    1.1329 H   0  0  0  0  0  0  0  0  0  0  0  0
   -3.7222   -3.0272   -0.3957 H   0  0  0  0  0  0  0  0  0  0  0  0
   -5.1768   -1.2867   -2.4867 H   0  0  0  0  0  0  0  0  0  0  0  0
   -3.4768   -1.7360   -2.4101 H   0  0  0  0  0  0  0  0  0  0  0  0
   -3.9398   -0.0378   -2.5390 H   0  0  0  0  0  0  0  0  0  0  0  0
   -6.0740   -3.0571   -1.1818 H   0  0  0  0  0  0  0  0  0  0  0  0
   -5.9141   -3.8439    0.3992 H   0  0  0  0  0  0  0  0  0  0  0  0
   -7.4193    0.1717    0.6212 H   0  0  0  0  0  0  0  0  0  0  0  0
    3.1531    0.6907    1.8383 H   0  0  0  0  0  0  0  0  0  0  0  0
    2.5622   -0.4450    0.5786 H   0  0  0  0  0  0  0  0  0  0  0  0
    6.9715    0.5636    0.1799 H   0  0  0  0  0  0  0  0  0  0  0  0
    6.3459   -0.4671   -1.1274 H   0  0  0  0  0  0  0  0  0  0  0  0
    7.7372   -1.4498    1.4201 H   0  0  0  0  0  0  0  0  0  0  0  0
    7.0662   -2.5017    0.1505 H   0  0  0  0  0  0  0  0  0  0  0  0
   10.5286   -2.3025   -0.5879 H   0  0  0  0  0  0  0  0  0  0  0  0
  1 23  2  0  0  0  0
  2 27  1  0  0  0  0
  2 28  1  0  0  0  0
  3 26  2  0  0  0  0
  4 28  2  0  0  0  0
  5 31  1  0  0  0  0
  5 65  1  0  0  0  0
  6 31  2  0  0  0  0
  7  8  1  0  0  0  0
  7  9  1  0  0  0  0
  7 15  1  0  0  0  0
  7 32  1  0  0  0  0
  8 12  1  0  0  0  0
  8 13  1  0  0  0  0
  8 18  1  0  0  0  0
  9 10  1  0  0  0  0
  9 17  1  0  0  0  0
  9 33  1  0  0  0  0
 10 11  1  0  0  0  0
 10 14  1  0  0  0  0
 10 34  1  0  0  0  0
 11 19  1  0  0  0  0
 11 21  1  0  0  0  0
 11 22  1  0  0  0  0
 12 16  1  0  0  0  0
 12 23  1  0  0  0  0
 12 35  1  0  0  0  0
 13 14  1  0  0  0  0
 13 36  1  0  0  0  0
 13 37  1  0  0  0  0
 14 38  1  0  0  0  0
 14 39  1  0  0  0  0
 15 16  1  0  0  0  0
 15 40  1  0  0  0  0
 15 41  1  0  0  0  0
 16 42  1  0  0  0  0
 16 43  1  0  0  0  0
 17 20  1  0  0  0  0
 17 44  1  0  0  0  0
 17 45  1  0  0  0  0
 18 46  1  0  0  0  0
 18 47  1  0  0  0  0
 18 48  1  0  0  0  0
 19 20  1  0  0  0  0
 19 25  2  0  0  0  0
 20 49  1  0  0  0  0
 20 50  1  0  0  0  0
 21 24  1  0  0  0  0
 21 51  1  0  0  0  0
 21 52  1  0  0  0  0
 22 53  1  0  0  0  0
 22 54  1  0  0  0  0
 22 55  1  0  0  0  0
 23 27  1  0  0  0  0
 24 26  1  0  0  0  0
 24 56  1  0  0  0  0
 24 57  1  0  0  0  0
 25 26  1  0  0  0  0
 25 58  1  0  0  0  0
 27 59  1  0  0  0  0
 27 60  1  0  0  0  0
 28 29  1  0  0  0  0
 29 30  1  0  0  0  0
 29 61  1  0  0  0  0
 29 62  1  0  0  0  0
 30 31  1  0  0  0  0
 30 63  1  0  0  0  0
 30 64  1  0  0  0  0
M  END
> <PUBCHEM_COMPOUND_CID>
112092

> <PUBCHEM_CONFORMER_RMSD>
1

> <PUBCHEM_CONFORMER_DIVERSEORDER>
1
31
22
39
32
13
38
6
37
5
20
3
36
2
42
28
11
23
18
34
17
25
10
12
8
4
9
16
33
7
24
21
35
15
30
29
41
26
19
27
40
14

> <PUBCHEM_MMFF94_PARTIAL_CHARGES>
21
1 -0.57
11 0.14
12 0.06
19 -0.28
2 -0.43
20 0.14
23 0.45
24 0.06
25 -0.14
26 0.49
27 0.34
28 0.66
29 0.06
3 -0.57
30 0.06
31 0.66
4 -0.57
5 -0.65
58 0.15
6 -0.57
65 0.5

> <PUBCHEM_EFFECTIVE_ROTOR_COUNT>
8.8

> <PUBCHEM_PHARMACOPHORE_FEATURES>
10
1 1 acceptor
1 3 acceptor
1 4 acceptor
1 5 acceptor
1 6 acceptor
3 5 6 31 anion
5 7 8 12 15 16 rings
6 11 19 21 24 25 26 rings
6 7 8 9 10 13 14 rings
6 9 10 11 17 19 20 rings

> <PUBCHEM_HEAVY_ATOM_COUNT>
31

> <PUBCHEM_ATOM_DEF_STEREO_COUNT>
6

> <PUBCHEM_ATOM_UDEF_STEREO_COUNT>
0

> <PUBCHEM_BOND_DEF_STEREO_COUNT>
0

> <PUBCHEM_BOND_UDEF_STEREO_COUNT>
0

> <PUBCHEM_ISOTOPIC_ATOM_COUNT>
0

> <PUBCHEM_COMPONENT_COUNT>
1

> <PUBCHEM_CACTVS_TAUTO_COUNT>
15

> <PUBCHEM_CONFORMER_ID>
0001B5DC00000001

> <PUBCHEM_MMFF94_ENERGY>
77.2152

> <PUBCHEM_FEATURE_SELFOVERLAP>
50.898

> <PUBCHEM_SHAPE_FINGERPRINT>
10299344 5 18271805753077843038
10411042 1 18409729530494846993
10930396 42 14345791648463053779
11456790 92 17895460433883469283
11524674 6 16298395669010857422
117089 54 18198338451462613411
11756154 67 18411136948312001964
12166972 35 17988925527012742157
12422481 6 17313106341123280829
12645989 146 18335987446347020391
12758862 56 18408330985868570825
12760667 363 18408046208140837632
13248334 5 17977948973194206521
13533116 47 18268713809672985369
13690498 29 18130795568089401517
13782708 43 17916878894163824595
13911987 19 13542470864854373233
14068700 675 18341610430437106836
14178184 131 18041285374138917910
14420673 8 18410293584602672155
14931854 50 17917719019663005322
15183329 4 17561085821754772248
15510800 12 18040706005295027150
16120349 21 18335135397786225401
16992752 21 18409158936211626492
17686467 74 18335990809749596448
18608769 82 18333734637300351494
21130935 74 18045501907575062227
21150785 3 16128656344964109870
21267235 1 18411698772841222833
21365058 113 17417813886109935893
23522609 53 18197749229125754772
23559900 14 18337681793232855161
25269216 80 15985108492757691059
2838139 119 9583224046842709466
3004659 81 18273500070320880520
335352 9 18410863200530219741
3383291 50 18341056228773106706
3504750 166 17822017454751470175
4107672 100 17988649656683587789
4461854 278 17822008684391965670
465052 167 18334574598999749220
484989 97 17845364462463645331
5104073 3 18114463362589469985
54039377 194 18412258432702080067
5470011 282 17989203742768612694
54728670 133 15502927662009946129
559249 180 18409171030438397217
5937810 71 12895085045607592151
6138700 20 18410575093311282763
636775 72 9439407925724795983
636775 8 18408879664510700358
9896288 288 17969216922570988289
999808 66 17968099741921983710

> <PUBCHEM_SHAPE_MULTIPOLES>
602.75
24.5
3.31
1.09
52.04
0.95
-0.35
-25.63
-0.34
-1.95
0.4
-0.03
-0.12
0.36

> <PUBCHEM_SHAPE_SELFOVERLAP>
1275.391

> <PUBCHEM_SHAPE_VOLUME>
333.7

> <PUBCHEM_COORDINATE_TYPE>
2
5
10

$$$$

