440585
  -OEChem-07051212503D

 84 89  0     1  0  0  0  0  0999 V2000
    5.5160   -2.4401    2.1768 O   0  0  0  0  0  0  0  0  0  0  0  0
    0.3650   -1.8711   -3.6166 O   0  0  0  0  0  0  0  0  0  0  0  0
   -2.7505    3.3872    1.3602 O   0  0  0  0  0  0  0  0  0  0  0  0
    2.8781   -2.0925    2.9721 O   0  0  0  0  0  0  0  0  0  0  0  0
   -2.2937   -2.3441   -4.2663 O   0  0  0  0  0  0  0  0  0  0  0  0
   -2.6908    5.5532   -0.3992 O   0  0  0  0  0  0  0  0  0  0  0  0
    2.7830    2.0612   -1.5684 N   0  0  1  0  0  0  0  0  0  0  0  0
   -2.9267   -2.8279    1.8779 N   0  0  2  0  0  0  0  0  0  0  0  0
    2.2733    1.5352   -0.2823 C   0  0  1  0  0  0  0  0  0  0  0  0
   -3.4668   -2.8816    0.4924 C   0  0  2  0  0  0  0  0  0  0  0  0
    3.1462    0.4671    0.3563 C   0  0  0  0  0  0  0  0  0  0  0  0
   -2.4333   -2.6128   -0.6048 C   0  0  0  0  0  0  0  0  0  0  0  0
    4.2249    2.3321   -1.5154 C   0  0  0  0  0  0  0  0  0  0  0  0
   -1.5595   -3.3543    1.9646 C   0  0  0  0  0  0  0  0  0  0  0  0
    5.0691    1.1051   -1.1632 C   0  0  0  0  0  0  0  0  0  0  0  0
   -0.6196   -2.4848    1.1358 C   0  0  0  0  0  0  0  0  0  0  0  0
    4.4854    0.2942   -0.0366 C   0  0  0  0  0  0  0  0  0  0  0  0
    2.0559    2.7035    0.6927 C   0  0  0  0  0  0  0  0  0  0  0  0
   -1.0760   -2.4225   -0.2929 C   0  0  0  0  0  0  0  0  0  0  0  0
   -4.6125   -1.8569    0.3854 C   0  0  0  0  0  0  0  0  0  0  0  0
    2.4256    1.1985   -2.6949 C   0  0  0  0  0  0  0  0  0  0  0  0
    2.6211   -0.3467    1.3730 C   0  0  0  0  0  0  0  0  0  0  0  0
   -3.7825   -3.5557    2.8230 C   0  0  0  0  0  0  0  0  0  0  0  0
   -2.8165   -2.6040   -1.9573 C   0  0  0  0  0  0  0  0  0  0  0  0
    0.7997    3.4548    0.4068 C   0  0  0  0  0  0  0  0  0  0  0  0
   -4.1188   -0.4655    0.6445 C   0  0  0  0  0  0  0  0  0  0  0  0
    5.2694   -0.6902    0.5820 C   0  0  0  0  0  0  0  0  0  0  0  0
   -0.1482   -2.1564   -1.3105 C   0  0  0  0  0  0  0  0  0  0  0  0
    3.4120   -1.3174    1.9874 C   0  0  0  0  0  0  0  0  0  0  0  0
    4.7356   -1.4886    1.5925 C   0  0  0  0  0  0  0  0  0  0  0  0
   -1.8851   -2.3548   -2.9667 C   0  0  0  0  0  0  0  0  0  0  0  0
   -0.5529   -2.1217   -2.6426 C   0  0  0  0  0  0  0  0  0  0  0  0
   -0.3955    3.0730    1.0162 C   0  0  0  0  0  0  0  0  0  0  0  0
    0.8200    4.5388   -0.4708 C   0  0  0  0  0  0  0  0  0  0  0  0
   -3.6569    0.3182   -0.4129 C   0  0  0  0  0  0  0  0  0  0  0  0
   -4.1209    0.0456    1.9424 C   0  0  0  0  0  0  0  0  0  0  0  0
   -1.5704    3.7752    0.7481 C   0  0  0  0  0  0  0  0  0  0  0  0
   -3.1995    2.1241    1.1253 C   0  0  0  0  0  0  0  0  0  0  0  0
   -3.1973    1.6130   -0.1726 C   0  0  0  0  0  0  0  0  0  0  0  0
   -3.6613    1.3403    2.1828 C   0  0  0  0  0  0  0  0  0  0  0  0
   -0.3549    5.2410   -0.7390 C   0  0  0  0  0  0  0  0  0  0  0  0
   -1.5501    4.8592   -0.1295 C   0  0  0  0  0  0  0  0  0  0  0  0
    5.5173   -3.7351    1.5785 C   0  0  0  0  0  0  0  0  0  0  0  0
    1.0429   -2.9957   -4.1740 C   0  0  0  0  0  0  0  0  0  0  0  0
    1.2962    1.0658   -0.4712 H   0  0  0  0  0  0  0  0  0  0  0  0
   -3.8580   -3.8901    0.2972 H   0  0  0  0  0  0  0  0  0  0  0  0
    4.4225    3.1241   -0.7833 H   0  0  0  0  0  0  0  0  0  0  0  0
    4.5660    2.7481   -2.4719 H   0  0  0  0  0  0  0  0  0  0  0  0
   -1.5182   -4.3995    1.6291 H   0  0  0  0  0  0  0  0  0  0  0  0
   -1.2083   -3.3301    3.0037 H   0  0  0  0  0  0  0  0  0  0  0  0
    6.0782    1.4393   -0.8931 H   0  0  0  0  0  0  0  0  0  0  0  0
    5.1621    0.4548   -2.0419 H   0  0  0  0  0  0  0  0  0  0  0  0
    0.3903   -2.9078    1.1910 H   0  0  0  0  0  0  0  0  0  0  0  0
   -0.5826   -1.4665    1.5416 H   0  0  0  0  0  0  0  0  0  0  0  0
    2.9083    3.3936    0.7206 H   0  0  0  0  0  0  0  0  0  0  0  0
    1.9941    2.3365    1.7271 H   0  0  0  0  0  0  0  0  0  0  0  0
   -5.4254   -2.0926    1.0831 H   0  0  0  0  0  0  0  0  0  0  0  0
   -5.0966   -1.8946   -0.5986 H   0  0  0  0  0  0  0  0  0  0  0  0
    1.3358    1.1353   -2.7920 H   0  0  0  0  0  0  0  0  0  0  0  0
    2.8152    0.1796   -2.5989 H   0  0  0  0  0  0  0  0  0  0  0  0
    2.7945    1.6210   -3.6361 H   0  0  0  0  0  0  0  0  0  0  0  0
    1.5882   -0.2119    1.6854 H   0  0  0  0  0  0  0  0  0  0  0  0
   -3.8497   -4.6219    2.5775 H   0  0  0  0  0  0  0  0  0  0  0  0
   -3.3890   -3.4644    3.8421 H   0  0  0  0  0  0  0  0  0  0  0  0
   -4.7963   -3.1471    2.8558 H   0  0  0  0  0  0  0  0  0  0  0  0
   -3.8518   -2.7999   -2.2270 H   0  0  0  0  0  0  0  0  0  0  0  0
    6.3007   -0.8367    0.2686 H   0  0  0  0  0  0  0  0  0  0  0  0
    0.8966   -1.9855   -1.0610 H   0  0  0  0  0  0  0  0  0  0  0  0
   -0.4066    2.2315    1.7051 H   0  0  0  0  0  0  0  0  0  0  0  0
    1.7445    4.8496   -0.9500 H   0  0  0  0  0  0  0  0  0  0  0  0
   -3.6800   -0.0412   -1.4365 H   0  0  0  0  0  0  0  0  0  0  0  0
   -4.4887   -0.5447    2.7768 H   0  0  0  0  0  0  0  0  0  0  0  0
   -2.8669    2.2090   -1.0189 H   0  0  0  0  0  0  0  0  0  0  0  0
   -3.6672    1.7340    3.1956 H   0  0  0  0  0  0  0  0  0  0  0  0
   -0.3248    6.0840   -1.4242 H   0  0  0  0  0  0  0  0  0  0  0  0
    1.9495   -1.8370    3.1085 H   0  0  0  0  0  0  0  0  0  0  0  0
   -3.2490   -2.5232   -4.3007 H   0  0  0  0  0  0  0  0  0  0  0  0
    6.1755   -4.3825    2.1643 H   0  0  0  0  0  0  0  0  0  0  0  0
    5.8985   -3.6834    0.5537 H   0  0  0  0  0  0  0  0  0  0  0  0
    4.5099   -4.1633    1.5836 H   0  0  0  0  0  0  0  0  0  0  0  0
    1.6202   -3.5155   -3.4029 H   0  0  0  0  0  0  0  0  0  0  0  0
    0.3304   -3.6844   -4.6389 H   0  0  0  0  0  0  0  0  0  0  0  0
    1.7319   -2.6337   -4.9420 H   0  0  0  0  0  0  0  0  0  0  0  0
   -2.4862    6.2672   -1.0273 H   0  0  0  0  0  0  0  0  0  0  0  0
  1 30  1  0  0  0  0
  1 43  1  0  0  0  0
  2 32  1  0  0  0  0
  2 44  1  0  0  0  0
  3 37  1  0  0  0  0
  3 38  1  0  0  0  0
  4 29  1  0  0  0  0
  4 76  1  0  0  0  0
  5 31  1  0  0  0  0
  5 77  1  0  0  0  0
  6 42  1  0  0  0  0
  6 84  1  0  0  0  0
  7  9  1  0  0  0  0
  7 13  1  0  0  0  0
  7 21  1  0  0  0  0
  8 10  1  0  0  0  0
  8 14  1  0  0  0  0
  8 23  1  0  0  0  0
  9 11  1  0  0  0  0
  9 18  1  0  0  0  0
  9 45  1  0  0  0  0
 10 12  1  0  0  0  0
 10 20  1  0  0  0  0
 10 46  1  0  0  0  0
 11 17  1  0  0  0  0
 11 22  2  0  0  0  0
 12 19  1  0  0  0  0
 12 24  2  0  0  0  0
 13 15  1  0  0  0  0
 13 47  1  0  0  0  0
 13 48  1  0  0  0  0
 14 16  1  0  0  0  0
 14 49  1  0  0  0  0
 14 50  1  0  0  0  0
 15 17  1  0  0  0  0
 15 51  1  0  0  0  0
 15 52  1  0  0  0  0
 16 19  1  0  0  0  0
 16 53  1  0  0  0  0
 16 54  1  0  0  0  0
 17 27  2  0  0  0  0
 18 25  1  0  0  0  0
 18 55  1  0  0  0  0
 18 56  1  0  0  0  0
 19 28  2  0  0  0  0
 20 26  1  0  0  0  0
 20 57  1  0  0  0  0
 20 58  1  0  0  0  0
 21 59  1  0  0  0  0
 21 60  1  0  0  0  0
 21 61  1  0  0  0  0
 22 29  1  0  0  0  0
 22 62  1  0  0  0  0
 23 63  1  0  0  0  0
 23 64  1  0  0  0  0
 23 65  1  0  0  0  0
 24 31  1  0  0  0  0
 24 66  1  0  0  0  0
 25 33  2  0  0  0  0
 25 34  1  0  0  0  0
 26 35  2  0  0  0  0
 26 36  1  0  0  0  0
 27 30  1  0  0  0  0
 27 67  1  0  0  0  0
 28 32  1  0  0  0  0
 28 68  1  0  0  0  0
 29 30  2  0  0  0  0
 31 32  2  0  0  0  0
 33 37  1  0  0  0  0
 33 69  1  0  0  0  0
 34 41  2  0  0  0  0
 34 70  1  0  0  0  0
 35 39  1  0  0  0  0
 35 71  1  0  0  0  0
 36 40  2  0  0  0  0
 36 72  1  0  0  0  0
 37 42  2  0  0  0  0
 38 39  2  0  0  0  0
 38 40  1  0  0  0  0
 39 73  1  0  0  0  0
 40 74  1  0  0  0  0
 41 42  1  0  0  0  0
 41 75  1  0  0  0  0
 43 78  1  0  0  0  0
 43 79  1  0  0  0  0
 43 80  1  0  0  0  0
 44 81  1  0  0  0  0
 44 82  1  0  0  0  0
 44 83  1  0  0  0  0
M  END
> <PUBCHEM_COMPOUND_CID>
440585

> <PUBCHEM_CONFORMER_RMSD>
1.6

> <PUBCHEM_CONFORMER_DIVERSEORDER>
2
38
148
103
91
212
163
4
51
77
106
166
121
215
152
219
182
49
199
234
29
63
218
170
172
43
35
205
186
117
179
39
140
26
87
180
46
159
36
194
1
225
67
14
42
79
133
211
183
69
184
85
177
167
151
41
101
55
122
192
56
130
158
30
175
142
131
100
232
97
115
114
169
23
233
60
204
110
32
98
229
7
181
120
84
190
146
217
61
47
160
124
25
68
57
20
94
200
185
216
58
197
153
52
143
176
19
202
83
27
206
150
92
209
203
134
235
82
78
80
222
95
237
72
12
111
5
195
193
104
196
208
31
129
116
155
136
62
144
210
119
227
15
174
189
48
13
223
93
156
178
54
96
28
228
154
99
135
161
70
3
123
188
21
33
22
162
17
226
59
224
207
74
198
108
139
157
164
71
10
73
89
18
213
64
45
168
37
147
90
214
107
34
171
102
187
132
76
113
40
16
53
126
128
236
137
86
221
112
6
88
24
173
109
11
65
118
220
125
201
191
8
66
141
44
127
231
145
50
149
138
9
81
230
75
105
165

> <PUBCHEM_MMFF94_PARTIAL_CHARGES>
58
1 -0.36
10 0.41
11 -0.14
12 -0.14
13 0.27
14 0.27
15 0.14
16 0.14
17 -0.14
18 0.14
19 -0.14
2 -0.36
20 0.14
21 0.27
22 -0.15
23 0.27
24 -0.15
25 -0.14
26 -0.14
27 -0.15
28 -0.15
29 0.08
3 -0.17
30 0.08
31 0.08
32 0.08
33 -0.15
34 -0.15
35 -0.15
36 -0.15
37 0.08
38 0.08
39 -0.15
4 -0.53
40 -0.15
41 -0.15
42 0.08
43 0.28
44 0.28
5 -0.53
6 -0.53
62 0.15
66 0.15
67 0.15
68 0.15
69 0.15
7 -0.81
70 0.15
71 0.15
72 0.15
73 0.15
74 0.15
75 0.15
76 0.45
77 0.45
8 -0.81
84 0.45
9 0.41

> <PUBCHEM_EFFECTIVE_ROTOR_COUNT>
9.6

> <PUBCHEM_PHARMACOPHORE_FEATURES>
14
1 1 acceptor
1 2 acceptor
1 3 acceptor
1 4 donor
1 5 donor
1 6 donor
1 7 cation
1 8 cation
6 11 17 22 27 29 30 rings
6 12 19 24 28 31 32 rings
6 25 33 34 37 41 42 rings
6 26 35 36 38 39 40 rings
6 7 9 11 13 15 17 rings
6 8 10 12 14 16 19 rings

> <PUBCHEM_HEAVY_ATOM_COUNT>
44

> <PUBCHEM_ATOM_DEF_STEREO_COUNT>
2

> <PUBCHEM_ATOM_UDEF_STEREO_COUNT>
0

> <PUBCHEM_BOND_DEF_STEREO_COUNT>
0

> <PUBCHEM_BOND_UDEF_STEREO_COUNT>
0

> <PUBCHEM_ISOTOPIC_ATOM_COUNT>
0

> <PUBCHEM_COMPONENT_COUNT>
1

> <PUBCHEM_CACTVS_TAUTO_COUNT>
20

> <PUBCHEM_CONFORMER_ID>
0006B90900000002

> <PUBCHEM_MMFF94_ENERGY>
159.0276

> <PUBCHEM_FEATURE_SELFOVERLAP>
71.083

> <PUBCHEM_SHAPE_FINGERPRINT>
10462674 125 16523336897479618702
10653451 467 16891740801002150094
10721379 63 15877341788458568599
11513181 2 17538864867281944742
12107698 1 17903901271777896931
12156800 1 17907278194626556238
12422481 6 17899708035710850786
12633046 712 18129385886603162263
14040222 380 17188652405059210746
14114207 22 17051072070137525273
14279260 333 18343579651841740386
14725015 67 18339932631469394377
14940108 7 17328070878897706880
15264996 142 17912065446615553034
15403338 16 18200315412213301387
15444296 8 18123437679506253998
15968369 26 16688216809085928245
16067690 210 18340749490882441726
19319366 153 17912629225508457796
20764821 26 18192690431838443543
22440779 20 15767800082224631422
238918 7 17825392044298243574
44880168 125 17676475168895796494
50080093 196 17252592275005581216
550186 83 18191001453461697940
86090 222 17107060332111378444

> <PUBCHEM_SHAPE_MULTIPOLES>
860.32
10.2
7.56
3.62
7.9
8.81
-3.44
-6.09
5.03
-2.22
0.32
-0.25
-4.87
-3.11

> <PUBCHEM_SHAPE_SELFOVERLAP>
1881.715

> <PUBCHEM_SHAPE_VOLUME>
467.4

> <PUBCHEM_COORDINATE_TYPE>
2
5
10

$$$$

