656958
  -OEChem-07051213022D

 81 83  0     1  0  0  0  0  0999 V2000
    4.2255    1.2535    0.0000 S   0  0  0  0  0  0  0  0  0  0  0  0
    3.7749   -1.3536    0.0000 O   0  0  0  0  0  0  0  0  0  0  0  0
    7.1211   -3.8960    0.0000 O   0  0  0  0  0  0  0  0  0  0  0  0
    2.0000   -4.4593    0.0000 O   0  0  0  0  0  0  0  0  0  0  0  0
    5.2582   -0.4592    0.0000 O   0  0  0  0  0  0  0  0  0  0  0  0
    3.6761    3.8416    0.0000 N   0  0  0  0  0  0  0  0  0  0  0  0
    4.5816   -4.4985    0.0000 C   0  0  1  0  0  0  0  0  0  0  0  0
    3.7155   -3.9985    0.0000 C   0  0  2  0  0  0  0  0  0  0  0  0
    3.7155   -2.9985    0.0000 C   0  0  1  0  0  0  0  0  0  0  0  0
    5.5523   -4.3941    0.0000 C   0  0  2  0  0  0  0  0  0  0  0  0
    4.5816   -2.4985    0.0000 C   0  0  1  0  0  0  0  0  0  0  0  0
    5.4476   -3.9985    0.0000 C   0  0  0  0  0  0  0  0  0  0  0  0
    4.3723   -5.4703    0.0000 C   0  0  0  0  0  0  0  0  0  0  0  0
    4.2913   -2.2100    0.0000 C   0  0  1  0  0  0  0  0  0  0  0  0
    5.4476   -2.9985    0.0000 C   0  0  0  0  0  0  0  0  0  0  0  0
    2.9785   -4.6656    0.0000 C   0  0  0  0  0  0  0  0  0  0  0  0
    6.1577   -3.6280    0.0000 C   0  0  1  0  0  0  0  0  0  0  0  0
    3.3836   -5.5733    0.0000 C   0  0  0  0  0  0  0  0  0  0  0  0
    6.0348   -2.6594    0.0000 C   0  0  2  0  0  0  0  0  0  0  0  0
    5.2574   -2.0687    0.0000 C   0  0  0  0  0  0  0  0  0  0  0  0
    2.7648   -2.6883    0.0000 C   0  0  0  0  0  0  0  0  0  0  0  0
    6.0358   -5.2695    0.0000 C   0  0  0  0  0  0  0  0  0  0  0  0
    4.5816   -1.4985    0.0000 C   0  0  0  0  0  0  0  0  0  0  0  0
    7.0263   -2.5289    0.0000 C   0  0  0  0  0  0  0  0  0  0  0  0
    6.6436   -1.8661    0.0000 C   0  0  0  0  0  0  0  0  0  0  0  0
    4.2584   -0.4782    0.0000 C   0  0  0  0  0  0  0  0  0  0  0  0
    6.2609   -0.9422    0.0000 C   0  0  0  0  0  0  0  0  0  0  0  0
    3.7420    0.3781    0.0000 C   0  0  0  0  0  0  0  0  0  0  0  0
    3.7091    2.1099    0.0000 C   0  0  0  0  0  0  0  0  0  0  0  0
    4.1925    2.9852    0.0000 C   0  0  0  0  0  0  0  0  0  0  0  0
    4.1596    4.7170    0.0000 C   0  0  0  0  0  0  0  0  0  0  0  0
    2.6763    3.8226    0.0000 C   0  0  0  0  0  0  0  0  0  0  0  0
    3.6432    5.5733    0.0000 C   0  0  0  0  0  0  0  0  0  0  0  0
    2.1599    4.6790    0.0000 C   0  0  0  0  0  0  0  0  0  0  0  0
    2.9794   -3.5735    0.0000 H   0  0  0  0  0  0  0  0  0  0  0  0
    6.1702   -4.4449    0.0000 H   0  0  0  0  0  0  0  0  0  0  0  0
    5.1185   -2.1885    0.0000 H   0  0  0  0  0  0  0  0  0  0  0  0
    5.6596   -4.5811    0.0000 H   0  0  0  0  0  0  0  0  0  0  0  0
    6.0582   -3.8908    0.0000 H   0  0  0  0  0  0  0  0  0  0  0  0
    4.3714   -6.0903    0.0000 H   0  0  0  0  0  0  0  0  0  0  0  0
    4.9888   -5.5364    0.0000 H   0  0  0  0  0  0  0  0  0  0  0  0
    3.6719   -2.1827    0.0000 H   0  0  0  0  0  0  0  0  0  0  0  0
    6.0582   -3.1061    0.0000 H   0  0  0  0  0  0  0  0  0  0  0  0
    5.6596   -2.4159    0.0000 H   0  0  0  0  0  0  0  0  0  0  0  0
    6.6267   -3.2226    0.0000 H   0  0  0  0  0  0  0  0  0  0  0  0
    2.7940   -5.7651    0.0000 H   0  0  0  0  0  0  0  0  0  0  0  0
    3.5124   -6.1798    0.0000 H   0  0  0  0  0  0  0  0  0  0  0  0
    5.7463   -1.6874    0.0000 H   0  0  0  0  0  0  0  0  0  0  0  0
    5.0138   -1.4986    0.0000 H   0  0  0  0  0  0  0  0  0  0  0  0
    2.9571   -2.0989    0.0000 H   0  0  0  0  0  0  0  0  0  0  0  0
    2.1754   -2.4960    0.0000 H   0  0  0  0  0  0  0  0  0  0  0  0
    2.5725   -3.2777    0.0000 H   0  0  0  0  0  0  0  0  0  0  0  0
    5.4930   -5.5692    0.0000 H   0  0  0  0  0  0  0  0  0  0  0  0
    6.3355   -5.8122    0.0000 H   0  0  0  0  0  0  0  0  0  0  0  0
    6.5785   -4.9697    0.0000 H   0  0  0  0  0  0  0  0  0  0  0  0
    5.2016   -1.4985    0.0000 H   0  0  0  0  0  0  0  0  0  0  0  0
    4.5816   -0.8785    0.0000 H   0  0  0  0  0  0  0  0  0  0  0  0
    3.9616   -1.4985    0.0000 H   0  0  0  0  0  0  0  0  0  0  0  0
    7.1072   -3.1436    0.0000 H   0  0  0  0  0  0  0  0  0  0  0  0
    7.6410   -2.4480    0.0000 H   0  0  0  0  0  0  0  0  0  0  0  0
    6.9454   -1.9142    0.0000 H   0  0  0  0  0  0  0  0  0  0  0  0
    7.2583   -1.9470    0.0000 H   0  0  0  0  0  0  0  0  0  0  0  0
    7.2759   -4.4964    0.0000 H   0  0  0  0  0  0  0  0  0  0  0  0
    6.6384   -0.4503    0.0000 H   0  0  0  0  0  0  0  0  0  0  0  0
    5.6462   -0.8613    0.0000 H   0  0  0  0  0  0  0  0  0  0  0  0
    3.2596    0.7676    0.0000 H   0  0  0  0  0  0  0  0  0  0  0  0
    3.2747   -0.0294    0.0000 H   0  0  0  0  0  0  0  0  0  0  0  0
    3.2266    2.4993    0.0000 H   0  0  0  0  0  0  0  0  0  0  0  0
    3.2418    1.7024    0.0000 H   0  0  0  0  0  0  0  0  0  0  0  0
    4.6750    2.5958    0.0000 H   0  0  0  0  0  0  0  0  0  0  0  0
    4.6598    3.3927    0.0000 H   0  0  0  0  0  0  0  0  0  0  0  0
    2.0978    3.5995    0.0000 H   0  0  0  0  0  0  0  0  0  0  0  0
    2.7956    3.2142    0.0000 H   0  0  0  0  0  0  0  0  0  0  0  0
    4.6420    4.3276    0.0000 H   0  0  0  0  0  0  0  0  0  0  0  0
    4.6269    5.1245    0.0000 H   0  0  0  0  0  0  0  0  0  0  0  0
    2.6909    4.9991    0.0000 H   0  0  0  0  0  0  0  0  0  0  0  0
    1.8398    5.2099    0.0000 H   0  0  0  0  0  0  0  0  0  0  0  0
    1.6290    4.3588    0.0000 H   0  0  0  0  0  0  0  0  0  0  0  0
    4.1741    5.8935    0.0000 H   0  0  0  0  0  0  0  0  0  0  0  0
    3.3230    6.1043    0.0000 H   0  0  0  0  0  0  0  0  0  0  0  0
    3.1122    5.2532    0.0000 H   0  0  0  0  0  0  0  0  0  0  0  0
  1 28  1  0  0  0  0
  1 29  1  0  0  0  0
 14  2  1  6  0  0  0
  2 26  1  0  0  0  0
 17  3  1  1  0  0  0
  3 63  1  0  0  0  0
  4 16  2  0  0  0  0
  5 26  2  0  0  0  0
  6 30  1  0  0  0  0
  6 31  1  0  0  0  0
  6 32  1  0  0  0  0
  7  8  1  0  0  0  0
  7 10  1  0  0  0  0
  7 12  1  0  0  0  0
  7 13  1  1  0  0  0
  8  9  1  0  0  0  0
  8 16  1  0  0  0  0
  8 35  1  6  0  0  0
  9 11  1  0  0  0  0
  9 14  1  0  0  0  0
  9 21  1  1  0  0  0
 10 17  1  0  0  0  0
 10 22  1  6  0  0  0
 10 36  1  0  0  0  0
 11 15  1  0  0  0  0
 11 23  1  6  0  0  0
 11 37  1  0  0  0  0
 12 15  1  0  0  0  0
 12 38  1  0  0  0  0
 12 39  1  0  0  0  0
 13 18  1  0  0  0  0
 13 40  1  0  0  0  0
 13 41  1  0  0  0  0
 14 20  1  0  0  0  0
 14 42  1  0  0  0  0
 15 43  1  0  0  0  0
 15 44  1  0  0  0  0
 16 18  1  0  0  0  0
 17 19  1  0  0  0  0
 17 45  1  0  0  0  0
 18 46  1  0  0  0  0
 18 47  1  0  0  0  0
 19 20  1  0  0  0  0
 19 24  1  6  0  0  0
 19 25  1  0  0  0  0
 20 48  1  0  0  0  0
 20 49  1  0  0  0  0
 21 50  1  0  0  0  0
 21 51  1  0  0  0  0
 21 52  1  0  0  0  0
 22 53  1  0  0  0  0
 22 54  1  0  0  0  0
 22 55  1  0  0  0  0
 23 56  1  0  0  0  0
 23 57  1  0  0  0  0
 23 58  1  0  0  0  0
 24 59  1  0  0  0  0
 24 60  1  0  0  0  0
 24 61  1  0  0  0  0
 25 27  2  0  0  0  0
 25 62  1  0  0  0  0
 26 28  1  0  0  0  0
 27 64  1  0  0  0  0
 27 65  1  0  0  0  0
 28 66  1  0  0  0  0
 28 67  1  0  0  0  0
 29 30  1  0  0  0  0
 29 68  1  0  0  0  0
 29 69  1  0  0  0  0
 30 70  1  0  0  0  0
 30 71  1  0  0  0  0
 31 33  1  0  0  0  0
 31 74  1  0  0  0  0
 31 75  1  0  0  0  0
 32 34  1  0  0  0  0
 32 72  1  0  0  0  0
 32 73  1  0  0  0  0
 33 79  1  0  0  0  0
 33 80  1  0  0  0  0
 33 81  1  0  0  0  0
 34 76  1  0  0  0  0
 34 77  1  0  0  0  0
 34 78  1  0  0  0  0
M  END
> <PUBCHEM_COMPOUND_CID>
656958

> <PUBCHEM_COMPOUND_CANONICALIZED>
1

> <PUBCHEM_CACTVS_COMPLEXITY>
770

> <PUBCHEM_CACTVS_HBOND_ACCEPTOR>
6

> <PUBCHEM_CACTVS_HBOND_DONOR>
1

> <PUBCHEM_CACTVS_ROTATABLE_BOND>
10

> <PUBCHEM_CACTVS_SUBSKEYS>
AAADcfB6OABAAAAAAAAAAAAAAAAAAYAAAAAwAAAAAAAYAGDAAAAAHgQACAAADxTlwAaCCAMABgiIAKDSCAAAAAAgABAIAAEIAAgAEBIAAAACQAAEwACgAAHKzPDPgAAAAAAAAACAAAQAACAAAAAACAAAAA==

> <PUBCHEM_IUPAC_INCHI>
InChI=1S/C28H47NO4S/c1-8-26(6)17-22(33-23(31)18-34-16-15-29(9-2)10-3)27(7)19(4)11-13-28(20(5)25(26)32)14-12-21(30)24(27)28/h8,19-20,22,24-25,32H,1,9-18H2,2-7H3/t19-,20+,22-,24+,25+,26-,27+,28+/m1/s1

> <PUBCHEM_IUPAC_INCHIKEY>
UURAUHCOJAIIRQ-QGLSALSOSA-N

> <PUBCHEM_XLOGP3_AA>
5.6

> <PUBCHEM_EXACT_MASS>
493.32258

> <PUBCHEM_MOLECULAR_FORMULA>
C28H47NO4S

> <PUBCHEM_MOLECULAR_WEIGHT>
493.74208

> <PUBCHEM_OPENEYE_CAN_SMILES>
CCN(CC)CCSCC(=O)OC1CC(C(C(C23CCC(C1(C2C(=O)CC3)C)C)C)O)(C)C=C

> <PUBCHEM_OPENEYE_ISO_SMILES>
CCN(CC)CCSCC(=O)O[C@@H]1C[C@@]([C@H]([C@@H]([C@@]23CC[C@H]([C@@]1([C@@H]2C(=O)CC3)C)C)C)O)(C)C=C

> <PUBCHEM_CACTVS_TPSA>
92.1

> <PUBCHEM_MONOISOTOPIC_WEIGHT>
493.32258

> <PUBCHEM_TOTAL_CHARGE>
0

> <PUBCHEM_HEAVY_ATOM_COUNT>
34

> <PUBCHEM_ATOM_DEF_STEREO_COUNT>
8

> <PUBCHEM_ATOM_UDEF_STEREO_COUNT>
0

> <PUBCHEM_BOND_DEF_STEREO_COUNT>
0

> <PUBCHEM_BOND_UDEF_STEREO_COUNT>
0

> <PUBCHEM_ISOTOPIC_ATOM_COUNT>
0

> <PUBCHEM_COMPONENT_COUNT>
1

> <PUBCHEM_CACTVS_TAUTO_COUNT>
2

> <PUBCHEM_COORDINATE_TYPE>
1
5
255

> <PUBCHEM_BONDANNOTATIONS>
10  22  6
11  23  6
19  24  6
14  2  6
17  3  5
7  13  5
8  35  6
9  21  5

$$$$

