440185
  -OEChem-07051212492D

 87 90  0     1  0  0  0  0  0999 V2000
    7.6396    1.5498    0.0000 O   0  0  0  0  0  0  0  0  0  0  0  0
    5.7954    0.8418    0.0000 O   0  0  0  0  0  0  0  0  0  0  0  0
    5.1669    2.3124    0.0000 O   0  0  0  0  0  0  0  0  0  0  0  0
    6.6615   -0.6582    0.0000 O   0  0  0  0  0  0  0  0  0  0  0  0
    5.3480    4.0350    0.0000 O   0  0  0  0  0  0  0  0  0  0  0  0
    6.6227    3.9292    0.0000 O   0  0  0  0  0  0  0  0  0  0  0  0
    4.0634   -0.1582    0.0000 O   0  0  0  0  0  0  0  0  0  0  0  0
    7.8204    0.0547    0.0000 O   0  0  0  0  0  0  0  0  0  0  0  0
    7.5275   -3.1582    0.0000 O   0  0  0  0  0  0  0  0  0  0  0  0
    4.0634   -2.1582    0.0000 O   0  0  0  0  0  0  0  0  0  0  0  0
    5.7954   -3.1582    0.0000 O   0  0  0  0  0  0  0  0  0  0  0  0
    3.1779    2.5215    0.0000 O   0  0  0  0  0  0  0  0  0  0  0  0
    9.4762    2.5443    0.0000 O   0  0  0  0  0  0  0  0  0  0  0  0
    9.2595   -3.1582    0.0000 O   0  0  0  0  0  0  0  0  0  0  0  0
    2.3644    4.3485    0.0000 O   0  0  0  0  0  0  0  0  0  0  0  0
    3.5400    5.9666    0.0000 O   0  0  0  0  0  0  0  0  0  0  0  0
    7.5275   -5.1582    0.0000 O   0  0  0  0  0  0  0  0  0  0  0  0
    9.2595   -6.1582    0.0000 O   0  0  0  0  0  0  0  0  0  0  0  0
   10.9916   -5.1582    0.0000 O   0  0  0  0  0  0  0  0  0  0  0  0
    6.5236    5.6530    0.0000 O   0  0  0  0  0  0  0  0  0  0  0  0
   11.8576   -3.6582    0.0000 O   0  0  0  0  0  0  0  0  0  0  0  0
    6.6615    1.3418    0.0000 C   0  0  1  0  0  0  0  0  0  0  0  0
    6.1615    2.2079    0.0000 C   0  0  2  0  0  0  0  0  0  0  0  0
    6.8306    2.9510    0.0000 C   0  0  1  0  0  0  0  0  0  0  0  0
    7.7441    2.5443    0.0000 C   0  0  1  0  0  0  0  0  0  0  0  0
    5.7954   -0.1582    0.0000 C   0  0  1  0  0  0  0  0  0  0  0  0
    4.9294   -0.6582    0.0000 C   0  0  1  0  0  0  0  0  0  0  0  0
    6.8694    0.3637    0.0000 C   0  0  0  0  0  0  0  0  0  0  0  0
    4.7602    3.2259    0.0000 C   0  0  1  0  0  0  0  0  0  0  0  0
    4.9294   -1.6582    0.0000 C   0  0  2  0  0  0  0  0  0  0  0  0
    6.6615   -1.6582    0.0000 C   0  0  1  0  0  0  0  0  0  0  0  0
    5.7954   -2.1582    0.0000 C   0  0  1  0  0  0  0  0  0  0  0  0
    3.7657    3.3305    0.0000 C   0  0  1  0  0  0  0  0  0  0  0  0
    8.6102    3.0443    0.0000 C   0  0  0  0  0  0  0  0  0  0  0  0
    3.3590    4.2440    0.0000 C   0  0  2  0  0  0  0  0  0  0  0  0
    3.9467    5.0530    0.0000 C   0  0  2  0  0  0  0  0  0  0  0  0
    4.9413    4.9485    0.0000 C   0  0  1  0  0  0  0  0  0  0  0  0
    7.5275   -2.1582    0.0000 C   0  0  0  0  0  0  0  0  0  0  0  0
    8.3935   -3.6582    0.0000 C   0  0  1  0  0  0  0  0  0  0  0  0
    8.3935   -4.6582    0.0000 C   0  0  1  0  0  0  0  0  0  0  0  0
    9.2595   -5.1582    0.0000 C   0  0  2  0  0  0  0  0  0  0  0  0
   10.1256   -4.6582    0.0000 C   0  0  2  0  0  0  0  0  0  0  0  0
    5.5290    5.7575    0.0000 C   0  0  0  0  0  0  0  0  0  0  0  0
   10.1256   -3.6582    0.0000 C   0  0  1  0  0  0  0  0  0  0  0  0
   10.9916   -3.1582    0.0000 C   0  0  0  0  0  0  0  0  0  0  0  0
    5.9393    2.7867    0.0000 H   0  0  0  0  0  0  0  0  0  0  0  0
    6.2317    3.1115    0.0000 H   0  0  0  0  0  0  0  0  0  0  0  0
    8.2641    2.2066    0.0000 H   0  0  0  0  0  0  0  0  0  0  0  0
    5.2585    0.1518    0.0000 H   0  0  0  0  0  0  0  0  0  0  0  0
    4.3925   -0.9682    0.0000 H   0  0  0  0  0  0  0  0  0  0  0  0
    6.2498    0.3421    0.0000 H   0  0  0  0  0  0  0  0  0  0  0  0
    6.7831   -0.2503    0.0000 H   0  0  0  0  0  0  0  0  0  0  0  0
    4.3958    2.7244    0.0000 H   0  0  0  0  0  0  0  0  0  0  0  0
    4.3925   -1.3482    0.0000 H   0  0  0  0  0  0  0  0  0  0  0  0
    7.1984   -1.3482    0.0000 H   0  0  0  0  0  0  0  0  0  0  0  0
    5.2585   -2.4682    0.0000 H   0  0  0  0  0  0  0  0  0  0  0  0
    4.0179    2.7641    0.0000 H   0  0  0  0  0  0  0  0  0  0  0  0
    9.0087    3.5192    0.0000 H   0  0  0  0  0  0  0  0  0  0  0  0
    8.2116    3.5192    0.0000 H   0  0  0  0  0  0  0  0  0  0  0  0
    2.9945    3.7424    0.0000 H   0  0  0  0  0  0  0  0  0  0  0  0
    3.3301    5.1178    0.0000 H   0  0  0  0  0  0  0  0  0  0  0  0
    5.5579    4.8837    0.0000 H   0  0  0  0  0  0  0  0  0  0  0  0
    8.1381   -2.2658    0.0000 H   0  0  0  0  0  0  0  0  0  0  0  0
    7.7395   -1.5756    0.0000 H   0  0  0  0  0  0  0  0  0  0  0  0
    7.0834    4.3440    0.0000 H   0  0  0  0  0  0  0  0  0  0  0  0
    8.3935   -3.0382    0.0000 H   0  0  0  0  0  0  0  0  0  0  0  0
    8.3935   -5.2782    0.0000 H   0  0  0  0  0  0  0  0  0  0  0  0
    9.7965   -5.4682    0.0000 H   0  0  0  0  0  0  0  0  0  0  0  0
   10.6625   -4.3482    0.0000 H   0  0  0  0  0  0  0  0  0  0  0  0
    5.6999    6.3535    0.0000 H   0  0  0  0  0  0  0  0  0  0  0  0
    4.9718    6.0293    0.0000 H   0  0  0  0  0  0  0  0  0  0  0  0
   10.1256   -3.0382    0.0000 H   0  0  0  0  0  0  0  0  0  0  0  0
    3.5264   -0.4682    0.0000 H   0  0  0  0  0  0  0  0  0  0  0  0
    7.9493   -0.5518    0.0000 H   0  0  0  0  0  0  0  0  0  0  0  0
    4.0634   -2.7782    0.0000 H   0  0  0  0  0  0  0  0  0  0  0  0
    5.2585   -3.4682    0.0000 H   0  0  0  0  0  0  0  0  0  0  0  0
    2.5613    2.5863    0.0000 H   0  0  0  0  0  0  0  0  0  0  0  0
   10.0131    2.8543    0.0000 H   0  0  0  0  0  0  0  0  0  0  0  0
    2.0000    3.8470    0.0000 H   0  0  0  0  0  0  0  0  0  0  0  0
    3.9044    6.4682    0.0000 H   0  0  0  0  0  0  0  0  0  0  0  0
   11.3901   -2.6832    0.0000 H   0  0  0  0  0  0  0  0  0  0  0  0
   10.5931   -2.6832    0.0000 H   0  0  0  0  0  0  0  0  0  0  0  0
    7.5275   -5.7782    0.0000 H   0  0  0  0  0  0  0  0  0  0  0  0
    9.7965   -6.4682    0.0000 H   0  0  0  0  0  0  0  0  0  0  0  0
   10.9916   -5.7782    0.0000 H   0  0  0  0  0  0  0  0  0  0  0  0
    6.8880    6.1546    0.0000 H   0  0  0  0  0  0  0  0  0  0  0  0
   12.3946   -3.3482    0.0000 H   0  0  0  0  0  0  0  0  0  0  0  0
  1 22  1  0  0  0  0
  1 25  1  0  0  0  0
 22  2  1  1  0  0  0
 26  2  1  1  0  0  0
 23  3  1  1  0  0  0
 29  3  1  6  0  0  0
  4 26  1  0  0  0  0
  4 31  1  0  0  0  0
  5 29  1  0  0  0  0
  5 37  1  0  0  0  0
 24  6  1  6  0  0  0
  6 65  1  0  0  0  0
 27  7  1  1  0  0  0
  7 73  1  0  0  0  0
  8 28  1  0  0  0  0
  8 74  1  0  0  0  0
  9 38  1  0  0  0  0
 39  9  1  1  0  0  0
 30 10  1  6  0  0  0
 10 75  1  0  0  0  0
 32 11  1  1  0  0  0
 11 76  1  0  0  0  0
 33 12  1  6  0  0  0
 12 77  1  0  0  0  0
 13 34  1  0  0  0  0
 13 78  1  0  0  0  0
 14 39  1  0  0  0  0
 14 44  1  0  0  0  0
 35 15  1  1  0  0  0
 15 79  1  0  0  0  0
 36 16  1  1  0  0  0
 16 80  1  0  0  0  0
 40 17  1  1  0  0  0
 17 83  1  0  0  0  0
 41 18  1  6  0  0  0
 18 84  1  0  0  0  0
 42 19  1  6  0  0  0
 19 85  1  0  0  0  0
 20 43  1  0  0  0  0
 20 86  1  0  0  0  0
 21 45  1  0  0  0  0
 21 87  1  0  0  0  0
 22 23  1  0  0  0  0
 22 28  1  0  0  0  0
 23 24  1  0  0  0  0
 23 46  1  0  0  0  0
 24 25  1  0  0  0  0
 24 47  1  0  0  0  0
 25 34  1  1  0  0  0
 25 48  1  0  0  0  0
 26 27  1  0  0  0  0
 26 49  1  0  0  0  0
 27 30  1  0  0  0  0
 27 50  1  0  0  0  0
 28 51  1  0  0  0  0
 28 52  1  0  0  0  0
 29 33  1  0  0  0  0
 29 53  1  0  0  0  0
 30 32  1  0  0  0  0
 30 54  1  0  0  0  0
 31 32  1  0  0  0  0
 31 38  1  6  0  0  0
 31 55  1  0  0  0  0
 32 56  1  0  0  0  0
 33 35  1  0  0  0  0
 33 57  1  0  0  0  0
 34 58  1  0  0  0  0
 34 59  1  0  0  0  0
 35 36  1  0  0  0  0
 35 60  1  0  0  0  0
 36 37  1  0  0  0  0
 36 61  1  0  0  0  0
 37 43  1  1  0  0  0
 37 62  1  0  0  0  0
 38 63  1  0  0  0  0
 38 64  1  0  0  0  0
 39 40  1  0  0  0  0
 39 66  1  0  0  0  0
 40 41  1  0  0  0  0
 40 67  1  0  0  0  0
 41 42  1  0  0  0  0
 41 68  1  0  0  0  0
 42 44  1  0  0  0  0
 42 69  1  0  0  0  0
 43 70  1  0  0  0  0
 43 71  1  0  0  0  0
 44 45  1  6  0  0  0
 44 72  1  0  0  0  0
 45 81  1  0  0  0  0
 45 82  1  0  0  0  0
M  END
> <PUBCHEM_COMPOUND_CID>
440185

> <PUBCHEM_COMPOUND_CANONICALIZED>
1

> <PUBCHEM_CACTVS_COMPLEXITY>
933

> <PUBCHEM_CACTVS_HBOND_ACCEPTOR>
21

> <PUBCHEM_CACTVS_HBOND_DONOR>
14

> <PUBCHEM_CACTVS_ROTATABLE_BOND>
11

> <PUBCHEM_CACTVS_SUBSKEYS>
AAADcfB4PgAAAAAAAAAAAAAAAAAAASAAAAAkSJAAAAAAAAAAAAAAGgAACAAACBSwgAMACAAABgAAAAAAAAAAAAAAAAAAAAAAAAAREAIAAAAiQAAFAAAHAAHAYAwAAAAAAAAAAAAAAAAAAAAAAAAAAAAAAA==

> <PUBCHEM_IUPAC_OPENEYE_NAME>
(2R,3R,4S,5R,6S)-2-(hydroxymethyl)-6-[[(2R,3S,4S,5R,6R)-3,4,5-trihydroxy-6-[(2S,3S,4R,5R)-4-hydroxy-2,5-bis(hydroxymethyl)-3-[(2R,3R,4S,5R,6R)-3,4,5-trihydroxy-6-(hydroxymethyl)tetrahydropyran-2-yl]oxy-tetrahydrofuran-2-yl]oxy-tetrahydropyran-2-yl]methoxy]tetrahydropyran-3,4,5-triol

> <PUBCHEM_IUPAC_CAS_NAME>
(2R,3R,4S,5R,6S)-2-(hydroxymethyl)-6-[[(2R,3S,4S,5R,6R)-3,4,5-trihydroxy-6-[[(2S,3S,4R,5R)-4-hydroxy-2,5-bis(hydroxymethyl)-3-[[(2R,3R,4S,5R,6R)-3,4,5-trihydroxy-6-(hydroxymethyl)-2-oxanyl]oxy]-2-oxolanyl]oxy]-2-oxanyl]methoxy]oxane-3,4,5-triol

> <PUBCHEM_IUPAC_NAME>
(2R,3R,4S,5R,6S)-2-(hydroxymethyl)-6-[[(2R,3S,4S,5R,6R)-3,4,5-trihydroxy-6-[(2S,3S,4R,5R)-4-hydroxy-2,5-bis(hydroxymethyl)-3-[(2R,3R,4S,5R,6R)-3,4,5-trihydroxy-6-(hydroxymethyl)oxan-2-yl]oxyoxolan-2-yl]oxyoxan-2-yl]methoxy]oxane-3,4,5-triol

> <PUBCHEM_IUPAC_SYSTEMATIC_NAME>
(2S,3R,4S,5R,6R)-2-[[(2R,3S,4S,5R,6R)-6-[(2S,3S,4R,5R)-2,5-bis(hydroxymethyl)-3-[(2R,3R,4S,5R,6R)-6-(hydroxymethyl)-3,4,5-tris(oxidanyl)oxan-2-yl]oxy-4-oxidanyl-oxolan-2-yl]oxy-3,4,5-tris(oxidanyl)oxan-2-yl]methoxy]-6-(hydroxymethyl)oxane-3,4,5-triol

> <PUBCHEM_IUPAC_TRADITIONAL_NAME>
(2R,3R,4S,5R,6S)-2-methylol-6-[[(2R,3S,4S,5R,6R)-3,4,5-trihydroxy-6-[(2S,3S,4R,5R)-4-hydroxy-2,5-dimethylol-3-[(2R,3R,4S,5R,6R)-3,4,5-trihydroxy-6-methylol-tetrahydropyran-2-yl]oxy-tetrahydrofuran-2-yl]oxy-tetrahydropyran-2-yl]methoxy]tetrahydropyran-3,4,5-triol

> <PUBCHEM_IUPAC_INCHI>
InChI=1S/C24H42O21/c25-1-6-10(29)14(33)17(36)21(40-6)39-4-9-12(31)16(35)19(38)23(42-9)45-24(5-28)20(13(32)8(3-27)44-24)43-22-18(37)15(34)11(30)7(2-26)41-22/h6-23,25-38H,1-5H2/t6-,7-,8-,9-,10+,11+,12-,13-,14+,15+,16+,17-,18-,19-,20+,21+,22-,23-,24+/m1/s1

> <PUBCHEM_IUPAC_INCHIKEY>
ZJTKROCMWYBRPX-DFMCVVGJSA-N

> <PUBCHEM_XLOGP3>
-8

> <PUBCHEM_EXACT_MASS>
666.221858

> <PUBCHEM_MOLECULAR_FORMULA>
C24H42O21

> <PUBCHEM_MOLECULAR_WEIGHT>
666.57768

> <PUBCHEM_OPENEYE_CAN_SMILES>
C(C1C(C(C(C(O1)OCC2C(C(C(C(O2)OC3(C(C(C(O3)CO)O)OC4C(C(C(C(O4)CO)O)O)O)CO)O)O)O)O)O)O)O

> <PUBCHEM_OPENEYE_ISO_SMILES>
C([C@@H]1[C@@H]([C@@H]([C@H]([C@H](O1)OC[C@@H]2[C@H]([C@@H]([C@H]([C@H](O2)O[C@]3([C@H]([C@@H]([C@H](O3)CO)O)O[C@@H]4[C@@H]([C@H]([C@H]([C@H](O4)CO)O)O)O)CO)O)O)O)O)O)O)O

> <PUBCHEM_CACTVS_TPSA>
348

> <PUBCHEM_MONOISOTOPIC_WEIGHT>
666.221858

> <PUBCHEM_TOTAL_CHARGE>
0

> <PUBCHEM_HEAVY_ATOM_COUNT>
45

> <PUBCHEM_ATOM_DEF_STEREO_COUNT>
19

> <PUBCHEM_ATOM_UDEF_STEREO_COUNT>
0

> <PUBCHEM_BOND_DEF_STEREO_COUNT>
0

> <PUBCHEM_BOND_UDEF_STEREO_COUNT>
0

> <PUBCHEM_ISOTOPIC_ATOM_COUNT>
0

> <PUBCHEM_COMPONENT_COUNT>
1

> <PUBCHEM_CACTVS_TAUTO_COUNT>
1

> <PUBCHEM_COORDINATE_TYPE>
1
5
255

> <PUBCHEM_BONDANNOTATIONS>
30  10  6
32  11  5
33  12  6
35  15  5
36  16  5
40  17  5
41  18  6
42  19  6
22  2  5
26  2  5
25  34  5
23  3  5
29  3  6
31  38  6
37  43  5
44  45  6
24  6  6
27  7  5
39  9  5

$$$$

