8104
  -OEChem-06261202352D

 17 16  0     0  0  0  0  0  0999 V2000
    2.5369   -0.2500    0.0000 O   0  0  0  0  0  0  0  0  0  0  0  0
    4.2690   -0.2500    0.0000 C   0  0  0  0  0  0  0  0  0  0  0  0
    5.1350    0.2500    0.0000 C   0  0  0  0  0  0  0  0  0  0  0  0
    3.4030    0.2500    0.0000 C   0  0  0  0  0  0  0  0  0  0  0  0
    6.0010   -0.2500    0.0000 C   0  0  0  0  0  0  0  0  0  0  0  0
    6.8671    0.2500    0.0000 C   0  0  0  0  0  0  0  0  0  0  0  0
    7.7331   -0.2500    0.0000 C   0  0  0  0  0  0  0  0  0  0  0  0
    4.2690   -0.8700    0.0000 H   0  0  0  0  0  0  0  0  0  0  0  0
    5.1350    0.8700    0.0000 H   0  0  0  0  0  0  0  0  0  0  0  0
    3.8015    0.7249    0.0000 H   0  0  0  0  0  0  0  0  0  0  0  0
    3.0044    0.7249    0.0000 H   0  0  0  0  0  0  0  0  0  0  0  0
    6.0010   -0.8700    0.0000 H   0  0  0  0  0  0  0  0  0  0  0  0
    6.8671    0.8700    0.0000 H   0  0  0  0  0  0  0  0  0  0  0  0
    7.4231   -0.7869    0.0000 H   0  0  0  0  0  0  0  0  0  0  0  0
    8.2700   -0.5600    0.0000 H   0  0  0  0  0  0  0  0  0  0  0  0
    8.0431    0.2869    0.0000 H   0  0  0  0  0  0  0  0  0  0  0  0
    2.0000    0.0600    0.0000 H   0  0  0  0  0  0  0  0  0  0  0  0
  1  4  1  0  0  0  0
  1 17  1  0  0  0  0
  2  3  2  3  0  0  0
  2  4  1  0  0  0  0
  2  8  1  0  0  0  0
  3  5  1  0  0  0  0
  3  9  1  0  0  0  0
  4 10  1  0  0  0  0
  4 11  1  0  0  0  0
  5  6  2  3  0  0  0
  5 12  1  0  0  0  0
  6  7  1  0  0  0  0
  6 13  1  0  0  0  0
  7 14  1  0  0  0  0
  7 15  1  0  0  0  0
  7 16  1  0  0  0  0
M  END
> <PUBCHEM_COMPOUND_CID>
8104

> <PUBCHEM_COMPOUND_CANONICALIZED>
1

> <PUBCHEM_CACTVS_COMPLEXITY>
72.2

> <PUBCHEM_CACTVS_HBOND_ACCEPTOR>
1

> <PUBCHEM_CACTVS_HBOND_DONOR>
1

> <PUBCHEM_CACTVS_ROTATABLE_BOND>
2

> <PUBCHEM_CACTVS_SUBSKEYS>
AAADccBgIAAAAAAAAAAAAAAAAAAAAAAAAAAAAAAAAAAAAAAAAAAAGgAACAAACACggAICAAAAAgCAACBCAAAAAAAAAAAICAAAAAAIFAAAAQAAEAAAAAAAkAAAAAAAAAAAAAAAAAAAAAAAAAAAAAAAAAAAAA==

> <PUBCHEM_IUPAC_OPENEYE_NAME>
hexa-2,4-dien-1-ol

> <PUBCHEM_IUPAC_CAS_NAME>
1-hexa-2,4-dienol

> <PUBCHEM_IUPAC_NAME>
hexa-2,4-dien-1-ol

> <PUBCHEM_IUPAC_SYSTEMATIC_NAME>
hexa-2,4-dien-1-ol

> <PUBCHEM_IUPAC_TRADITIONAL_NAME>
hexa-2,4-dien-1-ol

> <PUBCHEM_IUPAC_INCHI>
InChI=1S/C6H10O/c1-2-3-4-5-6-7/h2-5,7H,6H2,1H3

> <PUBCHEM_IUPAC_INCHIKEY>
MEIRRNXMZYDVDW-UHFFFAOYSA-N

> <PUBCHEM_XLOGP3_AA>
1.1

> <PUBCHEM_EXACT_MASS>
98.073165

> <PUBCHEM_MOLECULAR_FORMULA>
C6H10O

> <PUBCHEM_MOLECULAR_WEIGHT>
98.143

> <PUBCHEM_OPENEYE_CAN_SMILES>
CC=CC=CCO

> <PUBCHEM_OPENEYE_ISO_SMILES>
CC=CC=CCO

> <PUBCHEM_CACTVS_TPSA>
20.2

> <PUBCHEM_MONOISOTOPIC_WEIGHT>
98.073165

> <PUBCHEM_TOTAL_CHARGE>
0

> <PUBCHEM_HEAVY_ATOM_COUNT>
7

> <PUBCHEM_ATOM_DEF_STEREO_COUNT>
0

> <PUBCHEM_ATOM_UDEF_STEREO_COUNT>
0

> <PUBCHEM_BOND_DEF_STEREO_COUNT>
0

> <PUBCHEM_BOND_UDEF_STEREO_COUNT>
2

> <PUBCHEM_ISOTOPIC_ATOM_COUNT>
0

> <PUBCHEM_COMPONENT_COUNT>
1

> <PUBCHEM_CACTVS_TAUTO_COUNT>
1

> <PUBCHEM_COORDINATE_TYPE>
1
5
255

> <PUBCHEM_BONDANNOTATIONS>
2  3  1
5  6  1

$$$$

