334044
  -OEChem-07051212562D

107110  0     1  0  0  0  0  0999 V2000
   16.7666   -2.2949    0.0000 O   0  0  0  0  0  0  0  0  0  0  0  0
   15.8215   -1.8334    0.0000 O   0  0  0  0  0  0  0  0  0  0  0  0
   16.5487    0.7733    0.0000 O   0  0  0  0  0  0  0  0  0  0  0  0
   20.0969   -2.9099    0.0000 O   0  0  0  0  0  0  0  0  0  0  0  0
   18.4742    2.8780    0.0000 O   0  0  0  0  0  0  0  0  0  0  0  0
   17.6506    3.8612    0.0000 O   0  0  0  0  0  0  0  0  0  0  0  0
   17.7533   -3.7185    0.0000 O   0  0  0  0  0  0  0  0  0  0  0  0
   21.1293    0.8038    0.0000 O   0  0  0  0  0  0  0  0  0  0  0  0
   14.8514   -0.3986    0.0000 O   0  0  0  0  0  0  0  0  0  0  0  0
   18.4445   -1.1319    0.0000 C   0  0  1  0  0  0  0  0  0  0  0  0
   17.5884   -1.7253    0.0000 C   0  0  1  0  0  0  0  0  0  0  0  0
   18.5307   -2.1704    0.0000 C   0  0  2  0  0  0  0  0  0  0  0  0
   18.3507   -0.0945    0.0000 C   0  0  1  0  0  0  0  0  0  0  0  0
   16.6500   -1.2733    0.0000 C   0  0  1  0  0  0  0  0  0  0  0  0
   17.4497    0.3394    0.0000 C   0  0  1  0  0  0  0  0  0  0  0  0
   16.5801   -0.2340    0.0000 C   0  0  2  0  0  0  0  0  0  0  0  0
   19.5273   -2.0880    0.0000 C   0  0  0  0  0  0  0  0  0  0  0  0
   18.1037   -3.0747    0.0000 C   0  0  0  0  0  0  0  0  0  0  0  0
   17.2272    1.3143    0.0000 C   0  0  1  0  0  0  0  0  0  0  0  0
   19.2516    0.3394    0.0000 C   0  0  0  0  0  0  0  0  0  0  0  0
   17.8507    2.0962    0.0000 C   0  0  1  0  0  0  0  0  0  0  0  0
   15.5821   -0.2972    0.0000 C   0  0  0  0  0  0  0  0  0  0  0  0
   19.4742    1.3143    0.0000 C   0  0  0  0  0  0  0  0  0  0  0  0
   18.8507    2.0962    0.0000 C   0  0  0  0  0  0  0  0  0  0  0  0
   16.2974    1.6660    0.0000 C   0  0  0  0  0  0  0  0  0  0  0  0
   17.3009    2.9244    0.0000 C   0  0  0  0  0  0  0  0  0  0  0  0
   16.8490   -3.2915    0.0000 C   0  0  0  0  0  0  0  0  0  0  0  0
   16.3429    2.6591    0.0000 C   0  0  0  0  0  0  0  0  0  0  0  0
   14.9223   -1.3961    0.0000 C   0  0  0  0  0  0  0  0  0  0  0  0
   20.4491    1.5368    0.0000 C   0  0  0  0  0  0  0  0  0  0  0  0
   16.0271   -3.8612    0.0000 C   0  0  0  0  0  0  0  0  0  0  0  0
   15.5610    3.2826    0.0000 C   0  0  0  0  0  0  0  0  0  0  0  0
   14.0939   -1.9562    0.0000 C   0  0  0  0  0  0  0  0  0  0  0  0
   13.1946   -1.5189    0.0000 C   0  0  0  0  0  0  0  0  0  0  0  0
   12.3662   -2.0790    0.0000 C   0  0  0  0  0  0  0  0  0  0  0  0
   11.4669   -1.6416    0.0000 C   0  0  0  0  0  0  0  0  0  0  0  0
   10.6385   -2.2018    0.0000 C   0  0  0  0  0  0  0  0  0  0  0  0
    9.7392   -1.7644    0.0000 C   0  0  0  0  0  0  0  0  0  0  0  0
    8.9108   -2.3246    0.0000 C   0  0  0  0  0  0  0  0  0  0  0  0
    8.0115   -1.8872    0.0000 C   0  0  0  0  0  0  0  0  0  0  0  0
    7.1831   -2.4473    0.0000 C   0  0  0  0  0  0  0  0  0  0  0  0
    6.2838   -2.0100    0.0000 C   0  0  0  0  0  0  0  0  0  0  0  0
    5.4554   -2.5701    0.0000 C   0  0  0  0  0  0  0  0  0  0  0  0
    4.5561   -2.1328    0.0000 C   0  0  0  0  0  0  0  0  0  0  0  0
    3.7277   -2.6929    0.0000 C   0  0  0  0  0  0  0  0  0  0  0  0
    2.8284   -2.2555    0.0000 C   0  0  0  0  0  0  0  0  0  0  0  0
    2.0000   -2.8157    0.0000 C   0  0  0  0  0  0  0  0  0  0  0  0
   19.2913   -1.0584    0.0000 H   0  0  0  0  0  0  0  0  0  0  0  0
   19.0900   -0.5138    0.0000 H   0  0  0  0  0  0  0  0  0  0  0  0
   16.6951   -1.8917    0.0000 H   0  0  0  0  0  0  0  0  0  0  0  0
   16.3833    0.3539    0.0000 H   0  0  0  0  0  0  0  0  0  0  0  0
   20.0904   -1.8286    0.0000 H   0  0  0  0  0  0  0  0  0  0  0  0
   19.3696   -1.4884    0.0000 H   0  0  0  0  0  0  0  0  0  0  0  0
   17.5431   -2.8100    0.0000 H   0  0  0  0  0  0  0  0  0  0  0  0
   17.8390   -3.6354    0.0000 H   0  0  0  0  0  0  0  0  0  0  0  0
   18.6644   -3.3394    0.0000 H   0  0  0  0  0  0  0  0  0  0  0  0
   16.5863    0.7559    0.0000 H   0  0  0  0  0  0  0  0  0  0  0  0
   19.7364   -0.0472    0.0000 H   0  0  0  0  0  0  0  0  0  0  0  0
   15.5429    0.3215    0.0000 H   0  0  0  0  0  0  0  0  0  0  0  0
   14.9634   -0.3364    0.0000 H   0  0  0  0  0  0  0  0  0  0  0  0
   15.6213   -0.9160    0.0000 H   0  0  0  0  0  0  0  0  0  0  0  0
   15.9305    0.7270    0.0000 H   0  0  0  0  0  0  0  0  0  0  0  0
   19.4093    2.3652    0.0000 H   0  0  0  0  0  0  0  0  0  0  0  0
   18.7127    2.7006    0.0000 H   0  0  0  0  0  0  0  0  0  0  0  0
   15.7794    1.3254    0.0000 H   0  0  0  0  0  0  0  0  0  0  0  0
   20.7148   -2.8588    0.0000 H   0  0  0  0  0  0  0  0  0  0  0  0
   19.0872    2.7856    0.0000 H   0  0  0  0  0  0  0  0  0  0  0  0
   20.9699    1.8732    0.0000 H   0  0  0  0  0  0  0  0  0  0  0  0
   20.2083    2.1082    0.0000 H   0  0  0  0  0  0  0  0  0  0  0  0
   15.6739   -3.3516    0.0000 H   0  0  0  0  0  0  0  0  0  0  0  0
   15.5175   -4.2144    0.0000 H   0  0  0  0  0  0  0  0  0  0  0  0
   16.3803   -4.3708    0.0000 H   0  0  0  0  0  0  0  0  0  0  0  0
   15.9476    3.7673    0.0000 H   0  0  0  0  0  0  0  0  0  0  0  0
   15.0763    3.6691    0.0000 H   0  0  0  0  0  0  0  0  0  0  0  0
   15.1745    2.7978    0.0000 H   0  0  0  0  0  0  0  0  0  0  0  0
   13.7300   -2.4582    0.0000 H   0  0  0  0  0  0  0  0  0  0  0  0
   14.5250   -2.4017    0.0000 H   0  0  0  0  0  0  0  0  0  0  0  0
   21.7337    0.9418    0.0000 H   0  0  0  0  0  0  0  0  0  0  0  0
   13.5584   -1.0169    0.0000 H   0  0  0  0  0  0  0  0  0  0  0  0
   12.7634   -1.0734    0.0000 H   0  0  0  0  0  0  0  0  0  0  0  0
   12.0023   -2.5810    0.0000 H   0  0  0  0  0  0  0  0  0  0  0  0
   12.7974   -2.5245    0.0000 H   0  0  0  0  0  0  0  0  0  0  0  0
   11.8307   -1.1396    0.0000 H   0  0  0  0  0  0  0  0  0  0  0  0
   11.0357   -1.1962    0.0000 H   0  0  0  0  0  0  0  0  0  0  0  0
   10.2746   -2.7038    0.0000 H   0  0  0  0  0  0  0  0  0  0  0  0
   11.0697   -2.6473    0.0000 H   0  0  0  0  0  0  0  0  0  0  0  0
   10.1030   -1.2624    0.0000 H   0  0  0  0  0  0  0  0  0  0  0  0
    9.3080   -1.3189    0.0000 H   0  0  0  0  0  0  0  0  0  0  0  0
    8.5469   -2.8266    0.0000 H   0  0  0  0  0  0  0  0  0  0  0  0
    9.3420   -2.7701    0.0000 H   0  0  0  0  0  0  0  0  0  0  0  0
    8.3753   -1.3852    0.0000 H   0  0  0  0  0  0  0  0  0  0  0  0
    7.5803   -1.4417    0.0000 H   0  0  0  0  0  0  0  0  0  0  0  0
    6.8192   -2.9493    0.0000 H   0  0  0  0  0  0  0  0  0  0  0  0
    7.6143   -2.8928    0.0000 H   0  0  0  0  0  0  0  0  0  0  0  0
    6.6476   -1.5080    0.0000 H   0  0  0  0  0  0  0  0  0  0  0  0
    5.8526   -1.5645    0.0000 H   0  0  0  0  0  0  0  0  0  0  0  0
    5.0915   -3.0721    0.0000 H   0  0  0  0  0  0  0  0  0  0  0  0
    5.8866   -3.0156    0.0000 H   0  0  0  0  0  0  0  0  0  0  0  0
    4.9200   -1.6308    0.0000 H   0  0  0  0  0  0  0  0  0  0  0  0
    4.1249   -1.6873    0.0000 H   0  0  0  0  0  0  0  0  0  0  0  0
    3.3638   -3.1949    0.0000 H   0  0  0  0  0  0  0  0  0  0  0  0
    4.1589   -3.1384    0.0000 H   0  0  0  0  0  0  0  0  0  0  0  0
    3.1923   -1.7535    0.0000 H   0  0  0  0  0  0  0  0  0  0  0  0
    2.3972   -1.8100    0.0000 H   0  0  0  0  0  0  0  0  0  0  0  0
    1.6527   -2.3021    0.0000 H   0  0  0  0  0  0  0  0  0  0  0  0
    1.4864   -3.1630    0.0000 H   0  0  0  0  0  0  0  0  0  0  0  0
    2.3473   -3.3293    0.0000 H   0  0  0  0  0  0  0  0  0  0  0  0
 11  1  1  1  0  0  0
  1 27  1  0  0  0  0
 14  2  1  6  0  0  0
  2 29  1  0  0  0  0
 15  3  1  1  0  0  0
  3 62  1  0  0  0  0
  4 17  1  0  0  0  0
  4 66  1  0  0  0  0
 21  5  1  6  0  0  0
  5 67  1  0  0  0  0
  6 26  2  0  0  0  0
  7 27  2  0  0  0  0
  8 30  1  0  0  0  0
  8 78  1  0  0  0  0
  9 29  2  0  0  0  0
 10 11  1  0  0  0  0
 10 12  1  0  0  0  0
 10 13  1  0  0  0  0
 10 48  1  1  0  0  0
 11 12  1  0  0  0  0
 11 14  1  0  0  0  0
 12 17  1  0  0  0  0
 12 18  1  6  0  0  0
 13 15  1  0  0  0  0
 13 20  1  0  0  0  0
 13 49  1  6  0  0  0
 14 16  1  0  0  0  0
 14 50  1  0  0  0  0
 15 16  1  0  0  0  0
 15 19  1  0  0  0  0
 16 22  1  1  0  0  0
 16 51  1  0  0  0  0
 17 52  1  0  0  0  0
 17 53  1  0  0  0  0
 18 54  1  0  0  0  0
 18 55  1  0  0  0  0
 18 56  1  0  0  0  0
 19 21  1  0  0  0  0
 19 25  1  0  0  0  0
 19 57  1  1  0  0  0
 20 23  2  0  0  0  0
 20 58  1  0  0  0  0
 21 24  1  0  0  0  0
 21 26  1  0  0  0  0
 22 59  1  0  0  0  0
 22 60  1  0  0  0  0
 22 61  1  0  0  0  0
 23 24  1  0  0  0  0
 23 30  1  0  0  0  0
 24 63  1  0  0  0  0
 24 64  1  0  0  0  0
 25 28  2  0  0  0  0
 25 65  1  0  0  0  0
 26 28  1  0  0  0  0
 27 31  1  0  0  0  0
 28 32  1  0  0  0  0
 29 33  1  0  0  0  0
 30 68  1  0  0  0  0
 30 69  1  0  0  0  0
 31 70  1  0  0  0  0
 31 71  1  0  0  0  0
 31 72  1  0  0  0  0
 32 73  1  0  0  0  0
 32 74  1  0  0  0  0
 32 75  1  0  0  0  0
 33 34  1  0  0  0  0
 33 76  1  0  0  0  0
 33 77  1  0  0  0  0
 34 35  1  0  0  0  0
 34 79  1  0  0  0  0
 34 80  1  0  0  0  0
 35 36  1  0  0  0  0
 35 81  1  0  0  0  0
 35 82  1  0  0  0  0
 36 37  1  0  0  0  0
 36 83  1  0  0  0  0
 36 84  1  0  0  0  0
 37 38  1  0  0  0  0
 37 85  1  0  0  0  0
 37 86  1  0  0  0  0
 38 39  1  0  0  0  0
 38 87  1  0  0  0  0
 38 88  1  0  0  0  0
 39 40  1  0  0  0  0
 39 89  1  0  0  0  0
 39 90  1  0  0  0  0
 40 41  1  0  0  0  0
 40 91  1  0  0  0  0
 40 92  1  0  0  0  0
 41 42  1  0  0  0  0
 41 93  1  0  0  0  0
 41 94  1  0  0  0  0
 42 43  1  0  0  0  0
 42 95  1  0  0  0  0
 42 96  1  0  0  0  0
 43 44  1  0  0  0  0
 43 97  1  0  0  0  0
 43 98  1  0  0  0  0
 44 45  1  0  0  0  0
 44 99  1  0  0  0  0
 44100  1  0  0  0  0
 45 46  1  0  0  0  0
 45101  1  0  0  0  0
 45102  1  0  0  0  0
 46 47  1  0  0  0  0
 46103  1  0  0  0  0
 46104  1  0  0  0  0
 47105  1  0  0  0  0
 47106  1  0  0  0  0
 47107  1  0  0  0  0
M  END
> <PUBCHEM_COMPOUND_CID>
334044

> <PUBCHEM_COMPOUND_CANONICALIZED>
1

> <PUBCHEM_CACTVS_COMPLEXITY>
1210

> <PUBCHEM_CACTVS_HBOND_ACCEPTOR>
9

> <PUBCHEM_CACTVS_HBOND_DONOR>
4

> <PUBCHEM_CACTVS_ROTATABLE_BOND>
20

> <PUBCHEM_CACTVS_SUBSKEYS>
AAADcfB8PAAAAAAAAAAAAAAAGAAAAQAAAAAwAAAABggAAACAAAAAGgAACAAAD1SggAICCAAABgCIAqDSCAIAAAAgAAAACAFAAEgBFBIAAQACUAAFwAAKEYPK7PyPgAAAAAAAAADCAAYQADCAAAAAAAAAAA==

> <PUBCHEM_IUPAC_INCHI>
InChI=1S/C38H60O9/c1-6-7-8-9-10-11-12-13-14-15-16-17-18-19-31(42)46-34-26(3)37(45)29(32-35(5,24-40)38(32,34)47-27(4)41)21-28(23-39)22-36(44)30(37)20-25(2)33(36)43/h20-21,26,29-30,32,34,39-40,44-45H,6-19,22-24H2,1-5H3/t26-,29+,30-,32-,34-,35-,36-,37-,38-/m1/s1

> <PUBCHEM_IUPAC_INCHIKEY>
DYHBGVHTKOPQDM-SGPTVBMASA-N

> <PUBCHEM_XLOGP3_AA>
6.4

> <PUBCHEM_EXACT_MASS>
660.423734

> <PUBCHEM_MOLECULAR_FORMULA>
C38H60O9

> <PUBCHEM_MOLECULAR_WEIGHT>
660.8776

> <PUBCHEM_OPENEYE_CAN_SMILES>
CCCCCCCCCCCCCCCC(=O)OC1C(C2(C(C=C(CC3(C2C=C(C3=O)C)O)CO)C4C1(C4(C)CO)OC(=O)C)O)C

> <PUBCHEM_OPENEYE_ISO_SMILES>
CCCCCCCCCCCCCCCC(=O)O[C@@H]1[C@H]([C@]2([C@@H](C=C(C[C@]3([C@H]2C=C(C3=O)C)O)CO)[C@H]4[C@@]1([C@]4(C)CO)OC(=O)C)O)C

> <PUBCHEM_CACTVS_TPSA>
151

> <PUBCHEM_MONOISOTOPIC_WEIGHT>
660.423734

> <PUBCHEM_TOTAL_CHARGE>
0

> <PUBCHEM_HEAVY_ATOM_COUNT>
47

> <PUBCHEM_ATOM_DEF_STEREO_COUNT>
9

> <PUBCHEM_ATOM_UDEF_STEREO_COUNT>
0

> <PUBCHEM_BOND_DEF_STEREO_COUNT>
0

> <PUBCHEM_BOND_UDEF_STEREO_COUNT>
0

> <PUBCHEM_ISOTOPIC_ATOM_COUNT>
0

> <PUBCHEM_COMPONENT_COUNT>
1

> <PUBCHEM_CACTVS_TAUTO_COUNT>
3

> <PUBCHEM_COORDINATE_TYPE>
1
5
255

> <PUBCHEM_BONDANNOTATIONS>
11  1  5
10  48  5
12  18  6
13  49  6
16  22  5
19  57  5
14  2  6
15  3  5
21  5  6

$$$$

