18651
  -OEChem-07051213062D

 53 56  0     1  0  0  0  0  0999 V2000
    8.2814    1.8120    0.0000 O   0  0  0  0  0  0  0  0  0  0  0  0
    6.5251   -0.0791    0.0000 C   0  0  2  0  0  0  0  0  0  0  0  0
    6.5251    0.9209    0.0000 C   0  0  1  0  0  0  0  0  0  0  0  0
    5.6591   -0.5791    0.0000 C   0  0  1  0  0  0  0  0  0  0  0  0
    4.7931   -0.0791    0.0000 C   0  0  1  0  0  0  0  0  0  0  0  0
    3.8831   -0.5859    0.0000 C   0  0  2  0  0  0  0  0  0  0  0  0
    7.4714    1.2257    0.0000 C   0  0  2  0  0  0  0  0  0  0  0  0
    5.6591    1.4209    0.0000 C   0  0  0  0  0  0  0  0  0  0  0  0
    4.7931    0.9209    0.0000 C   0  0  0  0  0  0  0  0  0  0  0  0
    7.4714   -0.3838    0.0000 C   0  0  0  0  0  0  0  0  0  0  0  0
    3.8751   -1.6275    0.0000 C   0  0  1  0  0  0  0  0  0  0  0  0
    5.6752   -1.6206    0.0000 C   0  0  0  0  0  0  0  0  0  0  0  0
    8.0550    0.4209    0.0000 C   0  0  0  0  0  0  0  0  0  0  0  0
    4.7771   -2.1483    0.0000 C   0  0  0  0  0  0  0  0  0  0  0  0
    6.5251    1.9209    0.0000 C   0  0  0  0  0  0  0  0  0  0  0  0
    2.9562   -0.0218    0.0000 C   0  0  0  0  0  0  0  0  0  0  0  0
    3.8908    0.4140    0.0000 C   0  0  0  0  0  0  0  0  0  0  0  0
    2.9396   -2.1772    0.0000 C   0  0  0  0  0  0  0  0  0  0  0  0
    7.1640    2.1772    0.0000 C   0  0  0  0  0  0  0  0  0  0  0  0
    2.0084   -0.5498    0.0000 C   0  0  0  0  0  0  0  0  0  0  0  0
    2.0000   -1.6348    0.0000 C   0  0  0  0  0  0  0  0  0  0  0  0
    6.6151   -0.9243    0.0000 H   0  0  0  0  0  0  0  0  0  0  0  0
    6.3985   -0.9984    0.0000 H   0  0  0  0  0  0  0  0  0  0  0  0
    5.5292    0.3459    0.0000 H   0  0  0  0  0  0  0  0  0  0  0  0
    6.0576    1.8959    0.0000 H   0  0  0  0  0  0  0  0  0  0  0  0
    5.2606    1.8959    0.0000 H   0  0  0  0  0  0  0  0  0  0  0  0
    4.5810    1.5035    0.0000 H   0  0  0  0  0  0  0  0  0  0  0  0
    4.1825    0.8133    0.0000 H   0  0  0  0  0  0  0  0  0  0  0  0
    7.2203   -0.9507    0.0000 H   0  0  0  0  0  0  0  0  0  0  0  0
    8.0087   -0.6930    0.0000 H   0  0  0  0  0  0  0  0  0  0  0  0
    3.8783   -2.4775    0.0000 H   0  0  0  0  0  0  0  0  0  0  0  0
    5.8932   -2.2010    0.0000 H   0  0  0  0  0  0  0  0  0  0  0  0
    6.2843   -1.5051    0.0000 H   0  0  0  0  0  0  0  0  0  0  0  0
    8.5158    0.0062    0.0000 H   0  0  0  0  0  0  0  0  0  0  0  0
    8.5158    0.8357    0.0000 H   0  0  0  0  0  0  0  0  0  0  0  0
    4.3798   -2.6243    0.0000 H   0  0  0  0  0  0  0  0  0  0  0  0
    5.1781   -2.6212    0.0000 H   0  0  0  0  0  0  0  0  0  0  0  0
    7.1451    1.9209    0.0000 H   0  0  0  0  0  0  0  0  0  0  0  0
    6.5251    2.5409    0.0000 H   0  0  0  0  0  0  0  0  0  0  0  0
    5.9051    1.9209    0.0000 H   0  0  0  0  0  0  0  0  0  0  0  0
    3.3645    0.4448    0.0000 H   0  0  0  0  0  0  0  0  0  0  0  0
    2.5663    0.4602    0.0000 H   0  0  0  0  0  0  0  0  0  0  0  0
    4.5108    0.4093    0.0000 H   0  0  0  0  0  0  0  0  0  0  0  0
    3.8956    1.0340    0.0000 H   0  0  0  0  0  0  0  0  0  0  0  0
    3.2708    0.4188    0.0000 H   0  0  0  0  0  0  0  0  0  0  0  0
    2.5423   -2.6532    0.0000 H   0  0  0  0  0  0  0  0  0  0  0  0
    3.3406   -2.6501    0.0000 H   0  0  0  0  0  0  0  0  0  0  0  0
    7.7540    2.3678    0.0000 H   0  0  0  0  0  0  0  0  0  0  0  0
    6.9734    2.7672    0.0000 H   0  0  0  0  0  0  0  0  0  0  0  0
    6.5740    1.9867    0.0000 H   0  0  0  0  0  0  0  0  0  0  0  0
    8.8474    1.5589    0.0000 H   0  0  0  0  0  0  0  0  0  0  0  0
    1.4750   -0.2336    0.0000 H   0  0  0  0  0  0  0  0  0  0  0  0
    1.4619   -1.9427    0.0000 H   0  0  0  0  0  0  0  0  0  0  0  0
  7  1  1  1  0  0  0
  1 51  1  0  0  0  0
  2  3  1  0  0  0  0
  2  4  1  0  0  0  0
  2 10  1  0  0  0  0
  2 22  1  6  0  0  0
  3  7  1  0  0  0  0
  3  8  1  0  0  0  0
  3 15  1  1  0  0  0
  4  5  1  0  0  0  0
  4 12  1  0  0  0  0
  4 23  1  1  0  0  0
  5  6  1  0  0  0  0
  5  9  1  0  0  0  0
  5 24  1  6  0  0  0
  6 11  1  0  0  0  0
  6 16  1  0  0  0  0
  6 17  1  1  0  0  0
  7 13  1  0  0  0  0
  7 19  1  0  0  0  0
  8  9  1  0  0  0  0
  8 25  1  0  0  0  0
  8 26  1  0  0  0  0
  9 27  1  0  0  0  0
  9 28  1  0  0  0  0
 10 13  1  0  0  0  0
 10 29  1  0  0  0  0
 10 30  1  0  0  0  0
 11 14  1  0  0  0  0
 11 18  1  0  0  0  0
 11 31  1  6  0  0  0
 12 14  1  0  0  0  0
 12 32  1  0  0  0  0
 12 33  1  0  0  0  0
 13 34  1  0  0  0  0
 13 35  1  0  0  0  0
 14 36  1  0  0  0  0
 14 37  1  0  0  0  0
 15 38  1  0  0  0  0
 15 39  1  0  0  0  0
 15 40  1  0  0  0  0
 16 20  1  0  0  0  0
 16 41  1  0  0  0  0
 16 42  1  0  0  0  0
 17 43  1  0  0  0  0
 17 44  1  0  0  0  0
 17 45  1  0  0  0  0
 18 21  1  0  0  0  0
 18 46  1  0  0  0  0
 18 47  1  0  0  0  0
 19 48  1  0  0  0  0
 19 49  1  0  0  0  0
 19 50  1  0  0  0  0
 20 21  2  0  0  0  0
 20 52  1  0  0  0  0
 21 53  1  0  0  0  0
M  END
> <PUBCHEM_COMPOUND_CID>
18651

> <PUBCHEM_COMPOUND_CANONICALIZED>
1

> <PUBCHEM_CACTVS_COMPLEXITY>
469

> <PUBCHEM_CACTVS_HBOND_ACCEPTOR>
1

> <PUBCHEM_CACTVS_HBOND_DONOR>
1

> <PUBCHEM_CACTVS_ROTATABLE_BOND>
0

> <PUBCHEM_CACTVS_SUBSKEYS>
AAADcfB4IAAAAAAAAAAAAAAAAAAAAYAAAAAwYIAAAAAAAGDAAAAAGgAACAAAD0SAgAACAAAAAgCAACBCAAAAAAAgAAAICAAAAAgAAAIAAQAAQAAEgAAIAAOAwPAPgAAAAAAAAACAAAQAACAAAYAADAAAAA==

> <PUBCHEM_IUPAC_OPENEYE_NAME>
(5S,8R,9S,10S,13S,14S,17S)-10,13,17-trimethyl-1,4,5,6,7,8,9,11,12,14,15,16-dodecahydrocyclopenta[a]phenanthren-17-ol

> <PUBCHEM_IUPAC_CAS_NAME>
(5S,8R,9S,10S,13S,14S,17S)-10,13,17-trimethyl-1,4,5,6,7,8,9,11,12,14,15,16-dodecahydrocyclopenta[a]phenanthren-17-ol

> <PUBCHEM_IUPAC_NAME>
(5S,8R,9S,10S,13S,14S,17S)-10,13,17-trimethyl-1,4,5,6,7,8,9,11,12,14,15,16-dodecahydrocyclopenta[a]phenanthren-17-ol

> <PUBCHEM_IUPAC_SYSTEMATIC_NAME>
(5S,8R,9S,10S,13S,14S,17S)-10,13,17-trimethyl-1,4,5,6,7,8,9,11,12,14,15,16-dodecahydrocyclopenta[a]phenanthren-17-ol

> <PUBCHEM_IUPAC_TRADITIONAL_NAME>
(5S,8R,9S,10S,13S,14S,17S)-10,13,17-trimethyl-1,4,5,6,7,8,9,11,12,14,15,16-dodecahydrocyclopenta[a]phenanthren-17-ol

> <PUBCHEM_IUPAC_INCHI>
InChI=1S/C20H32O/c1-18-11-5-4-6-14(18)7-8-15-16(18)9-12-19(2)17(15)10-13-20(19,3)21/h4-5,14-17,21H,6-13H2,1-3H3/t14-,15-,16+,17+,18+,19+,20+/m1/s1

> <PUBCHEM_IUPAC_INCHIKEY>
FRVHJVATKMIOPQ-PAPWGAKMSA-N

> <PUBCHEM_XLOGP3_AA>
5.3

> <PUBCHEM_EXACT_MASS>
288.245316

> <PUBCHEM_MOLECULAR_FORMULA>
C20H32O

> <PUBCHEM_MOLECULAR_WEIGHT>
288.46748

> <PUBCHEM_OPENEYE_CAN_SMILES>
CC12CCC3C(C1CCC2(C)O)CCC4C3(CC=CC4)C

> <PUBCHEM_OPENEYE_ISO_SMILES>
C[C@]12CC[C@H]3[C@H]([C@@H]1CC[C@]2(C)O)CC[C@@H]4[C@@]3(CC=CC4)C

> <PUBCHEM_CACTVS_TPSA>
20.2

> <PUBCHEM_MONOISOTOPIC_WEIGHT>
288.245316

> <PUBCHEM_TOTAL_CHARGE>
0

> <PUBCHEM_HEAVY_ATOM_COUNT>
21

> <PUBCHEM_ATOM_DEF_STEREO_COUNT>
7

> <PUBCHEM_ATOM_UDEF_STEREO_COUNT>
0

> <PUBCHEM_BOND_DEF_STEREO_COUNT>
0

> <PUBCHEM_BOND_UDEF_STEREO_COUNT>
0

> <PUBCHEM_ISOTOPIC_ATOM_COUNT>
0

> <PUBCHEM_COMPONENT_COUNT>
1

> <PUBCHEM_CACTVS_TAUTO_COUNT>
1

> <PUBCHEM_COORDINATE_TYPE>
1
5
255

> <PUBCHEM_BONDANNOTATIONS>
7  1  5
11  31  6
2  22  6
3  15  5
4  23  5
5  24  6
6  17  5

$$$$

