5281778
  -OEChem-07051212592D

 82 85  0     1  0  0  0  0  0999 V2000
   10.3312    2.7500    0.0000 O   0  0  0  0  0  0  0  0  0  0  0  0
   10.3312   -0.2500    0.0000 O   0  0  0  0  0  0  0  0  0  0  0  0
   12.0632    2.7500    0.0000 O   0  0  0  0  0  0  0  0  0  0  0  0
    8.5991    1.7500    0.0000 O   0  0  0  0  0  0  0  0  0  0  0  0
   12.0632   -0.2500    0.0000 O   0  0  0  0  0  0  0  0  0  0  0  0
   12.0632    1.7500    0.0000 O   0  0  0  0  0  0  0  0  0  0  0  0
   10.3312    4.7500    0.0000 O   0  0  0  0  0  0  0  0  0  0  0  0
   12.0632    5.7500    0.0000 O   0  0  0  0  0  0  0  0  0  0  0  0
   13.7953    4.7500    0.0000 O   0  0  0  0  0  0  0  0  0  0  0  0
    8.5991   -1.2500    0.0000 O   0  0  0  0  0  0  0  0  0  0  0  0
   14.6613    3.2500    0.0000 O   0  0  0  0  0  0  0  0  0  0  0  0
   13.7953   -1.2500    0.0000 O   0  0  0  0  0  0  0  0  0  0  0  0
    7.7331    0.2500    0.0000 O   0  0  0  0  0  0  0  0  0  0  0  0
   11.1972   -4.7500    0.0000 O   0  0  0  0  0  0  0  0  0  0  0  0
   12.9292   -5.7500    0.0000 O   0  0  0  0  0  0  0  0  0  0  0  0
    4.2690    4.2500    0.0000 O   0  0  0  0  0  0  0  0  0  0  0  0
    2.5369    3.2500    0.0000 O   0  0  0  0  0  0  0  0  0  0  0  0
   10.3312    1.7500    0.0000 C   0  0  1  0  0  0  0  0  0  0  0  0
    9.4651    1.2500    0.0000 C   0  0  1  0  0  0  0  0  0  0  0  0
   11.1972    1.2500    0.0000 C   0  0  2  0  0  0  0  0  0  0  0  0
    9.4651    0.2500    0.0000 C   0  0  1  0  0  0  0  0  0  0  0  0
   11.1972    3.2500    0.0000 C   0  0  2  0  0  0  0  0  0  0  0  0
   11.1972    4.2500    0.0000 C   0  0  1  0  0  0  0  0  0  0  0  0
   11.1972    0.2500    0.0000 C   0  0  1  0  0  0  0  0  0  0  0  0
   12.0632    4.7500    0.0000 C   0  0  2  0  0  0  0  0  0  0  0  0
   12.9292    4.2500    0.0000 C   0  0  1  0  0  0  0  0  0  0  0  0
   12.9292    3.2500    0.0000 C   0  0  1  0  0  0  0  0  0  0  0  0
    8.5991   -0.2500    0.0000 C   0  0  0  0  0  0  0  0  0  0  0  0
   13.7953    2.7500    0.0000 C   0  0  0  0  0  0  0  0  0  0  0  0
   12.0632   -1.2500    0.0000 C   0  0  0  0  0  0  0  0  0  0  0  0
    7.7331    1.2500    0.0000 C   0  0  0  0  0  0  0  0  0  0  0  0
   12.9292   -1.7500    0.0000 C   0  0  2  0  0  0  0  0  0  0  0  0
   12.9292   -2.7500    0.0000 C   0  0  0  0  0  0  0  0  0  0  0  0
    6.8671    1.7500    0.0000 C   0  0  0  0  0  0  0  0  0  0  0  0
   12.0632   -3.2500    0.0000 C   0  0  0  0  0  0  0  0  0  0  0  0
   13.7953   -3.2500    0.0000 C   0  0  0  0  0  0  0  0  0  0  0  0
    6.0010    1.2500    0.0000 C   0  0  0  0  0  0  0  0  0  0  0  0
   12.0632   -4.2500    0.0000 C   0  0  0  0  0  0  0  0  0  0  0  0
   13.7953   -4.2500    0.0000 C   0  0  0  0  0  0  0  0  0  0  0  0
    5.1350    1.7500    0.0000 C   0  0  0  0  0  0  0  0  0  0  0  0
   12.9292   -4.7500    0.0000 C   0  0  0  0  0  0  0  0  0  0  0  0
    5.1350    2.7500    0.0000 C   0  0  0  0  0  0  0  0  0  0  0  0
    4.2690    1.2500    0.0000 C   0  0  0  0  0  0  0  0  0  0  0  0
    4.2690    3.2500    0.0000 C   0  0  0  0  0  0  0  0  0  0  0  0
    3.4030    1.7500    0.0000 C   0  0  0  0  0  0  0  0  0  0  0  0
    3.4030    2.7500    0.0000 C   0  0  0  0  0  0  0  0  0  0  0  0
   10.8681    2.0600    0.0000 H   0  0  0  0  0  0  0  0  0  0  0  0
    9.4651    1.8700    0.0000 H   0  0  0  0  0  0  0  0  0  0  0  0
   11.1972    1.8700    0.0000 H   0  0  0  0  0  0  0  0  0  0  0  0
    9.4651   -0.3700    0.0000 H   0  0  0  0  0  0  0  0  0  0  0  0
   10.6603    3.5600    0.0000 H   0  0  0  0  0  0  0  0  0  0  0  0
   10.6603    3.9400    0.0000 H   0  0  0  0  0  0  0  0  0  0  0  0
   11.1972   -0.3700    0.0000 H   0  0  0  0  0  0  0  0  0  0  0  0
   12.6002    5.0600    0.0000 H   0  0  0  0  0  0  0  0  0  0  0  0
   12.9292    4.8700    0.0000 H   0  0  0  0  0  0  0  0  0  0  0  0
   12.9292    2.6300    0.0000 H   0  0  0  0  0  0  0  0  0  0  0  0
    8.3871    0.3326    0.0000 H   0  0  0  0  0  0  0  0  0  0  0  0
    7.9885   -0.3577    0.0000 H   0  0  0  0  0  0  0  0  0  0  0  0
   13.3967    2.2750    0.0000 H   0  0  0  0  0  0  0  0  0  0  0  0
   14.1938    2.2750    0.0000 H   0  0  0  0  0  0  0  0  0  0  0  0
   12.6002    1.4400    0.0000 H   0  0  0  0  0  0  0  0  0  0  0  0
   10.3312    5.3700    0.0000 H   0  0  0  0  0  0  0  0  0  0  0  0
   12.6002    6.0600    0.0000 H   0  0  0  0  0  0  0  0  0  0  0  0
   13.7953    5.3700    0.0000 H   0  0  0  0  0  0  0  0  0  0  0  0
   11.4526   -1.1423    0.0000 H   0  0  0  0  0  0  0  0  0  0  0  0
   11.8512   -1.8326    0.0000 H   0  0  0  0  0  0  0  0  0  0  0  0
    8.0622   -1.5600    0.0000 H   0  0  0  0  0  0  0  0  0  0  0  0
   12.9292   -1.1300    0.0000 H   0  0  0  0  0  0  0  0  0  0  0  0
   15.1982    2.9400    0.0000 H   0  0  0  0  0  0  0  0  0  0  0  0
    6.8671    2.3700    0.0000 H   0  0  0  0  0  0  0  0  0  0  0  0
   14.3322   -1.5600    0.0000 H   0  0  0  0  0  0  0  0  0  0  0  0
   11.5263   -2.9400    0.0000 H   0  0  0  0  0  0  0  0  0  0  0  0
   14.3322   -2.9400    0.0000 H   0  0  0  0  0  0  0  0  0  0  0  0
    6.0010    0.6300    0.0000 H   0  0  0  0  0  0  0  0  0  0  0  0
   14.3322   -4.5600    0.0000 H   0  0  0  0  0  0  0  0  0  0  0  0
    5.6720    3.0600    0.0000 H   0  0  0  0  0  0  0  0  0  0  0  0
    4.2690    0.6300    0.0000 H   0  0  0  0  0  0  0  0  0  0  0  0
   11.1972   -5.3700    0.0000 H   0  0  0  0  0  0  0  0  0  0  0  0
   13.4662   -6.0600    0.0000 H   0  0  0  0  0  0  0  0  0  0  0  0
    2.8660    1.4400    0.0000 H   0  0  0  0  0  0  0  0  0  0  0  0
    3.7320    4.5600    0.0000 H   0  0  0  0  0  0  0  0  0  0  0  0
    2.0000    2.9400    0.0000 H   0  0  0  0  0  0  0  0  0  0  0  0
 18  1  1  6  0  0  0
 22  1  1  1  0  0  0
  2 21  1  0  0  0  0
  2 24  1  0  0  0  0
  3 22  1  0  0  0  0
  3 27  1  0  0  0  0
 19  4  1  1  0  0  0
  4 31  1  0  0  0  0
 24  5  1  6  0  0  0
  5 30  1  0  0  0  0
 20  6  1  1  0  0  0
  6 61  1  0  0  0  0
 23  7  1  6  0  0  0
  7 62  1  0  0  0  0
 25  8  1  1  0  0  0
  8 63  1  0  0  0  0
 26  9  1  6  0  0  0
  9 64  1  0  0  0  0
 10 28  1  0  0  0  0
 10 67  1  0  0  0  0
 11 29  1  0  0  0  0
 11 69  1  0  0  0  0
 32 12  1  1  0  0  0
 12 71  1  0  0  0  0
 13 31  2  0  0  0  0
 14 38  1  0  0  0  0
 14 78  1  0  0  0  0
 15 41  1  0  0  0  0
 15 79  1  0  0  0  0
 16 44  1  0  0  0  0
 16 81  1  0  0  0  0
 17 46  1  0  0  0  0
 17 82  1  0  0  0  0
 18 19  1  0  0  0  0
 18 20  1  0  0  0  0
 18 47  1  0  0  0  0
 19 21  1  0  0  0  0
 19 48  1  0  0  0  0
 20 24  1  0  0  0  0
 20 49  1  0  0  0  0
 21 28  1  6  0  0  0
 21 50  1  0  0  0  0
 22 23  1  0  0  0  0
 22 51  1  0  0  0  0
 23 25  1  0  0  0  0
 23 52  1  0  0  0  0
 24 53  1  0  0  0  0
 25 26  1  0  0  0  0
 25 54  1  0  0  0  0
 26 27  1  0  0  0  0
 26 55  1  0  0  0  0
 27 29  1  1  0  0  0
 27 56  1  0  0  0  0
 28 57  1  0  0  0  0
 28 58  1  0  0  0  0
 29 59  1  0  0  0  0
 29 60  1  0  0  0  0
 30 32  1  0  0  0  0
 30 65  1  0  0  0  0
 30 66  1  0  0  0  0
 31 34  1  0  0  0  0
 32 33  1  0  0  0  0
 32 68  1  0  0  0  0
 33 35  2  0  0  0  0
 33 36  1  0  0  0  0
 34 37  2  0  0  0  0
 34 70  1  0  0  0  0
 35 38  1  0  0  0  0
 35 72  1  0  0  0  0
 36 39  2  0  0  0  0
 36 73  1  0  0  0  0
 37 40  1  0  0  0  0
 37 74  1  0  0  0  0
 38 41  2  0  0  0  0
 39 41  1  0  0  0  0
 39 75  1  0  0  0  0
 40 42  2  0  0  0  0
 40 43  1  0  0  0  0
 42 44  1  0  0  0  0
 42 76  1  0  0  0  0
 43 45  2  0  0  0  0
 43 77  1  0  0  0  0
 44 46  2  0  0  0  0
 45 46  1  0  0  0  0
 45 80  1  0  0  0  0
M  END
> <PUBCHEM_COMPOUND_CID>
5281778

> <PUBCHEM_COMPOUND_CANONICALIZED>
1

> <PUBCHEM_CACTVS_COMPLEXITY>
985

> <PUBCHEM_CACTVS_HBOND_ACCEPTOR>
17

> <PUBCHEM_CACTVS_HBOND_DONOR>
11

> <PUBCHEM_CACTVS_ROTATABLE_BOND>
12

> <PUBCHEM_CACTVS_SUBSKEYS>
AAADcfB4PgAAAAAAAAAAAAAAAAAAAAAAAAA0aIEAAAAAAAABQAAAGgAACAAADBSwmAMwDoAABgCIAiDSCAACAAAgIAAIiAAGiMgZNiKCMRKicAElwBEPuYfA4LwOIAABAAAAQABAAAIAAACAAAAAAAAAAA==

> <PUBCHEM_IUPAC_OPENEYE_NAME>
[(2R,3R,4R,5R,6R)-6-[(2S)-2-(3,4-dihydroxyphenyl)-2-hydroxy-ethoxy]-5-hydroxy-2-(hydroxymethyl)-4-[(2S,3R,4S,5S,6R)-3,4,5-trihydroxy-6-(hydroxymethyl)tetrahydropyran-2-yl]oxy-tetrahydropyran-3-yl] (E)-3-(3,4-dihydroxyphenyl)prop-2-enoate

> <PUBCHEM_IUPAC_CAS_NAME>
(E)-3-(3,4-dihydroxyphenyl)-2-propenoic acid [(2R,3R,4R,5R,6R)-6-[(2S)-2-(3,4-dihydroxyphenyl)-2-hydroxyethoxy]-5-hydroxy-2-(hydroxymethyl)-4-[[(2S,3R,4S,5S,6R)-3,4,5-trihydroxy-6-(hydroxymethyl)-2-oxanyl]oxy]-3-oxanyl] ester

> <PUBCHEM_IUPAC_NAME>
[(2R,3R,4R,5R,6R)-6-[(2S)-2-(3,4-dihydroxyphenyl)-2-hydroxyethoxy]-5-hydroxy-2-(hydroxymethyl)-4-[(2S,3R,4S,5S,6R)-3,4,5-trihydroxy-6-(hydroxymethyl)oxan-2-yl]oxyoxan-3-yl] (E)-3-(3,4-dihydroxyphenyl)prop-2-enoate

> <PUBCHEM_IUPAC_SYSTEMATIC_NAME>
[(2R,3R,4R,5R,6R)-6-[(2S)-2-[3,4-bis(oxidanyl)phenyl]-2-oxidanyl-ethoxy]-2-(hydroxymethyl)-4-[(2S,3R,4S,5S,6R)-6-(hydroxymethyl)-3,4,5-tris(oxidanyl)oxan-2-yl]oxy-5-oxidanyl-oxan-3-yl] (E)-3-[3,4-bis(oxidanyl)phenyl]prop-2-enoate

> <PUBCHEM_IUPAC_TRADITIONAL_NAME>
(E)-3-(3,4-dihydroxyphenyl)acrylic acid [(2R,3R,4R,5R,6R)-6-[(2S)-2-(3,4-dihydroxyphenyl)-2-hydroxy-ethoxy]-5-hydroxy-2-methylol-4-[(2S,3R,4S,5S,6R)-3,4,5-trihydroxy-6-methylol-tetrahydropyran-2-yl]oxy-tetrahydropyran-3-yl] ester

> <PUBCHEM_IUPAC_INCHI>
InChI=1S/C29H36O17/c30-9-19-22(38)23(39)24(40)29(43-19)46-27-25(41)28(42-11-18(36)13-3-5-15(33)17(35)8-13)44-20(10-31)26(27)45-21(37)6-2-12-1-4-14(32)16(34)7-12/h1-8,18-20,22-36,38-41H,9-11H2/b6-2+/t18-,19-,20-,22-,23+,24-,25-,26-,27-,28-,29+/m1/s1

> <PUBCHEM_IUPAC_INCHIKEY>
IKASMYQBXBUEQS-AEAUTZEXSA-N

> <PUBCHEM_XLOGP3_AA>
-2.1

> <PUBCHEM_EXACT_MASS>
656.19525

> <PUBCHEM_MOLECULAR_FORMULA>
C29H36O17

> <PUBCHEM_MOLECULAR_WEIGHT>
656.58594

> <PUBCHEM_OPENEYE_CAN_SMILES>
C1=CC(=C(C=C1C=CC(=O)OC2C(OC(C(C2OC3C(C(C(C(O3)CO)O)O)O)O)OCC(C4=CC(=C(C=C4)O)O)O)CO)O)O

> <PUBCHEM_OPENEYE_ISO_SMILES>
C1=CC(=C(C=C1/C=C/C(=O)O[C@@H]2[C@H](O[C@H]([C@@H]([C@H]2O[C@H]3[C@@H]([C@H]([C@@H]([C@H](O3)CO)O)O)O)O)OC[C@H](C4=CC(=C(C=C4)O)O)O)CO)O)O

> <PUBCHEM_CACTVS_TPSA>
286

> <PUBCHEM_MONOISOTOPIC_WEIGHT>
656.19525

> <PUBCHEM_TOTAL_CHARGE>
0

> <PUBCHEM_HEAVY_ATOM_COUNT>
46

> <PUBCHEM_ATOM_DEF_STEREO_COUNT>
11

> <PUBCHEM_ATOM_UDEF_STEREO_COUNT>
0

> <PUBCHEM_BOND_DEF_STEREO_COUNT>
1

> <PUBCHEM_BOND_UDEF_STEREO_COUNT>
0

> <PUBCHEM_ISOTOPIC_ATOM_COUNT>
0

> <PUBCHEM_COMPONENT_COUNT>
1

> <PUBCHEM_CACTVS_TAUTO_COUNT>
160

> <PUBCHEM_COORDINATE_TYPE>
1
5
255

> <PUBCHEM_BONDANNOTATIONS>
18  1  6
22  1  5
32  12  5
21  28  6
27  29  5
33  35  8
33  36  8
35  38  8
36  39  8
38  41  8
39  41  8
19  4  5
40  42  8
40  43  8
42  44  8
43  45  8
44  46  8
45  46  8
24  5  6
20  6  5
23  7  6
25  8  5
26  9  6

$$$$

