178688
  -OEChem-07051213002D

 45 46  0     0  0  0  0  0  0999 V2000
    5.4641    2.7500    0.0000 O   0  0  0  0  0  0  0  0  0  0  0  0
    3.7320   -0.2500    0.0000 O   0  0  0  0  0  0  0  0  0  0  0  0
    7.5870   -1.0052    0.0000 O   0  0  0  0  0  0  0  0  0  0  0  0
   10.3600    1.6160    0.0000 O   0  0  0  0  0  0  0  0  0  0  0  0
    7.8600    0.7500    0.0000 N   0  0  0  0  0  0  0  0  0  0  0  0
    7.2764    1.5547    0.0000 C   0  0  0  0  0  0  0  0  0  0  0  0
    6.3301    1.2500    0.0000 C   0  0  0  0  0  0  0  0  0  0  0  0
    6.3301    0.2500    0.0000 C   0  0  0  0  0  0  0  0  0  0  0  0
    7.2764   -0.0547    0.0000 C   0  0  0  0  0  0  0  0  0  0  0  0
    5.4641    1.7500    0.0000 C   0  0  0  0  0  0  0  0  0  0  0  0
    8.8600    0.7500    0.0000 C   0  0  0  0  0  0  0  0  0  0  0  0
    4.5981    1.2500    0.0000 C   0  0  0  0  0  0  0  0  0  0  0  0
    5.4641   -0.2500    0.0000 C   0  0  0  0  0  0  0  0  0  0  0  0
    4.5981    0.2500    0.0000 C   0  0  0  0  0  0  0  0  0  0  0  0
    9.3600    1.6160    0.0000 C   0  0  0  0  0  0  0  0  0  0  0  0
    3.7320    1.7500    0.0000 C   0  0  0  0  0  0  0  0  0  0  0  0
    3.7320   -1.2500    0.0000 C   0  0  0  0  0  0  0  0  0  0  0  0
    4.5981    3.2500    0.0000 C   0  0  0  0  0  0  0  0  0  0  0  0
    2.8660   -1.7500    0.0000 C   0  0  0  0  0  0  0  0  0  0  0  0
    2.8660   -2.7500    0.0000 C   0  0  0  0  0  0  0  0  0  0  0  0
    2.0000   -3.2500    0.0000 C   0  0  0  0  0  0  0  0  0  0  0  0
    3.7320   -3.2500    0.0000 C   0  0  0  0  0  0  0  0  0  0  0  0
    7.8137    1.8640    0.0000 H   0  0  0  0  0  0  0  0  0  0  0  0
    7.0253    2.1216    0.0000 H   0  0  0  0  0  0  0  0  0  0  0  0
    8.7523    0.1394    0.0000 H   0  0  0  0  0  0  0  0  0  0  0  0
    9.4426    0.5379    0.0000 H   0  0  0  0  0  0  0  0  0  0  0  0
    5.4641   -0.8700    0.0000 H   0  0  0  0  0  0  0  0  0  0  0  0
    9.4676    2.2266    0.0000 H   0  0  0  0  0  0  0  0  0  0  0  0
    8.7774    1.8281    0.0000 H   0  0  0  0  0  0  0  0  0  0  0  0
    4.0420    2.2869    0.0000 H   0  0  0  0  0  0  0  0  0  0  0  0
    3.1951    2.0600    0.0000 H   0  0  0  0  0  0  0  0  0  0  0  0
    3.4220    1.2131    0.0000 H   0  0  0  0  0  0  0  0  0  0  0  0
    3.9441   -1.8326    0.0000 H   0  0  0  0  0  0  0  0  0  0  0  0
    4.3426   -1.1423    0.0000 H   0  0  0  0  0  0  0  0  0  0  0  0
    4.9081    3.7869    0.0000 H   0  0  0  0  0  0  0  0  0  0  0  0
    4.0611    3.5600    0.0000 H   0  0  0  0  0  0  0  0  0  0  0  0
    4.2881    2.7131    0.0000 H   0  0  0  0  0  0  0  0  0  0  0  0
   10.6700    2.1530    0.0000 H   0  0  0  0  0  0  0  0  0  0  0  0
    2.3291   -1.4400    0.0000 H   0  0  0  0  0  0  0  0  0  0  0  0
    1.6900   -2.7131    0.0000 H   0  0  0  0  0  0  0  0  0  0  0  0
    1.4631   -3.5600    0.0000 H   0  0  0  0  0  0  0  0  0  0  0  0
    2.3100   -3.7869    0.0000 H   0  0  0  0  0  0  0  0  0  0  0  0
    3.4220   -3.7869    0.0000 H   0  0  0  0  0  0  0  0  0  0  0  0
    4.2690   -3.5600    0.0000 H   0  0  0  0  0  0  0  0  0  0  0  0
    4.0420   -2.7131    0.0000 H   0  0  0  0  0  0  0  0  0  0  0  0
  1 10  1  0  0  0  0
  1 18  1  0  0  0  0
  2 14  1  0  0  0  0
  2 17  1  0  0  0  0
  3  9  2  0  0  0  0
  4 15  1  0  0  0  0
  4 38  1  0  0  0  0
  5  6  1  0  0  0  0
  5  9  1  0  0  0  0
  5 11  1  0  0  0  0
  6  7  1  0  0  0  0
  6 23  1  0  0  0  0
  6 24  1  0  0  0  0
  7  8  1  0  0  0  0
  7 10  2  0  0  0  0
  8  9  1  0  0  0  0
  8 13  2  0  0  0  0
 10 12  1  0  0  0  0
 11 15  1  0  0  0  0
 11 25  1  0  0  0  0
 11 26  1  0  0  0  0
 12 14  2  0  0  0  0
 12 16  1  0  0  0  0
 13 14  1  0  0  0  0
 13 27  1  0  0  0  0
 15 28  1  0  0  0  0
 15 29  1  0  0  0  0
 16 30  1  0  0  0  0
 16 31  1  0  0  0  0
 16 32  1  0  0  0  0
 17 19  1  0  0  0  0
 17 33  1  0  0  0  0
 17 34  1  0  0  0  0
 18 35  1  0  0  0  0
 18 36  1  0  0  0  0
 18 37  1  0  0  0  0
 19 20  2  0  0  0  0
 19 39  1  0  0  0  0
 20 21  1  0  0  0  0
 20 22  1  0  0  0  0
 21 40  1  0  0  0  0
 21 41  1  0  0  0  0
 21 42  1  0  0  0  0
 22 43  1  0  0  0  0
 22 44  1  0  0  0  0
 22 45  1  0  0  0  0
M  END
> <PUBCHEM_COMPOUND_CID>
178688

> <PUBCHEM_COMPOUND_CANONICALIZED>
1

> <PUBCHEM_CACTVS_COMPLEXITY>
419

> <PUBCHEM_CACTVS_HBOND_ACCEPTOR>
4

> <PUBCHEM_CACTVS_HBOND_DONOR>
1

> <PUBCHEM_CACTVS_ROTATABLE_BOND>
6

> <PUBCHEM_CACTVS_SUBSKEYS>
AAADceB6OAAAAAAAAAAAAAAAAAAAAWAAAAAwAAAAAAAAAFgBAAAAHgAACAAADAThmAYyBoMABgCIAiFSEACCCAAkIAAAiAEODMgONzKEtRuGOSjnxhWYqYe++P6O4AADCAAYAADAAAYQADAAAAAAAAAAAA==

> <PUBCHEM_IUPAC_OPENEYE_NAME>
2-(2-hydroxyethyl)-4-methoxy-5-methyl-6-(3-methylbut-2-enoxy)isoindolin-1-one

> <PUBCHEM_IUPAC_CAS_NAME>
2-(2-hydroxyethyl)-4-methoxy-5-methyl-6-(3-methylbut-2-enoxy)-3H-isoindol-1-one

> <PUBCHEM_IUPAC_NAME>
2-(2-hydroxyethyl)-4-methoxy-5-methyl-6-(3-methylbut-2-enoxy)-3H-isoindol-1-one

> <PUBCHEM_IUPAC_SYSTEMATIC_NAME>
2-(2-hydroxyethyl)-4-methoxy-5-methyl-6-(3-methylbut-2-enoxy)-3H-isoindol-1-one

> <PUBCHEM_IUPAC_TRADITIONAL_NAME>
2-(2-hydroxyethyl)-4-methoxy-5-methyl-6-(3-methylbut-2-enoxy)isoindolin-1-one

> <PUBCHEM_IUPAC_INCHI>
InChI=1S/C17H23NO4/c1-11(2)5-8-22-15-9-13-14(16(21-4)12(15)3)10-18(6-7-19)17(13)20/h5,9,19H,6-8,10H2,1-4H3

> <PUBCHEM_IUPAC_INCHIKEY>
RKLUTDADUQVUMB-UHFFFAOYSA-N

> <PUBCHEM_XLOGP3_AA>
2.1

> <PUBCHEM_EXACT_MASS>
305.162708

> <PUBCHEM_MOLECULAR_FORMULA>
C17H23NO4

> <PUBCHEM_MOLECULAR_WEIGHT>
305.36882

> <PUBCHEM_OPENEYE_CAN_SMILES>
CC1=C(C=C2C(=C1OC)CN(C2=O)CCO)OCC=C(C)C

> <PUBCHEM_OPENEYE_ISO_SMILES>
CC1=C(C=C2C(=C1OC)CN(C2=O)CCO)OCC=C(C)C

> <PUBCHEM_CACTVS_TPSA>
59

> <PUBCHEM_MONOISOTOPIC_WEIGHT>
305.162708

> <PUBCHEM_TOTAL_CHARGE>
0

> <PUBCHEM_HEAVY_ATOM_COUNT>
22

> <PUBCHEM_ATOM_DEF_STEREO_COUNT>
0

> <PUBCHEM_ATOM_UDEF_STEREO_COUNT>
0

> <PUBCHEM_BOND_DEF_STEREO_COUNT>
0

> <PUBCHEM_BOND_UDEF_STEREO_COUNT>
0

> <PUBCHEM_ISOTOPIC_ATOM_COUNT>
0

> <PUBCHEM_COMPONENT_COUNT>
1

> <PUBCHEM_CACTVS_TAUTO_COUNT>
3

> <PUBCHEM_COORDINATE_TYPE>
1
5
255

> <PUBCHEM_BONDANNOTATIONS>
10  12  8
12  14  8
13  14  8
7  10  8
7  8  8
8  13  8

$$$$

