251870
  -OEChem-07051213053D

 57 60  0     1  0  0  0  0  0999 V2000
    0.6879   -0.3112   -1.4455 F   0  0  0  0  0  0  0  0  0  0  0  0
   -0.4241   -2.1813    1.4325 O   0  0  0  0  0  0  0  0  0  0  0  0
   -5.7100   -0.0001    0.5131 O   0  0  0  0  0  0  0  0  0  0  0  0
    5.8562   -0.5596   -1.2160 O   0  0  0  0  0  0  0  0  0  0  0  0
   -1.5190    0.9811   -0.2861 C   0  0  2  0  0  0  0  0  0  0  0  0
   -2.4656   -0.1837    0.0658 C   0  0  2  0  0  0  0  0  0  0  0  0
   -0.1431    0.8781    0.3900 C   0  0  1  0  0  0  0  0  0  0  0  0
    0.5481   -0.4411   -0.0695 C   0  0  2  0  0  0  0  0  0  0  0  0
    2.0231   -0.5904    0.4860 C   0  0  2  0  0  0  0  0  0  0  0  0
   -1.8107   -1.4873   -0.4224 C   0  0  0  0  0  0  0  0  0  0  0  0
   -0.3716   -1.6900    0.1020 C   0  0  2  0  0  0  0  0  0  0  0  0
   -3.7045    0.2533   -0.7536 C   0  0  2  0  0  0  0  0  0  0  0  0
   -2.3823    2.2165   -0.0508 C   0  0  0  0  0  0  0  0  0  0  0  0
    0.7209    2.0932    0.0165 C   0  0  0  0  0  0  0  0  0  0  0  0
   -3.7754    1.7824   -0.5440 C   0  0  0  0  0  0  0  0  0  0  0  0
    2.1346    2.0017    0.6016 C   0  0  1  0  0  0  0  0  0  0  0  0
    2.8163    0.6996    0.1747 C   0  0  0  0  0  0  0  0  0  0  0  0
   -2.8301   -0.2662    1.5710 C   0  0  0  0  0  0  0  0  0  0  0  0
    2.6766   -1.8190   -0.2170 C   0  0  0  0  0  0  0  0  0  0  0  0
    2.0981   -0.8056    2.0159 C   0  0  0  0  0  0  0  0  0  0  0  0
   -4.9818   -0.4339   -0.3784 C   0  0  0  0  0  0  0  0  0  0  0  0
    4.1887   -1.8568   -0.0933 C   0  0  0  0  0  0  0  0  0  0  0  0
    4.0396    0.6815   -0.3868 C   0  0  0  0  0  0  0  0  0  0  0  0
    2.8895    3.3010    0.2820 C   0  0  0  0  0  0  0  0  0  0  0  0
    4.7701   -0.5832   -0.6407 C   0  0  0  0  0  0  0  0  0  0  0  0
   -5.3315   -1.6791   -1.1472 C   0  0  0  0  0  0  0  0  0  0  0  0
   -1.3327    0.9548   -1.3732 H   0  0  0  0  0  0  0  0  0  0  0  0
   -0.2667    0.8764    1.4777 H   0  0  0  0  0  0  0  0  0  0  0  0
   -1.7726   -1.4813   -1.5198 H   0  0  0  0  0  0  0  0  0  0  0  0
   -2.4273   -2.3456   -0.1315 H   0  0  0  0  0  0  0  0  0  0  0  0
    0.0458   -2.5069   -0.4979 H   0  0  0  0  0  0  0  0  0  0  0  0
   -3.5339    0.0790   -1.8252 H   0  0  0  0  0  0  0  0  0  0  0  0
   -2.0210    3.0876   -0.6066 H   0  0  0  0  0  0  0  0  0  0  0  0
   -2.4146    2.4878    1.0101 H   0  0  0  0  0  0  0  0  0  0  0  0
    0.2388    3.0053    0.3900 H   0  0  0  0  0  0  0  0  0  0  0  0
    0.7772    2.1941   -1.0759 H   0  0  0  0  0  0  0  0  0  0  0  0
   -4.5400    2.1030    0.1710 H   0  0  0  0  0  0  0  0  0  0  0  0
   -4.0101    2.2735   -1.4960 H   0  0  0  0  0  0  0  0  0  0  0  0
    2.0441    1.9727    1.6960 H   0  0  0  0  0  0  0  0  0  0  0  0
   -1.9605   -0.2334    2.2269 H   0  0  0  0  0  0  0  0  0  0  0  0
   -3.4715    0.5608    1.8936 H   0  0  0  0  0  0  0  0  0  0  0  0
   -3.3692   -1.1950    1.7898 H   0  0  0  0  0  0  0  0  0  0  0  0
    2.4300   -1.8107   -1.2875 H   0  0  0  0  0  0  0  0  0  0  0  0
    2.2685   -2.7545    0.1845 H   0  0  0  0  0  0  0  0  0  0  0  0
    3.1141   -0.6403    2.3952 H   0  0  0  0  0  0  0  0  0  0  0  0
    1.4413   -0.1252    2.5661 H   0  0  0  0  0  0  0  0  0  0  0  0
    1.8313   -1.8282    2.3001 H   0  0  0  0  0  0  0  0  0  0  0  0
    4.5782   -2.6982   -0.6768 H   0  0  0  0  0  0  0  0  0  0  0  0
    4.5147   -1.9805    0.9440 H   0  0  0  0  0  0  0  0  0  0  0  0
    4.5910    1.5843   -0.6212 H   0  0  0  0  0  0  0  0  0  0  0  0
    2.3344    4.1702    0.6525 H   0  0  0  0  0  0  0  0  0  0  0  0
    3.8718    3.3183    0.7664 H   0  0  0  0  0  0  0  0  0  0  0  0
    3.0290    3.4323   -0.7967 H   0  0  0  0  0  0  0  0  0  0  0  0
   -0.4197   -1.4289    2.0432 H   0  0  0  0  0  0  0  0  0  0  0  0
   -5.3742   -1.4542   -2.2158 H   0  0  0  0  0  0  0  0  0  0  0  0
   -4.5953   -2.4610   -0.9546 H   0  0  0  0  0  0  0  0  0  0  0  0
   -6.3145   -2.0389   -0.8298 H   0  0  0  0  0  0  0  0  0  0  0  0
  1  8  1  0  0  0  0
  2 11  1  0  0  0  0
  2 54  1  0  0  0  0
  3 21  2  0  0  0  0
  4 25  2  0  0  0  0
  5  6  1  0  0  0  0
  5  7  1  0  0  0  0
  5 13  1  0  0  0  0
  5 27  1  0  0  0  0
  6 10  1  0  0  0  0
  6 12  1  0  0  0  0
  6 18  1  0  0  0  0
  7  8  1  0  0  0  0
  7 14  1  0  0  0  0
  7 28  1  0  0  0  0
  8  9  1  0  0  0  0
  8 11  1  0  0  0  0
  9 17  1  0  0  0  0
  9 19  1  0  0  0  0
  9 20  1  0  0  0  0
 10 11  1  0  0  0  0
 10 29  1  0  0  0  0
 10 30  1  0  0  0  0
 11 31  1  0  0  0  0
 12 15  1  0  0  0  0
 12 21  1  0  0  0  0
 12 32  1  0  0  0  0
 13 15  1  0  0  0  0
 13 33  1  0  0  0  0
 13 34  1  0  0  0  0
 14 16  1  0  0  0  0
 14 35  1  0  0  0  0
 14 36  1  0  0  0  0
 15 37  1  0  0  0  0
 15 38  1  0  0  0  0
 16 17  1  0  0  0  0
 16 24  1  0  0  0  0
 16 39  1  0  0  0  0
 17 23  2  0  0  0  0
 18 40  1  0  0  0  0
 18 41  1  0  0  0  0
 18 42  1  0  0  0  0
 19 22  1  0  0  0  0
 19 43  1  0  0  0  0
 19 44  1  0  0  0  0
 20 45  1  0  0  0  0
 20 46  1  0  0  0  0
 20 47  1  0  0  0  0
 21 26  1  0  0  0  0
 22 25  1  0  0  0  0
 22 48  1  0  0  0  0
 22 49  1  0  0  0  0
 23 25  1  0  0  0  0
 23 50  1  0  0  0  0
 24 51  1  0  0  0  0
 24 52  1  0  0  0  0
 24 53  1  0  0  0  0
 26 55  1  0  0  0  0
 26 56  1  0  0  0  0
 26 57  1  0  0  0  0
M  END
> <PUBCHEM_COMPOUND_CID>
251870

> <PUBCHEM_CONFORMER_RMSD>
0.6

> <PUBCHEM_CONFORMER_DIVERSEORDER>
1
2

> <PUBCHEM_MMFF94_PARTIAL_CHARGES>
17
1 -0.34
11 0.28
12 0.06
16 0.14
17 -0.28
2 -0.68
21 0.45
22 0.06
23 -0.14
25 0.49
26 0.06
3 -0.57
4 -0.57
50 0.15
54 0.4
8 0.34
9 0.14

> <PUBCHEM_EFFECTIVE_ROTOR_COUNT>
2.8

> <PUBCHEM_PHARMACOPHORE_FEATURES>
8
1 2 acceptor
1 2 donor
1 3 acceptor
1 4 acceptor
5 5 6 12 13 15 rings
6 5 6 7 8 10 11 rings
6 7 8 9 14 16 17 rings
6 9 17 19 22 23 25 rings

> <PUBCHEM_HEAVY_ATOM_COUNT>
26

> <PUBCHEM_ATOM_DEF_STEREO_COUNT>
8

> <PUBCHEM_ATOM_UDEF_STEREO_COUNT>
0

> <PUBCHEM_BOND_DEF_STEREO_COUNT>
0

> <PUBCHEM_BOND_UDEF_STEREO_COUNT>
0

> <PUBCHEM_ISOTOPIC_ATOM_COUNT>
0

> <PUBCHEM_COMPONENT_COUNT>
1

> <PUBCHEM_CACTVS_TAUTO_COUNT>
15

> <PUBCHEM_CONFORMER_ID>
0003D7DE00000001

> <PUBCHEM_MMFF94_ENERGY>
91.4333

> <PUBCHEM_FEATURE_SELFOVERLAP>
40.687

> <PUBCHEM_SHAPE_FINGERPRINT>
10366900 7 17989487428687921633
10967382 1 18410860914758116545
11961588 58 17418088781095975604
12011746 2 18343018895529521166
12107698 1 18334859424224913685
12166972 35 17894630344314389568
12236239 1 17846497079561804758
12403259 226 18410583911043048557
12403259 415 18202290203884848805
12403260 363 18408609166652642481
12788726 201 18268432510700386880
12916754 54 18260832579487376397
13140716 1 18196380225230967546
13224815 77 18342742931502363809
13533116 47 18041280946317168377
13944108 23 16183288118659479749
14223421 5 18197494026320477706
14787075 74 18342736338226547342
14790565 3 17329705934346017432
15196674 1 18410295847443743149
15209289 33 18411981399022032523
15238133 3 17987249987314053312
1601671 61 18337110193410023492
16752209 62 18340494459803042928
16945 1 18409735032384285296
17349148 13 17603586326713248703
17492 89 18408612452603759255
18608769 82 18129933464905230107
18681886 176 18259992552614103760
19591789 44 18339646736359002991
200 152 17894632564865046713
20028762 73 18041287586458499631
20645477 70 18339086994857311348
20691752 17 17773614748786931735
20775438 99 17466824513638622519
21033648 29 17988936556451886909
21267235 1 18408315592605294639
21279426 13 18267866279734225596
221357 26 18409731780835709277
221490 88 18410853218160521120
22149856 69 18194670490042340067
22182313 1 18199210466903614228
22393880 68 18342469170192146885
23402539 116 18334016137292050381
23522609 53 18119496969428527657
23559900 14 18336832991762222632
296302 2 14620791613174692426
335352 9 18408884040079834453
350125 39 18410570730131256373
465052 167 18113333102820894486
474 4 17275093995469200100
5104073 3 18410015455226124769
7364860 26 18335143047054660832
9709674 26 18339645529599806419
9981440 41 17324660881239560064

> <PUBCHEM_SHAPE_MULTIPOLES>
510.19
10.64
2.63
1.19
3.54
1.34
-0.36
-2.29
3.03
-1.11
-0.11
-0.08
-0.38
0.11

> <PUBCHEM_SHAPE_SELFOVERLAP>
1097.622

> <PUBCHEM_SHAPE_VOLUME>
282.7

> <PUBCHEM_COORDINATE_TYPE>
2
5
10

$$$$

