115239
  -OEChem-07051213023D

 38 40  0     0  0  0  0  0  0999 V2000
    4.7781   -1.5839   -0.0647 S   0  0  0  0  0  0  0  0  0  0  0  0
   -5.4951   -1.1860    0.0651 F   0  0  0  0  0  0  0  0  0  0  0  0
   -4.4480   -2.7493   -1.0138 F   0  0  0  0  0  0  0  0  0  0  0  0
   -4.4004   -2.7131    1.1599 F   0  0  0  0  0  0  0  0  0  0  0  0
    0.9572    5.5161   -0.0937 F   0  0  0  0  0  0  0  0  0  0  0  0
    5.0730   -2.4615   -1.1883 O   0  0  0  0  0  0  0  0  0  0  0  0
    5.4713   -0.3088    0.0579 O   0  0  0  0  0  0  0  0  0  0  0  0
   -1.0587   -0.6062    0.0008 N   0  0  0  0  0  0  0  0  0  0  0  0
   -1.9039   -1.6509    0.0236 N   0  0  0  0  0  0  0  0  0  0  0  0
   -1.6808    0.6093   -0.0051 C   0  0  0  0  0  0  0  0  0  0  0  0
    0.3182   -0.8370   -0.0139 C   0  0  0  0  0  0  0  0  0  0  0  0
    3.0561   -1.2956   -0.0450 C   0  0  0  0  0  0  0  0  0  0  0  0
   -0.9976    1.8796   -0.0282 C   0  0  0  0  0  0  0  0  0  0  0  0
   -3.0286    0.3372    0.0146 C   0  0  0  0  0  0  0  0  0  0  0  0
   -3.1058   -1.0683    0.0319 C   0  0  0  0  0  0  0  0  0  0  0  0
    1.1731    0.0884    0.5688 C   0  0  0  0  0  0  0  0  0  0  0  0
    0.8120   -1.9883   -0.6120 C   0  0  0  0  0  0  0  0  0  0  0  0
    2.5488   -0.1421    0.5531 C   0  0  0  0  0  0  0  0  0  0  0  0
    2.1877   -2.2187   -0.6276 C   0  0  0  0  0  0  0  0  0  0  0  0
   -0.6526    2.5075    1.1685 C   0  0  0  0  0  0  0  0  0  0  0  0
   -0.6824    2.4801   -1.2472 C   0  0  0  0  0  0  0  0  0  0  0  0
   -4.3212   -1.8994    0.0577 C   0  0  0  0  0  0  0  0  0  0  0  0
    5.0911   -2.4900    1.4334 C   0  0  0  0  0  0  0  0  0  0  0  0
    0.0077    3.7360    1.1462 C   0  0  0  0  0  0  0  0  0  0  0  0
   -0.0221    3.7085   -1.2693 C   0  0  0  0  0  0  0  0  0  0  0  0
    0.3230    4.3366   -0.0726 C   0  0  0  0  0  0  0  0  0  0  0  0
   -3.8385    1.0531    0.0167 H   0  0  0  0  0  0  0  0  0  0  0  0
    0.8806    0.8953    1.2073 H   0  0  0  0  0  0  0  0  0  0  0  0
    0.1621   -2.7209   -1.0831 H   0  0  0  0  0  0  0  0  0  0  0  0
    3.2056    0.5659    1.0514 H   0  0  0  0  0  0  0  0  0  0  0  0
    2.5602   -3.1259   -1.0949 H   0  0  0  0  0  0  0  0  0  0  0  0
   -0.9076    2.0642    2.1289 H   0  0  0  0  0  0  0  0  0  0  0  0
   -0.9437    2.0032   -2.1890 H   0  0  0  0  0  0  0  0  0  0  0  0
    4.5222   -3.4214    1.4103 H   0  0  0  0  0  0  0  0  0  0  0  0
    4.7981   -1.8767    2.2877 H   0  0  0  0  0  0  0  0  0  0  0  0
    6.1602   -2.7080    1.4805 H   0  0  0  0  0  0  0  0  0  0  0  0
    0.2731    4.2270    2.0778 H   0  0  0  0  0  0  0  0  0  0  0  0
    0.2239    4.1761   -2.2181 H   0  0  0  0  0  0  0  0  0  0  0  0
  1  6  2  0  0  0  0
  1  7  2  0  0  0  0
  1 12  1  0  0  0  0
  1 23  1  0  0  0  0
  2 22  1  0  0  0  0
  3 22  1  0  0  0  0
  4 22  1  0  0  0  0
  5 26  1  0  0  0  0
  8  9  1  0  0  0  0
  8 10  1  0  0  0  0
  8 11  1  0  0  0  0
  9 15  2  0  0  0  0
 10 13  1  0  0  0  0
 10 14  2  0  0  0  0
 11 16  2  0  0  0  0
 11 17  1  0  0  0  0
 12 18  2  0  0  0  0
 12 19  1  0  0  0  0
 13 20  2  0  0  0  0
 13 21  1  0  0  0  0
 14 15  1  0  0  0  0
 14 27  1  0  0  0  0
 15 22  1  0  0  0  0
 16 18  1  0  0  0  0
 16 28  1  0  0  0  0
 17 19  2  0  0  0  0
 17 29  1  0  0  0  0
 18 30  1  0  0  0  0
 19 31  1  0  0  0  0
 20 24  1  0  0  0  0
 20 32  1  0  0  0  0
 21 25  2  0  0  0  0
 21 33  1  0  0  0  0
 23 34  1  0  0  0  0
 23 35  1  0  0  0  0
 23 36  1  0  0  0  0
 24 26  2  0  0  0  0
 24 37  1  0  0  0  0
 25 26  1  0  0  0  0
 25 38  1  0  0  0  0
M  END
> <PUBCHEM_COMPOUND_CID>
115239

> <PUBCHEM_CONFORMER_RMSD>
0.8

> <PUBCHEM_CONFORMER_DIVERSEORDER>
2
4
3
1

> <PUBCHEM_MMFF94_PARTIAL_CHARGES>
35
1 1.2
10 -0.2
11 -0.02
12 -0.01
13 0.05
14 -0.15
15 0.11
16 -0.15
17 -0.15
18 -0.15
19 -0.15
2 -0.34
20 -0.15
21 -0.15
22 1.2
23 0.11
24 -0.15
25 -0.15
26 0.19
27 0.15
28 0.15
29 0.15
3 -0.34
30 0.15
31 0.15
32 0.15
33 0.15
37 0.15
38 0.15
4 -0.34
5 -0.19
6 -0.65
7 -0.65
8 0.59
9 -0.71

> <PUBCHEM_EFFECTIVE_ROTOR_COUNT>
4

> <PUBCHEM_PHARMACOPHORE_FEATURES>
6
1 6 acceptor
1 7 acceptor
1 9 acceptor
5 8 9 10 14 15 rings
6 11 12 16 17 18 19 rings
6 13 20 21 24 25 26 rings

> <PUBCHEM_HEAVY_ATOM_COUNT>
26

> <PUBCHEM_ATOM_DEF_STEREO_COUNT>
0

> <PUBCHEM_ATOM_UDEF_STEREO_COUNT>
0

> <PUBCHEM_BOND_DEF_STEREO_COUNT>
0

> <PUBCHEM_BOND_UDEF_STEREO_COUNT>
0

> <PUBCHEM_ISOTOPIC_ATOM_COUNT>
0

> <PUBCHEM_COMPONENT_COUNT>
1

> <PUBCHEM_CACTVS_TAUTO_COUNT>
1

> <PUBCHEM_CONFORMER_ID>
0001C22700000002

> <PUBCHEM_MMFF94_ENERGY>
68.3537

> <PUBCHEM_FEATURE_SELFOVERLAP>
30.464

> <PUBCHEM_SHAPE_FINGERPRINT>
10165383 225 16607128921553239596
10319926 262 17976282428211681410
10411042 1 18410573985183586859
10670039 82 18339062892555427132
1100329 8 18338791321262357593
11045515 52 18342458149116102621
11056379 131 18122900091175966558
12107183 9 17047120464588158338
12173636 292 17545599419125948788
12342043 65 17604418739137715350
12403259 226 18261397797273214066
12788726 201 18056201503662906939
13009979 54 18200297944533770982
13140716 1 18410294752163656008
133893 2 17983556538883372033
13690498 29 18045483456243123942
138480 1 14807694721468754316
14028597 1 17319264559874865681
14347332 77 18267586995349922478
14508225 48 18409458002593302669
14713325 29 18119525690090314694
14790565 3 17329429445852094089
15042514 8 18266740371105702691
15131766 46 15215311801579472802
15439362 3 18051982416050185421
15927050 60 17471003684104459670
15961568 22 18410290290700359972
16087824 20 18122340444749202089
167882 2 18051413959684797077
17980427 23 17822001030806884561
1813 80 18261657208602174055
19611394 137 17913479152687179394
20238998 120 18408605881229917169
20600515 1 18189040053582873965
21033650 10 17837462483713405478
21049683 271 18128244589132503732
21120745 212 18264466525378413588
21304253 13 18408318913295743353
21304303 172 18187920746772467417
21304303 282 17333127562901455980
21641784 216 18340469154504620892
21796203 349 17979599447642435379
22907989 373 18268434723030290764
22956985 138 17767965337943304938
23366157 5 17982737376792307503
23402539 116 18411986892111754471
23557571 272 18263638640039862422
23559900 14 18340213969112574611
23845131 108 17184457163093828561
283562 15 18269835470626481042
3091708 16 9210110281741084825
3380486 145 18266729359184160729
4409770 3 17983025728080523405
46194498 28 17836124128901519839
469060 322 18337098068743409650
5104073 3 18261396710631060842
5385378 56 17906159656409430585
621550 5 18040996267426353866
6442390 28 17327445330075780585
6669772 16 17616522961625436364
6679774 75 17551809019124709744
6700243 42 17753579586051635462
7364860 26 18121216476917551633
7399639 24 18114472240413308230
81228 2 18194947763849606939
9981440 41 17188415404568602872

> <PUBCHEM_SHAPE_MULTIPOLES>
488.12
9.36
5.8
1.09
8.55
8.46
0.03
-12.35
0.6
-4.19
-0.25
0.32
0.23
0.21

> <PUBCHEM_SHAPE_SELFOVERLAP>
1061.697

> <PUBCHEM_SHAPE_VOLUME>
271.8

> <PUBCHEM_COORDINATE_TYPE>
2
5
10

$$$$

