23724543
  -OEChem-07051213073D

 54 55  0     1  0  0  0  0  0999 V2000
   -4.9470    0.6889   -1.3696 S   0  0  0  0  0  0  0  0  0  0  0  0
   -1.9762   -3.5773   -1.1367 S   0  0  0  0  0  0  0  0  0  0  0  0
    3.0412   -0.2418    2.8312 O   0  0  0  0  0  0  0  0  0  0  0  0
    4.5741   -0.4572   -1.1836 O   0  0  0  0  0  0  0  0  0  0  0  0
    0.9270    1.9520   -1.1549 O   0  0  0  0  0  0  0  0  0  0  0  0
    2.5147    3.6282   -1.1329 O   0  0  0  0  0  0  0  0  0  0  0  0
   -3.6759   -0.4241    0.6225 N   0  0  0  0  0  0  0  0  0  0  0  0
   -1.0537   -1.4433   -0.0065 N   0  0  0  0  0  0  0  0  0  0  0  0
    3.6008    0.7781    0.6834 C   0  0  1  0  0  0  0  0  0  0  0  0
    3.0111   -0.4521    1.4214 C   0  0  2  0  0  0  0  0  0  0  0  0
   -3.4953   -1.3160   -0.5520 C   0  0  1  0  0  0  0  0  0  0  0  0
    4.9532    1.1811    1.2863 C   0  0  0  0  0  0  0  0  0  0  0  0
    3.7333    0.5761   -0.8197 C   0  0  0  0  0  0  0  0  0  0  0  0
    1.6296   -0.8115    0.9187 C   0  0  0  0  0  0  0  0  0  0  0  0
   -3.6882   -0.5140   -1.8405 C   0  0  0  0  0  0  0  0  0  0  0  0
   -2.1403   -1.9904   -0.5046 C   0  0  0  0  0  0  0  0  0  0  0  0
    1.2729   -1.9719    0.3402 C   0  0  0  0  0  0  0  0  0  0  0  0
   -0.0358   -2.3450   -0.1390 C   0  0  0  0  0  0  0  0  0  0  0  0
   -4.4345    0.5660    0.2922 C   0  0  0  0  0  0  0  0  0  0  0  0
    3.0761    1.3575   -1.6960 C   0  0  0  0  0  0  0  0  0  0  0  0
   -0.3138   -3.5465   -0.7162 C   0  0  0  0  0  0  0  0  0  0  0  0
    2.6350   -1.4048    3.5365 C   0  0  0  0  0  0  0  0  0  0  0  0
   -4.8883    1.6255    1.1937 C   0  0  0  0  0  0  0  0  0  0  0  0
    2.1782    2.4671   -1.2991 C   0  0  0  0  0  0  0  0  0  0  0  0
    3.8761   -1.4292   -1.9366 C   0  0  0  0  0  0  0  0  0  0  0  0
   -6.2095    2.2623    0.9183 C   0  0  0  0  0  0  0  0  0  0  0  0
   -4.0815    1.9534    2.2108 C   0  0  0  0  0  0  0  0  0  0  0  0
   -0.0834    2.8890   -0.7672 C   0  0  0  0  0  0  0  0  0  0  0  0
    2.9350    1.6223    0.9045 H   0  0  0  0  0  0  0  0  0  0  0  0
    3.6865   -1.2964    1.2182 H   0  0  0  0  0  0  0  0  0  0  0  0
   -4.2745   -2.0894   -0.4817 H   0  0  0  0  0  0  0  0  0  0  0  0
    5.6734    0.3564    1.2438 H   0  0  0  0  0  0  0  0  0  0  0  0
    5.3837    2.0327    0.7472 H   0  0  0  0  0  0  0  0  0  0  0  0
    4.8480    1.4816    2.3341 H   0  0  0  0  0  0  0  0  0  0  0  0
    0.8743   -0.0407    1.0632 H   0  0  0  0  0  0  0  0  0  0  0  0
   -2.7780    0.0218   -2.1313 H   0  0  0  0  0  0  0  0  0  0  0  0
   -4.0134   -1.1394   -2.6769 H   0  0  0  0  0  0  0  0  0  0  0  0
    2.0513   -2.7249    0.2254 H   0  0  0  0  0  0  0  0  0  0  0  0
    3.1891    1.2108   -2.7657 H   0  0  0  0  0  0  0  0  0  0  0  0
    0.3348   -4.3886   -0.9142 H   0  0  0  0  0  0  0  0  0  0  0  0
    3.1977   -2.2869    3.2139 H   0  0  0  0  0  0  0  0  0  0  0  0
    2.8441   -1.2418    4.5980 H   0  0  0  0  0  0  0  0  0  0  0  0
    1.5592   -1.5760    3.4372 H   0  0  0  0  0  0  0  0  0  0  0  0
    4.1185   -1.2993   -2.9967 H   0  0  0  0  0  0  0  0  0  0  0  0
    2.7885   -1.4042   -1.8242 H   0  0  0  0  0  0  0  0  0  0  0  0
    4.2293   -2.4188   -1.6314 H   0  0  0  0  0  0  0  0  0  0  0  0
   -6.9880    1.5082    0.7601 H   0  0  0  0  0  0  0  0  0  0  0  0
   -6.5341    2.8751    1.7672 H   0  0  0  0  0  0  0  0  0  0  0  0
   -6.1645    2.9242    0.0476 H   0  0  0  0  0  0  0  0  0  0  0  0
   -4.3650    2.7323    2.9118 H   0  0  0  0  0  0  0  0  0  0  0  0
   -3.1220    1.4747    2.3773 H   0  0  0  0  0  0  0  0  0  0  0  0
   -0.1882    3.6692   -1.5270 H   0  0  0  0  0  0  0  0  0  0  0  0
   -1.0312    2.3502   -0.6830 H   0  0  0  0  0  0  0  0  0  0  0  0
    0.1593    3.3257    0.2062 H   0  0  0  0  0  0  0  0  0  0  0  0
  1 15  1  0  0  0  0
  1 19  1  0  0  0  0
  2 16  1  0  0  0  0
  2 21  1  0  0  0  0
  3 10  1  0  0  0  0
  3 22  1  0  0  0  0
  4 13  1  0  0  0  0
  4 25  1  0  0  0  0
  5 24  1  0  0  0  0
  5 28  1  0  0  0  0
  6 24  2  0  0  0  0
  7 11  1  0  0  0  0
  7 19  2  0  0  0  0
  8 16  2  0  0  0  0
  8 18  1  0  0  0  0
  9 10  1  0  0  0  0
  9 12  1  0  0  0  0
  9 13  1  0  0  0  0
  9 29  1  0  0  0  0
 10 14  1  0  0  0  0
 10 30  1  0  0  0  0
 11 15  1  0  0  0  0
 11 16  1  0  0  0  0
 11 31  1  0  0  0  0
 12 32  1  0  0  0  0
 12 33  1  0  0  0  0
 12 34  1  0  0  0  0
 13 20  2  0  0  0  0
 14 17  2  0  0  0  0
 14 35  1  0  0  0  0
 15 36  1  0  0  0  0
 15 37  1  0  0  0  0
 17 18  1  0  0  0  0
 17 38  1  0  0  0  0
 18 21  2  0  0  0  0
 19 23  1  0  0  0  0
 20 24  1  0  0  0  0
 20 39  1  0  0  0  0
 21 40  1  0  0  0  0
 22 41  1  0  0  0  0
 22 42  1  0  0  0  0
 22 43  1  0  0  0  0
 23 26  1  0  0  0  0
 23 27  2  0  0  0  0
 25 44  1  0  0  0  0
 25 45  1  0  0  0  0
 25 46  1  0  0  0  0
 26 47  1  0  0  0  0
 26 48  1  0  0  0  0
 26 49  1  0  0  0  0
 27 50  1  0  0  0  0
 27 51  1  0  0  0  0
 28 52  1  0  0  0  0
 28 53  1  0  0  0  0
 28 54  1  0  0  0  0
M  END
> <PUBCHEM_COMPOUND_CID>
23724543

> <PUBCHEM_CONFORMER_RMSD>
1

> <PUBCHEM_CONFORMER_DIVERSEORDER>
2
188
233
259
36
132
65
121
279
254
202
3
124
159
161
171
220
263
33
192
246
120
131
41
27
217
111
49
187
152
85
8
191
282
211
145
68
194
226
106
190
150
278
59
12
283
52
206
275
128
81
167
160
24
265
264
185
9
127
158
50
92
89
63
214
232
113
40
276
273
181
79
173
80
236
168
23
261
245
198
182
20
29
109
224
213
163
203
166
74
84
201
243
83
82
102
234
66
94
205
116
280
281
71
72
16
195
134
235
118
61
266
219
165
62
252
88
7
144
22
258
274
54
208
115
37
149
38
53
210
112
229
34
107
78
164
147
255
241
272
196
260
64
13
77
238
174
138
239
44
179
151
123
39
270
172
200
98
51
46
178
271
25
95
76
21
193
267
31
105
18
176
70
26
90
237
269
204
142
242
60
209
48
96
14
250
43
175
170
10
277
251
30
247
5
75
45
253
216
93
17
231
99
215
155
119
58
11
100
207
143
162
101
268
57
248
146
199
240
55
126
73
183
137
103
249
222
125
141
28
256
197
189
114
133
230
47
244
223
69
177
108
1
42
218
169
221
19
87
67
110
225
35
262
153
154
6
91
56
140
212
15
136
257
228
86
139
117
184
186
130
32
122
4
157
135
148
104
227
156
180
97
129

> <PUBCHEM_MMFF94_PARTIAL_CHARGES>
33
1 -0.37
10 0.42
11 0.43
13 -0.06
14 -0.29
15 0.23
16 0.2
17 -0.1
18 0.18
19 0.58
2 -0.08
20 -0.14
21 -0.11
22 0.28
23 -0.12
24 0.71
25 0.28
26 0.14
27 -0.3
28 0.28
3 -0.56
35 0.15
38 0.15
39 0.15
4 -0.36
40 0.15
5 -0.43
50 0.15
51 0.15
6 -0.57
7 -0.7
8 -0.57
9 0.14

> <PUBCHEM_EFFECTIVE_ROTOR_COUNT>
10.6

> <PUBCHEM_PHARMACOPHORE_FEATURES>
8
1 12 hydrophobe
1 3 acceptor
1 4 acceptor
1 6 acceptor
1 7 acceptor
1 8 acceptor
5 1 7 11 15 19 rings
5 2 8 16 18 21 rings

> <PUBCHEM_HEAVY_ATOM_COUNT>
28

> <PUBCHEM_ATOM_DEF_STEREO_COUNT>
2

> <PUBCHEM_ATOM_UDEF_STEREO_COUNT>
1

> <PUBCHEM_BOND_DEF_STEREO_COUNT>
2

> <PUBCHEM_BOND_UDEF_STEREO_COUNT>
0

> <PUBCHEM_ISOTOPIC_ATOM_COUNT>
0

> <PUBCHEM_COMPONENT_COUNT>
1

> <PUBCHEM_CACTVS_TAUTO_COUNT>
1

> <PUBCHEM_CONFORMER_ID>
016A01FF00000002

> <PUBCHEM_MMFF94_ENERGY>
69.0047

> <PUBCHEM_FEATURE_SELFOVERLAP>
40.597

> <PUBCHEM_SHAPE_FINGERPRINT>
10670039 82 18333729147735632365
10764073 3 17751387134355015202
10906281 52 17915447295976153340
114674 6 15748414807089585396
11828532 37 17168148927826142201
12422481 6 18056213585247752128
12633257 1 18271251525443416924
13583140 156 17274834536315701667
13947920 75 18409438177525657964
13965767 371 18339943570555580570
14289585 56 17981863535399563668
14840074 17 18272077327765072725
14950920 106 16988847215503155017
15001296 14 18341608183942429025
15238133 3 17632585946217756390
15297060 5 18040426707201960835
15403338 16 16843627082765990403
1601671 61 18342455967246121622
17093844 170 18334573560271557814
20567600 9 18115860983290602187
20739085 24 18195525011543720555
21033648 29 18040439884351782451
21304303 282 5323045372082506490
21864079 5 18199474255257416071
22122407 14 17632027445998407021
235170 7 14924239179131948043
23559900 14 17895192165356134238
3459 110 17560786694678824723
3680242 22 18201444713190572588
445580 8 18341610451468435345
46194498 28 15648192758838534147
474 4 18338231678528381155
513202 73 17409113712429300002
550186 83 17917426562180476012
5895379 119 18191023396454705660
6287921 2 18045496676035519207
7064713 232 18261968417668961033

> <PUBCHEM_SHAPE_MULTIPOLES>
550.49
11.87
4.09
2.52
8.7
0.95
1.85
-7.12
1.71
1.32
-1.38
-2.11
-0.31
-2.6

> <PUBCHEM_SHAPE_SELFOVERLAP>
1103.98

> <PUBCHEM_SHAPE_VOLUME>
328.8

> <PUBCHEM_COORDINATE_TYPE>
2
5
10

$$$$

