442876
  -OEChem-07051213003D

 63 65  0     1  0  0  0  0  0999 V2000
    0.0000   -0.0013    0.0521 O   0  0  0  0  0  0  0  0  0  0  0  0
    4.1726    2.3532    1.4355 O   0  0  0  0  0  0  0  0  0  0  0  0
   -4.1760   -2.2731    1.5580 O   0  0  0  0  0  0  0  0  0  0  0  0
    5.6364   -1.9850    0.0309 O   0  0  0  0  0  0  0  0  0  0  0  0
   -5.6335    1.9866   -0.0749 O   0  0  0  0  0  0  0  0  0  0  0  0
    6.1787    0.4559    1.2229 O   0  0  0  0  0  0  0  0  0  0  0  0
   -6.1793   -0.3868    1.2448 O   0  0  0  0  0  0  0  0  0  0  0  0
    0.7571   -0.1546   -2.2007 C   0  0  1  0  0  0  0  0  0  0  0  0
   -0.7564    0.0334   -2.2058 C   0  0  1  0  0  0  0  0  0  0  0  0
    0.9926   -0.6494   -0.7697 C   0  0  1  0  0  0  0  0  0  0  0  0
   -0.9916    0.6036   -0.8031 C   0  0  1  0  0  0  0  0  0  0  0  0
    1.2662   -1.1187   -3.2632 C   0  0  0  0  0  0  0  0  0  0  0  0
   -1.2655    0.9397   -3.3179 C   0  0  0  0  0  0  0  0  0  0  0  0
    2.3738   -0.3549   -0.2393 C   0  0  0  0  0  0  0  0  0  0  0  0
   -2.3733    0.3398   -0.2579 C   0  0  0  0  0  0  0  0  0  0  0  0
    3.3844   -1.3123   -0.3477 C   0  0  0  0  0  0  0  0  0  0  0  0
   -3.3824    1.2915   -0.4171 C   0  0  0  0  0  0  0  0  0  0  0  0
    2.6457    0.8760    0.3609 C   0  0  0  0  0  0  0  0  0  0  0  0
   -2.6469   -0.8572    0.4067 C   0  0  0  0  0  0  0  0  0  0  0  0
    3.9231    1.1485    0.8508 C   0  0  0  0  0  0  0  0  0  0  0  0
   -3.9246   -1.1015    0.9102 C   0  0  0  0  0  0  0  0  0  0  0  0
    4.6617   -1.0399    0.1422 C   0  0  0  0  0  0  0  0  0  0  0  0
   -4.6602    1.0472    0.0864 C   0  0  0  0  0  0  0  0  0  0  0  0
    4.9310    0.1906    0.7413 C   0  0  0  0  0  0  0  0  0  0  0  0
   -4.9312   -0.1493    0.7500 C   0  0  0  0  0  0  0  0  0  0  0  0
    4.6240    3.4055    0.5850 C   0  0  0  0  0  0  0  0  0  0  0  0
   -4.6289   -3.3684    0.7646 C   0  0  0  0  0  0  0  0  0  0  0  0
    6.4337   -1.9578   -1.1513 C   0  0  0  0  0  0  0  0  0  0  0  0
   -6.4309    1.8978   -1.2541 C   0  0  0  0  0  0  0  0  0  0  0  0
    6.4373    0.1022    2.5796 C   0  0  0  0  0  0  0  0  0  0  0  0
   -6.4374    0.0387    2.5808 C   0  0  0  0  0  0  0  0  0  0  0  0
    1.2429    0.8199   -2.3496 H   0  0  0  0  0  0  0  0  0  0  0  0
   -1.2422   -0.9477   -2.3025 H   0  0  0  0  0  0  0  0  0  0  0  0
    0.7892   -1.7250   -0.6871 H   0  0  0  0  0  0  0  0  0  0  0  0
   -0.7867    1.6819   -0.7776 H   0  0  0  0  0  0  0  0  0  0  0  0
    0.8151   -2.1105   -3.1524 H   0  0  0  0  0  0  0  0  0  0  0  0
    1.0305   -0.7529   -4.2674 H   0  0  0  0  0  0  0  0  0  0  0  0
    2.3527   -1.2331   -3.2008 H   0  0  0  0  0  0  0  0  0  0  0  0
   -1.0298    0.5212   -4.3013 H   0  0  0  0  0  0  0  0  0  0  0  0
   -0.8147    1.9361   -3.2599 H   0  0  0  0  0  0  0  0  0  0  0  0
   -2.3522    1.0571   -3.2618 H   0  0  0  0  0  0  0  0  0  0  0  0
    3.1801   -2.2738   -0.8128 H   0  0  0  0  0  0  0  0  0  0  0  0
   -3.1767    2.2266   -0.9325 H   0  0  0  0  0  0  0  0  0  0  0  0
    1.8746    1.6377    0.4456 H   0  0  0  0  0  0  0  0  0  0  0  0
   -1.8769   -1.6144    0.5318 H   0  0  0  0  0  0  0  0  0  0  0  0
    5.5700    3.1347    0.1056 H   0  0  0  0  0  0  0  0  0  0  0  0
    3.8698    3.6348   -0.1744 H   0  0  0  0  0  0  0  0  0  0  0  0
    4.7852    4.2962    1.1982 H   0  0  0  0  0  0  0  0  0  0  0  0
   -3.8749   -3.6387    0.0185 H   0  0  0  0  0  0  0  0  0  0  0  0
   -4.7914   -4.2251    1.4241 H   0  0  0  0  0  0  0  0  0  0  0  0
   -5.5744   -3.1220    0.2713 H   0  0  0  0  0  0  0  0  0  0  0  0
    5.8109   -2.1173   -2.0373 H   0  0  0  0  0  0  0  0  0  0  0  0
    7.1670   -2.7664   -1.0887 H   0  0  0  0  0  0  0  0  0  0  0  0
    6.9683   -1.0062   -1.2339 H   0  0  0  0  0  0  0  0  0  0  0  0
   -6.9669    0.9440   -1.2860 H   0  0  0  0  0  0  0  0  0  0  0  0
   -5.8079    2.0091   -2.1473 H   0  0  0  0  0  0  0  0  0  0  0  0
   -7.1630    2.7098   -1.2346 H   0  0  0  0  0  0  0  0  0  0  0  0
    7.4696    0.3758    2.8139 H   0  0  0  0  0  0  0  0  0  0  0  0
    6.3199   -0.9762    2.7259 H   0  0  0  0  0  0  0  0  0  0  0  0
    5.7695    0.6474    3.2541 H   0  0  0  0  0  0  0  0  0  0  0  0
   -6.3183    1.1231    2.6698 H   0  0  0  0  0  0  0  0  0  0  0  0
   -5.7706   -0.4711    3.2834 H   0  0  0  0  0  0  0  0  0  0  0  0
   -7.4702   -0.2205    2.8291 H   0  0  0  0  0  0  0  0  0  0  0  0
  1 10  1  0  0  0  0
  1 11  1  0  0  0  0
  2 20  1  0  0  0  0
  2 26  1  0  0  0  0
  3 21  1  0  0  0  0
  3 27  1  0  0  0  0
  4 22  1  0  0  0  0
  4 28  1  0  0  0  0
  5 23  1  0  0  0  0
  5 29  1  0  0  0  0
  6 24  1  0  0  0  0
  6 30  1  0  0  0  0
  7 25  1  0  0  0  0
  7 31  1  0  0  0  0
  8  9  1  0  0  0  0
  8 10  1  0  0  0  0
  8 12  1  0  0  0  0
  8 32  1  0  0  0  0
  9 11  1  0  0  0  0
  9 13  1  0  0  0  0
  9 33  1  0  0  0  0
 10 14  1  0  0  0  0
 10 34  1  0  0  0  0
 11 15  1  0  0  0  0
 11 35  1  0  0  0  0
 12 36  1  0  0  0  0
 12 37  1  0  0  0  0
 12 38  1  0  0  0  0
 13 39  1  0  0  0  0
 13 40  1  0  0  0  0
 13 41  1  0  0  0  0
 14 16  2  0  0  0  0
 14 18  1  0  0  0  0
 15 17  2  0  0  0  0
 15 19  1  0  0  0  0
 16 22  1  0  0  0  0
 16 42  1  0  0  0  0
 17 23  1  0  0  0  0
 17 43  1  0  0  0  0
 18 20  2  0  0  0  0
 18 44  1  0  0  0  0
 19 21  2  0  0  0  0
 19 45  1  0  0  0  0
 20 24  1  0  0  0  0
 21 25  1  0  0  0  0
 22 24  2  0  0  0  0
 23 25  2  0  0  0  0
 26 46  1  0  0  0  0
 26 47  1  0  0  0  0
 26 48  1  0  0  0  0
 27 49  1  0  0  0  0
 27 50  1  0  0  0  0
 27 51  1  0  0  0  0
 28 52  1  0  0  0  0
 28 53  1  0  0  0  0
 28 54  1  0  0  0  0
 29 55  1  0  0  0  0
 29 56  1  0  0  0  0
 29 57  1  0  0  0  0
 30 58  1  0  0  0  0
 30 59  1  0  0  0  0
 30 60  1  0  0  0  0
 31 61  1  0  0  0  0
 31 62  1  0  0  0  0
 31 63  1  0  0  0  0
M  END
> <PUBCHEM_COMPOUND_CID>
442876

> <PUBCHEM_CONFORMER_RMSD>
1

> <PUBCHEM_CONFORMER_DIVERSEORDER>
1
9
6
7
8
4
3
2
5

> <PUBCHEM_MMFF94_PARTIAL_CHARGES>
31
1 -0.56
10 0.42
11 0.42
14 -0.14
15 -0.14
16 -0.15
17 -0.15
18 -0.15
19 -0.15
2 -0.36
20 0.08
21 0.08
22 0.08
23 0.08
24 0.08
25 0.08
26 0.28
27 0.28
28 0.28
29 0.28
3 -0.36
30 0.28
31 0.28
4 -0.36
42 0.15
43 0.15
44 0.15
45 0.15
5 -0.36
6 -0.36
7 -0.36

> <PUBCHEM_EFFECTIVE_ROTOR_COUNT>
9

> <PUBCHEM_PHARMACOPHORE_FEATURES>
10
1 1 acceptor
1 2 acceptor
1 3 acceptor
1 4 acceptor
1 5 acceptor
1 6 acceptor
1 7 acceptor
5 1 8 9 10 11 rings
6 14 16 18 20 22 24 rings
6 15 17 19 21 23 25 rings

> <PUBCHEM_HEAVY_ATOM_COUNT>
31

> <PUBCHEM_ATOM_DEF_STEREO_COUNT>
4

> <PUBCHEM_ATOM_UDEF_STEREO_COUNT>
0

> <PUBCHEM_BOND_DEF_STEREO_COUNT>
0

> <PUBCHEM_BOND_UDEF_STEREO_COUNT>
0

> <PUBCHEM_ISOTOPIC_ATOM_COUNT>
0

> <PUBCHEM_COMPONENT_COUNT>
1

> <PUBCHEM_CACTVS_TAUTO_COUNT>
1

> <PUBCHEM_CONFORMER_ID>
0006C1FC00000001

> <PUBCHEM_MMFF94_ENERGY>
149.322

> <PUBCHEM_FEATURE_SELFOVERLAP>
50.763

> <PUBCHEM_SHAPE_FINGERPRINT>
10319926 262 18343301487298117857
11045977 3 18411138051796369423
12422481 6 18113341929174197596
12553582 1 15626224615083487342
12788726 201 15625942105056952572
13583140 156 18334579070297834479
13782708 43 18060427915092062610
14341114 176 18410288125203301888
15188451 53 18059862705822429955
15348495 7 18411136900745147625
1577012 14 15647054867224745432
17349148 13 15697999638885833170
1813 80 15913610557694079573
18222031 100 16272208570027329124
21315759 40 15791741839901478590
21792934 111 18201992232603470393
22122407 14 17748824116309316297
23522609 53 15481240911563765439
23559900 14 18266435759235134327
23569917 315 15864075389904313430
2838139 119 16298106510105597043
3004659 81 16056869218075754087
312425 54 18343585161208582763
3383291 50 17560509605107077347
351380 3 15626222424607955536
38570 142 5832897675393650135
392239 28 18412545388067422265
397830 11 18411136892155199673
4073 2 18343301461723688178
4144715 1 18341605993208174801
5104073 3 18410573955107805851
559249 180 17203606013248052387
6058803 2 17098369444719320158
6691757 9 15140687968850946830
7970288 3 15626224615062402320

> <PUBCHEM_SHAPE_MULTIPOLES>
596.88
18.2
2.61
2.55
0
1.54
-0.03
-11.07
-0.24
0.16
0.06
-0.16
-0.52
-3.49

> <PUBCHEM_SHAPE_SELFOVERLAP>
1259.972

> <PUBCHEM_SHAPE_VOLUME>
340.8

> <PUBCHEM_COORDINATE_TYPE>
2
5
10

$$$$

