12310256
  -OEChem-07051213103D

 83 88  0     1  0  0  0  0  0999 V2000
    4.2276   -1.4667    0.3374 O   0  0  0  0  0  0  0  0  0  0  0  0
    1.9431    2.2675    1.7290 O   0  0  0  0  0  0  0  0  0  0  0  0
    0.4160   -0.4044    2.6367 O   0  0  0  0  0  0  0  0  0  0  0  0
   -4.6199    0.0176    0.3626 O   0  0  0  0  0  0  0  0  0  0  0  0
    8.6878   -0.0211    0.2038 O   0  0  0  0  0  0  0  0  0  0  0  0
   -5.9753    0.0165   -1.5852 O   0  0  0  0  0  0  0  0  0  0  0  0
    8.8153   -2.2910   -0.1527 O   0  0  0  0  0  0  0  0  0  0  0  0
   -7.0080   -2.5109   -0.6876 O   0  0  0  0  0  0  0  0  0  0  0  0
   -8.6019   -1.3906    1.2998 O   0  0  0  0  0  0  0  0  0  0  0  0
   -8.9752    1.2132    0.1920 O   0  0  0  0  0  0  0  0  0  0  0  0
    3.4278   -0.4210   -0.2369 C   0  0  1  0  0  0  0  0  0  0  0  0
    2.0022   -0.5062    0.3906 C   0  0  1  0  0  0  0  0  0  0  0  0
    1.1000    0.7130    0.0244 C   0  0  1  0  0  0  0  0  0  0  0  0
    4.1449    0.9353    0.0058 C   0  0  2  0  0  0  0  0  0  0  0  0
   -0.3680    0.5815    0.6067 C   0  0  2  0  0  0  0  0  0  0  0  0
   -0.9521   -0.7704    0.0844 C   0  0  1  0  0  0  0  0  0  0  0  0
    1.8139    2.0501    0.3327 C   0  0  2  0  0  0  0  0  0  0  0  0
    3.1939    2.1224   -0.3297 C   0  0  0  0  0  0  0  0  0  0  0  0
    5.3008    0.9159   -1.0502 C   0  0  2  0  0  0  0  0  0  0  0  0
    1.3177   -1.8469    0.0368 C   0  0  0  0  0  0  0  0  0  0  0  0
    3.4717   -0.5849   -1.7711 C   0  0  0  0  0  0  0  0  0  0  0  0
   -0.1137   -1.9617    0.5493 C   0  0  0  0  0  0  0  0  0  0  0  0
    4.6933    0.1991   -2.2681 C   0  0  0  0  0  0  0  0  0  0  0  0
   -1.2688    1.7267    0.0594 C   0  0  0  0  0  0  0  0  0  0  0  0
   -2.4355   -0.9674    0.4251 C   0  0  0  0  0  0  0  0  0  0  0  0
    4.6863    1.0841    1.4438 C   0  0  0  0  0  0  0  0  0  0  0  0
   -0.3935    0.6428    2.1561 C   0  0  0  0  0  0  0  0  0  0  0  0
   -2.7525    1.5432    0.3823 C   0  0  0  0  0  0  0  0  0  0  0  0
   -3.2819    0.1934   -0.0912 C   0  0  2  0  0  0  0  0  0  0  0  0
    6.5742    0.2338   -0.6381 C   0  0  0  0  0  0  0  0  0  0  0  0
    7.6945    0.9822   -0.0328 C   0  0  0  0  0  0  0  0  0  0  0  0
    6.8642   -1.0597   -0.7497 C   0  0  0  0  0  0  0  0  0  0  0  0
   -5.3790   -0.7700   -0.5482 C   0  0  2  0  0  0  0  0  0  0  0  0
    8.2155   -1.2316   -0.2137 C   0  0  0  0  0  0  0  0  0  0  0  0
   -6.4456   -1.5552    0.2130 C   0  0  1  0  0  0  0  0  0  0  0  0
   -7.5407   -0.6237    0.7355 C   0  0  1  0  0  0  0  0  0  0  0  0
   -6.9466    0.9599   -1.1212 C   0  0  2  0  0  0  0  0  0  0  0  0
   -8.0952    0.2533   -0.3879 C   0  0  2  0  0  0  0  0  0  0  0  0
   -7.4373    1.7319   -2.3429 C   0  0  0  0  0  0  0  0  0  0  0  0
    2.1904   -0.5118    1.4660 H   0  0  0  0  0  0  0  0  0  0  0  0
    0.9797    0.6948   -1.0687 H   0  0  0  0  0  0  0  0  0  0  0  0
   -0.8963   -0.7506   -1.0154 H   0  0  0  0  0  0  0  0  0  0  0  0
    1.2159    2.8788   -0.0615 H   0  0  0  0  0  0  0  0  0  0  0  0
    3.0339    2.1868   -1.4133 H   0  0  0  0  0  0  0  0  0  0  0  0
    3.6864    3.0611   -0.0432 H   0  0  0  0  0  0  0  0  0  0  0  0
    5.5672    1.9393   -1.3471 H   0  0  0  0  0  0  0  0  0  0  0  0
    1.2987   -1.9752   -1.0525 H   0  0  0  0  0  0  0  0  0  0  0  0
    1.9035   -2.6843    0.4342 H   0  0  0  0  0  0  0  0  0  0  0  0
    2.5779   -0.1881   -2.2617 H   0  0  0  0  0  0  0  0  0  0  0  0
    3.5657   -1.6385   -2.0581 H   0  0  0  0  0  0  0  0  0  0  0  0
   -0.1742   -2.1813    1.6160 H   0  0  0  0  0  0  0  0  0  0  0  0
   -0.5367   -2.8663    0.0882 H   0  0  0  0  0  0  0  0  0  0  0  0
    4.3495    0.9503   -2.9917 H   0  0  0  0  0  0  0  0  0  0  0  0
    5.3856   -0.4381   -2.8285 H   0  0  0  0  0  0  0  0  0  0  0  0
   -0.9497    2.6930    0.4672 H   0  0  0  0  0  0  0  0  0  0  0  0
   -1.1549    1.7941   -1.0305 H   0  0  0  0  0  0  0  0  0  0  0  0
   -2.5812   -1.0897    1.5054 H   0  0  0  0  0  0  0  0  0  0  0  0
   -2.7888   -1.9088   -0.0134 H   0  0  0  0  0  0  0  0  0  0  0  0
    5.4315    0.3268    1.7042 H   0  0  0  0  0  0  0  0  0  0  0  0
    3.8964    0.9809    2.1918 H   0  0  0  0  0  0  0  0  0  0  0  0
    5.1504    2.0665    1.5852 H   0  0  0  0  0  0  0  0  0  0  0  0
   -0.0559    1.5988    2.5587 H   0  0  0  0  0  0  0  0  0  0  0  0
   -1.3988    0.4834    2.5550 H   0  0  0  0  0  0  0  0  0  0  0  0
   -3.3326    2.3440   -0.0939 H   0  0  0  0  0  0  0  0  0  0  0  0
   -2.9362    1.6644    1.4564 H   0  0  0  0  0  0  0  0  0  0  0  0
   -3.2540    0.2053   -1.1903 H   0  0  0  0  0  0  0  0  0  0  0  0
    4.1141   -1.4517    1.3023 H   0  0  0  0  0  0  0  0  0  0  0  0
    2.3615    3.1359    1.8569 H   0  0  0  0  0  0  0  0  0  0  0  0
    7.4393    1.4544    0.9184 H   0  0  0  0  0  0  0  0  0  0  0  0
    8.1060    1.7311   -0.7161 H   0  0  0  0  0  0  0  0  0  0  0  0
    0.3939   -0.3657    3.6078 H   0  0  0  0  0  0  0  0  0  0  0  0
    6.2774   -1.8657   -1.1539 H   0  0  0  0  0  0  0  0  0  0  0  0
   -4.7353   -1.4961   -1.0599 H   0  0  0  0  0  0  0  0  0  0  0  0
   -6.0114   -2.1100    1.0527 H   0  0  0  0  0  0  0  0  0  0  0  0
   -7.1476    0.0085    1.5405 H   0  0  0  0  0  0  0  0  0  0  0  0
   -6.4561    1.6802   -0.4537 H   0  0  0  0  0  0  0  0  0  0  0  0
   -8.6832   -0.3636   -1.0788 H   0  0  0  0  0  0  0  0  0  0  0  0
   -6.2986   -3.1231   -0.9474 H   0  0  0  0  0  0  0  0  0  0  0  0
   -6.5897    2.1737   -2.8784 H   0  0  0  0  0  0  0  0  0  0  0  0
   -7.9411    1.0642   -3.0505 H   0  0  0  0  0  0  0  0  0  0  0  0
   -8.1250    2.5364   -2.0677 H   0  0  0  0  0  0  0  0  0  0  0  0
   -8.9320   -1.9925    0.6109 H   0  0  0  0  0  0  0  0  0  0  0  0
   -9.4476    1.6577   -0.5316 H   0  0  0  0  0  0  0  0  0  0  0  0
  1 11  1  0  0  0  0
  1 67  1  0  0  0  0
  2 17  1  0  0  0  0
  2 68  1  0  0  0  0
  3 27  1  0  0  0  0
  3 71  1  0  0  0  0
  4 29  1  0  0  0  0
  4 33  1  0  0  0  0
  5 31  1  0  0  0  0
  5 34  1  0  0  0  0
  6 33  1  0  0  0  0
  6 37  1  0  0  0  0
  7 34  2  0  0  0  0
  8 35  1  0  0  0  0
  8 78  1  0  0  0  0
  9 36  1  0  0  0  0
  9 82  1  0  0  0  0
 10 38  1  0  0  0  0
 10 83  1  0  0  0  0
 11 12  1  0  0  0  0
 11 14  1  0  0  0  0
 11 21  1  0  0  0  0
 12 13  1  0  0  0  0
 12 20  1  0  0  0  0
 12 40  1  0  0  0  0
 13 15  1  0  0  0  0
 13 17  1  0  0  0  0
 13 41  1  0  0  0  0
 14 18  1  0  0  0  0
 14 19  1  0  0  0  0
 14 26  1  0  0  0  0
 15 16  1  0  0  0  0
 15 24  1  0  0  0  0
 15 27  1  0  0  0  0
 16 22  1  0  0  0  0
 16 25  1  0  0  0  0
 16 42  1  0  0  0  0
 17 18  1  0  0  0  0
 17 43  1  0  0  0  0
 18 44  1  0  0  0  0
 18 45  1  0  0  0  0
 19 23  1  0  0  0  0
 19 30  1  0  0  0  0
 19 46  1  0  0  0  0
 20 22  1  0  0  0  0
 20 47  1  0  0  0  0
 20 48  1  0  0  0  0
 21 23  1  0  0  0  0
 21 49  1  0  0  0  0
 21 50  1  0  0  0  0
 22 51  1  0  0  0  0
 22 52  1  0  0  0  0
 23 53  1  0  0  0  0
 23 54  1  0  0  0  0
 24 28  1  0  0  0  0
 24 55  1  0  0  0  0
 24 56  1  0  0  0  0
 25 29  1  0  0  0  0
 25 57  1  0  0  0  0
 25 58  1  0  0  0  0
 26 59  1  0  0  0  0
 26 60  1  0  0  0  0
 26 61  1  0  0  0  0
 27 62  1  0  0  0  0
 27 63  1  0  0  0  0
 28 29  1  0  0  0  0
 28 64  1  0  0  0  0
 28 65  1  0  0  0  0
 29 66  1  0  0  0  0
 30 31  1  0  0  0  0
 30 32  2  0  0  0  0
 31 69  1  0  0  0  0
 31 70  1  0  0  0  0
 32 34  1  0  0  0  0
 32 72  1  0  0  0  0
 33 35  1  0  0  0  0
 33 73  1  0  0  0  0
 35 36  1  0  0  0  0
 35 74  1  0  0  0  0
 36 38  1  0  0  0  0
 36 75  1  0  0  0  0
 37 38  1  0  0  0  0
 37 39  1  0  0  0  0
 37 76  1  0  0  0  0
 38 77  1  0  0  0  0
 39 79  1  0  0  0  0
 39 80  1  0  0  0  0
 39 81  1  0  0  0  0
M  END
> <PUBCHEM_COMPOUND_CID>
12310256

> <PUBCHEM_CONFORMER_RMSD>
1

> <PUBCHEM_CONFORMER_DIVERSEORDER>
6
14
16
15
24
5
27
26
12
17
18
4
19
21
10
11
13
8
20
3
22
25
7
23
1
9
2

> <PUBCHEM_MMFF94_PARTIAL_CHARGES>
31
1 -0.68
10 -0.68
11 0.28
17 0.28
19 0.14
2 -0.68
27 0.28
29 0.28
3 -0.68
30 -0.28
31 0.42
32 -0.14
33 0.56
34 0.71
35 0.28
36 0.28
37 0.28
38 0.28
4 -0.56
5 -0.43
6 -0.56
67 0.4
68 0.4
7 -0.57
71 0.4
72 0.15
78 0.4
8 -0.68
82 0.4
83 0.4
9 -0.68

> <PUBCHEM_EFFECTIVE_ROTOR_COUNT>
7.8

> <PUBCHEM_PHARMACOPHORE_FEATURES>
21
1 1 acceptor
1 1 donor
1 10 acceptor
1 10 donor
1 2 acceptor
1 2 donor
1 3 acceptor
1 3 donor
1 4 acceptor
1 6 acceptor
1 7 acceptor
1 8 acceptor
1 8 donor
1 9 acceptor
1 9 donor
5 11 14 19 21 23 rings
5 5 30 31 32 34 rings
6 11 12 13 14 17 18 rings
6 12 13 15 16 20 22 rings
6 15 16 24 25 28 29 rings
6 6 33 35 36 37 38 rings

> <PUBCHEM_HEAVY_ATOM_COUNT>
39

> <PUBCHEM_ATOM_DEF_STEREO_COUNT>
14

> <PUBCHEM_ATOM_UDEF_STEREO_COUNT>
0

> <PUBCHEM_BOND_DEF_STEREO_COUNT>
0

> <PUBCHEM_BOND_UDEF_STEREO_COUNT>
0

> <PUBCHEM_ISOTOPIC_ATOM_COUNT>
0

> <PUBCHEM_COMPONENT_COUNT>
1

> <PUBCHEM_CACTVS_TAUTO_COUNT>
1

> <PUBCHEM_CONFORMER_ID>
00BBD6F000000006

> <PUBCHEM_MMFF94_ENERGY>
145.8595

> <PUBCHEM_FEATURE_SELFOVERLAP>
106.812

> <PUBCHEM_SHAPE_FINGERPRINT>
10 15 8790884077445124093
10299344 5 15140678077424718861
106641 1 6194835973997478630
11135926 11 18187083975511149327
11828532 37 18269545062196610386
12013929 94 7925616830957242077
12664476 115 18413390943724296797
12741549 16 16805608097150668728
13008946 282 16154000032524540784
13811026 1 18272647935623538122
13914758 101 17489870449175844158
14294032 229 17488189381665472557
15131766 46 16412078411345150212
15183329 4 18335139795996253417
15439362 3 17912639104345137212
15461852 350 13398625023009898227
15510794 2 18260548901509019191
1577012 14 16271937033985022333
15840311 113 17846494804463579908
18603816 31 16805615733444232799
18608769 82 18411699868326811237
19841028 212 18201441449870931994
20105231 36 18201431430149671027
21267235 1 18409444782509911472
21781051 124 18059286574239785851
21792938 703 16516549689711281503
21792961 116 18410295847907674541
22224240 67 7060378124226049116
23559900 14 18190183390608565360
23569917 315 18261382395832773198
23576562 1 15410031960230255079
24893992 56 18202281373310671459
249057 3 18040716939548448478
3092352 35 16272208583302556633
335352 9 18411975854894415446
335507 130 17022899052213891933
3633792 109 18060137687098317002
4169191 19 12823302308032581559
4353968 344 18338799047934286388
439807 62 18408039628430288268
45266715 3 18059288877186788402
474113 269 18199754803703027594
484989 97 18339073774974465323
5219985 9 16515404070786520032
6004065 56 17894910711965029952
6081469 158 18341895225654931428
6126387 218 15864068802168271945
6691757 9 13758064217589568849
9962374 69 16950576441144939765

> <PUBCHEM_SHAPE_MULTIPOLES>
743.91
27.85
2.11
1.62
19.49
0.13
0
5.31
-7.31
0.23
0.04
0.46
-0.41
1.58

> <PUBCHEM_SHAPE_SELFOVERLAP>
1603.777

> <PUBCHEM_SHAPE_VOLUME>
404.2

> <PUBCHEM_COORDINATE_TYPE>
2
5
10

$$$$

