22321203
  -OEChem-07051213103D

 43 43  0     0  0  0  0  0  0999 V2000
    3.5405    2.0038    0.1039 O   0  0  0  0  0  0  0  0  0  0  0  0
    0.8423    2.4933    0.3926 O   0  0  0  0  0  0  0  0  0  0  0  0
   -4.7277   -2.4636    0.0475 O   0  0  0  0  0  0  0  0  0  0  0  0
   -6.9108   -0.7534   -0.1198 O   0  0  0  0  0  0  0  0  0  0  0  0
    6.6620   -1.0526   -0.2683 C   0  0  0  0  0  0  0  0  0  0  0  0
    5.5941   -0.0086    0.0797 C   0  0  0  0  0  0  0  0  0  0  0  0
    7.9496   -0.9042    0.5432 C   0  0  0  0  0  0  0  0  0  0  0  0
    4.2846   -0.1426   -0.6981 C   0  0  0  0  0  0  0  0  0  0  0  0
    8.9689   -1.9680    0.1642 C   0  0  0  0  0  0  0  0  0  0  0  0
    3.2383    0.8792   -0.2862 C   0  0  0  0  0  0  0  0  0  0  0  0
    1.8179    0.4177   -0.3418 C   0  0  0  0  0  0  0  0  0  0  0  0
    0.7567    1.1809   -0.0238 C   0  0  0  0  0  0  0  0  0  0  0  0
   -3.0815    0.7834    0.1068 C   0  0  0  0  0  0  0  0  0  0  0  0
   -0.5977    0.6537   -0.1073 C   0  0  0  0  0  0  0  0  0  0  0  0
   -1.7176    1.3356    0.1881 C   0  0  0  0  0  0  0  0  0  0  0  0
   -3.2584   -0.5906    0.1163 C   0  0  0  0  0  0  0  0  0  0  0  0
   -4.5494   -1.1132    0.0402 C   0  0  0  0  0  0  0  0  0  0  0  0
   -4.1596    1.6491    0.0234 C   0  0  0  0  0  0  0  0  0  0  0  0
   -5.6455   -0.2546   -0.0444 C   0  0  0  0  0  0  0  0  0  0  0  0
   -5.4505    1.1265   -0.0527 C   0  0  0  0  0  0  0  0  0  0  0  0
   -3.5559   -3.2717    0.1365 C   0  0  0  0  0  0  0  0  0  0  0  0
    6.8956   -0.9785   -1.3377 H   0  0  0  0  0  0  0  0  0  0  0  0
    6.2453   -2.0542   -0.1046 H   0  0  0  0  0  0  0  0  0  0  0  0
    6.0116    0.9922   -0.0897 H   0  0  0  0  0  0  0  0  0  0  0  0
    5.3753   -0.0671    1.1539 H   0  0  0  0  0  0  0  0  0  0  0  0
    8.3820    0.0886    0.3742 H   0  0  0  0  0  0  0  0  0  0  0  0
    7.7250   -0.9835    1.6131 H   0  0  0  0  0  0  0  0  0  0  0  0
    4.4687   -0.0155   -1.7709 H   0  0  0  0  0  0  0  0  0  0  0  0
    3.8883   -1.1525   -0.5425 H   0  0  0  0  0  0  0  0  0  0  0  0
    9.2366   -1.8952   -0.8947 H   0  0  0  0  0  0  0  0  0  0  0  0
    8.5760   -2.9724    0.3516 H   0  0  0  0  0  0  0  0  0  0  0  0
    9.8820   -1.8447    0.7548 H   0  0  0  0  0  0  0  0  0  0  0  0
    1.6727   -0.6080   -0.6715 H   0  0  0  0  0  0  0  0  0  0  0  0
   -0.6520   -0.3706   -0.4663 H   0  0  0  0  0  0  0  0  0  0  0  0
   -1.6577    2.3708    0.5165 H   0  0  0  0  0  0  0  0  0  0  0  0
   -2.3959   -1.2346    0.2184 H   0  0  0  0  0  0  0  0  0  0  0  0
   -4.0237    2.7273    0.0143 H   0  0  0  0  0  0  0  0  0  0  0  0
   -6.2956    1.8067   -0.1186 H   0  0  0  0  0  0  0  0  0  0  0  0
    1.7768    2.7566    0.4140 H   0  0  0  0  0  0  0  0  0  0  0  0
   -7.5402   -0.0138   -0.1722 H   0  0  0  0  0  0  0  0  0  0  0  0
   -3.0319   -3.1209    1.0865 H   0  0  0  0  0  0  0  0  0  0  0  0
   -2.9014   -3.1342   -0.7312 H   0  0  0  0  0  0  0  0  0  0  0  0
   -3.8848   -4.3163    0.1205 H   0  0  0  0  0  0  0  0  0  0  0  0
  1 10  2  0  0  0  0
  2 12  1  0  0  0  0
  2 39  1  0  0  0  0
  3 17  1  0  0  0  0
  3 21  1  0  0  0  0
  4 19  1  0  0  0  0
  4 40  1  0  0  0  0
  5  6  1  0  0  0  0
  5  7  1  0  0  0  0
  5 22  1  0  0  0  0
  5 23  1  0  0  0  0
  6  8  1  0  0  0  0
  6 24  1  0  0  0  0
  6 25  1  0  0  0  0
  7  9  1  0  0  0  0
  7 26  1  0  0  0  0
  7 27  1  0  0  0  0
  8 10  1  0  0  0  0
  8 28  1  0  0  0  0
  8 29  1  0  0  0  0
  9 30  1  0  0  0  0
  9 31  1  0  0  0  0
  9 32  1  0  0  0  0
 10 11  1  0  0  0  0
 11 12  2  0  0  0  0
 11 33  1  0  0  0  0
 12 14  1  0  0  0  0
 13 15  1  0  0  0  0
 13 16  2  0  0  0  0
 13 18  1  0  0  0  0
 14 15  2  0  0  0  0
 14 34  1  0  0  0  0
 15 35  1  0  0  0  0
 16 17  1  0  0  0  0
 16 36  1  0  0  0  0
 17 19  2  0  0  0  0
 18 20  2  0  0  0  0
 18 37  1  0  0  0  0
 19 20  1  0  0  0  0
 20 38  1  0  0  0  0
 21 41  1  0  0  0  0
 21 42  1  0  0  0  0
 21 43  1  0  0  0  0
M  END
> <PUBCHEM_COMPOUND_CID>
22321203

> <PUBCHEM_CONFORMER_RMSD>
0.8

> <PUBCHEM_CONFORMER_DIVERSEORDER>
12
351
282
214
79
299
220
199
27
350
323
230
39
60
106
309
216
16
92
296
227
131
204
353
72
135
250
174
302
343
41
28
348
189
9
324
29
125
247
344
265
311
105
75
264
40
195
303
93
11
338
329
300
213
355
233
322
134
117
77
31
185
253
108
126
234
123
120
225
333
285
295
23
235
319
208
337
78
301
150
80
54
266
36
191
102
236
154
148
48
257
97
45
287
314
182
288
147
94
104
330
15
318
51
298
2
321
133
181
8
209
281
87
222
249
84
67
22
157
200
38
259
56
251
76
270
362
42
271
107
95
198
272
7
226
243
326
347
206
269
328
312
205
5
62
101
47
65
310
194
210
354
3
283
254
218
358
73
177
6
219
166
215
255
53
69
231
64
4
171
34
224
100
119
349
202
317
24
196
239
63
359
124
258
268
212
277
246
306
122
19
217
305
162
17
142
261
267
178
88
361
57
155
32
127
241
143
197
149
286
83
252
146
50
59
184
68
121
85
327
25
1
159
279
242
165
170
245
172
144
232
33
136
52
315
55
168
273
110
89
20
35
346
223
335
151
331
193
307
161
173
44
37
164
158
294
118
345
160
248
71
229
70
141
276
332
153
163
156
99
293
111
336
313
340
109
137
201
21
46
175
152
61
26
357
113
176
339
284
10
115
130
145
81
316
278
14
240
66
18
114
274
103
356
116
186
58
320
280
86
188
139
256
179
211
203
74
260
43
207
13
237
129
334
238
244
221
30
132
341
169
91
360
138
275
308
262
325
228
167
128
289
187
49
291
292
140
352
82
263
90
304
192
98
342
290
180
190
183
297
96
112

> <PUBCHEM_MMFF94_PARTIAL_CHARGES>
25
1 -0.57
10 0.49
11 -0.14
12 0.08
13 0.03
14 -0.15
15 -0.18
16 -0.15
17 0.08
18 -0.15
19 0.08
2 -0.53
20 -0.15
21 0.28
3 -0.36
33 0.15
34 0.15
35 0.15
36 0.15
37 0.15
38 0.15
39 0.45
4 -0.53
40 0.45
8 0.06

> <PUBCHEM_EFFECTIVE_ROTOR_COUNT>
8

> <PUBCHEM_PHARMACOPHORE_FEATURES>
7
1 1 acceptor
1 2 donor
1 3 acceptor
1 4 donor
1 9 hydrophobe
4 5 6 7 8 hydrophobe
6 13 16 17 18 19 20 rings

> <PUBCHEM_HEAVY_ATOM_COUNT>
21

> <PUBCHEM_ATOM_DEF_STEREO_COUNT>
0

> <PUBCHEM_ATOM_UDEF_STEREO_COUNT>
0

> <PUBCHEM_BOND_DEF_STEREO_COUNT>
2

> <PUBCHEM_BOND_UDEF_STEREO_COUNT>
0

> <PUBCHEM_ISOTOPIC_ATOM_COUNT>
0

> <PUBCHEM_COMPONENT_COUNT>
1

> <PUBCHEM_CACTVS_TAUTO_COUNT>
28

> <PUBCHEM_CONFORMER_ID>
015498330000000C

> <PUBCHEM_MMFF94_ENERGY>
51.1748

> <PUBCHEM_FEATURE_SELFOVERLAP>
35.52

> <PUBCHEM_SHAPE_FINGERPRINT>
10 15 17603590716866124748
10299344 5 18201997751155929870
10369192 42 10375867476875071346
106641 1 5400795081808152101
10670039 82 13973689459685745446
11135609 99 18408040698441621822
11315181 36 18260827107324807105
11524674 6 17530966882170666175
11719270 70 18187081772187469870
11991303 11 14045447926463155040
12643181 29 18411984671697798583
13288520 33 18411418414878035197
13668630 136 17632857516678025298
13862211 1 18412260662612916052
13885169 127 18339363066796981100
14420673 8 18411698777204995571
14556957 393 15554152796815827678
15183329 4 15410896275786671080
15419008 91 18266762288957739212
15690457 1 18408046221469052694
15716309 27 18259988171795012644
17492 89 18051973619914874107
20526848 3 8214137465763029354
20735858 18 17313106376078922916
21267235 1 18413103961465252449
21623969 137 17530679931532314702
22224240 67 15791740719790714092
23035841 295 18412260648878772632
23522609 53 18054756660044813348
23559900 14 18264776450571881921
3004659 81 18202284697662740104
4073 2 18129377112332363576
4214541 1 18410008819739177845
445580 37 9799692627844658970
5104073 3 18114174186124246961
559249 180 18411981369210449565
5758199 1 5978101341579259516
6138700 20 18413670227165133282
999808 66 17917135127543767251

> <PUBCHEM_SHAPE_MULTIPOLES>
408.69
23.12
2.58
0.66
39.78
1.46
0.01
14.1
-1.14
-1.97
-0.22
0.3
0
-0.17

> <PUBCHEM_SHAPE_SELFOVERLAP>
826.999

> <PUBCHEM_SHAPE_VOLUME>
238.3

> <PUBCHEM_COORDINATE_TYPE>
2
5
10

$$$$

