443071
  -OEChem-07051213013D

 16 16  0     0  0  0  0  0  0999 V2000
   -2.1737   -0.2574   -0.0113 S   0  0  0  0  0  0  0  0  0  0  0  0
   -0.9496    0.8407   -0.0036 O   0  0  0  0  0  0  0  0  0  0  0  0
    2.4862    0.9335    0.0053 O   0  0  0  0  0  0  0  0  0  0  0  0
   -3.5024    0.6706    0.1679 O   0  0  0  0  0  0  0  0  0  0  0  0
   -2.0561   -1.0800    1.1784 O   0  0  0  0  0  0  0  0  0  0  0  0
   -2.2393   -0.8579   -1.3307 O   0  0  0  0  0  0  0  0  0  0  0  0
    1.2419    1.5521    0.0049 N   0  0  0  0  0  0  0  0  0  0  0  0
    2.3170   -0.4135   -0.0013 C   0  0  0  0  0  0  0  0  0  0  0  0
    0.3578    0.5503   -0.0019 C   0  0  0  0  0  0  0  0  0  0  0  0
    0.9798   -0.7102   -0.0060 C   0  0  0  0  0  0  0  0  0  0  0  0
    3.5385   -1.2281   -0.0018 C   0  0  0  0  0  0  0  0  0  0  0  0
    0.5336   -1.6936   -0.0134 H   0  0  0  0  0  0  0  0  0  0  0  0
    4.1405   -1.0196    0.8880 H   0  0  0  0  0  0  0  0  0  0  0  0
    3.3009   -2.2965   -0.0074 H   0  0  0  0  0  0  0  0  0  0  0  0
    4.1452   -1.0114   -0.8864 H   0  0  0  0  0  0  0  0  0  0  0  0
   -4.3586    0.1821    0.1875 H   0  0  0  0  0  0  0  0  0  0  0  0
  1  2  1  0  0  0  0
  1  4  1  0  0  0  0
  1  5  2  0  0  0  0
  1  6  2  0  0  0  0
  2  9  1  0  0  0  0
  3  7  1  0  0  0  0
  3  8  1  0  0  0  0
  4 16  1  0  0  0  0
  7  9  2  0  0  0  0
  8 10  2  0  0  0  0
  8 11  1  0  0  0  0
  9 10  1  0  0  0  0
 10 12  1  0  0  0  0
 11 13  1  0  0  0  0
 11 14  1  0  0  0  0
 11 15  1  0  0  0  0
M  END
> <PUBCHEM_COMPOUND_CID>
443071

> <PUBCHEM_CONFORMER_RMSD>
0.4

> <PUBCHEM_CONFORMER_DIVERSEORDER>
1
6
5
2
3
4

> <PUBCHEM_MMFF94_PARTIAL_CHARGES>
13
1 1.67
10 -0.15
11 0.18
12 0.15
16 0.5
2 -0.25
3 -0.02
4 -0.68
5 -0.65
6 -0.65
7 -0.41
8 -0.04
9 0.35

> <PUBCHEM_EFFECTIVE_ROTOR_COUNT>
2

> <PUBCHEM_PHARMACOPHORE_FEATURES>
6
1 4 acceptor
1 5 acceptor
1 6 acceptor
1 7 acceptor
4 1 4 5 6 anion
5 3 7 8 9 10 rings

> <PUBCHEM_HEAVY_ATOM_COUNT>
11

> <PUBCHEM_ATOM_DEF_STEREO_COUNT>
0

> <PUBCHEM_ATOM_UDEF_STEREO_COUNT>
0

> <PUBCHEM_BOND_DEF_STEREO_COUNT>
0

> <PUBCHEM_BOND_UDEF_STEREO_COUNT>
0

> <PUBCHEM_ISOTOPIC_ATOM_COUNT>
0

> <PUBCHEM_COMPONENT_COUNT>
1

> <PUBCHEM_CACTVS_TAUTO_COUNT>
1

> <PUBCHEM_CONFORMER_ID>
0006C2BF00000001

> <PUBCHEM_MMFF94_ENERGY>
8.8492

> <PUBCHEM_FEATURE_SELFOVERLAP>
30.505

> <PUBCHEM_SHAPE_FINGERPRINT>
10130415 120 18341051908040482168
12932741 1 17775010041864223374
12932764 1 17895187740869815457
14325111 11 18410573955097262064
14577589 140 18261673765679832047
18511873 20 18261391195576060145
20201158 50 18341893034298859915
20871998 22 18044369659506082822
23402539 116 17168435969054588377
29004967 10 18341328911982637272
3248919 1 18130232549099901004

> <PUBCHEM_SHAPE_MULTIPOLES>
195.9
5.42
1.32
0.81
0.13
0.17
0.05
-1.17
-0.03
-0.43
-0.03
0.51
-0.25
-0.02

> <PUBCHEM_SHAPE_SELFOVERLAP>
388.446

> <PUBCHEM_SHAPE_VOLUME>
118.1

> <PUBCHEM_COORDINATE_TYPE>
2
5
10

$$$$

