1137
  -OEChem-07051212493D

 23 23  0     0  0  0  0  0  0999 V2000
   -2.4735    1.5145   -0.6624 S   0  0  0  0  0  0  0  0  0  0  0  0
    2.7218   -0.2899   -0.3116 P   0  0  0  0  0  0  0  0  0  0  0  0
    1.2740   -0.0977    0.3870 O   0  0  0  0  0  0  0  0  0  0  0  0
    3.7216    0.5541    0.6388 O   0  0  0  0  0  0  0  0  0  0  0  0
    2.6071    0.6274   -1.6384 O   0  0  0  0  0  0  0  0  0  0  0  0
    3.1220   -1.7149   -0.5590 O   0  0  0  0  0  0  0  0  0  0  0  0
   -2.9562   -1.0234   -0.5715 N   0  0  0  0  0  0  0  0  0  0  0  0
   -0.5556    1.1958    1.3114 C   0  0  0  0  0  0  0  0  0  0  0  0
   -1.5948    0.5508    0.4255 C   0  0  0  0  0  0  0  0  0  0  0  0
    0.8220    1.2186    0.6547 C   0  0  0  0  0  0  0  0  0  0  0  0
   -1.9641   -0.7536    0.3508 C   0  0  0  0  0  0  0  0  0  0  0  0
   -1.4226   -1.8795    1.1391 C   0  0  0  0  0  0  0  0  0  0  0  0
   -3.3015    0.0977   -1.1645 C   0  0  0  0  0  0  0  0  0  0  0  0
   -0.4979    0.6361    2.2528 H   0  0  0  0  0  0  0  0  0  0  0  0
   -0.8557    2.2179    1.5721 H   0  0  0  0  0  0  0  0  0  0  0  0
    1.5299    1.7110    1.3292 H   0  0  0  0  0  0  0  0  0  0  0  0
    0.7869    1.7877   -0.2802 H   0  0  0  0  0  0  0  0  0  0  0  0
   -0.4444   -2.1838    0.7555 H   0  0  0  0  0  0  0  0  0  0  0  0
   -1.3170   -1.6136    2.1953 H   0  0  0  0  0  0  0  0  0  0  0  0
   -2.0872   -2.7481    1.0847 H   0  0  0  0  0  0  0  0  0  0  0  0
   -4.0654    0.1323   -1.9291 H   0  0  0  0  0  0  0  0  0  0  0  0
    4.6845    0.5318    0.4532 H   0  0  0  0  0  0  0  0  0  0  0  0
    3.3380    0.6095   -2.2924 H   0  0  0  0  0  0  0  0  0  0  0  0
  1  9  1  0  0  0  0
  1 13  1  0  0  0  0
  2  3  1  0  0  0  0
  2  4  1  0  0  0  0
  2  5  1  0  0  0  0
  2  6  2  0  0  0  0
  3 10  1  0  0  0  0
  4 22  1  0  0  0  0
  5 23  1  0  0  0  0
  7 11  1  0  0  0  0
  7 13  2  0  0  0  0
  8  9  1  0  0  0  0
  8 10  1  0  0  0  0
  8 14  1  0  0  0  0
  8 15  1  0  0  0  0
  9 11  2  0  0  0  0
 10 16  1  0  0  0  0
 10 17  1  0  0  0  0
 11 12  1  0  0  0  0
 12 18  1  0  0  0  0
 12 19  1  0  0  0  0
 12 20  1  0  0  0  0
 13 21  1  0  0  0  0
M  END
> <PUBCHEM_COMPOUND_CID>
1137

> <PUBCHEM_CONFORMER_RMSD>
0.6

> <PUBCHEM_CONFORMER_DIVERSEORDER>
1
11
17
16
6
9
15
20
5
14
7
3
10
19
18
8
4
2
13
12

> <PUBCHEM_MMFF94_PARTIAL_CHARGES>
16
1 -0.08
10 0.28
11 0.05
12 0.18
13 0.23
2 1.51
21 0.15
22 0.5
23 0.5
3 -0.55
4 -0.77
5 -0.77
6 -0.7
7 -0.57
8 0.18
9 -0.14

> <PUBCHEM_EFFECTIVE_ROTOR_COUNT>
4

> <PUBCHEM_PHARMACOPHORE_FEATURES>
6
1 4 acceptor
1 5 acceptor
1 6 acceptor
1 7 acceptor
4 2 4 5 6 anion
5 1 7 9 11 13 rings

> <PUBCHEM_HEAVY_ATOM_COUNT>
13

> <PUBCHEM_ATOM_DEF_STEREO_COUNT>
0

> <PUBCHEM_ATOM_UDEF_STEREO_COUNT>
0

> <PUBCHEM_BOND_DEF_STEREO_COUNT>
0

> <PUBCHEM_BOND_UDEF_STEREO_COUNT>
0

> <PUBCHEM_ISOTOPIC_ATOM_COUNT>
0

> <PUBCHEM_COMPONENT_COUNT>
1

> <PUBCHEM_CACTVS_TAUTO_COUNT>
1

> <PUBCHEM_CONFORMER_ID>
0000047100000001

> <PUBCHEM_MMFF94_ENERGY>
-20.513

> <PUBCHEM_FEATURE_SELFOVERLAP>
30.482

> <PUBCHEM_SHAPE_FINGERPRINT>
10857977 72 7997689869839659433
11127187 94 18333447642889323279
12251169 10 8430309173554604007
12696612 119 8574421062768763010
12716758 59 18341897419586790545
13296908 3 17749388182769143140
13897977 13 10591460841983413079
15775835 57 15554457300884581639
17834072 14 18263095430199063130
18186145 218 18129945701113672414
20201158 50 18261397719325460130
20279233 1 18334297552402982314
20361792 2 17095241401982398369
20645476 183 17131849654825261019
20645477 56 18201721764514953397
20653085 51 17203320135122943109
20671657 53 17967818244916886408
21524375 3 13686304581942537401
22802520 49 18270400469315900905
22959321 28 7997673282407164314
23557571 272 17844809174657747000
23559900 14 18335432313344289090
2748010 2 17908147568794564875
3248919 1 18272363170554146448
8030462 33 18261097604570375956
81228 2 17896588677708701672

> <PUBCHEM_SHAPE_MULTIPOLES>
246.77
6.05
1.72
1.3
3.67
0.49
0.08
0.46
2.17
-0.5
-0.23
0.01
-0.16
0.46

> <PUBCHEM_SHAPE_SELFOVERLAP>
469.248

> <PUBCHEM_SHAPE_VOLUME>
154.5

> <PUBCHEM_COORDINATE_TYPE>
2
5
10

$$$$

