14045
  -OEChem-06241222413D

 29 28  0     1  0  0  0  0  0999 V2000
   -0.6120   -0.6283   -0.4047 C   0  0  2  0  0  0  0  0  0  0  0  0
    0.7706   -0.8113    0.2690 C   0  0  0  0  0  0  0  0  0  0  0  0
   -1.3459    0.6758    0.0208 C   0  0  0  0  0  0  0  0  0  0  0  0
    1.7751    0.3458    0.0971 C   0  0  0  0  0  0  0  0  0  0  0  0
   -1.4432   -1.8982   -0.1652 C   0  0  0  0  0  0  0  0  0  0  0  0
   -1.6320    0.7067    1.5270 C   0  0  0  0  0  0  0  0  0  0  0  0
   -2.6409    0.9407   -0.7519 C   0  0  0  0  0  0  0  0  0  0  0  0
    2.0235    0.5945   -1.3939 C   0  0  0  0  0  0  0  0  0  0  0  0
    3.1048    0.0745    0.8018 C   0  0  0  0  0  0  0  0  0  0  0  0
   -0.4544   -0.5729   -1.4894 H   0  0  0  0  0  0  0  0  0  0  0  0
    0.6349   -1.0021    1.3411 H   0  0  0  0  0  0  0  0  0  0  0  0
    1.2288   -1.7268   -0.1314 H   0  0  0  0  0  0  0  0  0  0  0  0
   -0.6899    1.5246   -0.2055 H   0  0  0  0  0  0  0  0  0  0  0  0
    1.3619    1.2589    0.5398 H   0  0  0  0  0  0  0  0  0  0  0  0
   -0.9200   -2.7767   -0.5597 H   0  0  0  0  0  0  0  0  0  0  0  0
   -2.4102   -1.8466   -0.6736 H   0  0  0  0  0  0  0  0  0  0  0  0
   -1.6222   -2.0746    0.8998 H   0  0  0  0  0  0  0  0  0  0  0  0
   -2.3167   -0.0913    1.8303 H   0  0  0  0  0  0  0  0  0  0  0  0
   -2.1005    1.6584    1.8030 H   0  0  0  0  0  0  0  0  0  0  0  0
   -0.7162    0.6217    2.1185 H   0  0  0  0  0  0  0  0  0  0  0  0
   -3.4191    0.2119   -0.5050 H   0  0  0  0  0  0  0  0  0  0  0  0
   -2.4628    0.9007   -1.8313 H   0  0  0  0  0  0  0  0  0  0  0  0
   -3.0337    1.9357   -0.5156 H   0  0  0  0  0  0  0  0  0  0  0  0
    1.1264    0.9639   -1.8991 H   0  0  0  0  0  0  0  0  0  0  0  0
    2.3552   -0.3177   -1.9018 H   0  0  0  0  0  0  0  0  0  0  0  0
    2.7999    1.3551   -1.5330 H   0  0  0  0  0  0  0  0  0  0  0  0
    3.7888    0.9221    0.6877 H   0  0  0  0  0  0  0  0  0  0  0  0
    3.5953   -0.8160    0.3942 H   0  0  0  0  0  0  0  0  0  0  0  0
    2.9469   -0.0870    1.8732 H   0  0  0  0  0  0  0  0  0  0  0  0
  1  2  1  0  0  0  0
  1  3  1  0  0  0  0
  1  5  1  0  0  0  0
  1 10  1  0  0  0  0
  2  4  1  0  0  0  0
  2 11  1  0  0  0  0
  2 12  1  0  0  0  0
  3  6  1  0  0  0  0
  3  7  1  0  0  0  0
  3 13  1  0  0  0  0
  4  8  1  0  0  0  0
  4  9  1  0  0  0  0
  4 14  1  0  0  0  0
  5 15  1  0  0  0  0
  5 16  1  0  0  0  0
  5 17  1  0  0  0  0
  6 18  1  0  0  0  0
  6 19  1  0  0  0  0
  6 20  1  0  0  0  0
  7 21  1  0  0  0  0
  7 22  1  0  0  0  0
  7 23  1  0  0  0  0
  8 24  1  0  0  0  0
  8 25  1  0  0  0  0
  8 26  1  0  0  0  0
  9 27  1  0  0  0  0
  9 28  1  0  0  0  0
  9 29  1  0  0  0  0
M  END
> <PUBCHEM_COMPOUND_CID>
14045

> <PUBCHEM_CONFORMER_RMSD>
0.6

> <PUBCHEM_CONFORMER_DIVERSEORDER>
1
4
2
3

> <PUBCHEM_MMFF94_PARTIAL_CHARGES>
0

> <PUBCHEM_EFFECTIVE_ROTOR_COUNT>
3

> <PUBCHEM_PHARMACOPHORE_FEATURES>
4
1 5 hydrophobe
3 3 6 7 hydrophobe
3 4 8 9 hydrophobe
4 1 2 3 4 hydrophobe

> <PUBCHEM_HEAVY_ATOM_COUNT>
9

> <PUBCHEM_ATOM_DEF_STEREO_COUNT>
0

> <PUBCHEM_ATOM_UDEF_STEREO_COUNT>
1

> <PUBCHEM_BOND_DEF_STEREO_COUNT>
0

> <PUBCHEM_BOND_UDEF_STEREO_COUNT>
0

> <PUBCHEM_ISOTOPIC_ATOM_COUNT>
0

> <PUBCHEM_COMPONENT_COUNT>
1

> <PUBCHEM_CACTVS_TAUTO_COUNT>
1

> <PUBCHEM_CONFORMER_ID>
000036DD00000001

> <PUBCHEM_MMFF94_ENERGY>
13.0543

> <PUBCHEM_FEATURE_SELFOVERLAP>
20.486

> <PUBCHEM_SHAPE_FINGERPRINT>
12897270 3 15285654191231093784
12932741 1 17676760998869000836
12932764 1 18201146668641568524
14390081 3 17603307076397819560
15775835 57 18343021077594758780
19837323 101 17313653936584358315
20653085 51 18202281433060119453
21028194 46 18335421317542299679
21040471 1 18336823190456702230
23402539 116 17168728403938298196
24536 1 17677040274680160860
29004967 10 16056886849016626816
3248919 1 17821725027180619964
369184 2 18342746182333573552
5084963 1 18412820300328959082

> <PUBCHEM_SHAPE_MULTIPOLES>
185.22
4.1
1.39
1.26
1.76
0.65
-0.1
-1.03
-0.09
-0.86
0.11
0.06
-0.35
-0.24

> <PUBCHEM_SHAPE_SELFOVERLAP>
329.59

> <PUBCHEM_SHAPE_VOLUME>
123.9

> <PUBCHEM_COORDINATE_TYPE>
2
5
10

$$$$

