4688
  -OEChem-06261200173D

 25 25  0     1  0  0  0  0  0999 V2000
   -1.3584   -0.1102    0.1542 N   0  0  1  0  0  0  0  0  0  0  0  0
   -0.2863   -0.3383    1.1224 C   0  0  0  0  0  0  0  0  0  0  0  0
    1.0753   -0.1880    0.4974 C   0  0  0  0  0  0  0  0  0  0  0  0
   -2.6641   -0.3216    0.7779 C   0  0  0  0  0  0  0  0  0  0  0  0
   -1.2688    1.2407   -0.3989 C   0  0  0  0  0  0  0  0  0  0  0  0
    1.6947   -1.2951   -0.0655 C   0  0  0  0  0  0  0  0  0  0  0  0
    1.6916    1.0556    0.4925 C   0  0  0  0  0  0  0  0  0  0  0  0
    2.9559   -1.1560   -0.6446 C   0  0  0  0  0  0  0  0  0  0  0  0
    2.9528    1.1946   -0.0869 C   0  0  0  0  0  0  0  0  0  0  0  0
    3.5850    0.0888   -0.6554 C   0  0  0  0  0  0  0  0  0  0  0  0
   -3.7445   -0.1534   -0.1987 C   0  0  0  0  0  0  0  0  0  0  0  0
   -4.6333   -0.0170   -0.9945 C   0  0  0  0  0  0  0  0  0  0  0  0
   -0.3667   -1.3528    1.5361 H   0  0  0  0  0  0  0  0  0  0  0  0
   -0.3714    0.3389    1.9841 H   0  0  0  0  0  0  0  0  0  0  0  0
   -2.7201   -1.3410    1.1797 H   0  0  0  0  0  0  0  0  0  0  0  0
   -2.8171    0.3653    1.6203 H   0  0  0  0  0  0  0  0  0  0  0  0
   -0.3868    1.3633   -1.0348 H   0  0  0  0  0  0  0  0  0  0  0  0
   -1.2640    2.0126    0.3800 H   0  0  0  0  0  0  0  0  0  0  0  0
   -2.0948    1.4720   -1.0800 H   0  0  0  0  0  0  0  0  0  0  0  0
    1.2132   -2.2689   -0.0646 H   0  0  0  0  0  0  0  0  0  0  0  0
    1.2191    1.9234    0.9439 H   0  0  0  0  0  0  0  0  0  0  0  0
    3.4480   -2.0169   -1.0878 H   0  0  0  0  0  0  0  0  0  0  0  0
    3.4442    2.1632   -0.0925 H   0  0  0  0  0  0  0  0  0  0  0  0
    4.5673    0.1970   -1.1059 H   0  0  0  0  0  0  0  0  0  0  0  0
   -5.4211    0.1044   -1.7006 H   0  0  0  0  0  0  0  0  0  0  0  0
  1  2  1  0  0  0  0
  1  4  1  0  0  0  0
  1  5  1  0  0  0  0
  2  3  1  0  0  0  0
  2 13  1  0  0  0  0
  2 14  1  0  0  0  0
  3  6  2  0  0  0  0
  3  7  1  0  0  0  0
  4 11  1  0  0  0  0
  4 15  1  0  0  0  0
  4 16  1  0  0  0  0
  5 17  1  0  0  0  0
  5 18  1  0  0  0  0
  5 19  1  0  0  0  0
  6  8  1  0  0  0  0
  6 20  1  0  0  0  0
  7  9  2  0  0  0  0
  7 21  1  0  0  0  0
  8 10  2  0  0  0  0
  8 22  1  0  0  0  0
  9 10  1  0  0  0  0
  9 23  1  0  0  0  0
 10 24  1  0  0  0  0
 11 12  3  0  0  0  0
 12 25  1  0  0  0  0
M  END
> <PUBCHEM_COMPOUND_CID>
4688

> <PUBCHEM_CONFORMER_RMSD>
0.6

> <PUBCHEM_CONFORMER_DIVERSEORDER>
1
13
6
14
9
12
15
16
3
5
7
2
11
10
8
4

> <PUBCHEM_MMFF94_PARTIAL_CHARGES>
18
1 -0.81
10 -0.15
11 -0.2
12 -0.18
2 0.41
20 0.15
21 0.15
22 0.15
23 0.15
24 0.15
25 0.18
3 -0.14
4 0.47
5 0.27
6 -0.15
7 -0.15
8 -0.15
9 -0.15

> <PUBCHEM_EFFECTIVE_ROTOR_COUNT>
3

> <PUBCHEM_PHARMACOPHORE_FEATURES>
3
1 1 cation
1 12 hydrophobe
6 3 6 7 8 9 10 rings

> <PUBCHEM_HEAVY_ATOM_COUNT>
12

> <PUBCHEM_ATOM_DEF_STEREO_COUNT>
0

> <PUBCHEM_ATOM_UDEF_STEREO_COUNT>
0

> <PUBCHEM_BOND_DEF_STEREO_COUNT>
0

> <PUBCHEM_BOND_UDEF_STEREO_COUNT>
0

> <PUBCHEM_ISOTOPIC_ATOM_COUNT>
0

> <PUBCHEM_COMPONENT_COUNT>
1

> <PUBCHEM_CACTVS_TAUTO_COUNT>
1

> <PUBCHEM_CONFORMER_ID>
0000125000000001

> <PUBCHEM_MMFF94_ENERGY>
32.4597

> <PUBCHEM_FEATURE_SELFOVERLAP>
15.223

> <PUBCHEM_SHAPE_FINGERPRINT>
11062470 55 14836125450931831733
11471102 20 18408602552598094500
11543360 7 18261117322881270047
12251169 10 8790879675029721018
12897270 3 18342453742305395202
13581323 91 5473138526893233665
13675066 3 8070032181596791403
14251717 144 18260830401364048534
14993402 34 17822289067797167885
15477762 27 18113615707595458734
177051 138 15068344505873286335
18186145 218 18060415837437881825
18915474 69 17458350701955409263
19026448 5 17385715902999226881
19422 9 17095232640180230995
200 152 18040998457553738683
20201158 50 18412820291897247738
20279233 1 18201999915144337379
20361792 2 16081378470150992457
20606313 2 18341612586114693132
20645477 70 18409166649092012895
20767249 442 16487259871850615231
21119208 17 18335138687272160031
21501502 16 18196369440531254624
22485316 2 16877665668917063367
23402539 116 17846224315153206246
23402655 69 18408885156898107053
3060560 45 18409451379743319118
42 15 7565347548111888301
465052 167 15864355675960942125
522135 26 18186803590943947695
581208 293 18334298643256136064

> <PUBCHEM_SHAPE_MULTIPOLES>
241.97
7.66
1.24
0.99
6.2
0.08
-0.05
-0.23
2.69
-0.89
0.08
0.29
-0.06
0.32

> <PUBCHEM_SHAPE_SELFOVERLAP>
488.978

> <PUBCHEM_SHAPE_VOLUME>
142

> <PUBCHEM_COORDINATE_TYPE>
2
5
10

$$$$

