5459914
  -OEChem-07051212493D

 14 14  0     0  0  0  0  0  0999 V2000
    1.2602   -1.0474   -0.1577 O   0  0  0  0  0  0  0  0  0  0  0  0
    3.4709   -0.4249   -0.0148 O   0  0  0  0  0  0  0  0  0  0  0  0
   -3.3972   -0.7283    0.4357 O   0  0  0  0  0  0  0  0  0  0  0  0
   -2.4335    1.1622   -0.3865 O   0  0  0  0  0  0  0  0  0  0  0  0
    0.1064   -0.2832   -0.0552 C   0  0  0  0  0  0  0  0  0  0  0  0
    0.4374    1.0786    0.1729 C   0  0  0  0  0  0  0  0  0  0  0  0
    1.7560    1.2043    0.2183 C   0  0  0  0  0  0  0  0  0  0  0  0
   -1.1199   -0.8012   -0.1627 C   0  0  0  0  0  0  0  0  0  0  0  0
    2.2825   -0.1471    0.0078 C   0  0  0  0  0  0  0  0  0  0  0  0
   -2.3628   -0.0130   -0.0577 C   0  0  0  0  0  0  0  0  0  0  0  0
   -0.2434    1.9022    0.3086 H   0  0  0  0  0  0  0  0  0  0  0  0
    2.3413    2.0919    0.3802 H   0  0  0  0  0  0  0  0  0  0  0  0
   -1.2406   -1.8717   -0.3031 H   0  0  0  0  0  0  0  0  0  0  0  0
   -4.2170   -0.1933    0.5006 H   0  0  0  0  0  0  0  0  0  0  0  0
  1  5  1  0  0  0  0
  1  9  1  0  0  0  0
  2  9  2  0  0  0  0
  3 10  1  0  0  0  0
  3 14  1  0  0  0  0
  4 10  2  0  0  0  0
  5  6  1  0  0  0  0
  5  8  2  0  0  0  0
  6  7  2  0  0  0  0
  6 11  1  0  0  0  0
  7  9  1  0  0  0  0
  7 12  1  0  0  0  0
  8 10  1  0  0  0  0
  8 13  1  0  0  0  0
M  END
> <PUBCHEM_COMPOUND_CID>
5459914

> <PUBCHEM_CONFORMER_RMSD>
0.4

> <PUBCHEM_CONFORMER_DIVERSEORDER>
2
3
1

> <PUBCHEM_MMFF94_PARTIAL_CHARGES>
14
1 -0.23
10 0.71
11 0.15
12 0.15
13 0.15
14 0.5
2 -0.57
3 -0.65
4 -0.57
5 0.08
6 -0.15
7 -0.14
8 -0.14
9 0.71

> <PUBCHEM_EFFECTIVE_ROTOR_COUNT>
1.2

> <PUBCHEM_PHARMACOPHORE_FEATURES>
5
1 2 acceptor
1 3 acceptor
1 4 acceptor
3 3 4 10 anion
5 1 5 6 7 9 rings

> <PUBCHEM_HEAVY_ATOM_COUNT>
10

> <PUBCHEM_ATOM_DEF_STEREO_COUNT>
0

> <PUBCHEM_ATOM_UDEF_STEREO_COUNT>
0

> <PUBCHEM_BOND_DEF_STEREO_COUNT>
1

> <PUBCHEM_BOND_UDEF_STEREO_COUNT>
0

> <PUBCHEM_ISOTOPIC_ATOM_COUNT>
0

> <PUBCHEM_COMPONENT_COUNT>
1

> <PUBCHEM_CACTVS_TAUTO_COUNT>
1

> <PUBCHEM_CONFORMER_ID>
00534FCA00000002

> <PUBCHEM_MMFF94_ENERGY>
18.5377

> <PUBCHEM_FEATURE_SELFOVERLAP>
25.429

> <PUBCHEM_SHAPE_FINGERPRINT>
10219947 1 17821728347021502374
10857977 72 18060140886611484705
11062470 55 5689597186320042227
12032990 46 18336258024653837422
12932764 1 18040721333289247549
14325111 11 18410857642013889093
17844478 74 18272363157774882601
19973954 147 18412263917639308061
20201158 50 18410012156374625511
21040471 1 18192436264443174756
23402655 69 18191322661497706325
23552423 10 18271528597967748702
29004967 10 18408603673394609338
5084963 1 18411980235012172257

> <PUBCHEM_SHAPE_MULTIPOLES>
182.32
4.82
1.21
0.62
0.93
0.24
-0.01
-0.54
-0.23
-0.06
0.01
0.08
0.02
0.23

> <PUBCHEM_SHAPE_SELFOVERLAP>
384.694

> <PUBCHEM_SHAPE_VOLUME>
103.2

> <PUBCHEM_COORDINATE_TYPE>
2
5
10

$$$$

