15070
  -OEChem-07051212463D

 15 15  0     0  0  0  0  0  0999 V2000
    2.3479    1.1433    0.0080 O   0  0  0  0  0  0  0  0  0  0  0  0
   -0.3020   -1.1811    0.0014 N   0  0  0  0  0  0  0  0  0  0  0  0
    2.3861   -1.1495   -0.0025 N   0  0  0  0  0  0  0  0  0  0  0  0
    0.2636    0.0467   -0.0017 C   0  0  0  0  0  0  0  0  0  0  0  0
   -0.4546    1.2317   -0.0035 C   0  0  0  0  0  0  0  0  0  0  0  0
   -1.8426    1.1512   -0.0017 C   0  0  0  0  0  0  0  0  0  0  0  0
   -2.4613   -0.0941    0.0016 C   0  0  0  0  0  0  0  0  0  0  0  0
    1.7162    0.0713   -0.0045 C   0  0  0  0  0  0  0  0  0  0  0  0
   -1.6533   -1.2196    0.0029 C   0  0  0  0  0  0  0  0  0  0  0  0
    0.0273    2.2035   -0.0066 H   0  0  0  0  0  0  0  0  0  0  0  0
   -2.4415    2.0571   -0.0030 H   0  0  0  0  0  0  0  0  0  0  0  0
   -3.5418   -0.1808    0.0031 H   0  0  0  0  0  0  0  0  0  0  0  0
   -2.0865   -2.2144    0.0054 H   0  0  0  0  0  0  0  0  0  0  0  0
    1.8916   -2.0359   -0.0050 H   0  0  0  0  0  0  0  0  0  0  0  0
    3.3999   -1.1882    0.0020 H   0  0  0  0  0  0  0  0  0  0  0  0
  1  8  2  0  0  0  0
  2  4  1  0  0  0  0
  2  9  2  0  0  0  0
  3  8  1  0  0  0  0
  3 14  1  0  0  0  0
  3 15  1  0  0  0  0
  4  5  2  0  0  0  0
  4  8  1  0  0  0  0
  5  6  1  0  0  0  0
  5 10  1  0  0  0  0
  6  7  2  0  0  0  0
  6 11  1  0  0  0  0
  7  9  1  0  0  0  0
  7 12  1  0  0  0  0
  9 13  1  0  0  0  0
M  END
> <PUBCHEM_COMPOUND_CID>
15070

> <PUBCHEM_CONFORMER_RMSD>
0.4

> <PUBCHEM_CONFORMER_DIVERSEORDER>
1
3
2
4

> <PUBCHEM_MMFF94_PARTIAL_CHARGES>
15
1 -0.57
10 0.15
11 0.15
12 0.15
13 0.15
14 0.37
15 0.37
2 -0.62
3 -0.8
4 0.4
5 -0.15
6 -0.15
7 -0.15
8 0.54
9 0.16

> <PUBCHEM_EFFECTIVE_ROTOR_COUNT>
1

> <PUBCHEM_PHARMACOPHORE_FEATURES>
4
1 1 acceptor
1 2 acceptor
1 3 donor
6 2 4 5 6 7 9 rings

> <PUBCHEM_HEAVY_ATOM_COUNT>
9

> <PUBCHEM_ATOM_DEF_STEREO_COUNT>
0

> <PUBCHEM_ATOM_UDEF_STEREO_COUNT>
0

> <PUBCHEM_BOND_DEF_STEREO_COUNT>
0

> <PUBCHEM_BOND_UDEF_STEREO_COUNT>
0

> <PUBCHEM_ISOTOPIC_ATOM_COUNT>
0

> <PUBCHEM_COMPONENT_COUNT>
1

> <PUBCHEM_CACTVS_TAUTO_COUNT>
2

> <PUBCHEM_CONFORMER_ID>
00003ADE00000001

> <PUBCHEM_MMFF94_ENERGY>
21.582

> <PUBCHEM_FEATURE_SELFOVERLAP>
20.297

> <PUBCHEM_SHAPE_FINGERPRINT>
10857977 72 18266468602607355609
12897270 3 18338515235973191972
14325111 11 18410856585631360289
16714656 1 18410854356590624573
16945 1 18266458707029092037
18185500 45 18196371420563789135
19973954 147 18410008849197099048
21040471 1 18338517555192241125
23552423 10 18272650142925647598
2748010 2 18411418414460959605
29004967 10 18271239400645108265
369184 2 18408325484025662553
5084963 1 18261678180684542745

> <PUBCHEM_SHAPE_MULTIPOLES>
169.38
3.45
1.48
0.59
0.94
0.02
0
0.08
0
-0.09
0
-0.05
-0.01
0

> <PUBCHEM_SHAPE_SELFOVERLAP>
353.509

> <PUBCHEM_SHAPE_VOLUME>
95.2

> <PUBCHEM_COORDINATE_TYPE>
2
5
10

$$$$

