3036580
  -OEChem-07051213083D

 58 60  0     1  0  0  0  0  0999 V2000
   -3.7843    2.5597    1.1932 O   0  0  0  0  0  0  0  0  0  0  0  0
    3.5562   -1.4306   -0.8531 O   0  0  0  0  0  0  0  0  0  0  0  0
    6.7848   -0.2535    0.4749 N   0  0  0  0  0  0  0  0  0  0  0  0
   -2.2881    0.9585    0.1554 C   0  0  0  0  0  0  0  0  0  0  0  0
   -1.8690   -0.3312    0.0267 C   0  0  0  0  0  0  0  0  0  0  0  0
   -3.7371    1.3863    0.3797 C   0  0  2  0  0  0  0  0  0  0  0  0
   -0.4339   -0.6214   -0.2062 C   0  0  0  0  0  0  0  0  0  0  0  0
   -1.3143    2.0788    0.0766 C   0  0  0  0  0  0  0  0  0  0  0  0
   -2.8364   -1.4571    0.1043 C   0  0  0  0  0  0  0  0  0  0  0  0
   -4.4863    1.6605   -0.9220 C   0  0  0  0  0  0  0  0  0  0  0  0
    0.3927   -0.8247    0.8814 C   0  0  0  0  0  0  0  0  0  0  0  0
    0.0352   -0.6808   -1.5036 C   0  0  0  0  0  0  0  0  0  0  0  0
    2.2392   -1.1633   -0.6393 C   0  0  0  0  0  0  0  0  0  0  0  0
   -1.0485    2.6444   -1.1529 C   0  0  0  0  0  0  0  0  0  0  0  0
   -0.7085    2.5170    1.2357 C   0  0  0  0  0  0  0  0  0  0  0  0
   -3.0905   -2.0330    1.3315 C   0  0  0  0  0  0  0  0  0  0  0  0
   -3.4491   -1.8893   -1.0533 C   0  0  0  0  0  0  0  0  0  0  0  0
    1.7428   -1.0983    0.6626 C   0  0  0  0  0  0  0  0  0  0  0  0
    1.3854   -0.9546   -1.7224 C   0  0  0  0  0  0  0  0  0  0  0  0
    5.8162   -0.7120   -0.5097 C   0  0  0  0  0  0  0  0  0  0  0  0
    4.4770   -1.0019    0.1491 C   0  0  0  0  0  0  0  0  0  0  0  0
   -0.1351    3.6960   -1.2269 C   0  0  0  0  0  0  0  0  0  0  0  0
    0.2047    3.5688    1.1617 C   0  0  0  0  0  0  0  0  0  0  0  0
   -3.9987   -3.0892    1.4046 C   0  0  0  0  0  0  0  0  0  0  0  0
   -4.3574   -2.9454   -0.9802 C   0  0  0  0  0  0  0  0  0  0  0  0
    0.4913    4.1582   -0.0696 C   0  0  0  0  0  0  0  0  0  0  0  0
   -4.6321   -3.5453    0.2488 C   0  0  0  0  0  0  0  0  0  0  0  0
    8.0630    0.0661   -0.1653 C   0  0  0  0  0  0  0  0  0  0  0  0
    6.9807   -1.2628    1.5184 C   0  0  0  0  0  0  0  0  0  0  0  0
   -4.2757    0.6152    0.9401 H   0  0  0  0  0  0  0  0  0  0  0  0
   -4.0768    2.5347   -1.4400 H   0  0  0  0  0  0  0  0  0  0  0  0
   -5.5355    1.8955   -0.7100 H   0  0  0  0  0  0  0  0  0  0  0  0
   -4.4588    0.8069   -1.6039 H   0  0  0  0  0  0  0  0  0  0  0  0
    0.0167   -0.7826    1.8999 H   0  0  0  0  0  0  0  0  0  0  0  0
   -0.6194   -0.5205   -2.3558 H   0  0  0  0  0  0  0  0  0  0  0  0
   -1.5289    2.2922   -2.0613 H   0  0  0  0  0  0  0  0  0  0  0  0
   -0.9246    2.0656    2.1999 H   0  0  0  0  0  0  0  0  0  0  0  0
   -2.6048   -1.6847    2.2386 H   0  0  0  0  0  0  0  0  0  0  0  0
   -3.2416   -1.4318   -2.0164 H   0  0  0  0  0  0  0  0  0  0  0  0
    2.3661   -1.2813    1.5328 H   0  0  0  0  0  0  0  0  0  0  0  0
    1.7664   -1.0036   -2.7388 H   0  0  0  0  0  0  0  0  0  0  0  0
    5.6633    0.0570   -1.2783 H   0  0  0  0  0  0  0  0  0  0  0  0
    6.1658   -1.6060   -1.0438 H   0  0  0  0  0  0  0  0  0  0  0  0
    4.5465   -1.8159    0.8771 H   0  0  0  0  0  0  0  0  0  0  0  0
    4.1322   -0.0857    0.6474 H   0  0  0  0  0  0  0  0  0  0  0  0
   -4.7202    2.7832    1.3336 H   0  0  0  0  0  0  0  0  0  0  0  0
    0.0886    4.1545   -2.1857 H   0  0  0  0  0  0  0  0  0  0  0  0
    0.6928    3.9286    2.0628 H   0  0  0  0  0  0  0  0  0  0  0  0
   -4.2131   -3.5559    2.3615 H   0  0  0  0  0  0  0  0  0  0  0  0
   -4.8504   -3.3010   -1.8803 H   0  0  0  0  0  0  0  0  0  0  0  0
    1.2027    4.9768   -0.1272 H   0  0  0  0  0  0  0  0  0  0  0  0
   -5.3394   -4.3676    0.3056 H   0  0  0  0  0  0  0  0  0  0  0  0
    8.7716    0.4682    0.5673 H   0  0  0  0  0  0  0  0  0  0  0  0
    8.5171   -0.8106   -0.6415 H   0  0  0  0  0  0  0  0  0  0  0  0
    7.9279    0.8419   -0.9273 H   0  0  0  0  0  0  0  0  0  0  0  0
    6.1168   -1.3326    2.1863 H   0  0  0  0  0  0  0  0  0  0  0  0
    7.2028   -2.2540    1.1063 H   0  0  0  0  0  0  0  0  0  0  0  0
    7.8167   -0.9796    2.1699 H   0  0  0  0  0  0  0  0  0  0  0  0
  1  6  1  0  0  0  0
  1 46  1  0  0  0  0
  2 13  1  0  0  0  0
  2 21  1  0  0  0  0
  3 20  1  0  0  0  0
  3 28  1  0  0  0  0
  3 29  1  0  0  0  0
  4  5  2  0  0  0  0
  4  6  1  0  0  0  0
  4  8  1  0  0  0  0
  5  7  1  0  0  0  0
  5  9  1  0  0  0  0
  6 10  1  0  0  0  0
  6 30  1  0  0  0  0
  7 11  2  0  0  0  0
  7 12  1  0  0  0  0
  8 14  2  0  0  0  0
  8 15  1  0  0  0  0
  9 16  2  0  0  0  0
  9 17  1  0  0  0  0
 10 31  1  0  0  0  0
 10 32  1  0  0  0  0
 10 33  1  0  0  0  0
 11 18  1  0  0  0  0
 11 34  1  0  0  0  0
 12 19  2  0  0  0  0
 12 35  1  0  0  0  0
 13 18  2  0  0  0  0
 13 19  1  0  0  0  0
 14 22  1  0  0  0  0
 14 36  1  0  0  0  0
 15 23  2  0  0  0  0
 15 37  1  0  0  0  0
 16 24  1  0  0  0  0
 16 38  1  0  0  0  0
 17 25  2  0  0  0  0
 17 39  1  0  0  0  0
 18 40  1  0  0  0  0
 19 41  1  0  0  0  0
 20 21  1  0  0  0  0
 20 42  1  0  0  0  0
 20 43  1  0  0  0  0
 21 44  1  0  0  0  0
 21 45  1  0  0  0  0
 22 26  2  0  0  0  0
 22 47  1  0  0  0  0
 23 26  1  0  0  0  0
 23 48  1  0  0  0  0
 24 27  2  0  0  0  0
 24 49  1  0  0  0  0
 25 27  1  0  0  0  0
 25 50  1  0  0  0  0
 26 51  1  0  0  0  0
 27 52  1  0  0  0  0
 28 53  1  0  0  0  0
 28 54  1  0  0  0  0
 28 55  1  0  0  0  0
 29 56  1  0  0  0  0
 29 57  1  0  0  0  0
 29 58  1  0  0  0  0
M  END
> <PUBCHEM_COMPOUND_CID>
3036580

> <PUBCHEM_CONFORMER_RMSD>
1

> <PUBCHEM_CONFORMER_DIVERSEORDER>
1
9
6
8
5
3
4
7
2

> <PUBCHEM_MMFF94_PARTIAL_CHARGES>
43
1 -0.68
11 -0.15
12 -0.15
13 0.08
14 -0.15
15 -0.15
16 -0.15
17 -0.15
18 -0.15
19 -0.15
2 -0.36
20 0.27
21 0.28
22 -0.15
23 -0.15
24 -0.15
25 -0.15
26 -0.15
27 -0.15
28 0.27
29 0.27
3 -0.81
34 0.15
35 0.15
36 0.15
37 0.15
38 0.15
39 0.15
4 -0.17
40 0.15
41 0.15
46 0.4
47 0.15
48 0.15
49 0.15
5 -0.06
50 0.15
51 0.15
52 0.15
6 0.42
7 0.03
8 0.03
9 0.03

> <PUBCHEM_EFFECTIVE_ROTOR_COUNT>
8

> <PUBCHEM_PHARMACOPHORE_FEATURES>
7
1 1 acceptor
1 1 donor
1 2 acceptor
1 3 cation
6 7 11 12 13 18 19 rings
6 8 14 15 22 23 26 rings
6 9 16 17 24 25 27 rings

> <PUBCHEM_HEAVY_ATOM_COUNT>
29

> <PUBCHEM_ATOM_DEF_STEREO_COUNT>
0

> <PUBCHEM_ATOM_UDEF_STEREO_COUNT>
1

> <PUBCHEM_BOND_DEF_STEREO_COUNT>
1

> <PUBCHEM_BOND_UDEF_STEREO_COUNT>
0

> <PUBCHEM_ISOTOPIC_ATOM_COUNT>
0

> <PUBCHEM_COMPONENT_COUNT>
1

> <PUBCHEM_CACTVS_TAUTO_COUNT>
1

> <PUBCHEM_CONFORMER_ID>
002E55A400000001

> <PUBCHEM_MMFF94_ENERGY>
106.7958

> <PUBCHEM_FEATURE_SELFOVERLAP>
35.52

> <PUBCHEM_SHAPE_FINGERPRINT>
10290309 65 18051691341156702630
10369192 42 16443340937263919332
1100329 8 18410565202856246441
11101153 10 18341046299499294612
11315181 36 17917711271341705318
11963148 33 16968013342637122175
12035758 1 18263903571641104793
12166972 35 17631732660738431790
12596602 18 18131355211693302570
13140716 1 18409719673460064761
13149001 5 18411429423332850485
133893 2 17909810069225731009
14068700 675 18189623752649922647
14844126 61 18411981364752751307
15131766 46 14976528640555688943
15183329 4 14851606605607460142
15324884 4 17534029086842398791
15876981 60 18343580746346036956
16114785 44 17679570414456252793
17686467 74 18340491059365318248
1813 80 18043509669350973095
20101258 96 18340197510539225619
20600515 1 18263063561457805085
20905425 154 18119231888705404869
21796203 349 17980448227558759082
21927370 108 18270948077430110114
22956985 138 17550662219295249570
23419403 2 18054530031572469863
23557571 272 18261667168430769318
23559900 14 17984992496826982023
3178227 256 18268694174279987681
3380486 145 18338218462602522075
3504750 166 18127424543234049826
392239 28 18341039775127084344
4280585 95 18341622507246384781
469060 322 18337375107182570170
5171179 24 18263652753455436345

> <PUBCHEM_SHAPE_MULTIPOLES>
580.09
13.54
4.93
1.45
33.35
4.1
-0.03
-10.61
2.07
-5.79
0.46
-0.18
-0.08
0.01

> <PUBCHEM_SHAPE_SELFOVERLAP>
1241.548

> <PUBCHEM_SHAPE_VOLUME>
323

> <PUBCHEM_COORDINATE_TYPE>
2
5
10

$$$$

