25244915
  -OEChem-07051213153D

 39 39  0     0  0  0  0  0  0999 V2000
    1.5658    0.0367   -0.4957 C   0  0  0  0  0  0  0  0  0  0  0  0
    1.0421   -1.1943   -1.2327 C   0  0  0  0  0  0  0  0  0  0  0  0
    2.9332   -0.1219    0.1130 C   0  0  0  0  0  0  0  0  0  0  0  0
    0.2577   -2.2209   -0.3819 C   0  0  0  0  0  0  0  0  0  0  0  0
   -1.0174   -1.6783    0.2418 C   0  0  0  0  0  0  0  0  0  0  0  0
   -3.1640   -0.3264   -0.1404 C   0  0  0  0  0  0  0  0  0  0  0  0
   -2.8831    1.1515   -0.5273 C   0  0  0  0  0  0  0  0  0  0  0  0
    0.9025    1.2096   -0.3813 C   0  0  0  0  0  0  0  0  0  0  0  0
   -2.0170   -1.2252   -0.5457 C   0  0  0  0  0  0  0  0  0  0  0  0
    3.9045    0.8666   -0.5192 C   0  0  0  0  0  0  0  0  0  0  0  0
    2.8703    0.0593    1.6250 C   0  0  0  0  0  0  0  0  0  0  0  0
   -1.5123    1.5982   -0.0409 C   0  0  0  0  0  0  0  0  0  0  0  0
   -0.4526    1.3939   -0.8514 C   0  0  0  0  0  0  0  0  0  0  0  0
   -0.9876   -1.5881    1.7422 C   0  0  0  0  0  0  0  0  0  0  0  0
   -1.4420    2.0393    1.3945 C   0  0  0  0  0  0  0  0  0  0  0  0
    0.4295   -0.8884   -2.0892 H   0  0  0  0  0  0  0  0  0  0  0  0
    1.8914   -1.7134   -1.6971 H   0  0  0  0  0  0  0  0  0  0  0  0
    3.3134   -1.1327   -0.0801 H   0  0  0  0  0  0  0  0  0  0  0  0
    0.9213   -2.6130    0.3994 H   0  0  0  0  0  0  0  0  0  0  0  0
    0.0004   -3.0820   -1.0124 H   0  0  0  0  0  0  0  0  0  0  0  0
   -4.0753   -0.6653   -0.6470 H   0  0  0  0  0  0  0  0  0  0  0  0
   -3.3735   -0.3890    0.9311 H   0  0  0  0  0  0  0  0  0  0  0  0
   -3.6630    1.8010   -0.1125 H   0  0  0  0  0  0  0  0  0  0  0  0
   -2.9513    1.2563   -1.6183 H   0  0  0  0  0  0  0  0  0  0  0  0
    1.3350    2.0486    0.1557 H   0  0  0  0  0  0  0  0  0  0  0  0
   -1.9215   -1.3622   -1.6225 H   0  0  0  0  0  0  0  0  0  0  0  0
    3.9221    0.7635   -1.6102 H   0  0  0  0  0  0  0  0  0  0  0  0
    3.6633    1.9082   -0.2802 H   0  0  0  0  0  0  0  0  0  0  0  0
    4.9221    0.6812   -0.1570 H   0  0  0  0  0  0  0  0  0  0  0  0
    3.8561   -0.1212    2.0689 H   0  0  0  0  0  0  0  0  0  0  0  0
    2.5647    1.0691    1.9191 H   0  0  0  0  0  0  0  0  0  0  0  0
    2.1743   -0.6530    2.0804 H   0  0  0  0  0  0  0  0  0  0  0  0
   -0.6334    1.0597   -1.8714 H   0  0  0  0  0  0  0  0  0  0  0  0
   -0.7402   -2.5658    2.1700 H   0  0  0  0  0  0  0  0  0  0  0  0
   -1.9447   -1.2927    2.1767 H   0  0  0  0  0  0  0  0  0  0  0  0
   -0.2321   -0.8684    2.0691 H   0  0  0  0  0  0  0  0  0  0  0  0
   -2.0308    2.9530    1.5278 H   0  0  0  0  0  0  0  0  0  0  0  0
   -0.4234    2.2596    1.7255 H   0  0  0  0  0  0  0  0  0  0  0  0
   -1.8490    1.2729    2.0602 H   0  0  0  0  0  0  0  0  0  0  0  0
  1  2  1  0  0  0  0
  1  3  1  0  0  0  0
  1  8  2  0  0  0  0
  2  4  1  0  0  0  0
  2 16  1  0  0  0  0
  2 17  1  0  0  0  0
  3 10  1  0  0  0  0
  3 11  1  0  0  0  0
  3 18  1  0  0  0  0
  4  5  1  0  0  0  0
  4 19  1  0  0  0  0
  4 20  1  0  0  0  0
  5  9  2  0  0  0  0
  5 14  1  0  0  0  0
  6  7  1  0  0  0  0
  6  9  1  0  0  0  0
  6 21  1  0  0  0  0
  6 22  1  0  0  0  0
  7 12  1  0  0  0  0
  7 23  1  0  0  0  0
  7 24  1  0  0  0  0
  8 13  1  0  0  0  0
  8 25  1  0  0  0  0
  9 26  1  0  0  0  0
 10 27  1  0  0  0  0
 10 28  1  0  0  0  0
 10 29  1  0  0  0  0
 11 30  1  0  0  0  0
 11 31  1  0  0  0  0
 11 32  1  0  0  0  0
 12 13  2  0  0  0  0
 12 15  1  0  0  0  0
 13 33  1  0  0  0  0
 14 34  1  0  0  0  0
 14 35  1  0  0  0  0
 14 36  1  0  0  0  0
 15 37  1  0  0  0  0
 15 38  1  0  0  0  0
 15 39  1  0  0  0  0
M  END
> <PUBCHEM_COMPOUND_CID>
25244915

> <PUBCHEM_CONFORMER_RMSD>
0.6

> <PUBCHEM_CONFORMER_DIVERSEORDER>
1
13
15
5
7
6
3
16
9
12
14
2
8
10
11
4

> <PUBCHEM_MMFF94_PARTIAL_CHARGES>
16
1 -0.28
12 -0.28
13 -0.15
14 0.14
15 0.14
2 0.14
25 0.15
26 0.15
3 0.14
33 0.15
4 0.14
5 -0.28
6 0.14
7 0.14
8 -0.15
9 -0.29

> <PUBCHEM_EFFECTIVE_ROTOR_COUNT>
1.8

> <PUBCHEM_PHARMACOPHORE_FEATURES>
1
3 3 10 11 hydrophobe

> <PUBCHEM_HEAVY_ATOM_COUNT>
15

> <PUBCHEM_ATOM_DEF_STEREO_COUNT>
0

> <PUBCHEM_ATOM_UDEF_STEREO_COUNT>
0

> <PUBCHEM_BOND_DEF_STEREO_COUNT>
3

> <PUBCHEM_BOND_UDEF_STEREO_COUNT>
0

> <PUBCHEM_ISOTOPIC_ATOM_COUNT>
0

> <PUBCHEM_COMPONENT_COUNT>
1

> <PUBCHEM_CACTVS_TAUTO_COUNT>
1

> <PUBCHEM_CONFORMER_ID>
018134F300000001

> <PUBCHEM_MMFF94_ENERGY>
40.0549

> <PUBCHEM_FEATURE_SELFOVERLAP>
5.074

> <PUBCHEM_SHAPE_FINGERPRINT>
108231 29 18114467742981019713
11132069 177 18409740572744475412
12382932 28 18337390547273643405
12491281 212 18115298015819526288
12592029 89 17773602805005478593
13538477 17 17988929938101961988
13764800 53 18334575720355296696
14251711 518 17836924495391996222
14251745 187 18263351655015814726
14817 1 16482700210004594091
15775835 57 18059858406195857693
15852999 172 18270123538134917135
15881359 60 18268689693737151603
16945 1 18408610261974642373
17846911 113 18335148591472019149
20201158 50 18408041805862578623
20510252 161 18334010558229941376
20511035 2 17980759338019924853
20645476 183 17417799617632212519
21501502 16 18190456250144357718
21947302 44 18191022498316294230
22344851 341 18124881411039340243
22802520 49 18119222181462189422
23402539 116 18336557010212422111
23419403 2 16893768944208023077
23493267 7 17988064630962008022
23557571 272 18040991800687246159
23559900 14 18334016103734295020
2748010 2 18194956572727414943
3286 77 17677628608096023362
353137 74 18338238275291848437
75552 356 18342175518756032204

> <PUBCHEM_SHAPE_MULTIPOLES>
308.69
4.98
2.32
1.37
2.78
0.27
-0.61
-1.23
-0.01
-1.08
-0.2
0.21
0.1
-0.02

> <PUBCHEM_SHAPE_SELFOVERLAP>
606.985

> <PUBCHEM_SHAPE_VOLUME>
182.2

> <PUBCHEM_COORDINATE_TYPE>
2
5
10

$$$$

