11953915
  -OEChem-07051212562D

123128  0     1  0  0  0  0  0999 V2000
    5.3307   -1.1249    0.0000 O   0  0  0  0  0  0  0  0  0  0  0  0
    2.5357   -4.6772    0.0000 O   0  0  0  0  0  0  0  0  0  0  0  0
   13.0532    3.1006    0.0000 O   0  0  0  0  0  0  0  0  0  0  0  0
   14.6996    2.5625    0.0000 O   0  0  0  0  0  0  0  0  0  0  0  0
   13.6745    5.0016    0.0000 O   0  0  0  0  0  0  0  0  0  0  0  0
   15.6315    5.4141    0.0000 O   0  0  0  0  0  0  0  0  0  0  0  0
   16.9672    3.9255    0.0000 O   0  0  0  0  0  0  0  0  0  0  0  0
   16.0352    1.0739    0.0000 O   0  0  0  0  0  0  0  0  0  0  0  0
   16.3924   -0.6209    0.0000 O   0  0  0  0  0  0  0  0  0  0  0  0
   17.9923    1.4864    0.0000 O   0  0  0  0  0  0  0  0  0  0  0  0
   19.3279   -0.0022    0.0000 O   0  0  0  0  0  0  0  0  0  0  0  0
   18.7066   -1.9033    0.0000 O   0  0  0  0  0  0  0  0  0  0  0  0
   17.4174   -3.0600    0.0000 O   0  0  0  0  0  0  0  0  0  0  0  0
    7.9288   -2.6249    0.0000 C   0  0  2  0  0  0  0  0  0  0  0  0
    7.9288   -1.6249    0.0000 C   0  0  1  0  0  0  0  0  0  0  0  0
    7.0628   -3.1249    0.0000 C   0  0  1  0  0  0  0  0  0  0  0  0
    6.1968   -2.6249    0.0000 C   0  0  2  0  0  0  0  0  0  0  0  0
    8.8750   -1.3201    0.0000 C   0  0  2  0  0  0  0  0  0  0  0  0
    8.8750   -2.9296    0.0000 C   0  0  0  0  0  0  0  0  0  0  0  0
    7.0628   -1.1249    0.0000 C   0  0  0  0  0  0  0  0  0  0  0  0
    9.4586   -2.1249    0.0000 C   0  0  0  0  0  0  0  0  0  0  0  0
    5.2868   -3.1317    0.0000 C   0  0  1  0  0  0  0  0  0  0  0  0
    6.1968   -1.6249    0.0000 C   0  0  0  0  0  0  0  0  0  0  0  0
    7.0789   -4.1664    0.0000 C   0  0  0  0  0  0  0  0  0  0  0  0
    7.9288   -3.6249    0.0000 C   0  0  0  0  0  0  0  0  0  0  0  0
    7.9288   -0.6249    0.0000 C   0  0  0  0  0  0  0  0  0  0  0  0
    9.1857   -0.3696    0.0000 C   0  0  1  0  0  0  0  0  0  0  0  0
    5.2787   -4.1733    0.0000 C   0  0  0  0  0  0  0  0  0  0  0  0
    5.3307   -2.1249    0.0000 C   0  0  0  0  0  0  0  0  0  0  0  0
    4.3599   -2.5676    0.0000 C   0  0  0  0  0  0  0  0  0  0  0  0
    6.1808   -4.6941    0.0000 C   0  0  0  0  0  0  0  0  0  0  0  0
    4.3433   -4.7230    0.0000 C   0  0  0  0  0  0  0  0  0  0  0  0
    3.4120   -3.0956    0.0000 C   0  0  0  0  0  0  0  0  0  0  0  0
    3.4037   -4.1805    0.0000 C   0  0  2  0  0  0  0  0  0  0  0  0
   10.1642   -0.1634    0.0000 C   0  0  0  0  0  0  0  0  0  0  0  0
    8.5179    0.3747    0.0000 C   0  0  0  0  0  0  0  0  0  0  0  0
    3.8467   -5.5910    0.0000 C   0  0  0  0  0  0  0  0  0  0  0  0
    4.8466   -5.5871    0.0000 C   0  0  0  0  0  0  0  0  0  0  0  0
   10.4749    0.7871    0.0000 C   0  0  0  0  0  0  0  0  0  0  0  0
   11.4534    0.9934    0.0000 C   0  0  0  0  0  0  0  0  0  0  0  0
   11.7640    1.9439    0.0000 C   0  0  0  0  0  0  0  0  0  0  0  0
   12.7425    2.1501    0.0000 C   0  0  0  0  0  0  0  0  0  0  0  0
   11.0962    2.6882    0.0000 C   0  0  0  0  0  0  0  0  0  0  0  0
   14.0317    3.3068    0.0000 C   0  0  2  0  0  0  0  0  0  0  0  0
   14.3424    4.2574    0.0000 C   0  0  1  0  0  0  0  0  0  0  0  0
   15.3209    4.4636    0.0000 C   0  0  2  0  0  0  0  0  0  0  0  0
   15.6781    2.7688    0.0000 C   0  0  1  0  0  0  0  0  0  0  0  0
   15.9887    3.7193    0.0000 C   0  0  1  0  0  0  0  0  0  0  0  0
   16.3459    2.0244    0.0000 C   0  0  0  0  0  0  0  0  0  0  0  0
   16.7031    0.3296    0.0000 C   0  0  2  0  0  0  0  0  0  0  0  0
   17.6816    0.5358    0.0000 C   0  0  1  0  0  0  0  0  0  0  0  0
   18.3494   -0.2085    0.0000 C   0  0  2  0  0  0  0  0  0  0  0  0
   18.0388   -1.1590    0.0000 C   0  0  1  0  0  0  0  0  0  0  0  0
   17.0603   -1.3652    0.0000 C   0  0  1  0  0  0  0  0  0  0  0  0
   16.7496   -2.3157    0.0000 C   0  0  0  0  0  0  0  0  0  0  0  0
    7.8022   -3.5442    0.0000 H   0  0  0  0  0  0  0  0  0  0  0  0
    9.7148   -1.1882    0.0000 H   0  0  0  0  0  0  0  0  0  0  0  0
    8.6240   -3.4965    0.0000 H   0  0  0  0  0  0  0  0  0  0  0  0
    9.4124   -3.2388    0.0000 H   0  0  0  0  0  0  0  0  0  0  0  0
    7.4613   -0.6499    0.0000 H   0  0  0  0  0  0  0  0  0  0  0  0
    6.6643   -0.6499    0.0000 H   0  0  0  0  0  0  0  0  0  0  0  0
    9.9195   -2.5396    0.0000 H   0  0  0  0  0  0  0  0  0  0  0  0
    9.9195   -1.7101    0.0000 H   0  0  0  0  0  0  0  0  0  0  0  0
    5.3031   -2.2819    0.0000 H   0  0  0  0  0  0  0  0  0  0  0  0
    7.2969   -4.7468    0.0000 H   0  0  0  0  0  0  0  0  0  0  0  0
    7.6880   -4.0509    0.0000 H   0  0  0  0  0  0  0  0  0  0  0  0
    7.3088   -3.6249    0.0000 H   0  0  0  0  0  0  0  0  0  0  0  0
    7.9288   -4.2449    0.0000 H   0  0  0  0  0  0  0  0  0  0  0  0
    8.5488   -3.6249    0.0000 H   0  0  0  0  0  0  0  0  0  0  0  0
    8.5488   -0.6249    0.0000 H   0  0  0  0  0  0  0  0  0  0  0  0
    7.9288   -0.0049    0.0000 H   0  0  0  0  0  0  0  0  0  0  0  0
    7.3088   -0.6249    0.0000 H   0  0  0  0  0  0  0  0  0  0  0  0
    9.3783    0.2197    0.0000 H   0  0  0  0  0  0  0  0  0  0  0  0
    5.6407   -1.5879    0.0000 H   0  0  0  0  0  0  0  0  0  0  0  0
    4.7938   -1.8149    0.0000 H   0  0  0  0  0  0  0  0  0  0  0  0
    5.0207   -2.6618    0.0000 H   0  0  0  0  0  0  0  0  0  0  0  0
    4.7681   -2.1010    0.0000 H   0  0  0  0  0  0  0  0  0  0  0  0
    3.9700   -2.0856    0.0000 H   0  0  0  0  0  0  0  0  0  0  0  0
    6.1832   -5.3141    0.0000 H   0  0  0  0  0  0  0  0  0  0  0  0
    3.2075   -2.5103    0.0000 H   0  0  0  0  0  0  0  0  0  0  0  0
    2.8004   -3.1970    0.0000 H   0  0  0  0  0  0  0  0  0  0  0  0
    3.4025   -4.8005    0.0000 H   0  0  0  0  0  0  0  0  0  0  0  0
   10.1848   -0.7830    0.0000 H   0  0  0  0  0  0  0  0  0  0  0  0
   10.7780   -0.2507    0.0000 H   0  0  0  0  0  0  0  0  0  0  0  0
    8.9793    0.7888    0.0000 H   0  0  0  0  0  0  0  0  0  0  0  0
    8.1038    0.8362    0.0000 H   0  0  0  0  0  0  0  0  0  0  0  0
    8.0564   -0.0394    0.0000 H   0  0  0  0  0  0  0  0  0  0  0  0
    3.3085   -5.2830    0.0000 H   0  0  0  0  0  0  0  0  0  0  0  0
    3.5387   -6.1291    0.0000 H   0  0  0  0  0  0  0  0  0  0  0  0
    4.3848   -5.8989    0.0000 H   0  0  0  0  0  0  0  0  0  0  0  0
    4.3109   -5.8992    0.0000 H   0  0  0  0  0  0  0  0  0  0  0  0
    5.1587   -6.1229    0.0000 H   0  0  0  0  0  0  0  0  0  0  0  0
    5.3824   -5.2750    0.0000 H   0  0  0  0  0  0  0  0  0  0  0  0
   10.4543    1.4068    0.0000 H   0  0  0  0  0  0  0  0  0  0  0  0
    9.8611    0.8745    0.0000 H   0  0  0  0  0  0  0  0  0  0  0  0
    2.0000   -4.3651    0.0000 H   0  0  0  0  0  0  0  0  0  0  0  0
   11.8674    0.5319    0.0000 H   0  0  0  0  0  0  0  0  0  0  0  0
   12.7631    1.5304    0.0000 H   0  0  0  0  0  0  0  0  0  0  0  0
   13.3564    2.0627    0.0000 H   0  0  0  0  0  0  0  0  0  0  0  0
   11.5577    3.1022    0.0000 H   0  0  0  0  0  0  0  0  0  0  0  0
   10.6821    3.1496    0.0000 H   0  0  0  0  0  0  0  0  0  0  0  0
   10.6347    2.2741    0.0000 H   0  0  0  0  0  0  0  0  0  0  0  0
   13.6177    3.7683    0.0000 H   0  0  0  0  0  0  0  0  0  0  0  0
   13.7357    4.1295    0.0000 H   0  0  0  0  0  0  0  0  0  0  0  0
   14.9068    4.9250    0.0000 H   0  0  0  0  0  0  0  0  0  0  0  0
   15.4855    2.1794    0.0000 H   0  0  0  0  0  0  0  0  0  0  0  0
   16.1813    4.3086    0.0000 H   0  0  0  0  0  0  0  0  0  0  0  0
   16.8928    1.7324    0.0000 H   0  0  0  0  0  0  0  0  0  0  0  0
   16.7285    2.5124    0.0000 H   0  0  0  0  0  0  0  0  0  0  0  0
   13.8671    5.5910    0.0000 H   0  0  0  0  0  0  0  0  0  0  0  0
   16.2382    5.5420    0.0000 H   0  0  0  0  0  0  0  0  0  0  0  0
   17.3813    3.4640    0.0000 H   0  0  0  0  0  0  0  0  0  0  0  0
   16.8957    0.9189    0.0000 H   0  0  0  0  0  0  0  0  0  0  0  0
   18.2883    0.6637    0.0000 H   0  0  0  0  0  0  0  0  0  0  0  0
   18.5420    0.3809    0.0000 H   0  0  0  0  0  0  0  0  0  0  0  0
   18.6455   -1.0311    0.0000 H   0  0  0  0  0  0  0  0  0  0  0  0
   16.4536   -1.4930    0.0000 H   0  0  0  0  0  0  0  0  0  0  0  0
   16.2027   -2.0237    0.0000 H   0  0  0  0  0  0  0  0  0  0  0  0
   16.3671   -2.8036    0.0000 H   0  0  0  0  0  0  0  0  0  0  0  0
   18.5989    1.6142    0.0000 H   0  0  0  0  0  0  0  0  0  0  0  0
   19.7420   -0.4637    0.0000 H   0  0  0  0  0  0  0  0  0  0  0  0
   19.3133   -1.7754    0.0000 H   0  0  0  0  0  0  0  0  0  0  0  0
   17.2248   -3.6493    0.0000 H   0  0  0  0  0  0  0  0  0  0  0  0
  1 23  2  0  0  0  0
 34  2  1  1  0  0  0
  2 96  1  0  0  0  0
  3 42  1  0  0  0  0
 44  3  1  1  0  0  0
  4 44  1  0  0  0  0
  4 47  1  0  0  0  0
 45  5  1  6  0  0  0
  5110  1  0  0  0  0
 46  6  1  1  0  0  0
  6111  1  0  0  0  0
 48  7  1  6  0  0  0
  7112  1  0  0  0  0
  8 49  1  0  0  0  0
 50  8  1  1  0  0  0
  9 50  1  0  0  0  0
  9 54  1  0  0  0  0
 51 10  1  6  0  0  0
 10120  1  0  0  0  0
 52 11  1  1  0  0  0
 11121  1  0  0  0  0
 53 12  1  6  0  0  0
 12122  1  0  0  0  0
 13 55  1  0  0  0  0
 13123  1  0  0  0  0
 14 15  1  0  0  0  0
 14 16  1  0  0  0  0
 14 19  1  0  0  0  0
 14 25  1  6  0  0  0
 15 18  1  0  0  0  0
 15 20  1  0  0  0  0
 15 26  1  1  0  0  0
 16 17  1  0  0  0  0
 16 24  1  0  0  0  0
 16 56  1  1  0  0  0
 17 22  1  0  0  0  0
 17 23  1  0  0  0  0
 17 29  1  1  0  0  0
 18 21  1  0  0  0  0
 18 27  1  0  0  0  0
 18 57  1  6  0  0  0
 19 21  1  0  0  0  0
 19 58  1  0  0  0  0
 19 59  1  0  0  0  0
 20 23  1  0  0  0  0
 20 60  1  0  0  0  0
 20 61  1  0  0  0  0
 21 62  1  0  0  0  0
 21 63  1  0  0  0  0
 22 28  1  0  0  0  0
 22 30  1  0  0  0  0
 22 64  1  6  0  0  0
 24 31  1  0  0  0  0
 24 65  1  0  0  0  0
 24 66  1  0  0  0  0
 25 67  1  0  0  0  0
 25 68  1  0  0  0  0
 25 69  1  0  0  0  0
 26 70  1  0  0  0  0
 26 71  1  0  0  0  0
 26 72  1  0  0  0  0
 27 35  1  0  0  0  0
 27 36  1  6  0  0  0
 27 73  1  0  0  0  0
 28 31  2  0  0  0  0
 28 32  1  0  0  0  0
 29 74  1  0  0  0  0
 29 75  1  0  0  0  0
 29 76  1  0  0  0  0
 30 33  1  0  0  0  0
 30 77  1  0  0  0  0
 30 78  1  0  0  0  0
 31 79  1  0  0  0  0
 32 34  1  0  0  0  0
 32 37  1  0  0  0  0
 32 38  1  0  0  0  0
 33 34  1  0  0  0  0
 33 80  1  0  0  0  0
 33 81  1  0  0  0  0
 34 82  1  0  0  0  0
 35 39  1  0  0  0  0
 35 83  1  0  0  0  0
 35 84  1  0  0  0  0
 36 85  1  0  0  0  0
 36 86  1  0  0  0  0
 36 87  1  0  0  0  0
 37 88  1  0  0  0  0
 37 89  1  0  0  0  0
 37 90  1  0  0  0  0
 38 91  1  0  0  0  0
 38 92  1  0  0  0  0
 38 93  1  0  0  0  0
 39 40  1  0  0  0  0
 39 94  1  0  0  0  0
 39 95  1  0  0  0  0
 40 41  2  0  0  0  0
 40 97  1  0  0  0  0
 41 42  1  0  0  0  0
 41 43  1  0  0  0  0
 42 98  1  0  0  0  0
 42 99  1  0  0  0  0
 43100  1  0  0  0  0
 43101  1  0  0  0  0
 43102  1  0  0  0  0
 44 45  1  0  0  0  0
 44103  1  0  0  0  0
 45 46  1  0  0  0  0
 45104  1  0  0  0  0
 46 48  1  0  0  0  0
 46105  1  0  0  0  0
 47 48  1  0  0  0  0
 47 49  1  1  0  0  0
 47106  1  0  0  0  0
 48107  1  0  0  0  0
 49108  1  0  0  0  0
 49109  1  0  0  0  0
 50 51  1  0  0  0  0
 50113  1  0  0  0  0
 51 52  1  0  0  0  0
 51114  1  0  0  0  0
 52 53  1  0  0  0  0
 52115  1  0  0  0  0
 53 54  1  0  0  0  0
 53116  1  0  0  0  0
 54 55  1  1  0  0  0
 54117  1  0  0  0  0
 55118  1  0  0  0  0
 55119  1  0  0  0  0
M  END
> <PUBCHEM_COMPOUND_CID>
11953915

> <PUBCHEM_COMPOUND_CANONICALIZED>
1

> <PUBCHEM_CACTVS_COMPLEXITY>
1450

> <PUBCHEM_CACTVS_HBOND_ACCEPTOR>
13

> <PUBCHEM_CACTVS_HBOND_DONOR>
8

> <PUBCHEM_CACTVS_ROTATABLE_BOND>
11

> <PUBCHEM_CACTVS_SUBSKEYS>
AAADcfB8PAAAAAAAAAAAAAAAAAAAAYAAAAA0aIECAAAAAGCAAAAAGgAACAAADxSwgAMCCAAABgCIAqBSAAAAAAAgAAAACAEAAAgRFBIAIQAiUAAFwAAPIAPI6PyPgAAAAAAAAADAAAQAADAAAQAACAAAAA==

> <PUBCHEM_IUPAC_OPENEYE_NAME>
(3S,8S,9R,10R,13R,14S,17R)-17-[(E,1R)-1,5-dimethyl-6-[(2R,3R,4S,5S,6R)-3,4,5-trihydroxy-6-[[(2R,3R,4S,5S,6R)-3,4,5-trihydroxy-6-(hydroxymethyl)tetrahydropyran-2-yl]oxymethyl]tetrahydropyran-2-yl]oxy-hex-4-enyl]-3-hydroxy-4,4,9,13,14-pentamethyl-1,2,3,7,8,10,12,15,16,17-decahydrocyclopenta[a]phenanthren-11-one

> <PUBCHEM_IUPAC_CAS_NAME>
(3S,8S,9R,10R,13R,14S,17R)-3-hydroxy-4,4,9,13,14-pentamethyl-17-[(E,2R)-6-methyl-7-[[(2R,3R,4S,5S,6R)-3,4,5-trihydroxy-6-[[(2R,3R,4S,5S,6R)-3,4,5-trihydroxy-6-(hydroxymethyl)-2-oxanyl]oxymethyl]-2-oxanyl]oxy]hept-5-en-2-yl]-1,2,3,7,8,10,12,15,16,17-decahydrocyclopenta[a]phenanthren-11-one

> <PUBCHEM_IUPAC_NAME>
(3S,8S,9R,10R,13R,14S,17R)-3-hydroxy-4,4,9,13,14-pentamethyl-17-[(E,2R)-6-methyl-7-[(2R,3R,4S,5S,6R)-3,4,5-trihydroxy-6-[[(2R,3R,4S,5S,6R)-3,4,5-trihydroxy-6-(hydroxymethyl)oxan-2-yl]oxymethyl]oxan-2-yl]oxyhept-5-en-2-yl]-1,2,3,7,8,10,12,15,16,17-decahydrocyclopenta[a]phenanthren-11-one

> <PUBCHEM_IUPAC_SYSTEMATIC_NAME>
(3S,8S,9R,10R,13R,14S,17R)-17-[(E,2R)-7-[(2R,3R,4S,5S,6R)-6-[[(2R,3R,4S,5S,6R)-6-(hydroxymethyl)-3,4,5-tris(oxidanyl)oxan-2-yl]oxymethyl]-3,4,5-tris(oxidanyl)oxan-2-yl]oxy-6-methyl-hept-5-en-2-yl]-4,4,9,13,14-pentamethyl-3-oxidanyl-1,2,3,7,8,10,12,15,16,17-decahydrocyclopenta[a]phenanthren-11-one

> <PUBCHEM_IUPAC_TRADITIONAL_NAME>
(3S,8S,9R,10R,13R,14S,17R)-17-[(E,1R)-1,5-dimethyl-6-[(2R,3R,4S,5S,6R)-3,4,5-trihydroxy-6-[[(2R,3R,4S,5S,6R)-3,4,5-trihydroxy-6-methylol-tetrahydropyran-2-yl]oxymethyl]tetrahydropyran-2-yl]oxy-hex-4-enyl]-3-hydroxy-4,4,9,13,14-pentamethyl-1,2,3,7,8,10,12,15,16,17-decahydrocyclopenta[a]phenanthren-11-one

> <PUBCHEM_IUPAC_INCHI>
InChI=1S/C42H68O13/c1-21(19-52-37-36(51)34(49)32(47)27(55-37)20-53-38-35(50)33(48)31(46)26(18-43)54-38)9-8-10-22(2)23-15-16-40(5)28-13-11-24-25(12-14-29(44)39(24,3)4)42(28,7)30(45)17-41(23,40)6/h9,11,22-23,25-29,31-38,43-44,46-51H,8,10,12-20H2,1-7H3/b21-9+/t22-,23-,25-,26-,27-,28+,29+,31-,32-,33+,34+,35-,36-,37-,38-,40+,41-,42+/m1/s1

> <PUBCHEM_IUPAC_INCHIKEY>
FHOKVOIILRHONR-NOLKYRRZSA-N

> <PUBCHEM_XLOGP3_AA>
2.6

> <PUBCHEM_EXACT_MASS>
780.465992

> <PUBCHEM_MOLECULAR_FORMULA>
C42H68O13

> <PUBCHEM_MOLECULAR_WEIGHT>
780.98152

> <PUBCHEM_OPENEYE_CAN_SMILES>
CC(CCC=C(C)COC1C(C(C(C(O1)COC2C(C(C(C(O2)CO)O)O)O)O)O)O)C3CCC4(C3(CC(=O)C5(C4CC=C6C5CCC(C6(C)C)O)C)C)C

> <PUBCHEM_OPENEYE_ISO_SMILES>
C[C@H](CC/C=C(\C)/CO[C@H]1[C@@H]([C@H]([C@@H]([C@H](O1)CO[C@H]2[C@@H]([C@H]([C@@H]([C@H](O2)CO)O)O)O)O)O)O)[C@H]3CC[C@@]4([C@@]3(CC(=O)[C@@]5([C@H]4CC=C6[C@H]5CC[C@@H](C6(C)C)O)C)C)C

> <PUBCHEM_CACTVS_TPSA>
216

> <PUBCHEM_MONOISOTOPIC_WEIGHT>
780.465992

> <PUBCHEM_TOTAL_CHARGE>
0

> <PUBCHEM_HEAVY_ATOM_COUNT>
55

> <PUBCHEM_ATOM_DEF_STEREO_COUNT>
18

> <PUBCHEM_ATOM_UDEF_STEREO_COUNT>
0

> <PUBCHEM_BOND_DEF_STEREO_COUNT>
1

> <PUBCHEM_BOND_UDEF_STEREO_COUNT>
0

> <PUBCHEM_ISOTOPIC_ATOM_COUNT>
0

> <PUBCHEM_COMPONENT_COUNT>
1

> <PUBCHEM_CACTVS_TAUTO_COUNT>
2

> <PUBCHEM_COORDINATE_TYPE>
1
5
255

> <PUBCHEM_BONDANNOTATIONS>
51  10  6
52  11  5
53  12  6
14  25  6
15  26  5
16  56  5
17  29  5
18  57  6
34  2  5
22  64  6
27  36  6
44  3  5
47  49  5
45  5  6
54  55  5
46  6  5
48  7  6
50  8  5

$$$$

