13430
  -OEChem-06261214103D

 25 25  0     1  0  0  0  0  0999 V2000
    0.1248   -2.5422    0.5021 Br  0  0  0  0  0  0  0  0  0  0  0  0
   -1.3907    0.8588    0.5062 N   0  0  2  0  0  0  0  0  0  0  0  0
   -0.6798    0.3256   -0.6555 C   0  0  0  0  0  0  0  0  0  0  0  0
    0.7815    0.1240   -0.3761 C   0  0  0  0  0  0  0  0  0  0  0  0
   -2.8186    0.9864    0.2174 C   0  0  0  0  0  0  0  0  0  0  0  0
   -0.8310    2.1517    0.8986 C   0  0  0  0  0  0  0  0  0  0  0  0
    1.2693   -1.0767    0.1298 C   0  0  0  0  0  0  0  0  0  0  0  0
    1.6461    1.1824   -0.6393 C   0  0  0  0  0  0  0  0  0  0  0  0
    2.6350   -1.2208    0.3752 C   0  0  0  0  0  0  0  0  0  0  0  0
    3.0117    1.0382   -0.3939 C   0  0  0  0  0  0  0  0  0  0  0  0
    3.5061   -0.1632    0.1134 C   0  0  0  0  0  0  0  0  0  0  0  0
   -3.3904   -0.3047   -0.1772 C   0  0  0  0  0  0  0  0  0  0  0  0
   -3.8641   -1.3595   -0.5009 C   0  0  0  0  0  0  0  0  0  0  0  0
   -0.7848    1.0109   -1.5110 H   0  0  0  0  0  0  0  0  0  0  0  0
   -1.0970   -0.6137   -1.0301 H   0  0  0  0  0  0  0  0  0  0  0  0
   -3.3459    1.3382    1.1126 H   0  0  0  0  0  0  0  0  0  0  0  0
   -2.9979    1.7255   -0.5740 H   0  0  0  0  0  0  0  0  0  0  0  0
    0.1572    2.0529    1.3577 H   0  0  0  0  0  0  0  0  0  0  0  0
   -1.4510    2.6054    1.6822 H   0  0  0  0  0  0  0  0  0  0  0  0
   -0.7878    2.8664    0.0687 H   0  0  0  0  0  0  0  0  0  0  0  0
    1.2854    2.1214   -1.0499 H   0  0  0  0  0  0  0  0  0  0  0  0
    3.0389   -2.1495    0.7702 H   0  0  0  0  0  0  0  0  0  0  0  0
    3.6905    1.8603   -0.6012 H   0  0  0  0  0  0  0  0  0  0  0  0
    4.5695   -0.2756    0.3037 H   0  0  0  0  0  0  0  0  0  0  0  0
   -4.2826   -2.2957   -0.7880 H   0  0  0  0  0  0  0  0  0  0  0  0
  1  7  1  0  0  0  0
  2  3  1  0  0  0  0
  2  5  1  0  0  0  0
  2  6  1  0  0  0  0
  3  4  1  0  0  0  0
  3 14  1  0  0  0  0
  3 15  1  0  0  0  0
  4  7  1  0  0  0  0
  4  8  2  0  0  0  0
  5 12  1  0  0  0  0
  5 16  1  0  0  0  0
  5 17  1  0  0  0  0
  6 18  1  0  0  0  0
  6 19  1  0  0  0  0
  6 20  1  0  0  0  0
  7  9  2  0  0  0  0
  8 10  1  0  0  0  0
  8 21  1  0  0  0  0
  9 11  1  0  0  0  0
  9 22  1  0  0  0  0
 10 11  2  0  0  0  0
 10 23  1  0  0  0  0
 11 24  1  0  0  0  0
 12 13  3  0  0  0  0
 13 25  1  0  0  0  0
M  END
> <PUBCHEM_COMPOUND_CID>
13430

> <PUBCHEM_CONFORMER_RMSD>
0.6

> <PUBCHEM_CONFORMER_DIVERSEORDER>
10
22
6
16
3
20
14
26
21
2
19
25
7
13
12
9
15
17
5
4
11
24
23
1
18
8

> <PUBCHEM_MMFF94_PARTIAL_CHARGES>
18
1 -0.11
10 -0.15
11 -0.15
12 -0.2
13 -0.18
2 -0.81
21 0.15
22 0.15
23 0.15
24 0.15
25 0.18
3 0.41
4 -0.14
5 0.47
6 0.27
7 0.11
8 -0.15
9 -0.15

> <PUBCHEM_EFFECTIVE_ROTOR_COUNT>
3

> <PUBCHEM_PHARMACOPHORE_FEATURES>
4
1 1 hydrophobe
1 13 hydrophobe
1 2 cation
6 4 7 8 9 10 11 rings

> <PUBCHEM_HEAVY_ATOM_COUNT>
13

> <PUBCHEM_ATOM_DEF_STEREO_COUNT>
0

> <PUBCHEM_ATOM_UDEF_STEREO_COUNT>
0

> <PUBCHEM_BOND_DEF_STEREO_COUNT>
0

> <PUBCHEM_BOND_UDEF_STEREO_COUNT>
0

> <PUBCHEM_ISOTOPIC_ATOM_COUNT>
0

> <PUBCHEM_COMPONENT_COUNT>
1

> <PUBCHEM_CACTVS_TAUTO_COUNT>
1

> <PUBCHEM_CONFORMER_ID>
000034760000000A

> <PUBCHEM_MMFF94_ENERGY>
36.2516

> <PUBCHEM_FEATURE_SELFOVERLAP>
20.297

> <PUBCHEM_SHAPE_FINGERPRINT>
10219947 1 17989485229807038820
108231 29 18261954029507309913
11132069 177 18335426767808442499
11769659 78 18341337772373490275
11806522 49 18338240349697885463
13380535 76 18341330007468641274
14178342 30 18050859011012569682
14251717 144 18343868813818017023
14325111 11 18412543223382954868
14787075 74 17971764276242918744
14993402 34 18202558471652059622
15207287 21 17132116861519492850
15375462 189 18336259068620826555
15757776 16 18059863877942040307
15775835 57 18334288803359596937
16945 1 18270666585415655852
17862501 102 18339932601214523954
18186145 218 18413106181947338541
200 152 18410582790182548335
20201158 50 18273214214055528323
20645477 70 18271531995872793255
22445834 79 18123182669700367737
22959321 4 18342459265644212091
23388829 49 18340205288339909117
23402539 116 18334300863880770436
23402655 69 18342458174864853053
2748010 2 17401477157122300904
2871803 45 18412833469294976255
3312278 4 18336547204954708449
581208 293 18272934920874438836

> <PUBCHEM_SHAPE_MULTIPOLES>
268.5
6.01
2.28
0.85
2.46
0.74
0.04
0.59
-0.64
0.21
0.53
0.08
-0.12
-0.72

> <PUBCHEM_SHAPE_SELFOVERLAP>
531.606

> <PUBCHEM_SHAPE_VOLUME>
162.9

> <PUBCHEM_COORDINATE_TYPE>
2
5
10

$$$$

