17395975
  -OEChem-06241222532D

 44 46  0     1  0  0  0  0  0999 V2000
    9.4938   -2.0461    0.0000 Cl  0  0  0  0  0  0  0  0  0  0  0  0
    5.1777    0.1915    0.0000 S   0  0  0  0  0  0  0  0  0  0  0  0
    2.0000   -0.9009    0.0000 F   0  0  0  0  0  0  0  0  0  0  0  0
    2.8111   -2.0593    0.0000 F   0  0  0  0  0  0  0  0  0  0  0  0
    3.1585   -0.0898    0.0000 F   0  0  0  0  0  0  0  0  0  0  0  0
    7.9178   -0.8148    0.0000 F   0  0  0  0  0  0  0  0  0  0  0  0
    6.1174   -0.1505    0.0000 O   0  0  0  0  0  0  0  0  0  0  0  0
    4.2380    0.5335    0.0000 O   0  0  0  0  0  0  0  0  0  0  0  0
    7.1298   -0.1991    0.0000 O   0  0  0  0  0  0  0  0  0  0  0  0
    5.5197    1.1312    0.0000 N   0  0  3  0  0  0  0  0  0  0  0  0
    8.1961    1.1658    0.0000 N   0  0  0  0  0  0  0  0  0  0  0  0
    6.4809    1.4068    0.0000 C   0  0  3  0  0  0  0  0  0  0  0  0
    6.5158    2.4062    0.0000 C   0  0  0  0  0  0  0  0  0  0  0  0
    4.9605    1.9602    0.0000 C   0  0  0  0  0  0  0  0  0  0  0  0
    5.5762    2.7482    0.0000 C   0  0  0  0  0  0  0  0  0  0  0  0
    7.2690    0.7911    0.0000 C   0  0  0  0  0  0  0  0  0  0  0  0
    4.8356   -0.7482    0.0000 C   0  0  0  0  0  0  0  0  0  0  0  0
    3.9696   -1.2482    0.0000 C   0  0  0  0  0  0  0  0  0  0  0  0
    5.7017   -1.2482    0.0000 C   0  0  0  0  0  0  0  0  0  0  0  0
    8.9842    0.5501    0.0000 C   0  0  0  0  0  0  0  0  0  0  0  0
    3.9696   -2.2482    0.0000 C   0  0  0  0  0  0  0  0  0  0  0  0
    2.9848   -1.0746    0.0000 C   0  0  0  0  0  0  0  0  0  0  0  0
    5.7017   -2.2482    0.0000 C   0  0  0  0  0  0  0  0  0  0  0  0
    4.8356   -2.7482    0.0000 C   0  0  0  0  0  0  0  0  0  0  0  0
    8.8450   -0.4402    0.0000 C   0  0  0  0  0  0  0  0  0  0  0  0
    9.9113    0.9247    0.0000 C   0  0  0  0  0  0  0  0  0  0  0  0
    9.6330   -1.0558    0.0000 C   0  0  0  0  0  0  0  0  0  0  0  0
   10.6993    0.3090    0.0000 C   0  0  0  0  0  0  0  0  0  0  0  0
   10.5602   -0.6812    0.0000 C   0  0  0  0  0  0  0  0  0  0  0  0
    6.3626    0.7982    0.0000 H   0  0  0  0  0  0  0  0  0  0  0  0
    7.1298    2.3199    0.0000 H   0  0  0  0  0  0  0  0  0  0  0  0
    6.6658    3.0078    0.0000 H   0  0  0  0  0  0  0  0  0  0  0  0
    4.5145    2.3909    0.0000 H   0  0  0  0  0  0  0  0  0  0  0  0
    4.4855    1.5617    0.0000 H   0  0  0  0  0  0  0  0  0  0  0  0
    5.8479    3.3055    0.0000 H   0  0  0  0  0  0  0  0  0  0  0  0
    5.0504    3.0768    0.0000 H   0  0  0  0  0  0  0  0  0  0  0  0
    8.2824    1.7797    0.0000 H   0  0  0  0  0  0  0  0  0  0  0  0
    6.2386   -0.9382    0.0000 H   0  0  0  0  0  0  0  0  0  0  0  0
    3.4327   -2.5582    0.0000 H   0  0  0  0  0  0  0  0  0  0  0  0
    6.2386   -2.5582    0.0000 H   0  0  0  0  0  0  0  0  0  0  0  0
    4.8356   -3.3682    0.0000 H   0  0  0  0  0  0  0  0  0  0  0  0
    9.9976    1.5387    0.0000 H   0  0  0  0  0  0  0  0  0  0  0  0
   11.2742    0.5413    0.0000 H   0  0  0  0  0  0  0  0  0  0  0  0
   11.0487   -1.0629    0.0000 H   0  0  0  0  0  0  0  0  0  0  0  0
  1 27  1  0  0  0  0
  2  7  2  0  0  0  0
  2  8  2  0  0  0  0
  2 10  1  0  0  0  0
  2 17  1  0  0  0  0
  3 22  1  0  0  0  0
  4 22  1  0  0  0  0
  5 22  1  0  0  0  0
  6 25  1  0  0  0  0
  9 16  2  0  0  0  0
 10 12  1  0  0  0  0
 10 14  1  0  0  0  0
 11 16  1  0  0  0  0
 11 20  1  0  0  0  0
 11 37  1  0  0  0  0
 12 13  1  0  0  0  0
 12 16  1  0  0  0  0
 12 30  1  0  0  0  0
 13 15  1  0  0  0  0
 13 31  1  0  0  0  0
 13 32  1  0  0  0  0
 14 15  1  0  0  0  0
 14 33  1  0  0  0  0
 14 34  1  0  0  0  0
 15 35  1  0  0  0  0
 15 36  1  0  0  0  0
 17 18  1  0  0  0  0
 17 19  2  0  0  0  0
 18 21  2  0  0  0  0
 18 22  1  0  0  0  0
 19 23  1  0  0  0  0
 19 38  1  0  0  0  0
 20 25  2  0  0  0  0
 20 26  1  0  0  0  0
 21 24  1  0  0  0  0
 21 39  1  0  0  0  0
 23 24  2  0  0  0  0
 23 40  1  0  0  0  0
 24 41  1  0  0  0  0
 25 27  1  0  0  0  0
 26 28  2  0  0  0  0
 26 42  1  0  0  0  0
 27 29  2  0  0  0  0
 28 29  1  0  0  0  0
 28 43  1  0  0  0  0
 29 44  1  0  0  0  0
M  END
> <PUBCHEM_COMPOUND_CID>
17395975

> <PUBCHEM_COMPOUND_CANONICALIZED>
1

> <PUBCHEM_CACTVS_COMPLEXITY>
700

> <PUBCHEM_CACTVS_HBOND_ACCEPTOR>
8

> <PUBCHEM_CACTVS_HBOND_DONOR>
1

> <PUBCHEM_CACTVS_ROTATABLE_BOND>
4

> <PUBCHEM_CACTVS_SUBSKEYS>
AAADccB7McBEAAAAAAAAAAAAAAAAAWAAAAAwYAAAAAAAAAABQAAAHwYQQAAADCrB2DwwwYLAAAKIAiVSUHDCABAhBwAIiBmIZogIYDLBk7GUIAhglADIyAcYgQAOAAAAAAIEAAAAAAAABAgAAAAAAAAAAA==

> <PUBCHEM_IUPAC_OPENEYE_NAME>
N-(3-chloro-2-fluoro-phenyl)-1-[2-(trifluoromethyl)phenyl]sulfonyl-pyrrolidine-2-carboxamide

> <PUBCHEM_IUPAC_CAS_NAME>
N-(3-chloro-2-fluorophenyl)-1-[2-(trifluoromethyl)phenyl]sulfonyl-2-pyrrolidinecarboxamide

> <PUBCHEM_IUPAC_NAME>
N-(3-chloro-2-fluorophenyl)-1-[2-(trifluoromethyl)phenyl]sulfonylpyrrolidine-2-carboxamide

> <PUBCHEM_IUPAC_SYSTEMATIC_NAME>
N-(3-chloranyl-2-fluoranyl-phenyl)-1-[2-(trifluoromethyl)phenyl]sulfonyl-pyrrolidine-2-carboxamide

> <PUBCHEM_IUPAC_TRADITIONAL_NAME>
N-(3-chloro-2-fluoro-phenyl)-1-[2-(trifluoromethyl)phenyl]sulfonyl-pyrrolidine-2-carboxamide

> <PUBCHEM_IUPAC_INCHI>
InChI=1S/C18H15ClF4N2O3S/c19-12-6-3-7-13(16(12)20)24-17(26)14-8-4-10-25(14)29(27,28)15-9-2-1-5-11(15)18(21,22)23/h1-3,5-7,9,14H,4,8,10H2,(H,24,26)

> <PUBCHEM_IUPAC_INCHIKEY>
FCRNVVDRGAAXCW-UHFFFAOYSA-N

> <PUBCHEM_XLOGP3_AA>
4.1

> <PUBCHEM_EXACT_MASS>
450.042804

> <PUBCHEM_MOLECULAR_FORMULA>
C18H15ClF4N2O3S

> <PUBCHEM_MOLECULAR_WEIGHT>
450.834913

> <PUBCHEM_OPENEYE_CAN_SMILES>
C1CC(N(C1)S(=O)(=O)C2=CC=CC=C2C(F)(F)F)C(=O)NC3=C(C(=CC=C3)Cl)F

> <PUBCHEM_OPENEYE_ISO_SMILES>
C1CC(N(C1)S(=O)(=O)C2=CC=CC=C2C(F)(F)F)C(=O)NC3=C(C(=CC=C3)Cl)F

> <PUBCHEM_CACTVS_TPSA>
74.9

> <PUBCHEM_MONOISOTOPIC_WEIGHT>
450.042804

> <PUBCHEM_TOTAL_CHARGE>
0

> <PUBCHEM_HEAVY_ATOM_COUNT>
29

> <PUBCHEM_ATOM_DEF_STEREO_COUNT>
0

> <PUBCHEM_ATOM_UDEF_STEREO_COUNT>
1

> <PUBCHEM_BOND_DEF_STEREO_COUNT>
0

> <PUBCHEM_BOND_UDEF_STEREO_COUNT>
0

> <PUBCHEM_ISOTOPIC_ATOM_COUNT>
0

> <PUBCHEM_COMPONENT_COUNT>
1

> <PUBCHEM_CACTVS_TAUTO_COUNT>
3

> <PUBCHEM_COORDINATE_TYPE>
1
5
255

> <PUBCHEM_BONDANNOTATIONS>
12  16  3
17  18  8
17  19  8
18  21  8
19  23  8
20  25  8
20  26  8
21  24  8
23  24  8
25  27  8
26  28  8
27  29  8
28  29  8

$$$$

