11954105
  -OEChem-07051213063D

 48 51  0     1  0  0  0  0  0999 V2000
   -5.4100    0.9875    0.4247 O   0  0  0  0  0  0  0  0  0  0  0  0
    5.4908   -0.1905    0.4289 O   0  0  0  0  0  0  0  0  0  0  0  0
   -2.3094   -0.5933    0.4036 C   0  0  2  0  0  0  0  0  0  0  0  0
   -3.1324    0.5202   -0.2921 C   0  0  2  0  0  0  0  0  0  0  0  0
   -0.8614   -0.6281   -0.1176 C   0  0  1  0  0  0  0  0  0  0  0  0
   -0.2328    0.7787    0.2706 C   0  0  2  0  0  0  0  0  0  0  0  0
   -2.5447    1.8767    0.0911 C   0  0  0  0  0  0  0  0  0  0  0  0
   -3.2030   -1.8261    0.2967 C   0  0  0  0  0  0  0  0  0  0  0  0
   -1.0547    1.9622   -0.2840 C   0  0  0  0  0  0  0  0  0  0  0  0
   -4.4927    0.1879    0.2934 C   0  0  0  0  0  0  0  0  0  0  0  0
   -0.0566   -1.8530    0.4117 C   0  0  0  0  0  0  0  0  0  0  0  0
   -4.5898   -1.2800    0.6680 C   0  0  0  0  0  0  0  0  0  0  0  0
   -3.2775    0.3964   -1.8214 C   0  0  0  0  0  0  0  0  0  0  0  0
    1.2362    0.9188   -0.0784 C   0  0  0  0  0  0  0  0  0  0  0  0
    1.1665   -2.2817   -0.4487 C   0  0  0  0  0  0  0  0  0  0  0  0
    1.7384    0.0683   -1.2080 C   0  0  0  0  0  0  0  0  0  0  0  0
    2.2040   -1.1978   -0.5445 C   0  0  0  0  0  0  0  0  0  0  0  0
    2.1332    1.4735    0.7684 C   0  0  0  0  0  0  0  0  0  0  0  0
    3.3604   -1.2039    0.1528 C   0  0  0  0  0  0  0  0  0  0  0  0
    3.5725    1.2216    0.6843 C   0  0  0  0  0  0  0  0  0  0  0  0
    4.1273    0.0157    0.4103 C   0  0  0  0  0  0  0  0  0  0  0  0
    6.1358    0.6468   -0.5098 C   0  0  0  0  0  0  0  0  0  0  0  0
   -2.2517   -0.3694    1.4828 H   0  0  0  0  0  0  0  0  0  0  0  0
   -0.9055   -0.7288   -1.2073 H   0  0  0  0  0  0  0  0  0  0  0  0
   -0.3007    0.8446    1.3681 H   0  0  0  0  0  0  0  0  0  0  0  0
   -2.6551    2.0430    1.1707 H   0  0  0  0  0  0  0  0  0  0  0  0
   -3.0950    2.6908   -0.3960 H   0  0  0  0  0  0  0  0  0  0  0  0
   -2.9089   -2.6238    0.9856 H   0  0  0  0  0  0  0  0  0  0  0  0
   -3.1999   -2.2421   -0.7164 H   0  0  0  0  0  0  0  0  0  0  0  0
   -0.9483    2.0105   -1.3746 H   0  0  0  0  0  0  0  0  0  0  0  0
   -0.6533    2.9076    0.1031 H   0  0  0  0  0  0  0  0  0  0  0  0
   -0.7116   -2.7300    0.4513 H   0  0  0  0  0  0  0  0  0  0  0  0
    0.2644   -1.6622    1.4437 H   0  0  0  0  0  0  0  0  0  0  0  0
   -4.7684   -1.3586    1.7442 H   0  0  0  0  0  0  0  0  0  0  0  0
   -5.3819   -1.7774    0.1043 H   0  0  0  0  0  0  0  0  0  0  0  0
   -2.3227    0.4770   -2.3473 H   0  0  0  0  0  0  0  0  0  0  0  0
   -3.7403   -0.5491   -2.1233 H   0  0  0  0  0  0  0  0  0  0  0  0
   -3.9269    1.1927   -2.2054 H   0  0  0  0  0  0  0  0  0  0  0  0
    0.8339   -2.5621   -1.4554 H   0  0  0  0  0  0  0  0  0  0  0  0
    1.6009   -3.1853   -0.0036 H   0  0  0  0  0  0  0  0  0  0  0  0
    0.9836   -0.1124   -1.9792 H   0  0  0  0  0  0  0  0  0  0  0  0
    2.5529    0.5622   -1.7548 H   0  0  0  0  0  0  0  0  0  0  0  0
    1.8031    2.0349    1.6375 H   0  0  0  0  0  0  0  0  0  0  0  0
    3.6805   -2.0949    0.6855 H   0  0  0  0  0  0  0  0  0  0  0  0
    4.1982    2.0711    0.9433 H   0  0  0  0  0  0  0  0  0  0  0  0
    7.1654    0.2928   -0.6232 H   0  0  0  0  0  0  0  0  0  0  0  0
    6.1852    1.6825   -0.1581 H   0  0  0  0  0  0  0  0  0  0  0  0
    5.6601    0.5997   -1.4968 H   0  0  0  0  0  0  0  0  0  0  0  0
  1 10  2  0  0  0  0
  2 21  1  0  0  0  0
  2 22  1  0  0  0  0
  3  4  1  0  0  0  0
  3  5  1  0  0  0  0
  3  8  1  0  0  0  0
  3 23  1  0  0  0  0
  4  7  1  0  0  0  0
  4 10  1  0  0  0  0
  4 13  1  0  0  0  0
  5  6  1  0  0  0  0
  5 11  1  0  0  0  0
  5 24  1  0  0  0  0
  6  9  1  0  0  0  0
  6 14  1  0  0  0  0
  6 25  1  0  0  0  0
  7  9  1  0  0  0  0
  7 26  1  0  0  0  0
  7 27  1  0  0  0  0
  8 12  1  0  0  0  0
  8 28  1  0  0  0  0
  8 29  1  0  0  0  0
  9 30  1  0  0  0  0
  9 31  1  0  0  0  0
 10 12  1  0  0  0  0
 11 15  1  0  0  0  0
 11 32  1  0  0  0  0
 11 33  1  0  0  0  0
 12 34  1  0  0  0  0
 12 35  1  0  0  0  0
 13 36  1  0  0  0  0
 13 37  1  0  0  0  0
 13 38  1  0  0  0  0
 14 16  1  0  0  0  0
 14 18  2  0  0  0  0
 15 17  1  0  0  0  0
 15 39  1  0  0  0  0
 15 40  1  0  0  0  0
 16 17  1  0  0  0  0
 16 41  1  0  0  0  0
 16 42  1  0  0  0  0
 17 19  2  0  0  0  0
 18 20  1  0  0  0  0
 18 43  1  0  0  0  0
 19 21  1  0  0  0  0
 19 44  1  0  0  0  0
 20 21  2  0  0  0  0
 20 45  1  0  0  0  0
 22 46  1  0  0  0  0
 22 47  1  0  0  0  0
 22 48  1  0  0  0  0
M  END
> <PUBCHEM_COMPOUND_CID>
11954105

> <PUBCHEM_CONFORMER_RMSD>
0.6

> <PUBCHEM_CONFORMER_DIVERSEORDER>
1
2

> <PUBCHEM_MMFF94_PARTIAL_CHARGES>
18
1 -0.57
10 0.45
12 0.06
14 -0.28
15 0.14
16 0.28
17 -0.28
18 -0.15
19 -0.15
2 -0.36
20 -0.15
21 0.08
22 0.28
4 0.06
43 0.15
44 0.15
45 0.15
6 0.14

> <PUBCHEM_EFFECTIVE_ROTOR_COUNT>
2.4

> <PUBCHEM_PHARMACOPHORE_FEATURES>
6
1 1 acceptor
1 2 acceptor
5 3 4 8 10 12 rings
6 3 4 5 6 7 9 rings
7 14 16 17 18 19 20 21 rings
7 5 6 11 14 15 16 17 rings

> <PUBCHEM_HEAVY_ATOM_COUNT>
22

> <PUBCHEM_ATOM_DEF_STEREO_COUNT>
4

> <PUBCHEM_ATOM_UDEF_STEREO_COUNT>
0

> <PUBCHEM_BOND_DEF_STEREO_COUNT>
0

> <PUBCHEM_BOND_UDEF_STEREO_COUNT>
0

> <PUBCHEM_ISOTOPIC_ATOM_COUNT>
0

> <PUBCHEM_COMPONENT_COUNT>
1

> <PUBCHEM_CACTVS_TAUTO_COUNT>
2

> <PUBCHEM_CONFORMER_ID>
00B667B900000001

> <PUBCHEM_MMFF94_ENERGY>
89.164

> <PUBCHEM_FEATURE_SELFOVERLAP>
30.662

> <PUBCHEM_SHAPE_FINGERPRINT>
10366900 7 18260559921508773433
10646746 165 18411139164462008880
10906281 52 18268971185682851264
11132069 177 18343862208696132531
11578080 2 16914832580514030919
12011746 2 18335135393612421166
12107183 9 17624426672201836480
12236239 1 17275105029008106936
12403259 415 18409456868748738688
12596602 18 16774077345680649264
12670546 56 15123513601139770230
12788726 201 17241602995408775985
13140716 1 18266176132440468587
13224815 77 18411981368793809135
13402501 40 18410009918511879355
13583140 156 17059236806950835341
14223421 5 18337672047851255423
14341114 176 18411695513114032370
14787075 74 18334860489582316922
14790565 3 18337664209911038632
15196674 1 18410575058903915738
15536298 74 18261390082958088215
15788980 27 16877943828047217724
1601671 61 18411136935774778972
16945 1 18335980960460703879
17349148 13 18272655636172806612
1813 80 17203323420735930381
19141452 34 18335699417376504471
200 152 17675929797879519969
21033648 29 18336844025580952000
21267235 1 18411410683440945827
21279426 13 18264203798281642062
21421861 104 17986958650707368034
23402539 116 18409173185905084711
23557571 272 18337103484544558627
23559900 14 18410016494466018840
26918003 58 18407478860183181449
296302 2 17749109993326330471
335352 9 18409729560231914476
34934 24 18410015476785297967
350125 39 18410570665617037192
351380 180 18408606954802423018
3545911 37 18410854369222299369
474229 33 18410012130910705478
5104073 3 18337672039298166914
542803 24 17989486316402122516
9709674 26 18263080066642317255

> <PUBCHEM_SHAPE_MULTIPOLES>
441.01
10.98
2.07
0.99
4.84
0.36
0.31
-1.02
-0.87
-0.5
-0.11
-0.26
-0.07
0.56

> <PUBCHEM_SHAPE_SELFOVERLAP>
951.812

> <PUBCHEM_SHAPE_VOLUME>
241.6

> <PUBCHEM_COORDINATE_TYPE>
2
5
10

$$$$

