6437420
  -OEChem-07051213023D

 93 94  0     1  0  0  0  0  0999 V2000
   -1.8403    0.0814   -0.7439 O   0  0  0  0  0  0  0  0  0  0  0  0
   -3.4162   -0.0952    0.9681 O   0  0  0  0  0  0  0  0  0  0  0  0
   -3.6199    1.7796   -2.1631 O   0  0  0  0  0  0  0  0  0  0  0  0
   -6.7546    1.3131    1.4781 O   0  0  0  0  0  0  0  0  0  0  0  0
   -0.8856    2.7773   -0.5737 O   0  0  0  0  0  0  0  0  0  0  0  0
    3.6241    2.4105    0.1244 O   0  0  0  0  0  0  0  0  0  0  0  0
   -1.3810   -4.5189    2.1181 O   0  0  0  0  0  0  0  0  0  0  0  0
    1.9167   -4.6492    0.5250 O   0  0  0  0  0  0  0  0  0  0  0  0
    2.5510    2.9265    2.1041 O   0  0  0  0  0  0  0  0  0  0  0  0
    7.4601   -0.4725   -0.1868 O   0  0  0  0  0  0  0  0  0  0  0  0
   -6.4743    1.4090   -1.4568 N   0  0  0  0  0  0  0  0  0  0  0  0
   -0.7789   -0.1008    0.1889 C   0  0  1  0  0  0  0  0  0  0  0  0
   -0.4734   -1.6155    0.3969 C   0  0  2  0  0  0  0  0  0  0  0  0
   -5.3595    1.4449   -0.5033 C   0  0  2  0  0  0  0  0  0  0  0  0
    0.4577    0.7715   -0.2087 C   0  0  2  0  0  0  0  0  0  0  0  0
   -4.0928    0.8803   -1.1618 C   0  0  2  0  0  0  0  0  0  0  0  0
   -2.9743    0.6967   -0.1317 C   0  0  2  0  0  0  0  0  0  0  0  0
   -5.7215    0.6463    0.7581 C   0  0  1  0  0  0  0  0  0  0  0  0
   -4.5000    0.5080    1.6760 C   0  0  1  0  0  0  0  0  0  0  0  0
   -0.5636   -2.4663   -0.8954 C   0  0  0  0  0  0  0  0  0  0  0  0
    0.2061    2.2584    0.1867 C   0  0  1  0  0  0  0  0  0  0  0  0
   -1.4418   -2.1858    1.4501 C   0  0  0  0  0  0  0  0  0  0  0  0
    0.0490   -3.8800   -0.7846 C   0  0  1  0  0  0  0  0  0  0  0  0
    0.8270    0.6564   -1.6926 C   0  0  0  0  0  0  0  0  0  0  0  0
   -4.7993   -0.3699    2.8877 C   0  0  0  0  0  0  0  0  0  0  0  0
    1.4059    3.1921   -0.0016 C   0  0  0  0  0  0  0  0  0  0  0  0
   -7.4983    2.3786   -1.0755 C   0  0  0  0  0  0  0  0  0  0  0  0
   -7.0391    0.0635   -1.5252 C   0  0  0  0  0  0  0  0  0  0  0  0
   -0.0896   -4.6414   -2.1022 C   0  0  0  0  0  0  0  0  0  0  0  0
   -0.8792   -3.4000    2.1272 C   0  0  0  0  0  0  0  0  0  0  0  0
    1.5130   -3.8813   -0.3477 C   0  0  0  0  0  0  0  0  0  0  0  0
    2.5735    2.8334    0.8837 C   0  0  0  0  0  0  0  0  0  0  0  0
    4.8741    2.1090    0.7992 C   0  0  1  0  0  0  0  0  0  0  0  0
    2.4436   -2.9288   -1.0131 C   0  0  0  0  0  0  0  0  0  0  0  0
    5.5321    0.9166    0.0597 C   0  0  2  0  0  0  0  0  0  0  0  0
    5.7171    3.3820    0.7604 C   0  0  0  0  0  0  0  0  0  0  0  0
    3.2797   -2.2237   -0.2378 C   0  0  0  0  0  0  0  0  0  0  0  0
    4.6793   -0.3220    0.2575 C   0  0  0  0  0  0  0  0  0  0  0  0
    4.1553   -1.1388   -0.6800 C   0  0  0  0  0  0  0  0  0  0  0  0
    6.9475    0.6161    0.5568 C   0  0  0  0  0  0  0  0  0  0  0  0
    5.9607    3.8406   -0.6643 C   0  0  0  0  0  0  0  0  0  0  0  0
    4.4098   -1.0018   -2.1571 C   0  0  0  0  0  0  0  0  0  0  0  0
   -1.0602    0.2860    1.1786 H   0  0  0  0  0  0  0  0  0  0  0  0
    0.5376   -1.6809    0.8135 H   0  0  0  0  0  0  0  0  0  0  0  0
   -5.1540    2.4914   -0.2361 H   0  0  0  0  0  0  0  0  0  0  0  0
    1.3132    0.4236    0.3834 H   0  0  0  0  0  0  0  0  0  0  0  0
   -4.2708   -0.0817   -1.6528 H   0  0  0  0  0  0  0  0  0  0  0  0
   -2.6840    1.6756    0.2595 H   0  0  0  0  0  0  0  0  0  0  0  0
   -6.0429   -0.3783    0.5507 H   0  0  0  0  0  0  0  0  0  0  0  0
   -4.1845    1.4910    2.0504 H   0  0  0  0  0  0  0  0  0  0  0  0
   -1.6176   -2.5665   -1.1881 H   0  0  0  0  0  0  0  0  0  0  0  0
   -0.0881   -1.9465   -1.7280 H   0  0  0  0  0  0  0  0  0  0  0  0
   -0.0928    2.2912    1.2421 H   0  0  0  0  0  0  0  0  0  0  0  0
   -1.6188   -1.4711    2.2615 H   0  0  0  0  0  0  0  0  0  0  0  0
   -2.4104   -2.4491    1.0123 H   0  0  0  0  0  0  0  0  0  0  0  0
   -0.5094   -4.4687   -0.0590 H   0  0  0  0  0  0  0  0  0  0  0  0
    1.1263   -0.3582   -1.9507 H   0  0  0  0  0  0  0  0  0  0  0  0
    1.6865    1.2844   -1.9429 H   0  0  0  0  0  0  0  0  0  0  0  0
   -0.0005    0.9473   -2.3470 H   0  0  0  0  0  0  0  0  0  0  0  0
   -5.6008    0.0478    3.5039 H   0  0  0  0  0  0  0  0  0  0  0  0
   -3.9035   -0.4737    3.5101 H   0  0  0  0  0  0  0  0  0  0  0  0
   -5.0826   -1.3822    2.5789 H   0  0  0  0  0  0  0  0  0  0  0  0
    1.7166    3.2500   -1.0502 H   0  0  0  0  0  0  0  0  0  0  0  0
    1.1215    4.2229    0.2476 H   0  0  0  0  0  0  0  0  0  0  0  0
   -3.4262    2.6317   -1.7366 H   0  0  0  0  0  0  0  0  0  0  0  0
   -6.4264    2.1940    1.7273 H   0  0  0  0  0  0  0  0  0  0  0  0
   -7.0718    3.3736   -0.9057 H   0  0  0  0  0  0  0  0  0  0  0  0
   -8.2001    2.4953   -1.9104 H   0  0  0  0  0  0  0  0  0  0  0  0
   -8.1003    2.0980   -0.2077 H   0  0  0  0  0  0  0  0  0  0  0  0
   -7.6862    0.0147   -2.4107 H   0  0  0  0  0  0  0  0  0  0  0  0
   -7.6860   -0.2028   -0.6809 H   0  0  0  0  0  0  0  0  0  0  0  0
   -6.2944   -0.7231   -1.6813 H   0  0  0  0  0  0  0  0  0  0  0  0
   -1.1441   -4.7625   -2.3717 H   0  0  0  0  0  0  0  0  0  0  0  0
    0.3572   -5.6388   -2.0259 H   0  0  0  0  0  0  0  0  0  0  0  0
    0.4106   -4.1192   -2.9247 H   0  0  0  0  0  0  0  0  0  0  0  0
    0.0610   -3.2295    2.6811 H   0  0  0  0  0  0  0  0  0  0  0  0
   -1.0662    3.6778   -0.2544 H   0  0  0  0  0  0  0  0  0  0  0  0
    4.6873    1.8350    1.8457 H   0  0  0  0  0  0  0  0  0  0  0  0
    2.3219   -2.7559   -2.0747 H   0  0  0  0  0  0  0  0  0  0  0  0
    5.5707    1.1458   -1.0090 H   0  0  0  0  0  0  0  0  0  0  0  0
    5.1767    4.1830    1.2804 H   0  0  0  0  0  0  0  0  0  0  0  0
    6.6659    3.2538    1.2902 H   0  0  0  0  0  0  0  0  0  0  0  0
    3.2701   -2.4111    0.8357 H   0  0  0  0  0  0  0  0  0  0  0  0
    4.4481   -0.5284    1.3041 H   0  0  0  0  0  0  0  0  0  0  0  0
    7.6202    1.4630    0.3990 H   0  0  0  0  0  0  0  0  0  0  0  0
    6.9554    0.3546    1.6209 H   0  0  0  0  0  0  0  0  0  0  0  0
    5.0297    3.9879   -1.2202 H   0  0  0  0  0  0  0  0  0  0  0  0
    6.4852    4.8025   -0.6532 H   0  0  0  0  0  0  0  0  0  0  0  0
    6.5922    3.1426   -1.2210 H   0  0  0  0  0  0  0  0  0  0  0  0
    5.2451   -0.3385   -2.3930 H   0  0  0  0  0  0  0  0  0  0  0  0
    3.5232   -0.6156   -2.6695 H   0  0  0  0  0  0  0  0  0  0  0  0
    4.6698   -1.9725   -2.5952 H   0  0  0  0  0  0  0  0  0  0  0  0
    8.3563   -0.6513    0.1453 H   0  0  0  0  0  0  0  0  0  0  0  0
  1 12  1  0  0  0  0
  1 17  1  0  0  0  0
  2 17  1  0  0  0  0
  2 19  1  0  0  0  0
  3 16  1  0  0  0  0
  3 65  1  0  0  0  0
  4 18  1  0  0  0  0
  4 66  1  0  0  0  0
  5 21  1  0  0  0  0
  5 77  1  0  0  0  0
  6 32  1  0  0  0  0
  6 33  1  0  0  0  0
  7 30  2  0  0  0  0
  8 31  2  0  0  0  0
  9 32  2  0  0  0  0
 10 40  1  0  0  0  0
 10 93  1  0  0  0  0
 11 14  1  0  0  0  0
 11 27  1  0  0  0  0
 11 28  1  0  0  0  0
 12 13  1  0  0  0  0
 12 15  1  0  0  0  0
 12 43  1  0  0  0  0
 13 20  1  0  0  0  0
 13 22  1  0  0  0  0
 13 44  1  0  0  0  0
 14 16  1  0  0  0  0
 14 18  1  0  0  0  0
 14 45  1  0  0  0  0
 15 21  1  0  0  0  0
 15 24  1  0  0  0  0
 15 46  1  0  0  0  0
 16 17  1  0  0  0  0
 16 47  1  0  0  0  0
 17 48  1  0  0  0  0
 18 19  1  0  0  0  0
 18 49  1  0  0  0  0
 19 25  1  0  0  0  0
 19 50  1  0  0  0  0
 20 23  1  0  0  0  0
 20 51  1  0  0  0  0
 20 52  1  0  0  0  0
 21 26  1  0  0  0  0
 21 53  1  0  0  0  0
 22 30  1  0  0  0  0
 22 54  1  0  0  0  0
 22 55  1  0  0  0  0
 23 29  1  0  0  0  0
 23 31  1  0  0  0  0
 23 56  1  0  0  0  0
 24 57  1  0  0  0  0
 24 58  1  0  0  0  0
 24 59  1  0  0  0  0
 25 60  1  0  0  0  0
 25 61  1  0  0  0  0
 25 62  1  0  0  0  0
 26 32  1  0  0  0  0
 26 63  1  0  0  0  0
 26 64  1  0  0  0  0
 27 67  1  0  0  0  0
 27 68  1  0  0  0  0
 27 69  1  0  0  0  0
 28 70  1  0  0  0  0
 28 71  1  0  0  0  0
 28 72  1  0  0  0  0
 29 73  1  0  0  0  0
 29 74  1  0  0  0  0
 29 75  1  0  0  0  0
 30 76  1  0  0  0  0
 31 34  1  0  0  0  0
 33 35  1  0  0  0  0
 33 36  1  0  0  0  0
 33 78  1  0  0  0  0
 34 37  2  0  0  0  0
 34 79  1  0  0  0  0
 35 38  1  0  0  0  0
 35 40  1  0  0  0  0
 35 80  1  0  0  0  0
 36 41  1  0  0  0  0
 36 81  1  0  0  0  0
 36 82  1  0  0  0  0
 37 39  1  0  0  0  0
 37 83  1  0  0  0  0
 38 39  2  0  0  0  0
 38 84  1  0  0  0  0
 39 42  1  0  0  0  0
 40 85  1  0  0  0  0
 40 86  1  0  0  0  0
 41 87  1  0  0  0  0
 41 88  1  0  0  0  0
 41 89  1  0  0  0  0
 42 90  1  0  0  0  0
 42 91  1  0  0  0  0
 42 92  1  0  0  0  0
M  END
> <PUBCHEM_COMPOUND_CID>
6437420

> <PUBCHEM_CONFORMER_RMSD>
1.2

> <PUBCHEM_CONFORMER_DIVERSEORDER>
1
3
5
14
6
11
9
8
10
4
13
12
2
7

> <PUBCHEM_MMFF94_PARTIAL_CHARGES>
42
1 -0.56
10 -0.68
11 -0.81
12 0.28
14 0.27
16 0.28
17 0.56
18 0.28
19 0.28
2 -0.56
21 0.28
22 0.06
23 0.06
26 0.06
27 0.27
28 0.27
3 -0.68
30 0.45
31 0.49
32 0.66
33 0.28
34 -0.14
35 0.14
37 -0.15
38 -0.29
39 -0.14
4 -0.68
40 0.28
42 0.14
5 -0.68
6 -0.43
65 0.4
66 0.4
7 -0.57
76 0.06
77 0.4
79 0.15
8 -0.57
83 0.15
84 0.15
9 -0.57
93 0.4

> <PUBCHEM_EFFECTIVE_ROTOR_COUNT>
10.2

> <PUBCHEM_PHARMACOPHORE_FEATURES>
16
1 1 acceptor
1 10 acceptor
1 10 donor
1 11 cation
1 2 acceptor
1 3 acceptor
1 3 donor
1 4 acceptor
1 4 donor
1 41 hydrophobe
1 5 acceptor
1 5 donor
1 7 acceptor
1 8 acceptor
1 9 acceptor
6 2 14 16 17 18 19 rings

> <PUBCHEM_HEAVY_ATOM_COUNT>
42

> <PUBCHEM_ATOM_DEF_STEREO_COUNT>
12

> <PUBCHEM_ATOM_UDEF_STEREO_COUNT>
0

> <PUBCHEM_BOND_DEF_STEREO_COUNT>
2

> <PUBCHEM_BOND_UDEF_STEREO_COUNT>
0

> <PUBCHEM_ISOTOPIC_ATOM_COUNT>
0

> <PUBCHEM_COMPONENT_COUNT>
1

> <PUBCHEM_CACTVS_TAUTO_COUNT>
4

> <PUBCHEM_CONFORMER_ID>
00623A2C00000001

> <PUBCHEM_MMFF94_ENERGY>
126.9871

> <PUBCHEM_FEATURE_SELFOVERLAP>
81.24

> <PUBCHEM_SHAPE_FINGERPRINT>
10653451 467 18343864432941092101
10675989 125 18335984246374962088
10864689 126 18270391831794140843
11135609 187 18335711511529883741
11170278 61 17897426501722207273
12422481 6 17917143910239969734
12597179 24 18341051826441345795
12677640 9 18044096752530211087
12717326 135 16558202630566717453
12788726 201 16827557926679607433
13402501 40 18410293614672568432
1361 2 18260269689210070278
14117953 113 18335701663850168060
14725015 67 18126013895547772746
15183329 4 17530962458191320236
15200665 1 18049168765651937503
15328829 1 17313111873568892797
15351334 14 17915203393335886605
15890870 6 18411420622970929318
15927050 60 18262526879176193774
161222 619 18337659880325359642
20764821 26 18337688416699510350
21033648 29 18131910451626792589
21585483 110 18410857676342102384
22121540 332 17700997662613814421
27425 322 17559962013666470376
3383291 50 18260554433221051082
394071 54 18187357766237128136
437795 51 18410855490298480333
4403749 210 17537452717471308128
45266715 3 18341058475535983927
6669772 16 18410580569478818919

> <PUBCHEM_SHAPE_MULTIPOLES>
800.67
17.07
5.98
2.03
7.61
5.51
0.52
-15.94
-1.26
-4.94
0.1
2.42
0.87
2.64

> <PUBCHEM_SHAPE_SELFOVERLAP>
1612.026

> <PUBCHEM_SHAPE_VOLUME>
464.4

> <PUBCHEM_COORDINATE_TYPE>
2
5
10

$$$$

