442039
  -OEChem-07051212563D

 57 60  0     1  0  0  0  0  0999 V2000
    7.1219    0.1628    0.2484 S   0  0  0  0  0  0  0  0  0  0  0  0
   -3.5968   -1.9939    0.3973 O   0  0  0  0  0  0  0  0  0  0  0  0
   -0.7873    1.2426   -1.7828 O   0  0  0  0  0  0  0  0  0  0  0  0
   -5.5275   -1.5068    1.5406 O   0  0  0  0  0  0  0  0  0  0  0  0
    5.7477   -0.3945   -0.4557 O   0  0  0  0  0  0  0  0  0  0  0  0
    8.1950   -0.2901   -0.6353 O   0  5  0  0  0  0  0  0  0  0  0  0
    7.1174   -0.4817    1.5609 O   0  0  0  0  0  0  0  0  0  0  0  0
    6.9463    1.6136    0.2952 O   0  0  0  0  0  0  0  0  0  0  0  0
   -2.2139    0.8587    0.2126 C   0  0  1  0  0  0  0  0  0  0  0  0
   -3.2345    0.0558   -0.6608 C   0  0  2  0  0  0  0  0  0  0  0  0
   -0.7807    0.6720   -0.4613 C   0  0  1  0  0  0  0  0  0  0  0  0
   -4.6782    0.0528   -0.1429 C   0  0  2  0  0  0  0  0  0  0  0  0
   -2.9056   -1.4249   -0.7195 C   0  0  1  0  0  0  0  0  0  0  0  0
   -2.6877    2.3403    0.2321 C   0  0  0  0  0  0  0  0  0  0  0  0
   -0.4722   -0.8099   -0.6863 C   0  0  0  0  0  0  0  0  0  0  0  0
   -5.0262    1.3267    0.6464 C   0  0  0  0  0  0  0  0  0  0  0  0
    0.3397    1.3803    0.3457 C   0  0  0  0  0  0  0  0  0  0  0  0
   -4.2123    2.5311    0.1774 C   0  0  0  0  0  0  0  0  0  0  0  0
   -2.1421    0.3666    1.6963 C   0  0  0  0  0  0  0  0  0  0  0  0
    2.0142   -0.4910   -0.1226 C   0  0  2  0  0  0  0  0  0  0  0  0
   -1.4417   -1.7459   -0.7217 C   0  0  0  0  0  0  0  0  0  0  0  0
    0.9582   -1.1881   -1.0028 C   0  0  0  0  0  0  0  0  0  0  0  0
    1.7511    1.0297   -0.1324 C   0  0  0  0  0  0  0  0  0  0  0  0
   -4.6848   -1.2100    0.7069 C   0  0  0  0  0  0  0  0  0  0  0  0
   -5.6858   -0.1503   -1.2877 C   0  0  0  0  0  0  0  0  0  0  0  0
    3.4140   -0.7565   -0.7082 C   0  0  0  0  0  0  0  0  0  0  0  0
    1.9815   -1.0597    1.3095 C   0  0  0  0  0  0  0  0  0  0  0  0
    4.4903   -0.1297    0.1505 C   0  0  0  0  0  0  0  0  0  0  0  0
   -3.2188    0.4642   -1.6798 H   0  0  0  0  0  0  0  0  0  0  0  0
   -3.3344   -1.8758   -1.6238 H   0  0  0  0  0  0  0  0  0  0  0  0
   -2.2551    2.9251   -0.5866 H   0  0  0  0  0  0  0  0  0  0  0  0
   -2.3118    2.8318    1.1392 H   0  0  0  0  0  0  0  0  0  0  0  0
   -4.8894    1.1910    1.7240 H   0  0  0  0  0  0  0  0  0  0  0  0
   -6.0930    1.5616    0.5368 H   0  0  0  0  0  0  0  0  0  0  0  0
    0.2894    1.1385    1.4101 H   0  0  0  0  0  0  0  0  0  0  0  0
    0.2170    2.4674    0.2612 H   0  0  0  0  0  0  0  0  0  0  0  0
   -4.4953    2.7572   -0.8591 H   0  0  0  0  0  0  0  0  0  0  0  0
   -4.4884    3.4158    0.7633 H   0  0  0  0  0  0  0  0  0  0  0  0
   -3.1140    0.2851    2.1801 H   0  0  0  0  0  0  0  0  0  0  0  0
   -1.6618   -0.6113    1.7935 H   0  0  0  0  0  0  0  0  0  0  0  0
   -1.5744    1.0634    2.3223 H   0  0  0  0  0  0  0  0  0  0  0  0
   -1.1801   -2.7871   -0.8934 H   0  0  0  0  0  0  0  0  0  0  0  0
    1.0944   -2.2762   -0.9426 H   0  0  0  0  0  0  0  0  0  0  0  0
    1.1353   -0.9190   -2.0537 H   0  0  0  0  0  0  0  0  0  0  0  0
    1.9000    1.4322   -1.1428 H   0  0  0  0  0  0  0  0  0  0  0  0
    2.4448    1.5643    0.5246 H   0  0  0  0  0  0  0  0  0  0  0  0
   -5.4954   -1.0709   -1.8499 H   0  0  0  0  0  0  0  0  0  0  0  0
   -6.7084   -0.2266   -0.8998 H   0  0  0  0  0  0  0  0  0  0  0  0
   -5.6545    0.6867   -1.9937 H   0  0  0  0  0  0  0  0  0  0  0  0
   -1.6328    1.6727   -1.9750 H   0  0  0  0  0  0  0  0  0  0  0  0
    3.4890   -0.3658   -1.7318 H   0  0  0  0  0  0  0  0  0  0  0  0
    3.6003   -1.8353   -0.7956 H   0  0  0  0  0  0  0  0  0  0  0  0
    0.9589   -1.1203    1.6974 H   0  0  0  0  0  0  0  0  0  0  0  0
    2.3906   -2.0759    1.3444 H   0  0  0  0  0  0  0  0  0  0  0  0
    2.5388   -0.4381    2.0178 H   0  0  0  0  0  0  0  0  0  0  0  0
    4.3833    0.9544    0.2228 H   0  0  0  0  0  0  0  0  0  0  0  0
    4.5111   -0.5560    1.1564 H   0  0  0  0  0  0  0  0  0  0  0  0
  1  5  1  0  0  0  0
  1  6  1  0  0  0  0
  1  7  2  0  0  0  0
  1  8  2  0  0  0  0
  2 13  1  0  0  0  0
  2 24  1  0  0  0  0
  3 11  1  0  0  0  0
  3 50  1  0  0  0  0
  4 24  2  0  0  0  0
  5 28  1  0  0  0  0
  9 10  1  0  0  0  0
  9 11  1  0  0  0  0
  9 14  1  0  0  0  0
  9 19  1  0  0  0  0
 10 12  1  0  0  0  0
 10 13  1  0  0  0  0
 10 29  1  0  0  0  0
 11 15  1  0  0  0  0
 11 17  1  0  0  0  0
 12 16  1  0  0  0  0
 12 24  1  0  0  0  0
 12 25  1  0  0  0  0
 13 21  1  0  0  0  0
 13 30  1  0  0  0  0
 14 18  1  0  0  0  0
 14 31  1  0  0  0  0
 14 32  1  0  0  0  0
 15 21  2  0  0  0  0
 15 22  1  0  0  0  0
 16 18  1  0  0  0  0
 16 33  1  0  0  0  0
 16 34  1  0  0  0  0
 17 23  1  0  0  0  0
 17 35  1  0  0  0  0
 17 36  1  0  0  0  0
 18 37  1  0  0  0  0
 18 38  1  0  0  0  0
 19 39  1  0  0  0  0
 19 40  1  0  0  0  0
 19 41  1  0  0  0  0
 20 22  1  0  0  0  0
 20 23  1  0  0  0  0
 20 26  1  0  0  0  0
 20 27  1  0  0  0  0
 21 42  1  0  0  0  0
 22 43  1  0  0  0  0
 22 44  1  0  0  0  0
 23 45  1  0  0  0  0
 23 46  1  0  0  0  0
 25 47  1  0  0  0  0
 25 48  1  0  0  0  0
 25 49  1  0  0  0  0
 26 28  1  0  0  0  0
 26 51  1  0  0  0  0
 26 52  1  0  0  0  0
 27 53  1  0  0  0  0
 27 54  1  0  0  0  0
 27 55  1  0  0  0  0
 28 56  1  0  0  0  0
 28 57  1  0  0  0  0
M  CHG  1   6  -1
M  END
> <PUBCHEM_COMPOUND_CID>
442039

> <PUBCHEM_CONFORMER_RMSD>
0.8

> <PUBCHEM_CONFORMER_DIVERSEORDER>
2
1
6
3
9
5
4
8
7

> <PUBCHEM_MMFF94_PARTIAL_CHARGES>
18
1 1.63
11 0.42
12 0.06
13 0.42
15 -0.28
2 -0.43
21 -0.29
22 0.14
24 0.66
28 0.28
3 -0.68
4 -0.57
42 0.15
5 -0.46
50 0.4
6 -0.82
7 -0.82
8 -0.82

> <PUBCHEM_EFFECTIVE_ROTOR_COUNT>
5.6

> <PUBCHEM_PHARMACOPHORE_FEATURES>
11
1 3 acceptor
1 3 donor
1 4 acceptor
1 6 acceptor
1 7 acceptor
1 8 acceptor
4 1 6 7 8 anion
5 2 10 12 13 24 rings
6 11 15 17 20 22 23 rings
6 9 10 11 13 15 21 rings
6 9 10 12 14 16 18 rings

> <PUBCHEM_HEAVY_ATOM_COUNT>
28

> <PUBCHEM_ATOM_DEF_STEREO_COUNT>
6

> <PUBCHEM_ATOM_UDEF_STEREO_COUNT>
0

> <PUBCHEM_BOND_DEF_STEREO_COUNT>
0

> <PUBCHEM_BOND_UDEF_STEREO_COUNT>
0

> <PUBCHEM_ISOTOPIC_ATOM_COUNT>
0

> <PUBCHEM_COMPONENT_COUNT>
1

> <PUBCHEM_CACTVS_TAUTO_COUNT>
1

> <PUBCHEM_CONFORMER_ID>
0006BEB700000002

> <PUBCHEM_MMFF94_ENERGY>
94.3666

> <PUBCHEM_FEATURE_SELFOVERLAP>
56.177

> <PUBCHEM_SHAPE_FINGERPRINT>
10 15 18335703819686152744
10319926 262 18335432248555815512
10411042 1 18046632197039266831
10675989 125 16969143120973181941
11315181 36 18131628976132948405
12236239 1 18202565090418234550
12596602 18 18131636686152899306
13140716 1 18117552934586921039
13631057 29 18202281356194339763
14849402 71 17987508222671644700
14856354 85 18410011000938999414
14933364 13 18334011697229679044
15183329 4 4823210590251363108
15461852 350 17822016384924435349
16945 1 18334571348669342271
17980427 23 18411131459481104397
18681886 176 18114190708921170528
19377110 9 17703516575323416792
200 152 15626223524140740774
21033648 29 17386301972539959449
21150785 3 7637391957222820306
21236236 1 18334295387465333916
21267235 1 18409444752925168751
21792961 116 17458338681249302158
23198884 109 5833986165923932102
23402539 116 16128657457165298638
23522609 53 17702075115596039236
23559900 14 18336273340412555441
23569943 247 17129313223846248930
335352 9 18335707148439080493
34797466 226 17458618983494472708
350125 39 18334858281974810700
4073 2 18342735179619599370
4325135 7 18411981365216182324
5104073 3 18265047105950772890
7226269 152 17748825236947126817

> <PUBCHEM_SHAPE_MULTIPOLES>
538.99
17.21
1.99
1.26
36.22
0.57
0.21
0.84
2.3
-2.33
0.06
-0.49
-0.2
0.27

> <PUBCHEM_SHAPE_SELFOVERLAP>
1146.617

> <PUBCHEM_SHAPE_VOLUME>
305.9

> <PUBCHEM_COORDINATE_TYPE>
2
5
10

$$$$

