7107
  -OEChem-07051212453D

 24 26  0     0  0  0  0  0  0999 V2000
   -0.0001   -1.3501   -0.0017 O   0  0  0  0  0  0  0  0  0  0  0  0
    0.0000    1.5781   -0.0005 C   0  0  0  0  0  0  0  0  0  0  0  0
   -1.2495    0.7480   -0.0014 C   0  0  0  0  0  0  0  0  0  0  0  0
    1.2496    0.7480   -0.0008 C   0  0  0  0  0  0  0  0  0  0  0  0
   -1.1823   -0.6482   -0.0011 C   0  0  0  0  0  0  0  0  0  0  0  0
    1.1822   -0.6482   -0.0011 C   0  0  0  0  0  0  0  0  0  0  0  0
   -2.5045    1.3716   -0.0005 C   0  0  0  0  0  0  0  0  0  0  0  0
    2.5045    1.3716    0.0003 C   0  0  0  0  0  0  0  0  0  0  0  0
   -2.3527   -1.4119    0.0003 C   0  0  0  0  0  0  0  0  0  0  0  0
    2.3528   -1.4119   -0.0003 C   0  0  0  0  0  0  0  0  0  0  0  0
   -3.6727    0.6088    0.0014 C   0  0  0  0  0  0  0  0  0  0  0  0
    3.6727    0.6088    0.0017 C   0  0  0  0  0  0  0  0  0  0  0  0
   -3.5967   -0.7824    0.0021 C   0  0  0  0  0  0  0  0  0  0  0  0
    3.5967   -0.7824    0.0014 C   0  0  0  0  0  0  0  0  0  0  0  0
    0.0002    2.2163   -0.8926 H   0  0  0  0  0  0  0  0  0  0  0  0
   -0.0002    2.2150    0.8925 H   0  0  0  0  0  0  0  0  0  0  0  0
   -2.5771    2.4563   -0.0005 H   0  0  0  0  0  0  0  0  0  0  0  0
    2.5771    2.4563    0.0007 H   0  0  0  0  0  0  0  0  0  0  0  0
   -2.3020   -2.4975    0.0007 H   0  0  0  0  0  0  0  0  0  0  0  0
    2.3021   -2.4975   -0.0004 H   0  0  0  0  0  0  0  0  0  0  0  0
   -4.6414    1.0999    0.0026 H   0  0  0  0  0  0  0  0  0  0  0  0
    4.6414    1.0999    0.0029 H   0  0  0  0  0  0  0  0  0  0  0  0
   -4.5059   -1.3763    0.0035 H   0  0  0  0  0  0  0  0  0  0  0  0
    4.5060   -1.3762    0.0024 H   0  0  0  0  0  0  0  0  0  0  0  0
  1  5  1  0  0  0  0
  1  6  1  0  0  0  0
  2  3  1  0  0  0  0
  2  4  1  0  0  0  0
  2 15  1  0  0  0  0
  2 16  1  0  0  0  0
  3  5  1  0  0  0  0
  3  7  2  0  0  0  0
  4  6  1  0  0  0  0
  4  8  2  0  0  0  0
  5  9  2  0  0  0  0
  6 10  2  0  0  0  0
  7 11  1  0  0  0  0
  7 17  1  0  0  0  0
  8 12  1  0  0  0  0
  8 18  1  0  0  0  0
  9 13  1  0  0  0  0
  9 19  1  0  0  0  0
 10 14  1  0  0  0  0
 10 20  1  0  0  0  0
 11 13  2  0  0  0  0
 11 21  1  0  0  0  0
 12 14  2  0  0  0  0
 12 22  1  0  0  0  0
 13 23  1  0  0  0  0
 14 24  1  0  0  0  0
M  END
> <PUBCHEM_COMPOUND_CID>
7107

> <PUBCHEM_CONFORMER_RMSD>
0.4

> <PUBCHEM_CONFORMER_DIVERSEORDER>
1

> <PUBCHEM_MMFF94_PARTIAL_CHARGES>
22
1 -0.17
10 -0.15
11 -0.15
12 -0.15
13 -0.15
14 -0.15
17 0.15
18 0.15
19 0.15
2 0.29
20 0.15
21 0.15
22 0.15
23 0.15
24 0.15
3 -0.14
4 -0.14
5 0.08
6 0.08
7 -0.15
8 -0.15
9 -0.15

> <PUBCHEM_EFFECTIVE_ROTOR_COUNT>
0.4

> <PUBCHEM_PHARMACOPHORE_FEATURES>
4
1 1 acceptor
6 1 2 3 4 5 6 rings
6 3 5 7 9 11 13 rings
6 4 6 8 10 12 14 rings

> <PUBCHEM_HEAVY_ATOM_COUNT>
14

> <PUBCHEM_ATOM_DEF_STEREO_COUNT>
0

> <PUBCHEM_ATOM_UDEF_STEREO_COUNT>
0

> <PUBCHEM_BOND_DEF_STEREO_COUNT>
0

> <PUBCHEM_BOND_UDEF_STEREO_COUNT>
0

> <PUBCHEM_ISOTOPIC_ATOM_COUNT>
0

> <PUBCHEM_COMPONENT_COUNT>
1

> <PUBCHEM_CACTVS_TAUTO_COUNT>
1

> <PUBCHEM_CONFORMER_ID>
00001BC300000001

> <PUBCHEM_MMFF94_ENERGY>
41.0288

> <PUBCHEM_FEATURE_SELFOVERLAP>
20.353

> <PUBCHEM_SHAPE_FINGERPRINT>
10608611 8 18410578387493358277
10967382 1 18410855481650574982
11132069 177 18409736157333361952
11471102 20 18410579491389241036
11806522 49 18339083666521290719
12032990 46 18410851066376767395
13221675 6 18410856563934802338
13296908 3 18410854364911650723
13380535 76 18410575084663475175
14144814 61 18410573998041627899
14325111 11 18410573989451907552
15196674 1 18410575088958078693
15219456 202 18409449189051210100
15442244 35 18194119844315354090
15536298 74 18334575741898529408
15775835 57 18410569587105043968
16945 1 18194682793994364712
17844478 74 18060133258580937333
18186145 218 18060422438507411446
18522853 276 18407762533945764264
193761 8 17617940674093655237
200 152 18041008323642198517
20201158 50 18410292527354798067
20510252 161 18260265282631614521
20645477 70 18336831978150135927
21267235 1 18410565189058825186
21501502 16 18410573985151470628
21501925 9 18411429405561896930
221490 88 18340760447497072642
2334 1 18410855430063390724
23402539 116 18334023790929085598
23402655 69 18336269019601342813
23463225 33 18412544323052747204
23559900 14 18335707195498896122
2748010 2 18410575084663092060
3312278 4 18409445877700055305
335352 9 18122344850250569597
474 4 16987146120828682972
5104073 3 18410856555344829768
528886 8 18410298012075345586
53812653 166 18334018254953877704
69090 78 18334581243741235687
7364860 26 18263926536225146016
8809292 202 18272083877162716915
9709674 26 18410006624362173126

> <PUBCHEM_SHAPE_MULTIPOLES>
282.24
6.62
1.74
0.61
0
0.04
0
-0.29
0.01
0
0
0
0.01
0

> <PUBCHEM_SHAPE_SELFOVERLAP>
631.323

> <PUBCHEM_SHAPE_VOLUME>
148.8

> <PUBCHEM_COORDINATE_TYPE>
2
5
10

$$$$

