87111
  -OEChem-07051213092D

 16 17  0     0  0  0  0  0  0999 V2000
    2.0000    0.8030    0.0000 Cl  0  0  0  0  0  0  0  0  0  0  0  0
    5.5443    0.6077    0.0000 N   0  0  0  0  0  0  0  0  0  0  0  0
    4.5981    0.3030    0.0000 C   0  0  0  0  0  0  0  0  0  0  0  0
    4.5981   -0.6970    0.0000 C   0  0  0  0  0  0  0  0  0  0  0  0
    5.5443   -1.0018    0.0000 C   0  0  0  0  0  0  0  0  0  0  0  0
    3.7320    0.8030    0.0000 C   0  0  0  0  0  0  0  0  0  0  0  0
    3.7320   -1.1970    0.0000 C   0  0  0  0  0  0  0  0  0  0  0  0
    6.1279   -0.1970    0.0000 C   0  0  0  0  0  0  0  0  0  0  0  0
    2.8660    0.3030    0.0000 C   0  0  0  0  0  0  0  0  0  0  0  0
    2.8660   -0.6970    0.0000 C   0  0  0  0  0  0  0  0  0  0  0  0
    5.7369    1.1970    0.0000 H   0  0  0  0  0  0  0  0  0  0  0  0
    5.7369   -1.5911    0.0000 H   0  0  0  0  0  0  0  0  0  0  0  0
    3.7320    1.4230    0.0000 H   0  0  0  0  0  0  0  0  0  0  0  0
    3.7320   -1.8170    0.0000 H   0  0  0  0  0  0  0  0  0  0  0  0
    6.7479   -0.1970    0.0000 H   0  0  0  0  0  0  0  0  0  0  0  0
    2.3291   -1.0070    0.0000 H   0  0  0  0  0  0  0  0  0  0  0  0
  1  9  1  0  0  0  0
  2  3  1  0  0  0  0
  2  8  1  0  0  0  0
  2 11  1  0  0  0  0
  3  4  2  0  0  0  0
  3  6  1  0  0  0  0
  4  5  1  0  0  0  0
  4  7  1  0  0  0  0
  5  8  2  0  0  0  0
  5 12  1  0  0  0  0
  6  9  2  0  0  0  0
  6 13  1  0  0  0  0
  7 10  2  0  0  0  0
  7 14  1  0  0  0  0
  8 15  1  0  0  0  0
  9 10  1  0  0  0  0
 10 16  1  0  0  0  0
M  END
> <PUBCHEM_COMPOUND_CID>
87111

> <PUBCHEM_COMPOUND_CANONICALIZED>
1

> <PUBCHEM_CACTVS_COMPLEXITY>
126

> <PUBCHEM_CACTVS_HBOND_ACCEPTOR>
0

> <PUBCHEM_CACTVS_HBOND_DONOR>
1

> <PUBCHEM_CACTVS_ROTATABLE_BOND>
0

> <PUBCHEM_CACTVS_SUBSKEYS>
AAADcYByAAAEAAAAAAAAAAAAAAAAAWAAAAAwAAAAAAAAAFgB8AAAHAIQAAAADArBHiQ8wPLJkACgAzRnRACCgCAxByAI2aA4ZpgIIOLBk5GEIAhgkADIyAcQgIAOBAAAAAICAAAIAAAABAQAAAAAAAAAAA==

> <PUBCHEM_IUPAC_OPENEYE_NAME>
6-chloro-1H-indole

> <PUBCHEM_IUPAC_CAS_NAME>
6-chloro-1H-indole

> <PUBCHEM_IUPAC_NAME>
6-chloro-1H-indole

> <PUBCHEM_IUPAC_SYSTEMATIC_NAME>
6-chloranyl-1H-indole

> <PUBCHEM_IUPAC_TRADITIONAL_NAME>
6-chloro-1H-indole

> <PUBCHEM_IUPAC_INCHI>
InChI=1S/C8H6ClN/c9-7-2-1-6-3-4-10-8(6)5-7/h1-5,10H

> <PUBCHEM_IUPAC_INCHIKEY>
YTYIMDRWPTUAHP-UHFFFAOYSA-N

> <PUBCHEM_XLOGP3>
3.2

> <PUBCHEM_EXACT_MASS>
151.018877

> <PUBCHEM_MOLECULAR_FORMULA>
C8H6ClN

> <PUBCHEM_MOLECULAR_WEIGHT>
151.59294

> <PUBCHEM_OPENEYE_CAN_SMILES>
C1=CC(=CC2=C1C=CN2)Cl

> <PUBCHEM_OPENEYE_ISO_SMILES>
C1=CC(=CC2=C1C=CN2)Cl

> <PUBCHEM_CACTVS_TPSA>
15.8

> <PUBCHEM_MONOISOTOPIC_WEIGHT>
151.018877

> <PUBCHEM_TOTAL_CHARGE>
0

> <PUBCHEM_HEAVY_ATOM_COUNT>
10

> <PUBCHEM_ATOM_DEF_STEREO_COUNT>
0

> <PUBCHEM_ATOM_UDEF_STEREO_COUNT>
0

> <PUBCHEM_BOND_DEF_STEREO_COUNT>
0

> <PUBCHEM_BOND_UDEF_STEREO_COUNT>
0

> <PUBCHEM_ISOTOPIC_ATOM_COUNT>
0

> <PUBCHEM_COMPONENT_COUNT>
1

> <PUBCHEM_CACTVS_TAUTO_COUNT>
1

> <PUBCHEM_COORDINATE_TYPE>
1
5
255

> <PUBCHEM_BONDANNOTATIONS>
2  3  8
2  8  8
3  4  8
3  6  8
4  5  8
4  7  8
5  8  8
6  9  8
7  10  8
9  10  8

$$$$

