12227
  -OEChem-06261206413D

  8  7  0     0  0  0  0  0  0999 V2000
   -1.7189    0.2266   -0.0001 O   0  0  0  0  0  0  0  0  0  0  0  0
    1.7899   -0.0151   -0.0001 N   0  0  0  0  0  0  0  0  0  0  0  0
   -0.5349   -0.5153    0.0000 N   0  0  0  0  0  0  0  0  0  0  0  0
    0.4639    0.3038    0.0001 C   0  0  0  0  0  0  0  0  0  0  0  0
    0.3143    1.3979    0.0001 H   0  0  0  0  0  0  0  0  0  0  0  0
    2.5088    0.7008    0.0005 H   0  0  0  0  0  0  0  0  0  0  0  0
    2.0979   -0.9814    0.0000 H   0  0  0  0  0  0  0  0  0  0  0  0
   -2.3901   -0.4765   -0.0002 H   0  0  0  0  0  0  0  0  0  0  0  0
  1  3  1  0  0  0  0
  1  8  1  0  0  0  0
  2  4  1  0  0  0  0
  2  6  1  0  0  0  0
  2  7  1  0  0  0  0
  3  4  2  0  0  0  0
  4  5  1  0  0  0  0
M  END
> <PUBCHEM_COMPOUND_CID>
12227

> <PUBCHEM_CONFORMER_RMSD>
0.4

> <PUBCHEM_CONFORMER_DIVERSEORDER>
1

> <PUBCHEM_MMFF94_PARTIAL_CHARGES>
8
1 -0.34
2 -0.85
3 -0.51
4 0.44
5 0.06
6 0.4
7 0.4
8 0.4

> <PUBCHEM_EFFECTIVE_ROTOR_COUNT>
0

> <PUBCHEM_PHARMACOPHORE_FEATURES>
3
1 1 anion
1 2 donor
3 2 3 4 cation

> <PUBCHEM_HEAVY_ATOM_COUNT>
4

> <PUBCHEM_ATOM_DEF_STEREO_COUNT>
0

> <PUBCHEM_ATOM_UDEF_STEREO_COUNT>
0

> <PUBCHEM_BOND_DEF_STEREO_COUNT>
0

> <PUBCHEM_BOND_UDEF_STEREO_COUNT>
1

> <PUBCHEM_ISOTOPIC_ATOM_COUNT>
0

> <PUBCHEM_COMPONENT_COUNT>
1

> <PUBCHEM_CACTVS_TAUTO_COUNT>
3

> <PUBCHEM_CONFORMER_ID>
00002FC300000001

> <PUBCHEM_MMFF94_ENERGY>
3.468

> <PUBCHEM_FEATURE_SELFOVERLAP>
15.223

> <PUBCHEM_SHAPE_FINGERPRINT>
139733 1 9295289443360628864
20096714 4 18342736278165577028
21015797 1 9365616401637933328
5460574 1 9295292741716164128

> <PUBCHEM_SHAPE_MULTIPOLES>
66.49
2.08
0.64
0.54
0.02
0
0
-0.1
0
-0.03
0
0.02
-0.01
0

> <PUBCHEM_SHAPE_SELFOVERLAP>
111.316

> <PUBCHEM_SHAPE_VOLUME>
45.4

> <PUBCHEM_COORDINATE_TYPE>
2
5
10

$$$$

