5604
  -OEChem-06261200463D

 33 35  0     1  0  0  0  0  0999 V2000
   -1.8736    0.1306    1.2046 O   0  0  0  0  0  0  0  0  0  0  0  0
   -1.8041   -2.5976   -0.6073 O   0  0  0  0  0  0  0  0  0  0  0  0
   -2.6574    0.7237   -1.6381 O   0  0  0  0  0  0  0  0  0  0  0  0
   -5.2988    0.8727    0.2059 O   0  0  0  0  0  0  0  0  0  0  0  0
    0.2929    0.1581    0.2422 N   0  0  0  0  0  0  0  0  0  0  0  0
    1.9715   -1.5623    0.4399 N   0  0  0  0  0  0  0  0  0  0  0  0
    4.2328   -0.7322    0.0867 N   0  0  0  0  0  0  0  0  0  0  0  0
    4.6997    1.5567   -0.4044 N   0  0  0  0  0  0  0  0  0  0  0  0
   -0.8944   -0.6577    0.5045 C   0  0  2  0  0  0  0  0  0  0  0  0
   -1.5538   -1.2029   -0.7654 C   0  0  2  0  0  0  0  0  0  0  0  0
   -2.8656   -0.4464   -0.8578 C   0  0  1  0  0  0  0  0  0  0  0  0
   -3.1556   -0.1063    0.5998 C   0  0  2  0  0  0  0  0  0  0  0  0
   -4.0471    1.0993    0.8334 C   0  0  0  0  0  0  0  0  0  0  0  0
    1.5880   -0.2922    0.2221 C   0  0  0  0  0  0  0  0  0  0  0  0
    0.2773    1.5055   -0.0217 C   0  0  0  0  0  0  0  0  0  0  0  0
    2.4155    0.7878   -0.0599 C   0  0  0  0  0  0  0  0  0  0  0  0
    1.5776    1.9219   -0.2128 C   0  0  0  0  0  0  0  0  0  0  0  0
    3.7835    0.5268   -0.1234 C   0  0  0  0  0  0  0  0  0  0  0  0
    3.3115   -1.6856    0.3516 C   0  0  0  0  0  0  0  0  0  0  0  0
   -0.5848   -1.4613    1.1828 H   0  0  0  0  0  0  0  0  0  0  0  0
   -0.9212   -1.0817   -1.6516 H   0  0  0  0  0  0  0  0  0  0  0  0
   -3.6734   -1.0287   -1.3129 H   0  0  0  0  0  0  0  0  0  0  0  0
   -3.5895   -0.9875    1.0905 H   0  0  0  0  0  0  0  0  0  0  0  0
   -3.5997    2.0190    0.4415 H   0  0  0  0  0  0  0  0  0  0  0  0
   -4.2067    1.2500    1.9066 H   0  0  0  0  0  0  0  0  0  0  0  0
   -0.6482    2.0641   -0.0567 H   0  0  0  0  0  0  0  0  0  0  0  0
   -2.2601   -2.9038   -1.4097 H   0  0  0  0  0  0  0  0  0  0  0  0
   -3.5211    1.1539   -1.7577 H   0  0  0  0  0  0  0  0  0  0  0  0
    1.8817    2.9348   -0.4385 H   0  0  0  0  0  0  0  0  0  0  0  0
   -5.8502    1.6550    0.3778 H   0  0  0  0  0  0  0  0  0  0  0  0
    3.7038   -2.6836    0.5151 H   0  0  0  0  0  0  0  0  0  0  0  0
    4.3795    2.5020   -0.5645 H   0  0  0  0  0  0  0  0  0  0  0  0
    5.6860    1.3388   -0.4453 H   0  0  0  0  0  0  0  0  0  0  0  0
  1  9  1  0  0  0  0
  1 12  1  0  0  0  0
  2 10  1  0  0  0  0
  2 27  1  0  0  0  0
  3 11  1  0  0  0  0
  3 28  1  0  0  0  0
  4 13  1  0  0  0  0
  4 30  1  0  0  0  0
  5  9  1  0  0  0  0
  5 14  1  0  0  0  0
  5 15  1  0  0  0  0
  6 14  2  0  0  0  0
  6 19  1  0  0  0  0
  7 18  1  0  0  0  0
  7 19  2  0  0  0  0
  8 18  1  0  0  0  0
  8 32  1  0  0  0  0
  8 33  1  0  0  0  0
  9 10  1  0  0  0  0
  9 20  1  0  0  0  0
 10 11  1  0  0  0  0
 10 21  1  0  0  0  0
 11 12  1  0  0  0  0
 11 22  1  0  0  0  0
 12 13  1  0  0  0  0
 12 23  1  0  0  0  0
 13 24  1  0  0  0  0
 13 25  1  0  0  0  0
 14 16  1  0  0  0  0
 15 17  2  0  0  0  0
 15 26  1  0  0  0  0
 16 17  1  0  0  0  0
 16 18  2  0  0  0  0
 17 29  1  0  0  0  0
 19 31  1  0  0  0  0
M  END
> <PUBCHEM_COMPOUND_CID>
5604

> <PUBCHEM_CONFORMER_RMSD>
0.6

> <PUBCHEM_CONFORMER_DIVERSEORDER>
43
18
126
69
13
115
108
85
128
65
59
107
46
82
15
124
68
31
134
72
34
95
113
98
54
130
127
79
58
50
118
29
78
73
94
61
102
101
96
10
116
87
92
12
28
39
132
76
90
111
63
60
38
17
97
47
131
74
105
6
109
89
120
57
75
5
24
48
70
52
104
33
133
66
64
83
21
41
77
1
99
67
42
117
16
88
19
93
44
23
7
14
123
56
11
20
25
80
49
121
37
81
8
100
2
135
32
112
129
3
103
40
4
62
114
122
71
86
36
45
91
84
9
110
51
53
35
27
30
125
26
22
106
55
119

> <PUBCHEM_MMFF94_PARTIAL_CHARGES>
26
1 -0.56
10 0.28
11 0.28
12 0.28
13 0.28
14 0.11
15 -0.3
17 -0.15
18 0.41
19 0.47
2 -0.68
26 0.15
27 0.4
28 0.4
29 0.15
3 -0.68
30 0.4
31 0.15
32 0.4
33 0.4
4 -0.68
5 0.05
6 -0.57
7 -0.62
8 -0.9
9 0.54

> <PUBCHEM_EFFECTIVE_ROTOR_COUNT>
3

> <PUBCHEM_PHARMACOPHORE_FEATURES>
14
1 1 acceptor
1 2 acceptor
1 2 donor
1 3 acceptor
1 3 donor
1 4 acceptor
1 4 donor
1 8 cation
1 8 donor
3 5 6 14 cation
3 6 7 19 cation
5 1 9 10 11 12 rings
5 5 14 15 16 17 rings
6 6 7 14 16 18 19 rings

> <PUBCHEM_HEAVY_ATOM_COUNT>
19

> <PUBCHEM_ATOM_DEF_STEREO_COUNT>
0

> <PUBCHEM_ATOM_UDEF_STEREO_COUNT>
4

> <PUBCHEM_BOND_DEF_STEREO_COUNT>
0

> <PUBCHEM_BOND_UDEF_STEREO_COUNT>
0

> <PUBCHEM_ISOTOPIC_ATOM_COUNT>
0

> <PUBCHEM_COMPONENT_COUNT>
1

> <PUBCHEM_CACTVS_TAUTO_COUNT>
4

> <PUBCHEM_CONFORMER_ID>
000015E40000002B

> <PUBCHEM_MMFF94_ENERGY>
44.4605

> <PUBCHEM_FEATURE_SELFOVERLAP>
71.32

> <PUBCHEM_SHAPE_FINGERPRINT>
10922523 26 18059861674755511164
11471102 20 18342738524607461728
11578080 2 17679618676560743376
12236239 1 18113336422672098483
12553582 1 18409735092635062108
12788726 201 17603856862166164152
13140716 1 18411424986130636162
13675066 3 18202278095754648353
13760787 19 18335136458358271606
14004511 7 18260266369421591009
14144814 61 18335421266013326146
14178342 30 18192168009307496298
15196674 1 18410854343653202586
15219456 202 17917715716400221956
16945 1 18410864243689885424
17844478 74 17418093234760926765
18186145 218 17775005700037474042
18785283 64 17129561471980043364
200 152 18261396607466974591
20281475 54 18408891728514522370
20645476 183 18187645769754124023
20645477 70 18411698828939846878
21267235 1 18339352071944155178
23184049 59 18410852200422122435
23402539 116 17676492769893625961
23402655 69 18410009914675847764
23559900 14 16877660158874968952
25 1 18272934907936912970
2748010 2 15528544706952997224
296302 2 18408882919341393508
300161 21 18113340799692380352
34934 24 18409450258994030024
350125 39 18266175033403867179
474 4 18200308802121502136
5104073 3 18412266103766820810
69090 78 18409450297574882651
74978 22 18261678064810063961
77492 1 18040715865933120802
7832392 63 18335985268196818160
8272917 22 18337666524502421558
84936 182 17899698955770263928
9981440 41 17471866800627431960

> <PUBCHEM_SHAPE_MULTIPOLES>
347.61
8.7
1.93
0.96
0.83
0.47
-0.14
-1.88
0.28
-0.64
-0.19
0.78
-0.01
-0.77

> <PUBCHEM_SHAPE_SELFOVERLAP>
756.822

> <PUBCHEM_SHAPE_VOLUME>
186.7

> <PUBCHEM_COORDINATE_TYPE>
2
5
10

$$$$

