103008
  -OEChem-07051213032D

 30 31  0     1  0  0  0  0  0999 V2000
    3.7320   -2.0755    0.0000 O   0  0  0  0  0  0  0  0  0  0  0  0
    2.8660   -0.5755    0.0000 O   0  0  0  0  0  0  0  0  0  0  0  0
    6.5690    1.2095    0.0000 N   0  0  0  0  0  0  0  0  0  0  0  0
    7.3056    0.2268    0.0000 C   0  0  3  0  0  0  0  0  0  0  0  0
    7.0468   -0.7391    0.0000 C   0  0  3  0  0  0  0  0  0  0  0  0
    8.8787   -1.4979    0.0000 C   0  0  0  0  0  0  0  0  0  0  0  0
    9.1375   -0.5320    0.0000 C   0  0  0  0  0  0  0  0  0  0  0  0
    5.5116   -1.9822    0.0000 C   0  0  0  0  0  0  0  0  0  0  0  0
    4.7026   -0.5810    0.0000 C   0  0  0  0  0  0  0  0  0  0  0  0
    4.5981   -1.5755    0.0000 C   0  0  0  0  0  0  0  0  0  0  0  0
    6.0690    2.0755    0.0000 C   0  0  0  0  0  0  0  0  0  0  0  0
    2.8660   -1.5755    0.0000 C   0  0  0  0  0  0  0  0  0  0  0  0
    2.0000   -2.0755    0.0000 C   0  0  0  0  0  0  0  0  0  0  0  0
    7.1357   -1.3527    0.0000 H   0  0  0  0  0  0  0  0  0  0  0  0
    7.2772   -0.3925    0.0000 H   0  0  0  0  0  0  0  0  0  0  0  0
    9.7288   -0.7184    0.0000 H   0  0  0  0  0  0  0  0  0  0  0  0
    9.3496    0.0506    0.0000 H   0  0  0  0  0  0  0  0  0  0  0  0
    8.6667   -2.0805    0.0000 H   0  0  0  0  0  0  0  0  0  0  0  0
    9.4700   -1.6843    0.0000 H   0  0  0  0  0  0  0  0  0  0  0  0
    4.6003    0.0305    0.0000 H   0  0  0  0  0  0  0  0  0  0  0  0
    4.0829   -0.5999    0.0000 H   0  0  0  0  0  0  0  0  0  0  0  0
    5.1739   -2.5022    0.0000 H   0  0  0  0  0  0  0  0  0  0  0  0
    5.9724   -2.3971    0.0000 H   0  0  0  0  0  0  0  0  0  0  0  0
    4.0781   -1.2378    0.0000 H   0  0  0  0  0  0  0  0  0  0  0  0
    6.6059    2.3855    0.0000 H   0  0  0  0  0  0  0  0  0  0  0  0
    5.7590    2.6124    0.0000 H   0  0  0  0  0  0  0  0  0  0  0  0
    5.5320    1.7655    0.0000 H   0  0  0  0  0  0  0  0  0  0  0  0
    1.6900   -1.5386    0.0000 H   0  0  0  0  0  0  0  0  0  0  0  0
    1.4631   -2.3855    0.0000 H   0  0  0  0  0  0  0  0  0  0  0  0
    2.3100   -2.6124    0.0000 H   0  0  0  0  0  0  0  0  0  0  0  0
  1 10  1  0  0  0  0
  1 12  1  0  0  0  0
  2 12  2  0  0  0  0
  3  4  1  0  0  0  0
  3  5  1  0  0  0  0
  3 11  1  0  0  0  0
  4  7  1  0  0  0  0
  4  9  1  0  0  0  0
  4 15  1  0  0  0  0
  5  6  1  0  0  0  0
  5  8  1  0  0  0  0
  5 14  1  0  0  0  0
  6  7  1  0  0  0  0
  6 18  1  0  0  0  0
  6 19  1  0  0  0  0
  7 16  1  0  0  0  0
  7 17  1  0  0  0  0
  8 10  1  0  0  0  0
  8 22  1  0  0  0  0
  8 23  1  0  0  0  0
  9 10  1  0  0  0  0
  9 20  1  0  0  0  0
  9 21  1  0  0  0  0
 10 24  1  0  0  0  0
 11 25  1  0  0  0  0
 11 26  1  0  0  0  0
 11 27  1  0  0  0  0
 12 13  1  0  0  0  0
 13 28  1  0  0  0  0
 13 29  1  0  0  0  0
 13 30  1  0  0  0  0
M  END
> <PUBCHEM_COMPOUND_CID>
103008

> <PUBCHEM_COMPOUND_CANONICALIZED>
1

> <PUBCHEM_CACTVS_COMPLEXITY>
203

> <PUBCHEM_CACTVS_HBOND_ACCEPTOR>
3

> <PUBCHEM_CACTVS_HBOND_DONOR>
0

> <PUBCHEM_CACTVS_ROTATABLE_BOND>
2

> <PUBCHEM_CACTVS_SUBSKEYS>
AAADceByMAAAAAAAAAAAAAAAAAAAAWAAAAAsAAAABgAAAAAAAAAAHgAAAAAACDzhgAYCCAMABAAIAACQCAAAAAAAAAAAAAAIAAAAAAIAgAAGAAAGAACAAAGQwCAAAAAAAAAAAAAAAAAAAAAAAAAAAAAAAA==

> <PUBCHEM_IUPAC_OPENEYE_NAME>
(8-methyl-8-azabicyclo[3.2.1]octan-3-yl) acetate

> <PUBCHEM_IUPAC_CAS_NAME>
acetic acid (8-methyl-8-azabicyclo[3.2.1]octan-3-yl) ester

> <PUBCHEM_IUPAC_NAME>
(8-methyl-8-azabicyclo[3.2.1]octan-3-yl) acetate

> <PUBCHEM_IUPAC_SYSTEMATIC_NAME>
(8-methyl-8-azabicyclo[3.2.1]octan-3-yl) ethanoate

> <PUBCHEM_IUPAC_TRADITIONAL_NAME>
acetic acid (8-methyl-8-azabicyclo[3.2.1]octan-3-yl) ester

> <PUBCHEM_IUPAC_INCHI>
InChI=1S/C10H17NO2/c1-7(12)13-10-5-8-3-4-9(6-10)11(8)2/h8-10H,3-6H2,1-2H3

> <PUBCHEM_IUPAC_INCHIKEY>
MDIDMOWWLBGYPG-UHFFFAOYSA-N

> <PUBCHEM_XLOGP3_AA>
1.3

> <PUBCHEM_EXACT_MASS>
183.125929

> <PUBCHEM_MOLECULAR_FORMULA>
C10H17NO2

> <PUBCHEM_MOLECULAR_WEIGHT>
183.24748

> <PUBCHEM_OPENEYE_CAN_SMILES>
CC(=O)OC1CC2CCC(C1)N2C

> <PUBCHEM_OPENEYE_ISO_SMILES>
CC(=O)OC1CC2CCC(C1)N2C

> <PUBCHEM_CACTVS_TPSA>
29.5

> <PUBCHEM_MONOISOTOPIC_WEIGHT>
183.125929

> <PUBCHEM_TOTAL_CHARGE>
0

> <PUBCHEM_HEAVY_ATOM_COUNT>
13

> <PUBCHEM_ATOM_DEF_STEREO_COUNT>
0

> <PUBCHEM_ATOM_UDEF_STEREO_COUNT>
2

> <PUBCHEM_BOND_DEF_STEREO_COUNT>
0

> <PUBCHEM_BOND_UDEF_STEREO_COUNT>
0

> <PUBCHEM_ISOTOPIC_ATOM_COUNT>
0

> <PUBCHEM_COMPONENT_COUNT>
1

> <PUBCHEM_CACTVS_TAUTO_COUNT>
1

> <PUBCHEM_COORDINATE_TYPE>
1
5
255

> <PUBCHEM_BONDANNOTATIONS>
4  9  3
5  8  3

$$$$

