442729
  -OEChem-07051212592D

 30 32  0     0  0  0  0  0  0999 V2000
    9.0602    0.8488    0.0000 Cl  0  0  0  0  0  0  0  0  0  0  0  0
    3.7817    1.8592    0.0000 O   0  0  0  0  0  0  0  0  0  0  0  0
    5.5301    1.8246    0.0000 O   0  0  0  0  0  0  0  0  0  0  0  0
    5.5301   -2.1754    0.0000 O   0  0  0  0  0  0  0  0  0  0  0  0
    7.2785    1.8592    0.0000 O   0  0  0  0  0  0  0  0  0  0  0  0
    9.0602   -1.1995    0.0000 O   0  0  0  0  0  0  0  0  0  0  0  0
    4.6641   -0.6754    0.0000 C   0  0  0  0  0  0  0  0  0  0  0  0
    4.6641    0.3246    0.0000 C   0  0  0  0  0  0  0  0  0  0  0  0
    6.3961    0.3246    0.0000 C   0  0  0  0  0  0  0  0  0  0  0  0
    6.3961   -0.6754    0.0000 C   0  0  0  0  0  0  0  0  0  0  0  0
    5.5301    0.8246    0.0000 C   0  0  0  0  0  0  0  0  0  0  0  0
    5.5301   -1.1754    0.0000 C   0  0  0  0  0  0  0  0  0  0  0  0
    3.7702   -1.2100    0.0000 C   0  0  0  0  0  0  0  0  0  0  0  0
    3.7702    0.8593    0.0000 C   0  0  0  0  0  0  0  0  0  0  0  0
    2.8641   -0.6962    0.0000 C   0  0  0  0  0  0  0  0  0  0  0  0
    7.2901    0.8593    0.0000 C   0  0  0  0  0  0  0  0  0  0  0  0
    7.2901   -1.2100    0.0000 C   0  0  0  0  0  0  0  0  0  0  0  0
    2.8641    0.3454    0.0000 C   0  0  0  0  0  0  0  0  0  0  0  0
    8.1962   -0.6962    0.0000 C   0  0  0  0  0  0  0  0  0  0  0  0
    8.1962    0.3454    0.0000 C   0  0  0  0  0  0  0  0  0  0  0  0
    2.0000   -1.1995    0.0000 C   0  0  0  0  0  0  0  0  0  0  0  0
    3.7773   -1.8300    0.0000 H   0  0  0  0  0  0  0  0  0  0  0  0
    7.2829   -1.8300    0.0000 H   0  0  0  0  0  0  0  0  0  0  0  0
    2.3284    0.6575    0.0000 H   0  0  0  0  0  0  0  0  0  0  0  0
    1.6879   -0.6638    0.0000 H   0  0  0  0  0  0  0  0  0  0  0  0
    1.4643   -1.5116    0.0000 H   0  0  0  0  0  0  0  0  0  0  0  0
    2.3121   -1.7353    0.0000 H   0  0  0  0  0  0  0  0  0  0  0  0
    3.2484    2.1754    0.0000 H   0  0  0  0  0  0  0  0  0  0  0  0
    7.8118    2.1754    0.0000 H   0  0  0  0  0  0  0  0  0  0  0  0
    9.0579   -1.8195    0.0000 H   0  0  0  0  0  0  0  0  0  0  0  0
  1 20  1  0  0  0  0
  2 14  1  0  0  0  0
  2 28  1  0  0  0  0
  3 11  2  0  0  0  0
  4 12  2  0  0  0  0
  5 16  1  0  0  0  0
  5 29  1  0  0  0  0
  6 19  1  0  0  0  0
  6 30  1  0  0  0  0
  7  8  2  0  0  0  0
  7 12  1  0  0  0  0
  7 13  1  0  0  0  0
  8 11  1  0  0  0  0
  8 14  1  0  0  0  0
  9 10  1  0  0  0  0
  9 11  1  0  0  0  0
  9 16  2  0  0  0  0
 10 12  1  0  0  0  0
 10 17  2  0  0  0  0
 13 15  2  0  0  0  0
 13 22  1  0  0  0  0
 14 18  2  0  0  0  0
 15 18  1  0  0  0  0
 15 21  1  0  0  0  0
 16 20  1  0  0  0  0
 17 19  1  0  0  0  0
 17 23  1  0  0  0  0
 18 24  1  0  0  0  0
 19 20  2  0  0  0  0
 21 25  1  0  0  0  0
 21 26  1  0  0  0  0
 21 27  1  0  0  0  0
M  END
> <PUBCHEM_COMPOUND_CID>
442729

> <PUBCHEM_COMPOUND_CANONICALIZED>
1

> <PUBCHEM_CACTVS_COMPLEXITY>
467

> <PUBCHEM_CACTVS_HBOND_ACCEPTOR>
5

> <PUBCHEM_CACTVS_HBOND_DONOR>
3

> <PUBCHEM_CACTVS_ROTATABLE_BOND>
0

> <PUBCHEM_CACTVS_SUBSKEYS>
AAADccBwOAAEAAAAAAAAAAAAAAAAAAAAAAAwYMAAAAAAAADBQAAAGgIACAAADAaAmCAyBoAAAgCIAqBSAAACAAAkJEAAiAEGC8gIJzaDFxKAcUAl4BUImYeL7PTO5AADKAAYCADIAAZQADAQAAAAAAAAAA==

> <PUBCHEM_IUPAC_OPENEYE_NAME>
2-chloro-1,3,8-trihydroxy-6-methyl-anthracene-9,10-dione

> <PUBCHEM_IUPAC_CAS_NAME>
2-chloro-1,3,8-trihydroxy-6-methylanthracene-9,10-dione

> <PUBCHEM_IUPAC_NAME>
2-chloro-1,3,8-trihydroxy-6-methylanthracene-9,10-dione

> <PUBCHEM_IUPAC_SYSTEMATIC_NAME>
2-chloranyl-6-methyl-1,3,8-tris(oxidanyl)anthracene-9,10-dione

> <PUBCHEM_IUPAC_TRADITIONAL_NAME>
2-chloro-1,3,8-trihydroxy-6-methyl-9,10-anthraquinone

> <PUBCHEM_IUPAC_INCHI>
InChI=1S/C15H9ClO5/c1-5-2-6-10(8(17)3-5)14(20)11-7(13(6)19)4-9(18)12(16)15(11)21/h2-4,17-18,21H,1H3

> <PUBCHEM_IUPAC_INCHIKEY>
AVSZOSVPTLSHOV-UHFFFAOYSA-N

> <PUBCHEM_XLOGP3_AA>
3.3

> <PUBCHEM_EXACT_MASS>
304.013851

> <PUBCHEM_MOLECULAR_FORMULA>
C15H9ClO5

> <PUBCHEM_MOLECULAR_WEIGHT>
304.68196

> <PUBCHEM_OPENEYE_CAN_SMILES>
CC1=CC(=C2C(=C1)C(=O)C3=CC(=C(C(=C3C2=O)O)Cl)O)O

> <PUBCHEM_OPENEYE_ISO_SMILES>
CC1=CC(=C2C(=C1)C(=O)C3=CC(=C(C(=C3C2=O)O)Cl)O)O

> <PUBCHEM_CACTVS_TPSA>
94.8

> <PUBCHEM_MONOISOTOPIC_WEIGHT>
304.013851

> <PUBCHEM_TOTAL_CHARGE>
0

> <PUBCHEM_HEAVY_ATOM_COUNT>
21

> <PUBCHEM_ATOM_DEF_STEREO_COUNT>
0

> <PUBCHEM_ATOM_UDEF_STEREO_COUNT>
0

> <PUBCHEM_BOND_DEF_STEREO_COUNT>
0

> <PUBCHEM_BOND_UDEF_STEREO_COUNT>
0

> <PUBCHEM_ISOTOPIC_ATOM_COUNT>
0

> <PUBCHEM_COMPONENT_COUNT>
1

> <PUBCHEM_CACTVS_TAUTO_COUNT>
135

> <PUBCHEM_COORDINATE_TYPE>
1
5
255

> <PUBCHEM_BONDANNOTATIONS>
10  17  8
13  15  8
14  18  8
15  18  8
16  20  8
17  19  8
19  20  8
7  13  8
7  8  8
8  14  8
9  10  8
9  16  8

$$$$

