13678
  -OEChem-06241222393D

 20 20  0     0  0  0  0  0  0999 V2000
   -1.5959   -2.6935   -0.1832 Cl  0  0  0  0  0  0  0  0  0  0  0  0
    1.5982   -2.6918   -0.1820 Cl  0  0  0  0  0  0  0  0  0  0  0  0
   -1.5988    2.6917   -0.1814 Cl  0  0  0  0  0  0  0  0  0  0  0  0
    1.5965    2.6928   -0.1827 Cl  0  0  0  0  0  0  0  0  0  0  0  0
   -2.7614   -0.0012   -0.1807 O   0  0  0  0  0  0  0  0  0  0  0  0
    2.7611    0.0006   -0.1809 O   0  0  0  0  0  0  0  0  0  0  0  0
   -1.3950   -0.0006   -0.1820 C   0  0  0  0  0  0  0  0  0  0  0  0
    1.3947    0.0004   -0.1809 C   0  0  0  0  0  0  0  0  0  0  0  0
   -0.6972   -1.2083   -0.1807 C   0  0  0  0  0  0  0  0  0  0  0  0
    0.6977   -1.2079   -0.1802 C   0  0  0  0  0  0  0  0  0  0  0  0
   -0.6979    1.2076   -0.1829 C   0  0  0  0  0  0  0  0  0  0  0  0
    0.6969    1.2081   -0.1823 C   0  0  0  0  0  0  0  0  0  0  0  0
   -3.4043    0.0006    1.0904 C   0  0  0  0  0  0  0  0  0  0  0  0
    3.4051    0.0014    1.0896 C   0  0  0  0  0  0  0  0  0  0  0  0
   -3.1470   -0.8959    1.6626 H   0  0  0  0  0  0  0  0  0  0  0  0
   -4.4853    0.0064    0.9253 H   0  0  0  0  0  0  0  0  0  0  0  0
   -3.1378    0.8923    1.6659 H   0  0  0  0  0  0  0  0  0  0  0  0
    3.1447   -0.8930    1.6637 H   0  0  0  0  0  0  0  0  0  0  0  0
    3.1426    0.8952    1.6637 H   0  0  0  0  0  0  0  0  0  0  0  0
    4.4860    0.0027    0.9236 H   0  0  0  0  0  0  0  0  0  0  0  0
  1  9  1  0  0  0  0
  2 10  1  0  0  0  0
  3 11  1  0  0  0  0
  4 12  1  0  0  0  0
  5  7  1  0  0  0  0
  5 13  1  0  0  0  0
  6  8  1  0  0  0  0
  6 14  1  0  0  0  0
  7  9  2  0  0  0  0
  7 11  1  0  0  0  0
  8 10  2  0  0  0  0
  8 12  1  0  0  0  0
  9 10  1  0  0  0  0
 11 12  2  0  0  0  0
 13 15  1  0  0  0  0
 13 16  1  0  0  0  0
 13 17  1  0  0  0  0
 14 18  1  0  0  0  0
 14 19  1  0  0  0  0
 14 20  1  0  0  0  0
M  END
> <PUBCHEM_COMPOUND_CID>
13678

> <PUBCHEM_CONFORMER_RMSD>
0.6

> <PUBCHEM_CONFORMER_DIVERSEORDER>
1

> <PUBCHEM_MMFF94_PARTIAL_CHARGES>
14
1 -0.18
10 0.18
11 0.18
12 0.18
13 0.28
14 0.28
2 -0.18
3 -0.18
4 -0.18
5 -0.36
6 -0.36
7 0.08
8 0.08
9 0.18

> <PUBCHEM_EFFECTIVE_ROTOR_COUNT>
2

> <PUBCHEM_PHARMACOPHORE_FEATURES>
3
1 5 acceptor
1 6 acceptor
6 7 8 9 10 11 12 rings

> <PUBCHEM_HEAVY_ATOM_COUNT>
14

> <PUBCHEM_ATOM_DEF_STEREO_COUNT>
0

> <PUBCHEM_ATOM_UDEF_STEREO_COUNT>
0

> <PUBCHEM_BOND_DEF_STEREO_COUNT>
0

> <PUBCHEM_BOND_UDEF_STEREO_COUNT>
0

> <PUBCHEM_ISOTOPIC_ATOM_COUNT>
0

> <PUBCHEM_COMPONENT_COUNT>
1

> <PUBCHEM_CACTVS_TAUTO_COUNT>
1

> <PUBCHEM_CONFORMER_ID>
0000356E00000001

> <PUBCHEM_MMFF94_ENERGY>
57.0212

> <PUBCHEM_FEATURE_SELFOVERLAP>
15.223

> <PUBCHEM_SHAPE_FINGERPRINT>
10967382 1 18410855451559339333
11132069 177 18409739430436032154
11471102 22 18197753618829043187
11680986 33 17906175401231899634
12251169 10 18410856516690116897
12382932 28 18408885113927419603
12423570 1 14295092754287484190
13140716 1 18266740177563025776
13172582 1 18410855434358358162
13380535 76 17981616167005894773
14617773 55 17827077303624065191
161256 15 18191860339319998254
16945 1 18410575084663079094
193761 8 18410573989446418639
20510252 161 18261396697318773616
20588541 1 18409444791031313150
21501502 16 18122343471560785951
2334 1 17978510827913772303
23463225 33 18268995275969668228
23526114 1 18122907516752070853
23552423 10 17911803474826518620
23559900 14 17901662993619220526
241688 4 17906727356005687896
2748010 2 18122343755028627735
53812653 166 18189906481282206456

> <PUBCHEM_SHAPE_MULTIPOLES>
283.85
4.32
3.33
0.82
0
0
-0.18
0
-1.46
0
0.5
0
0
0

> <PUBCHEM_SHAPE_SELFOVERLAP>
555.335

> <PUBCHEM_SHAPE_VOLUME>
175.4

> <PUBCHEM_COORDINATE_TYPE>
2
5
10

$$$$

