656773
  -OEChem-07051213043D

 49 48  0     1  0  0  0  0  0999 V2000
    4.3962    0.1554   -0.0974 O   0  0  0  0  0  0  0  0  0  0  0  0
    3.2913   -1.8434    0.2254 O   0  0  0  0  0  0  0  0  0  0  0  0
    6.7531    1.4115    0.8151 O   0  0  0  0  0  0  0  0  0  0  0  0
    9.1672    0.7400   -0.4279 O   0  0  0  0  0  0  0  0  0  0  0  0
   -3.0135    0.4062    0.0152 C   0  0  0  0  0  0  0  0  0  0  0  0
   -4.2962   -0.4161    0.1534 C   0  0  0  0  0  0  0  0  0  0  0  0
   -1.7734   -0.4893    0.0650 C   0  0  0  0  0  0  0  0  0  0  0  0
   -5.5742    0.4174    0.0184 C   0  0  0  0  0  0  0  0  0  0  0  0
   -0.4879    0.3339   -0.0400 C   0  0  0  0  0  0  0  0  0  0  0  0
   -6.8934   -0.3620    0.0605 C   0  0  0  0  0  0  0  0  0  0  0  0
   -8.1280    0.5202   -0.1402 C   0  0  0  0  0  0  0  0  0  0  0  0
    0.7522   -0.5613    0.0445 C   0  0  0  0  0  0  0  0  0  0  0  0
   -9.4471   -0.2460   -0.0085 C   0  0  0  0  0  0  0  0  0  0  0  0
    2.0544    0.2359   -0.0296 C   0  0  0  0  0  0  0  0  0  0  0  0
  -10.6799    0.6283   -0.1783 C   0  0  0  0  0  0  0  0  0  0  0  0
    3.2906   -0.6311    0.0618 C   0  0  0  0  0  0  0  0  0  0  0  0
    5.6512   -0.5319   -0.0647 C   0  0  0  0  0  0  0  0  0  0  0  0
    6.7908    0.4628   -0.2536 C   0  0  2  0  0  0  0  0  0  0  0  0
    8.1465   -0.2304   -0.2193 C   0  0  0  0  0  0  0  0  0  0  0  0
   -3.0290    0.9557   -0.9338 H   0  0  0  0  0  0  0  0  0  0  0  0
   -2.9695    1.1502    0.8196 H   0  0  0  0  0  0  0  0  0  0  0  0
   -4.3019   -0.9261    1.1244 H   0  0  0  0  0  0  0  0  0  0  0  0
   -4.3060   -1.1995   -0.6148 H   0  0  0  0  0  0  0  0  0  0  0  0
   -1.8113   -1.2184   -0.7535 H   0  0  0  0  0  0  0  0  0  0  0  0
   -1.7698   -1.0566    1.0038 H   0  0  0  0  0  0  0  0  0  0  0  0
   -5.5854    1.1737    0.8135 H   0  0  0  0  0  0  0  0  0  0  0  0
   -5.5303    0.9687   -0.9298 H   0  0  0  0  0  0  0  0  0  0  0  0
   -0.4788    0.8862   -0.9873 H   0  0  0  0  0  0  0  0  0  0  0  0
   -0.4584    1.0751    0.7680 H   0  0  0  0  0  0  0  0  0  0  0  0
   -6.8776   -1.1390   -0.7135 H   0  0  0  0  0  0  0  0  0  0  0  0
   -6.9675   -0.8781    1.0256 H   0  0  0  0  0  0  0  0  0  0  0  0
    0.7291   -1.1312    0.9820 H   0  0  0  0  0  0  0  0  0  0  0  0
    0.7290   -1.2983   -0.7681 H   0  0  0  0  0  0  0  0  0  0  0  0
   -8.1128    1.3319    0.5976 H   0  0  0  0  0  0  0  0  0  0  0  0
   -8.0792    0.9910   -1.1296 H   0  0  0  0  0  0  0  0  0  0  0  0
   -9.4902   -0.7274    0.9759 H   0  0  0  0  0  0  0  0  0  0  0  0
   -9.4757   -1.0482   -0.7555 H   0  0  0  0  0  0  0  0  0  0  0  0
    2.0892    0.9591    0.7931 H   0  0  0  0  0  0  0  0  0  0  0  0
    2.0910    0.7801   -0.9804 H   0  0  0  0  0  0  0  0  0  0  0  0
  -10.6910    1.0985   -1.1666 H   0  0  0  0  0  0  0  0  0  0  0  0
  -10.7046    1.4188    0.5784 H   0  0  0  0  0  0  0  0  0  0  0  0
  -11.5893    0.0283   -0.0752 H   0  0  0  0  0  0  0  0  0  0  0  0
    5.6722   -1.2845   -0.8614 H   0  0  0  0  0  0  0  0  0  0  0  0
    5.7454   -1.0275    0.9094 H   0  0  0  0  0  0  0  0  0  0  0  0
    6.6574    1.0310   -1.1810 H   0  0  0  0  0  0  0  0  0  0  0  0
    8.2216   -0.9890   -1.0045 H   0  0  0  0  0  0  0  0  0  0  0  0
    8.3262   -0.6957    0.7556 H   0  0  0  0  0  0  0  0  0  0  0  0
    7.4928    2.0289    0.6824 H   0  0  0  0  0  0  0  0  0  0  0  0
   10.0175    0.2691   -0.4007 H   0  0  0  0  0  0  0  0  0  0  0  0
  1 16  1  0  0  0  0
  1 17  1  0  0  0  0
  2 16  2  0  0  0  0
  3 18  1  0  0  0  0
  3 48  1  0  0  0  0
  4 19  1  0  0  0  0
  4 49  1  0  0  0  0
  5  6  1  0  0  0  0
  5  7  1  0  0  0  0
  5 20  1  0  0  0  0
  5 21  1  0  0  0  0
  6  8  1  0  0  0  0
  6 22  1  0  0  0  0
  6 23  1  0  0  0  0
  7  9  1  0  0  0  0
  7 24  1  0  0  0  0
  7 25  1  0  0  0  0
  8 10  1  0  0  0  0
  8 26  1  0  0  0  0
  8 27  1  0  0  0  0
  9 12  1  0  0  0  0
  9 28  1  0  0  0  0
  9 29  1  0  0  0  0
 10 11  1  0  0  0  0
 10 30  1  0  0  0  0
 10 31  1  0  0  0  0
 11 13  1  0  0  0  0
 11 34  1  0  0  0  0
 11 35  1  0  0  0  0
 12 14  1  0  0  0  0
 12 32  1  0  0  0  0
 12 33  1  0  0  0  0
 13 15  1  0  0  0  0
 13 36  1  0  0  0  0
 13 37  1  0  0  0  0
 14 16  1  0  0  0  0
 14 38  1  0  0  0  0
 14 39  1  0  0  0  0
 15 40  1  0  0  0  0
 15 41  1  0  0  0  0
 15 42  1  0  0  0  0
 17 18  1  0  0  0  0
 17 43  1  0  0  0  0
 17 44  1  0  0  0  0
 18 19  1  0  0  0  0
 18 45  1  0  0  0  0
 19 46  1  0  0  0  0
 19 47  1  0  0  0  0
M  END
> <PUBCHEM_COMPOUND_CID>
656773

> <PUBCHEM_CONFORMER_RMSD>
1.2

> <PUBCHEM_CONFORMER_DIVERSEORDER>
1
75
65
69
49
66
89
30
92
93
95
73
25
94
21
62
28
22
34
60
100
6
9
106
16
79
14
47
81
43
5
37
13
12
17
82
46
24
26
3
27
20
56
76
105
39
74
4
11
59
10
18
58
78
71
45
23
7
32
8
15
35
90
85
101
64
54
72
104
44
48
63
38
109
97
29
86
57
40
68
31
41
33
61
88
84
87
53
80
55
2
67
91
70
98
103
107
108
51
42
50
52
102
19
96
36
77
99
83

> <PUBCHEM_MMFF94_PARTIAL_CHARGES>
11
1 -0.43
14 0.06
16 0.66
17 0.28
18 0.28
19 0.28
2 -0.57
3 -0.68
4 -0.68
48 0.4
49 0.4

> <PUBCHEM_EFFECTIVE_ROTOR_COUNT>
14

> <PUBCHEM_PHARMACOPHORE_FEATURES>
6
1 15 hydrophobe
1 2 acceptor
1 3 acceptor
1 3 donor
1 4 acceptor
1 4 donor

> <PUBCHEM_HEAVY_ATOM_COUNT>
19

> <PUBCHEM_ATOM_DEF_STEREO_COUNT>
1

> <PUBCHEM_ATOM_UDEF_STEREO_COUNT>
0

> <PUBCHEM_BOND_DEF_STEREO_COUNT>
0

> <PUBCHEM_BOND_UDEF_STEREO_COUNT>
0

> <PUBCHEM_ISOTOPIC_ATOM_COUNT>
0

> <PUBCHEM_COMPONENT_COUNT>
1

> <PUBCHEM_CACTVS_TAUTO_COUNT>
1

> <PUBCHEM_CONFORMER_ID>
000A058500000001

> <PUBCHEM_MMFF94_ENERGY>
9.1024

> <PUBCHEM_FEATURE_SELFOVERLAP>
30.454

> <PUBCHEM_SHAPE_FINGERPRINT>
11315181 36 18114178641360567075
11638347 137 15482676796962487816
14123256 10 18408040714835403101
14251764 18 18333449863593124113
14251764 46 18410855464423129103
14344974 52 17531534187046377339
15510794 2 18131346419489598507
155225 1 18272087168204995980
16120349 18 18410576154168575116
21095086 128 14779544599514317596
21150785 3 17167861967543165799
21267235 1 7853856087726021723
21362267 2 18187944841144340369
21362267 313 17417542439886882113
22224240 67 18060138730205969675
232437 2 18408322190123623007
23521765 1 18335138696226039319
23581129 1 18411981364329971725
246663 6 6411296836642205163
33684 2 18410575093253020003
4325135 7 18409729560242496389
5283156 175 12391515290947516687
67123 10 18408323281282394183
8209 1 18410573985151457647

> <PUBCHEM_SHAPE_MULTIPOLES>
367.53
37.03
1
0.64
30.63
0.12
0.01
-7.62
-2.43
-0.98
0.08
-0.17
-0.04
0.25

> <PUBCHEM_SHAPE_SELFOVERLAP>
675.634

> <PUBCHEM_SHAPE_VOLUME>
232.2

> <PUBCHEM_COORDINATE_TYPE>
2
5
10

$$$$

