12875
  -OEChem-06261207293D

 28 29  0     0  0  0  0  0  0999 V2000
   -0.5317   -2.1345   -0.9576 S   0  0  0  0  0  0  0  0  0  0  0  0
    0.5873   -2.1965    0.7689 S   0  0  0  0  0  0  0  0  0  0  0  0
   -4.7204    1.8970    0.4533 N   0  0  0  0  0  0  0  0  0  0  0  0
    4.6700    2.0483   -0.2804 N   0  0  0  0  0  0  0  0  0  0  0  0
   -1.7797   -0.9336   -0.5377 C   0  0  0  0  0  0  0  0  0  0  0  0
    1.8046   -0.9309    0.4557 C   0  0  0  0  0  0  0  0  0  0  0  0
   -3.7331    0.9462    0.1204 C   0  0  0  0  0  0  0  0  0  0  0  0
    3.7071    1.0476   -0.0333 C   0  0  0  0  0  0  0  0  0  0  0  0
   -2.6319   -1.1623    0.5427 C   0  0  0  0  0  0  0  0  0  0  0  0
    1.5517    0.3866    0.8348 C   0  0  0  0  0  0  0  0  0  0  0  0
   -1.9040    0.2350   -1.2889 C   0  0  0  0  0  0  0  0  0  0  0  0
    3.0070   -1.2608   -0.1675 C   0  0  0  0  0  0  0  0  0  0  0  0
   -3.6087   -0.2224    0.8716 C   0  0  0  0  0  0  0  0  0  0  0  0
    2.5035    1.3765    0.5900 C   0  0  0  0  0  0  0  0  0  0  0  0
   -2.8808    1.1749   -0.9598 C   0  0  0  0  0  0  0  0  0  0  0  0
    3.9590   -0.2711   -0.4122 C   0  0  0  0  0  0  0  0  0  0  0  0
   -2.5621   -2.0698    1.1374 H   0  0  0  0  0  0  0  0  0  0  0  0
    0.6201    0.6621    1.3229 H   0  0  0  0  0  0  0  0  0  0  0  0
   -1.2479    0.4311   -2.1334 H   0  0  0  0  0  0  0  0  0  0  0  0
    3.2211   -2.2831   -0.4696 H   0  0  0  0  0  0  0  0  0  0  0  0
   -4.2682   -0.4130    1.7144 H   0  0  0  0  0  0  0  0  0  0  0  0
    2.2956    2.4004    0.8900 H   0  0  0  0  0  0  0  0  0  0  0  0
   -2.9674    2.0821   -1.5525 H   0  0  0  0  0  0  0  0  0  0  0  0
    4.8932   -0.5399   -0.8987 H   0  0  0  0  0  0  0  0  0  0  0  0
   -5.3390    1.7315    1.2361 H   0  0  0  0  0  0  0  0  0  0  0  0
   -4.8114    2.7441   -0.0916 H   0  0  0  0  0  0  0  0  0  0  0  0
    5.5426    1.8105   -0.7330 H   0  0  0  0  0  0  0  0  0  0  0  0
    4.4878    3.0047   -0.0067 H   0  0  0  0  0  0  0  0  0  0  0  0
  1  2  1  0  0  0  0
  1  5  1  0  0  0  0
  2  6  1  0  0  0  0
  3  7  1  0  0  0  0
  3 25  1  0  0  0  0
  3 26  1  0  0  0  0
  4  8  1  0  0  0  0
  4 27  1  0  0  0  0
  4 28  1  0  0  0  0
  5  9  2  0  0  0  0
  5 11  1  0  0  0  0
  6 10  2  0  0  0  0
  6 12  1  0  0  0  0
  7 13  2  0  0  0  0
  7 15  1  0  0  0  0
  8 14  2  0  0  0  0
  8 16  1  0  0  0  0
  9 13  1  0  0  0  0
  9 17  1  0  0  0  0
 10 14  1  0  0  0  0
 10 18  1  0  0  0  0
 11 15  2  0  0  0  0
 11 19  1  0  0  0  0
 12 16  2  0  0  0  0
 12 20  1  0  0  0  0
 13 21  1  0  0  0  0
 14 22  1  0  0  0  0
 15 23  1  0  0  0  0
 16 24  1  0  0  0  0
M  END
> <PUBCHEM_COMPOUND_CID>
12875

> <PUBCHEM_CONFORMER_RMSD>
0.6

> <PUBCHEM_CONFORMER_DIVERSEORDER>
1
17
23
6
20
15
4
16
3
24
10
25
9
27
5
26
19
18
2
13
14
21
22
12
8
7
11

> <PUBCHEM_MMFF94_PARTIAL_CHARGES>
28
1 -0.1
10 -0.15
11 -0.15
12 -0.15
13 -0.15
14 -0.15
15 -0.15
16 -0.15
17 0.15
18 0.15
19 0.15
2 -0.1
20 0.15
21 0.15
22 0.15
23 0.15
24 0.15
25 0.4
26 0.4
27 0.4
28 0.4
3 -0.9
4 -0.9
5 0.1
6 0.1
7 0.1
8 0.1
9 -0.15

> <PUBCHEM_EFFECTIVE_ROTOR_COUNT>
3

> <PUBCHEM_PHARMACOPHORE_FEATURES>
6
1 3 cation
1 3 donor
1 4 cation
1 4 donor
6 5 7 9 11 13 15 rings
6 6 8 10 12 14 16 rings

> <PUBCHEM_HEAVY_ATOM_COUNT>
16

> <PUBCHEM_ATOM_DEF_STEREO_COUNT>
0

> <PUBCHEM_ATOM_UDEF_STEREO_COUNT>
0

> <PUBCHEM_BOND_DEF_STEREO_COUNT>
0

> <PUBCHEM_BOND_UDEF_STEREO_COUNT>
0

> <PUBCHEM_ISOTOPIC_ATOM_COUNT>
0

> <PUBCHEM_COMPONENT_COUNT>
1

> <PUBCHEM_CACTVS_TAUTO_COUNT>
1

> <PUBCHEM_CONFORMER_ID>
0000324B00000001

> <PUBCHEM_MMFF94_ENERGY>
50.3297

> <PUBCHEM_FEATURE_SELFOVERLAP>
30.446

> <PUBCHEM_SHAPE_FINGERPRINT>
10498660 4 18201169796813591629
11132069 177 17346880044136161255
11137873 295 7781514845594873567
11615756 256 18270678671453730924
12173636 292 18187937135845423047
122479 349 18412543189086805802
12363563 72 8574433161765267714
12633257 1 18058176201008814387
128993 33 18410866429479949579
13544653 18 9511458935392593318
13693222 15 11600009859766145294
14123255 52 18410013234226605642
14251764 75 18335408084981072657
14341114 328 16271916099844877772
14386348 128 18411146817840470806
15196674 1 18410292505885054474
15342168 16 18335983164190305485
15775835 57 18409731754976221591
17834072 14 8214141841538294294
17834072 32 18409446994518269581
1798214 55 18408891732466650456
18186145 218 18409166610769298182
200 152 10664101138539633211
20621476 66 18339358566430897048
21069387 34 7709459437273162995
21250096 35 10663815274101259687
21475661 188 17692537028308165317
21652331 79 18342176661270255757
21864079 5 18410580586526734592
22182937 141 18339358552633060547
22646028 28 10015863197469672793
231179 274 18410856606926887718
23402655 69 18260828185714727112
23403322 49 8718831981023331117
24859131 72 10159437404687566584
25 1 18410013238986121442
2637199 183 18335978761347868366
27216 239 18343301431811657267
474 4 18116715308484055987
6287921 2 17982445993215762812
633830 44 18410577305388381910
6442390 28 18130497561488689267
7226269 152 18261122850889555912
9882013 296 14045739326766348538

> <PUBCHEM_SHAPE_MULTIPOLES>
327.01
9.02
2.32
1.08
0.53
0.27
0.11
-5.89
-0.3
0.36
0
-0.47
0.14
-0.04

> <PUBCHEM_SHAPE_SELFOVERLAP>
668.208

> <PUBCHEM_SHAPE_VOLUME>
189.8

> <PUBCHEM_COORDINATE_TYPE>
2
5
10

$$$$

