656493
  -OEChem-07051212463D

 55 57  0     1  0  0  0  0  0999 V2000
    0.5113   -1.1926    0.2738 O   0  0  0  0  0  0  0  0  0  0  0  0
   -2.0629   -0.2937   -0.0749 O   0  0  0  0  0  0  0  0  0  0  0  0
   -4.3740   -0.6238   -0.0832 O   0  0  0  0  0  0  0  0  0  0  0  0
   -1.1024   -4.3964   -0.4647 O   0  0  0  0  0  0  0  0  0  0  0  0
    2.7417   -0.5077    0.2697 O   0  0  0  0  0  0  0  0  0  0  0  0
    1.5927   -5.1545    0.2546 O   0  0  0  0  0  0  0  0  0  0  0  0
    3.5095   -3.0879   -0.6030 O   0  0  0  0  0  0  0  0  0  0  0  0
   -2.4859    2.4494    0.5893 O   0  0  0  0  0  0  0  0  0  0  0  0
   -5.0378    3.4534   -0.2812 O   0  0  0  0  0  0  0  0  0  0  0  0
   -6.0193    1.1785   -1.5563 O   0  0  0  0  0  0  0  0  0  0  0  0
    0.7828    1.7495    1.8776 N   0  0  0  0  0  0  0  0  0  0  0  0
   -0.4816   -2.0759   -0.2505 C   0  0  1  0  0  0  0  0  0  0  0  0
   -0.1515   -3.5200    0.1344 C   0  0  2  0  0  0  0  0  0  0  0  0
    1.2526   -3.8994   -0.3365 C   0  0  1  0  0  0  0  0  0  0  0  0
    2.2793   -2.8460    0.0795 C   0  0  2  0  0  0  0  0  0  0  0  0
    1.8046   -1.4366   -0.2743 C   0  0  1  0  0  0  0  0  0  0  0  0
   -1.8304   -1.6363    0.3102 C   0  0  0  0  0  0  0  0  0  0  0  0
   -3.3130    0.1881    0.4165 C   0  0  2  0  0  0  0  0  0  0  0  0
   -3.4713    1.6378   -0.0494 C   0  0  1  0  0  0  0  0  0  0  0  0
   -4.8528    2.1749    0.3205 C   0  0  2  0  0  0  0  0  0  0  0  0
   -5.9556    1.2182   -0.1298 C   0  0  2  0  0  0  0  0  0  0  0  0
   -5.6631   -0.1937    0.3617 C   0  0  0  0  0  0  0  0  0  0  0  0
    2.3644    0.8308   -0.0124 C   0  0  2  0  0  0  0  0  0  0  0  0
    3.6101    1.6725   -0.1641 C   0  0  0  0  0  0  0  0  0  0  0  0
    1.4815    1.3430    1.0450 C   0  0  0  0  0  0  0  0  0  0  0  0
    3.6018    2.7438   -1.0423 C   0  0  0  0  0  0  0  0  0  0  0  0
    4.7364    1.3563    0.5776 C   0  0  0  0  0  0  0  0  0  0  0  0
    4.7520    3.5205   -1.1827 C   0  0  0  0  0  0  0  0  0  0  0  0
    5.8865    2.1330    0.4374 C   0  0  0  0  0  0  0  0  0  0  0  0
    5.8943    3.2151   -0.4427 C   0  0  0  0  0  0  0  0  0  0  0  0
   -0.5135   -1.9586   -1.3423 H   0  0  0  0  0  0  0  0  0  0  0  0
   -0.2205   -3.6490    1.2221 H   0  0  0  0  0  0  0  0  0  0  0  0
    1.2639   -4.0526   -1.4229 H   0  0  0  0  0  0  0  0  0  0  0  0
    2.4876   -2.9172    1.1544 H   0  0  0  0  0  0  0  0  0  0  0  0
    1.7851   -1.3100   -1.3658 H   0  0  0  0  0  0  0  0  0  0  0  0
   -1.8171   -1.6922    1.4055 H   0  0  0  0  0  0  0  0  0  0  0  0
   -2.6216   -2.2893   -0.0735 H   0  0  0  0  0  0  0  0  0  0  0  0
   -3.2907    0.1406    1.5137 H   0  0  0  0  0  0  0  0  0  0  0  0
   -3.3006    1.7261   -1.1291 H   0  0  0  0  0  0  0  0  0  0  0  0
   -4.9162    2.3208    1.4062 H   0  0  0  0  0  0  0  0  0  0  0  0
   -6.9321    1.5652    0.2223 H   0  0  0  0  0  0  0  0  0  0  0  0
   -6.3920   -0.8982   -0.0520 H   0  0  0  0  0  0  0  0  0  0  0  0
   -5.7091   -0.2570    1.4548 H   0  0  0  0  0  0  0  0  0  0  0  0
   -0.8533   -5.3048   -0.2230 H   0  0  0  0  0  0  0  0  0  0  0  0
    2.4473   -5.4327   -0.1152 H   0  0  0  0  0  0  0  0  0  0  0  0
    3.8499   -3.9471   -0.3021 H   0  0  0  0  0  0  0  0  0  0  0  0
    1.8330    0.8657   -0.9740 H   0  0  0  0  0  0  0  0  0  0  0  0
   -1.6155    2.0740    0.3717 H   0  0  0  0  0  0  0  0  0  0  0  0
   -4.3084    4.0237    0.0163 H   0  0  0  0  0  0  0  0  0  0  0  0
   -5.2155    0.7433   -1.8870 H   0  0  0  0  0  0  0  0  0  0  0  0
    2.7174    2.9919   -1.6221 H   0  0  0  0  0  0  0  0  0  0  0  0
    4.7512    0.5268    1.2785 H   0  0  0  0  0  0  0  0  0  0  0  0
    4.7579    4.3634   -1.8675 H   0  0  0  0  0  0  0  0  0  0  0  0
    6.7752    1.8972    1.0157 H   0  0  0  0  0  0  0  0  0  0  0  0
    6.7895    3.8203   -0.5513 H   0  0  0  0  0  0  0  0  0  0  0  0
  1 12  1  0  0  0  0
  1 16  1  0  0  0  0
  2 17  1  0  0  0  0
  2 18  1  0  0  0  0
  3 18  1  0  0  0  0
  3 22  1  0  0  0  0
  4 13  1  0  0  0  0
  4 44  1  0  0  0  0
  5 16  1  0  0  0  0
  5 23  1  0  0  0  0
  6 14  1  0  0  0  0
  6 45  1  0  0  0  0
  7 15  1  0  0  0  0
  7 46  1  0  0  0  0
  8 19  1  0  0  0  0
  8 48  1  0  0  0  0
  9 20  1  0  0  0  0
  9 49  1  0  0  0  0
 10 21  1  0  0  0  0
 10 50  1  0  0  0  0
 11 25  3  0  0  0  0
 12 13  1  0  0  0  0
 12 17  1  0  0  0  0
 12 31  1  0  0  0  0
 13 14  1  0  0  0  0
 13 32  1  0  0  0  0
 14 15  1  0  0  0  0
 14 33  1  0  0  0  0
 15 16  1  0  0  0  0
 15 34  1  0  0  0  0
 16 35  1  0  0  0  0
 17 36  1  0  0  0  0
 17 37  1  0  0  0  0
 18 19  1  0  0  0  0
 18 38  1  0  0  0  0
 19 20  1  0  0  0  0
 19 39  1  0  0  0  0
 20 21  1  0  0  0  0
 20 40  1  0  0  0  0
 21 22  1  0  0  0  0
 21 41  1  0  0  0  0
 22 42  1  0  0  0  0
 22 43  1  0  0  0  0
 23 24  1  0  0  0  0
 23 25  1  0  0  0  0
 23 47  1  0  0  0  0
 24 26  2  0  0  0  0
 24 27  1  0  0  0  0
 26 28  1  0  0  0  0
 26 51  1  0  0  0  0
 27 29  2  0  0  0  0
 27 52  1  0  0  0  0
 28 30  2  0  0  0  0
 28 53  1  0  0  0  0
 29 30  1  0  0  0  0
 29 54  1  0  0  0  0
 30 55  1  0  0  0  0
M  END
> <PUBCHEM_COMPOUND_CID>
656493

> <PUBCHEM_CONFORMER_RMSD>
1

> <PUBCHEM_CONFORMER_DIVERSEORDER>
1
72
122
36
177
109
57
23
139
176
140
12
49
130
27
209
180
2
110
73
195
47
75
148
197
207
10
142
167
131
127
4
120
210
145
98
153
159
86
69
138
203
170
124
198
35
156
88
183
113
173
206
90
191
91
181
65
100
93
117
115
205
151
13
184
192
54
160
19
174
194
68
38
17
202
84
89
137
32
71
61
125
3
80
143
59
95
40
52
5
190
185
56
33
42
108
135
28
171
166
103
39
144
172
169
196
67
48
118
163
41
164
20
87
26
147
189
102
34
165
81
31
16
204
208
104
55
99
37
50
79
44
62
116
112
51
149
126
162
6
70
15
188
76
201
157
132
158
58
14
66
30
53
11
154
168
119
123
46
187
107
105
134
106
101
155
77
146
193
21
179
64
92
199
121
97
29
45
136
133
150
7
43
182
83
178
141
161
152
82
85
18
25
114
9
111
129
186
63
8
78
60
200
128
22
94
74
96
175
24

> <PUBCHEM_MMFF94_PARTIAL_CHARGES>
41
1 -0.56
10 -0.68
11 -0.56
12 0.28
13 0.28
14 0.28
15 0.28
16 0.56
17 0.28
18 0.56
19 0.28
2 -0.56
20 0.28
21 0.28
22 0.28
23 0.62
24 -0.14
25 0.36
26 -0.15
27 -0.15
28 -0.15
29 -0.15
3 -0.56
30 -0.15
4 -0.68
44 0.4
45 0.4
46 0.4
48 0.4
49 0.4
5 -0.56
50 0.4
51 0.15
52 0.15
53 0.15
54 0.15
55 0.15
6 -0.68
7 -0.68
8 -0.68
9 -0.68

> <PUBCHEM_EFFECTIVE_ROTOR_COUNT>
8.4

> <PUBCHEM_PHARMACOPHORE_FEATURES>
20
1 1 acceptor
1 10 acceptor
1 10 donor
1 11 acceptor
1 2 acceptor
1 3 acceptor
1 4 acceptor
1 4 donor
1 5 acceptor
1 6 acceptor
1 6 donor
1 7 acceptor
1 7 donor
1 8 acceptor
1 8 donor
1 9 acceptor
1 9 donor
6 1 12 13 14 15 16 rings
6 24 26 27 28 29 30 rings
6 3 18 19 20 21 22 rings

> <PUBCHEM_HEAVY_ATOM_COUNT>
30

> <PUBCHEM_ATOM_DEF_STEREO_COUNT>
10

> <PUBCHEM_ATOM_UDEF_STEREO_COUNT>
0

> <PUBCHEM_BOND_DEF_STEREO_COUNT>
0

> <PUBCHEM_BOND_UDEF_STEREO_COUNT>
0

> <PUBCHEM_ISOTOPIC_ATOM_COUNT>
0

> <PUBCHEM_COMPONENT_COUNT>
1

> <PUBCHEM_CACTVS_TAUTO_COUNT>
1

> <PUBCHEM_CONFORMER_ID>
000A046D00000001

> <PUBCHEM_MMFF94_ENERGY>
83.2477

> <PUBCHEM_FEATURE_SELFOVERLAP>
101.613

> <PUBCHEM_SHAPE_FINGERPRINT>
10165383 225 18337386033199776825
10411042 1 17617940674358594626
10675989 125 18337102479796492160
10937287 8 18410854326462894390
11136131 41 18342748446103800562
11719270 70 18410581690829728328
12107183 9 18342469115048311394
12293681 160 17894904093093431960
12788726 201 17766287470493791090
138480 1 17978227493380058010
14068700 675 17827077613267977050
14251757 5 18048871901639029168
14251764 75 18335690663911740041
14294032 229 18119518848075933371
14790565 3 18339358557260564340
14849402 71 18267580393758114354
14932702 115 17828749660958463360
15198563 99 17759522171248122431
15320467 1 18338796719414120053
15400415 2 18410854330584600300
15439362 3 18410007754634248174
15890870 6 18339359669298586461
15927050 60 18335702706857944494
16993438 75 18126841591026769523
18608769 82 18265610979939191755
18785283 64 18269558393643449226
19053607 189 18339092569804691473
19319366 153 18334301975966089804
20715895 44 18410293593329691768
21033648 29 17274824727053243445
21033650 10 17696452007325992316
21133410 127 18059572550390566493
21133410 221 16955934211189739352
23559900 14 18122630728318007083
245318 6 17844792720638432988
3298306 158 18260548887853841008
3411729 13 18342459252869917802
4058900 60 18411693296594364346
469060 322 12174512253000984400
5283173 99 17830732055175395760
6058803 2 17971197165352111923
6327066 14 18341616953785294500
6700243 42 16966562047691294302
7288768 16 18059576836814568203
7808743 9 18267304231476178624
9981440 41 18341326695774420211

> <PUBCHEM_SHAPE_MULTIPOLES>
553.71
13.92
6.24
0.97
6.17
7.23
0.05
-18.18
-2.07
-3.11
-0.98
-0.21
-0.56
-0.34

> <PUBCHEM_SHAPE_SELFOVERLAP>
1161.741

> <PUBCHEM_SHAPE_VOLUME>
304.3

> <PUBCHEM_COORDINATE_TYPE>
2
5
10

$$$$

