49859612
  -OEChem-07051213133D

 27 26  0     1  0  0  0  0  0999 V2000
   -2.9394   -0.2883   -0.0509 P   0  0  0  0  0  0  0  0  0  0  0  0
   -1.6039    0.5856   -0.3046 O   0  0  0  0  0  0  0  0  0  0  0  0
    2.0379    0.3140    1.8261 O   0  0  0  0  0  0  0  0  0  0  0  0
    3.4040   -0.8667   -1.1518 O   0  0  0  0  0  0  0  0  0  0  0  0
    2.1333   -1.9811    0.3591 O   0  0  0  0  0  0  0  0  0  0  0  0
   -2.9007   -0.5999    1.5356 O   0  0  0  0  0  0  0  0  0  0  0  0
   -2.5651   -1.7126   -0.7189 O   0  0  0  0  0  0  0  0  0  0  0  0
   -4.2107    0.3323   -0.5521 O   0  0  0  0  0  0  0  0  0  0  0  0
    0.8247    1.0106   -0.1706 C   0  0  0  0  0  0  0  0  0  0  0  0
    2.1566    0.4519    0.4101 C   0  0  2  0  0  0  0  0  0  0  0  0
   -0.3591    0.0610    0.1438 C   0  0  0  0  0  0  0  0  0  0  0  0
    0.5430    2.3881    0.4751 C   0  0  0  0  0  0  0  0  0  0  0  0
    0.9415    1.2294   -1.6919 C   0  0  0  0  0  0  0  0  0  0  0  0
    2.5378   -0.9243   -0.1089 C   0  0  0  0  0  0  0  0  0  0  0  0
    2.9881    1.1424    0.2290 H   0  0  0  0  0  0  0  0  0  0  0  0
   -0.4410   -0.1073    1.2213 H   0  0  0  0  0  0  0  0  0  0  0  0
   -0.2017   -0.9074   -0.3410 H   0  0  0  0  0  0  0  0  0  0  0  0
    1.0628    0.2793   -2.2229 H   0  0  0  0  0  0  0  0  0  0  0  0
    0.0484    1.7178   -2.0975 H   0  0  0  0  0  0  0  0  0  0  0  0
    1.8030    1.8620   -1.9334 H   0  0  0  0  0  0  0  0  0  0  0  0
    0.3710    2.2990    1.5534 H   0  0  0  0  0  0  0  0  0  0  0  0
    1.3871    3.0710    0.3260 H   0  0  0  0  0  0  0  0  0  0  0  0
   -0.3433    2.8635    0.0401 H   0  0  0  0  0  0  0  0  0  0  0  0
    1.4267   -0.4152    2.0214 H   0  0  0  0  0  0  0  0  0  0  0  0
    3.6487   -1.7604   -1.4740 H   0  0  0  0  0  0  0  0  0  0  0  0
   -3.6552   -1.0751    1.9443 H   0  0  0  0  0  0  0  0  0  0  0  0
   -3.2570   -2.4052   -0.7787 H   0  0  0  0  0  0  0  0  0  0  0  0
  1  2  1  0  0  0  0
  1  6  1  0  0  0  0
  1  7  1  0  0  0  0
  1  8  2  0  0  0  0
  2 11  1  0  0  0  0
  3 10  1  0  0  0  0
  3 24  1  0  0  0  0
  4 14  1  0  0  0  0
  4 25  1  0  0  0  0
  5 14  2  0  0  0  0
  6 26  1  0  0  0  0
  7 27  1  0  0  0  0
  9 10  1  0  0  0  0
  9 11  1  0  0  0  0
  9 12  1  0  0  0  0
  9 13  1  0  0  0  0
 10 14  1  0  0  0  0
 10 15  1  0  0  0  0
 11 16  1  0  0  0  0
 11 17  1  0  0  0  0
 12 21  1  0  0  0  0
 12 22  1  0  0  0  0
 12 23  1  0  0  0  0
 13 18  1  0  0  0  0
 13 19  1  0  0  0  0
 13 20  1  0  0  0  0
M  END
> <PUBCHEM_COMPOUND_CID>
49859612

> <PUBCHEM_CONFORMER_RMSD>
0.6

> <PUBCHEM_CONFORMER_DIVERSEORDER>
1
69
35
76
57
66
63
81
44
83
65
27
37
62
40
14
80
55
78
43
23
74
38
72
24
68
29
58
77
4
75
70
10
36
82
25
52
84
60
16
39
53
59
34
79
15
46
86
51
8
13
11
31
26
7
30
19
5
49
61
32
71
2
9
85
54
64
6
20
50
45
47
48
41
3
18
67
73
12
33
21
17
28
42
22
56

> <PUBCHEM_MMFF94_PARTIAL_CHARGES>
15
1 1.51
10 0.34
11 0.28
14 0.66
2 -0.55
24 0.4
25 0.5
26 0.5
27 0.5
3 -0.68
4 -0.65
5 -0.57
6 -0.77
7 -0.77
8 -0.7

> <PUBCHEM_EFFECTIVE_ROTOR_COUNT>
5

> <PUBCHEM_PHARMACOPHORE_FEATURES>
10
1 3 acceptor
1 3 donor
1 4 acceptor
1 5 acceptor
1 6 acceptor
1 7 acceptor
1 8 acceptor
3 4 5 14 anion
3 9 12 13 hydrophobe
4 1 6 7 8 anion

> <PUBCHEM_HEAVY_ATOM_COUNT>
14

> <PUBCHEM_ATOM_DEF_STEREO_COUNT>
1

> <PUBCHEM_ATOM_UDEF_STEREO_COUNT>
0

> <PUBCHEM_BOND_DEF_STEREO_COUNT>
0

> <PUBCHEM_BOND_UDEF_STEREO_COUNT>
0

> <PUBCHEM_ISOTOPIC_ATOM_COUNT>
0

> <PUBCHEM_COMPONENT_COUNT>
1

> <PUBCHEM_CACTVS_TAUTO_COUNT>
1

> <PUBCHEM_CONFORMER_ID>
02F8CC1C00000001

> <PUBCHEM_MMFF94_ENERGY>
-5.5184

> <PUBCHEM_FEATURE_SELFOVERLAP>
50.845

> <PUBCHEM_SHAPE_FINGERPRINT>
11715629 250 10591771978025375215
12251169 10 15936419939481777932
12932764 1 18192701264157544093
13571099 22 18259707796008169797
14128692 85 18342448253527212068
16945 1 18411146817956684248
20201158 50 18273495688726270939
20279233 1 18343309149619942395
20645477 70 18334298664736377711
20711985 344 17700705222306053564
20820808 20 12679457599416556860
20871998 22 18115309002836401798
21069387 34 17676785209821214485
21524375 3 16552544242207284780
21730867 7 18187369787713264320
23402539 116 17275101773818457678
3248919 1 17344919520720439653
7364860 26 18262518061629374972
74978 22 18261388897926747317
81228 2 18128544961955358136

> <PUBCHEM_SHAPE_MULTIPOLES>
250.88
5.75
1.83
1.32
4.6
0.23
-0.11
-2.22
0.41
-0.74
0.04
-0.37
0.15
0.15

> <PUBCHEM_SHAPE_SELFOVERLAP>
471.496

> <PUBCHEM_SHAPE_VOLUME>
158.1

> <PUBCHEM_COORDINATE_TYPE>
2
5
10

$$$$

