46173927
  -OEChem-07051213103D

 82 87  0     1  0  0  0  0  0999 V2000
   -4.2996    1.4644    0.3609 O   0  0  0  0  0  0  0  0  0  0  0  0
    0.2201   -2.1140    2.3339 O   0  0  0  0  0  0  0  0  0  0  0  0
    4.5427    0.0004    0.3846 O   0  0  0  0  0  0  0  0  0  0  0  0
   -8.7186   -0.0412    0.4983 O   0  0  0  0  0  0  0  0  0  0  0  0
    5.9485    0.1037   -1.5243 O   0  0  0  0  0  0  0  0  0  0  0  0
   -8.8717    2.2384    0.2235 O   0  0  0  0  0  0  0  0  0  0  0  0
    6.9800    2.5619   -0.4504 O   0  0  0  0  0  0  0  0  0  0  0  0
    8.5115    1.3079    1.5059 O   0  0  0  0  0  0  0  0  0  0  0  0
    8.8901   -1.2287    0.2536 O   0  0  0  0  0  0  0  0  0  0  0  0
   -3.5177    0.4167   -0.2320 C   0  0  1  0  0  0  0  0  0  0  0  0
   -2.0759    0.5090    0.3442 C   0  0  1  0  0  0  0  0  0  0  0  0
   -1.1684   -0.6837   -0.0812 C   0  0  1  0  0  0  0  0  0  0  0  0
   -4.1957   -0.9615    0.0043 C   0  0  2  0  0  0  0  0  0  0  0  0
    0.2911   -0.5743    0.5087 C   0  0  2  0  0  0  0  0  0  0  0  0
    0.8735    0.8057    0.0696 C   0  0  1  0  0  0  0  0  0  0  0  0
   -1.8607   -2.0242    0.2260 C   0  0  0  0  0  0  0  0  0  0  0  0
   -3.2436   -2.1136   -0.4161 C   0  0  0  0  0  0  0  0  0  0  0  0
   -5.4099   -0.9232   -0.9820 C   0  0  2  0  0  0  0  0  0  0  0  0
   -1.4100    1.8620    0.0160 C   0  0  0  0  0  0  0  0  0  0  0  0
   -3.6257    0.6153   -1.7561 C   0  0  0  0  0  0  0  0  0  0  0  0
    0.0136    1.9742    0.5546 C   0  0  0  0  0  0  0  0  0  0  0  0
   -4.8643   -0.1692   -2.2112 C   0  0  0  0  0  0  0  0  0  0  0  0
    1.2070   -1.6819   -0.0901 C   0  0  0  0  0  0  0  0  0  0  0  0
    2.3434    0.9917    0.4667 C   0  0  0  0  0  0  0  0  0  0  0  0
   -4.6360   -1.1910    1.4644 C   0  0  0  0  0  0  0  0  0  0  0  0
    0.2793   -0.7359    2.0510 C   0  0  0  0  0  0  0  0  0  0  0  0
    2.6866   -1.5087    0.2600 C   0  0  0  0  0  0  0  0  0  0  0  0
    3.2127   -0.1258   -0.1074 C   0  0  2  0  0  0  0  0  0  0  0  0
   -6.6574   -0.2603   -0.4738 C   0  0  0  0  0  0  0  0  0  0  0  0
   -7.7386   -1.0324    0.1717 C   0  0  0  0  0  0  0  0  0  0  0  0
   -6.9563    1.0350   -0.5261 C   0  0  0  0  0  0  0  0  0  0  0  0
    5.3324    0.8330   -0.4575 C   0  0  2  0  0  0  0  0  0  0  0  0
   -8.2739    1.1841    0.0936 C   0  0  0  0  0  0  0  0  0  0  0  0
    6.3858    1.5599    0.3765 C   0  0  1  0  0  0  0  0  0  0  0  0
    7.4585    0.5873    0.8698 C   0  0  1  0  0  0  0  0  0  0  0  0
    6.8988   -0.8758   -1.0933 C   0  0  2  0  0  0  0  0  0  0  0  0
    8.0342   -0.2266   -0.2898 C   0  0  2  0  0  0  0  0  0  0  0  0
    7.4142   -1.5785   -2.3463 C   0  0  0  0  0  0  0  0  0  0  0  0
   -2.1830    0.4861    1.4359 H   0  0  0  0  0  0  0  0  0  0  0  0
   -1.0584   -0.6361   -1.1741 H   0  0  0  0  0  0  0  0  0  0  0  0
    0.8500    0.8372   -1.0312 H   0  0  0  0  0  0  0  0  0  0  0  0
   -1.2639   -2.8605   -0.1519 H   0  0  0  0  0  0  0  0  0  0  0  0
   -1.9683   -2.1722    1.3038 H   0  0  0  0  0  0  0  0  0  0  0  0
   -3.1086   -2.1342   -1.5046 H   0  0  0  0  0  0  0  0  0  0  0  0
   -3.6957   -3.0804   -0.1592 H   0  0  0  0  0  0  0  0  0  0  0  0
   -5.6863   -1.9396   -1.2931 H   0  0  0  0  0  0  0  0  0  0  0  0
   -1.3813    2.0090   -1.0706 H   0  0  0  0  0  0  0  0  0  0  0  0
   -2.0063    2.6851    0.4270 H   0  0  0  0  0  0  0  0  0  0  0  0
   -2.7513    0.2318   -2.2909 H   0  0  0  0  0  0  0  0  0  0  0  0
   -3.7354    1.6730   -2.0218 H   0  0  0  0  0  0  0  0  0  0  0  0
    0.4447    2.9239    0.2149 H   0  0  0  0  0  0  0  0  0  0  0  0
   -0.0045    2.0136    1.6500 H   0  0  0  0  0  0  0  0  0  0  0  0
   -5.5909    0.4763   -2.7161 H   0  0  0  0  0  0  0  0  0  0  0  0
   -4.5525   -0.8980   -2.9711 H   0  0  0  0  0  0  0  0  0  0  0  0
    0.8965   -2.6938    0.1899 H   0  0  0  0  0  0  0  0  0  0  0  0
    1.1194   -1.6511   -1.1854 H   0  0  0  0  0  0  0  0  0  0  0  0
    2.4686    1.0520    1.5538 H   0  0  0  0  0  0  0  0  0  0  0  0
    2.7020    1.9591    0.0931 H   0  0  0  0  0  0  0  0  0  0  0  0
   -5.1302   -2.1628    1.5739 H   0  0  0  0  0  0  0  0  0  0  0  0
   -3.7826   -1.1807    2.1494 H   0  0  0  0  0  0  0  0  0  0  0  0
   -5.3261   -0.4237    1.8276 H   0  0  0  0  0  0  0  0  0  0  0  0
    1.1915   -0.3540    2.5150 H   0  0  0  0  0  0  0  0  0  0  0  0
   -0.5615   -0.2355    2.5348 H   0  0  0  0  0  0  0  0  0  0  0  0
    2.8507   -1.6977    1.3281 H   0  0  0  0  0  0  0  0  0  0  0  0
    3.2800   -2.2717   -0.2597 H   0  0  0  0  0  0  0  0  0  0  0  0
    3.2082   -0.0627   -1.2052 H   0  0  0  0  0  0  0  0  0  0  0  0
   -4.1846    1.4242    1.3250 H   0  0  0  0  0  0  0  0  0  0  0  0
   -7.4261   -1.5320    1.0912 H   0  0  0  0  0  0  0  0  0  0  0  0
   -8.1878   -1.7613   -0.5094 H   0  0  0  0  0  0  0  0  0  0  0  0
    0.2159   -2.2120    3.3012 H   0  0  0  0  0  0  0  0  0  0  0  0
   -6.4013    1.8563   -0.9441 H   0  0  0  0  0  0  0  0  0  0  0  0
    4.7075    1.5953   -0.9393 H   0  0  0  0  0  0  0  0  0  0  0  0
    5.9326    2.0680    1.2355 H   0  0  0  0  0  0  0  0  0  0  0  0
    7.0365   -0.0897    1.6230 H   0  0  0  0  0  0  0  0  0  0  0  0
    6.3830   -1.6296   -0.4843 H   0  0  0  0  0  0  0  0  0  0  0  0
    8.6487    0.4184   -0.9288 H   0  0  0  0  0  0  0  0  0  0  0  0
    6.2829    3.1954   -0.6919 H   0  0  0  0  0  0  0  0  0  0  0  0
    8.1203   -2.3764   -2.0981 H   0  0  0  0  0  0  0  0  0  0  0  0
    6.5810   -2.0141   -2.9086 H   0  0  0  0  0  0  0  0  0  0  0  0
    7.9086   -0.8674   -3.0173 H   0  0  0  0  0  0  0  0  0  0  0  0
    8.1174    1.8211    2.2318 H   0  0  0  0  0  0  0  0  0  0  0  0
    8.3483   -1.8249    0.7983 H   0  0  0  0  0  0  0  0  0  0  0  0
  1 10  1  0  0  0  0
  1 67  1  0  0  0  0
  2 26  1  0  0  0  0
  2 70  1  0  0  0  0
  3 28  1  0  0  0  0
  3 32  1  0  0  0  0
  4 30  1  0  0  0  0
  4 33  1  0  0  0  0
  5 32  1  0  0  0  0
  5 36  1  0  0  0  0
  6 33  2  0  0  0  0
  7 34  1  0  0  0  0
  7 77  1  0  0  0  0
  8 35  1  0  0  0  0
  8 81  1  0  0  0  0
  9 37  1  0  0  0  0
  9 82  1  0  0  0  0
 10 11  1  0  0  0  0
 10 13  1  0  0  0  0
 10 20  1  0  0  0  0
 11 12  1  0  0  0  0
 11 19  1  0  0  0  0
 11 39  1  0  0  0  0
 12 14  1  0  0  0  0
 12 16  1  0  0  0  0
 12 40  1  0  0  0  0
 13 17  1  0  0  0  0
 13 18  1  0  0  0  0
 13 25  1  0  0  0  0
 14 15  1  0  0  0  0
 14 23  1  0  0  0  0
 14 26  1  0  0  0  0
 15 21  1  0  0  0  0
 15 24  1  0  0  0  0
 15 41  1  0  0  0  0
 16 17  1  0  0  0  0
 16 42  1  0  0  0  0
 16 43  1  0  0  0  0
 17 44  1  0  0  0  0
 17 45  1  0  0  0  0
 18 22  1  0  0  0  0
 18 29  1  0  0  0  0
 18 46  1  0  0  0  0
 19 21  1  0  0  0  0
 19 47  1  0  0  0  0
 19 48  1  0  0  0  0
 20 22  1  0  0  0  0
 20 49  1  0  0  0  0
 20 50  1  0  0  0  0
 21 51  1  0  0  0  0
 21 52  1  0  0  0  0
 22 53  1  0  0  0  0
 22 54  1  0  0  0  0
 23 27  1  0  0  0  0
 23 55  1  0  0  0  0
 23 56  1  0  0  0  0
 24 28  1  0  0  0  0
 24 57  1  0  0  0  0
 24 58  1  0  0  0  0
 25 59  1  0  0  0  0
 25 60  1  0  0  0  0
 25 61  1  0  0  0  0
 26 62  1  0  0  0  0
 26 63  1  0  0  0  0
 27 28  1  0  0  0  0
 27 64  1  0  0  0  0
 27 65  1  0  0  0  0
 28 66  1  0  0  0  0
 29 30  1  0  0  0  0
 29 31  2  0  0  0  0
 30 68  1  0  0  0  0
 30 69  1  0  0  0  0
 31 33  1  0  0  0  0
 31 71  1  0  0  0  0
 32 34  1  0  0  0  0
 32 72  1  0  0  0  0
 34 35  1  0  0  0  0
 34 73  1  0  0  0  0
 35 37  1  0  0  0  0
 35 74  1  0  0  0  0
 36 37  1  0  0  0  0
 36 38  1  0  0  0  0
 36 75  1  0  0  0  0
 37 76  1  0  0  0  0
 38 78  1  0  0  0  0
 38 79  1  0  0  0  0
 38 80  1  0  0  0  0
M  END
> <PUBCHEM_COMPOUND_CID>
46173927

> <PUBCHEM_CONFORMER_RMSD>
1

> <PUBCHEM_CONFORMER_DIVERSEORDER>
1
6
8
11
10
4
9
5
12
3
7
2

> <PUBCHEM_MMFF94_PARTIAL_CHARGES>
28
1 -0.68
10 0.28
18 0.14
2 -0.68
26 0.28
28 0.28
29 -0.28
3 -0.56
30 0.42
31 -0.14
32 0.56
33 0.71
34 0.28
35 0.28
36 0.28
37 0.28
4 -0.43
5 -0.56
6 -0.57
67 0.4
7 -0.68
70 0.4
71 0.15
77 0.4
8 -0.68
81 0.4
82 0.4
9 -0.68

> <PUBCHEM_EFFECTIVE_ROTOR_COUNT>
7.8

> <PUBCHEM_PHARMACOPHORE_FEATURES>
19
1 1 acceptor
1 1 donor
1 2 acceptor
1 2 donor
1 3 acceptor
1 5 acceptor
1 6 acceptor
1 7 acceptor
1 7 donor
1 8 acceptor
1 8 donor
1 9 acceptor
1 9 donor
5 10 13 18 20 22 rings
5 4 29 30 31 33 rings
6 10 11 12 13 16 17 rings
6 11 12 14 15 19 21 rings
6 14 15 23 24 27 28 rings
6 5 32 34 35 36 37 rings

> <PUBCHEM_HEAVY_ATOM_COUNT>
38

> <PUBCHEM_ATOM_DEF_STEREO_COUNT>
13

> <PUBCHEM_ATOM_UDEF_STEREO_COUNT>
0

> <PUBCHEM_BOND_DEF_STEREO_COUNT>
0

> <PUBCHEM_BOND_UDEF_STEREO_COUNT>
0

> <PUBCHEM_ISOTOPIC_ATOM_COUNT>
0

> <PUBCHEM_COMPONENT_COUNT>
1

> <PUBCHEM_CACTVS_TAUTO_COUNT>
1

> <PUBCHEM_CONFORMER_ID>
02C08EE700000001

> <PUBCHEM_MMFF94_ENERGY>
129.6233

> <PUBCHEM_FEATURE_SELFOVERLAP>
96.665

> <PUBCHEM_SHAPE_FINGERPRINT>
10 15 15123505908768985575
10050765 1 18121499321529835320
10076449 9 18060416911760077853
10165383 225 17775567551017415683
10299344 5 16370442254794527374
10369192 42 18341335561399289591
10674148 151 18260269663698437169
11135926 11 18272100400260763231
11315181 36 16370724799634838891
11991303 11 16916778544792641202
12082328 90 18187368701667177511
12539745 222 17345735419158320345
12838862 33 18338532884241763421
13782708 43 17240483611537097974
13811026 1 18334855026188757148
14118638 360 17346325946041745605
14251764 18 10015862089325918920
14294032 229 17987517185556423365
14856354 85 15068622652118727365
15183329 4 18411135836395279854
15392192 104 13398626160965540648
1577012 14 18341904004294212763
16087824 20 18337109081842312073
18603816 31 15357993248168063685
18608769 82 18130787811884944963
20105231 36 18342171155771470803
21792934 111 18113625586632293104
21792961 116 18131353033079441722
22224240 67 10159699092386194484
23559900 14 18263934232511102640
23576562 1 18266747879373142565
249057 3 18202563951914466693
3092352 35 15626504986881383474
335352 9 18408608046478302005
3383291 50 18411697652256276642
3633792 109 18040431109949867418
44280117 145 18194402195766814207
4760202 170 17748837305837760945
5219985 9 14201116816651077594
5758199 1 17846780711176457715
6081469 158 15574712517087116745
6691757 9 11959722811688191669

> <PUBCHEM_SHAPE_MULTIPOLES>
729.2
28.37
2.11
1.52
16.39
0.24
-0.15
5.67
-4.13
0.25
0.16
0.76
-0.56
1.3

> <PUBCHEM_SHAPE_SELFOVERLAP>
1569.077

> <PUBCHEM_SHAPE_VOLUME>
397.6

> <PUBCHEM_COORDINATE_TYPE>
2
5
10

$$$$

