443154
  -OEChem-07051213013D

 69 74  0     1  0  0  0  0  0999 V2000
    5.3806    0.2782   -0.4343 O   0  0  0  0  0  0  0  0  0  0  0  0
    4.3091   -1.6901   -1.0831 O   0  0  0  0  0  0  0  0  0  0  0  0
   -8.1225    0.9249    0.0174 O   0  0  0  0  0  0  0  0  0  0  0  0
   -6.5385   -2.2092   -0.4606 O   0  0  0  0  0  0  0  0  0  0  0  0
    8.7282   -1.7790    0.7631 O   0  0  0  0  0  0  0  0  0  0  0  0
    6.1565   -3.1799    0.4508 O   0  0  0  0  0  0  0  0  0  0  0  0
    8.2677    0.9284    1.7149 O   0  0  0  0  0  0  0  0  0  0  0  0
   -4.6552    3.3521    0.0175 O   0  0  0  0  0  0  0  0  0  0  0  0
   -8.9261   -1.0931   -0.5493 O   0  0  0  0  0  0  0  0  0  0  0  0
    6.9731    3.1312    0.8504 O   0  0  0  0  0  0  0  0  0  0  0  0
    5.8042    2.7166   -1.0621 O   0  0  0  0  0  0  0  0  0  0  0  0
   -3.2891    1.4950   -0.1603 N   0  0  0  0  0  0  0  0  0  0  0  0
   -1.1724   -1.4053   -0.3877 N   0  0  0  0  0  0  0  0  0  0  0  0
   -3.1369    0.1182   -0.1609 C   0  0  0  0  0  0  0  0  0  0  0  0
   -1.0438    1.0203   -0.4400 C   0  0  0  0  0  0  0  0  0  0  0  0
   -1.9881    2.1724   -0.3373 C   0  0  0  0  0  0  0  0  0  0  0  0
   -5.5082   -0.1292    0.1470 C   0  0  0  0  0  0  0  0  0  0  0  0
   -6.6862   -1.0415    0.3508 C   0  0  2  0  0  0  0  0  0  0  0  0
   -1.7236   -0.1848   -0.3353 C   0  0  0  0  0  0  0  0  0  0  0  0
    7.4370   -1.1919    0.9314 C   0  0  2  0  0  0  0  0  0  0  0  0
    6.4436   -1.8624   -0.0180 C   0  0  2  0  0  0  0  0  0  0  0  0
   -5.6813    1.2048    0.1653 C   0  0  0  0  0  0  0  0  0  0  0  0
    7.5575    0.3054    0.6460 C   0  0  1  0  0  0  0  0  0  0  0  0
    0.3195    0.9904   -0.6133 C   0  0  0  0  0  0  0  0  0  0  0  0
    5.1309   -1.0817   -0.0875 C   0  0  1  0  0  0  0  0  0  0  0  0
   -4.1802   -0.7019   -0.0114 C   0  0  0  0  0  0  0  0  0  0  0  0
   -4.5059    2.1325    0.0002 C   0  0  0  0  0  0  0  0  0  0  0  0
    6.1799    0.9465    0.5348 C   0  0  1  0  0  0  0  0  0  0  0  0
    0.9537   -0.2615   -0.6756 C   0  0  0  0  0  0  0  0  0  0  0  0
   -6.8226   -1.4684    1.8142 C   0  0  0  0  0  0  0  0  0  0  0  0
   -7.0310    1.8048    0.3650 C   0  0  0  0  0  0  0  0  0  0  0  0
    0.1651   -1.4412   -0.5577 C   0  0  0  0  0  0  0  0  0  0  0  0
    1.0642    2.2799   -0.7273 C   0  0  0  0  0  0  0  0  0  0  0  0
   -7.9961   -0.4162   -0.1143 C   0  0  0  0  0  0  0  0  0  0  0  0
    2.3431   -0.3580   -0.8516 C   0  0  0  0  0  0  0  0  0  0  0  0
    2.9622   -1.6035   -0.9124 C   0  0  0  0  0  0  0  0  0  0  0  0
    0.8152   -2.6693   -0.6224 C   0  0  0  0  0  0  0  0  0  0  0  0
    6.2788    2.3379   -0.0015 C   0  0  0  0  0  0  0  0  0  0  0  0
   -7.9920   -2.4130    2.0045 C   0  0  0  0  0  0  0  0  0  0  0  0
    2.1981   -2.7584   -0.7980 C   0  0  0  0  0  0  0  0  0  0  0  0
    1.5314    2.8003    0.6288 C   0  0  0  0  0  0  0  0  0  0  0  0
   -2.0308    2.7733   -1.2505 H   0  0  0  0  0  0  0  0  0  0  0  0
   -1.8001    2.8040    0.5358 H   0  0  0  0  0  0  0  0  0  0  0  0
    7.1477   -1.3741    1.9739 H   0  0  0  0  0  0  0  0  0  0  0  0
    6.8806   -1.9651   -1.0190 H   0  0  0  0  0  0  0  0  0  0  0  0
    8.1425    0.4645   -0.2683 H   0  0  0  0  0  0  0  0  0  0  0  0
    4.6201   -1.1295    0.8859 H   0  0  0  0  0  0  0  0  0  0  0  0
   -4.0545   -1.7786    0.0020 H   0  0  0  0  0  0  0  0  0  0  0  0
    5.6439    0.9870    1.4912 H   0  0  0  0  0  0  0  0  0  0  0  0
   -6.9502   -0.5997    2.4717 H   0  0  0  0  0  0  0  0  0  0  0  0
   -5.9134   -1.9921    2.1363 H   0  0  0  0  0  0  0  0  0  0  0  0
   -7.1672    2.1173    1.4056 H   0  0  0  0  0  0  0  0  0  0  0  0
   -7.1517    2.6891   -0.2693 H   0  0  0  0  0  0  0  0  0  0  0  0
    1.9049    2.2149   -1.4254 H   0  0  0  0  0  0  0  0  0  0  0  0
    0.4175    3.0414   -1.1825 H   0  0  0  0  0  0  0  0  0  0  0  0
    2.9632    0.5254   -0.9497 H   0  0  0  0  0  0  0  0  0  0  0  0
    0.2417   -3.5904   -0.5354 H   0  0  0  0  0  0  0  0  0  0  0  0
   -7.9512   -3.2737    1.3301 H   0  0  0  0  0  0  0  0  0  0  0  0
   -8.9551   -1.9099    1.8791 H   0  0  0  0  0  0  0  0  0  0  0  0
   -7.9785   -2.8055    3.0277 H   0  0  0  0  0  0  0  0  0  0  0  0
   -6.3955   -1.9264   -1.3805 H   0  0  0  0  0  0  0  0  0  0  0  0
    2.6707   -3.7359   -0.8434 H   0  0  0  0  0  0  0  0  0  0  0  0
    9.3356   -1.3258    1.3725 H   0  0  0  0  0  0  0  0  0  0  0  0
    7.0020   -3.6562    0.5133 H   0  0  0  0  0  0  0  0  0  0  0  0
    7.7591    0.7950    2.5330 H   0  0  0  0  0  0  0  0  0  0  0  0
    2.0497    3.7567    0.5066 H   0  0  0  0  0  0  0  0  0  0  0  0
    2.2240    2.0996    1.1070 H   0  0  0  0  0  0  0  0  0  0  0  0
    0.6884    2.9570    1.3099 H   0  0  0  0  0  0  0  0  0  0  0  0
    7.0505    4.0497    0.5150 H   0  0  0  0  0  0  0  0  0  0  0  0
  1 25  1  0  0  0  0
  1 28  1  0  0  0  0
  2 25  1  0  0  0  0
  2 36  1  0  0  0  0
  3 31  1  0  0  0  0
  3 34  1  0  0  0  0
  4 18  1  0  0  0  0
  4 61  1  0  0  0  0
  5 20  1  0  0  0  0
  5 63  1  0  0  0  0
  6 21  1  0  0  0  0
  6 64  1  0  0  0  0
  7 23  1  0  0  0  0
  7 65  1  0  0  0  0
  8 27  2  0  0  0  0
  9 34  2  0  0  0  0
 10 38  1  0  0  0  0
 10 69  1  0  0  0  0
 11 38  2  0  0  0  0
 12 14  1  0  0  0  0
 12 16  1  0  0  0  0
 12 27  1  0  0  0  0
 13 19  2  0  0  0  0
 13 32  1  0  0  0  0
 14 19  1  0  0  0  0
 14 26  2  0  0  0  0
 15 16  1  0  0  0  0
 15 19  1  0  0  0  0
 15 24  2  0  0  0  0
 16 42  1  0  0  0  0
 16 43  1  0  0  0  0
 17 18  1  0  0  0  0
 17 22  2  0  0  0  0
 17 26  1  0  0  0  0
 18 30  1  0  0  0  0
 18 34  1  0  0  0  0
 20 21  1  0  0  0  0
 20 23  1  0  0  0  0
 20 44  1  0  0  0  0
 21 25  1  0  0  0  0
 21 45  1  0  0  0  0
 22 27  1  0  0  0  0
 22 31  1  0  0  0  0
 23 28  1  0  0  0  0
 23 46  1  0  0  0  0
 24 29  1  0  0  0  0
 24 33  1  0  0  0  0
 25 47  1  0  0  0  0
 26 48  1  0  0  0  0
 28 38  1  0  0  0  0
 28 49  1  0  0  0  0
 29 32  2  0  0  0  0
 29 35  1  0  0  0  0
 30 39  1  0  0  0  0
 30 50  1  0  0  0  0
 30 51  1  0  0  0  0
 31 52  1  0  0  0  0
 31 53  1  0  0  0  0
 32 37  1  0  0  0  0
 33 41  1  0  0  0  0
 33 54  1  0  0  0  0
 33 55  1  0  0  0  0
 35 36  2  0  0  0  0
 35 56  1  0  0  0  0
 36 40  1  0  0  0  0
 37 40  2  0  0  0  0
 37 57  1  0  0  0  0
 39 58  1  0  0  0  0
 39 59  1  0  0  0  0
 39 60  1  0  0  0  0
 40 62  1  0  0  0  0
 41 66  1  0  0  0  0
 41 67  1  0  0  0  0
 41 68  1  0  0  0  0
M  END
> <PUBCHEM_COMPOUND_CID>
443154

> <PUBCHEM_CONFORMER_RMSD>
1

> <PUBCHEM_CONFORMER_DIVERSEORDER>
1
17
21
34
20
8
28
22
35
23
24
31
10
15
40
30
2
12
39
27
3
37
19
26
5
11
33
14
16
38
32
25
36
4
9
18
29
7
6
13

> <PUBCHEM_MMFF94_PARTIAL_CHARGES>
46
1 -0.56
10 -0.65
11 -0.57
12 -0.47
13 -0.62
14 0.08
15 -0.14
16 0.44
17 -0.14
18 0.48
19 0.34
2 -0.36
20 0.28
21 0.28
22 -0.12
23 0.28
24 -0.14
25 0.56
26 -0.15
27 0.62
28 0.34
3 -0.43
31 0.42
32 0.31
33 0.14
34 0.66
35 -0.15
36 0.08
37 -0.15
38 0.66
4 -0.68
40 -0.15
48 0.15
5 -0.68
56 0.15
57 0.15
6 -0.68
61 0.4
62 0.15
63 0.4
64 0.4
65 0.4
69 0.5
7 -0.68
8 -0.57
9 -0.57

> <PUBCHEM_EFFECTIVE_ROTOR_COUNT>
7

> <PUBCHEM_PHARMACOPHORE_FEATURES>
24
1 1 acceptor
1 10 acceptor
1 11 acceptor
1 13 acceptor
1 2 acceptor
1 39 hydrophobe
1 4 acceptor
1 4 donor
1 41 hydrophobe
1 5 acceptor
1 5 donor
1 6 acceptor
1 6 donor
1 7 acceptor
1 7 donor
1 8 acceptor
1 9 acceptor
3 10 11 38 anion
5 12 14 15 16 19 rings
6 1 20 21 23 25 28 rings
6 12 14 17 22 26 27 rings
6 13 15 19 24 29 32 rings
6 29 32 35 36 37 40 rings
6 3 17 18 22 31 34 rings

> <PUBCHEM_HEAVY_ATOM_COUNT>
41

> <PUBCHEM_ATOM_DEF_STEREO_COUNT>
6

> <PUBCHEM_ATOM_UDEF_STEREO_COUNT>
0

> <PUBCHEM_BOND_DEF_STEREO_COUNT>
0

> <PUBCHEM_BOND_UDEF_STEREO_COUNT>
0

> <PUBCHEM_ISOTOPIC_ATOM_COUNT>
0

> <PUBCHEM_COMPONENT_COUNT>
1

> <PUBCHEM_CACTVS_TAUTO_COUNT>
1

> <PUBCHEM_CONFORMER_ID>
0006C31200000001

> <PUBCHEM_MMFF94_ENERGY>
124.4605

> <PUBCHEM_FEATURE_SELFOVERLAP>
122.169

> <PUBCHEM_SHAPE_FINGERPRINT>
10 15 18409166610553091790
10391435 84 18342175562497275083
11456790 92 18040724705809331594
12202916 173 18342454846788100515
12717326 120 17058918941360110323
13811026 1 18412824689838341755
14168556 18 18408885110070081111
14849402 71 18260828138122583681
14856354 85 15430040942501240533
14937079 2 18337671923756698468
15064981 113 13398364426043806667
15781502 593 18411706503734948562
15840311 113 18343582928548236212
15890870 6 18336262367730859132
18608769 82 18335141990497623359
19611394 137 18271236128349735539
19841028 212 17274549848793671146
20105231 36 18261950869488384710
20721686 56 18411417290102739521
21130935 74 18340763827346496227
21792934 111 18412831312994611764
21987483 16 18272652320506203170
22002106 203 18267299830280426115
22149856 69 17968923297046907331
23559900 14 18411699886150713093
23576562 1 7132131145222356243
24771293 8 18334571360773782133
3178227 256 18335130965084537563
335507 130 18187086161206170502
3383291 50 17917139525469596011
34797466 226 17458617930736524404
350125 39 18408039594239680005
4073 2 18342167883121838019
4093350 32 16660636376199382124
4149490 64 17773581751655717449
4625314 4 18339079414445431151
4874694 18 18340490067127847423
5104073 3 18266733769730640355
5109719 28 18260539009756094826
6126387 218 18335138718354990665
9831232 110 18044084873210301814
9962374 69 18262524685281134135

> <PUBCHEM_SHAPE_MULTIPOLES>
769.24
28.71
3.57
1.11
1.08
0.82
-0.38
-4.66
-10.7
-2.16
-0.15
0
-0.36
1.51

> <PUBCHEM_SHAPE_SELFOVERLAP>
1714.065

> <PUBCHEM_SHAPE_VOLUME>
405.3

> <PUBCHEM_COORDINATE_TYPE>
2
5
10

$$$$

