47205626
  -OEChem-06241222592D

 30 31  0     0  0  0  0  0  0999 V2000
    7.0468    4.3844    0.0000 F   0  0  0  0  0  0  0  0  0  0  0  0
    8.0468    3.3844    0.0000 F   0  0  0  0  0  0  0  0  0  0  0  0
    6.0468    3.3844    0.0000 F   0  0  0  0  0  0  0  0  0  0  0  0
    3.5827   -0.6156    0.0000 O   0  0  0  0  0  0  0  0  0  0  0  0
    4.4487   -2.1156    0.0000 N   0  0  0  0  0  0  0  0  0  0  0  0
    2.5000   -3.8180    0.0000 N   0  0  0  0  0  0  0  0  0  0  0  0
    2.0000   -2.9520    0.0000 N   0  0  0  0  0  0  0  0  0  0  0  0
    6.1808    0.8844    0.0000 C   0  0  0  0  0  0  0  0  0  0  0  0
    7.0468    2.3844    0.0000 C   0  0  0  0  0  0  0  0  0  0  0  0
    6.1808    1.8844    0.0000 C   0  0  0  0  0  0  0  0  0  0  0  0
    7.0468    0.3844    0.0000 C   0  0  0  0  0  0  0  0  0  0  0  0
    7.9128    1.8844    0.0000 C   0  0  0  0  0  0  0  0  0  0  0  0
    5.3147    0.3844    0.0000 C   0  0  0  0  0  0  0  0  0  0  0  0
    7.9128    0.8844    0.0000 C   0  0  0  0  0  0  0  0  0  0  0  0
    7.0468    3.3844    0.0000 C   0  0  0  0  0  0  0  0  0  0  0  0
    3.5827   -2.6156    0.0000 C   0  0  0  0  0  0  0  0  0  0  0  0
    5.3147   -0.6156    0.0000 C   0  0  0  0  0  0  0  0  0  0  0  0
    4.4487   -1.1156    0.0000 C   0  0  0  0  0  0  0  0  0  0  0  0
    3.4782   -3.6101    0.0000 C   0  0  0  0  0  0  0  0  0  0  0  0
    2.6691   -2.2088    0.0000 C   0  0  0  0  0  0  0  0  0  0  0  0
    5.6438    2.1944    0.0000 H   0  0  0  0  0  0  0  0  0  0  0  0
    7.0468   -0.2356    0.0000 H   0  0  0  0  0  0  0  0  0  0  0  0
    8.4497    2.1944    0.0000 H   0  0  0  0  0  0  0  0  0  0  0  0
    4.7778    0.6944    0.0000 H   0  0  0  0  0  0  0  0  0  0  0  0
    8.4497    0.5744    0.0000 H   0  0  0  0  0  0  0  0  0  0  0  0
    5.8517   -0.9256    0.0000 H   0  0  0  0  0  0  0  0  0  0  0  0
    4.9856   -2.4256    0.0000 H   0  0  0  0  0  0  0  0  0  0  0  0
    3.9389   -4.0250    0.0000 H   0  0  0  0  0  0  0  0  0  0  0  0
    2.5402   -1.6024    0.0000 H   0  0  0  0  0  0  0  0  0  0  0  0
    2.2478   -4.3844    0.0000 H   0  0  0  0  0  0  0  0  0  0  0  0
  1 15  1  0  0  0  0
  2 15  1  0  0  0  0
  3 15  1  0  0  0  0
  4 18  2  0  0  0  0
  5 16  1  0  0  0  0
  5 18  1  0  0  0  0
  5 27  1  0  0  0  0
  6  7  1  0  0  0  0
  6 19  1  0  0  0  0
  6 30  1  0  0  0  0
  7 20  2  0  0  0  0
  8 10  2  0  0  0  0
  8 11  1  0  0  0  0
  8 13  1  0  0  0  0
  9 10  1  0  0  0  0
  9 12  2  0  0  0  0
  9 15  1  0  0  0  0
 10 21  1  0  0  0  0
 11 14  2  0  0  0  0
 11 22  1  0  0  0  0
 12 14  1  0  0  0  0
 12 23  1  0  0  0  0
 13 17  2  3  0  0  0
 13 24  1  0  0  0  0
 14 25  1  0  0  0  0
 16 19  2  0  0  0  0
 16 20  1  0  0  0  0
 17 18  1  0  0  0  0
 17 26  1  0  0  0  0
 19 28  1  0  0  0  0
 20 29  1  0  0  0  0
M  END
> <PUBCHEM_COMPOUND_CID>
47205626

> <PUBCHEM_COMPOUND_CANONICALIZED>
1

> <PUBCHEM_CACTVS_COMPLEXITY>
370

> <PUBCHEM_CACTVS_HBOND_ACCEPTOR>
5

> <PUBCHEM_CACTVS_HBOND_DONOR>
2

> <PUBCHEM_CACTVS_ROTATABLE_BOND>
3

> <PUBCHEM_CACTVS_SUBSKEYS>
AAADccBzIYAAAAAAAAAAAAAAAAAAAWAAAAAwAAAAAAAAAAABwAAAHwAYAAAADAjBmhQ8wJLjAACqAjV3UACSBAAhkgAYuaAgdNgIYKKAUVCQpAAgnACIiYcAgEAOAAACAAAAAAAAAAQAAAAAAAAAAAAAAA==

> <PUBCHEM_IUPAC_OPENEYE_NAME>
N-(1H-pyrazol-4-yl)-3-[3-(trifluoromethyl)phenyl]prop-2-enamide

> <PUBCHEM_IUPAC_CAS_NAME>
N-(1H-pyrazol-4-yl)-3-[3-(trifluoromethyl)phenyl]-2-propenamide

> <PUBCHEM_IUPAC_NAME>
N-(1H-pyrazol-4-yl)-3-[3-(trifluoromethyl)phenyl]prop-2-enamide

> <PUBCHEM_IUPAC_SYSTEMATIC_NAME>
N-(1H-pyrazol-4-yl)-3-[3-(trifluoromethyl)phenyl]prop-2-enamide

> <PUBCHEM_IUPAC_TRADITIONAL_NAME>
N-(1H-pyrazol-4-yl)-3-[3-(trifluoromethyl)phenyl]acrylamide

> <PUBCHEM_IUPAC_INCHI>
InChI=1S/C13H10F3N3O/c14-13(15,16)10-3-1-2-9(6-10)4-5-12(20)19-11-7-17-18-8-11/h1-8H,(H,17,18)(H,19,20)

> <PUBCHEM_IUPAC_INCHIKEY>
UZRDRDKCNUTIHN-UHFFFAOYSA-N

> <PUBCHEM_XLOGP3_AA>
2.4

> <PUBCHEM_EXACT_MASS>
281.077597

> <PUBCHEM_MOLECULAR_FORMULA>
C13H10F3N3O

> <PUBCHEM_MOLECULAR_WEIGHT>
281.23321

> <PUBCHEM_OPENEYE_CAN_SMILES>
C1=CC(=CC(=C1)C(F)(F)F)C=CC(=O)NC2=CNN=C2

> <PUBCHEM_OPENEYE_ISO_SMILES>
C1=CC(=CC(=C1)C(F)(F)F)C=CC(=O)NC2=CNN=C2

> <PUBCHEM_CACTVS_TPSA>
57.8

> <PUBCHEM_MONOISOTOPIC_WEIGHT>
281.077597

> <PUBCHEM_TOTAL_CHARGE>
0

> <PUBCHEM_HEAVY_ATOM_COUNT>
20

> <PUBCHEM_ATOM_DEF_STEREO_COUNT>
0

> <PUBCHEM_ATOM_UDEF_STEREO_COUNT>
0

> <PUBCHEM_BOND_DEF_STEREO_COUNT>
0

> <PUBCHEM_BOND_UDEF_STEREO_COUNT>
1

> <PUBCHEM_ISOTOPIC_ATOM_COUNT>
0

> <PUBCHEM_COMPONENT_COUNT>
1

> <PUBCHEM_CACTVS_TAUTO_COUNT>
4

> <PUBCHEM_COORDINATE_TYPE>
1
5
255

> <PUBCHEM_BONDANNOTATIONS>
11  14  8
12  14  8
13  17  1
16  19  8
16  20  8
6  19  8
6  7  8
7  20  8
8  10  8
8  11  8
9  10  8
9  12  8

$$$$

