47205743
  -OEChem-06241223003D

 33 33  0     0  0  0  0  0  0999 V2000
    4.0678    1.9494   -0.3413 S   0  0  0  0  0  0  0  0  0  0  0  0
   -3.0972    0.3497   -1.3047 O   0  0  0  0  0  0  0  0  0  0  0  0
   -0.4860   -1.0888    1.4030 O   0  0  0  0  0  0  0  0  0  0  0  0
    1.4010    0.8844   -1.0289 O   0  0  0  0  0  0  0  0  0  0  0  0
   -3.0017   -1.3386    0.2858 N   0  0  0  0  0  0  0  0  0  0  0  0
    0.4403   -1.6669   -0.6445 N   0  0  0  0  0  0  0  0  0  0  0  0
    1.7053   -1.2826   -0.2713 N   0  0  0  0  0  0  0  0  0  0  0  0
   -4.6690    0.3761    0.5367 C   0  0  0  0  0  0  0  0  0  0  0  0
   -5.2461    1.6535   -0.0660 C   0  0  0  0  0  0  0  0  0  0  0  0
   -3.5132   -0.1781   -0.2768 C   0  0  0  0  0  0  0  0  0  0  0  0
   -1.8971   -2.0583   -0.3021 C   0  0  0  0  0  0  0  0  0  0  0  0
   -6.3791    2.2078    0.7821 C   0  0  0  0  0  0  0  0  0  0  0  0
   -0.5957   -1.5326    0.2624 C   0  0  0  0  0  0  0  0  0  0  0  0
    3.4875    0.3577   -0.0925 C   0  0  0  0  0  0  0  0  0  0  0  0
    2.0999    0.0208   -0.5046 C   0  0  0  0  0  0  0  0  0  0  0  0
    4.4360   -0.4529    0.4916 C   0  0  0  0  0  0  0  0  0  0  0  0
    5.6551    0.2421    0.7381 C   0  0  0  0  0  0  0  0  0  0  0  0
    5.5921    1.5572    0.3330 C   0  0  0  0  0  0  0  0  0  0  0  0
   -5.4470   -0.3942    0.5980 H   0  0  0  0  0  0  0  0  0  0  0  0
   -4.3072    0.5719    1.5533 H   0  0  0  0  0  0  0  0  0  0  0  0
   -5.6147    1.4550   -1.0795 H   0  0  0  0  0  0  0  0  0  0  0  0
   -4.4601    2.4126   -0.1578 H   0  0  0  0  0  0  0  0  0  0  0  0
   -1.9966   -3.1152   -0.0381 H   0  0  0  0  0  0  0  0  0  0  0  0
   -1.9271   -1.9515   -1.3911 H   0  0  0  0  0  0  0  0  0  0  0  0
   -3.3999   -1.6943    1.1502 H   0  0  0  0  0  0  0  0  0  0  0  0
   -6.0312    2.4510    1.7912 H   0  0  0  0  0  0  0  0  0  0  0  0
   -6.7781    3.1217    0.3311 H   0  0  0  0  0  0  0  0  0  0  0  0
   -7.1968    1.4848    0.8650 H   0  0  0  0  0  0  0  0  0  0  0  0
    0.3375   -2.0570   -1.5753 H   0  0  0  0  0  0  0  0  0  0  0  0
    2.2835   -1.9990    0.1529 H   0  0  0  0  0  0  0  0  0  0  0  0
    4.2867   -1.4956    0.7395 H   0  0  0  0  0  0  0  0  0  0  0  0
    6.5338   -0.2000    1.1896 H   0  0  0  0  0  0  0  0  0  0  0  0
    6.3683    2.3063    0.4009 H   0  0  0  0  0  0  0  0  0  0  0  0
  1 14  1  0  0  0  0
  1 18  1  0  0  0  0
  2 10  2  0  0  0  0
  3 13  2  0  0  0  0
  4 15  2  0  0  0  0
  5 10  1  0  0  0  0
  5 11  1  0  0  0  0
  5 25  1  0  0  0  0
  6  7  1  0  0  0  0
  6 13  1  0  0  0  0
  6 29  1  0  0  0  0
  7 15  1  0  0  0  0
  7 30  1  0  0  0  0
  8  9  1  0  0  0  0
  8 10  1  0  0  0  0
  8 19  1  0  0  0  0
  8 20  1  0  0  0  0
  9 12  1  0  0  0  0
  9 21  1  0  0  0  0
  9 22  1  0  0  0  0
 11 13  1  0  0  0  0
 11 23  1  0  0  0  0
 11 24  1  0  0  0  0
 12 26  1  0  0  0  0
 12 27  1  0  0  0  0
 12 28  1  0  0  0  0
 14 15  1  0  0  0  0
 14 16  2  0  0  0  0
 16 17  1  0  0  0  0
 16 31  1  0  0  0  0
 17 18  2  0  0  0  0
 17 32  1  0  0  0  0
 18 33  1  0  0  0  0
M  END
> <PUBCHEM_COMPOUND_CID>
47205743

> <PUBCHEM_CONFORMER_RMSD>
1

> <PUBCHEM_CONFORMER_DIVERSEORDER>
1
28
51
52
66
48
17
49
65
47
42
62
13
67
24
16
64
29
18
45
50
56
68
25
34
22
33
59
5
61
58
44
14
20
39
70
54
27
57
55
60
23
69
2
9
7
19
10
43
3
21
53
35
46
31
36
41
40
8
26
4
15
63
32
37
12
6
30
38
11

> <PUBCHEM_MMFF94_PARTIAL_CHARGES>
22
1 -0.08
10 0.57
11 0.36
13 0.57
14 -0.05
15 0.71
16 -0.15
17 -0.15
18 -0.11
2 -0.57
25 0.37
29 0.37
3 -0.57
30 0.37
31 0.15
32 0.15
33 0.15
4 -0.57
5 -0.73
6 -0.43
7 -0.43
8 0.06

> <PUBCHEM_EFFECTIVE_ROTOR_COUNT>
9

> <PUBCHEM_PHARMACOPHORE_FEATURES>
8
1 12 hydrophobe
1 2 acceptor
1 3 acceptor
1 4 acceptor
1 5 donor
1 6 donor
1 7 donor
5 1 14 16 17 18 rings

> <PUBCHEM_HEAVY_ATOM_COUNT>
18

> <PUBCHEM_ATOM_DEF_STEREO_COUNT>
0

> <PUBCHEM_ATOM_UDEF_STEREO_COUNT>
0

> <PUBCHEM_BOND_DEF_STEREO_COUNT>
0

> <PUBCHEM_BOND_UDEF_STEREO_COUNT>
0

> <PUBCHEM_ISOTOPIC_ATOM_COUNT>
0

> <PUBCHEM_COMPONENT_COUNT>
1

> <PUBCHEM_CACTVS_TAUTO_COUNT>
8

> <PUBCHEM_CONFORMER_ID>
02D04D6F00000001

> <PUBCHEM_MMFF94_ENERGY>
21.602

> <PUBCHEM_FEATURE_SELFOVERLAP>
42.131

> <PUBCHEM_SHAPE_FINGERPRINT>
11089746 13 18188218594137818032
117890 112 18334014978099448632
12107183 9 18269283511779298042
12596602 18 13686295785749269172
12633257 1 15697702762731580977
12895836 83 17240770605625762205
13103583 49 12679181665311330431
13167372 99 18409167731555244144
13675066 3 17489593342160040702
13785724 45 17979078516003248274
14123255 352 18408039598096543865
14123256 34 9799402348111261873
14251732 17 18408603656309685790
14251764 18 18130792209688537834
14251764 30 12463299136982253000
14251764 38 18118972377505968361
14576447 43 8142090857887304820
15188451 53 15338827613765598043
15238133 3 18202556264160364316
15295992 7 17702935942441271377
15880784 105 11455883676737380063
18222031 100 7204770371762078266
19784866 240 9439109971653954449
20281389 69 18411138017500129720
20621476 21 12175356850099319888
20621476 66 18411976945215280356
20715895 44 18334856146990884520
20871999 31 13840261507489152987
21033648 29 18188218593821249184
21054139 6 7493013959818878644
21315759 148 14189303681313382464
21421861 104 17845387677521236442
21637258 2 11743839136243084565
22950370 63 10159705706799211166
23402539 116 18187372008137542396
23559900 14 18114177549885596278
270888 7 18334857273010930681
2838139 119 18333456438908817045
2871803 45 6627748868570394975
2916195 48 18408886226634899777
3014063 24 11743543363969514833
314194 84 8862938415802805309
351380 3 10375866368742256001
3680242 22 18342173405600961480
4259306 186 8430322328823205816
465052 167 11527941270469378800
5104073 3 18059863796907199136
5385378 56 18270398424584829818
7062679 13 9655578495887568285
7970288 3 10303804372453001441

> <PUBCHEM_SHAPE_MULTIPOLES>
341.73
15.22
2.27
0.97
5.02
0.2
-0.02
11.84
-3.19
1.63
-0.06
0.15
0.03
-0.6

> <PUBCHEM_SHAPE_SELFOVERLAP>
674.901

> <PUBCHEM_SHAPE_VOLUME>
203.7

> <PUBCHEM_COORDINATE_TYPE>
2
5
10

$$$$

