54611
  -OEChem-07051213143D

 41 44  0     0  0  0  0  0  0999 V2000
   -4.0718   -2.1609    0.2978 S   0  0  0  0  0  0  0  0  0  0  0  0
   -2.7474   -1.2011    0.3595 O   0  0  0  0  0  0  0  0  0  0  0  0
   -4.4936   -2.3303    1.8645 O   0  0  0  0  0  0  0  0  0  0  0  0
   -5.1268   -1.4132   -0.3605 O   0  0  0  0  0  0  0  0  0  0  0  0
   -3.6817   -3.4658   -0.2030 O   0  0  0  0  0  0  0  0  0  0  0  0
    1.4337    0.3160   -0.0632 C   0  0  0  0  0  0  0  0  0  0  0  0
    0.2958   -0.4633   -0.3863 C   0  0  0  0  0  0  0  0  0  0  0  0
   -0.9732    0.1319   -0.4955 C   0  0  0  0  0  0  0  0  0  0  0  0
    1.2180    1.7033    0.1387 C   0  0  0  0  0  0  0  0  0  0  0  0
   -1.1624    1.5053   -0.2916 C   0  0  0  0  0  0  0  0  0  0  0  0
   -0.0507    2.3044    0.0305 C   0  0  0  0  0  0  0  0  0  0  0  0
    2.7192   -0.3269    0.0406 C   0  0  0  0  0  0  0  0  0  0  0  0
    2.8146   -1.7252   -0.1832 C   0  0  0  0  0  0  0  0  0  0  0  0
    0.4296   -1.8379   -0.5997 C   0  0  0  0  0  0  0  0  0  0  0  0
   -2.1678   -0.7193   -0.8406 C   0  0  0  0  0  0  0  0  0  0  0  0
    1.6697   -2.4595   -0.4998 C   0  0  0  0  0  0  0  0  0  0  0  0
    2.3151    2.6677    0.4879 C   0  0  0  0  0  0  0  0  0  0  0  0
   -2.4317    2.0989   -0.4011 C   0  0  0  0  0  0  0  0  0  0  0  0
   -0.2342    3.6828    0.2363 C   0  0  0  0  0  0  0  0  0  0  0  0
    3.9248    0.3486    0.3572 C   0  0  0  0  0  0  0  0  0  0  0  0
    4.0531   -2.3828   -0.0896 C   0  0  0  0  0  0  0  0  0  0  0  0
   -2.5978    3.4681   -0.1941 C   0  0  0  0  0  0  0  0  0  0  0  0
   -1.4995    4.2598    0.1245 C   0  0  0  0  0  0  0  0  0  0  0  0
    5.1504   -0.3172    0.4471 C   0  0  0  0  0  0  0  0  0  0  0  0
    5.2145   -1.6836    0.2235 C   0  0  0  0  0  0  0  0  0  0  0  0
   -0.3977   -2.5045   -0.8151 H   0  0  0  0  0  0  0  0  0  0  0  0
   -2.9141   -0.1797   -1.4309 H   0  0  0  0  0  0  0  0  0  0  0  0
   -1.9282   -1.5514   -1.5089 H   0  0  0  0  0  0  0  0  0  0  0  0
    1.7278   -3.5337   -0.6664 H   0  0  0  0  0  0  0  0  0  0  0  0
    2.7348    2.3939    1.4625 H   0  0  0  0  0  0  0  0  0  0  0  0
    3.0336    2.7072   -0.3386 H   0  0  0  0  0  0  0  0  0  0  0  0
    2.1158    3.7218    0.6396 H   0  0  0  0  0  0  0  0  0  0  0  0
   -3.3392    1.5451   -0.6148 H   0  0  0  0  0  0  0  0  0  0  0  0
    0.5216    4.4114    0.4864 H   0  0  0  0  0  0  0  0  0  0  0  0
    4.0695    1.3889    0.5582 H   0  0  0  0  0  0  0  0  0  0  0  0
    4.1244   -3.4554   -0.2617 H   0  0  0  0  0  0  0  0  0  0  0  0
   -3.5845    3.9148   -0.2744 H   0  0  0  0  0  0  0  0  0  0  0  0
   -1.6293    5.3260    0.2873 H   0  0  0  0  0  0  0  0  0  0  0  0
    6.0540    0.2345    0.6918 H   0  0  0  0  0  0  0  0  0  0  0  0
    6.1640   -2.2055    0.2920 H   0  0  0  0  0  0  0  0  0  0  0  0
   -3.7553   -2.5570    2.4774 H   0  0  0  0  0  0  0  0  0  0  0  0
  1  2  1  0  0  0  0
  1  3  1  0  0  0  0
  1  4  2  0  0  0  0
  1  5  2  0  0  0  0
  2 15  1  0  0  0  0
  3 41  1  0  0  0  0
  6  7  1  0  0  0  0
  6  9  2  0  0  0  0
  6 12  1  0  0  0  0
  7  8  2  0  0  0  0
  7 14  1  0  0  0  0
  8 10  1  0  0  0  0
  8 15  1  0  0  0  0
  9 11  1  0  0  0  0
  9 17  1  0  0  0  0
 10 11  1  0  0  0  0
 10 18  2  0  0  0  0
 11 19  2  0  0  0  0
 12 13  1  0  0  0  0
 12 20  2  0  0  0  0
 13 16  1  0  0  0  0
 13 21  2  0  0  0  0
 14 16  2  0  0  0  0
 14 26  1  0  0  0  0
 15 27  1  0  0  0  0
 15 28  1  0  0  0  0
 16 29  1  0  0  0  0
 17 30  1  0  0  0  0
 17 31  1  0  0  0  0
 17 32  1  0  0  0  0
 18 22  1  0  0  0  0
 18 33  1  0  0  0  0
 19 23  1  0  0  0  0
 19 34  1  0  0  0  0
 20 24  1  0  0  0  0
 20 35  1  0  0  0  0
 21 25  1  0  0  0  0
 21 36  1  0  0  0  0
 22 23  2  0  0  0  0
 22 37  1  0  0  0  0
 23 38  1  0  0  0  0
 24 25  2  0  0  0  0
 24 39  1  0  0  0  0
 25 40  1  0  0  0  0
M  END
> <PUBCHEM_COMPOUND_CID>
54611

> <PUBCHEM_CONFORMER_RMSD>
0.6

> <PUBCHEM_CONFORMER_DIVERSEORDER>
2
3
4
6
1
5

> <PUBCHEM_MMFF94_PARTIAL_CHARGES>
30
1 1.67
14 -0.15
15 0.42
16 -0.15
17 0.14
18 -0.15
19 -0.15
2 -0.46
20 -0.15
21 -0.15
22 -0.15
23 -0.15
24 -0.15
25 -0.15
26 0.15
29 0.15
3 -0.68
33 0.15
34 0.15
35 0.15
36 0.15
37 0.15
38 0.15
39 0.15
4 -0.65
40 0.15
41 0.5
5 -0.65
8 -0.14
9 -0.14

> <PUBCHEM_EFFECTIVE_ROTOR_COUNT>
3

> <PUBCHEM_PHARMACOPHORE_FEATURES>
8
1 3 acceptor
1 4 acceptor
1 5 acceptor
4 1 3 4 5 anion
6 10 11 18 19 22 23 rings
6 12 13 20 21 24 25 rings
6 6 7 12 13 14 16 rings
6 6 7 8 9 10 11 rings

> <PUBCHEM_HEAVY_ATOM_COUNT>
25

> <PUBCHEM_ATOM_DEF_STEREO_COUNT>
0

> <PUBCHEM_ATOM_UDEF_STEREO_COUNT>
0

> <PUBCHEM_BOND_DEF_STEREO_COUNT>
0

> <PUBCHEM_BOND_UDEF_STEREO_COUNT>
0

> <PUBCHEM_ISOTOPIC_ATOM_COUNT>
0

> <PUBCHEM_COMPONENT_COUNT>
1

> <PUBCHEM_CACTVS_TAUTO_COUNT>
1

> <PUBCHEM_CONFORMER_ID>
0000D55300000002

> <PUBCHEM_MMFF94_ENERGY>
108.378

> <PUBCHEM_FEATURE_SELFOVERLAP>
40.726

> <PUBCHEM_SHAPE_FINGERPRINT>
10319926 262 18120675766869753410
10411042 1 18410014295152547895
10616163 171 18264211485998593742
10688039 33 18343863299311838269
10967382 1 18049167661624101700
1100329 8 17403743740129796131
12553582 1 18264212422001108910
12788726 201 18272089396549250402
13140716 1 18335421274556398656
133893 2 16341981366271071132
138480 1 15527707673287048261
14178342 30 18268722777975876730
14363568 33 18122337978319304688
14787075 74 18130224831571535074
14790565 3 17259619249350053413
14844126 61 18341055236651199603
14866123 147 18123471841443479043
15042514 8 18338234980704123613
15196674 1 17830461935738410836
15927050 60 17688873459748424863
16087824 20 18266461091818129789
17492 89 18339082713360882406
19591789 44 18336829671905386236
20101258 96 18410006654336714681
20739085 24 18193264209462622265
21041028 32 18410575050482792781
21267235 1 17901947775065971308
21478907 32 18410857659468142849
21641784 216 18201704155428453268
221490 88 18410577288461460116
22182313 1 18266201464311145700
2334 1 18264498299335498740
23557571 272 18189333636003450366
23558518 356 18271801376078933088
23559900 14 18339656576308926437
23845131 108 17546154668677872593
2748010 2 18263946383126641636
3091708 16 9351419516412095869
335352 9 17614849943451884110
3421961 26 18265896843844756659
350125 39 18408604734484101144
3886686 26 17404898193617455538
5104073 3 18263937690850982210
5309563 4 18338237050984082655
6004065 56 18193850249640865879
6443956 14 18340769217883302341
79837 15 17904197375524293249
9709674 26 17973165320602952390

> <PUBCHEM_SHAPE_MULTIPOLES>
494.86
9.04
5.07
0.83
3.69
2.66
0.17
-7.46
1.65
-5.56
0.49
-0.5
-0.34
1.11

> <PUBCHEM_SHAPE_SELFOVERLAP>
1102.565

> <PUBCHEM_SHAPE_VOLUME>
265.1

> <PUBCHEM_COORDINATE_TYPE>
2
5
10

$$$$

