102011
  -OEChem-07051213053D

 69 74  0     1  0  0  0  0  0999 V2000
   -2.6125   -0.1888   -0.9201 O   0  0  0  0  0  0  0  0  0  0  0  0
   -3.4615    0.3055    1.2093 O   0  0  0  0  0  0  0  0  0  0  0  0
   -3.9353   -3.1703    0.1249 O   0  0  0  0  0  0  0  0  0  0  0  0
    5.9138    2.1364   -1.0563 O   0  0  0  0  0  0  0  0  0  0  0  0
   -0.9429   -1.8089   -0.0912 C   0  0  1  0  0  0  0  0  0  0  0  0
   -0.3332   -0.7149    0.8193 C   0  0  2  0  0  0  0  0  0  0  0  0
    1.1501   -0.9467    1.1234 C   0  0  1  0  0  0  0  0  0  0  0  0
   -2.4182   -1.3428   -0.1083 C   0  0  1  0  0  0  0  0  0  0  0  0
    1.9406   -0.9433   -0.2350 C   0  0  2  0  0  0  0  0  0  0  0  0
   -1.3250   -0.6165    1.9791 C   0  0  0  0  0  0  0  0  0  0  0  0
   -2.6959   -0.8881    1.3227 C   0  0  1  0  0  0  0  0  0  0  0  0
   -0.1980   -1.7579   -1.4338 C   0  0  0  0  0  0  0  0  0  0  0  0
    1.3227   -1.9333   -1.2563 C   0  0  0  0  0  0  0  0  0  0  0  0
    3.4854   -1.1173   -0.0057 C   0  0  2  0  0  0  0  0  0  0  0  0
    1.7009    0.1088    2.1013 C   0  0  0  0  0  0  0  0  0  0  0  0
   -0.8432   -3.2381    0.5079 C   0  0  0  0  0  0  0  0  0  0  0  0
    3.8919    0.0084    0.9544 C   0  0  0  0  0  0  0  0  0  0  0  0
    3.2130   -0.0112    2.3013 C   0  0  0  0  0  0  0  0  0  0  0  0
   -3.3837   -2.3666   -0.6254 C   0  0  0  0  0  0  0  0  0  0  0  0
   -3.3097    0.7875   -0.1327 C   0  0  2  0  0  0  0  0  0  0  0  0
    4.3190   -1.0293   -1.3160 C   0  0  0  0  0  0  0  0  0  0  0  0
    3.8235   -2.5018    0.6034 C   0  0  0  0  0  0  0  0  0  0  0  0
    4.4758    0.3857   -1.8418 C   0  0  0  0  0  0  0  0  0  0  0  0
    4.6780    1.0455    0.6209 C   0  0  0  0  0  0  0  0  0  0  0  0
   -3.6467   -2.3612   -2.1070 C   0  0  0  0  0  0  0  0  0  0  0  0
   -4.7079    0.9718   -0.7227 C   0  0  0  0  0  0  0  0  0  0  0  0
   -2.5583    2.1117   -0.1536 C   0  0  0  0  0  0  0  0  0  0  0  0
    5.1174    1.2422   -0.7805 C   0  0  0  0  0  0  0  0  0  0  0  0
   -2.6435    2.9787    0.9355 C   0  0  0  0  0  0  0  0  0  0  0  0
   -1.7846    2.4567   -1.2616 C   0  0  0  0  0  0  0  0  0  0  0  0
   -1.9550    4.1917    0.9165 C   0  0  0  0  0  0  0  0  0  0  0  0
   -1.0960    3.6697   -1.2805 C   0  0  0  0  0  0  0  0  0  0  0  0
   -1.1812    4.5371   -0.1913 C   0  0  0  0  0  0  0  0  0  0  0  0
   -0.3817    0.2492    0.2923 H   0  0  0  0  0  0  0  0  0  0  0  0
    1.2621   -1.9195    1.6120 H   0  0  0  0  0  0  0  0  0  0  0  0
    1.7935    0.0568   -0.6734 H   0  0  0  0  0  0  0  0  0  0  0  0
   -1.1077   -1.3860    2.7284 H   0  0  0  0  0  0  0  0  0  0  0  0
   -1.2824    0.3602    2.4712 H   0  0  0  0  0  0  0  0  0  0  0  0
   -3.2574   -1.5998    1.9358 H   0  0  0  0  0  0  0  0  0  0  0  0
   -0.3758   -0.8007   -1.9393 H   0  0  0  0  0  0  0  0  0  0  0  0
   -0.5623   -2.5408   -2.1082 H   0  0  0  0  0  0  0  0  0  0  0  0
    1.5387   -2.9658   -0.9644 H   0  0  0  0  0  0  0  0  0  0  0  0
    1.7804   -1.7888   -2.2405 H   0  0  0  0  0  0  0  0  0  0  0  0
    1.2071    0.0112    3.0753 H   0  0  0  0  0  0  0  0  0  0  0  0
    1.4642    1.1144    1.7284 H   0  0  0  0  0  0  0  0  0  0  0  0
   -1.2522   -3.9790   -0.1888 H   0  0  0  0  0  0  0  0  0  0  0  0
    0.1865   -3.5434    0.7107 H   0  0  0  0  0  0  0  0  0  0  0  0
   -1.3927   -3.3378    1.4493 H   0  0  0  0  0  0  0  0  0  0  0  0
    3.4606   -0.9300    2.8434 H   0  0  0  0  0  0  0  0  0  0  0  0
    3.5529    0.8165    2.9357 H   0  0  0  0  0  0  0  0  0  0  0  0
    3.9064   -1.6728   -2.0991 H   0  0  0  0  0  0  0  0  0  0  0  0
    5.3299   -1.4201   -1.1246 H   0  0  0  0  0  0  0  0  0  0  0  0
    3.6503   -3.3062   -0.1200 H   0  0  0  0  0  0  0  0  0  0  0  0
    4.8796   -2.5526    0.8964 H   0  0  0  0  0  0  0  0  0  0  0  0
    3.2387   -2.7402    1.4952 H   0  0  0  0  0  0  0  0  0  0  0  0
    3.5170    0.8280   -2.1294 H   0  0  0  0  0  0  0  0  0  0  0  0
    5.1275    0.3754   -2.7223 H   0  0  0  0  0  0  0  0  0  0  0  0
    4.9285    1.8299    1.3268 H   0  0  0  0  0  0  0  0  0  0  0  0
   -4.3292   -1.5490   -2.3658 H   0  0  0  0  0  0  0  0  0  0  0  0
   -2.7204   -2.2663   -2.6742 H   0  0  0  0  0  0  0  0  0  0  0  0
   -4.1134   -3.3100   -2.3890 H   0  0  0  0  0  0  0  0  0  0  0  0
   -5.2744    0.0349   -0.6750 H   0  0  0  0  0  0  0  0  0  0  0  0
   -5.2844    1.7188   -0.1656 H   0  0  0  0  0  0  0  0  0  0  0  0
   -4.6650    1.2729   -1.7753 H   0  0  0  0  0  0  0  0  0  0  0  0
   -3.2469    2.7359    1.8056 H   0  0  0  0  0  0  0  0  0  0  0  0
   -1.7096    1.8026   -2.1258 H   0  0  0  0  0  0  0  0  0  0  0  0
   -2.0228    4.8681    1.7635 H   0  0  0  0  0  0  0  0  0  0  0  0
   -0.4949    3.9397   -2.1438 H   0  0  0  0  0  0  0  0  0  0  0  0
   -0.6457    5.4818   -0.2065 H   0  0  0  0  0  0  0  0  0  0  0  0
  1  8  1  0  0  0  0
  1 20  1  0  0  0  0
  2 11  1  0  0  0  0
  2 20  1  0  0  0  0
  3 19  2  0  0  0  0
  4 28  2  0  0  0  0
  5  6  1  0  0  0  0
  5  8  1  0  0  0  0
  5 12  1  0  0  0  0
  5 16  1  0  0  0  0
  6  7  1  0  0  0  0
  6 10  1  0  0  0  0
  6 34  1  0  0  0  0
  7  9  1  0  0  0  0
  7 15  1  0  0  0  0
  7 35  1  0  0  0  0
  8 11  1  0  0  0  0
  8 19  1  0  0  0  0
  9 13  1  0  0  0  0
  9 14  1  0  0  0  0
  9 36  1  0  0  0  0
 10 11  1  0  0  0  0
 10 37  1  0  0  0  0
 10 38  1  0  0  0  0
 11 39  1  0  0  0  0
 12 13  1  0  0  0  0
 12 40  1  0  0  0  0
 12 41  1  0  0  0  0
 13 42  1  0  0  0  0
 13 43  1  0  0  0  0
 14 17  1  0  0  0  0
 14 21  1  0  0  0  0
 14 22  1  0  0  0  0
 15 18  1  0  0  0  0
 15 44  1  0  0  0  0
 15 45  1  0  0  0  0
 16 46  1  0  0  0  0
 16 47  1  0  0  0  0
 16 48  1  0  0  0  0
 17 18  1  0  0  0  0
 17 24  2  0  0  0  0
 18 49  1  0  0  0  0
 18 50  1  0  0  0  0
 19 25  1  0  0  0  0
 20 26  1  0  0  0  0
 20 27  1  0  0  0  0
 21 23  1  0  0  0  0
 21 51  1  0  0  0  0
 21 52  1  0  0  0  0
 22 53  1  0  0  0  0
 22 54  1  0  0  0  0
 22 55  1  0  0  0  0
 23 28  1  0  0  0  0
 23 56  1  0  0  0  0
 23 57  1  0  0  0  0
 24 28  1  0  0  0  0
 24 58  1  0  0  0  0
 25 59  1  0  0  0  0
 25 60  1  0  0  0  0
 25 61  1  0  0  0  0
 26 62  1  0  0  0  0
 26 63  1  0  0  0  0
 26 64  1  0  0  0  0
 27 29  2  0  0  0  0
 27 30  1  0  0  0  0
 29 31  1  0  0  0  0
 29 65  1  0  0  0  0
 30 32  2  0  0  0  0
 30 66  1  0  0  0  0
 31 33  2  0  0  0  0
 31 67  1  0  0  0  0
 32 33  1  0  0  0  0
 32 68  1  0  0  0  0
 33 69  1  0  0  0  0
M  END
> <PUBCHEM_COMPOUND_CID>
102011

> <PUBCHEM_CONFORMER_RMSD>
0.8

> <PUBCHEM_CONFORMER_DIVERSEORDER>
1
4
3
2

> <PUBCHEM_MMFF94_PARTIAL_CHARGES>
27
1 -0.56
11 0.28
14 0.14
17 -0.28
18 0.14
19 0.45
2 -0.56
20 0.7
23 0.06
24 -0.14
25 0.06
27 -0.14
28 0.49
29 -0.15
3 -0.57
30 -0.15
31 -0.15
32 -0.15
33 -0.15
4 -0.57
58 0.15
65 0.15
66 0.15
67 0.15
68 0.15
69 0.15
8 0.34

> <PUBCHEM_EFFECTIVE_ROTOR_COUNT>
4

> <PUBCHEM_PHARMACOPHORE_FEATURES>
10
1 1 acceptor
1 2 acceptor
1 3 acceptor
1 4 acceptor
5 1 2 8 11 20 rings
5 5 6 8 10 11 rings
6 14 17 21 23 24 28 rings
6 27 29 30 31 32 33 rings
6 5 6 7 9 12 13 rings
6 7 9 14 15 17 18 rings

> <PUBCHEM_HEAVY_ATOM_COUNT>
33

> <PUBCHEM_ATOM_DEF_STEREO_COUNT>
7

> <PUBCHEM_ATOM_UDEF_STEREO_COUNT>
1

> <PUBCHEM_BOND_DEF_STEREO_COUNT>
0

> <PUBCHEM_BOND_UDEF_STEREO_COUNT>
0

> <PUBCHEM_ISOTOPIC_ATOM_COUNT>
0

> <PUBCHEM_COMPONENT_COUNT>
1

> <PUBCHEM_CACTVS_TAUTO_COUNT>
10

> <PUBCHEM_CONFORMER_ID>
00018E7B00000001

> <PUBCHEM_MMFF94_ENERGY>
111.4729

> <PUBCHEM_FEATURE_SELFOVERLAP>
51.547

> <PUBCHEM_SHAPE_FINGERPRINT>
10006869 2 18124599932484970339
10165383 225 17899401263154727417
10369192 42 16736944493417940648
10498660 4 18411145726908202124
10670039 82 18340476876887649212
10871710 139 18411980256608438413
11059048 146 17902500825088724344
11488393 25 16971673612693088779
11513181 2 18336820983439852310
11578080 2 17897701348962661148
11595378 159 18060421330637853896
12156800 1 11335823483758370609
12596602 18 17275099518353914136
12788726 201 18270411498586305794
13224815 77 17603307033659558858
133893 2 17768528288539531153
14251764 38 18267582601539862772
14466204 15 17765159758326929738
14790565 3 18194117658494323425
14840074 17 18058434564819927869
14910302 57 18040442109081173742
14955137 171 18410290273588744345
15021287 119 17344350201620747266
151778 21 17544187641795506465
15876981 60 18198900323156567324
15961568 22 18339079268649164948
15975801 100 17414979538739399724
1813 80 18118696417942407887
19315092 285 16485036594830295794
20764821 26 18192435396797049432
21033650 10 18267844191187076206
22393880 68 18260259777032232006
22907989 373 18336558182548349309
23559900 14 17896318189828325054
469060 322 18265884783772359939
508706 21 18189058745042773172
5252454 2 18116990185805626441
5895379 119 18340492274545923624
6036956 94 18200581502090553828
6287921 2 17906725161161991845
6371009 1 17980218678741073645
6608658 132 18338797789313781076
6700243 42 17754139065365669278
7808743 9 18410289259106387944

> <PUBCHEM_SHAPE_MULTIPOLES>
655.65
9.9
4.72
1.91
10.04
4.12
0.23
1.59
-2.35
-4.62
-0.82
0.68
-0.13
-0.93

> <PUBCHEM_SHAPE_SELFOVERLAP>
1444.05

> <PUBCHEM_SHAPE_VOLUME>
350.5

> <PUBCHEM_COORDINATE_TYPE>
2
5
10

$$$$

