12869
  -OEChem-06261207283D

 24 24  0     0  0  0  0  0  0999 V2000
    2.9154   -2.4418    0.2507 Cl  0  0  0  0  0  0  0  0  0  0  0  0
   -0.0598    2.5253    0.7642 O   0  0  0  0  0  0  0  0  0  0  0  0
   -2.4288    1.3941   -0.4206 O   0  5  0  0  0  0  0  0  0  0  0  0
   -3.3250   -0.5833   -0.0956 O   0  0  0  0  0  0  0  0  0  0  0  0
    0.3446   -2.3728    0.2245 N   0  0  0  0  0  0  0  0  0  0  0  0
   -2.3243    0.1622   -0.2141 N   0  3  0  0  0  0  0  0  0  0  0  0
    3.5212    1.2191   -0.3576 N   0  0  0  0  0  0  0  0  0  0  0  0
    0.1158    0.3748   -0.2360 C   0  0  0  0  0  0  0  0  0  0  0  0
   -1.0256   -0.4095   -0.1114 C   0  0  0  0  0  0  0  0  0  0  0  0
   -0.0124    1.8477   -0.4826 C   0  0  0  0  0  0  0  0  0  0  0  0
   -0.8587   -1.7660    0.1163 C   0  0  0  0  0  0  0  0  0  0  0  0
    1.3715   -0.2131   -0.1308 C   0  0  0  0  0  0  0  0  0  0  0  0
    1.4312   -1.5785    0.0978 C   0  0  0  0  0  0  0  0  0  0  0  0
   -2.0425   -2.6673    0.2600 C   0  0  0  0  0  0  0  0  0  0  0  0
    2.5591    0.5779   -0.2562 C   0  0  0  0  0  0  0  0  0  0  0  0
   -0.1817    3.9313    0.5912 C   0  0  0  0  0  0  0  0  0  0  0  0
    0.9009    2.1946   -0.9850 H   0  0  0  0  0  0  0  0  0  0  0  0
   -0.7431    2.1779   -1.2262 H   0  0  0  0  0  0  0  0  0  0  0  0
   -2.6356   -2.7237   -0.6584 H   0  0  0  0  0  0  0  0  0  0  0  0
   -1.6923   -3.6938    0.4336 H   0  0  0  0  0  0  0  0  0  0  0  0
   -2.6461   -2.4232    1.1401 H   0  0  0  0  0  0  0  0  0  0  0  0
    0.6788    4.3271    0.0433 H   0  0  0  0  0  0  0  0  0  0  0  0
   -0.2104    4.3977    1.5796 H   0  0  0  0  0  0  0  0  0  0  0  0
   -1.1094    4.1737    0.0640 H   0  0  0  0  0  0  0  0  0  0  0  0
  1 13  1  0  0  0  0
  2 10  1  0  0  0  0
  2 16  1  0  0  0  0
  3  6  1  0  0  0  0
  4  6  2  0  0  0  0
  5 11  1  0  0  0  0
  5 13  2  0  0  0  0
  6  9  1  0  0  0  0
  7 15  3  0  0  0  0
  8  9  1  0  0  0  0
  8 10  1  0  0  0  0
  8 12  2  0  0  0  0
  9 11  2  0  0  0  0
 10 17  1  0  0  0  0
 10 18  1  0  0  0  0
 11 14  1  0  0  0  0
 12 13  1  0  0  0  0
 12 15  1  0  0  0  0
 14 19  1  0  0  0  0
 14 20  1  0  0  0  0
 14 21  1  0  0  0  0
 16 22  1  0  0  0  0
 16 23  1  0  0  0  0
 16 24  1  0  0  0  0
M  CHG  2   3  -1   6   1
M  END
> <PUBCHEM_COMPOUND_CID>
12869

> <PUBCHEM_CONFORMER_RMSD>
0.6

> <PUBCHEM_CONFORMER_DIVERSEORDER>
2
1

> <PUBCHEM_MMFF94_PARTIAL_CHARGES>
16
1 -0.18
10 0.42
11 0.17
12 0.07
13 0.49
14 0.14
15 0.48
16 0.28
2 -0.56
3 -0.52
4 -0.52
5 -0.62
6 0.91
7 -0.56
8 -0.14
9 0.13

> <PUBCHEM_EFFECTIVE_ROTOR_COUNT>
3

> <PUBCHEM_PHARMACOPHORE_FEATURES>
7
1 2 acceptor
1 3 acceptor
1 3 anion
1 4 acceptor
1 5 acceptor
1 7 acceptor
6 5 8 9 11 12 13 rings

> <PUBCHEM_HEAVY_ATOM_COUNT>
16

> <PUBCHEM_ATOM_DEF_STEREO_COUNT>
0

> <PUBCHEM_ATOM_UDEF_STEREO_COUNT>
0

> <PUBCHEM_BOND_DEF_STEREO_COUNT>
0

> <PUBCHEM_BOND_UDEF_STEREO_COUNT>
0

> <PUBCHEM_ISOTOPIC_ATOM_COUNT>
0

> <PUBCHEM_COMPONENT_COUNT>
1

> <PUBCHEM_CACTVS_TAUTO_COUNT>
1

> <PUBCHEM_CONFORMER_ID>
0000324500000002

> <PUBCHEM_MMFF94_ENERGY>
64.8166

> <PUBCHEM_FEATURE_SELFOVERLAP>
35.605

> <PUBCHEM_SHAPE_FINGERPRINT>
108231 29 18193548965952596016
10967382 1 18411419483828707894
12382932 28 18411421678810359810
12423570 1 6949992048327343079
13140716 1 18412824715666681250
14617773 55 17970349432332018913
14790565 3 16246298948709128662
16945 1 18194408788071595175
193761 8 18122624122209789380
20510252 161 18046636865019097986
20588541 1 18341331089414946839
21501502 16 18123463041234480044
2334 1 18340206297694588662
23419403 2 15609710006247884759
23559900 14 18263917745323877324
2748010 2 18411416198342802534
350125 39 18051125097359276812
5255222 1 18270125595682656309
53812653 166 18265052435894072746
7364860 26 17470158163920931948

> <PUBCHEM_SHAPE_MULTIPOLES>
298.59
4.15
4.02
0.7
1.63
0.8
0.03
0.59
0.1
-1.58
0.56
-0.06
0.17
-0.66

> <PUBCHEM_SHAPE_SELFOVERLAP>
619.317

> <PUBCHEM_SHAPE_VOLUME>
172.3

> <PUBCHEM_COORDINATE_TYPE>
2
5
10

$$$$

