161741
  -OEChem-07051212572D

 59 62  0     1  0  0  0  0  0999 V2000
    4.6660    3.5223    0.0000 O   0  0  0  0  0  0  0  0  0  0  0  0
    2.9340    0.5223    0.0000 O   0  0  0  0  0  0  0  0  0  0  0  0
    4.6660   -3.4777    0.0000 O   0  0  0  0  0  0  0  0  0  0  0  0
    2.9176   -3.5123    0.0000 O   0  0  0  0  0  0  0  0  0  0  0  0
    7.3321    2.0431    0.0000 N   0  0  0  0  0  0  0  0  0  0  0  0
    7.3321    1.0015    0.0000 C   0  0  2  0  0  0  0  0  0  0  0  0
    6.4260    2.5570    0.0000 C   0  0  2  0  0  0  0  0  0  0  0  0
    6.4260    0.4876    0.0000 C   0  0  0  0  0  0  0  0  0  0  0  0
    5.5321    1.0223    0.0000 C   0  0  0  0  0  0  0  0  0  0  0  0
    5.5321    2.0223    0.0000 C   0  0  0  0  0  0  0  0  0  0  0  0
    4.6660    0.5223    0.0000 C   0  0  0  0  0  0  0  0  0  0  0  0
    4.6660    2.5223    0.0000 C   0  0  0  0  0  0  0  0  0  0  0  0
    8.1962    0.4981    0.0000 C   0  0  0  0  0  0  0  0  0  0  0  0
    6.4144    3.5569    0.0000 C   0  0  0  0  0  0  0  0  0  0  0  0
    4.6660   -0.4777    0.0000 C   0  0  0  0  0  0  0  0  0  0  0  0
    3.8000    1.0223    0.0000 C   0  0  0  0  0  0  0  0  0  0  0  0
    3.8000    2.0223    0.0000 C   0  0  0  0  0  0  0  0  0  0  0  0
    3.8000   -0.9777    0.0000 C   0  0  0  0  0  0  0  0  0  0  0  0
    5.5321   -0.9777    0.0000 C   0  0  0  0  0  0  0  0  0  0  0  0
    3.8000   -1.9777    0.0000 C   0  0  0  0  0  0  0  0  0  0  0  0
    5.5321   -1.9777    0.0000 C   0  0  0  0  0  0  0  0  0  0  0  0
    4.6660   -2.4777    0.0000 C   0  0  0  0  0  0  0  0  0  0  0  0
    2.9061   -0.4431    0.0000 C   0  0  0  0  0  0  0  0  0  0  0  0
    6.3981   -0.4777    0.0000 C   0  0  0  0  0  0  0  0  0  0  0  0
    2.9061   -2.5124    0.0000 C   0  0  0  0  0  0  0  0  0  0  0  0
    2.0000   -0.9569    0.0000 C   0  0  0  0  0  0  0  0  0  0  0  0
    2.0000   -1.9985    0.0000 C   0  0  0  0  0  0  0  0  0  0  0  0
    3.8000    4.0223    0.0000 C   0  0  0  0  0  0  0  0  0  0  0  0
    5.5321   -3.9777    0.0000 C   0  0  0  0  0  0  0  0  0  0  0  0
    2.0574   -4.0223    0.0000 C   0  0  0  0  0  0  0  0  0  0  0  0
    7.8696    1.3104    0.0000 H   0  0  0  0  0  0  0  0  0  0  0  0
    6.9599    2.8721    0.0000 H   0  0  0  0  0  0  0  0  0  0  0  0
    6.0214    0.0178    0.0000 H   0  0  0  0  0  0  0  0  0  0  0  0
    6.8196    0.0086    0.0000 H   0  0  0  0  0  0  0  0  0  0  0  0
    7.8678    2.3552    0.0000 H   0  0  0  0  0  0  0  0  0  0  0  0
    7.8841   -0.0376    0.0000 H   0  0  0  0  0  0  0  0  0  0  0  0
    8.7319    0.1861    0.0000 H   0  0  0  0  0  0  0  0  0  0  0  0
    8.5082    1.0339    0.0000 H   0  0  0  0  0  0  0  0  0  0  0  0
    7.0344    3.5640    0.0000 H   0  0  0  0  0  0  0  0  0  0  0  0
    6.4073    4.1768    0.0000 H   0  0  0  0  0  0  0  0  0  0  0  0
    5.7945    3.5497    0.0000 H   0  0  0  0  0  0  0  0  0  0  0  0
    3.2631    2.3323    0.0000 H   0  0  0  0  0  0  0  0  0  0  0  0
    6.0690   -2.2877    0.0000 H   0  0  0  0  0  0  0  0  0  0  0  0
    2.9132    0.1769    0.0000 H   0  0  0  0  0  0  0  0  0  0  0  0
    6.7081   -1.0146    0.0000 H   0  0  0  0  0  0  0  0  0  0  0  0
    6.9350   -0.1677    0.0000 H   0  0  0  0  0  0  0  0  0  0  0  0
    6.0881    0.0592    0.0000 H   0  0  0  0  0  0  0  0  0  0  0  0
    2.3970    0.8323    0.0000 H   0  0  0  0  0  0  0  0  0  0  0  0
    1.4643   -0.6448    0.0000 H   0  0  0  0  0  0  0  0  0  0  0  0
    1.4643   -2.3106    0.0000 H   0  0  0  0  0  0  0  0  0  0  0  0
    4.1100    4.5592    0.0000 H   0  0  0  0  0  0  0  0  0  0  0  0
    3.2631    4.3323    0.0000 H   0  0  0  0  0  0  0  0  0  0  0  0
    3.4900    3.4854    0.0000 H   0  0  0  0  0  0  0  0  0  0  0  0
    5.2221   -4.5146    0.0000 H   0  0  0  0  0  0  0  0  0  0  0  0
    6.0690   -4.2877    0.0000 H   0  0  0  0  0  0  0  0  0  0  0  0
    5.8421   -3.4408    0.0000 H   0  0  0  0  0  0  0  0  0  0  0  0
    1.7413   -3.4890    0.0000 H   0  0  0  0  0  0  0  0  0  0  0  0
    1.5241   -4.3385    0.0000 H   0  0  0  0  0  0  0  0  0  0  0  0
    2.3736   -4.5556    0.0000 H   0  0  0  0  0  0  0  0  0  0  0  0
  1 12  1  0  0  0  0
  1 28  1  0  0  0  0
  2 16  1  0  0  0  0
  2 48  1  0  0  0  0
  3 22  1  0  0  0  0
  3 29  1  0  0  0  0
  4 25  1  0  0  0  0
  4 30  1  0  0  0  0
  5  6  1  0  0  0  0
  5  7  1  0  0  0  0
  5 35  1  0  0  0  0
  6  8  1  0  0  0  0
  6 13  1  1  0  0  0
  6 31  1  0  0  0  0
  7 10  1  0  0  0  0
  7 14  1  6  0  0  0
  7 32  1  0  0  0  0
  8  9  1  0  0  0  0
  8 33  1  0  0  0  0
  8 34  1  0  0  0  0
  9 10  1  0  0  0  0
  9 11  2  0  0  0  0
 10 12  2  0  0  0  0
 11 15  1  0  0  0  0
 11 16  1  0  0  0  0
 12 17  1  0  0  0  0
 13 36  1  0  0  0  0
 13 37  1  0  0  0  0
 13 38  1  0  0  0  0
 14 39  1  0  0  0  0
 14 40  1  0  0  0  0
 14 41  1  0  0  0  0
 15 18  2  0  0  0  0
 15 19  1  0  0  0  0
 16 17  2  0  0  0  0
 17 42  1  0  0  0  0
 18 20  1  0  0  0  0
 18 23  1  0  0  0  0
 19 21  2  0  0  0  0
 19 24  1  0  0  0  0
 20 22  2  0  0  0  0
 20 25  1  0  0  0  0
 21 22  1  0  0  0  0
 21 43  1  0  0  0  0
 23 26  2  0  0  0  0
 23 44  1  0  0  0  0
 24 45  1  0  0  0  0
 24 46  1  0  0  0  0
 24 47  1  0  0  0  0
 25 27  2  0  0  0  0
 26 27  1  0  0  0  0
 26 49  1  0  0  0  0
 27 50  1  0  0  0  0
 28 51  1  0  0  0  0
 28 52  1  0  0  0  0
 28 53  1  0  0  0  0
 29 54  1  0  0  0  0
 29 55  1  0  0  0  0
 29 56  1  0  0  0  0
 30 57  1  0  0  0  0
 30 58  1  0  0  0  0
 30 59  1  0  0  0  0
M  END
> <PUBCHEM_COMPOUND_CID>
161741

> <PUBCHEM_COMPOUND_CANONICALIZED>
1

> <PUBCHEM_CACTVS_COMPLEXITY>
573

> <PUBCHEM_CACTVS_HBOND_ACCEPTOR>
5

> <PUBCHEM_CACTVS_HBOND_DONOR>
2

> <PUBCHEM_CACTVS_ROTATABLE_BOND>
4

> <PUBCHEM_CACTVS_SUBSKEYS>
AAADceB6OAAAAAAAAAAAAAAAAAAAAAAAAAA8YMEAAAAAAADxVAAAHgAQCAAADCzBmAYyBsLABgCAAiBCAACCCAAgIAAIiIAODIgMJyKGsRuEcChn0BWIuAeQ8P8O4AADCAAYAADAAAYQADAAAAAAAAAAAA==

> <PUBCHEM_IUPAC_OPENEYE_NAME>
(1S,3S)-5-(4,5-dimethoxy-2-methyl-1-naphthyl)-8-methoxy-1,3-dimethyl-1,2,3,4-tetrahydroisoquinolin-6-ol

> <PUBCHEM_IUPAC_CAS_NAME>
(1S,3S)-5-(4,5-dimethoxy-2-methyl-1-naphthalenyl)-8-methoxy-1,3-dimethyl-1,2,3,4-tetrahydroisoquinolin-6-ol

> <PUBCHEM_IUPAC_NAME>
(1S,3S)-5-(4,5-dimethoxy-2-methylnaphthalen-1-yl)-8-methoxy-1,3-dimethyl-1,2,3,4-tetrahydroisoquinolin-6-ol

> <PUBCHEM_IUPAC_SYSTEMATIC_NAME>
(1S,3S)-5-(4,5-dimethoxy-2-methyl-naphthalen-1-yl)-8-methoxy-1,3-dimethyl-1,2,3,4-tetrahydroisoquinolin-6-ol

> <PUBCHEM_IUPAC_TRADITIONAL_NAME>
(1S,3S)-5-(4,5-dimethoxy-2-methyl-1-naphthyl)-8-methoxy-1,3-dimethyl-1,2,3,4-tetrahydroisoquinolin-6-ol

> <PUBCHEM_IUPAC_INCHI>
InChI=1S/C25H29NO4/c1-13-10-20(29-5)25-16(8-7-9-19(25)28-4)22(13)24-17-11-14(2)26-15(3)23(17)21(30-6)12-18(24)27/h7-10,12,14-15,26-27H,11H2,1-6H3/t14-,15-/m0/s1

> <PUBCHEM_IUPAC_INCHIKEY>
XUFOYASAFNKRRE-GJZGRUSLSA-N

> <PUBCHEM_XLOGP3_AA>
5

> <PUBCHEM_EXACT_MASS>
407.209658

> <PUBCHEM_MOLECULAR_FORMULA>
C25H29NO4

> <PUBCHEM_MOLECULAR_WEIGHT>
407.50206

> <PUBCHEM_OPENEYE_CAN_SMILES>
CC1CC2=C(C(=CC(=C2C(N1)C)OC)O)C3=C4C=CC=C(C4=C(C=C3C)OC)OC

> <PUBCHEM_OPENEYE_ISO_SMILES>
C[C@H]1CC2=C(C(=CC(=C2[C@@H](N1)C)OC)O)C3=C4C=CC=C(C4=C(C=C3C)OC)OC

> <PUBCHEM_CACTVS_TPSA>
60

> <PUBCHEM_MONOISOTOPIC_WEIGHT>
407.209658

> <PUBCHEM_TOTAL_CHARGE>
0

> <PUBCHEM_HEAVY_ATOM_COUNT>
30

> <PUBCHEM_ATOM_DEF_STEREO_COUNT>
2

> <PUBCHEM_ATOM_UDEF_STEREO_COUNT>
0

> <PUBCHEM_BOND_DEF_STEREO_COUNT>
0

> <PUBCHEM_BOND_UDEF_STEREO_COUNT>
0

> <PUBCHEM_ISOTOPIC_ATOM_COUNT>
0

> <PUBCHEM_COMPONENT_COUNT>
1

> <PUBCHEM_CACTVS_TAUTO_COUNT>
9

> <PUBCHEM_COORDINATE_TYPE>
1
5
255

> <PUBCHEM_BONDANNOTATIONS>
10  12  8
11  16  8
12  17  8
15  18  8
15  19  8
16  17  8
18  20  8
18  23  8
19  21  8
20  22  8
20  25  8
21  22  8
23  26  8
25  27  8
26  27  8
6  13  5
7  14  6
9  10  8
9  11  8

$$$$

