11101102
  -OEChem-07051212592D

 54 57  0     1  0  0  0  0  0999 V2000
    2.8398    2.3562    0.0000 O   0  0  0  0  0  0  0  0  0  0  0  0
    8.8328    2.9974    0.0000 O   0  0  0  0  0  0  0  0  0  0  0  0
    8.8328    1.3879    0.0000 O   0  0  0  0  0  0  0  0  0  0  0  0
    2.7431   -1.5454    0.0000 O   0  0  0  0  0  0  0  0  0  0  0  0
    6.1316   -2.2656    0.0000 O   0  0  0  0  0  0  0  0  0  0  0  0
    4.2294   -2.8836    0.0000 O   0  0  0  0  0  0  0  0  0  0  0  0
    4.4225    2.6926    0.0000 C   0  0  1  0  0  0  0  0  0  0  0  0
    4.3179    1.6981    0.0000 C   0  0  1  0  0  0  0  0  0  0  0  0
    3.5089    3.0994    0.0000 C   0  0  0  0  0  0  0  0  0  0  0  0
    3.3398    1.4902    0.0000 C   0  0  0  0  0  0  0  0  0  0  0  0
    5.2885    3.1926    0.0000 C   0  0  0  0  0  0  0  0  0  0  0  0
    5.0611    1.0290    0.0000 C   0  0  0  0  0  0  0  0  0  0  0  0
    6.1545    2.6926    0.0000 C   0  0  0  0  0  0  0  0  0  0  0  0
    4.8532    0.0508    0.0000 C   0  0  0  0  0  0  0  0  0  0  0  0
    7.0205    3.1926    0.0000 C   0  0  0  0  0  0  0  0  0  0  0  0
    6.1545    1.6926    0.0000 C   0  0  0  0  0  0  0  0  0  0  0  0
    5.5963   -0.6183    0.0000 C   0  0  0  0  0  0  0  0  0  0  0  0
    3.9021   -0.2582    0.0000 C   0  0  0  0  0  0  0  0  0  0  0  0
    7.8866    2.6926    0.0000 C   0  0  0  0  0  0  0  0  0  0  0  0
    7.0205    1.1926    0.0000 C   0  0  0  0  0  0  0  0  0  0  0  0
    3.6942   -1.2363    0.0000 C   0  0  0  0  0  0  0  0  0  0  0  0
    5.3884   -1.5964    0.0000 C   0  0  0  0  0  0  0  0  0  0  0  0
    7.8866    1.6926    0.0000 C   0  0  0  0  0  0  0  0  0  0  0  0
    4.4374   -1.9055    0.0000 C   0  0  0  0  0  0  0  0  0  0  0  0
    9.4164    2.1926    0.0000 C   0  0  0  0  0  0  0  0  0  0  0  0
    2.0000   -0.8762    0.0000 C   0  0  0  0  0  0  0  0  0  0  0  0
    7.0826   -1.9566    0.0000 C   0  0  0  0  0  0  0  0  0  0  0  0
    3.2784   -3.1926    0.0000 C   0  0  0  0  0  0  0  0  0  0  0  0
    4.3900    3.3118    0.0000 H   0  0  0  0  0  0  0  0  0  0  0  0
    4.1575    1.0992    0.0000 H   0  0  0  0  0  0  0  0  0  0  0  0
    3.8189    3.6363    0.0000 H   0  0  0  0  0  0  0  0  0  0  0  0
    3.0073    3.4638    0.0000 H   0  0  0  0  0  0  0  0  0  0  0  0
    2.7734    1.2380    0.0000 H   0  0  0  0  0  0  0  0  0  0  0  0
    3.5314    0.9005    0.0000 H   0  0  0  0  0  0  0  0  0  0  0  0
    5.6870    3.6676    0.0000 H   0  0  0  0  0  0  0  0  0  0  0  0
    4.8900    3.6676    0.0000 H   0  0  0  0  0  0  0  0  0  0  0  0
    5.6359    0.7967    0.0000 H   0  0  0  0  0  0  0  0  0  0  0  0
    5.3896    1.5548    0.0000 H   0  0  0  0  0  0  0  0  0  0  0  0
    7.0205    3.8126    0.0000 H   0  0  0  0  0  0  0  0  0  0  0  0
    5.6176    1.3826    0.0000 H   0  0  0  0  0  0  0  0  0  0  0  0
    6.1860   -0.4267    0.0000 H   0  0  0  0  0  0  0  0  0  0  0  0
    3.4414    0.1567    0.0000 H   0  0  0  0  0  0  0  0  0  0  0  0
    7.0205    0.5726    0.0000 H   0  0  0  0  0  0  0  0  0  0  0  0
    9.8773    1.7779    0.0000 H   0  0  0  0  0  0  0  0  0  0  0  0
    9.8773    2.6074    0.0000 H   0  0  0  0  0  0  0  0  0  0  0  0
    2.4149   -0.4155    0.0000 H   0  0  0  0  0  0  0  0  0  0  0  0
    1.5392   -0.4614    0.0000 H   0  0  0  0  0  0  0  0  0  0  0  0
    1.5851   -1.3370    0.0000 H   0  0  0  0  0  0  0  0  0  0  0  0
    7.2742   -2.5462    0.0000 H   0  0  0  0  0  0  0  0  0  0  0  0
    7.6723   -1.7650    0.0000 H   0  0  0  0  0  0  0  0  0  0  0  0
    6.8910   -1.3669    0.0000 H   0  0  0  0  0  0  0  0  0  0  0  0
    3.0868   -2.6030    0.0000 H   0  0  0  0  0  0  0  0  0  0  0  0
    2.6887   -3.3842    0.0000 H   0  0  0  0  0  0  0  0  0  0  0  0
    3.4700   -3.7823    0.0000 H   0  0  0  0  0  0  0  0  0  0  0  0
  1  9  1  0  0  0  0
  1 10  1  0  0  0  0
  2 19  1  0  0  0  0
  2 25  1  0  0  0  0
  3 23  1  0  0  0  0
  3 25  1  0  0  0  0
  4 21  1  0  0  0  0
  4 26  1  0  0  0  0
  5 22  1  0  0  0  0
  5 27  1  0  0  0  0
  6 24  1  0  0  0  0
  6 28  1  0  0  0  0
  7  8  1  0  0  0  0
  7  9  1  0  0  0  0
  7 11  1  1  0  0  0
  7 29  1  0  0  0  0
  8 10  1  0  0  0  0
  8 12  1  6  0  0  0
  8 30  1  0  0  0  0
  9 31  1  0  0  0  0
  9 32  1  0  0  0  0
 10 33  1  0  0  0  0
 10 34  1  0  0  0  0
 11 13  1  0  0  0  0
 11 35  1  0  0  0  0
 11 36  1  0  0  0  0
 12 14  1  0  0  0  0
 12 37  1  0  0  0  0
 12 38  1  0  0  0  0
 13 15  2  0  0  0  0
 13 16  1  0  0  0  0
 14 17  2  0  0  0  0
 14 18  1  0  0  0  0
 15 19  1  0  0  0  0
 15 39  1  0  0  0  0
 16 20  2  0  0  0  0
 16 40  1  0  0  0  0
 17 22  1  0  0  0  0
 17 41  1  0  0  0  0
 18 21  2  0  0  0  0
 18 42  1  0  0  0  0
 19 23  2  0  0  0  0
 20 23  1  0  0  0  0
 20 43  1  0  0  0  0
 21 24  1  0  0  0  0
 22 24  2  0  0  0  0
 25 44  1  0  0  0  0
 25 45  1  0  0  0  0
 26 46  1  0  0  0  0
 26 47  1  0  0  0  0
 26 48  1  0  0  0  0
 27 49  1  0  0  0  0
 27 50  1  0  0  0  0
 27 51  1  0  0  0  0
 28 52  1  0  0  0  0
 28 53  1  0  0  0  0
 28 54  1  0  0  0  0
M  END
> <PUBCHEM_COMPOUND_CID>
11101102

> <PUBCHEM_COMPOUND_CANONICALIZED>
1

> <PUBCHEM_CACTVS_COMPLEXITY>
474

> <PUBCHEM_CACTVS_HBOND_ACCEPTOR>
6

> <PUBCHEM_CACTVS_HBOND_DONOR>
0

> <PUBCHEM_CACTVS_ROTATABLE_BOND>
7

> <PUBCHEM_CACTVS_SUBSKEYS>
AAADceB4OAAAAAAAAAAAAAAAAAAAASJAAAAwYAAAAAAAAEgBQAAAGgAAAAAADQSgmAMyDoAABACAAiBCAAACCAAgIAAIiAAGiIgdJyKEMRqiMCIlwBUOqAeA4PwOoAABCAAAQABAAAIQAACAAAAAAAAAAA==

> <PUBCHEM_IUPAC_OPENEYE_NAME>
5-[[(3S,4S)-4-[(3,4,5-trimethoxyphenyl)methyl]tetrahydrofuran-3-yl]methyl]-1,3-benzodioxole

> <PUBCHEM_IUPAC_CAS_NAME>
5-[[(3S,4S)-4-[(3,4,5-trimethoxyphenyl)methyl]-3-oxolanyl]methyl]-1,3-benzodioxole

> <PUBCHEM_IUPAC_NAME>
5-[[(3S,4S)-4-[(3,4,5-trimethoxyphenyl)methyl]oxolan-3-yl]methyl]-1,3-benzodioxole

> <PUBCHEM_IUPAC_SYSTEMATIC_NAME>
5-[[(3S,4S)-4-[(3,4,5-trimethoxyphenyl)methyl]oxolan-3-yl]methyl]-1,3-benzodioxole

> <PUBCHEM_IUPAC_TRADITIONAL_NAME>
5-[[(3S,4S)-4-(3,4,5-trimethoxybenzyl)tetrahydrofuran-3-yl]methyl]-1,3-benzodioxole

> <PUBCHEM_IUPAC_INCHI>
InChI=1S/C22H26O6/c1-23-20-9-15(10-21(24-2)22(20)25-3)7-17-12-26-11-16(17)6-14-4-5-18-19(8-14)28-13-27-18/h4-5,8-10,16-17H,6-7,11-13H2,1-3H3/t16-,17-/m1/s1

> <PUBCHEM_IUPAC_INCHIKEY>
VJMJISPSGHVBBU-IAGOWNOFSA-N

> <PUBCHEM_XLOGP3_AA>
4

> <PUBCHEM_EXACT_MASS>
386.172939

> <PUBCHEM_MOLECULAR_FORMULA>
C22H26O6

> <PUBCHEM_MOLECULAR_WEIGHT>
386.43824

> <PUBCHEM_OPENEYE_CAN_SMILES>
COC1=CC(=CC(=C1OC)OC)CC2COCC2CC3=CC4=C(C=C3)OCO4

> <PUBCHEM_OPENEYE_ISO_SMILES>
COC1=CC(=CC(=C1OC)OC)C[C@@H]2COC[C@H]2CC3=CC4=C(C=C3)OCO4

> <PUBCHEM_CACTVS_TPSA>
55.4

> <PUBCHEM_MONOISOTOPIC_WEIGHT>
386.172939

> <PUBCHEM_TOTAL_CHARGE>
0

> <PUBCHEM_HEAVY_ATOM_COUNT>
28

> <PUBCHEM_ATOM_DEF_STEREO_COUNT>
2

> <PUBCHEM_ATOM_UDEF_STEREO_COUNT>
0

> <PUBCHEM_BOND_DEF_STEREO_COUNT>
0

> <PUBCHEM_BOND_UDEF_STEREO_COUNT>
0

> <PUBCHEM_ISOTOPIC_ATOM_COUNT>
0

> <PUBCHEM_COMPONENT_COUNT>
1

> <PUBCHEM_CACTVS_TAUTO_COUNT>
1

> <PUBCHEM_COORDINATE_TYPE>
1
5
255

> <PUBCHEM_BONDANNOTATIONS>
13  15  8
13  16  8
14  17  8
14  18  8
15  19  8
16  20  8
17  22  8
18  21  8
19  23  8
20  23  8
21  24  8
22  24  8
7  11  5
8  12  6

$$$$

