586099
  -OEChem-06241222453D

 48 52  0     1  0  0  0  0  0999 V2000
   -1.7882   -1.8083    0.0413 N   0  0  1  0  0  0  0  0  0  0  0  0
    1.8902   -0.3595   -1.9669 N   0  0  0  0  0  0  0  0  0  0  0  0
    0.3649   -1.0166   -0.2079 C   0  0  2  0  0  0  0  0  0  0  0  0
   -0.9558   -0.6790    0.5001 C   0  0  1  0  0  0  0  0  0  0  0  0
   -1.6208    0.6713    0.1456 C   0  0  1  0  0  0  0  0  0  0  0  0
    0.4584   -0.5458   -1.7049 C   0  0  1  0  0  0  0  0  0  0  0  0
    0.4237   -2.5673   -0.1182 C   0  0  0  0  0  0  0  0  0  0  0  0
   -1.6431    0.8746   -1.3870 C   0  0  0  0  0  0  0  0  0  0  0  0
   -0.2578    0.7802   -2.0141 C   0  0  0  0  0  0  0  0  0  0  0  0
   -0.9881   -3.0066    0.2594 C   0  0  0  0  0  0  0  0  0  0  0  0
   -3.0717    0.6801    0.7079 C   0  0  0  0  0  0  0  0  0  0  0  0
    1.6432   -0.4396    0.3407 C   0  0  0  0  0  0  0  0  0  0  0  0
   -3.0879   -1.8489    0.6983 C   0  0  0  0  0  0  0  0  0  0  0  0
   -0.8733    1.8420    0.8209 C   0  0  0  0  0  0  0  0  0  0  0  0
   -3.8674   -0.5795    0.3607 C   0  0  0  0  0  0  0  0  0  0  0  0
    2.4835   -0.1021   -0.7282 C   0  0  0  0  0  0  0  0  0  0  0  0
    2.0574   -0.2835    1.6538 C   0  0  0  0  0  0  0  0  0  0  0  0
   -1.5400    3.1385    0.5098 C   0  0  0  0  0  0  0  0  0  0  0  0
    3.7690    0.3587   -0.5029 C   0  0  0  0  0  0  0  0  0  0  0  0
    3.3413    0.2122    1.8878 C   0  0  0  0  0  0  0  0  0  0  0  0
    4.1928    0.5259    0.8173 C   0  0  0  0  0  0  0  0  0  0  0  0
   -0.9305    4.1532   -0.1134 C   0  0  0  0  0  0  0  0  0  0  0  0
   -0.8290   -0.7427    1.5913 H   0  0  0  0  0  0  0  0  0  0  0  0
    0.0565   -1.3120   -2.3795 H   0  0  0  0  0  0  0  0  0  0  0  0
    1.1259   -2.9195    0.6476 H   0  0  0  0  0  0  0  0  0  0  0  0
    0.7302   -3.0215   -1.0678 H   0  0  0  0  0  0  0  0  0  0  0  0
   -2.1043    1.8287   -1.6664 H   0  0  0  0  0  0  0  0  0  0  0  0
   -2.2717    0.1105   -1.8611 H   0  0  0  0  0  0  0  0  0  0  0  0
   -0.3493    0.8845   -3.1033 H   0  0  0  0  0  0  0  0  0  0  0  0
    0.3490    1.6378   -1.7000 H   0  0  0  0  0  0  0  0  0  0  0  0
   -1.3283   -3.8412   -0.3616 H   0  0  0  0  0  0  0  0  0  0  0  0
   -1.0065   -3.3251    1.3093 H   0  0  0  0  0  0  0  0  0  0  0  0
   -3.6466    1.5341    0.3326 H   0  0  0  0  0  0  0  0  0  0  0  0
   -3.0438    0.7676    1.8026 H   0  0  0  0  0  0  0  0  0  0  0  0
   -2.9827   -1.9446    1.7865 H   0  0  0  0  0  0  0  0  0  0  0  0
   -3.6601   -2.7155    0.3470 H   0  0  0  0  0  0  0  0  0  0  0  0
    0.1782    1.8765    0.5221 H   0  0  0  0  0  0  0  0  0  0  0  0
   -0.8681    1.7088    1.9106 H   0  0  0  0  0  0  0  0  0  0  0  0
   -4.8158   -0.5752    0.9107 H   0  0  0  0  0  0  0  0  0  0  0  0
   -4.1271   -0.5756   -0.7048 H   0  0  0  0  0  0  0  0  0  0  0  0
    2.2456    0.0496   -2.8201 H   0  0  0  0  0  0  0  0  0  0  0  0
    1.4149   -0.5516    2.4852 H   0  0  0  0  0  0  0  0  0  0  0  0
   -2.5468    3.3154    0.8765 H   0  0  0  0  0  0  0  0  0  0  0  0
    4.4342    0.5964   -1.3265 H   0  0  0  0  0  0  0  0  0  0  0  0
    3.6913    0.3432    2.9082 H   0  0  0  0  0  0  0  0  0  0  0  0
    5.1937    0.8980    1.0192 H   0  0  0  0  0  0  0  0  0  0  0  0
   -1.4518    5.0901   -0.2766 H   0  0  0  0  0  0  0  0  0  0  0  0
    0.0895    4.0703   -0.4717 H   0  0  0  0  0  0  0  0  0  0  0  0
  1  4  1  0  0  0  0
  1 10  1  0  0  0  0
  1 13  1  0  0  0  0
  2  6  1  0  0  0  0
  2 16  1  0  0  0  0
  2 41  1  0  0  0  0
  3  4  1  0  0  0  0
  3  6  1  0  0  0  0
  3  7  1  0  0  0  0
  3 12  1  0  0  0  0
  4  5  1  0  0  0  0
  4 23  1  0  0  0  0
  5  8  1  0  0  0  0
  5 11  1  0  0  0  0
  5 14  1  0  0  0  0
  6  9  1  0  0  0  0
  6 24  1  0  0  0  0
  7 10  1  0  0  0  0
  7 25  1  0  0  0  0
  7 26  1  0  0  0  0
  8  9  1  0  0  0  0
  8 27  1  0  0  0  0
  8 28  1  0  0  0  0
  9 29  1  0  0  0  0
  9 30  1  0  0  0  0
 10 31  1  0  0  0  0
 10 32  1  0  0  0  0
 11 15  1  0  0  0  0
 11 33  1  0  0  0  0
 11 34  1  0  0  0  0
 12 16  1  0  0  0  0
 12 17  2  0  0  0  0
 13 15  1  0  0  0  0
 13 35  1  0  0  0  0
 13 36  1  0  0  0  0
 14 18  1  0  0  0  0
 14 37  1  0  0  0  0
 14 38  1  0  0  0  0
 15 39  1  0  0  0  0
 15 40  1  0  0  0  0
 16 19  2  0  0  0  0
 17 20  1  0  0  0  0
 17 42  1  0  0  0  0
 18 22  2  0  0  0  0
 18 43  1  0  0  0  0
 19 21  1  0  0  0  0
 19 44  1  0  0  0  0
 20 21  2  0  0  0  0
 20 45  1  0  0  0  0
 21 46  1  0  0  0  0
 22 47  1  0  0  0  0
 22 48  1  0  0  0  0
M  END
> <PUBCHEM_COMPOUND_CID>
586099

> <PUBCHEM_CONFORMER_RMSD>
0.6

> <PUBCHEM_CONFORMER_DIVERSEORDER>
1
8
9
23
2
20
3
26
4
10
15
25
21
24
14
11
28
7
16
13
6
17
27
12
18
5
19
22

> <PUBCHEM_MMFF94_PARTIAL_CHARGES>
24
1 -0.81
10 0.27
12 -0.14
13 0.27
14 0.14
16 0.1
17 -0.15
18 -0.29
19 -0.15
2 -0.87
20 -0.15
21 -0.15
22 -0.3
3 0.14
4 0.27
41 0.4
42 0.15
43 0.15
44 0.15
45 0.15
46 0.15
47 0.15
48 0.15
6 0.37

> <PUBCHEM_EFFECTIVE_ROTOR_COUNT>
3.6

> <PUBCHEM_PHARMACOPHORE_FEATURES>
9
1 1 cation
1 2 cation
1 2 donor
1 22 hydrophobe
5 1 3 4 7 10 rings
5 2 3 6 12 16 rings
6 1 4 5 11 13 15 rings
6 12 16 17 19 20 21 rings
6 3 4 5 6 8 9 rings

> <PUBCHEM_HEAVY_ATOM_COUNT>
22

> <PUBCHEM_ATOM_DEF_STEREO_COUNT>
0

> <PUBCHEM_ATOM_UDEF_STEREO_COUNT>
4

> <PUBCHEM_BOND_DEF_STEREO_COUNT>
0

> <PUBCHEM_BOND_UDEF_STEREO_COUNT>
0

> <PUBCHEM_ISOTOPIC_ATOM_COUNT>
0

> <PUBCHEM_COMPONENT_COUNT>
1

> <PUBCHEM_CACTVS_TAUTO_COUNT>
1

> <PUBCHEM_CONFORMER_ID>
0008F17300000001

> <PUBCHEM_MMFF94_ENERGY>
79.3555

> <PUBCHEM_FEATURE_SELFOVERLAP>
46.245

> <PUBCHEM_SHAPE_FINGERPRINT>
10165383 225 17471534060952528884
10498660 4 18410289241873790657
10863032 1 18190736642520024402
10948715 1 15140952929208658267
11582403 64 16886441008720964952
11725454 13 17171562975374848914
12011746 2 18334018255027529107
12156800 1 15292043427752363144
12173636 292 18337960098575928888
12236239 1 17703508796578818498
12403814 3 17632587032575294477
12633257 1 18335701607050073448
13083527 12 17252880351188939215
13140716 1 18339354146307805937
13294875 104 17255397648711075772
13583140 156 17825420499121374650
13764800 53 18408609175173862576
13965767 371 17484235623598042484
14178342 30 18127121098892354197
14223421 5 18191300692122282027
14787075 74 17122809238177089448
14817 1 4632478397599738590
14955137 171 18052790625599884507
15375462 478 17132120142837784758
16945 1 18411696608241028479
17876694 64 17989196058191405333
18981168 100 18050566545104109644
19049666 15 18042958960117349790
200 152 15984833605400911154
20510252 161 18409727378383370145
20600515 1 18190163616779301993
20715895 44 17558285473256200589
22112679 90 17916578718182179926
23402539 116 18260554385354152599
23419403 2 17477239057537513591
23557571 272 18261941999061210037
23559900 14 18262504975280593518
238 59 16156263028832967128
350125 39 18051120694780207395
3797600 57 16910255141872087369
394222 165 17056922279472524005
427121 178 18118382146288937627
4340502 62 17982743158240879213
5845 1 14279996768854400045
77492 1 17703786964441286594
81228 2 18190716761459413345
84936 182 17471299920683774081
90316 7 18339088094220980185

> <PUBCHEM_SHAPE_MULTIPOLES>
442.79
5.58
3.27
1.64
2.96
2.23
-0.48
0.03
1.92
-2.7
0.36
0.91
0.16
0.31

> <PUBCHEM_SHAPE_SELFOVERLAP>
979.546

> <PUBCHEM_SHAPE_VOLUME>
237.3

> <PUBCHEM_COORDINATE_TYPE>
2
5
10

$$$$

