13675
  -OEChem-06241222393D

 29 29  0     1  0  0  0  0  0999 V2000
    0.0650    0.8897    1.5908 S   0  0  0  0  0  0  0  0  0  0  0  0
    1.3997    0.7605   -0.0278 P   0  0  1  0  0  0  0  0  0  0  0  0
    1.5946   -0.7713   -0.5263 O   0  0  0  0  0  0  0  0  0  0  0  0
    0.9704    1.6631   -1.1546 O   0  0  0  0  0  0  0  0  0  0  0  0
    3.0320    1.2215    0.5582 C   0  0  0  0  0  0  0  0  0  0  0  0
    4.0837    1.1246   -0.5267 C   0  0  0  0  0  0  0  0  0  0  0  0
    2.0195   -1.7819    0.3702 C   0  0  0  0  0  0  0  0  0  0  0  0
   -1.3991    0.3898    0.7072 C   0  0  0  0  0  0  0  0  0  0  0  0
    2.1098   -3.0963   -0.3754 C   0  0  0  0  0  0  0  0  0  0  0  0
   -1.7469   -0.9596    0.6393 C   0  0  0  0  0  0  0  0  0  0  0  0
   -2.1985    1.3476    0.0827 C   0  0  0  0  0  0  0  0  0  0  0  0
   -2.8932   -1.3509   -0.0524 C   0  0  0  0  0  0  0  0  0  0  0  0
   -3.3449    0.9563   -0.6089 C   0  0  0  0  0  0  0  0  0  0  0  0
   -3.6922   -0.3930   -0.6765 C   0  0  0  0  0  0  0  0  0  0  0  0
    2.9869    2.2551    0.9191 H   0  0  0  0  0  0  0  0  0  0  0  0
    3.3208    0.6038    1.4141 H   0  0  0  0  0  0  0  0  0  0  0  0
    5.0594    1.4391   -0.1446 H   0  0  0  0  0  0  0  0  0  0  0  0
    4.1747    0.0994   -0.8972 H   0  0  0  0  0  0  0  0  0  0  0  0
    3.8246    1.7634   -1.3765 H   0  0  0  0  0  0  0  0  0  0  0  0
    3.0025   -1.5316    0.7767 H   0  0  0  0  0  0  0  0  0  0  0  0
    1.3107   -1.8696    1.1974 H   0  0  0  0  0  0  0  0  0  0  0  0
    2.4391   -3.9006    0.2883 H   0  0  0  0  0  0  0  0  0  0  0  0
    1.1370   -3.3651   -0.8005 H   0  0  0  0  0  0  0  0  0  0  0  0
    2.8123   -3.0178   -1.2118 H   0  0  0  0  0  0  0  0  0  0  0  0
   -1.1413   -1.7217    1.1226 H   0  0  0  0  0  0  0  0  0  0  0  0
   -1.9438    2.4038    0.1241 H   0  0  0  0  0  0  0  0  0  0  0  0
   -3.1643   -2.4013   -0.1042 H   0  0  0  0  0  0  0  0  0  0  0  0
   -3.9671    1.7020   -1.0951 H   0  0  0  0  0  0  0  0  0  0  0  0
   -4.5849   -0.6976   -1.2149 H   0  0  0  0  0  0  0  0  0  0  0  0
  1  2  1  0  0  0  0
  1  8  1  0  0  0  0
  2  3  1  0  0  0  0
  2  4  2  0  0  0  0
  2  5  1  0  0  0  0
  3  7  1  0  0  0  0
  5  6  1  0  0  0  0
  5 15  1  0  0  0  0
  5 16  1  0  0  0  0
  6 17  1  0  0  0  0
  6 18  1  0  0  0  0
  6 19  1  0  0  0  0
  7  9  1  0  0  0  0
  7 20  1  0  0  0  0
  7 21  1  0  0  0  0
  8 10  2  0  0  0  0
  8 11  1  0  0  0  0
  9 22  1  0  0  0  0
  9 23  1  0  0  0  0
  9 24  1  0  0  0  0
 10 12  1  0  0  0  0
 10 25  1  0  0  0  0
 11 13  2  0  0  0  0
 11 26  1  0  0  0  0
 12 14  2  0  0  0  0
 12 27  1  0  0  0  0
 13 14  1  0  0  0  0
 13 28  1  0  0  0  0
 14 29  1  0  0  0  0
M  END
> <PUBCHEM_COMPOUND_CID>
13675

> <PUBCHEM_CONFORMER_RMSD>
0.6

> <PUBCHEM_CONFORMER_DIVERSEORDER>
1
33
19
10
34
9
15
28
23
20
29
40
16
35
41
25
31
14
30
4
6
38
24
43
12
27
26
32
39
13
11
37
42
22
7
5
2
36
3
8
17
18
21

> <PUBCHEM_MMFF94_PARTIAL_CHARGES>
16
1 -0.35
10 -0.15
11 -0.15
12 -0.15
13 -0.15
14 -0.15
2 1.22
25 0.15
26 0.15
27 0.15
28 0.15
29 0.15
3 -0.55
4 -0.7
7 0.28
8 0.1

> <PUBCHEM_EFFECTIVE_ROTOR_COUNT>
5

> <PUBCHEM_PHARMACOPHORE_FEATURES>
1
6 8 10 11 12 13 14 rings

> <PUBCHEM_HEAVY_ATOM_COUNT>
14

> <PUBCHEM_ATOM_DEF_STEREO_COUNT>
0

> <PUBCHEM_ATOM_UDEF_STEREO_COUNT>
1

> <PUBCHEM_BOND_DEF_STEREO_COUNT>
0

> <PUBCHEM_BOND_UDEF_STEREO_COUNT>
0

> <PUBCHEM_ISOTOPIC_ATOM_COUNT>
0

> <PUBCHEM_COMPONENT_COUNT>
1

> <PUBCHEM_CACTVS_TAUTO_COUNT>
1

> <PUBCHEM_CONFORMER_ID>
0000356B00000001

> <PUBCHEM_MMFF94_ENERGY>
14.1044

> <PUBCHEM_FEATURE_SELFOVERLAP>
5.074

> <PUBCHEM_SHAPE_FINGERPRINT>
10922523 26 18201158857721792429
14251717 144 18410014360083238486
14787075 74 17389113239437157568
14993402 34 18199459975161089308
15775835 57 18041279872559253775
15852999 172 18272651208209386834
16945 1 18340196393531250017
18186145 218 17987801946503906631
18619055 16 18261960742499079763
20201158 50 18410857625013251177
20645477 70 18338241565163288639
20671657 53 18192990654537675582
21501502 16 18262519320080945769
22802520 49 18271802458405293683
23402539 116 17916880018764676485
23419403 2 17252070432157269890
23532345 88 18337117876890218926
23557571 272 17703221807248949035
23559900 14 18190190164220059114
23598291 2 18117831320759069769
2871803 45 18044668498798233431
7364860 26 18335702788440613170
81539 233 18343303643851715918
9709674 26 18412825789492732059

> <PUBCHEM_SHAPE_MULTIPOLES>
284.07
6.57
2.45
1.1
0.21
2.06
0.21
-0.57
-1.66
-1.88
-0.23
-0.01
-0.32
0.02

> <PUBCHEM_SHAPE_SELFOVERLAP>
532.874

> <PUBCHEM_SHAPE_VOLUME>
177.8

> <PUBCHEM_COORDINATE_TYPE>
2
5
10

$$$$

