4090
  -OEChem-06251223523D

 59 63  0     1  0  0  0  0  0999 V2000
    3.8730   -0.7471   -0.3836 O   0  0  0  0  0  0  0  0  0  0  0  0
    3.2077   -2.8272    0.3275 O   0  0  0  0  0  0  0  0  0  0  0  0
   -2.4209   -2.9742    0.8880 N   0  0  2  0  0  0  0  0  0  0  0  0
   -5.4721    1.9359   -0.8426 N   0  0  0  0  0  0  0  0  0  0  0  0
    1.8795   -1.5128   -1.0451 N   0  0  0  0  0  0  0  0  0  0  0  0
   -1.9150   -0.5289    0.9019 C   0  0  1  0  0  0  0  0  0  0  0  0
   -3.0412   -1.6379    0.7960 C   0  0  1  0  0  0  0  0  0  0  0  0
   -0.8291   -0.7525   -0.1597 C   0  0  0  0  0  0  0  0  0  0  0  0
   -0.2751   -2.1782   -0.0710 C   0  0  1  0  0  0  0  0  0  0  0  0
   -4.0251   -1.4500   -0.4253 C   0  0  0  0  0  0  0  0  0  0  0  0
   -1.4062   -3.2154   -0.1431 C   0  0  0  0  0  0  0  0  0  0  0  0
   -2.5040    0.8594    0.7707 C   0  0  0  0  0  0  0  0  0  0  0  0
   -3.7085    0.9895    0.0717 C   0  0  0  0  0  0  0  0  0  0  0  0
   -4.4834   -0.0321   -0.5126 C   0  0  0  0  0  0  0  0  0  0  0  0
    0.7538   -2.4247   -1.1737 C   0  0  0  0  0  0  0  0  0  0  0  0
   -4.3243    2.2094   -0.1305 C   0  0  0  0  0  0  0  0  0  0  0  0
   -3.3971   -4.0592    0.9290 C   0  0  0  0  0  0  0  0  0  0  0  0
   -1.9251    2.0357    1.2570 C   0  0  0  0  0  0  0  0  0  0  0  0
   -5.5768    0.5793   -1.0800 C   0  0  0  0  0  0  0  0  0  0  0  0
   -3.7644    3.3923    0.3540 C   0  0  0  0  0  0  0  0  0  0  0  0
   -2.5492    3.2759    1.0521 C   0  0  0  0  0  0  0  0  0  0  0  0
   -6.4386    2.9178   -1.2847 C   0  0  0  0  0  0  0  0  0  0  0  0
    3.0023   -1.7976   -0.3068 C   0  0  0  0  0  0  0  0  0  0  0  0
    5.0991   -0.8981    0.3408 C   0  0  0  0  0  0  0  0  0  0  0  0
    5.9343    0.3342    0.1523 C   0  0  0  0  0  0  0  0  0  0  0  0
    6.8317    0.4023   -0.9074 C   0  0  0  0  0  0  0  0  0  0  0  0
    5.8035    1.3968    1.0394 C   0  0  0  0  0  0  0  0  0  0  0  0
    7.6085    1.5477   -1.0824 C   0  0  0  0  0  0  0  0  0  0  0  0
    6.5801    2.5422    0.8644 C   0  0  0  0  0  0  0  0  0  0  0  0
    7.4826    2.6175   -0.1965 C   0  0  0  0  0  0  0  0  0  0  0  0
   -1.4610   -0.6107    1.8998 H   0  0  0  0  0  0  0  0  0  0  0  0
   -3.6570   -1.5108    1.7005 H   0  0  0  0  0  0  0  0  0  0  0  0
   -1.2332   -0.5700   -1.1646 H   0  0  0  0  0  0  0  0  0  0  0  0
   -0.0254   -0.0201   -0.0125 H   0  0  0  0  0  0  0  0  0  0  0  0
    0.2256   -2.2859    0.9021 H   0  0  0  0  0  0  0  0  0  0  0  0
   -4.8971   -2.1037   -0.3103 H   0  0  0  0  0  0  0  0  0  0  0  0
   -3.5308   -1.7133   -1.3669 H   0  0  0  0  0  0  0  0  0  0  0  0
   -1.8532   -3.2242   -1.1451 H   0  0  0  0  0  0  0  0  0  0  0  0
   -0.9637   -4.2082    0.0115 H   0  0  0  0  0  0  0  0  0  0  0  0
    0.3194   -2.2666   -2.1668 H   0  0  0  0  0  0  0  0  0  0  0  0
    1.1295   -3.4529   -1.1253 H   0  0  0  0  0  0  0  0  0  0  0  0
   -4.1483   -3.8790    1.7059 H   0  0  0  0  0  0  0  0  0  0  0  0
   -2.9038   -5.0030    1.1874 H   0  0  0  0  0  0  0  0  0  0  0  0
   -3.9112   -4.2008   -0.0277 H   0  0  0  0  0  0  0  0  0  0  0  0
   -0.9830    1.9961    1.7979 H   0  0  0  0  0  0  0  0  0  0  0  0
   -6.4165    0.1727   -1.6275 H   0  0  0  0  0  0  0  0  0  0  0  0
   -4.2346    4.3572    0.2031 H   0  0  0  0  0  0  0  0  0  0  0  0
   -2.0785    4.1754    1.4430 H   0  0  0  0  0  0  0  0  0  0  0  0
    1.8334   -0.6199   -1.5266 H   0  0  0  0  0  0  0  0  0  0  0  0
   -7.2466    2.4199   -1.8264 H   0  0  0  0  0  0  0  0  0  0  0  0
   -6.8399    3.4260   -0.4043 H   0  0  0  0  0  0  0  0  0  0  0  0
   -5.9315    3.6270   -1.9439 H   0  0  0  0  0  0  0  0  0  0  0  0
    5.6383   -1.7812   -0.0244 H   0  0  0  0  0  0  0  0  0  0  0  0
    4.8832   -1.0507    1.4056 H   0  0  0  0  0  0  0  0  0  0  0  0
    6.9363   -0.4244   -1.6048 H   0  0  0  0  0  0  0  0  0  0  0  0
    5.1021    1.3495    1.8679 H   0  0  0  0  0  0  0  0  0  0  0  0
    8.3108    1.6066   -1.9088 H   0  0  0  0  0  0  0  0  0  0  0  0
    6.4817    3.3756    1.5539 H   0  0  0  0  0  0  0  0  0  0  0  0
    8.0871    3.5094   -0.3328 H   0  0  0  0  0  0  0  0  0  0  0  0
  1 23  1  0  0  0  0
  1 24  1  0  0  0  0
  2 23  2  0  0  0  0
  3  7  1  0  0  0  0
  3 11  1  0  0  0  0
  3 17  1  0  0  0  0
  4 16  1  0  0  0  0
  4 19  1  0  0  0  0
  4 22  1  0  0  0  0
  5 15  1  0  0  0  0
  5 23  1  0  0  0  0
  5 49  1  0  0  0  0
  6  7  1  0  0  0  0
  6  8  1  0  0  0  0
  6 12  1  0  0  0  0
  6 31  1  0  0  0  0
  7 10  1  0  0  0  0
  7 32  1  0  0  0  0
  8  9  1  0  0  0  0
  8 33  1  0  0  0  0
  8 34  1  0  0  0  0
  9 11  1  0  0  0  0
  9 15  1  0  0  0  0
  9 35  1  0  0  0  0
 10 14  1  0  0  0  0
 10 36  1  0  0  0  0
 10 37  1  0  0  0  0
 11 38  1  0  0  0  0
 11 39  1  0  0  0  0
 12 13  2  0  0  0  0
 12 18  1  0  0  0  0
 13 14  1  0  0  0  0
 13 16  1  0  0  0  0
 14 19  2  0  0  0  0
 15 40  1  0  0  0  0
 15 41  1  0  0  0  0
 16 20  2  0  0  0  0
 17 42  1  0  0  0  0
 17 43  1  0  0  0  0
 17 44  1  0  0  0  0
 18 21  2  0  0  0  0
 18 45  1  0  0  0  0
 19 46  1  0  0  0  0
 20 21  1  0  0  0  0
 20 47  1  0  0  0  0
 21 48  1  0  0  0  0
 22 50  1  0  0  0  0
 22 51  1  0  0  0  0
 22 52  1  0  0  0  0
 24 25  1  0  0  0  0
 24 53  1  0  0  0  0
 24 54  1  0  0  0  0
 25 26  2  0  0  0  0
 25 27  1  0  0  0  0
 26 28  1  0  0  0  0
 26 55  1  0  0  0  0
 27 29  2  0  0  0  0
 27 56  1  0  0  0  0
 28 30  2  0  0  0  0
 28 57  1  0  0  0  0
 29 30  1  0  0  0  0
 29 58  1  0  0  0  0
 30 59  1  0  0  0  0
M  END
> <PUBCHEM_COMPOUND_CID>
4090

> <PUBCHEM_CONFORMER_RMSD>
1

> <PUBCHEM_CONFORMER_DIVERSEORDER>
2
613
120
959
40
5
269
283
368
270
470
95
125
183
164
502
144
1029
618
233
230
611
186
343
1115
51
320
193
251
65
373
91
59
259
311
631
336
473
214
1024
15
109
29
1018
721
1064
203
305
11
260
197
670
92
171
1070
568
467
39
293
980
673
890
591
498
4
243
795
68
50
346
43
668
134
98
514
735
912
118
378
64
162
210
31
743
7
437
423
691
21
392
701
22
799
447
241
81
569
85
621
38
133
1106
35
505
265
200
27
8
301
884
637
484
106
963
13
672
255
202
111
338
78
440
742
1008
651
671
273
161
101
242
62
458
455
218
852
559
874
172
198
341
520
6
692
491
357
1051
55
103
909
285
348
746
917
572
761
194
675
434
576
521
308
1099
436
113
984
656
837
313
32
356
548
372
127
768
642
386
303
404
329
497
834
927
41
298
575
327
471
228
191
400
17
643
566
481
47
121
87
931
154
654
503
166
1
398
582
192
53
224
641
268
1005
844
84
863
56
247
83
659
261
246
217
879
881
314
476
786
42
219
463
12
24
883
1113
36
354
340
475
1089
824
933
374
836
537
48
16
900
707
295
757
769
207
302
606
679
713
175
9
915
331
79
33
61
403
142
585
560
34
122
558
573
526
627
936
93
962
812
854
100
934
855
360
46
731
337
262
165
363
140
220
115
849
37
74
819
665
964
30
361
1040
1045
371
254
975
279
543
263
616
409
179
333
189
499
813
225
811
462
156
226
862
258
711
287
10
570
89
487
117
658
129
163
587
1081
158
804
758
835
232
588
493
550
1116
1076
956
792
717
617
808
57
907
290
645
989
625
949
353
730
515
63
221
815
803
465
604
960
317
1094
739
805
612
554
412
52
990

> <PUBCHEM_MMFF94_PARTIAL_CHARGES>
37
1 -0.43
10 0.18
11 0.27
12 -0.14
14 -0.18
15 0.3
16 -0.15
17 0.27
18 -0.15
19 -0.3
2 -0.57
20 -0.15
21 -0.15
22 0.26
23 0.78
24 0.42
25 -0.14
26 -0.15
27 -0.15
28 -0.15
29 -0.15
3 -0.81
30 -0.15
4 0.05
45 0.15
46 0.15
47 0.15
48 0.15
49 0.37
5 -0.73
55 0.15
56 0.15
57 0.15
58 0.15
59 0.15
6 0.14
7 0.27

> <PUBCHEM_EFFECTIVE_ROTOR_COUNT>
7

> <PUBCHEM_PHARMACOPHORE_FEATURES>
9
1 2 acceptor
1 3 cation
1 4 cation
1 5 donor
5 4 13 14 16 19 rings
6 12 13 16 18 20 21 rings
6 25 26 27 28 29 30 rings
6 3 6 7 8 9 11 rings
6 6 7 10 12 13 14 rings

> <PUBCHEM_HEAVY_ATOM_COUNT>
30

> <PUBCHEM_ATOM_DEF_STEREO_COUNT>
0

> <PUBCHEM_ATOM_UDEF_STEREO_COUNT>
3

> <PUBCHEM_BOND_DEF_STEREO_COUNT>
0

> <PUBCHEM_BOND_UDEF_STEREO_COUNT>
0

> <PUBCHEM_ISOTOPIC_ATOM_COUNT>
0

> <PUBCHEM_COMPONENT_COUNT>
1

> <PUBCHEM_CACTVS_TAUTO_COUNT>
2

> <PUBCHEM_CONFORMER_ID>
00000FFA00000002

> <PUBCHEM_MMFF94_ENERGY>
67.131

> <PUBCHEM_FEATURE_SELFOVERLAP>
45.944

> <PUBCHEM_SHAPE_FINGERPRINT>
10290309 65 18334564746725366246
10906281 52 18041553758592620035
11135609 127 17625276573785320877
11135609 187 18268432502965117501
11409948 8 18342163446726479659
12107183 9 18198632227847827314
12596602 18 17988085491919053482
13911987 19 17240482511350373199
14347329 18 18260268560250564506
14394314 77 18335695096392453121
14512766 119 18342172259234564396
14739800 52 18411428323605081354
14951699 99 18272931622740566942
15082195 135 17895762923333174994
15198563 99 17754747022155492910
15289351 153 18186803600662783608
15575132 122 18261109639237693830
16992787 43 18261672671270728481
18393751 57 18201152278100790387
19053607 189 18263093261309573032
1979834 28 14117519891778172520
20058555 10 18410575098044294876
20511986 3 18131077055824367790
22950370 63 9006186063730415115
22956985 138 16685682928589359395
23522609 53 17317044977529089873
23559900 14 18262247624708533873
255183 451 16450411715574409815
2747138 104 18054776292292525890
2748736 6 18411990169619830460
2838139 119 18334860545701962278
3918712 181 18335710429668059184
4144715 1 18342163441984028194
42767 28 18333445448694136200
44249763 50 17459485351385873098
474113 269 10159395602494256609
48014 12 18196917908636143580
550186 72 18264487295544201656
563151 74 16056318448538899401
6036956 94 18411693296637568932
9981440 41 18341887528631283083

> <PUBCHEM_SHAPE_MULTIPOLES>
590.7
19.95
4.93
1.18
38.85
0.93
0.03
-17.92
4.3
-4.41
-0.76
-0.28
-0.25
1.55

> <PUBCHEM_SHAPE_SELFOVERLAP>
1288.167

> <PUBCHEM_SHAPE_VOLUME>
320.7

> <PUBCHEM_COORDINATE_TYPE>
2
5
10

$$$$

