9585
  -OEChem-06261203502D

 29 28  0     1  0  0  0  0  0999 V2000
    6.0841    3.3700    0.0000 Br  0  0  0  0  0  0  0  0  0  0  0  0
    0.0000    0.6200    0.0000 F   0  0  0  0  0  0  0  0  0  0  0  0
    0.8660    4.1200    0.0000 O   0  0  0  0  0  0  0  0  0  0  0  0
    2.5981    5.1200    0.0000 N   0  0  0  0  0  0  0  0  0  0  0  0
    1.7320    3.6200    0.0000 C   0  0  3  0  0  0  0  0  0  0  0  0
    2.5981    4.1200    0.0000 C   0  0  0  0  0  0  0  0  0  0  0  0
    1.7320    2.6200    0.0000 C   0  0  0  0  0  0  0  0  0  0  0  0
    3.4641    5.6200    0.0000 C   0  0  0  0  0  0  0  0  0  0  0  0
    0.8660    2.1200    0.0000 C   0  0  0  0  0  0  0  0  0  0  0  0
    2.5981    2.1200    0.0000 C   0  0  0  0  0  0  0  0  0  0  0  0
    3.4641    6.6200    0.0000 C   0  0  0  0  0  0  0  0  0  0  0  0
    0.8660    1.1200    0.0000 C   0  0  0  0  0  0  0  0  0  0  0  0
    2.5981    1.1200    0.0000 C   0  0  0  0  0  0  0  0  0  0  0  0
    1.7320    0.6200    0.0000 C   0  0  0  0  0  0  0  0  0  0  0  0
    1.7320    4.4700    0.0000 H   0  0  0  0  0  0  0  0  0  0  0  0
    2.8101    3.5374    0.0000 H   0  0  0  0  0  0  0  0  0  0  0  0
    3.2087    4.2277    0.0000 H   0  0  0  0  0  0  0  0  0  0  0  0
    2.0611    5.4300    0.0000 H   0  0  0  0  0  0  0  0  0  0  0  0
    3.6762    5.0374    0.0000 H   0  0  0  0  0  0  0  0  0  0  0  0
    4.0747    5.7277    0.0000 H   0  0  0  0  0  0  0  0  0  0  0  0
    0.3291    2.4300    0.0000 H   0  0  0  0  0  0  0  0  0  0  0  0
    3.1350    2.4300    0.0000 H   0  0  0  0  0  0  0  0  0  0  0  0
    0.8660    4.7400    0.0000 H   0  0  0  0  0  0  0  0  0  0  0  0
    4.0841    6.6200    0.0000 H   0  0  0  0  0  0  0  0  0  0  0  0
    3.4641    7.2400    0.0000 H   0  0  0  0  0  0  0  0  0  0  0  0
    2.8441    6.6200    0.0000 H   0  0  0  0  0  0  0  0  0  0  0  0
    3.1350    0.8100    0.0000 H   0  0  0  0  0  0  0  0  0  0  0  0
    1.7320    0.0000    0.0000 H   0  0  0  0  0  0  0  0  0  0  0  0
    7.0841    3.3700    0.0000 H   0  0  0  0  0  0  0  0  0  0  0  0
  1 29  1  0  0  0  0
  2 12  1  0  0  0  0
  3  5  1  0  0  0  0
  3 23  1  0  0  0  0
  4  6  1  0  0  0  0
  4  8  1  0  0  0  0
  4 18  1  0  0  0  0
  5  6  1  0  0  0  0
  5  7  1  0  0  0  0
  5 15  1  0  0  0  0
  6 16  1  0  0  0  0
  6 17  1  0  0  0  0
  7  9  2  0  0  0  0
  7 10  1  0  0  0  0
  8 11  1  0  0  0  0
  8 19  1  0  0  0  0
  8 20  1  0  0  0  0
  9 12  1  0  0  0  0
  9 21  1  0  0  0  0
 10 13  2  0  0  0  0
 10 22  1  0  0  0  0
 11 24  1  0  0  0  0
 11 25  1  0  0  0  0
 11 26  1  0  0  0  0
 12 14  2  0  0  0  0
 13 14  1  0  0  0  0
 13 27  1  0  0  0  0
 14 28  1  0  0  0  0
M  END
> <PUBCHEM_COMPOUND_CID>
9585

> <PUBCHEM_COMPOUND_CANONICALIZED>
1

> <PUBCHEM_CACTVS_COMPLEXITY>
143

> <PUBCHEM_CACTVS_HBOND_ACCEPTOR>
3

> <PUBCHEM_CACTVS_HBOND_DONOR>
2

> <PUBCHEM_CACTVS_ROTATABLE_BOND>
4

> <PUBCHEM_CACTVS_SUBSKEYS>
AAADccByIQAAEAAAAAAAAAAAAAAAAAAAAAAwAAAAAAAAAAABAAAAHwAQCAAADBThmA4yAILAAgCAAiBCAAACAAAgAAAIiIAICIgKNiKAkRGEcAAk0AGYmAeQwKAOAAAAAAAAAAAAAAAAAAAAAAAAAAAAAA==

> <PUBCHEM_IUPAC_OPENEYE_NAME>
2-(ethylamino)-1-(3-fluorophenyl)ethanol hydrobromide

> <PUBCHEM_IUPAC_CAS_NAME>
2-(ethylamino)-1-(3-fluorophenyl)ethanol hydrobromide

> <PUBCHEM_IUPAC_NAME>
2-(ethylamino)-1-(3-fluorophenyl)ethanol hydrobromide

> <PUBCHEM_IUPAC_SYSTEMATIC_NAME>
2-(ethylamino)-1-(3-fluorophenyl)ethanol hydrobromide

> <PUBCHEM_IUPAC_TRADITIONAL_NAME>
2-(ethylamino)-1-(3-fluorophenyl)ethanol hydrobromide

> <PUBCHEM_IUPAC_INCHI>
InChI=1S/C10H14FNO.BrH/c1-2-12-7-10(13)8-4-3-5-9(11)6-8;/h3-6,10,12-13H,2,7H2,1H3;1H

> <PUBCHEM_IUPAC_INCHIKEY>
FNAHAEHCBKHAMT-UHFFFAOYSA-N

> <PUBCHEM_EXACT_MASS>
263.032104

> <PUBCHEM_MOLECULAR_FORMULA>
C10H15BrFNO

> <PUBCHEM_MOLECULAR_WEIGHT>
264.134603

> <PUBCHEM_OPENEYE_CAN_SMILES>
CCNCC(C1=CC(=CC=C1)F)O.Br

> <PUBCHEM_OPENEYE_ISO_SMILES>
CCNCC(C1=CC(=CC=C1)F)O.Br

> <PUBCHEM_CACTVS_TPSA>
32.3

> <PUBCHEM_MONOISOTOPIC_WEIGHT>
263.032104

> <PUBCHEM_TOTAL_CHARGE>
0

> <PUBCHEM_HEAVY_ATOM_COUNT>
14

> <PUBCHEM_ATOM_DEF_STEREO_COUNT>
0

> <PUBCHEM_ATOM_UDEF_STEREO_COUNT>
1

> <PUBCHEM_BOND_DEF_STEREO_COUNT>
0

> <PUBCHEM_BOND_UDEF_STEREO_COUNT>
0

> <PUBCHEM_ISOTOPIC_ATOM_COUNT>
0

> <PUBCHEM_COMPONENT_COUNT>
2

> <PUBCHEM_CACTVS_TAUTO_COUNT>
1

> <PUBCHEM_COORDINATE_TYPE>
1
5
255

> <PUBCHEM_BONDANNOTATIONS>
10  13  8
12  14  8
13  14  8
5  15  3
7  10  8
7  9  8
9  12  8

$$$$

