122159
  -OEChem-07051213003D

 50 52  0     1  0  0  0  0  0999 V2000
    0.0679   -0.7184   -1.7492 O   0  0  0  0  0  0  0  0  0  0  0  0
    0.5847    0.6069    0.9023 O   0  0  0  0  0  0  0  0  0  0  0  0
    4.5705    0.7159   -1.8775 O   0  0  0  0  0  0  0  0  0  0  0  0
   -3.9713    1.9971   -0.9114 O   0  0  0  0  0  0  0  0  0  0  0  0
   -5.5713    0.5973    0.8794 O   0  0  0  0  0  0  0  0  0  0  0  0
    0.4205   -1.7492    0.4076 C   0  0  1  0  0  0  0  0  0  0  0  0
    1.2812   -0.4903    0.3034 C   0  0  1  0  0  0  0  0  0  0  0  0
   -0.5861   -1.5462   -0.7572 C   0  0  1  0  0  0  0  0  0  0  0  0
    1.2552   -0.2982   -1.1735 C   0  0  0  0  0  0  0  0  0  0  0  0
    2.6627   -0.5117    0.8769 C   0  0  0  0  0  0  0  0  0  0  0  0
    1.1953   -3.0602    0.2138 C   0  0  0  0  0  0  0  0  0  0  0  0
   -1.9213   -0.9693   -0.3213 C   0  0  0  0  0  0  0  0  0  0  0  0
    2.3100    0.0634   -1.9088 C   0  0  0  0  0  0  0  0  0  0  0  0
    3.7575   -0.1508    0.1875 C   0  0  0  0  0  0  0  0  0  0  0  0
    3.6214    0.2633   -1.2441 C   0  0  0  0  0  0  0  0  0  0  0  0
   -2.3423    0.2626   -0.8191 C   0  0  0  0  0  0  0  0  0  0  0  0
   -2.7225   -1.6726    0.5764 C   0  0  0  0  0  0  0  0  0  0  0  0
    5.1300   -0.1276    0.7828 C   0  0  0  0  0  0  0  0  0  0  0  0
    0.5143    0.4609    2.3106 C   0  0  0  0  0  0  0  0  0  0  0  0
   -3.5684    0.7928   -0.4180 C   0  0  0  0  0  0  0  0  0  0  0  0
   -3.9487   -1.1425    0.9776 C   0  0  0  0  0  0  0  0  0  0  0  0
   -4.3716    0.0903    0.4803 C   0  0  0  0  0  0  0  0  0  0  0  0
    5.4591    1.2050    1.3798 C   0  0  0  0  0  0  0  0  0  0  0  0
    6.4789    1.9724    0.9784 C   0  0  0  0  0  0  0  0  0  0  0  0
   -3.5921    3.1585   -0.1754 C   0  0  0  0  0  0  0  0  0  0  0  0
   -6.7136    0.2506    0.0987 C   0  0  0  0  0  0  0  0  0  0  0  0
   -0.1186   -1.8591    1.3508 H   0  0  0  0  0  0  0  0  0  0  0  0
   -0.8066   -2.5004   -1.2537 H   0  0  0  0  0  0  0  0  0  0  0  0
    2.7836   -0.8246    1.9117 H   0  0  0  0  0  0  0  0  0  0  0  0
    1.9044   -3.2194    1.0326 H   0  0  0  0  0  0  0  0  0  0  0  0
    0.5067   -3.9123    0.2084 H   0  0  0  0  0  0  0  0  0  0  0  0
    1.7518   -3.0772   -0.7291 H   0  0  0  0  0  0  0  0  0  0  0  0
    2.2603    0.1564   -2.9869 H   0  0  0  0  0  0  0  0  0  0  0  0
   -1.7380    0.8321   -1.5194 H   0  0  0  0  0  0  0  0  0  0  0  0
   -2.4090   -2.6377    0.9652 H   0  0  0  0  0  0  0  0  0  0  0  0
    5.8751   -0.4292    0.0361 H   0  0  0  0  0  0  0  0  0  0  0  0
    5.2021   -0.8806    1.5787 H   0  0  0  0  0  0  0  0  0  0  0  0
    1.3656    0.9736    2.7716 H   0  0  0  0  0  0  0  0  0  0  0  0
    0.4650   -0.5595    2.6953 H   0  0  0  0  0  0  0  0  0  0  0  0
   -0.3857    0.9843    2.6488 H   0  0  0  0  0  0  0  0  0  0  0  0
   -4.5698   -1.6957    1.6768 H   0  0  0  0  0  0  0  0  0  0  0  0
    4.8388    1.5574    2.2007 H   0  0  0  0  0  0  0  0  0  0  0  0
    6.6708    2.9259    1.4580 H   0  0  0  0  0  0  0  0  0  0  0  0
    7.1344    1.6674    0.1703 H   0  0  0  0  0  0  0  0  0  0  0  0
   -2.5017    3.2423   -0.1263 H   0  0  0  0  0  0  0  0  0  0  0  0
   -4.0127    3.1287    0.8347 H   0  0  0  0  0  0  0  0  0  0  0  0
   -3.9876    4.0365   -0.6932 H   0  0  0  0  0  0  0  0  0  0  0  0
   -7.5890    0.7361    0.5384 H   0  0  0  0  0  0  0  0  0  0  0  0
   -6.5982    0.6032   -0.9310 H   0  0  0  0  0  0  0  0  0  0  0  0
   -6.8712   -0.8325    0.1100 H   0  0  0  0  0  0  0  0  0  0  0  0
  1  8  1  0  0  0  0
  1  9  1  0  0  0  0
  2  7  1  0  0  0  0
  2 19  1  0  0  0  0
  3 15  2  0  0  0  0
  4 20  1  0  0  0  0
  4 25  1  0  0  0  0
  5 22  1  0  0  0  0
  5 26  1  0  0  0  0
  6  7  1  0  0  0  0
  6  8  1  0  0  0  0
  6 11  1  0  0  0  0
  6 27  1  0  0  0  0
  7  9  1  0  0  0  0
  7 10  1  0  0  0  0
  8 12  1  0  0  0  0
  8 28  1  0  0  0  0
  9 13  2  0  0  0  0
 10 14  2  0  0  0  0
 10 29  1  0  0  0  0
 11 30  1  0  0  0  0
 11 31  1  0  0  0  0
 11 32  1  0  0  0  0
 12 16  2  0  0  0  0
 12 17  1  0  0  0  0
 13 15  1  0  0  0  0
 13 33  1  0  0  0  0
 14 15  1  0  0  0  0
 14 18  1  0  0  0  0
 16 20  1  0  0  0  0
 16 34  1  0  0  0  0
 17 21  2  0  0  0  0
 17 35  1  0  0  0  0
 18 23  1  0  0  0  0
 18 36  1  0  0  0  0
 18 37  1  0  0  0  0
 19 38  1  0  0  0  0
 19 39  1  0  0  0  0
 19 40  1  0  0  0  0
 20 22  2  0  0  0  0
 21 22  1  0  0  0  0
 21 41  1  0  0  0  0
 23 24  2  0  0  0  0
 23 42  1  0  0  0  0
 24 43  1  0  0  0  0
 24 44  1  0  0  0  0
 25 45  1  0  0  0  0
 25 46  1  0  0  0  0
 25 47  1  0  0  0  0
 26 48  1  0  0  0  0
 26 49  1  0  0  0  0
 26 50  1  0  0  0  0
M  END
> <PUBCHEM_COMPOUND_CID>
122159

> <PUBCHEM_CONFORMER_RMSD>
0.8

> <PUBCHEM_CONFORMER_DIVERSEORDER>
1
19
11
12
16
18
26
22
17
6
10
14
5
3
24
20
13
7
23
25
4
2
15
9
8
21

> <PUBCHEM_MMFF94_PARTIAL_CHARGES>
32
1 -0.36
10 -0.29
12 -0.14
13 -0.14
14 -0.12
15 0.54
16 -0.15
17 -0.15
18 0.28
19 0.28
2 -0.56
20 0.08
21 -0.15
22 0.08
23 -0.29
24 -0.3
25 0.28
26 0.28
29 0.15
3 -0.57
33 0.15
34 0.15
35 0.15
4 -0.36
41 0.15
42 0.15
43 0.15
44 0.15
5 -0.36
7 0.56
8 0.42
9 -0.06

> <PUBCHEM_EFFECTIVE_ROTOR_COUNT>
6.6

> <PUBCHEM_PHARMACOPHORE_FEATURES>
9
1 1 acceptor
1 2 acceptor
1 24 hydrophobe
1 3 acceptor
1 4 acceptor
1 5 acceptor
5 1 6 7 8 9 rings
6 12 16 17 20 21 22 rings
6 7 9 10 13 14 15 rings

> <PUBCHEM_HEAVY_ATOM_COUNT>
26

> <PUBCHEM_ATOM_DEF_STEREO_COUNT>
3

> <PUBCHEM_ATOM_UDEF_STEREO_COUNT>
0

> <PUBCHEM_BOND_DEF_STEREO_COUNT>
0

> <PUBCHEM_BOND_UDEF_STEREO_COUNT>
0

> <PUBCHEM_ISOTOPIC_ATOM_COUNT>
0

> <PUBCHEM_COMPONENT_COUNT>
1

> <PUBCHEM_CACTVS_TAUTO_COUNT>
1

> <PUBCHEM_CONFORMER_ID>
0001DD2F00000001

> <PUBCHEM_MMFF94_ENERGY>
95.5156

> <PUBCHEM_FEATURE_SELFOVERLAP>
45.778

> <PUBCHEM_SHAPE_FINGERPRINT>
10 15 18273498948759351680
10366900 7 18409730656282148043
10906281 52 17241595144772729608
12107183 9 17269770383152367273
12236239 1 17060334107250786967
12403259 118 17632582659966603141
12422481 6 17560533918510022788
12507560 40 18270401727862917151
12596602 18 16773789269555482497
12633257 1 15913327983727908842
12969540 114 17094963230151783332
13544653 18 12823297913795981406
13690498 29 7132422549878566089
13965767 371 16913122900674408597
14341114 176 17203317914783093615
14341114 328 17275378802770748413
14466204 15 18342179977096063920
14528608 73 14129060284102664688
14739800 52 18338529615581825712
15209289 33 15554450703772675530
15510800 12 12247410058981199376
15537594 2 5761932965706269693
17349148 13 11815895673634739611
18222031 100 10231756678150627398
19784866 9 18339366369721745082
20028762 73 16271927077923822682
21267235 1 15195297439169730960
21682296 61 14045203903801920008
23559900 14 18055907938227203054
2838139 119 17749405753918591008
2916195 48 18187931634055250000
4340502 62 18412543223499428210
465052 167 12463569586709082960
469060 322 18268689715444577585
5104073 3 18058454364190901217
7226269 152 18040439871867332920
9849439 229 17764029460495492621
9981440 41 18272649091186324323

> <PUBCHEM_SHAPE_MULTIPOLES>
505.72
13.37
2.26
1.65
0.47
0.28
0.17
8.05
-3
0.9
-0.15
-1.44
0.22
1

> <PUBCHEM_SHAPE_SELFOVERLAP>
1083.461

> <PUBCHEM_SHAPE_VOLUME>
281.5

> <PUBCHEM_COORDINATE_TYPE>
2
5
10

$$$$

