443069
  -OEChem-07051213013D

 33 34  0     1  0  0  0  0  0999 V2000
   -0.4480   -0.5441   -1.0256 O   0  0  0  0  0  0  0  0  0  0  0  0
   -4.0563    1.0710    0.1667 O   0  0  0  0  0  0  0  0  0  0  0  0
   -3.2171   -1.4634    1.2272 O   0  0  0  0  0  0  0  0  0  0  0  0
    0.3577    1.2054    0.3566 O   0  0  0  0  0  0  0  0  0  0  0  0
   -1.8149    2.8103   -0.4044 O   0  0  0  0  0  0  0  0  0  0  0  0
    0.3616   -3.0890   -0.4592 O   0  0  0  0  0  0  0  0  0  0  0  0
    3.5043    0.1151    1.2070 O   0  0  0  0  0  0  0  0  0  0  0  0
    2.2148    0.5170    1.5338 N   0  0  0  0  0  0  0  0  0  0  0  0
   -2.6881    0.6859    0.3187 C   0  0  1  0  0  0  0  0  0  0  0  0
   -2.5903   -0.8275    0.1158 C   0  0  1  0  0  0  0  0  0  0  0  0
   -1.1279   -1.2782   -0.0010 C   0  0  1  0  0  0  0  0  0  0  0  0
   -1.8436    1.4226   -0.7190 C   0  0  2  0  0  0  0  0  0  0  0  0
   -0.4211    0.8650   -0.7889 C   0  0  2  0  0  0  0  0  0  0  0  0
   -1.0110   -2.7570   -0.3603 C   0  0  0  0  0  0  0  0  0  0  0  0
    1.6576    0.7781    0.3634 C   0  0  0  0  0  0  0  0  0  0  0  0
    2.4931    0.5763   -0.7258 C   0  0  0  0  0  0  0  0  0  0  0  0
    3.6580    0.1547   -0.1412 C   0  0  0  0  0  0  0  0  0  0  0  0
    4.9713   -0.2421   -0.6639 C   0  0  0  0  0  0  0  0  0  0  0  0
   -2.3920    0.9713    1.3358 H   0  0  0  0  0  0  0  0  0  0  0  0
   -3.1438   -1.1142   -0.7877 H   0  0  0  0  0  0  0  0  0  0  0  0
   -2.3254    1.3214   -1.6993 H   0  0  0  0  0  0  0  0  0  0  0  0
   -0.6039   -1.1260    0.9516 H   0  0  0  0  0  0  0  0  0  0  0  0
    0.0506    1.3365   -1.6604 H   0  0  0  0  0  0  0  0  0  0  0  0
   -1.4776   -2.9721   -1.3274 H   0  0  0  0  0  0  0  0  0  0  0  0
   -1.4689   -3.3944    0.4016 H   0  0  0  0  0  0  0  0  0  0  0  0
   -4.5526    0.6977    0.9143 H   0  0  0  0  0  0  0  0  0  0  0  0
   -4.1692   -1.2741    1.1786 H   0  0  0  0  0  0  0  0  0  0  0  0
   -1.3467    2.9128    0.4419 H   0  0  0  0  0  0  0  0  0  0  0  0
    0.7576   -2.5085   -1.1315 H   0  0  0  0  0  0  0  0  0  0  0  0
    2.3106    0.7098   -1.7816 H   0  0  0  0  0  0  0  0  0  0  0  0
    5.2019   -1.2740   -0.3815 H   0  0  0  0  0  0  0  0  0  0  0  0
    4.9986   -0.1756   -1.7559 H   0  0  0  0  0  0  0  0  0  0  0  0
    5.7566    0.4076   -0.2652 H   0  0  0  0  0  0  0  0  0  0  0  0
  1 11  1  0  0  0  0
  1 13  1  0  0  0  0
  2  9  1  0  0  0  0
  2 26  1  0  0  0  0
  3 10  1  0  0  0  0
  3 27  1  0  0  0  0
  4 13  1  0  0  0  0
  4 15  1  0  0  0  0
  5 12  1  0  0  0  0
  5 28  1  0  0  0  0
  6 14  1  0  0  0  0
  6 29  1  0  0  0  0
  7  8  1  0  0  0  0
  7 17  1  0  0  0  0
  8 15  2  0  0  0  0
  9 10  1  0  0  0  0
  9 12  1  0  0  0  0
  9 19  1  0  0  0  0
 10 11  1  0  0  0  0
 10 20  1  0  0  0  0
 11 14  1  0  0  0  0
 11 22  1  0  0  0  0
 12 13  1  0  0  0  0
 12 21  1  0  0  0  0
 13 23  1  0  0  0  0
 14 24  1  0  0  0  0
 14 25  1  0  0  0  0
 15 16  1  0  0  0  0
 16 17  2  0  0  0  0
 16 30  1  0  0  0  0
 17 18  1  0  0  0  0
 18 31  1  0  0  0  0
 18 32  1  0  0  0  0
 18 33  1  0  0  0  0
M  END
> <PUBCHEM_COMPOUND_CID>
443069

> <PUBCHEM_CONFORMER_RMSD>
0.6

> <PUBCHEM_CONFORMER_DIVERSEORDER>
1
66
52
55
44
80
69
12
82
27
26
90
87
59
36
85
24
4
47
77
71
89
81
62
54
18
19
83
33
2
43
74
72
15
35
57
11
60
76
79
65
49
42
58
13
86
37
48
23
7
63
22
21
68
5
39
70
25
8
46
30
31
32
9
3
73
29
38
17
34
84
67
45
14
28
53
78
6
50
88
51
10
20
16
56
64
75
61
40
41

> <PUBCHEM_MMFF94_PARTIAL_CHARGES>
23
1 -0.56
10 0.28
11 0.28
12 0.28
13 0.56
14 0.28
15 0.35
16 -0.15
17 -0.04
18 0.18
2 -0.68
26 0.4
27 0.4
28 0.4
29 0.4
3 -0.68
30 0.15
4 -0.34
5 -0.68
6 -0.68
7 -0.02
8 -0.41
9 0.28

> <PUBCHEM_EFFECTIVE_ROTOR_COUNT>
4.2

> <PUBCHEM_PHARMACOPHORE_FEATURES>
11
1 1 acceptor
1 2 acceptor
1 2 donor
1 3 acceptor
1 3 donor
1 5 acceptor
1 5 donor
1 6 acceptor
1 6 donor
5 7 8 15 16 17 rings
6 1 9 10 11 12 13 rings

> <PUBCHEM_HEAVY_ATOM_COUNT>
18

> <PUBCHEM_ATOM_DEF_STEREO_COUNT>
5

> <PUBCHEM_ATOM_UDEF_STEREO_COUNT>
0

> <PUBCHEM_BOND_DEF_STEREO_COUNT>
0

> <PUBCHEM_BOND_UDEF_STEREO_COUNT>
0

> <PUBCHEM_ISOTOPIC_ATOM_COUNT>
0

> <PUBCHEM_COMPONENT_COUNT>
1

> <PUBCHEM_CACTVS_TAUTO_COUNT>
1

> <PUBCHEM_CONFORMER_ID>
0006C2BD00000001

> <PUBCHEM_MMFF94_ENERGY>
41.3683

> <PUBCHEM_FEATURE_SELFOVERLAP>
55.833

> <PUBCHEM_SHAPE_FINGERPRINT>
12011746 2 18411702093151545103
12173636 292 18411706495303671828
12186901 62 18201718500318397908
124424 183 17313100852434579232
12507560 18 17603579759571135930
12553582 1 18197502822571975986
13140716 1 18339914910439702753
13538477 17 18131638867600964508
14115302 16 18336256886767072516
15309172 13 18409726270508583073
15375462 175 18410844452279976140
16752209 62 18341630195322123903
16945 1 18410864234873078109
17804303 29 18408881811176560156
19049666 15 17969497289614512508
19422 9 17846776269832016272
200 152 14979963557867131104
20510252 161 18334012782912523377
20871998 184 18413107238799352533
23175994 123 17458336468745299032
23402539 116 18261117331740399199
23419403 2 17044807022516935418
23526113 38 17823412872092247070
23559900 14 18259424127199859160
23598291 2 17632283545901995412
2748010 2 18266452286200833903
3286 77 16806168731362348731
43471831 8 18340773744531419027
465052 167 17842820145934868835
598444 67 18333729121955415734
81228 2 17902812768188477135
8809292 202 18259984856011629790
90525 40 18272937149867533012

> <PUBCHEM_SHAPE_MULTIPOLES>
324.37
6.99
2.5
1.05
5.83
1.4
-0.21
-0.7
-0.63
-2.03
0.46
0.37
-0.02
0.49

> <PUBCHEM_SHAPE_SELFOVERLAP>
674.586

> <PUBCHEM_SHAPE_VOLUME>
183.5

> <PUBCHEM_COORDINATE_TYPE>
2
5
10

$$$$

