440918
  -OEChem-07051212512D

 19 18  0     0  0  0  0  0  0999 V2000
    2.5369    0.4400    0.0000 O   0  0  0  0  0  0  0  0  0  0  0  0
    3.4030   -1.0600    0.0000 O   0  0  0  0  0  0  0  0  0  0  0  0
    8.5991   -0.0600    0.0000 O   0  0  0  0  0  0  0  0  0  0  0  0
    5.1350   -0.0600    0.0000 C   0  0  0  0  0  0  0  0  0  0  0  0
    6.0010    0.4400    0.0000 C   0  0  0  0  0  0  0  0  0  0  0  0
    4.2690    0.4400    0.0000 C   0  0  0  0  0  0  0  0  0  0  0  0
    6.8671   -0.0600    0.0000 C   0  0  0  0  0  0  0  0  0  0  0  0
    3.4030   -0.0600    0.0000 C   0  0  0  0  0  0  0  0  0  0  0  0
    7.7331    0.4400    0.0000 C   0  0  0  0  0  0  0  0  0  0  0  0
    4.7365   -0.5349    0.0000 H   0  0  0  0  0  0  0  0  0  0  0  0
    5.5335   -0.5349    0.0000 H   0  0  0  0  0  0  0  0  0  0  0  0
    6.3996    0.9149    0.0000 H   0  0  0  0  0  0  0  0  0  0  0  0
    5.6025    0.9149    0.0000 H   0  0  0  0  0  0  0  0  0  0  0  0
    4.6675    0.9149    0.0000 H   0  0  0  0  0  0  0  0  0  0  0  0
    3.8705    0.9149    0.0000 H   0  0  0  0  0  0  0  0  0  0  0  0
    6.4685   -0.5349    0.0000 H   0  0  0  0  0  0  0  0  0  0  0  0
    7.2656   -0.5349    0.0000 H   0  0  0  0  0  0  0  0  0  0  0  0
    7.7331    1.0600    0.0000 H   0  0  0  0  0  0  0  0  0  0  0  0
    2.0000    0.1300    0.0000 H   0  0  0  0  0  0  0  0  0  0  0  0
  1  8  1  0  0  0  0
  1 19  1  0  0  0  0
  2  8  2  0  0  0  0
  3  9  2  0  0  0  0
  4  5  1  0  0  0  0
  4  6  1  0  0  0  0
  4 10  1  0  0  0  0
  4 11  1  0  0  0  0
  5  7  1  0  0  0  0
  5 12  1  0  0  0  0
  5 13  1  0  0  0  0
  6  8  1  0  0  0  0
  6 14  1  0  0  0  0
  6 15  1  0  0  0  0
  7  9  1  0  0  0  0
  7 16  1  0  0  0  0
  7 17  1  0  0  0  0
  9 18  1  0  0  0  0
M  END
> <PUBCHEM_COMPOUND_CID>
440918

> <PUBCHEM_COMPOUND_CANONICALIZED>
1

> <PUBCHEM_CACTVS_COMPLEXITY>
98.5

> <PUBCHEM_CACTVS_HBOND_ACCEPTOR>
3

> <PUBCHEM_CACTVS_HBOND_DONOR>
1

> <PUBCHEM_CACTVS_ROTATABLE_BOND>
5

> <PUBCHEM_CACTVS_SUBSKEYS>
AAADccBgMAAAAAAAAAAAAAAAAAAAAAAAAAAAAAAAAAAAAAAAAAAAGgAACAAACACggAIACAAAAgAIAAiQiAAAAAAAAAAAAAEAAAAAABIAAAAAQAAEAAAAAAGISAAAAAAAAAAAAAAAAAAAAAAAAAAAAAAAAA==

> <PUBCHEM_IUPAC_OPENEYE_NAME>
6-oxohexanoic acid

> <PUBCHEM_IUPAC_CAS_NAME>
6-oxohexanoic acid

> <PUBCHEM_IUPAC_NAME>
6-oxohexanoic acid

> <PUBCHEM_IUPAC_SYSTEMATIC_NAME>
6-oxidanylidenehexanoic acid

> <PUBCHEM_IUPAC_TRADITIONAL_NAME>
6-ketohexanoic acid

> <PUBCHEM_IUPAC_INCHI>
InChI=1S/C6H10O3/c7-5-3-1-2-4-6(8)9/h5H,1-4H2,(H,8,9)

> <PUBCHEM_IUPAC_INCHIKEY>
PNPPVRALIYXJBW-UHFFFAOYSA-N

> <PUBCHEM_XLOGP3_AA>
-0.1

> <PUBCHEM_EXACT_MASS>
130.062994

> <PUBCHEM_MOLECULAR_FORMULA>
C6H10O3

> <PUBCHEM_MOLECULAR_WEIGHT>
130.1418

> <PUBCHEM_OPENEYE_CAN_SMILES>
C(CCC(=O)O)CC=O

> <PUBCHEM_OPENEYE_ISO_SMILES>
C(CCC(=O)O)CC=O

> <PUBCHEM_CACTVS_TPSA>
54.4

> <PUBCHEM_MONOISOTOPIC_WEIGHT>
130.062994

> <PUBCHEM_TOTAL_CHARGE>
0

> <PUBCHEM_HEAVY_ATOM_COUNT>
9

> <PUBCHEM_ATOM_DEF_STEREO_COUNT>
0

> <PUBCHEM_ATOM_UDEF_STEREO_COUNT>
0

> <PUBCHEM_BOND_DEF_STEREO_COUNT>
0

> <PUBCHEM_BOND_UDEF_STEREO_COUNT>
0

> <PUBCHEM_ISOTOPIC_ATOM_COUNT>
0

> <PUBCHEM_COMPONENT_COUNT>
1

> <PUBCHEM_CACTVS_TAUTO_COUNT>
2

> <PUBCHEM_COORDINATE_TYPE>
1
5
255

$$$$

