122837
  -OEChem-07051213093D

 53 54  0     1  0  0  0  0  0999 V2000
   -0.9876   -0.0679    2.4944 O   0  0  0  0  0  0  0  0  0  0  0  0
   -2.1159   -0.6997    0.4856 C   0  0  2  0  0  0  0  0  0  0  0  0
   -0.3206    1.1954    0.5121 C   0  0  1  0  0  0  0  0  0  0  0  0
   -2.3172   -0.3171   -1.0017 C   0  0  1  0  0  0  0  0  0  0  0  0
   -0.7977   -0.1647    1.0800 C   0  0  1  0  0  0  0  0  0  0  0  0
   -1.3616    2.3319    0.5539 C   0  0  0  0  0  0  0  0  0  0  0  0
    0.9637    1.6688    1.2110 C   0  0  1  0  0  0  0  0  0  0  0  0
   -3.2258   -1.4264   -1.5615 C   0  0  0  0  0  0  0  0  0  0  0  0
   -2.2555   -2.2040    0.4329 C   0  0  0  0  0  0  0  0  0  0  0  0
   -2.8025    1.1056   -1.2138 C   0  0  0  0  0  0  0  0  0  0  0  0
   -2.7518    2.0574   -0.0394 C   0  0  0  0  0  0  0  0  0  0  0  0
   -2.8771   -2.5887   -0.6900 C   0  0  0  0  0  0  0  0  0  0  0  0
    2.0637    0.5927    1.1908 C   0  0  0  0  0  0  0  0  0  0  0  0
    1.4688    2.9424    0.5329 C   0  0  0  0  0  0  0  0  0  0  0  0
   -1.8445   -3.0923    1.5530 C   0  0  0  0  0  0  0  0  0  0  0  0
   -3.2683    1.5160   -2.4052 C   0  0  0  0  0  0  0  0  0  0  0  0
    2.5577    0.1785   -0.2025 C   0  0  0  0  0  0  0  0  0  0  0  0
    3.6780   -0.8225   -0.1475 C   0  0  0  0  0  0  0  0  0  0  0  0
    4.8984   -0.7435   -0.7109 C   0  0  0  0  0  0  0  0  0  0  0  0
    5.8913   -1.8616   -0.5302 C   0  0  0  0  0  0  0  0  0  0  0  0
    5.4044    0.3996   -1.5439 C   0  0  0  0  0  0  0  0  0  0  0  0
   -2.9574   -0.3583    1.1045 H   0  0  0  0  0  0  0  0  0  0  0  0
   -0.0739    1.0436   -0.5460 H   0  0  0  0  0  0  0  0  0  0  0  0
   -1.3502   -0.4120   -1.5206 H   0  0  0  0  0  0  0  0  0  0  0  0
   -0.0309   -0.9250    0.9012 H   0  0  0  0  0  0  0  0  0  0  0  0
   -0.9775    3.1896   -0.0110 H   0  0  0  0  0  0  0  0  0  0  0  0
   -1.4943    2.6818    1.5858 H   0  0  0  0  0  0  0  0  0  0  0  0
    0.7564    1.9123    2.2610 H   0  0  0  0  0  0  0  0  0  0  0  0
   -2.9918   -1.6353   -2.6103 H   0  0  0  0  0  0  0  0  0  0  0  0
   -4.2923   -1.1924   -1.4727 H   0  0  0  0  0  0  0  0  0  0  0  0
   -3.1935    3.0254   -0.3139 H   0  0  0  0  0  0  0  0  0  0  0  0
   -3.4134    1.6818    0.7504 H   0  0  0  0  0  0  0  0  0  0  0  0
   -3.1406   -3.6095   -0.9280 H   0  0  0  0  0  0  0  0  0  0  0  0
    1.7692   -0.2920    1.7654 H   0  0  0  0  0  0  0  0  0  0  0  0
    2.9256    0.9942    1.7441 H   0  0  0  0  0  0  0  0  0  0  0  0
    1.4442    2.8786   -0.5601 H   0  0  0  0  0  0  0  0  0  0  0  0
    0.8838    3.8166    0.8374 H   0  0  0  0  0  0  0  0  0  0  0  0
    2.5016    3.1586    0.8304 H   0  0  0  0  0  0  0  0  0  0  0  0
   -0.1140   -0.0228    2.9162 H   0  0  0  0  0  0  0  0  0  0  0  0
   -0.7589   -3.0734    1.6866 H   0  0  0  0  0  0  0  0  0  0  0  0
   -2.1383   -4.1313    1.3702 H   0  0  0  0  0  0  0  0  0  0  0  0
   -2.3173   -2.7720    2.4867 H   0  0  0  0  0  0  0  0  0  0  0  0
   -3.3053    0.8490   -3.2598 H   0  0  0  0  0  0  0  0  0  0  0  0
   -3.6164    2.5322   -2.5575 H   0  0  0  0  0  0  0  0  0  0  0  0
    2.8469    1.0639   -0.7703 H   0  0  0  0  0  0  0  0  0  0  0  0
    1.7384   -0.2915   -0.7584 H   0  0  0  0  0  0  0  0  0  0  0  0
    3.4395   -1.7211    0.4211 H   0  0  0  0  0  0  0  0  0  0  0  0
    5.4954   -2.6780    0.0831 H   0  0  0  0  0  0  0  0  0  0  0  0
    6.1694   -2.2822   -1.5022 H   0  0  0  0  0  0  0  0  0  0  0  0
    6.7968   -1.4886   -0.0404 H   0  0  0  0  0  0  0  0  0  0  0  0
    5.6905    0.0402   -2.5383 H   0  0  0  0  0  0  0  0  0  0  0  0
    4.6765    1.1996   -1.6881 H   0  0  0  0  0  0  0  0  0  0  0  0
    6.2878    0.8437   -1.0729 H   0  0  0  0  0  0  0  0  0  0  0  0
  1  5  1  0  0  0  0
  1 39  1  0  0  0  0
  2  4  1  0  0  0  0
  2  5  1  0  0  0  0
  2  9  1  0  0  0  0
  2 22  1  0  0  0  0
  3  5  1  0  0  0  0
  3  6  1  0  0  0  0
  3  7  1  0  0  0  0
  3 23  1  0  0  0  0
  4  8  1  0  0  0  0
  4 10  1  0  0  0  0
  4 24  1  0  0  0  0
  5 25  1  0  0  0  0
  6 11  1  0  0  0  0
  6 26  1  0  0  0  0
  6 27  1  0  0  0  0
  7 13  1  0  0  0  0
  7 14  1  0  0  0  0
  7 28  1  0  0  0  0
  8 12  1  0  0  0  0
  8 29  1  0  0  0  0
  8 30  1  0  0  0  0
  9 12  2  0  0  0  0
  9 15  1  0  0  0  0
 10 11  1  0  0  0  0
 10 16  2  0  0  0  0
 11 31  1  0  0  0  0
 11 32  1  0  0  0  0
 12 33  1  0  0  0  0
 13 17  1  0  0  0  0
 13 34  1  0  0  0  0
 13 35  1  0  0  0  0
 14 36  1  0  0  0  0
 14 37  1  0  0  0  0
 14 38  1  0  0  0  0
 15 40  1  0  0  0  0
 15 41  1  0  0  0  0
 15 42  1  0  0  0  0
 16 43  1  0  0  0  0
 16 44  1  0  0  0  0
 17 18  1  0  0  0  0
 17 45  1  0  0  0  0
 17 46  1  0  0  0  0
 18 19  2  0  0  0  0
 18 47  1  0  0  0  0
 19 20  1  0  0  0  0
 19 21  1  0  0  0  0
 20 48  1  0  0  0  0
 20 49  1  0  0  0  0
 20 50  1  0  0  0  0
 21 51  1  0  0  0  0
 21 52  1  0  0  0  0
 21 53  1  0  0  0  0
M  END
> <PUBCHEM_COMPOUND_CID>
122837

> <PUBCHEM_CONFORMER_RMSD>
0.8

> <PUBCHEM_CONFORMER_DIVERSEORDER>
6
29
15
5
9
20
17
19
4
26
14
30
21
12
23
3
1
11
22
7
16
28
10
8
2
27
24
13
25
18

> <PUBCHEM_MMFF94_PARTIAL_CHARGES>
21
1 -0.68
10 -0.28
11 0.14
12 -0.29
15 0.14
16 -0.3
17 0.14
18 -0.29
19 -0.28
2 0.14
20 0.14
21 0.14
33 0.15
39 0.4
4 0.14
43 0.15
44 0.15
47 0.15
5 0.28
8 0.14
9 -0.28

> <PUBCHEM_EFFECTIVE_ROTOR_COUNT>
5

> <PUBCHEM_PHARMACOPHORE_FEATURES>
7
1 1 acceptor
1 1 donor
1 14 hydrophobe
3 19 20 21 hydrophobe
4 7 13 17 18 hydrophobe
5 2 4 8 9 12 rings
7 2 3 4 5 6 10 11 rings

> <PUBCHEM_HEAVY_ATOM_COUNT>
21

> <PUBCHEM_ATOM_DEF_STEREO_COUNT>
5

> <PUBCHEM_ATOM_UDEF_STEREO_COUNT>
0

> <PUBCHEM_BOND_DEF_STEREO_COUNT>
0

> <PUBCHEM_BOND_UDEF_STEREO_COUNT>
0

> <PUBCHEM_ISOTOPIC_ATOM_COUNT>
0

> <PUBCHEM_COMPONENT_COUNT>
1

> <PUBCHEM_CACTVS_TAUTO_COUNT>
1

> <PUBCHEM_CONFORMER_ID>
0001DFD500000006

> <PUBCHEM_MMFF94_ENERGY>
53.0985

> <PUBCHEM_FEATURE_SELFOVERLAP>
35.556

> <PUBCHEM_SHAPE_FINGERPRINT>
10670039 82 9078822044409194458
107951 10 18269555103946342823
11595378 159 7204482351740226146
12363563 72 17894631444231984548
12553582 1 18336265734204400322
12788726 201 17753050784913880336
12892183 10 6988315020071959236
13544653 18 17168152221707570208
13994607 96 12751235908716065630
14251740 79 18339927111829633591
14251757 5 18343581854252335494
14251764 30 17985251985803327739
14790565 3 17830729112178818904
14950920 106 5617254772301509774
15163728 17 17341546498130056061
15463212 79 17561367287925387602
15475509 35 14278847689468211935
15475509 8 18197509433307782671
16945 1 18266763396673673329
18981168 100 11239733971187789852
20693207 138 18338243647911119460
20775530 9 17099196199347557198
20871999 31 18413389834625403356
21285901 2 17764619537371775719
21756936 100 15769775801150191212
22182313 1 18263940838397403936
23114952 82 18125164827040925956
23557571 272 17628085490184569857
23559900 14 18408891763449267560
23566358 27 18124298424979515825
27216 239 9655577400491429959
312425 83 17846777438622303798
329604 57 18339072693270109870
4280585 95 18339936995441003144
469060 322 10015281521517123029
484985 159 17531235192940894639
4921388 177 18271800233359156494
90316 7 5617260337719269131
9709674 26 18264221217951647552

> <PUBCHEM_SHAPE_MULTIPOLES>
426.3
9.39
3.27
1.89
17.95
0.49
0.12
4.27
5.89
-2.13
-0.66
-1.11
-0.08
1.18

> <PUBCHEM_SHAPE_SELFOVERLAP>
860.641

> <PUBCHEM_SHAPE_VOLUME>
250.9

> <PUBCHEM_COORDINATE_TYPE>
2
5
10

$$$$

