257279
  -OEChem-07051212573D

 38 40  0     1  0  0  0  0  0999 V2000
    2.8362    2.3035   -0.8893 O   0  0  0  0  0  0  0  0  0  0  0  0
   -2.8409   -0.8926   -0.8604 O   0  0  0  0  0  0  0  0  0  0  0  0
   -4.6767    0.1118    0.0955 O   0  0  0  0  0  0  0  0  0  0  0  0
    1.3173    0.4629   -0.4436 C   0  0  2  0  0  0  0  0  0  0  0  0
    2.6594    1.1414   -0.0855 C   0  0  1  0  0  0  0  0  0  0  0  0
    0.0984    1.1326    0.2005 C   0  0  0  0  0  0  0  0  0  0  0  0
    1.5610   -0.9894   -0.0613 C   0  0  0  0  0  0  0  0  0  0  0  0
   -1.2049    0.7611   -0.5054 C   0  0  1  0  0  0  0  0  0  0  0  0
    3.6729    0.0734   -0.5002 C   0  0  0  0  0  0  0  0  0  0  0  0
    3.0562   -1.2378   -0.0311 C   0  0  0  0  0  0  0  0  0  0  0  0
   -1.4065   -0.7211   -0.7860 C   0  0  1  0  0  0  0  0  0  0  0  0
    0.6380   -1.9106    0.2896 C   0  0  0  0  0  0  0  0  0  0  0  0
   -0.8622   -1.6956    0.2644 C   0  0  0  0  0  0  0  0  0  0  0  0
    2.8179    1.5381    1.3862 C   0  0  0  0  0  0  0  0  0  0  0  0
   -2.4678    1.0832    0.2199 C   0  0  0  0  0  0  0  0  0  0  0  0
    1.0187   -3.2946    0.7619 C   0  0  0  0  0  0  0  0  0  0  0  0
   -3.4853    0.0800   -0.1529 C   0  0  0  0  0  0  0  0  0  0  0  0
   -2.7318    2.0539    1.0979 C   0  0  0  0  0  0  0  0  0  0  0  0
    1.2011    0.5115   -1.5368 H   0  0  0  0  0  0  0  0  0  0  0  0
    0.0450    0.8774    1.2673 H   0  0  0  0  0  0  0  0  0  0  0  0
    0.2043    2.2237    0.1529 H   0  0  0  0  0  0  0  0  0  0  0  0
   -1.2441    1.2942   -1.4665 H   0  0  0  0  0  0  0  0  0  0  0  0
    4.6669    0.2389   -0.0709 H   0  0  0  0  0  0  0  0  0  0  0  0
    3.8011    0.0677   -1.5910 H   0  0  0  0  0  0  0  0  0  0  0  0
    3.3844   -1.4589    0.9908 H   0  0  0  0  0  0  0  0  0  0  0  0
    3.3527   -2.0579   -0.6923 H   0  0  0  0  0  0  0  0  0  0  0  0
   -1.0029   -0.9786   -1.7731 H   0  0  0  0  0  0  0  0  0  0  0  0
   -1.3441   -2.6642    0.0679 H   0  0  0  0  0  0  0  0  0  0  0  0
   -1.2018   -1.4156    1.2701 H   0  0  0  0  0  0  0  0  0  0  0  0
    2.6446    0.7010    2.0691 H   0  0  0  0  0  0  0  0  0  0  0  0
    3.8278    1.9237    1.5685 H   0  0  0  0  0  0  0  0  0  0  0  0
    2.1343    2.3505    1.6553 H   0  0  0  0  0  0  0  0  0  0  0  0
    2.1623    2.9552   -0.6329 H   0  0  0  0  0  0  0  0  0  0  0  0
    2.0971   -3.4517    0.8431 H   0  0  0  0  0  0  0  0  0  0  0  0
    0.6308   -4.0486    0.0687 H   0  0  0  0  0  0  0  0  0  0  0  0
    0.5902   -3.4818    1.7525 H   0  0  0  0  0  0  0  0  0  0  0  0
   -1.9745    2.7794    1.3741 H   0  0  0  0  0  0  0  0  0  0  0  0
   -3.7071    2.1546    1.5621 H   0  0  0  0  0  0  0  0  0  0  0  0
  1  5  1  0  0  0  0
  1 33  1  0  0  0  0
  2 11  1  0  0  0  0
  2 17  1  0  0  0  0
  3 17  2  0  0  0  0
  4  5  1  0  0  0  0
  4  6  1  0  0  0  0
  4  7  1  0  0  0  0
  4 19  1  0  0  0  0
  5  9  1  0  0  0  0
  5 14  1  0  0  0  0
  6  8  1  0  0  0  0
  6 20  1  0  0  0  0
  6 21  1  0  0  0  0
  7 10  1  0  0  0  0
  7 12  2  0  0  0  0
  8 11  1  0  0  0  0
  8 15  1  0  0  0  0
  8 22  1  0  0  0  0
  9 10  1  0  0  0  0
  9 23  1  0  0  0  0
  9 24  1  0  0  0  0
 10 25  1  0  0  0  0
 10 26  1  0  0  0  0
 11 13  1  0  0  0  0
 11 27  1  0  0  0  0
 12 13  1  0  0  0  0
 12 16  1  0  0  0  0
 13 28  1  0  0  0  0
 13 29  1  0  0  0  0
 14 30  1  0  0  0  0
 14 31  1  0  0  0  0
 14 32  1  0  0  0  0
 15 17  1  0  0  0  0
 15 18  2  0  0  0  0
 16 34  1  0  0  0  0
 16 35  1  0  0  0  0
 16 36  1  0  0  0  0
 18 37  1  0  0  0  0
 18 38  1  0  0  0  0
M  END
> <PUBCHEM_COMPOUND_CID>
257279

> <PUBCHEM_CONFORMER_RMSD>
0.6

> <PUBCHEM_CONFORMER_DIVERSEORDER>
3
4
5
1
2

> <PUBCHEM_MMFF94_PARTIAL_CHARGES>
18
1 -0.68
10 0.14
11 0.28
12 -0.28
13 0.14
15 -0.12
16 0.14
17 0.71
18 -0.3
2 -0.43
3 -0.57
33 0.4
37 0.15
38 0.15
4 0.14
5 0.28
7 -0.28
8 0.14

> <PUBCHEM_EFFECTIVE_ROTOR_COUNT>
1.2

> <PUBCHEM_PHARMACOPHORE_FEATURES>
6
1 1 acceptor
1 1 donor
1 3 acceptor
5 2 8 11 15 17 rings
5 4 5 7 9 10 rings
7 4 6 7 8 11 12 13 rings

> <PUBCHEM_HEAVY_ATOM_COUNT>
18

> <PUBCHEM_ATOM_DEF_STEREO_COUNT>
4

> <PUBCHEM_ATOM_UDEF_STEREO_COUNT>
0

> <PUBCHEM_BOND_DEF_STEREO_COUNT>
0

> <PUBCHEM_BOND_UDEF_STEREO_COUNT>
0

> <PUBCHEM_ISOTOPIC_ATOM_COUNT>
0

> <PUBCHEM_COMPONENT_COUNT>
1

> <PUBCHEM_CACTVS_TAUTO_COUNT>
1

> <PUBCHEM_CONFORMER_ID>
0003ECFF00000003

> <PUBCHEM_MMFF94_ENERGY>
46.6559

> <PUBCHEM_FEATURE_SELFOVERLAP>
30.508

> <PUBCHEM_SHAPE_FINGERPRINT>
10967382 1 18412263951882742070
10980938 120 18339922739573869283
11132069 177 18337963302558111253
11471102 20 18341335577582054679
12491281 212 18335412482689037904
12553582 1 17404303391722465811
12788726 201 17408806523472435274
13140716 1 18340494374151909274
13221675 6 18336265755399758975
13764800 53 18198899219255221003
14178342 30 18194977454821796632
14223421 5 18269835470715800759
14787075 74 18194961843016439515
15196674 1 18410575050561998391
15209289 33 18410853304534841494
15279307 12 18408041827253259319
15309172 13 18272928302029161773
15375462 189 18194678395969050467
15442244 35 18119809372168545114
15536298 74 18260551138485204390
15775835 57 18335698355717625245
16945 1 18270688687190877598
18186145 218 18411141333272761716
19422 9 18260826037824773917
201361 129 18337948012337290099
20510252 161 18050843321365337242
20559304 39 18266464389271130098
20645477 70 18335989774097637991
20671657 1 18337955696319067434
21267235 1 18335974350379590695
21501502 16 18407759235579536532
21524375 3 18408039610955124078
22445834 79 18265897037144762483
2255824 54 18342453768513061814
22854114 111 18411981394484446089
2334 1 18339643317765599398
23419403 2 15816840044268926478
23463225 33 18338799021452280389
23559900 14 18336257961194562436
25 1 18412823607744063870
2748010 2 18269829827013034606
2871803 45 18410860975309275301
350125 39 18338515356132296197
4340502 62 17989483031548713451
458136 41 18270943743855372986
474 4 18342736303909000565
5104073 3 18408603678106289331
526903 126 18117845403988754833
6333272 397 18342173332470056841
633830 44 18408039593806845325
69090 78 17894635833498715623
7097593 13 17976821218198036811
7364860 26 18262803002787189814
7832392 63 17974849780642454169
81228 2 17766847117469375970
9981440 41 17829906334563542056

> <PUBCHEM_SHAPE_MULTIPOLES>
352.82
6.46
2.69
0.97
3.24
1.2
0.14
-2
-0.11
-1.26
0.72
-0.16
-0.23
-0.61

> <PUBCHEM_SHAPE_SELFOVERLAP>
756.604

> <PUBCHEM_SHAPE_VOLUME>
197

> <PUBCHEM_COORDINATE_TYPE>
2
5
10

$$$$

