5281391
  -OEChem-07051212562D

 95 98  0     1  0  0  0  0  0999 V2000
    6.4004    0.8376    0.0000 O   0  0  0  0  0  0  0  0  0  0  0  0
    5.4554    1.2991    0.0000 O   0  0  0  0  0  0  0  0  0  0  0  0
    6.1826    3.9058    0.0000 O   0  0  0  0  0  0  0  0  0  0  0  0
    8.1080    6.0105    0.0000 O   0  0  0  0  0  0  0  0  0  0  0  0
    7.3871   -0.5859    0.0000 O   0  0  0  0  0  0  0  0  0  0  0  0
    7.2845    6.9938    0.0000 O   0  0  0  0  0  0  0  0  0  0  0  0
   10.7631    3.9363    0.0000 O   0  0  0  0  0  0  0  0  0  0  0  0
    4.4852    2.7339    0.0000 O   0  0  0  0  0  0  0  0  0  0  0  0
    8.0784    2.0007    0.0000 C   0  0  1  0  0  0  0  0  0  0  0  0
    7.2223    1.4073    0.0000 C   0  0  1  0  0  0  0  0  0  0  0  0
    8.1645    0.9621    0.0000 C   0  0  0  0  0  0  0  0  0  0  0  0
    7.9845    3.0381    0.0000 C   0  0  1  0  0  0  0  0  0  0  0  0
    6.2838    1.8592    0.0000 C   0  0  1  0  0  0  0  0  0  0  0  0
    7.0835    3.4719    0.0000 C   0  0  1  0  0  0  0  0  0  0  0  0
    6.2140    2.8985    0.0000 C   0  0  2  0  0  0  0  0  0  0  0  0
    9.1611    1.0446    0.0000 C   0  0  0  0  0  0  0  0  0  0  0  0
    7.7376    0.0579    0.0000 C   0  0  0  0  0  0  0  0  0  0  0  0
    6.8610    4.4469    0.0000 C   0  0  1  0  0  0  0  0  0  0  0  0
    8.8855    3.4719    0.0000 C   0  0  0  0  0  0  0  0  0  0  0  0
    7.4845    5.2287    0.0000 C   0  0  1  0  0  0  0  0  0  0  0  0
    5.2160    2.8353    0.0000 C   0  0  0  0  0  0  0  0  0  0  0  0
    9.1080    4.4469    0.0000 C   0  0  0  0  0  0  0  0  0  0  0  0
    8.4845    5.2287    0.0000 C   0  0  0  0  0  0  0  0  0  0  0  0
    5.9312    4.7986    0.0000 C   0  0  0  0  0  0  0  0  0  0  0  0
    6.4828   -0.1590    0.0000 C   0  0  0  0  0  0  0  0  0  0  0  0
    6.9347    6.0569    0.0000 C   0  0  0  0  0  0  0  0  0  0  0  0
    5.9767    5.7916    0.0000 C   0  0  0  0  0  0  0  0  0  0  0  0
    4.5561    1.7364    0.0000 C   0  0  0  0  0  0  0  0  0  0  0  0
   10.0829    4.6694    0.0000 C   0  0  0  0  0  0  0  0  0  0  0  0
    5.6609   -0.7287    0.0000 C   0  0  0  0  0  0  0  0  0  0  0  0
    5.1949    6.4151    0.0000 C   0  0  0  0  0  0  0  0  0  0  0  0
    3.7277    1.1763    0.0000 C   0  0  0  0  0  0  0  0  0  0  0  0
    5.7434   -1.7253    0.0000 C   0  0  0  0  0  0  0  0  0  0  0  0
    4.9215   -2.2949    0.0000 C   0  0  0  0  0  0  0  0  0  0  0  0
    3.7986    0.1788    0.0000 C   0  0  0  0  0  0  0  0  0  0  0  0
    2.8284    1.6137    0.0000 C   0  0  0  0  0  0  0  0  0  0  0  0
    5.0039   -3.2915    0.0000 C   0  0  0  0  0  0  0  0  0  0  0  0
    2.0000    1.0535    0.0000 C   0  0  0  0  0  0  0  0  0  0  0  0
    4.1820   -3.8612    0.0000 C   0  0  0  0  0  0  0  0  0  0  0  0
    4.2644   -4.8578    0.0000 C   0  0  0  0  0  0  0  0  0  0  0  0
    3.4426   -5.4275    0.0000 C   0  0  0  0  0  0  0  0  0  0  0  0
    3.5250   -6.4241    0.0000 C   0  0  0  0  0  0  0  0  0  0  0  0
    2.7031   -6.9938    0.0000 C   0  0  0  0  0  0  0  0  0  0  0  0
    8.9252    2.0741    0.0000 H   0  0  0  0  0  0  0  0  0  0  0  0
    8.7239    2.6188    0.0000 H   0  0  0  0  0  0  0  0  0  0  0  0
    5.7268    2.1315    0.0000 H   0  0  0  0  0  0  0  0  0  0  0  0
    6.0171    3.4864    0.0000 H   0  0  0  0  0  0  0  0  0  0  0  0
    9.2122    0.4267    0.0000 H   0  0  0  0  0  0  0  0  0  0  0  0
    9.7790    1.0956    0.0000 H   0  0  0  0  0  0  0  0  0  0  0  0
    9.1100    1.6624    0.0000 H   0  0  0  0  0  0  0  0  0  0  0  0
    7.1769    0.3225    0.0000 H   0  0  0  0  0  0  0  0  0  0  0  0
    7.4729   -0.5028    0.0000 H   0  0  0  0  0  0  0  0  0  0  0  0
    8.2982   -0.2068    0.0000 H   0  0  0  0  0  0  0  0  0  0  0  0
    6.2202    3.8884    0.0000 H   0  0  0  0  0  0  0  0  0  0  0  0
    9.3702    3.0854    0.0000 H   0  0  0  0  0  0  0  0  0  0  0  0
    5.1768    3.4541    0.0000 H   0  0  0  0  0  0  0  0  0  0  0  0
    4.5972    2.7961    0.0000 H   0  0  0  0  0  0  0  0  0  0  0  0
    5.2551    2.2165    0.0000 H   0  0  0  0  0  0  0  0  0  0  0  0
    5.5643    3.8595    0.0000 H   0  0  0  0  0  0  0  0  0  0  0  0
    9.0431    5.4977    0.0000 H   0  0  0  0  0  0  0  0  0  0  0  0
    8.3466    5.8332    0.0000 H   0  0  0  0  0  0  0  0  0  0  0  0
    5.4132    4.4579    0.0000 H   0  0  0  0  0  0  0  0  0  0  0  0
    8.7211    5.9181    0.0000 H   0  0  0  0  0  0  0  0  0  0  0  0
   10.6037    5.0058    0.0000 H   0  0  0  0  0  0  0  0  0  0  0  0
    9.8421    5.2407    0.0000 H   0  0  0  0  0  0  0  0  0  0  0  0
    5.4016   -0.1655    0.0000 H   0  0  0  0  0  0  0  0  0  0  0  0
    5.0613   -0.8863    0.0000 H   0  0  0  0  0  0  0  0  0  0  0  0
    5.5814    6.8998    0.0000 H   0  0  0  0  0  0  0  0  0  0  0  0
    4.7101    6.8017    0.0000 H   0  0  0  0  0  0  0  0  0  0  0  0
    4.8083    5.9304    0.0000 H   0  0  0  0  0  0  0  0  0  0  0  0
    6.0027   -2.2884    0.0000 H   0  0  0  0  0  0  0  0  0  0  0  0
    6.3430   -1.5676    0.0000 H   0  0  0  0  0  0  0  0  0  0  0  0
   11.3676    4.0743    0.0000 H   0  0  0  0  0  0  0  0  0  0  0  0
    4.6621   -1.7318    0.0000 H   0  0  0  0  0  0  0  0  0  0  0  0
    4.3219   -2.4526    0.0000 H   0  0  0  0  0  0  0  0  0  0  0  0
    3.1801    0.1349    0.0000 H   0  0  0  0  0  0  0  0  0  0  0  0
    3.8425   -0.4396    0.0000 H   0  0  0  0  0  0  0  0  0  0  0  0
    4.4170    0.2228    0.0000 H   0  0  0  0  0  0  0  0  0  0  0  0
    2.7844    2.2321    0.0000 H   0  0  0  0  0  0  0  0  0  0  0  0
    5.2632   -3.8547    0.0000 H   0  0  0  0  0  0  0  0  0  0  0  0
    5.6035   -3.1339    0.0000 H   0  0  0  0  0  0  0  0  0  0  0  0
    1.6527    1.5672    0.0000 H   0  0  0  0  0  0  0  0  0  0  0  0
    1.4864    0.7063    0.0000 H   0  0  0  0  0  0  0  0  0  0  0  0
    2.3473    0.5399    0.0000 H   0  0  0  0  0  0  0  0  0  0  0  0
    3.9227   -3.2981    0.0000 H   0  0  0  0  0  0  0  0  0  0  0  0
    3.5824   -4.0188    0.0000 H   0  0  0  0  0  0  0  0  0  0  0  0
    4.5238   -5.4210    0.0000 H   0  0  0  0  0  0  0  0  0  0  0  0
    4.8641   -4.7002    0.0000 H   0  0  0  0  0  0  0  0  0  0  0  0
    3.1832   -4.8643    0.0000 H   0  0  0  0  0  0  0  0  0  0  0  0
    2.8429   -5.5851    0.0000 H   0  0  0  0  0  0  0  0  0  0  0  0
    3.7843   -6.9872    0.0000 H   0  0  0  0  0  0  0  0  0  0  0  0
    4.1246   -6.2665    0.0000 H   0  0  0  0  0  0  0  0  0  0  0  0
    2.3499   -6.4842    0.0000 H   0  0  0  0  0  0  0  0  0  0  0  0
    2.1936   -7.3470    0.0000 H   0  0  0  0  0  0  0  0  0  0  0  0
    3.0563   -7.5033    0.0000 H   0  0  0  0  0  0  0  0  0  0  0  0
 10  1  1  1  0  0  0
  1 25  1  0  0  0  0
 13  2  1  6  0  0  0
  2 28  1  0  0  0  0
 14  3  1  1  0  0  0
  3 59  1  0  0  0  0
 20  4  1  6  0  0  0
  4 63  1  0  0  0  0
  5 25  2  0  0  0  0
  6 26  2  0  0  0  0
  7 29  1  0  0  0  0
  7 73  1  0  0  0  0
  8 28  2  0  0  0  0
  9 10  1  0  0  0  0
  9 11  1  0  0  0  0
  9 12  1  0  0  0  0
  9 44  1  1  0  0  0
 10 11  1  0  0  0  0
 10 13  1  0  0  0  0
 11 16  1  0  0  0  0
 11 17  1  0  0  0  0
 12 14  1  0  0  0  0
 12 19  1  0  0  0  0
 12 45  1  6  0  0  0
 13 15  1  0  0  0  0
 13 46  1  0  0  0  0
 14 15  1  0  0  0  0
 14 18  1  0  0  0  0
 15 21  1  1  0  0  0
 15 47  1  0  0  0  0
 16 48  1  0  0  0  0
 16 49  1  0  0  0  0
 16 50  1  0  0  0  0
 17 51  1  0  0  0  0
 17 52  1  0  0  0  0
 17 53  1  0  0  0  0
 18 20  1  0  0  0  0
 18 24  1  0  0  0  0
 18 54  1  1  0  0  0
 19 22  2  0  0  0  0
 19 55  1  0  0  0  0
 20 23  1  0  0  0  0
 20 26  1  0  0  0  0
 21 56  1  0  0  0  0
 21 57  1  0  0  0  0
 21 58  1  0  0  0  0
 22 23  1  0  0  0  0
 22 29  1  0  0  0  0
 23 60  1  0  0  0  0
 23 61  1  0  0  0  0
 24 27  2  0  0  0  0
 24 62  1  0  0  0  0
 25 30  1  0  0  0  0
 26 27  1  0  0  0  0
 27 31  1  0  0  0  0
 28 32  1  0  0  0  0
 29 64  1  0  0  0  0
 29 65  1  0  0  0  0
 30 33  1  0  0  0  0
 30 66  1  0  0  0  0
 30 67  1  0  0  0  0
 31 68  1  0  0  0  0
 31 69  1  0  0  0  0
 31 70  1  0  0  0  0
 32 35  1  0  0  0  0
 32 36  2  0  0  0  0
 33 34  1  0  0  0  0
 33 71  1  0  0  0  0
 33 72  1  0  0  0  0
 34 37  1  0  0  0  0
 34 74  1  0  0  0  0
 34 75  1  0  0  0  0
 35 76  1  0  0  0  0
 35 77  1  0  0  0  0
 35 78  1  0  0  0  0
 36 38  1  0  0  0  0
 36 79  1  0  0  0  0
 37 39  1  0  0  0  0
 37 80  1  0  0  0  0
 37 81  1  0  0  0  0
 38 82  1  0  0  0  0
 38 83  1  0  0  0  0
 38 84  1  0  0  0  0
 39 40  1  0  0  0  0
 39 85  1  0  0  0  0
 39 86  1  0  0  0  0
 40 41  1  0  0  0  0
 40 87  1  0  0  0  0
 40 88  1  0  0  0  0
 41 42  1  0  0  0  0
 41 89  1  0  0  0  0
 41 90  1  0  0  0  0
 42 43  1  0  0  0  0
 42 91  1  0  0  0  0
 42 92  1  0  0  0  0
 43 93  1  0  0  0  0
 43 94  1  0  0  0  0
 43 95  1  0  0  0  0
M  END
> <PUBCHEM_COMPOUND_CID>
5281391

> <PUBCHEM_COMPOUND_CANONICALIZED>
1

> <PUBCHEM_CACTVS_COMPLEXITY>
1210

> <PUBCHEM_CACTVS_HBOND_ACCEPTOR>
8

> <PUBCHEM_CACTVS_HBOND_DONOR>
3

> <PUBCHEM_CACTVS_ROTATABLE_BOND>
14

> <PUBCHEM_CACTVS_SUBSKEYS>
AAADcfB8PAAAAAAAAAAAAAAAGAAAAQAAAAAwAAAABggAAACAAAAAGgAACAAAD1SggAICCAAABgCIAqDSCAIAAAAgAAAACAFAAEgBFBIAIQACUAAFwAAKMYPK7PyPgAAAAAAAAADCAAYQADCAAAAAAAAAAA==

> <PUBCHEM_IUPAC_INCHI>
InChI=1S/C35H52O8/c1-8-10-11-12-13-14-15-16-27(37)43-35-28(32(35,6)7)25-18-24(20-36)19-33(40)26(17-22(4)29(33)38)34(25,41)23(5)30(35)42-31(39)21(3)9-2/h9,17-18,23,25-26,28,30,36,40-41H,8,10-16,19-20H2,1-7H3/b21-9+/t23-,25+,26-,28-,30-,33-,34-,35-/m1/s1

> <PUBCHEM_IUPAC_INCHIKEY>
QWYNFKKVBDGBLL-KFWZAFQTSA-N

> <PUBCHEM_XLOGP3_AA>
5.6

> <PUBCHEM_EXACT_MASS>
600.366219

> <PUBCHEM_MOLECULAR_FORMULA>
C35H52O8

> <PUBCHEM_MOLECULAR_WEIGHT>
600.78258

> <PUBCHEM_OPENEYE_CAN_SMILES>
CCCCCCCCCC(=O)OC12C(C1(C)C)C3C=C(CC4(C(C3(C(C2OC(=O)C(=CC)C)C)O)C=C(C4=O)C)O)CO

> <PUBCHEM_OPENEYE_ISO_SMILES>
CCCCCCCCCC(=O)O[C@@]12[C@@H](C1(C)C)[C@@H]3C=C(C[C@]4([C@H]([C@]3([C@@H]([C@H]2OC(=O)/C(=C/C)/C)C)O)C=C(C4=O)C)O)CO

> <PUBCHEM_CACTVS_TPSA>
130

> <PUBCHEM_MONOISOTOPIC_WEIGHT>
600.366219

> <PUBCHEM_TOTAL_CHARGE>
0

> <PUBCHEM_HEAVY_ATOM_COUNT>
43

> <PUBCHEM_ATOM_DEF_STEREO_COUNT>
8

> <PUBCHEM_ATOM_UDEF_STEREO_COUNT>
0

> <PUBCHEM_BOND_DEF_STEREO_COUNT>
1

> <PUBCHEM_BOND_UDEF_STEREO_COUNT>
0

> <PUBCHEM_ISOTOPIC_ATOM_COUNT>
0

> <PUBCHEM_COMPONENT_COUNT>
1

> <PUBCHEM_CACTVS_TAUTO_COUNT>
3

> <PUBCHEM_COORDINATE_TYPE>
1
5
255

> <PUBCHEM_BONDANNOTATIONS>
10  1  5
12  45  6
15  21  5
18  54  5
13  2  6
14  3  5
20  4  6
9  44  5

$$$$

