440017
  -OEChem-07051212483D

 28 29  0     1  0  0  0  0  0999 V2000
    2.8363    0.1904   -0.1625 O   0  0  0  0  0  0  0  0  0  0  0  0
   -0.3899   -2.5745    0.1702 O   0  0  0  0  0  0  0  0  0  0  0  0
   -0.7524    0.9004    0.3335 C   0  0  0  0  0  0  0  0  0  0  0  0
   -0.5767   -0.2730   -0.6725 C   0  0  1  0  0  0  0  0  0  0  0  0
    0.6748    0.6939    0.9174 C   0  0  2  0  0  0  0  0  0  0  0  0
    0.7334    0.0657   -1.4275 C   0  0  0  0  0  0  0  0  0  0  0  0
    1.5694    0.7943   -0.3488 C   0  0  2  0  0  0  0  0  0  0  0  0
    0.6679   -0.7754    1.4146 C   0  0  0  0  0  0  0  0  0  0  0  0
   -0.1443   -1.3842    0.2895 C   0  0  0  0  0  0  0  0  0  0  0  0
   -0.9757    2.2812   -0.3140 C   0  0  0  0  0  0  0  0  0  0  0  0
   -1.8928    0.7079    1.3547 C   0  0  0  0  0  0  0  0  0  0  0  0
   -1.7500   -0.6267   -1.5545 C   0  0  0  0  0  0  0  0  0  0  0  0
    0.9706    1.3943    1.7029 H   0  0  0  0  0  0  0  0  0  0  0  0
    0.5421    0.7316   -2.2762 H   0  0  0  0  0  0  0  0  0  0  0  0
    1.2416   -0.8281   -1.8079 H   0  0  0  0  0  0  0  0  0  0  0  0
    1.7412    1.8367   -0.6369 H   0  0  0  0  0  0  0  0  0  0  0  0
    0.1426   -0.8868    2.3657 H   0  0  0  0  0  0  0  0  0  0  0  0
    1.6612   -1.2235    1.4738 H   0  0  0  0  0  0  0  0  0  0  0  0
   -0.2834    2.5180   -1.1247 H   0  0  0  0  0  0  0  0  0  0  0  0
   -1.9831    2.3506   -0.7406 H   0  0  0  0  0  0  0  0  0  0  0  0
   -0.8769    3.0734    0.4369 H   0  0  0  0  0  0  0  0  0  0  0  0
   -1.9313   -0.2902    1.7992 H   0  0  0  0  0  0  0  0  0  0  0  0
   -1.7958    1.4285    2.1746 H   0  0  0  0  0  0  0  0  0  0  0  0
   -2.8687    0.8697    0.8824 H   0  0  0  0  0  0  0  0  0  0  0  0
   -1.5043   -1.4676   -2.2125 H   0  0  0  0  0  0  0  0  0  0  0  0
   -2.6199   -0.9265   -0.9609 H   0  0  0  0  0  0  0  0  0  0  0  0
   -2.0429    0.2178   -2.1861 H   0  0  0  0  0  0  0  0  0  0  0  0
    3.2649    0.6400    0.5856 H   0  0  0  0  0  0  0  0  0  0  0  0
  1  7  1  0  0  0  0
  1 28  1  0  0  0  0
  2  9  2  0  0  0  0
  3  4  1  0  0  0  0
  3  5  1  0  0  0  0
  3 10  1  0  0  0  0
  3 11  1  0  0  0  0
  4  6  1  0  0  0  0
  4  9  1  0  0  0  0
  4 12  1  0  0  0  0
  5  7  1  0  0  0  0
  5  8  1  0  0  0  0
  5 13  1  0  0  0  0
  6  7  1  0  0  0  0
  6 14  1  0  0  0  0
  6 15  1  0  0  0  0
  7 16  1  0  0  0  0
  8  9  1  0  0  0  0
  8 17  1  0  0  0  0
  8 18  1  0  0  0  0
 10 19  1  0  0  0  0
 10 20  1  0  0  0  0
 10 21  1  0  0  0  0
 11 22  1  0  0  0  0
 11 23  1  0  0  0  0
 11 24  1  0  0  0  0
 12 25  1  0  0  0  0
 12 26  1  0  0  0  0
 12 27  1  0  0  0  0
M  END
> <PUBCHEM_COMPOUND_CID>
440017

> <PUBCHEM_CONFORMER_RMSD>
0.4

> <PUBCHEM_CONFORMER_DIVERSEORDER>
2
1
4
3

> <PUBCHEM_MMFF94_PARTIAL_CHARGES>
7
1 -0.68
2 -0.57
28 0.4
4 0.06
7 0.28
8 0.06
9 0.45

> <PUBCHEM_EFFECTIVE_ROTOR_COUNT>
0.8

> <PUBCHEM_PHARMACOPHORE_FEATURES>
5
1 1 acceptor
1 1 donor
1 2 acceptor
3 3 10 11 hydrophobe
7 3 4 5 6 7 8 9 rings

> <PUBCHEM_HEAVY_ATOM_COUNT>
12

> <PUBCHEM_ATOM_DEF_STEREO_COUNT>
0

> <PUBCHEM_ATOM_UDEF_STEREO_COUNT>
3

> <PUBCHEM_BOND_DEF_STEREO_COUNT>
0

> <PUBCHEM_BOND_UDEF_STEREO_COUNT>
0

> <PUBCHEM_ISOTOPIC_ATOM_COUNT>
0

> <PUBCHEM_COMPONENT_COUNT>
1

> <PUBCHEM_CACTVS_TAUTO_COUNT>
2

> <PUBCHEM_CONFORMER_ID>
0006B6D100000002

> <PUBCHEM_MMFF94_ENERGY>
52.9734

> <PUBCHEM_FEATURE_SELFOVERLAP>
25.371

> <PUBCHEM_SHAPE_FINGERPRINT>
10702982 57 18265054806784526884
12423570 1 5179587390547088013
13024252 1 15554168052143762972
137420 1 12240097923944735225
15557651 10 18042113418084348841
16945 1 18340196427927820604
241688 4 18187375285271663041
369184 2 18410286983058434120
5084963 1 18114475525356147968
54276843 12 17703210854670893708

> <PUBCHEM_SHAPE_MULTIPOLES>
235.22
2.2
1.94
1.48
0.65
0.54
0.05
-0.67
0.1
-0.42
-0.01
-0.32
0.15
-0.37

> <PUBCHEM_SHAPE_SELFOVERLAP>
502.169

> <PUBCHEM_SHAPE_VOLUME>
137.6

> <PUBCHEM_COORDINATE_TYPE>
2
5
10

$$$$

