156003
  -OEChem-07051213132D

 35 37  0     1  0  0  0  0  0999 V2000
    2.0000    3.0981    0.0000 Cl  0  0  0  0  0  0  0  0  0  0  0  0
    5.5443    2.9028    0.0000 S   0  0  0  0  0  0  0  0  0  0  0  0
    9.1279   -1.3660    0.0000 O   0  0  0  0  0  0  0  0  0  0  0  0
    7.1279    2.0981    0.0000 O   0  0  0  0  0  0  0  0  0  0  0  0
   11.6279   -2.2320    0.0000 O   0  0  0  0  0  0  0  0  0  0  0  0
   10.1279   -3.0981    0.0000 O   0  0  0  0  0  0  0  0  0  0  0  0
    5.5443    1.2933    0.0000 N   0  0  0  0  0  0  0  0  0  0  0  0
   10.1279   -1.3660    0.0000 C   0  0  3  0  0  0  0  0  0  0  0  0
    4.5981    2.5981    0.0000 C   0  0  0  0  0  0  0  0  0  0  0  0
    4.5981    1.5981    0.0000 C   0  0  0  0  0  0  0  0  0  0  0  0
    8.6279   -0.5000    0.0000 C   0  0  0  0  0  0  0  0  0  0  0  0
    7.6279    1.2320    0.0000 C   0  0  0  0  0  0  0  0  0  0  0  0
    6.1279    2.0981    0.0000 C   0  0  0  0  0  0  0  0  0  0  0  0
    9.1279    0.3660    0.0000 C   0  0  0  0  0  0  0  0  0  0  0  0
    7.6279   -0.5000    0.0000 C   0  0  0  0  0  0  0  0  0  0  0  0
    8.6279    1.2320    0.0000 C   0  0  0  0  0  0  0  0  0  0  0  0
    7.1279    0.3660    0.0000 C   0  0  0  0  0  0  0  0  0  0  0  0
    3.7320    3.0981    0.0000 C   0  0  0  0  0  0  0  0  0  0  0  0
    3.7320    1.0981    0.0000 C   0  0  0  0  0  0  0  0  0  0  0  0
   10.6279   -0.5000    0.0000 C   0  0  0  0  0  0  0  0  0  0  0  0
    2.8660    2.5981    0.0000 C   0  0  0  0  0  0  0  0  0  0  0  0
    2.8660    1.5981    0.0000 C   0  0  0  0  0  0  0  0  0  0  0  0
   10.6279   -2.2320    0.0000 C   0  0  0  0  0  0  0  0  0  0  0  0
    9.8179   -0.8291    0.0000 H   0  0  0  0  0  0  0  0  0  0  0  0
    9.7479    0.3660    0.0000 H   0  0  0  0  0  0  0  0  0  0  0  0
    7.3179   -1.0369    0.0000 H   0  0  0  0  0  0  0  0  0  0  0  0
    8.9379    1.7690    0.0000 H   0  0  0  0  0  0  0  0  0  0  0  0
    6.5079    0.3660    0.0000 H   0  0  0  0  0  0  0  0  0  0  0  0
    3.7320    3.7181    0.0000 H   0  0  0  0  0  0  0  0  0  0  0  0
    3.7320    0.4781    0.0000 H   0  0  0  0  0  0  0  0  0  0  0  0
   11.1648   -0.8100    0.0000 H   0  0  0  0  0  0  0  0  0  0  0  0
   10.9379    0.0369    0.0000 H   0  0  0  0  0  0  0  0  0  0  0  0
   10.0910   -0.1900    0.0000 H   0  0  0  0  0  0  0  0  0  0  0  0
    2.3291    1.2881    0.0000 H   0  0  0  0  0  0  0  0  0  0  0  0
   11.9379   -2.7690    0.0000 H   0  0  0  0  0  0  0  0  0  0  0  0
  1 21  1  0  0  0  0
  2  9  1  0  0  0  0
  2 13  1  0  0  0  0
  3  8  1  0  0  0  0
  3 11  1  0  0  0  0
  4 12  1  0  0  0  0
  4 13  1  0  0  0  0
  5 23  1  0  0  0  0
  5 35  1  0  0  0  0
  6 23  2  0  0  0  0
  7 10  1  0  0  0  0
  7 13  2  0  0  0  0
  8 20  1  0  0  0  0
  8 23  1  0  0  0  0
  8 24  1  0  0  0  0
  9 10  2  0  0  0  0
  9 18  1  0  0  0  0
 10 19  1  0  0  0  0
 11 14  2  0  0  0  0
 11 15  1  0  0  0  0
 12 16  2  0  0  0  0
 12 17  1  0  0  0  0
 14 16  1  0  0  0  0
 14 25  1  0  0  0  0
 15 17  2  0  0  0  0
 15 26  1  0  0  0  0
 16 27  1  0  0  0  0
 17 28  1  0  0  0  0
 18 21  2  0  0  0  0
 18 29  1  0  0  0  0
 19 22  2  0  0  0  0
 19 30  1  0  0  0  0
 20 31  1  0  0  0  0
 20 32  1  0  0  0  0
 20 33  1  0  0  0  0
 21 22  1  0  0  0  0
 22 34  1  0  0  0  0
M  END
> <PUBCHEM_COMPOUND_CID>
156003

> <PUBCHEM_COMPOUND_CANONICALIZED>
1

> <PUBCHEM_CACTVS_COMPLEXITY>
419

> <PUBCHEM_CACTVS_HBOND_ACCEPTOR>
6

> <PUBCHEM_CACTVS_HBOND_DONOR>
1

> <PUBCHEM_CACTVS_ROTATABLE_BOND>
5

> <PUBCHEM_CACTVS_SUBSKEYS>
AAADccB6OABEAAAAAAAAAAAAAAAAAWAAAAAwYAAAAAAAAFgB9AAAHgYACAAACB6h1iIyz7IIFgisASTyTAKD+KBhLzhImD12bpgNJqLls5+OeCjkwBFL6AfQQAAAAQBAABAAAQACAIAAIAACAAAAAAAAAA==

> <PUBCHEM_IUPAC_OPENEYE_NAME>
2-[4-[(6-chloro-1,3-benzothiazol-2-yl)oxy]phenoxy]propanoic acid

> <PUBCHEM_IUPAC_CAS_NAME>
2-[4-[(6-chloro-1,3-benzothiazol-2-yl)oxy]phenoxy]propanoic acid

> <PUBCHEM_IUPAC_NAME>
2-[4-[(6-chloro-1,3-benzothiazol-2-yl)oxy]phenoxy]propanoic acid

> <PUBCHEM_IUPAC_SYSTEMATIC_NAME>
2-[4-[(6-chloranyl-1,3-benzothiazol-2-yl)oxy]phenoxy]propanoic acid

> <PUBCHEM_IUPAC_TRADITIONAL_NAME>
2-[4-[(6-chloro-1,3-benzothiazol-2-yl)oxy]phenoxy]propionic acid

> <PUBCHEM_IUPAC_INCHI>
InChI=1S/C16H12ClNO4S/c1-9(15(19)20)21-11-3-5-12(6-4-11)22-16-18-13-7-2-10(17)8-14(13)23-16/h2-9H,1H3,(H,19,20)

> <PUBCHEM_IUPAC_INCHIKEY>
WHWHBAUZDPEHEM-UHFFFAOYSA-N

> <PUBCHEM_XLOGP3_AA>
4.8

> <PUBCHEM_EXACT_MASS>
349.017557

> <PUBCHEM_MOLECULAR_FORMULA>
C16H12ClNO4S

> <PUBCHEM_MOLECULAR_WEIGHT>
349.78878

> <PUBCHEM_OPENEYE_CAN_SMILES>
CC(C(=O)O)OC1=CC=C(C=C1)OC2=NC3=C(S2)C=C(C=C3)Cl

> <PUBCHEM_OPENEYE_ISO_SMILES>
CC(C(=O)O)OC1=CC=C(C=C1)OC2=NC3=C(S2)C=C(C=C3)Cl

> <PUBCHEM_CACTVS_TPSA>
96.9

> <PUBCHEM_MONOISOTOPIC_WEIGHT>
349.017557

> <PUBCHEM_TOTAL_CHARGE>
0

> <PUBCHEM_HEAVY_ATOM_COUNT>
23

> <PUBCHEM_ATOM_DEF_STEREO_COUNT>
0

> <PUBCHEM_ATOM_UDEF_STEREO_COUNT>
1

> <PUBCHEM_BOND_DEF_STEREO_COUNT>
0

> <PUBCHEM_BOND_UDEF_STEREO_COUNT>
0

> <PUBCHEM_ISOTOPIC_ATOM_COUNT>
0

> <PUBCHEM_COMPONENT_COUNT>
1

> <PUBCHEM_CACTVS_TAUTO_COUNT>
1

> <PUBCHEM_COORDINATE_TYPE>
1
5
255

> <PUBCHEM_BONDANNOTATIONS>
10  19  8
11  14  8
11  15  8
12  16  8
12  17  8
14  16  8
15  17  8
18  21  8
19  22  8
2  13  8
2  9  8
21  22  8
7  10  8
7  13  8
8  20  3
9  10  8
9  18  8

$$$$

