47205004
  -OEChem-06241222573D

 26 27  0     0  0  0  0  0  0999 V2000
   -0.1991    1.7692   -0.2862 O   0  0  0  0  0  0  0  0  0  0  0  0
    0.4955    0.0477    1.1034 N   0  0  0  0  0  0  0  0  0  0  0  0
    3.3796   -1.0553    0.4067 N   0  0  0  0  0  0  0  0  0  0  0  0
    4.2983   -1.2354   -0.5575 N   0  0  0  0  0  0  0  0  0  0  0  0
   -1.6576   -1.3435    0.1416 N   0  0  0  0  0  0  0  0  0  0  0  0
   -4.0426    0.0355   -0.3843 N   0  0  0  0  0  0  0  0  0  0  0  0
   -2.8526    2.0895   -0.2768 N   0  0  0  0  0  0  0  0  0  0  0  0
    1.7917    0.6022    1.4223 C   0  0  0  0  0  0  0  0  0  0  0  0
    2.8374    0.1963    0.4245 C   0  0  0  0  0  0  0  0  0  0  0  0
   -0.4273    0.6753    0.2591 C   0  0  0  0  0  0  0  0  0  0  0  0
    3.4440    0.8827   -0.5990 C   0  0  0  0  0  0  0  0  0  0  0  0
   -1.7005    0.0008    0.0562 C   0  0  0  0  0  0  0  0  0  0  0  0
    4.3333   -0.0482   -1.1686 C   0  0  0  0  0  0  0  0  0  0  0  0
   -2.8719    0.6782   -0.2022 C   0  0  0  0  0  0  0  0  0  0  0  0
   -2.8283   -1.9862   -0.0404 C   0  0  0  0  0  0  0  0  0  0  0  0
   -3.9997   -1.3089   -0.2987 C   0  0  0  0  0  0  0  0  0  0  0  0
    2.0649    0.2472    2.4217 H   0  0  0  0  0  0  0  0  0  0  0  0
    1.7148    1.6945    1.4609 H   0  0  0  0  0  0  0  0  0  0  0  0
    0.2511   -0.8497    1.5128 H   0  0  0  0  0  0  0  0  0  0  0  0
    3.2680    1.9074   -0.8920 H   0  0  0  0  0  0  0  0  0  0  0  0
    3.1699   -1.8335    1.0195 H   0  0  0  0  0  0  0  0  0  0  0  0
    5.0051    0.0892   -2.0036 H   0  0  0  0  0  0  0  0  0  0  0  0
   -2.7946   -3.0664    0.0283 H   0  0  0  0  0  0  0  0  0  0  0  0
   -4.9399   -1.8261   -0.4448 H   0  0  0  0  0  0  0  0  0  0  0  0
   -2.1770    2.5966    0.2812 H   0  0  0  0  0  0  0  0  0  0  0  0
   -3.7353    2.5459   -0.4730 H   0  0  0  0  0  0  0  0  0  0  0  0
  1 10  2  0  0  0  0
  2  8  1  0  0  0  0
  2 10  1  0  0  0  0
  2 19  1  0  0  0  0
  3  4  1  0  0  0  0
  3  9  1  0  0  0  0
  3 21  1  0  0  0  0
  4 13  2  0  0  0  0
  5 12  2  0  0  0  0
  5 15  1  0  0  0  0
  6 14  2  0  0  0  0
  6 16  1  0  0  0  0
  7 14  1  0  0  0  0
  7 25  1  0  0  0  0
  7 26  1  0  0  0  0
  8  9  1  0  0  0  0
  8 17  1  0  0  0  0
  8 18  1  0  0  0  0
  9 11  2  0  0  0  0
 10 12  1  0  0  0  0
 11 13  1  0  0  0  0
 11 20  1  0  0  0  0
 12 14  1  0  0  0  0
 13 22  1  0  0  0  0
 15 16  2  0  0  0  0
 15 23  1  0  0  0  0
 16 24  1  0  0  0  0
M  END
> <PUBCHEM_COMPOUND_CID>
47205004

> <PUBCHEM_CONFORMER_RMSD>
0.6

> <PUBCHEM_CONFORMER_DIVERSEORDER>
3
42
48
69
32
7
60
18
41
10
65
47
63
46
11
31
43
59
20
19
14
72
37
23
68
40
34
50
67
9
70
39
61
71
57
5
4
54
12
44
49
55
13
8
53
45
35
58
15
56
28
33
62
1
52
2
17
26
25
38
21
64
22
30
51
27
6
16
29
24
66
36

> <PUBCHEM_MMFF94_PARTIAL_CHARGES>
24
1 -0.57
10 0.54
11 -0.15
12 0.4
13 0.14
14 0.41
15 0.16
16 0.16
19 0.37
2 -0.73
20 0.15
21 0.27
22 0.15
23 0.15
24 0.15
25 0.4
26 0.4
3 0.3
4 -0.71
5 -0.62
6 -0.62
7 -0.9
8 0.48
9 -0.33

> <PUBCHEM_EFFECTIVE_ROTOR_COUNT>
4

> <PUBCHEM_PHARMACOPHORE_FEATURES>
9
1 1 acceptor
1 2 donor
1 3 donor
1 4 acceptor
1 5 acceptor
1 7 donor
3 6 7 14 cation
5 3 4 9 11 13 rings
6 5 6 12 14 15 16 rings

> <PUBCHEM_HEAVY_ATOM_COUNT>
16

> <PUBCHEM_ATOM_DEF_STEREO_COUNT>
0

> <PUBCHEM_ATOM_UDEF_STEREO_COUNT>
0

> <PUBCHEM_BOND_DEF_STEREO_COUNT>
0

> <PUBCHEM_BOND_UDEF_STEREO_COUNT>
0

> <PUBCHEM_ISOTOPIC_ATOM_COUNT>
0

> <PUBCHEM_COMPONENT_COUNT>
1

> <PUBCHEM_CACTVS_TAUTO_COUNT>
14

> <PUBCHEM_CONFORMER_ID>
02D04A8C00000003

> <PUBCHEM_MMFF94_ENERGY>
36.6364

> <PUBCHEM_FEATURE_SELFOVERLAP>
45.669

> <PUBCHEM_SHAPE_MULTIPOLES>
293.52
9.05
1.74
0.97
3.34
0.01
0.14
-2.55
-2.57
-1.28
-0.17
0.82
0.08
0.22

> <PUBCHEM_SHAPE_SELFOVERLAP>
627.222

> <PUBCHEM_SHAPE_VOLUME>
161.1

> <PUBCHEM_COORDINATE_TYPE>
2
5
10

$$$$

