14018343
  -OEChem-07051213112D

 72 72  0     0  0  0  0  0  0999 V2000
    6.3301   -3.5000    0.0000 O   0  0  0  0  0  0  0  0  0  0  0  0
   13.2583    9.5000    0.0000 O   0  0  0  0  0  0  0  0  0  0  0  0
   14.1244    8.0000    0.0000 O   0  0  0  0  0  0  0  0  0  0  0  0
    4.5981   -3.5000    0.0000 O   0  0  0  0  0  0  0  0  0  0  0  0
    2.8660   -8.5000    0.0000 O   0  0  0  0  0  0  0  0  0  0  0  0
    4.5981   -9.5000    0.0000 O   0  0  0  0  0  0  0  0  0  0  0  0
    9.7942    2.5000    0.0000 C   0  0  0  0  0  0  0  0  0  0  0  0
    9.7942    3.5000    0.0000 C   0  0  0  0  0  0  0  0  0  0  0  0
    8.9282    2.0000    0.0000 C   0  0  0  0  0  0  0  0  0  0  0  0
   10.6603    4.0000    0.0000 C   0  0  0  0  0  0  0  0  0  0  0  0
    8.9282    1.0000    0.0000 C   0  0  0  0  0  0  0  0  0  0  0  0
   10.6603    5.0000    0.0000 C   0  0  0  0  0  0  0  0  0  0  0  0
    8.0622    0.5000    0.0000 C   0  0  0  0  0  0  0  0  0  0  0  0
   11.5263    5.5000    0.0000 C   0  0  0  0  0  0  0  0  0  0  0  0
    8.0622   -0.5000    0.0000 C   0  0  0  0  0  0  0  0  0  0  0  0
   11.5263    6.5000    0.0000 C   0  0  0  0  0  0  0  0  0  0  0  0
    7.1962   -1.0000    0.0000 C   0  0  0  0  0  0  0  0  0  0  0  0
   12.3923    7.0000    0.0000 C   0  0  0  0  0  0  0  0  0  0  0  0
    7.1962   -2.0000    0.0000 C   0  0  0  0  0  0  0  0  0  0  0  0
   12.3923    8.0000    0.0000 C   0  0  0  0  0  0  0  0  0  0  0  0
    6.3301   -2.5000    0.0000 C   0  0  0  0  0  0  0  0  0  0  0  0
   13.2583    8.5000    0.0000 C   0  0  0  0  0  0  0  0  0  0  0  0
    5.4641   -4.0000    0.0000 C   0  0  0  0  0  0  0  0  0  0  0  0
    5.4641   -5.0000    0.0000 C   0  0  0  0  0  0  0  0  0  0  0  0
    4.5981   -5.5000    0.0000 C   0  0  0  0  0  0  0  0  0  0  0  0
    4.5981   -6.5000    0.0000 C   0  0  0  0  0  0  0  0  0  0  0  0
    3.7320   -7.0000    0.0000 C   0  0  0  0  0  0  0  0  0  0  0  0
    5.4641   -7.0000    0.0000 C   0  0  0  0  0  0  0  0  0  0  0  0
    3.7320   -8.0000    0.0000 C   0  0  0  0  0  0  0  0  0  0  0  0
    5.4641   -8.0000    0.0000 C   0  0  0  0  0  0  0  0  0  0  0  0
    4.5981   -8.5000    0.0000 C   0  0  0  0  0  0  0  0  0  0  0  0
    2.0000   -8.0000    0.0000 C   0  0  0  0  0  0  0  0  0  0  0  0
   10.0063    1.9174    0.0000 H   0  0  0  0  0  0  0  0  0  0  0  0
   10.4048    2.6077    0.0000 H   0  0  0  0  0  0  0  0  0  0  0  0
    9.5822    4.0826    0.0000 H   0  0  0  0  0  0  0  0  0  0  0  0
    9.1836    3.3923    0.0000 H   0  0  0  0  0  0  0  0  0  0  0  0
    8.7162    2.5826    0.0000 H   0  0  0  0  0  0  0  0  0  0  0  0
    8.3176    1.8923    0.0000 H   0  0  0  0  0  0  0  0  0  0  0  0
   10.8723    3.4174    0.0000 H   0  0  0  0  0  0  0  0  0  0  0  0
   11.2708    4.1077    0.0000 H   0  0  0  0  0  0  0  0  0  0  0  0
    9.1403    0.4174    0.0000 H   0  0  0  0  0  0  0  0  0  0  0  0
    9.5388    1.1077    0.0000 H   0  0  0  0  0  0  0  0  0  0  0  0
   10.4482    5.5826    0.0000 H   0  0  0  0  0  0  0  0  0  0  0  0
   10.0497    4.8923    0.0000 H   0  0  0  0  0  0  0  0  0  0  0  0
    7.8501    1.0826    0.0000 H   0  0  0  0  0  0  0  0  0  0  0  0
    7.4516    0.3923    0.0000 H   0  0  0  0  0  0  0  0  0  0  0  0
   11.7383    4.9174    0.0000 H   0  0  0  0  0  0  0  0  0  0  0  0
   12.1369    5.6077    0.0000 H   0  0  0  0  0  0  0  0  0  0  0  0
    8.2742   -1.0826    0.0000 H   0  0  0  0  0  0  0  0  0  0  0  0
    8.6728   -0.3923    0.0000 H   0  0  0  0  0  0  0  0  0  0  0  0
   11.3142    7.0826    0.0000 H   0  0  0  0  0  0  0  0  0  0  0  0
   10.9157    6.3923    0.0000 H   0  0  0  0  0  0  0  0  0  0  0  0
    6.9841   -0.4174    0.0000 H   0  0  0  0  0  0  0  0  0  0  0  0
    6.5856   -1.1077    0.0000 H   0  0  0  0  0  0  0  0  0  0  0  0
   12.6044    6.4174    0.0000 H   0  0  0  0  0  0  0  0  0  0  0  0
   13.0029    7.1077    0.0000 H   0  0  0  0  0  0  0  0  0  0  0  0
    7.4082   -2.5826    0.0000 H   0  0  0  0  0  0  0  0  0  0  0  0
    7.8067   -1.8923    0.0000 H   0  0  0  0  0  0  0  0  0  0  0  0
   12.1803    8.5826    0.0000 H   0  0  0  0  0  0  0  0  0  0  0  0
   11.7817    7.8923    0.0000 H   0  0  0  0  0  0  0  0  0  0  0  0
    6.1181   -1.9174    0.0000 H   0  0  0  0  0  0  0  0  0  0  0  0
    5.7196   -2.6077    0.0000 H   0  0  0  0  0  0  0  0  0  0  0  0
   13.7953    9.8100    0.0000 H   0  0  0  0  0  0  0  0  0  0  0  0
    6.0010   -5.3100    0.0000 H   0  0  0  0  0  0  0  0  0  0  0  0
    4.0611   -5.1900    0.0000 H   0  0  0  0  0  0  0  0  0  0  0  0
    3.1951   -6.6900    0.0000 H   0  0  0  0  0  0  0  0  0  0  0  0
    6.0010   -6.6900    0.0000 H   0  0  0  0  0  0  0  0  0  0  0  0
    6.0010   -8.3100    0.0000 H   0  0  0  0  0  0  0  0  0  0  0  0
    5.1350   -9.8100    0.0000 H   0  0  0  0  0  0  0  0  0  0  0  0
    2.3100   -7.4631    0.0000 H   0  0  0  0  0  0  0  0  0  0  0  0
    1.4631   -7.6900    0.0000 H   0  0  0  0  0  0  0  0  0  0  0  0
    1.6900   -8.5369    0.0000 H   0  0  0  0  0  0  0  0  0  0  0  0
  1 21  1  0  0  0  0
  1 23  1  0  0  0  0
  2 22  1  0  0  0  0
  2 63  1  0  0  0  0
  3 22  2  0  0  0  0
  4 23  2  0  0  0  0
  5 29  1  0  0  0  0
  5 32  1  0  0  0  0
  6 31  1  0  0  0  0
  6 69  1  0  0  0  0
  7  8  1  0  0  0  0
  7  9  1  0  0  0  0
  7 33  1  0  0  0  0
  7 34  1  0  0  0  0
  8 10  1  0  0  0  0
  8 35  1  0  0  0  0
  8 36  1  0  0  0  0
  9 11  1  0  0  0  0
  9 37  1  0  0  0  0
  9 38  1  0  0  0  0
 10 12  1  0  0  0  0
 10 39  1  0  0  0  0
 10 40  1  0  0  0  0
 11 13  1  0  0  0  0
 11 41  1  0  0  0  0
 11 42  1  0  0  0  0
 12 14  1  0  0  0  0
 12 43  1  0  0  0  0
 12 44  1  0  0  0  0
 13 15  1  0  0  0  0
 13 45  1  0  0  0  0
 13 46  1  0  0  0  0
 14 16  1  0  0  0  0
 14 47  1  0  0  0  0
 14 48  1  0  0  0  0
 15 17  1  0  0  0  0
 15 49  1  0  0  0  0
 15 50  1  0  0  0  0
 16 18  1  0  0  0  0
 16 51  1  0  0  0  0
 16 52  1  0  0  0  0
 17 19  1  0  0  0  0
 17 53  1  0  0  0  0
 17 54  1  0  0  0  0
 18 20  1  0  0  0  0
 18 55  1  0  0  0  0
 18 56  1  0  0  0  0
 19 21  1  0  0  0  0
 19 57  1  0  0  0  0
 19 58  1  0  0  0  0
 20 22  1  0  0  0  0
 20 59  1  0  0  0  0
 20 60  1  0  0  0  0
 21 61  1  0  0  0  0
 21 62  1  0  0  0  0
 23 24  1  0  0  0  0
 24 25  2  0  0  0  0
 24 64  1  0  0  0  0
 25 26  1  0  0  0  0
 25 65  1  0  0  0  0
 26 27  2  0  0  0  0
 26 28  1  0  0  0  0
 27 29  1  0  0  0  0
 27 66  1  0  0  0  0
 28 30  2  0  0  0  0
 28 67  1  0  0  0  0
 29 31  2  0  0  0  0
 30 31  1  0  0  0  0
 30 68  1  0  0  0  0
 32 70  1  0  0  0  0
 32 71  1  0  0  0  0
 32 72  1  0  0  0  0
M  END
> <PUBCHEM_COMPOUND_CID>
14018343

> <PUBCHEM_COMPOUND_CANONICALIZED>
1

> <PUBCHEM_CACTVS_COMPLEXITY>
518

> <PUBCHEM_CACTVS_HBOND_ACCEPTOR>
6

> <PUBCHEM_CACTVS_HBOND_DONOR>
2

> <PUBCHEM_CACTVS_ROTATABLE_BOND>
20

> <PUBCHEM_CACTVS_SUBSKEYS>
AAADcfB4OAAAAAAAAAAAAAAAAAAAAAAAAAAwAAAAAAAAAAABAAAAGgAACAAADASgmAIyDoAABgCIAiDSCAACCAAgIAAIiAEGiMgNJjKGMRqCcCMkwBELuYeIyLCOIAABAAAAQABAAAIAAACAAAAAAAAAAA==

> <PUBCHEM_IUPAC_OPENEYE_NAME>
16-[(E)-3-(4-hydroxy-3-methoxy-phenyl)prop-2-enoyl]oxyhexadecanoic acid

> <PUBCHEM_IUPAC_CAS_NAME>
16-[(E)-3-(4-hydroxy-3-methoxyphenyl)-1-oxoprop-2-enoxy]hexadecanoic acid

> <PUBCHEM_IUPAC_NAME>
16-[(E)-3-(4-hydroxy-3-methoxyphenyl)prop-2-enoyl]oxyhexadecanoic acid

> <PUBCHEM_IUPAC_SYSTEMATIC_NAME>
16-[(E)-3-(3-methoxy-4-oxidanyl-phenyl)prop-2-enoyl]oxyhexadecanoic acid

> <PUBCHEM_IUPAC_TRADITIONAL_NAME>
16-[(E)-3-(4-hydroxy-3-methoxy-phenyl)acryloyl]oxypalmitic acid

> <PUBCHEM_IUPAC_INCHI>
InChI=1S/C26H40O6/c1-31-24-21-22(16-18-23(24)27)17-19-26(30)32-20-14-12-10-8-6-4-2-3-5-7-9-11-13-15-25(28)29/h16-19,21,27H,2-15,20H2,1H3,(H,28,29)/b19-17+

> <PUBCHEM_IUPAC_INCHIKEY>
DCZDUZNVOVFUCD-HTXNQAPBSA-N

> <PUBCHEM_XLOGP3>
7.8

> <PUBCHEM_EXACT_MASS>
448.282489

> <PUBCHEM_MOLECULAR_FORMULA>
C26H40O6

> <PUBCHEM_MOLECULAR_WEIGHT>
448.5922

> <PUBCHEM_OPENEYE_CAN_SMILES>
COC1=C(C=CC(=C1)C=CC(=O)OCCCCCCCCCCCCCCCC(=O)O)O

> <PUBCHEM_OPENEYE_ISO_SMILES>
COC1=C(C=CC(=C1)/C=C/C(=O)OCCCCCCCCCCCCCCCC(=O)O)O

> <PUBCHEM_CACTVS_TPSA>
93.1

> <PUBCHEM_MONOISOTOPIC_WEIGHT>
448.282489

> <PUBCHEM_TOTAL_CHARGE>
0

> <PUBCHEM_HEAVY_ATOM_COUNT>
32

> <PUBCHEM_ATOM_DEF_STEREO_COUNT>
0

> <PUBCHEM_ATOM_UDEF_STEREO_COUNT>
0

> <PUBCHEM_BOND_DEF_STEREO_COUNT>
1

> <PUBCHEM_BOND_UDEF_STEREO_COUNT>
0

> <PUBCHEM_ISOTOPIC_ATOM_COUNT>
0

> <PUBCHEM_COMPONENT_COUNT>
1

> <PUBCHEM_CACTVS_TAUTO_COUNT>
5

> <PUBCHEM_COORDINATE_TYPE>
1
5
255

> <PUBCHEM_BONDANNOTATIONS>
26  27  8
26  28  8
27  29  8
28  30  8
29  31  8
30  31  8

$$$$

