9381
  -OEChem-06261203393D

 11 10  0     0  0  0  0  0  0999 V2000
    1.9686    0.9843    0.0001 O   0  0  0  0  0  0  0  0  0  0  0  0
   -2.4853    0.2086    0.0000 O   0  0  0  0  0  0  0  0  0  0  0  0
   -1.3924   -0.3640    0.0000 N   0  0  0  0  0  0  0  0  0  0  0  0
    0.9291    0.0720   -0.0001 C   0  0  0  0  0  0  0  0  0  0  0  0
    1.3340   -1.3698    0.0000 C   0  0  0  0  0  0  0  0  0  0  0  0
   -0.3540    0.4689    0.0000 C   0  0  0  0  0  0  0  0  0  0  0  0
    1.9423   -1.5822    0.8858 H   0  0  0  0  0  0  0  0  0  0  0  0
    0.4978   -2.0745    0.0001 H   0  0  0  0  0  0  0  0  0  0  0  0
    1.9422   -1.5824   -0.8857 H   0  0  0  0  0  0  0  0  0  0  0  0
   -0.5588    1.5384   -0.0001 H   0  0  0  0  0  0  0  0  0  0  0  0
    1.5900    1.8804    0.0000 H   0  0  0  0  0  0  0  0  0  0  0  0
  1  4  1  0  0  0  0
  1 11  1  0  0  0  0
  2  3  2  0  0  0  0
  3  6  1  0  0  0  0
  4  5  1  0  0  0  0
  4  6  2  0  0  0  0
  5  7  1  0  0  0  0
  5  8  1  0  0  0  0
  5  9  1  0  0  0  0
  6 10  1  0  0  0  0
M  END
> <PUBCHEM_COMPOUND_CID>
9381

> <PUBCHEM_CONFORMER_RMSD>
0.4

> <PUBCHEM_CONFORMER_DIVERSEORDER>
1
2

> <PUBCHEM_MMFF94_PARTIAL_CHARGES>
8
1 -0.53
10 0.15
11 0.45
2 -0.16
3 -0.13
4 -0.06
5 0.14
6 0.14

> <PUBCHEM_EFFECTIVE_ROTOR_COUNT>
1

> <PUBCHEM_PHARMACOPHORE_FEATURES>
1
1 1 donor

> <PUBCHEM_HEAVY_ATOM_COUNT>
6

> <PUBCHEM_ATOM_DEF_STEREO_COUNT>
0

> <PUBCHEM_ATOM_UDEF_STEREO_COUNT>
0

> <PUBCHEM_BOND_DEF_STEREO_COUNT>
0

> <PUBCHEM_BOND_UDEF_STEREO_COUNT>
1

> <PUBCHEM_ISOTOPIC_ATOM_COUNT>
0

> <PUBCHEM_COMPONENT_COUNT>
1

> <PUBCHEM_CACTVS_TAUTO_COUNT>
6

> <PUBCHEM_CONFORMER_ID>
000024A500000001

> <PUBCHEM_MMFF94_ENERGY>
5.4219

> <PUBCHEM_FEATURE_SELFOVERLAP>
5.074

> <PUBCHEM_SHAPE_FINGERPRINT>
139733 1 9222640311998561058
20096714 4 18335701585659684264
21040471 1 18266458702881713860
23552449 11 18200043961299694178
24536 1 18339093677768063865
29004967 10 18201431480475429001
5460574 1 9223238446508577089

> <PUBCHEM_SHAPE_MULTIPOLES>
106.76
2.77
1.12
0.57
1.4
0.2
0
-0.1
0
-0.7
0
-0.04
0.02
0

> <PUBCHEM_SHAPE_SELFOVERLAP>
195.573

> <PUBCHEM_SHAPE_VOLUME>
68.1

> <PUBCHEM_COORDINATE_TYPE>
2
5
10

$$$$

