6729
  -OEChem-07051212542D

 64 67  0     1  0  0  0  0  0999 V2000
    2.0000   -4.4330    0.0000 Cl  0  0  0  0  0  0  0  0  0  0  0  0
    5.4641   -1.4330    0.0000 N   0  0  0  0  0  0  0  0  0  0  0  0
    5.4641    0.5670    0.0000 N   0  0  0  0  0  0  0  0  0  0  0  0
    4.5981   -0.9330    0.0000 C   0  0  0  0  0  0  0  0  0  0  0  0
    6.3301   -0.9330    0.0000 C   0  0  0  0  0  0  0  0  0  0  0  0
    4.5981    0.0670    0.0000 C   0  0  0  0  0  0  0  0  0  0  0  0
    6.3301    0.0670    0.0000 C   0  0  0  0  0  0  0  0  0  0  0  0
    5.4641   -2.4330    0.0000 C   0  0  3  0  0  0  0  0  0  0  0  0
    5.4641    1.5670    0.0000 C   0  0  0  0  0  0  0  0  0  0  0  0
    4.5981   -2.9330    0.0000 C   0  0  0  0  0  0  0  0  0  0  0  0
    6.3301   -2.9330    0.0000 C   0  0  0  0  0  0  0  0  0  0  0  0
    6.3301    2.0670    0.0000 C   0  0  0  0  0  0  0  0  0  0  0  0
    8.9282    3.5670    0.0000 C   0  0  0  0  0  0  0  0  0  0  0  0
    8.0622    3.0670    0.0000 C   0  0  0  0  0  0  0  0  0  0  0  0
    7.1962    1.5670    0.0000 C   0  0  0  0  0  0  0  0  0  0  0  0
    6.3301    3.0670    0.0000 C   0  0  0  0  0  0  0  0  0  0  0  0
    3.7320   -2.4330    0.0000 C   0  0  0  0  0  0  0  0  0  0  0  0
    4.5981   -3.9330    0.0000 C   0  0  0  0  0  0  0  0  0  0  0  0
    6.3301   -3.9330    0.0000 C   0  0  0  0  0  0  0  0  0  0  0  0
    7.1962   -2.4330    0.0000 C   0  0  0  0  0  0  0  0  0  0  0  0
    8.0622    2.0670    0.0000 C   0  0  0  0  0  0  0  0  0  0  0  0
    7.1962    3.5670    0.0000 C   0  0  0  0  0  0  0  0  0  0  0  0
    9.7942    4.0670    0.0000 C   0  0  0  0  0  0  0  0  0  0  0  0
    8.4282    4.4330    0.0000 C   0  0  0  0  0  0  0  0  0  0  0  0
    9.4282    2.7010    0.0000 C   0  0  0  0  0  0  0  0  0  0  0  0
    2.8660   -2.9330    0.0000 C   0  0  0  0  0  0  0  0  0  0  0  0
    3.7320   -4.4330    0.0000 C   0  0  0  0  0  0  0  0  0  0  0  0
    7.1962   -4.4330    0.0000 C   0  0  0  0  0  0  0  0  0  0  0  0
    8.0622   -2.9330    0.0000 C   0  0  0  0  0  0  0  0  0  0  0  0
    2.8660   -3.9330    0.0000 C   0  0  0  0  0  0  0  0  0  0  0  0
    8.0622   -3.9330    0.0000 C   0  0  0  0  0  0  0  0  0  0  0  0
    3.9875   -0.8254    0.0000 H   0  0  0  0  0  0  0  0  0  0  0  0
    4.3860   -1.5156    0.0000 H   0  0  0  0  0  0  0  0  0  0  0  0
    6.5422   -1.5156    0.0000 H   0  0  0  0  0  0  0  0  0  0  0  0
    6.9407   -0.8254    0.0000 H   0  0  0  0  0  0  0  0  0  0  0  0
    4.3860    0.6496    0.0000 H   0  0  0  0  0  0  0  0  0  0  0  0
    3.9875   -0.0407    0.0000 H   0  0  0  0  0  0  0  0  0  0  0  0
    6.9407   -0.0407    0.0000 H   0  0  0  0  0  0  0  0  0  0  0  0
    6.5422    0.6496    0.0000 H   0  0  0  0  0  0  0  0  0  0  0  0
    5.4641   -3.0530    0.0000 H   0  0  0  0  0  0  0  0  0  0  0  0
    5.2520    2.1496    0.0000 H   0  0  0  0  0  0  0  0  0  0  0  0
    4.8535    1.4593    0.0000 H   0  0  0  0  0  0  0  0  0  0  0  0
    7.1962    0.9470    0.0000 H   0  0  0  0  0  0  0  0  0  0  0  0
    5.7932    3.3770    0.0000 H   0  0  0  0  0  0  0  0  0  0  0  0
    3.7320   -1.8130    0.0000 H   0  0  0  0  0  0  0  0  0  0  0  0
    5.1350   -4.2430    0.0000 H   0  0  0  0  0  0  0  0  0  0  0  0
    5.7932   -4.2430    0.0000 H   0  0  0  0  0  0  0  0  0  0  0  0
    7.1962   -1.8130    0.0000 H   0  0  0  0  0  0  0  0  0  0  0  0
    8.5991    1.7570    0.0000 H   0  0  0  0  0  0  0  0  0  0  0  0
    7.1962    4.1870    0.0000 H   0  0  0  0  0  0  0  0  0  0  0  0
   10.1042    3.5300    0.0000 H   0  0  0  0  0  0  0  0  0  0  0  0
    8.8913    2.3910    0.0000 H   0  0  0  0  0  0  0  0  0  0  0  0
    9.7382    2.1640    0.0000 H   0  0  0  0  0  0  0  0  0  0  0  0
   10.3312    4.3770    0.0000 H   0  0  0  0  0  0  0  0  0  0  0  0
    9.4842    4.6039    0.0000 H   0  0  0  0  0  0  0  0  0  0  0  0
    8.9651    4.7430    0.0000 H   0  0  0  0  0  0  0  0  0  0  0  0
    9.9651    3.0110    0.0000 H   0  0  0  0  0  0  0  0  0  0  0  0
    8.1182    4.9700    0.0000 H   0  0  0  0  0  0  0  0  0  0  0  0
    7.8913    4.1230    0.0000 H   0  0  0  0  0  0  0  0  0  0  0  0
    2.3291   -2.6230    0.0000 H   0  0  0  0  0  0  0  0  0  0  0  0
    3.7320   -5.0530    0.0000 H   0  0  0  0  0  0  0  0  0  0  0  0
    7.1962   -5.0530    0.0000 H   0  0  0  0  0  0  0  0  0  0  0  0
    8.5991   -2.6230    0.0000 H   0  0  0  0  0  0  0  0  0  0  0  0
    8.5991   -4.2430    0.0000 H   0  0  0  0  0  0  0  0  0  0  0  0
  1 30  1  0  0  0  0
  2  4  1  0  0  0  0
  2  5  1  0  0  0  0
  2  8  1  0  0  0  0
  3  6  1  0  0  0  0
  3  7  1  0  0  0  0
  3  9  1  0  0  0  0
  4  6  1  0  0  0  0
  4 32  1  0  0  0  0
  4 33  1  0  0  0  0
  5  7  1  0  0  0  0
  5 34  1  0  0  0  0
  5 35  1  0  0  0  0
  6 36  1  0  0  0  0
  6 37  1  0  0  0  0
  7 38  1  0  0  0  0
  7 39  1  0  0  0  0
  8 10  1  0  0  0  0
  8 11  1  0  0  0  0
  8 40  1  0  0  0  0
  9 12  1  0  0  0  0
  9 41  1  0  0  0  0
  9 42  1  0  0  0  0
 10 17  2  0  0  0  0
 10 18  1  0  0  0  0
 11 19  2  0  0  0  0
 11 20  1  0  0  0  0
 12 15  2  0  0  0  0
 12 16  1  0  0  0  0
 13 14  1  0  0  0  0
 13 23  1  0  0  0  0
 13 24  1  0  0  0  0
 13 25  1  0  0  0  0
 14 21  2  0  0  0  0
 14 22  1  0  0  0  0
 15 21  1  0  0  0  0
 15 43  1  0  0  0  0
 16 22  2  0  0  0  0
 16 44  1  0  0  0  0
 17 26  1  0  0  0  0
 17 45  1  0  0  0  0
 18 27  2  0  0  0  0
 18 46  1  0  0  0  0
 19 28  1  0  0  0  0
 19 47  1  0  0  0  0
 20 29  2  0  0  0  0
 20 48  1  0  0  0  0
 21 49  1  0  0  0  0
 22 50  1  0  0  0  0
 23 51  1  0  0  0  0
 23 54  1  0  0  0  0
 23 55  1  0  0  0  0
 24 56  1  0  0  0  0
 24 58  1  0  0  0  0
 24 59  1  0  0  0  0
 25 52  1  0  0  0  0
 25 53  1  0  0  0  0
 25 57  1  0  0  0  0
 26 30  2  0  0  0  0
 26 60  1  0  0  0  0
 27 30  1  0  0  0  0
 27 61  1  0  0  0  0
 28 31  2  0  0  0  0
 28 62  1  0  0  0  0
 29 31  1  0  0  0  0
 29 63  1  0  0  0  0
 31 64  1  0  0  0  0
M  END
> <PUBCHEM_COMPOUND_CID>
6729

> <PUBCHEM_COMPOUND_CANONICALIZED>
1

> <PUBCHEM_CACTVS_COMPLEXITY>
514

> <PUBCHEM_CACTVS_HBOND_ACCEPTOR>
2

> <PUBCHEM_CACTVS_HBOND_DONOR>
0

> <PUBCHEM_CACTVS_ROTATABLE_BOND>
6

> <PUBCHEM_CACTVS_SUBSKEYS>
AAADcfB7AAAEAAAAAAAAAAAAAAAAAAAAAAA8YMEAAAAAAAABUAAAHAIAAAAADirBGCQyAIMAAACAAiBCAACCAAAgBQAIiAAIBogIYCKBkxGUIAhggACIiAcQgMAPxAAAAAAAAACIAAAAAAAAAAAAAAAAAA==

> <PUBCHEM_IUPAC_OPENEYE_NAME>
1-[(4-tert-butylphenyl)methyl]-4-[(4-chlorophenyl)-phenyl-methyl]piperazine

> <PUBCHEM_IUPAC_CAS_NAME>
1-[(4-tert-butylphenyl)methyl]-4-[(4-chlorophenyl)-phenylmethyl]piperazine

> <PUBCHEM_IUPAC_NAME>
1-[(4-tert-butylphenyl)methyl]-4-[(4-chlorophenyl)-phenylmethyl]piperazine

> <PUBCHEM_IUPAC_SYSTEMATIC_NAME>
1-[(4-tert-butylphenyl)methyl]-4-[(4-chlorophenyl)-phenyl-methyl]piperazine

> <PUBCHEM_IUPAC_TRADITIONAL_NAME>
1-(4-tert-butylbenzyl)-4-[(4-chlorophenyl)-phenyl-methyl]piperazine

> <PUBCHEM_IUPAC_INCHI>
InChI=1S/C28H33ClN2/c1-28(2,3)25-13-9-22(10-14-25)21-30-17-19-31(20-18-30)27(23-7-5-4-6-8-23)24-11-15-26(29)16-12-24/h4-16,27H,17-21H2,1-3H3

> <PUBCHEM_IUPAC_INCHIKEY>
MOYGZHXDRJNJEP-UHFFFAOYSA-N

> <PUBCHEM_XLOGP3_AA>
7.1

> <PUBCHEM_EXACT_MASS>
432.233227

> <PUBCHEM_MOLECULAR_FORMULA>
C28H33ClN2

> <PUBCHEM_MOLECULAR_WEIGHT>
433.02802

> <PUBCHEM_OPENEYE_CAN_SMILES>
CC(C)(C)C1=CC=C(C=C1)CN2CCN(CC2)C(C3=CC=CC=C3)C4=CC=C(C=C4)Cl

> <PUBCHEM_OPENEYE_ISO_SMILES>
CC(C)(C)C1=CC=C(C=C1)CN2CCN(CC2)C(C3=CC=CC=C3)C4=CC=C(C=C4)Cl

> <PUBCHEM_CACTVS_TPSA>
6.5

> <PUBCHEM_MONOISOTOPIC_WEIGHT>
432.233227

> <PUBCHEM_TOTAL_CHARGE>
0

> <PUBCHEM_HEAVY_ATOM_COUNT>
31

> <PUBCHEM_ATOM_DEF_STEREO_COUNT>
0

> <PUBCHEM_ATOM_UDEF_STEREO_COUNT>
1

> <PUBCHEM_BOND_DEF_STEREO_COUNT>
0

> <PUBCHEM_BOND_UDEF_STEREO_COUNT>
0

> <PUBCHEM_ISOTOPIC_ATOM_COUNT>
0

> <PUBCHEM_COMPONENT_COUNT>
1

> <PUBCHEM_CACTVS_TAUTO_COUNT>
1

> <PUBCHEM_COORDINATE_TYPE>
1
5
255

> <PUBCHEM_BONDANNOTATIONS>
10  17  8
10  18  8
11  19  8
11  20  8
12  15  8
12  16  8
14  21  8
14  22  8
15  21  8
16  22  8
17  26  8
18  27  8
19  28  8
20  29  8
26  30  8
27  30  8
28  31  8
29  31  8
8  11  3

$$$$

