17396071
  -OEChem-06241222542D

 61 65  0     1  0  0  0  0  0999 V2000
    8.0524   -0.1830    0.0000 S   0  0  0  0  0  0  0  0  0  0  0  0
    6.5661   -1.5212    0.0000 O   0  0  0  0  0  0  0  0  0  0  0  0
    2.8660   -1.8219    0.0000 O   0  0  0  0  0  0  0  0  0  0  0  0
    6.3301   -3.8219    0.0000 O   0  0  0  0  0  0  0  0  0  0  0  0
    5.4071   -0.2341    0.0000 N   0  0  0  0  0  0  0  0  0  0  0  0
    9.6045    1.8874    0.0000 N   0  0  0  0  0  0  0  0  0  0  0  0
    9.7736    0.2782    0.0000 N   0  0  0  0  0  0  0  0  0  0  0  0
    8.6910    1.4807    0.0000 N   0  0  0  0  0  0  0  0  0  0  0  0
   11.2682    1.2488    0.0000 C   0  0  0  0  0  0  0  0  0  0  0  0
   12.0772    1.8366    0.0000 C   0  0  0  0  0  0  0  0  0  0  0  0
   12.1817    0.8421    0.0000 C   0  0  0  0  0  0  0  0  0  0  0  0
   10.2736    1.1443    0.0000 C   0  0  0  0  0  0  0  0  0  0  0  0
    4.5981   -0.8219    0.0000 C   0  0  3  0  0  0  0  0  0  0  0  0
    3.7891   -0.2341    0.0000 C   0  0  0  0  0  0  0  0  0  0  0  0
    4.0981    0.7170    0.0000 C   0  0  0  0  0  0  0  0  0  0  0  0
    5.0981    0.7170    0.0000 C   0  0  0  0  0  0  0  0  0  0  0  0
    4.5981   -1.8219    0.0000 C   0  0  0  0  0  0  0  0  0  0  0  0
    6.3582   -0.5431    0.0000 C   0  0  0  0  0  0  0  0  0  0  0  0
    8.7955    0.4862    0.0000 C   0  0  0  0  0  0  0  0  0  0  0  0
    7.1013    0.1260    0.0000 C   0  0  0  0  0  0  0  0  0  0  0  0
    3.7320   -2.3219    0.0000 C   0  0  0  0  0  0  0  0  0  0  0  0
    9.8124    2.8656    0.0000 C   0  0  0  0  0  0  0  0  0  0  0  0
    5.4641   -2.3219    0.0000 C   0  0  0  0  0  0  0  0  0  0  0  0
    5.4641   -3.3219    0.0000 C   0  0  0  0  0  0  0  0  0  0  0  0
    3.7320   -3.3219    0.0000 C   0  0  0  0  0  0  0  0  0  0  0  0
    9.0693    3.5347    0.0000 C   0  0  0  0  0  0  0  0  0  0  0  0
   10.7635    3.1746    0.0000 C   0  0  0  0  0  0  0  0  0  0  0  0
    4.5981   -3.8219    0.0000 C   0  0  0  0  0  0  0  0  0  0  0  0
    9.2772    4.5128    0.0000 C   0  0  0  0  0  0  0  0  0  0  0  0
   10.9714    4.1527    0.0000 C   0  0  0  0  0  0  0  0  0  0  0  0
   10.2282    4.8219    0.0000 C   0  0  0  0  0  0  0  0  0  0  0  0
    2.0000   -2.3219    0.0000 C   0  0  0  0  0  0  0  0  0  0  0  0
    6.3301   -4.8219    0.0000 C   0  0  0  0  0  0  0  0  0  0  0  0
   11.0460    1.8276    0.0000 H   0  0  0  0  0  0  0  0  0  0  0  0
   12.6732    2.0075    0.0000 H   0  0  0  0  0  0  0  0  0  0  0  0
   11.8054    2.3938    0.0000 H   0  0  0  0  0  0  0  0  0  0  0  0
   12.0317    0.2405    0.0000 H   0  0  0  0  0  0  0  0  0  0  0  0
   12.8002    0.7988    0.0000 H   0  0  0  0  0  0  0  0  0  0  0  0
    5.1505   -1.1033    0.0000 H   0  0  0  0  0  0  0  0  0  0  0  0
    3.2227    0.0181    0.0000 H   0  0  0  0  0  0  0  0  0  0  0  0
    3.4791   -0.7710    0.0000 H   0  0  0  0  0  0  0  0  0  0  0  0
    4.1629    1.3336    0.0000 H   0  0  0  0  0  0  0  0  0  0  0  0
    3.4916    0.8459    0.0000 H   0  0  0  0  0  0  0  0  0  0  0  0
    5.7045    0.8459    0.0000 H   0  0  0  0  0  0  0  0  0  0  0  0
    5.0333    1.3336    0.0000 H   0  0  0  0  0  0  0  0  0  0  0  0
    7.3924    0.6735    0.0000 H   0  0  0  0  0  0  0  0  0  0  0  0
    6.6127    0.5078    0.0000 H   0  0  0  0  0  0  0  0  0  0  0  0
    6.0010   -2.0119    0.0000 H   0  0  0  0  0  0  0  0  0  0  0  0
    3.1951   -3.6319    0.0000 H   0  0  0  0  0  0  0  0  0  0  0  0
    8.4796    3.3431    0.0000 H   0  0  0  0  0  0  0  0  0  0  0  0
   11.2242    2.7597    0.0000 H   0  0  0  0  0  0  0  0  0  0  0  0
    4.5981   -4.4419    0.0000 H   0  0  0  0  0  0  0  0  0  0  0  0
    8.8164    4.9277    0.0000 H   0  0  0  0  0  0  0  0  0  0  0  0
   11.5610    4.3443    0.0000 H   0  0  0  0  0  0  0  0  0  0  0  0
   10.3572    5.4283    0.0000 H   0  0  0  0  0  0  0  0  0  0  0  0
    1.6900   -1.7849    0.0000 H   0  0  0  0  0  0  0  0  0  0  0  0
    1.4631   -2.6319    0.0000 H   0  0  0  0  0  0  0  0  0  0  0  0
    2.3100   -2.8588    0.0000 H   0  0  0  0  0  0  0  0  0  0  0  0
    5.7101   -4.8219    0.0000 H   0  0  0  0  0  0  0  0  0  0  0  0
    6.3301   -5.4419    0.0000 H   0  0  0  0  0  0  0  0  0  0  0  0
    6.9501   -4.8219    0.0000 H   0  0  0  0  0  0  0  0  0  0  0  0
  1 19  1  0  0  0  0
  1 20  1  0  0  0  0
  2 18  2  0  0  0  0
  3 21  1  0  0  0  0
  3 32  1  0  0  0  0
  4 24  1  0  0  0  0
  4 33  1  0  0  0  0
  5 13  1  0  0  0  0
  5 16  1  0  0  0  0
  5 18  1  0  0  0  0
  6  8  1  0  0  0  0
  6 12  1  0  0  0  0
  6 22  1  0  0  0  0
  7 12  2  0  0  0  0
  7 19  1  0  0  0  0
  8 19  2  0  0  0  0
  9 10  1  0  0  0  0
  9 11  1  0  0  0  0
  9 12  1  0  0  0  0
  9 34  1  0  0  0  0
 10 11  1  0  0  0  0
 10 35  1  0  0  0  0
 10 36  1  0  0  0  0
 11 37  1  0  0  0  0
 11 38  1  0  0  0  0
 13 14  1  0  0  0  0
 13 17  1  0  0  0  0
 13 39  1  0  0  0  0
 14 15  1  0  0  0  0
 14 40  1  0  0  0  0
 14 41  1  0  0  0  0
 15 16  1  0  0  0  0
 15 42  1  0  0  0  0
 15 43  1  0  0  0  0
 16 44  1  0  0  0  0
 16 45  1  0  0  0  0
 17 21  2  0  0  0  0
 17 23  1  0  0  0  0
 18 20  1  0  0  0  0
 20 46  1  0  0  0  0
 20 47  1  0  0  0  0
 21 25  1  0  0  0  0
 22 26  2  0  0  0  0
 22 27  1  0  0  0  0
 23 24  2  0  0  0  0
 23 48  1  0  0  0  0
 24 28  1  0  0  0  0
 25 28  2  0  0  0  0
 25 49  1  0  0  0  0
 26 29  1  0  0  0  0
 26 50  1  0  0  0  0
 27 30  2  0  0  0  0
 27 51  1  0  0  0  0
 28 52  1  0  0  0  0
 29 31  2  0  0  0  0
 29 53  1  0  0  0  0
 30 31  1  0  0  0  0
 30 54  1  0  0  0  0
 31 55  1  0  0  0  0
 32 56  1  0  0  0  0
 32 57  1  0  0  0  0
 32 58  1  0  0  0  0
 33 59  1  0  0  0  0
 33 60  1  0  0  0  0
 33 61  1  0  0  0  0
M  END
> <PUBCHEM_COMPOUND_CID>
17396071

> <PUBCHEM_COMPOUND_CANONICALIZED>
1

> <PUBCHEM_CACTVS_COMPLEXITY>
660

> <PUBCHEM_CACTVS_HBOND_ACCEPTOR>
6

> <PUBCHEM_CACTVS_HBOND_DONOR>
0

> <PUBCHEM_CACTVS_ROTATABLE_BOND>
8

> <PUBCHEM_CACTVS_SUBSKEYS>
AAADceB7sABAAAAAAAAAAAAAGAAAAWLAAAAwYAAAAAAAAAAB0AAAHgQIAAAADSzF2waz1ocIFAiqAidydACS3CthIrAdiAA+bIiMLiLEuZuEMChuzhPI6CfwwLAOAQABAAAIAAACAAIAABAAAAAAAAAAAA==

> <PUBCHEM_IUPAC_OPENEYE_NAME>
2-[(5-cyclopropyl-1-phenyl-1,2,4-triazol-3-yl)sulfanyl]-1-[2-(2,5-dimethoxyphenyl)pyrrolidin-1-yl]ethanone

> <PUBCHEM_IUPAC_CAS_NAME>
2-[(5-cyclopropyl-1-phenyl-1,2,4-triazol-3-yl)thio]-1-[2-(2,5-dimethoxyphenyl)-1-pyrrolidinyl]ethanone

> <PUBCHEM_IUPAC_NAME>
2-[(5-cyclopropyl-1-phenyl-1,2,4-triazol-3-yl)sulfanyl]-1-[2-(2,5-dimethoxyphenyl)pyrrolidin-1-yl]ethanone

> <PUBCHEM_IUPAC_SYSTEMATIC_NAME>
2-[(5-cyclopropyl-1-phenyl-1,2,4-triazol-3-yl)sulfanyl]-1-[2-(2,5-dimethoxyphenyl)pyrrolidin-1-yl]ethanone

> <PUBCHEM_IUPAC_TRADITIONAL_NAME>
2-[(5-cyclopropyl-1-phenyl-1,2,4-triazol-3-yl)thio]-1-[2-(2,5-dimethoxyphenyl)pyrrolidino]ethanone

> <PUBCHEM_IUPAC_INCHI>
InChI=1S/C25H28N4O3S/c1-31-19-12-13-22(32-2)20(15-19)21-9-6-14-28(21)23(30)16-33-25-26-24(17-10-11-17)29(27-25)18-7-4-3-5-8-18/h3-5,7-8,12-13,15,17,21H,6,9-11,14,16H2,1-2H3

> <PUBCHEM_IUPAC_INCHIKEY>
SFEXIPGHBVMEDF-UHFFFAOYSA-N

> <PUBCHEM_XLOGP3_AA>
4.6

> <PUBCHEM_EXACT_MASS>
464.188212

> <PUBCHEM_MOLECULAR_FORMULA>
C25H28N4O3S

> <PUBCHEM_MOLECULAR_WEIGHT>
464.57982

> <PUBCHEM_OPENEYE_CAN_SMILES>
COC1=CC(=C(C=C1)OC)C2CCCN2C(=O)CSC3=NN(C(=N3)C4CC4)C5=CC=CC=C5

> <PUBCHEM_OPENEYE_ISO_SMILES>
COC1=CC(=C(C=C1)OC)C2CCCN2C(=O)CSC3=NN(C(=N3)C4CC4)C5=CC=CC=C5

> <PUBCHEM_CACTVS_TPSA>
94.8

> <PUBCHEM_MONOISOTOPIC_WEIGHT>
464.188212

> <PUBCHEM_TOTAL_CHARGE>
0

> <PUBCHEM_HEAVY_ATOM_COUNT>
33

> <PUBCHEM_ATOM_DEF_STEREO_COUNT>
0

> <PUBCHEM_ATOM_UDEF_STEREO_COUNT>
1

> <PUBCHEM_BOND_DEF_STEREO_COUNT>
0

> <PUBCHEM_BOND_UDEF_STEREO_COUNT>
0

> <PUBCHEM_ISOTOPIC_ATOM_COUNT>
0

> <PUBCHEM_COMPONENT_COUNT>
1

> <PUBCHEM_CACTVS_TAUTO_COUNT>
1

> <PUBCHEM_COORDINATE_TYPE>
1
5
255

> <PUBCHEM_BONDANNOTATIONS>
13  17  3
17  21  8
17  23  8
21  25  8
22  26  8
22  27  8
23  24  8
24  28  8
25  28  8
26  29  8
27  30  8
29  31  8
30  31  8
6  12  8
6  8  8
7  12  8
7  19  8
8  19  8

$$$$

