14178
  -OEChem-06241222423D

 51 54  0     1  0  0  0  0  0999 V2000
   -5.2120   -1.7126   -0.0443 O   0  0  0  0  0  0  0  0  0  0  0  0
    5.7540   -2.2992   -0.4333 N   0  0  0  0  0  0  0  0  0  0  0  0
   -1.0178    0.9313    0.1345 C   0  0  2  0  0  0  0  0  0  0  0  0
   -0.0022   -0.1957   -0.2377 C   0  0  1  0  0  0  0  0  0  0  0  0
   -2.3880    0.5641   -0.4452 C   0  0  1  0  0  0  0  0  0  0  0  0
   -2.9229   -0.7771    0.0932 C   0  0  2  0  0  0  0  0  0  0  0  0
    1.4478    0.1237    0.2804 C   0  0  2  0  0  0  0  0  0  0  0  0
   -0.5219   -1.6064    0.1482 C   0  0  0  0  0  0  0  0  0  0  0  0
   -1.9548   -1.8853   -0.3412 C   0  0  0  0  0  0  0  0  0  0  0  0
    1.8643    1.5214   -0.2752 C   0  0  1  0  0  0  0  0  0  0  0  0
   -0.5395    2.2951   -0.3827 C   0  0  0  0  0  0  0  0  0  0  0  0
   -3.5605    1.5211   -0.2460 C   0  0  0  0  0  0  0  0  0  0  0  0
   -4.2912   -0.8032   -0.6148 C   0  0  2  0  0  0  0  0  0  0  0  0
    0.8713    2.6303    0.0919 C   0  0  0  0  0  0  0  0  0  0  0  0
   -4.8025    0.6457   -0.4934 C   0  0  0  0  0  0  0  0  0  0  0  0
    2.4641   -0.9192   -0.2807 C   0  0  0  0  0  0  0  0  0  0  0  0
   -3.1113   -0.8277    1.6308 C   0  0  0  0  0  0  0  0  0  0  0  0
    1.5081    0.0843    1.8302 C   0  0  0  0  0  0  0  0  0  0  0  0
    3.2966    1.9126    0.1278 C   0  0  0  0  0  0  0  0  0  0  0  0
    3.9140   -0.4960   -0.2040 C   0  0  0  0  0  0  0  0  0  0  0  0
    4.2755    0.7832   -0.0080 C   0  0  0  0  0  0  0  0  0  0  0  0
    4.9287   -1.4904   -0.3303 C   0  0  0  0  0  0  0  0  0  0  0  0
   -1.1017    1.0067    1.2238 H   0  0  0  0  0  0  0  0  0  0  0  0
    0.0580   -0.2015   -1.3380 H   0  0  0  0  0  0  0  0  0  0  0  0
   -2.2550    0.4717   -1.5365 H   0  0  0  0  0  0  0  0  0  0  0  0
   -0.4860   -1.7449    1.2327 H   0  0  0  0  0  0  0  0  0  0  0  0
    0.1329   -2.3735   -0.2805 H   0  0  0  0  0  0  0  0  0  0  0  0
    1.8590    1.4479   -1.3747 H   0  0  0  0  0  0  0  0  0  0  0  0
   -1.9394   -1.9640   -1.4361 H   0  0  0  0  0  0  0  0  0  0  0  0
   -2.2893   -2.8602    0.0331 H   0  0  0  0  0  0  0  0  0  0  0  0
   -1.2212    3.0856   -0.0478 H   0  0  0  0  0  0  0  0  0  0  0  0
   -0.5604    2.3051   -1.4800 H   0  0  0  0  0  0  0  0  0  0  0  0
   -3.5241    2.3653   -0.9421 H   0  0  0  0  0  0  0  0  0  0  0  0
   -3.5774    1.9296    0.7705 H   0  0  0  0  0  0  0  0  0  0  0  0
   -4.1720   -1.0628   -1.6744 H   0  0  0  0  0  0  0  0  0  0  0  0
    1.1845    3.5749   -0.3695 H   0  0  0  0  0  0  0  0  0  0  0  0
    0.8656    2.8020    1.1745 H   0  0  0  0  0  0  0  0  0  0  0  0
   -5.5282    0.7622    0.3194 H   0  0  0  0  0  0  0  0  0  0  0  0
   -5.3104    0.9426   -1.4179 H   0  0  0  0  0  0  0  0  0  0  0  0
    2.2373   -1.1261   -1.3354 H   0  0  0  0  0  0  0  0  0  0  0  0
    2.3428   -1.8687    0.2572 H   0  0  0  0  0  0  0  0  0  0  0  0
   -3.4812   -1.8120    1.9407 H   0  0  0  0  0  0  0  0  0  0  0  0
   -2.1812   -0.6517    2.1776 H   0  0  0  0  0  0  0  0  0  0  0  0
   -3.8337   -0.0869    1.9881 H   0  0  0  0  0  0  0  0  0  0  0  0
    1.2782   -0.9148    2.2138 H   0  0  0  0  0  0  0  0  0  0  0  0
    2.5021    0.3339    2.2139 H   0  0  0  0  0  0  0  0  0  0  0  0
    0.8057    0.7818    2.2936 H   0  0  0  0  0  0  0  0  0  0  0  0
    3.3264    2.2802    1.1605 H   0  0  0  0  0  0  0  0  0  0  0  0
    3.6293    2.7423   -0.5082 H   0  0  0  0  0  0  0  0  0  0  0  0
    5.3276    1.0506    0.0638 H   0  0  0  0  0  0  0  0  0  0  0  0
   -6.0603   -1.5979   -0.5053 H   0  0  0  0  0  0  0  0  0  0  0  0
  1 13  1  0  0  0  0
  1 51  1  0  0  0  0
  2 22  3  0  0  0  0
  3  4  1  0  0  0  0
  3  5  1  0  0  0  0
  3 11  1  0  0  0  0
  3 23  1  0  0  0  0
  4  7  1  0  0  0  0
  4  8  1  0  0  0  0
  4 24  1  0  0  0  0
  5  6  1  0  0  0  0
  5 12  1  0  0  0  0
  5 25  1  0  0  0  0
  6  9  1  0  0  0  0
  6 13  1  0  0  0  0
  6 17  1  0  0  0  0
  7 10  1  0  0  0  0
  7 16  1  0  0  0  0
  7 18  1  0  0  0  0
  8  9  1  0  0  0  0
  8 26  1  0  0  0  0
  8 27  1  0  0  0  0
  9 29  1  0  0  0  0
  9 30  1  0  0  0  0
 10 14  1  0  0  0  0
 10 19  1  0  0  0  0
 10 28  1  0  0  0  0
 11 14  1  0  0  0  0
 11 31  1  0  0  0  0
 11 32  1  0  0  0  0
 12 15  1  0  0  0  0
 12 33  1  0  0  0  0
 12 34  1  0  0  0  0
 13 15  1  0  0  0  0
 13 35  1  0  0  0  0
 14 36  1  0  0  0  0
 14 37  1  0  0  0  0
 15 38  1  0  0  0  0
 15 39  1  0  0  0  0
 16 20  1  0  0  0  0
 16 40  1  0  0  0  0
 16 41  1  0  0  0  0
 17 42  1  0  0  0  0
 17 43  1  0  0  0  0
 17 44  1  0  0  0  0
 18 45  1  0  0  0  0
 18 46  1  0  0  0  0
 18 47  1  0  0  0  0
 19 21  1  0  0  0  0
 19 48  1  0  0  0  0
 19 49  1  0  0  0  0
 20 21  2  0  0  0  0
 20 22  1  0  0  0  0
 21 50  1  0  0  0  0
M  END
> <PUBCHEM_COMPOUND_CID>
14178

> <PUBCHEM_CONFORMER_RMSD>
0.6

> <PUBCHEM_CONFORMER_DIVERSEORDER>
1

> <PUBCHEM_MMFF94_PARTIAL_CHARGES>
10
1 -0.68
13 0.28
16 0.14
19 0.14
2 -0.56
20 -0.07
21 -0.29
22 0.49
50 0.15
51 0.4

> <PUBCHEM_EFFECTIVE_ROTOR_COUNT>
1.8

> <PUBCHEM_PHARMACOPHORE_FEATURES>
7
1 1 acceptor
1 1 donor
1 2 acceptor
5 5 6 12 13 15 rings
6 3 4 5 6 8 9 rings
6 3 4 7 10 11 14 rings
6 7 10 16 19 20 21 rings

> <PUBCHEM_HEAVY_ATOM_COUNT>
22

> <PUBCHEM_ATOM_DEF_STEREO_COUNT>
7

> <PUBCHEM_ATOM_UDEF_STEREO_COUNT>
0

> <PUBCHEM_BOND_DEF_STEREO_COUNT>
0

> <PUBCHEM_BOND_UDEF_STEREO_COUNT>
0

> <PUBCHEM_ISOTOPIC_ATOM_COUNT>
0

> <PUBCHEM_COMPONENT_COUNT>
1

> <PUBCHEM_CACTVS_TAUTO_COUNT>
1

> <PUBCHEM_CONFORMER_ID>
0000376200000001

> <PUBCHEM_MMFF94_ENERGY>
69.5512

> <PUBCHEM_FEATURE_SELFOVERLAP>
35.612

> <PUBCHEM_SHAPE_FINGERPRINT>
10366900 7 17274827935029757939
10967382 1 18339081492914313548
11578080 2 16736369443771090499
116883 192 18335978774754977380
12011746 2 18271251603227497069
12236239 1 17894628128833872859
12403259 226 18337114458565885981
12596602 18 5184052709626854542
12633257 1 15357981127036694949
12715332 25 17894917325465787782
12760667 363 18263080084450167582
12788726 201 18126852835208718360
12916754 54 18336264531898484499
13134695 92 17822298954907465504
13140716 1 18337945783318329161
13288520 33 18337107964221588422
13533116 47 18115027394531095235
13544653 18 18410568483493770668
13862211 1 18410578417806107774
14341114 176 18340763759122287321
14341114 328 11240000057264777206
14866123 147 17830167266284504992
15099037 51 18411138069055541999
15196674 1 18410856551087005749
15352361 1 18409729586392075774
15536298 74 18336831900750923532
15788980 27 18411979169870825814
15848702 151 18114456833653097398
16945 1 18052533270821800141
17349148 13 17603581911307617783
17492 89 18193278490287553399
17804303 29 18410292523080845493
18186145 218 17489873721761614428
19141452 34 18259705588105108871
19591789 44 18411421721585985302
19862831 5 17846781814576760176
200 152 18113057129707618053
20374829 77 18410294756833182430
20645477 70 18410577271255256342
21267235 1 18411130342362027015
21279426 13 18340492260880131301
21452121 103 18263374616132739704
21521239 73 18189638102356769943
21682296 61 18335413612276661894
221357 26 18412549795104846093
221490 88 18198054781476947856
22182313 1 18268450017461877676
22393880 68 18130238124368274149
23402539 116 18334862761308773934
23493267 7 17917712430892607145
23559900 14 18409737252740140760
2871803 45 18272937137140893000
3004659 81 18272931657327288366
3286 77 17167869646670456298
335352 9 18338236071894784165
34934 24 18339086973672495252
4214541 1 18410293635730686645
465052 167 18260261945732208390
474 4 17130424588913659604
5104073 3 18409166606046979352
6138700 20 18338797948112052150
633830 44 17489308542788725300
7364860 26 18191589644627044768
9709674 26 18268991990551951283
9981440 41 17188411564957764168

> <PUBCHEM_SHAPE_MULTIPOLES>
441.9
10.46
2.48
0.97
2.27
0.54
0.45
-4.9
-1.61
1.02
-0.25
-0.22
-0.11
0.63

> <PUBCHEM_SHAPE_SELFOVERLAP>
943.047

> <PUBCHEM_SHAPE_VOLUME>
240.7

> <PUBCHEM_COORDINATE_TYPE>
2
5
10

$$$$

