23724589
  -OEChem-07051213083D

 78 81  0     1  0  0  0  0  0999 V2000
    3.9153    0.6927    2.4358 O   0  0  0  0  0  0  0  0  0  0  0  0
   -8.0457   -0.6984    0.7818 O   0  0  0  0  0  0  0  0  0  0  0  0
    0.4091    0.0676   -0.0445 C   0  0  1  0  0  0  0  0  0  0  0  0
   -0.5635    1.2331    0.2377 C   0  0  2  0  0  0  0  0  0  0  0  0
   -1.9530    1.0123   -0.3703 C   0  0  1  0  0  0  0  0  0  0  0  0
   -2.5609   -0.2946    0.2345 C   0  0  1  0  0  0  0  0  0  0  0  0
   -4.0149   -0.5721   -0.3041 C   0  0  2  0  0  0  0  0  0  0  0  0
    1.6783    0.6344    0.6374 C   0  0  2  0  0  0  0  0  0  0  0  0
   -0.1669   -1.1937    0.6139 C   0  0  0  0  0  0  0  0  0  0  0  0
   -1.5898   -1.4990    0.1108 C   0  0  0  0  0  0  0  0  0  0  0  0
    0.2335    2.4708   -0.1632 C   0  0  0  0  0  0  0  0  0  0  0  0
   -4.8809    0.6934    0.0031 C   0  0  1  0  0  0  0  0  0  0  0  0
   -2.8713    2.2166   -0.1214 C   0  0  0  0  0  0  0  0  0  0  0  0
    1.6843    2.1235    0.2187 C   0  0  0  0  0  0  0  0  0  0  0  0
   -4.2952    1.9698   -0.6114 C   0  0  0  0  0  0  0  0  0  0  0  0
    2.9908   -0.0721    0.3300 C   0  0  1  0  0  0  0  0  0  0  0  0
    0.6577   -0.1988   -1.5506 C   0  0  0  0  0  0  0  0  0  0  0  0
   -4.6576   -1.7650    0.4607 C   0  0  0  0  0  0  0  0  0  0  0  0
   -3.9897   -0.9077   -1.8160 C   0  0  0  0  0  0  0  0  0  0  0  0
   -6.3520    0.5261   -0.3872 C   0  0  0  0  0  0  0  0  0  0  0  0
   -6.1337   -1.9866    0.1387 C   0  0  0  0  0  0  0  0  0  0  0  0
    4.1783    0.6356    1.0360 C   0  0  2  0  0  0  0  0  0  0  0  0
   -6.9286   -0.7090    0.2650 C   0  0  0  0  0  0  0  0  0  0  0  0
    2.8722   -1.5571    0.7034 C   0  0  0  0  0  0  0  0  0  0  0  0
    5.5301   -0.0551    0.7857 C   0  0  0  0  0  0  0  0  0  0  0  0
    5.9680   -0.1545   -0.6992 C   0  0  2  0  0  0  0  0  0  0  0  0
    7.2597   -0.9932   -0.9192 C   0  0  0  0  0  0  0  0  0  0  0  0
    6.0635    1.2674   -1.2742 C   0  0  0  0  0  0  0  0  0  0  0  0
    7.0683   -2.4607   -0.5175 C   0  0  0  0  0  0  0  0  0  0  0  0
    8.4949   -0.4260   -0.2145 C   0  0  0  0  0  0  0  0  0  0  0  0
   -0.7083    1.3077    1.3288 H   0  0  0  0  0  0  0  0  0  0  0  0
   -1.8517    0.9049   -1.4549 H   0  0  0  0  0  0  0  0  0  0  0  0
   -2.6617   -0.1152    1.3170 H   0  0  0  0  0  0  0  0  0  0  0  0
    1.5115    0.6067    1.7250 H   0  0  0  0  0  0  0  0  0  0  0  0
   -0.2006   -1.0698    1.7039 H   0  0  0  0  0  0  0  0  0  0  0  0
    0.4178   -2.0917    0.4190 H   0  0  0  0  0  0  0  0  0  0  0  0
   -1.9714   -2.3448    0.6935 H   0  0  0  0  0  0  0  0  0  0  0  0
   -1.5350   -1.8402   -0.9275 H   0  0  0  0  0  0  0  0  0  0  0  0
    0.1576    2.6664   -1.2387 H   0  0  0  0  0  0  0  0  0  0  0  0
   -0.1111    3.3676    0.3617 H   0  0  0  0  0  0  0  0  0  0  0  0
   -4.8674    0.8347    1.0956 H   0  0  0  0  0  0  0  0  0  0  0  0
   -2.4738    3.1047   -0.6264 H   0  0  0  0  0  0  0  0  0  0  0  0
   -2.8967    2.4492    0.9510 H   0  0  0  0  0  0  0  0  0  0  0  0
    2.0280    2.7556    1.0450 H   0  0  0  0  0  0  0  0  0  0  0  0
    2.3406    2.3133   -0.6383 H   0  0  0  0  0  0  0  0  0  0  0  0
   -4.3090    1.9150   -1.7061 H   0  0  0  0  0  0  0  0  0  0  0  0
   -4.9148    2.8325   -0.3369 H   0  0  0  0  0  0  0  0  0  0  0  0
    3.1802   -0.0162   -0.7474 H   0  0  0  0  0  0  0  0  0  0  0  0
    1.1382    0.6486   -2.0501 H   0  0  0  0  0  0  0  0  0  0  0  0
    1.2985   -1.0713   -1.7086 H   0  0  0  0  0  0  0  0  0  0  0  0
   -0.2665   -0.3999   -2.0990 H   0  0  0  0  0  0  0  0  0  0  0  0
   -4.1216   -2.6966    0.2459 H   0  0  0  0  0  0  0  0  0  0  0  0
   -4.5614   -1.5910    1.5409 H   0  0  0  0  0  0  0  0  0  0  0  0
   -3.4933   -0.1364   -2.4100 H   0  0  0  0  0  0  0  0  0  0  0  0
   -3.4680   -1.8518   -2.0041 H   0  0  0  0  0  0  0  0  0  0  0  0
   -4.9936   -1.0239   -2.2341 H   0  0  0  0  0  0  0  0  0  0  0  0
   -6.4905    0.4498   -1.4699 H   0  0  0  0  0  0  0  0  0  0  0  0
   -6.9269    1.3937   -0.0421 H   0  0  0  0  0  0  0  0  0  0  0  0
   -6.2673   -2.3743   -0.8761 H   0  0  0  0  0  0  0  0  0  0  0  0
   -6.5474   -2.7276    0.8317 H   0  0  0  0  0  0  0  0  0  0  0  0
    4.2442    1.6749    0.7004 H   0  0  0  0  0  0  0  0  0  0  0  0
    3.8445   -2.0538    0.7367 H   0  0  0  0  0  0  0  0  0  0  0  0
    2.4094   -1.7007    1.6848 H   0  0  0  0  0  0  0  0  0  0  0  0
    2.3293   -2.1188   -0.0577 H   0  0  0  0  0  0  0  0  0  0  0  0
    6.2901    0.5142    1.3392 H   0  0  0  0  0  0  0  0  0  0  0  0
    5.5438   -1.0345    1.2720 H   0  0  0  0  0  0  0  0  0  0  0  0
    4.6567    1.1612    2.8557 H   0  0  0  0  0  0  0  0  0  0  0  0
    5.1822   -0.6731   -1.2618 H   0  0  0  0  0  0  0  0  0  0  0  0
    7.4691   -0.9845   -1.9977 H   0  0  0  0  0  0  0  0  0  0  0  0
    6.4949    1.2440   -2.2808 H   0  0  0  0  0  0  0  0  0  0  0  0
    5.0765    1.7310   -1.3654 H   0  0  0  0  0  0  0  0  0  0  0  0
    6.6908    1.9160   -0.6543 H   0  0  0  0  0  0  0  0  0  0  0  0
    6.1724   -2.8810   -0.9862 H   0  0  0  0  0  0  0  0  0  0  0  0
    6.9794   -2.5823    0.5663 H   0  0  0  0  0  0  0  0  0  0  0  0
    7.9252   -3.0599   -0.8447 H   0  0  0  0  0  0  0  0  0  0  0  0
    9.3832   -1.0164   -0.4652 H   0  0  0  0  0  0  0  0  0  0  0  0
    8.3845   -0.4434    0.8743 H   0  0  0  0  0  0  0  0  0  0  0  0
    8.6918    0.6049   -0.5233 H   0  0  0  0  0  0  0  0  0  0  0  0
  1 22  1  0  0  0  0
  1 67  1  0  0  0  0
  2 23  2  0  0  0  0
  3  4  1  0  0  0  0
  3  8  1  0  0  0  0
  3  9  1  0  0  0  0
  3 17  1  0  0  0  0
  4  5  1  0  0  0  0
  4 11  1  0  0  0  0
  4 31  1  0  0  0  0
  5  6  1  0  0  0  0
  5 13  1  0  0  0  0
  5 32  1  0  0  0  0
  6  7  1  0  0  0  0
  6 10  1  0  0  0  0
  6 33  1  0  0  0  0
  7 12  1  0  0  0  0
  7 18  1  0  0  0  0
  7 19  1  0  0  0  0
  8 14  1  0  0  0  0
  8 16  1  0  0  0  0
  8 34  1  0  0  0  0
  9 10  1  0  0  0  0
  9 35  1  0  0  0  0
  9 36  1  0  0  0  0
 10 37  1  0  0  0  0
 10 38  1  0  0  0  0
 11 14  1  0  0  0  0
 11 39  1  0  0  0  0
 11 40  1  0  0  0  0
 12 15  1  0  0  0  0
 12 20  1  0  0  0  0
 12 41  1  0  0  0  0
 13 15  1  0  0  0  0
 13 42  1  0  0  0  0
 13 43  1  0  0  0  0
 14 44  1  0  0  0  0
 14 45  1  0  0  0  0
 15 46  1  0  0  0  0
 15 47  1  0  0  0  0
 16 22  1  0  0  0  0
 16 24  1  0  0  0  0
 16 48  1  0  0  0  0
 17 49  1  0  0  0  0
 17 50  1  0  0  0  0
 17 51  1  0  0  0  0
 18 21  1  0  0  0  0
 18 52  1  0  0  0  0
 18 53  1  0  0  0  0
 19 54  1  0  0  0  0
 19 55  1  0  0  0  0
 19 56  1  0  0  0  0
 20 23  1  0  0  0  0
 20 57  1  0  0  0  0
 20 58  1  0  0  0  0
 21 23  1  0  0  0  0
 21 59  1  0  0  0  0
 21 60  1  0  0  0  0
 22 25  1  0  0  0  0
 22 61  1  0  0  0  0
 24 62  1  0  0  0  0
 24 63  1  0  0  0  0
 24 64  1  0  0  0  0
 25 26  1  0  0  0  0
 25 65  1  0  0  0  0
 25 66  1  0  0  0  0
 26 27  1  0  0  0  0
 26 28  1  0  0  0  0
 26 68  1  0  0  0  0
 27 29  1  0  0  0  0
 27 30  1  0  0  0  0
 27 69  1  0  0  0  0
 28 70  1  0  0  0  0
 28 71  1  0  0  0  0
 28 72  1  0  0  0  0
 29 73  1  0  0  0  0
 29 74  1  0  0  0  0
 29 75  1  0  0  0  0
 30 76  1  0  0  0  0
 30 77  1  0  0  0  0
 30 78  1  0  0  0  0
M  END
> <PUBCHEM_COMPOUND_CID>
23724589

> <PUBCHEM_CONFORMER_RMSD>
0.8

> <PUBCHEM_CONFORMER_DIVERSEORDER>
1
10
15
12
17
13
5
14
7
6
9
2
16
8
3
11
4

> <PUBCHEM_MMFF94_PARTIAL_CHARGES>
7
1 -0.68
2 -0.57
20 0.06
21 0.06
22 0.28
23 0.45
67 0.4

> <PUBCHEM_EFFECTIVE_ROTOR_COUNT>
7

> <PUBCHEM_PHARMACOPHORE_FEATURES>
10
1 1 acceptor
1 1 donor
1 2 acceptor
1 24 hydrophobe
1 28 hydrophobe
3 27 29 30 hydrophobe
5 3 4 8 11 14 rings
6 3 4 5 6 9 10 rings
6 5 6 7 12 13 15 rings
6 7 12 18 20 21 23 rings

> <PUBCHEM_HEAVY_ATOM_COUNT>
30

> <PUBCHEM_ATOM_DEF_STEREO_COUNT>
9

> <PUBCHEM_ATOM_UDEF_STEREO_COUNT>
1

> <PUBCHEM_BOND_DEF_STEREO_COUNT>
0

> <PUBCHEM_BOND_UDEF_STEREO_COUNT>
0

> <PUBCHEM_ISOTOPIC_ATOM_COUNT>
0

> <PUBCHEM_COMPONENT_COUNT>
1

> <PUBCHEM_CACTVS_TAUTO_COUNT>
3

> <PUBCHEM_CONFORMER_ID>
016A022D00000001

> <PUBCHEM_MMFF94_ENERGY>
102.1192

> <PUBCHEM_FEATURE_SELFOVERLAP>
50.835

> <PUBCHEM_SHAPE_FINGERPRINT>
10076449 9 18187359935665124208
10299344 5 18131069337878835114
11524674 6 16587744222428543999
117089 54 17534893393656964934
11963148 33 18412271622653167514
12166972 35 18201998815944400916
12236239 1 17561368395657801489
12516196 113 18411140229593033296
13288520 33 18411700985203099725
13533116 47 15913340125938227568
13673619 4 17967252014347033312
13685833 64 17748825224779577762
13690498 29 18271812328077025645
13782708 43 17821453460862409382
14118638 360 15195295247655027238
14294032 229 17915461812623313965
14856354 85 18130785638510258111
14955137 171 18113620049433342440
15021287 119 14851610977034789816
15183329 4 17988924483530393368
15301273 46 18113056038638264520
15352257 5 18333448759718373006
15419008 47 18041002851459095512
15461852 350 12463559665134253841
15510800 12 17532079670481377070
15849732 13 18408040697671508062
16090146 7 17489007345549162282
18608769 82 18411698759998967019
18681886 176 18343303644163166608
18927931 339 18411422787465777679
20105231 36 18412256229484766363
2026 5 17970905790735319566
21033648 29 17676788503502149857
21130935 74 17968662601380885579
21150785 3 16200432463761511634
21267235 1 18412542098639593521
21521721 280 12103845670031669572
23522609 53 18194371520699169664
23559900 14 18339083674705355240
23569943 247 18190738841924225434
23576562 1 17559959818985305095
3004659 81 18131634465359790784
3178227 256 17313105259445649358
335352 9 18341900697654451549
3383291 50 18342178830060591994
34797466 226 18336260168243542460
350125 39 18343022177491547405
4325135 7 18131912663334249742
439807 62 18409445917120067614
504579 68 17203327823451941626
5104073 3 18264220251789514273
54039377 194 18201431451249609851
636775 8 18059847342814154491
9896288 288 17969214702848330225
999808 66 18272922813747085011

> <PUBCHEM_SHAPE_MULTIPOLES>
605.65
21.66
2.24
1.22
13.29
0.33
0.03
-8.95
-2.13
-0.49
-0.09
0.95
0
0.77

> <PUBCHEM_SHAPE_SELFOVERLAP>
1252.753

> <PUBCHEM_SHAPE_VOLUME>
346

> <PUBCHEM_COORDINATE_TYPE>
2
5
10

$$$$

