86453
  -OEChem-07051213002D

 41 43  0     0  0  0  0  0  0999 V2000
    7.1279   -2.1830    0.0000 Cl  0  0  0  0  0  0  0  0  0  0  0  0
    7.1279   -0.4510    0.0000 S   0  0  0  0  0  0  0  0  0  0  0  0
    2.0000   -1.4510    0.0000 F   0  0  0  0  0  0  0  0  0  0  0  0
    3.7320    1.5490    0.0000 O   0  0  0  0  0  0  0  0  0  0  0  0
    7.1279   -1.4510    0.0000 O   0  0  0  0  0  0  0  0  0  0  0  0
    7.1279    0.5490    0.0000 O   0  0  0  0  0  0  0  0  0  0  0  0
   11.1279   -0.4510    0.0000 O   0  0  0  0  0  0  0  0  0  0  0  0
    9.6279    0.4151    0.0000 O   0  0  0  0  0  0  0  0  0  0  0  0
    4.5981    0.0490    0.0000 N   0  0  0  0  0  0  0  0  0  0  0  0
    8.1279   -0.4510    0.0000 N   0  0  0  0  0  0  0  0  0  0  0  0
    5.5443    0.3538    0.0000 N   0  0  0  0  0  0  0  0  0  0  0  0
    5.5443   -1.2557    0.0000 N   0  0  0  0  0  0  0  0  0  0  0  0
    2.8660    0.0490    0.0000 N   0  0  0  0  0  0  0  0  0  0  0  0
    6.1279   -0.4510    0.0000 C   0  0  0  0  0  0  0  0  0  0  0  0
    4.5981   -0.9510    0.0000 C   0  0  0  0  0  0  0  0  0  0  0  0
    8.6279   -1.3170    0.0000 C   0  0  0  0  0  0  0  0  0  0  0  0
    9.6279   -1.3170    0.0000 C   0  0  0  0  0  0  0  0  0  0  0  0
    3.7320    0.5490    0.0000 C   0  0  0  0  0  0  0  0  0  0  0  0
    8.1279   -2.1830    0.0000 C   0  0  0  0  0  0  0  0  0  0  0  0
    3.7320   -1.4510    0.0000 C   0  0  0  0  0  0  0  0  0  0  0  0
   10.1279   -2.1830    0.0000 C   0  0  0  0  0  0  0  0  0  0  0  0
    8.6279   -3.0490    0.0000 C   0  0  0  0  0  0  0  0  0  0  0  0
    2.8660   -0.9510    0.0000 C   0  0  0  0  0  0  0  0  0  0  0  0
    9.6279   -3.0490    0.0000 C   0  0  0  0  0  0  0  0  0  0  0  0
   10.1279   -0.4510    0.0000 C   0  0  0  0  0  0  0  0  0  0  0  0
    2.8660    2.0490    0.0000 C   0  0  0  0  0  0  0  0  0  0  0  0
    2.8660    3.0490    0.0000 C   0  0  0  0  0  0  0  0  0  0  0  0
   11.6279   -1.3170    0.0000 C   0  0  0  0  0  0  0  0  0  0  0  0
    8.4379    0.0860    0.0000 H   0  0  0  0  0  0  0  0  0  0  0  0
    3.7320   -2.0710    0.0000 H   0  0  0  0  0  0  0  0  0  0  0  0
   10.7479   -2.1830    0.0000 H   0  0  0  0  0  0  0  0  0  0  0  0
    8.3179   -3.5860    0.0000 H   0  0  0  0  0  0  0  0  0  0  0  0
    9.9379   -3.5860    0.0000 H   0  0  0  0  0  0  0  0  0  0  0  0
    2.2554    2.1567    0.0000 H   0  0  0  0  0  0  0  0  0  0  0  0
    2.6540    1.4664    0.0000 H   0  0  0  0  0  0  0  0  0  0  0  0
    3.4860    3.0490    0.0000 H   0  0  0  0  0  0  0  0  0  0  0  0
    2.8660    3.6690    0.0000 H   0  0  0  0  0  0  0  0  0  0  0  0
    2.2460    3.0490    0.0000 H   0  0  0  0  0  0  0  0  0  0  0  0
   11.0910   -1.6270    0.0000 H   0  0  0  0  0  0  0  0  0  0  0  0
   11.9379   -1.8539    0.0000 H   0  0  0  0  0  0  0  0  0  0  0  0
   12.1648   -1.0070    0.0000 H   0  0  0  0  0  0  0  0  0  0  0  0
  1 19  1  0  0  0  0
  2  5  2  0  0  0  0
  2  6  2  0  0  0  0
  2 10  1  0  0  0  0
  2 14  1  0  0  0  0
  3 23  1  0  0  0  0
  4 18  1  0  0  0  0
  4 26  1  0  0  0  0
  7 25  1  0  0  0  0
  7 28  1  0  0  0  0
  8 25  2  0  0  0  0
  9 11  1  0  0  0  0
  9 15  1  0  0  0  0
  9 18  1  0  0  0  0
 10 16  1  0  0  0  0
 10 29  1  0  0  0  0
 11 14  2  0  0  0  0
 12 14  1  0  0  0  0
 12 15  2  0  0  0  0
 13 18  2  0  0  0  0
 13 23  1  0  0  0  0
 15 20  1  0  0  0  0
 16 17  2  0  0  0  0
 16 19  1  0  0  0  0
 17 21  1  0  0  0  0
 17 25  1  0  0  0  0
 19 22  2  0  0  0  0
 20 23  2  0  0  0  0
 20 30  1  0  0  0  0
 21 24  2  0  0  0  0
 21 31  1  0  0  0  0
 22 24  1  0  0  0  0
 22 32  1  0  0  0  0
 24 33  1  0  0  0  0
 26 27  1  0  0  0  0
 26 34  1  0  0  0  0
 26 35  1  0  0  0  0
 27 36  1  0  0  0  0
 27 37  1  0  0  0  0
 27 38  1  0  0  0  0
 28 39  1  0  0  0  0
 28 40  1  0  0  0  0
 28 41  1  0  0  0  0
M  END
> <PUBCHEM_COMPOUND_CID>
86453

> <PUBCHEM_COMPOUND_CANONICALIZED>
1

> <PUBCHEM_CACTVS_COMPLEXITY>
668

> <PUBCHEM_CACTVS_HBOND_ACCEPTOR>
10

> <PUBCHEM_CACTVS_HBOND_DONOR>
1

> <PUBCHEM_CACTVS_ROTATABLE_BOND>
7

> <PUBCHEM_CACTVS_SUBSKEYS>
AAADccBzuQBEAAAAAAAAAAAAAAAAAWAAAAA8QAAAAAAAAFgB8AAAHwYYQAAADAqhmyoz+J5IFAKqAibybHCa1CslB6AdmCEwbtiILjrB/9mMtYhuyANI6eeYyCCOAAAAIAACABAAAABAAAQAIAAAAAAAAA==

> <PUBCHEM_IUPAC_OPENEYE_NAME>
methyl 3-chloro-2-[(5-ethoxy-7-fluoro-[1,2,4]triazolo[1,5-c]pyrimidin-2-yl)sulfonylamino]benzoate

> <PUBCHEM_IUPAC_CAS_NAME>
3-chloro-2-[(5-ethoxy-7-fluoro-[1,2,4]triazolo[1,5-c]pyrimidin-2-yl)sulfonylamino]benzoic acid methyl ester

> <PUBCHEM_IUPAC_NAME>
methyl 3-chloro-2-[(5-ethoxy-7-fluoro-[1,2,4]triazolo[1,5-c]pyrimidin-2-yl)sulfonylamino]benzoate

> <PUBCHEM_IUPAC_SYSTEMATIC_NAME>
methyl 3-chloranyl-2-[(5-ethoxy-7-fluoranyl-[1,2,4]triazolo[1,5-c]pyrimidin-2-yl)sulfonylamino]benzoate

> <PUBCHEM_IUPAC_TRADITIONAL_NAME>
3-chloro-2-[(5-ethoxy-7-fluoro-[1,2,4]triazolo[1,5-c]pyrimidin-2-yl)sulfonylamino]benzoic acid methyl ester

> <PUBCHEM_IUPAC_INCHI>
InChI=1S/C15H13ClFN5O5S/c1-3-27-15-18-10(17)7-11-19-14(20-22(11)15)28(24,25)21-12-8(13(23)26-2)5-4-6-9(12)16/h4-7,21H,3H2,1-2H3

> <PUBCHEM_IUPAC_INCHIKEY>
BIKACRYIQSLICJ-UHFFFAOYSA-N

> <PUBCHEM_XLOGP3_AA>
3.1

> <PUBCHEM_EXACT_MASS>
429.030995

> <PUBCHEM_MOLECULAR_FORMULA>
C15H13ClFN5O5S

> <PUBCHEM_MOLECULAR_WEIGHT>
429.810623

> <PUBCHEM_OPENEYE_CAN_SMILES>
CCOC1=NC(=CC2=NC(=NN21)S(=O)(=O)NC3=C(C=CC=C3Cl)C(=O)OC)F

> <PUBCHEM_OPENEYE_ISO_SMILES>
CCOC1=NC(=CC2=NC(=NN21)S(=O)(=O)NC3=C(C=CC=C3Cl)C(=O)OC)F

> <PUBCHEM_CACTVS_TPSA>
133

> <PUBCHEM_MONOISOTOPIC_WEIGHT>
429.030995

> <PUBCHEM_TOTAL_CHARGE>
0

> <PUBCHEM_HEAVY_ATOM_COUNT>
28

> <PUBCHEM_ATOM_DEF_STEREO_COUNT>
0

> <PUBCHEM_ATOM_UDEF_STEREO_COUNT>
0

> <PUBCHEM_BOND_DEF_STEREO_COUNT>
0

> <PUBCHEM_BOND_UDEF_STEREO_COUNT>
0

> <PUBCHEM_ISOTOPIC_ATOM_COUNT>
0

> <PUBCHEM_COMPONENT_COUNT>
1

> <PUBCHEM_CACTVS_TAUTO_COUNT>
3

> <PUBCHEM_COORDINATE_TYPE>
1
5
255

> <PUBCHEM_BONDANNOTATIONS>
11  14  8
12  14  8
12  15  8
13  18  8
13  23  8
15  20  8
16  17  8
16  19  8
17  21  8
19  22  8
20  23  8
21  24  8
22  24  8
9  11  8
9  15  8
9  18  8

$$$$

