586289
  -OEChem-06241222463D

 26 27  0     0  0  0  0  0  0999 V2000
    6.5556    0.5485   -0.0081 Cl  0  0  0  0  0  0  0  0  0  0  0  0
   -4.9751    1.4291   -0.0181 S   0  0  0  0  0  0  0  0  0  0  0  0
    0.8644   -0.8957    0.0289 O   0  0  0  0  0  0  0  0  0  0  0  0
    0.3226    1.3779   -0.0675 O   0  0  0  0  0  0  0  0  0  0  0  0
    2.1836   -0.5611    0.0203 C   0  0  0  0  0  0  0  0  0  0  0  0
   -3.8392    0.1875   -0.0100 C   0  0  0  0  0  0  0  0  0  0  0  0
    2.8547   -0.3397    1.2228 C   0  0  0  0  0  0  0  0  0  0  0  0
    2.8644   -0.4394   -1.1912 C   0  0  0  0  0  0  0  0  0  0  0  0
   -2.4154    0.5661   -0.0318 C   0  0  0  0  0  0  0  0  0  0  0  0
   -4.3322   -1.0581    0.0163 C   0  0  0  0  0  0  0  0  0  0  0  0
    4.2067    0.0034    1.2140 C   0  0  0  0  0  0  0  0  0  0  0  0
    4.2165   -0.0963   -1.2000 C   0  0  0  0  0  0  0  0  0  0  0  0
    4.8877    0.1250    0.0027 C   0  0  0  0  0  0  0  0  0  0  0  0
   -1.3963   -0.3043   -0.0046 C   0  0  0  0  0  0  0  0  0  0  0  0
   -5.7564   -1.0177    0.0313 C   0  0  0  0  0  0  0  0  0  0  0  0
   -0.0037    0.2019   -0.0199 C   0  0  0  0  0  0  0  0  0  0  0  0
   -6.2377    0.2728    0.0151 C   0  0  0  0  0  0  0  0  0  0  0  0
    2.3304   -0.4334    2.1699 H   0  0  0  0  0  0  0  0  0  0  0  0
    2.3476   -0.6110   -2.1314 H   0  0  0  0  0  0  0  0  0  0  0  0
   -2.1989    1.6324   -0.0675 H   0  0  0  0  0  0  0  0  0  0  0  0
   -3.7626   -1.9782    0.0250 H   0  0  0  0  0  0  0  0  0  0  0  0
    4.7168    0.1730    2.1587 H   0  0  0  0  0  0  0  0  0  0  0  0
    4.7341   -0.0051   -2.1514 H   0  0  0  0  0  0  0  0  0  0  0  0
   -1.5380   -1.3782    0.0342 H   0  0  0  0  0  0  0  0  0  0  0  0
   -6.3956   -1.8909    0.0527 H   0  0  0  0  0  0  0  0  0  0  0  0
   -7.2705    0.5919    0.0210 H   0  0  0  0  0  0  0  0  0  0  0  0
  1 13  1  0  0  0  0
  2  6  1  0  0  0  0
  2 17  1  0  0  0  0
  3  5  1  0  0  0  0
  3 16  1  0  0  0  0
  4 16  2  0  0  0  0
  5  7  2  0  0  0  0
  5  8  1  0  0  0  0
  6  9  1  0  0  0  0
  6 10  2  0  0  0  0
  7 11  1  0  0  0  0
  7 18  1  0  0  0  0
  8 12  2  0  0  0  0
  8 19  1  0  0  0  0
  9 14  2  0  0  0  0
  9 20  1  0  0  0  0
 10 15  1  0  0  0  0
 10 21  1  0  0  0  0
 11 13  2  0  0  0  0
 11 22  1  0  0  0  0
 12 13  1  0  0  0  0
 12 23  1  0  0  0  0
 14 16  1  0  0  0  0
 14 24  1  0  0  0  0
 15 17  2  0  0  0  0
 15 25  1  0  0  0  0
 17 26  1  0  0  0  0
M  END
> <PUBCHEM_COMPOUND_CID>
586289

> <PUBCHEM_CONFORMER_RMSD>
0.6

> <PUBCHEM_CONFORMER_DIVERSEORDER>
1
67
36
39
62
17
73
66
8
65
68
5
53
50
11
78
3
55
10
47
45
2
41
7
56
16
31
71
9
30
61
75
74
60
52
35
33
63
15
19
13
77
43
48
70
46
4
57
27
58
40
23
44
42
34
76
20
12
32
25
6
72
51
37
14
64
54
28
59
69
18
26
29
22
21
38
49
24

> <PUBCHEM_MMFF94_PARTIAL_CHARGES>
26
1 -0.18
10 -0.15
11 -0.15
12 -0.15
13 0.18
14 -0.14
15 -0.15
16 0.71
17 -0.11
18 0.15
19 0.15
2 -0.08
20 0.15
21 0.15
22 0.15
23 0.15
24 0.15
25 0.15
26 0.15
3 -0.23
4 -0.57
5 0.08
6 -0.01
7 -0.15
8 -0.15
9 -0.11

> <PUBCHEM_EFFECTIVE_ROTOR_COUNT>
4

> <PUBCHEM_PHARMACOPHORE_FEATURES>
3
1 4 acceptor
5 2 6 10 15 17 rings
6 5 7 8 11 12 13 rings

> <PUBCHEM_HEAVY_ATOM_COUNT>
17

> <PUBCHEM_ATOM_DEF_STEREO_COUNT>
0

> <PUBCHEM_ATOM_UDEF_STEREO_COUNT>
0

> <PUBCHEM_BOND_DEF_STEREO_COUNT>
0

> <PUBCHEM_BOND_UDEF_STEREO_COUNT>
1

> <PUBCHEM_ISOTOPIC_ATOM_COUNT>
0

> <PUBCHEM_COMPONENT_COUNT>
1

> <PUBCHEM_CACTVS_TAUTO_COUNT>
1

> <PUBCHEM_CONFORMER_ID>
0008F23100000001

> <PUBCHEM_MMFF94_ENERGY>
45.2098

> <PUBCHEM_FEATURE_SELFOVERLAP>
15.223

> <PUBCHEM_SHAPE_FINGERPRINT>
10354089 29 16917349238777071198
10912923 1 17704070707445286961
10968037 39 18410293601945727319
11287383 113 17968096404099417786
11315181 36 18343300354218009985
12091667 2 18411418406430246043
12107183 9 16910617134875100321
12236239 1 17917713513277164850
12516196 113 17967534566991140057
12730499 353 17312820468622408502
13533116 47 17346327037606777402
14123238 8 17917993884352237387
1420 363 17822007610132292463
14251718 22 18408321081705328577
14251764 18 18131630093831864481
14251764 46 18040436589921532838
14341114 176 16153705405972489283
14573314 32 17458622358589511937
15788980 27 13110958717428761083
17834072 33 18131631166967072525
17834076 25 18411700988875451354
17844677 252 16877656872935090897
19489759 90 18411700998172254841
200 152 16200437978800037799
20645477 70 15267069180778435802
21033648 29 16878239652926441953
21033650 10 17842535603617967341
21054139 6 17917150502994417291
21150785 3 17676214559070812405
220451 1 17561080319574884915
2297311 6 18113611296917357065
23035841 295 18408603673241894858
23402539 116 16702306758669022095
23536379 177 15985108526536933821
23557571 272 18260823855908028397
23559900 14 16515693216606566754
239999 70 17967248706910764598
29717793 49 17704069625208720782
300161 21 17918278670917596771
34797466 226 18041271093393179157
3545911 37 17022904536153847486
42788 4 18410575088968602213
4325135 7 17989207044548345719
4340502 62 15913327987859352648
4463277 17 18410575080405353184
542803 24 17846497041233938743
7495541 125 17417805102590246861

> <PUBCHEM_SHAPE_MULTIPOLES>
343.83
16.81
1.1
0.96
4.28
0.15
-0.01
1.15
-0.05
1.16
0.01
-1.23
-0.07
0.1

> <PUBCHEM_SHAPE_SELFOVERLAP>
713.383

> <PUBCHEM_SHAPE_VOLUME>
197

> <PUBCHEM_COORDINATE_TYPE>
2
5
10

$$$$

