1517
  -OEChem-07051213072D

 66 68  0     0  0  0  0  0  0999 V2000
    8.9282   -1.4050    0.0000 Cl  0  0  0  0  0  0  0  0  0  0  0  0
    3.7320   -4.4050    0.0000 Cl  0  0  0  0  0  0  0  0  0  0  0  0
    3.7320   -6.4050    0.0000 Cl  0  0  0  0  0  0  0  0  0  0  0  0
    7.1962    1.5950    0.0000 F   0  0  0  0  0  0  0  0  0  0  0  0
    4.5981    4.0950    0.0000 O   0  0  0  0  0  0  0  0  0  0  0  0
    7.1962   -3.4050    0.0000 O   0  0  0  0  0  0  0  0  0  0  0  0
    2.8660    6.0950    0.0000 O   0  0  0  0  0  0  0  0  0  0  0  0
    2.0000    4.5950    0.0000 O   0  0  0  0  0  0  0  0  0  0  0  0
    6.3301   -1.9050    0.0000 N   0  0  0  0  0  0  0  0  0  0  0  0
    5.4641   -3.4050    0.0000 N   0  0  0  0  0  0  0  0  0  0  0  0
    5.4641   -1.4050    0.0000 C   0  0  0  0  0  0  0  0  0  0  0  0
    5.4641   -0.4050    0.0000 C   0  0  0  0  0  0  0  0  0  0  0  0
    4.5981    0.0950    0.0000 C   0  0  0  0  0  0  0  0  0  0  0  0
    7.1962   -1.4050    0.0000 C   0  0  0  0  0  0  0  0  0  0  0  0
    7.1962   -0.4050    0.0000 C   0  0  0  0  0  0  0  0  0  0  0  0
    4.5981    1.0950    0.0000 C   0  0  0  0  0  0  0  0  0  0  0  0
    6.3301   -2.9050    0.0000 C   0  0  0  0  0  0  0  0  0  0  0  0
    8.0622    0.0950    0.0000 C   0  0  0  0  0  0  0  0  0  0  0  0
    5.4641    1.5950    0.0000 C   0  0  0  0  0  0  0  0  0  0  0  0
    3.7320    1.5950    0.0000 C   0  0  0  0  0  0  0  0  0  0  0  0
    3.7320    4.5950    0.0000 C   0  0  0  0  0  0  0  0  0  0  0  0
    4.5981    3.0950    0.0000 C   0  0  0  0  0  0  0  0  0  0  0  0
    5.4641    2.5950    0.0000 C   0  0  0  0  0  0  0  0  0  0  0  0
    3.7320    2.5950    0.0000 C   0  0  0  0  0  0  0  0  0  0  0  0
    8.9282   -0.4050    0.0000 C   0  0  0  0  0  0  0  0  0  0  0  0
    8.0622    1.0950    0.0000 C   0  0  0  0  0  0  0  0  0  0  0  0
    4.2320    5.4610    0.0000 C   0  0  0  0  0  0  0  0  0  0  0  0
    3.2320    3.7290    0.0000 C   0  0  0  0  0  0  0  0  0  0  0  0
    5.4641   -4.4050    0.0000 C   0  0  0  0  0  0  0  0  0  0  0  0
    9.7942    0.0950    0.0000 C   0  0  0  0  0  0  0  0  0  0  0  0
    8.9282    1.5950    0.0000 C   0  0  0  0  0  0  0  0  0  0  0  0
    2.8660    5.0950    0.0000 C   0  0  0  0  0  0  0  0  0  0  0  0
    9.7942    1.0950    0.0000 C   0  0  0  0  0  0  0  0  0  0  0  0
    4.5981   -4.9050    0.0000 C   0  0  0  0  0  0  0  0  0  0  0  0
    6.3301   -4.9050    0.0000 C   0  0  0  0  0  0  0  0  0  0  0  0
    4.5981   -5.9050    0.0000 C   0  0  0  0  0  0  0  0  0  0  0  0
    6.3301   -5.9050    0.0000 C   0  0  0  0  0  0  0  0  0  0  0  0
    5.4641   -6.4050    0.0000 C   0  0  0  0  0  0  0  0  0  0  0  0
    4.8535   -1.2973    0.0000 H   0  0  0  0  0  0  0  0  0  0  0  0
    5.2520   -1.9876    0.0000 H   0  0  0  0  0  0  0  0  0  0  0  0
    6.0747   -0.5127    0.0000 H   0  0  0  0  0  0  0  0  0  0  0  0
    5.6762    0.1776    0.0000 H   0  0  0  0  0  0  0  0  0  0  0  0
    3.9875    0.2027    0.0000 H   0  0  0  0  0  0  0  0  0  0  0  0
    4.3860   -0.4876    0.0000 H   0  0  0  0  0  0  0  0  0  0  0  0
    7.4082   -1.9876    0.0000 H   0  0  0  0  0  0  0  0  0  0  0  0
    7.8067   -1.2973    0.0000 H   0  0  0  0  0  0  0  0  0  0  0  0
    6.9841    0.1776    0.0000 H   0  0  0  0  0  0  0  0  0  0  0  0
    6.5856   -0.5127    0.0000 H   0  0  0  0  0  0  0  0  0  0  0  0
    6.0010    1.2850    0.0000 H   0  0  0  0  0  0  0  0  0  0  0  0
    3.1951    1.2850    0.0000 H   0  0  0  0  0  0  0  0  0  0  0  0
    6.0010    2.9050    0.0000 H   0  0  0  0  0  0  0  0  0  0  0  0
    3.1951    2.9050    0.0000 H   0  0  0  0  0  0  0  0  0  0  0  0
    4.9272   -3.0950    0.0000 H   0  0  0  0  0  0  0  0  0  0  0  0
    4.7690    5.1510    0.0000 H   0  0  0  0  0  0  0  0  0  0  0  0
    2.6951    4.0390    0.0000 H   0  0  0  0  0  0  0  0  0  0  0  0
    2.9220    3.1920    0.0000 H   0  0  0  0  0  0  0  0  0  0  0  0
    3.7690    3.4190    0.0000 H   0  0  0  0  0  0  0  0  0  0  0  0
    4.5420    5.9980    0.0000 H   0  0  0  0  0  0  0  0  0  0  0  0
    3.6951    5.7710    0.0000 H   0  0  0  0  0  0  0  0  0  0  0  0
   10.3312   -0.2150    0.0000 H   0  0  0  0  0  0  0  0  0  0  0  0
    8.9282    2.2150    0.0000 H   0  0  0  0  0  0  0  0  0  0  0  0
   10.3312    1.4050    0.0000 H   0  0  0  0  0  0  0  0  0  0  0  0
    6.8671   -4.5950    0.0000 H   0  0  0  0  0  0  0  0  0  0  0  0
    6.8671   -6.2150    0.0000 H   0  0  0  0  0  0  0  0  0  0  0  0
    5.4641   -7.0250    0.0000 H   0  0  0  0  0  0  0  0  0  0  0  0
    2.3291    6.4050    0.0000 H   0  0  0  0  0  0  0  0  0  0  0  0
  1 25  1  0  0  0  0
  2 34  1  0  0  0  0
  3 36  1  0  0  0  0
  4 26  1  0  0  0  0
  5 21  1  0  0  0  0
  5 22  1  0  0  0  0
  6 17  2  0  0  0  0
  7 32  1  0  0  0  0
  7 66  1  0  0  0  0
  8 32  2  0  0  0  0
  9 11  1  0  0  0  0
  9 14  1  0  0  0  0
  9 17  1  0  0  0  0
 10 17  1  0  0  0  0
 10 29  1  0  0  0  0
 10 53  1  0  0  0  0
 11 12  1  0  0  0  0
 11 39  1  0  0  0  0
 11 40  1  0  0  0  0
 12 13  1  0  0  0  0
 12 41  1  0  0  0  0
 12 42  1  0  0  0  0
 13 16  1  0  0  0  0
 13 43  1  0  0  0  0
 13 44  1  0  0  0  0
 14 15  1  0  0  0  0
 14 45  1  0  0  0  0
 14 46  1  0  0  0  0
 15 18  1  0  0  0  0
 15 47  1  0  0  0  0
 15 48  1  0  0  0  0
 16 19  2  0  0  0  0
 16 20  1  0  0  0  0
 18 25  1  0  0  0  0
 18 26  2  0  0  0  0
 19 23  1  0  0  0  0
 19 49  1  0  0  0  0
 20 24  2  0  0  0  0
 20 50  1  0  0  0  0
 21 27  1  0  0  0  0
 21 28  1  0  0  0  0
 21 32  1  0  0  0  0
 22 23  2  0  0  0  0
 22 24  1  0  0  0  0
 23 51  1  0  0  0  0
 24 52  1  0  0  0  0
 25 30  2  0  0  0  0
 26 31  1  0  0  0  0
 27 54  1  0  0  0  0
 27 58  1  0  0  0  0
 27 59  1  0  0  0  0
 28 55  1  0  0  0  0
 28 56  1  0  0  0  0
 28 57  1  0  0  0  0
 29 34  2  0  0  0  0
 29 35  1  0  0  0  0
 30 33  1  0  0  0  0
 30 60  1  0  0  0  0
 31 33  2  0  0  0  0
 31 61  1  0  0  0  0
 33 62  1  0  0  0  0
 34 36  1  0  0  0  0
 35 37  2  0  0  0  0
 35 63  1  0  0  0  0
 36 38  2  0  0  0  0
 37 38  1  0  0  0  0
 37 64  1  0  0  0  0
 38 65  1  0  0  0  0
M  END
> <PUBCHEM_COMPOUND_CID>
1517

> <PUBCHEM_COMPOUND_CANONICALIZED>
1

> <PUBCHEM_CACTVS_COMPLEXITY>
768

> <PUBCHEM_CACTVS_HBOND_ACCEPTOR>
5

> <PUBCHEM_CACTVS_HBOND_DONOR>
2

> <PUBCHEM_CACTVS_ROTATABLE_BOND>
11

> <PUBCHEM_CACTVS_SUBSKEYS>
AAADceB7OQAGAAAAAAAAAAAAAAAAAAAAAAAwYMAAAAAAAAABUAAAHwIQCAAADE7BmCwzzoPABgCIAiTSWAKCCAAhJwAIikFOboiNJiLFs5/GeCjs1hPL6CeQwKAOIAAAAAIBABRAAAAABAIAKAAAAAAAAA==

> <PUBCHEM_IUPAC_OPENEYE_NAME>
2-[4-[3-[2-(2-chloro-6-fluoro-phenyl)ethyl-[(2,3-dichlorophenyl)carbamoyl]amino]propyl]phenoxy]-2-methyl-propanoic acid

> <PUBCHEM_IUPAC_CAS_NAME>
2-[4-[3-[2-(2-chloro-6-fluorophenyl)ethyl-[(2,3-dichloroanilino)-oxomethyl]amino]propyl]phenoxy]-2-methylpropanoic acid

> <PUBCHEM_IUPAC_NAME>
2-[4-[3-[2-(2-chloro-6-fluorophenyl)ethyl-[(2,3-dichlorophenyl)carbamoyl]amino]propyl]phenoxy]-2-methylpropanoic acid

> <PUBCHEM_IUPAC_SYSTEMATIC_NAME>
2-[4-[3-[[2,3-bis(chloranyl)phenyl]carbamoyl-[2-(2-chloranyl-6-fluoranyl-phenyl)ethyl]amino]propyl]phenoxy]-2-methyl-propanoic acid

> <PUBCHEM_IUPAC_TRADITIONAL_NAME>
2-[4-[3-[2-(2-chloro-6-fluoro-phenyl)ethyl-[(2,3-dichlorophenyl)carbamoyl]amino]propyl]phenoxy]-2-methyl-propionic acid

> <PUBCHEM_IUPAC_INCHI>
InChI=1S/C28H28Cl3FN2O4/c1-28(2,26(35)36)38-19-13-11-18(12-14-19)6-5-16-34(17-15-20-21(29)7-3-9-23(20)32)27(37)33-24-10-4-8-22(30)25(24)31/h3-4,7-14H,5-6,15-17H2,1-2H3,(H,33,37)(H,35,36)

> <PUBCHEM_IUPAC_INCHIKEY>
YMWJDWJXIXITMD-UHFFFAOYSA-N

> <PUBCHEM_XLOGP3_AA>
7.5

> <PUBCHEM_EXACT_MASS>
580.109869

> <PUBCHEM_MOLECULAR_FORMULA>
C28H28Cl3FN2O4

> <PUBCHEM_MOLECULAR_WEIGHT>
581.890323

> <PUBCHEM_OPENEYE_CAN_SMILES>
CC(C)(C(=O)O)OC1=CC=C(C=C1)CCCN(CCC2=C(C=CC=C2Cl)F)C(=O)NC3=C(C(=CC=C3)Cl)Cl

> <PUBCHEM_OPENEYE_ISO_SMILES>
CC(C)(C(=O)O)OC1=CC=C(C=C1)CCCN(CCC2=C(C=CC=C2Cl)F)C(=O)NC3=C(C(=CC=C3)Cl)Cl

> <PUBCHEM_CACTVS_TPSA>
78.9

> <PUBCHEM_MONOISOTOPIC_WEIGHT>
580.109869

> <PUBCHEM_TOTAL_CHARGE>
0

> <PUBCHEM_HEAVY_ATOM_COUNT>
38

> <PUBCHEM_ATOM_DEF_STEREO_COUNT>
0

> <PUBCHEM_ATOM_UDEF_STEREO_COUNT>
0

> <PUBCHEM_BOND_DEF_STEREO_COUNT>
0

> <PUBCHEM_BOND_UDEF_STEREO_COUNT>
0

> <PUBCHEM_ISOTOPIC_ATOM_COUNT>
0

> <PUBCHEM_COMPONENT_COUNT>
1

> <PUBCHEM_CACTVS_TAUTO_COUNT>
2

> <PUBCHEM_COORDINATE_TYPE>
1
5
255

> <PUBCHEM_BONDANNOTATIONS>
16  19  8
16  20  8
18  25  8
18  26  8
19  23  8
20  24  8
22  23  8
22  24  8
25  30  8
26  31  8
29  34  8
29  35  8
30  33  8
31  33  8
34  36  8
35  37  8
36  38  8
37  38  8

$$$$

