246485
  -OEChem-07051213072D

 50 53  0     1  0  0  0  0  0999 V2000
    8.6500    2.5983    0.0000 O   0  0  0  0  0  0  0  0  0  0  0  0
    5.6489   -2.7262    0.0000 O   0  0  0  0  0  0  0  0  0  0  0  0
    2.0000   -1.7093    0.0000 O   0  0  0  0  0  0  0  0  0  0  0  0
    7.3931    0.3431    0.0000 C   0  0  1  0  0  0  0  0  0  0  0  0
    6.5271   -0.1569    0.0000 C   0  0  1  0  0  0  0  0  0  0  0  0
    5.6610    0.3431    0.0000 C   0  0  1  0  0  0  0  0  0  0  0  0
    7.3931    1.3431    0.0000 C   0  0  2  0  0  0  0  0  0  0  0  0
    4.7510   -0.1638    0.0000 C   0  0  2  0  0  0  0  0  0  0  0  0
    5.6610    1.3431    0.0000 C   0  0  0  0  0  0  0  0  0  0  0  0
    6.5271    1.8431    0.0000 C   0  0  0  0  0  0  0  0  0  0  0  0
    8.3393    1.6478    0.0000 C   0  0  2  0  0  0  0  0  0  0  0  0
    8.3393    0.0383    0.0000 C   0  0  0  0  0  0  0  0  0  0  0  0
    4.7430   -1.2054    0.0000 C   0  0  1  0  0  0  0  0  0  0  0  0
    6.5431   -1.1984    0.0000 C   0  0  0  0  0  0  0  0  0  0  0  0
    8.9229    0.8431    0.0000 C   0  0  0  0  0  0  0  0  0  0  0  0
    3.8242    0.4003    0.0000 C   0  0  0  0  0  0  0  0  0  0  0  0
    5.6451   -1.7262    0.0000 C   0  0  0  0  0  0  0  0  0  0  0  0
    7.3931    2.3431    0.0000 C   0  0  0  0  0  0  0  0  0  0  0  0
    4.7587    0.8362    0.0000 C   0  0  0  0  0  0  0  0  0  0  0  0
    3.8076   -1.7551    0.0000 C   0  0  0  0  0  0  0  0  0  0  0  0
    2.8763   -0.1276    0.0000 C   0  0  0  0  0  0  0  0  0  0  0  0
    2.8680   -1.2126    0.0000 C   0  0  0  0  0  0  0  0  0  0  0  0
    7.4830   -0.5022    0.0000 H   0  0  0  0  0  0  0  0  0  0  0  0
    7.2664   -0.5762    0.0000 H   0  0  0  0  0  0  0  0  0  0  0  0
    6.3972    0.7681    0.0000 H   0  0  0  0  0  0  0  0  0  0  0  0
    5.4490    1.9257    0.0000 H   0  0  0  0  0  0  0  0  0  0  0  0
    5.0504    1.2354    0.0000 H   0  0  0  0  0  0  0  0  0  0  0  0
    6.9256    2.3180    0.0000 H   0  0  0  0  0  0  0  0  0  0  0  0
    6.1285    2.3180    0.0000 H   0  0  0  0  0  0  0  0  0  0  0  0
    7.9018    2.0872    0.0000 H   0  0  0  0  0  0  0  0  0  0  0  0
    8.0883   -0.5286    0.0000 H   0  0  0  0  0  0  0  0  0  0  0  0
    8.8767   -0.2709    0.0000 H   0  0  0  0  0  0  0  0  0  0  0  0
    4.7463   -2.0554    0.0000 H   0  0  0  0  0  0  0  0  0  0  0  0
    6.7612   -1.7788    0.0000 H   0  0  0  0  0  0  0  0  0  0  0  0
    7.1523   -1.0829    0.0000 H   0  0  0  0  0  0  0  0  0  0  0  0
    9.3838    0.4283    0.0000 H   0  0  0  0  0  0  0  0  0  0  0  0
    9.3838    1.2578    0.0000 H   0  0  0  0  0  0  0  0  0  0  0  0
    4.2324    0.8670    0.0000 H   0  0  0  0  0  0  0  0  0  0  0  0
    3.4343    0.8823    0.0000 H   0  0  0  0  0  0  0  0  0  0  0  0
    8.0131    2.3431    0.0000 H   0  0  0  0  0  0  0  0  0  0  0  0
    7.3931    2.9631    0.0000 H   0  0  0  0  0  0  0  0  0  0  0  0
    6.7731    2.3431    0.0000 H   0  0  0  0  0  0  0  0  0  0  0  0
    5.3787    0.8314    0.0000 H   0  0  0  0  0  0  0  0  0  0  0  0
    4.7635    1.4562    0.0000 H   0  0  0  0  0  0  0  0  0  0  0  0
    4.1388    0.8410    0.0000 H   0  0  0  0  0  0  0  0  0  0  0  0
    3.4103   -2.2311    0.0000 H   0  0  0  0  0  0  0  0  0  0  0  0
    4.2085   -2.2280    0.0000 H   0  0  0  0  0  0  0  0  0  0  0  0
    2.6718    0.4576    0.0000 H   0  0  0  0  0  0  0  0  0  0  0  0
    2.2647   -0.2290    0.0000 H   0  0  0  0  0  0  0  0  0  0  0  0
    9.2566    2.7262    0.0000 H   0  0  0  0  0  0  0  0  0  0  0  0
 11  1  1  1  0  0  0
  1 50  1  0  0  0  0
  2 17  2  0  0  0  0
  3 22  2  0  0  0  0
  4  5  1  0  0  0  0
  4  7  1  0  0  0  0
  4 12  1  0  0  0  0
  4 23  1  6  0  0  0
  5  6  1  0  0  0  0
  5 14  1  0  0  0  0
  5 24  1  1  0  0  0
  6  8  1  0  0  0  0
  6  9  1  0  0  0  0
  6 25  1  6  0  0  0
  7 10  1  0  0  0  0
  7 11  1  0  0  0  0
  7 18  1  1  0  0  0
  8 13  1  0  0  0  0
  8 16  1  0  0  0  0
  8 19  1  1  0  0  0
  9 10  1  0  0  0  0
  9 26  1  0  0  0  0
  9 27  1  0  0  0  0
 10 28  1  0  0  0  0
 10 29  1  0  0  0  0
 11 15  1  0  0  0  0
 11 30  1  0  0  0  0
 12 15  1  0  0  0  0
 12 31  1  0  0  0  0
 12 32  1  0  0  0  0
 13 17  1  0  0  0  0
 13 20  1  0  0  0  0
 13 33  1  6  0  0  0
 14 17  1  0  0  0  0
 14 34  1  0  0  0  0
 14 35  1  0  0  0  0
 15 36  1  0  0  0  0
 15 37  1  0  0  0  0
 16 21  1  0  0  0  0
 16 38  1  0  0  0  0
 16 39  1  0  0  0  0
 18 40  1  0  0  0  0
 18 41  1  0  0  0  0
 18 42  1  0  0  0  0
 19 43  1  0  0  0  0
 19 44  1  0  0  0  0
 19 45  1  0  0  0  0
 20 22  1  0  0  0  0
 20 46  1  0  0  0  0
 20 47  1  0  0  0  0
 21 22  1  0  0  0  0
 21 48  1  0  0  0  0
 21 49  1  0  0  0  0
M  END
> <PUBCHEM_COMPOUND_CID>
246485

> <PUBCHEM_COMPOUND_CANONICALIZED>
1

> <PUBCHEM_CACTVS_COMPLEXITY>
527

> <PUBCHEM_CACTVS_HBOND_ACCEPTOR>
3

> <PUBCHEM_CACTVS_HBOND_DONOR>
1

> <PUBCHEM_CACTVS_ROTATABLE_BOND>
0

> <PUBCHEM_CACTVS_SUBSKEYS>
AAADceB4MAAAAAAAAAAAAAAAAAAAAYAAAAAwYMAAAAAAAGDAAAAAGgAACAAADxSggAICAAAAAgAIAIAQAAAAAAAAAAAAAAEAAAAAEBIAAAAAQAAEAAAAAAGJyPCPgAAAAAAAAACAAAQAACAAAIAADAAAAA==

> <PUBCHEM_IUPAC_OPENEYE_NAME>
(5S,8R,9S,10R,13S,14S,17S)-17-hydroxy-10,13-dimethyl-2,4,5,7,8,9,11,12,14,15,16,17-dodecahydro-1H-cyclopenta[a]phenanthrene-3,6-dione

> <PUBCHEM_IUPAC_CAS_NAME>
(5S,8R,9S,10R,13S,14S,17S)-17-hydroxy-10,13-dimethyl-2,4,5,7,8,9,11,12,14,15,16,17-dodecahydro-1H-cyclopenta[a]phenanthrene-3,6-dione

> <PUBCHEM_IUPAC_NAME>
(5S,8R,9S,10R,13S,14S,17S)-17-hydroxy-10,13-dimethyl-2,4,5,7,8,9,11,12,14,15,16,17-dodecahydro-1H-cyclopenta[a]phenanthrene-3,6-dione

> <PUBCHEM_IUPAC_SYSTEMATIC_NAME>
(5S,8R,9S,10R,13S,14S,17S)-10,13-dimethyl-17-oxidanyl-2,4,5,7,8,9,11,12,14,15,16,17-dodecahydro-1H-cyclopenta[a]phenanthrene-3,6-dione

> <PUBCHEM_IUPAC_TRADITIONAL_NAME>
(5S,8R,9S,10R,13S,14S,17S)-17-hydroxy-10,13-dimethyl-2,4,5,7,8,9,11,12,14,15,16,17-dodecahydro-1H-cyclopenta[a]phenanthrene-3,6-quinone

> <PUBCHEM_IUPAC_INCHI>
InChI=1S/C19H28O3/c1-18-7-5-11(20)9-15(18)16(21)10-12-13-3-4-17(22)19(13,2)8-6-14(12)18/h12-15,17,22H,3-10H2,1-2H3/t12-,13-,14-,15+,17-,18+,19-/m0/s1

> <PUBCHEM_IUPAC_INCHIKEY>
SOQWQZZNPGBTQR-YDOJUKJESA-N

> <PUBCHEM_XLOGP3_AA>
2.1

> <PUBCHEM_EXACT_MASS>
304.203845

> <PUBCHEM_MOLECULAR_FORMULA>
C19H28O3

> <PUBCHEM_MOLECULAR_WEIGHT>
304.42382

> <PUBCHEM_OPENEYE_CAN_SMILES>
CC12CCC3C(C1CCC2O)CC(=O)C4C3(CCC(=O)C4)C

> <PUBCHEM_OPENEYE_ISO_SMILES>
C[C@]12CC[C@H]3[C@H]([C@@H]1CC[C@@H]2O)CC(=O)[C@@H]4[C@@]3(CCC(=O)C4)C

> <PUBCHEM_CACTVS_TPSA>
54.4

> <PUBCHEM_MONOISOTOPIC_WEIGHT>
304.203845

> <PUBCHEM_TOTAL_CHARGE>
0

> <PUBCHEM_HEAVY_ATOM_COUNT>
22

> <PUBCHEM_ATOM_DEF_STEREO_COUNT>
7

> <PUBCHEM_ATOM_UDEF_STEREO_COUNT>
0

> <PUBCHEM_BOND_DEF_STEREO_COUNT>
0

> <PUBCHEM_BOND_UDEF_STEREO_COUNT>
0

> <PUBCHEM_ISOTOPIC_ATOM_COUNT>
0

> <PUBCHEM_COMPONENT_COUNT>
1

> <PUBCHEM_CACTVS_TAUTO_COUNT>
9

> <PUBCHEM_COORDINATE_TYPE>
1
5
255

> <PUBCHEM_BONDANNOTATIONS>
11  1  5
13  33  6
4  23  6
5  24  5
6  25  6
7  18  5
8  19  5

$$$$

