442196
  -OEChem-07051212572D

 35 37  0     1  0  0  0  0  0999 V2000
    3.7230    0.2885    0.0000 O   0  0  0  0  0  0  0  0  0  0  0  0
    8.0559    0.2083    0.0000 O   0  0  0  0  0  0  0  0  0  0  0  0
    2.0000    0.7206    0.0000 O   0  0  0  0  0  0  0  0  0  0  0  0
    5.1318   -2.2859    0.0000 O   0  0  0  0  0  0  0  0  0  0  0  0
    4.5777    0.7961    0.0000 C   0  0  1  0  0  0  0  0  0  0  0  0
    4.3551    1.7710    0.0000 C   0  0  1  0  0  0  0  0  0  0  0  0
    5.4786    0.3622    0.0000 C   0  0  2  0  0  0  0  0  0  0  0  0
    4.9786    2.5529    0.0000 C   0  0  0  0  0  0  0  0  0  0  0  0
    6.3796    0.7961    0.0000 C   0  0  0  0  0  0  0  0  0  0  0  0
    5.9786    2.5529    0.0000 C   0  0  0  0  0  0  0  0  0  0  0  0
    5.6146   -0.6225    0.0000 C   0  0  0  0  0  0  0  0  0  0  0  0
    6.6021    1.7710    0.0000 C   0  0  0  0  0  0  0  0  0  0  0  0
    3.3648    1.8576    0.0000 C   0  0  0  0  0  0  0  0  0  0  0  0
    7.0647    0.0758    0.0000 C   0  0  0  0  0  0  0  0  0  0  0  0
    6.5929   -0.7992    0.0000 C   0  0  0  0  0  0  0  0  0  0  0  0
    2.9749    0.9432    0.0000 C   0  0  0  0  0  0  0  0  0  0  0  0
    4.8930   -1.3148    0.0000 C   0  0  0  0  0  0  0  0  0  0  0  0
    7.5770    1.9936    0.0000 C   0  0  0  0  0  0  0  0  0  0  0  0
    2.8504    2.7151    0.0000 C   0  0  0  0  0  0  0  0  0  0  0  0
    4.6147   -0.0531    0.0000 H   0  0  0  0  0  0  0  0  0  0  0  0
    4.0200    2.5522    0.0000 H   0  0  0  0  0  0  0  0  0  0  0  0
    4.7916   -0.1383    0.0000 H   0  0  0  0  0  0  0  0  0  0  0  0
    5.1166    3.1573    0.0000 H   0  0  0  0  0  0  0  0  0  0  0  0
    4.4200    2.8219    0.0000 H   0  0  0  0  0  0  0  0  0  0  0  0
    6.5372    2.8219    0.0000 H   0  0  0  0  0  0  0  0  0  0  0  0
    5.8407    3.1573    0.0000 H   0  0  0  0  0  0  0  0  0  0  0  0
    6.8619   -1.3578    0.0000 H   0  0  0  0  0  0  0  0  0  0  0  0
    4.5480   -0.7997    0.0000 H   0  0  0  0  0  0  0  0  0  0  0  0
    4.3258   -1.5652    0.0000 H   0  0  0  0  0  0  0  0  0  0  0  0
    7.7150    1.3891    0.0000 H   0  0  0  0  0  0  0  0  0  0  0  0
    8.1815    2.1315    0.0000 H   0  0  0  0  0  0  0  0  0  0  0  0
    7.4391    2.5980    0.0000 H   0  0  0  0  0  0  0  0  0  0  0  0
    3.1514    3.2572    0.0000 H   0  0  0  0  0  0  0  0  0  0  0  0
    2.2305    2.7048    0.0000 H   0  0  0  0  0  0  0  0  0  0  0  0
    4.6844   -2.7151    0.0000 H   0  0  0  0  0  0  0  0  0  0  0  0
  1  5  1  0  0  0  0
  1 16  1  0  0  0  0
  2 14  2  0  0  0  0
  3 16  2  0  0  0  0
  4 17  1  0  0  0  0
  4 35  1  0  0  0  0
  5  6  1  0  0  0  0
  5  7  1  0  0  0  0
  5 20  1  6  0  0  0
  6  8  1  0  0  0  0
  6 13  1  0  0  0  0
  6 21  1  1  0  0  0
  7  9  1  0  0  0  0
  7 11  1  0  0  0  0
  7 22  1  1  0  0  0
  8 10  1  0  0  0  0
  8 23  1  0  0  0  0
  8 24  1  0  0  0  0
  9 12  2  0  0  0  0
  9 14  1  0  0  0  0
 10 12  1  0  0  0  0
 10 25  1  0  0  0  0
 10 26  1  0  0  0  0
 11 15  2  0  0  0  0
 11 17  1  0  0  0  0
 12 18  1  0  0  0  0
 13 16  1  0  0  0  0
 13 19  2  0  0  0  0
 14 15  1  0  0  0  0
 15 27  1  0  0  0  0
 17 28  1  0  0  0  0
 17 29  1  0  0  0  0
 18 30  1  0  0  0  0
 18 31  1  0  0  0  0
 18 32  1  0  0  0  0
 19 33  1  0  0  0  0
 19 34  1  0  0  0  0
M  END
> <PUBCHEM_COMPOUND_CID>
442196

> <PUBCHEM_COMPOUND_CANONICALIZED>
1

> <PUBCHEM_CACTVS_COMPLEXITY>
553

> <PUBCHEM_CACTVS_HBOND_ACCEPTOR>
4

> <PUBCHEM_CACTVS_HBOND_DONOR>
1

> <PUBCHEM_CACTVS_ROTATABLE_BOND>
1

> <PUBCHEM_CACTVS_SUBSKEYS>
AAADceBwOAAAAAAAAAAAAAAAAAAAASIAAAAAAAAABAAAAACAAAAAGgAACAAADRSggAICCAAABgCIAqDSCAAAAAAgAAAACAEAAEgAFBIAIQACUAAEwAAIMYPKzPCOAAAAAAAAAAAAAAAAAAAAAAAAAAAAAA==

> <PUBCHEM_IUPAC_OPENEYE_NAME>
(3aS,9aS,9bS)-9-(hydroxymethyl)-6-methyl-3-methylene-4,5,9a,9b-tetrahydro-3aH-azuleno[4,5-b]furan-2,7-dione

> <PUBCHEM_IUPAC_CAS_NAME>
(3aS,9aS,9bS)-9-(hydroxymethyl)-6-methyl-3-methylene-4,5,9a,9b-tetrahydro-3aH-azuleno[4,5-b]furan-2,7-dione

> <PUBCHEM_IUPAC_NAME>
(3aS,9aS,9bS)-9-(hydroxymethyl)-6-methyl-3-methylidene-4,5,9a,9b-tetrahydro-3aH-azuleno[4,5-b]furan-2,7-dione

> <PUBCHEM_IUPAC_SYSTEMATIC_NAME>
(3aS,9aS,9bS)-9-(hydroxymethyl)-6-methyl-3-methylidene-4,5,9a,9b-tetrahydro-3aH-azuleno[4,5-b]furan-2,7-dione

> <PUBCHEM_IUPAC_TRADITIONAL_NAME>
(3aS,9aS,9bS)-6-methyl-3-methylene-9-methylol-4,5,9a,9b-tetrahydro-3aH-azuleno[4,5-b]furan-2,7-quinone

> <PUBCHEM_IUPAC_INCHI>
InChI=1S/C15H16O4/c1-7-3-4-10-8(2)15(18)19-14(10)13-9(6-16)5-11(17)12(7)13/h5,10,13-14,16H,2-4,6H2,1H3/t10-,13-,14-/m0/s1

> <PUBCHEM_IUPAC_INCHIKEY>
NIYXMGSLECQTQT-BPNCWPANSA-N

> <PUBCHEM_XLOGP3_AA>
0.3

> <PUBCHEM_EXACT_MASS>
260.104859

> <PUBCHEM_MOLECULAR_FORMULA>
C15H16O4

> <PUBCHEM_MOLECULAR_WEIGHT>
260.28514

> <PUBCHEM_OPENEYE_CAN_SMILES>
CC1=C2C(C3C(CC1)C(=C)C(=O)O3)C(=CC2=O)CO

> <PUBCHEM_OPENEYE_ISO_SMILES>
CC1=C2[C@@H]([C@@H]3[C@@H](CC1)C(=C)C(=O)O3)C(=CC2=O)CO

> <PUBCHEM_CACTVS_TPSA>
63.6

> <PUBCHEM_MONOISOTOPIC_WEIGHT>
260.104859

> <PUBCHEM_TOTAL_CHARGE>
0

> <PUBCHEM_HEAVY_ATOM_COUNT>
19

> <PUBCHEM_ATOM_DEF_STEREO_COUNT>
3

> <PUBCHEM_ATOM_UDEF_STEREO_COUNT>
0

> <PUBCHEM_BOND_DEF_STEREO_COUNT>
0

> <PUBCHEM_BOND_UDEF_STEREO_COUNT>
0

> <PUBCHEM_ISOTOPIC_ATOM_COUNT>
0

> <PUBCHEM_COMPONENT_COUNT>
1

> <PUBCHEM_CACTVS_TAUTO_COUNT>
18

> <PUBCHEM_COORDINATE_TYPE>
1
5
255

> <PUBCHEM_BONDANNOTATIONS>
5  20  6
6  21  5
7  22  5

$$$$

