17395266
  -OEChem-06241222493D

 33 34  0     0  0  0  0  0  0999 V2000
    4.0238   -0.1145   -0.6477 S   0  0  0  0  0  0  0  0  0  0  0  0
   -0.6817    0.6533   -1.3099 O   0  0  0  0  0  0  0  0  0  0  0  0
    1.8564   -2.1646   -0.9204 O   0  0  0  0  0  0  0  0  0  0  0  0
    0.4624   -1.3499    0.7143 N   0  0  0  0  0  0  0  0  0  0  0  0
   -1.6067   -1.9269   -0.5032 C   0  0  0  0  0  0  0  0  0  0  0  0
   -2.3151   -0.6615   -0.1480 C   0  0  0  0  0  0  0  0  0  0  0  0
   -0.5552   -2.3494    0.5292 C   0  0  0  0  0  0  0  0  0  0  0  0
   -1.8213    0.5739   -0.5673 C   0  0  0  0  0  0  0  0  0  0  0  0
   -3.4831   -0.7240    0.6121 C   0  0  0  0  0  0  0  0  0  0  0  0
   -2.4956    1.7466   -0.2266 C   0  0  0  0  0  0  0  0  0  0  0  0
   -4.1572    0.4486    0.9528 C   0  0  0  0  0  0  0  0  0  0  0  0
    1.6336   -1.3252   -0.0460 C   0  0  0  0  0  0  0  0  0  0  0  0
   -3.6634    1.6839    0.5336 C   0  0  0  0  0  0  0  0  0  0  0  0
    2.5624   -0.2223    0.2383 C   0  0  0  0  0  0  0  0  0  0  0  0
    2.4381    0.7974    1.1563 C   0  0  0  0  0  0  0  0  0  0  0  0
   -0.2489    1.9565   -1.6953 C   0  0  0  0  0  0  0  0  0  0  0  0
    3.5572    1.6788    1.1317 C   0  0  0  0  0  0  0  0  0  0  0  0
    4.4942    1.2993    0.1961 C   0  0  0  0  0  0  0  0  0  0  0  0
   -1.1396   -1.8310   -1.4918 H   0  0  0  0  0  0  0  0  0  0  0  0
   -2.3383   -2.7380   -0.6133 H   0  0  0  0  0  0  0  0  0  0  0  0
   -1.0232   -2.5135    1.5063 H   0  0  0  0  0  0  0  0  0  0  0  0
   -0.0911   -3.2918    0.2187 H   0  0  0  0  0  0  0  0  0  0  0  0
   -3.8778   -1.6794    0.9476 H   0  0  0  0  0  0  0  0  0  0  0  0
    0.2939   -0.6443    1.4231 H   0  0  0  0  0  0  0  0  0  0  0  0
   -2.1723    2.7405   -0.5158 H   0  0  0  0  0  0  0  0  0  0  0  0
   -5.0662    0.4000    1.5453 H   0  0  0  0  0  0  0  0  0  0  0  0
   -4.1892    2.5963    0.7999 H   0  0  0  0  0  0  0  0  0  0  0  0
    1.5969    0.9305    1.8237 H   0  0  0  0  0  0  0  0  0  0  0  0
    3.6691    2.5475    1.7674 H   0  0  0  0  0  0  0  0  0  0  0  0
    0.6703    1.8305   -2.2769 H   0  0  0  0  0  0  0  0  0  0  0  0
    0.0089    2.5699   -0.8252 H   0  0  0  0  0  0  0  0  0  0  0  0
   -0.9759    2.4462   -2.3521 H   0  0  0  0  0  0  0  0  0  0  0  0
    5.4325    1.7847   -0.0325 H   0  0  0  0  0  0  0  0  0  0  0  0
  1 14  1  0  0  0  0
  1 18  1  0  0  0  0
  2  8  1  0  0  0  0
  2 16  1  0  0  0  0
  3 12  2  0  0  0  0
  4  7  1  0  0  0  0
  4 12  1  0  0  0  0
  4 24  1  0  0  0  0
  5  6  1  0  0  0  0
  5  7  1  0  0  0  0
  5 19  1  0  0  0  0
  5 20  1  0  0  0  0
  6  8  1  0  0  0  0
  6  9  2  0  0  0  0
  7 21  1  0  0  0  0
  7 22  1  0  0  0  0
  8 10  2  0  0  0  0
  9 11  1  0  0  0  0
  9 23  1  0  0  0  0
 10 13  1  0  0  0  0
 10 25  1  0  0  0  0
 11 13  2  0  0  0  0
 11 26  1  0  0  0  0
 12 14  1  0  0  0  0
 13 27  1  0  0  0  0
 14 15  2  0  0  0  0
 15 17  1  0  0  0  0
 15 28  1  0  0  0  0
 16 30  1  0  0  0  0
 16 31  1  0  0  0  0
 16 32  1  0  0  0  0
 17 18  2  0  0  0  0
 17 29  1  0  0  0  0
 18 33  1  0  0  0  0
M  END
> <PUBCHEM_COMPOUND_CID>
17395266

> <PUBCHEM_CONFORMER_RMSD>
0.8

> <PUBCHEM_CONFORMER_DIVERSEORDER>
1
25
34
23
39
42
31
59
54
4
14
44
47
21
41
18
37
24
40
48
15
55
6
49
8
36
45
28
29
53
13
58
11
56
30
17
20
50
12
19
2
46
27
51
35
26
7
16
52
9
38
43
57
22
33
3
32
10
5

> <PUBCHEM_MMFF94_PARTIAL_CHARGES>
26
1 -0.08
10 -0.15
11 -0.15
12 0.71
13 -0.15
14 -0.05
15 -0.15
16 0.28
17 -0.15
18 -0.11
2 -0.36
23 0.15
24 0.37
25 0.15
26 0.15
27 0.15
28 0.15
29 0.15
3 -0.57
33 0.15
4 -0.73
5 0.14
6 -0.14
7 0.3
8 0.08
9 -0.15

> <PUBCHEM_EFFECTIVE_ROTOR_COUNT>
6

> <PUBCHEM_PHARMACOPHORE_FEATURES>
5
1 2 acceptor
1 3 acceptor
1 4 donor
5 1 14 15 17 18 rings
6 6 8 9 10 11 13 rings

> <PUBCHEM_HEAVY_ATOM_COUNT>
18

> <PUBCHEM_ATOM_DEF_STEREO_COUNT>
0

> <PUBCHEM_ATOM_UDEF_STEREO_COUNT>
0

> <PUBCHEM_BOND_DEF_STEREO_COUNT>
0

> <PUBCHEM_BOND_UDEF_STEREO_COUNT>
0

> <PUBCHEM_ISOTOPIC_ATOM_COUNT>
0

> <PUBCHEM_COMPONENT_COUNT>
1

> <PUBCHEM_CACTVS_TAUTO_COUNT>
2

> <PUBCHEM_CONFORMER_ID>
01096E4200000001

> <PUBCHEM_MMFF94_ENERGY>
40.4698

> <PUBCHEM_FEATURE_SELFOVERLAP>
25.371

> <PUBCHEM_SHAPE_FINGERPRINT>
10493431 412 18411134727782170609
10498660 4 18342747346528433533
11132069 177 18342747273482243540
11615756 256 18337108948001493488
11715629 250 18334862709753484746
12173636 292 18260835894906626063
12382932 28 18343308092994859349
12633257 1 18336837480103027202
128993 33 18265062490370470544
13140716 1 17910668761815648187
14341114 328 16773788190964945992
14386348 128 18340492278102094212
14787075 74 18260832562407591443
15163728 17 15865455355087518737
15775835 57 18411981394468751882
18186145 218 18040999531643696458
18981168 100 17751670764407620019
19862831 5 6627468497447881781
20261772 1 18202281381694721504
20645476 183 15357702967685118469
22182937 141 18334289834236079435
22959321 45 18273214188106083990
23227448 37 18188493467169539577
23557571 272 18194674878433643274
23559900 14 16986586722665476307
238 59 17547890749812962437
25 1 18187083970767399018
2748010 2 18129103505598738615
3524813 1 18410294735147336512
44154327 71 18202557376340713540
5282940 2 17126190283572289796
6287921 2 18193554476427733636
6442390 28 18411692171371552506
7064713 232 18413107238604784300
81228 2 17983309131307801730
90316 7 17560534944474768636
9882013 296 17988924465823295921
9925002 15 16962951203807823966

> <PUBCHEM_SHAPE_MULTIPOLES>
357.56
8.14
2.47
1.23
2.73
0.57
0.19
-3.37
-2.04
-0.33
0.21
0.17
-0.42
0.61

> <PUBCHEM_SHAPE_SELFOVERLAP>
741.049

> <PUBCHEM_SHAPE_VOLUME>
204.6

> <PUBCHEM_COORDINATE_TYPE>
2
5
10

$$$$

