442882
  -OEChem-07051213002D

 43 47  0     0  0  0  0  0  0999 V2000
    8.7939   -1.5254    0.0000 O   0  0  0  0  0  0  0  0  0  0  0  0
    8.0011    2.6417    0.0000 O   0  0  0  0  0  0  0  0  0  0  0  0
    6.6073    3.4464    0.0000 O   0  0  0  0  0  0  0  0  0  0  0  0
    2.8680   -0.5012    0.0000 O   0  0  0  0  0  0  0  0  0  0  0  0
    2.8680   -2.5495    0.0000 O   0  0  0  0  0  0  0  0  0  0  0  0
    8.5210    0.2299    0.0000 O   0  0  0  0  0  0  0  0  0  0  0  0
    6.3981   -0.5254    0.0000 C   0  0  0  0  0  0  0  0  0  0  0  0
    7.2641   -1.0254    0.0000 C   0  0  0  0  0  0  0  0  0  0  0  0
    5.5320   -1.0254    0.0000 C   0  0  0  0  0  0  0  0  0  0  0  0
    7.2641   -2.0254    0.0000 C   0  0  0  0  0  0  0  0  0  0  0  0
    5.5320   -2.0254    0.0000 C   0  0  0  0  0  0  0  0  0  0  0  0
    6.3981    0.4746    0.0000 C   0  0  0  0  0  0  0  0  0  0  0  0
    6.3981   -2.5254    0.0000 C   0  0  0  0  0  0  0  0  0  0  0  0
    8.2103   -2.3301    0.0000 C   0  0  0  0  0  0  0  0  0  0  0  0
    8.2103   -0.7206    0.0000 C   0  0  0  0  0  0  0  0  0  0  0  0
    4.6381   -0.4907    0.0000 C   0  0  0  0  0  0  0  0  0  0  0  0
    4.6381   -2.5600    0.0000 C   0  0  0  0  0  0  0  0  0  0  0  0
    7.2641    0.9746    0.0000 C   0  0  0  0  0  0  0  0  0  0  0  0
    3.7320   -1.0046    0.0000 C   0  0  0  0  0  0  0  0  0  0  0  0
    5.5320    0.9746    0.0000 C   0  0  0  0  0  0  0  0  0  0  0  0
    3.7320   -2.0462    0.0000 C   0  0  0  0  0  0  0  0  0  0  0  0
    7.2641    1.9746    0.0000 C   0  0  0  0  0  0  0  0  0  0  0  0
    6.3981    2.4746    0.0000 C   0  0  0  0  0  0  0  0  0  0  0  0
    5.5320    1.9746    0.0000 C   0  0  0  0  0  0  0  0  0  0  0  0
    7.5960    3.5495    0.0000 C   0  0  0  0  0  0  0  0  0  0  0  0
    2.0000   -0.9979    0.0000 C   0  0  0  0  0  0  0  0  0  0  0  0
    2.8718   -3.5495    0.0000 C   0  0  0  0  0  0  0  0  0  0  0  0
    6.3981   -3.1454    0.0000 H   0  0  0  0  0  0  0  0  0  0  0  0
    7.9593   -2.8970    0.0000 H   0  0  0  0  0  0  0  0  0  0  0  0
    8.7477   -2.6393    0.0000 H   0  0  0  0  0  0  0  0  0  0  0  0
    4.6453    0.1293    0.0000 H   0  0  0  0  0  0  0  0  0  0  0  0
    4.6453   -3.1800    0.0000 H   0  0  0  0  0  0  0  0  0  0  0  0
    7.8010    0.6646    0.0000 H   0  0  0  0  0  0  0  0  0  0  0  0
    4.9951    0.6646    0.0000 H   0  0  0  0  0  0  0  0  0  0  0  0
    4.9951    2.2846    0.0000 H   0  0  0  0  0  0  0  0  0  0  0  0
    8.1856    3.7413    0.0000 H   0  0  0  0  0  0  0  0  0  0  0  0
    7.4673    4.1560    0.0000 H   0  0  0  0  0  0  0  0  0  0  0  0
    1.6921   -0.4597    0.0000 H   0  0  0  0  0  0  0  0  0  0  0  0
    1.4619   -1.3058    0.0000 H   0  0  0  0  0  0  0  0  0  0  0  0
    2.3079   -1.5360    0.0000 H   0  0  0  0  0  0  0  0  0  0  0  0
    2.2518   -3.5519    0.0000 H   0  0  0  0  0  0  0  0  0  0  0  0
    2.8742   -4.1695    0.0000 H   0  0  0  0  0  0  0  0  0  0  0  0
    3.4918   -3.5471    0.0000 H   0  0  0  0  0  0  0  0  0  0  0  0
  1 14  1  0  0  0  0
  1 15  1  0  0  0  0
  2 22  1  0  0  0  0
  2 25  1  0  0  0  0
  3 23  1  0  0  0  0
  3 25  1  0  0  0  0
  4 19  1  0  0  0  0
  4 26  1  0  0  0  0
  5 21  1  0  0  0  0
  5 27  1  0  0  0  0
  6 15  2  0  0  0  0
  7  8  1  0  0  0  0
  7  9  2  0  0  0  0
  7 12  1  0  0  0  0
  8 10  2  0  0  0  0
  8 15  1  0  0  0  0
  9 11  1  0  0  0  0
  9 16  1  0  0  0  0
 10 13  1  0  0  0  0
 10 14  1  0  0  0  0
 11 13  2  0  0  0  0
 11 17  1  0  0  0  0
 12 18  2  0  0  0  0
 12 20  1  0  0  0  0
 13 28  1  0  0  0  0
 14 29  1  0  0  0  0
 14 30  1  0  0  0  0
 16 19  2  0  0  0  0
 16 31  1  0  0  0  0
 17 21  2  0  0  0  0
 17 32  1  0  0  0  0
 18 22  1  0  0  0  0
 18 33  1  0  0  0  0
 19 21  1  0  0  0  0
 20 24  2  0  0  0  0
 20 34  1  0  0  0  0
 22 23  2  0  0  0  0
 23 24  1  0  0  0  0
 24 35  1  0  0  0  0
 25 36  1  0  0  0  0
 25 37  1  0  0  0  0
 26 38  1  0  0  0  0
 26 39  1  0  0  0  0
 26 40  1  0  0  0  0
 27 41  1  0  0  0  0
 27 42  1  0  0  0  0
 27 43  1  0  0  0  0
M  END
> <PUBCHEM_COMPOUND_CID>
442882

> <PUBCHEM_COMPOUND_CANONICALIZED>
1

> <PUBCHEM_CACTVS_COMPLEXITY>
567

> <PUBCHEM_CACTVS_HBOND_ACCEPTOR>
6

> <PUBCHEM_CACTVS_HBOND_DONOR>
0

> <PUBCHEM_CACTVS_ROTATABLE_BOND>
3

> <PUBCHEM_CACTVS_SUBSKEYS>
AAADceB4OAAAAAAAAAAAAAAAAAAAASJAAAAwYMAAAAAAAEjBVAAAGgAAAAAADASgmAMyDsAABACIAiDSCAACCAAkIAAIiAEGiMgdJjKENRqiMSIkwBEOqQeKyPCO4AADAAAQQADAAAYAACCAAAAAAAAAAA==

> <PUBCHEM_IUPAC_OPENEYE_NAME>
4-(1,3-benzodioxol-5-yl)-6,7-dimethoxy-1H-benzo[f]isobenzofuran-3-one

> <PUBCHEM_IUPAC_CAS_NAME>
4-(1,3-benzodioxol-5-yl)-6,7-dimethoxy-1H-benzo[f]isobenzofuran-3-one

> <PUBCHEM_IUPAC_NAME>
4-(1,3-benzodioxol-5-yl)-6,7-dimethoxy-1H-benzo[f][2]benzofuran-3-one

> <PUBCHEM_IUPAC_SYSTEMATIC_NAME>
4-(1,3-benzodioxol-5-yl)-6,7-dimethoxy-1H-benzo[f][2]benzofuran-3-one

> <PUBCHEM_IUPAC_TRADITIONAL_NAME>
4-(1,3-benzodioxol-5-yl)-6,7-dimethoxy-1H-benz[f]isobenzofuran-3-one

> <PUBCHEM_IUPAC_INCHI>
InChI=1S/C21H16O6/c1-23-16-7-12-5-13-9-25-21(22)20(13)19(14(12)8-17(16)24-2)11-3-4-15-18(6-11)27-10-26-15/h3-8H,9-10H2,1-2H3

> <PUBCHEM_IUPAC_INCHIKEY>
RTDRYYULUYRTAN-UHFFFAOYSA-N

> <PUBCHEM_XLOGP3_AA>
4

> <PUBCHEM_EXACT_MASS>
364.094688

> <PUBCHEM_MOLECULAR_FORMULA>
C21H16O6

> <PUBCHEM_MOLECULAR_WEIGHT>
364.34814

> <PUBCHEM_OPENEYE_CAN_SMILES>
COC1=CC2=CC3=C(C(=C2C=C1OC)C4=CC5=C(C=C4)OCO5)C(=O)OC3

> <PUBCHEM_OPENEYE_ISO_SMILES>
COC1=CC2=CC3=C(C(=C2C=C1OC)C4=CC5=C(C=C4)OCO5)C(=O)OC3

> <PUBCHEM_CACTVS_TPSA>
63.2

> <PUBCHEM_MONOISOTOPIC_WEIGHT>
364.094688

> <PUBCHEM_TOTAL_CHARGE>
0

> <PUBCHEM_HEAVY_ATOM_COUNT>
27

> <PUBCHEM_ATOM_DEF_STEREO_COUNT>
0

> <PUBCHEM_ATOM_UDEF_STEREO_COUNT>
0

> <PUBCHEM_BOND_DEF_STEREO_COUNT>
0

> <PUBCHEM_BOND_UDEF_STEREO_COUNT>
0

> <PUBCHEM_ISOTOPIC_ATOM_COUNT>
0

> <PUBCHEM_COMPONENT_COUNT>
1

> <PUBCHEM_CACTVS_TAUTO_COUNT>
1

> <PUBCHEM_COORDINATE_TYPE>
1
5
255

> <PUBCHEM_BONDANNOTATIONS>
10  13  8
11  13  8
11  17  8
12  18  8
12  20  8
16  19  8
17  21  8
18  22  8
19  21  8
20  24  8
22  23  8
23  24  8
7  8  8
7  9  8
8  10  8
9  11  8
9  16  8

$$$$

