29919046
  -OEChem-07051213113D

 39 41  0     1  0  0  0  0  0999 V2000
    5.0484    0.8379   -0.0601 O   0  0  0  0  0  0  0  0  0  0  0  0
    4.2255    2.4018   -1.5199 O   0  0  0  0  0  0  0  0  0  0  0  0
    2.8507    0.8227   -0.5046 N   0  0  0  0  0  0  0  0  0  0  0  0
   -2.8009   -2.5416   -0.7476 N   0  0  0  0  0  0  0  0  0  0  0  0
   -3.7329    3.1917    0.1893 N   0  0  0  0  0  0  0  0  0  0  0  0
    3.0583   -0.3448    0.2929 C   0  0  2  0  0  0  0  0  0  0  0  0
    1.9992   -0.5383    1.3600 C   0  0  0  0  0  0  0  0  0  0  0  0
    0.7450   -1.1342    0.8121 C   0  0  0  0  0  0  0  0  0  0  0  0
   -1.4466   -0.8610   -0.1834 C   0  0  0  0  0  0  0  0  0  0  0  0
    4.4452   -0.0981    0.8503 C   0  0  0  0  0  0  0  0  0  0  0  0
   -2.6437   -0.3275   -0.7377 C   0  0  0  0  0  0  0  0  0  0  0  0
   -1.5709   -2.2518   -0.2012 C   0  0  0  0  0  0  0  0  0  0  0  0
   -0.2655   -0.2922    0.3333 C   0  0  0  0  0  0  0  0  0  0  0  0
   -2.9662    1.1019   -0.9224 C   0  0  0  0  0  0  0  0  0  0  0  0
    0.5933   -2.5190    0.7818 C   0  0  0  0  0  0  0  0  0  0  0  0
   -0.5693   -3.1058    0.2740 C   0  0  0  0  0  0  0  0  0  0  0  0
   -3.4566   -1.3851   -1.0748 C   0  0  0  0  0  0  0  0  0  0  0  0
   -3.3891    1.7882    0.3905 C   0  0  0  0  0  0  0  0  0  0  0  0
    4.0468    1.4533   -0.7689 C   0  0  0  0  0  0  0  0  0  0  0  0
   -4.1707    3.8021    1.4364 C   0  0  0  0  0  0  0  0  0  0  0  0
    3.0931   -1.1953   -0.4000 H   0  0  0  0  0  0  0  0  0  0  0  0
    1.7727    0.4099    1.8658 H   0  0  0  0  0  0  0  0  0  0  0  0
    2.3845   -1.2021    2.1459 H   0  0  0  0  0  0  0  0  0  0  0  0
    4.4363    0.3598    1.8457 H   0  0  0  0  0  0  0  0  0  0  0  0
    5.0433   -1.0135    0.8869 H   0  0  0  0  0  0  0  0  0  0  0  0
   -0.1458    0.7874    0.3594 H   0  0  0  0  0  0  0  0  0  0  0  0
    1.9800    1.0581   -0.9703 H   0  0  0  0  0  0  0  0  0  0  0  0
   -2.0968    1.6226   -1.3446 H   0  0  0  0  0  0  0  0  0  0  0  0
   -3.7718    1.2063   -1.6614 H   0  0  0  0  0  0  0  0  0  0  0  0
    1.3844   -3.1666    1.1532 H   0  0  0  0  0  0  0  0  0  0  0  0
   -0.6862   -4.1840    0.2502 H   0  0  0  0  0  0  0  0  0  0  0  0
   -4.4424   -1.4207   -1.5175 H   0  0  0  0  0  0  0  0  0  0  0  0
   -3.1663   -3.4736   -0.8864 H   0  0  0  0  0  0  0  0  0  0  0  0
   -2.5713    1.7120    1.1179 H   0  0  0  0  0  0  0  0  0  0  0  0
   -4.2481    1.2493    0.8115 H   0  0  0  0  0  0  0  0  0  0  0  0
   -4.4783    3.2645   -0.5026 H   0  0  0  0  0  0  0  0  0  0  0  0
   -3.3809    3.7679    2.1939 H   0  0  0  0  0  0  0  0  0  0  0  0
   -5.0675    3.3134    1.8310 H   0  0  0  0  0  0  0  0  0  0  0  0
   -4.4118    4.8552    1.2611 H   0  0  0  0  0  0  0  0  0  0  0  0
  1 10  1  0  0  0  0
  1 19  1  0  0  0  0
  2 19  2  0  0  0  0
  3  6  1  0  0  0  0
  3 19  1  0  0  0  0
  3 27  1  0  0  0  0
  4 12  1  0  0  0  0
  4 17  1  0  0  0  0
  4 33  1  0  0  0  0
  5 18  1  0  0  0  0
  5 20  1  0  0  0  0
  5 36  1  0  0  0  0
  6  7  1  0  0  0  0
  6 10  1  0  0  0  0
  6 21  1  0  0  0  0
  7  8  1  0  0  0  0
  7 22  1  0  0  0  0
  7 23  1  0  0  0  0
  8 13  2  0  0  0  0
  8 15  1  0  0  0  0
  9 11  1  0  0  0  0
  9 12  2  0  0  0  0
  9 13  1  0  0  0  0
 10 24  1  0  0  0  0
 10 25  1  0  0  0  0
 11 14  1  0  0  0  0
 11 17  2  0  0  0  0
 12 16  1  0  0  0  0
 13 26  1  0  0  0  0
 14 18  1  0  0  0  0
 14 28  1  0  0  0  0
 14 29  1  0  0  0  0
 15 16  2  0  0  0  0
 15 30  1  0  0  0  0
 16 31  1  0  0  0  0
 17 32  1  0  0  0  0
 18 34  1  0  0  0  0
 18 35  1  0  0  0  0
 20 37  1  0  0  0  0
 20 38  1  0  0  0  0
 20 39  1  0  0  0  0
M  END
> <PUBCHEM_COMPOUND_CID>
29919046

> <PUBCHEM_CONFORMER_RMSD>
0.8

> <PUBCHEM_CONFORMER_DIVERSEORDER>
1
18
49
62
67
19
24
41
65
61
45
7
46
40
25
53
63
5
57
66
34
37
32
55
43
29
20
36
30
47
58
48
31
15
11
21
52
56
14
39
42
10
27
23
8
13
64
54
50
9
68
6
33
4
2
12
60
26
35
17
38
59
22
3
44
16
51
28

> <PUBCHEM_MMFF94_PARTIAL_CHARGES>
26
1 -0.43
10 0.28
11 -0.18
12 -0.15
13 -0.15
14 0.18
15 -0.15
16 -0.15
17 -0.3
18 0.27
19 0.78
2 -0.57
20 0.27
26 0.15
27 0.37
3 -0.73
30 0.15
31 0.15
32 0.15
33 0.27
36 0.36
4 0.03
5 -0.9
6 0.3
7 0.14
8 -0.14

> <PUBCHEM_EFFECTIVE_ROTOR_COUNT>
5.8

> <PUBCHEM_PHARMACOPHORE_FEATURES>
9
1 2 acceptor
1 3 donor
1 4 cation
1 4 donor
1 5 cation
1 5 donor
5 1 3 6 10 19 rings
5 4 9 11 12 17 rings
6 8 9 12 13 15 16 rings

> <PUBCHEM_HEAVY_ATOM_COUNT>
20

> <PUBCHEM_ATOM_DEF_STEREO_COUNT>
1

> <PUBCHEM_ATOM_UDEF_STEREO_COUNT>
0

> <PUBCHEM_BOND_DEF_STEREO_COUNT>
0

> <PUBCHEM_BOND_UDEF_STEREO_COUNT>
0

> <PUBCHEM_ISOTOPIC_ATOM_COUNT>
0

> <PUBCHEM_COMPONENT_COUNT>
1

> <PUBCHEM_CACTVS_TAUTO_COUNT>
2

> <PUBCHEM_CONFORMER_ID>
01C8874600000001

> <PUBCHEM_MMFF94_ENERGY>
32.9425

> <PUBCHEM_FEATURE_SELFOVERLAP>
45.761

> <PUBCHEM_SHAPE_FINGERPRINT>
10382601 240 17843403135450831755
10937287 8 18337107994407990473
12107183 9 18197227056039422914
12173636 292 18337122176078726671
12390115 104 18262509399044024201
12788726 201 18265330616899899135
13583140 156 16770710830144429577
14123250 116 18271240504494297484
14187579 7 18119521047094316828
14251764 75 17971745829823204297
14739800 52 17979376174601009128
14767858 380 18191894339098713749
14790565 3 18337667628731510089
15163728 17 18337657698560542846
15342168 16 18193841681217786757
15534591 1 18409167731639711491
1813 80 14057822865314110210
18785283 64 17906165510349881315
20739085 24 16964918793008918355
21033650 10 18263906796881962260
21864079 5 18343299275453211912
23366157 5 18057053607916384450
235170 7 17168701921560341588
23558518 356 18340494468873843875
23559900 14 18334583417669998874
25147074 1 18194426565384617883
38570 142 17844501436636555628
394222 165 18051977210417954707
46194498 28 15720827647994726561
474 4 18202007680439888211
5048184 11 18337673134689315633
5283173 99 18187933837774880664
5895379 119 18338802217657483104
6034566 193 18271804661903566549
7808743 9 18335703875019957513
9981440 41 16765638375422053432

> <PUBCHEM_SHAPE_MULTIPOLES>
384.91
9.45
4.02
1.22
6.44
1.5
0.03
9.28
-0.85
-4.73
0.6
0.07
0.48
-3.01

> <PUBCHEM_SHAPE_SELFOVERLAP>
825.571

> <PUBCHEM_SHAPE_VOLUME>
215.9

> <PUBCHEM_COORDINATE_TYPE>
2
5
10

$$$$

