442288
  -OEChem-07051212573D

 37 39  0     1  0  0  0  0  0999 V2000
   -1.5632    1.3586    0.2966 O   0  0  0  0  0  0  0  0  0  0  0  0
    1.6077   -0.5406   -1.8244 O   0  0  0  0  0  0  0  0  0  0  0  0
    1.0211    2.9640   -0.2959 O   0  0  0  0  0  0  0  0  0  0  0  0
   -3.8071    1.3817    0.7761 O   0  0  0  0  0  0  0  0  0  0  0  0
    0.7448    0.5718    0.2044 C   0  0  2  0  0  0  0  0  0  0  0  0
    1.7601   -0.4520   -0.3904 C   0  0  1  0  0  0  0  0  0  0  0  0
   -0.6462    0.5309   -0.4594 C   0  0  1  0  0  0  0  0  0  0  0  0
    1.7445   -1.8971    0.1611 C   0  0  2  0  0  0  0  0  0  0  0  0
   -1.3325   -0.8347   -0.6245 C   0  0  1  0  0  0  0  0  0  0  0  0
    0.4327   -2.6616   -0.1256 C   0  0  0  0  0  0  0  0  0  0  0  0
   -0.8878   -1.9967    0.2796 C   0  0  0  0  0  0  0  0  0  0  0  0
    1.5067    1.8536   -0.1423 C   0  0  0  0  0  0  0  0  0  0  0  0
    0.6574    0.6567    1.7492 C   0  0  0  0  0  0  0  0  0  0  0  0
    3.0769    0.2730   -0.2526 C   0  0  0  0  0  0  0  0  0  0  0  0
   -2.7558   -0.4565   -0.3732 C   0  0  0  0  0  0  0  0  0  0  0  0
    2.9601    1.6020   -0.1842 C   0  0  0  0  0  0  0  0  0  0  0  0
    2.1634   -2.0774    1.6244 C   0  0  0  0  0  0  0  0  0  0  0  0
   -2.8225    0.8496    0.2969 C   0  0  0  0  0  0  0  0  0  0  0  0
   -3.8602   -1.1253   -0.7157 C   0  0  0  0  0  0  0  0  0  0  0  0
   -0.5842    1.0084   -1.4479 H   0  0  0  0  0  0  0  0  0  0  0  0
    2.5101   -2.4422   -0.4142 H   0  0  0  0  0  0  0  0  0  0  0  0
   -1.2190   -1.1548   -1.6688 H   0  0  0  0  0  0  0  0  0  0  0  0
    0.4867   -3.6406    0.3693 H   0  0  0  0  0  0  0  0  0  0  0  0
    0.3878   -2.8859   -1.1997 H   0  0  0  0  0  0  0  0  0  0  0  0
   -1.6498   -2.7862    0.2063 H   0  0  0  0  0  0  0  0  0  0  0  0
   -0.8826   -1.7207    1.3359 H   0  0  0  0  0  0  0  0  0  0  0  0
    1.6414    0.5852    2.2254 H   0  0  0  0  0  0  0  0  0  0  0  0
    0.2440    1.6220    2.0698 H   0  0  0  0  0  0  0  0  0  0  0  0
    0.0159   -0.1084    2.1843 H   0  0  0  0  0  0  0  0  0  0  0  0
    4.0337   -0.2277   -0.3262 H   0  0  0  0  0  0  0  0  0  0  0  0
    3.7342    2.3477   -0.1659 H   0  0  0  0  0  0  0  0  0  0  0  0
    2.4228   -3.1270    1.8082 H   0  0  0  0  0  0  0  0  0  0  0  0
    3.0481   -1.4841    1.8730 H   0  0  0  0  0  0  0  0  0  0  0  0
    1.3651   -1.8323    2.3270 H   0  0  0  0  0  0  0  0  0  0  0  0
    1.5364    0.3524   -2.2014 H   0  0  0  0  0  0  0  0  0  0  0  0
   -3.7921   -2.0786   -1.2293 H   0  0  0  0  0  0  0  0  0  0  0  0
   -4.8524   -0.7449   -0.4981 H   0  0  0  0  0  0  0  0  0  0  0  0
  1  7  1  0  0  0  0
  1 18  1  0  0  0  0
  2  6  1  0  0  0  0
  2 35  1  0  0  0  0
  3 12  2  0  0  0  0
  4 18  2  0  0  0  0
  5  6  1  0  0  0  0
  5  7  1  0  0  0  0
  5 12  1  0  0  0  0
  5 13  1  0  0  0  0
  6  8  1  0  0  0  0
  6 14  1  0  0  0  0
  7  9  1  0  0  0  0
  7 20  1  0  0  0  0
  8 10  1  0  0  0  0
  8 17  1  0  0  0  0
  8 21  1  0  0  0  0
  9 11  1  0  0  0  0
  9 15  1  0  0  0  0
  9 22  1  0  0  0  0
 10 11  1  0  0  0  0
 10 23  1  0  0  0  0
 10 24  1  0  0  0  0
 11 25  1  0  0  0  0
 11 26  1  0  0  0  0
 12 16  1  0  0  0  0
 13 27  1  0  0  0  0
 13 28  1  0  0  0  0
 13 29  1  0  0  0  0
 14 16  2  0  0  0  0
 14 30  1  0  0  0  0
 15 18  1  0  0  0  0
 15 19  2  0  0  0  0
 16 31  1  0  0  0  0
 17 32  1  0  0  0  0
 17 33  1  0  0  0  0
 17 34  1  0  0  0  0
 19 36  1  0  0  0  0
 19 37  1  0  0  0  0
M  END
> <PUBCHEM_COMPOUND_CID>
442288

> <PUBCHEM_CONFORMER_RMSD>
0.6

> <PUBCHEM_CONFORMER_DIVERSEORDER>
1

> <PUBCHEM_MMFF94_PARTIAL_CHARGES>
19
1 -0.43
12 0.49
14 -0.29
15 -0.12
16 -0.14
18 0.71
19 -0.3
2 -0.68
3 -0.57
30 0.15
31 0.15
35 0.4
36 0.15
37 0.15
4 -0.57
5 0.06
6 0.42
7 0.28
9 0.14

> <PUBCHEM_EFFECTIVE_ROTOR_COUNT>
0.8

> <PUBCHEM_PHARMACOPHORE_FEATURES>
7
1 2 acceptor
1 2 donor
1 3 acceptor
1 4 acceptor
5 1 7 9 15 18 rings
5 5 6 12 14 16 rings
7 5 6 7 8 9 10 11 rings

> <PUBCHEM_HEAVY_ATOM_COUNT>
19

> <PUBCHEM_ATOM_DEF_STEREO_COUNT>
5

> <PUBCHEM_ATOM_UDEF_STEREO_COUNT>
0

> <PUBCHEM_BOND_DEF_STEREO_COUNT>
0

> <PUBCHEM_BOND_UDEF_STEREO_COUNT>
0

> <PUBCHEM_ISOTOPIC_ATOM_COUNT>
0

> <PUBCHEM_COMPONENT_COUNT>
1

> <PUBCHEM_CACTVS_TAUTO_COUNT>
1

> <PUBCHEM_CONFORMER_ID>
0006BFB000000001

> <PUBCHEM_MMFF94_ENERGY>
68.4929

> <PUBCHEM_FEATURE_SELFOVERLAP>
35.571

> <PUBCHEM_SHAPE_FINGERPRINT>
10382601 240 18342447188333248096
10863032 1 18269835324681696386
10948715 1 18335701577227959796
10967382 1 18339081484271449588
10980938 120 18411978104571230285
12491281 212 18127686033189101604
12553582 1 18052259788673946635
12644460 14 18268131227756026049
13132413 78 18264782119548345666
13140716 1 18266746976591226875
13380535 76 18264770961022909150
14178342 30 18263376913523056921
14181834 199 18202005485912527750
144361 1 17967807241358184962
14787075 74 17762619487018867287
15375462 189 18129662053226700482
15775835 57 18410287042934580311
16945 1 18119801409694641958
18186145 218 18408881862784700765
20510252 161 17618500978410519475
20559304 39 18337957890920644715
20645477 70 18410582786199239847
20691752 17 18131069355069195319
21501502 16 18409171030190347499
21524375 3 18268713801193352908
22112679 90 18263940988483895074
22344851 341 18333724736767387082
2255824 54 18412822456392135245
2334 1 18411142471370503575
23402539 116 18191600648253603476
23419403 2 13464848693548904170
23463225 33 18340493386071826731
23557571 272 15213603169094534995
23559900 14 18263916663028977036
25 1 18341323431651703932
2748010 2 18124043591589418564
2871803 45 18335989649533004295
353137 74 18337110038590506937
474 4 18200310987985672789
528886 8 18339365145645158544
7364860 26 18336546113774701910
7832392 63 18263076789914462629
81228 2 17188975614274093570

> <PUBCHEM_SHAPE_MULTIPOLES>
367.53
5.12
2.74
1.18
3.99
0.29
0.22
-0.83
-0.21
-1.02
0.31
-0.37
0.21
-0.84

> <PUBCHEM_SHAPE_SELFOVERLAP>
799.106

> <PUBCHEM_SHAPE_VOLUME>
200.4

> <PUBCHEM_COORDINATE_TYPE>
2
5
10

$$$$

