17396365
  -OEChem-06241222563D

 33 34  0     0  0  0  0  0  0999 V2000
   -2.8590    1.6907   -1.4982 F   0  0  0  0  0  0  0  0  0  0  0  0
   -1.8487    3.2587   -0.3597 F   0  0  0  0  0  0  0  0  0  0  0  0
   -3.8803    2.6762    0.1958 F   0  0  0  0  0  0  0  0  0  0  0  0
   -2.1434    1.2531    0.6291 O   0  0  0  0  0  0  0  0  0  0  0  0
    1.1077   -2.5585   -0.3032 O   0  0  0  0  0  0  0  0  0  0  0  0
   -0.0438   -0.5636    0.1439 N   0  0  0  0  0  0  0  0  0  0  0  0
   -1.3972   -0.9811    0.1712 C   0  0  0  0  0  0  0  0  0  0  0  0
    2.3705   -0.6252   -0.0219 C   0  0  0  0  0  0  0  0  0  0  0  0
   -2.4199   -0.0640    0.4131 C   0  0  0  0  0  0  0  0  0  0  0  0
    1.1035   -1.3367   -0.0825 C   0  0  0  0  0  0  0  0  0  0  0  0
    4.8005    0.7399    0.0942 C   0  0  0  0  0  0  0  0  0  0  0  0
    3.4681   -1.0925   -0.7448 C   0  0  0  0  0  0  0  0  0  0  0  0
    2.4879    0.5246    0.7590 C   0  0  0  0  0  0  0  0  0  0  0  0
    4.6832   -0.4099   -0.6867 C   0  0  0  0  0  0  0  0  0  0  0  0
    3.7030    1.2070    0.8171 C   0  0  0  0  0  0  0  0  0  0  0  0
   -1.7024   -2.3245   -0.0479 C   0  0  0  0  0  0  0  0  0  0  0  0
   -3.7478   -0.4903    0.4359 C   0  0  0  0  0  0  0  0  0  0  0  0
   -3.0303   -2.7506   -0.0253 C   0  0  0  0  0  0  0  0  0  0  0  0
   -4.0530   -1.8335    0.2167 C   0  0  0  0  0  0  0  0  0  0  0  0
    6.1003    1.4687    0.1574 C   0  0  0  0  0  0  0  0  0  0  0  0
   -2.6989    2.2114   -0.2631 C   0  0  0  0  0  0  0  0  0  0  0  0
    0.0662    0.4384    0.2739 H   0  0  0  0  0  0  0  0  0  0  0  0
    3.3964   -1.9831   -1.3637 H   0  0  0  0  0  0  0  0  0  0  0  0
    1.6736    0.9052    1.3684 H   0  0  0  0  0  0  0  0  0  0  0  0
   -0.9723   -3.0966   -0.2416 H   0  0  0  0  0  0  0  0  0  0  0  0
    5.5305   -0.7822   -1.2565 H   0  0  0  0  0  0  0  0  0  0  0  0
    3.7845    2.0980    1.4342 H   0  0  0  0  0  0  0  0  0  0  0  0
   -4.5550    0.2104    0.6309 H   0  0  0  0  0  0  0  0  0  0  0  0
   -3.2696   -3.7964   -0.1952 H   0  0  0  0  0  0  0  0  0  0  0  0
   -5.0868   -2.1658    0.2362 H   0  0  0  0  0  0  0  0  0  0  0  0
    6.1434    2.2285   -0.6292 H   0  0  0  0  0  0  0  0  0  0  0  0
    6.2310    1.9600    1.1276 H   0  0  0  0  0  0  0  0  0  0  0  0
    6.9446    0.7828    0.0298 H   0  0  0  0  0  0  0  0  0  0  0  0
  1 21  1  0  0  0  0
  2 21  1  0  0  0  0
  3 21  1  0  0  0  0
  4  9  1  0  0  0  0
  4 21  1  0  0  0  0
  5 10  2  0  0  0  0
  6  7  1  0  0  0  0
  6 10  1  0  0  0  0
  6 22  1  0  0  0  0
  7  9  1  0  0  0  0
  7 16  2  0  0  0  0
  8 10  1  0  0  0  0
  8 12  2  0  0  0  0
  8 13  1  0  0  0  0
  9 17  2  0  0  0  0
 11 14  2  0  0  0  0
 11 15  1  0  0  0  0
 11 20  1  0  0  0  0
 12 14  1  0  0  0  0
 12 23  1  0  0  0  0
 13 15  2  0  0  0  0
 13 24  1  0  0  0  0
 14 26  1  0  0  0  0
 15 27  1  0  0  0  0
 16 18  1  0  0  0  0
 16 25  1  0  0  0  0
 17 19  1  0  0  0  0
 17 28  1  0  0  0  0
 18 19  2  0  0  0  0
 18 29  1  0  0  0  0
 19 30  1  0  0  0  0
 20 31  1  0  0  0  0
 20 32  1  0  0  0  0
 20 33  1  0  0  0  0
M  END
> <PUBCHEM_COMPOUND_CID>
17396365

> <PUBCHEM_CONFORMER_RMSD>
0.8

> <PUBCHEM_CONFORMER_DIVERSEORDER>
1
3
9
13
10
14
11
4
5
12
6
15
8
7
2

> <PUBCHEM_MMFF94_PARTIAL_CHARGES>
30
1 -0.34
10 0.54
11 -0.14
12 -0.15
13 -0.15
14 -0.15
15 -0.15
16 -0.15
17 -0.15
18 -0.15
19 -0.15
2 -0.34
20 0.14
21 1.3
22 0.37
23 0.15
24 0.15
25 0.15
26 0.15
27 0.15
28 0.15
29 0.15
3 -0.34
30 0.15
4 -0.36
5 -0.57
6 -0.55
7 0.12
8 0.09
9 0.08

> <PUBCHEM_EFFECTIVE_ROTOR_COUNT>
5

> <PUBCHEM_PHARMACOPHORE_FEATURES>
5
1 4 acceptor
1 5 acceptor
1 6 donor
6 7 9 16 17 18 19 rings
6 8 11 12 13 14 15 rings

> <PUBCHEM_HEAVY_ATOM_COUNT>
21

> <PUBCHEM_ATOM_DEF_STEREO_COUNT>
0

> <PUBCHEM_ATOM_UDEF_STEREO_COUNT>
0

> <PUBCHEM_BOND_DEF_STEREO_COUNT>
0

> <PUBCHEM_BOND_UDEF_STEREO_COUNT>
0

> <PUBCHEM_ISOTOPIC_ATOM_COUNT>
0

> <PUBCHEM_COMPONENT_COUNT>
1

> <PUBCHEM_CACTVS_TAUTO_COUNT>
2

> <PUBCHEM_CONFORMER_ID>
0109728D00000001

> <PUBCHEM_MMFF94_ENERGY>
69.2806

> <PUBCHEM_FEATURE_SELFOVERLAP>
25.371

> <PUBCHEM_SHAPE_FINGERPRINT>
10411042 1 17834113044308394963
10498660 4 18412829118102831988
10608611 8 18335983150820301618
10615611 76 17416663809747625500
10646746 165 18410291428407549350
10670039 82 18271228440738181428
11595378 159 18059587866527487098
12107183 9 17910969250966130146
12173636 292 18339361967511966615
12390115 104 18189599687699996393
12403259 226 18261676948250611474
12403259 415 18041001692244615112
12596602 18 16916506931028543648
12916748 109 18340481171791589370
13140716 1 18053654772998656099
13402501 40 18261393282845783240
14142880 1 17917435362847773917
14251751 93 18410858750421289794
14251757 17 18187077391009292442
14790565 3 17831009496745519817
15196674 1 18408601479040776512
15961568 22 18197495113522924772
17834072 32 18338514265152554785
18186145 218 18113609097846680834
20510252 161 18408321086116509699
20645477 56 18339634659222287395
20645477 70 17241031185671227606
21033648 29 18041008314947009560
21033650 10 18126255689442773036
21279426 13 18261666082848574446
21315764 268 18337680698675324264
21652331 79 18409446947215704586
221357 26 18186800258033488746
22182937 141 18262512706005500329
22393880 68 18336539517174622174
2297311 6 18338787910403891398
23227448 37 18409448089766689221
23402539 116 18264493883950810942
23557571 272 18335133180960601637
23559900 14 18261959548408429458
23845131 108 17834659867228858569
283562 15 18412265004588105963
3268164 11 18412269406433244503
350125 39 18336824174173375480
3524813 1 18187088304078138656
4028521 119 18412268345692288695
4214541 1 18408882949585493250
469060 322 17203322313145999069
5104073 3 18341045319698086578
5281201 14 18187072954439951014
574716 61 4822641141553299602
7808743 9 18412828014401881512

> <PUBCHEM_SHAPE_MULTIPOLES>
393.63
11.04
3.15
0.83
11.57
1.43
-0.09
2.57
0.16
-3.96
-0.47
0.08
0.18
1.01

> <PUBCHEM_SHAPE_SELFOVERLAP>
846.971

> <PUBCHEM_SHAPE_VOLUME>
216.9

> <PUBCHEM_COORDINATE_TYPE>
2
5
10

$$$$

