249474
  -OEChem-07051213072D

 58 61  0     1  0  0  0  0  0999 V2000
    8.6338    1.5983    0.0000 O   0  0  0  0  0  0  0  0  0  0  0  0
   10.2802    1.0603    0.0000 O   0  0  0  0  0  0  0  0  0  0  0  0
    6.5109   -1.1569    0.0000 C   0  0  2  0  0  0  0  0  0  0  0  0
    5.6449   -0.6569    0.0000 C   0  0  1  0  0  0  0  0  0  0  0  0
    7.3770   -0.6569    0.0000 C   0  0  1  0  0  0  0  0  0  0  0  0
    7.3770    0.3431    0.0000 C   0  0  2  0  0  0  0  0  0  0  0  0
    4.7349   -1.1638    0.0000 C   0  0  2  0  0  0  0  0  0  0  0  0
    5.6449    0.3431    0.0000 C   0  0  0  0  0  0  0  0  0  0  0  0
    4.7269   -2.2054    0.0000 C   0  0  1  0  0  0  0  0  0  0  0  0
    6.5109    0.8431    0.0000 C   0  0  0  0  0  0  0  0  0  0  0  0
    6.5270   -2.1984    0.0000 C   0  0  0  0  0  0  0  0  0  0  0  0
    8.3232    0.6478    0.0000 C   0  0  2  0  0  0  0  0  0  0  0  0
    8.3232   -0.9616    0.0000 C   0  0  0  0  0  0  0  0  0  0  0  0
    5.6290   -2.7262    0.0000 C   0  0  0  0  0  0  0  0  0  0  0  0
    8.9068   -0.1569    0.0000 C   0  0  0  0  0  0  0  0  0  0  0  0
    3.8081   -0.5997    0.0000 C   0  0  0  0  0  0  0  0  0  0  0  0
    7.3770    1.3431    0.0000 C   0  0  0  0  0  0  0  0  0  0  0  0
    4.7426   -0.1638    0.0000 C   0  0  0  0  0  0  0  0  0  0  0  0
    3.7914   -2.7551    0.0000 C   0  0  0  0  0  0  0  0  0  0  0  0
    2.8602   -1.1276    0.0000 C   0  0  0  0  0  0  0  0  0  0  0  0
    2.8518   -2.2126    0.0000 C   0  0  0  0  0  0  0  0  0  0  0  0
    2.0000   -0.6176    0.0000 C   0  0  0  0  0  0  0  0  0  0  0  0
    9.6124    1.8046    0.0000 C   0  0  0  0  0  0  0  0  0  0  0  0
    9.9230    2.7551    0.0000 C   0  0  0  0  0  0  0  0  0  0  0  0
    7.2503   -1.5762    0.0000 H   0  0  0  0  0  0  0  0  0  0  0  0
    6.3810   -0.2319    0.0000 H   0  0  0  0  0  0  0  0  0  0  0  0
    7.4669   -1.5021    0.0000 H   0  0  0  0  0  0  0  0  0  0  0  0
    5.4329    0.9257    0.0000 H   0  0  0  0  0  0  0  0  0  0  0  0
    5.0343    0.2354    0.0000 H   0  0  0  0  0  0  0  0  0  0  0  0
    4.7302   -3.0553    0.0000 H   0  0  0  0  0  0  0  0  0  0  0  0
    6.9095    1.3180    0.0000 H   0  0  0  0  0  0  0  0  0  0  0  0
    6.1124    1.3180    0.0000 H   0  0  0  0  0  0  0  0  0  0  0  0
    6.7450   -2.7788    0.0000 H   0  0  0  0  0  0  0  0  0  0  0  0
    7.1361   -2.0829    0.0000 H   0  0  0  0  0  0  0  0  0  0  0  0
    7.8857    1.0872    0.0000 H   0  0  0  0  0  0  0  0  0  0  0  0
    8.0722   -1.5286    0.0000 H   0  0  0  0  0  0  0  0  0  0  0  0
    8.8606   -1.2709    0.0000 H   0  0  0  0  0  0  0  0  0  0  0  0
    5.2316   -3.2021    0.0000 H   0  0  0  0  0  0  0  0  0  0  0  0
    6.0299   -3.1991    0.0000 H   0  0  0  0  0  0  0  0  0  0  0  0
    9.3677   -0.5716    0.0000 H   0  0  0  0  0  0  0  0  0  0  0  0
    9.3677    0.2578    0.0000 H   0  0  0  0  0  0  0  0  0  0  0  0
    4.2163   -0.1330    0.0000 H   0  0  0  0  0  0  0  0  0  0  0  0
    3.4182   -0.1176    0.0000 H   0  0  0  0  0  0  0  0  0  0  0  0
    7.9970    1.3431    0.0000 H   0  0  0  0  0  0  0  0  0  0  0  0
    7.3770    1.9631    0.0000 H   0  0  0  0  0  0  0  0  0  0  0  0
    6.7570    1.3431    0.0000 H   0  0  0  0  0  0  0  0  0  0  0  0
    5.3626   -0.1686    0.0000 H   0  0  0  0  0  0  0  0  0  0  0  0
    4.7474    0.4562    0.0000 H   0  0  0  0  0  0  0  0  0  0  0  0
    4.1226   -0.1590    0.0000 H   0  0  0  0  0  0  0  0  0  0  0  0
    3.3942   -3.2311    0.0000 H   0  0  0  0  0  0  0  0  0  0  0  0
    4.1924   -3.2280    0.0000 H   0  0  0  0  0  0  0  0  0  0  0  0
    2.3137   -2.5205    0.0000 H   0  0  0  0  0  0  0  0  0  0  0  0
    2.3162   -0.0843    0.0000 H   0  0  0  0  0  0  0  0  0  0  0  0
    1.4667   -0.3015    0.0000 H   0  0  0  0  0  0  0  0  0  0  0  0
    1.6838   -1.1510    0.0000 H   0  0  0  0  0  0  0  0  0  0  0  0
   10.5123    2.5625    0.0000 H   0  0  0  0  0  0  0  0  0  0  0  0
   10.1156    3.3444    0.0000 H   0  0  0  0  0  0  0  0  0  0  0  0
    9.3337    2.9477    0.0000 H   0  0  0  0  0  0  0  0  0  0  0  0
 12  1  1  1  0  0  0
  1 23  1  0  0  0  0
  2 23  2  0  0  0  0
  3  4  1  0  0  0  0
  3  5  1  0  0  0  0
  3 11  1  0  0  0  0
  3 25  1  1  0  0  0
  4  7  1  0  0  0  0
  4  8  1  0  0  0  0
  4 26  1  6  0  0  0
  5  6  1  0  0  0  0
  5 13  1  0  0  0  0
  5 27  1  6  0  0  0
  6 10  1  0  0  0  0
  6 12  1  0  0  0  0
  6 17  1  1  0  0  0
  7  9  1  0  0  0  0
  7 16  1  0  0  0  0
  7 18  1  1  0  0  0
  8 10  1  0  0  0  0
  8 28  1  0  0  0  0
  8 29  1  0  0  0  0
  9 14  1  0  0  0  0
  9 19  1  0  0  0  0
  9 30  1  6  0  0  0
 10 31  1  0  0  0  0
 10 32  1  0  0  0  0
 11 14  1  0  0  0  0
 11 33  1  0  0  0  0
 11 34  1  0  0  0  0
 12 15  1  0  0  0  0
 12 35  1  0  0  0  0
 13 15  1  0  0  0  0
 13 36  1  0  0  0  0
 13 37  1  0  0  0  0
 14 38  1  0  0  0  0
 14 39  1  0  0  0  0
 15 40  1  0  0  0  0
 15 41  1  0  0  0  0
 16 20  1  0  0  0  0
 16 42  1  0  0  0  0
 16 43  1  0  0  0  0
 17 44  1  0  0  0  0
 17 45  1  0  0  0  0
 17 46  1  0  0  0  0
 18 47  1  0  0  0  0
 18 48  1  0  0  0  0
 18 49  1  0  0  0  0
 19 21  1  0  0  0  0
 19 50  1  0  0  0  0
 19 51  1  0  0  0  0
 20 21  2  0  0  0  0
 20 22  1  0  0  0  0
 21 52  1  0  0  0  0
 22 53  1  0  0  0  0
 22 54  1  0  0  0  0
 22 55  1  0  0  0  0
 23 24  1  0  0  0  0
 24 56  1  0  0  0  0
 24 57  1  0  0  0  0
 24 58  1  0  0  0  0
M  END
> <PUBCHEM_COMPOUND_CID>
249474

> <PUBCHEM_COMPOUND_CANONICALIZED>
1

> <PUBCHEM_CACTVS_COMPLEXITY>
564

> <PUBCHEM_CACTVS_HBOND_ACCEPTOR>
2

> <PUBCHEM_CACTVS_HBOND_DONOR>
0

> <PUBCHEM_CACTVS_ROTATABLE_BOND>
2

> <PUBCHEM_CACTVS_SUBSKEYS>
AAADcfB4MAAAAAAAAAAAAAAAAAAAAYAAAAAwYIAAAAAAAGDAAAAAGgAAAAAADxSggAICCAAABACIAiDSCAAAAAAgAAAACAAAAAgAAAIAAQACAAAEgAAIAAOAwPAPgAAAAAAAAACAAAQAACAAAIAADAAAAA==

> <PUBCHEM_IUPAC_OPENEYE_NAME>
[(5S,8R,9S,10S,13S,14S,17S)-2,10,13-trimethyl-4,5,6,7,8,9,11,12,14,15,16,17-dodecahydro-1H-cyclopenta[a]phenanthren-17-yl] acetate

> <PUBCHEM_IUPAC_CAS_NAME>
acetic acid [(5S,8R,9S,10S,13S,14S,17S)-2,10,13-trimethyl-4,5,6,7,8,9,11,12,14,15,16,17-dodecahydro-1H-cyclopenta[a]phenanthren-17-yl] ester

> <PUBCHEM_IUPAC_NAME>
[(5S,8R,9S,10S,13S,14S,17S)-2,10,13-trimethyl-4,5,6,7,8,9,11,12,14,15,16,17-dodecahydro-1H-cyclopenta[a]phenanthren-17-yl] acetate

> <PUBCHEM_IUPAC_SYSTEMATIC_NAME>
[(5S,8R,9S,10S,13S,14S,17S)-2,10,13-trimethyl-4,5,6,7,8,9,11,12,14,15,16,17-dodecahydro-1H-cyclopenta[a]phenanthren-17-yl] ethanoate

> <PUBCHEM_IUPAC_TRADITIONAL_NAME>
acetic acid [(5S,8R,9S,10S,13S,14S,17S)-2,10,13-trimethyl-4,5,6,7,8,9,11,12,14,15,16,17-dodecahydro-1H-cyclopenta[a]phenanthren-17-yl] ester

> <PUBCHEM_IUPAC_INCHI>
InChI=1S/C22H34O2/c1-14-5-6-16-7-8-17-18-9-10-20(24-15(2)23)21(18,3)12-11-19(17)22(16,4)13-14/h5,16-20H,6-13H2,1-4H3/t16-,17+,18+,19+,20+,21+,22+/m1/s1

> <PUBCHEM_IUPAC_INCHIKEY>
BNUOBHYLRSENSB-BHXFFAOXSA-N

> <PUBCHEM_XLOGP3_AA>
5.6

> <PUBCHEM_EXACT_MASS>
330.25588

> <PUBCHEM_MOLECULAR_FORMULA>
C22H34O2

> <PUBCHEM_MOLECULAR_WEIGHT>
330.50416

> <PUBCHEM_OPENEYE_CAN_SMILES>
CC1=CCC2CCC3C4CCC(C4(CCC3C2(C1)C)C)OC(=O)C

> <PUBCHEM_OPENEYE_ISO_SMILES>
CC1=CC[C@@H]2CC[C@H]3[C@@H]4CC[C@@H]([C@]4(CC[C@@H]3[C@]2(C1)C)C)OC(=O)C

> <PUBCHEM_CACTVS_TPSA>
26.3

> <PUBCHEM_MONOISOTOPIC_WEIGHT>
330.25588

> <PUBCHEM_TOTAL_CHARGE>
0

> <PUBCHEM_HEAVY_ATOM_COUNT>
24

> <PUBCHEM_ATOM_DEF_STEREO_COUNT>
7

> <PUBCHEM_ATOM_UDEF_STEREO_COUNT>
0

> <PUBCHEM_BOND_DEF_STEREO_COUNT>
0

> <PUBCHEM_BOND_UDEF_STEREO_COUNT>
0

> <PUBCHEM_ISOTOPIC_ATOM_COUNT>
0

> <PUBCHEM_COMPONENT_COUNT>
1

> <PUBCHEM_CACTVS_TAUTO_COUNT>
1

> <PUBCHEM_COORDINATE_TYPE>
1
5
255

> <PUBCHEM_BONDANNOTATIONS>
12  1  5
3  25  5
4  26  6
5  27  6
6  17  5
7  18  5
9  30  6

$$$$

