159490
  -OEChem-07051213103D

 80 84  0     1  0  0  0  0  0999 V2000
   -4.8596    2.7358   -0.4452 O   0  0  0  0  0  0  0  0  0  0  0  0
    5.1506    3.1159   -1.5148 O   0  0  0  0  0  0  0  0  0  0  0  0
    1.3955   -0.1273    0.4786 C   0  0  1  0  0  0  0  0  0  0  0  0
    2.9265   -0.4444    0.7729 C   0  0  1  0  0  0  0  0  0  0  0  0
    0.5967   -1.4440    0.1002 C   0  0  2  0  0  0  0  0  0  0  0  0
    3.6609   -1.4243   -0.2044 C   0  0  1  0  0  0  0  0  0  0  0  0
    1.3074   -2.0915   -1.1187 C   0  0  0  0  0  0  0  0  0  0  0  0
    2.7435   -2.5082   -0.8251 C   0  0  0  0  0  0  0  0  0  0  0  0
    3.8130    0.7860    1.1530 C   0  0  0  0  0  0  0  0  0  0  0  0
    0.7312    0.4767    1.7571 C   0  0  0  0  0  0  0  0  0  0  0  0
   -0.8936   -1.0816   -0.1552 C   0  0  0  0  0  0  0  0  0  0  0  0
    4.3749   -0.6592   -1.3423 C   0  0  0  0  0  0  0  0  0  0  0  0
    4.7957    1.4040    0.1134 C   0  0  1  0  0  0  0  0  0  0  0  0
   -3.0944   -0.1443    0.8429 C   0  0  2  0  0  0  0  0  0  0  0  0
   -1.5371   -0.1995    0.8472 C   0  0  0  0  0  0  0  0  0  0  0  0
   -3.5520   -0.0100   -0.6551 C   0  0  2  0  0  0  0  0  0  0  0  0
    5.3945    0.3578   -0.8394 C   0  0  0  0  0  0  0  0  0  0  0  0
    1.2483    0.9409   -0.6391 C   0  0  0  0  0  0  0  0  0  0  0  0
    0.5723   -2.5015    1.2485 C   0  0  0  0  0  0  0  0  0  0  0  0
    4.7431   -2.2065    0.6024 C   0  0  0  0  0  0  0  0  0  0  0  0
   -0.7727    0.4855    1.7232 C   0  0  0  0  0  0  0  0  0  0  0  0
   -5.0702    0.3266   -0.9143 C   0  0  0  0  0  0  0  0  0  0  0  0
   -3.0307   -1.1906   -1.4989 C   0  0  0  0  0  0  0  0  0  0  0  0
   -3.6485    1.0699    1.6432 C   0  0  0  0  0  0  0  0  0  0  0  0
   -1.6007   -1.5345   -1.2084 C   0  0  0  0  0  0  0  0  0  0  0  0
   -5.4987    1.5274   -0.0233 C   0  0  1  0  0  0  0  0  0  0  0  0
    4.1456    2.5263   -0.7188 C   0  0  0  0  0  0  0  0  0  0  0  0
   -5.1437    1.3246    1.4471 C   0  0  0  0  0  0  0  0  0  0  0  0
    5.9543    2.0715    0.8954 C   0  0  0  0  0  0  0  0  0  0  0  0
   -3.5621   -1.4414    1.5493 C   0  0  0  0  0  0  0  0  0  0  0  0
   -5.2593    0.7161   -2.4059 C   0  0  0  0  0  0  0  0  0  0  0  0
   -6.0307   -0.8564   -0.6654 C   0  0  0  0  0  0  0  0  0  0  0  0
    2.8684   -1.0011    1.7214 H   0  0  0  0  0  0  0  0  0  0  0  0
    1.2902   -1.4253   -1.9886 H   0  0  0  0  0  0  0  0  0  0  0  0
    0.7767   -3.0010   -1.4292 H   0  0  0  0  0  0  0  0  0  0  0  0
    2.7050   -3.3868   -0.1683 H   0  0  0  0  0  0  0  0  0  0  0  0
    3.1890   -2.8910   -1.7534 H   0  0  0  0  0  0  0  0  0  0  0  0
    3.2037    1.5856    1.5872 H   0  0  0  0  0  0  0  0  0  0  0  0
    4.4241    0.4383    1.9998 H   0  0  0  0  0  0  0  0  0  0  0  0
    1.0617    1.5114    1.9059 H   0  0  0  0  0  0  0  0  0  0  0  0
    1.0417   -0.0726    2.6545 H   0  0  0  0  0  0  0  0  0  0  0  0
    3.6504   -0.1661   -1.9953 H   0  0  0  0  0  0  0  0  0  0  0  0
    4.9080   -1.3713   -1.9870 H   0  0  0  0  0  0  0  0  0  0  0  0
   -3.0075    0.8731   -1.0340 H   0  0  0  0  0  0  0  0  0  0  0  0
    6.2128   -0.1746   -0.3393 H   0  0  0  0  0  0  0  0  0  0  0  0
    5.8725    0.8279   -1.7075 H   0  0  0  0  0  0  0  0  0  0  0  0
    0.2091    1.1129   -0.9362 H   0  0  0  0  0  0  0  0  0  0  0  0
    1.6042    1.9145   -0.2938 H   0  0  0  0  0  0  0  0  0  0  0  0
    1.7794    0.6700   -1.5504 H   0  0  0  0  0  0  0  0  0  0  0  0
    0.1055   -3.4325    0.9023 H   0  0  0  0  0  0  0  0  0  0  0  0
    1.5693   -2.7591    1.6140 H   0  0  0  0  0  0  0  0  0  0  0  0
    0.0002   -2.1750    2.1231 H   0  0  0  0  0  0  0  0  0  0  0  0
    4.2798   -2.8536    1.3569 H   0  0  0  0  0  0  0  0  0  0  0  0
    5.3399   -2.8466   -0.0577 H   0  0  0  0  0  0  0  0  0  0  0  0
    5.4299   -1.5482    1.1417 H   0  0  0  0  0  0  0  0  0  0  0  0
   -1.2279    1.1002    2.4932 H   0  0  0  0  0  0  0  0  0  0  0  0
   -3.0974   -0.9395   -2.5633 H   0  0  0  0  0  0  0  0  0  0  0  0
   -3.6307   -2.0928   -1.3455 H   0  0  0  0  0  0  0  0  0  0  0  0
   -3.1090    1.9817    1.3527 H   0  0  0  0  0  0  0  0  0  0  0  0
   -3.4690    0.9332    2.7177 H   0  0  0  0  0  0  0  0  0  0  0  0
   -1.1504   -2.2022   -1.9351 H   0  0  0  0  0  0  0  0  0  0  0  0
   -6.5798    1.6965   -0.1023 H   0  0  0  0  0  0  0  0  0  0  0  0
   -5.7337    0.5110    1.8797 H   0  0  0  0  0  0  0  0  0  0  0  0
   -5.4060    2.2302    2.0090 H   0  0  0  0  0  0  0  0  0  0  0  0
    3.6974    3.2968   -0.0829 H   0  0  0  0  0  0  0  0  0  0  0  0
    3.3967    2.1441   -1.4086 H   0  0  0  0  0  0  0  0  0  0  0  0
    6.4534    1.3482    1.5514 H   0  0  0  0  0  0  0  0  0  0  0  0
    6.7282    2.4761    0.2336 H   0  0  0  0  0  0  0  0  0  0  0  0
    5.5863    2.8885    1.5268 H   0  0  0  0  0  0  0  0  0  0  0  0
   -3.3645   -2.3427    0.9613 H   0  0  0  0  0  0  0  0  0  0  0  0
   -3.0412   -1.5685    2.5076 H   0  0  0  0  0  0  0  0  0  0  0  0
   -4.6248   -1.4355    1.7919 H   0  0  0  0  0  0  0  0  0  0  0  0
   -5.1556   -0.1509   -3.0673 H   0  0  0  0  0  0  0  0  0  0  0  0
   -6.2590    1.1320   -2.5782 H   0  0  0  0  0  0  0  0  0  0  0  0
   -4.5271    1.4645   -2.7281 H   0  0  0  0  0  0  0  0  0  0  0  0
   -5.7841   -1.7236   -1.2853 H   0  0  0  0  0  0  0  0  0  0  0  0
   -6.0556   -1.1836    0.3722 H   0  0  0  0  0  0  0  0  0  0  0  0
   -7.0595   -0.5727   -0.9209 H   0  0  0  0  0  0  0  0  0  0  0  0
   -5.2917    3.0291   -1.2649 H   0  0  0  0  0  0  0  0  0  0  0  0
    4.7316    3.8252   -2.0312 H   0  0  0  0  0  0  0  0  0  0  0  0
  1 26  1  0  0  0  0
  1 79  1  0  0  0  0
  2 27  1  0  0  0  0
  2 80  1  0  0  0  0
  3  4  1  0  0  0  0
  3  5  1  0  0  0  0
  3 10  1  0  0  0  0
  3 18  1  0  0  0  0
  4  6  1  0  0  0  0
  4  9  1  0  0  0  0
  4 33  1  0  0  0  0
  5  7  1  0  0  0  0
  5 11  1  0  0  0  0
  5 19  1  0  0  0  0
  6  8  1  0  0  0  0
  6 12  1  0  0  0  0
  6 20  1  0  0  0  0
  7  8  1  0  0  0  0
  7 34  1  0  0  0  0
  7 35  1  0  0  0  0
  8 36  1  0  0  0  0
  8 37  1  0  0  0  0
  9 13  1  0  0  0  0
  9 38  1  0  0  0  0
  9 39  1  0  0  0  0
 10 21  1  0  0  0  0
 10 40  1  0  0  0  0
 10 41  1  0  0  0  0
 11 15  1  0  0  0  0
 11 25  2  0  0  0  0
 12 17  1  0  0  0  0
 12 42  1  0  0  0  0
 12 43  1  0  0  0  0
 13 17  1  0  0  0  0
 13 27  1  0  0  0  0
 13 29  1  0  0  0  0
 14 15  1  0  0  0  0
 14 16  1  0  0  0  0
 14 24  1  0  0  0  0
 14 30  1  0  0  0  0
 15 21  2  0  0  0  0
 16 22  1  0  0  0  0
 16 23  1  0  0  0  0
 16 44  1  0  0  0  0
 17 45  1  0  0  0  0
 17 46  1  0  0  0  0
 18 47  1  0  0  0  0
 18 48  1  0  0  0  0
 18 49  1  0  0  0  0
 19 50  1  0  0  0  0
 19 51  1  0  0  0  0
 19 52  1  0  0  0  0
 20 53  1  0  0  0  0
 20 54  1  0  0  0  0
 20 55  1  0  0  0  0
 21 56  1  0  0  0  0
 22 26  1  0  0  0  0
 22 31  1  0  0  0  0
 22 32  1  0  0  0  0
 23 25  1  0  0  0  0
 23 57  1  0  0  0  0
 23 58  1  0  0  0  0
 24 28  1  0  0  0  0
 24 59  1  0  0  0  0
 24 60  1  0  0  0  0
 25 61  1  0  0  0  0
 26 28  1  0  0  0  0
 26 62  1  0  0  0  0
 27 65  1  0  0  0  0
 27 66  1  0  0  0  0
 28 63  1  0  0  0  0
 28 64  1  0  0  0  0
 29 67  1  0  0  0  0
 29 68  1  0  0  0  0
 29 69  1  0  0  0  0
 30 70  1  0  0  0  0
 30 71  1  0  0  0  0
 30 72  1  0  0  0  0
 31 73  1  0  0  0  0
 31 74  1  0  0  0  0
 31 75  1  0  0  0  0
 32 76  1  0  0  0  0
 32 77  1  0  0  0  0
 32 78  1  0  0  0  0
M  END
> <PUBCHEM_COMPOUND_CID>
159490

> <PUBCHEM_CONFORMER_RMSD>
0.8

> <PUBCHEM_CONFORMER_DIVERSEORDER>
2
1

> <PUBCHEM_MMFF94_PARTIAL_CHARGES>
16
1 -0.68
10 0.14
11 -0.14
14 0.14
15 -0.14
2 -0.68
21 -0.29
23 0.14
25 -0.29
26 0.28
27 0.28
5 0.14
56 0.15
61 0.15
79 0.4
80 0.4

> <PUBCHEM_EFFECTIVE_ROTOR_COUNT>
3.4

> <PUBCHEM_PHARMACOPHORE_FEATURES>
10
1 1 acceptor
1 1 donor
1 2 acceptor
1 2 donor
3 22 31 32 hydrophobe
6 11 14 15 16 23 25 rings
6 14 16 22 24 26 28 rings
6 3 4 5 6 7 8 rings
6 3 5 10 11 15 21 rings
6 4 6 9 12 13 17 rings

> <PUBCHEM_HEAVY_ATOM_COUNT>
32

> <PUBCHEM_ATOM_DEF_STEREO_COUNT>
8

> <PUBCHEM_ATOM_UDEF_STEREO_COUNT>
0

> <PUBCHEM_BOND_DEF_STEREO_COUNT>
0

> <PUBCHEM_BOND_UDEF_STEREO_COUNT>
0

> <PUBCHEM_ISOTOPIC_ATOM_COUNT>
0

> <PUBCHEM_COMPONENT_COUNT>
1

> <PUBCHEM_CACTVS_TAUTO_COUNT>
1

> <PUBCHEM_CONFORMER_ID>
00026F0200000002

> <PUBCHEM_MMFF94_ENERGY>
148.1748

> <PUBCHEM_FEATURE_SELFOVERLAP>
50.815

> <PUBCHEM_SHAPE_FINGERPRINT>
10319926 262 14836132095045759234
11578080 2 17416946384351702426
11796584 16 14273745074725086223
12236239 1 18187648024221616011
12422481 6 17560809792723312124
12633257 1 13326854422201219938
12788726 201 16443615917622344683
12839892 36 13398633857219627377
13224815 77 18259982673630582658
13583140 156 18130785625103084691
13690498 29 17169845366403593599
13782708 43 17561073735622564683
14341114 328 12823290234621081947
14528608 73 18040154019759803794
14790565 3 18410011052488714421
14950920 106 10447920698773896269
15082195 135 18262810548849368332
15183329 4 16877944945002562665
15788980 27 17748826349618164115
15840311 113 18340764957582310781
17349148 13 15502375625631524691
17959699 21 18336266824740932143
18608769 82 18116717314218797023
19319366 153 18259711103007297102
1979834 28 14405189495076293984
20511986 3 18114476612330747636
20715895 44 18409452458355051512
21033648 144 18342459253180972351
21033648 29 17132115744791000884
21033650 10 14852148672317032883
21298829 104 18335700520962183664
22393880 68 17095814208721902364
23522609 53 17241304920810786233
23559900 14 16877953715220221842
23569914 2 17413634654870991093
2838139 119 18339926016734305293
3004659 81 18040997380028890590
34797466 226 18272930510075089519
3493558 16 18271796947646644853
392239 28 15339112451279993853
4098825 35 18409730699363728665
44317340 157 18114457933433646441
474 4 18411697664998279050
5104073 3 18059853969510608979
6034566 193 17983563123041876276
6086070 43 13038903275486667615
633830 44 18341896298690419130
6608658 132 17749381594384998009
7237137 82 17822014168847930109

> <PUBCHEM_SHAPE_MULTIPOLES>
646.81
14.7
2.75
1.82
2.8
0.4
0.09
7.7
3.45
-2.7
0.42
1.19
0.2
-0.66

> <PUBCHEM_SHAPE_SELFOVERLAP>
1376.951

> <PUBCHEM_SHAPE_VOLUME>
354.9

> <PUBCHEM_COORDINATE_TYPE>
2
5
10

$$$$

