93341
  -OEChem-07051213122D

 24 25  0     0  0  0  0  0  0999 V2000
    2.0000   -2.5000    0.0000 Cl  0  0  0  0  0  0  0  0  0  0  0  0
    5.4641   -2.5000    0.0000 Cl  0  0  0  0  0  0  0  0  0  0  0  0
    3.7320    3.5000    0.0000 O   0  0  0  0  0  0  0  0  0  0  0  0
    2.8660    1.0000    0.0000 N   0  0  0  0  0  0  0  0  0  0  0  0
    2.8660    2.0000    0.0000 N   0  0  0  0  0  0  0  0  0  0  0  0
    3.7320   -0.5000    0.0000 C   0  0  0  0  0  0  0  0  0  0  0  0
    3.7320   -2.5000    0.0000 C   0  0  0  0  0  0  0  0  0  0  0  0
    3.7320    0.5000    0.0000 C   0  0  0  0  0  0  0  0  0  0  0  0
    2.8660   -1.0000    0.0000 C   0  0  0  0  0  0  0  0  0  0  0  0
    4.5981   -1.0000    0.0000 C   0  0  0  0  0  0  0  0  0  0  0  0
    2.8660   -2.0000    0.0000 C   0  0  0  0  0  0  0  0  0  0  0  0
    4.5981   -2.0000    0.0000 C   0  0  0  0  0  0  0  0  0  0  0  0
    3.7320   -3.5000    0.0000 C   0  0  0  0  0  0  0  0  0  0  0  0
    4.5981    1.0000    0.0000 C   0  0  0  0  0  0  0  0  0  0  0  0
    4.5981    2.0000    0.0000 C   0  0  0  0  0  0  0  0  0  0  0  0
    3.7320    2.5000    0.0000 C   0  0  0  0  0  0  0  0  0  0  0  0
    2.3291   -0.6900    0.0000 H   0  0  0  0  0  0  0  0  0  0  0  0
    5.1350   -0.6900    0.0000 H   0  0  0  0  0  0  0  0  0  0  0  0
    3.1120   -3.5000    0.0000 H   0  0  0  0  0  0  0  0  0  0  0  0
    3.7320   -4.1200    0.0000 H   0  0  0  0  0  0  0  0  0  0  0  0
    4.3520   -3.5000    0.0000 H   0  0  0  0  0  0  0  0  0  0  0  0
    5.1350    0.6900    0.0000 H   0  0  0  0  0  0  0  0  0  0  0  0
    5.1350    2.3100    0.0000 H   0  0  0  0  0  0  0  0  0  0  0  0
    2.3291    2.3100    0.0000 H   0  0  0  0  0  0  0  0  0  0  0  0
  1 11  1  0  0  0  0
  2 12  1  0  0  0  0
  3 16  2  0  0  0  0
  4  5  1  0  0  0  0
  4  8  2  0  0  0  0
  5 16  1  0  0  0  0
  5 24  1  0  0  0  0
  6  8  1  0  0  0  0
  6  9  2  0  0  0  0
  6 10  1  0  0  0  0
  7 11  2  0  0  0  0
  7 12  1  0  0  0  0
  7 13  1  0  0  0  0
  8 14  1  0  0  0  0
  9 11  1  0  0  0  0
  9 17  1  0  0  0  0
 10 12  2  0  0  0  0
 10 18  1  0  0  0  0
 13 19  1  0  0  0  0
 13 20  1  0  0  0  0
 13 21  1  0  0  0  0
 14 15  2  0  0  0  0
 14 22  1  0  0  0  0
 15 16  1  0  0  0  0
 15 23  1  0  0  0  0
M  END
> <PUBCHEM_COMPOUND_CID>
93341

> <PUBCHEM_COMPOUND_CANONICALIZED>
1

> <PUBCHEM_CACTVS_COMPLEXITY>
342

> <PUBCHEM_CACTVS_HBOND_ACCEPTOR>
2

> <PUBCHEM_CACTVS_HBOND_DONOR>
1

> <PUBCHEM_CACTVS_ROTATABLE_BOND>
1

> <PUBCHEM_CACTVS_SUBSKEYS>
AAADccBzIAAGAAAAAAAAAAAAAAAAAAAAAAAwQAAAAAAAAAABAAAAHgIYAAAADAqBmCAyAIBiAACoAyFyEACSAAAgBQAaiAAwAtgIIKKBExCAIAAgmAAIiYcAgMAOQAAAIACBAACAAABAAQIAAAAAAAAAAA==

> <PUBCHEM_IUPAC_OPENEYE_NAME>
3-(3,5-dichloro-4-methyl-phenyl)-1H-pyridazin-6-one

> <PUBCHEM_IUPAC_CAS_NAME>
3-(3,5-dichloro-4-methylphenyl)-1H-pyridazin-6-one

> <PUBCHEM_IUPAC_NAME>
3-(3,5-dichloro-4-methylphenyl)-1H-pyridazin-6-one

> <PUBCHEM_IUPAC_SYSTEMATIC_NAME>
3-[3,5-bis(chloranyl)-4-methyl-phenyl]-1H-pyridazin-6-one

> <PUBCHEM_IUPAC_TRADITIONAL_NAME>
3-(3,5-dichloro-4-methyl-phenyl)-1H-pyridazin-6-one

> <PUBCHEM_IUPAC_INCHI>
InChI=1S/C11H8Cl2N2O/c1-6-8(12)4-7(5-9(6)13)10-2-3-11(16)15-14-10/h2-5H,1H3,(H,15,16)

> <PUBCHEM_IUPAC_INCHIKEY>
UWQMKVBQKFHLCE-UHFFFAOYSA-N

> <PUBCHEM_XLOGP3_AA>
2.9

> <PUBCHEM_EXACT_MASS>
254.001368

> <PUBCHEM_MOLECULAR_FORMULA>
C11H8Cl2N2O

> <PUBCHEM_MOLECULAR_WEIGHT>
255.10002

> <PUBCHEM_OPENEYE_CAN_SMILES>
CC1=C(C=C(C=C1Cl)C2=NNC(=O)C=C2)Cl

> <PUBCHEM_OPENEYE_ISO_SMILES>
CC1=C(C=C(C=C1Cl)C2=NNC(=O)C=C2)Cl

> <PUBCHEM_CACTVS_TPSA>
41.5

> <PUBCHEM_MONOISOTOPIC_WEIGHT>
254.001368

> <PUBCHEM_TOTAL_CHARGE>
0

> <PUBCHEM_HEAVY_ATOM_COUNT>
16

> <PUBCHEM_ATOM_DEF_STEREO_COUNT>
0

> <PUBCHEM_ATOM_UDEF_STEREO_COUNT>
0

> <PUBCHEM_BOND_DEF_STEREO_COUNT>
0

> <PUBCHEM_BOND_UDEF_STEREO_COUNT>
0

> <PUBCHEM_ISOTOPIC_ATOM_COUNT>
0

> <PUBCHEM_COMPONENT_COUNT>
1

> <PUBCHEM_CACTVS_TAUTO_COUNT>
7

> <PUBCHEM_COORDINATE_TYPE>
1
5
255

> <PUBCHEM_BONDANNOTATIONS>
10  12  8
14  15  8
15  16  8
4  5  8
4  8  8
5  16  8
6  10  8
6  9  8
7  11  8
7  12  8
8  14  8
9  11  8

$$$$

