13390
  -OEChem-06261209342D

 12 12  0     0  0  0  0  0  0999 V2000
    5.5202   -0.3952    0.0000 Cl  0  0  0  0  0  0  0  0  0  0  0  0
    2.0000   -0.3952    0.0000 Cl  0  0  0  0  0  0  0  0  0  0  0  0
    4.8479    1.6739    0.0000 Cl  0  0  0  0  0  0  0  0  0  0  0  0
    3.7601   -0.6739    0.0000 N   0  0  0  0  0  0  0  0  0  0  0  0
    3.2601    0.8649    0.0000 N   0  0  0  0  0  0  0  0  0  0  0  0
    4.5691   -0.0861    0.0000 C   0  0  0  0  0  0  0  0  0  0  0  0
    3.7601   -1.6739    0.0000 C   0  0  0  0  0  0  0  0  0  0  0  0
    2.9511   -0.0861    0.0000 C   0  0  0  0  0  0  0  0  0  0  0  0
    4.2601    0.8649    0.0000 C   0  0  0  0  0  0  0  0  0  0  0  0
    3.1401   -1.6739    0.0000 H   0  0  0  0  0  0  0  0  0  0  0  0
    3.7601   -2.2939    0.0000 H   0  0  0  0  0  0  0  0  0  0  0  0
    4.3801   -1.6739    0.0000 H   0  0  0  0  0  0  0  0  0  0  0  0
  1  6  1  0  0  0  0
  2  8  1  0  0  0  0
  3  9  1  0  0  0  0
  4  6  1  0  0  0  0
  4  7  1  0  0  0  0
  4  8  1  0  0  0  0
  5  8  2  0  0  0  0
  5  9  1  0  0  0  0
  6  9  2  0  0  0  0
  7 10  1  0  0  0  0
  7 11  1  0  0  0  0
  7 12  1  0  0  0  0
M  END
> <PUBCHEM_COMPOUND_CID>
13390

> <PUBCHEM_COMPOUND_CANONICALIZED>
1

> <PUBCHEM_CACTVS_COMPLEXITY>
110

> <PUBCHEM_CACTVS_HBOND_ACCEPTOR>
1

> <PUBCHEM_CACTVS_HBOND_DONOR>
0

> <PUBCHEM_CACTVS_ROTATABLE_BOND>
0

> <PUBCHEM_CACTVS_SUBSKEYS>
AAADcQBjAAAGAAAAAAAAAAAAAAAAAWAAAAAAAAAAAAAAAAABgAAAHAIAAAAAAAIBAiQDkBcMEACgAAAgZAAAgC0BEKABQkAIEACASAAACABQAAAIAAIAACAAAAAAAAAAAAAAAAAAAAAAAAAAAAAAAAAAAA==

> <PUBCHEM_IUPAC_OPENEYE_NAME>
2,4,5-trichloro-1-methyl-imidazole

> <PUBCHEM_IUPAC_CAS_NAME>
2,4,5-trichloro-1-methylimidazole

> <PUBCHEM_IUPAC_NAME>
2,4,5-trichloro-1-methylimidazole

> <PUBCHEM_IUPAC_SYSTEMATIC_NAME>
2,4,5-tris(chloranyl)-1-methyl-imidazole

> <PUBCHEM_IUPAC_TRADITIONAL_NAME>
2,4,5-trichloro-1-methyl-imidazole

> <PUBCHEM_IUPAC_INCHI>
InChI=1S/C4H3Cl3N2/c1-9-3(6)2(5)8-4(9)7/h1H3

> <PUBCHEM_IUPAC_INCHIKEY>
PHKGMJXDWJTBOO-UHFFFAOYSA-N

> <PUBCHEM_XLOGP3_AA>
2.9

> <PUBCHEM_EXACT_MASS>
183.936181

> <PUBCHEM_MOLECULAR_FORMULA>
C4H3Cl3N2

> <PUBCHEM_MOLECULAR_WEIGHT>
185.43902

> <PUBCHEM_OPENEYE_CAN_SMILES>
CN1C(=C(N=C1Cl)Cl)Cl

> <PUBCHEM_OPENEYE_ISO_SMILES>
CN1C(=C(N=C1Cl)Cl)Cl

> <PUBCHEM_CACTVS_TPSA>
17.8

> <PUBCHEM_MONOISOTOPIC_WEIGHT>
183.936181

> <PUBCHEM_TOTAL_CHARGE>
0

> <PUBCHEM_HEAVY_ATOM_COUNT>
9

> <PUBCHEM_ATOM_DEF_STEREO_COUNT>
0

> <PUBCHEM_ATOM_UDEF_STEREO_COUNT>
0

> <PUBCHEM_BOND_DEF_STEREO_COUNT>
0

> <PUBCHEM_BOND_UDEF_STEREO_COUNT>
0

> <PUBCHEM_ISOTOPIC_ATOM_COUNT>
0

> <PUBCHEM_COMPONENT_COUNT>
1

> <PUBCHEM_CACTVS_TAUTO_COUNT>
1

> <PUBCHEM_COORDINATE_TYPE>
1
5
255

> <PUBCHEM_BONDANNOTATIONS>
4  6  8
4  8  8
5  8  8
5  9  8
6  9  8

$$$$

