119359
  -OEChem-07051213042D

 30 30  0     1  0  0  0  0  0999 V2000
    5.4641   -3.4050    0.0000 Cl  0  0  0  0  0  0  0  0  0  0  0  0
    2.0000   -3.4050    0.0000 Cl  0  0  0  0  0  0  0  0  0  0  0  0
    4.5981    1.0950    0.0000 O   0  0  0  0  0  0  0  0  0  0  0  0
    6.3301    3.0950    0.0000 O   0  0  0  0  0  0  0  0  0  0  0  0
    7.1962    1.5950    0.0000 O   0  0  0  0  0  0  0  0  0  0  0  0
    5.4641   -0.4050    0.0000 O   0  0  0  0  0  0  0  0  0  0  0  0
    3.7320   -0.4050    0.0000 N   0  0  0  0  0  0  0  0  0  0  0  0
    5.4641    1.5950    0.0000 C   0  0  3  0  0  0  0  0  0  0  0  0
    5.9641    0.7290    0.0000 C   0  0  0  0  0  0  0  0  0  0  0  0
    4.9641    2.4610    0.0000 C   0  0  0  0  0  0  0  0  0  0  0  0
    6.3301    2.0950    0.0000 C   0  0  0  0  0  0  0  0  0  0  0  0
    3.7320   -1.4050    0.0000 C   0  0  0  0  0  0  0  0  0  0  0  0
    4.5981    0.0950    0.0000 C   0  0  0  0  0  0  0  0  0  0  0  0
    2.8660   -1.9050    0.0000 C   0  0  0  0  0  0  0  0  0  0  0  0
    4.5981   -1.9050    0.0000 C   0  0  0  0  0  0  0  0  0  0  0  0
    4.5981   -2.9050    0.0000 C   0  0  0  0  0  0  0  0  0  0  0  0
    2.8660   -2.9050    0.0000 C   0  0  0  0  0  0  0  0  0  0  0  0
    3.9641    2.4610    0.0000 C   0  0  0  0  0  0  0  0  0  0  0  0
    3.7320   -3.4050    0.0000 C   0  0  0  0  0  0  0  0  0  0  0  0
    5.4272    0.4190    0.0000 H   0  0  0  0  0  0  0  0  0  0  0  0
    6.2741    0.1920    0.0000 H   0  0  0  0  0  0  0  0  0  0  0  0
    6.5010    1.0390    0.0000 H   0  0  0  0  0  0  0  0  0  0  0  0
    5.2741    2.9980    0.0000 H   0  0  0  0  0  0  0  0  0  0  0  0
    3.1951   -0.0950    0.0000 H   0  0  0  0  0  0  0  0  0  0  0  0
    2.3291   -1.5950    0.0000 H   0  0  0  0  0  0  0  0  0  0  0  0
    5.1350   -1.5950    0.0000 H   0  0  0  0  0  0  0  0  0  0  0  0
    3.6541    2.9980    0.0000 H   0  0  0  0  0  0  0  0  0  0  0  0
    3.6541    1.9241    0.0000 H   0  0  0  0  0  0  0  0  0  0  0  0
    3.7320   -4.0250    0.0000 H   0  0  0  0  0  0  0  0  0  0  0  0
    6.8671    3.4050    0.0000 H   0  0  0  0  0  0  0  0  0  0  0  0
  1 16  1  0  0  0  0
  2 17  1  0  0  0  0
  3  8  1  0  0  0  0
  3 13  1  0  0  0  0
  4 11  1  0  0  0  0
  4 30  1  0  0  0  0
  5 11  2  0  0  0  0
  6 13  2  0  0  0  0
  7 12  1  0  0  0  0
  7 13  1  0  0  0  0
  7 24  1  0  0  0  0
  8  9  1  0  0  0  0
  8 10  1  0  0  0  0
  8 11  1  0  0  0  0
  9 20  1  0  0  0  0
  9 21  1  0  0  0  0
  9 22  1  0  0  0  0
 10 18  2  0  0  0  0
 10 23  1  0  0  0  0
 12 14  2  0  0  0  0
 12 15  1  0  0  0  0
 14 17  1  0  0  0  0
 14 25  1  0  0  0  0
 15 16  2  0  0  0  0
 15 26  1  0  0  0  0
 16 19  1  0  0  0  0
 17 19  2  0  0  0  0
 18 27  1  0  0  0  0
 18 28  1  0  0  0  0
 19 29  1  0  0  0  0
M  END
> <PUBCHEM_COMPOUND_CID>
119359

> <PUBCHEM_COMPOUND_CANONICALIZED>
1

> <PUBCHEM_CACTVS_COMPLEXITY>
367

> <PUBCHEM_CACTVS_HBOND_ACCEPTOR>
4

> <PUBCHEM_CACTVS_HBOND_DONOR>
2

> <PUBCHEM_CACTVS_ROTATABLE_BOND>
5

> <PUBCHEM_CACTVS_SUBSKEYS>
AAADccByOAAGAAAAAAAAAAAAAAAAAAAAAAAwAAAAAAAAAAABAAAAHgIQCAAADE6BkCAyyILABgCIACTSWAKCAAAhBwAIiAFAZokJJCLBs5WMYAhg1ABL6AcQAAAAAAAAAAKAAAAAAAAABQAAAAAAAAAAAA==

> <PUBCHEM_IUPAC_OPENEYE_NAME>
2-[(3,5-dichlorophenyl)carbamoyloxy]-2-methyl-but-3-enoic acid

> <PUBCHEM_IUPAC_CAS_NAME>
2-[(3,5-dichloroanilino)-oxomethoxy]-2-methyl-3-butenoic acid

> <PUBCHEM_IUPAC_NAME>
2-[(3,5-dichlorophenyl)carbamoyloxy]-2-methylbut-3-enoic acid

> <PUBCHEM_IUPAC_SYSTEMATIC_NAME>
2-[[3,5-bis(chloranyl)phenyl]carbamoyloxy]-2-methyl-but-3-enoic acid

> <PUBCHEM_IUPAC_TRADITIONAL_NAME>
2-[(3,5-dichlorophenyl)carbamoyloxy]-2-methyl-but-3-enoic acid

> <PUBCHEM_IUPAC_INCHI>
InChI=1S/C12H11Cl2NO4/c1-3-12(2,10(16)17)19-11(18)15-9-5-7(13)4-8(14)6-9/h3-6H,1H2,2H3,(H,15,18)(H,16,17)

> <PUBCHEM_IUPAC_INCHIKEY>
KTXGWKXVQGCPAR-UHFFFAOYSA-N

> <PUBCHEM_XLOGP3_AA>
3.4

> <PUBCHEM_EXACT_MASS>
303.006513

> <PUBCHEM_MOLECULAR_FORMULA>
C12H11Cl2NO4

> <PUBCHEM_MOLECULAR_WEIGHT>
304.12604

> <PUBCHEM_OPENEYE_CAN_SMILES>
CC(C=C)(C(=O)O)OC(=O)NC1=CC(=CC(=C1)Cl)Cl

> <PUBCHEM_OPENEYE_ISO_SMILES>
CC(C=C)(C(=O)O)OC(=O)NC1=CC(=CC(=C1)Cl)Cl

> <PUBCHEM_CACTVS_TPSA>
75.6

> <PUBCHEM_MONOISOTOPIC_WEIGHT>
303.006513

> <PUBCHEM_TOTAL_CHARGE>
0

> <PUBCHEM_HEAVY_ATOM_COUNT>
19

> <PUBCHEM_ATOM_DEF_STEREO_COUNT>
0

> <PUBCHEM_ATOM_UDEF_STEREO_COUNT>
1

> <PUBCHEM_BOND_DEF_STEREO_COUNT>
0

> <PUBCHEM_BOND_UDEF_STEREO_COUNT>
0

> <PUBCHEM_ISOTOPIC_ATOM_COUNT>
0

> <PUBCHEM_COMPONENT_COUNT>
1

> <PUBCHEM_CACTVS_TAUTO_COUNT>
2

> <PUBCHEM_COORDINATE_TYPE>
1
5
255

> <PUBCHEM_BONDANNOTATIONS>
12  14  8
12  15  8
14  17  8
15  16  8
16  19  8
17  19  8
8  10  3

$$$$

