23674183
  -OEChem-07051213032D

 41 40  0     1  0  0  0  0  0999 V2000
    6.6924    7.6904    0.0000 S   0  0  0  0  0  0  0  0  0  0  0  0
    6.8735    9.4130    0.0000 Na  0  3  0  0  0  0  0  0  0  0  0  0
    7.1837    3.8988    0.0000 O   0  0  0  0  0  0  0  0  0  0  0  0
    7.2802    8.4994    0.0000 O   0  5  0  0  0  0  0  0  0  0  0  0
    5.8834    8.2782    0.0000 O   0  0  0  0  0  0  0  0  0  0  0  0
    7.5014    7.1026    0.0000 O   0  0  0  0  0  0  0  0  0  0  0  0
    0.5369    4.4565    0.0000 O   0  0  0  0  0  0  0  0  0  0  0  0
    4.6146    4.2078    0.0000 N   0  0  3  0  0  0  0  0  0  0  0  0
    5.4236    3.6200    0.0000 N   0  0  0  0  0  0  0  0  0  0  0  0
    6.5114    5.9679    0.0000 N   0  0  3  0  0  0  0  0  0  0  0  0
    5.9236    5.1588    0.0000 C   0  0  0  0  0  0  0  0  0  0  0  0
    4.9236    5.1588    0.0000 C   0  0  0  0  0  0  0  0  0  0  0  0
    6.2326    4.2078    0.0000 C   0  0  0  0  0  0  0  0  0  0  0  0
    6.1046    6.8814    0.0000 C   0  0  0  0  0  0  0  0  0  0  0  0
    5.4236    2.6200    0.0000 C   0  0  0  0  0  0  0  0  0  0  0  0
    4.3358    5.9679    0.0000 C   0  0  0  0  0  0  0  0  0  0  0  0
    3.6635    3.8988    0.0000 C   0  0  0  0  0  0  0  0  0  0  0  0
    7.5059    5.8633    0.0000 C   0  0  0  0  0  0  0  0  0  0  0  0
    4.5576    2.1200    0.0000 C   0  0  0  0  0  0  0  0  0  0  0  0
    6.2896    2.1200    0.0000 C   0  0  0  0  0  0  0  0  0  0  0  0
    4.5576    1.1200    0.0000 C   0  0  0  0  0  0  0  0  0  0  0  0
    6.2896    1.1200    0.0000 C   0  0  0  0  0  0  0  0  0  0  0  0
    5.4236    0.6200    0.0000 C   0  0  0  0  0  0  0  0  0  0  0  0
    5.6740    7.3274    0.0000 H   0  0  0  0  0  0  0  0  0  0  0  0
    5.5906    6.5347    0.0000 H   0  0  0  0  0  0  0  0  0  0  0  0
    4.8374    6.3323    0.0000 H   0  0  0  0  0  0  0  0  0  0  0  0
    3.9714    6.4694    0.0000 H   0  0  0  0  0  0  0  0  0  0  0  0
    3.8342    5.6034    0.0000 H   0  0  0  0  0  0  0  0  0  0  0  0
    3.4719    4.4884    0.0000 H   0  0  0  0  0  0  0  0  0  0  0  0
    3.0739    3.7072    0.0000 H   0  0  0  0  0  0  0  0  0  0  0  0
    3.8551    3.3091    0.0000 H   0  0  0  0  0  0  0  0  0  0  0  0
    7.4411    5.2467    0.0000 H   0  0  0  0  0  0  0  0  0  0  0  0
    8.1225    5.7985    0.0000 H   0  0  0  0  0  0  0  0  0  0  0  0
    7.5707    6.4799    0.0000 H   0  0  0  0  0  0  0  0  0  0  0  0
    4.0206    2.4300    0.0000 H   0  0  0  0  0  0  0  0  0  0  0  0
    6.8266    2.4300    0.0000 H   0  0  0  0  0  0  0  0  0  0  0  0
    4.0206    0.8100    0.0000 H   0  0  0  0  0  0  0  0  0  0  0  0
    6.8266    0.8100    0.0000 H   0  0  0  0  0  0  0  0  0  0  0  0
    5.4236    0.0000    0.0000 H   0  0  0  0  0  0  0  0  0  0  0  0
    1.0739    4.7665    0.0000 H   0  0  0  0  0  0  0  0  0  0  0  0
    0.0000    4.7665    0.0000 H   0  0  0  0  0  0  0  0  0  0  0  0
  1  4  1  0  0  0  0
  1  5  2  0  0  0  0
  1  6  2  0  0  0  0
  1 14  1  0  0  0  0
  3 13  2  0  0  0  0
  7 40  1  0  0  0  0
  7 41  1  0  0  0  0
  8  9  1  0  0  0  0
  8 12  1  0  0  0  0
  8 17  1  0  0  0  0
  9 13  1  0  0  0  0
  9 15  1  0  0  0  0
 10 11  1  0  0  0  0
 10 14  1  0  0  0  0
 10 18  1  0  0  0  0
 11 12  2  0  0  0  0
 11 13  1  0  0  0  0
 12 16  1  0  0  0  0
 14 24  1  0  0  0  0
 14 25  1  0  0  0  0
 15 19  2  0  0  0  0
 15 20  1  0  0  0  0
 16 26  1  0  0  0  0
 16 27  1  0  0  0  0
 16 28  1  0  0  0  0
 17 29  1  0  0  0  0
 17 30  1  0  0  0  0
 17 31  1  0  0  0  0
 18 32  1  0  0  0  0
 18 33  1  0  0  0  0
 18 34  1  0  0  0  0
 19 21  1  0  0  0  0
 19 35  1  0  0  0  0
 20 22  2  0  0  0  0
 20 36  1  0  0  0  0
 21 23  2  0  0  0  0
 21 37  1  0  0  0  0
 22 23  1  0  0  0  0
 22 38  1  0  0  0  0
 23 39  1  0  0  0  0
M  CHG  2   2   1   4  -1
M  END
> <PUBCHEM_COMPOUND_CID>
23674183

> <PUBCHEM_COMPOUND_CANONICALIZED>
1

> <PUBCHEM_CACTVS_COMPLEXITY>
552

> <PUBCHEM_CACTVS_HBOND_ACCEPTOR>
7

> <PUBCHEM_CACTVS_HBOND_DONOR>
1

> <PUBCHEM_CACTVS_ROTATABLE_BOND>
4

> <PUBCHEM_CACTVS_SUBSKEYS>
AAADceBzOCBAAAAAAAAAAAAAAAAAAQAAAAAwAAAAAAAAAAABAAAAHgQICAAACAiBkASywIMAAAKIACVSUHCKBAAhAgAaiACIZMgIYCLAkbGUIAhghADIyUcQAAAAAAAAAAAAAAAAAAAAAAAAAAAAAAAAAA==

> <PUBCHEM_IUPAC_OPENEYE_NAME>
sodium [(1,5-dimethyl-3-oxo-2-phenyl-pyrazol-4-yl)-methyl-amino]methanesulfonate hydrate

> <PUBCHEM_IUPAC_CAS_NAME>
sodium [(1,5-dimethyl-3-oxo-2-phenyl-4-pyrazolyl)-methylamino]methanesulfonate hydrate

> <PUBCHEM_IUPAC_NAME>
sodium [(1,5-dimethyl-3-oxo-2-phenylpyrazol-4-yl)-methylamino]methanesulfonate hydrate

> <PUBCHEM_IUPAC_SYSTEMATIC_NAME>
sodium [(1,5-dimethyl-3-oxidanylidene-2-phenyl-pyrazol-4-yl)-methyl-amino]methanesulfonate hydrate

> <PUBCHEM_IUPAC_TRADITIONAL_NAME>
sodium [(3-keto-1,5-dimethyl-2-phenyl-3-pyrazolin-4-yl)-methyl-amino]methanesulfonate hydrate

> <PUBCHEM_IUPAC_INCHI>
InChI=1S/C13H17N3O4S.Na.H2O/c1-10-12(14(2)9-21(18,19)20)13(17)16(15(10)3)11-7-5-4-6-8-11;;/h4-8H,9H2,1-3H3,(H,18,19,20);;1H2/q;+1;/p-1

> <PUBCHEM_IUPAC_INCHIKEY>
UNZIDPIPYUMVPA-UHFFFAOYSA-M

> <PUBCHEM_EXACT_MASS>
351.086486

> <PUBCHEM_MOLECULAR_FORMULA>
C13H18N3NaO5S

> <PUBCHEM_MOLECULAR_WEIGHT>
351.353889

> <PUBCHEM_OPENEYE_CAN_SMILES>
CC1=C(C(=O)N(N1C)C2=CC=CC=C2)N(C)CS(=O)(=O)[O-].O.[Na+]

> <PUBCHEM_OPENEYE_ISO_SMILES>
CC1=C(C(=O)N(N1C)C2=CC=CC=C2)N(C)CS(=O)(=O)[O-].O.[Na+]

> <PUBCHEM_CACTVS_TPSA>
93.4

> <PUBCHEM_MONOISOTOPIC_WEIGHT>
351.086486

> <PUBCHEM_TOTAL_CHARGE>
0

> <PUBCHEM_HEAVY_ATOM_COUNT>
23

> <PUBCHEM_ATOM_DEF_STEREO_COUNT>
0

> <PUBCHEM_ATOM_UDEF_STEREO_COUNT>
0

> <PUBCHEM_BOND_DEF_STEREO_COUNT>
0

> <PUBCHEM_BOND_UDEF_STEREO_COUNT>
0

> <PUBCHEM_ISOTOPIC_ATOM_COUNT>
0

> <PUBCHEM_COMPONENT_COUNT>
3

> <PUBCHEM_CACTVS_TAUTO_COUNT>
1

> <PUBCHEM_NONSTANDARDBOND>
2  4  7

> <PUBCHEM_COORDINATE_TYPE>
1
5
255

> <PUBCHEM_BONDANNOTATIONS>
11  12  8
11  13  8
15  19  8
15  20  8
19  21  8
20  22  8
21  23  8
22  23  8
8  12  8
8  9  8
9  13  8

$$$$

