4340
  -OEChem-06261200032D

 27 28  0     1  0  0  0  0  0999 V2000
    6.0812   -0.8047    0.0000 S   0  0  0  0  0  0  0  0  0  0  0  0
    4.2690   -1.0000    0.0000 O   0  0  0  0  0  0  0  0  0  0  0  0
    4.2690    2.0000    0.0000 O   0  0  0  0  0  0  0  0  0  0  0  0
    2.5369    1.0000    0.0000 O   0  0  0  0  0  0  0  0  0  0  0  0
    2.5369   -2.0000    0.0000 O   0  0  0  0  0  0  0  0  0  0  0  0
    6.0812    0.8047    0.0000 N   0  0  0  0  0  0  0  0  0  0  0  0
    5.1350    0.5000    0.0000 C   0  0  3  0  0  0  0  0  0  0  0  0
    4.2690    1.0000    0.0000 C   0  0  3  0  0  0  0  0  0  0  0  0
    3.4030    0.5000    0.0000 C   0  0  3  0  0  0  0  0  0  0  0  0
    5.1350   -0.5000    0.0000 C   0  0  3  0  0  0  0  0  0  0  0  0
    3.4030   -0.5000    0.0000 C   0  0  3  0  0  0  0  0  0  0  0  0
    2.5369   -1.0000    0.0000 C   0  0  0  0  0  0  0  0  0  0  0  0
    6.6648    0.0000    0.0000 C   0  0  0  0  0  0  0  0  0  0  0  0
    7.6648    0.0000    0.0000 C   0  0  0  0  0  0  0  0  0  0  0  0
    5.2006    1.1165    0.0000 H   0  0  0  0  0  0  0  0  0  0  0  0
    4.8059    1.3100    0.0000 H   0  0  0  0  0  0  0  0  0  0  0  0
    3.4030    1.1200    0.0000 H   0  0  0  0  0  0  0  0  0  0  0  0
    5.2006   -1.1165    0.0000 H   0  0  0  0  0  0  0  0  0  0  0  0
    3.4030   -1.1200    0.0000 H   0  0  0  0  0  0  0  0  0  0  0  0
    2.3249   -0.4174    0.0000 H   0  0  0  0  0  0  0  0  0  0  0  0
    1.9264   -1.1077    0.0000 H   0  0  0  0  0  0  0  0  0  0  0  0
    3.7320    2.3100    0.0000 H   0  0  0  0  0  0  0  0  0  0  0  0
    2.0000    0.6900    0.0000 H   0  0  0  0  0  0  0  0  0  0  0  0
    7.6648   -0.6200    0.0000 H   0  0  0  0  0  0  0  0  0  0  0  0
    8.2848    0.0000    0.0000 H   0  0  0  0  0  0  0  0  0  0  0  0
    7.6648    0.6200    0.0000 H   0  0  0  0  0  0  0  0  0  0  0  0
    2.0000   -2.3100    0.0000 H   0  0  0  0  0  0  0  0  0  0  0  0
  1 10  1  0  0  0  0
  1 13  1  0  0  0  0
  2 10  1  0  0  0  0
  2 11  1  0  0  0  0
  3  8  1  0  0  0  0
  3 22  1  0  0  0  0
  4  9  1  0  0  0  0
  4 23  1  0  0  0  0
  5 12  1  0  0  0  0
  5 27  1  0  0  0  0
  6  7  1  0  0  0  0
  6 13  2  0  0  0  0
  7  8  1  0  0  0  0
  7 10  1  0  0  0  0
  7 15  1  0  0  0  0
  8  9  1  0  0  0  0
  8 16  1  0  0  0  0
  9 11  1  0  0  0  0
  9 17  1  0  0  0  0
 10 18  1  0  0  0  0
 11 12  1  0  0  0  0
 11 19  1  0  0  0  0
 12 20  1  0  0  0  0
 12 21  1  0  0  0  0
 13 14  1  0  0  0  0
 14 24  1  0  0  0  0
 14 25  1  0  0  0  0
 14 26  1  0  0  0  0
M  END
> <PUBCHEM_COMPOUND_CID>
4340

> <PUBCHEM_COMPOUND_CANONICALIZED>
1

> <PUBCHEM_CACTVS_COMPLEXITY>
260

> <PUBCHEM_CACTVS_HBOND_ACCEPTOR>
6

> <PUBCHEM_CACTVS_HBOND_DONOR>
3

> <PUBCHEM_CACTVS_ROTATABLE_BOND>
1

> <PUBCHEM_CACTVS_SUBSKEYS>
AAADccByOABAAAAAAAAAAAAAAAAAAQAAAAAkAAAAAAAAAEAAAAAAHgQACAAACDzlwAaCAAIABgggAAAgBAAAEAAAABAAAAAQAAADEAIggAADQAAHAAAjAAHwUAEAAAAAAAAAAAAAAAAAAAAAAAAAAAAAAA==

> <PUBCHEM_IUPAC_OPENEYE_NAME>
5-(hydroxymethyl)-2-methyl-5,6,7,7a-tetrahydro-3aH-pyrano[3,2-d]thiazole-6,7-diol

> <PUBCHEM_IUPAC_CAS_NAME>
5-(hydroxymethyl)-2-methyl-5,6,7,7a-tetrahydro-3aH-pyrano[3,2-d]thiazole-6,7-diol

> <PUBCHEM_IUPAC_NAME>
5-(hydroxymethyl)-2-methyl-5,6,7,7a-tetrahydro-3aH-pyrano[3,2-d][1,3]thiazole-6,7-diol

> <PUBCHEM_IUPAC_SYSTEMATIC_NAME>
5-(hydroxymethyl)-2-methyl-5,6,7,7a-tetrahydro-3aH-pyrano[3,2-d][1,3]thiazole-6,7-diol

> <PUBCHEM_IUPAC_TRADITIONAL_NAME>
2-methyl-5-methylol-5,6,7,7a-tetrahydro-3aH-pyrano[3,2-d]thiazole-6,7-diol

> <PUBCHEM_IUPAC_INCHI>
InChI=1S/C8H13NO4S/c1-3-9-5-7(12)6(11)4(2-10)13-8(5)14-3/h4-8,10-12H,2H2,1H3

> <PUBCHEM_IUPAC_INCHIKEY>
DRHXTSWSUAJOJZ-UHFFFAOYSA-N

> <PUBCHEM_XLOGP3_AA>
-1.1

> <PUBCHEM_EXACT_MASS>
219.056529

> <PUBCHEM_MOLECULAR_FORMULA>
C8H13NO4S

> <PUBCHEM_MOLECULAR_WEIGHT>
219.25812

> <PUBCHEM_OPENEYE_CAN_SMILES>
CC1=NC2C(C(C(OC2S1)CO)O)O

> <PUBCHEM_OPENEYE_ISO_SMILES>
CC1=NC2C(C(C(OC2S1)CO)O)O

> <PUBCHEM_CACTVS_TPSA>
108

> <PUBCHEM_MONOISOTOPIC_WEIGHT>
219.056529

> <PUBCHEM_TOTAL_CHARGE>
0

> <PUBCHEM_HEAVY_ATOM_COUNT>
14

> <PUBCHEM_ATOM_DEF_STEREO_COUNT>
0

> <PUBCHEM_ATOM_UDEF_STEREO_COUNT>
5

> <PUBCHEM_BOND_DEF_STEREO_COUNT>
0

> <PUBCHEM_BOND_UDEF_STEREO_COUNT>
0

> <PUBCHEM_ISOTOPIC_ATOM_COUNT>
0

> <PUBCHEM_COMPONENT_COUNT>
1

> <PUBCHEM_CACTVS_TAUTO_COUNT>
1

> <PUBCHEM_COORDINATE_TYPE>
1
5
255

> <PUBCHEM_BONDANNOTATIONS>
10  1  3
11  12  3
8  3  3
9  4  3
7  6  3

$$$$

