5459784
  -OEChem-07051212493D

 24 23  0     1  0  0  0  0  0999 V2000
    1.3632    0.4463    1.7181 O   0  0  0  0  0  0  0  0  0  0  0  0
   -0.5087   -2.0038   -1.0022 O   0  0  0  0  0  0  0  0  0  0  0  0
    2.3826    0.1825   -1.6999 O   0  0  0  0  0  0  0  0  0  0  0  0
   -0.3968   -1.7476    1.2544 O   0  0  0  0  0  0  0  0  0  0  0  0
    3.1444   -0.8047    0.1980 O   0  0  0  0  0  0  0  0  0  0  0  0
   -2.8154    0.5529   -1.4335 O   0  0  0  0  0  0  0  0  0  0  0  0
   -3.6081    0.0871    0.6397 O   0  0  0  0  0  0  0  0  0  0  0  0
   -0.1574    0.2086   -0.1695 C   0  0  2  0  0  0  0  0  0  0  0  0
    1.2289    0.7084    0.3219 C   0  0  1  0  0  0  0  0  0  0  0  0
   -1.3596    1.0026    0.3911 C   0  0  0  0  0  0  0  0  0  0  0  0
    1.4361    2.2115    0.0990 C   0  0  0  0  0  0  0  0  0  0  0  0
   -0.3576   -1.2704    0.1281 C   0  0  0  0  0  0  0  0  0  0  0  0
    2.3527   -0.0605   -0.3647 C   0  0  0  0  0  0  0  0  0  0  0  0
   -2.7043    0.4871   -0.0804 C   0  0  0  0  0  0  0  0  0  0  0  0
   -0.1846    0.3201   -1.2629 H   0  0  0  0  0  0  0  0  0  0  0  0
   -1.3602    0.9570    1.4871 H   0  0  0  0  0  0  0  0  0  0  0  0
   -1.3045    2.0606    0.1132 H   0  0  0  0  0  0  0  0  0  0  0  0
    1.2242    2.5032   -0.9349 H   0  0  0  0  0  0  0  0  0  0  0  0
    0.8070    2.8047    0.7712 H   0  0  0  0  0  0  0  0  0  0  0  0
    2.4716    2.4954    0.3221 H   0  0  0  0  0  0  0  0  0  0  0  0
    1.2649   -0.5086    1.8686 H   0  0  0  0  0  0  0  0  0  0  0  0
   -0.6464   -2.9549   -0.8058 H   0  0  0  0  0  0  0  0  0  0  0  0
    3.1058   -0.3085   -2.1450 H   0  0  0  0  0  0  0  0  0  0  0  0
   -3.6897    0.2345   -1.7441 H   0  0  0  0  0  0  0  0  0  0  0  0
  1  9  1  0  0  0  0
  1 21  1  0  0  0  0
  2 12  1  0  0  0  0
  2 22  1  0  0  0  0
  3 13  1  0  0  0  0
  3 23  1  0  0  0  0
  4 12  2  0  0  0  0
  5 13  2  0  0  0  0
  6 14  1  0  0  0  0
  6 24  1  0  0  0  0
  7 14  2  0  0  0  0
  8  9  1  0  0  0  0
  8 10  1  0  0  0  0
  8 12  1  0  0  0  0
  8 15  1  0  0  0  0
  9 11  1  0  0  0  0
  9 13  1  0  0  0  0
 10 14  1  0  0  0  0
 10 16  1  0  0  0  0
 10 17  1  0  0  0  0
 11 18  1  0  0  0  0
 11 19  1  0  0  0  0
 11 20  1  0  0  0  0
M  END
> <PUBCHEM_COMPOUND_CID>
5459784

> <PUBCHEM_CONFORMER_RMSD>
0.6

> <PUBCHEM_CONFORMER_DIVERSEORDER>
2
9
28
32
12
17
29
31
30
16
6
20
24
11
34
21
10
19
14
18
7
8
26
25
33
3
13
22
15
1
27
5
23
4

> <PUBCHEM_MMFF94_PARTIAL_CHARGES>
17
1 -0.68
10 0.06
12 0.66
13 0.66
14 0.66
2 -0.65
21 0.4
22 0.5
23 0.5
24 0.5
3 -0.65
4 -0.57
5 -0.57
6 -0.65
7 -0.57
8 0.06
9 0.34

> <PUBCHEM_EFFECTIVE_ROTOR_COUNT>
5

> <PUBCHEM_PHARMACOPHORE_FEATURES>
11
1 1 acceptor
1 1 donor
1 2 acceptor
1 3 acceptor
1 4 acceptor
1 5 acceptor
1 6 acceptor
1 7 acceptor
3 2 4 12 anion
3 3 5 13 anion
3 6 7 14 anion

> <PUBCHEM_HEAVY_ATOM_COUNT>
14

> <PUBCHEM_ATOM_DEF_STEREO_COUNT>
2

> <PUBCHEM_ATOM_UDEF_STEREO_COUNT>
0

> <PUBCHEM_BOND_DEF_STEREO_COUNT>
0

> <PUBCHEM_BOND_UDEF_STEREO_COUNT>
0

> <PUBCHEM_ISOTOPIC_ATOM_COUNT>
0

> <PUBCHEM_COMPONENT_COUNT>
1

> <PUBCHEM_CACTVS_TAUTO_COUNT>
1

> <PUBCHEM_CONFORMER_ID>
00534F4800000002

> <PUBCHEM_MMFF94_ENERGY>
23.3851

> <PUBCHEM_FEATURE_SELFOVERLAP>
56.005

> <PUBCHEM_SHAPE_FINGERPRINT>
10353120 184 18262508299216131917
12138202 97 18190191078657631508
12423570 1 6722161642861801256
12932764 1 17775574121863717417
13380535 21 18125428722848174464
13380536 243 18343585157050537868
13380536 305 18409440371536417248
14648413 74 18193552277277669656
14993402 34 18341891917770640004
15775835 57 18272650138609503501
16945 1 18333446573088993007
18186145 218 18260545619558016381
20645476 183 17846200138713965774
20711983 171 16271651186525746277
21028194 46 18272931630850355813
21501502 16 18118126866159444316
23402539 116 18041289867080130740
23559900 14 18410569588318172150
2748010 2 18192147092531615825
3060560 45 18116169911824694605
5084963 1 18131067151624430365
528862 383 17416978398605676850
5337951 7 17967529043378217744
81228 2 17697314010840004475

> <PUBCHEM_SHAPE_MULTIPOLES>
247.03
4.41
1.74
1.25
1.78
0.16
-0.08
-0.54
-0.6
-0.29
0.08
-0.16
0.12
0.13

> <PUBCHEM_SHAPE_SELFOVERLAP>
491.754

> <PUBCHEM_SHAPE_VOLUME>
145.4

> <PUBCHEM_COORDINATE_TYPE>
2
5
10

$$$$

