3037919
  -OEChem-07051213133D

 21 20  0     0  0  0  0  0  0999 V2000
   -4.6500    0.1987    1.0596 S   0  0  0  0  0  0  0  0  0  0  0  0
    4.6760    0.2042    1.0153 S   0  0  0  0  0  0  0  0  0  0  0  0
   -1.1917    0.3979   -0.8471 N   0  0  0  0  0  0  0  0  0  0  0  0
    1.1924    0.3939   -0.8458 N   0  0  0  0  0  0  0  0  0  0  0  0
   -2.3394    0.7368   -0.1429 N   0  0  0  0  0  0  0  0  0  0  0  0
    2.3396    0.7325   -0.1407 N   0  0  0  0  0  0  0  0  0  0  0  0
   -3.0553   -1.4918   -0.2256 N   0  0  0  0  0  0  0  0  0  0  0  0
    3.0287   -1.5057   -0.1745 N   0  0  0  0  0  0  0  0  0  0  0  0
    0.0005    0.7515   -0.0787 C   0  0  0  0  0  0  0  0  0  0  0  0
   -3.2811   -0.2068    0.1882 C   0  0  0  0  0  0  0  0  0  0  0  0
    3.2805   -0.2112    0.1923 C   0  0  0  0  0  0  0  0  0  0  0  0
   -0.0009    0.2023    0.8712 H   0  0  0  0  0  0  0  0  0  0  0  0
    0.0021    1.8265    0.1435 H   0  0  0  0  0  0  0  0  0  0  0  0
   -1.2046    0.9382   -1.7114 H   0  0  0  0  0  0  0  0  0  0  0  0
    1.2070    0.9326   -1.7110 H   0  0  0  0  0  0  0  0  0  0  0  0
   -2.4639    1.7085    0.1239 H   0  0  0  0  0  0  0  0  0  0  0  0
    2.4789    1.7095    0.0985 H   0  0  0  0  0  0  0  0  0  0  0  0
   -3.7102   -2.2375   -0.0161 H   0  0  0  0  0  0  0  0  0  0  0  0
   -2.2255   -1.7397   -0.7537 H   0  0  0  0  0  0  0  0  0  0  0  0
    2.1823   -1.7597   -0.6727 H   0  0  0  0  0  0  0  0  0  0  0  0
    3.6806   -2.2526    0.0405 H   0  0  0  0  0  0  0  0  0  0  0  0
  1 10  2  0  0  0  0
  2 11  2  0  0  0  0
  3  5  1  0  0  0  0
  3  9  1  0  0  0  0
  3 14  1  0  0  0  0
  4  6  1  0  0  0  0
  4  9  1  0  0  0  0
  4 15  1  0  0  0  0
  5 10  1  0  0  0  0
  5 16  1  0  0  0  0
  6 11  1  0  0  0  0
  6 17  1  0  0  0  0
  7 10  1  0  0  0  0
  7 18  1  0  0  0  0
  7 19  1  0  0  0  0
  8 11  1  0  0  0  0
  8 20  1  0  0  0  0
  8 21  1  0  0  0  0
  9 12  1  0  0  0  0
  9 13  1  0  0  0  0
M  END
> <PUBCHEM_COMPOUND_CID>
3037919

> <PUBCHEM_CONFORMER_RMSD>
0.6

> <PUBCHEM_CONFORMER_DIVERSEORDER>
2
106
114
136
6
97
80
57
7
47
212
191
44
8
87
92
247
145
1
207
180
37
54
138
148
131
61
168
163
146
3
164
103
172
221
77
246
225
177
244
170
248
95
86
123
167
230
137
223
13
157
213
234
179
134
31
39
235
160
119
128
174
111
201
49
99
75
156
209
243
176
242
218
181
175
161
78
101
79
90
238
29
85
190
60
125
118
27
139
150
141
117
217
241
110
104
14
94
19
245
226
165
222
192
152
15
185
187
237
220
188
98
227
196
100
216
93
120
200
109
45
62
182
30
88
183
24
107
70
198
151
43
28
65
204
149
199
155
33
140
178
66
147
91
53
224
229
236
122
195
5
240
214
115
64
12
166
154
96
133
121
189
113
153
194
208
203
232
193
169
102
108
16
130
239
173
46
67
68
219
144
26
162
74
231
202
56
71
82
17
215
171
35
21
126
63
48
36
228
55
142
40
211
135
83
184
4
143
89
20
73
233
210
76
18
23
124
112
34
159
51
84
105
205
50
38
9
69
72
186
127
52
58
197
158
22
59
42
25
206
41
32
116
81
11
132
129
10

> <PUBCHEM_MMFF94_PARTIAL_CHARGES>
19
1 -0.38
10 0.5
11 0.5
14 0.36
15 0.36
16 0.37
17 0.37
18 0.37
19 0.37
2 -0.38
20 0.37
21 0.37
3 -0.64
4 -0.64
5 -0.42
6 -0.42
7 -0.8
8 -0.8
9 0.54

> <PUBCHEM_EFFECTIVE_ROTOR_COUNT>
6

> <PUBCHEM_PHARMACOPHORE_FEATURES>
8
1 1 acceptor
1 2 acceptor
1 3 donor
1 4 donor
1 5 donor
1 6 donor
1 7 donor
1 8 donor

> <PUBCHEM_HEAVY_ATOM_COUNT>
11

> <PUBCHEM_ATOM_DEF_STEREO_COUNT>
0

> <PUBCHEM_ATOM_UDEF_STEREO_COUNT>
0

> <PUBCHEM_BOND_DEF_STEREO_COUNT>
0

> <PUBCHEM_BOND_UDEF_STEREO_COUNT>
0

> <PUBCHEM_ISOTOPIC_ATOM_COUNT>
0

> <PUBCHEM_COMPONENT_COUNT>
1

> <PUBCHEM_CACTVS_TAUTO_COUNT>
6

> <PUBCHEM_CONFORMER_ID>
002E5ADF00000002

> <PUBCHEM_MMFF94_ENERGY>
10.7966

> <PUBCHEM_FEATURE_SELFOVERLAP>
43.677

> <PUBCHEM_SHAPE_FINGERPRINT>
114248 4 13110959816782198160
11987891 27 16486982808111240344
14123260 362 6194562233813854011
14252887 29 18341610451721422074
14445660 50 17385731270365805588
177051 138 18343862225311551358
18342897 14 17168144533330988616
1986462 14 14836409133722160215
20300324 65 11095887064291866271
20432913 95 18343577452016345955
20671657 53 15769772455138442324
20767249 213 15719111362357765577
20767249 442 5328458177050751058
20828058 44 18335423447898897474
21119208 17 11312057660198523376
212847 35 5184349582071525882
21293036 1 12751233696907816517
21354914 55 15430038755423954912
22485316 2 18411422812549655579
23402539 116 15554176955790231444
23402655 69 9655576327213686706
42 15 18413666924498559561
93112 12 10231748998601298680

> <PUBCHEM_SHAPE_MULTIPOLES>
204.19
10.43
1.11
0.96
0.1
0.43
-0.16
0.71
-4.38
0
0.05
-0.04
-0.11
-0.02

> <PUBCHEM_SHAPE_SELFOVERLAP>
360.514

> <PUBCHEM_SHAPE_VOLUME>
135.2

> <PUBCHEM_COORDINATE_TYPE>
2
5
10

$$$$

