17395352
  -OEChem-06241222493D

 40 42  0     1  0  0  0  0  0999 V2000
   -0.1465   -2.4242   -0.3313 S   0  0  0  0  0  0  0  0  0  0  0  0
   -5.0567    0.7179    0.5577 F   0  0  0  0  0  0  0  0  0  0  0  0
    0.2625   -2.9846    0.9426 O   0  0  0  0  0  0  0  0  0  0  0  0
   -0.4001   -3.2944   -1.4635 O   0  0  0  0  0  0  0  0  0  0  0  0
    0.9533   -1.2385   -0.8142 N   0  0  0  0  0  0  0  0  0  0  0  0
    3.7379   -0.4532    0.5651 N   0  0  0  0  0  0  0  0  0  0  0  0
    3.2200    1.2441   -0.7703 N   0  0  0  0  0  0  0  0  0  0  0  0
    1.2653   -0.1024    0.1202 C   0  0  1  0  0  0  0  0  0  0  0  0
    2.7421    0.2552   -0.0479 C   0  0  0  0  0  0  0  0  0  0  0  0
    0.3542    1.0727    0.0014 C   0  0  0  0  0  0  0  0  0  0  0  0
   -1.6185   -1.4824   -0.0651 C   0  0  0  0  0  0  0  0  0  0  0  0
    0.0964    1.8706    1.1161 C   0  0  0  0  0  0  0  0  0  0  0  0
   -0.2401    1.3734   -1.2241 C   0  0  0  0  0  0  0  0  0  0  0  0
    4.9264    0.1203    0.2110 C   0  0  0  0  0  0  0  0  0  0  0  0
    3.5810   -1.5989    1.4296 C   0  0  0  0  0  0  0  0  0  0  0  0
    4.5813    1.1653   -0.6136 C   0  0  0  0  0  0  0  0  0  0  0  0
   -0.7556    2.9694    1.0052 C   0  0  0  0  0  0  0  0  0  0  0  0
   -1.0922    2.4723   -1.3349 C   0  0  0  0  0  0  0  0  0  0  0  0
   -2.5187   -1.2839   -1.1120 C   0  0  0  0  0  0  0  0  0  0  0  0
   -1.8798   -0.9378    1.1922 C   0  0  0  0  0  0  0  0  0  0  0  0
   -1.3499    3.2703   -0.2204 C   0  0  0  0  0  0  0  0  0  0  0  0
   -3.6801   -0.5407   -0.9017 C   0  0  0  0  0  0  0  0  0  0  0  0
   -3.0411   -0.1945    1.4025 C   0  0  0  0  0  0  0  0  0  0  0  0
   -3.9412    0.0041    0.3556 C   0  0  0  0  0  0  0  0  0  0  0  0
    1.1493   -0.4919    1.1401 H   0  0  0  0  0  0  0  0  0  0  0  0
    1.1441   -1.0849   -1.8119 H   0  0  0  0  0  0  0  0  0  0  0  0
    0.5533    1.6485    2.0769 H   0  0  0  0  0  0  0  0  0  0  0  0
   -0.0479    0.7823   -2.1145 H   0  0  0  0  0  0  0  0  0  0  0  0
    5.8812   -0.2474    0.5602 H   0  0  0  0  0  0  0  0  0  0  0  0
    2.9860   -1.3058    2.2978 H   0  0  0  0  0  0  0  0  0  0  0  0
    3.0922   -2.3971    0.8671 H   0  0  0  0  0  0  0  0  0  0  0  0
    4.5656   -1.9389    1.7620 H   0  0  0  0  0  0  0  0  0  0  0  0
    5.2436    1.8651   -1.1020 H   0  0  0  0  0  0  0  0  0  0  0  0
   -2.3315   -1.6916   -2.1012 H   0  0  0  0  0  0  0  0  0  0  0  0
   -1.1946   -1.0820    2.0227 H   0  0  0  0  0  0  0  0  0  0  0  0
   -0.9568    3.5903    1.8732 H   0  0  0  0  0  0  0  0  0  0  0  0
   -1.5532    2.7081   -2.2896 H   0  0  0  0  0  0  0  0  0  0  0  0
   -2.0135    4.1256   -0.3066 H   0  0  0  0  0  0  0  0  0  0  0  0
   -4.3799   -0.3836   -1.7170 H   0  0  0  0  0  0  0  0  0  0  0  0
   -3.2446    0.2304    2.3810 H   0  0  0  0  0  0  0  0  0  0  0  0
  1  3  2  0  0  0  0
  1  4  2  0  0  0  0
  1  5  1  0  0  0  0
  1 11  1  0  0  0  0
  2 24  1  0  0  0  0
  5  8  1  0  0  0  0
  5 26  1  0  0  0  0
  6  9  1  0  0  0  0
  6 14  1  0  0  0  0
  6 15  1  0  0  0  0
  7  9  2  0  0  0  0
  7 16  1  0  0  0  0
  8  9  1  0  0  0  0
  8 10  1  0  0  0  0
  8 25  1  0  0  0  0
 10 12  2  0  0  0  0
 10 13  1  0  0  0  0
 11 19  2  0  0  0  0
 11 20  1  0  0  0  0
 12 17  1  0  0  0  0
 12 27  1  0  0  0  0
 13 18  2  0  0  0  0
 13 28  1  0  0  0  0
 14 16  2  0  0  0  0
 14 29  1  0  0  0  0
 15 30  1  0  0  0  0
 15 31  1  0  0  0  0
 15 32  1  0  0  0  0
 16 33  1  0  0  0  0
 17 21  2  0  0  0  0
 17 36  1  0  0  0  0
 18 21  1  0  0  0  0
 18 37  1  0  0  0  0
 19 22  1  0  0  0  0
 19 34  1  0  0  0  0
 20 23  2  0  0  0  0
 20 35  1  0  0  0  0
 21 38  1  0  0  0  0
 22 24  2  0  0  0  0
 22 39  1  0  0  0  0
 23 24  1  0  0  0  0
 23 40  1  0  0  0  0
M  END
> <PUBCHEM_COMPOUND_CID>
17395352

> <PUBCHEM_CONFORMER_RMSD>
0.8

> <PUBCHEM_CONFORMER_DIVERSEORDER>
1
30
10
12
32
23
17
13
25
29
24
6
18
26
21
27
8
33
22
11
19
14
3
31
20
5
2
28
4
7
15
16
9

> <PUBCHEM_MMFF94_PARTIAL_CHARGES>
36
1 1.45
10 -0.14
11 -0.01
12 -0.15
13 -0.15
14 -0.3
15 0.26
16 0.08
17 -0.15
18 -0.15
19 -0.15
2 -0.19
20 -0.15
21 -0.15
22 -0.15
23 -0.15
24 0.19
26 0.42
27 0.15
28 0.15
29 0.15
3 -0.65
33 0.15
34 0.15
35 0.15
36 0.15
37 0.15
38 0.15
39 0.15
4 -0.65
40 0.15
5 -0.91
6 0.05
7 -0.57
8 0.68
9 0.01

> <PUBCHEM_EFFECTIVE_ROTOR_COUNT>
5

> <PUBCHEM_PHARMACOPHORE_FEATURES>
7
1 3 acceptor
1 4 acceptor
1 5 donor
3 6 7 9 cation
5 6 7 9 14 16 rings
6 10 12 13 17 18 21 rings
6 11 19 20 22 23 24 rings

> <PUBCHEM_HEAVY_ATOM_COUNT>
24

> <PUBCHEM_ATOM_DEF_STEREO_COUNT>
0

> <PUBCHEM_ATOM_UDEF_STEREO_COUNT>
1

> <PUBCHEM_BOND_DEF_STEREO_COUNT>
0

> <PUBCHEM_BOND_UDEF_STEREO_COUNT>
0

> <PUBCHEM_ISOTOPIC_ATOM_COUNT>
0

> <PUBCHEM_COMPONENT_COUNT>
1

> <PUBCHEM_CACTVS_TAUTO_COUNT>
1

> <PUBCHEM_CONFORMER_ID>
01096E9800000001

> <PUBCHEM_MMFF94_ENERGY>
36.7281

> <PUBCHEM_FEATURE_SELFOVERLAP>
35.538

> <PUBCHEM_SHAPE_FINGERPRINT>
10162869 55 18261943074354130275
10382601 240 18266722761887761763
104564 63 18339643442319813409
10759866 29 18131347523253391068
10906281 52 18198883946910990729
11132069 177 18114177523519121748
11680986 33 17760653967727868886
12422481 6 18052525858072212377
12553582 1 18338518530471518832
12633257 1 17894622652017484488
12788726 201 18334845135032724360
13132413 78 18051120402796342868
13140716 1 18124033430181982472
14178342 30 17905051700670248144
14790565 3 18337099107915420369
14840074 17 18340752789201209581
14955137 171 18118937253574170947
16752209 62 18411428336283799610
16945 1 17822843191524418843
20510252 161 18335423495433882984
20600515 1 18337099056391182876
21421861 104 18055631969656554715
23402539 116 18261114049641534342
23558518 356 18052812843196473017
23559900 14 17974850884770822164
34934 24 18267868289979438288
350125 39 18265044924518654358
352729 6 18122352547291354260
394222 165 16483553349407786039
6992083 37 18190735332565847535

> <PUBCHEM_SHAPE_MULTIPOLES>
463.8
7.59
3.49
1.37
4.37
0.36
0.04
0.03
0.82
-0.91
-0.32
-0.37
-0.1
-0.77

> <PUBCHEM_SHAPE_SELFOVERLAP>
991.348

> <PUBCHEM_SHAPE_VOLUME>
261.1

> <PUBCHEM_COORDINATE_TYPE>
2
5
10

$$$$

