17396154
  -OEChem-06241222542D

 45 47  0     1  0  0  0  0  0999 V2000
    2.8660   -3.5000    0.0000 O   0  0  0  0  0  0  0  0  0  0  0  0
    4.5981    1.5000    0.0000 O   0  0  0  0  0  0  0  0  0  0  0  0
    6.3776   -0.4067    0.0000 N   0  0  0  0  0  0  0  0  0  0  0  0
    3.7320    0.0000    0.0000 N   0  0  0  0  0  0  0  0  0  0  0  0
    5.5686    0.9945    0.0000 N   0  0  0  0  0  0  0  0  0  0  0  0
    2.8660    1.5000    0.0000 N   0  0  0  0  0  0  0  0  0  0  0  0
    4.5981   -0.5000    0.0000 C   0  0  3  0  0  0  0  0  0  0  0  0
    5.4641    0.0000    0.0000 C   0  0  0  0  0  0  0  0  0  0  0  0
    4.5981   -1.5000    0.0000 C   0  0  0  0  0  0  0  0  0  0  0  0
    3.7320   -2.0000    0.0000 C   0  0  0  0  0  0  0  0  0  0  0  0
    5.4641   -2.0000    0.0000 C   0  0  0  0  0  0  0  0  0  0  0  0
    7.0468    0.3364    0.0000 C   0  0  0  0  0  0  0  0  0  0  0  0
    6.5856   -1.3849    0.0000 C   0  0  0  0  0  0  0  0  0  0  0  0
    3.7320   -3.0000    0.0000 C   0  0  0  0  0  0  0  0  0  0  0  0
    6.5468    1.2024    0.0000 C   0  0  0  0  0  0  0  0  0  0  0  0
    3.7320    1.0000    0.0000 C   0  0  0  0  0  0  0  0  0  0  0  0
    5.4641   -3.0000    0.0000 C   0  0  0  0  0  0  0  0  0  0  0  0
    4.5981   -3.5000    0.0000 C   0  0  0  0  0  0  0  0  0  0  0  0
    2.8660    2.5000    0.0000 C   0  0  0  0  0  0  0  0  0  0  0  0
    3.7320    3.0000    0.0000 C   0  0  0  0  0  0  0  0  0  0  0  0
    2.0000    3.0000    0.0000 C   0  0  0  0  0  0  0  0  0  0  0  0
    2.8660   -4.5000    0.0000 C   0  0  0  0  0  0  0  0  0  0  0  0
    3.7320    4.0000    0.0000 C   0  0  0  0  0  0  0  0  0  0  0  0
    2.0000    4.0000    0.0000 C   0  0  0  0  0  0  0  0  0  0  0  0
    2.8660    4.5000    0.0000 C   0  0  0  0  0  0  0  0  0  0  0  0
    4.5981    0.1200    0.0000 H   0  0  0  0  0  0  0  0  0  0  0  0
    3.1951   -0.3100    0.0000 H   0  0  0  0  0  0  0  0  0  0  0  0
    3.1951   -1.6900    0.0000 H   0  0  0  0  0  0  0  0  0  0  0  0
    6.0010   -1.6900    0.0000 H   0  0  0  0  0  0  0  0  0  0  0  0
    7.6634    0.2716    0.0000 H   0  0  0  0  0  0  0  0  0  0  0  0
    5.9791   -1.5138    0.0000 H   0  0  0  0  0  0  0  0  0  0  0  0
    6.7145   -1.9913    0.0000 H   0  0  0  0  0  0  0  0  0  0  0  0
    7.1920   -1.2560    0.0000 H   0  0  0  0  0  0  0  0  0  0  0  0
    6.7990    1.7688    0.0000 H   0  0  0  0  0  0  0  0  0  0  0  0
    6.0010   -3.3100    0.0000 H   0  0  0  0  0  0  0  0  0  0  0  0
    4.5981   -4.1200    0.0000 H   0  0  0  0  0  0  0  0  0  0  0  0
    2.3291    1.1900    0.0000 H   0  0  0  0  0  0  0  0  0  0  0  0
    4.2690    2.6900    0.0000 H   0  0  0  0  0  0  0  0  0  0  0  0
    1.4631    2.6900    0.0000 H   0  0  0  0  0  0  0  0  0  0  0  0
    2.2460   -4.5000    0.0000 H   0  0  0  0  0  0  0  0  0  0  0  0
    2.8660   -5.1200    0.0000 H   0  0  0  0  0  0  0  0  0  0  0  0
    3.4860   -4.5000    0.0000 H   0  0  0  0  0  0  0  0  0  0  0  0
    4.2690    4.3100    0.0000 H   0  0  0  0  0  0  0  0  0  0  0  0
    1.4631    4.3100    0.0000 H   0  0  0  0  0  0  0  0  0  0  0  0
    2.8660    5.1200    0.0000 H   0  0  0  0  0  0  0  0  0  0  0  0
  1 14  1  0  0  0  0
  1 22  1  0  0  0  0
  2 16  2  0  0  0  0
  3  8  1  0  0  0  0
  3 12  1  0  0  0  0
  3 13  1  0  0  0  0
  4  7  1  0  0  0  0
  4 16  1  0  0  0  0
  4 27  1  0  0  0  0
  5  8  2  0  0  0  0
  5 15  1  0  0  0  0
  6 16  1  0  0  0  0
  6 19  1  0  0  0  0
  6 37  1  0  0  0  0
  7  8  1  0  0  0  0
  7  9  1  0  0  0  0
  7 26  1  0  0  0  0
  9 10  2  0  0  0  0
  9 11  1  0  0  0  0
 10 14  1  0  0  0  0
 10 28  1  0  0  0  0
 11 17  2  0  0  0  0
 11 29  1  0  0  0  0
 12 15  2  0  0  0  0
 12 30  1  0  0  0  0
 13 31  1  0  0  0  0
 13 32  1  0  0  0  0
 13 33  1  0  0  0  0
 14 18  2  0  0  0  0
 15 34  1  0  0  0  0
 17 18  1  0  0  0  0
 17 35  1  0  0  0  0
 18 36  1  0  0  0  0
 19 20  2  0  0  0  0
 19 21  1  0  0  0  0
 20 23  1  0  0  0  0
 20 38  1  0  0  0  0
 21 24  2  0  0  0  0
 21 39  1  0  0  0  0
 22 40  1  0  0  0  0
 22 41  1  0  0  0  0
 22 42  1  0  0  0  0
 23 25  2  0  0  0  0
 23 43  1  0  0  0  0
 24 25  1  0  0  0  0
 24 44  1  0  0  0  0
 25 45  1  0  0  0  0
M  END
> <PUBCHEM_COMPOUND_CID>
17396154

> <PUBCHEM_COMPOUND_CANONICALIZED>
1

> <PUBCHEM_CACTVS_COMPLEXITY>
428

> <PUBCHEM_CACTVS_HBOND_ACCEPTOR>
3

> <PUBCHEM_CACTVS_HBOND_DONOR>
2

> <PUBCHEM_CACTVS_ROTATABLE_BOND>
5

> <PUBCHEM_CACTVS_SUBSKEYS>
AAADceB7sAAAAAAAAAAAAAAAAAAAAWAAAAAwYAAAAAAAAAAB0AAAHgAQAAAADCzBmwY/1pfMFACoAjZndACCiC0xMqAJyIA+fIiMbiLEuZuUMChs1hPI6Cew0LIOAAABAAAAAAAAAAIAAAAAAAAAAAAAAA==

> <PUBCHEM_IUPAC_OPENEYE_NAME>
1-[(3-methoxyphenyl)-(1-methylimidazol-2-yl)methyl]-3-phenyl-urea

> <PUBCHEM_IUPAC_CAS_NAME>
1-[(3-methoxyphenyl)-(1-methyl-2-imidazolyl)methyl]-3-phenylurea

> <PUBCHEM_IUPAC_NAME>
1-[(3-methoxyphenyl)-(1-methylimidazol-2-yl)methyl]-3-phenylurea

> <PUBCHEM_IUPAC_SYSTEMATIC_NAME>
1-[(3-methoxyphenyl)-(1-methylimidazol-2-yl)methyl]-3-phenyl-urea

> <PUBCHEM_IUPAC_TRADITIONAL_NAME>
1-[(3-methoxyphenyl)-(1-methylimidazol-2-yl)methyl]-3-phenyl-urea

> <PUBCHEM_IUPAC_INCHI>
InChI=1S/C19H20N4O2/c1-23-12-11-20-18(23)17(14-7-6-10-16(13-14)25-2)22-19(24)21-15-8-4-3-5-9-15/h3-13,17H,1-2H3,(H2,21,22,24)

> <PUBCHEM_IUPAC_INCHIKEY>
CIZIVUGRWWORMM-UHFFFAOYSA-N

> <PUBCHEM_XLOGP3_AA>
2.2

> <PUBCHEM_EXACT_MASS>
336.158626

> <PUBCHEM_MOLECULAR_FORMULA>
C19H20N4O2

> <PUBCHEM_MOLECULAR_WEIGHT>
336.3877

> <PUBCHEM_OPENEYE_CAN_SMILES>
CN1C=CN=C1C(C2=CC(=CC=C2)OC)NC(=O)NC3=CC=CC=C3

> <PUBCHEM_OPENEYE_ISO_SMILES>
CN1C=CN=C1C(C2=CC(=CC=C2)OC)NC(=O)NC3=CC=CC=C3

> <PUBCHEM_CACTVS_TPSA>
68.2

> <PUBCHEM_MONOISOTOPIC_WEIGHT>
336.158626

> <PUBCHEM_TOTAL_CHARGE>
0

> <PUBCHEM_HEAVY_ATOM_COUNT>
25

> <PUBCHEM_ATOM_DEF_STEREO_COUNT>
0

> <PUBCHEM_ATOM_UDEF_STEREO_COUNT>
1

> <PUBCHEM_BOND_DEF_STEREO_COUNT>
0

> <PUBCHEM_BOND_UDEF_STEREO_COUNT>
0

> <PUBCHEM_ISOTOPIC_ATOM_COUNT>
0

> <PUBCHEM_COMPONENT_COUNT>
1

> <PUBCHEM_CACTVS_TAUTO_COUNT>
3

> <PUBCHEM_COORDINATE_TYPE>
1
5
255

> <PUBCHEM_BONDANNOTATIONS>
10  14  8
11  17  8
12  15  8
14  18  8
17  18  8
19  20  8
19  21  8
20  23  8
21  24  8
23  25  8
24  25  8
3  12  8
3  8  8
7  4  3
5  15  8
5  8  8
9  10  8
9  11  8

$$$$

