43495
  -OEChem-07051213113D

 21 23  0     0  0  0  0  0  0999 V2000
    2.7648   -2.7998    0.0006 Cl  0  0  0  0  0  0  0  0  0  0  0  0
   -2.7645   -2.7999    0.0000 Cl  0  0  0  0  0  0  0  0  0  0  0  0
    4.2532    2.4947    0.0007 Cl  0  0  0  0  0  0  0  0  0  0  0  0
   -4.2534    2.4946   -0.0004 Cl  0  0  0  0  0  0  0  0  0  0  0  0
    5.0808   -0.5825   -0.0004 Cl  0  0  0  0  0  0  0  0  0  0  0  0
   -5.0807   -0.5825    0.0001 Cl  0  0  0  0  0  0  0  0  0  0  0  0
    0.0000   -1.4872    0.0000 O   0  0  0  0  0  0  0  0  0  0  0  0
    0.7128    0.6590   -0.0001 C   0  0  0  0  0  0  0  0  0  0  0  0
   -0.7128    0.6590    0.0000 C   0  0  0  0  0  0  0  0  0  0  0  0
    1.0961   -0.6785   -0.0002 C   0  0  0  0  0  0  0  0  0  0  0  0
   -1.0961   -0.6786    0.0000 C   0  0  0  0  0  0  0  0  0  0  0  0
    1.7187    1.6430    0.0000 C   0  0  0  0  0  0  0  0  0  0  0  0
   -1.7186    1.6429    0.0002 C   0  0  0  0  0  0  0  0  0  0  0  0
    2.4207   -1.1123   -0.0005 C   0  0  0  0  0  0  0  0  0  0  0  0
   -2.4208   -1.1123    0.0002 C   0  0  0  0  0  0  0  0  0  0  0  0
    3.0600    1.2371    0.0001 C   0  0  0  0  0  0  0  0  0  0  0  0
   -3.0600    1.2372   -0.0001 C   0  0  0  0  0  0  0  0  0  0  0  0
    3.4023   -0.1169   -0.0004 C   0  0  0  0  0  0  0  0  0  0  0  0
   -3.4023   -0.1170    0.0002 C   0  0  0  0  0  0  0  0  0  0  0  0
    1.4491    2.6957    0.0002 H   0  0  0  0  0  0  0  0  0  0  0  0
   -1.4491    2.6956    0.0002 H   0  0  0  0  0  0  0  0  0  0  0  0
  1 14  1  0  0  0  0
  2 15  1  0  0  0  0
  3 16  1  0  0  0  0
  4 17  1  0  0  0  0
  5 18  1  0  0  0  0
  6 19  1  0  0  0  0
  7 10  1  0  0  0  0
  7 11  1  0  0  0  0
  8  9  1  0  0  0  0
  8 10  1  0  0  0  0
  8 12  2  0  0  0  0
  9 11  1  0  0  0  0
  9 13  2  0  0  0  0
 10 14  2  0  0  0  0
 11 15  2  0  0  0  0
 12 16  1  0  0  0  0
 12 20  1  0  0  0  0
 13 17  1  0  0  0  0
 13 21  1  0  0  0  0
 14 18  1  0  0  0  0
 15 19  1  0  0  0  0
 16 18  2  0  0  0  0
 17 19  2  0  0  0  0
M  END
> <PUBCHEM_COMPOUND_CID>
43495

> <PUBCHEM_CONFORMER_RMSD>
0.4

> <PUBCHEM_CONFORMER_DIVERSEORDER>
1

> <PUBCHEM_MMFF94_PARTIAL_CHARGES>
19
1 -0.18
10 0.14
11 0.14
12 -0.15
13 -0.15
14 0.18
15 0.18
16 0.18
17 0.18
18 0.18
19 0.18
2 -0.18
20 0.15
21 0.15
3 -0.18
4 -0.18
5 -0.18
6 -0.18
7 -0.28

> <PUBCHEM_EFFECTIVE_ROTOR_COUNT>
0

> <PUBCHEM_PHARMACOPHORE_FEATURES>
4
1 7 acceptor
5 7 8 9 10 11 rings
6 8 10 12 14 16 18 rings
6 9 11 13 15 17 19 rings

> <PUBCHEM_HEAVY_ATOM_COUNT>
19

> <PUBCHEM_ATOM_DEF_STEREO_COUNT>
0

> <PUBCHEM_ATOM_UDEF_STEREO_COUNT>
0

> <PUBCHEM_BOND_DEF_STEREO_COUNT>
0

> <PUBCHEM_BOND_UDEF_STEREO_COUNT>
0

> <PUBCHEM_ISOTOPIC_ATOM_COUNT>
0

> <PUBCHEM_COMPONENT_COUNT>
1

> <PUBCHEM_CACTVS_TAUTO_COUNT>
1

> <PUBCHEM_CONFORMER_ID>
0000A9E700000001

> <PUBCHEM_MMFF94_ENERGY>
39.3423

> <PUBCHEM_FEATURE_SELFOVERLAP>
20.499

> <PUBCHEM_SHAPE_FINGERPRINT>
10411042 1 16248846521598718055
10608611 8 18410576184175109444
10616163 171 18409166584530411855
10967382 1 18410573985172719047
11471102 20 18410295778987796164
12107183 9 17906172106860089483
12390115 104 18188753042583424465
12500047 106 18410298042319523013
13140716 1 18341333387174958146
14178342 30 18340219496292002824
14866123 147 16819950392452324354
15042514 8 18267581309076862851
15196674 1 18410573989446873157
15442244 35 18265897041260375314
15536298 74 18407759214410810940
16945 1 18410855464423246022
17492 89 18410575115061107851
1813 80 17131547340740888422
18186145 218 17846217816646115351
200 152 18040719172910128585
20510252 161 18190738639627238825
20645477 56 18271806877926978965
20645477 70 18259700112401458870
21065198 57 18410855477550721592
21267235 1 18410847767842059463
21421861 104 17629207284477484330
21501502 16 18410858754368090822
221490 88 18339354185136785938
23366157 5 18131068260216622618
23402539 116 18334583430259254799
23557571 272 18260259754823828172
23558518 356 18130220441655750106
23559900 14 18262802998776909626
2748010 2 18410853265405167959
335352 9 18194683902111784247
34934 24 18410860979166496362
350125 39 18411134744698276041
3545911 37 18410854360621815302
4214541 1 18410574011042821057
474 4 17703504377337169332
5104073 3 18411981368630552497
543358 83 18337667641631365616
69090 78 18409732863599958391
7364860 26 18408603682401398654
77779 3 18410572889934959556
7832392 63 18410576205871310172
8809292 202 18343017748879189995
9709674 26 18408880763062550471
9981440 41 18268716000538537848

> <PUBCHEM_SHAPE_MULTIPOLES>
396.36
9.73
3
0.62
0
0.45
0
-1.7
0
0
0
0
0
0

> <PUBCHEM_SHAPE_SELFOVERLAP>
832.83

> <PUBCHEM_SHAPE_VOLUME>
231.2

> <PUBCHEM_COORDINATE_TYPE>
2
5
10

$$$$

