443441
  -OEChem-07051213022D

 40 41  0     1  0  0  0  0  0999 V2000
    4.5981   -2.7500    0.0000 O   0  0  0  0  0  0  0  0  0  0  0  0
    6.3301   -3.7500    0.0000 O   0  0  0  0  0  0  0  0  0  0  0  0
    6.3301   -0.7500    0.0000 N   0  0  0  0  0  0  0  0  0  0  0  0
    3.7320    0.7500    0.0000 C   0  0  0  0  0  0  0  0  0  0  0  0
    4.5981    0.2500    0.0000 C   0  0  0  0  0  0  0  0  0  0  0  0
    3.7320    1.7500    0.0000 C   0  0  0  0  0  0  0  0  0  0  0  0
    4.5981   -0.7500    0.0000 C   0  0  0  0  0  0  0  0  0  0  0  0
    2.8660    2.2500    0.0000 C   0  0  0  0  0  0  0  0  0  0  0  0
    5.4641   -1.2500    0.0000 C   0  0  0  0  0  0  0  0  0  0  0  0
    5.4641   -2.2500    0.0000 C   0  0  3  0  0  0  0  0  0  0  0  0
    2.8660    3.2500    0.0000 C   0  0  0  0  0  0  0  0  0  0  0  0
    6.3301   -2.7500    0.0000 C   0  0  0  0  0  0  0  0  0  0  0  0
    7.1962   -2.2500    0.0000 C   0  0  0  0  0  0  0  0  0  0  0  0
    7.1962   -1.2500    0.0000 C   0  0  0  0  0  0  0  0  0  0  0  0
    2.0000    3.7500    0.0000 C   0  0  0  0  0  0  0  0  0  0  0  0
    8.0901   -2.7847    0.0000 C   0  0  0  0  0  0  0  0  0  0  0  0
    8.0901   -0.7153    0.0000 C   0  0  0  0  0  0  0  0  0  0  0  0
    8.9962   -2.2708    0.0000 C   0  0  0  0  0  0  0  0  0  0  0  0
    8.9962   -1.2292    0.0000 C   0  0  0  0  0  0  0  0  0  0  0  0
    3.1215    0.8577    0.0000 H   0  0  0  0  0  0  0  0  0  0  0  0
    3.5200    0.1674    0.0000 H   0  0  0  0  0  0  0  0  0  0  0  0
    5.2087    0.1423    0.0000 H   0  0  0  0  0  0  0  0  0  0  0  0
    4.8101    0.8326    0.0000 H   0  0  0  0  0  0  0  0  0  0  0  0
    4.3426    1.6423    0.0000 H   0  0  0  0  0  0  0  0  0  0  0  0
    3.9441    2.3326    0.0000 H   0  0  0  0  0  0  0  0  0  0  0  0
    3.9875   -0.6423    0.0000 H   0  0  0  0  0  0  0  0  0  0  0  0
    4.3860   -1.3326    0.0000 H   0  0  0  0  0  0  0  0  0  0  0  0
    2.2554    2.3577    0.0000 H   0  0  0  0  0  0  0  0  0  0  0  0
    2.6540    1.6674    0.0000 H   0  0  0  0  0  0  0  0  0  0  0  0
    5.4641   -2.8700    0.0000 H   0  0  0  0  0  0  0  0  0  0  0  0
    3.4766    3.1423    0.0000 H   0  0  0  0  0  0  0  0  0  0  0  0
    3.0781    3.8326    0.0000 H   0  0  0  0  0  0  0  0  0  0  0  0
    2.3100    4.2869    0.0000 H   0  0  0  0  0  0  0  0  0  0  0  0
    1.4631    4.0600    0.0000 H   0  0  0  0  0  0  0  0  0  0  0  0
    1.6900    3.2131    0.0000 H   0  0  0  0  0  0  0  0  0  0  0  0
    8.0829   -3.4046    0.0000 H   0  0  0  0  0  0  0  0  0  0  0  0
    8.0829   -0.0954    0.0000 H   0  0  0  0  0  0  0  0  0  0  0  0
    4.0611   -2.4400    0.0000 H   0  0  0  0  0  0  0  0  0  0  0  0
    9.5319   -2.5829    0.0000 H   0  0  0  0  0  0  0  0  0  0  0  0
    9.5319   -0.9171    0.0000 H   0  0  0  0  0  0  0  0  0  0  0  0
  1 10  1  0  0  0  0
  1 38  1  0  0  0  0
  2 12  2  0  0  0  0
  3  9  2  0  0  0  0
  3 14  1  0  0  0  0
  4  5  1  0  0  0  0
  4  6  1  0  0  0  0
  4 20  1  0  0  0  0
  4 21  1  0  0  0  0
  5  7  1  0  0  0  0
  5 22  1  0  0  0  0
  5 23  1  0  0  0  0
  6  8  1  0  0  0  0
  6 24  1  0  0  0  0
  6 25  1  0  0  0  0
  7  9  1  0  0  0  0
  7 26  1  0  0  0  0
  7 27  1  0  0  0  0
  8 11  1  0  0  0  0
  8 28  1  0  0  0  0
  8 29  1  0  0  0  0
  9 10  1  0  0  0  0
 10 12  1  0  0  0  0
 10 30  1  0  0  0  0
 11 15  1  0  0  0  0
 11 31  1  0  0  0  0
 11 32  1  0  0  0  0
 12 13  1  0  0  0  0
 13 14  1  0  0  0  0
 13 16  2  0  0  0  0
 14 17  2  0  0  0  0
 15 33  1  0  0  0  0
 15 34  1  0  0  0  0
 15 35  1  0  0  0  0
 16 18  1  0  0  0  0
 16 36  1  0  0  0  0
 17 19  1  0  0  0  0
 17 37  1  0  0  0  0
 18 19  2  0  0  0  0
 18 39  1  0  0  0  0
 19 40  1  0  0  0  0
M  END
> <PUBCHEM_COMPOUND_CID>
443441

> <PUBCHEM_COMPOUND_CANONICALIZED>
1

> <PUBCHEM_CACTVS_COMPLEXITY>
338

> <PUBCHEM_CACTVS_HBOND_ACCEPTOR>
3

> <PUBCHEM_CACTVS_HBOND_DONOR>
1

> <PUBCHEM_CACTVS_ROTATABLE_BOND>
6

> <PUBCHEM_CACTVS_SUBSKEYS>
AAADceB6MAAAAAAAAAAAAAAAAAAAAAAAAAAwQAAAAAAAAACBAAAAHgAACAAADByhmAIywIIAAgCoA6RyRAaCAAAkAgAIiAFwZMgIMDqAlZGAYYBkwAEIyce4yOCOAAAAAAACAAAAAAAAAAQAAAAAAAAAAA==

> <PUBCHEM_IUPAC_OPENEYE_NAME>
2-heptyl-3-hydroxy-3H-quinolin-4-one

> <PUBCHEM_IUPAC_CAS_NAME>
2-heptyl-3-hydroxy-3H-quinolin-4-one

> <PUBCHEM_IUPAC_NAME>
2-heptyl-3-hydroxy-3H-quinolin-4-one

> <PUBCHEM_IUPAC_SYSTEMATIC_NAME>
2-heptyl-3-oxidanyl-3H-quinolin-4-one

> <PUBCHEM_IUPAC_TRADITIONAL_NAME>
2-heptyl-3-hydroxy-3H-quinolin-4-one

> <PUBCHEM_IUPAC_INCHI>
InChI=1S/C16H21NO2/c1-2-3-4-5-6-11-14-16(19)15(18)12-9-7-8-10-13(12)17-14/h7-10,16,19H,2-6,11H2,1H3

> <PUBCHEM_IUPAC_INCHIKEY>
IRNQEHWHRAZAPL-UHFFFAOYSA-N

> <PUBCHEM_XLOGP3_AA>
3.8

> <PUBCHEM_EXACT_MASS>
259.157229

> <PUBCHEM_MOLECULAR_FORMULA>
C16H21NO2

> <PUBCHEM_MOLECULAR_WEIGHT>
259.34344

> <PUBCHEM_OPENEYE_CAN_SMILES>
CCCCCCCC1=NC2=CC=CC=C2C(=O)C1O

> <PUBCHEM_OPENEYE_ISO_SMILES>
CCCCCCCC1=NC2=CC=CC=C2C(=O)C1O

> <PUBCHEM_CACTVS_TPSA>
49.7

> <PUBCHEM_MONOISOTOPIC_WEIGHT>
259.157229

> <PUBCHEM_TOTAL_CHARGE>
0

> <PUBCHEM_HEAVY_ATOM_COUNT>
19

> <PUBCHEM_ATOM_DEF_STEREO_COUNT>
0

> <PUBCHEM_ATOM_UDEF_STEREO_COUNT>
1

> <PUBCHEM_BOND_DEF_STEREO_COUNT>
0

> <PUBCHEM_BOND_UDEF_STEREO_COUNT>
0

> <PUBCHEM_ISOTOPIC_ATOM_COUNT>
0

> <PUBCHEM_COMPONENT_COUNT>
1

> <PUBCHEM_CACTVS_TAUTO_COUNT>
636

> <PUBCHEM_COORDINATE_TYPE>
1
5
255

> <PUBCHEM_BONDANNOTATIONS>
10  1  3
13  14  8
13  16  8
14  17  8
16  18  8
17  19  8
18  19  8

$$$$

