236417
  -OEChem-07051213063D

 52 55  0     1  0  0  0  0  0999 V2000
    5.1665   -1.0289    0.4960 O   0  0  0  0  0  0  0  0  0  0  0  0
   -4.9788   -0.6789    1.6148 O   0  0  0  0  0  0  0  0  0  0  0  0
    1.9154    0.6204    0.4520 C   0  0  1  0  0  0  0  0  0  0  0  0
    0.6073    0.7121   -0.3399 C   0  0  1  0  0  0  0  0  0  0  0  0
    2.7960   -0.5622    0.0026 C   0  0  2  0  0  0  0  0  0  0  0  0
   -0.2043   -0.6123   -0.1148 C   0  0  1  0  0  0  0  0  0  0  0  0
   -1.5924   -0.5701   -0.8494 C   0  0  2  0  0  0  0  0  0  0  0  0
    2.0263   -1.8610    0.2729 C   0  0  0  0  0  0  0  0  0  0  0  0
    0.6538   -1.8670   -0.4266 C   0  0  0  0  0  0  0  0  0  0  0  0
    4.0120   -0.3301    0.9199 C   0  0  2  0  0  0  0  0  0  0  0  0
    2.8782    1.8048    0.4423 C   0  0  0  0  0  0  0  0  0  0  0  0
   -0.2112    1.9556    0.0551 C   0  0  0  0  0  0  0  0  0  0  0  0
    4.2219    1.1964    0.8829 C   0  0  0  0  0  0  0  0  0  0  0  0
   -1.5926    2.0015   -0.6265 C   0  0  1  0  0  0  0  0  0  0  0  0
   -2.3102    0.6893   -0.3191 C   0  0  0  0  0  0  0  0  0  0  0  0
    3.2284   -0.5207   -1.4855 C   0  0  0  0  0  0  0  0  0  0  0  0
   -2.4597   -1.8371   -0.5954 C   0  0  0  0  0  0  0  0  0  0  0  0
   -1.4260   -0.5064   -2.3905 C   0  0  0  0  0  0  0  0  0  0  0  0
   -3.0789   -1.8798    0.7871 C   0  0  0  0  0  0  0  0  0  0  0  0
   -3.4069    0.6360    0.4594 C   0  0  0  0  0  0  0  0  0  0  0  0
   -2.3171    3.2906   -0.2159 C   0  0  0  0  0  0  0  0  0  0  0  0
   -3.9276   -0.6521    0.9785 C   0  0  0  0  0  0  0  0  0  0  0  0
    1.6360    0.4661    1.5079 H   0  0  0  0  0  0  0  0  0  0  0  0
    0.8501    0.8174   -1.4021 H   0  0  0  0  0  0  0  0  0  0  0  0
   -0.4147   -0.6638    0.9652 H   0  0  0  0  0  0  0  0  0  0  0  0
    1.8656   -1.9840    1.3520 H   0  0  0  0  0  0  0  0  0  0  0  0
    2.6091   -2.7314   -0.0519 H   0  0  0  0  0  0  0  0  0  0  0  0
    0.7979   -1.9692   -1.5068 H   0  0  0  0  0  0  0  0  0  0  0  0
    0.1291   -2.7701   -0.0974 H   0  0  0  0  0  0  0  0  0  0  0  0
    3.7903   -0.6439    1.9472 H   0  0  0  0  0  0  0  0  0  0  0  0
    2.5582    2.5995    1.1238 H   0  0  0  0  0  0  0  0  0  0  0  0
    2.9670    2.2416   -0.5586 H   0  0  0  0  0  0  0  0  0  0  0  0
    0.3509    2.8592   -0.2125 H   0  0  0  0  0  0  0  0  0  0  0  0
   -0.3373    1.9779    1.1465 H   0  0  0  0  0  0  0  0  0  0  0  0
    5.0251    1.4955    0.2005 H   0  0  0  0  0  0  0  0  0  0  0  0
    4.5029    1.5580    1.8785 H   0  0  0  0  0  0  0  0  0  0  0  0
   -1.4534    2.0761   -1.7114 H   0  0  0  0  0  0  0  0  0  0  0  0
    3.8384   -1.3964   -1.7361 H   0  0  0  0  0  0  0  0  0  0  0  0
    2.3778   -0.5262   -2.1723 H   0  0  0  0  0  0  0  0  0  0  0  0
    3.8219    0.3671   -1.7255 H   0  0  0  0  0  0  0  0  0  0  0  0
   -1.8928   -2.7557   -0.7765 H   0  0  0  0  0  0  0  0  0  0  0  0
   -3.2837   -1.8591   -1.3249 H   0  0  0  0  0  0  0  0  0  0  0  0
   -1.0543   -1.4575   -2.7883 H   0  0  0  0  0  0  0  0  0  0  0  0
   -2.3876   -0.3055   -2.8788 H   0  0  0  0  0  0  0  0  0  0  0  0
   -0.7331    0.2687   -2.7257 H   0  0  0  0  0  0  0  0  0  0  0  0
   -2.3253   -1.9250    1.5789 H   0  0  0  0  0  0  0  0  0  0  0  0
   -3.7200   -2.7641    0.8711 H   0  0  0  0  0  0  0  0  0  0  0  0
   -3.9045    1.5218    0.8361 H   0  0  0  0  0  0  0  0  0  0  0  0
   -2.4413    3.3620    0.8702 H   0  0  0  0  0  0  0  0  0  0  0  0
   -1.7455    4.1681   -0.5384 H   0  0  0  0  0  0  0  0  0  0  0  0
   -3.3051    3.3536   -0.6846 H   0  0  0  0  0  0  0  0  0  0  0  0
    5.5144   -0.6045   -0.3057 H   0  0  0  0  0  0  0  0  0  0  0  0
  1 10  1  0  0  0  0
  1 52  1  0  0  0  0
  2 22  2  0  0  0  0
  3  4  1  0  0  0  0
  3  5  1  0  0  0  0
  3 11  1  0  0  0  0
  3 23  1  0  0  0  0
  4  6  1  0  0  0  0
  4 12  1  0  0  0  0
  4 24  1  0  0  0  0
  5  8  1  0  0  0  0
  5 10  1  0  0  0  0
  5 16  1  0  0  0  0
  6  7  1  0  0  0  0
  6  9  1  0  0  0  0
  6 25  1  0  0  0  0
  7 15  1  0  0  0  0
  7 17  1  0  0  0  0
  7 18  1  0  0  0  0
  8  9  1  0  0  0  0
  8 26  1  0  0  0  0
  8 27  1  0  0  0  0
  9 28  1  0  0  0  0
  9 29  1  0  0  0  0
 10 13  1  0  0  0  0
 10 30  1  0  0  0  0
 11 13  1  0  0  0  0
 11 31  1  0  0  0  0
 11 32  1  0  0  0  0
 12 14  1  0  0  0  0
 12 33  1  0  0  0  0
 12 34  1  0  0  0  0
 13 35  1  0  0  0  0
 13 36  1  0  0  0  0
 14 15  1  0  0  0  0
 14 21  1  0  0  0  0
 14 37  1  0  0  0  0
 15 20  2  0  0  0  0
 16 38  1  0  0  0  0
 16 39  1  0  0  0  0
 16 40  1  0  0  0  0
 17 19  1  0  0  0  0
 17 41  1  0  0  0  0
 17 42  1  0  0  0  0
 18 43  1  0  0  0  0
 18 44  1  0  0  0  0
 18 45  1  0  0  0  0
 19 22  1  0  0  0  0
 19 46  1  0  0  0  0
 19 47  1  0  0  0  0
 20 22  1  0  0  0  0
 20 48  1  0  0  0  0
 21 49  1  0  0  0  0
 21 50  1  0  0  0  0
 21 51  1  0  0  0  0
M  END
> <PUBCHEM_COMPOUND_CID>
236417

> <PUBCHEM_CONFORMER_RMSD>
0.6

> <PUBCHEM_CONFORMER_DIVERSEORDER>
1

> <PUBCHEM_MMFF94_PARTIAL_CHARGES>
11
1 -0.68
10 0.28
14 0.14
15 -0.28
19 0.06
2 -0.57
20 -0.14
22 0.49
48 0.15
52 0.4
7 0.14

> <PUBCHEM_EFFECTIVE_ROTOR_COUNT>
1.8

> <PUBCHEM_PHARMACOPHORE_FEATURES>
7
1 1 acceptor
1 1 donor
1 2 acceptor
5 3 5 10 11 13 rings
6 3 4 5 6 8 9 rings
6 4 6 7 12 14 15 rings
6 7 15 17 19 20 22 rings

> <PUBCHEM_HEAVY_ATOM_COUNT>
22

> <PUBCHEM_ATOM_DEF_STEREO_COUNT>
7

> <PUBCHEM_ATOM_UDEF_STEREO_COUNT>
0

> <PUBCHEM_BOND_DEF_STEREO_COUNT>
0

> <PUBCHEM_BOND_UDEF_STEREO_COUNT>
0

> <PUBCHEM_ISOTOPIC_ATOM_COUNT>
0

> <PUBCHEM_COMPONENT_COUNT>
1

> <PUBCHEM_CACTVS_TAUTO_COUNT>
5

> <PUBCHEM_CONFORMER_ID>
00039B8100000001

> <PUBCHEM_MMFF94_ENERGY>
75.2587

> <PUBCHEM_FEATURE_SELFOVERLAP>
35.636

> <PUBCHEM_SHAPE_FINGERPRINT>
10366900 7 18343012290001987603
10675989 125 16823355580154223664
1100329 8 4791132840304812483
11132069 177 18334575720170595795
11680986 33 18047471411276340718
12011746 2 18410007767466428613
12236239 1 17676775279899328991
12251169 10 18334288743662538971
12403259 415 18187653505338448848
12403814 3 18261398832112269393
12553582 1 18341324496909166423
12633257 1 17676489414938300416
13140716 1 18266176136872657379
13221675 6 18408324414483931894
13224815 77 18410017615388601292
13544653 18 17988079985433096419
13583140 156 18339933726031621212
13675066 3 18259710008095590930
14081887 123 18413670223065189067
14178342 30 18129384954779388168
14223421 5 18338796826750391767
14289901 80 17774711064964392328
14341114 176 18343018891704019888
14787075 74 17701539489780728152
14790565 3 17620182140407099821
15163728 17 14274829223613670955
15196674 1 18409454656919150336
15209289 33 18131350817061083066
15209294 21 17749104452892410955
15309172 13 18335423456457514863
16945 1 18409453621504952133
1813 80 17203040799293043407
18186145 218 17894912936483665710
20261772 1 18334574616211020082
21267235 1 18411412916918995682
21637258 2 16056596488048064947
22182313 1 18042962267152250462
23184049 59 18187639185389631603
23559900 14 18127679646488661727
23845131 108 17546436139534046721
2748010 2 18263369238242581468
296302 2 14129058106048005642
312423 11 17917982889368121028
3187 122 18202567289093967333
350125 39 18410289207962555680
5104073 3 18339090388540735720
6786 2 7111995556569707085
7097593 13 17626964314636784522
9709674 26 18263650721751048510

> <PUBCHEM_SHAPE_MULTIPOLES>
441.01
8.37
2.57
1.34
3.2
1.39
-0.49
-1.24
3.56
-1.18
-0.06
-0.6
-0.33
0.7

> <PUBCHEM_SHAPE_SELFOVERLAP>
943.225

> <PUBCHEM_SHAPE_VOLUME>
242.8

> <PUBCHEM_COORDINATE_TYPE>
2
5
10

$$$$

