441994
  -OEChem-07051212563D

 82 90  0     1  0  0  0  0  0999 V2000
    2.5423    2.4162   -0.8822 O   0  0  0  0  0  0  0  0  0  0  0  0
    4.8496    2.3391   -0.9673 O   0  0  0  0  0  0  0  0  0  0  0  0
   -3.2119   -0.3771    1.8808 O   0  0  0  0  0  0  0  0  0  0  0  0
    5.5829   -0.0621    1.0331 N   0  0  1  0  0  0  0  0  0  0  0  0
    1.0679   -0.1389   -0.4905 N   0  0  0  0  0  0  0  0  0  0  0  0
   -3.3215   -0.1610   -0.6771 N   0  0  0  0  0  0  0  0  0  0  0  0
   -5.6195   -2.9401    0.0781 N   0  0  0  0  0  0  0  0  0  0  0  0
    4.4121   -0.4535    0.2533 C   0  0  1  0  0  0  0  0  0  0  0  0
    3.5563    0.2824   -0.8223 C   0  0  1  0  0  0  0  0  0  0  0  0
    5.9628   -0.5561   -1.5958 C   0  0  2  0  0  0  0  0  0  0  0  0
    4.7346   -1.9515   -0.0782 C   0  0  2  0  0  0  0  0  0  0  0  0
    4.3581   -0.1559   -2.0788 C   0  0  0  0  0  0  0  0  0  0  0  0
    5.7890   -2.0160   -1.1888 C   0  0  0  0  0  0  0  0  0  0  0  0
    6.6063    0.1810   -0.1547 C   0  0  0  0  0  0  0  0  0  0  0  0
    2.3119    0.1811   -0.0506 C   0  0  0  0  0  0  0  0  0  0  0  0
    5.0001    1.0822    1.8165 C   0  0  0  0  0  0  0  0  0  0  0  0
    3.5223   -2.8388   -0.4122 C   0  0  0  0  0  0  0  0  0  0  0  0
    2.2707    0.4886    1.3292 C   0  0  0  0  0  0  0  0  0  0  0  0
    3.7559    1.7948   -0.9002 C   0  0  0  0  0  0  0  0  0  0  0  0
    3.4644    0.8615    2.3068 C   0  0  0  0  0  0  0  0  0  0  0  0
    0.8955    0.3263    1.7035 C   0  0  0  0  0  0  0  0  0  0  0  0
    0.1798   -0.0595    0.5611 C   0  0  0  0  0  0  0  0  0  0  0  0
    3.9320   -4.2886   -0.5415 C   0  0  0  0  0  0  0  0  0  0  0  0
   -1.1991   -0.3021    0.5843 C   0  0  0  0  0  0  0  0  0  0  0  0
   -1.9650   -0.7187   -0.6630 C   0  0  1  0  0  0  0  0  0  0  0  0
    0.1946    0.4660    2.9201 C   0  0  0  0  0  0  0  0  0  0  0  0
   -1.9515   -2.2607   -0.8391 C   0  0  0  0  0  0  0  0  0  0  0  0
   -4.4482   -2.4192   -0.6574 C   0  0  1  0  0  0  0  0  0  0  0  0
   -4.4396   -0.9351   -0.5946 C   0  0  0  0  0  0  0  0  0  0  0  0
   -3.1197   -2.9701   -0.1293 C   0  0  0  0  0  0  0  0  0  0  0  0
   -1.8678   -0.1522    1.8018 C   0  0  0  0  0  0  0  0  0  0  0  0
   -1.1833    0.2254    2.9538 C   0  0  0  0  0  0  0  0  0  0  0  0
   -5.5342   -0.1332   -0.3938 C   0  0  0  0  0  0  0  0  0  0  0  0
   -3.6921    1.1706   -0.6891 C   0  0  0  0  0  0  0  0  0  0  0  0
    2.5823    3.8453   -0.9495 C   0  0  0  0  0  0  0  0  0  0  0  0
   -5.0835    1.2118   -0.4843 C   0  0  0  0  0  0  0  0  0  0  0  0
   -6.8679   -0.7304   -0.1063 C   0  0  0  0  0  0  0  0  0  0  0  0
   -6.8608   -2.2602   -0.3636 C   0  0  0  0  0  0  0  0  0  0  0  0
   -2.9294    2.3405   -0.8262 C   0  0  0  0  0  0  0  0  0  0  0  0
   -5.7217    2.4658   -0.3994 C   0  0  0  0  0  0  0  0  0  0  0  0
   -3.5904    3.5693   -0.7496 C   0  0  0  0  0  0  0  0  0  0  0  0
   -4.9645    3.6334   -0.5371 C   0  0  0  0  0  0  0  0  0  0  0  0
    3.8059   -0.8649    1.0652 H   0  0  0  0  0  0  0  0  0  0  0  0
    6.6588   -0.4280   -2.4294 H   0  0  0  0  0  0  0  0  0  0  0  0
    5.1919   -2.4224    0.8103 H   0  0  0  0  0  0  0  0  0  0  0  0
    4.4531    0.6402   -2.8291 H   0  0  0  0  0  0  0  0  0  0  0  0
    3.8982   -1.0012   -2.6005 H   0  0  0  0  0  0  0  0  0  0  0  0
    5.4863   -2.6103   -2.0561 H   0  0  0  0  0  0  0  0  0  0  0  0
    6.7307   -2.4348   -0.8162 H   0  0  0  0  0  0  0  0  0  0  0  0
    7.5463   -0.3158    0.1052 H   0  0  0  0  0  0  0  0  0  0  0  0
    6.7788    1.2452   -0.3200 H   0  0  0  0  0  0  0  0  0  0  0  0
    5.0724    2.0326    1.2875 H   0  0  0  0  0  0  0  0  0  0  0  0
    5.6146    1.2014    2.7169 H   0  0  0  0  0  0  0  0  0  0  0  0
    3.0197   -2.5273   -1.3319 H   0  0  0  0  0  0  0  0  0  0  0  0
    2.7823   -2.7668    0.3940 H   0  0  0  0  0  0  0  0  0  0  0  0
    3.1659    1.7933    2.8060 H   0  0  0  0  0  0  0  0  0  0  0  0
    3.4801    0.0843    3.0845 H   0  0  0  0  0  0  0  0  0  0  0  0
    0.8289   -0.3913   -1.4396 H   0  0  0  0  0  0  0  0  0  0  0  0
    4.5754   -4.4716   -1.4062 H   0  0  0  0  0  0  0  0  0  0  0  0
    4.4537   -4.6383    0.3554 H   0  0  0  0  0  0  0  0  0  0  0  0
    3.0418   -4.9145   -0.6677 H   0  0  0  0  0  0  0  0  0  0  0  0
   -1.4759   -0.2751   -1.5403 H   0  0  0  0  0  0  0  0  0  0  0  0
    0.7138    0.7595    3.8283 H   0  0  0  0  0  0  0  0  0  0  0  0
   -0.9990   -2.6893   -0.5046 H   0  0  0  0  0  0  0  0  0  0  0  0
   -2.0279   -2.4835   -1.9123 H   0  0  0  0  0  0  0  0  0  0  0  0
   -4.5474   -2.7201   -1.7094 H   0  0  0  0  0  0  0  0  0  0  0  0
   -3.0620   -4.0488   -0.3192 H   0  0  0  0  0  0  0  0  0  0  0  0
   -3.0325   -2.8369    0.9552 H   0  0  0  0  0  0  0  0  0  0  0  0
   -1.7102    0.3387    3.8981 H   0  0  0  0  0  0  0  0  0  0  0  0
    1.5537    4.2150   -0.9260 H   0  0  0  0  0  0  0  0  0  0  0  0
    3.0510    4.1673   -1.8842 H   0  0  0  0  0  0  0  0  0  0  0  0
    3.1207    4.2490   -0.0868 H   0  0  0  0  0  0  0  0  0  0  0  0
   -5.4914   -2.7762    1.0772 H   0  0  0  0  0  0  0  0  0  0  0  0
   -7.6432   -0.2571   -0.7185 H   0  0  0  0  0  0  0  0  0  0  0  0
   -7.1121   -0.5445    0.9468 H   0  0  0  0  0  0  0  0  0  0  0  0
   -7.7161   -2.7142    0.1490 H   0  0  0  0  0  0  0  0  0  0  0  0
   -7.0060   -2.4539   -1.4344 H   0  0  0  0  0  0  0  0  0  0  0  0
   -1.8563    2.3026   -0.9831 H   0  0  0  0  0  0  0  0  0  0  0  0
   -3.5086   -0.2239    2.7941 H   0  0  0  0  0  0  0  0  0  0  0  0
   -6.7934    2.5323   -0.2338 H   0  0  0  0  0  0  0  0  0  0  0  0
   -3.0201    4.4890   -0.8525 H   0  0  0  0  0  0  0  0  0  0  0  0
   -5.4559    4.6008   -0.4765 H   0  0  0  0  0  0  0  0  0  0  0  0
  1 19  1  0  0  0  0
  1 35  1  0  0  0  0
  2 19  2  0  0  0  0
  3 31  1  0  0  0  0
  3 79  1  0  0  0  0
  4  8  1  0  0  0  0
  4 14  1  0  0  0  0
  4 16  1  0  0  0  0
  5 15  1  0  0  0  0
  5 22  1  0  0  0  0
  5 58  1  0  0  0  0
  6 25  1  0  0  0  0
  6 29  1  0  0  0  0
  6 34  1  0  0  0  0
  7 28  1  0  0  0  0
  7 38  1  0  0  0  0
  7 73  1  0  0  0  0
  8  9  1  0  0  0  0
  8 11  1  0  0  0  0
  8 43  1  0  0  0  0
  9 12  1  0  0  0  0
  9 15  1  0  0  0  0
  9 19  1  0  0  0  0
 10 12  1  0  0  0  0
 10 13  1  0  0  0  0
 10 14  1  0  0  0  0
 10 44  1  0  0  0  0
 11 13  1  0  0  0  0
 11 17  1  0  0  0  0
 11 45  1  0  0  0  0
 12 46  1  0  0  0  0
 12 47  1  0  0  0  0
 13 48  1  0  0  0  0
 13 49  1  0  0  0  0
 14 50  1  0  0  0  0
 14 51  1  0  0  0  0
 15 18  2  0  0  0  0
 16 20  1  0  0  0  0
 16 52  1  0  0  0  0
 16 53  1  0  0  0  0
 17 23  1  0  0  0  0
 17 54  1  0  0  0  0
 17 55  1  0  0  0  0
 18 20  1  0  0  0  0
 18 21  1  0  0  0  0
 20 56  1  0  0  0  0
 20 57  1  0  0  0  0
 21 22  2  0  0  0  0
 21 26  1  0  0  0  0
 22 24  1  0  0  0  0
 23 59  1  0  0  0  0
 23 60  1  0  0  0  0
 23 61  1  0  0  0  0
 24 25  1  0  0  0  0
 24 31  2  0  0  0  0
 25 27  1  0  0  0  0
 25 62  1  0  0  0  0
 26 32  2  0  0  0  0
 26 63  1  0  0  0  0
 27 30  1  0  0  0  0
 27 64  1  0  0  0  0
 27 65  1  0  0  0  0
 28 29  1  0  0  0  0
 28 30  1  0  0  0  0
 28 66  1  0  0  0  0
 29 33  2  0  0  0  0
 30 67  1  0  0  0  0
 30 68  1  0  0  0  0
 31 32  1  0  0  0  0
 32 69  1  0  0  0  0
 33 36  1  0  0  0  0
 33 37  1  0  0  0  0
 34 36  1  0  0  0  0
 34 39  2  0  0  0  0
 35 70  1  0  0  0  0
 35 71  1  0  0  0  0
 35 72  1  0  0  0  0
 36 40  2  0  0  0  0
 37 38  1  0  0  0  0
 37 74  1  0  0  0  0
 37 75  1  0  0  0  0
 38 76  1  0  0  0  0
 38 77  1  0  0  0  0
 39 41  1  0  0  0  0
 39 78  1  0  0  0  0
 40 42  1  0  0  0  0
 40 80  1  0  0  0  0
 41 42  2  0  0  0  0
 41 81  1  0  0  0  0
 42 82  1  0  0  0  0
M  END
> <PUBCHEM_COMPOUND_CID>
441994

> <PUBCHEM_CONFORMER_RMSD>
1

> <PUBCHEM_CONFORMER_DIVERSEORDER>
1
2

> <PUBCHEM_MMFF94_PARTIAL_CHARGES>
41
1 -0.43
14 0.27
15 -0.33
16 0.27
18 -0.18
19 0.66
2 -0.57
20 0.18
22 -0.15
24 -0.14
25 0.4
26 -0.15
28 0.45
29 -0.33
3 -0.53
31 0.08
32 -0.15
33 -0.18
34 -0.15
35 0.28
37 0.18
38 0.27
39 -0.15
4 -0.81
40 -0.15
41 -0.15
42 -0.15
5 0.03
58 0.27
6 0.05
63 0.15
69 0.15
7 -0.9
73 0.36
78 0.15
79 0.45
8 0.27
80 0.15
81 0.15
82 0.15
9 0.24

> <PUBCHEM_EFFECTIVE_ROTOR_COUNT>
6.4

> <PUBCHEM_PHARMACOPHORE_FEATURES>
17
1 2 acceptor
1 23 hydrophobe
1 3 donor
1 4 cation
1 5 cation
1 5 donor
1 6 cation
1 7 cation
1 7 donor
5 5 15 18 21 22 rings
5 6 29 33 34 36 rings
6 21 22 24 26 31 32 rings
6 34 36 39 40 41 42 rings
6 6 25 27 28 29 30 rings
6 7 28 29 33 37 38 rings
7 4 8 9 15 16 18 20 rings
8 4 8 9 10 11 12 13 14 rings

> <PUBCHEM_HEAVY_ATOM_COUNT>
42

> <PUBCHEM_ATOM_DEF_STEREO_COUNT>
6

> <PUBCHEM_ATOM_UDEF_STEREO_COUNT>
0

> <PUBCHEM_BOND_DEF_STEREO_COUNT>
0

> <PUBCHEM_BOND_UDEF_STEREO_COUNT>
0

> <PUBCHEM_ISOTOPIC_ATOM_COUNT>
0

> <PUBCHEM_COMPONENT_COUNT>
1

> <PUBCHEM_CACTVS_TAUTO_COUNT>
9

> <PUBCHEM_CONFORMER_ID>
0006BE8A00000001

> <PUBCHEM_MMFF94_ENERGY>
257.7088

> <PUBCHEM_FEATURE_SELFOVERLAP>
86.772

> <PUBCHEM_SHAPE_FINGERPRINT>
10165383 225 18187641479825678409
10369192 42 16667704895831470553
11135926 11 16299811741050704632
11578080 2 18114760252166934344
12107698 1 18272933787082596989
12128747 34 18335421304858553487
12166972 35 18186517696419834192
12788726 201 18201445719093920723
13617811 41 18269285573542857087
13636023 20 18341618174099130850
13782708 43 17677060040774116623
13811026 1 18260276256109161220
14295345 954 18272928310946384885
14347332 77 18411703179862745031
14840074 17 14201394971844862741
14856354 85 18342737365773978439
14910302 57 18261963968246346299
15001296 14 17986959540245626277
15131766 46 17758928473523940057
15183329 4 18412824694296787495
15361156 5 17917134092082160980
17349148 13 16950561129596656512
17844677 252 18412259515123561725
19311894 1 18268994374322916533
19958102 18 18333739018013967215
21033650 10 18343017830457214737
21814621 53 18041570238002547696
23559900 14 18260836977080187618
23569943 247 16485594184833707322
25223398 141 18333454244264794997
25269216 80 17988631966045870627
3004659 81 18259983760642521206
3610482 184 17702643553931472053
404807 14 16964347042240584007
4098825 35 18411134744692663525
4144715 1 18341889688893551265
46194498 28 18342460296810701956
513532 50 18271814540638791138
5265222 85 18262518091588703374
6608658 132 17846504768191945309
77296 10 18336545005451307750

> <PUBCHEM_SHAPE_MULTIPOLES>
826.81
17.41
4.02
1.98
3.82
0.06
-1.61
-3.26
5.11
2.14
1.8
-1.55
0.57
1.06

> <PUBCHEM_SHAPE_SELFOVERLAP>
1867.811

> <PUBCHEM_SHAPE_VOLUME>
431.8

> <PUBCHEM_COORDINATE_TYPE>
2
5
10

$$$$

