8131
  -OEChem-06261202373D

 22 21  0     0  0  0  0  0  0999 V2000
    1.8382   -0.2865   -0.0057 O   0  0  0  0  0  0  0  0  0  0  0  0
   -4.2500    0.2389    0.0115 O   0  0  0  0  0  0  0  0  0  0  0  0
   -0.5527   -0.4169   -0.0243 C   0  0  0  0  0  0  0  0  0  0  0  0
   -1.8590    0.3693   -0.0108 C   0  0  0  0  0  0  0  0  0  0  0  0
    0.6583    0.5049   -0.0069 C   0  0  0  0  0  0  0  0  0  0  0  0
   -3.0698   -0.5526    0.0151 C   0  0  0  0  0  0  0  0  0  0  0  0
    3.0081    0.5205    0.0103 C   0  0  0  0  0  0  0  0  0  0  0  0
    4.2268   -0.3777    0.0108 C   0  0  0  0  0  0  0  0  0  0  0  0
   -0.5067   -1.0627   -0.9100 H   0  0  0  0  0  0  0  0  0  0  0  0
   -0.5065   -1.0905    0.8406 H   0  0  0  0  0  0  0  0  0  0  0  0
   -1.8935    1.0352    0.8607 H   0  0  0  0  0  0  0  0  0  0  0  0
   -1.9172    1.0233   -0.8898 H   0  0  0  0  0  0  0  0  0  0  0  0
    0.6386    1.1342    0.8907 H   0  0  0  0  0  0  0  0  0  0  0  0
    0.6505    1.1517   -0.8921 H   0  0  0  0  0  0  0  0  0  0  0  0
   -3.0845   -1.2027   -0.8655 H   0  0  0  0  0  0  0  0  0  0  0  0
   -3.0691   -1.1734    0.9166 H   0  0  0  0  0  0  0  0  0  0  0  0
    3.0258    1.1654   -0.8754 H   0  0  0  0  0  0  0  0  0  0  0  0
    3.0129    1.1488    0.9080 H   0  0  0  0  0  0  0  0  0  0  0  0
    5.1474    0.2123    0.0230 H   0  0  0  0  0  0  0  0  0  0  0  0
    4.2187   -1.0380    0.8843 H   0  0  0  0  0  0  0  0  0  0  0  0
    4.2315   -1.0217   -0.8748 H   0  0  0  0  0  0  0  0  0  0  0  0
   -5.0045   -0.3743    0.0282 H   0  0  0  0  0  0  0  0  0  0  0  0
  1  5  1  0  0  0  0
  1  7  1  0  0  0  0
  2  6  1  0  0  0  0
  2 22  1  0  0  0  0
  3  4  1  0  0  0  0
  3  5  1  0  0  0  0
  3  9  1  0  0  0  0
  3 10  1  0  0  0  0
  4  6  1  0  0  0  0
  4 11  1  0  0  0  0
  4 12  1  0  0  0  0
  5 13  1  0  0  0  0
  5 14  1  0  0  0  0
  6 15  1  0  0  0  0
  6 16  1  0  0  0  0
  7  8  1  0  0  0  0
  7 17  1  0  0  0  0
  7 18  1  0  0  0  0
  8 19  1  0  0  0  0
  8 20  1  0  0  0  0
  8 21  1  0  0  0  0
M  END
> <PUBCHEM_COMPOUND_CID>
8131

> <PUBCHEM_CONFORMER_RMSD>
0.6

> <PUBCHEM_CONFORMER_DIVERSEORDER>
1
81
76
56
2
75
57
80
73
26
68
37
72
29
79
40
47
5
54
13
12
44
82
10
63
78
14
24
15
60
45
19
46
23
25
74
52
28
51
71
35
31
61
7
77
18
55
50
21
17
16
67
6
59
32
69
3
11
8
27
38
53
62
70
4
9
48
49
34
65
66
22
64
43
42
20
33
39
41
58
36
30

> <PUBCHEM_MMFF94_PARTIAL_CHARGES>
6
1 -0.56
2 -0.68
22 0.4
5 0.28
6 0.28
7 0.28

> <PUBCHEM_EFFECTIVE_ROTOR_COUNT>
5

> <PUBCHEM_PHARMACOPHORE_FEATURES>
3
1 1 acceptor
1 2 acceptor
1 2 donor

> <PUBCHEM_HEAVY_ATOM_COUNT>
8

> <PUBCHEM_ATOM_DEF_STEREO_COUNT>
0

> <PUBCHEM_ATOM_UDEF_STEREO_COUNT>
0

> <PUBCHEM_BOND_DEF_STEREO_COUNT>
0

> <PUBCHEM_BOND_UDEF_STEREO_COUNT>
0

> <PUBCHEM_ISOTOPIC_ATOM_COUNT>
0

> <PUBCHEM_COMPONENT_COUNT>
1

> <PUBCHEM_CACTVS_TAUTO_COUNT>
1

> <PUBCHEM_CONFORMER_ID>
00001FC300000001

> <PUBCHEM_MMFF94_ENERGY>
4.1988

> <PUBCHEM_FEATURE_SELFOVERLAP>
15.223

> <PUBCHEM_SHAPE_FINGERPRINT>
11062470 55 18409448080965510953
12932764 1 15697450926807033248
14325111 11 18410573967982202919
190213 19 15068336800279905605
20719005 15 18410573976783160067
21293036 1 11167941359541456406
22485316 2 18408327674533011886
5460574 1 9223234043855836364

> <PUBCHEM_SHAPE_MULTIPOLES>
152.9
8.1
0.78
0.59
0.29
0
0
-0.49
0.07
0.05
0
0.03
0
0

> <PUBCHEM_SHAPE_SELFOVERLAP>
265.357

> <PUBCHEM_SHAPE_VOLUME>
102.1

> <PUBCHEM_COORDINATE_TYPE>
2
5
10

$$$$

