7097
  -OEChem-06261201452D

 26 26  0     0  0  0  0  0  0999 V2000
    4.5032   -0.3043    0.0000 O   0  0  0  0  0  0  0  0  0  0  0  0
    7.0064    0.6436    0.0000 O   0  0  0  0  0  0  0  0  0  0  0  0
    6.4712   -1.0037    0.0000 O   0  0  0  0  0  0  0  0  0  0  0  0
    5.8475    1.9308    0.0000 O   0  0  0  0  0  0  0  0  0  0  0  0
    8.1654   -0.6436    0.0000 O   0  0  0  0  0  0  0  0  0  0  0  0
    2.0000    0.6436    0.0000 O   0  5  0  0  0  0  0  0  0  0  0  0
    2.5352   -1.0037    0.0000 O   0  0  0  0  0  0  0  0  0  0  0  0
    2.7431   -0.0255    0.0000 N   0  3  0  0  0  0  0  0  0  0  0  0
    6.2633   -0.0255    0.0000 C   0  0  0  0  0  0  0  0  0  0  0  0
    5.3122    0.2835    0.0000 C   0  0  0  0  0  0  0  0  0  0  0  0
    5.0032    1.2345    0.0000 C   0  0  0  0  0  0  0  0  0  0  0  0
    3.6942    0.2835    0.0000 C   0  0  0  0  0  0  0  0  0  0  0  0
    4.0032    1.2345    0.0000 C   0  0  0  0  0  0  0  0  0  0  0  0
    6.7985    1.6217    0.0000 C   0  0  0  0  0  0  0  0  0  0  0  0
    7.4223   -1.3127    0.0000 C   0  0  0  0  0  0  0  0  0  0  0  0
    7.5417    2.2909    0.0000 C   0  0  0  0  0  0  0  0  0  0  0  0
    7.6302   -2.2909    0.0000 C   0  0  0  0  0  0  0  0  0  0  0  0
    6.1344    0.5809    0.0000 H   0  0  0  0  0  0  0  0  0  0  0  0
    5.3676    1.7361    0.0000 H   0  0  0  0  0  0  0  0  0  0  0  0
    3.6388    1.7361    0.0000 H   0  0  0  0  0  0  0  0  0  0  0  0
    7.9565    1.8301    0.0000 H   0  0  0  0  0  0  0  0  0  0  0  0
    8.0024    2.7057    0.0000 H   0  0  0  0  0  0  0  0  0  0  0  0
    7.1268    2.7516    0.0000 H   0  0  0  0  0  0  0  0  0  0  0  0
    7.0237   -2.4198    0.0000 H   0  0  0  0  0  0  0  0  0  0  0  0
    7.7591   -2.8973    0.0000 H   0  0  0  0  0  0  0  0  0  0  0  0
    8.2366   -2.1620    0.0000 H   0  0  0  0  0  0  0  0  0  0  0  0
  1 10  1  0  0  0  0
  1 12  1  0  0  0  0
  2  9  1  0  0  0  0
  2 14  1  0  0  0  0
  3  9  1  0  0  0  0
  3 15  1  0  0  0  0
  4 14  2  0  0  0  0
  5 15  2  0  0  0  0
  6  8  1  0  0  0  0
  7  8  2  0  0  0  0
  8 12  1  0  0  0  0
  9 10  1  0  0  0  0
  9 18  1  0  0  0  0
 10 11  2  0  0  0  0
 11 13  1  0  0  0  0
 11 19  1  0  0  0  0
 12 13  2  0  0  0  0
 13 20  1  0  0  0  0
 14 16  1  0  0  0  0
 15 17  1  0  0  0  0
 16 21  1  0  0  0  0
 16 22  1  0  0  0  0
 16 23  1  0  0  0  0
 17 24  1  0  0  0  0
 17 25  1  0  0  0  0
 17 26  1  0  0  0  0
M  CHG  2   6  -1   8   1
M  END
> <PUBCHEM_COMPOUND_CID>
7097

> <PUBCHEM_COMPOUND_CANONICALIZED>
1

> <PUBCHEM_CACTVS_COMPLEXITY>
308

> <PUBCHEM_CACTVS_HBOND_ACCEPTOR>
7

> <PUBCHEM_CACTVS_HBOND_DONOR>
0

> <PUBCHEM_CACTVS_ROTATABLE_BOND>
5

> <PUBCHEM_CACTVS_SUBSKEYS>
AAADccByOAAAAAAAAAAAAAAAAAAAASAAAAAAAAAAAAAAAAABgAAAHgAEAAAACASxkAMyjIAQRECJAKHSWwKCCAAsIgAoiAFGbModJjKEtZ+qGSDkwBEO6Ya8NAgAAAAAAAAAAAAAAAAAAAAAAAAAAAAAAA==

> <PUBCHEM_IUPAC_OPENEYE_NAME>
[acetoxy-(5-nitro-2-furyl)methyl] acetate

> <PUBCHEM_IUPAC_CAS_NAME>
acetic acid [acetyloxy-(5-nitro-2-furanyl)methyl] ester

> <PUBCHEM_IUPAC_NAME>
[acetyloxy-(5-nitrofuran-2-yl)methyl] acetate

> <PUBCHEM_IUPAC_SYSTEMATIC_NAME>
[acetyloxy-(5-nitrofuran-2-yl)methyl] ethanoate

> <PUBCHEM_IUPAC_TRADITIONAL_NAME>
acetic acid [acetoxy-(5-nitro-2-furyl)methyl] ester

> <PUBCHEM_IUPAC_INCHI>
InChI=1S/C9H9NO7/c1-5(11)15-9(16-6(2)12)7-3-4-8(17-7)10(13)14/h3-4,9H,1-2H3

> <PUBCHEM_IUPAC_INCHIKEY>
HSXKWKJCZNRMJO-UHFFFAOYSA-N

> <PUBCHEM_XLOGP3>
1.1

> <PUBCHEM_EXACT_MASS>
243.037902

> <PUBCHEM_MOLECULAR_FORMULA>
C9H9NO7

> <PUBCHEM_MOLECULAR_WEIGHT>
243.17026

> <PUBCHEM_OPENEYE_CAN_SMILES>
CC(=O)OC(C1=CC=C(O1)[N+](=O)[O-])OC(=O)C

> <PUBCHEM_OPENEYE_ISO_SMILES>
CC(=O)OC(C1=CC=C(O1)[N+](=O)[O-])OC(=O)C

> <PUBCHEM_CACTVS_TPSA>
112

> <PUBCHEM_MONOISOTOPIC_WEIGHT>
243.037902

> <PUBCHEM_TOTAL_CHARGE>
0

> <PUBCHEM_HEAVY_ATOM_COUNT>
17

> <PUBCHEM_ATOM_DEF_STEREO_COUNT>
0

> <PUBCHEM_ATOM_UDEF_STEREO_COUNT>
0

> <PUBCHEM_BOND_DEF_STEREO_COUNT>
0

> <PUBCHEM_BOND_UDEF_STEREO_COUNT>
0

> <PUBCHEM_ISOTOPIC_ATOM_COUNT>
0

> <PUBCHEM_COMPONENT_COUNT>
1

> <PUBCHEM_CACTVS_TAUTO_COUNT>
1

> <PUBCHEM_COORDINATE_TYPE>
1
5
255

> <PUBCHEM_BONDANNOTATIONS>
1  10  8
1  12  8
10  11  8
11  13  8
12  13  8

$$$$

