5281322
  -OEChem-07051212563D

 83 86  0     1  0  0  0  0  0999 V2000
   -2.9552    0.2872    2.1755 O   0  0  0  0  0  0  0  0  0  0  0  0
    1.9067   -2.3029   -2.2332 O   0  0  0  0  0  0  0  0  0  0  0  0
   -3.2150   -2.9408    0.0305 O   0  0  0  0  0  0  0  0  0  0  0  0
    6.4965   -0.1196   -2.0634 O   0  0  0  0  0  0  0  0  0  0  0  0
    6.0294    2.4463   -1.4702 O   0  0  0  0  0  0  0  0  0  0  0  0
   -5.4578   -1.6328    0.3727 O   0  0  0  0  0  0  0  0  0  0  0  0
   -7.4746    2.4516   -1.4287 O   0  0  0  0  0  0  0  0  0  0  0  0
    0.1275   -0.6399    1.1540 C   0  0  2  0  0  0  0  0  0  0  0  0
   -0.6405   -1.4286    0.0318 C   0  0  1  0  0  0  0  0  0  0  0  0
    1.5638   -1.2368    1.2914 C   0  0  1  0  0  0  0  0  0  0  0  0
    2.3837   -1.2901   -0.0599 C   0  0  2  0  0  0  0  0  0  0  0  0
   -2.0726   -0.8698    0.2118 C   0  0  2  0  0  0  0  0  0  0  0  0
   -0.8177   -0.8721    2.3618 C   0  0  0  0  0  0  0  0  0  0  0  0
    0.0336   -1.1577   -1.3104 C   0  0  0  0  0  0  0  0  0  0  0  0
   -2.2444   -0.8685    1.7548 C   0  0  1  0  0  0  0  0  0  0  0  0
    3.0843    0.0804   -0.3988 C   0  0  1  0  0  0  0  0  0  0  0  0
    1.4724   -1.6638   -1.2702 C   0  0  0  0  0  0  0  0  0  0  0  0
    2.3969   -0.6431    2.4424 C   0  0  0  0  0  0  0  0  0  0  0  0
    0.1644    0.9080    0.9580 C   0  0  0  0  0  0  0  0  0  0  0  0
   -0.6772   -2.9829    0.2245 C   0  0  0  0  0  0  0  0  0  0  0  0
   -3.2014   -1.6139   -0.4961 C   0  0  1  0  0  0  0  0  0  0  0  0
    3.6556    0.8261    0.8150 C   0  0  0  0  0  0  0  0  0  0  0  0
    3.4320   -2.4270    0.1088 C   0  0  0  0  0  0  0  0  0  0  0  0
    4.1379   -0.0212   -1.5373 C   0  0  0  0  0  0  0  0  0  0  0  0
    3.3361    0.4572    2.0686 C   0  0  0  0  0  0  0  0  0  0  0  0
    4.6005    2.0070    0.4948 C   0  0  0  0  0  0  0  0  0  0  0  0
    5.5625    0.1272   -1.0173 C   0  0  2  0  0  0  0  0  0  0  0  0
    5.7878    1.5191   -0.4079 C   0  0  1  0  0  0  0  0  0  0  0  0
   -2.9589   -1.7039   -2.0012 C   0  0  0  0  0  0  0  0  0  0  0  0
   -4.5649   -0.9868   -0.1754 C   0  0  0  0  0  0  0  0  0  0  0  0
    5.2329    2.6751    1.7429 C   0  0  0  0  0  0  0  0  0  0  0  0
    3.7475    3.1121   -0.1819 C   0  0  0  0  0  0  0  0  0  0  0  0
   -4.7732    0.4448   -0.5529 C   0  0  0  0  0  0  0  0  0  0  0  0
   -5.9385    1.0577   -0.2985 C   0  0  0  0  0  0  0  0  0  0  0  0
   -6.2936    2.4938   -0.6189 C   0  0  0  0  0  0  0  0  0  0  0  0
   -6.6375    3.2325    0.6792 C   0  0  0  0  0  0  0  0  0  0  0  0
   -5.2290    3.2761   -1.3965 C   0  0  0  0  0  0  0  0  0  0  0  0
    1.4046   -2.2740    1.6156 H   0  0  0  0  0  0  0  0  0  0  0  0
   -2.0882    0.1613   -0.1594 H   0  0  0  0  0  0  0  0  0  0  0  0
   -0.6978   -0.1171    3.1468 H   0  0  0  0  0  0  0  0  0  0  0  0
   -0.6162   -1.8481    2.8190 H   0  0  0  0  0  0  0  0  0  0  0  0
    0.0382   -0.0997   -1.5849 H   0  0  0  0  0  0  0  0  0  0  0  0
   -0.4420   -1.6905   -2.1343 H   0  0  0  0  0  0  0  0  0  0  0  0
   -2.7873   -1.7281    2.1534 H   0  0  0  0  0  0  0  0  0  0  0  0
    2.3145    0.7290   -0.8264 H   0  0  0  0  0  0  0  0  0  0  0  0
    3.0027   -1.4416    2.8913 H   0  0  0  0  0  0  0  0  0  0  0  0
    1.7400   -0.2913    3.2458 H   0  0  0  0  0  0  0  0  0  0  0  0
    0.7116    1.3946    1.7715 H   0  0  0  0  0  0  0  0  0  0  0  0
    0.6203    1.2146    0.0209 H   0  0  0  0  0  0  0  0  0  0  0  0
   -0.8164    1.3826    0.9549 H   0  0  0  0  0  0  0  0  0  0  0  0
   -1.1717   -3.3011    1.1467 H   0  0  0  0  0  0  0  0  0  0  0  0
   -1.1184   -3.5008   -0.6324 H   0  0  0  0  0  0  0  0  0  0  0  0
    0.3283   -3.4112    0.2816 H   0  0  0  0  0  0  0  0  0  0  0  0
    4.1583   -2.2016    0.8956 H   0  0  0  0  0  0  0  0  0  0  0  0
    2.9406   -3.3721    0.3698 H   0  0  0  0  0  0  0  0  0  0  0  0
    3.9951   -2.6296   -0.8070 H   0  0  0  0  0  0  0  0  0  0  0  0
    4.0447   -0.9379   -2.1263 H   0  0  0  0  0  0  0  0  0  0  0  0
    3.9494    0.7723   -2.2745 H   0  0  0  0  0  0  0  0  0  0  0  0
    3.7591    0.9788    2.9212 H   0  0  0  0  0  0  0  0  0  0  0  0
    5.7426   -0.6377   -0.2524 H   0  0  0  0  0  0  0  0  0  0  0  0
    6.7213    1.4792    0.1678 H   0  0  0  0  0  0  0  0  0  0  0  0
   -2.4992    1.0833    1.8640 H   0  0  0  0  0  0  0  0  0  0  0  0
   -3.9064   -1.9151   -2.5146 H   0  0  0  0  0  0  0  0  0  0  0  0
   -2.3078   -2.5360   -2.2792 H   0  0  0  0  0  0  0  0  0  0  0  0
   -2.5869   -0.7647   -2.4225 H   0  0  0  0  0  0  0  0  0  0  0  0
    5.8225    1.9593    2.3276 H   0  0  0  0  0  0  0  0  0  0  0  0
    4.4719    3.1099    2.4015 H   0  0  0  0  0  0  0  0  0  0  0  0
    5.9075    3.4889    1.4505 H   0  0  0  0  0  0  0  0  0  0  0  0
    3.3652    2.8048   -1.1605 H   0  0  0  0  0  0  0  0  0  0  0  0
    4.3296    4.0285   -0.3358 H   0  0  0  0  0  0  0  0  0  0  0  0
    2.8838    3.3795    0.4395 H   0  0  0  0  0  0  0  0  0  0  0  0
   -3.6918   -2.9488    0.8765 H   0  0  0  0  0  0  0  0  0  0  0  0
    7.3879   -0.0458   -1.6817 H   0  0  0  0  0  0  0  0  0  0  0  0
    6.7753    2.1068   -1.9935 H   0  0  0  0  0  0  0  0  0  0  0  0
   -3.9587    0.9565   -1.0490 H   0  0  0  0  0  0  0  0  0  0  0  0
   -6.7311    0.4949    0.1934 H   0  0  0  0  0  0  0  0  0  0  0  0
   -7.4650    2.7427    1.2067 H   0  0  0  0  0  0  0  0  0  0  0  0
   -5.7775    3.2831    1.3560 H   0  0  0  0  0  0  0  0  0  0  0  0
   -6.9722    4.2554    0.4707 H   0  0  0  0  0  0  0  0  0  0  0  0
   -4.2949    3.3694   -0.8323 H   0  0  0  0  0  0  0  0  0  0  0  0
   -5.0137    2.7992   -2.3599 H   0  0  0  0  0  0  0  0  0  0  0  0
   -5.5841    4.2864   -1.6324 H   0  0  0  0  0  0  0  0  0  0  0  0
   -7.7594    3.3665   -1.5949 H   0  0  0  0  0  0  0  0  0  0  0  0
  1 15  1  0  0  0  0
  1 62  1  0  0  0  0
  2 17  2  0  0  0  0
  3 21  1  0  0  0  0
  3 72  1  0  0  0  0
  4 27  1  0  0  0  0
  4 73  1  0  0  0  0
  5 28  1  0  0  0  0
  5 74  1  0  0  0  0
  6 30  2  0  0  0  0
  7 35  1  0  0  0  0
  7 83  1  0  0  0  0
  8  9  1  0  0  0  0
  8 10  1  0  0  0  0
  8 13  1  0  0  0  0
  8 19  1  0  0  0  0
  9 12  1  0  0  0  0
  9 14  1  0  0  0  0
  9 20  1  0  0  0  0
 10 11  1  0  0  0  0
 10 18  1  0  0  0  0
 10 38  1  0  0  0  0
 11 16  1  0  0  0  0
 11 17  1  0  0  0  0
 11 23  1  0  0  0  0
 12 15  1  0  0  0  0
 12 21  1  0  0  0  0
 12 39  1  0  0  0  0
 13 15  1  0  0  0  0
 13 40  1  0  0  0  0
 13 41  1  0  0  0  0
 14 17  1  0  0  0  0
 14 42  1  0  0  0  0
 14 43  1  0  0  0  0
 15 44  1  0  0  0  0
 16 22  1  0  0  0  0
 16 24  1  0  0  0  0
 16 45  1  0  0  0  0
 18 25  1  0  0  0  0
 18 46  1  0  0  0  0
 18 47  1  0  0  0  0
 19 48  1  0  0  0  0
 19 49  1  0  0  0  0
 19 50  1  0  0  0  0
 20 51  1  0  0  0  0
 20 52  1  0  0  0  0
 20 53  1  0  0  0  0
 21 29  1  0  0  0  0
 21 30  1  0  0  0  0
 22 25  2  0  0  0  0
 22 26  1  0  0  0  0
 23 54  1  0  0  0  0
 23 55  1  0  0  0  0
 23 56  1  0  0  0  0
 24 27  1  0  0  0  0
 24 57  1  0  0  0  0
 24 58  1  0  0  0  0
 25 59  1  0  0  0  0
 26 28  1  0  0  0  0
 26 31  1  0  0  0  0
 26 32  1  0  0  0  0
 27 28  1  0  0  0  0
 27 60  1  0  0  0  0
 28 61  1  0  0  0  0
 29 63  1  0  0  0  0
 29 64  1  0  0  0  0
 29 65  1  0  0  0  0
 30 33  1  0  0  0  0
 31 66  1  0  0  0  0
 31 67  1  0  0  0  0
 31 68  1  0  0  0  0
 32 69  1  0  0  0  0
 32 70  1  0  0  0  0
 32 71  1  0  0  0  0
 33 34  2  0  0  0  0
 33 75  1  0  0  0  0
 34 35  1  0  0  0  0
 34 76  1  0  0  0  0
 35 36  1  0  0  0  0
 35 37  1  0  0  0  0
 36 77  1  0  0  0  0
 36 78  1  0  0  0  0
 36 79  1  0  0  0  0
 37 80  1  0  0  0  0
 37 81  1  0  0  0  0
 37 82  1  0  0  0  0
M  END
> <PUBCHEM_COMPOUND_CID>
5281322

> <PUBCHEM_CONFORMER_RMSD>
1

> <PUBCHEM_CONFORMER_DIVERSEORDER>
1
7
8
5
2
6
3
4

> <PUBCHEM_MMFF94_PARTIAL_CHARGES>
31
1 -0.68
11 0.06
14 0.06
15 0.28
16 0.14
17 0.45
18 0.14
2 -0.57
21 0.34
22 -0.28
25 -0.29
26 0.14
27 0.28
28 0.28
3 -0.68
30 0.49
33 -0.14
34 -0.29
35 0.42
4 -0.68
5 -0.68
59 0.15
6 -0.57
62 0.4
7 -0.68
72 0.4
73 0.4
74 0.4
75 0.15
76 0.15
83 0.4

> <PUBCHEM_EFFECTIVE_ROTOR_COUNT>
5.8

> <PUBCHEM_PHARMACOPHORE_FEATURES>
18
1 1 acceptor
1 1 donor
1 2 acceptor
1 3 acceptor
1 3 donor
1 4 acceptor
1 4 donor
1 5 acceptor
1 5 donor
1 6 acceptor
1 7 acceptor
1 7 donor
3 26 31 32 hydrophobe
3 35 36 37 hydrophobe
5 8 9 12 13 15 rings
6 10 11 16 18 22 25 rings
6 16 22 24 26 27 28 rings
6 8 9 10 11 14 17 rings

> <PUBCHEM_HEAVY_ATOM_COUNT>
37

> <PUBCHEM_ATOM_DEF_STEREO_COUNT>
10

> <PUBCHEM_ATOM_UDEF_STEREO_COUNT>
0

> <PUBCHEM_BOND_DEF_STEREO_COUNT>
1

> <PUBCHEM_BOND_UDEF_STEREO_COUNT>
0

> <PUBCHEM_ISOTOPIC_ATOM_COUNT>
0

> <PUBCHEM_COMPONENT_COUNT>
1

> <PUBCHEM_CACTVS_TAUTO_COUNT>
2

> <PUBCHEM_CONFORMER_ID>
0050962A00000001

> <PUBCHEM_MMFF94_ENERGY>
167.5211

> <PUBCHEM_FEATURE_SELFOVERLAP>
91.483

> <PUBCHEM_SHAPE_FINGERPRINT>
10554248 39 17822572840813835183
10556698 54 17025747990137953953
10674148 151 17275094030562090262
10675989 125 18191868036054276163
10763959 59 18411974737828917788
11093857 51 16443635695594107558
11135926 11 17385994092126002911
11578080 2 18411976992243545679
11796584 16 8357996449658563895
12633257 1 16199597866133161142
13627167 48 18191863633913985249
13690498 29 17460042786469918695
13782708 43 7276835675202895340
13944108 23 17467351562487962729
14068700 675 5617538484091134698
14211702 104 9151169874634837821
14251751 18 8718830890022562253
14347329 18 18261962937660034425
14400156 266 18045214097859388010
14664723 55 18042116730501725017
14739800 52 18059305378323798209
14950920 106 12535341333921081917
15082195 135 17822570632809975064
15163728 17 18412830209256451835
15183329 4 17894632604179427793
15188451 53 8430310226106571081
15238133 3 18272943712946943704
15475509 35 9799686013057011613
15510800 12 7276538854804428469
15840311 113 17560246954744475397
15975801 100 17559679623603614396
19315092 285 10879986986741729357
20511986 3 17967822604709299990
20567600 247 6194569900431035460
20691028 202 18339083813072989877
20715895 44 18335988648256880865
20775438 99 13985818103542523484
21033648 29 18202280282262078518
21223535 225 18410019840039769004
21424621 283 17988922293070848235
21792965 106 18410010993246623512
21859007 373 18335995216043156936
22122407 14 17845368851967901728
22393880 68 17531534187073283974
23559900 14 16298670465071251506
23569914 152 16954489813101648060
23569914 2 17757881879977292353
2838139 119 18338806593785838056
3472631 163 18341620330220036285
3918712 181 18339656641482977085
392239 28 15195287508567090743
4058900 60 18409442613678547315
4098825 35 18410290337380686071
4144715 1 18343014467756459947
44249763 50 18262253118282421521
5104073 3 17704078404137653243
6086070 43 18259985989898937288
7970288 3 8718015061233217436
9849439 229 18270689774593063367

> <PUBCHEM_SHAPE_MULTIPOLES>
720.36
16.58
3.68
2.15
12.51
1.88
-0.42
16.78
5.8
2.58
0.7
-1.3
-0.19
1.25

> <PUBCHEM_SHAPE_SELFOVERLAP>
1529.858

> <PUBCHEM_SHAPE_VOLUME>
398.3

> <PUBCHEM_COORDINATE_TYPE>
2
5
10

$$$$

