23724634
  -OEChem-07051213082D

 72 71  0     0  0  0  0  0  0999 V2000
    2.5369   -0.2500    0.0000 O   0  0  0  0  0  0  0  0  0  0  0  0
    3.4030    1.2500    0.0000 O   0  0  0  0  0  0  0  0  0  0  0  0
   19.8574   -0.2500    0.0000 C   0  0  0  0  0  0  0  0  0  0  0  0
   20.7235    0.2500    0.0000 C   0  0  0  0  0  0  0  0  0  0  0  0
   18.9914    0.2500    0.0000 C   0  0  0  0  0  0  0  0  0  0  0  0
   21.5895   -0.2500    0.0000 C   0  0  0  0  0  0  0  0  0  0  0  0
   22.4555    0.2500    0.0000 C   0  0  0  0  0  0  0  0  0  0  0  0
   18.9914    1.2500    0.0000 C   0  0  0  0  0  0  0  0  0  0  0  0
   18.1254   -0.2500    0.0000 C   0  0  0  0  0  0  0  0  0  0  0  0
   23.3215   -0.2500    0.0000 C   0  0  0  0  0  0  0  0  0  0  0  0
   22.4555    1.2500    0.0000 C   0  0  0  0  0  0  0  0  0  0  0  0
   17.2594    0.2500    0.0000 C   0  0  0  0  0  0  0  0  0  0  0  0
   16.3933   -0.2500    0.0000 C   0  0  0  0  0  0  0  0  0  0  0  0
   15.5273    0.2500    0.0000 C   0  0  0  0  0  0  0  0  0  0  0  0
   15.5273    1.2500    0.0000 C   0  0  0  0  0  0  0  0  0  0  0  0
   14.6613   -0.2500    0.0000 C   0  0  0  0  0  0  0  0  0  0  0  0
   13.7953    0.2500    0.0000 C   0  0  0  0  0  0  0  0  0  0  0  0
   11.1972   -0.2500    0.0000 C   0  0  0  0  0  0  0  0  0  0  0  0
   12.9292   -0.2500    0.0000 C   0  0  0  0  0  0  0  0  0  0  0  0
   12.0632    0.2500    0.0000 C   0  0  0  0  0  0  0  0  0  0  0  0
    7.7331   -0.2500    0.0000 C   0  0  0  0  0  0  0  0  0  0  0  0
   10.3312    0.2500    0.0000 C   0  0  0  0  0  0  0  0  0  0  0  0
    8.5991    0.2500    0.0000 C   0  0  0  0  0  0  0  0  0  0  0  0
    9.4651   -0.2500    0.0000 C   0  0  0  0  0  0  0  0  0  0  0  0
   11.1972   -1.2500    0.0000 C   0  0  0  0  0  0  0  0  0  0  0  0
    6.8671    0.2500    0.0000 C   0  0  0  0  0  0  0  0  0  0  0  0
    7.7331   -1.2500    0.0000 C   0  0  0  0  0  0  0  0  0  0  0  0
    6.0010   -0.2500    0.0000 C   0  0  0  0  0  0  0  0  0  0  0  0
    5.1350    0.2500    0.0000 C   0  0  0  0  0  0  0  0  0  0  0  0
    4.2690   -0.2500    0.0000 C   0  0  0  0  0  0  0  0  0  0  0  0
    4.2690   -1.2500    0.0000 C   0  0  0  0  0  0  0  0  0  0  0  0
    3.4030    0.2500    0.0000 C   0  0  0  0  0  0  0  0  0  0  0  0
   19.4589   -0.7249    0.0000 H   0  0  0  0  0  0  0  0  0  0  0  0
   20.2560   -0.7249    0.0000 H   0  0  0  0  0  0  0  0  0  0  0  0
   21.1220    0.7249    0.0000 H   0  0  0  0  0  0  0  0  0  0  0  0
   20.3249    0.7249    0.0000 H   0  0  0  0  0  0  0  0  0  0  0  0
   21.5895   -0.8700    0.0000 H   0  0  0  0  0  0  0  0  0  0  0  0
   19.6114    1.2500    0.0000 H   0  0  0  0  0  0  0  0  0  0  0  0
   18.9914    1.8700    0.0000 H   0  0  0  0  0  0  0  0  0  0  0  0
   18.3714    1.2500    0.0000 H   0  0  0  0  0  0  0  0  0  0  0  0
   18.1254   -0.8700    0.0000 H   0  0  0  0  0  0  0  0  0  0  0  0
   23.0115   -0.7869    0.0000 H   0  0  0  0  0  0  0  0  0  0  0  0
   23.0755    1.2500    0.0000 H   0  0  0  0  0  0  0  0  0  0  0  0
   22.4555    1.8700    0.0000 H   0  0  0  0  0  0  0  0  0  0  0  0
   21.8355    1.2500    0.0000 H   0  0  0  0  0  0  0  0  0  0  0  0
   23.8585   -0.5600    0.0000 H   0  0  0  0  0  0  0  0  0  0  0  0
   23.6315    0.2869    0.0000 H   0  0  0  0  0  0  0  0  0  0  0  0
   17.2594    0.8700    0.0000 H   0  0  0  0  0  0  0  0  0  0  0  0
   16.3933   -0.8700    0.0000 H   0  0  0  0  0  0  0  0  0  0  0  0
   14.6613   -0.8700    0.0000 H   0  0  0  0  0  0  0  0  0  0  0  0
   16.1473    1.2500    0.0000 H   0  0  0  0  0  0  0  0  0  0  0  0
   15.5273    1.8700    0.0000 H   0  0  0  0  0  0  0  0  0  0  0  0
   14.9073    1.2500    0.0000 H   0  0  0  0  0  0  0  0  0  0  0  0
   13.7953    0.8700    0.0000 H   0  0  0  0  0  0  0  0  0  0  0  0
   12.9292   -0.8700    0.0000 H   0  0  0  0  0  0  0  0  0  0  0  0
   12.0632    0.8700    0.0000 H   0  0  0  0  0  0  0  0  0  0  0  0
   10.3312    0.8700    0.0000 H   0  0  0  0  0  0  0  0  0  0  0  0
    8.5991    0.8700    0.0000 H   0  0  0  0  0  0  0  0  0  0  0  0
    9.4651   -0.8700    0.0000 H   0  0  0  0  0  0  0  0  0  0  0  0
   10.5772   -1.2500    0.0000 H   0  0  0  0  0  0  0  0  0  0  0  0
   11.1972   -1.8700    0.0000 H   0  0  0  0  0  0  0  0  0  0  0  0
   11.8172   -1.2500    0.0000 H   0  0  0  0  0  0  0  0  0  0  0  0
    6.8671    0.8700    0.0000 H   0  0  0  0  0  0  0  0  0  0  0  0
    7.1131   -1.2500    0.0000 H   0  0  0  0  0  0  0  0  0  0  0  0
    7.7331   -1.8700    0.0000 H   0  0  0  0  0  0  0  0  0  0  0  0
    8.3531   -1.2500    0.0000 H   0  0  0  0  0  0  0  0  0  0  0  0
    6.0010   -0.8700    0.0000 H   0  0  0  0  0  0  0  0  0  0  0  0
    5.1350    0.8700    0.0000 H   0  0  0  0  0  0  0  0  0  0  0  0
    3.6490   -1.2500    0.0000 H   0  0  0  0  0  0  0  0  0  0  0  0
    4.2690   -1.8700    0.0000 H   0  0  0  0  0  0  0  0  0  0  0  0
    4.8890   -1.2500    0.0000 H   0  0  0  0  0  0  0  0  0  0  0  0
    2.0000    0.0600    0.0000 H   0  0  0  0  0  0  0  0  0  0  0  0
  1 32  1  0  0  0  0
  1 72  1  0  0  0  0
  2 32  2  0  0  0  0
  3  4  1  0  0  0  0
  3  5  1  0  0  0  0
  3 33  1  0  0  0  0
  3 34  1  0  0  0  0
  4  6  1  0  0  0  0
  4 35  1  0  0  0  0
  4 36  1  0  0  0  0
  5  8  1  0  0  0  0
  5  9  2  0  0  0  0
  6  7  2  0  0  0  0
  6 37  1  0  0  0  0
  7 10  1  0  0  0  0
  7 11  1  0  0  0  0
  8 38  1  0  0  0  0
  8 39  1  0  0  0  0
  8 40  1  0  0  0  0
  9 12  1  0  0  0  0
  9 41  1  0  0  0  0
 10 42  1  0  0  0  0
 10 46  1  0  0  0  0
 10 47  1  0  0  0  0
 11 43  1  0  0  0  0
 11 44  1  0  0  0  0
 11 45  1  0  0  0  0
 12 13  2  0  0  0  0
 12 48  1  0  0  0  0
 13 14  1  0  0  0  0
 13 49  1  0  0  0  0
 14 15  1  0  0  0  0
 14 16  2  0  0  0  0
 15 51  1  0  0  0  0
 15 52  1  0  0  0  0
 15 53  1  0  0  0  0
 16 17  1  0  0  0  0
 16 50  1  0  0  0  0
 17 19  2  0  0  0  0
 17 54  1  0  0  0  0
 18 20  2  0  0  0  0
 18 22  1  0  0  0  0
 18 25  1  0  0  0  0
 19 20  1  0  0  0  0
 19 55  1  0  0  0  0
 20 56  1  0  0  0  0
 21 23  2  0  0  0  0
 21 26  1  0  0  0  0
 21 27  1  0  0  0  0
 22 24  2  0  0  0  0
 22 57  1  0  0  0  0
 23 24  1  0  0  0  0
 23 58  1  0  0  0  0
 24 59  1  0  0  0  0
 25 60  1  0  0  0  0
 25 61  1  0  0  0  0
 25 62  1  0  0  0  0
 26 28  2  0  0  0  0
 26 63  1  0  0  0  0
 27 64  1  0  0  0  0
 27 65  1  0  0  0  0
 27 66  1  0  0  0  0
 28 29  1  0  0  0  0
 28 67  1  0  0  0  0
 29 30  2  0  0  0  0
 29 68  1  0  0  0  0
 30 31  1  0  0  0  0
 30 32  1  0  0  0  0
 31 69  1  0  0  0  0
 31 70  1  0  0  0  0
 31 71  1  0  0  0  0
M  END
> <PUBCHEM_COMPOUND_CID>
23724634

> <PUBCHEM_COMPOUND_CANONICALIZED>
1

> <PUBCHEM_CACTVS_COMPLEXITY>
901

> <PUBCHEM_CACTVS_HBOND_ACCEPTOR>
2

> <PUBCHEM_CACTVS_HBOND_DONOR>
1

> <PUBCHEM_CACTVS_ROTATABLE_BOND>
12

> <PUBCHEM_CACTVS_SUBSKEYS>
AAADcfB4MAAAAAAAAAAAAAAAAAAAAAAAAAAAAAAAAAAAAAAAAAAAGgAACAAADACAgAACCAAAAgCIAiDSCAAAAAAgAAAICAEAAEgIBAIAAQAAUAAAgAAIkYIAAAAAAAAAAAAAAAAAAAAAAAAAAAAAAAAAAA==

> <PUBCHEM_IUPAC_OPENEYE_NAME>
(2E,4E,6E,8E,10E,12E,14E,16E,18E)-2,6,10,15,19,23-hexamethyltetracosa-2,4,6,8,10,12,14,16,18,22-decaenoic acid

> <PUBCHEM_IUPAC_CAS_NAME>
(2E,4E,6E,8E,10E,12E,14E,16E,18E)-2,6,10,15,19,23-hexamethyltetracosa-2,4,6,8,10,12,14,16,18,22-decaenoic acid

> <PUBCHEM_IUPAC_NAME>
(2E,4E,6E,8E,10E,12E,14E,16E,18E)-2,6,10,15,19,23-hexamethyltetracosa-2,4,6,8,10,12,14,16,18,22-decaenoic acid

> <PUBCHEM_IUPAC_SYSTEMATIC_NAME>
(2E,4E,6E,8E,10E,12E,14E,16E,18E)-2,6,10,15,19,23-hexamethyltetracosa-2,4,6,8,10,12,14,16,18,22-decaenoic acid

> <PUBCHEM_IUPAC_TRADITIONAL_NAME>
(2E,4E,6E,8E,10E,12E,14E,16E,18E)-2,6,10,15,19,23-hexamethyltetracosa-2,4,6,8,10,12,14,16,18,22-decaenoic acid

> <PUBCHEM_IUPAC_INCHI>
InChI=1S/C30H40O2/c1-24(2)14-10-17-27(5)20-11-18-25(3)15-8-9-16-26(4)19-12-21-28(6)22-13-23-29(7)30(31)32/h8-9,11-16,18-23H,10,17H2,1-7H3,(H,31,32)/b9-8+,18-11+,19-12+,22-13+,25-15+,26-16+,27-20+,28-21+,29-23+

> <PUBCHEM_IUPAC_INCHIKEY>
NXJSQJIGCCIMAE-ORIYTCASSA-N

> <PUBCHEM_XLOGP3_AA>
10.5

> <PUBCHEM_EXACT_MASS>
432.302831

> <PUBCHEM_MOLECULAR_FORMULA>
C30H40O2

> <PUBCHEM_MOLECULAR_WEIGHT>
432.6374

> <PUBCHEM_OPENEYE_CAN_SMILES>
CC(=CCCC(=CC=CC(=CC=CC=C(C)C=CC=C(C)C=CC=C(C)C(=O)O)C)C)C

> <PUBCHEM_OPENEYE_ISO_SMILES>
CC(=CCC/C(=C/C=C/C(=C/C=C/C=C(\C)/C=C/C=C(\C)/C=C/C=C(\C)/C(=O)O)/C)/C)C

> <PUBCHEM_CACTVS_TPSA>
37.3

> <PUBCHEM_MONOISOTOPIC_WEIGHT>
432.302831

> <PUBCHEM_TOTAL_CHARGE>
0

> <PUBCHEM_HEAVY_ATOM_COUNT>
32

> <PUBCHEM_ATOM_DEF_STEREO_COUNT>
0

> <PUBCHEM_ATOM_UDEF_STEREO_COUNT>
0

> <PUBCHEM_BOND_DEF_STEREO_COUNT>
9

> <PUBCHEM_BOND_UDEF_STEREO_COUNT>
0

> <PUBCHEM_ISOTOPIC_ATOM_COUNT>
0

> <PUBCHEM_COMPONENT_COUNT>
1

> <PUBCHEM_CACTVS_TAUTO_COUNT>
1

> <PUBCHEM_COORDINATE_TYPE>
1
5
255

$$$$

