12976
  -OEChem-07051213003D

 14 13  0     0  0  0  0  0  0999 V2000
    1.8404   -0.7736   -0.0001 O   0  0  0  0  0  0  0  0  0  0  0  0
    0.9033    1.3239    0.0001 O   0  0  0  0  0  0  0  0  0  0  0  0
   -1.9236    1.1708    0.0001 O   0  0  0  0  0  0  0  0  0  0  0  0
   -0.4040   -0.6024   -0.0005 N   0  0  0  0  0  0  0  0  0  0  0  0
   -2.6716   -1.0020    0.0005 N   0  0  0  0  0  0  0  0  0  0  0  0
    0.7917    0.1024   -0.0003 C   0  0  0  0  0  0  0  0  0  0  0  0
   -1.6816   -0.0348   -0.0003 C   0  0  0  0  0  0  0  0  0  0  0  0
    3.1455   -0.1844    0.0004 C   0  0  0  0  0  0  0  0  0  0  0  0
   -0.3422   -1.6164   -0.0007 H   0  0  0  0  0  0  0  0  0  0  0  0
    3.2877    0.4212   -0.8997 H   0  0  0  0  0  0  0  0  0  0  0  0
    3.8827   -0.9917    0.0004 H   0  0  0  0  0  0  0  0  0  0  0  0
    3.2872    0.4207    0.9010 H   0  0  0  0  0  0  0  0  0  0  0  0
   -2.4503   -1.9920    0.0003 H   0  0  0  0  0  0  0  0  0  0  0  0
   -3.6537   -0.7479    0.0011 H   0  0  0  0  0  0  0  0  0  0  0  0
  1  6  1  0  0  0  0
  1  8  1  0  0  0  0
  2  6  2  0  0  0  0
  3  7  2  0  0  0  0
  4  6  1  0  0  0  0
  4  7  1  0  0  0  0
  4  9  1  0  0  0  0
  5  7  1  0  0  0  0
  5 13  1  0  0  0  0
  5 14  1  0  0  0  0
  8 10  1  0  0  0  0
  8 11  1  0  0  0  0
  8 12  1  0  0  0  0
M  END
> <PUBCHEM_COMPOUND_CID>
12976

> <PUBCHEM_CONFORMER_RMSD>
0.6

> <PUBCHEM_CONFORMER_DIVERSEORDER>
1
4
2
3

> <PUBCHEM_MMFF94_PARTIAL_CHARGES>
11
1 -0.43
13 0.37
14 0.37
2 -0.57
3 -0.57
4 -0.49
5 -0.8
6 0.78
7 0.69
8 0.28
9 0.37

> <PUBCHEM_EFFECTIVE_ROTOR_COUNT>
3

> <PUBCHEM_PHARMACOPHORE_FEATURES>
4
1 2 acceptor
1 3 acceptor
1 4 donor
1 5 donor

> <PUBCHEM_HEAVY_ATOM_COUNT>
8

> <PUBCHEM_ATOM_DEF_STEREO_COUNT>
0

> <PUBCHEM_ATOM_UDEF_STEREO_COUNT>
0

> <PUBCHEM_BOND_DEF_STEREO_COUNT>
0

> <PUBCHEM_BOND_UDEF_STEREO_COUNT>
0

> <PUBCHEM_ISOTOPIC_ATOM_COUNT>
0

> <PUBCHEM_COMPONENT_COUNT>
1

> <PUBCHEM_CACTVS_TAUTO_COUNT>
5

> <PUBCHEM_CONFORMER_ID>
000032B000000001

> <PUBCHEM_MMFF94_ENERGY>
12.3397

> <PUBCHEM_FEATURE_SELFOVERLAP>
20.351

> <PUBCHEM_SHAPE_FINGERPRINT>
10857977 72 18336559256427050562
12932764 1 16950572085952830870
14325111 11 18410855477666811558
14390081 3 18334861623348311504
21040471 1 18050287264987471493
23552423 10 18272931600558776886
29004967 10 18334574663714136098
5460574 1 9295288339506677954

> <PUBCHEM_SHAPE_MULTIPOLES>
137.07
4.23
1.11
0.55
1.08
0.24
0
-0.75
0
-0.31
0
0.03
0
0

> <PUBCHEM_SHAPE_SELFOVERLAP>
257.931

> <PUBCHEM_SHAPE_VOLUME>
85.1

> <PUBCHEM_COORDINATE_TYPE>
2
5
10

$$$$

