46174048
  -OEChem-07051213113D

 29 29  0     1  0  0  0  0  0999 V2000
    3.5536    0.2058   -0.0218 P   0  0  0  0  0  0  0  0  0  0  0  0
   -0.6742    0.5242    0.6913 O   0  0  0  0  0  0  0  0  0  0  0  0
   -3.2543   -1.0217   -1.3031 O   0  0  0  0  0  0  0  0  0  0  0  0
   -2.1212   -2.2237    0.8910 O   0  0  0  0  0  0  0  0  0  0  0  0
   -3.0054    0.4635    1.0035 O   0  0  0  0  0  0  0  0  0  0  0  0
    2.0647    0.0056    0.5820 O   0  0  0  0  0  0  0  0  0  0  0  0
   -2.0894    2.9640    0.2640 O   0  0  0  0  0  0  0  0  0  0  0  0
    4.0632   -1.3135   -0.2379 O   0  0  0  0  0  0  0  0  0  0  0  0
    3.2892    0.7274   -1.5295 O   0  0  0  0  0  0  0  0  0  0  0  0
    4.4623    1.0676    0.8051 O   0  0  0  0  0  0  0  0  0  0  0  0
   -1.9655   -0.6131   -0.8984 C   0  0  2  0  0  0  0  0  0  0  0  0
   -1.2413   -1.6647   -0.0815 C   0  0  1  0  0  0  0  0  0  0  0  0
   -1.9584    0.5889    0.0419 C   0  0  2  0  0  0  0  0  0  0  0  0
   -0.1725   -0.8314    0.6229 C   0  0  1  0  0  0  0  0  0  0  0  0
    1.1448   -0.7952   -0.1393 C   0  0  0  0  0  0  0  0  0  0  0  0
   -2.0956    1.9164   -0.6901 C   0  0  0  0  0  0  0  0  0  0  0  0
   -1.3742   -0.3890   -1.7954 H   0  0  0  0  0  0  0  0  0  0  0  0
   -0.8509   -2.4881   -0.6867 H   0  0  0  0  0  0  0  0  0  0  0  0
   -0.0007   -1.1577    1.6548 H   0  0  0  0  0  0  0  0  0  0  0  0
    1.0045   -0.3555   -1.1319 H   0  0  0  0  0  0  0  0  0  0  0  0
    1.5458   -1.8075   -0.2481 H   0  0  0  0  0  0  0  0  0  0  0  0
   -3.0420    1.9662   -1.2379 H   0  0  0  0  0  0  0  0  0  0  0  0
   -1.2604    2.0789   -1.3789 H   0  0  0  0  0  0  0  0  0  0  0  0
   -3.1545   -1.8466   -1.8080 H   0  0  0  0  0  0  0  0  0  0  0  0
   -1.6029   -2.8492    1.4257 H   0  0  0  0  0  0  0  0  0  0  0  0
   -3.1834    1.3459    1.3702 H   0  0  0  0  0  0  0  0  0  0  0  0
   -2.1805    3.7989   -0.2261 H   0  0  0  0  0  0  0  0  0  0  0  0
    4.9910   -1.4678   -0.5164 H   0  0  0  0  0  0  0  0  0  0  0  0
    4.0560    0.9875   -2.0830 H   0  0  0  0  0  0  0  0  0  0  0  0
  1  6  1  0  0  0  0
  1  8  1  0  0  0  0
  1  9  1  0  0  0  0
  1 10  2  0  0  0  0
  2 13  1  0  0  0  0
  2 14  1  0  0  0  0
  3 11  1  0  0  0  0
  3 24  1  0  0  0  0
  4 12  1  0  0  0  0
  4 25  1  0  0  0  0
  5 13  1  0  0  0  0
  5 26  1  0  0  0  0
  6 15  1  0  0  0  0
  7 16  1  0  0  0  0
  7 27  1  0  0  0  0
  8 28  1  0  0  0  0
  9 29  1  0  0  0  0
 11 12  1  0  0  0  0
 11 13  1  0  0  0  0
 11 17  1  0  0  0  0
 12 14  1  0  0  0  0
 12 18  1  0  0  0  0
 13 16  1  0  0  0  0
 14 15  1  0  0  0  0
 14 19  1  0  0  0  0
 15 20  1  0  0  0  0
 15 21  1  0  0  0  0
 16 22  1  0  0  0  0
 16 23  1  0  0  0  0
M  END
> <PUBCHEM_COMPOUND_CID>
46174048

> <PUBCHEM_CONFORMER_RMSD>
0.6

> <PUBCHEM_CONFORMER_DIVERSEORDER>
1
114
20
99
49
67
117
89
46
116
90
72
39
52
54
23
118
115
32
105
53
74
14
45
70
31
102
110
61
19
95
63
21
73
113
87
25
92
48
59
84
104
28
83
69
47
8
79
77
56
66
36
44
51
82
27
40
71
62
111
96
94
55
4
43
33
50
30
98
6
80
108
22
16
11
78
93
29
57
64
65
58
107
112
9
100
76
68
75
13
103
24
38
5
18
60
106
35
86
15
10
37
34
81
101
85
26
12
91
88
7
42
2
41
3
97
17
109

> <PUBCHEM_MMFF94_PARTIAL_CHARGES>
22
1 1.51
10 -0.7
11 0.28
12 0.28
13 0.56
14 0.28
15 0.28
16 0.28
2 -0.56
24 0.4
25 0.4
26 0.4
27 0.4
28 0.5
29 0.5
3 -0.68
4 -0.68
5 -0.68
6 -0.55
7 -0.68
8 -0.77
9 -0.77

> <PUBCHEM_EFFECTIVE_ROTOR_COUNT>
5

> <PUBCHEM_PHARMACOPHORE_FEATURES>
14
1 10 acceptor
1 2 acceptor
1 3 acceptor
1 3 donor
1 4 acceptor
1 4 donor
1 5 acceptor
1 5 donor
1 7 acceptor
1 7 donor
1 8 acceptor
1 9 acceptor
4 1 8 9 10 anion
5 2 11 12 13 14 rings

> <PUBCHEM_HEAVY_ATOM_COUNT>
16

> <PUBCHEM_ATOM_DEF_STEREO_COUNT>
3

> <PUBCHEM_ATOM_UDEF_STEREO_COUNT>
1

> <PUBCHEM_BOND_DEF_STEREO_COUNT>
0

> <PUBCHEM_BOND_UDEF_STEREO_COUNT>
0

> <PUBCHEM_ISOTOPIC_ATOM_COUNT>
0

> <PUBCHEM_COMPONENT_COUNT>
1

> <PUBCHEM_CACTVS_TAUTO_COUNT>
1

> <PUBCHEM_CONFORMER_ID>
02C08F6000000001

> <PUBCHEM_MMFF94_ENERGY>
7.2382

> <PUBCHEM_FEATURE_SELFOVERLAP>
71.158

> <PUBCHEM_SHAPE_FINGERPRINT>
10608611 8 18335704953309618408
10922523 26 18336258041986583670
12162725 195 18272653433229058806
12173636 292 18412262860834454983
12932764 1 17967808319711571830
13024252 1 17775284950453240355
13296908 3 17458059361723629846
15534591 1 18339643468210774049
16945 1 18341617001277601003
1741750 31 18337111288373444184
18186145 218 17894627080708767920
187816 3 18269852951428173439
20112054 60 18340772550693579802
20645477 56 18410574006927266944
20645477 70 17095516340657026182
20653085 51 18267579302524736651
21524375 3 18122344854883399953
23402539 116 18339092518385545551
23557571 272 18187080646594827372
23559900 14 17969229005231733490
2748010 2 17905623107250673371
305870 269 17985831677037517267
3248919 1 18131070403310409774

> <PUBCHEM_SHAPE_MULTIPOLES>
280.3
6.99
2.17
1.08
8.53
0.85
-0.2
1
-0.49
-1.85
0.15
-0.13
0
-0.03

> <PUBCHEM_SHAPE_SELFOVERLAP>
551.301

> <PUBCHEM_SHAPE_VOLUME>
169.5

> <PUBCHEM_COORDINATE_TYPE>
2
5
10

$$$$

