585191
  -OEChem-06241222452D

 53 56  0     0  0  0  0  0  0999 V2000
    5.4050    1.1801    0.0000 S   0  0  0  0  0  0  0  0  0  0  0  0
    3.6730   -1.8199    0.0000 O   0  0  0  0  0  0  0  0  0  0  0  0
    6.4050    1.1801    0.0000 O   0  0  0  0  0  0  0  0  0  0  0  0
    4.4050    1.1801    0.0000 O   0  0  0  0  0  0  0  0  0  0  0  0
    3.6730    5.1801    0.0000 O   0  5  0  0  0  0  0  0  0  0  0  0
    2.8070    3.6801    0.0000 O   0  0  0  0  0  0  0  0  0  0  0  0
    5.4050    0.1801    0.0000 N   0  0  0  0  0  0  0  0  0  0  0  0
    3.6730    4.1801    0.0000 N   0  3  0  0  0  0  0  0  0  0  0  0
    3.6730   -2.8199    0.0000 C   0  0  0  0  0  0  0  0  0  0  0  0
    2.8368   -4.2682    0.0000 C   0  0  0  0  0  0  0  0  0  0  0  0
    2.9819   -4.7033    0.0000 C   0  0  0  0  0  0  0  0  0  0  0  0
    4.5092   -4.2682    0.0000 C   0  0  0  0  0  0  0  0  0  0  0  0
    4.5092   -3.3027    0.0000 C   0  0  0  0  0  0  0  0  0  0  0  0
    2.9819   -3.6580    0.0000 C   0  0  0  0  0  0  0  0  0  0  0  0
    2.8368   -3.3027    0.0000 C   0  0  0  0  0  0  0  0  0  0  0  0
    2.0000   -4.7510    0.0000 C   0  0  0  0  0  0  0  0  0  0  0  0
    3.6730   -4.5710    0.0000 C   0  0  0  0  0  0  0  0  0  0  0  0
    3.8876   -5.1801    0.0000 C   0  0  0  0  0  0  0  0  0  0  0  0
    4.5390   -1.3199    0.0000 C   0  0  0  0  0  0  0  0  0  0  0  0
    4.5390   -0.3199    0.0000 C   0  0  0  0  0  0  0  0  0  0  0  0
    5.4050    2.1801    0.0000 C   0  0  0  0  0  0  0  0  0  0  0  0
    6.2711    2.6801    0.0000 C   0  0  0  0  0  0  0  0  0  0  0  0
    4.5390    2.6801    0.0000 C   0  0  0  0  0  0  0  0  0  0  0  0
    6.2710    3.6801    0.0000 C   0  0  0  0  0  0  0  0  0  0  0  0
    4.5390    3.6801    0.0000 C   0  0  0  0  0  0  0  0  0  0  0  0
    7.1371    2.1801    0.0000 C   0  0  0  0  0  0  0  0  0  0  0  0
    5.4050    4.1801    0.0000 C   0  0  0  0  0  0  0  0  0  0  0  0
    2.8912   -4.8858    0.0000 H   0  0  0  0  0  0  0  0  0  0  0  0
    2.8478   -5.3086    0.0000 H   0  0  0  0  0  0  0  0  0  0  0  0
    5.1016   -4.4509    0.0000 H   0  0  0  0  0  0  0  0  0  0  0  0
    2.6247   -2.7201    0.0000 H   0  0  0  0  0  0  0  0  0  0  0  0
    2.2262   -3.4103    0.0000 H   0  0  0  0  0  0  0  0  0  0  0  0
    2.6383   -3.1420    0.0000 H   0  0  0  0  0  0  0  0  0  0  0  0
    2.3885   -3.8375    0.0000 H   0  0  0  0  0  0  0  0  0  0  0  0
    5.1198   -3.4103    0.0000 H   0  0  0  0  0  0  0  0  0  0  0  0
    4.7212   -2.7201    0.0000 H   0  0  0  0  0  0  0  0  0  0  0  0
    1.5188   -4.3601    0.0000 H   0  0  0  0  0  0  0  0  0  0  0  0
    1.8068   -5.3401    0.0000 H   0  0  0  0  0  0  0  0  0  0  0  0
    3.3030   -5.0685    0.0000 H   0  0  0  0  0  0  0  0  0  0  0  0
    4.0430   -5.0685    0.0000 H   0  0  0  0  0  0  0  0  0  0  0  0
    3.5782   -5.7174    0.0000 H   0  0  0  0  0  0  0  0  0  0  0  0
    4.4127   -5.5097    0.0000 H   0  0  0  0  0  0  0  0  0  0  0  0
    4.7511   -1.9025    0.0000 H   0  0  0  0  0  0  0  0  0  0  0  0
    5.1496   -1.2122    0.0000 H   0  0  0  0  0  0  0  0  0  0  0  0
    4.3270    0.2627    0.0000 H   0  0  0  0  0  0  0  0  0  0  0  0
    3.9284   -0.4276    0.0000 H   0  0  0  0  0  0  0  0  0  0  0  0
    5.9420   -0.1299    0.0000 H   0  0  0  0  0  0  0  0  0  0  0  0
    4.0021    2.3701    0.0000 H   0  0  0  0  0  0  0  0  0  0  0  0
    6.8080    3.9901    0.0000 H   0  0  0  0  0  0  0  0  0  0  0  0
    6.8271    1.6432    0.0000 H   0  0  0  0  0  0  0  0  0  0  0  0
    7.6740    1.8701    0.0000 H   0  0  0  0  0  0  0  0  0  0  0  0
    7.4471    2.7171    0.0000 H   0  0  0  0  0  0  0  0  0  0  0  0
    5.4050    4.8001    0.0000 H   0  0  0  0  0  0  0  0  0  0  0  0
  1  3  2  0  0  0  0
  1  4  2  0  0  0  0
  1  7  1  0  0  0  0
  1 21  1  0  0  0  0
  2  9  1  0  0  0  0
  2 19  1  0  0  0  0
  5  8  1  0  0  0  0
  6  8  2  0  0  0  0
  7 20  1  0  0  0  0
  7 47  1  0  0  0  0
  8 25  1  0  0  0  0
  9 13  1  0  0  0  0
  9 14  1  0  0  0  0
  9 15  1  0  0  0  0
 10 15  1  0  0  0  0
 10 16  1  0  0  0  0
 10 17  1  0  0  0  0
 10 28  1  0  0  0  0
 11 14  1  0  0  0  0
 11 16  1  0  0  0  0
 11 18  1  0  0  0  0
 11 29  1  0  0  0  0
 12 13  1  0  0  0  0
 12 17  1  0  0  0  0
 12 18  1  0  0  0  0
 12 30  1  0  0  0  0
 13 35  1  0  0  0  0
 13 36  1  0  0  0  0
 14 33  1  0  0  0  0
 14 34  1  0  0  0  0
 15 31  1  0  0  0  0
 15 32  1  0  0  0  0
 16 37  1  0  0  0  0
 16 38  1  0  0  0  0
 17 39  1  0  0  0  0
 17 40  1  0  0  0  0
 18 41  1  0  0  0  0
 18 42  1  0  0  0  0
 19 20  1  0  0  0  0
 19 43  1  0  0  0  0
 19 44  1  0  0  0  0
 20 45  1  0  0  0  0
 20 46  1  0  0  0  0
 21 22  2  0  0  0  0
 21 23  1  0  0  0  0
 22 24  1  0  0  0  0
 22 26  1  0  0  0  0
 23 25  2  0  0  0  0
 23 48  1  0  0  0  0
 24 27  2  0  0  0  0
 24 49  1  0  0  0  0
 25 27  1  0  0  0  0
 26 50  1  0  0  0  0
 26 51  1  0  0  0  0
 26 52  1  0  0  0  0
 27 53  1  0  0  0  0
M  CHG  2   5  -1   8   1
M  END
> <PUBCHEM_COMPOUND_CID>
585191

> <PUBCHEM_COMPOUND_CANONICALIZED>
1

> <PUBCHEM_CACTVS_COMPLEXITY>
627

> <PUBCHEM_CACTVS_HBOND_ACCEPTOR>
6

> <PUBCHEM_CACTVS_HBOND_DONOR>
1

> <PUBCHEM_CACTVS_ROTATABLE_BOND>
6

> <PUBCHEM_CACTVS_SUBSKEYS>
AAADceB7OABAAAAAAAAAAAAAAAAAAAAAAAAwYMGDAAAAAAABAAAAHgQUQAAADUzh2AYywYBQRAKBAiRCQ3DCABAgAgAoiJgAZIoKICKAkZGDIARkkAAIyAeQwPAOCAAAACAEAAAQAAYAQAgAAAAAAAAAAA==

> <PUBCHEM_IUPAC_OPENEYE_NAME>
N-[2-(1-adamantyloxy)ethyl]-2-methyl-5-nitro-benzenesulfonamide

> <PUBCHEM_IUPAC_CAS_NAME>
N-[2-(1-adamantyloxy)ethyl]-2-methyl-5-nitrobenzenesulfonamide

> <PUBCHEM_IUPAC_NAME>
N-[2-(1-adamantyloxy)ethyl]-2-methyl-5-nitrobenzenesulfonamide

> <PUBCHEM_IUPAC_SYSTEMATIC_NAME>
N-[2-(1-adamantyloxy)ethyl]-2-methyl-5-nitro-benzenesulfonamide

> <PUBCHEM_IUPAC_TRADITIONAL_NAME>
N-[2-(1-adamantyloxy)ethyl]-2-methyl-5-nitro-benzenesulfonamide

> <PUBCHEM_IUPAC_INCHI>
InChI=1S/C19H26N2O5S/c1-13-2-3-17(21(22)23)9-18(13)27(24,25)20-4-5-26-19-10-14-6-15(11-19)8-16(7-14)12-19/h2-3,9,14-16,20H,4-8,10-12H2,1H3

> <PUBCHEM_IUPAC_INCHIKEY>
KRTBSAPNDXTNMU-UHFFFAOYSA-N

> <PUBCHEM_XLOGP3_AA>
3.6

> <PUBCHEM_EXACT_MASS>
394.156243

> <PUBCHEM_MOLECULAR_FORMULA>
C19H26N2O5S

> <PUBCHEM_MOLECULAR_WEIGHT>
394.48514

> <PUBCHEM_OPENEYE_CAN_SMILES>
CC1=C(C=C(C=C1)[N+](=O)[O-])S(=O)(=O)NCCOC23CC4CC(C2)CC(C4)C3

> <PUBCHEM_OPENEYE_ISO_SMILES>
CC1=C(C=C(C=C1)[N+](=O)[O-])S(=O)(=O)NCCOC23CC4CC(C2)CC(C4)C3

> <PUBCHEM_CACTVS_TPSA>
110

> <PUBCHEM_MONOISOTOPIC_WEIGHT>
394.156243

> <PUBCHEM_TOTAL_CHARGE>
0

> <PUBCHEM_HEAVY_ATOM_COUNT>
27

> <PUBCHEM_ATOM_DEF_STEREO_COUNT>
0

> <PUBCHEM_ATOM_UDEF_STEREO_COUNT>
0

> <PUBCHEM_BOND_DEF_STEREO_COUNT>
0

> <PUBCHEM_BOND_UDEF_STEREO_COUNT>
0

> <PUBCHEM_ISOTOPIC_ATOM_COUNT>
0

> <PUBCHEM_COMPONENT_COUNT>
1

> <PUBCHEM_CACTVS_TAUTO_COUNT>
1

> <PUBCHEM_COORDINATE_TYPE>
1
5
255

> <PUBCHEM_BONDANNOTATIONS>
21  22  8
21  23  8
22  24  8
23  25  8
24  27  8
25  27  8

$$$$

