5571
  -OEChem-06261200452D

 18 18  0     0  0  0  0  0  0999 V2000
    2.8660    1.8450    0.0000 O   0  0  0  0  0  0  0  0  0  0  0  0
    2.0000    0.3450    0.0000 O   0  0  0  0  0  0  0  0  0  0  0  0
    4.5981   -1.1550    0.0000 N   0  3  0  0  0  0  0  0  0  0  0  0
    3.7320    0.3450    0.0000 C   0  0  0  0  0  0  0  0  0  0  0  0
    3.7320   -0.6550    0.0000 C   0  0  0  0  0  0  0  0  0  0  0  0
    5.4641   -0.6550    0.0000 C   0  0  0  0  0  0  0  0  0  0  0  0
    4.5981    0.8450    0.0000 C   0  0  0  0  0  0  0  0  0  0  0  0
    5.4641    0.3450    0.0000 C   0  0  0  0  0  0  0  0  0  0  0  0
    4.5981   -2.1550    0.0000 C   0  0  0  0  0  0  0  0  0  0  0  0
    2.8660    0.8450    0.0000 C   0  0  0  0  0  0  0  0  0  0  0  0
    3.1951   -0.9650    0.0000 H   0  0  0  0  0  0  0  0  0  0  0  0
    6.0010   -0.9650    0.0000 H   0  0  0  0  0  0  0  0  0  0  0  0
    4.5981    1.4650    0.0000 H   0  0  0  0  0  0  0  0  0  0  0  0
    6.0010    0.6550    0.0000 H   0  0  0  0  0  0  0  0  0  0  0  0
    3.9781   -2.1550    0.0000 H   0  0  0  0  0  0  0  0  0  0  0  0
    4.5981   -2.7750    0.0000 H   0  0  0  0  0  0  0  0  0  0  0  0
    5.2181   -2.1550    0.0000 H   0  0  0  0  0  0  0  0  0  0  0  0
    2.3291    2.1550    0.0000 H   0  0  0  0  0  0  0  0  0  0  0  0
  1 10  1  0  0  0  0
  1 18  1  0  0  0  0
  2 10  2  0  0  0  0
  3  5  1  0  0  0  0
  3  6  2  0  0  0  0
  3  9  1  0  0  0  0
  4  5  2  0  0  0  0
  4  7  1  0  0  0  0
  4 10  1  0  0  0  0
  5 11  1  0  0  0  0
  6  8  1  0  0  0  0
  6 12  1  0  0  0  0
  7  8  2  0  0  0  0
  7 13  1  0  0  0  0
  8 14  1  0  0  0  0
  9 15  1  0  0  0  0
  9 16  1  0  0  0  0
  9 17  1  0  0  0  0
M  CHG  1   3   1
M  END
> <PUBCHEM_COMPOUND_CID>
5571

> <PUBCHEM_COMPOUND_CANONICALIZED>
1

> <PUBCHEM_CACTVS_COMPLEXITY>
136

> <PUBCHEM_CACTVS_HBOND_ACCEPTOR>
2

> <PUBCHEM_CACTVS_HBOND_DONOR>
1

> <PUBCHEM_CACTVS_ROTATABLE_BOND>
1

> <PUBCHEM_CACTVS_SUBSKEYS>
AAADccBiMAAAAAAAAAAAAAAAAAAAAAAAAAAsAAAAAAAAAAABgAAAHgAACAAADADBmgQ+iJMMEgCoAjD3TACCgCA1AiAI2CE4bNgIJvrAlZGEcYhmwAHI2caYEQIMAAAAAAAAAAAAAAAAAAAAAAAAAAAAAA==

> <PUBCHEM_IUPAC_OPENEYE_NAME>
1-methylpyridin-1-ium-3-carboxylic acid

> <PUBCHEM_IUPAC_CAS_NAME>
1-methyl-3-pyridin-1-iumcarboxylic acid

> <PUBCHEM_IUPAC_NAME>
1-methylpyridin-1-ium-3-carboxylic acid

> <PUBCHEM_IUPAC_SYSTEMATIC_NAME>
1-methylpyridin-1-ium-3-carboxylic acid

> <PUBCHEM_IUPAC_TRADITIONAL_NAME>
1-methylpyridin-1-ium-3-carboxylic acid

> <PUBCHEM_IUPAC_INCHI>
InChI=1S/C7H7NO2/c1-8-4-2-3-6(5-8)7(9)10/h2-5H,1H3/p+1

> <PUBCHEM_IUPAC_INCHIKEY>
WWNNZCOKKKDOPX-UHFFFAOYSA-O

> <PUBCHEM_XLOGP3_AA>
0.5

> <PUBCHEM_EXACT_MASS>
138.055504

> <PUBCHEM_MOLECULAR_FORMULA>
C7H8NO2+

> <PUBCHEM_MOLECULAR_WEIGHT>
138.14392

> <PUBCHEM_OPENEYE_CAN_SMILES>
C[N+]1=CC=CC(=C1)C(=O)O

> <PUBCHEM_OPENEYE_ISO_SMILES>
C[N+]1=CC=CC(=C1)C(=O)O

> <PUBCHEM_CACTVS_TPSA>
41.2

> <PUBCHEM_MONOISOTOPIC_WEIGHT>
138.055504

> <PUBCHEM_TOTAL_CHARGE>
1

> <PUBCHEM_HEAVY_ATOM_COUNT>
10

> <PUBCHEM_ATOM_DEF_STEREO_COUNT>
0

> <PUBCHEM_ATOM_UDEF_STEREO_COUNT>
0

> <PUBCHEM_BOND_DEF_STEREO_COUNT>
0

> <PUBCHEM_BOND_UDEF_STEREO_COUNT>
0

> <PUBCHEM_ISOTOPIC_ATOM_COUNT>
0

> <PUBCHEM_COMPONENT_COUNT>
1

> <PUBCHEM_CACTVS_TAUTO_COUNT>
1

> <PUBCHEM_COORDINATE_TYPE>
1
5
255

> <PUBCHEM_BONDANNOTATIONS>
3  5  8
3  6  8
4  5  8
4  7  8
6  8  8
7  8  8

$$$$

