12539
  -OEChem-06261207032D

 62 66  0     1  0  0  0  0  0999 V2000
    7.3955   -1.7383    0.0000 O   0  0  0  0  0  0  0  0  0  0  0  0
    3.8459    0.3187    0.0000 O   0  0  0  0  0  0  0  0  0  0  0  0
    2.0024   -2.7907    0.0000 O   0  0  0  0  0  0  0  0  0  0  0  0
    8.6552    3.1349    0.0000 O   0  0  0  0  0  0  0  0  0  0  0  0
   10.4157    3.4107    0.0000 O   0  0  0  0  0  0  0  0  0  0  0  0
    7.3955   -0.7383    0.0000 C   0  0  1  0  0  0  0  0  0  0  0  0
    6.5294   -1.2383    0.0000 C   0  0  3  0  0  0  0  0  0  0  0  0
    5.6634   -0.7383    0.0000 C   0  0  3  0  0  0  0  0  0  0  0  0
    7.3955    0.2617    0.0000 C   0  0  2  0  0  0  0  0  0  0  0  0
    4.7534   -1.2452    0.0000 C   0  0  2  0  0  0  0  0  0  0  0  0
    4.7454   -2.2868    0.0000 C   0  0  2  0  0  0  0  0  0  0  0  0
    5.6634    0.2617    0.0000 C   0  0  0  0  0  0  0  0  0  0  0  0
    6.5294    0.7617    0.0000 C   0  0  0  0  0  0  0  0  0  0  0  0
    8.3417    0.5664    0.0000 C   0  0  2  0  0  0  0  0  0  0  0  0
    6.5455   -2.2798    0.0000 C   0  0  0  0  0  0  0  0  0  0  0  0
    8.3417   -1.0431    0.0000 C   0  0  0  0  0  0  0  0  0  0  0  0
    5.6475   -2.8076    0.0000 C   0  0  0  0  0  0  0  0  0  0  0  0
    8.9253   -0.2383    0.0000 C   0  0  0  0  0  0  0  0  0  0  0  0
    3.8266   -0.6811    0.0000 C   0  0  1  0  0  0  0  0  0  0  0  0
    3.8100   -2.8365    0.0000 C   0  0  0  0  0  0  0  0  0  0  0  0
    7.3955    1.2617    0.0000 C   0  0  0  0  0  0  0  0  0  0  0  0
    4.7611   -0.2452    0.0000 C   0  0  0  0  0  0  0  0  0  0  0  0
    2.8787   -1.2090    0.0000 C   0  0  0  0  0  0  0  0  0  0  0  0
    2.8703   -2.2940    0.0000 C   0  0  2  0  0  0  0  0  0  0  0  0
    8.6524    1.5169    0.0000 C   0  0  0  0  0  0  0  0  0  0  0  0
    8.0660    2.3270    0.0000 C   0  0  0  0  0  0  0  0  0  0  0  0
    9.6040    1.8243    0.0000 C   0  0  0  0  0  0  0  0  0  0  0  0
    9.6057    2.8243    0.0000 C   0  0  0  0  0  0  0  0  0  0  0  0
    7.0688   -1.5442    0.0000 H   0  0  0  0  0  0  0  0  0  0  0  0
    6.2004   -0.4283    0.0000 H   0  0  0  0  0  0  0  0  0  0  0  0
    4.7487   -3.1368    0.0000 H   0  0  0  0  0  0  0  0  0  0  0  0
    5.4514    0.8443    0.0000 H   0  0  0  0  0  0  0  0  0  0  0  0
    5.0528    0.1540    0.0000 H   0  0  0  0  0  0  0  0  0  0  0  0
    6.9280    1.2366    0.0000 H   0  0  0  0  0  0  0  0  0  0  0  0
    6.1309    1.2366    0.0000 H   0  0  0  0  0  0  0  0  0  0  0  0
    8.9542    0.6626    0.0000 H   0  0  0  0  0  0  0  0  0  0  0  0
    6.7635   -2.8602    0.0000 H   0  0  0  0  0  0  0  0  0  0  0  0
    7.1546   -2.1644    0.0000 H   0  0  0  0  0  0  0  0  0  0  0  0
    8.0907   -1.6100    0.0000 H   0  0  0  0  0  0  0  0  0  0  0  0
    8.8791   -1.3523    0.0000 H   0  0  0  0  0  0  0  0  0  0  0  0
    5.2502   -3.2836    0.0000 H   0  0  0  0  0  0  0  0  0  0  0  0
    6.0484   -3.2805    0.0000 H   0  0  0  0  0  0  0  0  0  0  0  0
    9.3862   -0.6531    0.0000 H   0  0  0  0  0  0  0  0  0  0  0  0
    9.3862    0.1764    0.0000 H   0  0  0  0  0  0  0  0  0  0  0  0
    3.2951   -0.3618    0.0000 H   0  0  0  0  0  0  0  0  0  0  0  0
    3.4127   -3.3125    0.0000 H   0  0  0  0  0  0  0  0  0  0  0  0
    4.2109   -3.3094    0.0000 H   0  0  0  0  0  0  0  0  0  0  0  0
    8.0155    1.2617    0.0000 H   0  0  0  0  0  0  0  0  0  0  0  0
    7.3955    1.8817    0.0000 H   0  0  0  0  0  0  0  0  0  0  0  0
    6.7755    1.2617    0.0000 H   0  0  0  0  0  0  0  0  0  0  0  0
    5.3811   -0.2500    0.0000 H   0  0  0  0  0  0  0  0  0  0  0  0
    4.7659    0.3748    0.0000 H   0  0  0  0  0  0  0  0  0  0  0  0
    4.1412   -0.2404    0.0000 H   0  0  0  0  0  0  0  0  0  0  0  0
    2.6742   -0.6238    0.0000 H   0  0  0  0  0  0  0  0  0  0  0  0
    2.2670   -1.3104    0.0000 H   0  0  0  0  0  0  0  0  0  0  0  0
    2.8691   -2.9140    0.0000 H   0  0  0  0  0  0  0  0  0  0  0  0
    7.9324   -2.0483    0.0000 H   0  0  0  0  0  0  0  0  0  0  0  0
    3.3150    0.6390    0.0000 H   0  0  0  0  0  0  0  0  0  0  0  0
    7.6059    2.7426    0.0000 H   0  0  0  0  0  0  0  0  0  0  0  0
    7.6045    1.9129    0.0000 H   0  0  0  0  0  0  0  0  0  0  0  0
   10.1049    1.4590    0.0000 H   0  0  0  0  0  0  0  0  0  0  0  0
    2.0000   -3.4107    0.0000 H   0  0  0  0  0  0  0  0  0  0  0  0
  6  1  1  1  0  0  0
  1 57  1  0  0  0  0
 19  2  1  1  0  0  0
  2 58  1  0  0  0  0
 24  3  1  1  0  0  0
  3 62  1  0  0  0  0
  4 26  1  0  0  0  0
  4 28  1  0  0  0  0
  5 28  2  0  0  0  0
  6  7  1  0  0  0  0
  6  9  1  0  0  0  0
  6 16  1  0  0  0  0
  7  8  1  0  0  0  0
  7 15  1  0  0  0  0
  7 29  1  0  0  0  0
  8 10  1  0  0  0  0
  8 12  1  0  0  0  0
  8 30  1  0  0  0  0
  9 13  1  0  0  0  0
  9 14  1  0  0  0  0
  9 21  1  1  0  0  0
 10 11  1  0  0  0  0
 10 19  1  0  0  0  0
 10 22  1  1  0  0  0
 11 17  1  0  0  0  0
 11 20  1  0  0  0  0
 11 31  1  1  0  0  0
 12 13  1  0  0  0  0
 12 32  1  0  0  0  0
 12 33  1  0  0  0  0
 13 34  1  0  0  0  0
 13 35  1  0  0  0  0
 14 18  1  0  0  0  0
 14 25  1  1  0  0  0
 14 36  1  0  0  0  0
 15 17  1  0  0  0  0
 15 37  1  0  0  0  0
 15 38  1  0  0  0  0
 16 18  1  0  0  0  0
 16 39  1  0  0  0  0
 16 40  1  0  0  0  0
 17 41  1  0  0  0  0
 17 42  1  0  0  0  0
 18 43  1  0  0  0  0
 18 44  1  0  0  0  0
 19 23  1  0  0  0  0
 19 45  1  0  0  0  0
 20 24  1  0  0  0  0
 20 46  1  0  0  0  0
 20 47  1  0  0  0  0
 21 48  1  0  0  0  0
 21 49  1  0  0  0  0
 21 50  1  0  0  0  0
 22 51  1  0  0  0  0
 22 52  1  0  0  0  0
 22 53  1  0  0  0  0
 23 24  1  0  0  0  0
 23 54  1  0  0  0  0
 23 55  1  0  0  0  0
 24 56  1  0  0  0  0
 25 26  1  0  0  0  0
 25 27  2  0  0  0  0
 26 59  1  0  0  0  0
 26 60  1  0  0  0  0
 27 28  1  0  0  0  0
 27 61  1  0  0  0  0
M  END
> <PUBCHEM_COMPOUND_CID>
12539

> <PUBCHEM_COMPOUND_CANONICALIZED>
1

> <PUBCHEM_CACTVS_COMPLEXITY>
718

> <PUBCHEM_CACTVS_HBOND_ACCEPTOR>
5

> <PUBCHEM_CACTVS_HBOND_DONOR>
3

> <PUBCHEM_CACTVS_ROTATABLE_BOND>
1

> <PUBCHEM_CACTVS_SUBSKEYS>
AAADcfB4OAAAAAAAAAAAAAAAAAAAAYIAAAAwYMAAAAAAAGDAAAAAGgAACAAAD1SggAICCAAABgCIAiDSCAAAAAAgAAAACAAAAEgAFAIAIQACUAAFgAAIIQOA4PwPgAAAAAAAAADAAAYQADAAAYAADAAAAA==

> <PUBCHEM_IUPAC_OPENEYE_NAME>
3-[(1R,3R,5R,10S,13R,14S,17R)-1,3,14-trihydroxy-10,13-dimethyl-1,2,3,4,5,6,7,8,9,11,12,15,16,17-tetradecahydrocyclopenta[a]phenanthren-17-yl]-2H-furan-5-one

> <PUBCHEM_IUPAC_CAS_NAME>
3-[(1R,3R,5R,10S,13R,14S,17R)-1,3,14-trihydroxy-10,13-dimethyl-1,2,3,4,5,6,7,8,9,11,12,15,16,17-tetradecahydrocyclopenta[a]phenanthren-17-yl]-2H-furan-5-one

> <PUBCHEM_IUPAC_NAME>
3-[(1R,3R,5R,10S,13R,14S,17R)-1,3,14-trihydroxy-10,13-dimethyl-1,2,3,4,5,6,7,8,9,11,12,15,16,17-tetradecahydrocyclopenta[a]phenanthren-17-yl]-2H-furan-5-one

> <PUBCHEM_IUPAC_SYSTEMATIC_NAME>
3-[(1R,3R,5R,10S,13R,14S,17R)-10,13-dimethyl-1,3,14-tris(oxidanyl)-1,2,3,4,5,6,7,8,9,11,12,15,16,17-tetradecahydrocyclopenta[a]phenanthren-17-yl]-2H-furan-5-one

> <PUBCHEM_IUPAC_TRADITIONAL_NAME>
3-[(1R,3R,5R,10S,13R,14S,17R)-1,3,14-trihydroxy-10,13-dimethyl-1,2,3,4,5,6,7,8,9,11,12,15,16,17-tetradecahydrocyclopenta[a]phenanthren-17-yl]-2H-furan-5-one

> <PUBCHEM_IUPAC_INCHI>
InChI=1S/C23H34O5/c1-21-7-5-17-18(4-3-14-10-15(24)11-19(25)22(14,17)2)23(21,27)8-6-16(21)13-9-20(26)28-12-13/h9,14-19,24-25,27H,3-8,10-12H2,1-2H3/t14-,15-,16-,17?,18?,19-,21-,22+,23+/m1/s1

> <PUBCHEM_IUPAC_INCHIKEY>
CSKIDXJFNAYMTR-YTAKEYINSA-N

> <PUBCHEM_XLOGP3>
1.7

> <PUBCHEM_EXACT_MASS>
390.240624

> <PUBCHEM_MOLECULAR_FORMULA>
C23H34O5

> <PUBCHEM_MOLECULAR_WEIGHT>
390.51306

> <PUBCHEM_OPENEYE_CAN_SMILES>
CC12CCC3C(C1(CCC2C4=CC(=O)OC4)O)CCC5C3(C(CC(C5)O)O)C

> <PUBCHEM_OPENEYE_ISO_SMILES>
C[C@]12CCC3C([C@]1(CC[C@@H]2C4=CC(=O)OC4)O)CC[C@H]5[C@@]3([C@@H](C[C@@H](C5)O)O)C

> <PUBCHEM_CACTVS_TPSA>
87

> <PUBCHEM_MONOISOTOPIC_WEIGHT>
390.240624

> <PUBCHEM_TOTAL_CHARGE>
0

> <PUBCHEM_HEAVY_ATOM_COUNT>
28

> <PUBCHEM_ATOM_DEF_STEREO_COUNT>
7

> <PUBCHEM_ATOM_UDEF_STEREO_COUNT>
2

> <PUBCHEM_BOND_DEF_STEREO_COUNT>
0

> <PUBCHEM_BOND_UDEF_STEREO_COUNT>
0

> <PUBCHEM_ISOTOPIC_ATOM_COUNT>
0

> <PUBCHEM_COMPONENT_COUNT>
1

> <PUBCHEM_CACTVS_TAUTO_COUNT>
1

> <PUBCHEM_COORDINATE_TYPE>
1
5
255

> <PUBCHEM_BONDANNOTATIONS>
6  1  5
10  22  5
11  31  5
14  25  5
19  2  5
24  3  5
7  15  3
8  12  3
9  21  5

$$$$

