47965
  -OEChem-07051212523D

 42 44  0     1  0  0  0  0  0999 V2000
   -0.5321    1.1632    1.0320 S   0  0  0  0  0  0  0  0  0  0  0  0
   -2.7683   -2.4477   -0.8584 O   0  0  0  0  0  0  0  0  0  0  0  0
    1.7073   -2.4266    1.5717 O   0  0  0  0  0  0  0  0  0  0  0  0
   -4.2298    0.3717   -2.0859 O   0  0  0  0  0  0  0  0  0  0  0  0
   -5.6541   -0.1335   -0.3693 O   0  0  0  0  0  0  0  0  0  0  0  0
    4.9997    3.2775   -0.1631 O   0  0  0  0  0  0  0  0  0  0  0  0
   -2.5411   -0.4261    0.3341 N   0  0  0  0  0  0  0  0  0  0  0  0
    0.2715   -1.5940   -0.0472 N   0  0  0  0  0  0  0  0  0  0  0  0
    3.6008   -2.9091   -0.3810 N   0  0  0  0  0  0  0  0  0  0  0  0
   -1.5036   -0.3284    1.3445 C   0  0  1  0  0  0  0  0  0  0  0  0
   -0.9460   -1.6455    0.7617 C   0  0  1  0  0  0  0  0  0  0  0  0
   -2.2521   -1.6782   -0.0823 C   0  0  0  0  0  0  0  0  0  0  0  0
   -3.4240    0.5685    0.0602 C   0  0  0  0  0  0  0  0  0  0  0  0
   -1.9641    2.2745    1.2434 C   0  0  0  0  0  0  0  0  0  0  0  0
   -3.2236    1.8333    0.5011 C   0  0  0  0  0  0  0  0  0  0  0  0
    1.5182   -1.9963    0.4351 C   0  0  0  0  0  0  0  0  0  0  0  0
   -4.1958    2.9723    0.3084 C   0  0  0  0  0  0  0  0  0  0  0  0
   -4.5729    0.2249   -0.7909 C   0  0  0  0  0  0  0  0  0  0  0  0
    2.6346   -1.8269   -0.5896 C   0  0  1  0  0  0  0  0  0  0  0  0
    3.2694   -0.4565   -0.4749 C   0  0  0  0  0  0  0  0  0  0  0  0
    3.2483    0.3896   -1.5689 C   0  0  0  0  0  0  0  0  0  0  0  0
    3.8554   -0.0832    0.7213 C   0  0  0  0  0  0  0  0  0  0  0  0
    3.8332    1.6515   -1.4634 C   0  0  0  0  0  0  0  0  0  0  0  0
    4.4402    1.1788    0.8269 C   0  0  0  0  0  0  0  0  0  0  0  0
    4.4290    2.0462   -0.2655 C   0  0  0  0  0  0  0  0  0  0  0  0
   -1.8911   -0.4240    2.3658 H   0  0  0  0  0  0  0  0  0  0  0  0
   -0.9190   -2.4642    1.4915 H   0  0  0  0  0  0  0  0  0  0  0  0
    0.2250   -1.2335   -0.9974 H   0  0  0  0  0  0  0  0  0  0  0  0
   -1.6450    3.2567    0.8788 H   0  0  0  0  0  0  0  0  0  0  0  0
   -2.1862    2.3705    2.3119 H   0  0  0  0  0  0  0  0  0  0  0  0
   -5.1288    2.6641   -0.1712 H   0  0  0  0  0  0  0  0  0  0  0  0
   -3.7458    3.7522   -0.3147 H   0  0  0  0  0  0  0  0  0  0  0  0
   -4.4584    3.4096    1.2776 H   0  0  0  0  0  0  0  0  0  0  0  0
    2.2094   -1.9617   -1.5923 H   0  0  0  0  0  0  0  0  0  0  0  0
    4.3271   -2.8574   -1.0950 H   0  0  0  0  0  0  0  0  0  0  0  0
    3.1395   -3.8082   -0.5175 H   0  0  0  0  0  0  0  0  0  0  0  0
   -4.9701    0.1523   -2.6911 H   0  0  0  0  0  0  0  0  0  0  0  0
    2.7867    0.0939   -2.5063 H   0  0  0  0  0  0  0  0  0  0  0  0
    3.8785   -0.7463    1.5808 H   0  0  0  0  0  0  0  0  0  0  0  0
    3.8211    2.3229   -2.3177 H   0  0  0  0  0  0  0  0  0  0  0  0
    4.9022    1.4738    1.7652 H   0  0  0  0  0  0  0  0  0  0  0  0
    5.3629    3.3829    0.7330 H   0  0  0  0  0  0  0  0  0  0  0  0
  1 10  1  0  0  0  0
  1 14  1  0  0  0  0
  2 12  2  0  0  0  0
  3 16  2  0  0  0  0
  4 18  1  0  0  0  0
  4 37  1  0  0  0  0
  5 18  2  0  0  0  0
  6 25  1  0  0  0  0
  6 42  1  0  0  0  0
  7 10  1  0  0  0  0
  7 12  1  0  0  0  0
  7 13  1  0  0  0  0
  8 11  1  0  0  0  0
  8 16  1  0  0  0  0
  8 28  1  0  0  0  0
  9 19  1  0  0  0  0
  9 35  1  0  0  0  0
  9 36  1  0  0  0  0
 10 11  1  0  0  0  0
 10 26  1  0  0  0  0
 11 12  1  0  0  0  0
 11 27  1  0  0  0  0
 13 15  2  0  0  0  0
 13 18  1  0  0  0  0
 14 15  1  0  0  0  0
 14 29  1  0  0  0  0
 14 30  1  0  0  0  0
 15 17  1  0  0  0  0
 16 19  1  0  0  0  0
 17 31  1  0  0  0  0
 17 32  1  0  0  0  0
 17 33  1  0  0  0  0
 19 20  1  0  0  0  0
 19 34  1  0  0  0  0
 20 21  2  0  0  0  0
 20 22  1  0  0  0  0
 21 23  1  0  0  0  0
 21 38  1  0  0  0  0
 22 24  2  0  0  0  0
 22 39  1  0  0  0  0
 23 25  2  0  0  0  0
 23 40  1  0  0  0  0
 24 25  1  0  0  0  0
 24 41  1  0  0  0  0
M  END
> <PUBCHEM_COMPOUND_CID>
47965

> <PUBCHEM_CONFORMER_RMSD>
0.8

> <PUBCHEM_CONFORMER_DIVERSEORDER>
1
7
14
5
17
20
4
2
16
22
23
13
12
18
9
11
3
19
21
10
15
8
6

> <PUBCHEM_MMFF94_PARTIAL_CHARGES>
34
1 -0.45
10 0.44
11 0.28
12 0.58
13 0.12
14 0.37
15 -0.28
16 0.57
17 0.14
18 0.71
19 0.47
2 -0.57
20 -0.14
21 -0.15
22 -0.15
23 -0.15
24 -0.15
25 0.08
28 0.37
3 -0.57
35 0.36
36 0.36
37 0.5
38 0.15
39 0.15
4 -0.65
40 0.15
41 0.15
42 0.45
5 -0.57
6 -0.53
7 -0.39
8 -0.65
9 -0.99

> <PUBCHEM_EFFECTIVE_ROTOR_COUNT>
5.6

> <PUBCHEM_PHARMACOPHORE_FEATURES>
12
1 2 acceptor
1 3 acceptor
1 4 acceptor
1 5 acceptor
1 6 donor
1 8 donor
1 9 cation
1 9 donor
3 4 5 18 anion
4 7 10 11 12 rings
6 1 7 10 13 14 15 rings
6 20 21 22 23 24 25 rings

> <PUBCHEM_HEAVY_ATOM_COUNT>
25

> <PUBCHEM_ATOM_DEF_STEREO_COUNT>
3

> <PUBCHEM_ATOM_UDEF_STEREO_COUNT>
0

> <PUBCHEM_BOND_DEF_STEREO_COUNT>
0

> <PUBCHEM_BOND_UDEF_STEREO_COUNT>
0

> <PUBCHEM_ISOTOPIC_ATOM_COUNT>
0

> <PUBCHEM_COMPONENT_COUNT>
1

> <PUBCHEM_CACTVS_TAUTO_COUNT>
4

> <PUBCHEM_CONFORMER_ID>
0000BB5D00000001

> <PUBCHEM_MMFF94_ENERGY>
69.9323

> <PUBCHEM_FEATURE_SELFOVERLAP>
61.207

> <PUBCHEM_SHAPE_FINGERPRINT>
10498660 4 18263073336860957456
10670039 82 18341034286275418420
10673678 19 18054806237183997309
10928967 22 7132447804154606036
11370993 70 18340484461631146840
12166972 35 18263367061184954898
12173636 292 18335422400233209343
12633257 1 14836125403887671044
12788726 201 17458619073171769737
13224815 77 18338506470103176986
13583140 156 16988838397650394745
13617811 41 18339655455982215389
13965767 371 17917997183272379092
14251764 38 18411418423341297768
14468879 13 18271795796642057688
14790565 3 18189888906956649993
14848178 96 18343579659666589052
14931854 50 18334009488757269884
15840311 113 18266730476329883797
17959699 21 18410293648509924579
17980427 23 18120112807846128266
18681886 176 18189903196081020682
19319366 153 18341905090810695267
20715895 44 18200889481457166005
21033648 29 16629960061713279783
21095088 737 18334851710500618873
21864079 5 18265327498621754225
22393880 68 18261661615618330444
22749437 52 18412256246948932784
22907989 373 17821726122455595223
23559900 14 17969507198099114402
312425 83 17822280336123549948
345986 75 16695837451617177418
469060 322 17982704425692320307
474 4 18060132141968626674
56633871 153 9943813287566782417
5895379 119 17898001584952509378
6034566 193 17414971596664354492
6328613 192 18058720305516237220
633830 44 18268146646715121939
6786 2 5322900055509855859
7970288 3 8501560778663212668
8509985 295 13039184810054421775
9981440 41 18196933276055353450

> <PUBCHEM_SHAPE_MULTIPOLES>
474.05
11.37
3.44
1.39
0.59
0.4
0.26
6.1
3.11
-1.71
-0.29
0.06
0.08
-0.98

> <PUBCHEM_SHAPE_SELFOVERLAP>
1004.775

> <PUBCHEM_SHAPE_VOLUME>
266.5

> <PUBCHEM_COORDINATE_TYPE>
2
5
10

$$$$

