6439873
  -OEChem-07051213083D

 51 50  0     1  0  0  0  0  0999 V2000
    0.7830    3.0197    1.2390 O   0  0  0  0  0  0  0  0  0  0  0  0
   -9.5678   -1.7733   -0.6912 O   0  0  0  0  0  0  0  0  0  0  0  0
   -8.8305   -0.8533    1.2546 O   0  0  0  0  0  0  0  0  0  0  0  0
   -2.4887    0.6791   -0.4327 C   0  0  0  0  0  0  0  0  0  0  0  0
   -3.7979    0.4125    0.3181 C   0  0  0  0  0  0  0  0  0  0  0  0
   -1.3489    1.1533    0.4732 C   0  0  0  0  0  0  0  0  0  0  0  0
   -4.9121   -0.1347   -0.5783 C   0  0  0  0  0  0  0  0  0  0  0  0
   -0.0609    1.3757   -0.3298 C   0  0  0  0  0  0  0  0  0  0  0  0
   -6.2233   -0.4018    0.1734 C   0  0  0  0  0  0  0  0  0  0  0  0
    1.1168    1.8188    0.5500 C   0  0  1  0  0  0  0  0  0  0  0  0
   -7.3562   -0.9693   -0.6824 C   0  0  0  0  0  0  0  0  0  0  0  0
    2.3590    2.0045   -0.2869 C   0  0  0  0  0  0  0  0  0  0  0  0
   -8.6396   -1.1614    0.0876 C   0  0  0  0  0  0  0  0  0  0  0  0
    3.5233    1.3526   -0.1398 C   0  0  0  0  0  0  0  0  0  0  0  0
    4.6694    1.5868   -0.9900 C   0  0  0  0  0  0  0  0  0  0  0  0
    5.8347    0.9375   -0.8466 C   0  0  0  0  0  0  0  0  0  0  0  0
    6.0828   -0.1024    0.2080 C   0  0  0  0  0  0  0  0  0  0  0  0
    5.7505   -1.4800   -0.2864 C   0  0  0  0  0  0  0  0  0  0  0  0
    6.6501   -2.4688   -0.4005 C   0  0  0  0  0  0  0  0  0  0  0  0
    8.1005   -2.3209   -0.0481 C   0  0  0  0  0  0  0  0  0  0  0  0
    8.3560   -2.6746    1.4088 C   0  0  0  0  0  0  0  0  0  0  0  0
   -2.6701    1.4292   -1.2124 H   0  0  0  0  0  0  0  0  0  0  0  0
   -2.1799   -0.2408   -0.9449 H   0  0  0  0  0  0  0  0  0  0  0  0
   -4.1364    1.3427    0.7907 H   0  0  0  0  0  0  0  0  0  0  0  0
   -3.6078   -0.3029    1.1278 H   0  0  0  0  0  0  0  0  0  0  0  0
   -1.1683    0.4065    1.2555 H   0  0  0  0  0  0  0  0  0  0  0  0
   -1.6478    2.0821    0.9729 H   0  0  0  0  0  0  0  0  0  0  0  0
   -5.1044    0.5765   -1.3908 H   0  0  0  0  0  0  0  0  0  0  0  0
   -4.5734   -1.0671   -1.0462 H   0  0  0  0  0  0  0  0  0  0  0  0
   -0.2603    2.1448   -1.0879 H   0  0  0  0  0  0  0  0  0  0  0  0
    0.2024    0.4535   -0.8632 H   0  0  0  0  0  0  0  0  0  0  0  0
   -6.0244   -1.0933    1.0024 H   0  0  0  0  0  0  0  0  0  0  0  0
   -6.5594    0.5355    0.6357 H   0  0  0  0  0  0  0  0  0  0  0  0
    1.2921    1.0513    1.3137 H   0  0  0  0  0  0  0  0  0  0  0  0
   -7.0489   -1.9402   -1.0871 H   0  0  0  0  0  0  0  0  0  0  0  0
   -7.5618   -0.2884   -1.5158 H   0  0  0  0  0  0  0  0  0  0  0  0
    2.2781    2.7572   -1.0707 H   0  0  0  0  0  0  0  0  0  0  0  0
    1.5531    3.2763    1.7745 H   0  0  0  0  0  0  0  0  0  0  0  0
    3.5759    0.6070    0.6451 H   0  0  0  0  0  0  0  0  0  0  0  0
    4.5740    2.3218   -1.7846 H   0  0  0  0  0  0  0  0  0  0  0  0
  -10.4075   -1.9262   -0.2077 H   0  0  0  0  0  0  0  0  0  0  0  0
    6.6462    1.1572   -1.5359 H   0  0  0  0  0  0  0  0  0  0  0  0
    5.5175    0.0876    1.1263 H   0  0  0  0  0  0  0  0  0  0  0  0
    7.1228    0.0064    0.5289 H   0  0  0  0  0  0  0  0  0  0  0  0
    4.7158   -1.6888   -0.5476 H   0  0  0  0  0  0  0  0  0  0  0  0
    6.3160   -3.4433   -0.7466 H   0  0  0  0  0  0  0  0  0  0  0  0
    8.6722   -3.0077   -0.6848 H   0  0  0  0  0  0  0  0  0  0  0  0
    8.4925   -1.3260   -0.2801 H   0  0  0  0  0  0  0  0  0  0  0  0
    8.0264   -3.6948    1.6335 H   0  0  0  0  0  0  0  0  0  0  0  0
    9.4265   -2.6111    1.6293 H   0  0  0  0  0  0  0  0  0  0  0  0
    7.8322   -1.9905    2.0845 H   0  0  0  0  0  0  0  0  0  0  0  0
  1 10  1  0  0  0  0
  1 38  1  0  0  0  0
  2 13  1  0  0  0  0
  2 41  1  0  0  0  0
  3 13  2  0  0  0  0
  4  5  1  0  0  0  0
  4  6  1  0  0  0  0
  4 22  1  0  0  0  0
  4 23  1  0  0  0  0
  5  7  1  0  0  0  0
  5 24  1  0  0  0  0
  5 25  1  0  0  0  0
  6  8  1  0  0  0  0
  6 26  1  0  0  0  0
  6 27  1  0  0  0  0
  7  9  1  0  0  0  0
  7 28  1  0  0  0  0
  7 29  1  0  0  0  0
  8 10  1  0  0  0  0
  8 30  1  0  0  0  0
  8 31  1  0  0  0  0
  9 11  1  0  0  0  0
  9 32  1  0  0  0  0
  9 33  1  0  0  0  0
 10 12  1  0  0  0  0
 10 34  1  0  0  0  0
 11 13  1  0  0  0  0
 11 35  1  0  0  0  0
 11 36  1  0  0  0  0
 12 14  2  0  0  0  0
 12 37  1  0  0  0  0
 14 15  1  0  0  0  0
 14 39  1  0  0  0  0
 15 16  2  0  0  0  0
 15 40  1  0  0  0  0
 16 17  1  0  0  0  0
 16 42  1  0  0  0  0
 17 18  1  0  0  0  0
 17 43  1  0  0  0  0
 17 44  1  0  0  0  0
 18 19  2  0  0  0  0
 18 45  1  0  0  0  0
 19 20  1  0  0  0  0
 19 46  1  0  0  0  0
 20 21  1  0  0  0  0
 20 47  1  0  0  0  0
 20 48  1  0  0  0  0
 21 49  1  0  0  0  0
 21 50  1  0  0  0  0
 21 51  1  0  0  0  0
M  END
> <PUBCHEM_COMPOUND_CID>
6439873

> <PUBCHEM_CONFORMER_RMSD>
1.2

> <PUBCHEM_CONFORMER_DIVERSEORDER>
1
52
10
150
78
41
116
98
97
173
157
74
40
152
66
20
113
142
82
77
122
80
106
179
12
105
93
5
90
27
60
126
58
84
59
177
72
42
17
79
28
135
108
24
47
16
54
166
101
3
9
174
81
50
71
2
37
51
67
30
23
89
180
18
85
130
25
95
15
86
123
91
136
165
32
48
44
134
146
175
139
6
69
8
76
147
36
103
35
104
7
164
100
31
65
151
26
144
22
102
129
133
29
70
119
138
114
53
73
107
11
61
117
49
62
34
149
124
158
125
33
171
83
120
168
167
137
118
57
64
160
112
127
141
88
155
140
75
163
111
159
115
99
87
153
96
45
13
128
46
38
162
21
131
172
181
43
39
63
170
55
14
92
94
176
4
68
178
109
148
19
182
132
121
110
169
143
156
56
161
154
145

> <PUBCHEM_MMFF94_PARTIAL_CHARGES>
22
1 -0.68
10 0.42
11 0.06
12 -0.29
13 0.66
14 -0.15
15 -0.15
16 -0.29
17 0.28
18 -0.29
19 -0.29
2 -0.65
20 0.14
3 -0.57
37 0.15
38 0.4
39 0.15
40 0.15
41 0.5
42 0.15
45 0.15
46 0.15

> <PUBCHEM_EFFECTIVE_ROTOR_COUNT>
13

> <PUBCHEM_PHARMACOPHORE_FEATURES>
6
1 1 acceptor
1 1 donor
1 2 acceptor
1 21 hydrophobe
1 3 acceptor
3 2 3 13 anion

> <PUBCHEM_HEAVY_ATOM_COUNT>
21

> <PUBCHEM_ATOM_DEF_STEREO_COUNT>
1

> <PUBCHEM_ATOM_UDEF_STEREO_COUNT>
0

> <PUBCHEM_BOND_DEF_STEREO_COUNT>
3

> <PUBCHEM_BOND_UDEF_STEREO_COUNT>
0

> <PUBCHEM_ISOTOPIC_ATOM_COUNT>
0

> <PUBCHEM_COMPONENT_COUNT>
1

> <PUBCHEM_CACTVS_TAUTO_COUNT>
1

> <PUBCHEM_CONFORMER_ID>
006243C100000001

> <PUBCHEM_MMFF94_ENERGY>
14.9236

> <PUBCHEM_FEATURE_SELFOVERLAP>
30.503

> <PUBCHEM_SHAPE_FINGERPRINT>
10066227 49 18342457049757630903
10753850 27 18408887360765040352
12838863 1 18129668633971731858
13530399 1 11167955679949950743
14026016 60 16199881682426699098
14202775 3 18200027332463736723
14216079 64 18410292505921984415
14251757 52 9007057954933817702
14428016 204 8862941688647149075
14428016 248 11743846881039947135
14617042 71 8286196167074955386
15198563 99 16845583045333068237
15690457 1 18407761438913784982
17134984 74 17846782927685719698
2026 5 18270966855143627290
20526848 3 9223220859166022244
20621476 38 18409448081229411077
20771845 140 16950280719840693670
21130991 4 18201445822052420754
21344244 181 18131068216876742330
21344244 78 15863783985380497280
21360443 89 18129106796863233018
22224240 67 6699816376052907253
2835820 83 18337952419876848846
28498 318 18412827976269071061
33532 11 18409729535010769255
406291 66 18338799026554875810
437795 160 14634875211509588743
439807 62 18413105056929780934
444735 82 7997976781739084586
5718773 13 18411419548949458670
6438161 24 18411703183999346042

> <PUBCHEM_SHAPE_MULTIPOLES>
414.56
33.33
3.03
1.02
43.28
0.33
0.17
35.73
0.61
-6.07
0.51
-0.32
0.02
-1.68

> <PUBCHEM_SHAPE_SELFOVERLAP>
779.616

> <PUBCHEM_SHAPE_VOLUME>
255.7

> <PUBCHEM_COORDINATE_TYPE>
2
5
10

$$$$

