155166
  -OEChem-07051213113D

 23 24  0     0  0  0  0  0  0999 V2000
    1.6934   -2.5514   -2.1429 Br  0  0  0  0  0  0  0  0  0  0  0  0
   -1.6916    2.5514   -2.1429 Br  0  0  0  0  0  0  0  0  0  0  0  0
    2.9592    2.4708    1.9230 Br  0  0  0  0  0  0  0  0  0  0  0  0
   -2.9573   -2.4708    1.9230 Br  0  0  0  0  0  0  0  0  0  0  0  0
    5.1725   -0.1707    1.5956 Br  0  0  0  0  0  0  0  0  0  0  0  0
   -5.1706    0.1706    1.5957 Br  0  0  0  0  0  0  0  0  0  0  0  0
    0.0009    0.0000   -1.5442 O   0  0  0  0  0  0  0  0  0  0  0  0
    1.1663   -0.0430   -0.8383 C   0  0  0  0  0  0  0  0  0  0  0  0
   -1.1821    0.0436   -0.8276 C   0  0  0  0  0  0  0  0  0  0  0  0
    2.0581   -1.1073   -0.9706 C   0  0  0  0  0  0  0  0  0  0  0  0
   -2.0563    1.1071   -0.9705 C   0  0  0  0  0  0  0  0  0  0  0  0
    1.4589    1.0080    0.0309 C   0  0  0  0  0  0  0  0  0  0  0  0
   -1.4571   -1.0080    0.0310 C   0  0  0  0  0  0  0  0  0  0  0  0
    2.6432    0.9947    0.7676 C   0  0  0  0  0  0  0  0  0  0  0  0
   -2.6414   -0.9948    0.7677 C   0  0  0  0  0  0  0  0  0  0  0  0
    3.2426   -1.1205   -0.2340 C   0  0  0  0  0  0  0  0  0  0  0  0
   -3.2406    1.1205   -0.2338 C   0  0  0  0  0  0  0  0  0  0  0  0
    3.5352   -0.0695    0.6351 C   0  0  0  0  0  0  0  0  0  0  0  0
   -3.5333    0.0694    0.6353 C   0  0  0  0  0  0  0  0  0  0  0  0
    0.7699    1.8438    0.1266 H   0  0  0  0  0  0  0  0  0  0  0  0
   -0.7665   -1.8419    0.1240 H   0  0  0  0  0  0  0  0  0  0  0  0
    3.9364   -1.9520   -0.3398 H   0  0  0  0  0  0  0  0  0  0  0  0
   -3.9344    1.9520   -0.3397 H   0  0  0  0  0  0  0  0  0  0  0  0
  1 10  1  0  0  0  0
  2 11  1  0  0  0  0
  3 14  1  0  0  0  0
  4 15  1  0  0  0  0
  5 18  1  0  0  0  0
  6 19  1  0  0  0  0
  7  8  1  0  0  0  0
  7  9  1  0  0  0  0
  8 10  1  0  0  0  0
  8 12  2  0  0  0  0
  9 11  1  0  0  0  0
  9 13  2  0  0  0  0
 10 16  2  0  0  0  0
 11 17  2  0  0  0  0
 12 14  1  0  0  0  0
 12 20  1  0  0  0  0
 13 15  1  0  0  0  0
 13 21  1  0  0  0  0
 14 18  2  0  0  0  0
 15 19  2  0  0  0  0
 16 18  1  0  0  0  0
 16 22  1  0  0  0  0
 17 19  1  0  0  0  0
 17 23  1  0  0  0  0
M  END
> <PUBCHEM_COMPOUND_CID>
155166

> <PUBCHEM_CONFORMER_RMSD>
0.6

> <PUBCHEM_CONFORMER_DIVERSEORDER>
1
2
7
4
8
9
10
3
6
5

> <PUBCHEM_MMFF94_PARTIAL_CHARGES>
23
1 -0.11
10 0.11
11 0.11
12 -0.15
13 -0.15
14 0.11
15 0.11
16 -0.15
17 -0.15
18 0.11
19 0.11
2 -0.11
20 0.15
21 0.15
22 0.15
23 0.15
3 -0.11
4 -0.11
5 -0.11
6 -0.11
7 -0.17
8 0.08
9 0.08

> <PUBCHEM_EFFECTIVE_ROTOR_COUNT>
2

> <PUBCHEM_PHARMACOPHORE_FEATURES>
9
1 1 hydrophobe
1 2 hydrophobe
1 3 hydrophobe
1 4 hydrophobe
1 5 hydrophobe
1 6 hydrophobe
1 7 acceptor
6 8 10 12 14 16 18 rings
6 9 11 13 15 17 19 rings

> <PUBCHEM_HEAVY_ATOM_COUNT>
19

> <PUBCHEM_ATOM_DEF_STEREO_COUNT>
0

> <PUBCHEM_ATOM_UDEF_STEREO_COUNT>
0

> <PUBCHEM_BOND_DEF_STEREO_COUNT>
0

> <PUBCHEM_BOND_UDEF_STEREO_COUNT>
0

> <PUBCHEM_ISOTOPIC_ATOM_COUNT>
0

> <PUBCHEM_COMPONENT_COUNT>
1

> <PUBCHEM_CACTVS_TAUTO_COUNT>
1

> <PUBCHEM_CONFORMER_ID>
00025E1E00000001

> <PUBCHEM_MMFF94_ENERGY>
56.1189

> <PUBCHEM_FEATURE_SELFOVERLAP>
45.669

> <PUBCHEM_SHAPE_FINGERPRINT>
10366900 7 18410012139020475382
1100329 8 14880034022284591282
11582403 64 17189038634340336436
11640471 11 15719110257849439825
12236239 1 15770052852099317293
12363563 72 17702657731882532651
12553582 1 17560508522199895147
12633257 1 18410575063188243104
12788726 201 17202746198828003077
13009979 54 16415473895902750694
13083527 12 17478610105925475179
13294875 104 16973958947099341645
13583140 156 18127720234361787640
14022347 108 17487869338171690135
14178342 30 17488747928981021470
14576447 43 13254802347755326528
15238133 3 18041263457157819224
15342168 16 17458344091874451609
15653759 3 18342460356660649352
16752209 62 17132117970232900247
1813 80 14907900548113196770
18219364 16 18041858254340881500
19049666 15 18050287264797295076
19784866 240 15051730910710089563
20157964 124 17604146025898763777
20361792 2 14908185230818203670
20600515 1 18059564802769833693
20715895 44 15651246390993200961
21475661 188 17825096254644630497
21650355 55 17917432004004090885
21756936 100 16808142294942690776
21864079 5 13768465579648747267
22112679 90 16200143361059884718
23366157 5 5181856925119450589
23402539 116 18272939319538206631
23503958 8 17131561659856092936
23526113 38 17975989969900261670
23557571 272 18270950349483322245
23559900 14 18268687498908753423
2838139 119 16662885015112810393
31174 14 18041831930391106151
4340502 62 17531239553039471199
465052 167 15984519150029510131
474 4 17385729079853324394
49207404 50 18261950730687622443
602551 16 17917990581459317490
6049 1 18338792441668073268
633830 44 16877949296068424596
7970288 3 16343696612895029843
81228 2 18201992262024416381
90316 7 17846494829637394717

> <PUBCHEM_SHAPE_MULTIPOLES>
420.8
9.18
2.69
2.36
0.02
0
0.28
0
-6.85
0
0.5
0
0
3.18

> <PUBCHEM_SHAPE_SELFOVERLAP>
816.471

> <PUBCHEM_SHAPE_VOLUME>
268.5

> <PUBCHEM_COORDINATE_TYPE>
2
5
10

$$$$

