5282273
  -OEChem-07051213042D

 68 67  0     0  0  0  0  0  0999 V2000
    6.3301    2.9050    0.0000 O   0  0  0  0  0  0  0  0  0  0  0  0
    3.7320    5.4050    0.0000 O   0  0  0  0  0  0  0  0  0  0  0  0
    4.5981    2.9050    0.0000 N   0  0  0  0  0  0  0  0  0  0  0  0
    6.3301   -0.0950    0.0000 C   0  0  0  0  0  0  0  0  0  0  0  0
    6.3301    0.9050    0.0000 C   0  0  0  0  0  0  0  0  0  0  0  0
    7.1962   -0.5950    0.0000 C   0  0  0  0  0  0  0  0  0  0  0  0
    5.4641    1.4050    0.0000 C   0  0  0  0  0  0  0  0  0  0  0  0
    7.1962   -1.5950    0.0000 C   0  0  0  0  0  0  0  0  0  0  0  0
    3.7320   -0.5950    0.0000 C   0  0  0  0  0  0  0  0  0  0  0  0
    2.8660   -0.0950    0.0000 C   0  0  0  0  0  0  0  0  0  0  0  0
    3.7320   -1.5950    0.0000 C   0  0  0  0  0  0  0  0  0  0  0  0
    2.8660    0.9050    0.0000 C   0  0  0  0  0  0  0  0  0  0  0  0
    5.4641    2.4050    0.0000 C   0  0  0  0  0  0  0  0  0  0  0  0
    8.0622   -2.0950    0.0000 C   0  0  0  0  0  0  0  0  0  0  0  0
    8.0622   -3.0950    0.0000 C   0  0  0  0  0  0  0  0  0  0  0  0
    2.8660   -2.0950    0.0000 C   0  0  0  0  0  0  0  0  0  0  0  0
    2.0000    1.4050    0.0000 C   0  0  0  0  0  0  0  0  0  0  0  0
    7.1962   -3.5950    0.0000 C   0  0  0  0  0  0  0  0  0  0  0  0
    4.5981    3.9050    0.0000 C   0  0  0  0  0  0  0  0  0  0  0  0
    2.8660   -3.0950    0.0000 C   0  0  0  0  0  0  0  0  0  0  0  0
    3.7320   -3.5950    0.0000 C   0  0  0  0  0  0  0  0  0  0  0  0
    7.1962   -4.5950    0.0000 C   0  0  0  0  0  0  0  0  0  0  0  0
    3.7320    4.4050    0.0000 C   0  0  0  0  0  0  0  0  0  0  0  0
    5.4641   -4.5950    0.0000 C   0  0  0  0  0  0  0  0  0  0  0  0
    3.7320   -4.5950    0.0000 C   0  0  0  0  0  0  0  0  0  0  0  0
    6.3301   -5.0950    0.0000 C   0  0  0  0  0  0  0  0  0  0  0  0
    4.5981   -5.0950    0.0000 C   0  0  0  0  0  0  0  0  0  0  0  0
    5.7196    0.0127    0.0000 H   0  0  0  0  0  0  0  0  0  0  0  0
    6.1181   -0.6776    0.0000 H   0  0  0  0  0  0  0  0  0  0  0  0
    6.9407    0.7973    0.0000 H   0  0  0  0  0  0  0  0  0  0  0  0
    6.5422    1.4876    0.0000 H   0  0  0  0  0  0  0  0  0  0  0  0
    7.8067   -0.7027    0.0000 H   0  0  0  0  0  0  0  0  0  0  0  0
    7.4082   -0.0124    0.0000 H   0  0  0  0  0  0  0  0  0  0  0  0
    4.8535    1.5127    0.0000 H   0  0  0  0  0  0  0  0  0  0  0  0
    5.2520    0.8224    0.0000 H   0  0  0  0  0  0  0  0  0  0  0  0
    6.5856   -1.4873    0.0000 H   0  0  0  0  0  0  0  0  0  0  0  0
    6.9841   -2.1776    0.0000 H   0  0  0  0  0  0  0  0  0  0  0  0
    4.3426   -0.7027    0.0000 H   0  0  0  0  0  0  0  0  0  0  0  0
    3.9441   -0.0124    0.0000 H   0  0  0  0  0  0  0  0  0  0  0  0
    2.2554    0.0127    0.0000 H   0  0  0  0  0  0  0  0  0  0  0  0
    2.6540   -0.6776    0.0000 H   0  0  0  0  0  0  0  0  0  0  0  0
    3.9441   -2.1776    0.0000 H   0  0  0  0  0  0  0  0  0  0  0  0
    4.3426   -1.4873    0.0000 H   0  0  0  0  0  0  0  0  0  0  0  0
    3.4766    0.7973    0.0000 H   0  0  0  0  0  0  0  0  0  0  0  0
    3.0781    1.4876    0.0000 H   0  0  0  0  0  0  0  0  0  0  0  0
    8.5991   -1.7850    0.0000 H   0  0  0  0  0  0  0  0  0  0  0  0
    2.3291   -1.7850    0.0000 H   0  0  0  0  0  0  0  0  0  0  0  0
    8.5991   -3.4050    0.0000 H   0  0  0  0  0  0  0  0  0  0  0  0
    4.0611    2.5950    0.0000 H   0  0  0  0  0  0  0  0  0  0  0  0
    2.3100    1.9419    0.0000 H   0  0  0  0  0  0  0  0  0  0  0  0
    1.4631    1.7150    0.0000 H   0  0  0  0  0  0  0  0  0  0  0  0
    1.6900    0.8681    0.0000 H   0  0  0  0  0  0  0  0  0  0  0  0
    6.9841   -3.0124    0.0000 H   0  0  0  0  0  0  0  0  0  0  0  0
    6.5856   -3.7027    0.0000 H   0  0  0  0  0  0  0  0  0  0  0  0
    5.2087    3.7973    0.0000 H   0  0  0  0  0  0  0  0  0  0  0  0
    4.8101    4.4876    0.0000 H   0  0  0  0  0  0  0  0  0  0  0  0
    2.3291   -3.4050    0.0000 H   0  0  0  0  0  0  0  0  0  0  0  0
    4.3426   -3.7027    0.0000 H   0  0  0  0  0  0  0  0  0  0  0  0
    3.9441   -3.0124    0.0000 H   0  0  0  0  0  0  0  0  0  0  0  0
    7.7331   -4.9050    0.0000 H   0  0  0  0  0  0  0  0  0  0  0  0
    3.1215    4.5127    0.0000 H   0  0  0  0  0  0  0  0  0  0  0  0
    3.5200    3.8224    0.0000 H   0  0  0  0  0  0  0  0  0  0  0  0
    5.8626   -4.1200    0.0000 H   0  0  0  0  0  0  0  0  0  0  0  0
    5.0656   -4.1200    0.0000 H   0  0  0  0  0  0  0  0  0  0  0  0
    3.1951   -4.9050    0.0000 H   0  0  0  0  0  0  0  0  0  0  0  0
    6.3301   -5.7150    0.0000 H   0  0  0  0  0  0  0  0  0  0  0  0
    4.5981   -5.7150    0.0000 H   0  0  0  0  0  0  0  0  0  0  0  0
    3.1951    5.7150    0.0000 H   0  0  0  0  0  0  0  0  0  0  0  0
  1 13  2  0  0  0  0
  2 23  1  0  0  0  0
  2 68  1  0  0  0  0
  3 13  1  0  0  0  0
  3 19  1  0  0  0  0
  3 49  1  0  0  0  0
  4  5  1  0  0  0  0
  4  6  1  0  0  0  0
  4 28  1  0  0  0  0
  4 29  1  0  0  0  0
  5  7  1  0  0  0  0
  5 30  1  0  0  0  0
  5 31  1  0  0  0  0
  6  8  1  0  0  0  0
  6 32  1  0  0  0  0
  6 33  1  0  0  0  0
  7 13  1  0  0  0  0
  7 34  1  0  0  0  0
  7 35  1  0  0  0  0
  8 14  1  0  0  0  0
  8 36  1  0  0  0  0
  8 37  1  0  0  0  0
  9 10  1  0  0  0  0
  9 11  1  0  0  0  0
  9 38  1  0  0  0  0
  9 39  1  0  0  0  0
 10 12  1  0  0  0  0
 10 40  1  0  0  0  0
 10 41  1  0  0  0  0
 11 16  1  0  0  0  0
 11 42  1  0  0  0  0
 11 43  1  0  0  0  0
 12 17  1  0  0  0  0
 12 44  1  0  0  0  0
 12 45  1  0  0  0  0
 14 15  2  0  0  0  0
 14 46  1  0  0  0  0
 15 18  1  0  0  0  0
 15 48  1  0  0  0  0
 16 20  2  0  0  0  0
 16 47  1  0  0  0  0
 17 50  1  0  0  0  0
 17 51  1  0  0  0  0
 17 52  1  0  0  0  0
 18 22  1  0  0  0  0
 18 53  1  0  0  0  0
 18 54  1  0  0  0  0
 19 23  1  0  0  0  0
 19 55  1  0  0  0  0
 19 56  1  0  0  0  0
 20 21  1  0  0  0  0
 20 57  1  0  0  0  0
 21 25  1  0  0  0  0
 21 58  1  0  0  0  0
 21 59  1  0  0  0  0
 22 26  2  0  0  0  0
 22 60  1  0  0  0  0
 23 61  1  0  0  0  0
 23 62  1  0  0  0  0
 24 26  1  0  0  0  0
 24 27  1  0  0  0  0
 24 63  1  0  0  0  0
 24 64  1  0  0  0  0
 25 27  2  0  0  0  0
 25 65  1  0  0  0  0
 26 66  1  0  0  0  0
 27 67  1  0  0  0  0
M  END
> <PUBCHEM_COMPOUND_CID>
5282273

> <PUBCHEM_COMPOUND_CANONICALIZED>
1

> <PUBCHEM_CACTVS_COMPLEXITY>
436

> <PUBCHEM_CACTVS_HBOND_ACCEPTOR>
2

> <PUBCHEM_CACTVS_HBOND_DONOR>
2

> <PUBCHEM_CACTVS_ROTATABLE_BOND>
18

> <PUBCHEM_CACTVS_SUBSKEYS>
AAADcfB6MAAAAAAAAAAAAAAAAAAAAAAAAAAAAAAAAAAAAAAAAAAAHgAQCAAACADhgAYCAALAAgCIACFSEAAAAAAgAAAICIEIAAgCEBIAgQAEAAAAlgCYAAMYiACAAAAAAAAAAAAAAAAAAAAAAAAAAAAAAA==

> <PUBCHEM_IUPAC_OPENEYE_NAME>
(7Z,10Z,13Z,16Z)-N-(2-hydroxyethyl)docosa-7,10,13,16-tetraenamide

> <PUBCHEM_IUPAC_CAS_NAME>
(7Z,10Z,13Z,16Z)-N-(2-hydroxyethyl)docosa-7,10,13,16-tetraenamide

> <PUBCHEM_IUPAC_NAME>
(7Z,10Z,13Z,16Z)-N-(2-hydroxyethyl)docosa-7,10,13,16-tetraenamide

> <PUBCHEM_IUPAC_SYSTEMATIC_NAME>
(7Z,10Z,13Z,16Z)-N-(2-hydroxyethyl)docosa-7,10,13,16-tetraenamide

> <PUBCHEM_IUPAC_TRADITIONAL_NAME>
(7Z,10Z,13Z,16Z)-N-(2-hydroxyethyl)docosa-7,10,13,16-tetraenamide

> <PUBCHEM_IUPAC_INCHI>
InChI=1S/C24H41NO2/c1-2-3-4-5-6-7-8-9-10-11-12-13-14-15-16-17-18-19-20-21-24(27)25-22-23-26/h6-7,9-10,12-13,15-16,26H,2-5,8,11,14,17-23H2,1H3,(H,25,27)/b7-6-,10-9-,13-12-,16-15-

> <PUBCHEM_IUPAC_INCHIKEY>
FMVHVRYFQIXOAF-DOFZRALJSA-N

> <PUBCHEM_XLOGP3_AA>
6.4

> <PUBCHEM_EXACT_MASS>
375.31373

> <PUBCHEM_MOLECULAR_FORMULA>
C24H41NO2

> <PUBCHEM_MOLECULAR_WEIGHT>
375.58784

> <PUBCHEM_OPENEYE_CAN_SMILES>
CCCCCC=CCC=CCC=CCC=CCCCCCC(=O)NCCO

> <PUBCHEM_OPENEYE_ISO_SMILES>
CCCCC/C=C\C/C=C\C/C=C\C/C=C\CCCCCC(=O)NCCO

> <PUBCHEM_CACTVS_TPSA>
49.3

> <PUBCHEM_MONOISOTOPIC_WEIGHT>
375.31373

> <PUBCHEM_TOTAL_CHARGE>
0

> <PUBCHEM_HEAVY_ATOM_COUNT>
27

> <PUBCHEM_ATOM_DEF_STEREO_COUNT>
0

> <PUBCHEM_ATOM_UDEF_STEREO_COUNT>
0

> <PUBCHEM_BOND_DEF_STEREO_COUNT>
4

> <PUBCHEM_BOND_UDEF_STEREO_COUNT>
0

> <PUBCHEM_ISOTOPIC_ATOM_COUNT>
0

> <PUBCHEM_COMPONENT_COUNT>
1

> <PUBCHEM_CACTVS_TAUTO_COUNT>
2

> <PUBCHEM_COORDINATE_TYPE>
1
5
255

$$$$

