5280650
  -OEChem-07051212492D

130129  0     1  0  0  0  0  0999 V2000
   34.0429   -0.1415    0.0000 P   0  0  3  0  0  0  0  0  0  0  0  0
   35.7750   -0.1415    0.0000 P   0  0  0  0  0  0  0  0  0  0  0  0
   33.1769   -0.6415    0.0000 O   0  0  0  0  0  0  0  0  0  0  0  0
   34.9090    0.3585    0.0000 O   0  0  0  0  0  0  0  0  0  0  0  0
   33.5429    0.7245    0.0000 O   0  0  0  0  0  0  0  0  0  0  0  0
   34.5429   -1.0075    0.0000 O   0  0  0  0  0  0  0  0  0  0  0  0
   36.6410   -0.6415    0.0000 O   0  0  0  0  0  0  0  0  0  0  0  0
   36.2750    0.7245    0.0000 O   0  0  0  0  0  0  0  0  0  0  0  0
   35.2750   -1.0075    0.0000 O   0  0  0  0  0  0  0  0  0  0  0  0
   19.3205   -0.6415    0.0000 C   0  0  0  0  0  0  0  0  0  0  0  0
   15.8564   -0.6415    0.0000 C   0  0  0  0  0  0  0  0  0  0  0  0
   18.4545   -0.1415    0.0000 C   0  0  0  0  0  0  0  0  0  0  0  0
   14.9904   -0.1415    0.0000 C   0  0  0  0  0  0  0  0  0  0  0  0
   12.3923   -0.6415    0.0000 C   0  0  0  0  0  0  0  0  0  0  0  0
   22.7846   -0.6415    0.0000 C   0  0  0  0  0  0  0  0  0  0  0  0
   21.9186   -0.1415    0.0000 C   0  0  0  0  0  0  0  0  0  0  0  0
   16.7224   -0.1415    0.0000 C   0  0  0  0  0  0  0  0  0  0  0  0
   20.1865   -0.1415    0.0000 C   0  0  0  0  0  0  0  0  0  0  0  0
   11.5263   -0.1415    0.0000 C   0  0  0  0  0  0  0  0  0  0  0  0
   13.2583   -0.1415    0.0000 C   0  0  0  0  0  0  0  0  0  0  0  0
   23.6506   -0.1415    0.0000 C   0  0  0  0  0  0  0  0  0  0  0  0
   17.5885   -0.6415    0.0000 C   0  0  0  0  0  0  0  0  0  0  0  0
   25.3827   -0.1415    0.0000 C   0  0  0  0  0  0  0  0  0  0  0  0
    8.9282   -0.6415    0.0000 C   0  0  0  0  0  0  0  0  0  0  0  0
   14.1244   -0.6415    0.0000 C   0  0  0  0  0  0  0  0  0  0  0  0
   21.0526   -0.6415    0.0000 C   0  0  0  0  0  0  0  0  0  0  0  0
   26.2487   -0.6415    0.0000 C   0  0  0  0  0  0  0  0  0  0  0  0
    9.7942   -0.1415    0.0000 C   0  0  0  0  0  0  0  0  0  0  0  0
    8.0622   -0.1415    0.0000 C   0  0  0  0  0  0  0  0  0  0  0  0
   10.6603   -0.6415    0.0000 C   0  0  0  0  0  0  0  0  0  0  0  0
   24.5167   -0.6415    0.0000 C   0  0  0  0  0  0  0  0  0  0  0  0
   27.1147   -0.1415    0.0000 C   0  0  0  0  0  0  0  0  0  0  0  0
   16.7224    0.8585    0.0000 C   0  0  0  0  0  0  0  0  0  0  0  0
   20.1865    0.8585    0.0000 C   0  0  0  0  0  0  0  0  0  0  0  0
   13.2583    0.8585    0.0000 C   0  0  0  0  0  0  0  0  0  0  0  0
    7.1962   -0.6415    0.0000 C   0  0  0  0  0  0  0  0  0  0  0  0
   28.8468   -0.1415    0.0000 C   0  0  0  0  0  0  0  0  0  0  0  0
    6.3301   -0.1415    0.0000 C   0  0  0  0  0  0  0  0  0  0  0  0
   27.9808   -0.6415    0.0000 C   0  0  0  0  0  0  0  0  0  0  0  0
   23.6506    0.8585    0.0000 C   0  0  0  0  0  0  0  0  0  0  0  0
    5.4641   -0.6415    0.0000 C   0  0  0  0  0  0  0  0  0  0  0  0
   29.7128   -0.6415    0.0000 C   0  0  0  0  0  0  0  0  0  0  0  0
    9.7942    0.8585    0.0000 C   0  0  0  0  0  0  0  0  0  0  0  0
   27.1147    0.8585    0.0000 C   0  0  0  0  0  0  0  0  0  0  0  0
    4.5981   -0.1415    0.0000 C   0  0  0  0  0  0  0  0  0  0  0  0
   30.5788   -0.1415    0.0000 C   0  0  0  0  0  0  0  0  0  0  0  0
    6.3301    0.8585    0.0000 C   0  0  0  0  0  0  0  0  0  0  0  0
    3.7320   -0.6415    0.0000 C   0  0  0  0  0  0  0  0  0  0  0  0
   30.5788    0.8585    0.0000 C   0  0  0  0  0  0  0  0  0  0  0  0
   31.4449   -0.6415    0.0000 C   0  0  0  0  0  0  0  0  0  0  0  0
    2.8660   -0.1415    0.0000 C   0  0  0  0  0  0  0  0  0  0  0  0
   32.3109   -0.1415    0.0000 C   0  0  0  0  0  0  0  0  0  0  0  0
    2.0000   -0.6415    0.0000 C   0  0  0  0  0  0  0  0  0  0  0  0
    2.8660    0.8585    0.0000 C   0  0  0  0  0  0  0  0  0  0  0  0
   18.9220   -1.1164    0.0000 H   0  0  0  0  0  0  0  0  0  0  0  0
   19.7190   -1.1164    0.0000 H   0  0  0  0  0  0  0  0  0  0  0  0
   15.4579   -1.1164    0.0000 H   0  0  0  0  0  0  0  0  0  0  0  0
   16.2549   -1.1164    0.0000 H   0  0  0  0  0  0  0  0  0  0  0  0
   18.8530    0.3335    0.0000 H   0  0  0  0  0  0  0  0  0  0  0  0
   18.0560    0.3335    0.0000 H   0  0  0  0  0  0  0  0  0  0  0  0
   15.3889    0.3335    0.0000 H   0  0  0  0  0  0  0  0  0  0  0  0
   14.5919    0.3335    0.0000 H   0  0  0  0  0  0  0  0  0  0  0  0
   11.9938   -1.1164    0.0000 H   0  0  0  0  0  0  0  0  0  0  0  0
   12.7908   -1.1164    0.0000 H   0  0  0  0  0  0  0  0  0  0  0  0
   22.3861   -1.1164    0.0000 H   0  0  0  0  0  0  0  0  0  0  0  0
   23.1831   -1.1164    0.0000 H   0  0  0  0  0  0  0  0  0  0  0  0
   22.3171    0.3335    0.0000 H   0  0  0  0  0  0  0  0  0  0  0  0
   21.5201    0.3335    0.0000 H   0  0  0  0  0  0  0  0  0  0  0  0
   11.9248    0.3335    0.0000 H   0  0  0  0  0  0  0  0  0  0  0  0
   11.1278    0.3335    0.0000 H   0  0  0  0  0  0  0  0  0  0  0  0
   17.5885   -1.2615    0.0000 H   0  0  0  0  0  0  0  0  0  0  0  0
   25.7812    0.3335    0.0000 H   0  0  0  0  0  0  0  0  0  0  0  0
   24.9842    0.3335    0.0000 H   0  0  0  0  0  0  0  0  0  0  0  0
    8.5297   -1.1164    0.0000 H   0  0  0  0  0  0  0  0  0  0  0  0
    9.3267   -1.1164    0.0000 H   0  0  0  0  0  0  0  0  0  0  0  0
   14.1244   -1.2615    0.0000 H   0  0  0  0  0  0  0  0  0  0  0  0
   21.0526   -1.2615    0.0000 H   0  0  0  0  0  0  0  0  0  0  0  0
   25.8502   -1.1164    0.0000 H   0  0  0  0  0  0  0  0  0  0  0  0
   26.6472   -1.1164    0.0000 H   0  0  0  0  0  0  0  0  0  0  0  0
    8.4607    0.3335    0.0000 H   0  0  0  0  0  0  0  0  0  0  0  0
    7.6636    0.3335    0.0000 H   0  0  0  0  0  0  0  0  0  0  0  0
   10.6603   -1.2615    0.0000 H   0  0  0  0  0  0  0  0  0  0  0  0
   24.5167   -1.2615    0.0000 H   0  0  0  0  0  0  0  0  0  0  0  0
   17.3424    0.8585    0.0000 H   0  0  0  0  0  0  0  0  0  0  0  0
   16.7224    1.4785    0.0000 H   0  0  0  0  0  0  0  0  0  0  0  0
   16.1024    0.8585    0.0000 H   0  0  0  0  0  0  0  0  0  0  0  0
   20.8065    0.8585    0.0000 H   0  0  0  0  0  0  0  0  0  0  0  0
   20.1865    1.4785    0.0000 H   0  0  0  0  0  0  0  0  0  0  0  0
   19.5665    0.8585    0.0000 H   0  0  0  0  0  0  0  0  0  0  0  0
   13.8783    0.8585    0.0000 H   0  0  0  0  0  0  0  0  0  0  0  0
   13.2583    1.4785    0.0000 H   0  0  0  0  0  0  0  0  0  0  0  0
   12.6383    0.8585    0.0000 H   0  0  0  0  0  0  0  0  0  0  0  0
    7.1962   -1.2615    0.0000 H   0  0  0  0  0  0  0  0  0  0  0  0
   29.2453    0.3335    0.0000 H   0  0  0  0  0  0  0  0  0  0  0  0
   28.4483    0.3335    0.0000 H   0  0  0  0  0  0  0  0  0  0  0  0
   27.9808   -1.2615    0.0000 H   0  0  0  0  0  0  0  0  0  0  0  0
   24.2706    0.8585    0.0000 H   0  0  0  0  0  0  0  0  0  0  0  0
   23.6506    1.4785    0.0000 H   0  0  0  0  0  0  0  0  0  0  0  0
   23.0306    0.8585    0.0000 H   0  0  0  0  0  0  0  0  0  0  0  0
    5.0656   -1.1164    0.0000 H   0  0  0  0  0  0  0  0  0  0  0  0
    5.8626   -1.1164    0.0000 H   0  0  0  0  0  0  0  0  0  0  0  0
   29.3143   -1.1164    0.0000 H   0  0  0  0  0  0  0  0  0  0  0  0
   30.1113   -1.1164    0.0000 H   0  0  0  0  0  0  0  0  0  0  0  0
   10.4142    0.8585    0.0000 H   0  0  0  0  0  0  0  0  0  0  0  0
    9.7942    1.4785    0.0000 H   0  0  0  0  0  0  0  0  0  0  0  0
    9.1742    0.8585    0.0000 H   0  0  0  0  0  0  0  0  0  0  0  0
   27.7347    0.8585    0.0000 H   0  0  0  0  0  0  0  0  0  0  0  0
   27.1147    1.4785    0.0000 H   0  0  0  0  0  0  0  0  0  0  0  0
   26.4947    0.8585    0.0000 H   0  0  0  0  0  0  0  0  0  0  0  0
    4.9966    0.3335    0.0000 H   0  0  0  0  0  0  0  0  0  0  0  0
    4.1996    0.3335    0.0000 H   0  0  0  0  0  0  0  0  0  0  0  0
    6.9501    0.8585    0.0000 H   0  0  0  0  0  0  0  0  0  0  0  0
    6.3301    1.4785    0.0000 H   0  0  0  0  0  0  0  0  0  0  0  0
    5.7101    0.8585    0.0000 H   0  0  0  0  0  0  0  0  0  0  0  0
    3.7320   -1.2615    0.0000 H   0  0  0  0  0  0  0  0  0  0  0  0
   31.1988    0.8585    0.0000 H   0  0  0  0  0  0  0  0  0  0  0  0
   30.5788    1.4785    0.0000 H   0  0  0  0  0  0  0  0  0  0  0  0
   29.9588    0.8585    0.0000 H   0  0  0  0  0  0  0  0  0  0  0  0
   31.4449   -1.2615    0.0000 H   0  0  0  0  0  0  0  0  0  0  0  0
   32.7094    0.3335    0.0000 H   0  0  0  0  0  0  0  0  0  0  0  0
   31.9124    0.3335    0.0000 H   0  0  0  0  0  0  0  0  0  0  0  0
    1.6900   -0.1045    0.0000 H   0  0  0  0  0  0  0  0  0  0  0  0
    1.4631   -0.9515    0.0000 H   0  0  0  0  0  0  0  0  0  0  0  0
    2.3100   -1.1784    0.0000 H   0  0  0  0  0  0  0  0  0  0  0  0
    3.4860    0.8585    0.0000 H   0  0  0  0  0  0  0  0  0  0  0  0
    2.8660    1.4785    0.0000 H   0  0  0  0  0  0  0  0  0  0  0  0
    2.2460    0.8585    0.0000 H   0  0  0  0  0  0  0  0  0  0  0  0
   33.8529    1.2615    0.0000 H   0  0  0  0  0  0  0  0  0  0  0  0
   37.1780   -0.3315    0.0000 H   0  0  0  0  0  0  0  0  0  0  0  0
   35.9650    1.2615    0.0000 H   0  0  0  0  0  0  0  0  0  0  0  0
  1  3  1  0  0  0  0
  1  4  1  0  0  0  0
  1  5  1  0  0  0  0
  1  6  2  0  0  0  0
  2  4  1  0  0  0  0
  2  7  1  0  0  0  0
  2  8  1  0  0  0  0
  2  9  2  0  0  0  0
  3 52  1  0  0  0  0
  5128  1  0  0  0  0
  7129  1  0  0  0  0
  8130  1  0  0  0  0
 10 12  1  0  0  0  0
 10 18  1  0  0  0  0
 10 55  1  0  0  0  0
 10 56  1  0  0  0  0
 11 13  1  0  0  0  0
 11 17  1  0  0  0  0
 11 57  1  0  0  0  0
 11 58  1  0  0  0  0
 12 22  1  0  0  0  0
 12 59  1  0  0  0  0
 12 60  1  0  0  0  0
 13 25  1  0  0  0  0
 13 61  1  0  0  0  0
 13 62  1  0  0  0  0
 14 19  1  0  0  0  0
 14 20  1  0  0  0  0
 14 63  1  0  0  0  0
 14 64  1  0  0  0  0
 15 16  1  0  0  0  0
 15 21  1  0  0  0  0
 15 65  1  0  0  0  0
 15 66  1  0  0  0  0
 16 26  1  0  0  0  0
 16 67  1  0  0  0  0
 16 68  1  0  0  0  0
 17 22  2  0  0  0  0
 17 33  1  0  0  0  0
 18 26  2  0  0  0  0
 18 34  1  0  0  0  0
 19 30  1  0  0  0  0
 19 69  1  0  0  0  0
 19 70  1  0  0  0  0
 20 25  2  0  0  0  0
 20 35  1  0  0  0  0
 21 31  2  0  0  0  0
 21 40  1  0  0  0  0
 22 71  1  0  0  0  0
 23 27  1  0  0  0  0
 23 31  1  0  0  0  0
 23 72  1  0  0  0  0
 23 73  1  0  0  0  0
 24 28  1  0  0  0  0
 24 29  1  0  0  0  0
 24 74  1  0  0  0  0
 24 75  1  0  0  0  0
 25 76  1  0  0  0  0
 26 77  1  0  0  0  0
 27 32  1  0  0  0  0
 27 78  1  0  0  0  0
 27 79  1  0  0  0  0
 28 30  2  0  0  0  0
 28 43  1  0  0  0  0
 29 36  1  0  0  0  0
 29 80  1  0  0  0  0
 29 81  1  0  0  0  0
 30 82  1  0  0  0  0
 31 83  1  0  0  0  0
 32 39  2  0  0  0  0
 32 44  1  0  0  0  0
 33 84  1  0  0  0  0
 33 85  1  0  0  0  0
 33 86  1  0  0  0  0
 34 87  1  0  0  0  0
 34 88  1  0  0  0  0
 34 89  1  0  0  0  0
 35 90  1  0  0  0  0
 35 91  1  0  0  0  0
 35 92  1  0  0  0  0
 36 38  2  0  0  0  0
 36 93  1  0  0  0  0
 37 39  1  0  0  0  0
 37 42  1  0  0  0  0
 37 94  1  0  0  0  0
 37 95  1  0  0  0  0
 38 41  1  0  0  0  0
 38 47  1  0  0  0  0
 39 96  1  0  0  0  0
 40 97  1  0  0  0  0
 40 98  1  0  0  0  0
 40 99  1  0  0  0  0
 41 45  1  0  0  0  0
 41100  1  0  0  0  0
 41101  1  0  0  0  0
 42 46  1  0  0  0  0
 42102  1  0  0  0  0
 42103  1  0  0  0  0
 43104  1  0  0  0  0
 43105  1  0  0  0  0
 43106  1  0  0  0  0
 44107  1  0  0  0  0
 44108  1  0  0  0  0
 44109  1  0  0  0  0
 45 48  1  0  0  0  0
 45110  1  0  0  0  0
 45111  1  0  0  0  0
 46 49  1  0  0  0  0
 46 50  2  0  0  0  0
 47112  1  0  0  0  0
 47113  1  0  0  0  0
 47114  1  0  0  0  0
 48 51  2  0  0  0  0
 48115  1  0  0  0  0
 49116  1  0  0  0  0
 49117  1  0  0  0  0
 49118  1  0  0  0  0
 50 52  1  0  0  0  0
 50119  1  0  0  0  0
 51 53  1  0  0  0  0
 51 54  1  0  0  0  0
 52120  1  0  0  0  0
 52121  1  0  0  0  0
 53122  1  0  0  0  0
 53123  1  0  0  0  0
 53124  1  0  0  0  0
 54125  1  0  0  0  0
 54126  1  0  0  0  0
 54127  1  0  0  0  0
M  END
> <PUBCHEM_COMPOUND_CID>
5280650

> <PUBCHEM_COMPOUND_CANONICALIZED>
1

> <PUBCHEM_CACTVS_COMPLEXITY>
1470

> <PUBCHEM_CACTVS_HBOND_ACCEPTOR>
7

> <PUBCHEM_CACTVS_HBOND_DONOR>
3

> <PUBCHEM_CACTVS_ROTATABLE_BOND>
29

> <PUBCHEM_CACTVS_SUBSKEYS>
AAADcfB8OAMAAAAAAAAAAAAAAAAAAAAAAAAAAAAAAAAAAAAAAAAAGgAACCAADACggAICAAAAARCAQiBCAIAAAAAgAAAACAAAAAgABAIAAQAAEAAAgAAIAAIAAAAAAAAAAAAAAAAAAAAAAAAAAAAAAAAAAA==

> <PUBCHEM_IUPAC_OPENEYE_NAME>
[(2E,6E,10E,14E,18E,22E,26E,30E)-3,7,11,15,19,23,27,31,35-nonamethylhexatriaconta-2,6,10,14,18,22,26,30,34-nonaenyl] phosphono hydrogen phosphate

> <PUBCHEM_IUPAC_CAS_NAME>
[(2E,6E,10E,14E,18E,22E,26E,30E)-3,7,11,15,19,23,27,31,35-nonamethylhexatriaconta-2,6,10,14,18,22,26,30,34-nonaenyl] phosphono hydrogen phosphate

> <PUBCHEM_IUPAC_NAME>
[(2E,6E,10E,14E,18E,22E,26E,30E)-3,7,11,15,19,23,27,31,35-nonamethylhexatriaconta-2,6,10,14,18,22,26,30,34-nonaenyl] phosphono hydrogen phosphate

> <PUBCHEM_IUPAC_SYSTEMATIC_NAME>
[(2E,6E,10E,14E,18E,22E,26E,30E)-3,7,11,15,19,23,27,31,35-nonamethylhexatriaconta-2,6,10,14,18,22,26,30,34-nonaenyl] phosphono hydrogen phosphate

> <PUBCHEM_IUPAC_TRADITIONAL_NAME>
[(2E,6E,10E,14E,18E,22E,26E,30E)-3,7,11,15,19,23,27,31,35-nonamethylhexatriaconta-2,6,10,14,18,22,26,30,34-nonaenyl] phosphono hydrogen phosphate

> <PUBCHEM_IUPAC_INCHI>
InChI=1S/C45H76O7P2/c1-37(2)19-11-20-38(3)21-12-22-39(4)23-13-24-40(5)25-14-26-41(6)27-15-28-42(7)29-16-30-43(8)31-17-32-44(9)33-18-34-45(10)35-36-51-54(49,50)52-53(46,47)48/h19,21,23,25,27,29,31,33,35H,11-18,20,22,24,26,28,30,32,34,36H2,1-10H3,(H,49,50)(H2,46,47,48)/b38-21+,39-23+,40-25+,41-27+,42-29+,43-31+,44-33+,45-35+

> <PUBCHEM_IUPAC_INCHIKEY>
IVLBHBFTRNVIAP-MEGGAXOGSA-N

> <PUBCHEM_XLOGP3_AA>
13.7

> <PUBCHEM_EXACT_MASS>
790.506628

> <PUBCHEM_MOLECULAR_FORMULA>
C45H76O7P2

> <PUBCHEM_MOLECULAR_WEIGHT>
791.028264

> <PUBCHEM_OPENEYE_CAN_SMILES>
CC(=CCCC(=CCCC(=CCCC(=CCCC(=CCCC(=CCCC(=CCCC(=CCCC(=CCOP(=O)(O)OP(=O)(O)O)C)C)C)C)C)C)C)C)C

> <PUBCHEM_OPENEYE_ISO_SMILES>
CC(=CCC/C(=C/CC/C(=C/CC/C(=C/CC/C(=C/CC/C(=C/CC/C(=C/CC/C(=C/CC/C(=C/COP(=O)(O)OP(=O)(O)O)/C)/C)/C)/C)/C)/C)/C)/C)C

> <PUBCHEM_CACTVS_TPSA>
113

> <PUBCHEM_MONOISOTOPIC_WEIGHT>
790.506628

> <PUBCHEM_TOTAL_CHARGE>
0

> <PUBCHEM_HEAVY_ATOM_COUNT>
54

> <PUBCHEM_ATOM_DEF_STEREO_COUNT>
0

> <PUBCHEM_ATOM_UDEF_STEREO_COUNT>
0

> <PUBCHEM_BOND_DEF_STEREO_COUNT>
8

> <PUBCHEM_BOND_UDEF_STEREO_COUNT>
0

> <PUBCHEM_ISOTOPIC_ATOM_COUNT>
0

> <PUBCHEM_COMPONENT_COUNT>
1

> <PUBCHEM_CACTVS_TAUTO_COUNT>
1

> <PUBCHEM_COORDINATE_TYPE>
1
5
255

$$$$

