854099
  -OEChem-06241222472D

 36 38  0     1  0  0  0  0  0999 V2000
    2.7588   -0.9155    0.0000 O   0  0  0  0  0  0  0  0  0  0  0  0
    5.4568    1.7575    0.0000 N   0  0  0  0  0  0  0  0  0  0  0  0
    5.1980    0.7916    0.0000 C   0  0  0  0  0  0  0  0  0  0  0  0
    3.4659   -0.2084    0.0000 C   0  0  2  0  0  0  0  0  0  0  0  0
    4.2202    2.6062    0.0000 C   0  0  0  0  0  0  0  0  0  0  0  0
    7.0299    0.0328    0.0000 C   0  0  0  0  0  0  0  0  0  0  0  0
    5.0862    3.1062    0.0000 C   0  0  0  0  0  0  0  0  0  0  0  0
    7.2888    0.9987    0.0000 C   0  0  0  0  0  0  0  0  0  0  0  0
    2.9659    0.6576    0.0000 C   0  0  0  0  0  0  0  0  0  0  0  0
    3.7247   -1.1743    0.0000 C   0  0  0  0  0  0  0  0  0  0  0  0
    2.0000    0.9165    0.0000 C   0  0  0  0  0  0  0  0  0  0  0  0
    3.0176   -1.8814    0.0000 C   0  0  0  0  0  0  0  0  0  0  0  0
    4.6907   -1.4331    0.0000 C   0  0  0  0  0  0  0  0  0  0  0  0
    3.2765   -2.8474    0.0000 C   0  0  0  0  0  0  0  0  0  0  0  0
    2.0517   -1.6226    0.0000 C   0  0  0  0  0  0  0  0  0  0  0  0
    4.9495   -2.3991    0.0000 C   0  0  0  0  0  0  0  0  0  0  0  0
    4.2424   -3.1062    0.0000 C   0  0  0  0  0  0  0  0  0  0  0  0
    5.2385    0.1729    0.0000 H   0  0  0  0  0  0  0  0  0  0  0  0
    6.8179   -0.5498    0.0000 H   0  0  0  0  0  0  0  0  0  0  0  0
    7.6212   -0.1537    0.0000 H   0  0  0  0  0  0  0  0  0  0  0  0
    3.9154    3.1461    0.0000 H   0  0  0  0  0  0  0  0  0  0  0  0
    3.6773    2.3067    0.0000 H   0  0  0  0  0  0  0  0  0  0  0  0
    7.8800    0.8123    0.0000 H   0  0  0  0  0  0  0  0  0  0  0  0
    7.5008    1.5813    0.0000 H   0  0  0  0  0  0  0  0  0  0  0  0
    5.6679    3.3207    0.0000 H   0  0  0  0  0  0  0  0  0  0  0  0
    4.8230    3.6675    0.0000 H   0  0  0  0  0  0  0  0  0  0  0  0
    2.1599   -0.7550    0.0000 H   0  0  0  0  0  0  0  0  0  0  0  0
    1.8395    1.5153    0.0000 H   0  0  0  0  0  0  0  0  0  0  0  0
    1.5616    0.4780    0.0000 H   0  0  0  0  0  0  0  0  0  0  0  0
    5.1291   -0.9947    0.0000 H   0  0  0  0  0  0  0  0  0  0  0  0
    2.8380   -3.2858    0.0000 H   0  0  0  0  0  0  0  0  0  0  0  0
    2.2122   -1.0237    0.0000 H   0  0  0  0  0  0  0  0  0  0  0  0
    1.4528   -1.4621    0.0000 H   0  0  0  0  0  0  0  0  0  0  0  0
    1.8912   -2.2215    0.0000 H   0  0  0  0  0  0  0  0  0  0  0  0
    5.5484   -2.5595    0.0000 H   0  0  0  0  0  0  0  0  0  0  0  0
    4.4028   -3.7050    0.0000 H   0  0  0  0  0  0  0  0  0  0  0  0
  4  1  1  1  0  0  0
  1 27  1  0  0  0  0
  2  7  1  0  0  0  0
  2  8  1  0  0  0  0
  2  9  1  0  0  0  0
  3  4  1  0  0  0  0
  3  5  1  0  0  0  0
  3  6  1  0  0  0  0
  3 18  1  0  0  0  0
  4  9  1  0  0  0  0
  4 10  1  0  0  0  0
  5  7  1  0  0  0  0
  5 21  1  0  0  0  0
  5 22  1  0  0  0  0
  6  8  1  0  0  0  0
  6 19  1  0  0  0  0
  6 20  1  0  0  0  0
  7 25  1  0  0  0  0
  7 26  1  0  0  0  0
  8 23  1  0  0  0  0
  8 24  1  0  0  0  0
  9 11  2  0  0  0  0
 10 12  1  0  0  0  0
 10 13  2  0  0  0  0
 11 28  1  0  0  0  0
 11 29  1  0  0  0  0
 12 14  2  0  0  0  0
 12 15  1  0  0  0  0
 13 16  1  0  0  0  0
 13 30  1  0  0  0  0
 14 17  1  0  0  0  0
 14 31  1  0  0  0  0
 15 32  1  0  0  0  0
 15 33  1  0  0  0  0
 15 34  1  0  0  0  0
 16 17  2  0  0  0  0
 16 35  1  0  0  0  0
 17 36  1  0  0  0  0
M  END
> <PUBCHEM_COMPOUND_CID>
854099

> <PUBCHEM_COMPOUND_CANONICALIZED>
1

> <PUBCHEM_CACTVS_COMPLEXITY>
319

> <PUBCHEM_CACTVS_HBOND_ACCEPTOR>
2

> <PUBCHEM_CACTVS_HBOND_DONOR>
1

> <PUBCHEM_CACTVS_ROTATABLE_BOND>
1

> <PUBCHEM_CACTVS_SUBSKEYS>
AAADceByIAAAAAAAAAAAAAAAAAAAAAAAAAA8WLEAAAAAAAABAAAAHgAACAAADUzBmAQyAIMAAgCAAiRCQAACAAAgAgAIiAAICIgKJiKAkRGEcAAkwAGYmAewwOAOgAAAAAAQAAAAAAAAACAAAAAAAAAAAA==

> <PUBCHEM_IUPAC_OPENEYE_NAME>
(3S)-2-methylene-3-(o-tolyl)quinuclidin-3-ol

> <PUBCHEM_IUPAC_CAS_NAME>
(3S)-2-methylene-3-(2-methylphenyl)-1-azabicyclo[2.2.2]octan-3-ol

> <PUBCHEM_IUPAC_NAME>
(3S)-2-methylidene-3-(2-methylphenyl)-1-azabicyclo[2.2.2]octan-3-ol

> <PUBCHEM_IUPAC_SYSTEMATIC_NAME>
(3S)-2-methylidene-3-(2-methylphenyl)-1-azabicyclo[2.2.2]octan-3-ol

> <PUBCHEM_IUPAC_TRADITIONAL_NAME>
(3S)-2-methylene-3-(o-tolyl)quinuclidin-3-ol

> <PUBCHEM_IUPAC_INCHI>
InChI=1S/C15H19NO/c1-11-5-3-4-6-14(11)15(17)12(2)16-9-7-13(15)8-10-16/h3-6,13,17H,2,7-10H2,1H3/t15-/m0/s1

> <PUBCHEM_IUPAC_INCHIKEY>
PFKAJVHTQNHMGR-HNNXBMFYSA-N

> <PUBCHEM_XLOGP3_AA>
2.5

> <PUBCHEM_EXACT_MASS>
229.146664

> <PUBCHEM_MOLECULAR_FORMULA>
C15H19NO

> <PUBCHEM_MOLECULAR_WEIGHT>
229.31746

> <PUBCHEM_OPENEYE_CAN_SMILES>
CC1=CC=CC=C1C2(C3CCN(C2=C)CC3)O

> <PUBCHEM_OPENEYE_ISO_SMILES>
CC1=CC=CC=C1[C@]2(C3CCN(C2=C)CC3)O

> <PUBCHEM_CACTVS_TPSA>
23.5

> <PUBCHEM_MONOISOTOPIC_WEIGHT>
229.146664

> <PUBCHEM_TOTAL_CHARGE>
0

> <PUBCHEM_HEAVY_ATOM_COUNT>
17

> <PUBCHEM_ATOM_DEF_STEREO_COUNT>
1

> <PUBCHEM_ATOM_UDEF_STEREO_COUNT>
0

> <PUBCHEM_BOND_DEF_STEREO_COUNT>
0

> <PUBCHEM_BOND_UDEF_STEREO_COUNT>
0

> <PUBCHEM_ISOTOPIC_ATOM_COUNT>
0

> <PUBCHEM_COMPONENT_COUNT>
1

> <PUBCHEM_CACTVS_TAUTO_COUNT>
1

> <PUBCHEM_COORDINATE_TYPE>
1
5
255

> <PUBCHEM_BONDANNOTATIONS>
4  1  5
10  12  8
10  13  8
12  14  8
13  16  8
14  17  8
16  17  8

$$$$

