298659
  -OEChem-07051213042D

 36 38  0     0  0  0  0  0  0999 V2000
    2.0000   -1.0000    0.0000 Cl  0  0  0  0  0  0  0  0  0  0  0  0
    2.7320    0.0000    0.0000 O   0  0  0  0  0  0  0  0  0  0  0  0
    3.7320    0.0000    0.0000 C   0  0  0  0  0  0  0  0  0  0  0  0
    3.7320   -1.0000    0.0000 C   0  0  0  0  0  0  0  0  0  0  0  0
    3.7320    1.0000    0.0000 C   0  0  0  0  0  0  0  0  0  0  0  0
    4.7320    0.0000    0.0000 C   0  0  0  0  0  0  0  0  0  0  0  0
    2.8660   -1.5000    0.0000 C   0  0  0  0  0  0  0  0  0  0  0  0
    4.5981   -1.5000    0.0000 C   0  0  0  0  0  0  0  0  0  0  0  0
    4.5981    1.5000    0.0000 C   0  0  0  0  0  0  0  0  0  0  0  0
    5.2320   -0.8660    0.0000 C   0  0  0  0  0  0  0  0  0  0  0  0
    2.8660    1.5000    0.0000 C   0  0  0  0  0  0  0  0  0  0  0  0
    5.2320    0.8660    0.0000 C   0  0  0  0  0  0  0  0  0  0  0  0
    2.8660   -2.5000    0.0000 C   0  0  0  0  0  0  0  0  0  0  0  0
    4.5981   -2.5000    0.0000 C   0  0  0  0  0  0  0  0  0  0  0  0
    6.2320   -0.8660    0.0000 C   0  0  0  0  0  0  0  0  0  0  0  0
    4.5981    2.5000    0.0000 C   0  0  0  0  0  0  0  0  0  0  0  0
    2.8660    2.5000    0.0000 C   0  0  0  0  0  0  0  0  0  0  0  0
    6.2320    0.8660    0.0000 C   0  0  0  0  0  0  0  0  0  0  0  0
    3.7320   -3.0000    0.0000 C   0  0  0  0  0  0  0  0  0  0  0  0
    6.7320    0.0000    0.0000 C   0  0  0  0  0  0  0  0  0  0  0  0
    3.7320    3.0000    0.0000 C   0  0  0  0  0  0  0  0  0  0  0  0
    5.1350   -1.1900    0.0000 H   0  0  0  0  0  0  0  0  0  0  0  0
    5.1350    1.1900    0.0000 H   0  0  0  0  0  0  0  0  0  0  0  0
    4.9220   -1.4030    0.0000 H   0  0  0  0  0  0  0  0  0  0  0  0
    2.3291    1.1900    0.0000 H   0  0  0  0  0  0  0  0  0  0  0  0
    4.9220    1.4030    0.0000 H   0  0  0  0  0  0  0  0  0  0  0  0
    2.4220    0.5369    0.0000 H   0  0  0  0  0  0  0  0  0  0  0  0
    2.3291   -2.8100    0.0000 H   0  0  0  0  0  0  0  0  0  0  0  0
    5.1350   -2.8100    0.0000 H   0  0  0  0  0  0  0  0  0  0  0  0
    5.1350    2.8100    0.0000 H   0  0  0  0  0  0  0  0  0  0  0  0
    6.5420   -1.4030    0.0000 H   0  0  0  0  0  0  0  0  0  0  0  0
    2.3291    2.8100    0.0000 H   0  0  0  0  0  0  0  0  0  0  0  0
    6.5420    1.4030    0.0000 H   0  0  0  0  0  0  0  0  0  0  0  0
    3.7320   -3.6200    0.0000 H   0  0  0  0  0  0  0  0  0  0  0  0
    7.3520    0.0000    0.0000 H   0  0  0  0  0  0  0  0  0  0  0  0
    3.7320    3.6200    0.0000 H   0  0  0  0  0  0  0  0  0  0  0  0
  1  7  1  0  0  0  0
  2  3  1  0  0  0  0
  2 27  1  0  0  0  0
  3  4  1  0  0  0  0
  3  5  1  0  0  0  0
  3  6  1  0  0  0  0
  4  7  1  0  0  0  0
  4  8  2  0  0  0  0
  5  9  2  0  0  0  0
  5 11  1  0  0  0  0
  6 10  2  0  0  0  0
  6 12  1  0  0  0  0
  7 13  2  0  0  0  0
  8 14  1  0  0  0  0
  8 22  1  0  0  0  0
  9 16  1  0  0  0  0
  9 23  1  0  0  0  0
 10 15  1  0  0  0  0
 10 24  1  0  0  0  0
 11 17  2  0  0  0  0
 11 25  1  0  0  0  0
 12 18  2  0  0  0  0
 12 26  1  0  0  0  0
 13 19  1  0  0  0  0
 13 28  1  0  0  0  0
 14 19  2  0  0  0  0
 14 29  1  0  0  0  0
 15 20  2  0  0  0  0
 15 31  1  0  0  0  0
 16 21  2  0  0  0  0
 16 30  1  0  0  0  0
 17 21  1  0  0  0  0
 17 32  1  0  0  0  0
 18 20  1  0  0  0  0
 18 33  1  0  0  0  0
 19 34  1  0  0  0  0
 20 35  1  0  0  0  0
 21 36  1  0  0  0  0
M  END
> <PUBCHEM_COMPOUND_CID>
298659

> <PUBCHEM_COMPOUND_CANONICALIZED>
1

> <PUBCHEM_CACTVS_COMPLEXITY>
300

> <PUBCHEM_CACTVS_HBOND_ACCEPTOR>
1

> <PUBCHEM_CACTVS_HBOND_DONOR>
1

> <PUBCHEM_CACTVS_ROTATABLE_BOND>
3

> <PUBCHEM_CACTVS_SUBSKEYS>
AAADccB4IAAEAAAAAAAAAAAAAAAAAAAAAAAwYMAAAAAAAAABUAAAGgIACAAADEaAmCAwAIAAAgCAAiBCAAACAAAgBQAIiAAACogIJiKBExCAcAAkwAEImAeAwOAOgAAAAAABAAAAAAAAAAIAAAAAAAAAAA==

> <PUBCHEM_IUPAC_OPENEYE_NAME>
(2-chlorophenyl)-diphenyl-methanol

> <PUBCHEM_IUPAC_CAS_NAME>
(2-chlorophenyl)-diphenylmethanol

> <PUBCHEM_IUPAC_NAME>
(2-chlorophenyl)-diphenylmethanol

> <PUBCHEM_IUPAC_SYSTEMATIC_NAME>
(2-chlorophenyl)-diphenyl-methanol

> <PUBCHEM_IUPAC_TRADITIONAL_NAME>
(2-chlorophenyl)-diphenyl-methanol

> <PUBCHEM_IUPAC_INCHI>
InChI=1S/C19H15ClO/c20-18-14-8-7-13-17(18)19(21,15-9-3-1-4-10-15)16-11-5-2-6-12-16/h1-14,21H

> <PUBCHEM_IUPAC_INCHIKEY>
KTVAHLGKTSPDOG-UHFFFAOYSA-N

> <PUBCHEM_XLOGP3>
4.7

> <PUBCHEM_EXACT_MASS>
294.081143

> <PUBCHEM_MOLECULAR_FORMULA>
C19H15ClO

> <PUBCHEM_MOLECULAR_WEIGHT>
294.7748

> <PUBCHEM_OPENEYE_CAN_SMILES>
C1=CC=C(C=C1)C(C2=CC=CC=C2)(C3=CC=CC=C3Cl)O

> <PUBCHEM_OPENEYE_ISO_SMILES>
C1=CC=C(C=C1)C(C2=CC=CC=C2)(C3=CC=CC=C3Cl)O

> <PUBCHEM_CACTVS_TPSA>
20.2

> <PUBCHEM_MONOISOTOPIC_WEIGHT>
294.081143

> <PUBCHEM_TOTAL_CHARGE>
0

> <PUBCHEM_HEAVY_ATOM_COUNT>
21

> <PUBCHEM_ATOM_DEF_STEREO_COUNT>
0

> <PUBCHEM_ATOM_UDEF_STEREO_COUNT>
0

> <PUBCHEM_BOND_DEF_STEREO_COUNT>
0

> <PUBCHEM_BOND_UDEF_STEREO_COUNT>
0

> <PUBCHEM_ISOTOPIC_ATOM_COUNT>
0

> <PUBCHEM_COMPONENT_COUNT>
1

> <PUBCHEM_CACTVS_TAUTO_COUNT>
1

> <PUBCHEM_COORDINATE_TYPE>
1
5
255

> <PUBCHEM_BONDANNOTATIONS>
10  15  8
11  17  8
12  18  8
13  19  8
14  19  8
15  20  8
16  21  8
17  21  8
18  20  8
4  7  8
4  8  8
5  11  8
5  9  8
6  10  8
6  12  8
7  13  8
8  14  8
9  16  8

$$$$

