32817
  -OEChem-07051213032D

 14 14  0     0  0  0  0  0  0999 V2000
    6.0010    0.3450    0.0000 Cl  0  0  0  0  0  0  0  0  0  0  0  0
    2.5369   -1.6550    0.0000 Cl  0  0  0  0  0  0  0  0  0  0  0  0
    6.0010   -1.6550    0.0000 Cl  0  0  0  0  0  0  0  0  0  0  0  0
    4.2690    1.3450    0.0000 O   0  0  0  0  0  0  0  0  0  0  0  0
    2.5369    0.3450    0.0000 O   0  0  0  0  0  0  0  0  0  0  0  0
    4.2690    0.3450    0.0000 C   0  0  0  0  0  0  0  0  0  0  0  0
    3.4030   -0.1550    0.0000 C   0  0  0  0  0  0  0  0  0  0  0  0
    5.1350   -0.1550    0.0000 C   0  0  0  0  0  0  0  0  0  0  0  0
    3.4030   -1.1550    0.0000 C   0  0  0  0  0  0  0  0  0  0  0  0
    5.1350   -1.1550    0.0000 C   0  0  0  0  0  0  0  0  0  0  0  0
    4.2690   -1.6550    0.0000 C   0  0  0  0  0  0  0  0  0  0  0  0
    4.2690   -2.2750    0.0000 H   0  0  0  0  0  0  0  0  0  0  0  0
    4.8059    1.6550    0.0000 H   0  0  0  0  0  0  0  0  0  0  0  0
    2.0000    0.0350    0.0000 H   0  0  0  0  0  0  0  0  0  0  0  0
  1  8  1  0  0  0  0
  2  9  1  0  0  0  0
  3 10  1  0  0  0  0
  4  6  1  0  0  0  0
  4 13  1  0  0  0  0
  5  7  1  0  0  0  0
  5 14  1  0  0  0  0
  6  7  2  0  0  0  0
  6  8  1  0  0  0  0
  7  9  1  0  0  0  0
  8 10  2  0  0  0  0
  9 11  2  0  0  0  0
 10 11  1  0  0  0  0
 11 12  1  0  0  0  0
M  END
> <PUBCHEM_COMPOUND_CID>
32817

> <PUBCHEM_COMPOUND_CANONICALIZED>
1

> <PUBCHEM_CACTVS_COMPLEXITY>
144

> <PUBCHEM_CACTVS_HBOND_ACCEPTOR>
2

> <PUBCHEM_CACTVS_HBOND_DONOR>
2

> <PUBCHEM_CACTVS_ROTATABLE_BOND>
0

> <PUBCHEM_CACTVS_SUBSKEYS>
AAADcQBgMAAGAAAAAAAAAAAAAAAAAAAAAAAwAAAAAAAAAAABAAAAGgIACAAACAaAkCAwBoAAAgCAACBCAAACAAAgJUAAikAEi4gJJiKDEhKAcAEkwBEJmAeAQAAAACAQAQCASAQAQCACAQCQCAAAAAAAAA==

> <PUBCHEM_IUPAC_OPENEYE_NAME>
3,4,6-trichlorobenzene-1,2-diol

> <PUBCHEM_IUPAC_CAS_NAME>
3,4,6-trichlorobenzene-1,2-diol

> <PUBCHEM_IUPAC_NAME>
3,4,6-trichlorobenzene-1,2-diol

> <PUBCHEM_IUPAC_SYSTEMATIC_NAME>
3,4,6-tris(chloranyl)benzene-1,2-diol

> <PUBCHEM_IUPAC_TRADITIONAL_NAME>
3,4,6-trichloropyrocatechol

> <PUBCHEM_IUPAC_INCHI>
InChI=1S/C6H3Cl3O2/c7-2-1-3(8)5(10)6(11)4(2)9/h1,10-11H

> <PUBCHEM_IUPAC_INCHIKEY>
LZHZRJKVYOHNTJ-UHFFFAOYSA-N

> <PUBCHEM_XLOGP3>
3.5

> <PUBCHEM_EXACT_MASS>
211.919862

> <PUBCHEM_MOLECULAR_FORMULA>
C6H3Cl3O2

> <PUBCHEM_MOLECULAR_WEIGHT>
213.44582

> <PUBCHEM_OPENEYE_CAN_SMILES>
C1=C(C(=C(C(=C1Cl)Cl)O)O)Cl

> <PUBCHEM_OPENEYE_ISO_SMILES>
C1=C(C(=C(C(=C1Cl)Cl)O)O)Cl

> <PUBCHEM_CACTVS_TPSA>
40.5

> <PUBCHEM_MONOISOTOPIC_WEIGHT>
211.919862

> <PUBCHEM_TOTAL_CHARGE>
0

> <PUBCHEM_HEAVY_ATOM_COUNT>
11

> <PUBCHEM_ATOM_DEF_STEREO_COUNT>
0

> <PUBCHEM_ATOM_UDEF_STEREO_COUNT>
0

> <PUBCHEM_BOND_DEF_STEREO_COUNT>
0

> <PUBCHEM_BOND_UDEF_STEREO_COUNT>
0

> <PUBCHEM_ISOTOPIC_ATOM_COUNT>
0

> <PUBCHEM_COMPONENT_COUNT>
1

> <PUBCHEM_CACTVS_TAUTO_COUNT>
8

> <PUBCHEM_COORDINATE_TYPE>
1
5
255

> <PUBCHEM_BONDANNOTATIONS>
10  11  8
6  7  8
6  8  8
7  9  8
8  10  8
9  11  8

$$$$

