6857377
  -OEChem-07051212493D

 36 36  0     1  0  0  0  0  0999 V2000
    3.2775    0.5074   -0.1316 P   0  0  0  0  0  0  0  0  0  0  0  0
    2.0977   -0.4281    0.4463 O   0  0  0  0  0  0  0  0  0  0  0  0
    0.2480    1.8378    0.7850 O   0  0  0  0  0  0  0  0  0  0  0  0
   -0.6249   -2.5641   -0.6627 O   0  0  0  0  0  0  0  0  0  0  0  0
   -0.0114   -0.7727    2.4574 O   0  0  0  0  0  0  0  0  0  0  0  0
    4.1168   -0.4804   -1.0986 O   0  0  0  0  0  0  0  0  0  0  0  0
    4.2456    0.6825    1.1518 O   0  0  0  0  0  0  0  0  0  0  0  0
    2.8242    1.7909   -0.7633 O   0  0  0  0  0  0  0  0  0  0  0  0
   -0.3855   -0.0985   -2.2828 N   0  0  0  0  0  0  0  0  0  0  0  0
   -2.5837   -0.3140   -0.1054 N   0  0  0  0  0  0  0  0  0  0  0  0
   -4.7163    0.1379   -0.8675 N   0  0  0  0  0  0  0  0  0  0  0  0
   -3.7875    1.6567    0.5559 N   0  0  0  0  0  0  0  0  0  0  0  0
    0.3818    0.3099   -1.1033 C   0  0  2  0  0  0  0  0  0  0  0  0
    1.1036   -0.8964   -0.4658 C   0  0  2  0  0  0  0  0  0  0  0  0
   -0.5384    1.0358   -0.1009 C   0  0  1  0  0  0  0  0  0  0  0  0
   -1.4485    0.1131    0.7253 C   0  0  2  0  0  0  0  0  0  0  0  0
    0.1645   -1.8512    0.2854 C   0  0  1  0  0  0  0  0  0  0  0  0
   -0.7501   -1.1334    1.2901 C   0  0  1  0  0  0  0  0  0  0  0  0
   -3.6133    0.4668   -0.1152 C   0  0  0  0  0  0  0  0  0  0  0  0
    1.0718    1.0286   -1.5195 H   0  0  0  0  0  0  0  0  0  0  0  0
    1.6204   -1.4618   -1.2521 H   0  0  0  0  0  0  0  0  0  0  0  0
   -1.1583    1.7581   -0.6479 H   0  0  0  0  0  0  0  0  0  0  0  0
   -1.7895    0.6638    1.6113 H   0  0  0  0  0  0  0  0  0  0  0  0
    0.7719   -2.5899    0.8220 H   0  0  0  0  0  0  0  0  0  0  0  0
   -1.5238   -1.8368    1.6250 H   0  0  0  0  0  0  0  0  0  0  0  0
    0.2391   -0.5108   -2.9745 H   0  0  0  0  0  0  0  0  0  0  0  0
   -0.8067    0.7182   -2.7235 H   0  0  0  0  0  0  0  0  0  0  0  0
    0.7757    2.4469    0.2410 H   0  0  0  0  0  0  0  0  0  0  0  0
   -1.1970   -1.9262   -1.1217 H   0  0  0  0  0  0  0  0  0  0  0  0
    0.3736   -1.5862    2.8253 H   0  0  0  0  0  0  0  0  0  0  0  0
    4.8649   -0.1143   -1.6167 H   0  0  0  0  0  0  0  0  0  0  0  0
    5.0080    1.2966    1.0908 H   0  0  0  0  0  0  0  0  0  0  0  0
   -4.7385   -0.7123   -1.4200 H   0  0  0  0  0  0  0  0  0  0  0  0
   -5.5371    0.7329   -0.8941 H   0  0  0  0  0  0  0  0  0  0  0  0
   -4.6556    2.1745    0.4685 H   0  0  0  0  0  0  0  0  0  0  0  0
   -3.0685    2.0867    1.1248 H   0  0  0  0  0  0  0  0  0  0  0  0
  1  2  1  0  0  0  0
  1  6  1  0  0  0  0
  1  7  1  0  0  0  0
  1  8  2  0  0  0  0
  2 14  1  0  0  0  0
  3 15  1  0  0  0  0
  3 28  1  0  0  0  0
  4 17  1  0  0  0  0
  4 29  1  0  0  0  0
  5 18  1  0  0  0  0
  5 30  1  0  0  0  0
  6 31  1  0  0  0  0
  7 32  1  0  0  0  0
  9 13  1  0  0  0  0
  9 26  1  0  0  0  0
  9 27  1  0  0  0  0
 10 16  1  0  0  0  0
 10 19  2  0  0  0  0
 11 19  1  0  0  0  0
 11 33  1  0  0  0  0
 11 34  1  0  0  0  0
 12 19  1  0  0  0  0
 12 35  1  0  0  0  0
 12 36  1  0  0  0  0
 13 14  1  0  0  0  0
 13 15  1  0  0  0  0
 13 20  1  0  0  0  0
 14 17  1  0  0  0  0
 14 21  1  0  0  0  0
 15 16  1  0  0  0  0
 15 22  1  0  0  0  0
 16 18  1  0  0  0  0
 16 23  1  0  0  0  0
 17 18  1  0  0  0  0
 17 24  1  0  0  0  0
 18 25  1  0  0  0  0
M  END
> <PUBCHEM_COMPOUND_CID>
6857377

> <PUBCHEM_CONFORMER_RMSD>
0.6

> <PUBCHEM_CONFORMER_DIVERSEORDER>
3
5
15
8
12
13
1
2
7
10
4
14
11
9
6

> <PUBCHEM_MMFF94_PARTIAL_CHARGES>
30
1 1.51
10 -0.7
11 -0.85
12 -0.85
13 0.27
14 0.28
15 0.28
16 0.25
17 0.28
18 0.28
19 0.55
2 -0.55
26 0.36
27 0.36
28 0.4
29 0.4
3 -0.68
30 0.4
31 0.5
32 0.5
33 0.4
34 0.4
35 0.4
36 0.4
4 -0.68
5 -0.68
6 -0.77
7 -0.77
8 -0.7
9 -0.99

> <PUBCHEM_EFFECTIVE_ROTOR_COUNT>
4.2

> <PUBCHEM_PHARMACOPHORE_FEATURES>
16
1 11 donor
1 12 donor
1 3 acceptor
1 3 donor
1 4 acceptor
1 4 donor
1 5 acceptor
1 5 donor
1 6 acceptor
1 7 acceptor
1 8 acceptor
1 9 cation
1 9 donor
4 1 6 7 8 anion
4 10 11 12 19 cation
6 13 14 15 16 17 18 rings

> <PUBCHEM_HEAVY_ATOM_COUNT>
19

> <PUBCHEM_ATOM_DEF_STEREO_COUNT>
6

> <PUBCHEM_ATOM_UDEF_STEREO_COUNT>
0

> <PUBCHEM_BOND_DEF_STEREO_COUNT>
0

> <PUBCHEM_BOND_UDEF_STEREO_COUNT>
0

> <PUBCHEM_ISOTOPIC_ATOM_COUNT>
0

> <PUBCHEM_COMPONENT_COUNT>
1

> <PUBCHEM_CACTVS_TAUTO_COUNT>
2

> <PUBCHEM_CONFORMER_ID>
0068A2A100000003

> <PUBCHEM_MMFF94_ENERGY>
23.0669

> <PUBCHEM_FEATURE_SELFOVERLAP>
81.286

> <PUBCHEM_SHAPE_FINGERPRINT>
10863032 1 18334575758783356783
10948715 1 18411980260702724743
11132069 177 18408888412557040332
12011746 2 18201711890753879198
12119455 92 18201447981697666638
12423570 1 12813420635808671474
12491281 212 18411413986465786907
12892183 10 13830123988405262717
13024252 1 17561086860904996042
13464514 151 18268705194327272641
14993402 34 18259704488672303429
15852999 172 17988625424488464499
16945 1 18060411447622713027
17846911 113 18410860958039904216
18186145 218 18342453772423102269
18511873 20 18201439147176739984
200 152 16226043427141695030
20511035 2 17629740310771021199
21524375 3 18272653441534189123
23402539 116 18113620122679362284
23419403 2 17408549250388127847
23559900 14 18411409619111885318
2748010 2 18194654082122666894
296302 2 18261109699161501137
298252 57 18410014316796183155
528886 8 18334583446864279667
69090 78 18412830165837183031

> <PUBCHEM_SHAPE_MULTIPOLES>
333.85
6.56
1.79
1.54
0.56
0.46
0.06
-2.72
-0.4
0.04
0.1
-0.15
0.23
-0.05

> <PUBCHEM_SHAPE_SELFOVERLAP>
662.356

> <PUBCHEM_SHAPE_VOLUME>
198.7

> <PUBCHEM_COORDINATE_TYPE>
2
5
10

$$$$

