126841
  -OEChem-07051213113D

 17 16  0     1  0  0  0  0  0999 V2000
   -1.2887   -0.6503   -0.0460 P   0  0  2  0  0  0  0  0  0  0  0  0
   -1.2120   -1.3123    1.4203 O   0  0  0  0  0  0  0  0  0  0  0  0
   -1.2696   -1.6128   -1.1844 O   0  0  0  0  0  0  0  0  0  0  0  0
   -3.0354    1.0429    1.1109 O   0  0  0  0  0  0  0  0  0  0  0  0
    1.5980   -1.4654    0.0116 O   0  0  0  0  0  0  0  0  0  0  0  0
   -2.9396    0.9753   -1.1606 O   0  0  0  0  0  0  0  0  0  0  0  0
    3.7800   -0.1808    0.0119 O   0  0  0  0  0  0  0  0  0  0  0  0
    2.6394    1.8099   -0.0085 O   0  0  0  0  0  0  0  0  0  0  0  0
    0.1322    0.4627   -0.0408 C   0  0  0  0  0  0  0  0  0  0  0  0
    1.4517   -0.2529   -0.0209 C   0  0  0  0  0  0  0  0  0  0  0  0
   -2.5466    0.5870   -0.0697 C   0  0  0  0  0  0  0  0  0  0  0  0
    2.6904    0.5967   -0.0238 C   0  0  0  0  0  0  0  0  0  0  0  0
    0.0762    1.1139    0.8376 H   0  0  0  0  0  0  0  0  0  0  0  0
    0.0955    1.0787   -0.9455 H   0  0  0  0  0  0  0  0  0  0  0  0
   -1.9441   -1.8908    1.7228 H   0  0  0  0  0  0  0  0  0  0  0  0
   -3.7318    1.7214    0.9810 H   0  0  0  0  0  0  0  0  0  0  0  0
    4.6095    0.3423    0.0355 H   0  0  0  0  0  0  0  0  0  0  0  0
  1  2  1  0  0  0  0
  1  3  2  0  0  0  0
  1  9  1  0  0  0  0
  1 11  1  0  0  0  0
  2 15  1  0  0  0  0
  4 11  1  0  0  0  0
  4 16  1  0  0  0  0
  5 10  2  0  0  0  0
  6 11  2  0  0  0  0
  7 12  1  0  0  0  0
  7 17  1  0  0  0  0
  8 12  2  0  0  0  0
  9 10  1  0  0  0  0
  9 13  1  0  0  0  0
  9 14  1  0  0  0  0
 10 12  1  0  0  0  0
M  END
> <PUBCHEM_COMPOUND_CID>
126841

> <PUBCHEM_CONFORMER_RMSD>
0.6

> <PUBCHEM_CONFORMER_DIVERSEORDER>
1
14
10
7
16
4
13
2
8
9
15
20
18
3
5
19
17
6
12
11

> <PUBCHEM_MMFF94_PARTIAL_CHARGES>
15
1 1.08
10 0.51
11 0.61
12 0.72
15 0.5
16 0.5
17 0.5
2 -0.77
3 -0.7
4 -0.65
5 -0.57
6 -0.57
7 -0.65
8 -0.57
9 0.06

> <PUBCHEM_EFFECTIVE_ROTOR_COUNT>
4

> <PUBCHEM_PHARMACOPHORE_FEATURES>
7
1 4 acceptor
1 5 acceptor
1 6 acceptor
1 7 acceptor
1 8 acceptor
3 4 6 11 anion
3 7 8 12 anion

> <PUBCHEM_HEAVY_ATOM_COUNT>
12

> <PUBCHEM_ATOM_DEF_STEREO_COUNT>
0

> <PUBCHEM_ATOM_UDEF_STEREO_COUNT>
0

> <PUBCHEM_BOND_DEF_STEREO_COUNT>
0

> <PUBCHEM_BOND_UDEF_STEREO_COUNT>
0

> <PUBCHEM_ISOTOPIC_ATOM_COUNT>
0

> <PUBCHEM_COMPONENT_COUNT>
1

> <PUBCHEM_CACTVS_TAUTO_COUNT>
2

> <PUBCHEM_CONFORMER_ID>
0001EF7900000001

> <PUBCHEM_MMFF94_ENERGY>
6.6694

> <PUBCHEM_FEATURE_SELFOVERLAP>
35.647

> <PUBCHEM_SHAPE_FINGERPRINT>
10857977 72 16271916134600105437
12932764 1 15195014803881963012
14325111 11 18338518530508494004
14390081 3 18409169883085939304
15775835 57 18411140276974713165
18186145 218 18262516017277384389
20201158 50 18411139168741093448
20645464 45 18131347527073663099
20653085 51 18187074087915677987
21028194 46 18272087201561985525
3248919 1 16298655106394339812
6333449 129 18336267864233748639

> <PUBCHEM_SHAPE_MULTIPOLES>
209.72
5.45
1.54
0.99
1.89
0.12
-0.07
-1.95
0.01
-0.03
0.04
-0.84
0.16
-0.03

> <PUBCHEM_SHAPE_SELFOVERLAP>
397.979

> <PUBCHEM_SHAPE_VOLUME>
127.7

> <PUBCHEM_COORDINATE_TYPE>
2
5
10

$$$$

