5281970
  -OEChem-07051213022D

 58 61  0     1  0  0  0  0  0999 V2000
    2.0000    1.4400    0.0000 F   0  0  0  0  0  0  0  0  0  0  0  0
    8.0622    2.9400    0.0000 O   0  0  0  0  0  0  0  0  0  0  0  0
    5.4641    4.4400    0.0000 O   0  0  0  0  0  0  0  0  0  0  0  0
    8.9282    4.4400    0.0000 O   0  0  0  0  0  0  0  0  0  0  0  0
    7.1962   -1.5600    0.0000 N   0  0  0  0  0  0  0  0  0  0  0  0
    6.3301    2.9400    0.0000 C   0  0  0  0  0  0  0  0  0  0  0  0
    7.1962    2.4400    0.0000 C   0  0  1  0  0  0  0  0  0  0  0  0
    6.3301    3.9400    0.0000 C   0  0  2  0  0  0  0  0  0  0  0  0
    7.1962    4.4400    0.0000 C   0  0  0  0  0  0  0  0  0  0  0  0
    6.3301   -0.0600    0.0000 C   0  0  0  0  0  0  0  0  0  0  0  0
    7.1962    1.4400    0.0000 C   0  0  0  0  0  0  0  0  0  0  0  0
    8.1962   -0.5600    0.0000 C   0  0  0  0  0  0  0  0  0  0  0  0
    7.1962   -0.5600    0.0000 C   0  0  0  0  0  0  0  0  0  0  0  0
    8.0622    3.9400    0.0000 C   0  0  0  0  0  0  0  0  0  0  0  0
    6.3301    0.9400    0.0000 C   0  0  0  0  0  0  0  0  0  0  0  0
    5.4641   -0.5600    0.0000 C   0  0  0  0  0  0  0  0  0  0  0  0
    5.4641   -1.5600    0.0000 C   0  0  0  0  0  0  0  0  0  0  0  0
    6.3301   -2.0600    0.0000 C   0  0  0  0  0  0  0  0  0  0  0  0
    8.6962   -1.4260    0.0000 C   0  0  0  0  0  0  0  0  0  0  0  0
    8.6962    0.3060    0.0000 C   0  0  0  0  0  0  0  0  0  0  0  0
    4.5981   -0.0600    0.0000 C   0  0  0  0  0  0  0  0  0  0  0  0
    6.3301   -3.0600    0.0000 C   0  0  0  0  0  0  0  0  0  0  0  0
    4.5981    0.9400    0.0000 C   0  0  0  0  0  0  0  0  0  0  0  0
    3.7320   -0.5600    0.0000 C   0  0  0  0  0  0  0  0  0  0  0  0
    5.4641   -3.5600    0.0000 C   0  0  0  0  0  0  0  0  0  0  0  0
    7.1962   -3.5600    0.0000 C   0  0  0  0  0  0  0  0  0  0  0  0
    3.7320    1.4400    0.0000 C   0  0  0  0  0  0  0  0  0  0  0  0
    2.8660   -0.0600    0.0000 C   0  0  0  0  0  0  0  0  0  0  0  0
    2.8660    0.9400    0.0000 C   0  0  0  0  0  0  0  0  0  0  0  0
    5.4641   -4.5600    0.0000 C   0  0  0  0  0  0  0  0  0  0  0  0
    7.1962   -4.5600    0.0000 C   0  0  0  0  0  0  0  0  0  0  0  0
    6.3301   -5.0600    0.0000 C   0  0  0  0  0  0  0  0  0  0  0  0
    5.7196    3.0477    0.0000 H   0  0  0  0  0  0  0  0  0  0  0  0
    6.1181    2.3574    0.0000 H   0  0  0  0  0  0  0  0  0  0  0  0
    7.7331    2.1300    0.0000 H   0  0  0  0  0  0  0  0  0  0  0  0
    5.7932    3.6300    0.0000 H   0  0  0  0  0  0  0  0  0  0  0  0
    7.5947    4.9150    0.0000 H   0  0  0  0  0  0  0  0  0  0  0  0
    6.7976    4.9150    0.0000 H   0  0  0  0  0  0  0  0  0  0  0  0
    7.8162    1.4400    0.0000 H   0  0  0  0  0  0  0  0  0  0  0  0
    8.8162   -0.5600    0.0000 H   0  0  0  0  0  0  0  0  0  0  0  0
    5.7932    1.2500    0.0000 H   0  0  0  0  0  0  0  0  0  0  0  0
    4.9272   -1.8700    0.0000 H   0  0  0  0  0  0  0  0  0  0  0  0
    9.2331   -0.0040    0.0000 H   0  0  0  0  0  0  0  0  0  0  0  0
    8.1592   -1.7360    0.0000 H   0  0  0  0  0  0  0  0  0  0  0  0
    9.0062    0.8430    0.0000 H   0  0  0  0  0  0  0  0  0  0  0  0
    8.1592    0.6160    0.0000 H   0  0  0  0  0  0  0  0  0  0  0  0
    9.0062   -1.9630    0.0000 H   0  0  0  0  0  0  0  0  0  0  0  0
    9.2331   -1.1160    0.0000 H   0  0  0  0  0  0  0  0  0  0  0  0
    5.4641    5.0600    0.0000 H   0  0  0  0  0  0  0  0  0  0  0  0
    5.1350    1.2500    0.0000 H   0  0  0  0  0  0  0  0  0  0  0  0
    3.7320   -1.1800    0.0000 H   0  0  0  0  0  0  0  0  0  0  0  0
    4.9272   -3.2500    0.0000 H   0  0  0  0  0  0  0  0  0  0  0  0
    7.7331   -3.2500    0.0000 H   0  0  0  0  0  0  0  0  0  0  0  0
    3.7320    2.0600    0.0000 H   0  0  0  0  0  0  0  0  0  0  0  0
    2.3291   -0.3700    0.0000 H   0  0  0  0  0  0  0  0  0  0  0  0
    4.9272   -4.8700    0.0000 H   0  0  0  0  0  0  0  0  0  0  0  0
    7.7331   -4.8700    0.0000 H   0  0  0  0  0  0  0  0  0  0  0  0
    6.3301   -5.6800    0.0000 H   0  0  0  0  0  0  0  0  0  0  0  0
  1 29  1  0  0  0  0
  2  7  1  0  0  0  0
  2 14  1  0  0  0  0
  8  3  1  1  0  0  0
  3 49  1  0  0  0  0
  4 14  2  0  0  0  0
  5 13  1  0  0  0  0
  5 18  2  0  0  0  0
  6  7  1  0  0  0  0
  6  8  1  0  0  0  0
  6 33  1  0  0  0  0
  6 34  1  0  0  0  0
  7 11  1  6  0  0  0
  7 35  1  0  0  0  0
  8  9  1  0  0  0  0
  8 36  1  0  0  0  0
  9 14  1  0  0  0  0
  9 37  1  0  0  0  0
  9 38  1  0  0  0  0
 10 13  2  0  0  0  0
 10 15  1  0  0  0  0
 10 16  1  0  0  0  0
 11 15  2  0  0  0  0
 11 39  1  0  0  0  0
 12 13  1  0  0  0  0
 12 19  1  0  0  0  0
 12 20  1  0  0  0  0
 12 40  1  0  0  0  0
 15 41  1  0  0  0  0
 16 17  2  0  0  0  0
 16 21  1  0  0  0  0
 17 18  1  0  0  0  0
 17 42  1  0  0  0  0
 18 22  1  0  0  0  0
 19 44  1  0  0  0  0
 19 47  1  0  0  0  0
 19 48  1  0  0  0  0
 20 43  1  0  0  0  0
 20 45  1  0  0  0  0
 20 46  1  0  0  0  0
 21 23  2  0  0  0  0
 21 24  1  0  0  0  0
 22 25  2  0  0  0  0
 22 26  1  0  0  0  0
 23 27  1  0  0  0  0
 23 50  1  0  0  0  0
 24 28  2  0  0  0  0
 24 51  1  0  0  0  0
 25 30  1  0  0  0  0
 25 52  1  0  0  0  0
 26 31  2  0  0  0  0
 26 53  1  0  0  0  0
 27 29  2  0  0  0  0
 27 54  1  0  0  0  0
 28 29  1  0  0  0  0
 28 55  1  0  0  0  0
 30 32  2  0  0  0  0
 30 56  1  0  0  0  0
 31 32  1  0  0  0  0
 31 57  1  0  0  0  0
 32 58  1  0  0  0  0
M  END
> <PUBCHEM_COMPOUND_CID>
5281970

> <PUBCHEM_COMPOUND_CANONICALIZED>
1

> <PUBCHEM_CACTVS_COMPLEXITY>
639

> <PUBCHEM_CACTVS_HBOND_ACCEPTOR>
5

> <PUBCHEM_CACTVS_HBOND_DONOR>
1

> <PUBCHEM_CACTVS_ROTATABLE_BOND>
5

> <PUBCHEM_CACTVS_SUBSKEYS>
AAADceB6MQAAAAAAAAAAAAAAAAAAAAAAAAA8aIEAAAAAAAAB0AAAHwAACAAADRyhngoyiJIIFgCoAyTyTACCgCAhAiAImCEwZJgINPbAsZGGcAhloADI6AeYzMBOgAAAAAAAAAAAAAAAAAAAAAAAAAAAAA==

> <PUBCHEM_IUPAC_OPENEYE_NAME>
(4R,6S)-6-[(E)-2-[4-(4-fluorophenyl)-2-isopropyl-6-phenyl-3-pyridyl]vinyl]-4-hydroxy-tetrahydropyran-2-one

> <PUBCHEM_IUPAC_CAS_NAME>
(4R,6S)-6-[(E)-2-[4-(4-fluorophenyl)-6-phenyl-2-propan-2-yl-3-pyridinyl]ethenyl]-4-hydroxy-2-oxanone

> <PUBCHEM_IUPAC_NAME>
(4R,6S)-6-[(E)-2-[4-(4-fluorophenyl)-6-phenyl-2-propan-2-ylpyridin-3-yl]ethenyl]-4-hydroxyoxan-2-one

> <PUBCHEM_IUPAC_SYSTEMATIC_NAME>
(4R,6S)-6-[(E)-2-[4-(4-fluorophenyl)-6-phenyl-2-propan-2-yl-pyridin-3-yl]ethenyl]-4-oxidanyl-oxan-2-one

> <PUBCHEM_IUPAC_TRADITIONAL_NAME>
(4R,6S)-6-[(E)-2-[4-(4-fluorophenyl)-2-isopropyl-6-phenyl-3-pyridyl]vinyl]-4-hydroxy-tetrahydropyran-2-one

> <PUBCHEM_IUPAC_INCHI>
InChI=1S/C27H26FNO3/c1-17(2)27-23(13-12-22-14-21(30)15-26(31)32-22)24(18-8-10-20(28)11-9-18)16-25(29-27)19-6-4-3-5-7-19/h3-13,16-17,21-22,30H,14-15H2,1-2H3/b13-12+/t21-,22-/m1/s1

> <PUBCHEM_IUPAC_INCHIKEY>
LJIZUXQINHXGAO-ITWZMISCSA-N

> <PUBCHEM_XLOGP3_AA>
5.2

> <PUBCHEM_EXACT_MASS>
431.189672

> <PUBCHEM_MOLECULAR_FORMULA>
C27H26FNO3

> <PUBCHEM_MOLECULAR_WEIGHT>
431.498643

> <PUBCHEM_OPENEYE_CAN_SMILES>
CC(C)C1=C(C(=CC(=N1)C2=CC=CC=C2)C3=CC=C(C=C3)F)C=CC4CC(CC(=O)O4)O

> <PUBCHEM_OPENEYE_ISO_SMILES>
CC(C)C1=C(C(=CC(=N1)C2=CC=CC=C2)C3=CC=C(C=C3)F)/C=C/[C@@H]4C[C@H](CC(=O)O4)O

> <PUBCHEM_CACTVS_TPSA>
59.4

> <PUBCHEM_MONOISOTOPIC_WEIGHT>
431.189672

> <PUBCHEM_TOTAL_CHARGE>
0

> <PUBCHEM_HEAVY_ATOM_COUNT>
32

> <PUBCHEM_ATOM_DEF_STEREO_COUNT>
2

> <PUBCHEM_ATOM_UDEF_STEREO_COUNT>
0

> <PUBCHEM_BOND_DEF_STEREO_COUNT>
1

> <PUBCHEM_BOND_UDEF_STEREO_COUNT>
0

> <PUBCHEM_ISOTOPIC_ATOM_COUNT>
0

> <PUBCHEM_COMPONENT_COUNT>
1

> <PUBCHEM_CACTVS_TAUTO_COUNT>
6

> <PUBCHEM_COORDINATE_TYPE>
1
5
255

> <PUBCHEM_BONDANNOTATIONS>
10  13  8
10  16  8
16  17  8
17  18  8
21  23  8
21  24  8
22  25  8
22  26  8
23  27  8
24  28  8
25  30  8
26  31  8
27  29  8
28  29  8
8  3  5
30  32  8
31  32  8
5  13  8
5  18  8
7  11  6

$$$$

