248263
  -OEChem-07051213062D

 67 71  0     1  0  0  0  0  0999 V2000
    6.3790    1.6255    0.0000 O   0  0  0  0  0  0  0  0  0  0  0  0
    9.5661    3.1251    0.0000 O   0  0  0  0  0  0  0  0  0  0  0  0
    3.5840   -1.9268    0.0000 N   0  0  0  0  0  0  0  0  0  0  0  0
    8.1110   -0.3745    0.0000 C   0  0  2  0  0  0  0  0  0  0  0  0
    6.3350   -0.3813    0.0000 C   0  0  2  0  0  0  0  0  0  0  0  0
    7.2450    0.1255    0.0000 C   0  0  1  0  0  0  0  0  0  0  0  0
    8.9770    0.1255    0.0000 C   0  0  1  0  0  0  0  0  0  0  0  0
    8.9770    1.1255    0.0000 C   0  0  1  0  0  0  0  0  0  0  0  0
    6.3270   -1.4229    0.0000 C   0  0  1  0  0  0  0  0  0  0  0  0
    8.1271   -1.4160    0.0000 C   0  0  0  0  0  0  0  0  0  0  0  0
    9.9233    1.4302    0.0000 C   0  0  2  0  0  0  0  0  0  0  0  0
    7.2290   -1.9438    0.0000 C   0  0  0  0  0  0  0  0  0  0  0  0
    9.9233   -0.1792    0.0000 C   0  0  0  0  0  0  0  0  0  0  0  0
    8.1110    1.6255    0.0000 C   0  0  0  0  0  0  0  0  0  0  0  0
    5.4082    0.1828    0.0000 C   0  0  0  0  0  0  0  0  0  0  0  0
    7.2450    1.1255    0.0000 C   0  0  0  0  0  0  0  0  0  0  0  0
    5.3915   -1.9727    0.0000 C   0  0  0  0  0  0  0  0  0  0  0  0
   10.5069    0.6255    0.0000 C   0  0  0  0  0  0  0  0  0  0  0  0
    4.4519   -1.4302    0.0000 C   0  0  2  0  0  0  0  0  0  0  0  0
    4.4603   -0.3452    0.0000 C   0  0  0  0  0  0  0  0  0  0  0  0
    6.3427    0.6186    0.0000 C   0  0  0  0  0  0  0  0  0  0  0  0
    8.9770    2.1255    0.0000 C   0  0  0  0  0  0  0  0  0  0  0  0
   10.2339    2.3808    0.0000 C   0  0  0  0  0  0  0  0  0  0  0  0
    2.6720   -1.5166    0.0000 C   0  0  0  0  0  0  0  0  0  0  0  0
    3.4756   -2.9209    0.0000 C   0  0  0  0  0  0  0  0  0  0  0  0
   11.2124    2.5870    0.0000 C   0  0  0  0  0  0  0  0  0  0  0  0
    2.4967   -3.1251    0.0000 C   0  0  0  0  0  0  0  0  0  0  0  0
    2.0000   -2.2571    0.0000 C   0  0  0  0  0  0  0  0  0  0  0  0
    8.8504   -0.7938    0.0000 H   0  0  0  0  0  0  0  0  0  0  0  0
    7.9811    0.5505    0.0000 H   0  0  0  0  0  0  0  0  0  0  0  0
    9.0670   -0.7197    0.0000 H   0  0  0  0  0  0  0  0  0  0  0  0
    6.3302   -2.2729    0.0000 H   0  0  0  0  0  0  0  0  0  0  0  0
    8.3451   -1.9964    0.0000 H   0  0  0  0  0  0  0  0  0  0  0  0
    8.7362   -1.3005    0.0000 H   0  0  0  0  0  0  0  0  0  0  0  0
   10.5358    1.5264    0.0000 H   0  0  0  0  0  0  0  0  0  0  0  0
    6.8317   -2.4197    0.0000 H   0  0  0  0  0  0  0  0  0  0  0  0
    7.6300   -2.4166    0.0000 H   0  0  0  0  0  0  0  0  0  0  0  0
    9.6722   -0.7461    0.0000 H   0  0  0  0  0  0  0  0  0  0  0  0
   10.4606   -0.4884    0.0000 H   0  0  0  0  0  0  0  0  0  0  0  0
    8.5096    2.1005    0.0000 H   0  0  0  0  0  0  0  0  0  0  0  0
    7.7125    2.1005    0.0000 H   0  0  0  0  0  0  0  0  0  0  0  0
    5.8164    0.6494    0.0000 H   0  0  0  0  0  0  0  0  0  0  0  0
    5.0182    0.6648    0.0000 H   0  0  0  0  0  0  0  0  0  0  0  0
    4.9942   -2.4486    0.0000 H   0  0  0  0  0  0  0  0  0  0  0  0
    5.7925   -2.4456    0.0000 H   0  0  0  0  0  0  0  0  0  0  0  0
   10.9677    0.2108    0.0000 H   0  0  0  0  0  0  0  0  0  0  0  0
   10.9677    1.0402    0.0000 H   0  0  0  0  0  0  0  0  0  0  0  0
    3.9168   -1.1171    0.0000 H   0  0  0  0  0  0  0  0  0  0  0  0
    4.2557    0.2401    0.0000 H   0  0  0  0  0  0  0  0  0  0  0  0
    3.8486   -0.4466    0.0000 H   0  0  0  0  0  0  0  0  0  0  0  0
    6.9627    0.6139    0.0000 H   0  0  0  0  0  0  0  0  0  0  0  0
    6.3475    1.2386    0.0000 H   0  0  0  0  0  0  0  0  0  0  0  0
    5.7227    0.6234    0.0000 H   0  0  0  0  0  0  0  0  0  0  0  0
    9.5970    2.1255    0.0000 H   0  0  0  0  0  0  0  0  0  0  0  0
    8.9770    2.7455    0.0000 H   0  0  0  0  0  0  0  0  0  0  0  0
    8.3570    2.1255    0.0000 H   0  0  0  0  0  0  0  0  0  0  0  0
    2.9841   -0.9808    0.0000 H   0  0  0  0  0  0  0  0  0  0  0  0
    2.1718   -1.1502    0.0000 H   0  0  0  0  0  0  0  0  0  0  0  0
    3.5380   -3.5378    0.0000 H   0  0  0  0  0  0  0  0  0  0  0  0
    4.0956   -2.9233    0.0000 H   0  0  0  0  0  0  0  0  0  0  0  0
   11.3403    1.9803    0.0000 H   0  0  0  0  0  0  0  0  0  0  0  0
   11.8191    2.7148    0.0000 H   0  0  0  0  0  0  0  0  0  0  0  0
   11.0846    3.1937    0.0000 H   0  0  0  0  0  0  0  0  0  0  0  0
    1.5869   -1.7948    0.0000 H   0  0  0  0  0  0  0  0  0  0  0  0
    1.4970   -2.6196    0.0000 H   0  0  0  0  0  0  0  0  0  0  0  0
    1.9293   -3.3751    0.0000 H   0  0  0  0  0  0  0  0  0  0  0  0
    2.6860   -3.7155    0.0000 H   0  0  0  0  0  0  0  0  0  0  0  0
  1 16  2  0  0  0  0
  2 23  2  0  0  0  0
 19  3  1  1  0  0  0
  3 24  1  0  0  0  0
  3 25  1  0  0  0  0
  4  6  1  0  0  0  0
  4  7  1  0  0  0  0
  4 10  1  0  0  0  0
  4 29  1  1  0  0  0
  5  6  1  0  0  0  0
  5  9  1  0  0  0  0
  5 15  1  0  0  0  0
  5 21  1  1  0  0  0
  6 16  1  0  0  0  0
  6 30  1  6  0  0  0
  7  8  1  0  0  0  0
  7 13  1  0  0  0  0
  7 31  1  6  0  0  0
  8 11  1  0  0  0  0
  8 14  1  0  0  0  0
  8 22  1  1  0  0  0
  9 12  1  0  0  0  0
  9 17  1  0  0  0  0
  9 32  1  6  0  0  0
 10 12  1  0  0  0  0
 10 33  1  0  0  0  0
 10 34  1  0  0  0  0
 11 18  1  0  0  0  0
 11 23  1  1  0  0  0
 11 35  1  0  0  0  0
 12 36  1  0  0  0  0
 12 37  1  0  0  0  0
 13 18  1  0  0  0  0
 13 38  1  0  0  0  0
 13 39  1  0  0  0  0
 14 16  1  0  0  0  0
 14 40  1  0  0  0  0
 14 41  1  0  0  0  0
 15 20  1  0  0  0  0
 15 42  1  0  0  0  0
 15 43  1  0  0  0  0
 17 19  1  0  0  0  0
 17 44  1  0  0  0  0
 17 45  1  0  0  0  0
 18 46  1  0  0  0  0
 18 47  1  0  0  0  0
 19 20  1  0  0  0  0
 19 48  1  0  0  0  0
 20 49  1  0  0  0  0
 20 50  1  0  0  0  0
 21 51  1  0  0  0  0
 21 52  1  0  0  0  0
 21 53  1  0  0  0  0
 22 54  1  0  0  0  0
 22 55  1  0  0  0  0
 22 56  1  0  0  0  0
 23 26  1  0  0  0  0
 24 28  1  0  0  0  0
 24 57  1  0  0  0  0
 24 58  1  0  0  0  0
 25 27  1  0  0  0  0
 25 59  1  0  0  0  0
 25 60  1  0  0  0  0
 26 61  1  0  0  0  0
 26 62  1  0  0  0  0
 26 63  1  0  0  0  0
 27 28  1  0  0  0  0
 27 66  1  0  0  0  0
 27 67  1  0  0  0  0
 28 64  1  0  0  0  0
 28 65  1  0  0  0  0
M  END
> <PUBCHEM_COMPOUND_CID>
248263

> <PUBCHEM_COMPOUND_CANONICALIZED>
1

> <PUBCHEM_CACTVS_COMPLEXITY>
668

> <PUBCHEM_CACTVS_HBOND_ACCEPTOR>
3

> <PUBCHEM_CACTVS_HBOND_DONOR>
0

> <PUBCHEM_CACTVS_ROTATABLE_BOND>
2

> <PUBCHEM_CACTVS_SUBSKEYS>
AAADcfB6MAAAAAAAAAAAAAAAAAAAAeIAAAAwYMAAAAAAAGDAAAAAHgAAAAAADyzBgAQCAAMAAAAIAIAQAAAAAAAAAAAAAAEIAAAAABIAgAAEAAAAAACAAAEYisCvgAAAAAAAAACQAASAACAAAQAACAAAAA==

> <PUBCHEM_IUPAC_OPENEYE_NAME>
(3S,5S,8S,9S,10S,13S,14S,17S)-17-acetyl-10,13-dimethyl-3-pyrrolidin-1-yl-1,2,3,4,5,6,7,8,9,12,14,15,16,17-tetradecahydrocyclopenta[a]phenanthren-11-one

> <PUBCHEM_IUPAC_CAS_NAME>
(3S,5S,8S,9S,10S,13S,14S,17S)-17-acetyl-10,13-dimethyl-3-(1-pyrrolidinyl)-1,2,3,4,5,6,7,8,9,12,14,15,16,17-tetradecahydrocyclopenta[a]phenanthren-11-one

> <PUBCHEM_IUPAC_NAME>
(3S,5S,8S,9S,10S,13S,14S,17S)-17-acetyl-10,13-dimethyl-3-pyrrolidin-1-yl-1,2,3,4,5,6,7,8,9,12,14,15,16,17-tetradecahydrocyclopenta[a]phenanthren-11-one

> <PUBCHEM_IUPAC_SYSTEMATIC_NAME>
(3S,5S,8S,9S,10S,13S,14S,17S)-17-ethanoyl-10,13-dimethyl-3-pyrrolidin-1-yl-1,2,3,4,5,6,7,8,9,12,14,15,16,17-tetradecahydrocyclopenta[a]phenanthren-11-one

> <PUBCHEM_IUPAC_TRADITIONAL_NAME>
(3S,5S,8S,9S,10S,13S,14S,17S)-17-acetyl-10,13-dimethyl-3-pyrrolidino-1,2,3,4,5,6,7,8,9,12,14,15,16,17-tetradecahydrocyclopenta[a]phenanthren-11-one

> <PUBCHEM_IUPAC_INCHI>
InChI=1S/C25H39NO2/c1-16(27)20-8-9-21-19-7-6-17-14-18(26-12-4-5-13-26)10-11-24(17,2)23(19)22(28)15-25(20,21)3/h17-21,23H,4-15H2,1-3H3/t17-,18-,19-,20+,21-,23+,24-,25+/m0/s1

> <PUBCHEM_IUPAC_INCHIKEY>
JYBLPRVSUYUPPM-USQBOPSSSA-N

> <PUBCHEM_XLOGP3_AA>
4.4

> <PUBCHEM_EXACT_MASS>
385.298079

> <PUBCHEM_MOLECULAR_FORMULA>
C25H39NO2

> <PUBCHEM_MOLECULAR_WEIGHT>
385.58266

> <PUBCHEM_OPENEYE_CAN_SMILES>
CC(=O)C1CCC2C1(CC(=O)C3C2CCC4C3(CCC(C4)N5CCCC5)C)C

> <PUBCHEM_OPENEYE_ISO_SMILES>
CC(=O)[C@H]1CC[C@@H]2[C@@]1(CC(=O)[C@H]3[C@H]2CC[C@@H]4[C@@]3(CC[C@@H](C4)N5CCCC5)C)C

> <PUBCHEM_CACTVS_TPSA>
37.4

> <PUBCHEM_MONOISOTOPIC_WEIGHT>
385.298079

> <PUBCHEM_TOTAL_CHARGE>
0

> <PUBCHEM_HEAVY_ATOM_COUNT>
28

> <PUBCHEM_ATOM_DEF_STEREO_COUNT>
8

> <PUBCHEM_ATOM_UDEF_STEREO_COUNT>
0

> <PUBCHEM_BOND_DEF_STEREO_COUNT>
0

> <PUBCHEM_BOND_UDEF_STEREO_COUNT>
0

> <PUBCHEM_ISOTOPIC_ATOM_COUNT>
0

> <PUBCHEM_COMPONENT_COUNT>
1

> <PUBCHEM_CACTVS_TAUTO_COUNT>
9

> <PUBCHEM_COORDINATE_TYPE>
1
5
255

> <PUBCHEM_BONDANNOTATIONS>
11  23  5
19  3  5
4  29  5
5  21  5
6  30  6
7  31  6
8  22  5
9  32  6

$$$$

