8406
  -OEChem-07051212483D

 17 17  0     0  0  0  0  0  0999 V2000
    2.3252   -0.4515   -1.1966 O   0  0  0  0  0  0  0  0  0  0  0  0
    2.4854   -0.4274    1.0706 O   0  0  0  0  0  0  0  0  0  0  0  0
   -0.4221    3.0297   -0.0031 O   0  0  0  0  0  0  0  0  0  0  0  0
    0.3326   -0.5208    0.0310 C   0  0  0  0  0  0  0  0  0  0  0  0
   -0.4389    0.6413    0.0118 C   0  0  0  0  0  0  0  0  0  0  0  0
   -0.2880   -1.7700    0.0296 C   0  0  0  0  0  0  0  0  0  0  0  0
   -1.8309    0.5538   -0.0088 C   0  0  0  0  0  0  0  0  0  0  0  0
   -1.6799   -1.8575    0.0089 C   0  0  0  0  0  0  0  0  0  0  0  0
   -2.4513   -0.6956   -0.0102 C   0  0  0  0  0  0  0  0  0  0  0  0
    1.7884   -0.4626    0.0532 C   0  0  0  0  0  0  0  0  0  0  0  0
    0.1795    1.9606    0.0135 C   0  0  0  0  0  0  0  0  0  0  0  0
    0.3022   -2.6829    0.0447 H   0  0  0  0  0  0  0  0  0  0  0  0
   -2.4528    1.4451   -0.0238 H   0  0  0  0  0  0  0  0  0  0  0  0
   -2.1632   -2.8301    0.0078 H   0  0  0  0  0  0  0  0  0  0  0  0
   -3.5352   -0.7639   -0.0262 H   0  0  0  0  0  0  0  0  0  0  0  0
    1.2809    1.9866    0.0327 H   0  0  0  0  0  0  0  0  0  0  0  0
    3.3051   -0.4119   -1.1727 H   0  0  0  0  0  0  0  0  0  0  0  0
  1 10  1  0  0  0  0
  1 17  1  0  0  0  0
  2 10  2  0  0  0  0
  3 11  2  0  0  0  0
  4  5  1  0  0  0  0
  4  6  2  0  0  0  0
  4 10  1  0  0  0  0
  5  7  2  0  0  0  0
  5 11  1  0  0  0  0
  6  8  1  0  0  0  0
  6 12  1  0  0  0  0
  7  9  1  0  0  0  0
  7 13  1  0  0  0  0
  8  9  2  0  0  0  0
  8 14  1  0  0  0  0
  9 15  1  0  0  0  0
 11 16  1  0  0  0  0
M  END
> <PUBCHEM_COMPOUND_CID>
8406

> <PUBCHEM_CONFORMER_RMSD>
0.4

> <PUBCHEM_CONFORMER_DIVERSEORDER>
1
6
5
3
4
2

> <PUBCHEM_MMFF94_PARTIAL_CHARGES>
17
1 -0.65
10 0.63
11 0.42
12 0.15
13 0.15
14 0.15
15 0.15
16 0.06
17 0.5
2 -0.57
3 -0.57
4 0.09
5 0.09
6 -0.15
7 -0.15
8 -0.15
9 -0.15

> <PUBCHEM_EFFECTIVE_ROTOR_COUNT>
2

> <PUBCHEM_PHARMACOPHORE_FEATURES>
5
1 1 acceptor
1 2 acceptor
1 3 acceptor
3 1 2 10 anion
6 4 5 6 7 8 9 rings

> <PUBCHEM_HEAVY_ATOM_COUNT>
11

> <PUBCHEM_ATOM_DEF_STEREO_COUNT>
0

> <PUBCHEM_ATOM_UDEF_STEREO_COUNT>
0

> <PUBCHEM_BOND_DEF_STEREO_COUNT>
0

> <PUBCHEM_BOND_UDEF_STEREO_COUNT>
0

> <PUBCHEM_ISOTOPIC_ATOM_COUNT>
0

> <PUBCHEM_COMPONENT_COUNT>
1

> <PUBCHEM_CACTVS_TAUTO_COUNT>
1

> <PUBCHEM_CONFORMER_ID>
000020D600000001

> <PUBCHEM_MMFF94_ENERGY>
34.3857

> <PUBCHEM_FEATURE_SELFOVERLAP>
25.429

> <PUBCHEM_SHAPE_FINGERPRINT>
12524768 44 18261111824896012558
161256 15 17764575526520048743
16945 1 18338797934920577827
18185500 45 18341896272746314611
193761 8 17834396722565489179
21040471 1 17762337315787507776
23552423 10 17765716823821227103
241688 4 18409729560369051593
2748010 2 18337677416713284669
5084963 1 17971468748238437534
7364860 26 17829321385212590897
81228 2 18337389469136651497

> <PUBCHEM_SHAPE_MULTIPOLES>
208.77
2.98
2.44
0.77
0.15
1.97
-0.04
-1.28
0.02
-0.02
0.01
0.4
-0.16
0.01

> <PUBCHEM_SHAPE_SELFOVERLAP>
441.523

> <PUBCHEM_SHAPE_VOLUME>
116.9

> <PUBCHEM_COORDINATE_TYPE>
2
5
10

$$$$

