17756768
  -OEChem-07051213082D

 59 61  0     1  0  0  0  0  0999 V2000
    8.0622    0.5233    0.0000 P   0  0  3  0  0  0  0  0  0  0  0  0
    7.1962    2.0233    0.0000 P   0  0  3  0  0  0  0  0  0  0  0  0
    9.8988   -2.4712    0.0000 O   0  0  0  0  0  0  0  0  0  0  0  0
   10.9157   -0.0918    0.0000 O   0  0  0  0  0  0  0  0  0  0  0  0
   12.3714   -1.7086    0.0000 O   0  0  0  0  0  0  0  0  0  0  0  0
    5.4641    3.0233    0.0000 O   0  0  0  0  0  0  0  0  0  0  0  0
    8.9282    0.0233    0.0000 O   0  0  0  0  0  0  0  0  0  0  0  0
    7.1962    3.0233    0.0000 O   0  0  0  0  0  0  0  0  0  0  0  0
    5.4641    6.0233    0.0000 O   0  0  0  0  0  0  0  0  0  0  0  0
    7.1962    5.0233    0.0000 O   0  0  0  0  0  0  0  0  0  0  0  0
    7.1962    1.0233    0.0000 O   0  0  0  0  0  0  0  0  0  0  0  0
    9.7013   -4.2972    0.0000 O   0  0  0  0  0  0  0  0  0  0  0  0
    7.5622   -0.3427    0.0000 O   0  0  0  0  0  0  0  0  0  0  0  0
    8.1962    2.0233    0.0000 O   0  0  0  0  0  0  0  0  0  0  0  0
    8.5622    1.3893    0.0000 O   0  0  0  0  0  0  0  0  0  0  0  0
    6.1962    2.0233    0.0000 O   0  0  0  0  0  0  0  0  0  0  0  0
   12.5039   -6.3333    0.0000 O   0  0  0  0  0  0  0  0  0  0  0  0
    2.0000    5.0233    0.0000 O   0  0  0  0  0  0  0  0  0  0  0  0
   11.2836   -3.5927    0.0000 N   0  0  0  0  0  0  0  0  0  0  0  0
    3.7320    5.0233    0.0000 N   0  0  0  0  0  0  0  0  0  0  0  0
   11.1026   -5.3152    0.0000 N   0  0  0  0  0  0  0  0  0  0  0  0
   10.7078   -1.0700    0.0000 C   0  0  1  0  0  0  0  0  0  0  0  0
   11.3769   -1.8131    0.0000 C   0  0  2  0  0  0  0  0  0  0  0  0
    9.7942   -1.4767    0.0000 C   0  0  1  0  0  0  0  0  0  0  0  0
   10.8769   -2.6791    0.0000 C   0  0  1  0  0  0  0  0  0  0  0  0
    8.9282   -0.9767    0.0000 C   0  0  0  0  0  0  0  0  0  0  0  0
    5.4641    5.0233    0.0000 C   0  0  1  0  0  0  0  0  0  0  0  0
    4.5981    4.5233    0.0000 C   0  0  2  0  0  0  0  0  0  0  0  0
    6.3301    4.5233    0.0000 C   0  0  2  0  0  0  0  0  0  0  0  0
    6.3301    3.5233    0.0000 C   0  0  2  0  0  0  0  0  0  0  0  0
    4.5981    3.5233    0.0000 C   0  0  0  0  0  0  0  0  0  0  0  0
   10.6959   -4.4017    0.0000 C   0  0  0  0  0  0  0  0  0  0  0  0
   12.2782   -3.6972    0.0000 C   0  0  0  0  0  0  0  0  0  0  0  0
   12.6849   -4.6108    0.0000 C   0  0  0  0  0  0  0  0  0  0  0  0
   12.0971   -5.4198    0.0000 C   0  0  0  0  0  0  0  0  0  0  0  0
    2.8660    4.5233    0.0000 C   0  0  0  0  0  0  0  0  0  0  0  0
   11.3066   -0.9095    0.0000 H   0  0  0  0  0  0  0  0  0  0  0  0
   11.7146   -2.3331    0.0000 H   0  0  0  0  0  0  0  0  0  0  0  0
    9.2742   -1.8144    0.0000 H   0  0  0  0  0  0  0  0  0  0  0  0
   10.4867   -3.1610    0.0000 H   0  0  0  0  0  0  0  0  0  0  0  0
    6.0010    5.3333    0.0000 H   0  0  0  0  0  0  0  0  0  0  0  0
    8.3176   -0.8690    0.0000 H   0  0  0  0  0  0  0  0  0  0  0  0
    8.7162   -1.5593    0.0000 H   0  0  0  0  0  0  0  0  0  0  0  0
    4.5981    5.1433    0.0000 H   0  0  0  0  0  0  0  0  0  0  0  0
    6.8671    4.2133    0.0000 H   0  0  0  0  0  0  0  0  0  0  0  0
    6.8671    3.8333    0.0000 H   0  0  0  0  0  0  0  0  0  0  0  0
    3.9875    3.6310    0.0000 H   0  0  0  0  0  0  0  0  0  0  0  0
    4.3860    2.9407    0.0000 H   0  0  0  0  0  0  0  0  0  0  0  0
   11.5053    0.0998    0.0000 H   0  0  0  0  0  0  0  0  0  0  0  0
   12.6236   -1.1422    0.0000 H   0  0  0  0  0  0  0  0  0  0  0  0
    3.7320    5.6433    0.0000 H   0  0  0  0  0  0  0  0  0  0  0  0
   12.6426   -3.1956    0.0000 H   0  0  0  0  0  0  0  0  0  0  0  0
    6.0010    6.3333    0.0000 H   0  0  0  0  0  0  0  0  0  0  0  0
    7.7331    4.7133    0.0000 H   0  0  0  0  0  0  0  0  0  0  0  0
   10.7382   -5.8168    0.0000 H   0  0  0  0  0  0  0  0  0  0  0  0
   13.3015   -4.6756    0.0000 H   0  0  0  0  0  0  0  0  0  0  0  0
    2.8660    3.9033    0.0000 H   0  0  0  0  0  0  0  0  0  0  0  0
    6.9422   -0.3427    0.0000 H   0  0  0  0  0  0  0  0  0  0  0  0
    8.5062    2.5602    0.0000 H   0  0  0  0  0  0  0  0  0  0  0  0
  1  7  1  0  0  0  0
  1 11  1  0  0  0  0
  1 13  1  0  0  0  0
  1 15  2  0  0  0  0
  2  8  1  0  0  0  0
  2 11  1  0  0  0  0
  2 14  1  0  0  0  0
  2 16  2  0  0  0  0
  3 24  1  0  0  0  0
  3 25  1  0  0  0  0
 22  4  1  1  0  0  0
  4 49  1  0  0  0  0
 23  5  1  1  0  0  0
  5 50  1  0  0  0  0
  6 30  1  0  0  0  0
  6 31  1  0  0  0  0
  7 26  1  0  0  0  0
 30  8  1  1  0  0  0
 27  9  1  6  0  0  0
  9 53  1  0  0  0  0
 29 10  1  1  0  0  0
 10 54  1  0  0  0  0
 12 32  2  0  0  0  0
 13 58  1  0  0  0  0
 14 59  1  0  0  0  0
 17 35  2  0  0  0  0
 18 36  2  0  0  0  0
 25 19  1  6  0  0  0
 19 32  1  0  0  0  0
 19 33  1  0  0  0  0
 28 20  1  6  0  0  0
 20 36  1  0  0  0  0
 20 51  1  0  0  0  0
 21 32  1  0  0  0  0
 21 35  1  0  0  0  0
 21 55  1  0  0  0  0
 22 23  1  0  0  0  0
 22 24  1  0  0  0  0
 22 37  1  0  0  0  0
 23 25  1  0  0  0  0
 23 38  1  0  0  0  0
 24 26  1  6  0  0  0
 24 39  1  0  0  0  0
 25 40  1  0  0  0  0
 26 42  1  0  0  0  0
 26 43  1  0  0  0  0
 27 28  1  0  0  0  0
 27 29  1  0  0  0  0
 27 41  1  0  0  0  0
 28 31  1  0  0  0  0
 28 44  1  0  0  0  0
 29 30  1  0  0  0  0
 29 45  1  0  0  0  0
 30 46  1  0  0  0  0
 31 47  1  0  0  0  0
 31 48  1  0  0  0  0
 33 34  2  0  0  0  0
 33 52  1  0  0  0  0
 34 35  1  0  0  0  0
 34 56  1  0  0  0  0
 36 57  1  0  0  0  0
M  END
> <PUBCHEM_COMPOUND_CID>
17756768

> <PUBCHEM_COMPOUND_CANONICALIZED>
1

> <PUBCHEM_CACTVS_COMPLEXITY>
980

> <PUBCHEM_CACTVS_HBOND_ACCEPTOR>
16

> <PUBCHEM_CACTVS_HBOND_DONOR>
8

> <PUBCHEM_CACTVS_ROTATABLE_BOND>
9

> <PUBCHEM_CACTVS_SUBSKEYS>
AAADceBzPgMAAAAAAAAAAAAAAAAAASAAAAAkQAAAAAAAAAAAAAAAHgAQCCAACDzxgAcBCAPABxCIQCFW0ICAAAAAAgAIAIAIAECTEAIAgAAPQAAPFyIXAMDwMAIAAAAAAAAAAAAAAAAAAAAAAAAAAAAAAA==

> <PUBCHEM_IUPAC_OPENEYE_NAME>
[[(2R,3S,4R,5R)-5-(2,4-dioxopyrimidin-1-yl)-3,4-dihydroxy-tetrahydrofuran-2-yl]methoxy-hydroxy-phosphoryl] [(2R,3R,4S,5S)-5-formamido-3,4-dihydroxy-tetrahydropyran-2-yl] hydrogen phosphate

> <PUBCHEM_IUPAC_CAS_NAME>
[[(2R,3S,4R,5R)-5-(2,4-dioxo-1-pyrimidinyl)-3,4-dihydroxy-2-oxolanyl]methoxy-hydroxyphosphoryl] [(2R,3R,4S,5S)-5-formamido-3,4-dihydroxy-2-oxanyl] hydrogen phosphate

> <PUBCHEM_IUPAC_NAME>
[[(2R,3S,4R,5R)-5-(2,4-dioxopyrimidin-1-yl)-3,4-dihydroxyoxolan-2-yl]methoxy-hydroxyphosphoryl] [(2R,3R,4S,5S)-5-formamido-3,4-dihydroxyoxan-2-yl] hydrogen phosphate

> <PUBCHEM_IUPAC_SYSTEMATIC_NAME>
[[(2R,3S,4R,5R)-5-[2,4-bis(oxidanylidene)pyrimidin-1-yl]-3,4-bis(oxidanyl)oxolan-2-yl]methoxy-oxidanyl-phosphoryl] [(2R,3R,4S,5S)-5-formamido-3,4-bis(oxidanyl)oxan-2-yl] hydrogen phosphate

> <PUBCHEM_IUPAC_TRADITIONAL_NAME>
[[(2R,3S,4R,5R)-5-(2,4-diketopyrimidin-1-yl)-3,4-dihydroxy-tetrahydrofuran-2-yl]methoxy-hydroxy-phosphoryl] [(2R,3R,4S,5S)-5-formamido-3,4-dihydroxy-tetrahydropyran-2-yl] hydrogen phosphate

> <PUBCHEM_IUPAC_INCHI>
InChI=1S/C15H23N3O16P2/c19-5-16-6-3-30-14(12(24)9(6)21)33-36(28,29)34-35(26,27)31-4-7-10(22)11(23)13(32-7)18-2-1-8(20)17-15(18)25/h1-2,5-7,9-14,21-24H,3-4H2,(H,16,19)(H,26,27)(H,28,29)(H,17,20,25)/t6-,7+,9-,10+,11+,12+,13+,14+/m0/s1

> <PUBCHEM_IUPAC_INCHIKEY>
QGYFHZBDXXNYAX-RTXATJJPSA-N

> <PUBCHEM_XLOGP3_AA>
-6.6

> <PUBCHEM_EXACT_MASS>
563.055355

> <PUBCHEM_MOLECULAR_FORMULA>
C15H23N3O16P2

> <PUBCHEM_MOLECULAR_WEIGHT>
563.301144

> <PUBCHEM_OPENEYE_CAN_SMILES>
C1C(C(C(C(O1)OP(=O)(O)OP(=O)(O)OCC2C(C(C(O2)N3C=CC(=O)NC3=O)O)O)O)O)NC=O

> <PUBCHEM_OPENEYE_ISO_SMILES>
C1[C@@H]([C@@H]([C@H]([C@H](O1)OP(=O)(O)OP(=O)(O)OC[C@@H]2[C@H]([C@H]([C@@H](O2)N3C=CC(=O)NC3=O)O)O)O)O)NC=O

> <PUBCHEM_CACTVS_TPSA>
280

> <PUBCHEM_MONOISOTOPIC_WEIGHT>
563.055355

> <PUBCHEM_TOTAL_CHARGE>
0

> <PUBCHEM_HEAVY_ATOM_COUNT>
36

> <PUBCHEM_ATOM_DEF_STEREO_COUNT>
8

> <PUBCHEM_ATOM_UDEF_STEREO_COUNT>
0

> <PUBCHEM_BOND_DEF_STEREO_COUNT>
0

> <PUBCHEM_BOND_UDEF_STEREO_COUNT>
0

> <PUBCHEM_ISOTOPIC_ATOM_COUNT>
0

> <PUBCHEM_COMPONENT_COUNT>
1

> <PUBCHEM_CACTVS_TAUTO_COUNT>
6

> <PUBCHEM_COORDINATE_TYPE>
1
5
255

> <PUBCHEM_BONDANNOTATIONS>
29  10  5
25  19  6
19  32  8
19  33  8
28  20  6
21  32  8
21  35  8
24  26  6
33  34  8
34  35  8
22  4  5
23  5  5
30  8  5
27  9  6

$$$$

