241543
  -OEChem-07051213063D

 48 51  0     1  0  0  0  0  0999 V2000
   -0.1446    2.7745   -0.4392 O   0  0  0  0  0  0  0  0  0  0  0  0
    5.1286    0.9525   -0.3648 O   0  0  0  0  0  0  0  0  0  0  0  0
   -5.3889   -0.1564   -1.2647 O   0  0  0  0  0  0  0  0  0  0  0  0
    1.9417   -0.8175   -0.4131 C   0  0  2  0  0  0  0  0  0  0  0  0
    2.7475    0.4255    0.0016 C   0  0  2  0  0  0  0  0  0  0  0  0
    0.5946   -0.9090    0.3075 C   0  0  1  0  0  0  0  0  0  0  0  0
   -0.2739    0.3563   -0.0389 C   0  0  2  0  0  0  0  0  0  0  0  0
    1.9514    1.6573   -0.4275 C   0  0  0  0  0  0  0  0  0  0  0  0
    0.5326    1.6800    0.1792 C   0  0  1  0  0  0  0  0  0  0  0  0
    4.0328    0.1774   -0.8114 C   0  0  2  0  0  0  0  0  0  0  0  0
    2.9448   -1.9588   -0.2554 C   0  0  0  0  0  0  0  0  0  0  0  0
   -1.6916    0.2866    0.6745 C   0  0  1  0  0  0  0  0  0  0  0  0
   -0.1423   -2.2057   -0.0609 C   0  0  0  0  0  0  0  0  0  0  0  0
    4.2945   -1.3309   -0.6444 C   0  0  0  0  0  0  0  0  0  0  0  0
    3.0722    0.5190    1.5133 C   0  0  0  0  0  0  0  0  0  0  0  0
   -1.5015   -2.2937    0.6216 C   0  0  0  0  0  0  0  0  0  0  0  0
   -2.3209   -1.0671    0.3119 C   0  0  0  0  0  0  0  0  0  0  0  0
   -1.5753    0.3975    2.2129 C   0  0  0  0  0  0  0  0  0  0  0  0
   -2.6024    1.4327    0.2562 C   0  0  0  0  0  0  0  0  0  0  0  0
   -3.5052   -1.2004   -0.3065 C   0  0  0  0  0  0  0  0  0  0  0  0
   -3.7815    1.3066   -0.3603 C   0  0  0  0  0  0  0  0  0  0  0  0
   -4.3125   -0.0264   -0.6917 C   0  0  0  0  0  0  0  0  0  0  0  0
    1.7220   -0.7507   -1.4919 H   0  0  0  0  0  0  0  0  0  0  0  0
    0.7773   -0.9391    1.3869 H   0  0  0  0  0  0  0  0  0  0  0  0
   -0.4822    0.3098   -1.1211 H   0  0  0  0  0  0  0  0  0  0  0  0
    1.8710    1.6920   -1.5230 H   0  0  0  0  0  0  0  0  0  0  0  0
    2.4799    2.5802   -0.1554 H   0  0  0  0  0  0  0  0  0  0  0  0
    0.6004    1.9085    1.2464 H   0  0  0  0  0  0  0  0  0  0  0  0
    3.8750    0.3972   -1.8749 H   0  0  0  0  0  0  0  0  0  0  0  0
    2.7022   -2.8096   -0.9004 H   0  0  0  0  0  0  0  0  0  0  0  0
    2.9784   -2.3243    0.7771 H   0  0  0  0  0  0  0  0  0  0  0  0
    0.4534   -3.0771    0.2348 H   0  0  0  0  0  0  0  0  0  0  0  0
   -0.2716   -2.2652   -1.1496 H   0  0  0  0  0  0  0  0  0  0  0  0
    5.0541   -1.5351    0.1186 H   0  0  0  0  0  0  0  0  0  0  0  0
    4.6658   -1.7548   -1.5841 H   0  0  0  0  0  0  0  0  0  0  0  0
    3.6445    1.4285    1.7299 H   0  0  0  0  0  0  0  0  0  0  0  0
    2.1751    0.5569    2.1371 H   0  0  0  0  0  0  0  0  0  0  0  0
    3.6691   -0.3283    1.8652 H   0  0  0  0  0  0  0  0  0  0  0  0
   -1.3767   -2.3949    1.7057 H   0  0  0  0  0  0  0  0  0  0  0  0
   -2.0054   -3.2088    0.2872 H   0  0  0  0  0  0  0  0  0  0  0  0
   -1.2059    1.3820    2.5228 H   0  0  0  0  0  0  0  0  0  0  0  0
   -2.5522    0.2578    2.6941 H   0  0  0  0  0  0  0  0  0  0  0  0
   -0.9015   -0.3472    2.6457 H   0  0  0  0  0  0  0  0  0  0  0  0
   -2.3005    2.4423    0.5228 H   0  0  0  0  0  0  0  0  0  0  0  0
   -0.2431    2.5719   -1.3851 H   0  0  0  0  0  0  0  0  0  0  0  0
    4.8832    1.8883   -0.4614 H   0  0  0  0  0  0  0  0  0  0  0  0
   -3.9082   -2.1739   -0.5657 H   0  0  0  0  0  0  0  0  0  0  0  0
   -4.3829    2.1730   -0.6099 H   0  0  0  0  0  0  0  0  0  0  0  0
  1  9  1  0  0  0  0
  1 45  1  0  0  0  0
  2 10  1  0  0  0  0
  2 46  1  0  0  0  0
  3 22  2  0  0  0  0
  4  5  1  0  0  0  0
  4  6  1  0  0  0  0
  4 11  1  0  0  0  0
  4 23  1  0  0  0  0
  5  8  1  0  0  0  0
  5 10  1  0  0  0  0
  5 15  1  0  0  0  0
  6  7  1  0  0  0  0
  6 13  1  0  0  0  0
  6 24  1  0  0  0  0
  7  9  1  0  0  0  0
  7 12  1  0  0  0  0
  7 25  1  0  0  0  0
  8  9  1  0  0  0  0
  8 26  1  0  0  0  0
  8 27  1  0  0  0  0
  9 28  1  0  0  0  0
 10 14  1  0  0  0  0
 10 29  1  0  0  0  0
 11 14  1  0  0  0  0
 11 30  1  0  0  0  0
 11 31  1  0  0  0  0
 12 17  1  0  0  0  0
 12 18  1  0  0  0  0
 12 19  1  0  0  0  0
 13 16  1  0  0  0  0
 13 32  1  0  0  0  0
 13 33  1  0  0  0  0
 14 34  1  0  0  0  0
 14 35  1  0  0  0  0
 15 36  1  0  0  0  0
 15 37  1  0  0  0  0
 15 38  1  0  0  0  0
 16 17  1  0  0  0  0
 16 39  1  0  0  0  0
 16 40  1  0  0  0  0
 17 20  2  0  0  0  0
 18 41  1  0  0  0  0
 18 42  1  0  0  0  0
 18 43  1  0  0  0  0
 19 21  2  0  0  0  0
 19 44  1  0  0  0  0
 20 22  1  0  0  0  0
 20 47  1  0  0  0  0
 21 22  1  0  0  0  0
 21 48  1  0  0  0  0
M  END
> <PUBCHEM_COMPOUND_CID>
241543

> <PUBCHEM_CONFORMER_RMSD>
0.6

> <PUBCHEM_CONFORMER_DIVERSEORDER>
1

> <PUBCHEM_MMFF94_PARTIAL_CHARGES>
17
1 -0.68
10 0.28
12 0.28
16 0.14
17 -0.28
19 -0.29
2 -0.68
20 -0.14
21 -0.14
22 0.54
3 -0.57
44 0.15
45 0.4
46 0.4
47 0.15
48 0.15
9 0.28

> <PUBCHEM_EFFECTIVE_ROTOR_COUNT>
1.4

> <PUBCHEM_PHARMACOPHORE_FEATURES>
9
1 1 acceptor
1 1 donor
1 2 acceptor
1 2 donor
1 3 acceptor
5 4 5 10 11 14 rings
6 12 17 19 20 21 22 rings
6 4 5 6 7 8 9 rings
6 6 7 12 13 16 17 rings

> <PUBCHEM_HEAVY_ATOM_COUNT>
22

> <PUBCHEM_ATOM_DEF_STEREO_COUNT>
7

> <PUBCHEM_ATOM_UDEF_STEREO_COUNT>
0

> <PUBCHEM_BOND_DEF_STEREO_COUNT>
0

> <PUBCHEM_BOND_UDEF_STEREO_COUNT>
0

> <PUBCHEM_ISOTOPIC_ATOM_COUNT>
0

> <PUBCHEM_COMPONENT_COUNT>
1

> <PUBCHEM_CACTVS_TAUTO_COUNT>
3

> <PUBCHEM_CONFORMER_ID>
0003AF8700000001

> <PUBCHEM_MMFF94_ENERGY>
75.8291

> <PUBCHEM_FEATURE_SELFOVERLAP>
45.771

> <PUBCHEM_SHAPE_FINGERPRINT>
10366900 7 17749104470378118298
10498660 4 18341606010651300510
10693767 8 18189071918066965871
10863032 1 18260831526655880059
10967382 1 18411696625294316562
11132069 177 18410572894678183480
11315181 36 17967244291974352592
11370993 70 18337117769373410218
12011746 2 18408319982452118566
12236239 1 17894625981218278201
12403260 363 18267592496901809226
12553582 1 18267562707240668172
12592029 89 18201722877354341923
12596599 1 17677879313536700599
12788726 201 18340210790114407576
13140716 1 18266729367136006434
13224815 77 18113897165102104314
14289901 80 15502366859545173106
14790565 3 17977656842777816969
15099037 51 18342740706503452831
15163728 17 15696607765320058039
15196674 1 18410572915731039782
15375358 24 18413106148009502098
15420108 30 16529745305927099848
15536298 74 18260552229275067722
15848700 24 18410016550189551028
16752209 62 18201159974223573632
16945 1 18266453205128604267
17349148 13 18260267464400926595
17357779 13 18413113878523705292
18186145 218 18410859897251449667
192875 21 18334296457176032013
19862831 5 18410009948634899811
200 152 17675925395807040911
20775438 99 16887838149130573383
21029758 11 18334575728676309849
21267235 1 18409438198346334039
21285901 2 18200881776248634981
21637258 2 15357993239609367751
221357 26 18410865369419775381
221490 88 18196084452529882003
22393880 68 18337962310631643407
2334 1 18409721850808056362
23402539 116 18335142041472774223
23493267 7 17489292127281230672
23557571 272 14346061053889981699
23559900 14 18261959531429325648
2748010 2 18337378383799758026
2838139 119 16342326690727599775
2871803 45 18410854391187830910
296302 2 17346877840717542514
3004659 81 18201438125465367918
3286 77 17313390071216251842
335352 9 18194960970436179502
34934 24 18341335509437564610
350125 39 18197202673335730499
4028521 119 18412825793713580023
4280585 95 17249760422573857550
495365 180 17676501518594074850
5104073 3 18409727391363289770
9709674 26 18338516313983856203

> <PUBCHEM_SHAPE_MULTIPOLES>
435.14
8.8
2.31
1.16
0.04
0.1
0.53
0.08
-2.99
-0.13
-0.12
0.33
-0.13
0.19

> <PUBCHEM_SHAPE_SELFOVERLAP>
941.16

> <PUBCHEM_SHAPE_VOLUME>
236.8

> <PUBCHEM_COORDINATE_TYPE>
2
5
10

$$$$

