11890
  -OEChem-06261206153D

 20 20  0     0  0  0  0  0  0999 V2000
    1.2213    0.4968    0.7984 O   0  0  0  0  0  0  0  0  0  0  0  0
   -0.8828   -2.8382   -0.2484 O   0  5  0  0  0  0  0  0  0  0  0  0
    1.0072   -1.9331    0.4055 O   0  0  0  0  0  0  0  0  0  0  0  0
    1.8107    0.8032   -1.4463 O   0  0  0  0  0  0  0  0  0  0  0  0
   -0.1998   -1.8392    0.0794 N   0  3  0  0  0  0  0  0  0  0  0  0
   -0.0913    0.5807    0.4393 C   0  0  0  0  0  0  0  0  0  0  0  0
   -0.8145   -0.5569    0.0810 C   0  0  0  0  0  0  0  0  0  0  0  0
   -0.7104    1.8306    0.4356 C   0  0  0  0  0  0  0  0  0  0  0  0
   -2.1569   -0.4446   -0.2811 C   0  0  0  0  0  0  0  0  0  0  0  0
   -2.0529    1.9429    0.0737 C   0  0  0  0  0  0  0  0  0  0  0  0
   -2.7760    0.8054   -0.2847 C   0  0  0  0  0  0  0  0  0  0  0  0
    2.1170    0.6292   -0.2742 C   0  0  0  0  0  0  0  0  0  0  0  0
    3.5285    0.5232    0.2218 C   0  0  0  0  0  0  0  0  0  0  0  0
   -0.1539    2.7213    0.7145 H   0  0  0  0  0  0  0  0  0  0  0  0
   -2.7540   -1.3070   -0.5665 H   0  0  0  0  0  0  0  0  0  0  0  0
   -2.5351    2.9161    0.0711 H   0  0  0  0  0  0  0  0  0  0  0  0
   -3.8212    0.8934   -0.5665 H   0  0  0  0  0  0  0  0  0  0  0  0
    3.7277    1.3219    0.9404 H   0  0  0  0  0  0  0  0  0  0  0  0
    4.2178    0.6310   -0.6204 H   0  0  0  0  0  0  0  0  0  0  0  0
    3.6874   -0.4559    0.6800 H   0  0  0  0  0  0  0  0  0  0  0  0
  1  6  1  0  0  0  0
  1 12  1  0  0  0  0
  2  5  1  0  0  0  0
  3  5  2  0  0  0  0
  4 12  2  0  0  0  0
  5  7  1  0  0  0  0
  6  7  1  0  0  0  0
  6  8  2  0  0  0  0
  7  9  2  0  0  0  0
  8 10  1  0  0  0  0
  8 14  1  0  0  0  0
  9 11  1  0  0  0  0
  9 15  1  0  0  0  0
 10 11  2  0  0  0  0
 10 16  1  0  0  0  0
 11 17  1  0  0  0  0
 12 13  1  0  0  0  0
 13 18  1  0  0  0  0
 13 19  1  0  0  0  0
 13 20  1  0  0  0  0
M  CHG  2   2  -1   5   1
M  END
> <PUBCHEM_COMPOUND_CID>
11890

> <PUBCHEM_CONFORMER_RMSD>
0.6

> <PUBCHEM_CONFORMER_DIVERSEORDER>
1
8
2
7
5
6
3
4

> <PUBCHEM_MMFF94_PARTIAL_CHARGES>
17
1 -0.23
10 -0.15
11 -0.15
12 0.66
13 0.06
14 0.15
15 0.15
16 0.15
17 0.15
2 -0.52
3 -0.52
4 -0.57
5 0.91
6 0.08
7 0.13
8 -0.15
9 -0.15

> <PUBCHEM_EFFECTIVE_ROTOR_COUNT>
3

> <PUBCHEM_PHARMACOPHORE_FEATURES>
5
1 2 acceptor
1 2 anion
1 3 acceptor
1 4 acceptor
6 6 7 8 9 10 11 rings

> <PUBCHEM_HEAVY_ATOM_COUNT>
13

> <PUBCHEM_ATOM_DEF_STEREO_COUNT>
0

> <PUBCHEM_ATOM_UDEF_STEREO_COUNT>
0

> <PUBCHEM_BOND_DEF_STEREO_COUNT>
0

> <PUBCHEM_BOND_UDEF_STEREO_COUNT>
0

> <PUBCHEM_ISOTOPIC_ATOM_COUNT>
0

> <PUBCHEM_COMPONENT_COUNT>
1

> <PUBCHEM_CACTVS_TAUTO_COUNT>
1

> <PUBCHEM_CONFORMER_ID>
00002E7200000001

> <PUBCHEM_MMFF94_ENERGY>
43.3752

> <PUBCHEM_FEATURE_SELFOVERLAP>
25.453

> <PUBCHEM_SHAPE_FINGERPRINT>
1 1 18194964277550473590
12423570 1 11845388303586627849
12716758 59 18335419041410164328
14614273 12 18270687592185584125
15775835 57 18262518207615954665
16945 1 18409727318317124865
193761 8 17832989729844497473
20645476 183 17988630866370082678
20871998 184 18044089060206685470
21040471 1 18410299107307843297
22802520 49 18115286926461965958
23402539 116 18261968361523279733
23552423 10 17978232978358970769
23559900 14 18260550005542538984
241688 4 16248000991991436491
2748010 2 18338792441710108343
305870 269 18197217155548746976
528862 383 18127978713540231011
53812653 8 18411421712974880353
7364860 26 17901949973603741647
81228 2 18122057602901227043

> <PUBCHEM_SHAPE_MULTIPOLES>
239.08
3.97
2.36
0.82
2.05
1.62
0.15
-1.62
0.37
-0.79
-0.08
0.26
-0.16
-0.23

> <PUBCHEM_SHAPE_SELFOVERLAP>
501.685

> <PUBCHEM_SHAPE_VOLUME>
133.4

> <PUBCHEM_COORDINATE_TYPE>
2
5
10

$$$$

