4488
  -OEChem-07051213042D

 29 30  0     0  0  0  0  0  0999 V2000
    2.0000   -3.2220    0.0000 F   0  0  0  0  0  0  0  0  0  0  0  0
    3.3660   -3.5880    0.0000 F   0  0  0  0  0  0  0  0  0  0  0  0
    2.3660   -1.8560    0.0000 F   0  0  0  0  0  0  0  0  0  0  0  0
    4.5981    3.2780    0.0000 O   0  0  0  0  0  0  0  0  0  0  0  0
    3.7320    1.7780    0.0000 O   0  0  0  0  0  0  0  0  0  0  0  0
    4.5981    0.2780    0.0000 N   0  0  0  0  0  0  0  0  0  0  0  0
    6.3301    0.2780    0.0000 N   0  0  0  0  0  0  0  0  0  0  0  0
    4.5981   -0.7220    0.0000 C   0  0  0  0  0  0  0  0  0  0  0  0
    3.7320   -2.2220    0.0000 C   0  0  0  0  0  0  0  0  0  0  0  0
    3.7320   -1.2220    0.0000 C   0  0  0  0  0  0  0  0  0  0  0  0
    5.4641    0.7780    0.0000 C   0  0  0  0  0  0  0  0  0  0  0  0
    5.4641   -1.2220    0.0000 C   0  0  0  0  0  0  0  0  0  0  0  0
    4.5981   -2.7220    0.0000 C   0  0  0  0  0  0  0  0  0  0  0  0
    5.4641    1.7780    0.0000 C   0  0  0  0  0  0  0  0  0  0  0  0
    5.4641   -2.2220    0.0000 C   0  0  0  0  0  0  0  0  0  0  0  0
    2.8660   -2.7220    0.0000 C   0  0  0  0  0  0  0  0  0  0  0  0
    6.3301    2.2780    0.0000 C   0  0  0  0  0  0  0  0  0  0  0  0
    7.1962    1.7780    0.0000 C   0  0  0  0  0  0  0  0  0  0  0  0
    7.1962    0.7780    0.0000 C   0  0  0  0  0  0  0  0  0  0  0  0
    4.5981    2.2780    0.0000 C   0  0  0  0  0  0  0  0  0  0  0  0
    3.1951   -0.9120    0.0000 H   0  0  0  0  0  0  0  0  0  0  0  0
    4.0611    0.5880    0.0000 H   0  0  0  0  0  0  0  0  0  0  0  0
    6.0010   -0.9120    0.0000 H   0  0  0  0  0  0  0  0  0  0  0  0
    4.5981   -3.3420    0.0000 H   0  0  0  0  0  0  0  0  0  0  0  0
    6.0010   -2.5320    0.0000 H   0  0  0  0  0  0  0  0  0  0  0  0
    6.3301    2.8980    0.0000 H   0  0  0  0  0  0  0  0  0  0  0  0
    7.7331    2.0880    0.0000 H   0  0  0  0  0  0  0  0  0  0  0  0
    7.7331    0.4680    0.0000 H   0  0  0  0  0  0  0  0  0  0  0  0
    5.1350    3.5880    0.0000 H   0  0  0  0  0  0  0  0  0  0  0  0
  1 16  1  0  0  0  0
  2 16  1  0  0  0  0
  3 16  1  0  0  0  0
  4 20  1  0  0  0  0
  4 29  1  0  0  0  0
  5 20  2  0  0  0  0
  6  8  1  0  0  0  0
  6 11  1  0  0  0  0
  6 22  1  0  0  0  0
  7 11  1  0  0  0  0
  7 19  2  0  0  0  0
  8 10  1  0  0  0  0
  8 12  2  0  0  0  0
  9 10  2  0  0  0  0
  9 13  1  0  0  0  0
  9 16  1  0  0  0  0
 10 21  1  0  0  0  0
 11 14  2  0  0  0  0
 12 15  1  0  0  0  0
 12 23  1  0  0  0  0
 13 15  2  0  0  0  0
 13 24  1  0  0  0  0
 14 17  1  0  0  0  0
 14 20  1  0  0  0  0
 15 25  1  0  0  0  0
 17 18  2  0  0  0  0
 17 26  1  0  0  0  0
 18 19  1  0  0  0  0
 18 27  1  0  0  0  0
 19 28  1  0  0  0  0
M  END
> <PUBCHEM_COMPOUND_CID>
4488

> <PUBCHEM_COMPOUND_CANONICALIZED>
1

> <PUBCHEM_CACTVS_COMPLEXITY>
349

> <PUBCHEM_CACTVS_HBOND_ACCEPTOR>
7

> <PUBCHEM_CACTVS_HBOND_DONOR>
2

> <PUBCHEM_CACTVS_ROTATABLE_BOND>
3

> <PUBCHEM_CACTVS_SUBSKEYS>
AAADccBzMYAAAAAAAAAAAAAAAAAAAAAAAAA8QAAAAAAAAAABwAAAHwAQCAAADAjBmhQ9+JLIEgCoAjb3bACCgCk1AiAJ2CE4bNiIJvrAnZGEcYhu0API2eeYkQIOAAAAQAAAAAAAAACAAAAAAAAAAAAAAA==

> <PUBCHEM_IUPAC_OPENEYE_NAME>
2-[3-(trifluoromethyl)anilino]pyridine-3-carboxylic acid

> <PUBCHEM_IUPAC_CAS_NAME>
2-[3-(trifluoromethyl)anilino]-3-pyridinecarboxylic acid

> <PUBCHEM_IUPAC_NAME>
2-[3-(trifluoromethyl)anilino]pyridine-3-carboxylic acid

> <PUBCHEM_IUPAC_SYSTEMATIC_NAME>
2-[[3-(trifluoromethyl)phenyl]amino]pyridine-3-carboxylic acid

> <PUBCHEM_IUPAC_TRADITIONAL_NAME>
2-[3-(trifluoromethyl)anilino]nicotinic acid

> <PUBCHEM_IUPAC_INCHI>
InChI=1S/C13H9F3N2O2/c14-13(15,16)8-3-1-4-9(7-8)18-11-10(12(19)20)5-2-6-17-11/h1-7H,(H,17,18)(H,19,20)

> <PUBCHEM_IUPAC_INCHIKEY>
JZFPYUNJRRFVQU-UHFFFAOYSA-N

> <PUBCHEM_XLOGP3_AA>
3.7

> <PUBCHEM_EXACT_MASS>
282.061612

> <PUBCHEM_MOLECULAR_FORMULA>
C13H9F3N2O2

> <PUBCHEM_MOLECULAR_WEIGHT>
282.21797

> <PUBCHEM_OPENEYE_CAN_SMILES>
C1=CC(=CC(=C1)NC2=C(C=CC=N2)C(=O)O)C(F)(F)F

> <PUBCHEM_OPENEYE_ISO_SMILES>
C1=CC(=CC(=C1)NC2=C(C=CC=N2)C(=O)O)C(F)(F)F

> <PUBCHEM_CACTVS_TPSA>
62.2

> <PUBCHEM_MONOISOTOPIC_WEIGHT>
282.061612

> <PUBCHEM_TOTAL_CHARGE>
0

> <PUBCHEM_HEAVY_ATOM_COUNT>
20

> <PUBCHEM_ATOM_DEF_STEREO_COUNT>
0

> <PUBCHEM_ATOM_UDEF_STEREO_COUNT>
0

> <PUBCHEM_BOND_DEF_STEREO_COUNT>
0

> <PUBCHEM_BOND_UDEF_STEREO_COUNT>
0

> <PUBCHEM_ISOTOPIC_ATOM_COUNT>
0

> <PUBCHEM_COMPONENT_COUNT>
1

> <PUBCHEM_CACTVS_TAUTO_COUNT>
4

> <PUBCHEM_COORDINATE_TYPE>
1
5
255

> <PUBCHEM_BONDANNOTATIONS>
11  14  8
12  15  8
13  15  8
14  17  8
17  18  8
18  19  8
7  11  8
7  19  8
8  10  8
8  12  8
9  10  8
9  13  8

$$$$

