656690
  -OEChem-07051213032D

 32 33  0     0  0  0  0  0  0999 V2000
    3.7320    3.8450    0.0000 O   0  0  0  0  0  0  0  0  0  0  0  0
    2.0000   -3.1550    0.0000 O   0  0  0  0  0  0  0  0  0  0  0  0
    3.7320   -4.1550    0.0000 O   0  0  0  0  0  0  0  0  0  0  0  0
    3.7320   -0.1550    0.0000 C   0  0  0  0  0  0  0  0  0  0  0  0
    3.7320    0.8450    0.0000 C   0  0  0  0  0  0  0  0  0  0  0  0
    3.7320   -1.1550    0.0000 C   0  0  0  0  0  0  0  0  0  0  0  0
    4.7320   -0.1550    0.0000 C   0  0  0  0  0  0  0  0  0  0  0  0
    2.7320   -0.1550    0.0000 C   0  0  0  0  0  0  0  0  0  0  0  0
    4.5981    1.3450    0.0000 C   0  0  0  0  0  0  0  0  0  0  0  0
    2.8660    1.3450    0.0000 C   0  0  0  0  0  0  0  0  0  0  0  0
    2.8660   -1.6550    0.0000 C   0  0  0  0  0  0  0  0  0  0  0  0
    4.5981   -1.6550    0.0000 C   0  0  0  0  0  0  0  0  0  0  0  0
    4.5981    2.3450    0.0000 C   0  0  0  0  0  0  0  0  0  0  0  0
    2.8660    2.3450    0.0000 C   0  0  0  0  0  0  0  0  0  0  0  0
    2.8660   -2.6550    0.0000 C   0  0  0  0  0  0  0  0  0  0  0  0
    4.5981   -2.6550    0.0000 C   0  0  0  0  0  0  0  0  0  0  0  0
    3.7320    2.8450    0.0000 C   0  0  0  0  0  0  0  0  0  0  0  0
    3.7320   -3.1550    0.0000 C   0  0  0  0  0  0  0  0  0  0  0  0
    4.7320   -0.7750    0.0000 H   0  0  0  0  0  0  0  0  0  0  0  0
    5.3520   -0.1550    0.0000 H   0  0  0  0  0  0  0  0  0  0  0  0
    4.7320    0.4650    0.0000 H   0  0  0  0  0  0  0  0  0  0  0  0
    2.7320    0.4650    0.0000 H   0  0  0  0  0  0  0  0  0  0  0  0
    2.1120   -0.1550    0.0000 H   0  0  0  0  0  0  0  0  0  0  0  0
    2.7320   -0.7750    0.0000 H   0  0  0  0  0  0  0  0  0  0  0  0
    5.1350    1.0350    0.0000 H   0  0  0  0  0  0  0  0  0  0  0  0
    2.3291    1.0350    0.0000 H   0  0  0  0  0  0  0  0  0  0  0  0
    2.3291   -1.3450    0.0000 H   0  0  0  0  0  0  0  0  0  0  0  0
    5.1350   -1.3450    0.0000 H   0  0  0  0  0  0  0  0  0  0  0  0
    5.1350    2.6550    0.0000 H   0  0  0  0  0  0  0  0  0  0  0  0
    2.3291    2.6550    0.0000 H   0  0  0  0  0  0  0  0  0  0  0  0
    5.1350   -2.9650    0.0000 H   0  0  0  0  0  0  0  0  0  0  0  0
    4.2690    4.1550    0.0000 H   0  0  0  0  0  0  0  0  0  0  0  0
  1 17  1  0  0  0  0
  1 32  1  0  0  0  0
  2 15  2  0  0  0  0
  3 18  2  0  0  0  0
  4  5  1  0  0  0  0
  4  6  1  0  0  0  0
  4  7  1  0  0  0  0
  4  8  1  0  0  0  0
  5  9  2  0  0  0  0
  5 10  1  0  0  0  0
  6 11  2  0  0  0  0
  6 12  1  0  0  0  0
  7 19  1  0  0  0  0
  7 20  1  0  0  0  0
  7 21  1  0  0  0  0
  8 22  1  0  0  0  0
  8 23  1  0  0  0  0
  8 24  1  0  0  0  0
  9 13  1  0  0  0  0
  9 25  1  0  0  0  0
 10 14  2  0  0  0  0
 10 26  1  0  0  0  0
 11 15  1  0  0  0  0
 11 27  1  0  0  0  0
 12 16  2  0  0  0  0
 12 28  1  0  0  0  0
 13 17  2  0  0  0  0
 13 29  1  0  0  0  0
 14 17  1  0  0  0  0
 14 30  1  0  0  0  0
 15 18  1  0  0  0  0
 16 18  1  0  0  0  0
 16 31  1  0  0  0  0
M  END
> <PUBCHEM_COMPOUND_CID>
656690

> <PUBCHEM_COMPOUND_CANONICALIZED>
1

> <PUBCHEM_CACTVS_COMPLEXITY>
421

> <PUBCHEM_CACTVS_HBOND_ACCEPTOR>
3

> <PUBCHEM_CACTVS_HBOND_DONOR>
1

> <PUBCHEM_CACTVS_ROTATABLE_BOND>
2

> <PUBCHEM_CACTVS_SUBSKEYS>
AAADccBwMAAAAAAAAAAAAAAAAAAAAAAAAAAwQAAAAAAAAAABAAAAGgAACAAADgSAmAAyBoAAAgCIAqBSAAACAAAgIAAIiAEGCMgIJiKCERKAcAAkwBEImYeAwPAPoAAAAAAAAABAAAAAAAAAAAAAAAAAAA==

> <PUBCHEM_IUPAC_OPENEYE_NAME>
4-[1-(4-hydroxyphenyl)-1-methyl-ethyl]-1,2-benzoquinone

> <PUBCHEM_IUPAC_CAS_NAME>
4-[2-(4-hydroxyphenyl)propan-2-yl]cyclohexa-3,5-diene-1,2-dione

> <PUBCHEM_IUPAC_NAME>
4-[2-(4-hydroxyphenyl)propan-2-yl]cyclohexa-3,5-diene-1,2-dione

> <PUBCHEM_IUPAC_SYSTEMATIC_NAME>
4-[2-(4-hydroxyphenyl)propan-2-yl]cyclohexa-3,5-diene-1,2-dione

> <PUBCHEM_IUPAC_TRADITIONAL_NAME>
4-[1-(4-hydroxyphenyl)-1-methyl-ethyl]-o-benzoquinone

> <PUBCHEM_IUPAC_INCHI>
InChI=1S/C15H14O3/c1-15(2,10-3-6-12(16)7-4-10)11-5-8-13(17)14(18)9-11/h3-9,16H,1-2H3

> <PUBCHEM_IUPAC_INCHIKEY>
NZZDOSANPOZUPK-UHFFFAOYSA-N

> <PUBCHEM_XLOGP3_AA>
2.4

> <PUBCHEM_EXACT_MASS>
242.094294

> <PUBCHEM_MOLECULAR_FORMULA>
C15H14O3

> <PUBCHEM_MOLECULAR_WEIGHT>
242.26986

> <PUBCHEM_OPENEYE_CAN_SMILES>
CC(C)(C1=CC=C(C=C1)O)C2=CC(=O)C(=O)C=C2

> <PUBCHEM_OPENEYE_ISO_SMILES>
CC(C)(C1=CC=C(C=C1)O)C2=CC(=O)C(=O)C=C2

> <PUBCHEM_CACTVS_TPSA>
54.4

> <PUBCHEM_MONOISOTOPIC_WEIGHT>
242.094294

> <PUBCHEM_TOTAL_CHARGE>
0

> <PUBCHEM_HEAVY_ATOM_COUNT>
18

> <PUBCHEM_ATOM_DEF_STEREO_COUNT>
0

> <PUBCHEM_ATOM_UDEF_STEREO_COUNT>
0

> <PUBCHEM_BOND_DEF_STEREO_COUNT>
0

> <PUBCHEM_BOND_UDEF_STEREO_COUNT>
0

> <PUBCHEM_ISOTOPIC_ATOM_COUNT>
0

> <PUBCHEM_COMPONENT_COUNT>
1

> <PUBCHEM_CACTVS_TAUTO_COUNT>
2

> <PUBCHEM_COORDINATE_TYPE>
1
5
255

> <PUBCHEM_BONDANNOTATIONS>
10  14  8
13  17  8
14  17  8
5  10  8
5  9  8
9  13  8

$$$$

