123630
  -OEChem-07051212543D

 32 34  0     1  0  0  0  0  0999 V2000
    0.0157   -1.4148    0.3388 S   0  0  0  0  0  0  0  0  0  0  0  0
    0.9326   -1.8301    1.3824 O   0  0  0  0  0  0  0  0  0  0  0  0
    0.0431   -2.0564   -0.9626 O   0  0  0  0  0  0  0  0  0  0  0  0
   -3.9044   -0.6287   -1.3156 O   0  0  0  0  0  0  0  0  0  0  0  0
   -1.0824    3.0989   -0.5139 O   0  0  0  0  0  0  0  0  0  0  0  0
   -2.7363    2.2896    0.8299 O   0  0  0  0  0  0  0  0  0  0  0  0
   -2.1600   -0.2357    0.2222 N   0  0  0  0  0  0  0  0  0  0  0  0
    2.5209    0.3863   -0.5342 N   0  0  0  0  0  0  0  0  0  0  0  0
    3.0109   -0.8371   -0.7669 N   0  0  0  0  0  0  0  0  0  0  0  0
    4.2372   -0.8664   -0.2567 N   0  0  0  0  0  0  0  0  0  0  0  0
    0.1424    0.4162    0.1024 C   0  0  2  0  0  0  0  0  0  0  0  0
   -1.6519   -1.3910    0.9778 C   0  0  1  0  0  0  0  0  0  0  0  0
   -1.2863    0.7675   -0.3557 C   0  0  2  0  0  0  0  0  0  0  0  0
   -2.7670   -2.2176    0.3265 C   0  0  0  0  0  0  0  0  0  0  0  0
   -3.1426   -0.9246   -0.4233 C   0  0  0  0  0  0  0  0  0  0  0  0
    1.1834    0.7349   -0.9716 C   0  0  0  0  0  0  0  0  0  0  0  0
    0.5484    1.0683    1.4332 C   0  0  0  0  0  0  0  0  0  0  0  0
   -1.7991    2.1060    0.0674 C   0  0  0  0  0  0  0  0  0  0  0  0
    3.4029    1.1758    0.1261 C   0  0  0  0  0  0  0  0  0  0  0  0
    4.4925    0.3587    0.2939 C   0  0  0  0  0  0  0  0  0  0  0  0
   -1.7157   -1.2467    2.0599 H   0  0  0  0  0  0  0  0  0  0  0  0
   -1.3923    0.6903   -1.4454 H   0  0  0  0  0  0  0  0  0  0  0  0
   -3.5441   -2.5675    1.0114 H   0  0  0  0  0  0  0  0  0  0  0  0
   -2.4473   -3.0358   -0.3229 H   0  0  0  0  0  0  0  0  0  0  0  0
    1.1952    1.8058   -1.2059 H   0  0  0  0  0  0  0  0  0  0  0  0
    0.9944    0.2019   -1.9106 H   0  0  0  0  0  0  0  0  0  0  0  0
   -0.2472    0.9548    2.1794 H   0  0  0  0  0  0  0  0  0  0  0  0
    1.4363    0.6169    1.8852 H   0  0  0  0  0  0  0  0  0  0  0  0
    0.7337    2.1418    1.3191 H   0  0  0  0  0  0  0  0  0  0  0  0
   -1.4033    3.9867   -0.2475 H   0  0  0  0  0  0  0  0  0  0  0  0
    3.2017    2.2005    0.4038 H   0  0  0  0  0  0  0  0  0  0  0  0
    5.4327    0.5852    0.7732 H   0  0  0  0  0  0  0  0  0  0  0  0
  1  2  2  0  0  0  0
  1  3  2  0  0  0  0
  1 11  1  0  0  0  0
  1 12  1  0  0  0  0
  4 15  2  0  0  0  0
  5 18  1  0  0  0  0
  5 30  1  0  0  0  0
  6 18  2  0  0  0  0
  7 12  1  0  0  0  0
  7 13  1  0  0  0  0
  7 15  1  0  0  0  0
  8  9  1  0  0  0  0
  8 16  1  0  0  0  0
  8 19  1  0  0  0  0
  9 10  2  0  0  0  0
 10 20  1  0  0  0  0
 11 13  1  0  0  0  0
 11 16  1  0  0  0  0
 11 17  1  0  0  0  0
 12 14  1  0  0  0  0
 12 21  1  0  0  0  0
 13 18  1  0  0  0  0
 13 22  1  0  0  0  0
 14 15  1  0  0  0  0
 14 23  1  0  0  0  0
 14 24  1  0  0  0  0
 16 25  1  0  0  0  0
 16 26  1  0  0  0  0
 17 27  1  0  0  0  0
 17 28  1  0  0  0  0
 17 29  1  0  0  0  0
 19 20  2  0  0  0  0
 19 31  1  0  0  0  0
 20 32  1  0  0  0  0
M  END
> <PUBCHEM_COMPOUND_CID>
123630

> <PUBCHEM_CONFORMER_RMSD>
0.6

> <PUBCHEM_CONFORMER_DIVERSEORDER>
4
1
6
11
12
15
9
8
13
5
2
3
14
10
7

> <PUBCHEM_MMFF94_PARTIAL_CHARGES>
22
1 1.1
10 -0.23
11 0.11
12 0.32
13 0.36
14 0.05
15 0.58
16 0.26
18 0.66
19 -0.3
2 -0.65
20 0.08
3 -0.65
30 0.5
31 0.15
32 0.15
4 -0.57
5 -0.65
6 -0.57
7 -0.59
8 0.31
9 -0.42

> <PUBCHEM_EFFECTIVE_ROTOR_COUNT>
3.6

> <PUBCHEM_PHARMACOPHORE_FEATURES>
9
1 2 acceptor
1 3 acceptor
1 4 acceptor
1 5 acceptor
1 6 acceptor
3 5 6 18 anion
4 7 12 14 15 rings
5 8 9 10 19 20 rings
7 1 7 11 12 13 14 15 rings

> <PUBCHEM_HEAVY_ATOM_COUNT>
20

> <PUBCHEM_ATOM_DEF_STEREO_COUNT>
3

> <PUBCHEM_ATOM_UDEF_STEREO_COUNT>
0

> <PUBCHEM_BOND_DEF_STEREO_COUNT>
0

> <PUBCHEM_BOND_UDEF_STEREO_COUNT>
0

> <PUBCHEM_ISOTOPIC_ATOM_COUNT>
0

> <PUBCHEM_COMPONENT_COUNT>
1

> <PUBCHEM_CACTVS_TAUTO_COUNT>
1

> <PUBCHEM_CONFORMER_ID>
0001E2EE00000004

> <PUBCHEM_MMFF94_ENERGY>
41.7865

> <PUBCHEM_FEATURE_SELFOVERLAP>
49.424

> <PUBCHEM_SHAPE_FINGERPRINT>
10062212 137 18265058101125143954
10366900 7 18261954025602843024
104564 63 18409167736008258985
10863032 1 18189334731024853702
11315181 36 18202281373906581608
12403814 3 17895196558506142175
13140716 1 18196361521012318803
14251745 187 18408327682911885209
14614273 12 18336256950901359873
16752209 62 18410014346981980866
16945 1 18341033143254668582
17357779 13 18261405394743352053
192875 21 18343584010341885684
19862831 5 17632584816092627326
200 152 17822010891434572230
20510252 161 18408600344890069632
20525323 117 18409725192461138247
21501502 16 18267028443062632627
22344851 341 18196643218947877907
23402539 116 18335708208652209903
23419403 2 17168725049569061561
23557571 272 18114170956609403156
23558518 356 18270669888098274800
23559900 14 18340209566787017800
2748010 2 18051421664919195875
3286 77 17023469629385627057
353137 74 18272373083349260595
4340502 62 18119514677963479993
5104073 3 18335703867015150664
69090 78 18259989232435975286
81228 2 18341040848415656185
9709674 26 18335132120605067022

> <PUBCHEM_SHAPE_MULTIPOLES>
366.17
6.5
2.59
1.1
5.01
1.08
0.12
-0.93
-0.91
-1.78
0.21
-0.18
-0.11
0

> <PUBCHEM_SHAPE_SELFOVERLAP>
777.564

> <PUBCHEM_SHAPE_VOLUME>
206.9

> <PUBCHEM_COORDINATE_TYPE>
2
5
10

$$$$

