46173872
  -OEChem-07051213103D

 31 30  0     1  0  0  0  0  0999 V2000
    0.4662   -0.9326   -0.8350 S   0  0  0  0  0  0  0  0  0  0  0  0
   -3.4227    2.0935    0.8592 S   0  0  0  0  0  0  0  0  0  0  0  0
    2.2510    1.9444   -1.3643 O   0  0  0  0  0  0  0  0  0  0  0  0
    2.9339    2.2920    0.7708 O   0  0  0  0  0  0  0  0  0  0  0  0
    0.1638   -3.6054   -0.5450 O   0  0  0  0  0  0  0  0  0  0  0  0
    4.0913   -0.2001    0.8079 N   0  0  0  0  0  0  0  0  0  0  0  0
   -0.8999   -3.0074    0.1317 N   0  0  0  0  0  0  0  0  0  0  0  0
   -2.9369   -0.3996   -0.3115 C   0  0  0  0  0  0  0  0  0  0  0  0
   -1.8298   -0.7483    0.6872 C   0  0  0  0  0  0  0  0  0  0  0  0
    2.9510    0.0288   -0.0816 C   0  0  1  0  0  0  0  0  0  0  0  0
    1.7193   -0.7100    0.4455 C   0  0  0  0  0  0  0  0  0  0  0  0
   -4.0368    0.4882    0.2694 C   0  0  0  0  0  0  0  0  0  0  0  0
   -0.8374   -1.7147    0.0644 C   0  0  0  0  0  0  0  0  0  0  0  0
    2.7302    1.5275   -0.1651 C   0  0  0  0  0  0  0  0  0  0  0  0
   -3.3431    2.9437   -0.7335 C   0  0  0  0  0  0  0  0  0  0  0  0
   -3.4003   -1.3302   -0.6648 H   0  0  0  0  0  0  0  0  0  0  0  0
   -2.5058    0.0704   -1.2037 H   0  0  0  0  0  0  0  0  0  0  0  0
   -2.2643   -1.2372    1.5673 H   0  0  0  0  0  0  0  0  0  0  0  0
   -1.3000    0.1435    1.0362 H   0  0  0  0  0  0  0  0  0  0  0  0
    3.2445   -0.3394   -1.0722 H   0  0  0  0  0  0  0  0  0  0  0  0
    1.9956   -1.7096    0.8003 H   0  0  0  0  0  0  0  0  0  0  0  0
    1.2758   -0.1704    1.2901 H   0  0  0  0  0  0  0  0  0  0  0  0
   -4.8308    0.6459   -0.4679 H   0  0  0  0  0  0  0  0  0  0  0  0
   -4.4957   -0.0199    1.1246 H   0  0  0  0  0  0  0  0  0  0  0  0
    4.9279    0.2237    0.4077 H   0  0  0  0  0  0  0  0  0  0  0  0
    4.2832   -1.1994    0.8694 H   0  0  0  0  0  0  0  0  0  0  0  0
   -3.0212    3.9759   -0.5707 H   0  0  0  0  0  0  0  0  0  0  0  0
   -4.3269    2.9618   -1.2097 H   0  0  0  0  0  0  0  0  0  0  0  0
   -2.6202    2.4610   -1.3955 H   0  0  0  0  0  0  0  0  0  0  0  0
    2.1028    2.9140   -1.3822 H   0  0  0  0  0  0  0  0  0  0  0  0
   -0.0206   -4.5494   -0.4043 H   0  0  0  0  0  0  0  0  0  0  0  0
  1 11  1  0  0  0  0
  1 13  1  0  0  0  0
  2 12  1  0  0  0  0
  2 15  1  0  0  0  0
  3 14  1  0  0  0  0
  3 30  1  0  0  0  0
  4 14  2  0  0  0  0
  5  7  1  0  0  0  0
  5 31  1  0  0  0  0
  6 10  1  0  0  0  0
  6 25  1  0  0  0  0
  6 26  1  0  0  0  0
  7 13  2  0  0  0  0
  8  9  1  0  0  0  0
  8 12  1  0  0  0  0
  8 16  1  0  0  0  0
  8 17  1  0  0  0  0
  9 13  1  0  0  0  0
  9 18  1  0  0  0  0
  9 19  1  0  0  0  0
 10 11  1  0  0  0  0
 10 14  1  0  0  0  0
 10 20  1  0  0  0  0
 11 21  1  0  0  0  0
 11 22  1  0  0  0  0
 12 23  1  0  0  0  0
 12 24  1  0  0  0  0
 15 27  1  0  0  0  0
 15 28  1  0  0  0  0
 15 29  1  0  0  0  0
M  END
> <PUBCHEM_COMPOUND_CID>
46173872

> <PUBCHEM_CONFORMER_RMSD>
1

> <PUBCHEM_CONFORMER_DIVERSEORDER>
1
43
54
86
92
64
31
88
80
29
19
34
35
55
98
101
20
100
71
85
47
102
14
63
81
27
93
51
91
23
87
6
42
59
17
79
97
48
40
13
76
83
10
65
26
103
28
44
37
45
50
15
5
60
69
49
4
41
73
75
21
25
11
38
46
58
9
3
95
90
96
61
24
84
32
67
78
53
2
77
18
89
94
82
62
33
99
66
57
30
7
8
68
74
16
39
72
56
52
70
22
12
36

> <PUBCHEM_MMFF94_PARTIAL_CHARGES>
18
1 -0.37
10 0.33
11 0.23
12 0.23
13 0.53
14 0.66
15 0.23
2 -0.46
25 0.36
26 0.36
3 -0.65
30 0.5
31 0.4
4 -0.57
5 -0.34
6 -0.99
7 -0.51
9 0.06

> <PUBCHEM_EFFECTIVE_ROTOR_COUNT>
8

> <PUBCHEM_PHARMACOPHORE_FEATURES>
9
1 15 hydrophobe
1 3 acceptor
1 4 acceptor
1 5 anion
1 6 cation
1 6 donor
1 7 acceptor
3 3 4 14 anion
4 2 8 9 12 hydrophobe

> <PUBCHEM_HEAVY_ATOM_COUNT>
15

> <PUBCHEM_ATOM_DEF_STEREO_COUNT>
1

> <PUBCHEM_ATOM_UDEF_STEREO_COUNT>
0

> <PUBCHEM_BOND_DEF_STEREO_COUNT>
1

> <PUBCHEM_BOND_UDEF_STEREO_COUNT>
0

> <PUBCHEM_ISOTOPIC_ATOM_COUNT>
0

> <PUBCHEM_COMPONENT_COUNT>
1

> <PUBCHEM_CACTVS_TAUTO_COUNT>
2

> <PUBCHEM_CONFORMER_ID>
02C08EB000000001

> <PUBCHEM_MMFF94_ENERGY>
26.0361

> <PUBCHEM_FEATURE_SELFOVERLAP>
45.731

> <PUBCHEM_SHAPE_FINGERPRINT>
12173636 292 18264773168678550719
1741750 31 18336544902340671490
18186145 218 18115857654585400711
20605781 55 18408884040412136873
20621476 13 17692538123281927397
20671657 1 18047182235866405879
21524375 3 18408885144250757235
22749437 52 18410576223183476849
23598291 2 18201165334775425034
474 4 18338795732045362873
6333272 397 18410851066872789091
7364860 26 18048312546615360935
8050 44 18267865163327980525

> <PUBCHEM_SHAPE_MULTIPOLES>
288.82
7.47
3.72
1
1.53
1.27
-0.09
-5.95
1.09
0.45
-0.54
-0.07
-0.36
0.14

> <PUBCHEM_SHAPE_SELFOVERLAP>
517.733

> <PUBCHEM_SHAPE_VOLUME>
187.2

> <PUBCHEM_COORDINATE_TYPE>
2
5
10

$$$$

