442211
  -OEChem-07051212572D

 45 48  0     1  0  0  0  0  0999 V2000
    4.3771   -0.2032    0.0000 O   0  0  0  0  0  0  0  0  0  0  0  0
    2.8804   -1.1161    0.0000 O   0  0  0  0  0  0  0  0  0  0  0  0
    6.5247    3.2428    0.0000 O   0  0  0  0  0  0  0  0  0  0  0  0
    4.4764    3.2428    0.0000 O   0  0  0  0  0  0  0  0  0  0  0  0
    7.2711   -1.7515    0.0000 N   0  0  0  0  0  0  0  0  0  0  0  0
    6.4015   -1.1781    0.0000 C   0  0  2  0  0  0  0  0  0  0  0  0
    5.5006   -1.6120    0.0000 C   0  0  0  0  0  0  0  0  0  0  0  0
    6.6241   -0.2032    0.0000 C   0  0  0  0  0  0  0  0  0  0  0  0
    5.4067   -2.6494    0.0000 C   0  0  0  0  0  0  0  0  0  0  0  0
    6.2628   -3.2428    0.0000 C   0  0  0  0  0  0  0  0  0  0  0  0
    7.2013   -2.7908    0.0000 C   0  0  0  0  0  0  0  0  0  0  0  0
    4.5996   -1.1781    0.0000 C   0  0  0  0  0  0  0  0  0  0  0  0
    6.0006    0.5787    0.0000 C   0  0  0  0  0  0  0  0  0  0  0  0
    5.0006    0.5787    0.0000 C   0  0  0  0  0  0  0  0  0  0  0  0
    4.5494   -3.1327    0.0000 C   0  0  0  0  0  0  0  0  0  0  0  0
    3.7313   -1.6415    0.0000 C   0  0  0  0  0  0  0  0  0  0  0  0
    3.7060   -2.6253    0.0000 C   0  0  0  0  0  0  0  0  0  0  0  0
    6.5352    1.4726    0.0000 C   0  0  0  0  0  0  0  0  0  0  0  0
    4.4659    1.4726    0.0000 C   0  0  0  0  0  0  0  0  0  0  0  0
    6.0214    2.3787    0.0000 C   0  0  0  0  0  0  0  0  0  0  0  0
    4.9798    2.3787    0.0000 C   0  0  0  0  0  0  0  0  0  0  0  0
    2.0000   -1.5903    0.0000 C   0  0  0  0  0  0  0  0  0  0  0  0
    7.5247    3.2389    0.0000 C   0  0  0  0  0  0  0  0  0  0  0  0
    3.4764    3.2389    0.0000 C   0  0  0  0  0  0  0  0  0  0  0  0
    7.1904   -0.8615    0.0000 H   0  0  0  0  0  0  0  0  0  0  0  0
    7.1827   -0.4722    0.0000 H   0  0  0  0  0  0  0  0  0  0  0  0
    7.0106    0.2816    0.0000 H   0  0  0  0  0  0  0  0  0  0  0  0
    5.8276   -3.6844    0.0000 H   0  0  0  0  0  0  0  0  0  0  0  0
    6.6234   -3.7471    0.0000 H   0  0  0  0  0  0  0  0  0  0  0  0
    7.8266   -1.4761    0.0000 H   0  0  0  0  0  0  0  0  0  0  0  0
    7.3707   -3.3872    0.0000 H   0  0  0  0  0  0  0  0  0  0  0  0
    7.8179   -2.7259    0.0000 H   0  0  0  0  0  0  0  0  0  0  0  0
    4.5406   -3.7526    0.0000 H   0  0  0  0  0  0  0  0  0  0  0  0
    3.1624   -2.9235    0.0000 H   0  0  0  0  0  0  0  0  0  0  0  0
    7.1552    1.4654    0.0000 H   0  0  0  0  0  0  0  0  0  0  0  0
    3.8460    1.4654    0.0000 H   0  0  0  0  0  0  0  0  0  0  0  0
    1.7060   -1.0444    0.0000 H   0  0  0  0  0  0  0  0  0  0  0  0
    1.4541   -1.8843    0.0000 H   0  0  0  0  0  0  0  0  0  0  0  0
    2.2940   -2.1361    0.0000 H   0  0  0  0  0  0  0  0  0  0  0  0
    7.5223    2.6189    0.0000 H   0  0  0  0  0  0  0  0  0  0  0  0
    8.1447    3.2365    0.0000 H   0  0  0  0  0  0  0  0  0  0  0  0
    7.5271    3.8589    0.0000 H   0  0  0  0  0  0  0  0  0  0  0  0
    3.4740    3.8589    0.0000 H   0  0  0  0  0  0  0  0  0  0  0  0
    2.8564    3.2365    0.0000 H   0  0  0  0  0  0  0  0  0  0  0  0
    3.4788    2.6189    0.0000 H   0  0  0  0  0  0  0  0  0  0  0  0
  1 12  1  0  0  0  0
  1 14  1  0  0  0  0
  2 16  1  0  0  0  0
  2 22  1  0  0  0  0
  3 20  1  0  0  0  0
  3 23  1  0  0  0  0
  4 21  1  0  0  0  0
  4 24  1  0  0  0  0
  5  6  1  0  0  0  0
  5 11  1  0  0  0  0
  5 30  1  0  0  0  0
  6  7  1  0  0  0  0
  6  8  1  0  0  0  0
  6 25  1  1  0  0  0
  7  9  2  0  0  0  0
  7 12  1  0  0  0  0
  8 13  1  0  0  0  0
  8 26  1  0  0  0  0
  8 27  1  0  0  0  0
  9 10  1  0  0  0  0
  9 15  1  0  0  0  0
 10 11  1  0  0  0  0
 10 28  1  0  0  0  0
 10 29  1  0  0  0  0
 11 31  1  0  0  0  0
 11 32  1  0  0  0  0
 12 16  2  0  0  0  0
 13 14  1  0  0  0  0
 13 18  2  0  0  0  0
 14 19  2  0  0  0  0
 15 17  2  0  0  0  0
 15 33  1  0  0  0  0
 16 17  1  0  0  0  0
 17 34  1  0  0  0  0
 18 20  1  0  0  0  0
 18 35  1  0  0  0  0
 19 21  1  0  0  0  0
 19 36  1  0  0  0  0
 20 21  2  0  0  0  0
 22 37  1  0  0  0  0
 22 38  1  0  0  0  0
 22 39  1  0  0  0  0
 23 40  1  0  0  0  0
 23 41  1  0  0  0  0
 23 42  1  0  0  0  0
 24 43  1  0  0  0  0
 24 44  1  0  0  0  0
 24 45  1  0  0  0  0
M  END
> <PUBCHEM_COMPOUND_CID>
442211

> <PUBCHEM_COMPOUND_CANONICALIZED>
1

> <PUBCHEM_CACTVS_COMPLEXITY>
434

> <PUBCHEM_CACTVS_HBOND_ACCEPTOR>
5

> <PUBCHEM_CACTVS_HBOND_DONOR>
1

> <PUBCHEM_CACTVS_ROTATABLE_BOND>
3

> <PUBCHEM_CACTVS_SUBSKEYS>
AAADceB6OAAAAAAAAAAAAAAAAAAAAAAAAAA8YIAABIAAAACxQAAAHgAQAAAADCzBmAYyBoLABACAAiBCAACCCAAgIAAIiIAOjIgNJyKEsRuGOCrn0BWKqAfw8P8OoQABCAAYQABCAAIQADCAAAAAAAAAAA==

> <PUBCHEM_IUPAC_INCHI>
InChI=1S/C19H21NO4/c1-21-14-5-4-11-6-7-20-13-8-12-9-16(22-2)17(23-3)10-15(12)24-19(14)18(11)13/h4-5,9-10,13,20H,6-8H2,1-3H3/t13-/m0/s1

> <PUBCHEM_IUPAC_INCHIKEY>
KTKYPZQQXSZXCE-ZDUSSCGKSA-N

> <PUBCHEM_XLOGP3_AA>
2.8

> <PUBCHEM_EXACT_MASS>
327.147058

> <PUBCHEM_MOLECULAR_FORMULA>
C19H21NO4

> <PUBCHEM_MOLECULAR_WEIGHT>
327.37434

> <PUBCHEM_OPENEYE_CAN_SMILES>
COC1=C2C3=C(CCNC3CC4=CC(=C(C=C4O2)OC)OC)C=C1

> <PUBCHEM_OPENEYE_ISO_SMILES>
COC1=C2C3=C(CCN[C@H]3CC4=CC(=C(C=C4O2)OC)OC)C=C1

> <PUBCHEM_CACTVS_TPSA>
49

> <PUBCHEM_MONOISOTOPIC_WEIGHT>
327.147058

> <PUBCHEM_TOTAL_CHARGE>
0

> <PUBCHEM_HEAVY_ATOM_COUNT>
24

> <PUBCHEM_ATOM_DEF_STEREO_COUNT>
1

> <PUBCHEM_ATOM_UDEF_STEREO_COUNT>
0

> <PUBCHEM_BOND_DEF_STEREO_COUNT>
0

> <PUBCHEM_BOND_UDEF_STEREO_COUNT>
0

> <PUBCHEM_ISOTOPIC_ATOM_COUNT>
0

> <PUBCHEM_COMPONENT_COUNT>
1

> <PUBCHEM_CACTVS_TAUTO_COUNT>
1

> <PUBCHEM_COORDINATE_TYPE>
1
5
255

> <PUBCHEM_BONDANNOTATIONS>
12  16  8
13  14  8
13  18  8
14  19  8
15  17  8
16  17  8
18  20  8
19  21  8
20  21  8
6  25  5
7  12  8
7  9  8
9  15  8

$$$$

