78101
  -OEChem-07051213093D

 20 20  0     0  0  0  0  0  0999 V2000
    2.8152    0.7998   -0.5235 O   0  0  0  0  0  0  0  0  0  0  0  0
    2.4589   -1.2126    0.4715 O   0  0  0  0  0  0  0  0  0  0  0  0
   -0.0966   -2.0793   -0.1308 N   0  0  0  0  0  0  0  0  0  0  0  0
   -1.7433   -0.2927   -0.0346 C   0  0  0  0  0  0  0  0  0  0  0  0
   -0.4102   -0.7027   -0.0418 C   0  0  0  0  0  0  0  0  0  0  0  0
    0.6110    0.2440    0.0379 C   0  0  0  0  0  0  0  0  0  0  0  0
   -2.0554    1.0641    0.0522 C   0  0  0  0  0  0  0  0  0  0  0  0
    0.2992    1.6008    0.1249 C   0  0  0  0  0  0  0  0  0  0  0  0
   -1.0340    2.0108    0.1319 C   0  0  0  0  0  0  0  0  0  0  0  0
   -2.8591   -1.2833   -0.1198 C   0  0  0  0  0  0  0  0  0  0  0  0
    2.0144   -0.1490    0.0322 C   0  0  0  0  0  0  0  0  0  0  0  0
   -3.0885    1.4014    0.0596 H   0  0  0  0  0  0  0  0  0  0  0  0
    1.0703    2.3629    0.2023 H   0  0  0  0  0  0  0  0  0  0  0  0
   -1.2772    3.0670    0.2028 H   0  0  0  0  0  0  0  0  0  0  0  0
   -2.7997   -1.8506   -1.0546 H   0  0  0  0  0  0  0  0  0  0  0  0
   -2.8270   -1.9732    0.7299 H   0  0  0  0  0  0  0  0  0  0  0  0
   -3.8392   -0.7940   -0.1011 H   0  0  0  0  0  0  0  0  0  0  0  0
   -0.8284   -2.7737   -0.1891 H   0  0  0  0  0  0  0  0  0  0  0  0
    0.8664   -2.3857   -0.1482 H   0  0  0  0  0  0  0  0  0  0  0  0
    3.7577    0.5277   -0.5237 H   0  0  0  0  0  0  0  0  0  0  0  0
  1 11  1  0  0  0  0
  1 20  1  0  0  0  0
  2 11  2  0  0  0  0
  3  5  1  0  0  0  0
  3 18  1  0  0  0  0
  3 19  1  0  0  0  0
  4  5  2  0  0  0  0
  4  7  1  0  0  0  0
  4 10  1  0  0  0  0
  5  6  1  0  0  0  0
  6  8  2  0  0  0  0
  6 11  1  0  0  0  0
  7  9  2  0  0  0  0
  7 12  1  0  0  0  0
  8  9  1  0  0  0  0
  8 13  1  0  0  0  0
  9 14  1  0  0  0  0
 10 15  1  0  0  0  0
 10 16  1  0  0  0  0
 10 17  1  0  0  0  0
M  END
> <PUBCHEM_COMPOUND_CID>
78101

> <PUBCHEM_CONFORMER_RMSD>
0.4

> <PUBCHEM_CONFORMER_DIVERSEORDER>
1
2
3

> <PUBCHEM_MMFF94_PARTIAL_CHARGES>
17
1 -0.65
10 0.14
11 0.63
12 0.15
13 0.15
14 0.15
18 0.4
19 0.4
2 -0.57
20 0.5
3 -0.9
4 -0.14
5 0.1
6 0.09
7 -0.15
8 -0.15
9 -0.15

> <PUBCHEM_EFFECTIVE_ROTOR_COUNT>
1

> <PUBCHEM_PHARMACOPHORE_FEATURES>
6
1 1 acceptor
1 2 acceptor
1 3 cation
1 3 donor
3 1 2 11 anion
6 4 5 6 7 8 9 rings

> <PUBCHEM_HEAVY_ATOM_COUNT>
11

> <PUBCHEM_ATOM_DEF_STEREO_COUNT>
0

> <PUBCHEM_ATOM_UDEF_STEREO_COUNT>
0

> <PUBCHEM_BOND_DEF_STEREO_COUNT>
0

> <PUBCHEM_BOND_UDEF_STEREO_COUNT>
0

> <PUBCHEM_ISOTOPIC_ATOM_COUNT>
0

> <PUBCHEM_COMPONENT_COUNT>
1

> <PUBCHEM_CACTVS_TAUTO_COUNT>
2

> <PUBCHEM_CONFORMER_ID>
0001311500000001

> <PUBCHEM_MMFF94_ENERGY>
44.2123

> <PUBCHEM_FEATURE_SELFOVERLAP>
30.503

> <PUBCHEM_SHAPE_FINGERPRINT>
11206711 2 18411422786991069733
12423570 1 10862091146672976961
13380535 76 18048886483136933669
14128692 85 18190457160592878941
14325111 11 18411418435941220084
161256 15 18191873318558250793
16945 1 18267587892512069617
18185500 45 18194966244740427606
193761 8 17905325478896720031
20871998 184 18187086165100054999
21040471 1 17976539734320141977
23463225 33 18341333413029326602
23552423 10 18271804682940045786
241688 4 18410016511629758577
2748010 2 18337679624395260981
369184 2 18340770432916143176
5084963 1 18113899364009308875
528886 8 18409733980027633449
66348 1 18266177236236461995

> <PUBCHEM_SHAPE_MULTIPOLES>
209.66
3.63
2.04
0.63
0.8
0.14
0
-0.78
-0.16
-0.53
0.05
0.05
0.02
-0.25

> <PUBCHEM_SHAPE_SELFOVERLAP>
441.876

> <PUBCHEM_SHAPE_VOLUME>
118.5

> <PUBCHEM_COORDINATE_TYPE>
2
5
10

$$$$

