25245902
  -OEChem-07051213083D

 35 36  0     1  0  0  0  0  0999 V2000
   -1.4516    0.7929   -0.8012 S   0  0  0  0  0  0  0  0  0  0  0  0
   -2.7037   -2.3948   -0.9300 O   0  0  0  0  0  0  0  0  0  0  0  0
   -1.6200    3.4437   -1.1203 O   0  0  0  0  0  0  0  0  0  0  0  0
   -3.8210   -2.3780    1.0442 O   0  0  0  0  0  0  0  0  0  0  0  0
    3.8239    1.1949   -0.0573 N   0  0  0  0  0  0  0  0  0  0  0  0
   -5.2464   -0.1776    0.2205 N   0  0  0  0  0  0  0  0  0  0  0  0
   -0.7025    3.2326   -0.0923 N   0  0  0  0  0  0  0  0  0  0  0  0
    1.7338    1.0154    0.6686 C   0  0  0  0  0  0  0  0  0  0  0  0
    2.1988   -0.2849    0.3252 C   0  0  0  0  0  0  0  0  0  0  0  0
    3.5125   -0.1442   -0.1273 C   0  0  0  0  0  0  0  0  0  0  0  0
    0.3975    1.3615    1.1939 C   0  0  0  0  0  0  0  0  0  0  0  0
    2.7553    1.9038    0.4226 C   0  0  0  0  0  0  0  0  0  0  0  0
    1.6263   -1.5720    0.3559 C   0  0  0  0  0  0  0  0  0  0  0  0
   -0.5301    1.9693    0.1413 C   0  0  0  0  0  0  0  0  0  0  0  0
    4.2854   -1.2308   -0.5521 C   0  0  0  0  0  0  0  0  0  0  0  0
   -2.9347    0.6432    0.2195 C   0  0  0  0  0  0  0  0  0  0  0  0
   -3.9103   -0.3951   -0.3377 C   0  0  1  0  0  0  0  0  0  0  0  0
    2.3875   -2.6681   -0.0661 C   0  0  0  0  0  0  0  0  0  0  0  0
    3.6964   -2.4978   -0.5128 C   0  0  0  0  0  0  0  0  0  0  0  0
   -3.4972   -1.8142    0.0053 C   0  0  0  0  0  0  0  0  0  0  0  0
    0.5045    2.1031    1.9963 H   0  0  0  0  0  0  0  0  0  0  0  0
   -0.0856    0.4912    1.6523 H   0  0  0  0  0  0  0  0  0  0  0  0
    2.8192    2.9761    0.5446 H   0  0  0  0  0  0  0  0  0  0  0  0
    4.7129    1.5960   -0.3222 H   0  0  0  0  0  0  0  0  0  0  0  0
    0.6075   -1.7247    0.7006 H   0  0  0  0  0  0  0  0  0  0  0  0
    5.3044   -1.0992   -0.9000 H   0  0  0  0  0  0  0  0  0  0  0  0
   -3.4064    1.6321    0.2494 H   0  0  0  0  0  0  0  0  0  0  0  0
   -2.6404    0.3863    1.2437 H   0  0  0  0  0  0  0  0  0  0  0  0
   -4.0055   -0.3099   -1.4271 H   0  0  0  0  0  0  0  0  0  0  0  0
    1.9509   -3.6632   -0.0448 H   0  0  0  0  0  0  0  0  0  0  0  0
    4.2695   -3.3631   -0.8360 H   0  0  0  0  0  0  0  0  0  0  0  0
   -5.9086   -0.8173   -0.2176 H   0  0  0  0  0  0  0  0  0  0  0  0
   -5.5663    0.7620   -0.0117 H   0  0  0  0  0  0  0  0  0  0  0  0
   -2.4387   -3.3035   -0.6722 H   0  0  0  0  0  0  0  0  0  0  0  0
   -1.6383    4.4143   -1.1705 H   0  0  0  0  0  0  0  0  0  0  0  0
  1 14  1  0  0  0  0
  1 16  1  0  0  0  0
  2 20  1  0  0  0  0
  2 34  1  0  0  0  0
  3  7  1  0  0  0  0
  3 35  1  0  0  0  0
  4 20  2  0  0  0  0
  5 10  1  0  0  0  0
  5 12  1  0  0  0  0
  5 24  1  0  0  0  0
  6 17  1  0  0  0  0
  6 32  1  0  0  0  0
  6 33  1  0  0  0  0
  7 14  2  0  0  0  0
  8  9  1  0  0  0  0
  8 11  1  0  0  0  0
  8 12  2  0  0  0  0
  9 10  1  0  0  0  0
  9 13  2  0  0  0  0
 10 15  2  0  0  0  0
 11 14  1  0  0  0  0
 11 21  1  0  0  0  0
 11 22  1  0  0  0  0
 12 23  1  0  0  0  0
 13 18  1  0  0  0  0
 13 25  1  0  0  0  0
 15 19  1  0  0  0  0
 15 26  1  0  0  0  0
 16 17  1  0  0  0  0
 16 27  1  0  0  0  0
 16 28  1  0  0  0  0
 17 20  1  0  0  0  0
 17 29  1  0  0  0  0
 18 19  2  0  0  0  0
 18 30  1  0  0  0  0
 19 31  1  0  0  0  0
M  END
> <PUBCHEM_COMPOUND_CID>
25245902

> <PUBCHEM_CONFORMER_RMSD>
1

> <PUBCHEM_CONFORMER_DIVERSEORDER>
1
127
34
14
56
67
122
136
105
89
54
102
72
22
53
17
104
140
93
97
15
11
9
59
123
24
92
144
131
4
116
57
85
41
94
78
51
21
128
84
135
68
27
90
12
107
23
48
5
86
143
58
87
138
7
108
66
38
55
18
25
119
103
99
6
19
45
60
16
96
75
62
10
37
39
13
77
79
46
49
33
65
110
126
134
139
44
36
28
20
3
74
142
50
26
121
80
120
2
98
8
100
118
47
101
141
31
69
73
133
42
61
115
125
124
113
129
81
29
91
117
130
63
114
83
88
132
95
43
64
40
106
35
137
112
70
71
76
82
52
32
30
109
111

> <PUBCHEM_MMFF94_PARTIAL_CHARGES>
29
1 -0.37
10 -0.15
11 0.24
12 -0.3
13 -0.15
14 0.53
15 -0.15
16 0.23
17 0.33
18 -0.15
19 -0.15
2 -0.65
20 0.66
23 0.15
24 0.27
25 0.15
26 0.15
3 -0.34
30 0.15
31 0.15
32 0.36
33 0.36
34 0.5
35 0.4
4 -0.57
5 0.03
6 -0.99
7 -0.51
8 -0.18

> <PUBCHEM_EFFECTIVE_ROTOR_COUNT>
6

> <PUBCHEM_PHARMACOPHORE_FEATURES>
11
1 2 acceptor
1 3 anion
1 4 acceptor
1 5 cation
1 5 donor
1 6 cation
1 6 donor
1 7 acceptor
3 2 4 20 anion
5 5 8 9 10 12 rings
6 9 10 13 15 18 19 rings

> <PUBCHEM_HEAVY_ATOM_COUNT>
20

> <PUBCHEM_ATOM_DEF_STEREO_COUNT>
1

> <PUBCHEM_ATOM_UDEF_STEREO_COUNT>
0

> <PUBCHEM_BOND_DEF_STEREO_COUNT>
1

> <PUBCHEM_BOND_UDEF_STEREO_COUNT>
0

> <PUBCHEM_ISOTOPIC_ATOM_COUNT>
0

> <PUBCHEM_COMPONENT_COUNT>
1

> <PUBCHEM_CACTVS_TAUTO_COUNT>
2

> <PUBCHEM_CONFORMER_ID>
018138CE00000001

> <PUBCHEM_MMFF94_ENERGY>
38.4856

> <PUBCHEM_FEATURE_SELFOVERLAP>
55.968

> <PUBCHEM_SHAPE_FINGERPRINT>
10616163 171 18408602590941693823
11552529 35 17895478012446060919
116883 192 18411982498312218256
12506688 2 18334013895356246440
12553582 1 18338811069136225907
12596599 1 17749934605488410687
12596602 18 16081655456860602459
12633257 1 17897434215298535369
13533116 47 18041849385919022415
13989917 61 17331393178490257051
14617045 38 18410566276133833599
14790565 3 17689716359659503656
15196674 1 18336828602464044539
15352361 1 18409730664318350427
17834074 16 18408887325856578379
1813 80 17632856417388262157
20291156 8 18407760326496071751
20403669 9 18261670475682389263
20645477 70 18334865999893670871
21634736 98 18409728486954625642
221490 88 18409444825992366738
23379529 103 18115296895313876918
23557571 272 18059864968927316589
23559900 14 18411427236561662448
2838139 119 16557880409335360502
2871803 45 18341054089746653248
314173 41 18271526407972303761
46194498 28 17631175191258316861
474229 33 18338524015477383696
6433294 58 18337109067954882438
9709674 26 18339083790663638656

> <PUBCHEM_SHAPE_MULTIPOLES>
382.89
9.03
3.71
0.92
4.3
0.65
-0.02
-5.35
0.46
0.51
0.44
0.23
0.11
0.99

> <PUBCHEM_SHAPE_SELFOVERLAP>
794.28

> <PUBCHEM_SHAPE_VOLUME>
220.6

> <PUBCHEM_COORDINATE_TYPE>
2
5
10

$$$$

