16142
  -OEChem-07051212563D

 78 84  0     1  0  0  0  0  0999 V2000
   -4.1465    1.4606   -0.1135 O   0  0  0  0  0  0  0  0  0  0  0  0
    4.2306   -1.0223    0.4359 O   0  0  0  0  0  0  0  0  0  0  0  0
    4.8044    1.7265    0.3401 O   0  0  0  0  0  0  0  0  0  0  0  0
    0.7268    1.7818    2.5064 O   0  0  0  0  0  0  0  0  0  0  0  0
   -8.2180   -1.0756    0.6200 O   0  0  0  0  0  0  0  0  0  0  0  0
    6.0299    0.5833   -1.3224 O   0  0  0  0  0  0  0  0  0  0  0  0
    5.6417   -0.3743    2.2315 O   0  0  0  0  0  0  0  0  0  0  0  0
    6.1586   -2.8908    0.9477 O   0  0  0  0  0  0  0  0  0  0  0  0
   -8.9562    0.9794   -0.1064 O   0  0  0  0  0  0  0  0  0  0  0  0
   -3.1649    0.4700   -0.4519 C   0  0  1  0  0  0  0  0  0  0  0  0
   -1.7806    0.9731    0.0435 C   0  0  1  0  0  0  0  0  0  0  0  0
   -0.6636   -0.1076   -0.0420 C   0  0  1  0  0  0  0  0  0  0  0  0
   -3.5955   -0.8891    0.1655 C   0  0  2  0  0  0  0  0  0  0  0  0
    0.7061    0.4236    0.5027 C   0  0  2  0  0  0  0  0  0  0  0  0
    1.0826    1.7254   -0.2627 C   0  0  1  0  0  0  0  0  0  0  0  0
   -1.1175   -1.4219    0.6193 C   0  0  0  0  0  0  0  0  0  0  0  0
   -2.4430   -1.9227    0.0526 C   0  0  0  0  0  0  0  0  0  0  0  0
   -4.7654   -1.3518   -0.7646 C   0  0  2  0  0  0  0  0  0  0  0  0
   -1.3457    2.2664   -0.6785 C   0  0  0  0  0  0  0  0  0  0  0  0
   -3.2595    0.2082   -1.9643 C   0  0  0  0  0  0  0  0  0  0  0  0
   -0.0044    2.8000   -0.1832 C   0  0  0  0  0  0  0  0  0  0  0  0
   -4.4360   -0.7575   -2.1487 C   0  0  0  0  0  0  0  0  0  0  0  0
    1.8466   -0.6136    0.3184 C   0  0  0  0  0  0  0  0  0  0  0  0
    2.4558    2.2787    0.1481 C   0  0  0  0  0  0  0  0  0  0  0  0
   -4.0189   -0.7776    1.6448 C   0  0  0  0  0  0  0  0  0  0  0  0
    3.2187   -0.0471    0.7043 C   0  0  2  0  0  0  0  0  0  0  0  0
    3.5331    1.2217   -0.0780 C   0  0  2  0  0  0  0  0  0  0  0  0
    0.5751    0.6781    1.9932 C   0  0  0  0  0  0  0  0  0  0  0  0
   -6.1525   -0.9465   -0.3587 C   0  0  0  0  0  0  0  0  0  0  0  0
    5.5372   -0.5529    0.8153 C   0  0  2  0  0  0  0  0  0  0  0  0
    5.8516    0.7712    0.0864 C   0  0  2  0  0  0  0  0  0  0  0  0
   -7.0069   -1.8234    0.4674 C   0  0  0  0  0  0  0  0  0  0  0  0
   -6.7785    0.1874   -0.6627 C   0  0  0  0  0  0  0  0  0  0  0  0
    6.5656   -1.6262    0.4305 C   0  0  2  0  0  0  0  0  0  0  0  0
   -8.1014    0.1129   -0.0407 C   0  0  0  0  0  0  0  0  0  0  0  0
    6.7350   -1.7190   -1.0823 C   0  0  0  0  0  0  0  0  0  0  0  0
    7.0681   -0.3412   -1.6481 C   0  0  1  0  0  0  0  0  0  0  0  0
    7.1877   -0.3873   -3.1649 C   0  0  0  0  0  0  0  0  0  0  0  0
   -1.9082    1.2466    1.1007 H   0  0  0  0  0  0  0  0  0  0  0  0
   -0.5043   -0.3339   -1.1061 H   0  0  0  0  0  0  0  0  0  0  0  0
    1.1669    1.4564   -1.3277 H   0  0  0  0  0  0  0  0  0  0  0  0
   -1.2176   -1.3092    1.7023 H   0  0  0  0  0  0  0  0  0  0  0  0
   -0.3703   -2.2057    0.4551 H   0  0  0  0  0  0  0  0  0  0  0  0
   -2.2796   -2.2098   -0.9941 H   0  0  0  0  0  0  0  0  0  0  0  0
   -2.7244   -2.8496    0.5692 H   0  0  0  0  0  0  0  0  0  0  0  0
   -4.7694   -2.4468   -0.8546 H   0  0  0  0  0  0  0  0  0  0  0  0
   -2.0957    3.0534   -0.5431 H   0  0  0  0  0  0  0  0  0  0  0  0
   -1.2710    2.0840   -1.7575 H   0  0  0  0  0  0  0  0  0  0  0  0
   -2.3510   -0.2552   -2.3621 H   0  0  0  0  0  0  0  0  0  0  0  0
   -3.4384    1.1249   -2.5369 H   0  0  0  0  0  0  0  0  0  0  0  0
    0.2817    3.6542   -0.8101 H   0  0  0  0  0  0  0  0  0  0  0  0
   -0.1187    3.2003    0.8283 H   0  0  0  0  0  0  0  0  0  0  0  0
   -5.2678   -0.2719   -2.6679 H   0  0  0  0  0  0  0  0  0  0  0  0
   -4.1169   -1.5651   -2.8211 H   0  0  0  0  0  0  0  0  0  0  0  0
    1.8767   -0.9618   -0.7227 H   0  0  0  0  0  0  0  0  0  0  0  0
    1.6738   -1.5105    0.9260 H   0  0  0  0  0  0  0  0  0  0  0  0
    2.6981    3.1593   -0.4617 H   0  0  0  0  0  0  0  0  0  0  0  0
    2.4845    2.6395    1.1810 H   0  0  0  0  0  0  0  0  0  0  0  0
   -3.1987   -0.4146    2.2721 H   0  0  0  0  0  0  0  0  0  0  0  0
   -4.8487   -0.0806    1.7970 H   0  0  0  0  0  0  0  0  0  0  0  0
   -4.3206   -1.7535    2.0402 H   0  0  0  0  0  0  0  0  0  0  0  0
    3.2278    0.1562    1.7825 H   0  0  0  0  0  0  0  0  0  0  0  0
    3.5892    1.0024   -1.1527 H   0  0  0  0  0  0  0  0  0  0  0  0
    0.3691   -0.1978    2.6297 H   0  0  0  0  0  0  0  0  0  0  0  0
   -4.0434    2.2175   -0.7136 H   0  0  0  0  0  0  0  0  0  0  0  0
    6.7678    1.2181    0.4911 H   0  0  0  0  0  0  0  0  0  0  0  0
   -7.2361   -2.7680   -0.0346 H   0  0  0  0  0  0  0  0  0  0  0  0
   -6.5921   -2.0235    1.4576 H   0  0  0  0  0  0  0  0  0  0  0  0
   -6.4429    1.0287   -1.2432 H   0  0  0  0  0  0  0  0  0  0  0  0
    7.5334   -1.3957    0.8926 H   0  0  0  0  0  0  0  0  0  0  0  0
    7.5189   -2.4455   -1.3267 H   0  0  0  0  0  0  0  0  0  0  0  0
    5.8088   -2.1039   -1.5293 H   0  0  0  0  0  0  0  0  0  0  0  0
    8.0140    0.0273   -1.2314 H   0  0  0  0  0  0  0  0  0  0  0  0
    5.3999    0.5439    2.4395 H   0  0  0  0  0  0  0  0  0  0  0  0
    5.2824   -3.0936    0.5776 H   0  0  0  0  0  0  0  0  0  0  0  0
    7.4129    0.6094   -3.5597 H   0  0  0  0  0  0  0  0  0  0  0  0
    7.9781   -1.0746   -3.4814 H   0  0  0  0  0  0  0  0  0  0  0  0
    6.2437   -0.7005   -3.6246 H   0  0  0  0  0  0  0  0  0  0  0  0
  1 10  1  0  0  0  0
  1 65  1  0  0  0  0
  2 26  1  0  0  0  0
  2 30  1  0  0  0  0
  3 27  1  0  0  0  0
  3 31  1  0  0  0  0
  4 28  2  0  0  0  0
  5 32  1  0  0  0  0
  5 35  1  0  0  0  0
  6 31  1  0  0  0  0
  6 37  1  0  0  0  0
  7 30  1  0  0  0  0
  7 74  1  0  0  0  0
  8 34  1  0  0  0  0
  8 75  1  0  0  0  0
  9 35  2  0  0  0  0
 10 11  1  0  0  0  0
 10 13  1  0  0  0  0
 10 20  1  0  0  0  0
 11 12  1  0  0  0  0
 11 19  1  0  0  0  0
 11 39  1  0  0  0  0
 12 14  1  0  0  0  0
 12 16  1  0  0  0  0
 12 40  1  0  0  0  0
 13 17  1  0  0  0  0
 13 18  1  0  0  0  0
 13 25  1  0  0  0  0
 14 15  1  0  0  0  0
 14 23  1  0  0  0  0
 14 28  1  0  0  0  0
 15 21  1  0  0  0  0
 15 24  1  0  0  0  0
 15 41  1  0  0  0  0
 16 17  1  0  0  0  0
 16 42  1  0  0  0  0
 16 43  1  0  0  0  0
 17 44  1  0  0  0  0
 17 45  1  0  0  0  0
 18 22  1  0  0  0  0
 18 29  1  0  0  0  0
 18 46  1  0  0  0  0
 19 21  1  0  0  0  0
 19 47  1  0  0  0  0
 19 48  1  0  0  0  0
 20 22  1  0  0  0  0
 20 49  1  0  0  0  0
 20 50  1  0  0  0  0
 21 51  1  0  0  0  0
 21 52  1  0  0  0  0
 22 53  1  0  0  0  0
 22 54  1  0  0  0  0
 23 26  1  0  0  0  0
 23 55  1  0  0  0  0
 23 56  1  0  0  0  0
 24 27  1  0  0  0  0
 24 57  1  0  0  0  0
 24 58  1  0  0  0  0
 25 59  1  0  0  0  0
 25 60  1  0  0  0  0
 25 61  1  0  0  0  0
 26 27  1  0  0  0  0
 26 62  1  0  0  0  0
 27 63  1  0  0  0  0
 28 64  1  0  0  0  0
 29 32  1  0  0  0  0
 29 33  2  0  0  0  0
 30 31  1  0  0  0  0
 30 34  1  0  0  0  0
 31 66  1  0  0  0  0
 32 67  1  0  0  0  0
 32 68  1  0  0  0  0
 33 35  1  0  0  0  0
 33 69  1  0  0  0  0
 34 36  1  0  0  0  0
 34 70  1  0  0  0  0
 36 37  1  0  0  0  0
 36 71  1  0  0  0  0
 36 72  1  0  0  0  0
 37 38  1  0  0  0  0
 37 73  1  0  0  0  0
 38 76  1  0  0  0  0
 38 77  1  0  0  0  0
 38 78  1  0  0  0  0
M  END
> <PUBCHEM_COMPOUND_CID>
16142

> <PUBCHEM_CONFORMER_RMSD>
1

> <PUBCHEM_CONFORMER_DIVERSEORDER>
2
1

> <PUBCHEM_MMFF94_PARTIAL_CHARGES>
28
1 -0.68
10 0.28
14 0.06
18 0.14
2 -0.56
26 0.28
27 0.28
28 0.45
29 -0.28
3 -0.56
30 0.56
31 0.56
32 0.42
33 -0.14
34 0.28
35 0.71
37 0.28
4 -0.57
5 -0.43
6 -0.56
64 0.06
65 0.4
69 0.15
7 -0.68
74 0.4
75 0.4
8 -0.68
9 -0.57

> <PUBCHEM_EFFECTIVE_ROTOR_COUNT>
5.4

> <PUBCHEM_PHARMACOPHORE_FEATURES>
18
1 1 acceptor
1 1 donor
1 2 acceptor
1 3 acceptor
1 4 acceptor
1 6 acceptor
1 7 acceptor
1 7 donor
1 8 acceptor
1 8 donor
1 9 acceptor
5 10 13 18 20 22 rings
5 5 29 32 33 35 rings
6 10 11 12 13 16 17 rings
6 11 12 14 15 19 21 rings
6 14 15 23 24 26 27 rings
6 2 3 26 27 30 31 rings
6 6 30 31 34 36 37 rings

> <PUBCHEM_HEAVY_ATOM_COUNT>
38

> <PUBCHEM_ATOM_DEF_STEREO_COUNT>
13

> <PUBCHEM_ATOM_UDEF_STEREO_COUNT>
0

> <PUBCHEM_BOND_DEF_STEREO_COUNT>
0

> <PUBCHEM_BOND_UDEF_STEREO_COUNT>
0

> <PUBCHEM_ISOTOPIC_ATOM_COUNT>
0

> <PUBCHEM_COMPONENT_COUNT>
1

> <PUBCHEM_CACTVS_TAUTO_COUNT>
1

> <PUBCHEM_CONFORMER_ID>
00003F0E00000002

> <PUBCHEM_MMFF94_ENERGY>
125.6713

> <PUBCHEM_FEATURE_SELFOVERLAP>
91.757

> <PUBCHEM_SHAPE_FINGERPRINT>
10 15 6483350032670779134
10076449 9 17346595262762437845
10299344 5 18202283606703909191
10533779 1 11455300884853970046
10533779 47 16081354238610647279
10674148 151 18413390934221849801
11331351 85 17749108881094110785
11456790 92 17530953667542428379
117089 54 17898841612269732366
11828422 8 17027702629153048649
12166972 35 18333450915596835368
12373685 5 5906042626228274957
12422481 6 4967614958370056320
12539765 74 12103299243287051825
12592606 108 18335707105579058767
13383668 40 17023732571900410909
13673619 4 18259706704823213368
13685833 64 18341897376848003539
13782708 43 17967821509033716815
13811026 1 18187366549671881189
13914758 101 16298382474913677355
14117953 113 18259985981404000703
14347332 77 18338801225451232020
14347424 109 14707213206260520698
14444916 359 18131631188906828243
14856354 85 18272931588898059495
15064986 266 18342733048434806880
15082195 135 17704062972853018980
15131766 46 14708928354052512848
15183329 4 18272368676818329562
15301273 46 17676203584901635781
15320295 40 15140685796045595473
15361156 5 17417806193949932891
15439362 3 17984137055016261404
15684393 108 17988922284512919926
16628084 112 18058741345369159963
16728433 281 15696343840107487455
16994733 274 12751251315338484207
18365409 1 14117220733988321675
18608769 82 16917068833368829531
20105231 36 17918270944662198899
21130935 74 18264212418149344091
21150785 3 16486973985826518734
21267235 1 18413670206075158673
21781051 124 18059565854757389243
22224240 67 9367348132763079285
23516275 100 14261057720375780542
23522609 53 18125129828022850636
23559900 14 18267313040754919569
3004659 81 18273498970687699440
335352 9 18342178848199848519
3383291 50 18342184345125667171
3418910 222 12967132744420626607
34797466 226 15985105210795892262
350125 39 18411986849799943217
3552219 110 17060333055274424877
3918712 181 10591747776280951422
4093350 32 17604429588008430376
4098825 35 17632582694779625599
4149490 64 15698005137288264784
4258327 124 15194987328781349310
439807 62 18272369802126264750
504579 68 17846212272502804022
5265222 85 16343696600152721019
5372103 7 15409749391239177764
5381727 24 17095242502913038863
5470011 282 17418372506393385278
6004065 56 8862937299802677319
6081469 158 16877938364848784693
6201320 215 15575539406499405531
86090 222 17023167354774229766
9896288 288 17897157134527731457

> <PUBCHEM_SHAPE_MULTIPOLES>
729.2
23.62
2.28
1.83
8.24
0.46
0.51
-9.9
5.79
-1.19
-0.26
-2.46
-0.15
0.35

> <PUBCHEM_SHAPE_SELFOVERLAP>
1600.099

> <PUBCHEM_SHAPE_VOLUME>
386.4

> <PUBCHEM_COORDINATE_TYPE>
2
5
10

$$$$

