3373
  -OEChem-07051212543D

 36 38  0     0  0  0  0  0  0999 V2000
   -5.7272   -0.8101    0.3800 F   0  0  0  0  0  0  0  0  0  0  0  0
   -2.4026    2.4685   -1.1280 O   0  0  0  0  0  0  0  0  0  0  0  0
    4.2769   -0.5993   -0.0985 O   0  0  0  0  0  0  0  0  0  0  0  0
    3.3604    1.2760    0.8720 O   0  0  0  0  0  0  0  0  0  0  0  0
   -0.1915   -0.8919   -0.1417 N   0  0  0  0  0  0  0  0  0  0  0  0
   -0.4710    2.0975    0.0939 N   0  0  0  0  0  0  0  0  0  0  0  0
    1.8624   -1.6872   -0.5484 N   0  0  0  0  0  0  0  0  0  0  0  0
    0.7021    0.0517    0.3185 C   0  0  0  0  0  0  0  0  0  0  0  0
    0.2773    1.2748    1.0277 C   0  0  0  0  0  0  0  0  0  0  0  0
   -1.6044   -0.8208   -0.0604 C   0  0  0  0  0  0  0  0  0  0  0  0
   -2.3040    0.4039   -0.0578 C   0  0  0  0  0  0  0  0  0  0  0  0
    1.9504   -0.4535    0.0317 C   0  0  0  0  0  0  0  0  0  0  0  0
   -1.7263    1.7397   -0.3990 C   0  0  0  0  0  0  0  0  0  0  0  0
    0.5732   -1.9354   -0.6165 C   0  0  0  0  0  0  0  0  0  0  0  0
   -2.3191   -2.0274    0.0457 C   0  0  0  0  0  0  0  0  0  0  0  0
    0.1362    3.3646   -0.2941 C   0  0  0  0  0  0  0  0  0  0  0  0
   -3.7029    0.3852    0.0966 C   0  0  0  0  0  0  0  0  0  0  0  0
   -3.7059   -2.0218    0.1969 C   0  0  0  0  0  0  0  0  0  0  0  0
    3.2102    0.1666    0.3143 C   0  0  0  0  0  0  0  0  0  0  0  0
   -4.3960   -0.8170    0.2332 C   0  0  0  0  0  0  0  0  0  0  0  0
    5.5936   -0.0858    0.1301 C   0  0  0  0  0  0  0  0  0  0  0  0
    6.6082   -1.0784   -0.3962 C   0  0  0  0  0  0  0  0  0  0  0  0
   -0.3788    1.0174    1.8682 H   0  0  0  0  0  0  0  0  0  0  0  0
    1.1070    1.8507    1.4432 H   0  0  0  0  0  0  0  0  0  0  0  0
    0.1465   -2.8387   -1.0314 H   0  0  0  0  0  0  0  0  0  0  0  0
   -1.8184   -2.9920    0.0561 H   0  0  0  0  0  0  0  0  0  0  0  0
    1.1214    3.1658   -0.7264 H   0  0  0  0  0  0  0  0  0  0  0  0
    0.2444    3.9888    0.5976 H   0  0  0  0  0  0  0  0  0  0  0  0
   -0.4727    3.8969   -1.0290 H   0  0  0  0  0  0  0  0  0  0  0  0
   -4.2774    1.3093    0.0972 H   0  0  0  0  0  0  0  0  0  0  0  0
   -4.2446   -2.9596    0.2958 H   0  0  0  0  0  0  0  0  0  0  0  0
    5.7046    0.8719   -0.3900 H   0  0  0  0  0  0  0  0  0  0  0  0
    5.7423    0.0649    1.2049 H   0  0  0  0  0  0  0  0  0  0  0  0
    7.6280   -0.7167   -0.2374 H   0  0  0  0  0  0  0  0  0  0  0  0
    6.4945   -2.0466    0.1025 H   0  0  0  0  0  0  0  0  0  0  0  0
    6.4573   -1.2526   -1.4666 H   0  0  0  0  0  0  0  0  0  0  0  0
  1 20  1  0  0  0  0
  2 13  2  0  0  0  0
  3 19  1  0  0  0  0
  3 21  1  0  0  0  0
  4 19  2  0  0  0  0
  5  8  1  0  0  0  0
  5 10  1  0  0  0  0
  5 14  1  0  0  0  0
  6  9  1  0  0  0  0
  6 13  1  0  0  0  0
  6 16  1  0  0  0  0
  7 12  1  0  0  0  0
  7 14  2  0  0  0  0
  8  9  1  0  0  0  0
  8 12  2  0  0  0  0
  9 23  1  0  0  0  0
  9 24  1  0  0  0  0
 10 11  2  0  0  0  0
 10 15  1  0  0  0  0
 11 13  1  0  0  0  0
 11 17  1  0  0  0  0
 12 19  1  0  0  0  0
 14 25  1  0  0  0  0
 15 18  2  0  0  0  0
 15 26  1  0  0  0  0
 16 27  1  0  0  0  0
 16 28  1  0  0  0  0
 16 29  1  0  0  0  0
 17 20  2  0  0  0  0
 17 30  1  0  0  0  0
 18 20  1  0  0  0  0
 18 31  1  0  0  0  0
 21 22  1  0  0  0  0
 21 32  1  0  0  0  0
 21 33  1  0  0  0  0
 22 34  1  0  0  0  0
 22 35  1  0  0  0  0
 22 36  1  0  0  0  0
M  END
> <PUBCHEM_COMPOUND_CID>
3373

> <PUBCHEM_CONFORMER_RMSD>
0.6

> <PUBCHEM_CONFORMER_DIVERSEORDER>
1
6
12
18
15
5
14
16
2
3
11
9
8
4
10
7
13
17

> <PUBCHEM_MMFF94_PARTIAL_CHARGES>
25
1 -0.19
10 -0.02
11 0.09
12 0.14
13 0.54
14 0.04
15 -0.15
16 0.3
17 -0.15
18 -0.15
19 0.81
2 -0.57
20 0.19
21 0.28
25 0.15
26 0.15
3 -0.43
30 0.15
31 0.15
4 -0.57
5 0.33
6 -0.66
7 -0.57
8 -0.33
9 0.48

> <PUBCHEM_EFFECTIVE_ROTOR_COUNT>
3.4

> <PUBCHEM_PHARMACOPHORE_FEATURES>
6
1 2 acceptor
1 4 acceptor
3 5 7 14 cation
5 5 7 8 12 14 rings
6 10 11 15 17 18 20 rings
7 5 6 8 9 10 11 13 rings

> <PUBCHEM_HEAVY_ATOM_COUNT>
22

> <PUBCHEM_ATOM_DEF_STEREO_COUNT>
0

> <PUBCHEM_ATOM_UDEF_STEREO_COUNT>
0

> <PUBCHEM_BOND_DEF_STEREO_COUNT>
0

> <PUBCHEM_BOND_UDEF_STEREO_COUNT>
0

> <PUBCHEM_ISOTOPIC_ATOM_COUNT>
0

> <PUBCHEM_COMPONENT_COUNT>
1

> <PUBCHEM_CACTVS_TAUTO_COUNT>
1

> <PUBCHEM_CONFORMER_ID>
00000D2D00000001

> <PUBCHEM_MMFF94_ENERGY>
58.8003

> <PUBCHEM_FEATURE_SELFOVERLAP>
30.499

> <PUBCHEM_SHAPE_FINGERPRINT>
10 15 18263094254169237368
10967382 1 18410012100766748071
11578080 2 17058101157695623966
12011746 2 18409738361221206207
12166972 35 17703785899647814748
12236239 1 17561083627000246502
12403259 226 18335708260592938776
12403259 415 18187655704145335592
12553582 1 18341627983635707507
12788726 201 18202006572275055376
13140716 1 18194118508886428307
13288520 33 18410572885671673278
13402501 40 18334575741645581714
13862211 1 18335986393394230446
14790565 3 17403734454679845693
15196674 1 18336547101405917056
16945 1 18410857629703818357
17357779 13 18339380590737867757
17492 89 18197220458706418618
19141452 34 17967814895042979071
19591789 44 18336268933817826786
20510252 161 18337391668396998025
21029758 27 18341610378385211509
21267235 1 18410848841905708435
21304253 13 18333726923381066537
22182313 1 18115302401382237910
2297311 6 18410847776874943518
2334 1 18266182906120826365
23402539 116 18408327670095847414
23493267 7 18270972352674554624
23557571 272 18336541707153879196
23559900 14 18410017667165605138
2748010 2 18264212581209946957
335352 9 18410856547482816847
34934 24 18411425050723859215
350125 39 18335699425892677128
5104073 3 18262806301733244778
7364860 26 18121497960600449329

> <PUBCHEM_SHAPE_MULTIPOLES>
412.92
10.67
2.74
0.78
11.58
1.82
0.01
-4.94
0.26
-1.37
-0.49
0.03
0.18
0.86

> <PUBCHEM_SHAPE_SELFOVERLAP>
900.701

> <PUBCHEM_SHAPE_VOLUME>
226.5

> <PUBCHEM_COORDINATE_TYPE>
2
5
10

$$$$

