585174
  -OEChem-06241222453D

 18 18  0     0  0  0  0  0  0999 V2000
    1.4371   -1.8727   -0.1153 O   0  0  0  0  0  0  0  0  0  0  0  0
    2.7198    0.4426    0.2943 O   0  0  0  0  0  0  0  0  0  0  0  0
   -0.7766    1.0506   -0.0180 C   0  0  0  0  0  0  0  0  0  0  0  0
    0.3887    0.2864   -0.0794 C   0  0  0  0  0  0  0  0  0  0  0  0
    0.3115   -1.1061   -0.0564 C   0  0  0  0  0  0  0  0  0  0  0  0
   -2.0191    0.4224    0.0663 C   0  0  0  0  0  0  0  0  0  0  0  0
   -0.7253    2.5437   -0.0406 C   0  0  0  0  0  0  0  0  0  0  0  0
   -0.9310   -1.7344    0.0277 C   0  0  0  0  0  0  0  0  0  0  0  0
   -2.0962   -0.9702    0.0891 C   0  0  0  0  0  0  0  0  0  0  0  0
    1.6910    0.9378   -0.1676 C   0  0  0  0  0  0  0  0  0  0  0  0
   -2.9371    1.0021    0.1138 H   0  0  0  0  0  0  0  0  0  0  0  0
   -0.0557    2.9240    0.7380 H   0  0  0  0  0  0  0  0  0  0  0  0
   -0.3921    2.9016   -1.0202 H   0  0  0  0  0  0  0  0  0  0  0  0
   -1.7105    2.9842    0.1493 H   0  0  0  0  0  0  0  0  0  0  0  0
   -1.0065   -2.8184    0.0463 H   0  0  0  0  0  0  0  0  0  0  0  0
   -3.0637   -1.4595    0.1543 H   0  0  0  0  0  0  0  0  0  0  0  0
    1.7302    1.9327   -0.6396 H   0  0  0  0  0  0  0  0  0  0  0  0
    1.1845   -2.8115   -0.0875 H   0  0  0  0  0  0  0  0  0  0  0  0
  1  5  1  0  0  0  0
  1 18  1  0  0  0  0
  2 10  2  0  0  0  0
  3  4  2  0  0  0  0
  3  6  1  0  0  0  0
  3  7  1  0  0  0  0
  4  5  1  0  0  0  0
  4 10  1  0  0  0  0
  5  8  2  0  0  0  0
  6  9  2  0  0  0  0
  6 11  1  0  0  0  0
  7 12  1  0  0  0  0
  7 13  1  0  0  0  0
  7 14  1  0  0  0  0
  8  9  1  0  0  0  0
  8 15  1  0  0  0  0
  9 16  1  0  0  0  0
 10 17  1  0  0  0  0
M  END
> <PUBCHEM_COMPOUND_CID>
585174

> <PUBCHEM_CONFORMER_RMSD>
0.4

> <PUBCHEM_CONFORMER_DIVERSEORDER>
1
3
2

> <PUBCHEM_MMFF94_PARTIAL_CHARGES>
15
1 -0.53
10 0.42
11 0.15
15 0.15
16 0.15
17 0.06
18 0.45
2 -0.57
3 -0.14
4 0.09
5 0.08
6 -0.15
7 0.14
8 -0.15
9 -0.15

> <PUBCHEM_EFFECTIVE_ROTOR_COUNT>
1

> <PUBCHEM_PHARMACOPHORE_FEATURES>
3
1 1 donor
1 2 acceptor
6 3 4 5 6 8 9 rings

> <PUBCHEM_HEAVY_ATOM_COUNT>
10

> <PUBCHEM_ATOM_DEF_STEREO_COUNT>
0

> <PUBCHEM_ATOM_UDEF_STEREO_COUNT>
0

> <PUBCHEM_BOND_DEF_STEREO_COUNT>
0

> <PUBCHEM_BOND_UDEF_STEREO_COUNT>
0

> <PUBCHEM_ISOTOPIC_ATOM_COUNT>
0

> <PUBCHEM_COMPONENT_COUNT>
1

> <PUBCHEM_CACTVS_TAUTO_COUNT>
13

> <PUBCHEM_CONFORMER_ID>
0008EDD600000001

> <PUBCHEM_MMFF94_ENERGY>
27.7003

> <PUBCHEM_FEATURE_SELFOVERLAP>
15.223

> <PUBCHEM_SHAPE_FINGERPRINT>
12423570 1 6264692418249115635
16945 1 18411134727496996085
18185500 45 18266740186311326031
193761 8 18122625221615922063
21040471 1 18267018543083874468
23552423 10 18272082807879240894
241688 4 18339354270735113907
2748010 2 18338793528510862199
5084963 1 17681544832048393171
66348 1 17907296911518680941

> <PUBCHEM_SHAPE_MULTIPOLES>
194.06
2.75
2.34
0.61
0.87
0.61
0
-0.24
0.19
-0.23
-0.06
-0.01
0.02
0.02

> <PUBCHEM_SHAPE_SELFOVERLAP>
407.641

> <PUBCHEM_SHAPE_VOLUME>
109.9

> <PUBCHEM_COORDINATE_TYPE>
2
5
10

$$$$

