5198
  -OEChem-07051212543D

 34 34  0     0  0  0  0  0  0999 V2000
    5.8366    0.5954    0.0141 Cl  0  0  0  0  0  0  0  0  0  0  0  0
    1.1906    1.8375   -0.3636 O   0  0  0  0  0  0  0  0  0  0  0  0
    2.4724   -2.5689   -0.0252 O   0  0  0  0  0  0  0  0  0  0  0  0
   -0.3285    0.2401    0.2891 N   0  0  0  0  0  0  0  0  0  0  0  0
    1.9005   -0.3637   -0.2152 N   0  0  0  0  0  0  0  0  0  0  0  0
    1.5352   -1.7738    0.1035 N   0  0  0  0  0  0  0  0  0  0  0  0
   -3.9851   -0.2417   -0.1356 C   0  0  0  0  0  0  0  0  0  0  0  0
   -1.4249    1.1692    0.4415 C   0  0  0  0  0  0  0  0  0  0  0  0
   -3.2315   -0.4733    1.1801 C   0  0  0  0  0  0  0  0  0  0  0  0
   -3.0173    0.1453   -1.2607 C   0  0  0  0  0  0  0  0  0  0  0  0
   -2.3723    0.7328    1.5627 C   0  0  0  0  0  0  0  0  0  0  0  0
   -2.1687    1.3599   -0.8826 C   0  0  0  0  0  0  0  0  0  0  0  0
   -4.7909   -1.4810   -0.5206 C   0  0  0  0  0  0  0  0  0  0  0  0
    0.9389    0.6540   -0.1148 C   0  0  0  0  0  0  0  0  0  0  0  0
    3.2695   -0.0763   -0.6247 C   0  0  0  0  0  0  0  0  0  0  0  0
    4.1755    0.2445    0.5521 C   0  0  0  0  0  0  0  0  0  0  0  0
   -4.6913    0.5863    0.0124 H   0  0  0  0  0  0  0  0  0  0  0  0
   -0.9948    2.1369    0.7291 H   0  0  0  0  0  0  0  0  0  0  0  0
   -2.5987   -1.3657    1.0978 H   0  0  0  0  0  0  0  0  0  0  0  0
   -3.9468   -0.6726    1.9873 H   0  0  0  0  0  0  0  0  0  0  0  0
   -3.5804    0.3721   -2.1741 H   0  0  0  0  0  0  0  0  0  0  0  0
   -2.3600   -0.7008   -1.4983 H   0  0  0  0  0  0  0  0  0  0  0  0
   -3.0379    1.5700    1.8095 H   0  0  0  0  0  0  0  0  0  0  0  0
   -1.8052    0.5009    2.4723 H   0  0  0  0  0  0  0  0  0  0  0  0
   -1.4646    1.5768   -1.6948 H   0  0  0  0  0  0  0  0  0  0  0  0
   -2.8280    2.2332   -0.7962 H   0  0  0  0  0  0  0  0  0  0  0  0
   -4.1389   -2.3458   -0.6835 H   0  0  0  0  0  0  0  0  0  0  0  0
   -5.5058   -1.7395    0.2676 H   0  0  0  0  0  0  0  0  0  0  0  0
   -5.3569   -1.3055   -1.4415 H   0  0  0  0  0  0  0  0  0  0  0  0
   -0.5310   -0.7466    0.3994 H   0  0  0  0  0  0  0  0  0  0  0  0
    3.6644   -0.9078   -1.2201 H   0  0  0  0  0  0  0  0  0  0  0  0
    3.2444    0.7894   -1.2987 H   0  0  0  0  0  0  0  0  0  0  0  0
    4.2261   -0.5952    1.2522 H   0  0  0  0  0  0  0  0  0  0  0  0
    3.8127    1.1185    1.1022 H   0  0  0  0  0  0  0  0  0  0  0  0
  1 16  1  0  0  0  0
  2 14  2  0  0  0  0
  3  6  2  0  0  0  0
  4  8  1  0  0  0  0
  4 14  1  0  0  0  0
  4 30  1  0  0  0  0
  5  6  1  0  0  0  0
  5 14  1  0  0  0  0
  5 15  1  0  0  0  0
  7  9  1  0  0  0  0
  7 10  1  0  0  0  0
  7 13  1  0  0  0  0
  7 17  1  0  0  0  0
  8 11  1  0  0  0  0
  8 12  1  0  0  0  0
  8 18  1  0  0  0  0
  9 11  1  0  0  0  0
  9 19  1  0  0  0  0
  9 20  1  0  0  0  0
 10 12  1  0  0  0  0
 10 21  1  0  0  0  0
 10 22  1  0  0  0  0
 11 23  1  0  0  0  0
 11 24  1  0  0  0  0
 12 25  1  0  0  0  0
 12 26  1  0  0  0  0
 13 27  1  0  0  0  0
 13 28  1  0  0  0  0
 13 29  1  0  0  0  0
 15 16  1  0  0  0  0
 15 31  1  0  0  0  0
 15 32  1  0  0  0  0
 16 33  1  0  0  0  0
 16 34  1  0  0  0  0
M  END
> <PUBCHEM_COMPOUND_CID>
5198

> <PUBCHEM_CONFORMER_RMSD>
0.8

> <PUBCHEM_CONFORMER_DIVERSEORDER>
1
64
91
66
30
60
53
77
26
25
43
86
90
81
49
85
28
4
14
3
51
75
20
31
33
32
57
27
8
76
23
17
56
9
54
10
34
71
70
89
19
62
15
6
84
24
73
58
80
88
36
22
38
82
79
78
50
63
13
44
47
69
48
16
72
92
68
39
95
74
67
35
42
7
29
94
52
61
55
11
40
46
65
5
37
93
45
2
87
83
59
18
41
12
21

> <PUBCHEM_MMFF94_PARTIAL_CHARGES>
11
1 -0.29
14 0.69
15 0.3
16 0.29
2 -0.57
3 -0.16
30 0.37
4 -0.73
5 -0.18
6 -0.02
8 0.3

> <PUBCHEM_EFFECTIVE_ROTOR_COUNT>
7.2

> <PUBCHEM_PHARMACOPHORE_FEATURES>
3
1 2 acceptor
1 4 donor
6 7 8 9 10 11 12 rings

> <PUBCHEM_HEAVY_ATOM_COUNT>
16

> <PUBCHEM_ATOM_DEF_STEREO_COUNT>
0

> <PUBCHEM_ATOM_UDEF_STEREO_COUNT>
0

> <PUBCHEM_BOND_DEF_STEREO_COUNT>
0

> <PUBCHEM_BOND_UDEF_STEREO_COUNT>
0

> <PUBCHEM_ISOTOPIC_ATOM_COUNT>
0

> <PUBCHEM_COMPONENT_COUNT>
1

> <PUBCHEM_CACTVS_TAUTO_COUNT>
2

> <PUBCHEM_CONFORMER_ID>
0000144E00000001

> <PUBCHEM_MMFF94_ENERGY>
19.6295

> <PUBCHEM_FEATURE_SELFOVERLAP>
15.223

> <PUBCHEM_SHAPE_FINGERPRINT>
11806522 49 18335139773920049676
124424 183 16559031584381161092
128620 24 18334858324771126340
13296908 3 18268145538259962766
13862211 1 18412265056438442818
14004511 7 11167939156112535289
14252887 29 17676196979373757980
14787075 74 17967814891027404952
15375462 189 17822298967775958191
17834072 14 17988647436253638298
17834072 8 11743844689894144392
19433438 15 12319729267734198955
19433438 38 18060144245128165327
19489759 90 16630532829909522972
200 152 18408325471415158161
20279233 1 17846492655813918747
204376 136 18410854331327190488
20645477 56 17917433193752756357
22485316 2 18335138721900904081
23402539 116 16845300444378280821
23557571 272 17274827990400427764
23559900 14 16343421696428681948
474229 33 18412263905107658626
6913067 236 18201729426957733444
9971528 1 11527946734438055198

> <PUBCHEM_SHAPE_MULTIPOLES>
304.46
10.52
1.72
1.1
8.09
0.83
-0.17
1.66
0.39
0.27
0.1
-1.03
-0.19
-0.16

> <PUBCHEM_SHAPE_SELFOVERLAP>
581.238

> <PUBCHEM_SHAPE_VOLUME>
186.8

> <PUBCHEM_COORDINATE_TYPE>
2
5
10

$$$$

