227796
  -OEChem-07051213063D

 58 62  0     1  0  0  0  0  0999 V2000
    2.8792   -0.0523   -0.1711 O   0  0  0  0  0  0  0  0  0  0  0  0
   -7.9156    0.8271   -0.8246 O   0  0  0  0  0  0  0  0  0  0  0  0
    4.0912   -1.6146   -1.3313 O   0  0  0  0  0  0  0  0  0  0  0  0
   -0.5692   -1.2335   -0.0924 C   0  0  2  0  0  0  0  0  0  0  0  0
    0.4285   -0.0746    0.1009 C   0  0  2  0  0  0  0  0  0  0  0  0
   -1.9451   -0.9254    0.5003 C   0  0  1  0  0  0  0  0  0  0  0  0
   -2.5256    0.3337   -0.2091 C   0  0  2  0  0  0  0  0  0  0  0  0
   -0.1105    1.1485   -0.6512 C   0  0  0  0  0  0  0  0  0  0  0  0
    1.6816   -0.7170   -0.5245 C   0  0  2  0  0  0  0  0  0  0  0  0
    0.2010   -2.4534    0.4056 C   0  0  0  0  0  0  0  0  0  0  0  0
   -1.5296    1.5221   -0.1866 C   0  0  0  0  0  0  0  0  0  0  0  0
   -3.9212    0.7133    0.3741 C   0  0  2  0  0  0  0  0  0  0  0  0
    1.6575   -2.1671   -0.0030 C   0  0  0  0  0  0  0  0  0  0  0  0
   -2.9138   -2.1040    0.3462 C   0  0  0  0  0  0  0  0  0  0  0  0
    0.6993    0.3081    1.5783 C   0  0  0  0  0  0  0  0  0  0  0  0
   -4.2698   -1.7706    0.9580 C   0  0  0  0  0  0  0  0  0  0  0  0
   -4.8508   -0.4931    0.4041 C   0  0  0  0  0  0  0  0  0  0  0  0
   -4.5336    1.8886   -0.4157 C   0  0  0  0  0  0  0  0  0  0  0  0
   -6.0076    2.0914   -0.1128 C   0  0  0  0  0  0  0  0  0  0  0  0
   -6.1340   -0.4592    0.0108 C   0  0  0  0  0  0  0  0  0  0  0  0
   -6.7708    0.8200   -0.3781 C   0  0  0  0  0  0  0  0  0  0  0  0
    4.0509   -0.6019   -0.6402 C   0  0  0  0  0  0  0  0  0  0  0  0
    5.2504    0.1369   -0.2371 C   0  0  0  0  0  0  0  0  0  0  0  0
    6.5011   -0.3107   -0.6439 C   0  0  0  0  0  0  0  0  0  0  0  0
    5.1233    1.2769    0.5469 C   0  0  0  0  0  0  0  0  0  0  0  0
    7.6430    0.3925   -0.2605 C   0  0  0  0  0  0  0  0  0  0  0  0
    6.2652    1.9802    0.9302 C   0  0  0  0  0  0  0  0  0  0  0  0
    7.5251    1.5380    0.5265 C   0  0  0  0  0  0  0  0  0  0  0  0
   -0.7177   -1.3895   -1.1743 H   0  0  0  0  0  0  0  0  0  0  0  0
   -1.8453   -0.7193    1.5733 H   0  0  0  0  0  0  0  0  0  0  0  0
   -2.6709    0.0707   -1.2687 H   0  0  0  0  0  0  0  0  0  0  0  0
   -0.1427    0.9417   -1.7289 H   0  0  0  0  0  0  0  0  0  0  0  0
    0.5582    2.0081   -0.5229 H   0  0  0  0  0  0  0  0  0  0  0  0
    1.5888   -0.7176   -1.6198 H   0  0  0  0  0  0  0  0  0  0  0  0
   -0.1644   -3.3816   -0.0457 H   0  0  0  0  0  0  0  0  0  0  0  0
    0.1234   -2.5604    1.4933 H   0  0  0  0  0  0  0  0  0  0  0  0
   -1.4895    1.9483    0.8225 H   0  0  0  0  0  0  0  0  0  0  0  0
   -1.8890    2.3227   -0.8431 H   0  0  0  0  0  0  0  0  0  0  0  0
   -3.7851    1.0372    1.4158 H   0  0  0  0  0  0  0  0  0  0  0  0
    2.3304   -2.3212    0.8482 H   0  0  0  0  0  0  0  0  0  0  0  0
    1.9636   -2.8655   -0.7899 H   0  0  0  0  0  0  0  0  0  0  0  0
   -2.5125   -2.9936    0.8451 H   0  0  0  0  0  0  0  0  0  0  0  0
   -3.0358   -2.3594   -0.7143 H   0  0  0  0  0  0  0  0  0  0  0  0
    1.1260   -0.5198    2.1532 H   0  0  0  0  0  0  0  0  0  0  0  0
    1.4115    1.1395    1.6363 H   0  0  0  0  0  0  0  0  0  0  0  0
   -0.2034    0.6284    2.1050 H   0  0  0  0  0  0  0  0  0  0  0  0
   -4.1584   -1.6563    2.0440 H   0  0  0  0  0  0  0  0  0  0  0  0
   -4.9469   -2.6190    0.8013 H   0  0  0  0  0  0  0  0  0  0  0  0
   -4.4155    1.7112   -1.4933 H   0  0  0  0  0  0  0  0  0  0  0  0
   -3.9996    2.8173   -0.1844 H   0  0  0  0  0  0  0  0  0  0  0  0
   -6.4066    2.8828   -0.7564 H   0  0  0  0  0  0  0  0  0  0  0  0
   -6.1643    2.3830    0.9313 H   0  0  0  0  0  0  0  0  0  0  0  0
   -6.7678   -1.3391    0.0302 H   0  0  0  0  0  0  0  0  0  0  0  0
    6.6150   -1.2004   -1.2571 H   0  0  0  0  0  0  0  0  0  0  0  0
    4.1601    1.6518    0.8807 H   0  0  0  0  0  0  0  0  0  0  0  0
    8.6240    0.0485   -0.5747 H   0  0  0  0  0  0  0  0  0  0  0  0
    6.1740    2.8723    1.5430 H   0  0  0  0  0  0  0  0  0  0  0  0
    8.4142    2.0857    0.8250 H   0  0  0  0  0  0  0  0  0  0  0  0
  1  9  1  0  0  0  0
  1 22  1  0  0  0  0
  2 21  2  0  0  0  0
  3 22  2  0  0  0  0
  4  5  1  0  0  0  0
  4  6  1  0  0  0  0
  4 10  1  0  0  0  0
  4 29  1  0  0  0  0
  5  8  1  0  0  0  0
  5  9  1  0  0  0  0
  5 15  1  0  0  0  0
  6  7  1  0  0  0  0
  6 14  1  0  0  0  0
  6 30  1  0  0  0  0
  7 11  1  0  0  0  0
  7 12  1  0  0  0  0
  7 31  1  0  0  0  0
  8 11  1  0  0  0  0
  8 32  1  0  0  0  0
  8 33  1  0  0  0  0
  9 13  1  0  0  0  0
  9 34  1  0  0  0  0
 10 13  1  0  0  0  0
 10 35  1  0  0  0  0
 10 36  1  0  0  0  0
 11 37  1  0  0  0  0
 11 38  1  0  0  0  0
 12 17  1  0  0  0  0
 12 18  1  0  0  0  0
 12 39  1  0  0  0  0
 13 40  1  0  0  0  0
 13 41  1  0  0  0  0
 14 16  1  0  0  0  0
 14 42  1  0  0  0  0
 14 43  1  0  0  0  0
 15 44  1  0  0  0  0
 15 45  1  0  0  0  0
 15 46  1  0  0  0  0
 16 17  1  0  0  0  0
 16 47  1  0  0  0  0
 16 48  1  0  0  0  0
 17 20  2  0  0  0  0
 18 19  1  0  0  0  0
 18 49  1  0  0  0  0
 18 50  1  0  0  0  0
 19 21  1  0  0  0  0
 19 51  1  0  0  0  0
 19 52  1  0  0  0  0
 20 21  1  0  0  0  0
 20 53  1  0  0  0  0
 22 23  1  0  0  0  0
 23 24  2  0  0  0  0
 23 25  1  0  0  0  0
 24 26  1  0  0  0  0
 24 54  1  0  0  0  0
 25 27  2  0  0  0  0
 25 55  1  0  0  0  0
 26 28  2  0  0  0  0
 26 56  1  0  0  0  0
 27 28  1  0  0  0  0
 27 57  1  0  0  0  0
 28 58  1  0  0  0  0
M  END
> <PUBCHEM_COMPOUND_CID>
227796

> <PUBCHEM_CONFORMER_RMSD>
0.8

> <PUBCHEM_CONFORMER_DIVERSEORDER>
1
2
3
4
5
6

> <PUBCHEM_MMFF94_PARTIAL_CHARGES>
23
1 -0.43
12 0.14
16 0.14
17 -0.28
19 0.06
2 -0.57
20 -0.14
21 0.49
22 0.63
23 0.09
24 -0.15
25 -0.15
26 -0.15
27 -0.15
28 -0.15
3 -0.57
53 0.15
54 0.15
55 0.15
56 0.15
57 0.15
58 0.15
9 0.28

> <PUBCHEM_EFFECTIVE_ROTOR_COUNT>
4.8

> <PUBCHEM_PHARMACOPHORE_FEATURES>
7
1 2 acceptor
1 3 acceptor
5 4 5 9 10 13 rings
6 12 17 18 19 20 21 rings
6 23 24 25 26 27 28 rings
6 4 5 6 7 8 11 rings
6 6 7 12 14 16 17 rings

> <PUBCHEM_HEAVY_ATOM_COUNT>
28

> <PUBCHEM_ATOM_DEF_STEREO_COUNT>
6

> <PUBCHEM_ATOM_UDEF_STEREO_COUNT>
0

> <PUBCHEM_BOND_DEF_STEREO_COUNT>
0

> <PUBCHEM_BOND_UDEF_STEREO_COUNT>
0

> <PUBCHEM_ISOTOPIC_ATOM_COUNT>
0

> <PUBCHEM_COMPONENT_COUNT>
1

> <PUBCHEM_CACTVS_TAUTO_COUNT>
8

> <PUBCHEM_CONFORMER_ID>
000379D400000001

> <PUBCHEM_MMFF94_ENERGY>
83.264

> <PUBCHEM_FEATURE_SELFOVERLAP>
35.618

> <PUBCHEM_SHAPE_FINGERPRINT>
10 15 18202001023119279777
10050765 1 18051131689848888853
10411042 1 17837203776343071851
10835480 77 18407759256859187565
11315181 36 18040713663332394281
11719270 70 18114464543953428142
12236239 1 17203325602479238898
12616971 3 16271919394185137766
12838862 33 18201170901205761965
13402501 40 18335701616362934392
13911987 19 17167578289084955519
14028597 1 15984832565913837056
14294032 229 17560235963354148804
14394314 77 18264764527875128289
14556957 393 16153694410640298416
14856354 85 15769771326126747123
14933364 13 18409165502762609888
15183329 4 14996282509509938248
15289351 153 18187649150547241096
15461852 350 18114180791968291623
15849732 13 18411981347234732989
17980427 23 17560793295484701566
18681886 176 18411705348874119841
19301679 30 14835860533676669416
20157964 124 18040713689112721662
20511986 3 17988652925522815179
20715895 44 18411134723898536372
21033648 29 18262249811706074368
21150785 3 16588026809706513069
21424621 283 18201719561154221050
21521721 280 18186516609460584667
21792961 116 17967807285035676338
22224240 67 18343585144012563903
23081809 10 15285627833317686486
23522609 53 5255865198603354002
23559900 14 18409172082869038825
23569943 247 7924265505640086316
23576562 1 17750526082994400981
24771293 8 18411979178266270573
335352 9 18342738499227918525
34797466 226 17821723961606653383
34934 24 18342459266145488947
4073 2 18130219372826383890
4325135 7 17967814946666651372
465052 167 11384116349927768234
5104073 3 18272082850596922954
5758199 1 18411416241624395137
5937810 71 18115588292382699617
6328613 192 18333448763997223777
636775 72 18411138043529234145

> <PUBCHEM_SHAPE_MULTIPOLES>
558.62
21.03
2.28
0.96
10.87
0.41
-0.11
-10.69
1.33
-0.83
-0.17
0.4
0.01
1.91

> <PUBCHEM_SHAPE_SELFOVERLAP>
1215.886

> <PUBCHEM_SHAPE_VOLUME>
299.7

> <PUBCHEM_COORDINATE_TYPE>
2
5
10

$$$$

