11348
  -OEChem-06261205343D

 17 17  0     0  0  0  0  0  0999 V2000
   -3.6840    0.4027   -0.0020 O   0  0  0  0  0  0  0  0  0  0  0  0
    1.4003    2.0393    1.0976 O   0  5  0  0  0  0  0  0  0  0  0  0
    1.3984    2.0401   -1.0977 O   0  0  0  0  0  0  0  0  0  0  0  0
    2.2364   -1.3626   -1.0984 O   0  5  0  0  0  0  0  0  0  0  0  0
    2.2371   -1.3637    1.0969 O   0  0  0  0  0  0  0  0  0  0  0  0
    0.9731    1.6114    0.0001 N   0  3  0  0  0  0  0  0  0  0  0  0
    1.6604   -1.1814   -0.0005 N   0  3  0  0  0  0  0  0  0  0  0  0
   -0.0308    0.6018    0.0007 C   0  0  0  0  0  0  0  0  0  0  0  0
    0.3028   -0.7526    0.0001 C   0  0  0  0  0  0  0  0  0  0  0  0
   -1.3705    0.9901    0.0011 C   0  0  0  0  0  0  0  0  0  0  0  0
   -0.7034   -1.7187    0.0002 C   0  0  0  0  0  0  0  0  0  0  0  0
   -2.3766    0.0240    0.0011 C   0  0  0  0  0  0  0  0  0  0  0  0
   -2.0431   -1.3304    0.0008 C   0  0  0  0  0  0  0  0  0  0  0  0
   -1.6332    2.0459    0.0008 H   0  0  0  0  0  0  0  0  0  0  0  0
   -0.4594   -2.7783   -0.0004 H   0  0  0  0  0  0  0  0  0  0  0  0
   -2.8225   -2.0875    0.0001 H   0  0  0  0  0  0  0  0  0  0  0  0
   -3.7312    1.3742   -0.0022 H   0  0  0  0  0  0  0  0  0  0  0  0
  1 12  1  0  0  0  0
  1 17  1  0  0  0  0
  2  6  1  0  0  0  0
  3  6  2  0  0  0  0
  4  7  1  0  0  0  0
  5  7  2  0  0  0  0
  6  8  1  0  0  0  0
  7  9  1  0  0  0  0
  8  9  2  0  0  0  0
  8 10  1  0  0  0  0
  9 11  1  0  0  0  0
 10 12  2  0  0  0  0
 10 14  1  0  0  0  0
 11 13  2  0  0  0  0
 11 15  1  0  0  0  0
 12 13  1  0  0  0  0
 13 16  1  0  0  0  0
M  CHG  4   2  -1   4  -1   6   1   7   1
M  END
> <PUBCHEM_COMPOUND_CID>
11348

> <PUBCHEM_CONFORMER_RMSD>
0.6

> <PUBCHEM_CONFORMER_DIVERSEORDER>
1

> <PUBCHEM_MMFF94_PARTIAL_CHARGES>
17
1 -0.53
10 -0.15
11 -0.15
12 0.08
13 -0.15
14 0.15
15 0.15
16 0.15
17 0.45
2 -0.52
3 -0.52
4 -0.52
5 -0.52
6 0.91
7 0.91
8 0.13
9 0.13

> <PUBCHEM_EFFECTIVE_ROTOR_COUNT>
2

> <PUBCHEM_PHARMACOPHORE_FEATURES>
8
1 1 donor
1 2 acceptor
1 2 anion
1 3 acceptor
1 4 acceptor
1 4 anion
1 5 acceptor
6 8 9 10 11 12 13 rings

> <PUBCHEM_HEAVY_ATOM_COUNT>
13

> <PUBCHEM_ATOM_DEF_STEREO_COUNT>
0

> <PUBCHEM_ATOM_UDEF_STEREO_COUNT>
0

> <PUBCHEM_BOND_DEF_STEREO_COUNT>
0

> <PUBCHEM_BOND_UDEF_STEREO_COUNT>
0

> <PUBCHEM_ISOTOPIC_ATOM_COUNT>
0

> <PUBCHEM_COMPONENT_COUNT>
1

> <PUBCHEM_CACTVS_TAUTO_COUNT>
5

> <PUBCHEM_CONFORMER_ID>
00002C5400000001

> <PUBCHEM_MMFF94_ENERGY>
43.6721

> <PUBCHEM_FEATURE_SELFOVERLAP>
40.758

> <PUBCHEM_SHAPE_FINGERPRINT>
12423570 1 10407148006986028941
12524768 44 18409169900360819071
13380535 21 18195227946057037579
13380535 76 18193848045820846451
14128692 85 18335693966271572351
16945 1 18338516460265828419
193761 8 18266459793793279779
20511035 2 18337394842267228751
21040471 1 18122343480409378245
21501502 16 18338518517586824751
2334 1 18267022752610805867
23419403 2 15878794496378727003
23552423 10 18199467679846861655
241688 4 17615113816956491067
2748010 2 18340485552536833991
5084963 1 18113900506913760211
528862 383 18342460309273506369
7364860 26 18187363186280029944
81228 2 17833261300505005616

> <PUBCHEM_SHAPE_MULTIPOLES>
228.23
3.67
2.22
0.87
2.09
0.44
0
-0.22
0
-1.19
0
-0.56
0.08
0

> <PUBCHEM_SHAPE_SELFOVERLAP>
482.852

> <PUBCHEM_SHAPE_VOLUME>
128

> <PUBCHEM_COORDINATE_TYPE>
2
5
10

$$$$

