5097
  -OEChem-06261200313D

 52 54  0     1  0  0  0  0  0999 V2000
    5.4705   -1.8798    1.3879 O   0  0  0  0  0  0  0  0  0  0  0  0
    1.7476    2.6930   -0.1591 N   0  0  0  0  0  0  0  0  0  0  0  0
    2.0590   -2.0430    0.0461 N   0  0  0  0  0  0  0  0  0  0  0  0
    2.1150    0.2939   -0.0586 N   0  0  0  0  0  0  0  0  0  0  0  0
   -0.4808    2.7410   -0.1119 N   0  0  0  0  0  0  0  0  0  0  0  0
    0.0018   -0.9228    0.0424 N   0  0  0  0  0  0  0  0  0  0  0  0
   -2.1199    0.1841    0.0377 N   0  0  0  0  0  0  0  0  0  0  0  0
    3.1069    3.1743   -0.2096 C   0  0  0  0  0  0  0  0  0  0  0  0
    3.5066   -2.1325    0.0147 C   0  0  2  0  0  0  0  0  0  0  0  0
    1.3426    1.3902   -0.0914 C   0  0  0  0  0  0  0  0  0  0  0  0
   -0.0419    1.4417   -0.0635 C   0  0  0  0  0  0  0  0  0  0  0  0
    3.9317   -3.5383   -0.4276 C   0  0  0  0  0  0  0  0  0  0  0  0
   -0.7152    0.2262    0.0057 C   0  0  0  0  0  0  0  0  0  0  0  0
    1.3683   -0.8468    0.0093 C   0  0  0  0  0  0  0  0  0  0  0  0
    0.6169    3.4661   -0.1683 C   0  0  0  0  0  0  0  0  0  0  0  0
    3.8882    2.8163    1.0560 C   0  0  0  0  0  0  0  0  0  0  0  0
    3.8333    2.7060   -1.4719 C   0  0  0  0  0  0  0  0  0  0  0  0
    4.0490   -1.8133    1.4080 C   0  0  0  0  0  0  0  0  0  0  0  0
    3.3935   -3.9101   -1.8035 C   0  0  0  0  0  0  0  0  0  0  0  0
   -2.8637   -1.0384    0.1088 C   0  0  0  0  0  0  0  0  0  0  0  0
   -4.3409   -0.7586    0.0911 C   0  0  0  0  0  0  0  0  0  0  0  0
   -5.0155   -0.5606    1.2889 C   0  0  0  0  0  0  0  0  0  0  0  0
   -5.0133   -0.7019   -1.1229 C   0  0  0  0  0  0  0  0  0  0  0  0
   -6.3861   -0.3015    1.2725 C   0  0  0  0  0  0  0  0  0  0  0  0
   -6.3837   -0.4427   -1.1393 C   0  0  0  0  0  0  0  0  0  0  0  0
   -7.0700   -0.2425    0.0584 C   0  0  0  0  0  0  0  0  0  0  0  0
    3.0452    4.2697   -0.2559 H   0  0  0  0  0  0  0  0  0  0  0  0
    3.9240   -1.4264   -0.7157 H   0  0  0  0  0  0  0  0  0  0  0  0
    3.5843   -4.2858    0.2967 H   0  0  0  0  0  0  0  0  0  0  0  0
    5.0256   -3.6072   -0.4567 H   0  0  0  0  0  0  0  0  0  0  0  0
    1.5103   -2.8867    0.1662 H   0  0  0  0  0  0  0  0  0  0  0  0
    0.6515    4.5460   -0.2170 H   0  0  0  0  0  0  0  0  0  0  0  0
    4.0583    1.7385    1.1435 H   0  0  0  0  0  0  0  0  0  0  0  0
    4.8681    3.3057    1.0517 H   0  0  0  0  0  0  0  0  0  0  0  0
    3.3524    3.1440    1.9537 H   0  0  0  0  0  0  0  0  0  0  0  0
    3.2605    2.9601   -2.3707 H   0  0  0  0  0  0  0  0  0  0  0  0
    4.8137    3.1880   -1.5503 H   0  0  0  0  0  0  0  0  0  0  0  0
    3.9963    1.6233   -1.4752 H   0  0  0  0  0  0  0  0  0  0  0  0
    3.7617   -0.8145    1.7507 H   0  0  0  0  0  0  0  0  0  0  0  0
    3.6864   -2.5324    2.1506 H   0  0  0  0  0  0  0  0  0  0  0  0
   -2.6076    1.0733    0.0115 H   0  0  0  0  0  0  0  0  0  0  0  0
    3.7813   -4.8886   -2.1048 H   0  0  0  0  0  0  0  0  0  0  0  0
    2.3011   -3.9718   -1.8100 H   0  0  0  0  0  0  0  0  0  0  0  0
    3.7032   -3.1781   -2.5562 H   0  0  0  0  0  0  0  0  0  0  0  0
   -2.6073   -1.6948   -0.7327 H   0  0  0  0  0  0  0  0  0  0  0  0
   -2.6062   -1.5919    1.0210 H   0  0  0  0  0  0  0  0  0  0  0  0
    5.7851   -1.2152    0.7514 H   0  0  0  0  0  0  0  0  0  0  0  0
   -4.4920   -0.6024    2.2399 H   0  0  0  0  0  0  0  0  0  0  0  0
   -4.4881   -0.8544   -2.0616 H   0  0  0  0  0  0  0  0  0  0  0  0
   -6.9205   -0.1451    2.2051 H   0  0  0  0  0  0  0  0  0  0  0  0
   -6.9164   -0.3963   -2.0847 H   0  0  0  0  0  0  0  0  0  0  0  0
   -8.1370   -0.0404    0.0455 H   0  0  0  0  0  0  0  0  0  0  0  0
  1 18  1  0  0  0  0
  1 47  1  0  0  0  0
  2  8  1  0  0  0  0
  2 10  1  0  0  0  0
  2 15  1  0  0  0  0
  3  9  1  0  0  0  0
  3 14  1  0  0  0  0
  3 31  1  0  0  0  0
  4 10  2  0  0  0  0
  4 14  1  0  0  0  0
  5 11  1  0  0  0  0
  5 15  2  0  0  0  0
  6 13  1  0  0  0  0
  6 14  2  0  0  0  0
  7 13  1  0  0  0  0
  7 20  1  0  0  0  0
  7 41  1  0  0  0  0
  8 16  1  0  0  0  0
  8 17  1  0  0  0  0
  8 27  1  0  0  0  0
  9 12  1  0  0  0  0
  9 18  1  0  0  0  0
  9 28  1  0  0  0  0
 10 11  1  0  0  0  0
 11 13  2  0  0  0  0
 12 19  1  0  0  0  0
 12 29  1  0  0  0  0
 12 30  1  0  0  0  0
 15 32  1  0  0  0  0
 16 33  1  0  0  0  0
 16 34  1  0  0  0  0
 16 35  1  0  0  0  0
 17 36  1  0  0  0  0
 17 37  1  0  0  0  0
 17 38  1  0  0  0  0
 18 39  1  0  0  0  0
 18 40  1  0  0  0  0
 19 42  1  0  0  0  0
 19 43  1  0  0  0  0
 19 44  1  0  0  0  0
 20 21  1  0  0  0  0
 20 45  1  0  0  0  0
 20 46  1  0  0  0  0
 21 22  2  0  0  0  0
 21 23  1  0  0  0  0
 22 24  1  0  0  0  0
 22 48  1  0  0  0  0
 23 25  2  0  0  0  0
 23 49  1  0  0  0  0
 24 26  2  0  0  0  0
 24 50  1  0  0  0  0
 25 26  1  0  0  0  0
 25 51  1  0  0  0  0
 26 52  1  0  0  0  0
M  END
> <PUBCHEM_COMPOUND_CID>
5097

> <PUBCHEM_CONFORMER_RMSD>
0.8

> <PUBCHEM_CONFORMER_DIVERSEORDER>
1
195
311
221
275
237
43
351
174
172
276
212
283
150
291
313
64
320
93
297
299
186
338
205
248
331
265
252
307
145
97
324
127
285
279
228
332
292
129
352
164
180
156
119
56
296
353
219
328
60
202
185
31
190
302
102
245
224
192
244
217
316
100
350
155
117
233
138
266
344
181
142
147
166
141
130
210
294
88
170
168
263
301
165
110
111
277
61
333
346
240
39
260
243
203
261
196
67
42
312
183
48
321
128
197
80
209
342
98
300
232
239
112
348
159
86
236
194
213
157
304
77
235
268
264
198
158
318
241
23
114
90
50
286
132
322
315
238
177
207
113
120
308
187
74
326
137
334
347
360
51
257
188
199
6
278
118
136
73
262
325
65
14
310
124
7
259
341
191
329
143
182
152
251
161
71
18
40
33
103
358
335
254
231
319
140
189
234
229
134
314
8
32
85
225
139
282
249
250
289
70
359
200
72
230
89
272
81
208
255
173
148
258
298
63
280
295
22
116
26
354
95
293
96
66
101
167
330
317
151
223
178
339
273
45
78
349
9
68
336
169
327
306
271
154
108
44
340
153
305
49
201
337
46
216
284
69
309
214
281
269
115
146
253
220
179
288
109
323
107
175
4
222
204
99
125
227
171
121
105
5
94
27
123
53
267
37
131
52
246
270
290
163
82
76
355
19
91
126
343
356
36
256
247
215
12
184
162
193
47
54
55
357
176
122
58
206
287
41
226
133
79
13
83
29
75
35
20
30
11
104
274
303
25
211
149
28
10
135
21
218
144
160
242
24
57
3
84
62
92
345
17
2
59
16
87
15
34
106
38

> <PUBCHEM_MMFF94_PARTIAL_CHARGES>
31
1 -0.68
10 0.11
11 0.23
13 0.41
14 0.72
15 0.04
18 0.28
2 0.05
20 0.51
21 -0.14
22 -0.15
23 -0.15
24 -0.15
25 -0.15
26 -0.15
3 -0.87
31 0.4
32 0.15
4 -0.57
41 0.4
47 0.4
48 0.15
49 0.15
5 -0.57
50 0.15
51 0.15
52 0.15
6 -0.62
7 -0.87
8 0.26
9 0.37

> <PUBCHEM_EFFECTIVE_ROTOR_COUNT>
8

> <PUBCHEM_PHARMACOPHORE_FEATURES>
12
1 1 acceptor
1 1 donor
1 19 hydrophobe
1 3 donor
1 7 cation
1 7 donor
3 2 5 15 cation
3 8 16 17 hydrophobe
4 3 4 6 14 cation
5 2 5 10 11 15 rings
6 21 22 23 24 25 26 rings
6 4 6 10 11 13 14 rings

> <PUBCHEM_HEAVY_ATOM_COUNT>
26

> <PUBCHEM_ATOM_DEF_STEREO_COUNT>
0

> <PUBCHEM_ATOM_UDEF_STEREO_COUNT>
1

> <PUBCHEM_BOND_DEF_STEREO_COUNT>
0

> <PUBCHEM_BOND_UDEF_STEREO_COUNT>
0

> <PUBCHEM_ISOTOPIC_ATOM_COUNT>
0

> <PUBCHEM_COMPONENT_COUNT>
1

> <PUBCHEM_CACTVS_TAUTO_COUNT>
6

> <PUBCHEM_CONFORMER_ID>
000013E900000001

> <PUBCHEM_MMFF94_ENERGY>
57.0875

> <PUBCHEM_FEATURE_SELFOVERLAP>
61.023

> <PUBCHEM_SHAPE_FINGERPRINT>
10411042 1 18266738176583577886
10693767 8 18186792565863341070
11135926 11 18339081467160561757
11265709 11 18339644545888888827
12107183 9 18118109506661484609
12236239 1 17749383712325509461
12730499 353 18198615545640330905
13073987 5 18336820902389010267
13140716 1 18266743656624497536
13533116 47 18408319969915311235
13782708 43 17703784800601047307
13785724 45 18117545443531084415
13955234 65 18409729525930179058
14739800 52 17313672542477968793
14790565 3 17621312442496866604
15042514 8 17690557911250681274
15081414 286 18201154361202776861
15250474 111 17969514719040946799
15420108 30 17972894566170697186
15475509 84 17968653938469085513
1577012 14 18041273293697971913
15927050 60 17977665308706054678
17980427 26 17535492338739314781
1813 80 18261948673461967991
18222031 100 18335419122782915047
1979834 28 18261404342840348698
20645477 70 18342181038158434927
21033648 29 17417820530956591927
2132832 1 18260826038162820001
21478907 32 18122625221595251779
22182313 1 17916886667664240701
23559900 14 18410858733183833819
24771293 8 18260559917709873522
25147074 1 18335125527624831689
314173 85 18338234985226100259
3411729 13 18200595783214391096
3421961 26 18410854369280367291
394071 54 18408604764269311034
4394409 98 14373905489784640318
5104073 3 18340197498097637491
5385378 56 18337947887873338225
8863177 126 17845639366879027299
9841814 1 18272938253748429722

> <PUBCHEM_SHAPE_MULTIPOLES>
499.31
14.7
4.64
1.25
26.95
0.36
0.04
-6.5
-1.42
-10.72
1.26
-0.32
-0.51
-0.11

> <PUBCHEM_SHAPE_SELFOVERLAP>
1053.684

> <PUBCHEM_SHAPE_VOLUME>
278.7

> <PUBCHEM_COORDINATE_TYPE>
2
5
10

$$$$

