443582
  -OEChem-07051213022D

 45 48  0     1  0  0  0  0  0999 V2000
    3.4040   -0.7553    0.0000 O   0  0  0  0  0  0  0  0  0  0  0  0
    2.4375    1.4133    0.0000 O   0  0  0  0  0  0  0  0  0  0  0  0
    5.7088   -2.0458    0.0000 O   0  0  0  0  0  0  0  0  0  0  0  0
    7.3561   -1.5106    0.0000 O   0  0  0  0  0  0  0  0  0  0  0  0
    5.1179   -0.0426    0.0000 N   0  0  0  0  0  0  0  0  0  0  0  0
    5.1179    0.9574    0.0000 C   0  0  3  0  0  0  0  0  0  0  0  0
    4.1096    0.9615    0.0000 C   0  0  3  0  0  0  0  0  0  0  0  0
    6.0690    1.2664    0.0000 C   0  0  0  0  0  0  0  0  0  0  0  0
    4.1096   -0.0468    0.0000 C   0  0  0  0  0  0  0  0  0  0  0  0
    3.4040    1.6701    0.0000 C   0  0  3  0  0  0  0  0  0  0  0  0
    6.0690   -0.3516    0.0000 C   0  0  0  0  0  0  0  0  0  0  0  0
    6.6567    0.4574    0.0000 C   0  0  0  0  0  0  0  0  0  0  0  0
    7.6567    0.4574    0.0000 C   0  0  0  0  0  0  0  0  0  0  0  0
    3.6648    2.6355    0.0000 C   0  0  0  0  0  0  0  0  0  0  0  0
    6.3780   -1.3027    0.0000 C   0  0  0  0  0  0  0  0  0  0  0  0
    8.1567   -0.4086    0.0000 C   0  0  0  0  0  0  0  0  0  0  0  0
    8.1567    1.3234    0.0000 C   0  0  0  0  0  0  0  0  0  0  0  0
    9.1567   -0.4086    0.0000 C   0  0  0  0  0  0  0  0  0  0  0  0
    9.1567    1.3234    0.0000 C   0  0  0  0  0  0  0  0  0  0  0  0
    9.6567    0.4574    0.0000 C   0  0  0  0  0  0  0  0  0  0  0  0
   10.6567    0.4574    0.0000 C   0  0  0  0  0  0  0  0  0  0  0  0
   11.1567   -0.4086    0.0000 C   0  0  0  0  0  0  0  0  0  0  0  0
   11.1567    1.3234    0.0000 C   0  0  0  0  0  0  0  0  0  0  0  0
   12.1567   -0.4086    0.0000 C   0  0  0  0  0  0  0  0  0  0  0  0
   12.1567    1.3234    0.0000 C   0  0  0  0  0  0  0  0  0  0  0  0
   12.6567    0.4574    0.0000 C   0  0  0  0  0  0  0  0  0  0  0  0
    4.9866    1.7972    0.0000 H   0  0  0  0  0  0  0  0  0  0  0  0
    3.3240    0.6371    0.0000 H   0  0  0  0  0  0  0  0  0  0  0  0
    6.6059    1.5764    0.0000 H   0  0  0  0  0  0  0  0  0  0  0  0
    5.8168    1.8328    0.0000 H   0  0  0  0  0  0  0  0  0  0  0  0
    3.1823    0.8495    0.0000 H   0  0  0  0  0  0  0  0  0  0  0  0
    4.2633    2.4738    0.0000 H   0  0  0  0  0  0  0  0  0  0  0  0
    3.8265    3.2340    0.0000 H   0  0  0  0  0  0  0  0  0  0  0  0
    3.0662    2.7972    0.0000 H   0  0  0  0  0  0  0  0  0  0  0  0
    2.0000    1.8526    0.0000 H   0  0  0  0  0  0  0  0  0  0  0  0
    7.8467   -0.9456    0.0000 H   0  0  0  0  0  0  0  0  0  0  0  0
    7.8467    1.8604    0.0000 H   0  0  0  0  0  0  0  0  0  0  0  0
    9.4667   -0.9456    0.0000 H   0  0  0  0  0  0  0  0  0  0  0  0
    9.4667    1.8604    0.0000 H   0  0  0  0  0  0  0  0  0  0  0  0
    5.9004   -2.6355    0.0000 H   0  0  0  0  0  0  0  0  0  0  0  0
   10.8467   -0.9456    0.0000 H   0  0  0  0  0  0  0  0  0  0  0  0
   10.8467    1.8604    0.0000 H   0  0  0  0  0  0  0  0  0  0  0  0
   12.4667   -0.9456    0.0000 H   0  0  0  0  0  0  0  0  0  0  0  0
   12.4667    1.8604    0.0000 H   0  0  0  0  0  0  0  0  0  0  0  0
   13.2767    0.4574    0.0000 H   0  0  0  0  0  0  0  0  0  0  0  0
  1  9  2  0  0  0  0
  2 10  1  0  0  0  0
  2 35  1  0  0  0  0
  3 15  1  0  0  0  0
  3 40  1  0  0  0  0
  4 15  2  0  0  0  0
  5  6  1  0  0  0  0
  5  9  1  0  0  0  0
  5 11  1  0  0  0  0
  6  7  1  0  0  0  0
  6  8  1  0  0  0  0
  6 27  1  0  0  0  0
  7  9  1  0  0  0  0
  7 10  1  0  0  0  0
  7 28  1  0  0  0  0
  8 12  1  0  0  0  0
  8 29  1  0  0  0  0
  8 30  1  0  0  0  0
 10 14  1  0  0  0  0
 10 31  1  0  0  0  0
 11 12  2  0  0  0  0
 11 15  1  0  0  0  0
 12 13  1  0  0  0  0
 13 16  2  0  0  0  0
 13 17  1  0  0  0  0
 14 32  1  0  0  0  0
 14 33  1  0  0  0  0
 14 34  1  0  0  0  0
 16 18  1  0  0  0  0
 16 36  1  0  0  0  0
 17 19  2  0  0  0  0
 17 37  1  0  0  0  0
 18 20  2  0  0  0  0
 18 38  1  0  0  0  0
 19 20  1  0  0  0  0
 19 39  1  0  0  0  0
 20 21  1  0  0  0  0
 21 22  2  0  0  0  0
 21 23  1  0  0  0  0
 22 24  1  0  0  0  0
 22 41  1  0  0  0  0
 23 25  2  0  0  0  0
 23 42  1  0  0  0  0
 24 26  2  0  0  0  0
 24 43  1  0  0  0  0
 25 26  1  0  0  0  0
 25 44  1  0  0  0  0
 26 45  1  0  0  0  0
M  END
> <PUBCHEM_COMPOUND_CID>
443582

> <PUBCHEM_COMPOUND_CANONICALIZED>
1

> <PUBCHEM_CACTVS_COMPLEXITY>
614

> <PUBCHEM_CACTVS_HBOND_ACCEPTOR>
4

> <PUBCHEM_CACTVS_HBOND_DONOR>
2

> <PUBCHEM_CACTVS_ROTATABLE_BOND>
4

> <PUBCHEM_CACTVS_SUBSKEYS>
AAADceB6OAAAAAAAAAAAAAAAAABYAQAAAAAwYAAABAAAAAABQAAAHgAACAAADTzhmAYyCIMAAgCIAiXSWAACAAAgAAAIiAGIAMgKND6AkTCEcAAmpgCYmQeYyOCOwAAAAAAAAACAAAAAAAAAAAAAAAAAAA==

> <PUBCHEM_IUPAC_OPENEYE_NAME>
6-(1-hydroxyethyl)-7-oxo-3-(4-phenylphenyl)-1-azabicyclo[3.2.0]hept-2-ene-2-carboxylic acid

> <PUBCHEM_IUPAC_CAS_NAME>
6-(1-hydroxyethyl)-7-oxo-3-(4-phenylphenyl)-1-azabicyclo[3.2.0]hept-2-ene-2-carboxylic acid

> <PUBCHEM_IUPAC_NAME>
6-(1-hydroxyethyl)-7-oxo-3-(4-phenylphenyl)-1-azabicyclo[3.2.0]hept-2-ene-2-carboxylic acid

> <PUBCHEM_IUPAC_SYSTEMATIC_NAME>
6-(1-hydroxyethyl)-7-oxidanylidene-3-(4-phenylphenyl)-1-azabicyclo[3.2.0]hept-2-ene-2-carboxylic acid

> <PUBCHEM_IUPAC_TRADITIONAL_NAME>
6-(1-hydroxyethyl)-7-keto-3-(4-phenylphenyl)-1-azabicyclo[3.2.0]hept-2-ene-2-carboxylic acid

> <PUBCHEM_IUPAC_INCHI>
InChI=1S/C21H19NO4/c1-12(23)18-17-11-16(19(21(25)26)22(17)20(18)24)15-9-7-14(8-10-15)13-5-3-2-4-6-13/h2-10,12,17-18,23H,11H2,1H3,(H,25,26)

> <PUBCHEM_IUPAC_INCHIKEY>
ANDVEUKOOBWYKC-UHFFFAOYSA-N

> <PUBCHEM_XLOGP3_AA>
2.8

> <PUBCHEM_EXACT_MASS>
349.131408

> <PUBCHEM_MOLECULAR_FORMULA>
C21H19NO4

> <PUBCHEM_MOLECULAR_WEIGHT>
349.37986

> <PUBCHEM_OPENEYE_CAN_SMILES>
CC(C1C2CC(=C(N2C1=O)C(=O)O)C3=CC=C(C=C3)C4=CC=CC=C4)O

> <PUBCHEM_OPENEYE_ISO_SMILES>
CC(C1C2CC(=C(N2C1=O)C(=O)O)C3=CC=C(C=C3)C4=CC=CC=C4)O

> <PUBCHEM_CACTVS_TPSA>
77.8

> <PUBCHEM_MONOISOTOPIC_WEIGHT>
349.131408

> <PUBCHEM_TOTAL_CHARGE>
0

> <PUBCHEM_HEAVY_ATOM_COUNT>
26

> <PUBCHEM_ATOM_DEF_STEREO_COUNT>
0

> <PUBCHEM_ATOM_UDEF_STEREO_COUNT>
3

> <PUBCHEM_BOND_DEF_STEREO_COUNT>
0

> <PUBCHEM_BOND_UDEF_STEREO_COUNT>
0

> <PUBCHEM_ISOTOPIC_ATOM_COUNT>
0

> <PUBCHEM_COMPONENT_COUNT>
1

> <PUBCHEM_CACTVS_TAUTO_COUNT>
2

> <PUBCHEM_COORDINATE_TYPE>
1
5
255

> <PUBCHEM_BONDANNOTATIONS>
10  31  3
13  16  8
13  17  8
16  18  8
17  19  8
18  20  8
19  20  8
21  22  8
21  23  8
22  24  8
23  25  8
24  26  8
25  26  8
6  27  3
7  28  3

$$$$

