12507
  -OEChem-06261207013D

 20 20  0     0  0  0  0  0  0999 V2000
   -2.7826    0.2867    0.0825 O   0  0  0  0  0  0  0  0  0  0  0  0
    1.3626    0.1920   -0.1047 C   0  0  0  0  0  0  0  0  0  0  0  0
   -1.4236    0.2555    0.0209 C   0  0  0  0  0  0  0  0  0  0  0  0
    0.6968    1.4135   -0.0034 C   0  0  0  0  0  0  0  0  0  0  0  0
    0.6354   -0.9976   -0.1432 C   0  0  0  0  0  0  0  0  0  0  0  0
   -0.6964    1.4452    0.0594 C   0  0  0  0  0  0  0  0  0  0  0  0
   -0.7576   -0.9659   -0.0805 C   0  0  0  0  0  0  0  0  0  0  0  0
    2.8152    0.1586   -0.1695 C   0  0  0  0  0  0  0  0  0  0  0  0
   -3.4639   -0.9662    0.0382 C   0  0  0  0  0  0  0  0  0  0  0  0
    3.6141   -0.8217    0.3003 C   0  0  0  0  0  0  0  0  0  0  0  0
    1.2476    2.3504    0.0293 H   0  0  0  0  0  0  0  0  0  0  0  0
    1.1233   -1.9646   -0.2358 H   0  0  0  0  0  0  0  0  0  0  0  0
   -1.2097    2.3996    0.1387 H   0  0  0  0  0  0  0  0  0  0  0  0
   -1.2605   -1.9262   -0.1184 H   0  0  0  0  0  0  0  0  0  0  0  0
    3.2926    1.0266   -0.6193 H   0  0  0  0  0  0  0  0  0  0  0  0
   -3.2130   -1.5914    0.9018 H   0  0  0  0  0  0  0  0  0  0  0  0
   -3.2937   -1.4833   -0.9122 H   0  0  0  0  0  0  0  0  0  0  0  0
   -4.5362   -0.7534    0.0986 H   0  0  0  0  0  0  0  0  0  0  0  0
    4.6915   -0.7314    0.2067 H   0  0  0  0  0  0  0  0  0  0  0  0
    3.2281   -1.7091    0.7890 H   0  0  0  0  0  0  0  0  0  0  0  0
  1  3  1  0  0  0  0
  1  9  1  0  0  0  0
  2  4  2  0  0  0  0
  2  5  1  0  0  0  0
  2  8  1  0  0  0  0
  3  6  2  0  0  0  0
  3  7  1  0  0  0  0
  4  6  1  0  0  0  0
  4 11  1  0  0  0  0
  5  7  2  0  0  0  0
  5 12  1  0  0  0  0
  6 13  1  0  0  0  0
  7 14  1  0  0  0  0
  8 10  2  0  0  0  0
  8 15  1  0  0  0  0
  9 16  1  0  0  0  0
  9 17  1  0  0  0  0
  9 18  1  0  0  0  0
 10 19  1  0  0  0  0
 10 20  1  0  0  0  0
M  END
> <PUBCHEM_COMPOUND_CID>
12507

> <PUBCHEM_CONFORMER_RMSD>
0.4

> <PUBCHEM_CONFORMER_DIVERSEORDER>
1
2

> <PUBCHEM_MMFF94_PARTIAL_CHARGES>
17
1 -0.36
10 -0.3
11 0.15
12 0.15
13 0.15
14 0.15
15 0.15
19 0.15
2 0.03
20 0.15
3 0.08
4 -0.15
5 -0.15
6 -0.15
7 -0.15
8 -0.18
9 0.28

> <PUBCHEM_EFFECTIVE_ROTOR_COUNT>
2

> <PUBCHEM_PHARMACOPHORE_FEATURES>
3
1 1 acceptor
1 10 hydrophobe
6 2 3 4 5 6 7 rings

> <PUBCHEM_HEAVY_ATOM_COUNT>
10

> <PUBCHEM_ATOM_DEF_STEREO_COUNT>
0

> <PUBCHEM_ATOM_UDEF_STEREO_COUNT>
0

> <PUBCHEM_BOND_DEF_STEREO_COUNT>
0

> <PUBCHEM_BOND_UDEF_STEREO_COUNT>
0

> <PUBCHEM_ISOTOPIC_ATOM_COUNT>
0

> <PUBCHEM_COMPONENT_COUNT>
1

> <PUBCHEM_CACTVS_TAUTO_COUNT>
1

> <PUBCHEM_CONFORMER_ID>
000030DB00000001

> <PUBCHEM_MMFF94_ENERGY>
35.6697

> <PUBCHEM_FEATURE_SELFOVERLAP>
15.223

> <PUBCHEM_SHAPE_FINGERPRINT>
10219947 1 18334010579583380511
10857977 72 18335428971094958496
11769659 78 18202007650480794058
12032990 46 18410005542019559638
14325111 11 18410855460212700764
16945 1 18334851731769473500
193761 8 17617658099642279079
20201158 50 18413387639950154939
20871998 22 18261381303929014359
21501925 9 18337117769389182546
23380061 330 18260833678629758727
23402539 116 18260559938667530806
23402655 69 18120672459739589189
23463225 33 18412825823984027342
23552423 10 18054788382149962956
2748010 2 18122061996589376116
369184 2 15285363950542337788
5084963 1 17988924474418420812

> <PUBCHEM_SHAPE_MULTIPOLES>
199.93
5.17
1.41
0.62
0.16
0.28
0
-1.84
0.34
-0.12
0.02
0.07
-0.01
-0.1

> <PUBCHEM_SHAPE_SELFOVERLAP>
410.402

> <PUBCHEM_SHAPE_VOLUME>
116.1

> <PUBCHEM_COORDINATE_TYPE>
2
5
10

$$$$

