854330
  -OEChem-06241222483D

 26 27  0     0  0  0  0  0  0999 V2000
   -2.6827   -2.5324    0.3153 Cl  0  0  0  0  0  0  0  0  0  0  0  0
    4.8992   -0.2603   -0.4005 Cl  0  0  0  0  0  0  0  0  0  0  0  0
    1.4669    1.6511    0.2785 O   0  0  0  0  0  0  0  0  0  0  0  0
   -3.0990    0.4139    0.7249 O   0  0  0  0  0  0  0  0  0  0  0  0
    3.6313    2.3169    0.0767 O   0  0  0  0  0  0  0  0  0  0  0  0
   -3.3605    0.6831   -1.5857 O   0  0  0  0  0  0  0  0  0  0  0  0
    0.8842   -0.7070    0.0701 C   0  0  0  0  0  0  0  0  0  0  0  0
    2.3100   -1.0242   -0.1535 C   0  0  0  0  0  0  0  0  0  0  0  0
    0.5120    0.6197    0.2782 C   0  0  0  0  0  0  0  0  0  0  0  0
   -0.1375   -1.6691    0.0873 C   0  0  0  0  0  0  0  0  0  0  0  0
   -0.8137    1.0027    0.4971 C   0  0  0  0  0  0  0  0  0  0  0  0
   -1.8088    0.0324    0.5098 C   0  0  0  0  0  0  0  0  0  0  0  0
   -1.4711   -1.3028    0.3051 C   0  0  0  0  0  0  0  0  0  0  0  0
    3.1997   -0.0139   -0.1479 C   0  0  0  0  0  0  0  0  0  0  0  0
    2.6708   -2.4721   -0.3757 C   0  0  0  0  0  0  0  0  0  0  0  0
    2.8147    1.4016    0.0724 C   0  0  0  0  0  0  0  0  0  0  0  0
   -3.8063    0.7270   -0.4468 C   0  0  0  0  0  0  0  0  0  0  0  0
   -5.2093    1.1333   -0.1053 C   0  0  0  0  0  0  0  0  0  0  0  0
    0.0908   -2.7210   -0.0690 H   0  0  0  0  0  0  0  0  0  0  0  0
   -1.0626    2.0484    0.6565 H   0  0  0  0  0  0  0  0  0  0  0  0
    2.3880   -3.0763    0.4935 H   0  0  0  0  0  0  0  0  0  0  0  0
    3.7386   -2.6413   -0.5354 H   0  0  0  0  0  0  0  0  0  0  0  0
    2.1592   -2.8639   -1.2619 H   0  0  0  0  0  0  0  0  0  0  0  0
   -5.7190    0.3093    0.3999 H   0  0  0  0  0  0  0  0  0  0  0  0
   -5.7527    1.3692   -1.0247 H   0  0  0  0  0  0  0  0  0  0  0  0
   -5.1918    2.0229    0.5288 H   0  0  0  0  0  0  0  0  0  0  0  0
  1 13  1  0  0  0  0
  2 14  1  0  0  0  0
  3  9  1  0  0  0  0
  3 16  1  0  0  0  0
  4 12  1  0  0  0  0
  4 17  1  0  0  0  0
  5 16  2  0  0  0  0
  6 17  2  0  0  0  0
  7  8  1  0  0  0  0
  7  9  1  0  0  0  0
  7 10  2  0  0  0  0
  8 14  2  0  0  0  0
  8 15  1  0  0  0  0
  9 11  2  0  0  0  0
 10 13  1  0  0  0  0
 10 19  1  0  0  0  0
 11 12  1  0  0  0  0
 11 20  1  0  0  0  0
 12 13  2  0  0  0  0
 14 16  1  0  0  0  0
 15 21  1  0  0  0  0
 15 22  1  0  0  0  0
 15 23  1  0  0  0  0
 17 18  1  0  0  0  0
 18 24  1  0  0  0  0
 18 25  1  0  0  0  0
 18 26  1  0  0  0  0
M  END
> <PUBCHEM_COMPOUND_CID>
854330

> <PUBCHEM_CONFORMER_RMSD>
0.6

> <PUBCHEM_CONFORMER_DIVERSEORDER>
1
3
6
5
2
4

> <PUBCHEM_MMFF94_PARTIAL_CHARGES>
20
1 -0.18
10 -0.15
11 -0.15
12 0.08
13 0.18
14 0.15
15 0.14
16 0.71
17 0.66
18 0.06
19 0.15
2 -0.14
20 0.15
3 -0.23
4 -0.23
5 -0.57
6 -0.57
7 0.03
8 -0.17
9 0.08

> <PUBCHEM_EFFECTIVE_ROTOR_COUNT>
2

> <PUBCHEM_PHARMACOPHORE_FEATURES>
4
1 5 acceptor
1 6 acceptor
6 3 7 8 9 14 16 rings
6 7 9 10 11 12 13 rings

> <PUBCHEM_HEAVY_ATOM_COUNT>
18

> <PUBCHEM_ATOM_DEF_STEREO_COUNT>
0

> <PUBCHEM_ATOM_UDEF_STEREO_COUNT>
0

> <PUBCHEM_BOND_DEF_STEREO_COUNT>
0

> <PUBCHEM_BOND_UDEF_STEREO_COUNT>
0

> <PUBCHEM_ISOTOPIC_ATOM_COUNT>
0

> <PUBCHEM_COMPONENT_COUNT>
1

> <PUBCHEM_CACTVS_TAUTO_COUNT>
1

> <PUBCHEM_CONFORMER_ID>
000D093A00000001

> <PUBCHEM_MMFF94_ENERGY>
57.8178

> <PUBCHEM_FEATURE_SELFOVERLAP>
20.324

> <PUBCHEM_SHAPE_FINGERPRINT>
10411042 1 17329990708316443403
10608611 8 18339923718757763064
10967382 1 18409443730459123810
11471102 20 18409165545617161918
11543360 7 15502375578207848184
12011746 2 18336822091572828742
12236239 1 17530685445985537473
12403259 415 18191300490580897584
12500047 106 18343864411423907967
12670546 177 18335712636953441903
13140716 1 18410858737404733818
13380535 76 18408602569556645050
13583140 156 17489864947217412305
13897977 150 18409728447856477082
14897335 6 18408606941674785003
14911166 2 18408882974943781886
15099037 51 18410854395187359982
15196674 1 18337951186792830018
15219456 202 18339640049073889187
15536298 74 18260823753376887128
16945 1 18336255846926005450
18186145 218 18411983567674607357
200 152 17675927603098393180
20645477 56 18202281416281072879
20645477 70 18186796989494909022
21267235 1 18336814308554576554
21501502 16 18338800009347824274
221490 88 18338507539597896122
231179 274 18060142054716014532
2334 1 18265330608067533930
23402539 116 18186524336201838357
23402655 69 18260833751881702981
23557571 272 18270389504148427631
23559900 14 18335421275257459938
25 1 18340773731772714895
2748010 2 18337383829812904210
335352 9 18410290341786130966
34934 24 18410296925839321562
350125 39 18267575811111989955
3545911 37 18410852161609219723
4072396 5 18339091479557354314
495365 180 17895489054606395792
5104073 3 18338515236162973482
633830 44 18337960111988163349
69090 78 18412266142695845123
7364860 26 18334289907783500274
9709674 26 18408035217177596238

> <PUBCHEM_SHAPE_MULTIPOLES>
350.69
8.78
2.39
0.81
2.26
0.89
-0.15
-2.65
-1.59
-0.57
0.09
0.47
-0.06
0.64

> <PUBCHEM_SHAPE_SELFOVERLAP>
737.032

> <PUBCHEM_SHAPE_VOLUME>
199.5

> <PUBCHEM_COORDINATE_TYPE>
2
5
10

$$$$

