5280816
  -OEChem-07051212502D

 81 84  0     1  0  0  0  0  0999 V2000
    3.4557    2.9115    0.0000 O   0  0  0  0  0  0  0  0  0  0  0  0
    7.8380    4.5681    0.0000 O   0  0  0  0  0  0  0  0  0  0  0  0
   13.3215   -1.5220    0.0000 O   0  0  0  0  0  0  0  0  0  0  0  0
    9.2392    3.5500    0.0000 O   0  0  0  0  0  0  0  0  0  0  0  0
   12.4555   -0.0220    0.0000 O   0  0  0  0  0  0  0  0  0  0  0  0
    5.1522   -5.0697    0.0000 O   0  0  0  0  0  0  0  0  0  0  0  0
    6.9759   -0.4158    0.0000 N   0  0  0  0  0  0  0  0  0  0  0  0
    8.2747   -1.8584    0.0000 N   0  0  0  0  0  0  0  0  0  0  0  0
    4.5772    1.5266    0.0000 N   0  0  0  0  0  0  0  0  0  0  0  0
    6.8735   -4.6085    0.0000 N   0  0  0  0  0  0  0  0  0  0  0  0
    7.4759    1.1230    0.0000 C   0  0  0  0  0  0  0  0  0  0  0  0
    7.7849    0.1719    0.0000 C   0  0  0  0  0  0  0  0  0  0  0  0
    6.4759    1.1230    0.0000 C   0  0  0  0  0  0  0  0  0  0  0  0
    6.1669    0.1719    0.0000 C   0  0  0  0  0  0  0  0  0  0  0  0
    9.8574   -1.5220    0.0000 C   0  0  0  0  0  0  0  0  0  0  0  0
    8.9439   -1.1152    0.0000 C   0  0  0  0  0  0  0  0  0  0  0  0
    8.7360   -0.1371    0.0000 C   0  0  0  0  0  0  0  0  0  0  0  0
    9.7529   -2.5165    0.0000 C   0  0  0  0  0  0  0  0  0  0  0  0
    8.0637    1.9320    0.0000 C   0  0  0  0  0  0  0  0  0  0  0  0
    2.9945    1.1902    0.0000 C   0  0  2  0  0  0  0  0  0  0  0  0
    4.4727    0.5321    0.0000 C   0  0  0  0  0  0  0  0  0  0  0  0
    8.7747   -2.7244    0.0000 C   0  0  0  0  0  0  0  0  0  0  0  0
    3.4945    0.3241    0.0000 C   0  0  0  0  0  0  0  0  0  0  0  0
   10.7234   -1.0220    0.0000 C   0  0  0  0  0  0  0  0  0  0  0  0
    5.2158   -0.1371    0.0000 C   0  0  0  0  0  0  0  0  0  0  0  0
    5.8881    1.9320    0.0000 C   0  0  0  0  0  0  0  0  0  0  0  0
    3.6636    1.9333    0.0000 C   0  0  0  0  0  0  0  0  0  0  0  0
    7.6569    2.8456    0.0000 C   0  0  0  0  0  0  0  0  0  0  0  0
   11.5895   -1.5220    0.0000 C   0  0  0  0  0  0  0  0  0  0  0  0
   10.4960   -3.1856    0.0000 C   0  0  0  0  0  0  0  0  0  0  0  0
    8.3680   -3.6379    0.0000 C   0  0  0  0  0  0  0  0  0  0  0  0
    2.0000    1.2947    0.0000 C   0  0  0  0  0  0  0  0  0  0  0  0
    3.0878   -0.5894    0.0000 C   0  0  0  0  0  0  0  0  0  0  0  0
    7.3735   -3.7425    0.0000 C   0  0  0  0  0  0  0  0  0  0  0  0
    6.7044   -2.9993    0.0000 C   0  0  0  0  0  0  0  0  0  0  0  0
    5.7908   -3.4061    0.0000 C   0  0  0  0  0  0  0  0  0  0  0  0
    8.2447    3.6546    0.0000 C   0  0  0  0  0  0  0  0  0  0  0  0
    3.6756   -1.3984    0.0000 C   0  0  0  0  0  0  0  0  0  0  0  0
   12.4555   -1.0220    0.0000 C   0  0  0  0  0  0  0  0  0  0  0  0
    4.9248   -2.9061    0.0000 C   0  0  0  0  0  0  0  0  0  0  0  0
    5.8953   -4.4006    0.0000 C   0  0  0  0  0  0  0  0  0  0  0  0
    6.9123   -2.0212    0.0000 C   0  0  0  0  0  0  0  0  0  0  0  0
    4.0588   -3.4061    0.0000 C   0  0  0  0  0  0  0  0  0  0  0  0
    6.9759   -1.0358    0.0000 H   0  0  0  0  0  0  0  0  0  0  0  0
    9.1967    0.2778    0.0000 H   0  0  0  0  0  0  0  0  0  0  0  0
    8.4944    1.4860    0.0000 H   0  0  0  0  0  0  0  0  0  0  0  0
    8.5777    2.2787    0.0000 H   0  0  0  0  0  0  0  0  0  0  0  0
    2.7723    1.7690    0.0000 H   0  0  0  0  0  0  0  0  0  0  0  0
   11.1220   -0.5470    0.0000 H   0  0  0  0  0  0  0  0  0  0  0  0
   10.3249   -0.5470    0.0000 H   0  0  0  0  0  0  0  0  0  0  0  0
    5.0869   -0.7435    0.0000 H   0  0  0  0  0  0  0  0  0  0  0  0
    7.6581   -1.7936    0.0000 H   0  0  0  0  0  0  0  0  0  0  0  0
    6.3897    2.2964    0.0000 H   0  0  0  0  0  0  0  0  0  0  0  0
    5.5237    2.4336    0.0000 H   0  0  0  0  0  0  0  0  0  0  0  0
    5.3865    1.5676    0.0000 H   0  0  0  0  0  0  0  0  0  0  0  0
    5.1141    1.8366    0.0000 H   0  0  0  0  0  0  0  0  0  0  0  0
    7.2262    3.2916    0.0000 H   0  0  0  0  0  0  0  0  0  0  0  0
    7.1429    2.4989    0.0000 H   0  0  0  0  0  0  0  0  0  0  0  0
   11.1909   -1.9969    0.0000 H   0  0  0  0  0  0  0  0  0  0  0  0
   11.9880   -1.9969    0.0000 H   0  0  0  0  0  0  0  0  0  0  0  0
   10.0812   -3.6464    0.0000 H   0  0  0  0  0  0  0  0  0  0  0  0
   10.9568   -3.6005    0.0000 H   0  0  0  0  0  0  0  0  0  0  0  0
   10.9109   -2.7249    0.0000 H   0  0  0  0  0  0  0  0  0  0  0  0
    8.7324   -4.1395    0.0000 H   0  0  0  0  0  0  0  0  0  0  0  0
    2.0648    1.9113    0.0000 H   0  0  0  0  0  0  0  0  0  0  0  0
    1.3834    1.3595    0.0000 H   0  0  0  0  0  0  0  0  0  0  0  0
    1.9352    0.6781    0.0000 H   0  0  0  0  0  0  0  0  0  0  0  0
    2.4712   -0.6542    0.0000 H   0  0  0  0  0  0  0  0  0  0  0  0
    3.1740   -1.7628    0.0000 H   0  0  0  0  0  0  0  0  0  0  0  0
    4.0400   -1.9000    0.0000 H   0  0  0  0  0  0  0  0  0  0  0  0
    4.1772   -1.0340    0.0000 H   0  0  0  0  0  0  0  0  0  0  0  0
    5.3233   -2.4311    0.0000 H   0  0  0  0  0  0  0  0  0  0  0  0
    4.5262   -2.4311    0.0000 H   0  0  0  0  0  0  0  0  0  0  0  0
    7.5187   -2.1501    0.0000 H   0  0  0  0  0  0  0  0  0  0  0  0
    7.0412   -1.4147    0.0000 H   0  0  0  0  0  0  0  0  0  0  0  0
    6.3058   -1.8923    0.0000 H   0  0  0  0  0  0  0  0  0  0  0  0
    3.7488   -2.8691    0.0000 H   0  0  0  0  0  0  0  0  0  0  0  0
    3.5218   -3.7161    0.0000 H   0  0  0  0  0  0  0  0  0  0  0  0
    4.3688   -3.9430    0.0000 H   0  0  0  0  0  0  0  0  0  0  0  0
    8.2024    5.0697    0.0000 H   0  0  0  0  0  0  0  0  0  0  0  0
   13.8585   -1.2120    0.0000 H   0  0  0  0  0  0  0  0  0  0  0  0
  1 27  2  0  0  0  0
  2 37  1  0  0  0  0
  2 80  1  0  0  0  0
  3 39  1  0  0  0  0
  3 81  1  0  0  0  0
  4 37  2  0  0  0  0
  5 39  2  0  0  0  0
  6 41  2  0  0  0  0
  7 12  1  0  0  0  0
  7 14  1  0  0  0  0
  7 44  1  0  0  0  0
  8 16  1  0  0  0  0
  8 22  1  0  0  0  0
  8 52  1  0  0  0  0
  9 21  1  0  0  0  0
  9 27  1  0  0  0  0
  9 56  1  0  0  0  0
 10 34  2  0  0  0  0
 10 41  1  0  0  0  0
 11 12  2  0  0  0  0
 11 13  1  0  0  0  0
 11 19  1  0  0  0  0
 12 17  1  0  0  0  0
 13 14  2  0  0  0  0
 13 26  1  0  0  0  0
 14 25  1  0  0  0  0
 15 16  1  0  0  0  0
 15 18  2  0  0  0  0
 15 24  1  0  0  0  0
 16 17  2  0  0  0  0
 17 45  1  0  0  0  0
 18 22  1  0  0  0  0
 18 30  1  0  0  0  0
 19 28  1  0  0  0  0
 19 46  1  0  0  0  0
 19 47  1  0  0  0  0
 20 23  1  0  0  0  0
 20 27  1  0  0  0  0
 20 32  1  1  0  0  0
 20 48  1  0  0  0  0
 21 23  1  0  0  0  0
 21 25  2  0  0  0  0
 22 31  2  0  0  0  0
 23 33  2  0  0  0  0
 24 29  1  0  0  0  0
 24 49  1  0  0  0  0
 24 50  1  0  0  0  0
 25 51  1  0  0  0  0
 26 53  1  0  0  0  0
 26 54  1  0  0  0  0
 26 55  1  0  0  0  0
 28 37  1  0  0  0  0
 28 57  1  0  0  0  0
 28 58  1  0  0  0  0
 29 39  1  0  0  0  0
 29 59  1  0  0  0  0
 29 60  1  0  0  0  0
 30 61  1  0  0  0  0
 30 62  1  0  0  0  0
 30 63  1  0  0  0  0
 31 34  1  0  0  0  0
 31 64  1  0  0  0  0
 32 65  1  0  0  0  0
 32 66  1  0  0  0  0
 32 67  1  0  0  0  0
 33 38  1  0  0  0  0
 33 68  1  0  0  0  0
 34 35  1  0  0  0  0
 35 36  2  0  0  0  0
 35 42  1  0  0  0  0
 36 40  1  0  0  0  0
 36 41  1  0  0  0  0
 38 69  1  0  0  0  0
 38 70  1  0  0  0  0
 38 71  1  0  0  0  0
 40 43  1  0  0  0  0
 40 72  1  0  0  0  0
 40 73  1  0  0  0  0
 42 74  1  0  0  0  0
 42 75  1  0  0  0  0
 42 76  1  0  0  0  0
 43 77  1  0  0  0  0
 43 78  1  0  0  0  0
 43 79  1  0  0  0  0
M  END
> <PUBCHEM_COMPOUND_CID>
5280816

> <PUBCHEM_COMPOUND_CANONICALIZED>
1

> <PUBCHEM_CACTVS_COMPLEXITY>
1460

> <PUBCHEM_CACTVS_HBOND_ACCEPTOR>
7

> <PUBCHEM_CACTVS_HBOND_DONOR>
5

> <PUBCHEM_CACTVS_ROTATABLE_BOND>
10

> <PUBCHEM_CACTVS_SUBSKEYS>
AAADcfB/uAAAAAAAAAAAAAAAAAAAAWLECAAAAAAAAAAAAAABgAAAHgAQCAAADQiBngACiJLJkgCoAyXyXACCgCAhAiAAmSEwRNgIIHLAkZGEQAhklADIyQec2TOegAAAAAAAAAAAAAAAAAAAAAAAAAAAAA==

> <PUBCHEM_IUPAC_OPENEYE_NAME>
3-[(2Z,5Z)-2-[[3-(2-carboxyethyl)-5-[(Z)-[(3Z,4R)-3-ethylidene-4-methyl-5-oxo-pyrrolidin-2-ylidene]methyl]-4-methyl-1H-pyrrol-2-yl]methylene]-5-[(4-ethyl-3-methyl-5-oxo-pyrrol-2-yl)methylene]-4-methyl-pyrrol-3-yl]propanoic acid

> <PUBCHEM_IUPAC_CAS_NAME>
3-[(2Z,5Z)-2-[[3-(2-carboxyethyl)-5-[(Z)-[(3Z,4R)-3-ethylidene-4-methyl-5-oxo-2-pyrrolidinylidene]methyl]-4-methyl-1H-pyrrol-2-yl]methylidene]-5-[(4-ethyl-3-methyl-5-oxo-2-pyrrolyl)methylidene]-4-methyl-3-pyrrolyl]propanoic acid

> <PUBCHEM_IUPAC_NAME>
3-[(2Z,5Z)-2-[[3-(2-carboxyethyl)-5-[(Z)-[(3Z,4R)-3-ethylidene-4-methyl-5-oxopyrrolidin-2-ylidene]methyl]-4-methyl-1H-pyrrol-2-yl]methylidene]-5-[(4-ethyl-3-methyl-5-oxopyrrol-2-yl)methylidene]-4-methylpyrrol-3-yl]propanoic acid

> <PUBCHEM_IUPAC_SYSTEMATIC_NAME>
3-[(2Z,5Z)-2-[[5-[(Z)-[(3Z,4R)-3-ethylidene-4-methyl-5-oxidanylidene-pyrrolidin-2-ylidene]methyl]-3-(3-hydroxy-3-oxopropyl)-4-methyl-1H-pyrrol-2-yl]methylidene]-5-[(4-ethyl-3-methyl-5-oxidanylidene-pyrrol-2-yl)methylidene]-4-methyl-pyrrol-3-yl]propanoic acid

> <PUBCHEM_IUPAC_TRADITIONAL_NAME>
3-[(2Z,5Z)-2-[[3-(2-carboxyethyl)-5-[(Z)-[(3Z,4R)-3-ethylidene-5-keto-4-methyl-pyrrolidin-2-ylidene]methyl]-4-methyl-1H-pyrrol-2-yl]methylene]-5-[(4-ethyl-5-keto-3-methyl-pyrrol-2-yl)methylene]-4-methyl-3-pyrrolin-3-yl]propionic acid

> <PUBCHEM_IUPAC_INCHI>
InChI=1S/C33H38N4O6/c1-7-20-19(6)32(42)37-27(20)14-25-18(5)23(10-12-31(40)41)29(35-25)15-28-22(9-11-30(38)39)17(4)24(34-28)13-26-16(3)21(8-2)33(43)36-26/h7,13-15,19,34-35H,8-12H2,1-6H3,(H,37,42)(H,38,39)(H,40,41)/b20-7-,24-13-,27-14-,28-15-/t19-/m1/s1

> <PUBCHEM_IUPAC_INCHIKEY>
NNMALANKTSRILL-ZUTFDUMMSA-N

> <PUBCHEM_XLOGP3_AA>
2.5

> <PUBCHEM_EXACT_MASS>
586.279135

> <PUBCHEM_MOLECULAR_FORMULA>
C33H38N4O6

> <PUBCHEM_MOLECULAR_WEIGHT>
586.67802

> <PUBCHEM_OPENEYE_CAN_SMILES>
CCC1=C(C(=NC1=O)C=C2C(=C(C(=CC3=C(C(=C(N3)C=C4C(=CC)C(C(=O)N4)C)C)CCC(=O)O)N2)CCC(=O)O)C)C

> <PUBCHEM_OPENEYE_ISO_SMILES>
CCC1=C(C(=NC1=O)/C=C\2/C(=C(/C(=C/C3=C(C(=C(N3)/C=C\4/C(=C\C)/[C@H](C(=O)N4)C)C)CCC(=O)O)/N2)CCC(=O)O)C)C

> <PUBCHEM_CACTVS_TPSA>
161

> <PUBCHEM_MONOISOTOPIC_WEIGHT>
586.279135

> <PUBCHEM_TOTAL_CHARGE>
0

> <PUBCHEM_HEAVY_ATOM_COUNT>
43

> <PUBCHEM_ATOM_DEF_STEREO_COUNT>
1

> <PUBCHEM_ATOM_UDEF_STEREO_COUNT>
0

> <PUBCHEM_BOND_DEF_STEREO_COUNT>
4

> <PUBCHEM_BOND_UDEF_STEREO_COUNT>
0

> <PUBCHEM_ISOTOPIC_ATOM_COUNT>
0

> <PUBCHEM_COMPONENT_COUNT>
1

> <PUBCHEM_CACTVS_TAUTO_COUNT>
1001

> <PUBCHEM_COORDINATE_TYPE>
1
5
255

> <PUBCHEM_BONDANNOTATIONS>
11  12  8
11  13  8
13  14  8
15  16  8
15  18  8
18  22  8
20  32  5
7  12  8
7  14  8
8  16  8
8  22  8

$$$$

