656870
  -OEChem-07051213043D

 25 26  0     1  0  0  0  0  0999 V2000
    0.4772   -0.8146   -0.3705 O   0  0  0  0  0  0  0  0  0  0  0  0
    2.3134   -0.2145   -1.6994 O   0  0  0  0  0  0  0  0  0  0  0  0
    1.9641   -0.0060    1.8133 O   0  0  0  0  0  0  0  0  0  0  0  0
    3.6456   -0.7578    0.4704 O   0  0  0  0  0  0  0  0  0  0  0  0
    1.5937    0.0675   -0.5052 C   0  0  1  0  0  0  0  0  0  0  0  0
   -0.7624   -0.2782   -0.1574 C   0  0  0  0  0  0  0  0  0  0  0  0
   -1.0012    1.0941   -0.0447 C   0  0  0  0  0  0  0  0  0  0  0  0
   -1.8190   -1.1859   -0.0484 C   0  0  0  0  0  0  0  0  0  0  0  0
    1.3253    1.5381   -0.3808 C   0  0  0  0  0  0  0  0  0  0  0  0
    0.1041    2.0310   -0.1606 C   0  0  0  0  0  0  0  0  0  0  0  0
   -2.3057    1.5509    0.1772 C   0  0  0  0  0  0  0  0  0  0  0  0
   -3.1163   -0.7252    0.1722 C   0  0  0  0  0  0  0  0  0  0  0  0
   -3.3596    0.6422    0.2852 C   0  0  0  0  0  0  0  0  0  0  0  0
   -1.5873   -2.6578   -0.1639 C   0  0  0  0  0  0  0  0  0  0  0  0
    2.5281   -0.2838    0.6125 C   0  0  0  0  0  0  0  0  0  0  0  0
    2.1605    2.2273   -0.4790 H   0  0  0  0  0  0  0  0  0  0  0  0
   -0.0728    3.0962   -0.0746 H   0  0  0  0  0  0  0  0  0  0  0  0
   -2.5150    2.6142    0.2679 H   0  0  0  0  0  0  0  0  0  0  0  0
   -3.9490   -1.4182    0.2591 H   0  0  0  0  0  0  0  0  0  0  0  0
   -4.3699    1.0018    0.4573 H   0  0  0  0  0  0  0  0  0  0  0  0
   -1.1648   -2.9009   -1.1446 H   0  0  0  0  0  0  0  0  0  0  0  0
   -0.9006   -2.9975    0.6186 H   0  0  0  0  0  0  0  0  0  0  0  0
   -2.5158   -3.2287   -0.0561 H   0  0  0  0  0  0  0  0  0  0  0  0
    2.7256   -1.0902   -1.6065 H   0  0  0  0  0  0  0  0  0  0  0  0
    2.5605   -0.2301    2.5592 H   0  0  0  0  0  0  0  0  0  0  0  0
  1  5  1  0  0  0  0
  1  6  1  0  0  0  0
  2  5  1  0  0  0  0
  2 24  1  0  0  0  0
  3 15  1  0  0  0  0
  3 25  1  0  0  0  0
  4 15  2  0  0  0  0
  5  9  1  0  0  0  0
  5 15  1  0  0  0  0
  6  7  1  0  0  0  0
  6  8  2  0  0  0  0
  7 10  1  0  0  0  0
  7 11  2  0  0  0  0
  8 12  1  0  0  0  0
  8 14  1  0  0  0  0
  9 10  2  0  0  0  0
  9 16  1  0  0  0  0
 10 17  1  0  0  0  0
 11 13  1  0  0  0  0
 11 18  1  0  0  0  0
 12 13  2  0  0  0  0
 12 19  1  0  0  0  0
 13 20  1  0  0  0  0
 14 21  1  0  0  0  0
 14 22  1  0  0  0  0
 14 23  1  0  0  0  0
M  END
> <PUBCHEM_COMPOUND_CID>
656870

> <PUBCHEM_CONFORMER_RMSD>
0.6

> <PUBCHEM_CONFORMER_DIVERSEORDER>
1
2

> <PUBCHEM_MMFF94_PARTIAL_CHARGES>
22
1 -0.36
10 -0.18
11 -0.15
12 -0.15
13 -0.15
14 0.14
15 0.66
16 0.15
17 0.15
18 0.15
19 0.15
2 -0.68
20 0.15
24 0.4
25 0.5
3 -0.65
4 -0.57
5 0.76
6 0.08
7 0.03
8 -0.14
9 -0.29

> <PUBCHEM_EFFECTIVE_ROTOR_COUNT>
1.4

> <PUBCHEM_PHARMACOPHORE_FEATURES>
8
1 1 acceptor
1 2 acceptor
1 2 donor
1 3 acceptor
1 4 acceptor
3 3 4 15 anion
6 1 5 6 7 9 10 rings
6 6 7 8 11 12 13 rings

> <PUBCHEM_HEAVY_ATOM_COUNT>
15

> <PUBCHEM_ATOM_DEF_STEREO_COUNT>
0

> <PUBCHEM_ATOM_UDEF_STEREO_COUNT>
1

> <PUBCHEM_BOND_DEF_STEREO_COUNT>
0

> <PUBCHEM_BOND_UDEF_STEREO_COUNT>
0

> <PUBCHEM_ISOTOPIC_ATOM_COUNT>
0

> <PUBCHEM_COMPONENT_COUNT>
1

> <PUBCHEM_CACTVS_TAUTO_COUNT>
1

> <PUBCHEM_CONFORMER_ID>
000A05E600000001

> <PUBCHEM_MMFF94_ENERGY>
37.408

> <PUBCHEM_FEATURE_SELFOVERLAP>
40.739

> <PUBCHEM_SHAPE_FINGERPRINT>
11578080 2 17487650496492535500
12251169 10 18409735040689428760
12382932 28 18408041835763871273
12423570 1 15822941887216044564
12932764 1 17846216627077357069
13140716 1 18265608797816029123
13172582 1 18411698807348667081
13538477 17 18201153269726708199
13581323 91 18412548729536179698
14144814 61 18413105052592427041
15375462 175 18265314261405895295
15375462 189 17917997195661272848
15775835 57 18060131042219557093
16752209 62 18342185500587101677
16945 1 18409442596672121181
17804303 29 18334294309829397730
17990270 104 18191014604239886933
1813 80 17130707378572440010
19049666 15 17460305788074278880
19422 9 17774992492738621747
20361792 2 17275116028234599308
20510252 161 18187644768747416257
20559304 39 18343017770279848427
20645476 183 17631149949350493359
21501502 16 18265612074691556829
22445834 79 18059583519672631778
23184049 29 18194684757047957903
232386 152 18342176648369425750
2334 1 17977379435160586919
23388829 49 17323538292635840229
23402539 116 18261126187704351223
23419403 2 17034786855647743789
23463225 33 18270962448258521034
23552423 10 17911794670333550381
23559900 14 18189322624266537926
2748010 2 18120931703395148501
465052 167 17987777650280212723
53812653 166 18188209930634933241
53812654 25 18413109463318202701
6338986 31 17611486137507940767
7364860 26 18190739722191547360
74978 22 18341333284348878975
75552 356 18409735066379961779
77492 1 17775558767096892028
81228 2 18262798463307282299

> <PUBCHEM_SHAPE_MULTIPOLES>
285.22
4.94
2.07
1
0.54
0.34
-0.08
0.8
-0.71
-1.07
0.15
0.82
0.06
-0.27

> <PUBCHEM_SHAPE_SELFOVERLAP>
623.08

> <PUBCHEM_SHAPE_VOLUME>
154.4

> <PUBCHEM_COORDINATE_TYPE>
2
5
10

$$$$

