10683
  -OEChem-06261204502D

 20 20  0     1  0  0  0  0  0999 V2000
    3.2601    1.6149    0.0000 O   0  0  0  0  0  0  0  0  0  0  0  0
    5.5202    0.3548    0.0000 O   0  0  0  0  0  0  0  0  0  0  0  0
    2.0000    0.3548    0.0000 O   0  0  0  0  0  0  0  0  0  0  0  0
    3.7601    0.0761    0.0000 N   0  0  0  0  0  0  0  0  0  0  0  0
    4.2601    1.6149    0.0000 C   0  0  3  0  0  0  0  0  0  0  0  0
    4.5691    0.6639    0.0000 C   0  0  0  0  0  0  0  0  0  0  0  0
    3.7601   -0.9239    0.0000 C   0  0  0  0  0  0  0  0  0  0  0  0
    2.9511    0.6639    0.0000 C   0  0  0  0  0  0  0  0  0  0  0  0
    4.8479    2.4239    0.0000 C   0  0  0  0  0  0  0  0  0  0  0  0
    2.8940   -1.4239    0.0000 C   0  0  0  0  0  0  0  0  0  0  0  0
    2.8940   -2.4239    0.0000 C   0  0  0  0  0  0  0  0  0  0  0  0
    3.8742    2.3723    0.0000 H   0  0  0  0  0  0  0  0  0  0  0  0
    3.9721   -1.5065    0.0000 H   0  0  0  0  0  0  0  0  0  0  0  0
    4.3707   -0.8163    0.0000 H   0  0  0  0  0  0  0  0  0  0  0  0
    5.3494    2.0595    0.0000 H   0  0  0  0  0  0  0  0  0  0  0  0
    5.2123    2.9255    0.0000 H   0  0  0  0  0  0  0  0  0  0  0  0
    4.3463    2.7884    0.0000 H   0  0  0  0  0  0  0  0  0  0  0  0
    2.3571   -1.1139    0.0000 H   0  0  0  0  0  0  0  0  0  0  0  0
    2.3571   -2.7339    0.0000 H   0  0  0  0  0  0  0  0  0  0  0  0
    3.4310   -2.7339    0.0000 H   0  0  0  0  0  0  0  0  0  0  0  0
  1  5  1  0  0  0  0
  1  8  1  0  0  0  0
  2  6  2  0  0  0  0
  3  8  2  0  0  0  0
  4  6  1  0  0  0  0
  4  7  1  0  0  0  0
  4  8  1  0  0  0  0
  5  6  1  0  0  0  0
  5  9  1  0  0  0  0
  5 12  1  0  0  0  0
  7 10  1  0  0  0  0
  7 13  1  0  0  0  0
  7 14  1  0  0  0  0
  9 15  1  0  0  0  0
  9 16  1  0  0  0  0
  9 17  1  0  0  0  0
 10 11  2  0  0  0  0
 10 18  1  0  0  0  0
 11 19  1  0  0  0  0
 11 20  1  0  0  0  0
M  END
> <PUBCHEM_COMPOUND_CID>
10683

> <PUBCHEM_COMPOUND_CANONICALIZED>
1

> <PUBCHEM_CACTVS_COMPLEXITY>
212

> <PUBCHEM_CACTVS_HBOND_ACCEPTOR>
3

> <PUBCHEM_CACTVS_HBOND_DONOR>
0

> <PUBCHEM_CACTVS_ROTATABLE_BOND>
2

> <PUBCHEM_CACTVS_SUBSKEYS>
AAADccBiMAAAAAAAAAAAAAAAAAAAAWAAAAAAAAAAAAAAAAAAAAAAHgAAAAAACBThgAYCCAMABACIACFSGAKAAAAAAAAIAAFIAAACAAAAAQQNAAAABiCQAAAAAAAAAAAAAAAAAAAAAAAAAAAAAAAAAAAAAA==

> <PUBCHEM_IUPAC_OPENEYE_NAME>
3-allyl-5-methyl-oxazolidine-2,4-dione

> <PUBCHEM_IUPAC_CAS_NAME>
5-methyl-3-prop-2-enyloxazolidine-2,4-dione

> <PUBCHEM_IUPAC_NAME>
5-methyl-3-prop-2-enyl-1,3-oxazolidine-2,4-dione

> <PUBCHEM_IUPAC_SYSTEMATIC_NAME>
5-methyl-3-prop-2-enyl-1,3-oxazolidine-2,4-dione

> <PUBCHEM_IUPAC_TRADITIONAL_NAME>
3-allyl-5-methyl-oxazolidine-2,4-quinone

> <PUBCHEM_IUPAC_INCHI>
InChI=1S/C7H9NO3/c1-3-4-8-6(9)5(2)11-7(8)10/h3,5H,1,4H2,2H3

> <PUBCHEM_IUPAC_INCHIKEY>
XWZXRENCCHMZNF-UHFFFAOYSA-N

> <PUBCHEM_XLOGP3_AA>
0.8

> <PUBCHEM_EXACT_MASS>
155.058243

> <PUBCHEM_MOLECULAR_FORMULA>
C7H9NO3

> <PUBCHEM_MOLECULAR_WEIGHT>
155.15126

> <PUBCHEM_OPENEYE_CAN_SMILES>
CC1C(=O)N(C(=O)O1)CC=C

> <PUBCHEM_OPENEYE_ISO_SMILES>
CC1C(=O)N(C(=O)O1)CC=C

> <PUBCHEM_CACTVS_TPSA>
46.6

> <PUBCHEM_MONOISOTOPIC_WEIGHT>
155.058243

> <PUBCHEM_TOTAL_CHARGE>
0

> <PUBCHEM_HEAVY_ATOM_COUNT>
11

> <PUBCHEM_ATOM_DEF_STEREO_COUNT>
0

> <PUBCHEM_ATOM_UDEF_STEREO_COUNT>
1

> <PUBCHEM_BOND_DEF_STEREO_COUNT>
0

> <PUBCHEM_BOND_UDEF_STEREO_COUNT>
0

> <PUBCHEM_ISOTOPIC_ATOM_COUNT>
0

> <PUBCHEM_COMPONENT_COUNT>
1

> <PUBCHEM_CACTVS_TAUTO_COUNT>
2

> <PUBCHEM_COORDINATE_TYPE>
1
5
255

> <PUBCHEM_BONDANNOTATIONS>
5  12  3

$$$$

