6604703
  -OEChem-07051213043D

 15 14  0     0  0  0  0  0  0999 V2000
    0.7407    0.5145   -0.3528 S   0  0  0  0  0  0  0  0  0  0  0  0
   -3.4872   -0.3570   -0.3547 O   0  0  0  0  0  0  0  0  0  0  0  0
   -1.9838    1.3377   -0.1453 O   0  0  0  0  0  0  0  0  0  0  0  0
    3.2075    0.9776    0.4978 N   0  0  0  0  0  0  0  0  0  0  0  0
    2.8185   -1.0863   -0.5970 N   0  0  0  0  0  0  0  0  0  0  0  0
   -0.0466   -0.7722    0.4950 C   0  0  0  0  0  0  0  0  0  0  0  0
   -1.3805   -0.8357    0.5934 C   0  0  0  0  0  0  0  0  0  0  0  0
    2.4240    0.0576   -0.1374 C   0  0  0  0  0  0  0  0  0  0  0  0
   -2.2926    0.1639    0.0012 C   0  0  0  0  0  0  0  0  0  0  0  0
    0.5523   -1.5540    0.9508 H   0  0  0  0  0  0  0  0  0  0  0  0
   -1.8418   -1.6791    1.0982 H   0  0  0  0  0  0  0  0  0  0  0  0
    4.1938    0.8087    0.6625 H   0  0  0  0  0  0  0  0  0  0  0  0
    2.8253    1.8583    0.8247 H   0  0  0  0  0  0  0  0  0  0  0  0
    3.8191   -1.1950   -0.3981 H   0  0  0  0  0  0  0  0  0  0  0  0
   -4.0814    0.3183   -0.7462 H   0  0  0  0  0  0  0  0  0  0  0  0
  1  6  1  0  0  0  0
  1  8  1  0  0  0  0
  2  9  1  0  0  0  0
  2 15  1  0  0  0  0
  3  9  2  0  0  0  0
  4  8  1  0  0  0  0
  4 12  1  0  0  0  0
  4 13  1  0  0  0  0
  5  8  2  0  0  0  0
  5 14  1  0  0  0  0
  6  7  2  0  0  0  0
  6 10  1  0  0  0  0
  7  9  1  0  0  0  0
  7 11  1  0  0  0  0
M  END
> <PUBCHEM_COMPOUND_CID>
6604703

> <PUBCHEM_CONFORMER_RMSD>
0.6

> <PUBCHEM_CONFORMER_DIVERSEORDER>
1
17
19
3
18
9
6
14
16
8
12
13
2
10
11
4
7
5
15

> <PUBCHEM_MMFF94_PARTIAL_CHARGES>
15
1 -0.24
10 0.15
11 0.15
12 0.4
13 0.4
14 0.4
15 0.5
2 -0.65
3 -0.57
4 -0.85
5 -0.85
6 -0.05
7 -0.14
8 0.64
9 0.71

> <PUBCHEM_EFFECTIVE_ROTOR_COUNT>
3

> <PUBCHEM_PHARMACOPHORE_FEATURES>
6
1 2 acceptor
1 3 acceptor
1 4 donor
1 5 donor
3 2 3 9 anion
3 4 5 8 cation

> <PUBCHEM_HEAVY_ATOM_COUNT>
9

> <PUBCHEM_ATOM_DEF_STEREO_COUNT>
0

> <PUBCHEM_ATOM_UDEF_STEREO_COUNT>
0

> <PUBCHEM_BOND_DEF_STEREO_COUNT>
1

> <PUBCHEM_BOND_UDEF_STEREO_COUNT>
0

> <PUBCHEM_ISOTOPIC_ATOM_COUNT>
0

> <PUBCHEM_COMPONENT_COUNT>
1

> <PUBCHEM_CACTVS_TAUTO_COUNT>
1

> <PUBCHEM_CONFORMER_ID>
0064C79F00000001

> <PUBCHEM_MMFF94_ENERGY>
20.4763

> <PUBCHEM_FEATURE_SELFOVERLAP>
30.54

> <PUBCHEM_SHAPE_FINGERPRINT>
11062470 55 17312819364177243441
12932764 1 18040990735297563950
14325111 11 18410574002347177057
14390081 3 18413671326613178193
15310529 11 17530967994524574765
19973954 147 18340759364933283276
20201158 50 18408603639156235744
20653085 51 18336535131495729993
21293036 1 18271813393397323359
3248919 1 17917986161863954158

> <PUBCHEM_SHAPE_MULTIPOLES>
167.36
5.38
1.16
0.75
0.39
0.07
0.01
0.32
-0.4
0.07
0.03
0.14
-0.06
0.38

> <PUBCHEM_SHAPE_SELFOVERLAP>
308.996

> <PUBCHEM_SHAPE_VOLUME>
105

> <PUBCHEM_COORDINATE_TYPE>
2
5
10

$$$$

