62773
  -OEChem-07051213122D

 27 28  0     1  0  0  0  0  0999 V2000
    3.4132    2.5324    0.0000 Cl  0  0  0  0  0  0  0  0  0  0  0  0
    3.6740   -0.8584    0.0000 P   0  0  0  0  0  0  0  0  0  0  0  0
    3.4132    0.1070    0.0000 O   0  0  0  0  0  0  0  0  0  0  0  0
    3.9348   -1.8238    0.0000 O   0  0  0  0  0  0  0  0  0  0  0  0
    2.7086   -1.1192    0.0000 O   0  0  0  0  0  0  0  0  0  0  0  0
    4.6393   -0.5976    0.0000 O   0  0  0  0  0  0  0  0  0  0  0  0
    5.1271    0.8197    0.0000 C   0  0  3  0  0  0  0  0  0  0  0  0
    5.1271    1.8197    0.0000 C   0  0  3  0  0  0  0  0  0  0  0  0
    6.0781    0.5107    0.0000 C   0  0  0  0  0  0  0  0  0  0  0  0
    4.1188    0.8155    0.0000 C   0  0  0  0  0  0  0  0  0  0  0  0
    4.1188    1.8238    0.0000 C   0  0  0  0  0  0  0  0  0  0  0  0
    6.0781    2.1287    0.0000 C   0  0  0  0  0  0  0  0  0  0  0  0
    6.6659    1.3197    0.0000 C   0  0  0  0  0  0  0  0  0  0  0  0
    2.0000   -0.4136    0.0000 C   0  0  0  0  0  0  0  0  0  0  0  0
    3.2291   -2.5324    0.0000 C   0  0  0  0  0  0  0  0  0  0  0  0
    4.9958   -0.0201    0.0000 H   0  0  0  0  0  0  0  0  0  0  0  0
    4.9958    2.6595    0.0000 H   0  0  0  0  0  0  0  0  0  0  0  0
    5.8260   -0.0557    0.0000 H   0  0  0  0  0  0  0  0  0  0  0  0
    6.6151    0.2007    0.0000 H   0  0  0  0  0  0  0  0  0  0  0  0
    6.2697    2.7183    0.0000 H   0  0  0  0  0  0  0  0  0  0  0  0
    7.2859    1.3197    0.0000 H   0  0  0  0  0  0  0  0  0  0  0  0
    2.4375    0.0257    0.0000 H   0  0  0  0  0  0  0  0  0  0  0  0
    1.5607    0.0239    0.0000 H   0  0  0  0  0  0  0  0  0  0  0  0
    1.5625   -0.8529    0.0000 H   0  0  0  0  0  0  0  0  0  0  0  0
    2.7898   -2.0949    0.0000 H   0  0  0  0  0  0  0  0  0  0  0  0
    2.7916   -2.9717    0.0000 H   0  0  0  0  0  0  0  0  0  0  0  0
    3.6684   -2.9699    0.0000 H   0  0  0  0  0  0  0  0  0  0  0  0
  1 11  1  0  0  0  0
  2  3  1  0  0  0  0
  2  4  1  0  0  0  0
  2  5  1  0  0  0  0
  2  6  2  0  0  0  0
  3 10  1  0  0  0  0
  4 15  1  0  0  0  0
  5 14  1  0  0  0  0
  7  8  1  0  0  0  0
  7  9  1  0  0  0  0
  7 10  1  0  0  0  0
  7 16  1  0  0  0  0
  8 11  1  0  0  0  0
  8 12  1  0  0  0  0
  8 17  1  0  0  0  0
  9 13  1  0  0  0  0
  9 18  1  0  0  0  0
  9 19  1  0  0  0  0
 10 11  2  0  0  0  0
 12 13  2  0  0  0  0
 12 20  1  0  0  0  0
 13 21  1  0  0  0  0
 14 22  1  0  0  0  0
 14 23  1  0  0  0  0
 14 24  1  0  0  0  0
 15 25  1  0  0  0  0
 15 26  1  0  0  0  0
 15 27  1  0  0  0  0
M  END
> <PUBCHEM_COMPOUND_CID>
62773

> <PUBCHEM_COMPOUND_CANONICALIZED>
1

> <PUBCHEM_CACTVS_COMPLEXITY>
368

> <PUBCHEM_CACTVS_HBOND_ACCEPTOR>
4

> <PUBCHEM_CACTVS_HBOND_DONOR>
0

> <PUBCHEM_CACTVS_ROTATABLE_BOND>
4

> <PUBCHEM_CACTVS_SUBSKEYS>
AAADccBwOAIEAAAAAAAAAAAAAABAAQAAAAAAAAAABAAAAAAAAAAAGgIAACAADQaAgAICAAAAARCAQCBCAIAAAAAgIAAICAAAAggAAAIBAQAAAAAEgAAIAAIAAAAOgAAAAAAAAAAAAAAAAAAAAAAAAAAAAA==

> <PUBCHEM_IUPAC_OPENEYE_NAME>
(6-chloro-7-bicyclo[3.2.0]hepta-3,6-dienyl) dimethyl phosphate

> <PUBCHEM_IUPAC_CAS_NAME>
phosphoric acid (6-chloro-7-bicyclo[3.2.0]hepta-3,6-dienyl) dimethyl ester

> <PUBCHEM_IUPAC_NAME>
(6-chloro-7-bicyclo[3.2.0]hepta-3,6-dienyl) dimethyl phosphate

> <PUBCHEM_IUPAC_SYSTEMATIC_NAME>
(6-chloranyl-7-bicyclo[3.2.0]hepta-3,6-dienyl) dimethyl phosphate

> <PUBCHEM_IUPAC_TRADITIONAL_NAME>
phosphoric acid (6-chloro-7-bicyclo[3.2.0]hepta-3,6-dienyl) dimethyl ester

> <PUBCHEM_IUPAC_INCHI>
InChI=1S/C9H12ClO4P/c1-12-15(11,13-2)14-9-7-5-3-4-6(7)8(9)10/h3-4,6-7H,5H2,1-2H3

> <PUBCHEM_IUPAC_INCHIKEY>
GBAWQJNHVWMTLU-UHFFFAOYSA-N

> <PUBCHEM_XLOGP3_AA>
1.3

> <PUBCHEM_EXACT_MASS>
250.016173

> <PUBCHEM_MOLECULAR_FORMULA>
C9H12ClO4P

> <PUBCHEM_MOLECULAR_WEIGHT>
250.615942

> <PUBCHEM_OPENEYE_CAN_SMILES>
COP(=O)(OC)OC1=C(C2C1CC=C2)Cl

> <PUBCHEM_OPENEYE_ISO_SMILES>
COP(=O)(OC)OC1=C(C2C1CC=C2)Cl

> <PUBCHEM_CACTVS_TPSA>
44.8

> <PUBCHEM_MONOISOTOPIC_WEIGHT>
250.016173

> <PUBCHEM_TOTAL_CHARGE>
0

> <PUBCHEM_HEAVY_ATOM_COUNT>
15

> <PUBCHEM_ATOM_DEF_STEREO_COUNT>
0

> <PUBCHEM_ATOM_UDEF_STEREO_COUNT>
2

> <PUBCHEM_BOND_DEF_STEREO_COUNT>
0

> <PUBCHEM_BOND_UDEF_STEREO_COUNT>
0

> <PUBCHEM_ISOTOPIC_ATOM_COUNT>
0

> <PUBCHEM_COMPONENT_COUNT>
1

> <PUBCHEM_CACTVS_TAUTO_COUNT>
1

> <PUBCHEM_COORDINATE_TYPE>
1
5
255

> <PUBCHEM_BONDANNOTATIONS>
7  16  3
8  17  3

$$$$

