164695
  -OEChem-07051212502D

 39 41  0     0  0  0  0  0  0999 V2000
    6.3981   -0.7979    0.0000 S   0  0  0  0  0  0  0  0  0  0  0  0
    6.3981    1.2021    0.0000 N   0  0  0  0  0  0  0  0  0  0  0  0
    2.8680   -0.8221    0.0000 N   0  0  0  0  0  0  0  0  0  0  0  0
    9.9282   -0.8221    0.0000 N   0  0  0  0  0  0  0  0  0  0  0  0
    7.2641    0.7021    0.0000 C   0  0  0  0  0  0  0  0  0  0  0  0
    5.5320    0.7021    0.0000 C   0  0  0  0  0  0  0  0  0  0  0  0
    7.2641   -0.2979    0.0000 C   0  0  0  0  0  0  0  0  0  0  0  0
    5.5320   -0.2979    0.0000 C   0  0  0  0  0  0  0  0  0  0  0  0
    9.0641   -0.3187    0.0000 C   0  0  0  0  0  0  0  0  0  0  0  0
    3.7320   -0.3187    0.0000 C   0  0  0  0  0  0  0  0  0  0  0  0
    8.1580   -0.8326    0.0000 C   0  0  0  0  0  0  0  0  0  0  0  0
    4.6381   -0.8326    0.0000 C   0  0  0  0  0  0  0  0  0  0  0  0
    4.6381    1.2367    0.0000 C   0  0  0  0  0  0  0  0  0  0  0  0
    8.1580    1.2367    0.0000 C   0  0  0  0  0  0  0  0  0  0  0  0
    3.7320    0.7229    0.0000 C   0  0  0  0  0  0  0  0  0  0  0  0
    9.0641    0.7229    0.0000 C   0  0  0  0  0  0  0  0  0  0  0  0
   10.7961   -0.3254    0.0000 C   0  0  0  0  0  0  0  0  0  0  0  0
    9.9243   -1.8221    0.0000 C   0  0  0  0  0  0  0  0  0  0  0  0
    2.0000   -0.3254    0.0000 C   0  0  0  0  0  0  0  0  0  0  0  0
    2.8718   -1.8221    0.0000 C   0  0  0  0  0  0  0  0  0  0  0  0
    6.3981    1.8221    0.0000 H   0  0  0  0  0  0  0  0  0  0  0  0
    8.1509   -1.4526    0.0000 H   0  0  0  0  0  0  0  0  0  0  0  0
    4.6453   -1.4526    0.0000 H   0  0  0  0  0  0  0  0  0  0  0  0
    8.1509    1.8567    0.0000 H   0  0  0  0  0  0  0  0  0  0  0  0
    4.6453    1.8567    0.0000 H   0  0  0  0  0  0  0  0  0  0  0  0
    9.5998    1.0350    0.0000 H   0  0  0  0  0  0  0  0  0  0  0  0
    3.1963    1.0350    0.0000 H   0  0  0  0  0  0  0  0  0  0  0  0
   11.1041   -0.8635    0.0000 H   0  0  0  0  0  0  0  0  0  0  0  0
    2.2518   -1.8245    0.0000 H   0  0  0  0  0  0  0  0  0  0  0  0
    2.8742   -2.4421    0.0000 H   0  0  0  0  0  0  0  0  0  0  0  0
    3.4918   -1.8197    0.0000 H   0  0  0  0  0  0  0  0  0  0  0  0
    2.3079    0.2127    0.0000 H   0  0  0  0  0  0  0  0  0  0  0  0
    1.4619   -0.0175    0.0000 H   0  0  0  0  0  0  0  0  0  0  0  0
    1.6921   -0.8635    0.0000 H   0  0  0  0  0  0  0  0  0  0  0  0
    9.3044   -1.8197    0.0000 H   0  0  0  0  0  0  0  0  0  0  0  0
    9.9220   -2.4421    0.0000 H   0  0  0  0  0  0  0  0  0  0  0  0
   10.5443   -1.8245    0.0000 H   0  0  0  0  0  0  0  0  0  0  0  0
   11.3343   -0.0175    0.0000 H   0  0  0  0  0  0  0  0  0  0  0  0
   10.4882    0.2127    0.0000 H   0  0  0  0  0  0  0  0  0  0  0  0
  1  7  1  0  0  0  0
  1  8  1  0  0  0  0
  2  5  1  0  0  0  0
  2  6  1  0  0  0  0
  2 21  1  0  0  0  0
  3 10  1  0  0  0  0
  3 19  1  0  0  0  0
  3 20  1  0  0  0  0
  4  9  1  0  0  0  0
  4 17  1  0  0  0  0
  4 18  1  0  0  0  0
  5  7  2  0  0  0  0
  5 14  1  0  0  0  0
  6  8  2  0  0  0  0
  6 13  1  0  0  0  0
  7 11  1  0  0  0  0
  8 12  1  0  0  0  0
  9 11  2  0  0  0  0
  9 16  1  0  0  0  0
 10 12  2  0  0  0  0
 10 15  1  0  0  0  0
 11 22  1  0  0  0  0
 12 23  1  0  0  0  0
 13 15  2  0  0  0  0
 13 25  1  0  0  0  0
 14 16  2  0  0  0  0
 14 24  1  0  0  0  0
 15 27  1  0  0  0  0
 16 26  1  0  0  0  0
 17 28  1  0  0  0  0
 17 38  1  0  0  0  0
 17 39  1  0  0  0  0
 18 35  1  0  0  0  0
 18 36  1  0  0  0  0
 18 37  1  0  0  0  0
 19 32  1  0  0  0  0
 19 33  1  0  0  0  0
 19 34  1  0  0  0  0
 20 29  1  0  0  0  0
 20 30  1  0  0  0  0
 20 31  1  0  0  0  0
M  END
> <PUBCHEM_COMPOUND_CID>
164695

> <PUBCHEM_COMPOUND_CANONICALIZED>
1

> <PUBCHEM_CACTVS_COMPLEXITY>
304

> <PUBCHEM_CACTVS_HBOND_ACCEPTOR>
4

> <PUBCHEM_CACTVS_HBOND_DONOR>
1

> <PUBCHEM_CACTVS_ROTATABLE_BOND>
2

> <PUBCHEM_CACTVS_SUBSKEYS>
AAADceB7AABAAAAAAAAAAAAAAAAAAAAAAAA8YIAAAAAAAACxQAAAHAQQAAAACAiBUAQywYPAAAiAACRCQACCAAAhChAIiBwIZIgIIGLgkZGEIAxgkADoyAcQAAAAAACAACAAAQAAAQAAQAACAAAAAAAAAA==

> <PUBCHEM_IUPAC_OPENEYE_NAME>
N3,N3,N7,N7-tetramethyl-10H-phenothiazine-3,7-diamine

> <PUBCHEM_IUPAC_CAS_NAME>
N3,N3,N7,N7-tetramethyl-10H-phenothiazine-3,7-diamine

> <PUBCHEM_IUPAC_NAME>
3-N,3-N,7-N,7-N-tetramethyl-10H-phenothiazine-3,7-diamine

> <PUBCHEM_IUPAC_SYSTEMATIC_NAME>
N3,N3,N7,N7-tetramethyl-10H-phenothiazine-3,7-diamine

> <PUBCHEM_IUPAC_TRADITIONAL_NAME>
[7-(dimethylamino)-10H-phenothiazin-3-yl]-dimethyl-amine

> <PUBCHEM_IUPAC_INCHI>
InChI=1S/C16H19N3S/c1-18(2)11-5-7-13-15(9-11)20-16-10-12(19(3)4)6-8-14(16)17-13/h5-10,17H,1-4H3

> <PUBCHEM_IUPAC_INCHIKEY>
QTWZICCBKBYHDM-UHFFFAOYSA-N

> <PUBCHEM_XLOGP3_AA>
3.9

> <PUBCHEM_EXACT_MASS>
285.129969

> <PUBCHEM_MOLECULAR_FORMULA>
C16H19N3S

> <PUBCHEM_MOLECULAR_WEIGHT>
285.40716

> <PUBCHEM_OPENEYE_CAN_SMILES>
CN(C)C1=CC2=C(C=C1)NC3=C(S2)C=C(C=C3)N(C)C

> <PUBCHEM_OPENEYE_ISO_SMILES>
CN(C)C1=CC2=C(C=C1)NC3=C(S2)C=C(C=C3)N(C)C

> <PUBCHEM_CACTVS_TPSA>
43.8

> <PUBCHEM_MONOISOTOPIC_WEIGHT>
285.129969

> <PUBCHEM_TOTAL_CHARGE>
0

> <PUBCHEM_HEAVY_ATOM_COUNT>
20

> <PUBCHEM_ATOM_DEF_STEREO_COUNT>
0

> <PUBCHEM_ATOM_UDEF_STEREO_COUNT>
0

> <PUBCHEM_BOND_DEF_STEREO_COUNT>
0

> <PUBCHEM_BOND_UDEF_STEREO_COUNT>
0

> <PUBCHEM_ISOTOPIC_ATOM_COUNT>
0

> <PUBCHEM_COMPONENT_COUNT>
1

> <PUBCHEM_CACTVS_TAUTO_COUNT>
1

> <PUBCHEM_COORDINATE_TYPE>
1
5
255

> <PUBCHEM_BONDANNOTATIONS>
10  12  8
10  15  8
13  15  8
14  16  8
5  14  8
5  7  8
6  13  8
6  8  8
7  11  8
8  12  8
9  11  8
9  16  8

$$$$

