167937
  -OEChem-07051212572D

103109  0     1  0  0  0  0  0999 V2000
   12.5744    4.0532    0.0000 O   0  0  0  0  0  0  0  0  0  0  0  0
    9.0346    4.0395    0.0000 O   0  0  0  0  0  0  0  0  0  0  0  0
   10.8005    5.0773    0.0000 O   0  0  0  0  0  0  0  0  0  0  0  0
    6.3923    0.4839    0.0000 O   0  0  0  0  0  0  0  0  0  0  0  0
    6.3923    2.5322    0.0000 O   0  0  0  0  0  0  0  0  0  0  0  0
    5.5627   -4.0408    0.0000 O   0  0  0  0  0  0  0  0  0  0  0  0
    3.8463   -5.0674    0.0000 O   0  0  0  0  0  0  0  0  0  0  0  0
    6.4077   -3.5160    0.0000 O   0  0  0  0  0  0  0  0  0  0  0  0
    8.1359   -2.5094    0.0000 O   0  0  0  0  0  0  0  0  0  0  0  0
   11.6467    0.5111    0.0000 N   0  0  3  0  0  0  0  0  0  0  0  0
    2.8939   -0.5122    0.0000 N   0  0  3  0  0  0  0  0  0  0  0  0
   10.7884    1.0081    0.0000 C   0  0  2  0  0  0  0  0  0  0  0  0
   10.7884    2.0081    0.0000 C   0  0  0  0  0  0  0  0  0  0  0  0
    9.9224    0.5081    0.0000 C   0  0  0  0  0  0  0  0  0  0  0  0
   11.6984    2.5149    0.0000 C   0  0  0  0  0  0  0  0  0  0  0  0
   12.5121    0.9953    0.0000 C   0  0  0  0  0  0  0  0  0  0  0  0
    9.9224    2.5081    0.0000 C   0  0  0  0  0  0  0  0  0  0  0  0
   12.5378    1.9867    0.0000 C   0  0  0  0  0  0  0  0  0  0  0  0
    9.0564    1.0081    0.0000 C   0  0  0  0  0  0  0  0  0  0  0  0
    9.0564    2.0081    0.0000 C   0  0  0  0  0  0  0  0  0  0  0  0
   11.7065    3.5565    0.0000 C   0  0  0  0  0  0  0  0  0  0  0  0
    9.9064    3.5496    0.0000 C   0  0  0  0  0  0  0  0  0  0  0  0
   11.6393   -0.4888    0.0000 C   0  0  0  0  0  0  0  0  0  0  0  0
   10.8044    4.0773    0.0000 C   0  0  0  0  0  0  0  0  0  0  0  0
    8.1624    0.4734    0.0000 C   0  0  0  0  0  0  0  0  0  0  0  0
    8.1624    2.5427    0.0000 C   0  0  0  0  0  0  0  0  0  0  0  0
    3.8000   -1.0261    0.0000 C   0  0  2  0  0  0  0  0  0  0  0  0
    7.2564    0.9872    0.0000 C   0  0  0  0  0  0  0  0  0  0  0  0
    7.2564    2.0289    0.0000 C   0  0  0  0  0  0  0  0  0  0  0  0
    3.8000   -2.0677    0.0000 C   0  0  0  0  0  0  0  0  0  0  0  0
    4.6641   -0.5228    0.0000 C   0  0  0  0  0  0  0  0  0  0  0  0
    2.0000   -1.0469    0.0000 C   0  0  0  0  0  0  0  0  0  0  0  0
    2.0241   -2.0882    0.0000 C   0  0  0  0  0  0  0  0  0  0  0  0
    2.9418   -2.5810    0.0000 C   0  0  0  0  0  0  0  0  0  0  0  0
    5.5320   -1.0194    0.0000 C   0  0  0  0  0  0  0  0  0  0  0  0
    6.3961   -0.5161    0.0000 C   0  0  0  0  0  0  0  0  0  0  0  0
    2.8824    0.4877    0.0000 C   0  0  0  0  0  0  0  0  0  0  0  0
    4.6736   -2.5543    0.0000 C   0  0  0  0  0  0  0  0  0  0  0  0
    2.9572   -3.5809    0.0000 C   0  0  0  0  0  0  0  0  0  0  0  0
   12.5783    5.0532    0.0000 C   0  0  0  0  0  0  0  0  0  0  0  0
    4.6891   -3.5542    0.0000 C   0  0  0  0  0  0  0  0  0  0  0  0
    9.0230    5.0395    0.0000 C   0  0  0  0  0  0  0  0  0  0  0  0
    5.5359   -2.0194    0.0000 C   0  0  0  0  0  0  0  0  0  0  0  0
    3.8308   -4.0675    0.0000 C   0  0  0  0  0  0  0  0  0  0  0  0
    7.2641   -1.0127    0.0000 C   0  0  0  0  0  0  0  0  0  0  0  0
   11.6646    5.5806    0.0000 C   0  0  0  0  0  0  0  0  0  0  0  0
    6.4038   -2.5161    0.0000 C   0  0  0  0  0  0  0  0  0  0  0  0
    7.2679   -2.0127    0.0000 C   0  0  0  0  0  0  0  0  0  0  0  0
    6.3961    3.5322    0.0000 C   0  0  0  0  0  0  0  0  0  0  0  0
    5.5781   -5.0407    0.0000 C   0  0  0  0  0  0  0  0  0  0  0  0
    2.9880   -5.5806    0.0000 C   0  0  0  0  0  0  0  0  0  0  0  0
    7.2756   -4.0127    0.0000 C   0  0  0  0  0  0  0  0  0  0  0  0
    9.0000   -2.0060    0.0000 C   0  0  0  0  0  0  0  0  0  0  0  0
   10.7879    0.1581    0.0000 H   0  0  0  0  0  0  0  0  0  0  0  0
    9.5239    0.0331    0.0000 H   0  0  0  0  0  0  0  0  0  0  0  0
   10.3209    0.0331    0.0000 H   0  0  0  0  0  0  0  0  0  0  0  0
   12.7139    0.4090    0.0000 H   0  0  0  0  0  0  0  0  0  0  0  0
   13.1249    1.0897    0.0000 H   0  0  0  0  0  0  0  0  0  0  0  0
   13.1448    1.8608    0.0000 H   0  0  0  0  0  0  0  0  0  0  0  0
   12.7695    2.5617    0.0000 H   0  0  0  0  0  0  0  0  0  0  0  0
   11.0193   -0.4842    0.0000 H   0  0  0  0  0  0  0  0  0  0  0  0
   11.6347   -1.1088    0.0000 H   0  0  0  0  0  0  0  0  0  0  0  0
   12.2592   -0.4934    0.0000 H   0  0  0  0  0  0  0  0  0  0  0  0
    8.1696   -0.1466    0.0000 H   0  0  0  0  0  0  0  0  0  0  0  0
    8.1696    3.1627    0.0000 H   0  0  0  0  0  0  0  0  0  0  0  0
    3.7964   -0.4061    0.0000 H   0  0  0  0  0  0  0  0  0  0  0  0
    5.0608   -0.0463    0.0000 H   0  0  0  0  0  0  0  0  0  0  0  0
    4.2637   -0.0493    0.0000 H   0  0  0  0  0  0  0  0  0  0  0  0
    1.7775   -0.4682    0.0000 H   0  0  0  0  0  0  0  0  0  0  0  0
    1.3918   -1.1671    0.0000 H   0  0  0  0  0  0  0  0  0  0  0  0
    1.4109   -1.9963    0.0000 H   0  0  0  0  0  0  0  0  0  0  0  0
    1.8286   -2.6766    0.0000 H   0  0  0  0  0  0  0  0  0  0  0  0
    3.5023    0.4949    0.0000 H   0  0  0  0  0  0  0  0  0  0  0  0
    2.8752    1.1076    0.0000 H   0  0  0  0  0  0  0  0  0  0  0  0
    2.2624    0.4805    0.0000 H   0  0  0  0  0  0  0  0  0  0  0  0
    5.2057   -2.2361    0.0000 H   0  0  0  0  0  0  0  0  0  0  0  0
    2.4251   -3.8991    0.0000 H   0  0  0  0  0  0  0  0  0  0  0  0
   13.1983    5.0508    0.0000 H   0  0  0  0  0  0  0  0  0  0  0  0
   12.5807    5.6732    0.0000 H   0  0  0  0  0  0  0  0  0  0  0  0
   11.9583    5.0556    0.0000 H   0  0  0  0  0  0  0  0  0  0  0  0
    9.6430    5.0466    0.0000 H   0  0  0  0  0  0  0  0  0  0  0  0
    9.0159    5.6594    0.0000 H   0  0  0  0  0  0  0  0  0  0  0  0
    8.4031    5.0323    0.0000 H   0  0  0  0  0  0  0  0  0  0  0  0
    5.0002   -2.3315    0.0000 H   0  0  0  0  0  0  0  0  0  0  0  0
    7.7998   -0.7007    0.0000 H   0  0  0  0  0  0  0  0  0  0  0  0
   11.9767    5.0449    0.0000 H   0  0  0  0  0  0  0  0  0  0  0  0
   12.2004    5.8927    0.0000 H   0  0  0  0  0  0  0  0  0  0  0  0
   11.3526    6.1164    0.0000 H   0  0  0  0  0  0  0  0  0  0  0  0
    7.0161    3.5298    0.0000 H   0  0  0  0  0  0  0  0  0  0  0  0
    6.3985    4.1522    0.0000 H   0  0  0  0  0  0  0  0  0  0  0  0
    5.7761    3.5346    0.0000 H   0  0  0  0  0  0  0  0  0  0  0  0
    4.9582   -5.0502    0.0000 H   0  0  0  0  0  0  0  0  0  0  0  0
    5.5877   -5.6606    0.0000 H   0  0  0  0  0  0  0  0  0  0  0  0
    6.1980   -5.0311    0.0000 H   0  0  0  0  0  0  0  0  0  0  0  0
    2.6698   -5.0486    0.0000 H   0  0  0  0  0  0  0  0  0  0  0  0
    2.4560   -5.8989    0.0000 H   0  0  0  0  0  0  0  0  0  0  0  0
    3.3063   -6.1128    0.0000 H   0  0  0  0  0  0  0  0  0  0  0  0
    6.9677   -4.5508    0.0000 H   0  0  0  0  0  0  0  0  0  0  0  0
    7.8138   -4.3206    0.0000 H   0  0  0  0  0  0  0  0  0  0  0  0
    7.5836   -3.4746    0.0000 H   0  0  0  0  0  0  0  0  0  0  0  0
    9.3120   -2.5418    0.0000 H   0  0  0  0  0  0  0  0  0  0  0  0
    9.5357   -1.6940    0.0000 H   0  0  0  0  0  0  0  0  0  0  0  0
    8.6879   -1.4703    0.0000 H   0  0  0  0  0  0  0  0  0  0  0  0
  1 21  1  0  0  0  0
  1 40  1  0  0  0  0
  2 22  1  0  0  0  0
  2 42  1  0  0  0  0
  3 24  1  0  0  0  0
  3 46  1  0  0  0  0
  4 28  1  0  0  0  0
  4 36  1  0  0  0  0
  5 29  1  0  0  0  0
  5 49  1  0  0  0  0
  6 41  1  0  0  0  0
  6 50  1  0  0  0  0
  7 44  1  0  0  0  0
  7 51  1  0  0  0  0
  8 47  1  0  0  0  0
  8 52  1  0  0  0  0
  9 48  1  0  0  0  0
  9 53  1  0  0  0  0
 10 12  1  0  0  0  0
 10 16  1  0  0  0  0
 10 23  1  0  0  0  0
 11 27  1  0  0  0  0
 11 32  1  0  0  0  0
 11 37  1  0  0  0  0
 12 13  1  0  0  0  0
 12 14  1  0  0  0  0
 12 54  1  6  0  0  0
 13 15  2  0  0  0  0
 13 17  1  0  0  0  0
 14 19  1  0  0  0  0
 14 55  1  0  0  0  0
 14 56  1  0  0  0  0
 15 18  1  0  0  0  0
 15 21  1  0  0  0  0
 16 18  1  0  0  0  0
 16 57  1  0  0  0  0
 16 58  1  0  0  0  0
 17 20  1  0  0  0  0
 17 22  2  0  0  0  0
 18 59  1  0  0  0  0
 18 60  1  0  0  0  0
 19 20  1  0  0  0  0
 19 25  2  0  0  0  0
 20 26  2  0  0  0  0
 21 24  2  0  0  0  0
 22 24  1  0  0  0  0
 23 61  1  0  0  0  0
 23 62  1  0  0  0  0
 23 63  1  0  0  0  0
 25 28  1  0  0  0  0
 25 64  1  0  0  0  0
 26 29  1  0  0  0  0
 26 65  1  0  0  0  0
 27 30  1  0  0  0  0
 27 31  1  1  0  0  0
 27 66  1  0  0  0  0
 28 29  2  0  0  0  0
 30 34  1  0  0  0  0
 30 38  2  0  0  0  0
 31 35  1  0  0  0  0
 31 67  1  0  0  0  0
 31 68  1  0  0  0  0
 32 33  1  0  0  0  0
 32 69  1  0  0  0  0
 32 70  1  0  0  0  0
 33 34  1  0  0  0  0
 33 71  1  0  0  0  0
 33 72  1  0  0  0  0
 34 39  2  0  0  0  0
 35 36  1  0  0  0  0
 35 43  2  0  0  0  0
 36 45  2  0  0  0  0
 37 73  1  0  0  0  0
 37 74  1  0  0  0  0
 37 75  1  0  0  0  0
 38 41  1  0  0  0  0
 38 76  1  0  0  0  0
 39 44  1  0  0  0  0
 39 77  1  0  0  0  0
 40 78  1  0  0  0  0
 40 79  1  0  0  0  0
 40 80  1  0  0  0  0
 41 44  2  0  0  0  0
 42 81  1  0  0  0  0
 42 82  1  0  0  0  0
 42 83  1  0  0  0  0
 43 47  1  0  0  0  0
 43 84  1  0  0  0  0
 45 48  1  0  0  0  0
 45 85  1  0  0  0  0
 46 86  1  0  0  0  0
 46 87  1  0  0  0  0
 46 88  1  0  0  0  0
 47 48  2  0  0  0  0
 49 89  1  0  0  0  0
 49 90  1  0  0  0  0
 49 91  1  0  0  0  0
 50 92  1  0  0  0  0
 50 93  1  0  0  0  0
 50 94  1  0  0  0  0
 51 95  1  0  0  0  0
 51 96  1  0  0  0  0
 51 97  1  0  0  0  0
 52 98  1  0  0  0  0
 52 99  1  0  0  0  0
 52100  1  0  0  0  0
 53101  1  0  0  0  0
 53102  1  0  0  0  0
 53103  1  0  0  0  0
M  END
> <PUBCHEM_COMPOUND_CID>
167937

> <PUBCHEM_COMPOUND_CANONICALIZED>
1

> <PUBCHEM_CACTVS_COMPLEXITY>
1170

> <PUBCHEM_CACTVS_HBOND_ACCEPTOR>
11

> <PUBCHEM_CACTVS_HBOND_DONOR>
0

> <PUBCHEM_CACTVS_ROTATABLE_BOND>
12

> <PUBCHEM_CACTVS_SUBSKEYS>
AAADcfB/PAAAAAAAAAAAAAAAAAAAAAAAAAA8eMGDAAAAAADxVAAAHgAAAAAADCzBmAYyBoMABACAAiBCAACCCAAgIAAAiAAOjIgNJyKEsRuGOCrlwBWKqAfw8P8OoQADCAAYQADSAAaQADSAAAAAAAAAAA==

> <PUBCHEM_IUPAC_OPENEYE_NAME>
(8S)-12-[2-[[(1S)-6,7-dimethoxy-2-methyl-3,4-dihydro-1H-isoquinolin-1-yl]methyl]-4,5-dimethoxy-phenoxy]-1,2,3,13-tetramethoxy-7-methyl-5,6,6a,7-tetrahydro-4H-dibenzo[de,g]quinoline

> <PUBCHEM_IUPAC_CAS_NAME>
(8S)-12-[2-[[(1S)-6,7-dimethoxy-2-methyl-3,4-dihydro-1H-isoquinolin-1-yl]methyl]-4,5-dimethoxyphenoxy]-1,2,3,13-tetramethoxy-7-methyl-5,6,6a,7-tetrahydro-4H-dibenzo[de,g]quinoline

> <PUBCHEM_IUPAC_NAME>
(8S)-12-[2-[[(1S)-6,7-dimethoxy-2-methyl-3,4-dihydro-1H-isoquinolin-1-yl]methyl]-4,5-dimethoxyphenoxy]-1,2,3,13-tetramethoxy-7-methyl-5,6,6a,7-tetrahydro-4H-dibenzo[de,g]quinoline

> <PUBCHEM_IUPAC_SYSTEMATIC_NAME>
(8S)-12-[2-[[(1S)-6,7-dimethoxy-2-methyl-3,4-dihydro-1H-isoquinolin-1-yl]methyl]-4,5-dimethoxy-phenoxy]-1,2,3,13-tetramethoxy-7-methyl-5,6,6a,7-tetrahydro-4H-dibenzo[de,g]quinoline

> <PUBCHEM_IUPAC_TRADITIONAL_NAME>
(8S)-12-[2-[[(1S)-6,7-dimethoxy-2-methyl-3,4-dihydro-1H-isoquinolin-1-yl]methyl]-4,5-dimethoxy-phenoxy]-1,2,3,13-tetramethoxy-7-methyl-5,6,6a,7-tetrahydro-4H-dibenzo[de,g]quinoline

> <PUBCHEM_IUPAC_INCHI>
InChI=1S/C42H50N2O9/c1-43-13-11-23-17-32(45-3)34(47-5)20-27(23)29(43)16-25-19-33(46-4)36(49-7)22-31(25)53-37-18-24-15-30-38-26(12-14-44(30)2)40(50-8)42(52-10)41(51-9)39(38)28(24)21-35(37)48-6/h17-22,29-30H,11-16H2,1-10H3/t29-,30-/m0/s1

> <PUBCHEM_IUPAC_INCHIKEY>
UEKRHVIBSZVFQN-KYJUHHDHSA-N

> <PUBCHEM_XLOGP3_AA>
6.6

> <PUBCHEM_EXACT_MASS>
726.351631

> <PUBCHEM_MOLECULAR_FORMULA>
C42H50N2O9

> <PUBCHEM_MOLECULAR_WEIGHT>
726.8544

> <PUBCHEM_OPENEYE_CAN_SMILES>
CN1CCC2=C(C(=C(C3=C2C1CC4=CC(=C(C=C43)OC)OC5=CC(=C(C=C5CC6C7=CC(=C(C=C7CCN6C)OC)OC)OC)OC)OC)OC)OC

> <PUBCHEM_OPENEYE_ISO_SMILES>
CN1CCC2=C(C(=C(C3=C2[C@@H]1CC4=CC(=C(C=C43)OC)OC5=CC(=C(C=C5C[C@H]6C7=CC(=C(C=C7CCN6C)OC)OC)OC)OC)OC)OC)OC

> <PUBCHEM_CACTVS_TPSA>
89.6

> <PUBCHEM_MONOISOTOPIC_WEIGHT>
726.351631

> <PUBCHEM_TOTAL_CHARGE>
0

> <PUBCHEM_HEAVY_ATOM_COUNT>
53

> <PUBCHEM_ATOM_DEF_STEREO_COUNT>
2

> <PUBCHEM_ATOM_UDEF_STEREO_COUNT>
0

> <PUBCHEM_BOND_DEF_STEREO_COUNT>
0

> <PUBCHEM_BOND_UDEF_STEREO_COUNT>
0

> <PUBCHEM_ISOTOPIC_ATOM_COUNT>
0

> <PUBCHEM_COMPONENT_COUNT>
1

> <PUBCHEM_CACTVS_TAUTO_COUNT>
1

> <PUBCHEM_COORDINATE_TYPE>
1
5
255

> <PUBCHEM_BONDANNOTATIONS>
12  54  6
13  15  8
13  17  8
15  21  8
17  22  8
19  20  8
19  25  8
20  26  8
21  24  8
22  24  8
25  28  8
26  29  8
27  31  5
28  29  8
30  34  8
30  38  8
34  39  8
35  36  8
35  43  8
36  45  8
38  41  8
39  44  8
41  44  8
43  47  8
45  48  8
47  48  8

$$$$

