7846973
  -OEChem-06241222482D

 46 48  0     1  0  0  0  0  0999 V2000
    4.6783    3.3358    0.0000 S   0  0  0  0  0  0  0  0  0  0  0  0
    8.2619    0.7990    0.0000 O   0  0  0  0  0  0  0  0  0  0  0  0
    8.2619    2.5311    0.0000 O   0  0  0  0  0  0  0  0  0  0  0  0
    9.2619   -0.9330    0.0000 O   0  0  0  0  0  0  0  0  0  0  0  0
    4.6783    1.7264    0.0000 N   0  0  0  0  0  0  0  0  0  0  0  0
   10.7619   -0.0670    0.0000 N   0  0  0  0  0  0  0  0  0  0  0  0
    6.2619    2.5311    0.0000 C   0  0  0  0  0  0  0  0  0  0  0  0
    6.7619    1.6651    0.0000 C   0  0  0  0  0  0  0  0  0  0  0  0
    9.2619    0.7990    0.0000 C   0  0  2  0  0  0  0  0  0  0  0  0
    5.2619    2.5311    0.0000 C   0  0  0  0  0  0  0  0  0  0  0  0
    3.7320    3.0311    0.0000 C   0  0  0  0  0  0  0  0  0  0  0  0
    3.7320    2.0311    0.0000 C   0  0  0  0  0  0  0  0  0  0  0  0
    7.7619    1.6651    0.0000 C   0  0  0  0  0  0  0  0  0  0  0  0
    9.7619   -0.0670    0.0000 C   0  0  0  0  0  0  0  0  0  0  0  0
    9.7619    1.6651    0.0000 C   0  0  0  0  0  0  0  0  0  0  0  0
   11.2619   -0.9330    0.0000 C   0  0  0  0  0  0  0  0  0  0  0  0
    2.8660    3.5311    0.0000 C   0  0  0  0  0  0  0  0  0  0  0  0
    2.8660    1.5311    0.0000 C   0  0  0  0  0  0  0  0  0  0  0  0
   10.7619   -1.7990    0.0000 C   0  0  0  0  0  0  0  0  0  0  0  0
   11.2619   -2.6651    0.0000 C   0  0  0  0  0  0  0  0  0  0  0  0
   12.2619   -0.9330    0.0000 C   0  0  0  0  0  0  0  0  0  0  0  0
    2.0000    3.0311    0.0000 C   0  0  0  0  0  0  0  0  0  0  0  0
    2.0000    2.0311    0.0000 C   0  0  0  0  0  0  0  0  0  0  0  0
   12.2619   -2.6651    0.0000 C   0  0  0  0  0  0  0  0  0  0  0  0
   12.7619   -1.7990    0.0000 C   0  0  0  0  0  0  0  0  0  0  0  0
   10.7619   -3.5311    0.0000 C   0  0  0  0  0  0  0  0  0  0  0  0
    6.8445    2.7431    0.0000 H   0  0  0  0  0  0  0  0  0  0  0  0
    6.1542    3.1417    0.0000 H   0  0  0  0  0  0  0  0  0  0  0  0
    6.1793    1.4530    0.0000 H   0  0  0  0  0  0  0  0  0  0  0  0
    6.8695    1.0545    0.0000 H   0  0  0  0  0  0  0  0  0  0  0  0
    8.9519    0.2621    0.0000 H   0  0  0  0  0  0  0  0  0  0  0  0
   10.2988    1.3551    0.0000 H   0  0  0  0  0  0  0  0  0  0  0  0
   10.0719    2.2020    0.0000 H   0  0  0  0  0  0  0  0  0  0  0  0
    9.2249    1.9751    0.0000 H   0  0  0  0  0  0  0  0  0  0  0  0
   11.0719    0.4699    0.0000 H   0  0  0  0  0  0  0  0  0  0  0  0
    2.8660    4.1511    0.0000 H   0  0  0  0  0  0  0  0  0  0  0  0
    2.8660    0.9111    0.0000 H   0  0  0  0  0  0  0  0  0  0  0  0
   10.1419   -1.7990    0.0000 H   0  0  0  0  0  0  0  0  0  0  0  0
   12.5719   -0.3961    0.0000 H   0  0  0  0  0  0  0  0  0  0  0  0
    1.4631    3.3411    0.0000 H   0  0  0  0  0  0  0  0  0  0  0  0
    1.4631    1.7211    0.0000 H   0  0  0  0  0  0  0  0  0  0  0  0
   12.5719   -3.2020    0.0000 H   0  0  0  0  0  0  0  0  0  0  0  0
   13.3819   -1.7990    0.0000 H   0  0  0  0  0  0  0  0  0  0  0  0
   10.2249   -3.2211    0.0000 H   0  0  0  0  0  0  0  0  0  0  0  0
   10.4519   -4.0680    0.0000 H   0  0  0  0  0  0  0  0  0  0  0  0
   11.2988   -3.8411    0.0000 H   0  0  0  0  0  0  0  0  0  0  0  0
  1 10  1  0  0  0  0
  1 11  1  0  0  0  0
  9  2  1  1  0  0  0
  2 13  1  0  0  0  0
  3 13  2  0  0  0  0
  4 14  2  0  0  0  0
  5 10  2  0  0  0  0
  5 12  1  0  0  0  0
  6 14  1  0  0  0  0
  6 16  1  0  0  0  0
  6 35  1  0  0  0  0
  7  8  1  0  0  0  0
  7 10  1  0  0  0  0
  7 27  1  0  0  0  0
  7 28  1  0  0  0  0
  8 13  1  0  0  0  0
  8 29  1  0  0  0  0
  8 30  1  0  0  0  0
  9 14  1  0  0  0  0
  9 15  1  0  0  0  0
  9 31  1  0  0  0  0
 11 12  1  0  0  0  0
 11 17  2  0  0  0  0
 12 18  2  0  0  0  0
 15 32  1  0  0  0  0
 15 33  1  0  0  0  0
 15 34  1  0  0  0  0
 16 19  1  0  0  0  0
 16 21  2  0  0  0  0
 17 22  1  0  0  0  0
 17 36  1  0  0  0  0
 18 23  1  0  0  0  0
 18 37  1  0  0  0  0
 19 20  2  0  0  0  0
 19 38  1  0  0  0  0
 20 24  1  0  0  0  0
 20 26  1  0  0  0  0
 21 25  1  0  0  0  0
 21 39  1  0  0  0  0
 22 23  2  0  0  0  0
 22 40  1  0  0  0  0
 23 41  1  0  0  0  0
 24 25  2  0  0  0  0
 24 42  1  0  0  0  0
 25 43  1  0  0  0  0
 26 44  1  0  0  0  0
 26 45  1  0  0  0  0
 26 46  1  0  0  0  0
M  END
> <PUBCHEM_COMPOUND_CID>
7846973

> <PUBCHEM_COMPOUND_CANONICALIZED>
1

> <PUBCHEM_CACTVS_COMPLEXITY>
501

> <PUBCHEM_CACTVS_HBOND_ACCEPTOR>
5

> <PUBCHEM_CACTVS_HBOND_DONOR>
1

> <PUBCHEM_CACTVS_ROTATABLE_BOND>
7

> <PUBCHEM_CACTVS_SUBSKEYS>
AAADceB7MABAAAAAAAAAAAAAAAAAAWAAAAAwYAAAAAAAAFgB9AAAHgQQAAAADByh3gIyybLIFAisAyXyXAKD8KBhCjhImD1wZJgKILLgkZWHIAhklAD4yAc0gAAOAAAAQAAAAQAAAACAAAACAAAAAAAAAA==

> <PUBCHEM_IUPAC_OPENEYE_NAME>
[(1S)-1-methyl-2-(3-methylanilino)-2-oxo-ethyl] 3-(1,3-benzothiazol-2-yl)propanoate

> <PUBCHEM_IUPAC_CAS_NAME>
3-(1,3-benzothiazol-2-yl)propanoic acid [(2S)-1-(3-methylanilino)-1-oxopropan-2-yl] ester

> <PUBCHEM_IUPAC_NAME>
[(2S)-1-(3-methylanilino)-1-oxopropan-2-yl] 3-(1,3-benzothiazol-2-yl)propanoate

> <PUBCHEM_IUPAC_SYSTEMATIC_NAME>
[(2S)-1-[(3-methylphenyl)amino]-1-oxidanylidene-propan-2-yl] 3-(1,3-benzothiazol-2-yl)propanoate

> <PUBCHEM_IUPAC_TRADITIONAL_NAME>
3-(1,3-benzothiazol-2-yl)propionic acid [(1S)-2-keto-1-methyl-2-(m-toluidino)ethyl] ester

> <PUBCHEM_IUPAC_INCHI>
InChI=1S/C20H20N2O3S/c1-13-6-5-7-15(12-13)21-20(24)14(2)25-19(23)11-10-18-22-16-8-3-4-9-17(16)26-18/h3-9,12,14H,10-11H2,1-2H3,(H,21,24)/t14-/m0/s1

> <PUBCHEM_IUPAC_INCHIKEY>
HXQDNBBPOAUCSA-AWEZNQCLSA-N

> <PUBCHEM_XLOGP3_AA>
4.2

> <PUBCHEM_EXACT_MASS>
368.119464

> <PUBCHEM_MOLECULAR_FORMULA>
C20H20N2O3S

> <PUBCHEM_MOLECULAR_WEIGHT>
368.4494

> <PUBCHEM_OPENEYE_CAN_SMILES>
CC1=CC(=CC=C1)NC(=O)C(C)OC(=O)CCC2=NC3=CC=CC=C3S2

> <PUBCHEM_OPENEYE_ISO_SMILES>
CC1=CC(=CC=C1)NC(=O)[C@H](C)OC(=O)CCC2=NC3=CC=CC=C3S2

> <PUBCHEM_CACTVS_TPSA>
96.5

> <PUBCHEM_MONOISOTOPIC_WEIGHT>
368.119464

> <PUBCHEM_TOTAL_CHARGE>
0

> <PUBCHEM_HEAVY_ATOM_COUNT>
26

> <PUBCHEM_ATOM_DEF_STEREO_COUNT>
1

> <PUBCHEM_ATOM_UDEF_STEREO_COUNT>
0

> <PUBCHEM_BOND_DEF_STEREO_COUNT>
0

> <PUBCHEM_BOND_UDEF_STEREO_COUNT>
0

> <PUBCHEM_ISOTOPIC_ATOM_COUNT>
0

> <PUBCHEM_COMPONENT_COUNT>
1

> <PUBCHEM_CACTVS_TAUTO_COUNT>
6

> <PUBCHEM_COORDINATE_TYPE>
1
5
255

> <PUBCHEM_BONDANNOTATIONS>
1  10  8
1  11  8
11  12  8
11  17  8
12  18  8
16  19  8
16  21  8
17  22  8
18  23  8
19  20  8
9  2  5
20  24  8
21  25  8
22  23  8
24  25  8
5  10  8
5  12  8

$$$$

