439370
  -OEChem-07051212452D

 25 24  0     1  0  0  0  0  0999 V2000
    6.3301    1.8100    0.0000 O   0  0  0  0  0  0  0  0  0  0  0  0
    5.4641    3.3100    0.0000 O   0  0  0  0  0  0  0  0  0  0  0  0
    2.0000   -2.6900    0.0000 O   0  0  0  0  0  0  0  0  0  0  0  0
    3.7320    2.3100    0.0000 N   0  0  0  0  0  0  0  0  0  0  0  0
    2.8660   -2.1900    0.0000 N   0  0  0  0  0  0  0  0  0  0  0  0
    3.7320    0.3100    0.0000 C   0  0  0  0  0  0  0  0  0  0  0  0
    4.5981    0.8100    0.0000 C   0  0  0  0  0  0  0  0  0  0  0  0
    3.7320   -0.6900    0.0000 C   0  0  0  0  0  0  0  0  0  0  0  0
    4.5981    1.8100    0.0000 C   0  0  1  0  0  0  0  0  0  0  0  0
    2.8660   -1.1900    0.0000 C   0  0  0  0  0  0  0  0  0  0  0  0
    5.4641    2.3100    0.0000 C   0  0  0  0  0  0  0  0  0  0  0  0
    3.5200    0.8926    0.0000 H   0  0  0  0  0  0  0  0  0  0  0  0
    3.1215    0.2023    0.0000 H   0  0  0  0  0  0  0  0  0  0  0  0
    4.8101    0.2274    0.0000 H   0  0  0  0  0  0  0  0  0  0  0  0
    5.2087    0.9177    0.0000 H   0  0  0  0  0  0  0  0  0  0  0  0
    3.9441   -1.2726    0.0000 H   0  0  0  0  0  0  0  0  0  0  0  0
    4.3426   -0.5823    0.0000 H   0  0  0  0  0  0  0  0  0  0  0  0
    4.5981    2.4300    0.0000 H   0  0  0  0  0  0  0  0  0  0  0  0
    2.6540   -0.6074    0.0000 H   0  0  0  0  0  0  0  0  0  0  0  0
    2.2554   -1.2977    0.0000 H   0  0  0  0  0  0  0  0  0  0  0  0
    3.1951    2.0000    0.0000 H   0  0  0  0  0  0  0  0  0  0  0  0
    3.7320    2.9300    0.0000 H   0  0  0  0  0  0  0  0  0  0  0  0
    3.4030   -2.5000    0.0000 H   0  0  0  0  0  0  0  0  0  0  0  0
    6.8671    2.1200    0.0000 H   0  0  0  0  0  0  0  0  0  0  0  0
    2.0000   -3.3100    0.0000 H   0  0  0  0  0  0  0  0  0  0  0  0
  1 11  1  0  0  0  0
  1 24  1  0  0  0  0
  2 11  2  0  0  0  0
  3  5  1  0  0  0  0
  3 25  1  0  0  0  0
  9  4  1  6  0  0  0
  4 21  1  0  0  0  0
  4 22  1  0  0  0  0
  5 10  1  0  0  0  0
  5 23  1  0  0  0  0
  6  7  1  0  0  0  0
  6  8  1  0  0  0  0
  6 12  1  0  0  0  0
  6 13  1  0  0  0  0
  7  9  1  0  0  0  0
  7 14  1  0  0  0  0
  7 15  1  0  0  0  0
  8 10  1  0  0  0  0
  8 16  1  0  0  0  0
  8 17  1  0  0  0  0
  9 11  1  0  0  0  0
  9 18  1  0  0  0  0
 10 19  1  0  0  0  0
 10 20  1  0  0  0  0
M  END
> <PUBCHEM_COMPOUND_CID>
439370

> <PUBCHEM_COMPOUND_CANONICALIZED>
1

> <PUBCHEM_CACTVS_COMPLEXITY>
118

> <PUBCHEM_CACTVS_HBOND_ACCEPTOR>
5

> <PUBCHEM_CACTVS_HBOND_DONOR>
4

> <PUBCHEM_CACTVS_ROTATABLE_BOND>
6

> <PUBCHEM_CACTVS_SUBSKEYS>
AAADccBjMAAAAAAAAAAAAAAAAAAAAAAAAAAAAAAAAAAAAAAAAAAAHgAUCAAACCjBgAQACABQAgAIAACQCAAAAAAAAAAgAIGAAAACABIAgAAAQAAEEAAAAAGYSAAAAAAAAAAAAAAAAAAAAAAAAAAAAAAAAA==

> <PUBCHEM_IUPAC_OPENEYE_NAME>
(2S)-2-amino-6-(hydroxyamino)hexanoic acid

> <PUBCHEM_IUPAC_CAS_NAME>
(2S)-2-amino-6-(hydroxyamino)hexanoic acid

> <PUBCHEM_IUPAC_NAME>
(2S)-2-amino-6-(hydroxyamino)hexanoic acid

> <PUBCHEM_IUPAC_SYSTEMATIC_NAME>
(2S)-2-azanyl-6-(oxidanylamino)hexanoic acid

> <PUBCHEM_IUPAC_TRADITIONAL_NAME>
(2S)-2-amino-6-(hydroxyamino)hexanoic acid

> <PUBCHEM_IUPAC_INCHI>
InChI=1S/C6H14N2O3/c7-5(6(9)10)3-1-2-4-8-11/h5,8,11H,1-4,7H2,(H,9,10)/t5-/m0/s1

> <PUBCHEM_IUPAC_INCHIKEY>
FZQOIMPLZAYIKU-YFKPBYRVSA-N

> <PUBCHEM_XLOGP3>
-3

> <PUBCHEM_EXACT_MASS>
162.100442

> <PUBCHEM_MOLECULAR_FORMULA>
C6H14N2O3

> <PUBCHEM_MOLECULAR_WEIGHT>
162.18696

> <PUBCHEM_OPENEYE_CAN_SMILES>
C(CCNO)CC(C(=O)O)N

> <PUBCHEM_OPENEYE_ISO_SMILES>
C(CCNO)C[C@@H](C(=O)O)N

> <PUBCHEM_CACTVS_TPSA>
95.6

> <PUBCHEM_MONOISOTOPIC_WEIGHT>
162.100442

> <PUBCHEM_TOTAL_CHARGE>
0

> <PUBCHEM_HEAVY_ATOM_COUNT>
11

> <PUBCHEM_ATOM_DEF_STEREO_COUNT>
1

> <PUBCHEM_ATOM_UDEF_STEREO_COUNT>
0

> <PUBCHEM_BOND_DEF_STEREO_COUNT>
0

> <PUBCHEM_BOND_UDEF_STEREO_COUNT>
0

> <PUBCHEM_ISOTOPIC_ATOM_COUNT>
0

> <PUBCHEM_COMPONENT_COUNT>
1

> <PUBCHEM_CACTVS_TAUTO_COUNT>
1

> <PUBCHEM_COORDINATE_TYPE>
1
5
255

> <PUBCHEM_BONDANNOTATIONS>
9  4  6

$$$$

