854106
  -OEChem-06241222472D

 42 44  0     0  0  0  0  0  0999 V2000
    6.3301    2.2549    0.0000 O   0  0  0  0  0  0  0  0  0  0  0  0
    8.0785   -0.7797    0.0000 O   0  0  0  0  0  0  0  0  0  0  0  0
    4.5981    2.2549    0.0000 O   0  0  0  0  0  0  0  0  0  0  0  0
    9.8105   -0.7997    0.0000 O   0  0  0  0  0  0  0  0  0  0  0  0
    6.3301    0.2549    0.0000 C   0  0  0  0  0  0  0  0  0  0  0  0
    7.1962    0.7549    0.0000 C   0  0  0  0  0  0  0  0  0  0  0  0
    5.4641    0.7549    0.0000 C   0  0  0  0  0  0  0  0  0  0  0  0
    4.5981    0.2549    0.0000 C   0  0  0  0  0  0  0  0  0  0  0  0
    7.1962    1.7549    0.0000 C   0  0  0  0  0  0  0  0  0  0  0  0
    8.0901    0.2203    0.0000 C   0  0  0  0  0  0  0  0  0  0  0  0
    5.4641    1.7549    0.0000 C   0  0  0  0  0  0  0  0  0  0  0  0
    8.0901    2.2896    0.0000 C   0  0  0  0  0  0  0  0  0  0  0  0
    6.3301   -0.7451    0.0000 C   0  0  0  0  0  0  0  0  0  0  0  0
    8.9962    1.7757    0.0000 C   0  0  0  0  0  0  0  0  0  0  0  0
    3.7320    0.7549    0.0000 C   0  0  0  0  0  0  0  0  0  0  0  0
    8.9962    0.7341    0.0000 C   0  0  0  0  0  0  0  0  0  0  0  0
    9.8602    2.2791    0.0000 C   0  0  0  0  0  0  0  0  0  0  0  0
    3.7320    1.7549    0.0000 C   0  0  0  0  0  0  0  0  0  0  0  0
    2.8660    0.2549    0.0000 C   0  0  0  0  0  0  0  0  0  0  0  0
    2.8660    2.2549    0.0000 C   0  0  0  0  0  0  0  0  0  0  0  0
    2.0000    0.7549    0.0000 C   0  0  0  0  0  0  0  0  0  0  0  0
    2.0000    1.7549    0.0000 C   0  0  0  0  0  0  0  0  0  0  0  0
    8.9387   -1.2896    0.0000 C   0  0  0  0  0  0  0  0  0  0  0  0
    8.9271   -2.2896    0.0000 C   0  0  0  0  0  0  0  0  0  0  0  0
    4.1996   -0.2200    0.0000 H   0  0  0  0  0  0  0  0  0  0  0  0
    4.9966   -0.2200    0.0000 H   0  0  0  0  0  0  0  0  0  0  0  0
    8.0829    2.9095    0.0000 H   0  0  0  0  0  0  0  0  0  0  0  0
    5.7101   -0.7451    0.0000 H   0  0  0  0  0  0  0  0  0  0  0  0
    6.3301   -1.3651    0.0000 H   0  0  0  0  0  0  0  0  0  0  0  0
    6.9501   -0.7451    0.0000 H   0  0  0  0  0  0  0  0  0  0  0  0
    9.5319    0.4220    0.0000 H   0  0  0  0  0  0  0  0  0  0  0  0
   10.1723    1.7433    0.0000 H   0  0  0  0  0  0  0  0  0  0  0  0
   10.3960    2.5911    0.0000 H   0  0  0  0  0  0  0  0  0  0  0  0
    9.5482    2.8148    0.0000 H   0  0  0  0  0  0  0  0  0  0  0  0
    4.2690    2.0649    0.0000 H   0  0  0  0  0  0  0  0  0  0  0  0
    2.8660   -0.3651    0.0000 H   0  0  0  0  0  0  0  0  0  0  0  0
    2.8660    2.8749    0.0000 H   0  0  0  0  0  0  0  0  0  0  0  0
    1.4631    0.4449    0.0000 H   0  0  0  0  0  0  0  0  0  0  0  0
    1.4631    2.0649    0.0000 H   0  0  0  0  0  0  0  0  0  0  0  0
    8.3072   -2.2824    0.0000 H   0  0  0  0  0  0  0  0  0  0  0  0
    8.9200   -2.9095    0.0000 H   0  0  0  0  0  0  0  0  0  0  0  0
    9.5471   -2.2968    0.0000 H   0  0  0  0  0  0  0  0  0  0  0  0
  1  9  1  0  0  0  0
  1 11  1  0  0  0  0
  2 10  1  0  0  0  0
  2 23  1  0  0  0  0
  3 11  2  0  0  0  0
  4 23  2  0  0  0  0
  5  6  1  0  0  0  0
  5  7  2  0  0  0  0
  5 13  1  0  0  0  0
  6  9  2  0  0  0  0
  6 10  1  0  0  0  0
  7  8  1  0  0  0  0
  7 11  1  0  0  0  0
  8 15  1  0  0  0  0
  8 25  1  0  0  0  0
  8 26  1  0  0  0  0
  9 12  1  0  0  0  0
 10 16  2  0  0  0  0
 12 14  2  0  0  0  0
 12 27  1  0  0  0  0
 13 28  1  0  0  0  0
 13 29  1  0  0  0  0
 13 30  1  0  0  0  0
 14 16  1  0  0  0  0
 14 17  1  0  0  0  0
 15 18  2  0  0  0  0
 15 19  1  0  0  0  0
 16 31  1  0  0  0  0
 17 32  1  0  0  0  0
 17 33  1  0  0  0  0
 17 34  1  0  0  0  0
 18 20  1  0  0  0  0
 18 35  1  0  0  0  0
 19 21  2  0  0  0  0
 19 36  1  0  0  0  0
 20 22  2  0  0  0  0
 20 37  1  0  0  0  0
 21 22  1  0  0  0  0
 21 38  1  0  0  0  0
 22 39  1  0  0  0  0
 23 24  1  0  0  0  0
 24 40  1  0  0  0  0
 24 41  1  0  0  0  0
 24 42  1  0  0  0  0
M  END
> <PUBCHEM_COMPOUND_CID>
854106

> <PUBCHEM_COMPOUND_CANONICALIZED>
1

> <PUBCHEM_CACTVS_COMPLEXITY>
530

> <PUBCHEM_CACTVS_HBOND_ACCEPTOR>
4

> <PUBCHEM_CACTVS_HBOND_DONOR>
0

> <PUBCHEM_CACTVS_ROTATABLE_BOND>
4

> <PUBCHEM_CACTVS_SUBSKEYS>
AAADceB4OAAAAAAAAAAAAAAAAAAAAAAAAAAwYIAAAAAAAACBQAAAGgAAAAAADASAmAAyDoAABACIAiDSCAACCAAgIAAIiAEGCMgMJzKEMRqCOiClwBUIqQeI6PyOQAABCAAIAACAAAIQABAAAAAAAAAAAA==

> <PUBCHEM_IUPAC_OPENEYE_NAME>
(3-benzyl-4,7-dimethyl-2-oxo-chromen-5-yl) acetate

> <PUBCHEM_IUPAC_CAS_NAME>
acetic acid [4,7-dimethyl-2-oxo-3-(phenylmethyl)-1-benzopyran-5-yl] ester

> <PUBCHEM_IUPAC_NAME>
(3-benzyl-4,7-dimethyl-2-oxochromen-5-yl) acetate

> <PUBCHEM_IUPAC_SYSTEMATIC_NAME>
[4,7-dimethyl-2-oxidanylidene-3-(phenylmethyl)chromen-5-yl] ethanoate

> <PUBCHEM_IUPAC_TRADITIONAL_NAME>
acetic acid (3-benzyl-2-keto-4,7-dimethyl-chromen-5-yl) ester

> <PUBCHEM_IUPAC_INCHI>
InChI=1S/C20H18O4/c1-12-9-17(23-14(3)21)19-13(2)16(20(22)24-18(19)10-12)11-15-7-5-4-6-8-15/h4-10H,11H2,1-3H3

> <PUBCHEM_IUPAC_INCHIKEY>
GMJBXRJICIJYPR-UHFFFAOYSA-N

> <PUBCHEM_XLOGP3_AA>
3.9

> <PUBCHEM_EXACT_MASS>
322.120509

> <PUBCHEM_MOLECULAR_FORMULA>
C20H18O4

> <PUBCHEM_MOLECULAR_WEIGHT>
322.35452

> <PUBCHEM_OPENEYE_CAN_SMILES>
CC1=CC2=C(C(=C(C(=O)O2)CC3=CC=CC=C3)C)C(=C1)OC(=O)C

> <PUBCHEM_OPENEYE_ISO_SMILES>
CC1=CC2=C(C(=C(C(=O)O2)CC3=CC=CC=C3)C)C(=C1)OC(=O)C

> <PUBCHEM_CACTVS_TPSA>
52.6

> <PUBCHEM_MONOISOTOPIC_WEIGHT>
322.120509

> <PUBCHEM_TOTAL_CHARGE>
0

> <PUBCHEM_HEAVY_ATOM_COUNT>
24

> <PUBCHEM_ATOM_DEF_STEREO_COUNT>
0

> <PUBCHEM_ATOM_UDEF_STEREO_COUNT>
0

> <PUBCHEM_BOND_DEF_STEREO_COUNT>
0

> <PUBCHEM_BOND_UDEF_STEREO_COUNT>
0

> <PUBCHEM_ISOTOPIC_ATOM_COUNT>
0

> <PUBCHEM_COMPONENT_COUNT>
1

> <PUBCHEM_CACTVS_TAUTO_COUNT>
1

> <PUBCHEM_COORDINATE_TYPE>
1
5
255

> <PUBCHEM_BONDANNOTATIONS>
1  11  8
1  9  8
10  16  8
12  14  8
14  16  8
15  18  8
15  19  8
18  20  8
19  21  8
20  22  8
21  22  8
5  6  8
5  7  8
6  10  8
6  9  8
7  11  8
9  12  8

$$$$

