442518
  -OEChem-07051212582D

 76 80  0     1  0  0  0  0  0999 V2000
    5.3563   -2.3592    0.0000 O   0  0  0  0  0  0  0  0  0  0  0  0
    4.6043   -1.1692    0.0000 O   0  0  0  0  0  0  0  0  0  0  0  0
    5.1739    0.8652    0.0000 O   0  0  0  0  0  0  0  0  0  0  0  0
    6.9895    0.4269    0.0000 O   0  0  0  0  0  0  0  0  0  0  0  0
    3.7316    0.8194    0.0000 O   0  0  0  0  0  0  0  0  0  0  0  0
    3.4661   -1.3118    0.0000 O   0  0  0  0  0  0  0  0  0  0  0  0
    6.8672    1.2296    0.0000 O   0  0  0  0  0  0  0  0  0  0  0  0
    8.3301   -0.6698    0.0000 O   0  0  0  0  0  0  0  0  0  0  0  0
    2.9018    2.3398    0.0000 O   0  0  0  0  0  0  0  0  0  0  0  0
    5.0644   -4.4691    0.0000 O   0  0  0  0  0  0  0  0  0  0  0  0
    4.5429    3.7981    0.0000 N   0  0  0  0  0  0  0  0  0  0  0  0
    4.5823   -1.7260    0.0000 C   0  0  1  0  0  0  0  0  0  0  0  0
    4.5947   -0.7261    0.0000 C   0  0  2  0  0  0  0  0  0  0  0  0
    6.7790   -1.2534    0.0000 C   0  0  2  0  0  0  0  0  0  0  0  0
    5.6036   -1.1319    0.0000 C   0  0  1  0  0  0  0  0  0  0  0  0
    5.3843   -0.1124    0.0000 C   0  0  2  0  0  0  0  0  0  0  0  0
    3.6817   -2.2495    0.0000 C   0  0  3  0  0  0  0  0  0  0  0  0
    6.3339   -2.1489    0.0000 C   0  0  0  0  0  0  0  0  0  0  0  0
    6.3564   -0.3471    0.0000 C   0  0  2  0  0  0  0  0  0  0  0  0
    3.7075   -0.1803    0.0000 C   0  0  2  0  0  0  0  0  0  0  0  0
    2.7821   -1.7244    0.0000 C   0  0  0  0  0  0  0  0  0  0  0  0
    2.7951   -0.6828    0.0000 C   0  0  0  0  0  0  0  0  0  0  0  0
    4.6072    0.2738    0.0000 C   0  0  0  0  0  0  0  0  0  0  0  0
    3.6808   -3.2495    0.0000 C   0  0  0  0  0  0  0  0  0  0  0  0
    6.3663   -3.1483    0.0000 C   0  0  0  0  0  0  0  0  0  0  0  0
    7.2945   -2.4269    0.0000 C   0  0  0  0  0  0  0  0  0  0  0  0
    4.1370   -2.0534    0.0000 C   0  0  0  0  0  0  0  0  0  0  0  0
    5.9154    1.5362    0.0000 C   0  0  0  0  0  0  0  0  0  0  0  0
    7.9764    0.2656    0.0000 C   0  0  0  0  0  0  0  0  0  0  0  0
    2.8778    1.3400    0.0000 C   0  0  0  0  0  0  0  0  0  0  0  0
    4.6690   -2.9001    0.0000 C   0  0  0  0  0  0  0  0  0  0  0  0
    5.7050    2.5138    0.0000 C   0  0  0  0  0  0  0  0  0  0  0  0
    8.6096    1.0396    0.0000 C   0  0  0  0  0  0  0  0  0  0  0  0
    2.0000    0.8610    0.0000 C   0  0  0  0  0  0  0  0  0  0  0  0
    5.6668   -2.9674    0.0000 C   0  0  0  0  0  0  0  0  0  0  0  0
    4.2968   -3.8282    0.0000 C   0  0  0  0  0  0  0  0  0  0  0  0
    6.4465    3.1848    0.0000 C   0  0  0  0  0  0  0  0  0  0  0  0
    4.7532    2.8205    0.0000 C   0  0  0  0  0  0  0  0  0  0  0  0
    5.9112   -3.9370    0.0000 C   0  0  0  0  0  0  0  0  0  0  0  0
    6.2362    4.1624    0.0000 C   0  0  0  0  0  0  0  0  0  0  0  0
    5.2844    4.4691    0.0000 C   0  0  0  0  0  0  0  0  0  0  0  0
    7.6100   -1.0746    0.0000 H   0  0  0  0  0  0  0  0  0  0  0  0
    5.6240   -0.5122    0.0000 H   0  0  0  0  0  0  0  0  0  0  0  0
    5.8281    0.3205    0.0000 H   0  0  0  0  0  0  0  0  0  0  0  0
    2.9444   -2.6724    0.0000 H   0  0  0  0  0  0  0  0  0  0  0  0
    6.1589    0.2407    0.0000 H   0  0  0  0  0  0  0  0  0  0  0  0
    4.2523    0.1156    0.0000 H   0  0  0  0  0  0  0  0  0  0  0  0
    2.1726   -1.6107    0.0000 H   0  0  0  0  0  0  0  0  0  0  0  0
    2.5658   -2.3054    0.0000 H   0  0  0  0  0  0  0  0  0  0  0  0
    2.5934   -0.0966    0.0000 H   0  0  0  0  0  0  0  0  0  0  0  0
    2.1830   -0.7813    0.0000 H   0  0  0  0  0  0  0  0  0  0  0  0
    5.2272    0.2661    0.0000 H   0  0  0  0  0  0  0  0  0  0  0  0
    4.6149    0.8938    0.0000 H   0  0  0  0  0  0  0  0  0  0  0  0
    3.9872    0.2816    0.0000 H   0  0  0  0  0  0  0  0  0  0  0  0
    3.0608   -3.2489    0.0000 H   0  0  0  0  0  0  0  0  0  0  0  0
    3.6803   -3.8695    0.0000 H   0  0  0  0  0  0  0  0  0  0  0  0
    4.3008   -3.2501    0.0000 H   0  0  0  0  0  0  0  0  0  0  0  0
    7.1221   -3.0224    0.0000 H   0  0  0  0  0  0  0  0  0  0  0  0
    5.7466   -3.1684    0.0000 H   0  0  0  0  0  0  0  0  0  0  0  0
    7.8900   -2.5993    0.0000 H   0  0  0  0  0  0  0  0  0  0  0  0
    7.4668   -1.8313    0.0000 H   0  0  0  0  0  0  0  0  0  0  0  0
    6.3864   -3.7680    0.0000 H   0  0  0  0  0  0  0  0  0  0  0  0
    6.9860   -3.1282    0.0000 H   0  0  0  0  0  0  0  0  0  0  0  0
    9.0895    0.6470    0.0000 H   0  0  0  0  0  0  0  0  0  0  0  0
    9.0022    1.5194    0.0000 H   0  0  0  0  0  0  0  0  0  0  0  0
    8.1297    1.4322    0.0000 H   0  0  0  0  0  0  0  0  0  0  0  0
    1.7030    1.4052    0.0000 H   0  0  0  0  0  0  0  0  0  0  0  0
    1.4558    0.5640    0.0000 H   0  0  0  0  0  0  0  0  0  0  0  0
    2.2970    0.3168    0.0000 H   0  0  0  0  0  0  0  0  0  0  0  0
    6.0642   -2.4914    0.0000 H   0  0  0  0  0  0  0  0  0  0  0  0
    3.6955   -3.9797    0.0000 H   0  0  0  0  0  0  0  0  0  0  0  0
    7.0366    2.9947    0.0000 H   0  0  0  0  0  0  0  0  0  0  0  0
    4.2935    2.4045    0.0000 H   0  0  0  0  0  0  0  0  0  0  0  0
    6.4866   -4.1679    0.0000 H   0  0  0  0  0  0  0  0  0  0  0  0
    6.6959    4.5784    0.0000 H   0  0  0  0  0  0  0  0  0  0  0  0
    5.1539    5.0752    0.0000 H   0  0  0  0  0  0  0  0  0  0  0  0
  1 12  1  0  0  0  0
  1 18  1  0  0  0  0
 15  2  1  6  0  0  0
  2 27  1  0  0  0  0
 16  3  1  1  0  0  0
  3 28  1  0  0  0  0
 19  4  1  6  0  0  0
  4 29  1  0  0  0  0
 20  5  1  6  0  0  0
  5 30  1  0  0  0  0
  6 27  2  0  0  0  0
  7 28  2  0  0  0  0
  8 29  2  0  0  0  0
  9 30  2  0  0  0  0
 10 36  1  0  0  0  0
 10 39  1  0  0  0  0
 11 38  1  0  0  0  0
 11 41  2  0  0  0  0
 12 13  1  0  0  0  0
 12 15  1  0  0  0  0
 12 17  1  6  0  0  0
 13 16  1  0  0  0  0
 13 20  1  0  0  0  0
 13 23  1  6  0  0  0
 14 15  1  0  0  0  0
 14 18  1  0  0  0  0
 14 19  1  0  0  0  0
 14 42  1  6  0  0  0
 15 43  1  0  0  0  0
 16 19  1  0  0  0  0
 16 44  1  0  0  0  0
 17 21  1  0  0  0  0
 17 24  1  0  0  0  0
 17 45  1  0  0  0  0
 18 25  1  0  0  0  0
 18 26  1  0  0  0  0
 19 46  1  0  0  0  0
 20 22  1  0  0  0  0
 20 47  1  0  0  0  0
 21 22  1  0  0  0  0
 21 48  1  0  0  0  0
 21 49  1  0  0  0  0
 22 50  1  0  0  0  0
 22 51  1  0  0  0  0
 23 52  1  0  0  0  0
 23 53  1  0  0  0  0
 23 54  1  0  0  0  0
 24 55  1  0  0  0  0
 24 56  1  0  0  0  0
 24 57  1  0  0  0  0
 25 59  1  0  0  0  0
 25 62  1  0  0  0  0
 25 63  1  0  0  0  0
 26 58  1  0  0  0  0
 26 60  1  0  0  0  0
 26 61  1  0  0  0  0
 27 31  1  0  0  0  0
 28 32  1  0  0  0  0
 29 33  1  0  0  0  0
 30 34  1  0  0  0  0
 31 35  1  0  0  0  0
 31 36  2  0  0  0  0
 32 37  1  0  0  0  0
 32 38  2  0  0  0  0
 33 64  1  0  0  0  0
 33 65  1  0  0  0  0
 33 66  1  0  0  0  0
 34 67  1  0  0  0  0
 34 68  1  0  0  0  0
 34 69  1  0  0  0  0
 35 39  2  0  0  0  0
 35 70  1  0  0  0  0
 36 71  1  0  0  0  0
 37 40  2  0  0  0  0
 37 72  1  0  0  0  0
 38 73  1  0  0  0  0
 39 74  1  0  0  0  0
 40 41  1  0  0  0  0
 40 75  1  0  0  0  0
 41 76  1  0  0  0  0
M  END
> <PUBCHEM_COMPOUND_CID>
442518

> <PUBCHEM_COMPOUND_CANONICALIZED>
1

> <PUBCHEM_CACTVS_COMPLEXITY>
1060

> <PUBCHEM_CACTVS_HBOND_ACCEPTOR>
11

> <PUBCHEM_CACTVS_HBOND_DONOR>
0

> <PUBCHEM_CACTVS_ROTATABLE_BOND>
10

> <PUBCHEM_CACTVS_SUBSKEYS>
AAADcfB6PAAAAAAAAAAAAAAAAAAAASJAAAA8YIAABIAAAADB4AAAHgAAAAAAD1ThmgY+jJIIFECoAjj3zACCiCA1IiAI2CE+bNgNJ/7MtZuGOejn4BHK6cfb8f4PgAAAAAAAAADCAAYQADCAAAAAAAAAAA==

> <PUBCHEM_IUPAC_INCHI>
InChI=1S/C30H35NO10/c1-16-9-10-21(37-17(2)32)29(6)25(40-26(34)19-8-7-12-31-14-19)23(38-18(3)33)22-24(30(16,29)41-28(22,4)5)39-27(35)20-11-13-36-15-20/h7-8,11-16,21-25H,9-10H2,1-6H3/t16?,21-,22+,23+,24+,25-,29-,30+/m0/s1

> <PUBCHEM_IUPAC_INCHIKEY>
MHXMEJIEIHJTGN-GTTNOKDOSA-N

> <PUBCHEM_XLOGP3_AA>
3.5

> <PUBCHEM_EXACT_MASS>
569.226096

> <PUBCHEM_MOLECULAR_FORMULA>
C30H35NO10

> <PUBCHEM_MOLECULAR_WEIGHT>
569.5996

> <PUBCHEM_OPENEYE_CAN_SMILES>
CC1CCC(C2(C13C(C(C(C2OC(=O)C4=CN=CC=C4)OC(=O)C)C(O3)(C)C)OC(=O)C5=COC=C5)C)OC(=O)C

> <PUBCHEM_OPENEYE_ISO_SMILES>
CC1CC[C@@H]([C@@]2([C@]13[C@@H]([C@@H]([C@H]([C@@H]2OC(=O)C4=CN=CC=C4)OC(=O)C)C(O3)(C)C)OC(=O)C5=COC=C5)C)OC(=O)C

> <PUBCHEM_CACTVS_TPSA>
141

> <PUBCHEM_MONOISOTOPIC_WEIGHT>
569.226096

> <PUBCHEM_TOTAL_CHARGE>
0

> <PUBCHEM_HEAVY_ATOM_COUNT>
41

> <PUBCHEM_ATOM_DEF_STEREO_COUNT>
7

> <PUBCHEM_ATOM_UDEF_STEREO_COUNT>
1

> <PUBCHEM_BOND_DEF_STEREO_COUNT>
0

> <PUBCHEM_BOND_UDEF_STEREO_COUNT>
0

> <PUBCHEM_ISOTOPIC_ATOM_COUNT>
0

> <PUBCHEM_COMPONENT_COUNT>
1

> <PUBCHEM_CACTVS_TAUTO_COUNT>
1

> <PUBCHEM_COORDINATE_TYPE>
1
5
255

> <PUBCHEM_BONDANNOTATIONS>
10  36  8
10  39  8
11  38  8
11  41  8
12  17  6
13  23  6
14  42  6
17  45  3
15  2  6
16  3  5
31  35  8
31  36  8
32  37  8
32  38  8
35  39  8
37  40  8
19  4  6
40  41  8
20  5  6

$$$$

