443116
  -OEChem-07051213012D

 67 66  0     1  0  0  0  0  0999 V2000
    7.7331    2.0950    0.0000 S   0  0  0  0  0  0  0  0  0  0  0  0
    9.4651    5.0950    0.0000 O   0  0  0  0  0  0  0  0  0  0  0  0
    6.8671    2.5950    0.0000 O   0  0  0  0  0  0  0  0  0  0  0  0
    2.5369    4.0950    0.0000 O   0  0  0  0  0  0  0  0  0  0  0  0
    3.4030    2.5950    0.0000 O   0  0  0  0  0  0  0  0  0  0  0  0
   12.9292    4.0950    0.0000 O   0  0  0  0  0  0  0  0  0  0  0  0
   12.0632    2.5950    0.0000 O   0  0  0  0  0  0  0  0  0  0  0  0
    7.7331    4.0950    0.0000 N   0  0  0  0  0  0  0  0  0  0  0  0
   10.3312    3.5950    0.0000 N   0  0  0  0  0  0  0  0  0  0  0  0
    4.2690    5.0950    0.0000 N   0  0  0  0  0  0  0  0  0  0  0  0
    6.0010   -1.9050    0.0000 C   0  0  0  0  0  0  0  0  0  0  0  0
    6.0010   -0.9050    0.0000 C   0  0  0  0  0  0  0  0  0  0  0  0
    5.1350   -2.4050    0.0000 C   0  0  0  0  0  0  0  0  0  0  0  0
    6.8671   -0.4050    0.0000 C   0  0  0  0  0  0  0  0  0  0  0  0
    5.1350   -3.4050    0.0000 C   0  0  0  0  0  0  0  0  0  0  0  0
    6.8671    0.5950    0.0000 C   0  0  0  0  0  0  0  0  0  0  0  0
    4.2690   -3.9050    0.0000 C   0  0  0  0  0  0  0  0  0  0  0  0
    7.7331    1.0950    0.0000 C   0  0  0  0  0  0  0  0  0  0  0  0
    4.2690   -4.9050    0.0000 C   0  0  0  0  0  0  0  0  0  0  0  0
    8.5991    3.5950    0.0000 C   0  0  1  0  0  0  0  0  0  0  0  0
    8.5991    2.5950    0.0000 C   0  0  0  0  0  0  0  0  0  0  0  0
    3.4030   -5.4050    0.0000 C   0  0  0  0  0  0  0  0  0  0  0  0
    6.0010    4.0950    0.0000 C   0  0  0  0  0  0  0  0  0  0  0  0
    5.1350    3.5950    0.0000 C   0  0  0  0  0  0  0  0  0  0  0  0
    9.4651    4.0950    0.0000 C   0  0  0  0  0  0  0  0  0  0  0  0
    6.8671    3.5950    0.0000 C   0  0  0  0  0  0  0  0  0  0  0  0
    4.2690    4.0950    0.0000 C   0  0  1  0  0  0  0  0  0  0  0  0
    3.4030    3.5950    0.0000 C   0  0  0  0  0  0  0  0  0  0  0  0
   11.1972    4.0950    0.0000 C   0  0  0  0  0  0  0  0  0  0  0  0
   12.0632    3.5950    0.0000 C   0  0  0  0  0  0  0  0  0  0  0  0
    6.2131   -2.4876    0.0000 H   0  0  0  0  0  0  0  0  0  0  0  0
    6.6116   -1.7973    0.0000 H   0  0  0  0  0  0  0  0  0  0  0  0
    5.7890   -0.3224    0.0000 H   0  0  0  0  0  0  0  0  0  0  0  0
    5.3905   -1.0127    0.0000 H   0  0  0  0  0  0  0  0  0  0  0  0
    4.9230   -1.8224    0.0000 H   0  0  0  0  0  0  0  0  0  0  0  0
    4.5244   -2.5127    0.0000 H   0  0  0  0  0  0  0  0  0  0  0  0
    7.0791   -0.9876    0.0000 H   0  0  0  0  0  0  0  0  0  0  0  0
    7.4776   -0.2973    0.0000 H   0  0  0  0  0  0  0  0  0  0  0  0
    5.3471   -3.9876    0.0000 H   0  0  0  0  0  0  0  0  0  0  0  0
    5.7456   -3.2973    0.0000 H   0  0  0  0  0  0  0  0  0  0  0  0
    6.6550    1.1776    0.0000 H   0  0  0  0  0  0  0  0  0  0  0  0
    6.2565    0.4873    0.0000 H   0  0  0  0  0  0  0  0  0  0  0  0
    4.0569   -3.3224    0.0000 H   0  0  0  0  0  0  0  0  0  0  0  0
    3.6584   -4.0127    0.0000 H   0  0  0  0  0  0  0  0  0  0  0  0
    7.9451    0.5124    0.0000 H   0  0  0  0  0  0  0  0  0  0  0  0
    8.3437    1.2027    0.0000 H   0  0  0  0  0  0  0  0  0  0  0  0
    4.4810   -5.4876    0.0000 H   0  0  0  0  0  0  0  0  0  0  0  0
    4.8796   -4.7973    0.0000 H   0  0  0  0  0  0  0  0  0  0  0  0
    8.5991    4.2150    0.0000 H   0  0  0  0  0  0  0  0  0  0  0  0
    8.8112    2.0124    0.0000 H   0  0  0  0  0  0  0  0  0  0  0  0
    9.2097    2.7027    0.0000 H   0  0  0  0  0  0  0  0  0  0  0  0
    7.7331    4.7150    0.0000 H   0  0  0  0  0  0  0  0  0  0  0  0
    3.0930   -4.8681    0.0000 H   0  0  0  0  0  0  0  0  0  0  0  0
    2.8660   -5.7150    0.0000 H   0  0  0  0  0  0  0  0  0  0  0  0
    3.7130   -5.9419    0.0000 H   0  0  0  0  0  0  0  0  0  0  0  0
    6.3996    4.5700    0.0000 H   0  0  0  0  0  0  0  0  0  0  0  0
    5.6025    4.5700    0.0000 H   0  0  0  0  0  0  0  0  0  0  0  0
    4.7365    3.1200    0.0000 H   0  0  0  0  0  0  0  0  0  0  0  0
    5.5335    3.1200    0.0000 H   0  0  0  0  0  0  0  0  0  0  0  0
    4.8059    4.4050    0.0000 H   0  0  0  0  0  0  0  0  0  0  0  0
   10.3312    2.9750    0.0000 H   0  0  0  0  0  0  0  0  0  0  0  0
    3.7320    5.4050    0.0000 H   0  0  0  0  0  0  0  0  0  0  0  0
    4.8059    5.4050    0.0000 H   0  0  0  0  0  0  0  0  0  0  0  0
   11.5957    4.5700    0.0000 H   0  0  0  0  0  0  0  0  0  0  0  0
   10.7987    4.5700    0.0000 H   0  0  0  0  0  0  0  0  0  0  0  0
    2.0000    3.7850    0.0000 H   0  0  0  0  0  0  0  0  0  0  0  0
   13.4662    3.7850    0.0000 H   0  0  0  0  0  0  0  0  0  0  0  0
  1 18  1  0  0  0  0
  1 21  1  0  0  0  0
  2 25  2  0  0  0  0
  3 26  2  0  0  0  0
  4 28  1  0  0  0  0
  4 66  1  0  0  0  0
  5 28  2  0  0  0  0
  6 30  1  0  0  0  0
  6 67  1  0  0  0  0
  7 30  2  0  0  0  0
 20  8  1  6  0  0  0
  8 26  1  0  0  0  0
  8 52  1  0  0  0  0
  9 25  1  0  0  0  0
  9 29  1  0  0  0  0
  9 61  1  0  0  0  0
 27 10  1  1  0  0  0
 10 62  1  0  0  0  0
 10 63  1  0  0  0  0
 11 12  1  0  0  0  0
 11 13  1  0  0  0  0
 11 31  1  0  0  0  0
 11 32  1  0  0  0  0
 12 14  1  0  0  0  0
 12 33  1  0  0  0  0
 12 34  1  0  0  0  0
 13 15  1  0  0  0  0
 13 35  1  0  0  0  0
 13 36  1  0  0  0  0
 14 16  1  0  0  0  0
 14 37  1  0  0  0  0
 14 38  1  0  0  0  0
 15 17  1  0  0  0  0
 15 39  1  0  0  0  0
 15 40  1  0  0  0  0
 16 18  1  0  0  0  0
 16 41  1  0  0  0  0
 16 42  1  0  0  0  0
 17 19  1  0  0  0  0
 17 43  1  0  0  0  0
 17 44  1  0  0  0  0
 18 45  1  0  0  0  0
 18 46  1  0  0  0  0
 19 22  1  0  0  0  0
 19 47  1  0  0  0  0
 19 48  1  0  0  0  0
 20 21  1  0  0  0  0
 20 25  1  0  0  0  0
 20 49  1  0  0  0  0
 21 50  1  0  0  0  0
 21 51  1  0  0  0  0
 22 53  1  0  0  0  0
 22 54  1  0  0  0  0
 22 55  1  0  0  0  0
 23 24  1  0  0  0  0
 23 26  1  0  0  0  0
 23 56  1  0  0  0  0
 23 57  1  0  0  0  0
 24 27  1  0  0  0  0
 24 58  1  0  0  0  0
 24 59  1  0  0  0  0
 27 28  1  0  0  0  0
 27 60  1  0  0  0  0
 29 30  1  0  0  0  0
 29 64  1  0  0  0  0
 29 65  1  0  0  0  0
M  END
> <PUBCHEM_COMPOUND_CID>
443116

> <PUBCHEM_COMPOUND_CANONICALIZED>
1

> <PUBCHEM_CACTVS_COMPLEXITY>
533

> <PUBCHEM_CACTVS_HBOND_ACCEPTOR>
8

> <PUBCHEM_CACTVS_HBOND_DONOR>
5

> <PUBCHEM_CACTVS_ROTATABLE_BOND>
19

> <PUBCHEM_CACTVS_SUBSKEYS>
AAADcfB7OABAAAAAAAAAAAAAAAAAAAAAAAAAAAAAAAAAAAAAAAAAHgQQCAAACCjFwASCCALAAggIAAGQGAAAAAAAABAAAIGIAAACQBIggCAUQAAEFgCwAAGcl4IAAAAAAAAAAAAAAAAAAAAAAAAAAAAAAA==

> <PUBCHEM_IUPAC_OPENEYE_NAME>
(2S)-2-amino-5-[[(1R)-2-(carboxymethylamino)-1-(decylsulfanylmethyl)-2-oxo-ethyl]amino]-5-oxo-pentanoic acid

> <PUBCHEM_IUPAC_CAS_NAME>
(2S)-2-amino-5-[[(2R)-1-(carboxymethylamino)-3-(decylthio)-1-oxopropan-2-yl]amino]-5-oxopentanoic acid

> <PUBCHEM_IUPAC_NAME>
(2S)-2-amino-5-[[(2R)-1-(carboxymethylamino)-3-decylsulfanyl-1-oxopropan-2-yl]amino]-5-oxopentanoic acid

> <PUBCHEM_IUPAC_SYSTEMATIC_NAME>
(2S)-2-azanyl-5-[[(2R)-3-decylsulfanyl-1-(2-hydroxy-2-oxoethylamino)-1-oxidanylidene-propan-2-yl]amino]-5-oxidanylidene-pentanoic acid

> <PUBCHEM_IUPAC_TRADITIONAL_NAME>
(2S)-2-amino-5-[[(1R)-2-(carboxymethylamino)-1-[(decylthio)methyl]-2-keto-ethyl]amino]-5-keto-valeric acid

> <PUBCHEM_IUPAC_INCHI>
InChI=1S/C20H37N3O6S/c1-2-3-4-5-6-7-8-9-12-30-14-16(19(27)22-13-18(25)26)23-17(24)11-10-15(21)20(28)29/h15-16H,2-14,21H2,1H3,(H,22,27)(H,23,24)(H,25,26)(H,28,29)/t15-,16-/m0/s1

> <PUBCHEM_IUPAC_INCHIKEY>
XAAOGZMKEJNHLW-HOTGVXAUSA-N

> <PUBCHEM_XLOGP3_AA>
0.4

> <PUBCHEM_EXACT_MASS>
447.240307

> <PUBCHEM_MOLECULAR_FORMULA>
C20H37N3O6S

> <PUBCHEM_MOLECULAR_WEIGHT>
447.58928

> <PUBCHEM_OPENEYE_CAN_SMILES>
CCCCCCCCCCSCC(C(=O)NCC(=O)O)NC(=O)CCC(C(=O)O)N

> <PUBCHEM_OPENEYE_ISO_SMILES>
CCCCCCCCCCSC[C@@H](C(=O)NCC(=O)O)NC(=O)CC[C@@H](C(=O)O)N

> <PUBCHEM_CACTVS_TPSA>
184

> <PUBCHEM_MONOISOTOPIC_WEIGHT>
447.240307

> <PUBCHEM_TOTAL_CHARGE>
0

> <PUBCHEM_HEAVY_ATOM_COUNT>
30

> <PUBCHEM_ATOM_DEF_STEREO_COUNT>
2

> <PUBCHEM_ATOM_UDEF_STEREO_COUNT>
0

> <PUBCHEM_BOND_DEF_STEREO_COUNT>
0

> <PUBCHEM_BOND_UDEF_STEREO_COUNT>
0

> <PUBCHEM_ISOTOPIC_ATOM_COUNT>
0

> <PUBCHEM_COMPONENT_COUNT>
1

> <PUBCHEM_CACTVS_TAUTO_COUNT>
4

> <PUBCHEM_COORDINATE_TYPE>
1
5
255

> <PUBCHEM_BONDANNOTATIONS>
27  10  5
20  8  6

$$$$

