23724747
  -OEChem-07051213082D

 73 76  0     1  0  0  0  0  0999 V2000
    4.2690    0.9050    0.0000 O   0  0  0  0  0  0  0  0  0  0  0  0
    5.1350   -1.5950    0.0000 O   0  0  0  0  0  0  0  0  0  0  0  0
    6.0010    0.9050    0.0000 O   0  0  0  0  0  0  0  0  0  0  0  0
    2.5369   -0.0950    0.0000 O   0  0  0  0  0  0  0  0  0  0  0  0
    6.0010   -0.0950    0.0000 O   0  0  0  0  0  0  0  0  0  0  0  0
    2.5369   -2.0950    0.0000 O   0  0  0  0  0  0  0  0  0  0  0  0
    4.2690    2.9050    0.0000 O   0  0  0  0  0  0  0  0  0  0  0  0
    6.0010    3.9050    0.0000 O   0  0  0  0  0  0  0  0  0  0  0  0
    7.7331    2.9050    0.0000 O   0  0  0  0  0  0  0  0  0  0  0  0
    3.4030   -3.5950    0.0000 O   0  0  0  0  0  0  0  0  0  0  0  0
    9.4651   -0.0950    0.0000 O   0  0  0  0  0  0  0  0  0  0  0  0
    7.7331   -3.0950    0.0000 O   0  0  0  0  0  0  0  0  0  0  0  0
    9.4651   -3.0950    0.0000 O   0  0  0  0  0  0  0  0  0  0  0  0
   14.6613   -0.0950    0.0000 O   0  0  0  0  0  0  0  0  0  0  0  0
    4.2690   -0.0950    0.0000 C   0  0  2  0  0  0  0  0  0  0  0  0
    3.4030   -0.5950    0.0000 C   0  0  2  0  0  0  0  0  0  0  0  0
    3.4030   -1.5950    0.0000 C   0  0  1  0  0  0  0  0  0  0  0  0
    5.1350    1.4050    0.0000 C   0  0  2  0  0  0  0  0  0  0  0  0
    5.1350    2.4050    0.0000 C   0  0  1  0  0  0  0  0  0  0  0  0
    5.1350   -0.5950    0.0000 C   0  0  1  0  0  0  0  0  0  0  0  0
    4.2690   -2.0950    0.0000 C   0  0  1  0  0  0  0  0  0  0  0  0
    6.0010    2.9050    0.0000 C   0  0  1  0  0  0  0  0  0  0  0  0
    6.8671    2.4050    0.0000 C   0  0  2  0  0  0  0  0  0  0  0  0
    6.8671    1.4050    0.0000 C   0  0  2  0  0  0  0  0  0  0  0  0
    4.2690   -3.0950    0.0000 C   0  0  0  0  0  0  0  0  0  0  0  0
    7.7331    0.9050    0.0000 C   0  0  0  0  0  0  0  0  0  0  0  0
    6.8671   -0.5950    0.0000 C   0  0  0  0  0  0  0  0  0  0  0  0
    6.8671   -1.5950    0.0000 C   0  0  0  0  0  0  0  0  0  0  0  0
    7.7331   -0.0950    0.0000 C   0  0  0  0  0  0  0  0  0  0  0  0
    8.5991   -0.5950    0.0000 C   0  0  0  0  0  0  0  0  0  0  0  0
    7.7331   -2.0950    0.0000 C   0  0  0  0  0  0  0  0  0  0  0  0
    8.5991   -1.5950    0.0000 C   0  0  0  0  0  0  0  0  0  0  0  0
    9.4651   -2.0950    0.0000 C   0  0  0  0  0  0  0  0  0  0  0  0
   10.3312   -1.5950    0.0000 C   0  0  0  0  0  0  0  0  0  0  0  0
   11.1972   -2.0950    0.0000 C   0  0  0  0  0  0  0  0  0  0  0  0
   12.0632   -1.5950    0.0000 C   0  0  0  0  0  0  0  0  0  0  0  0
   12.9292   -2.0950    0.0000 C   0  0  0  0  0  0  0  0  0  0  0  0
   12.0632   -0.5950    0.0000 C   0  0  0  0  0  0  0  0  0  0  0  0
   13.7953   -1.5950    0.0000 C   0  0  0  0  0  0  0  0  0  0  0  0
   12.9292   -0.0950    0.0000 C   0  0  0  0  0  0  0  0  0  0  0  0
   13.7953   -0.5950    0.0000 C   0  0  0  0  0  0  0  0  0  0  0  0
    4.8059    0.2150    0.0000 H   0  0  0  0  0  0  0  0  0  0  0  0
    3.4030    0.0250    0.0000 H   0  0  0  0  0  0  0  0  0  0  0  0
    3.4030   -2.2150    0.0000 H   0  0  0  0  0  0  0  0  0  0  0  0
    5.1350    0.7850    0.0000 H   0  0  0  0  0  0  0  0  0  0  0  0
    5.1350    3.0250    0.0000 H   0  0  0  0  0  0  0  0  0  0  0  0
    5.1350    0.0250    0.0000 H   0  0  0  0  0  0  0  0  0  0  0  0
    4.8059   -2.4050    0.0000 H   0  0  0  0  0  0  0  0  0  0  0  0
    6.5380    3.2150    0.0000 H   0  0  0  0  0  0  0  0  0  0  0  0
    7.4040    2.0950    0.0000 H   0  0  0  0  0  0  0  0  0  0  0  0
    6.8671    0.7850    0.0000 H   0  0  0  0  0  0  0  0  0  0  0  0
    4.4810   -3.6776    0.0000 H   0  0  0  0  0  0  0  0  0  0  0  0
    4.8796   -2.9873    0.0000 H   0  0  0  0  0  0  0  0  0  0  0  0
    7.4231    0.3681    0.0000 H   0  0  0  0  0  0  0  0  0  0  0  0
    8.2700    0.5950    0.0000 H   0  0  0  0  0  0  0  0  0  0  0  0
    8.0431    1.4419    0.0000 H   0  0  0  0  0  0  0  0  0  0  0  0
    2.0000   -0.4050    0.0000 H   0  0  0  0  0  0  0  0  0  0  0  0
    2.0000   -1.7850    0.0000 H   0  0  0  0  0  0  0  0  0  0  0  0
    4.2690    3.5250    0.0000 H   0  0  0  0  0  0  0  0  0  0  0  0
    6.5380    4.2150    0.0000 H   0  0  0  0  0  0  0  0  0  0  0  0
    8.2700    2.5950    0.0000 H   0  0  0  0  0  0  0  0  0  0  0  0
    3.4030   -4.2150    0.0000 H   0  0  0  0  0  0  0  0  0  0  0  0
    6.3301   -1.9050    0.0000 H   0  0  0  0  0  0  0  0  0  0  0  0
    7.7331    0.5250    0.0000 H   0  0  0  0  0  0  0  0  0  0  0  0
   10.0021   -0.4050    0.0000 H   0  0  0  0  0  0  0  0  0  0  0  0
    7.1962   -3.4050    0.0000 H   0  0  0  0  0  0  0  0  0  0  0  0
   10.3312   -0.9750    0.0000 H   0  0  0  0  0  0  0  0  0  0  0  0
   11.1972   -2.7150    0.0000 H   0  0  0  0  0  0  0  0  0  0  0  0
   12.9292   -2.7150    0.0000 H   0  0  0  0  0  0  0  0  0  0  0  0
   11.5263   -0.2850    0.0000 H   0  0  0  0  0  0  0  0  0  0  0  0
   14.3322   -1.9050    0.0000 H   0  0  0  0  0  0  0  0  0  0  0  0
   12.9292    0.5250    0.0000 H   0  0  0  0  0  0  0  0  0  0  0  0
   15.1982   -0.4050    0.0000 H   0  0  0  0  0  0  0  0  0  0  0  0
 15  1  1  1  0  0  0
 18  1  1  1  0  0  0
  2 20  1  0  0  0  0
  2 21  1  0  0  0  0
  3 18  1  0  0  0  0
  3 24  1  0  0  0  0
 16  4  1  6  0  0  0
  4 57  1  0  0  0  0
 20  5  1  6  0  0  0
  5 27  1  0  0  0  0
 17  6  1  1  0  0  0
  6 58  1  0  0  0  0
 19  7  1  6  0  0  0
  7 59  1  0  0  0  0
 22  8  1  6  0  0  0
  8 60  1  0  0  0  0
 23  9  1  1  0  0  0
  9 61  1  0  0  0  0
 10 25  1  0  0  0  0
 10 62  1  0  0  0  0
 11 30  1  0  0  0  0
 11 65  1  0  0  0  0
 12 31  1  0  0  0  0
 12 66  1  0  0  0  0
 13 33  2  0  0  0  0
 14 41  1  0  0  0  0
 14 73  1  0  0  0  0
 15 16  1  0  0  0  0
 15 20  1  0  0  0  0
 15 42  1  0  0  0  0
 16 17  1  0  0  0  0
 16 43  1  0  0  0  0
 17 21  1  0  0  0  0
 17 44  1  0  0  0  0
 18 19  1  0  0  0  0
 18 45  1  0  0  0  0
 19 22  1  0  0  0  0
 19 46  1  0  0  0  0
 20 47  1  0  0  0  0
 21 25  1  6  0  0  0
 21 48  1  0  0  0  0
 22 23  1  0  0  0  0
 22 49  1  0  0  0  0
 23 24  1  0  0  0  0
 23 50  1  0  0  0  0
 24 26  1  6  0  0  0
 24 51  1  0  0  0  0
 25 52  1  0  0  0  0
 25 53  1  0  0  0  0
 26 54  1  0  0  0  0
 26 55  1  0  0  0  0
 26 56  1  0  0  0  0
 27 28  2  0  0  0  0
 27 29  1  0  0  0  0
 28 31  1  0  0  0  0
 28 63  1  0  0  0  0
 29 30  2  0  0  0  0
 29 64  1  0  0  0  0
 30 32  1  0  0  0  0
 31 32  2  0  0  0  0
 32 33  1  0  0  0  0
 33 34  1  0  0  0  0
 34 35  2  0  0  0  0
 34 67  1  0  0  0  0
 35 36  1  0  0  0  0
 35 68  1  0  0  0  0
 36 37  2  0  0  0  0
 36 38  1  0  0  0  0
 37 39  1  0  0  0  0
 37 69  1  0  0  0  0
 38 40  2  0  0  0  0
 38 70  1  0  0  0  0
 39 41  2  0  0  0  0
 39 71  1  0  0  0  0
 40 41  1  0  0  0  0
 40 72  1  0  0  0  0
M  END
> <PUBCHEM_COMPOUND_CID>
23724747

> <PUBCHEM_COMPOUND_CANONICALIZED>
1

> <PUBCHEM_CACTVS_COMPLEXITY>
868

> <PUBCHEM_CACTVS_HBOND_ACCEPTOR>
14

> <PUBCHEM_CACTVS_HBOND_DONOR>
9

> <PUBCHEM_CACTVS_ROTATABLE_BOND>
8

> <PUBCHEM_CACTVS_SUBSKEYS>
AAADcfB4PAAAAAAAAAAAAAAAAAAAAAAAAAA0aIEAAAAAAAABQAAAGgAACAAADBSwmAMyDoAABgCIAqBSAAACCAAkIAAIiAEGCMgdNzaGNRqieWCl4BUPuYfI7KzOIAAACAAIAABAAAAQABAAAAAAAAAAAA==

> <PUBCHEM_IUPAC_OPENEYE_NAME>
(E)-1-[4-[(2S,3R,4S,5S,6R)-4,5-dihydroxy-6-(hydroxymethyl)-3-[(2S,3R,4R,5R,6S)-3,4,5-trihydroxy-6-methyl-tetrahydropyran-2-yl]oxy-tetrahydropyran-2-yl]oxy-2,6-dihydroxy-phenyl]-3-(4-hydroxyphenyl)prop-2-en-1-one

> <PUBCHEM_IUPAC_CAS_NAME>
(E)-1-[4-[[(2S,3R,4S,5S,6R)-4,5-dihydroxy-6-(hydroxymethyl)-3-[[(2S,3R,4R,5R,6S)-3,4,5-trihydroxy-6-methyl-2-oxanyl]oxy]-2-oxanyl]oxy]-2,6-dihydroxyphenyl]-3-(4-hydroxyphenyl)-2-propen-1-one

> <PUBCHEM_IUPAC_NAME>
(E)-1-[4-[(2S,3R,4S,5S,6R)-4,5-dihydroxy-6-(hydroxymethyl)-3-[(2S,3R,4R,5R,6S)-3,4,5-trihydroxy-6-methyloxan-2-yl]oxyoxan-2-yl]oxy-2,6-dihydroxyphenyl]-3-(4-hydroxyphenyl)prop-2-en-1-one

> <PUBCHEM_IUPAC_SYSTEMATIC_NAME>
(E)-1-[4-[(2S,3R,4S,5S,6R)-6-(hydroxymethyl)-3-[(2S,3R,4R,5R,6S)-6-methyl-3,4,5-tris(oxidanyl)oxan-2-yl]oxy-4,5-bis(oxidanyl)oxan-2-yl]oxy-2,6-bis(oxidanyl)phenyl]-3-(4-hydroxyphenyl)prop-2-en-1-one

> <PUBCHEM_IUPAC_TRADITIONAL_NAME>
(E)-1-[4-[(2S,3R,4S,5S,6R)-4,5-dihydroxy-6-methylol-3-[(2S,3R,4R,5R,6S)-3,4,5-trihydroxy-6-methyl-tetrahydropyran-2-yl]oxy-tetrahydropyran-2-yl]oxy-2,6-dihydroxy-phenyl]-3-(4-hydroxyphenyl)prop-2-en-1-one

> <PUBCHEM_IUPAC_INCHI>
InChI=1S/C27H32O14/c1-11-20(33)22(35)24(37)26(38-11)41-25-23(36)21(34)18(10-28)40-27(25)39-14-8-16(31)19(17(32)9-14)15(30)7-4-12-2-5-13(29)6-3-12/h2-9,11,18,20-29,31-37H,10H2,1H3/b7-4+/t11-,18+,20-,21+,22+,23-,24+,25+,26-,27+/m0/s1

> <PUBCHEM_IUPAC_INCHIKEY>
IXVXIWLKOMVSFY-GOZPEMRWSA-N

> <PUBCHEM_XLOGP3_AA>
-0.1

> <PUBCHEM_EXACT_MASS>
580.179206

> <PUBCHEM_MOLECULAR_FORMULA>
C27H32O14

> <PUBCHEM_MOLECULAR_WEIGHT>
580.53458

> <PUBCHEM_OPENEYE_CAN_SMILES>
CC1C(C(C(C(O1)OC2C(C(C(OC2OC3=CC(=C(C(=C3)O)C(=O)C=CC4=CC=C(C=C4)O)O)CO)O)O)O)O)O

> <PUBCHEM_OPENEYE_ISO_SMILES>
C[C@H]1[C@@H]([C@H]([C@H]([C@@H](O1)O[C@@H]2[C@H]([C@@H]([C@H](O[C@H]2OC3=CC(=C(C(=C3)O)C(=O)/C=C/C4=CC=C(C=C4)O)O)CO)O)O)O)O)O

> <PUBCHEM_CACTVS_TPSA>
236

> <PUBCHEM_MONOISOTOPIC_WEIGHT>
580.179206

> <PUBCHEM_TOTAL_CHARGE>
0

> <PUBCHEM_HEAVY_ATOM_COUNT>
41

> <PUBCHEM_ATOM_DEF_STEREO_COUNT>
10

> <PUBCHEM_ATOM_UDEF_STEREO_COUNT>
0

> <PUBCHEM_BOND_DEF_STEREO_COUNT>
1

> <PUBCHEM_BOND_UDEF_STEREO_COUNT>
0

> <PUBCHEM_ISOTOPIC_ATOM_COUNT>
0

> <PUBCHEM_COMPONENT_COUNT>
1

> <PUBCHEM_CACTVS_TAUTO_COUNT>
33

> <PUBCHEM_COORDINATE_TYPE>
1
5
255

> <PUBCHEM_BONDANNOTATIONS>
15  1  5
18  1  5
21  25  6
24  26  6
27  28  8
27  29  8
28  31  8
29  30  8
30  32  8
31  32  8
36  37  8
36  38  8
37  39  8
38  40  8
39  41  8
16  4  6
40  41  8
20  5  6
17  6  5
19  7  6
22  8  6
23  9  5

$$$$

