24755525
  -OEChem-07051212483D

 23 22  0     1  0  0  0  0  0999 V2000
    2.3049   -0.1417   -0.0367 S   0  0  1  0  0  0  0  0  0  0  0  0
    2.3427   -1.4473   -0.6795 O   0  0  0  0  0  0  0  0  0  0  0  0
   -2.3474   -1.5763   -0.6635 O   0  0  0  0  0  0  0  0  0  0  0  0
   -2.8406   -0.4072    1.2175 O   0  0  0  0  0  0  0  0  0  0  0  0
   -1.7967    1.8552    0.2999 N   0  0  0  0  0  0  0  0  0  0  0  0
    2.8998    1.1563   -0.6355 N   0  0  0  0  0  0  0  0  0  0  0  0
    0.6156    0.1968    0.3482 C   0  0  0  0  0  0  0  0  0  0  0  0
   -0.2006    0.4453   -0.9157 C   0  0  0  0  0  0  0  0  0  0  0  0
   -1.6789    0.7157   -0.6063 C   0  0  1  0  0  0  0  0  0  0  0  0
    3.0425   -0.3447    1.5708 C   0  0  0  0  0  0  0  0  0  0  0  0
   -2.3413   -0.4523    0.1007 C   0  0  0  0  0  0  0  0  0  0  0  0
    0.6083    1.0657    1.0139 H   0  0  0  0  0  0  0  0  0  0  0  0
    0.2391   -0.6694    0.9016 H   0  0  0  0  0  0  0  0  0  0  0  0
   -0.1177   -0.4213   -1.5834 H   0  0  0  0  0  0  0  0  0  0  0  0
    0.2072    1.2995   -1.4695 H   0  0  0  0  0  0  0  0  0  0  0  0
   -2.2342    0.9255   -1.5268 H   0  0  0  0  0  0  0  0  0  0  0  0
    4.0978   -0.5914    1.4365 H   0  0  0  0  0  0  0  0  0  0  0  0
    2.9373    0.5840    2.1351 H   0  0  0  0  0  0  0  0  0  0  0  0
    2.5351   -1.1626    2.0865 H   0  0  0  0  0  0  0  0  0  0  0  0
   -2.7801    2.0920    0.4283 H   0  0  0  0  0  0  0  0  0  0  0  0
   -1.3618    2.6747   -0.1225 H   0  0  0  0  0  0  0  0  0  0  0  0
    2.4399    1.4747   -1.4927 H   0  0  0  0  0  0  0  0  0  0  0  0
   -2.7857   -2.3258   -0.2070 H   0  0  0  0  0  0  0  0  0  0  0  0
  1  2  2  0  0  0  0
  1  6  2  0  0  0  0
  1  7  1  0  0  0  0
  1 10  1  0  0  0  0
  3 11  1  0  0  0  0
  3 23  1  0  0  0  0
  4 11  2  0  0  0  0
  5  9  1  0  0  0  0
  5 20  1  0  0  0  0
  5 21  1  0  0  0  0
  6 22  1  0  0  0  0
  7  8  1  0  0  0  0
  7 12  1  0  0  0  0
  7 13  1  0  0  0  0
  8  9  1  0  0  0  0
  8 14  1  0  0  0  0
  8 15  1  0  0  0  0
  9 11  1  0  0  0  0
  9 16  1  0  0  0  0
 10 17  1  0  0  0  0
 10 18  1  0  0  0  0
 10 19  1  0  0  0  0
M  END
> <PUBCHEM_COMPOUND_CID>
24755525

> <PUBCHEM_CONFORMER_RMSD>
0.6

> <PUBCHEM_CONFORMER_DIVERSEORDER>
1
43
33
34
18
36
44
35
38
40
39
41
5
45
20
27
25
37
2
42
26
13
19
22
21
3
32
31
30
29
28
11
14
23
12
24
17
4
8
7
16
15
10
9
6

> <PUBCHEM_MMFF94_PARTIAL_CHARGES>
14
1 1.03
10 0.11
11 0.66
2 -0.65
20 0.36
21 0.36
22 0.4
23 0.5
3 -0.65
4 -0.57
5 -0.99
6 -0.99
7 0.11
9 0.33

> <PUBCHEM_EFFECTIVE_ROTOR_COUNT>
4

> <PUBCHEM_PHARMACOPHORE_FEATURES>
6
1 2 acceptor
1 3 acceptor
1 4 acceptor
1 5 cation
1 5 donor
3 3 4 11 anion

> <PUBCHEM_HEAVY_ATOM_COUNT>
11

> <PUBCHEM_ATOM_DEF_STEREO_COUNT>
2

> <PUBCHEM_ATOM_UDEF_STEREO_COUNT>
0

> <PUBCHEM_BOND_DEF_STEREO_COUNT>
0

> <PUBCHEM_BOND_UDEF_STEREO_COUNT>
0

> <PUBCHEM_ISOTOPIC_ATOM_COUNT>
0

> <PUBCHEM_COMPONENT_COUNT>
1

> <PUBCHEM_CACTVS_TAUTO_COUNT>
1

> <PUBCHEM_CONFORMER_ID>
0179BD4500000001

> <PUBCHEM_MMFF94_ENERGY>
7.2682

> <PUBCHEM_FEATURE_SELFOVERLAP>
30.505

> <PUBCHEM_SHAPE_FINGERPRINT>
10857977 72 18114469971884157033
12932764 1 17240486922460789892
20279233 1 18041854990001939734
20645464 45 16443355260167539414
23235687 12 18201444726423673156
23552423 10 18343018938637612046
3248919 1 18338244854881221652
369184 2 17385450950682491469
8030462 33 16415477198748393084

> <PUBCHEM_SHAPE_MULTIPOLES>
202.65
5.33
1.41
1.17
1.21
0.17
0.24
-0.93
0.96
-0.37
-0.15
0.3
-0.2
-0.29

> <PUBCHEM_SHAPE_SELFOVERLAP>
370.532

> <PUBCHEM_SHAPE_VOLUME>
129.4

> <PUBCHEM_COORDINATE_TYPE>
2
5
10

$$$$

