3772977
  -OEChem-07051213012D

 20 20  0     0  0  0  0  0  0999 V2000
    2.0000    0.1900    0.0000 O   0  5  0  0  0  0  0  0  0  0  0  0
    2.8660    1.6900    0.0000 O   0  0  0  0  0  0  0  0  0  0  0  0
    5.4641   -2.8100    0.0000 O   0  5  0  0  0  0  0  0  0  0  0  0
    3.7320   -2.8100    0.0000 O   0  0  0  0  0  0  0  0  0  0  0  0
    4.5981    1.6900    0.0000 N   0  0  0  0  0  0  0  0  0  0  0  0
    2.8660    0.6900    0.0000 N   0  3  0  0  0  0  0  0  0  0  0  0
    4.5981   -2.3100    0.0000 N   0  3  0  0  0  0  0  0  0  0  0  0
    5.4641    2.1900    0.0000 N   0  0  0  0  0  0  0  0  0  0  0  0
    4.5981    0.6900    0.0000 C   0  0  0  0  0  0  0  0  0  0  0  0
    3.7320    0.1900    0.0000 C   0  0  0  0  0  0  0  0  0  0  0  0
    4.5981   -1.3100    0.0000 C   0  0  0  0  0  0  0  0  0  0  0  0
    3.7320   -0.8100    0.0000 C   0  0  0  0  0  0  0  0  0  0  0  0
    5.4641    0.1900    0.0000 C   0  0  0  0  0  0  0  0  0  0  0  0
    5.4641   -0.8100    0.0000 C   0  0  0  0  0  0  0  0  0  0  0  0
    3.1951   -1.1200    0.0000 H   0  0  0  0  0  0  0  0  0  0  0  0
    6.0010    0.5000    0.0000 H   0  0  0  0  0  0  0  0  0  0  0  0
    6.0010   -1.1200    0.0000 H   0  0  0  0  0  0  0  0  0  0  0  0
    4.0611    2.0000    0.0000 H   0  0  0  0  0  0  0  0  0  0  0  0
    5.4641    2.8100    0.0000 H   0  0  0  0  0  0  0  0  0  0  0  0
    6.0010    1.8800    0.0000 H   0  0  0  0  0  0  0  0  0  0  0  0
  1  6  1  0  0  0  0
  2  6  2  0  0  0  0
  3  7  1  0  0  0  0
  4  7  2  0  0  0  0
  5  8  1  0  0  0  0
  5  9  1  0  0  0  0
  5 18  1  0  0  0  0
  6 10  1  0  0  0  0
  7 11  1  0  0  0  0
  8 19  1  0  0  0  0
  8 20  1  0  0  0  0
  9 10  2  0  0  0  0
  9 13  1  0  0  0  0
 10 12  1  0  0  0  0
 11 12  2  0  0  0  0
 11 14  1  0  0  0  0
 12 15  1  0  0  0  0
 13 14  2  0  0  0  0
 13 16  1  0  0  0  0
 14 17  1  0  0  0  0
M  CHG  4   1  -1   3  -1   6   1   7   1
M  END
> <PUBCHEM_COMPOUND_CID>
3772977

> <PUBCHEM_COMPOUND_CANONICALIZED>
1

> <PUBCHEM_CACTVS_COMPLEXITY>
235

> <PUBCHEM_CACTVS_HBOND_ACCEPTOR>
6

> <PUBCHEM_CACTVS_HBOND_DONOR>
2

> <PUBCHEM_CACTVS_ROTATABLE_BOND>
1

> <PUBCHEM_CACTVS_SUBSKEYS>
AAADcYBjuAAAAAAAAAAAAAAAAAAAAAAAAAAwAAAAAAAAAAABAAAAHAAcAAAACAiBEAAwwIByQACBACRCQwCCBAAgAgI4qAAAdIoIYCKA0dGAIABgkIAIyAcQAAAAAACAAAQAACAAAQAACAAAQAAAAAAAAA==

> <PUBCHEM_IUPAC_OPENEYE_NAME>
(2,4-dinitrophenyl)hydrazine

> <PUBCHEM_IUPAC_CAS_NAME>
(2,4-dinitrophenyl)hydrazine

> <PUBCHEM_IUPAC_NAME>
(2,4-dinitrophenyl)hydrazine

> <PUBCHEM_IUPAC_SYSTEMATIC_NAME>
(2,4-dinitrophenyl)diazane

> <PUBCHEM_IUPAC_TRADITIONAL_NAME>
(2,4-dinitrophenyl)hydrazine

> <PUBCHEM_IUPAC_INCHI>
InChI=1S/C6H6N4O4/c7-8-5-2-1-4(9(11)12)3-6(5)10(13)14/h1-3,8H,7H2

> <PUBCHEM_IUPAC_INCHIKEY>
HORQAOAYAYGIBM-UHFFFAOYSA-N

> <PUBCHEM_XLOGP3>
1.5

> <PUBCHEM_EXACT_MASS>
198.038905

> <PUBCHEM_MOLECULAR_FORMULA>
C6H6N4O4

> <PUBCHEM_MOLECULAR_WEIGHT>
198.13624

> <PUBCHEM_OPENEYE_CAN_SMILES>
C1=CC(=C(C=C1[N+](=O)[O-])[N+](=O)[O-])NN

> <PUBCHEM_OPENEYE_ISO_SMILES>
C1=CC(=C(C=C1[N+](=O)[O-])[N+](=O)[O-])NN

> <PUBCHEM_CACTVS_TPSA>
130

> <PUBCHEM_MONOISOTOPIC_WEIGHT>
198.038905

> <PUBCHEM_TOTAL_CHARGE>
0

> <PUBCHEM_HEAVY_ATOM_COUNT>
14

> <PUBCHEM_ATOM_DEF_STEREO_COUNT>
0

> <PUBCHEM_ATOM_UDEF_STEREO_COUNT>
0

> <PUBCHEM_BOND_DEF_STEREO_COUNT>
0

> <PUBCHEM_BOND_UDEF_STEREO_COUNT>
0

> <PUBCHEM_ISOTOPIC_ATOM_COUNT>
0

> <PUBCHEM_COMPONENT_COUNT>
1

> <PUBCHEM_CACTVS_TAUTO_COUNT>
1

> <PUBCHEM_COORDINATE_TYPE>
1
5
255

> <PUBCHEM_BONDANNOTATIONS>
10  12  8
11  12  8
11  14  8
13  14  8
9  10  8
9  13  8

$$$$

