53297428
  -OEChem-07051213142D

 69 71  0     1  0  0  0  0  0999 V2000
    7.3528    2.8548    0.0000 Cl  0  0  0  0  0  0  0  0  0  0  0  0
    9.0478    2.8453    0.0000 Cl  0  0  0  0  0  0  0  0  0  0  0  0
    6.4838   -0.5956    0.0000 O   0  0  0  0  0  0  0  0  0  0  0  0
    9.1039   -0.1359    0.0000 O   0  0  0  0  0  0  0  0  0  0  0  0
    9.7504   -2.1064    0.0000 O   0  0  0  0  0  0  0  0  0  0  0  0
    5.3766   -0.9275    0.0000 O   0  0  0  0  0  0  0  0  0  0  0  0
    4.7518    3.4044    0.0000 O   0  0  0  0  0  0  0  0  0  0  0  0
    6.1706    1.3979    0.0000 O   0  0  0  0  0  0  0  0  0  0  0  0
    3.0197    0.4044    0.0000 O   0  0  0  0  0  0  0  0  0  0  0  0
    8.2159    0.4044    0.0000 N   0  0  0  0  0  0  0  0  0  0  0  0
    5.6178    0.9044    0.0000 N   0  0  0  0  0  0  0  0  0  0  0  0
    7.1087   -1.9275    0.0000 N   0  0  0  0  0  0  0  0  0  0  0  0
    4.2518   -0.4616    0.0000 N   0  0  0  0  0  0  0  0  0  0  0  0
    3.8857    1.9044    0.0000 N   0  0  0  0  0  0  0  0  0  0  0  0
    7.3498    0.9044    0.0000 C   0  0  1  0  0  0  0  0  0  0  0  0
    7.5590    1.8762    0.0000 C   0  0  3  0  0  0  0  0  0  0  0  0
    8.5478    1.9793    0.0000 C   0  0  3  0  0  0  0  0  0  0  0  0
    8.9529    1.0715    0.0000 C   0  0  0  0  0  0  0  0  0  0  0  0
    6.4838    0.4044    0.0000 C   0  0  0  0  0  0  0  0  0  0  0  0
    8.2159   -0.5956    0.0000 C   0  0  0  0  0  0  0  0  0  0  0  0
    8.0746   -1.6687    0.0000 C   0  0  2  0  0  0  0  0  0  0  0  0
    5.6178    1.9044    0.0000 C   0  0  1  0  0  0  0  0  0  0  0  0
    8.7861   -2.3713    0.0000 C   0  0  0  0  0  0  0  0  0  0  0  0
    4.5106   -1.4275    0.0000 C   0  0  2  0  0  0  0  0  0  0  0  0
    5.3766   -1.9275    0.0000 C   0  0  0  0  0  0  0  0  0  0  0  0
    6.1178    2.7705    0.0000 C   0  0  0  0  0  0  0  0  0  0  0  0
    6.2426   -1.4275    0.0000 C   0  0  0  0  0  0  0  0  0  0  0  0
    4.7518    2.4044    0.0000 C   0  0  0  0  0  0  0  0  0  0  0  0
    4.7518    0.4044    0.0000 C   0  0  2  0  0  0  0  0  0  0  0  0
    3.7172   -2.0363    0.0000 C   0  0  0  0  0  0  0  0  0  0  0  0
    3.8857    0.9044    0.0000 C   0  0  0  0  0  0  0  0  0  0  0  0
    5.6178    3.6365    0.0000 C   0  0  0  0  0  0  0  0  0  0  0  0
    5.7480    0.4916    0.0000 C   0  0  0  0  0  0  0  0  0  0  0  0
    2.7934   -1.6536    0.0000 C   0  0  0  0  0  0  0  0  0  0  0  0
    3.8478   -3.0277    0.0000 C   0  0  0  0  0  0  0  0  0  0  0  0
    2.0000   -2.2624    0.0000 C   0  0  0  0  0  0  0  0  0  0  0  0
    3.0544   -3.6365    0.0000 C   0  0  0  0  0  0  0  0  0  0  0  0
    2.1305   -3.2538    0.0000 C   0  0  0  0  0  0  0  0  0  0  0  0
    6.6628    1.4049    0.0000 H   0  0  0  0  0  0  0  0  0  0  0  0
    6.9390    1.8776    0.0000 H   0  0  0  0  0  0  0  0  0  0  0  0
    8.2103    2.4994    0.0000 H   0  0  0  0  0  0  0  0  0  0  0  0
    9.3183    0.5707    0.0000 H   0  0  0  0  0  0  0  0  0  0  0  0
    9.4894    1.3823    0.0000 H   0  0  0  0  0  0  0  0  0  0  0  0
    7.9160   -2.2681    0.0000 H   0  0  0  0  0  0  0  0  0  0  0  0
    5.0809    1.2146    0.0000 H   0  0  0  0  0  0  0  0  0  0  0  0
    6.2167    1.7440    0.0000 H   0  0  0  0  0  0  0  0  0  0  0  0
    7.0277   -2.5422    0.0000 H   0  0  0  0  0  0  0  0  0  0  0  0
    8.2805   -2.7302    0.0000 H   0  0  0  0  0  0  0  0  0  0  0  0
    9.0517   -2.9316    0.0000 H   0  0  0  0  0  0  0  0  0  0  0  0
    4.5511   -2.0462    0.0000 H   0  0  0  0  0  0  0  0  0  0  0  0
    4.9781   -2.4025    0.0000 H   0  0  0  0  0  0  0  0  0  0  0  0
    5.7751   -2.4025    0.0000 H   0  0  0  0  0  0  0  0  0  0  0  0
    6.5927    2.3719    0.0000 H   0  0  0  0  0  0  0  0  0  0  0  0
    6.5927    3.1690    0.0000 H   0  0  0  0  0  0  0  0  0  0  0  0
    5.0849   -0.1185    0.0000 H   0  0  0  0  0  0  0  0  0  0  0  0
    3.6371   -0.3807    0.0000 H   0  0  0  0  0  0  0  0  0  0  0  0
    3.3488    2.2144    0.0000 H   0  0  0  0  0  0  0  0  0  0  0  0
    6.1547    3.9465    0.0000 H   0  0  0  0  0  0  0  0  0  0  0  0
    5.3078    4.1734    0.0000 H   0  0  0  0  0  0  0  0  0  0  0  0
    5.0809    3.3265    0.0000 H   0  0  0  0  0  0  0  0  0  0  0  0
    5.6939   -0.1261    0.0000 H   0  0  0  0  0  0  0  0  0  0  0  0
    6.3468    0.3311    0.0000 H   0  0  0  0  0  0  0  0  0  0  0  0
   10.1916   -2.5421    0.0000 H   0  0  0  0  0  0  0  0  0  0  0  0
    2.7124   -1.0389    0.0000 H   0  0  0  0  0  0  0  0  0  0  0  0
    4.4206   -3.2650    0.0000 H   0  0  0  0  0  0  0  0  0  0  0  0
    1.4272   -2.0251    0.0000 H   0  0  0  0  0  0  0  0  0  0  0  0
    3.1353   -4.2512    0.0000 H   0  0  0  0  0  0  0  0  0  0  0  0
    1.6386   -3.6312    0.0000 H   0  0  0  0  0  0  0  0  0  0  0  0
    6.7882    1.4519    0.0000 H   0  0  0  0  0  0  0  0  0  0  0  0
  1 16  1  0  0  0  0
  2 17  1  0  0  0  0
  3 19  2  0  0  0  0
  4 20  2  0  0  0  0
  5 23  1  0  0  0  0
  5 63  1  0  0  0  0
  6 27  2  0  0  0  0
  7 28  2  0  0  0  0
  8 33  1  0  0  0  0
  8 69  1  0  0  0  0
  9 31  2  0  0  0  0
 10 15  1  0  0  0  0
 10 18  1  0  0  0  0
 10 20  1  0  0  0  0
 11 19  1  0  0  0  0
 11 22  1  0  0  0  0
 11 45  1  0  0  0  0
 12 21  1  0  0  0  0
 12 27  1  0  0  0  0
 12 47  1  0  0  0  0
 13 24  1  0  0  0  0
 13 29  1  0  0  0  0
 13 56  1  0  0  0  0
 14 28  1  0  0  0  0
 14 31  1  0  0  0  0
 14 57  1  0  0  0  0
 15 16  1  0  0  0  0
 15 19  1  0  0  0  0
 15 39  1  1  0  0  0
 16 17  1  0  0  0  0
 16 40  1  0  0  0  0
 17 18  1  0  0  0  0
 17 41  1  0  0  0  0
 18 42  1  0  0  0  0
 18 43  1  0  0  0  0
 20 21  1  0  0  0  0
 21 23  1  6  0  0  0
 21 44  1  0  0  0  0
 22 26  1  6  0  0  0
 22 28  1  0  0  0  0
 22 46  1  0  0  0  0
 23 48  1  0  0  0  0
 23 49  1  0  0  0  0
 24 25  1  0  0  0  0
 24 30  1  6  0  0  0
 24 50  1  0  0  0  0
 25 27  1  0  0  0  0
 25 51  1  0  0  0  0
 25 52  1  0  0  0  0
 26 32  1  0  0  0  0
 26 53  1  0  0  0  0
 26 54  1  0  0  0  0
 29 31  1  0  0  0  0
 29 33  1  6  0  0  0
 29 55  1  0  0  0  0
 30 34  2  0  0  0  0
 30 35  1  0  0  0  0
 32 58  1  0  0  0  0
 32 59  1  0  0  0  0
 32 60  1  0  0  0  0
 33 61  1  0  0  0  0
 33 62  1  0  0  0  0
 34 36  1  0  0  0  0
 34 64  1  0  0  0  0
 35 37  2  0  0  0  0
 35 65  1  0  0  0  0
 36 38  2  0  0  0  0
 36 66  1  0  0  0  0
 37 38  1  0  0  0  0
 37 67  1  0  0  0  0
 38 68  1  0  0  0  0
M  END
> <PUBCHEM_COMPOUND_CID>
53297428

> <PUBCHEM_COMPOUND_CANONICALIZED>
1

> <PUBCHEM_CACTVS_COMPLEXITY>
903

> <PUBCHEM_CACTVS_HBOND_ACCEPTOR>
8

> <PUBCHEM_CACTVS_HBOND_DONOR>
6

> <PUBCHEM_CACTVS_ROTATABLE_BOND>
4

> <PUBCHEM_CACTVS_SUBSKEYS>
AAADceB7uAAGAAAAAAAAAAAAAAAAAWAAAAAwAAAAAAAAAAABAAAAHgIQCAAADCvhmEYyAIPAAgCIAiFSEACCAAAgAAAIiMGIBogKcD6B0THUYAhitiCYiAcYiYCOAAAAAAAAAAAAAAAAAAAAAAAAAAAAAA==

> <PUBCHEM_IUPAC_OPENEYE_NAME>
(3S,7R,9S,13S,16R)-17,18-dichloro-13-ethyl-3,9-bis(hydroxymethyl)-7-phenyl-1,4,8,11,14-pentazabicyclo[14.3.0]nonadecane-2,5,10,12,15-pentone

> <PUBCHEM_IUPAC_CAS_NAME>
(3S,7R,9S,13S,16R)-17,18-dichloro-13-ethyl-3,9-bis(hydroxymethyl)-7-phenyl-1,4,8,11,14-pentazabicyclo[14.3.0]nonadecane-2,5,10,12,15-pentone

> <PUBCHEM_IUPAC_NAME>
(3S,7R,9S,13S,16R)-17,18-dichloro-13-ethyl-3,9-bis(hydroxymethyl)-7-phenyl-1,4,8,11,14-pentazabicyclo[14.3.0]nonadecane-2,5,10,12,15-pentone

> <PUBCHEM_IUPAC_SYSTEMATIC_NAME>
(3S,7R,9S,13S,16R)-17,18-bis(chloranyl)-13-ethyl-3,9-bis(hydroxymethyl)-7-phenyl-1,4,8,11,14-pentazabicyclo[14.3.0]nonadecane-2,5,10,12,15-pentone

> <PUBCHEM_IUPAC_TRADITIONAL_NAME>
(3S,7R,9S,13S,16R)-17,18-dichloro-13-ethyl-3,9-dimethylol-7-phenyl-1,4,8,11,14-pentazabicyclo[14.3.0]nonadecane-2,5,10,12,15-pentone

> <PUBCHEM_IUPAC_INCHI>
InChI=1S/C24H31Cl2N5O7/c1-2-14-21(35)30-22(36)16(10-32)27-15(12-6-4-3-5-7-12)8-18(34)28-17(11-33)24(38)31-9-13(25)19(26)20(31)23(37)29-14/h3-7,13-17,19-20,27,32-33H,2,8-11H2,1H3,(H,28,34)(H,29,37)(H,30,35,36)/t13?,14-,15+,16-,17-,19?,20-/m0/s1

> <PUBCHEM_IUPAC_INCHIKEY>
BVRQNGBSIAKFAI-LDZHDPLISA-N

> <PUBCHEM_XLOGP3_AA>
0.2

> <PUBCHEM_EXACT_MASS>
571.160054

> <PUBCHEM_MOLECULAR_FORMULA>
C24H31Cl2N5O7

> <PUBCHEM_MOLECULAR_WEIGHT>
572.43824

> <PUBCHEM_OPENEYE_CAN_SMILES>
CCC1C(=O)NC(=O)C(NC(CC(=O)NC(C(=O)N2CC(C(C2C(=O)N1)Cl)Cl)CO)C3=CC=CC=C3)CO

> <PUBCHEM_OPENEYE_ISO_SMILES>
CC[C@H]1C(=O)NC(=O)[C@@H](N[C@H](CC(=O)N[C@H](C(=O)N2CC(C([C@H]2C(=O)N1)Cl)Cl)CO)C3=CC=CC=C3)CO

> <PUBCHEM_CACTVS_TPSA>
177

> <PUBCHEM_MONOISOTOPIC_WEIGHT>
571.160054

> <PUBCHEM_TOTAL_CHARGE>
0

> <PUBCHEM_HEAVY_ATOM_COUNT>
38

> <PUBCHEM_ATOM_DEF_STEREO_COUNT>
5

> <PUBCHEM_ATOM_UDEF_STEREO_COUNT>
2

> <PUBCHEM_BOND_DEF_STEREO_COUNT>
0

> <PUBCHEM_BOND_UDEF_STEREO_COUNT>
0

> <PUBCHEM_ISOTOPIC_ATOM_COUNT>
0

> <PUBCHEM_COMPONENT_COUNT>
1

> <PUBCHEM_CACTVS_TAUTO_COUNT>
144

> <PUBCHEM_COORDINATE_TYPE>
1
5
255

> <PUBCHEM_BONDANNOTATIONS>
16  1  3
15  39  5
17  2  3
21  23  6
22  26  6
24  30  6
29  33  6
30  34  8
30  35  8
34  36  8
35  37  8
36  38  8
37  38  8

$$$$

