17396317
  -OEChem-06241222553D

 41 43  0     0  0  0  0  0  0999 V2000
    7.7952    0.9176   -0.0817 Cl  0  0  0  0  0  0  0  0  0  0  0  0
   -0.4226    1.2689    0.1603 O   0  0  0  0  0  0  0  0  0  0  0  0
   -6.2416    1.8888    0.0359 O   0  0  0  0  0  0  0  0  0  0  0  0
    1.6119   -1.0701   -1.7055 O   0  0  0  0  0  0  0  0  0  0  0  0
   -2.9884   -1.2789    0.3188 N   0  0  0  0  0  0  0  0  0  0  0  0
    1.3388   -0.6817    0.5771 N   0  0  0  0  0  0  0  0  0  0  0  0
    3.1587    0.0733    1.9082 N   0  0  0  0  0  0  0  0  0  0  0  0
   -2.3906   -0.0541    0.1752 C   0  0  0  0  0  0  0  0  0  0  0  0
   -3.3803    0.8725   -0.0680 C   0  0  0  0  0  0  0  0  0  0  0  0
   -4.6166    0.1803   -0.0703 C   0  0  0  0  0  0  0  0  0  0  0  0
   -4.3447   -1.1480    0.1718 C   0  0  0  0  0  0  0  0  0  0  0  0
   -0.0649   -1.0627    0.5562 C   0  0  0  0  0  0  0  0  0  0  0  0
   -0.9365    0.1545    0.2768 C   0  0  0  0  0  0  0  0  0  0  0  0
   -3.1895    2.3219   -0.2869 C   0  0  0  0  0  0  0  0  0  0  0  0
   -5.2357   -2.3198    0.2802 C   0  0  0  0  0  0  0  0  0  0  0  0
   -5.9307    0.7191   -0.2804 C   0  0  0  0  0  0  0  0  0  0  0  0
    2.0637   -0.7280   -0.6169 C   0  0  0  0  0  0  0  0  0  0  0  0
    3.4830   -0.3221   -0.4957 C   0  0  0  0  0  0  0  0  0  0  0  0
    3.9701    0.0609    0.7612 C   0  0  0  0  0  0  0  0  0  0  0  0
    1.9256   -0.2858    1.7653 C   0  0  0  0  0  0  0  0  0  0  0  0
   -7.0323   -0.1312   -0.9125 C   0  0  0  0  0  0  0  0  0  0  0  0
    4.3175   -0.3234   -1.6182 C   0  0  0  0  0  0  0  0  0  0  0  0
    5.3112    0.4436    0.8763 C   0  0  0  0  0  0  0  0  0  0  0  0
    5.6511    0.0609   -1.4861 C   0  0  0  0  0  0  0  0  0  0  0  0
    6.1476    0.4437   -0.2413 C   0  0  0  0  0  0  0  0  0  0  0  0
   -2.5089   -2.1490    0.5055 H   0  0  0  0  0  0  0  0  0  0  0  0
   -0.2319   -1.8122   -0.2241 H   0  0  0  0  0  0  0  0  0  0  0  0
   -0.3412   -1.4753    1.5325 H   0  0  0  0  0  0  0  0  0  0  0  0
   -3.0013    2.8302    0.6642 H   0  0  0  0  0  0  0  0  0  0  0  0
   -2.3437    2.5132   -0.9552 H   0  0  0  0  0  0  0  0  0  0  0  0
   -4.0581    2.7914   -0.7564 H   0  0  0  0  0  0  0  0  0  0  0  0
   -5.6421   -2.5996   -0.6959 H   0  0  0  0  0  0  0  0  0  0  0  0
   -4.6976   -3.1928    0.6667 H   0  0  0  0  0  0  0  0  0  0  0  0
   -6.0601   -2.1258    0.9729 H   0  0  0  0  0  0  0  0  0  0  0  0
    1.2457   -0.2904    2.6315 H   0  0  0  0  0  0  0  0  0  0  0  0
   -7.5168   -0.7471   -0.1528 H   0  0  0  0  0  0  0  0  0  0  0  0
   -6.6277   -0.7445   -1.7213 H   0  0  0  0  0  0  0  0  0  0  0  0
   -7.7841    0.5327   -1.3517 H   0  0  0  0  0  0  0  0  0  0  0  0
    3.9492   -0.6185   -2.5965 H   0  0  0  0  0  0  0  0  0  0  0  0
    5.7002    0.7428    1.8478 H   0  0  0  0  0  0  0  0  0  0  0  0
    6.2928    0.0570   -2.3635 H   0  0  0  0  0  0  0  0  0  0  0  0
  1 25  1  0  0  0  0
  2 13  2  0  0  0  0
  3 16  2  0  0  0  0
  4 17  2  0  0  0  0
  5  8  1  0  0  0  0
  5 11  1  0  0  0  0
  5 26  1  0  0  0  0
  6 12  1  0  0  0  0
  6 17  1  0  0  0  0
  6 20  1  0  0  0  0
  7 19  1  0  0  0  0
  7 20  2  0  0  0  0
  8  9  2  0  0  0  0
  8 13  1  0  0  0  0
  9 10  1  0  0  0  0
  9 14  1  0  0  0  0
 10 11  2  0  0  0  0
 10 16  1  0  0  0  0
 11 15  1  0  0  0  0
 12 13  1  0  0  0  0
 12 27  1  0  0  0  0
 12 28  1  0  0  0  0
 14 29  1  0  0  0  0
 14 30  1  0  0  0  0
 14 31  1  0  0  0  0
 15 32  1  0  0  0  0
 15 33  1  0  0  0  0
 15 34  1  0  0  0  0
 16 21  1  0  0  0  0
 17 18  1  0  0  0  0
 18 19  2  0  0  0  0
 18 22  1  0  0  0  0
 19 23  1  0  0  0  0
 20 35  1  0  0  0  0
 21 36  1  0  0  0  0
 21 37  1  0  0  0  0
 21 38  1  0  0  0  0
 22 24  2  0  0  0  0
 22 39  1  0  0  0  0
 23 25  2  0  0  0  0
 23 40  1  0  0  0  0
 24 25  1  0  0  0  0
 24 41  1  0  0  0  0
M  END
> <PUBCHEM_COMPOUND_CID>
17396317

> <PUBCHEM_CONFORMER_RMSD>
0.8

> <PUBCHEM_CONFORMER_DIVERSEORDER>
2
27
40
47
33
34
52
99
113
121
19
39
69
81
115
53
21
5
94
88
48
13
58
117
1
20
93
97
22
35
77
82
107
112
83
111
29
101
118
114
126
43
30
72
25
63
100
86
74
42
46
65
125
3
78
116
122
18
50
103
41
110
66
36
45
32
31
28
61
91
23
60
26
59
17
80
71
44
85
4
95
9
14
56
119
24
84
15
104
102
89
16
54
57
55
109
87
76
11
120
49
62
75
79
105
108
73
38
51
123
64
90
67
106
10
68
96
127
37
6
12
70
98
7
124
8
92

> <PUBCHEM_MMFF94_PARTIAL_CHARGES>
30
1 -0.18
10 -0.09
11 -0.33
12 0.36
13 0.59
14 0.18
15 0.18
16 0.6
17 0.54
18 0.09
19 0.18
2 -0.57
20 0.45
21 0.06
22 -0.15
23 -0.15
24 -0.15
25 0.18
26 0.27
3 -0.57
35 0.06
39 0.15
4 -0.57
40 0.15
41 0.15
5 0.03
6 -0.42
7 -0.63
8 -0.24
9 -0.18

> <PUBCHEM_EFFECTIVE_ROTOR_COUNT>
4

> <PUBCHEM_PHARMACOPHORE_FEATURES>
8
1 2 acceptor
1 3 acceptor
1 4 acceptor
1 5 cation
1 5 donor
5 5 8 9 10 11 rings
6 18 19 22 23 24 25 rings
6 6 7 17 18 19 20 rings

> <PUBCHEM_HEAVY_ATOM_COUNT>
25

> <PUBCHEM_ATOM_DEF_STEREO_COUNT>
0

> <PUBCHEM_ATOM_UDEF_STEREO_COUNT>
0

> <PUBCHEM_BOND_DEF_STEREO_COUNT>
0

> <PUBCHEM_BOND_UDEF_STEREO_COUNT>
0

> <PUBCHEM_ISOTOPIC_ATOM_COUNT>
0

> <PUBCHEM_COMPONENT_COUNT>
1

> <PUBCHEM_CACTVS_TAUTO_COUNT>
52

> <PUBCHEM_CONFORMER_ID>
0109725D00000002

> <PUBCHEM_MMFF94_ENERGY>
54.298

> <PUBCHEM_FEATURE_SELFOVERLAP>
40.624

> <PUBCHEM_SHAPE_FINGERPRINT>
10554248 39 17843425092099401359
11089746 13 17489867103617808196
11315181 36 18130787833238124113
11719270 70 17676490592567130390
12236239 1 17561085795700450298
12390115 104 18116710923608115281
12516196 113 17530967986082619233
12596602 18 17131828746475856736
12616971 3 16630524029463504807
12730499 353 17530680996863740102
13533116 47 17275113855677363506
13631057 29 17130701683419452259
13668630 136 14490473079777146445
14251764 18 6411292446916571128
15183329 4 14851603284864257372
15475509 35 9655312384980021580
1577012 14 17632861919156803194
17844677 252 16515399673067075953
18681886 176 18339646633248314976
19489759 90 18201999923623417466
20511986 3 17346611741655257719
21033648 29 17530977902929912977
21033650 10 17914313913159919628
21150785 3 18041001726546051661
21521721 280 16877940504386297378
21792961 116 17676480675481731902
22061861 79 16660364804879211253
221357 26 16660646279935063200
22224240 67 15554448470964772600
2297311 6 18260828194426007193
23081809 10 17846787299287193675
23402539 116 18271809003508399206
23557571 272 18261389000885097965
23559900 14 18334017164248566273
23569943 247 13913700139797549676
300161 21 17489872643840978187
335352 9 18341622504354287581
34797466 226 18186516588033467700
4073 2 18131064935284760435
4325135 7 18272089396137423148
4340502 62 14117796929499856184
46194498 28 17894633630466004888
465052 167 14129061395829528165
542803 24 17489869340794791219
5758199 1 16988843861481817040

> <PUBCHEM_SHAPE_MULTIPOLES>
483.81
19.51
1.57
1.31
2.26
0.19
-0.02
4.09
-3.34
-2.89
0.02
1.85
-0.19
0.25

> <PUBCHEM_SHAPE_SELFOVERLAP>
1046.25

> <PUBCHEM_SHAPE_VOLUME>
266.8

> <PUBCHEM_COORDINATE_TYPE>
2
5
10

$$$$

