3311
  -OEChem-06251223192D

 27 27  0     0  0  0  0  0  0999 V2000
    3.7320   -1.5950    0.0000 S   0  0  0  0  0  0  0  0  0  0  0  0
    5.4641    3.4050    0.0000 F   0  0  0  0  0  0  0  0  0  0  0  0
    6.4641    2.4050    0.0000 F   0  0  0  0  0  0  0  0  0  0  0  0
    4.4641    2.4050    0.0000 F   0  0  0  0  0  0  0  0  0  0  0  0
    5.4641   -1.5950    0.0000 N   0  0  0  0  0  0  0  0  0  0  0  0
    4.5981   -3.0950    0.0000 N   0  0  0  0  0  0  0  0  0  0  0  0
    5.4641    1.4050    0.0000 C   0  0  0  0  0  0  0  0  0  0  0  0
    5.4641   -0.5950    0.0000 C   0  0  0  0  0  0  0  0  0  0  0  0
    4.5981    0.9050    0.0000 C   0  0  0  0  0  0  0  0  0  0  0  0
    6.3301    0.9050    0.0000 C   0  0  0  0  0  0  0  0  0  0  0  0
    4.5981   -0.0950    0.0000 C   0  0  0  0  0  0  0  0  0  0  0  0
    6.3301   -0.0950    0.0000 C   0  0  0  0  0  0  0  0  0  0  0  0
    5.4641    2.4050    0.0000 C   0  0  0  0  0  0  0  0  0  0  0  0
    2.8660   -2.0950    0.0000 C   0  0  0  0  0  0  0  0  0  0  0  0
    4.5981   -2.0950    0.0000 C   0  0  0  0  0  0  0  0  0  0  0  0
    2.0000   -1.5950    0.0000 C   0  0  0  0  0  0  0  0  0  0  0  0
    4.0611    1.2150    0.0000 H   0  0  0  0  0  0  0  0  0  0  0  0
    6.8671    1.2150    0.0000 H   0  0  0  0  0  0  0  0  0  0  0  0
    4.0611   -0.4050    0.0000 H   0  0  0  0  0  0  0  0  0  0  0  0
    6.8671   -0.4050    0.0000 H   0  0  0  0  0  0  0  0  0  0  0  0
    2.4675   -2.5700    0.0000 H   0  0  0  0  0  0  0  0  0  0  0  0
    3.2646   -2.5700    0.0000 H   0  0  0  0  0  0  0  0  0  0  0  0
    2.3100   -1.0581    0.0000 H   0  0  0  0  0  0  0  0  0  0  0  0
    1.4631   -1.2850    0.0000 H   0  0  0  0  0  0  0  0  0  0  0  0
    1.6900   -2.1319    0.0000 H   0  0  0  0  0  0  0  0  0  0  0  0
    4.0611   -3.4050    0.0000 H   0  0  0  0  0  0  0  0  0  0  0  0
    5.1350   -3.4050    0.0000 H   0  0  0  0  0  0  0  0  0  0  0  0
  1 14  1  0  0  0  0
  1 15  1  0  0  0  0
  2 13  1  0  0  0  0
  3 13  1  0  0  0  0
  4 13  1  0  0  0  0
  5  8  1  0  0  0  0
  5 15  2  0  0  0  0
  6 15  1  0  0  0  0
  6 26  1  0  0  0  0
  6 27  1  0  0  0  0
  7  9  2  0  0  0  0
  7 10  1  0  0  0  0
  7 13  1  0  0  0  0
  8 11  2  0  0  0  0
  8 12  1  0  0  0  0
  9 11  1  0  0  0  0
  9 17  1  0  0  0  0
 10 12  2  0  0  0  0
 10 18  1  0  0  0  0
 11 19  1  0  0  0  0
 12 20  1  0  0  0  0
 14 16  1  0  0  0  0
 14 21  1  0  0  0  0
 14 22  1  0  0  0  0
 16 23  1  0  0  0  0
 16 24  1  0  0  0  0
 16 25  1  0  0  0  0
M  END
> <PUBCHEM_COMPOUND_CID>
3311

> <PUBCHEM_COMPOUND_CANONICALIZED>
1

> <PUBCHEM_CACTVS_COMPLEXITY>
245

> <PUBCHEM_CACTVS_HBOND_ACCEPTOR>
5

> <PUBCHEM_CACTVS_HBOND_DONOR>
1

> <PUBCHEM_CACTVS_ROTATABLE_BOND>
3

> <PUBCHEM_CACTVS_SUBSKEYS>
AAADccBzAYBAAAAAAAAAAAAAAAAAAAAAAAAwAAAAAAAAAAABAAAAHQQQAAAADAiFWBCzwIJAAAigAiRCZACCEAFgAhAIiAAAZIgIICKAkZGAIABggAAIyAcQgAAOCAAAAAAAAAAQAAAAAAAAAAAAAAAAAA==

> <PUBCHEM_IUPAC_OPENEYE_NAME>
2-ethyl-3-[4-(trifluoromethyl)phenyl]isothiourea

> <PUBCHEM_IUPAC_CAS_NAME>
N'-[4-(trifluoromethyl)phenyl]carbamimidothioic acid ethyl ester

> <PUBCHEM_IUPAC_NAME>
ethyl N'-[4-(trifluoromethyl)phenyl]carbamimidothioate

> <PUBCHEM_IUPAC_SYSTEMATIC_NAME>
ethyl N'-[4-(trifluoromethyl)phenyl]carbamimidothioate

> <PUBCHEM_IUPAC_TRADITIONAL_NAME>
2-ethyl-3-[4-(trifluoromethyl)phenyl]isothiourea

> <PUBCHEM_IUPAC_INCHI>
InChI=1S/C10H11F3N2S/c1-2-16-9(14)15-8-5-3-7(4-6-8)10(11,12)13/h3-6H,2H2,1H3,(H2,14,15)

> <PUBCHEM_IUPAC_INCHIKEY>
LCMOXIFARISMOH-UHFFFAOYSA-N

> <PUBCHEM_XLOGP3_AA>
3.2

> <PUBCHEM_EXACT_MASS>
248.059504

> <PUBCHEM_MOLECULAR_FORMULA>
C10H11F3N2S

> <PUBCHEM_MOLECULAR_WEIGHT>
248.26795

> <PUBCHEM_OPENEYE_CAN_SMILES>
CCSC(=NC1=CC=C(C=C1)C(F)(F)F)N

> <PUBCHEM_OPENEYE_ISO_SMILES>
CCSC(=NC1=CC=C(C=C1)C(F)(F)F)N

> <PUBCHEM_CACTVS_TPSA>
63.7

> <PUBCHEM_MONOISOTOPIC_WEIGHT>
248.059504

> <PUBCHEM_TOTAL_CHARGE>
0

> <PUBCHEM_HEAVY_ATOM_COUNT>
16

> <PUBCHEM_ATOM_DEF_STEREO_COUNT>
0

> <PUBCHEM_ATOM_UDEF_STEREO_COUNT>
0

> <PUBCHEM_BOND_DEF_STEREO_COUNT>
0

> <PUBCHEM_BOND_UDEF_STEREO_COUNT>
0

> <PUBCHEM_ISOTOPIC_ATOM_COUNT>
0

> <PUBCHEM_COMPONENT_COUNT>
1

> <PUBCHEM_CACTVS_TAUTO_COUNT>
2

> <PUBCHEM_COORDINATE_TYPE>
1
5
255

> <PUBCHEM_BONDANNOTATIONS>
10  12  8
7  10  8
7  9  8
8  11  8
8  12  8
9  11  8

$$$$

