443004
  -OEChem-07051213003D

 44 46  0     1  0  0  0  0  0999 V2000
   -2.1220    1.4932   -0.0864 O   0  0  0  0  0  0  0  0  0  0  0  0
    0.1408    2.2190    0.3854 O   0  0  0  0  0  0  0  0  0  0  0  0
   -4.3492    0.8795   -0.0942 O   0  0  0  0  0  0  0  0  0  0  0  0
   -0.1862   -2.0189    0.7189 N   0  0  1  0  0  0  0  0  0  0  0  0
    0.2383   -1.4468   -0.5741 C   0  0  2  0  0  0  0  0  0  0  0  0
   -1.6343   -2.2152    0.5277 C   0  0  2  0  0  0  0  0  0  0  0  0
   -0.2087    0.0434   -0.5935 C   0  0  1  0  0  0  0  0  0  0  0  0
   -0.5139   -2.2823   -1.6192 C   0  0  0  0  0  0  0  0  0  0  0  0
   -1.7428    0.1630   -0.4178 C   0  0  1  0  0  0  0  0  0  0  0  0
   -1.7560   -2.7945   -0.8856 C   0  0  0  0  0  0  0  0  0  0  0  0
   -2.2825   -0.8204    0.6343 C   0  0  0  0  0  0  0  0  0  0  0  0
    0.5670    0.8636    0.4488 C   0  0  1  0  0  0  0  0  0  0  0  0
    0.5171   -3.2546    1.0523 C   0  0  0  0  0  0  0  0  0  0  0  0
    2.0533    0.7879    0.2204 C   0  0  0  0  0  0  0  0  0  0  0  0
   -3.4650    1.7136    0.0459 C   0  0  0  0  0  0  0  0  0  0  0  0
    2.7884   -0.2165    0.8344 C   0  0  0  0  0  0  0  0  0  0  0  0
    2.6670    1.7232   -0.6011 C   0  0  0  0  0  0  0  0  0  0  0  0
   -3.7138    3.1498    0.3947 C   0  0  0  0  0  0  0  0  0  0  0  0
    4.1654   -0.2870    0.6227 C   0  0  0  0  0  0  0  0  0  0  0  0
    4.0439    1.6525   -0.8128 C   0  0  0  0  0  0  0  0  0  0  0  0
    4.7931    0.6474   -0.2008 C   0  0  0  0  0  0  0  0  0  0  0  0
    1.3098   -1.5426   -0.7660 H   0  0  0  0  0  0  0  0  0  0  0  0
   -2.0762   -2.8741    1.2837 H   0  0  0  0  0  0  0  0  0  0  0  0
    0.0212    0.4675   -1.5825 H   0  0  0  0  0  0  0  0  0  0  0  0
    0.0937   -3.1358   -1.9434 H   0  0  0  0  0  0  0  0  0  0  0  0
   -0.7748   -1.7088   -2.5144 H   0  0  0  0  0  0  0  0  0  0  0  0
   -2.2027   -0.0716   -1.3876 H   0  0  0  0  0  0  0  0  0  0  0  0
   -2.6805   -2.4942   -1.3895 H   0  0  0  0  0  0  0  0  0  0  0  0
   -1.7382   -3.8904   -0.8579 H   0  0  0  0  0  0  0  0  0  0  0  0
   -3.3601   -0.9763    0.5395 H   0  0  0  0  0  0  0  0  0  0  0  0
   -2.1244   -0.4125    1.6420 H   0  0  0  0  0  0  0  0  0  0  0  0
    0.3493    0.5231    1.4690 H   0  0  0  0  0  0  0  0  0  0  0  0
    0.3784   -4.0542    0.3173 H   0  0  0  0  0  0  0  0  0  0  0  0
    0.1730   -3.6277    2.0232 H   0  0  0  0  0  0  0  0  0  0  0  0
    1.5925   -3.0768    1.1495 H   0  0  0  0  0  0  0  0  0  0  0  0
   -0.6854    2.2952    0.8914 H   0  0  0  0  0  0  0  0  0  0  0  0
    2.3251   -0.9254    1.5111 H   0  0  0  0  0  0  0  0  0  0  0  0
    2.1039    2.5069   -1.0992 H   0  0  0  0  0  0  0  0  0  0  0  0
   -3.3316    3.7953   -0.4000 H   0  0  0  0  0  0  0  0  0  0  0  0
   -3.2345    3.3871    1.3477 H   0  0  0  0  0  0  0  0  0  0  0  0
   -4.7899    3.3182    0.4935 H   0  0  0  0  0  0  0  0  0  0  0  0
    4.7500   -1.0638    1.1067 H   0  0  0  0  0  0  0  0  0  0  0  0
    4.5327    2.3783   -1.4562 H   0  0  0  0  0  0  0  0  0  0  0  0
    5.8654    0.5934   -0.3644 H   0  0  0  0  0  0  0  0  0  0  0  0
  1  9  1  0  0  0  0
  1 15  1  0  0  0  0
  2 12  1  0  0  0  0
  2 36  1  0  0  0  0
  3 15  2  0  0  0  0
  4  5  1  0  0  0  0
  4  6  1  0  0  0  0
  4 13  1  0  0  0  0
  5  7  1  0  0  0  0
  5  8  1  0  0  0  0
  5 22  1  0  0  0  0
  6 10  1  0  0  0  0
  6 11  1  0  0  0  0
  6 23  1  0  0  0  0
  7  9  1  0  0  0  0
  7 12  1  0  0  0  0
  7 24  1  0  0  0  0
  8 10  1  0  0  0  0
  8 25  1  0  0  0  0
  8 26  1  0  0  0  0
  9 11  1  0  0  0  0
  9 27  1  0  0  0  0
 10 28  1  0  0  0  0
 10 29  1  0  0  0  0
 11 30  1  0  0  0  0
 11 31  1  0  0  0  0
 12 14  1  0  0  0  0
 12 32  1  0  0  0  0
 13 33  1  0  0  0  0
 13 34  1  0  0  0  0
 13 35  1  0  0  0  0
 14 16  2  0  0  0  0
 14 17  1  0  0  0  0
 15 18  1  0  0  0  0
 16 19  1  0  0  0  0
 16 37  1  0  0  0  0
 17 20  2  0  0  0  0
 17 38  1  0  0  0  0
 18 39  1  0  0  0  0
 18 40  1  0  0  0  0
 18 41  1  0  0  0  0
 19 21  2  0  0  0  0
 19 42  1  0  0  0  0
 20 21  1  0  0  0  0
 20 43  1  0  0  0  0
 21 44  1  0  0  0  0
M  END
> <PUBCHEM_COMPOUND_CID>
443004

> <PUBCHEM_CONFORMER_RMSD>
0.8

> <PUBCHEM_CONFORMER_DIVERSEORDER>
1
4
7
3
2
6
5
8

> <PUBCHEM_MMFF94_PARTIAL_CHARGES>
23
1 -0.43
12 0.42
13 0.27
14 -0.14
15 0.66
16 -0.15
17 -0.15
18 0.06
19 -0.15
2 -0.68
20 -0.15
21 -0.15
3 -0.57
36 0.4
37 0.15
38 0.15
4 -0.81
42 0.15
43 0.15
44 0.15
5 0.27
6 0.27
9 0.28

> <PUBCHEM_EFFECTIVE_ROTOR_COUNT>
5.2

> <PUBCHEM_PHARMACOPHORE_FEATURES>
6
1 2 acceptor
1 2 donor
1 3 acceptor
1 4 cation
6 14 16 17 19 20 21 rings
8 4 5 6 7 8 9 10 11 rings

> <PUBCHEM_HEAVY_ATOM_COUNT>
21

> <PUBCHEM_ATOM_DEF_STEREO_COUNT>
2

> <PUBCHEM_ATOM_UDEF_STEREO_COUNT>
3

> <PUBCHEM_BOND_DEF_STEREO_COUNT>
0

> <PUBCHEM_BOND_UDEF_STEREO_COUNT>
0

> <PUBCHEM_ISOTOPIC_ATOM_COUNT>
0

> <PUBCHEM_COMPONENT_COUNT>
1

> <PUBCHEM_CACTVS_TAUTO_COUNT>
1

> <PUBCHEM_CONFORMER_ID>
0006C27C00000001

> <PUBCHEM_MMFF94_ENERGY>
64.4582

> <PUBCHEM_FEATURE_SELFOVERLAP>
30.446

> <PUBCHEM_SHAPE_FINGERPRINT>
10382601 240 18052525866498720233
104564 63 18266740177721521390
10616163 171 18338232653274863542
107951 10 18270944805134795326
10948715 1 18411417358030951467
1100329 8 18125162881584466402
12035759 4 18118996679000420935
12173636 292 18269557139597070166
12553582 1 17906735800180748370
12592029 89 18270677696258609377
12788726 201 18195531389327575035
13140716 1 18341061765338475834
13464514 151 18119522382791436465
13583140 156 17275102834248430185
14178342 30 18195547908415218120
14251751 93 18411700954547491522
14790565 3 18339073899507976168
15906896 17 18338234856039321799
16752209 62 18263936453114449038
16945 1 17979079284100052826
19591789 44 18339363062337931257
19784866 9 18265895954686871465
20510252 161 18265045834502913281
20645476 183 18200585917568991116
20681677 155 18411980248519689720
20871999 31 18338235934571706060
21524375 3 18409452513683120317
22182313 1 18116128087148732087
22907989 373 18193840336449652365
23419403 2 17542732833393180923
23558518 356 18123475985780821348
23559900 14 18187367623989016896
23598291 2 18058444305884311812
23728640 28 18336549322015077674
238 59 17552681270578123301
2748010 2 18191001569293991199
298252 57 18113623403939593167
3084891 72 18188491392584817368
3091708 16 9413361620727888619
335352 9 18339643468564247718
34934 24 18413111632968056528
394222 165 18197216064605832171
474 4 18267304425071733121
474229 33 18410009923598059205
5104073 3 18272377421809945640
559249 180 18410856569142503222
6138700 20 17976534241758980510
7226269 152 18041002886193074792
7364860 26 17756990373851881893
7832392 63 18341895143782040444
81228 2 17979372858189436505
81539 233 18266743678320405813
90525 40 18412262805168568078
9709674 26 18266171730906326070
9862522 239 18410298029498009141
9953998 17 18192178026263001042
9999458 23 18057881531723771350

> <PUBCHEM_SHAPE_MULTIPOLES>
409.58
7.29
3.64
1.06
4.33
0.99
0.16
-5.61
-0.07
-3.08
-0.15
0.13
0.58
-0.9

> <PUBCHEM_SHAPE_SELFOVERLAP>
874.509

> <PUBCHEM_SHAPE_VOLUME>
226.7

> <PUBCHEM_COORDINATE_TYPE>
2
5
10

$$$$

