10342051
  -OEChem-07051213113D

 52 54  0     1  0  0  0  0  0999 V2000
   -3.3447   -4.3887   -1.6031 Cl  0  0  0  0  0  0  0  0  0  0  0  0
   -0.4241    1.6893    0.1274 O   0  0  0  0  0  0  0  0  0  0  0  0
   -2.2479    2.6458   -0.9116 O   0  0  0  0  0  0  0  0  0  0  0  0
    4.2312   -0.6166   -0.2040 O   0  0  0  0  0  0  0  0  0  0  0  0
    0.0031    1.8309   -3.2421 N   0  0  0  0  0  0  0  0  0  0  0  0
   -2.5662    1.0210    0.8781 C   0  0  1  0  0  0  0  0  0  0  0  0
   -3.8848    1.7315    1.2987 C   0  0  0  0  0  0  0  0  0  0  0  0
   -2.7628   -0.3484    0.2486 C   0  0  0  0  0  0  0  0  0  0  0  0
   -4.6709    0.9095    2.3297 C   0  0  0  0  0  0  0  0  0  0  0  0
   -3.6019    3.1184    1.8954 C   0  0  0  0  0  0  0  0  0  0  0  0
   -1.7587    1.8931   -0.0786 C   0  0  0  0  0  0  0  0  0  0  0  0
   -1.8256   -1.3344    0.4860 C   0  0  0  0  0  0  0  0  0  0  0  0
   -3.8734   -0.5683   -0.5418 C   0  0  0  0  0  0  0  0  0  0  0  0
    0.4513    2.4371   -0.7223 C   0  0  1  0  0  0  0  0  0  0  0  0
   -2.0064   -2.5916   -0.0906 C   0  0  0  0  0  0  0  0  0  0  0  0
   -4.0543   -1.8255   -1.1184 C   0  0  0  0  0  0  0  0  0  0  0  0
    1.8831    2.1669   -0.3218 C   0  0  0  0  0  0  0  0  0  0  0  0
   -3.1208   -2.8371   -0.8928 C   0  0  0  0  0  0  0  0  0  0  0  0
    2.3933    0.8859   -0.4524 C   0  0  0  0  0  0  0  0  0  0  0  0
    2.6569    3.2058    0.1685 C   0  0  0  0  0  0  0  0  0  0  0  0
    3.7149    0.6367   -0.0824 C   0  0  0  0  0  0  0  0  0  0  0  0
    0.2024    2.0971   -2.1302 C   0  0  0  0  0  0  0  0  0  0  0  0
    3.9784    2.9568    0.5385 C   0  0  0  0  0  0  0  0  0  0  0  0
    4.5075    1.6722    0.4130 C   0  0  0  0  0  0  0  0  0  0  0  0
    3.4558   -1.6775    0.2333 C   0  0  0  0  0  0  0  0  0  0  0  0
    2.8082   -1.5813    1.4517 C   0  0  0  0  0  0  0  0  0  0  0  0
    3.3499   -2.8061   -0.5590 C   0  0  0  0  0  0  0  0  0  0  0  0
    2.0281   -2.6504    1.8927 C   0  0  0  0  0  0  0  0  0  0  0  0
    2.5697   -3.8750   -0.1183 C   0  0  0  0  0  0  0  0  0  0  0  0
    1.9088   -3.7971    1.1077 C   0  0  0  0  0  0  0  0  0  0  0  0
   -1.9727    0.9065    1.7974 H   0  0  0  0  0  0  0  0  0  0  0  0
   -4.5308    1.9069    0.4308 H   0  0  0  0  0  0  0  0  0  0  0  0
   -4.9966   -0.0550    1.9313 H   0  0  0  0  0  0  0  0  0  0  0  0
   -4.0671    0.7190    3.2238 H   0  0  0  0  0  0  0  0  0  0  0  0
   -5.5729    1.4461    2.6444 H   0  0  0  0  0  0  0  0  0  0  0  0
   -2.9213    3.0484    2.7510 H   0  0  0  0  0  0  0  0  0  0  0  0
   -4.5298    3.5853    2.2444 H   0  0  0  0  0  0  0  0  0  0  0  0
   -3.1594    3.8016    1.1654 H   0  0  0  0  0  0  0  0  0  0  0  0
   -0.9544   -1.1519    1.1080 H   0  0  0  0  0  0  0  0  0  0  0  0
   -4.6068    0.1979   -0.7630 H   0  0  0  0  0  0  0  0  0  0  0  0
    0.2326    3.5026   -0.5696 H   0  0  0  0  0  0  0  0  0  0  0  0
   -1.2710   -3.3704    0.0936 H   0  0  0  0  0  0  0  0  0  0  0  0
   -4.9243   -2.0014   -1.7459 H   0  0  0  0  0  0  0  0  0  0  0  0
    1.7698    0.0916   -0.8547 H   0  0  0  0  0  0  0  0  0  0  0  0
    2.2574    4.2104    0.2719 H   0  0  0  0  0  0  0  0  0  0  0  0
    4.5955    3.7628    0.9246 H   0  0  0  0  0  0  0  0  0  0  0  0
    5.5374    1.4840    0.7034 H   0  0  0  0  0  0  0  0  0  0  0  0
    2.9035   -0.7092    2.0919 H   0  0  0  0  0  0  0  0  0  0  0  0
    3.8634   -2.8678   -1.5137 H   0  0  0  0  0  0  0  0  0  0  0  0
    1.5164   -2.5915    2.8488 H   0  0  0  0  0  0  0  0  0  0  0  0
    2.4762   -4.7677   -0.7298 H   0  0  0  0  0  0  0  0  0  0  0  0
    1.3009   -4.6291    1.4508 H   0  0  0  0  0  0  0  0  0  0  0  0
  1 18  1  0  0  0  0
  2 11  1  0  0  0  0
  2 14  1  0  0  0  0
  3 11  2  0  0  0  0
  4 21  1  0  0  0  0
  4 25  1  0  0  0  0
  5 22  3  0  0  0  0
  6  7  1  0  0  0  0
  6  8  1  0  0  0  0
  6 11  1  0  0  0  0
  6 31  1  0  0  0  0
  7  9  1  0  0  0  0
  7 10  1  0  0  0  0
  7 32  1  0  0  0  0
  8 12  2  0  0  0  0
  8 13  1  0  0  0  0
  9 33  1  0  0  0  0
  9 34  1  0  0  0  0
  9 35  1  0  0  0  0
 10 36  1  0  0  0  0
 10 37  1  0  0  0  0
 10 38  1  0  0  0  0
 12 15  1  0  0  0  0
 12 39  1  0  0  0  0
 13 16  2  0  0  0  0
 13 40  1  0  0  0  0
 14 17  1  0  0  0  0
 14 22  1  0  0  0  0
 14 41  1  0  0  0  0
 15 18  2  0  0  0  0
 15 42  1  0  0  0  0
 16 18  1  0  0  0  0
 16 43  1  0  0  0  0
 17 19  2  0  0  0  0
 17 20  1  0  0  0  0
 19 21  1  0  0  0  0
 19 44  1  0  0  0  0
 20 23  2  0  0  0  0
 20 45  1  0  0  0  0
 21 24  2  0  0  0  0
 23 24  1  0  0  0  0
 23 46  1  0  0  0  0
 24 47  1  0  0  0  0
 25 26  2  0  0  0  0
 25 27  1  0  0  0  0
 26 28  1  0  0  0  0
 26 48  1  0  0  0  0
 27 29  2  0  0  0  0
 27 49  1  0  0  0  0
 28 30  2  0  0  0  0
 28 50  1  0  0  0  0
 29 30  1  0  0  0  0
 29 51  1  0  0  0  0
 30 52  1  0  0  0  0
M  END
> <PUBCHEM_COMPOUND_CID>
10342051

> <PUBCHEM_CONFORMER_RMSD>
1.2

> <PUBCHEM_CONFORMER_DIVERSEORDER>
1
12
61
51
165
219
387
9
290
399
264
180
218
120
98
310
127
34
64
117
62
24
297
131
92
177
235
224
42
28
484
407
163
140
402
13
475
398
68
483
48
445
175
128
5
314
498
80
171
139
208
453
133
114
269
190
403
277
82
151
466
352
354
476
15
421
409
378
184
202
6
8
21
102
416
78
347
44
274
322
458
364
50
2
294
238
74
197
152
304
46
22
14
52
400
196
119
379
185
321
170
385
423
87
324
221
258
17
220
384
236
216
159
158
366
10
164
27
431
16
81
84
350
38
418
94
213
123
97
70
292
149
11
183
90
199
35
86
134
111
18
4
288
130
172
3
85
280
301
154
56
410
91
146
72

> <PUBCHEM_MMFF94_PARTIAL_CHARGES>
40
1 -0.18
11 0.66
12 -0.15
13 -0.15
14 0.62
15 -0.15
16 -0.15
17 -0.14
18 0.18
19 -0.15
2 -0.43
20 -0.15
21 0.08
22 0.36
23 -0.15
24 -0.15
25 0.08
26 -0.15
27 -0.15
28 -0.15
29 -0.15
3 -0.57
30 -0.15
39 0.15
4 -0.17
40 0.15
42 0.15
43 0.15
44 0.15
45 0.15
46 0.15
47 0.15
48 0.15
49 0.15
5 -0.56
50 0.15
51 0.15
52 0.15
6 0.2
8 -0.14

> <PUBCHEM_EFFECTIVE_ROTOR_COUNT>
8

> <PUBCHEM_PHARMACOPHORE_FEATURES>
7
1 3 acceptor
1 4 acceptor
1 5 acceptor
3 7 9 10 hydrophobe
6 17 19 20 21 23 24 rings
6 25 26 27 28 29 30 rings
6 8 12 13 15 16 18 rings

> <PUBCHEM_HEAVY_ATOM_COUNT>
30

> <PUBCHEM_ATOM_DEF_STEREO_COUNT>
2

> <PUBCHEM_ATOM_UDEF_STEREO_COUNT>
0

> <PUBCHEM_BOND_DEF_STEREO_COUNT>
0

> <PUBCHEM_BOND_UDEF_STEREO_COUNT>
0

> <PUBCHEM_ISOTOPIC_ATOM_COUNT>
0

> <PUBCHEM_COMPONENT_COUNT>
1

> <PUBCHEM_CACTVS_TAUTO_COUNT>
1

> <PUBCHEM_CONFORMER_ID>
009DCEA300000001

> <PUBCHEM_MMFF94_ENERGY>
87.3126

> <PUBCHEM_FEATURE_SELFOVERLAP>
35.52

> <PUBCHEM_SHAPE_FINGERPRINT>
10369192 42 14329148172563422661
11513181 2 18040991826314989654
11552529 35 18260267408593141161
12422481 6 17694483138087701513
12553582 1 18198062680280741786
12633257 1 18191586560850530012
12788726 201 17894912893861014467
13122387 1 17981613980730449410
14251757 17 17557462926477868679
15250474 111 18335423434987725792
16067690 210 16226324927513644920
161222 10 18196914605341822966
161222 619 16467832936118646849
20028762 73 18190750730851824422
20511986 3 18115600244516353405
20764821 26 17906746052025416054
20775438 99 17476699429029812711
20775530 9 17914330440705621426
21133410 38 18261665991937018387
21796203 349 17837181012667334610
25265897 201 17824794927785648351
35225 105 15719974418370835438
463206 1 17543636327119597055
6287921 2 18335706035451850050
7097593 13 18336823181994030744

> <PUBCHEM_SHAPE_MULTIPOLES>
596.67
9.45
6.02
1.94
0.63
3.92
-0.46
0.19
2.06
-0.42
-0.22
1.4
-0.56
-3.35

> <PUBCHEM_SHAPE_SELFOVERLAP>
1274.828

> <PUBCHEM_SHAPE_VOLUME>
329

> <PUBCHEM_COORDINATE_TYPE>
2
5
10

$$$$

