11143
  -OEChem-06261205202D

 34 30  0     0  0  0  0  0  0999 V2000
    3.7320    0.2500    0.0000 Al  0  1  0  0  0  0  0  0  0  0  0  0
    4.5981    0.7500    0.0000 O   0  5  0  0  0  0  0  0  0  0  0  0
    2.8660    0.7500    0.0000 O   0  5  0  0  0  0  0  0  0  0  0  0
    3.7320   -0.7500    0.0000 O   0  5  0  0  0  0  0  0  0  0  0  0
    5.4641    0.2500    0.0000 C   0  0  0  0  0  0  0  0  0  0  0  0
    2.8660    1.7500    0.0000 C   0  0  0  0  0  0  0  0  0  0  0  0
    2.8660   -1.2500    0.0000 C   0  0  0  0  0  0  0  0  0  0  0  0
    6.3301    0.7500    0.0000 C   0  0  0  0  0  0  0  0  0  0  0  0
    5.4641   -0.7500    0.0000 C   0  0  0  0  0  0  0  0  0  0  0  0
    2.0000    2.2500    0.0000 C   0  0  0  0  0  0  0  0  0  0  0  0
    3.7320    2.2500    0.0000 C   0  0  0  0  0  0  0  0  0  0  0  0
    2.8660   -2.2500    0.0000 C   0  0  0  0  0  0  0  0  0  0  0  0
    2.0000   -0.7500    0.0000 C   0  0  0  0  0  0  0  0  0  0  0  0
    5.4641    0.8700    0.0000 H   0  0  0  0  0  0  0  0  0  0  0  0
    3.4030    1.4400    0.0000 H   0  0  0  0  0  0  0  0  0  0  0  0
    2.8660   -0.6300    0.0000 H   0  0  0  0  0  0  0  0  0  0  0  0
    6.6401    0.2131    0.0000 H   0  0  0  0  0  0  0  0  0  0  0  0
    6.8671    1.0600    0.0000 H   0  0  0  0  0  0  0  0  0  0  0  0
    6.0201    1.2869    0.0000 H   0  0  0  0  0  0  0  0  0  0  0  0
    4.8441   -0.7500    0.0000 H   0  0  0  0  0  0  0  0  0  0  0  0
    5.4641   -1.3700    0.0000 H   0  0  0  0  0  0  0  0  0  0  0  0
    6.0841   -0.7500    0.0000 H   0  0  0  0  0  0  0  0  0  0  0  0
    2.3100    2.7869    0.0000 H   0  0  0  0  0  0  0  0  0  0  0  0
    1.4631    2.5600    0.0000 H   0  0  0  0  0  0  0  0  0  0  0  0
    1.6900    1.7131    0.0000 H   0  0  0  0  0  0  0  0  0  0  0  0
    4.0420    1.7131    0.0000 H   0  0  0  0  0  0  0  0  0  0  0  0
    4.2690    2.5600    0.0000 H   0  0  0  0  0  0  0  0  0  0  0  0
    3.4220    2.7869    0.0000 H   0  0  0  0  0  0  0  0  0  0  0  0
    2.2460   -2.2500    0.0000 H   0  0  0  0  0  0  0  0  0  0  0  0
    2.8660   -2.8700    0.0000 H   0  0  0  0  0  0  0  0  0  0  0  0
    3.4860   -2.2500    0.0000 H   0  0  0  0  0  0  0  0  0  0  0  0
    2.3100   -0.2131    0.0000 H   0  0  0  0  0  0  0  0  0  0  0  0
    1.4631   -0.4400    0.0000 H   0  0  0  0  0  0  0  0  0  0  0  0
    1.6900   -1.2869    0.0000 H   0  0  0  0  0  0  0  0  0  0  0  0
  2  5  1  0  0  0  0
  3  6  1  0  0  0  0
  4  7  1  0  0  0  0
  5  8  1  0  0  0  0
  5  9  1  0  0  0  0
  5 14  1  0  0  0  0
  6 10  1  0  0  0  0
  6 11  1  0  0  0  0
  6 15  1  0  0  0  0
  7 12  1  0  0  0  0
  7 13  1  0  0  0  0
  7 16  1  0  0  0  0
  8 17  1  0  0  0  0
  8 18  1  0  0  0  0
  8 19  1  0  0  0  0
  9 20  1  0  0  0  0
  9 21  1  0  0  0  0
  9 22  1  0  0  0  0
 10 23  1  0  0  0  0
 10 24  1  0  0  0  0
 10 25  1  0  0  0  0
 11 26  1  0  0  0  0
 11 27  1  0  0  0  0
 11 28  1  0  0  0  0
 12 29  1  0  0  0  0
 12 30  1  0  0  0  0
 12 31  1  0  0  0  0
 13 32  1  0  0  0  0
 13 33  1  0  0  0  0
 13 34  1  0  0  0  0
M  CHG  4   1   3   2  -1   3  -1   4  -1
M  END
> <PUBCHEM_COMPOUND_CID>
11143

> <PUBCHEM_COMPOUND_CANONICALIZED>
1

> <PUBCHEM_CACTVS_COMPLEXITY>
10.8

> <PUBCHEM_CACTVS_HBOND_ACCEPTOR>
3

> <PUBCHEM_CACTVS_HBOND_DONOR>
0

> <PUBCHEM_CACTVS_ROTATABLE_BOND>
0

> <PUBCHEM_CACTVS_SUBSKEYS>
AAADceBwMAAAABAAAAAAAAAAAAAAAAAAAAAAAAAAAAAAAAAAAAAAGgAAAAAACBSggAICAAAAAAAAAAAAAAAAAAAAAAAAAAAAAAAAAAAAAAAAAAAAAAAAAAAAAAAAAAAAAAAAAAAAAAAAAAAAAAAAAAAAAA==

> <PUBCHEM_IUPAC_OPENEYE_NAME>
aluminum propan-2-olate

> <PUBCHEM_IUPAC_CAS_NAME>
aluminum 2-propanolate

> <PUBCHEM_IUPAC_NAME>
aluminum propan-2-olate

> <PUBCHEM_IUPAC_SYSTEMATIC_NAME>
aluminum propan-2-olate

> <PUBCHEM_IUPAC_TRADITIONAL_NAME>
aluminum propan-2-olate

> <PUBCHEM_IUPAC_INCHI>
InChI=1S/3C3H7O.Al/c3*1-3(2)4;/h3*3H,1-2H3;/q3*-1;+3

> <PUBCHEM_IUPAC_INCHIKEY>
SMZOGRDCAXLAAR-UHFFFAOYSA-N

> <PUBCHEM_EXACT_MASS>
204.130608

> <PUBCHEM_MOLECULAR_FORMULA>
C9H21AlO3

> <PUBCHEM_MOLECULAR_WEIGHT>
204.242779

> <PUBCHEM_OPENEYE_CAN_SMILES>
CC(C)[O-].CC(C)[O-].CC(C)[O-].[Al+3]

> <PUBCHEM_OPENEYE_ISO_SMILES>
CC(C)[O-].CC(C)[O-].CC(C)[O-].[Al+3]

> <PUBCHEM_CACTVS_TPSA>
69.2

> <PUBCHEM_MONOISOTOPIC_WEIGHT>
204.130608

> <PUBCHEM_TOTAL_CHARGE>
0

> <PUBCHEM_HEAVY_ATOM_COUNT>
13

> <PUBCHEM_ATOM_DEF_STEREO_COUNT>
0

> <PUBCHEM_ATOM_UDEF_STEREO_COUNT>
0

> <PUBCHEM_BOND_DEF_STEREO_COUNT>
0

> <PUBCHEM_BOND_UDEF_STEREO_COUNT>
0

> <PUBCHEM_ISOTOPIC_ATOM_COUNT>
0

> <PUBCHEM_COMPONENT_COUNT>
4

> <PUBCHEM_CACTVS_TAUTO_COUNT>
1

> <PUBCHEM_COORDINATE_TYPE>
1
5
255

$$$$

