47205724
  -OEChem-06241223002D

 38 38  0     0  0  0  0  0  0999 V2000
    2.0000   -2.6550    0.0000 F   0  0  0  0  0  0  0  0  0  0  0  0
    2.8660    0.8450    0.0000 O   0  0  0  0  0  0  0  0  0  0  0  0
    6.3301    1.8450    0.0000 O   0  0  0  0  0  0  0  0  0  0  0  0
    4.5981    0.8450    0.0000 N   0  0  0  0  0  0  0  0  0  0  0  0
    5.4641    3.3450    0.0000 N   0  0  0  0  0  0  0  0  0  0  0  0
    5.4641    0.3450    0.0000 C   0  0  0  0  0  0  0  0  0  0  0  0
    6.3301    0.8450    0.0000 C   0  0  0  0  0  0  0  0  0  0  0  0
    7.1962    0.3450    0.0000 C   0  0  0  0  0  0  0  0  0  0  0  0
    4.5981    1.8450    0.0000 C   0  0  0  0  0  0  0  0  0  0  0  0
    3.7320    0.3450    0.0000 C   0  0  0  0  0  0  0  0  0  0  0  0
    3.7320   -0.6550    0.0000 C   0  0  0  0  0  0  0  0  0  0  0  0
    8.0622    0.8450    0.0000 C   0  0  0  0  0  0  0  0  0  0  0  0
    5.4641    2.3450    0.0000 C   0  0  0  0  0  0  0  0  0  0  0  0
    2.8660   -1.1550    0.0000 C   0  0  0  0  0  0  0  0  0  0  0  0
    4.5981   -1.1550    0.0000 C   0  0  0  0  0  0  0  0  0  0  0  0
    3.7320   -2.6550    0.0000 C   0  0  0  0  0  0  0  0  0  0  0  0
    2.8660   -2.1550    0.0000 C   0  0  0  0  0  0  0  0  0  0  0  0
    4.5981   -2.1550    0.0000 C   0  0  0  0  0  0  0  0  0  0  0  0
    3.7320   -3.6550    0.0000 C   0  0  0  0  0  0  0  0  0  0  0  0
    5.0656   -0.1299    0.0000 H   0  0  0  0  0  0  0  0  0  0  0  0
    5.8626   -0.1299    0.0000 H   0  0  0  0  0  0  0  0  0  0  0  0
    6.7287    1.3200    0.0000 H   0  0  0  0  0  0  0  0  0  0  0  0
    5.9316    1.3200    0.0000 H   0  0  0  0  0  0  0  0  0  0  0  0
    6.7976   -0.1299    0.0000 H   0  0  0  0  0  0  0  0  0  0  0  0
    7.5947   -0.1299    0.0000 H   0  0  0  0  0  0  0  0  0  0  0  0
    4.3860    2.4276    0.0000 H   0  0  0  0  0  0  0  0  0  0  0  0
    3.9875    1.7373    0.0000 H   0  0  0  0  0  0  0  0  0  0  0  0
    8.3722    0.3081    0.0000 H   0  0  0  0  0  0  0  0  0  0  0  0
    8.5991    1.1550    0.0000 H   0  0  0  0  0  0  0  0  0  0  0  0
    7.7522    1.3819    0.0000 H   0  0  0  0  0  0  0  0  0  0  0  0
    2.3291   -0.8450    0.0000 H   0  0  0  0  0  0  0  0  0  0  0  0
    5.1350   -0.8450    0.0000 H   0  0  0  0  0  0  0  0  0  0  0  0
    5.1350   -2.4650    0.0000 H   0  0  0  0  0  0  0  0  0  0  0  0
    3.1120   -3.6550    0.0000 H   0  0  0  0  0  0  0  0  0  0  0  0
    3.7320   -4.2750    0.0000 H   0  0  0  0  0  0  0  0  0  0  0  0
    4.3520   -3.6550    0.0000 H   0  0  0  0  0  0  0  0  0  0  0  0
    6.0010    3.6550    0.0000 H   0  0  0  0  0  0  0  0  0  0  0  0
    4.9272    3.6550    0.0000 H   0  0  0  0  0  0  0  0  0  0  0  0
  1 17  1  0  0  0  0
  2 10  2  0  0  0  0
  3 13  2  0  0  0  0
  4  6  1  0  0  0  0
  4  9  1  0  0  0  0
  4 10  1  0  0  0  0
  5 13  1  0  0  0  0
  5 37  1  0  0  0  0
  5 38  1  0  0  0  0
  6  7  1  0  0  0  0
  6 20  1  0  0  0  0
  6 21  1  0  0  0  0
  7  8  1  0  0  0  0
  7 22  1  0  0  0  0
  7 23  1  0  0  0  0
  8 12  1  0  0  0  0
  8 24  1  0  0  0  0
  8 25  1  0  0  0  0
  9 13  1  0  0  0  0
  9 26  1  0  0  0  0
  9 27  1  0  0  0  0
 10 11  1  0  0  0  0
 11 14  2  0  0  0  0
 11 15  1  0  0  0  0
 12 28  1  0  0  0  0
 12 29  1  0  0  0  0
 12 30  1  0  0  0  0
 14 17  1  0  0  0  0
 14 31  1  0  0  0  0
 15 18  2  0  0  0  0
 15 32  1  0  0  0  0
 16 17  2  0  0  0  0
 16 18  1  0  0  0  0
 16 19  1  0  0  0  0
 18 33  1  0  0  0  0
 19 34  1  0  0  0  0
 19 35  1  0  0  0  0
 19 36  1  0  0  0  0
M  END
> <PUBCHEM_COMPOUND_CID>
47205724

> <PUBCHEM_COMPOUND_CANONICALIZED>
1

> <PUBCHEM_CACTVS_COMPLEXITY>
323

> <PUBCHEM_CACTVS_HBOND_ACCEPTOR>
3

> <PUBCHEM_CACTVS_HBOND_DONOR>
1

> <PUBCHEM_CACTVS_ROTATABLE_BOND>
6

> <PUBCHEM_CACTVS_SUBSKEYS>
AAADceBzMQAAAAAAAAAAAAAAAAAAAAAAAAAwAAAAAAAAAAABAAAAHwAQAAAADADBmAwyAINAAACIAiFSEACCAAAkAAAIiAGIBMgIYDKAlTGUIQhglgCIiYcYiACOQAAAAAAAAACAAAAAAAAAAAAAAAAAAA==

> <PUBCHEM_IUPAC_OPENEYE_NAME>
N-(2-amino-2-oxo-ethyl)-N-butyl-3-fluoro-4-methyl-benzamide

> <PUBCHEM_IUPAC_CAS_NAME>
N-(2-amino-2-oxoethyl)-N-butyl-3-fluoro-4-methylbenzamide

> <PUBCHEM_IUPAC_NAME>
N-(2-amino-2-oxoethyl)-N-butyl-3-fluoro-4-methylbenzamide

> <PUBCHEM_IUPAC_SYSTEMATIC_NAME>
N-(2-azanyl-2-oxidanylidene-ethyl)-N-butyl-3-fluoranyl-4-methyl-benzamide

> <PUBCHEM_IUPAC_TRADITIONAL_NAME>
N-(2-amino-2-keto-ethyl)-N-butyl-3-fluoro-4-methyl-benzamide

> <PUBCHEM_IUPAC_INCHI>
InChI=1S/C14H19FN2O2/c1-3-4-7-17(9-13(16)18)14(19)11-6-5-10(2)12(15)8-11/h5-6,8H,3-4,7,9H2,1-2H3,(H2,16,18)

> <PUBCHEM_IUPAC_INCHIKEY>
UBSGDKHFUBTUCE-UHFFFAOYSA-N

> <PUBCHEM_XLOGP3_AA>
2

> <PUBCHEM_EXACT_MASS>
266.143056

> <PUBCHEM_MOLECULAR_FORMULA>
C14H19FN2O2

> <PUBCHEM_MOLECULAR_WEIGHT>
266.311263

> <PUBCHEM_OPENEYE_CAN_SMILES>
CCCCN(CC(=O)N)C(=O)C1=CC(=C(C=C1)C)F

> <PUBCHEM_OPENEYE_ISO_SMILES>
CCCCN(CC(=O)N)C(=O)C1=CC(=C(C=C1)C)F

> <PUBCHEM_CACTVS_TPSA>
63.4

> <PUBCHEM_MONOISOTOPIC_WEIGHT>
266.143056

> <PUBCHEM_TOTAL_CHARGE>
0

> <PUBCHEM_HEAVY_ATOM_COUNT>
19

> <PUBCHEM_ATOM_DEF_STEREO_COUNT>
0

> <PUBCHEM_ATOM_UDEF_STEREO_COUNT>
0

> <PUBCHEM_BOND_DEF_STEREO_COUNT>
0

> <PUBCHEM_BOND_UDEF_STEREO_COUNT>
0

> <PUBCHEM_ISOTOPIC_ATOM_COUNT>
0

> <PUBCHEM_COMPONENT_COUNT>
1

> <PUBCHEM_CACTVS_TAUTO_COUNT>
9

> <PUBCHEM_COORDINATE_TYPE>
1
5
255

> <PUBCHEM_BONDANNOTATIONS>
11  14  8
11  15  8
14  17  8
15  18  8
16  17  8
16  18  8

$$$$

