188315
  -OEChem-07051212473D

 24 23  0     1  0  0  0  0  0999 V2000
   -1.4377    1.3755   -0.9511 O   0  0  0  0  0  0  0  0  0  0  0  0
    0.8858    2.1464    0.2168 O   0  0  0  0  0  0  0  0  0  0  0  0
   -2.1412   -1.2757   -1.3477 O   0  0  0  0  0  0  0  0  0  0  0  0
   -3.2452    0.1638    0.8484 O   0  0  0  0  0  0  0  0  0  0  0  0
    3.0126   -1.6451    0.2715 O   0  0  0  0  0  0  0  0  0  0  0  0
    2.7748    0.2457   -0.9590 O   0  0  0  0  0  0  0  0  0  0  0  0
   -0.5298    0.3402   -0.5530 C   0  0  1  0  0  0  0  0  0  0  0  0
    0.3347    0.8816    0.5998 C   0  0  1  0  0  0  0  0  0  0  0  0
   -1.3316   -0.9308   -0.2190 C   0  0  1  0  0  0  0  0  0  0  0  0
    1.4693   -0.0289    1.0831 C   0  0  0  0  0  0  0  0  0  0  0  0
   -2.2533   -0.8423    0.9994 C   0  0  0  0  0  0  0  0  0  0  0  0
    2.4616   -0.4304    0.0108 C   0  0  0  0  0  0  0  0  0  0  0  0
    0.0858    0.1458   -1.4391 H   0  0  0  0  0  0  0  0  0  0  0  0
   -0.3052    1.1054    1.4612 H   0  0  0  0  0  0  0  0  0  0  0  0
   -0.6349   -1.7619   -0.0648 H   0  0  0  0  0  0  0  0  0  0  0  0
    2.0464    0.4789    1.8647 H   0  0  0  0  0  0  0  0  0  0  0  0
    1.0375   -0.9386    1.5152 H   0  0  0  0  0  0  0  0  0  0  0  0
   -2.7886   -1.7899    1.1222 H   0  0  0  0  0  0  0  0  0  0  0  0
   -1.6968   -0.6548    1.9222 H   0  0  0  0  0  0  0  0  0  0  0  0
   -0.9165    2.0701   -1.3881 H   0  0  0  0  0  0  0  0  0  0  0  0
    0.1517    2.7811    0.1586 H   0  0  0  0  0  0  0  0  0  0  0  0
   -2.7582   -0.5394   -1.5004 H   0  0  0  0  0  0  0  0  0  0  0  0
   -2.7882    1.0191    0.7809 H   0  0  0  0  0  0  0  0  0  0  0  0
    3.6685   -1.9027   -0.4110 H   0  0  0  0  0  0  0  0  0  0  0  0
  1  7  1  0  0  0  0
  1 20  1  0  0  0  0
  2  8  1  0  0  0  0
  2 21  1  0  0  0  0
  3  9  1  0  0  0  0
  3 22  1  0  0  0  0
  4 11  1  0  0  0  0
  4 23  1  0  0  0  0
  5 12  1  0  0  0  0
  5 24  1  0  0  0  0
  6 12  2  0  0  0  0
  7  8  1  0  0  0  0
  7  9  1  0  0  0  0
  7 13  1  0  0  0  0
  8 10  1  0  0  0  0
  8 14  1  0  0  0  0
  9 11  1  0  0  0  0
  9 15  1  0  0  0  0
 10 12  1  0  0  0  0
 10 16  1  0  0  0  0
 10 17  1  0  0  0  0
 11 18  1  0  0  0  0
 11 19  1  0  0  0  0
M  END
> <PUBCHEM_COMPOUND_CID>
188315

> <PUBCHEM_CONFORMER_RMSD>
0.6

> <PUBCHEM_CONFORMER_DIVERSEORDER>
1
29
76
66
83
80
61
43
75
33
20
37
28
68
71
12
59
73
53
51
65
54
22
81
10
62
67
32
55
38
79
85
69
31
58
5
39
77
74
4
84
40
17
15
6
47
64
72
44
30
2
52
35
19
18
60
36
21
42
56
49
23
11
41
70
46
50
24
45
7
8
26
57
63
48
14
25
27
78
34
13
86
16
82
9
3

> <PUBCHEM_MMFF94_PARTIAL_CHARGES>
17
1 -0.68
10 0.06
11 0.28
12 0.66
2 -0.68
20 0.4
21 0.4
22 0.4
23 0.4
24 0.5
3 -0.68
4 -0.68
5 -0.65
6 -0.57
7 0.28
8 0.28
9 0.28

> <PUBCHEM_EFFECTIVE_ROTOR_COUNT>
5

> <PUBCHEM_PHARMACOPHORE_FEATURES>
11
1 1 acceptor
1 1 donor
1 2 acceptor
1 2 donor
1 3 acceptor
1 3 donor
1 4 acceptor
1 4 donor
1 5 acceptor
1 6 acceptor
3 5 6 12 anion

> <PUBCHEM_HEAVY_ATOM_COUNT>
12

> <PUBCHEM_ATOM_DEF_STEREO_COUNT>
3

> <PUBCHEM_ATOM_UDEF_STEREO_COUNT>
0

> <PUBCHEM_BOND_DEF_STEREO_COUNT>
0

> <PUBCHEM_BOND_UDEF_STEREO_COUNT>
0

> <PUBCHEM_ISOTOPIC_ATOM_COUNT>
0

> <PUBCHEM_COMPONENT_COUNT>
1

> <PUBCHEM_CACTVS_TAUTO_COUNT>
1

> <PUBCHEM_CONFORMER_ID>
0002DF9B00000001

> <PUBCHEM_MMFF94_ENERGY>
22.9135

> <PUBCHEM_FEATURE_SELFOVERLAP>
55.914

> <PUBCHEM_SHAPE_FINGERPRINT>
12897270 3 16128379272207558378
12932764 1 18334860506630258780
15310529 11 18131063848873584190
161256 15 18271808951990059321
16945 1 18270686342212437472
18511873 20 18113328730739144979
20651381 17 8718551566724123080
20653085 51 12678912297267392282
20653091 64 17823987727436556330
20711985 344 17986132895978952572
207724 885 18261104184254532387
21061003 4 18261401039809972856
21922407 69 17317615270841852001
228727 97 12607404382055674887
23552423 10 18118407245813947461
369184 2 6050440414187199607
5084963 1 17968391030466513855

> <PUBCHEM_SHAPE_MULTIPOLES>
211.74
4.48
1.58
1.15
0.43
0.39
-0.06
-1.6
0.18
0.3
-0.09
-0.4
-0.09
-0.08

> <PUBCHEM_SHAPE_SELFOVERLAP>
402.676

> <PUBCHEM_SHAPE_VOLUME>
129.3

> <PUBCHEM_COORDINATE_TYPE>
2
5
10

$$$$

