363262
  -OEChem-07051213092D

 41 44  0     1  0  0  0  0  0999 V2000
    5.1804    1.3036    0.0000 O   0  0  0  0  0  0  0  0  0  0  0  0
    6.9464    2.3414    0.0000 O   0  0  0  0  0  0  0  0  0  0  0  0
    2.5381   -0.2037    0.0000 O   0  0  0  0  0  0  0  0  0  0  0  0
    7.7925   -2.2248    0.0000 N   0  0  0  0  0  0  0  0  0  0  0  0
    6.9343   -1.7278    0.0000 C   0  0  1  0  0  0  0  0  0  0  0  0
    6.9343   -0.7278    0.0000 C   0  0  0  0  0  0  0  0  0  0  0  0
    6.0682   -2.2278    0.0000 C   0  0  0  0  0  0  0  0  0  0  0  0
    7.8443   -0.2210    0.0000 C   0  0  0  0  0  0  0  0  0  0  0  0
    6.0682   -0.2278    0.0000 C   0  0  0  0  0  0  0  0  0  0  0  0
    8.6836   -0.7492    0.0000 C   0  0  0  0  0  0  0  0  0  0  0  0
    8.6580   -1.7406    0.0000 C   0  0  0  0  0  0  0  0  0  0  0  0
    5.2022   -1.7278    0.0000 C   0  0  0  0  0  0  0  0  0  0  0  0
    5.2022   -0.7278    0.0000 C   0  0  0  0  0  0  0  0  0  0  0  0
    6.0522    0.8137    0.0000 C   0  0  0  0  0  0  0  0  0  0  0  0
    7.8523    0.8206    0.0000 C   0  0  0  0  0  0  0  0  0  0  0  0
    6.9502    1.3414    0.0000 C   0  0  0  0  0  0  0  0  0  0  0  0
    4.3083   -2.2625    0.0000 C   0  0  0  0  0  0  0  0  0  0  0  0
    4.3083   -0.1932    0.0000 C   0  0  0  0  0  0  0  0  0  0  0  0
    3.4022   -0.7070    0.0000 C   0  0  0  0  0  0  0  0  0  0  0  0
    3.4022   -1.7486    0.0000 C   0  0  0  0  0  0  0  0  0  0  0  0
    5.1689    2.3036    0.0000 C   0  0  0  0  0  0  0  0  0  0  0  0
    7.8105    2.8448    0.0000 C   0  0  0  0  0  0  0  0  0  0  0  0
    6.9337   -2.5778    0.0000 H   0  0  0  0  0  0  0  0  0  0  0  0
    5.6697   -2.7028    0.0000 H   0  0  0  0  0  0  0  0  0  0  0  0
    6.4668   -2.7028    0.0000 H   0  0  0  0  0  0  0  0  0  0  0  0
    9.2907   -0.8751    0.0000 H   0  0  0  0  0  0  0  0  0  0  0  0
    8.9154   -0.1742    0.0000 H   0  0  0  0  0  0  0  0  0  0  0  0
    7.7879   -2.8448    0.0000 H   0  0  0  0  0  0  0  0  0  0  0  0
    8.8597   -2.3268    0.0000 H   0  0  0  0  0  0  0  0  0  0  0  0
    9.2708   -1.6462    0.0000 H   0  0  0  0  0  0  0  0  0  0  0  0
    8.3904    1.1285    0.0000 H   0  0  0  0  0  0  0  0  0  0  0  0
    4.3154   -2.8825    0.0000 H   0  0  0  0  0  0  0  0  0  0  0  0
    4.3154    0.4268    0.0000 H   0  0  0  0  0  0  0  0  0  0  0  0
    2.8665   -2.0607    0.0000 H   0  0  0  0  0  0  0  0  0  0  0  0
    5.7888    2.3107    0.0000 H   0  0  0  0  0  0  0  0  0  0  0  0
    5.1617    2.9235    0.0000 H   0  0  0  0  0  0  0  0  0  0  0  0
    4.5489    2.2964    0.0000 H   0  0  0  0  0  0  0  0  0  0  0  0
    8.1225    2.3090    0.0000 H   0  0  0  0  0  0  0  0  0  0  0  0
    8.3462    3.1568    0.0000 H   0  0  0  0  0  0  0  0  0  0  0  0
    7.4984    3.3805    0.0000 H   0  0  0  0  0  0  0  0  0  0  0  0
    2.0000   -0.5116    0.0000 H   0  0  0  0  0  0  0  0  0  0  0  0
  1 14  1  0  0  0  0
  1 21  1  0  0  0  0
  2 16  1  0  0  0  0
  2 22  1  0  0  0  0
  3 19  1  0  0  0  0
  3 41  1  0  0  0  0
  4  5  1  0  0  0  0
  4 11  1  0  0  0  0
  4 28  1  0  0  0  0
  5  6  1  0  0  0  0
  5  7  1  0  0  0  0
  5 23  1  1  0  0  0
  6  8  1  0  0  0  0
  6  9  2  0  0  0  0
  7 12  1  0  0  0  0
  7 24  1  0  0  0  0
  7 25  1  0  0  0  0
  8 10  1  0  0  0  0
  8 15  2  0  0  0  0
  9 13  1  0  0  0  0
  9 14  1  0  0  0  0
 10 11  1  0  0  0  0
 10 26  1  0  0  0  0
 10 27  1  0  0  0  0
 11 29  1  0  0  0  0
 11 30  1  0  0  0  0
 12 13  2  0  0  0  0
 12 17  1  0  0  0  0
 13 18  1  0  0  0  0
 14 16  2  0  0  0  0
 15 16  1  0  0  0  0
 15 31  1  0  0  0  0
 17 20  2  0  0  0  0
 17 32  1  0  0  0  0
 18 19  2  0  0  0  0
 18 33  1  0  0  0  0
 19 20  1  0  0  0  0
 20 34  1  0  0  0  0
 21 35  1  0  0  0  0
 21 36  1  0  0  0  0
 21 37  1  0  0  0  0
 22 38  1  0  0  0  0
 22 39  1  0  0  0  0
 22 40  1  0  0  0  0
M  END
> <PUBCHEM_COMPOUND_CID>
363262

> <PUBCHEM_COMPOUND_CANONICALIZED>
1

> <PUBCHEM_CACTVS_COMPLEXITY>
404

> <PUBCHEM_CACTVS_HBOND_ACCEPTOR>
4

> <PUBCHEM_CACTVS_HBOND_DONOR>
2

> <PUBCHEM_CACTVS_ROTATABLE_BOND>
2

> <PUBCHEM_CACTVS_SUBSKEYS>
AAADceB6MAAAAAAAAAAAAAAAAAAAAAAAAAA8YMEAAAAAAADxQAAAHgAQCAAADCzBmAYyBoLABgCAAiBCAACCCAAgIAAIiIAOjIgNJiKGsRuEcCpk0BGKuAew8P8OoAADAAAYQADQAAaAADSAAAAAAAAAAA==

> <PUBCHEM_IUPAC_OPENEYE_NAME>
(8R)-1,2-dimethoxy-5,6,6a,7-tetrahydro-4H-dibenzo[de,g]quinoline-13-ol

> <PUBCHEM_IUPAC_CAS_NAME>
(8R)-1,2-dimethoxy-5,6,6a,7-tetrahydro-4H-dibenzo[de,g]quinoline-13-ol

> <PUBCHEM_IUPAC_NAME>
(8R)-1,2-dimethoxy-5,6,6a,7-tetrahydro-4H-dibenzo[de,g]quinoline-13-ol

> <PUBCHEM_IUPAC_SYSTEMATIC_NAME>
(8R)-1,2-dimethoxy-5,6,6a,7-tetrahydro-4H-dibenzo[de,g]quinoline-13-ol

> <PUBCHEM_IUPAC_TRADITIONAL_NAME>
(8R)-1,2-dimethoxy-5,6,6a,7-tetrahydro-4H-dibenzo[de,g]quinoline-13-ol

> <PUBCHEM_IUPAC_INCHI>
InChI=1S/C18H19NO3/c1-21-15-8-11-5-6-19-14-7-10-3-4-12(20)9-13(10)17(16(11)14)18(15)22-2/h3-4,8-9,14,19-20H,5-7H2,1-2H3/t14-/m1/s1

> <PUBCHEM_IUPAC_INCHIKEY>
KUECBJOPWMRHEX-CQSZACIVSA-N

> <PUBCHEM_XLOGP3_AA>
2.6

> <PUBCHEM_EXACT_MASS>
297.136493

> <PUBCHEM_MOLECULAR_FORMULA>
C18H19NO3

> <PUBCHEM_MOLECULAR_WEIGHT>
297.34836

> <PUBCHEM_OPENEYE_CAN_SMILES>
COC1=C(C2=C3C(CC4=C2C=C(C=C4)O)NCCC3=C1)OC

> <PUBCHEM_OPENEYE_ISO_SMILES>
COC1=C(C2=C3[C@@H](CC4=C2C=C(C=C4)O)NCCC3=C1)OC

> <PUBCHEM_CACTVS_TPSA>
50.7

> <PUBCHEM_MONOISOTOPIC_WEIGHT>
297.136493

> <PUBCHEM_TOTAL_CHARGE>
0

> <PUBCHEM_HEAVY_ATOM_COUNT>
22

> <PUBCHEM_ATOM_DEF_STEREO_COUNT>
1

> <PUBCHEM_ATOM_UDEF_STEREO_COUNT>
0

> <PUBCHEM_BOND_DEF_STEREO_COUNT>
0

> <PUBCHEM_BOND_UDEF_STEREO_COUNT>
0

> <PUBCHEM_ISOTOPIC_ATOM_COUNT>
0

> <PUBCHEM_COMPONENT_COUNT>
1

> <PUBCHEM_CACTVS_TAUTO_COUNT>
3

> <PUBCHEM_COORDINATE_TYPE>
1
5
255

> <PUBCHEM_BONDANNOTATIONS>
12  13  8
12  17  8
13  18  8
14  16  8
15  16  8
17  20  8
18  19  8
19  20  8
5  23  5
6  8  8
6  9  8
8  15  8
9  14  8

$$$$

