11954070
  -OEChem-07051213062D

 44 43  0     1  0  0  0  0  0999 V2000
    6.8671   -2.9050    0.0000 Cl  0  0  0  0  0  0  0  0  0  0  0  0
    6.0010   -1.4050    0.0000 Cl  0  0  0  0  0  0  0  0  0  0  0  0
    7.7331   -0.4050    0.0000 S   0  0  0  0  0  0  0  0  0  0  0  0
    6.8671    0.0950    0.0000 O   0  0  0  0  0  0  0  0  0  0  0  0
    9.4651    2.5950    0.0000 O   0  0  0  0  0  0  0  0  0  0  0  0
    8.5991   -1.9050    0.0000 O   0  0  0  0  0  0  0  0  0  0  0  0
    2.5369    1.5950    0.0000 O   0  0  0  0  0  0  0  0  0  0  0  0
    3.4030    0.0950    0.0000 O   0  0  0  0  0  0  0  0  0  0  0  0
   12.9292    1.5950    0.0000 O   0  0  0  0  0  0  0  0  0  0  0  0
   12.0632    0.0950    0.0000 O   0  0  0  0  0  0  0  0  0  0  0  0
    7.7331    1.5950    0.0000 N   0  0  0  0  0  0  0  0  0  0  0  0
   10.3312    1.0950    0.0000 N   0  0  0  0  0  0  0  0  0  0  0  0
    4.2690    2.5950    0.0000 N   0  0  0  0  0  0  0  0  0  0  0  0
    8.5991    1.0950    0.0000 C   0  0  1  0  0  0  0  0  0  0  0  0
    5.1350    1.0950    0.0000 C   0  0  0  0  0  0  0  0  0  0  0  0
    6.0010    1.5950    0.0000 C   0  0  0  0  0  0  0  0  0  0  0  0
    8.5991    0.0950    0.0000 C   0  0  0  0  0  0  0  0  0  0  0  0
    4.2690    1.5950    0.0000 C   0  0  1  0  0  0  0  0  0  0  0  0
    6.8671    1.0950    0.0000 C   0  0  0  0  0  0  0  0  0  0  0  0
    9.4651    1.5950    0.0000 C   0  0  0  0  0  0  0  0  0  0  0  0
    7.7331   -1.4050    0.0000 C   0  0  3  0  0  0  0  0  0  0  0  0
    3.4030    1.0950    0.0000 C   0  0  0  0  0  0  0  0  0  0  0  0
   11.1972    1.5950    0.0000 C   0  0  0  0  0  0  0  0  0  0  0  0
    6.8671   -1.9050    0.0000 C   0  0  0  0  0  0  0  0  0  0  0  0
   12.0632    1.0950    0.0000 C   0  0  0  0  0  0  0  0  0  0  0  0
    8.5991    1.7150    0.0000 H   0  0  0  0  0  0  0  0  0  0  0  0
    4.7365    0.6201    0.0000 H   0  0  0  0  0  0  0  0  0  0  0  0
    5.5335    0.6201    0.0000 H   0  0  0  0  0  0  0  0  0  0  0  0
    6.3996    2.0700    0.0000 H   0  0  0  0  0  0  0  0  0  0  0  0
    5.6025    2.0700    0.0000 H   0  0  0  0  0  0  0  0  0  0  0  0
    8.8112   -0.4876    0.0000 H   0  0  0  0  0  0  0  0  0  0  0  0
    9.2097    0.2027    0.0000 H   0  0  0  0  0  0  0  0  0  0  0  0
    7.7331    2.2150    0.0000 H   0  0  0  0  0  0  0  0  0  0  0  0
    4.8059    1.9050    0.0000 H   0  0  0  0  0  0  0  0  0  0  0  0
   10.3312    0.4750    0.0000 H   0  0  0  0  0  0  0  0  0  0  0  0
    7.7331   -2.2550    0.0000 H   0  0  0  0  0  0  0  0  0  0  0  0
    3.7320    2.9050    0.0000 H   0  0  0  0  0  0  0  0  0  0  0  0
    4.8059    2.9050    0.0000 H   0  0  0  0  0  0  0  0  0  0  0  0
   11.5957    2.0700    0.0000 H   0  0  0  0  0  0  0  0  0  0  0  0
   10.7987    2.0700    0.0000 H   0  0  0  0  0  0  0  0  0  0  0  0
    6.3301   -2.2150    0.0000 H   0  0  0  0  0  0  0  0  0  0  0  0
    8.5991   -2.5250    0.0000 H   0  0  0  0  0  0  0  0  0  0  0  0
    2.0000    1.2850    0.0000 H   0  0  0  0  0  0  0  0  0  0  0  0
   13.4662    1.2850    0.0000 H   0  0  0  0  0  0  0  0  0  0  0  0
  1 24  1  0  0  0  0
  2 24  1  0  0  0  0
  3 17  1  0  0  0  0
  3 21  1  0  0  0  0
  4 19  2  0  0  0  0
  5 20  2  0  0  0  0
  6 21  1  0  0  0  0
  6 42  1  0  0  0  0
  7 22  1  0  0  0  0
  7 43  1  0  0  0  0
  8 22  2  0  0  0  0
  9 25  1  0  0  0  0
  9 44  1  0  0  0  0
 10 25  2  0  0  0  0
 14 11  1  6  0  0  0
 11 19  1  0  0  0  0
 11 33  1  0  0  0  0
 12 20  1  0  0  0  0
 12 23  1  0  0  0  0
 12 35  1  0  0  0  0
 18 13  1  1  0  0  0
 13 37  1  0  0  0  0
 13 38  1  0  0  0  0
 14 17  1  0  0  0  0
 14 20  1  0  0  0  0
 14 26  1  0  0  0  0
 15 16  1  0  0  0  0
 15 18  1  0  0  0  0
 15 27  1  0  0  0  0
 15 28  1  0  0  0  0
 16 19  1  0  0  0  0
 16 29  1  0  0  0  0
 16 30  1  0  0  0  0
 17 31  1  0  0  0  0
 17 32  1  0  0  0  0
 18 22  1  0  0  0  0
 18 34  1  0  0  0  0
 21 24  1  0  0  0  0
 21 36  1  0  0  0  0
 23 25  1  0  0  0  0
 23 39  1  0  0  0  0
 23 40  1  0  0  0  0
 24 41  1  0  0  0  0
M  END
> <PUBCHEM_COMPOUND_CID>
11954070

> <PUBCHEM_COMPOUND_CANONICALIZED>
1

> <PUBCHEM_CACTVS_COMPLEXITY>
495

> <PUBCHEM_CACTVS_HBOND_ACCEPTOR>
9

> <PUBCHEM_CACTVS_HBOND_DONOR>
6

> <PUBCHEM_CACTVS_ROTATABLE_BOND>
12

> <PUBCHEM_CACTVS_SUBSKEYS>
AAADceBzOABGAAAAAAAAAAAAAAAAAAAAAAAAAAAAAAAAAAAAAAAAHgYQCAAACCvlwMaACALAAggIAAGQGAAAAAAAABAAAIGIAQACUBIggCAUQAAEFgCwAACcFwIAAAAAAAAAAAAAAAAAAAAAAAAAAAAAAA==

> <PUBCHEM_IUPAC_OPENEYE_NAME>
(2S)-2-amino-5-[[(1R)-2-(carboxymethylamino)-1-[(2,2-dichloro-1-hydroxy-ethyl)sulfanylmethyl]-2-oxo-ethyl]amino]-5-oxo-pentanoic acid

> <PUBCHEM_IUPAC_CAS_NAME>
(2S)-2-amino-5-[[(2R)-1-(carboxymethylamino)-3-[(2,2-dichloro-1-hydroxyethyl)thio]-1-oxopropan-2-yl]amino]-5-oxopentanoic acid

> <PUBCHEM_IUPAC_NAME>
(2S)-2-amino-5-[[(2R)-1-(carboxymethylamino)-3-(2,2-dichloro-1-hydroxyethyl)sulfanyl-1-oxopropan-2-yl]amino]-5-oxopentanoic acid

> <PUBCHEM_IUPAC_SYSTEMATIC_NAME>
(2S)-2-azanyl-5-[[(2R)-3-[2,2-bis(chloranyl)-1-oxidanyl-ethyl]sulfanyl-1-(2-hydroxy-2-oxoethylamino)-1-oxidanylidene-propan-2-yl]amino]-5-oxidanylidene-pentanoic acid

> <PUBCHEM_IUPAC_TRADITIONAL_NAME>
(2S)-2-amino-5-[[(1R)-2-(carboxymethylamino)-1-[[(2,2-dichloro-1-hydroxy-ethyl)thio]methyl]-2-keto-ethyl]amino]-5-keto-valeric acid

> <PUBCHEM_IUPAC_INCHI>
InChI=1S/C12H19Cl2N3O7S/c13-9(14)12(24)25-4-6(10(21)16-3-8(19)20)17-7(18)2-1-5(15)11(22)23/h5-6,9,12,24H,1-4,15H2,(H,16,21)(H,17,18)(H,19,20)(H,22,23)/t5-,6-,12?/m0/s1

> <PUBCHEM_IUPAC_INCHIKEY>
RULDRNMMLPUXQI-LBHDVABESA-N

> <PUBCHEM_XLOGP3_AA>
-3.3

> <PUBCHEM_EXACT_MASS>
419.032076

> <PUBCHEM_MOLECULAR_FORMULA>
C12H19Cl2N3O7S

> <PUBCHEM_MOLECULAR_WEIGHT>
420.26616

> <PUBCHEM_OPENEYE_CAN_SMILES>
C(CC(=O)NC(CSC(C(Cl)Cl)O)C(=O)NCC(=O)O)C(C(=O)O)N

> <PUBCHEM_OPENEYE_ISO_SMILES>
C(CC(=O)N[C@@H](CSC(C(Cl)Cl)O)C(=O)NCC(=O)O)[C@@H](C(=O)O)N

> <PUBCHEM_CACTVS_TPSA>
204

> <PUBCHEM_MONOISOTOPIC_WEIGHT>
419.032076

> <PUBCHEM_TOTAL_CHARGE>
0

> <PUBCHEM_HEAVY_ATOM_COUNT>
25

> <PUBCHEM_ATOM_DEF_STEREO_COUNT>
2

> <PUBCHEM_ATOM_UDEF_STEREO_COUNT>
1

> <PUBCHEM_BOND_DEF_STEREO_COUNT>
0

> <PUBCHEM_BOND_UDEF_STEREO_COUNT>
0

> <PUBCHEM_ISOTOPIC_ATOM_COUNT>
0

> <PUBCHEM_COMPONENT_COUNT>
1

> <PUBCHEM_CACTVS_TAUTO_COUNT>
4

> <PUBCHEM_COORDINATE_TYPE>
1
5
255

> <PUBCHEM_BONDANNOTATIONS>
14  11  6
18  13  5
21  36  3

$$$$

