24892775
  -OEChem-07051213023D

 58 60  0     1  0  0  0  0  0999 V2000
   -1.1183   -2.5895    0.0990 P   0  0  2  0  0  0  0  0  0  0  0  0
   -4.0341   -2.1960    0.1093 P   0  0  1  0  0  0  0  0  0  0  0  0
    2.3323   -0.8438    2.0099 O   0  0  0  0  0  0  0  0  0  0  0  0
    1.7150    1.2376    4.1682 O   0  0  0  0  0  0  0  0  0  0  0  0
   -0.0666   -2.0538    1.2053 O   0  0  0  0  0  0  0  0  0  0  0  0
   -2.3799    0.6768   -1.2817 O   0  0  0  0  0  0  0  0  0  0  0  0
   -3.9869   -1.0019   -0.9763 O   0  0  0  0  0  0  0  0  0  0  0  0
   -2.5510   -2.2240    0.7520 O   0  0  0  0  0  0  0  0  0  0  0  0
   -2.3711    4.2635   -0.5263 O   0  0  0  0  0  0  0  0  0  0  0  0
    5.6978    1.2852    0.9108 O   0  0  0  0  0  0  0  0  0  0  0  0
   -1.0516   -4.1990    0.2463 O   0  0  0  0  0  0  0  0  0  0  0  0
   -4.8723    3.4868    0.1472 O   0  0  0  0  0  0  0  0  0  0  0  0
   -0.9171   -2.0718   -1.2953 O   0  0  0  0  0  0  0  0  0  0  0  0
    5.1628   -0.3460   -3.3555 O   0  0  0  0  0  0  0  0  0  0  0  0
   -4.9484   -1.6171    1.3120 O   0  0  0  0  0  0  0  0  0  0  0  0
   -4.4933   -3.5169   -0.4368 O   0  0  0  0  0  0  0  0  0  0  0  0
    3.7180    0.1537    0.4099 N   0  0  0  0  0  0  0  0  0  0  0  0
    5.4175    0.4672   -1.2135 N   0  0  0  0  0  0  0  0  0  0  0  0
    1.2237    1.0809    2.8389 C   0  0  2  0  0  0  0  0  0  0  0  0
    1.0600   -0.3982    2.5181 C   0  0  1  0  0  0  0  0  0  0  0  0
    2.2750    1.5310    1.8510 C   0  0  0  0  0  0  0  0  0  0  0  0
    3.1525    0.2969    1.7195 C   0  0  1  0  0  0  0  0  0  0  0  0
    0.0101   -0.6595    1.4460 C   0  0  0  0  0  0  0  0  0  0  0  0
    2.9830   -0.5172   -0.5591 C   0  0  0  0  0  0  0  0  0  0  0  0
    4.9910    0.6798    0.1021 C   0  0  0  0  0  0  0  0  0  0  0  0
   -1.8517    1.9233   -0.8103 C   0  0  2  0  0  0  0  0  0  0  0  0
   -2.8411    3.0564   -1.0903 C   0  0  1  0  0  0  0  0  0  0  0  0
   -3.5670    0.3001   -0.5780 C   0  0  2  0  0  0  0  0  0  0  0  0
   -4.6843    1.3062   -0.8284 C   0  0  0  0  0  0  0  0  0  0  0  0
    3.3940   -0.7189   -1.8172 C   0  0  0  0  0  0  0  0  0  0  0  0
   -4.1895    2.6918   -0.4941 C   0  0  0  0  0  0  0  0  0  0  0  0
    4.7265   -0.1940   -2.2176 C   0  0  0  0  0  0  0  0  0  0  0  0
   -0.5216    2.1545   -1.5200 C   0  0  0  0  0  0  0  0  0  0  0  0
    2.5865   -1.4441   -2.8453 C   0  0  0  0  0  0  0  0  0  0  0  0
    0.2954    1.6546    2.7599 H   0  0  0  0  0  0  0  0  0  0  0  0
    0.8445   -0.9997    3.4081 H   0  0  0  0  0  0  0  0  0  0  0  0
    1.8008    1.7826    0.8946 H   0  0  0  0  0  0  0  0  0  0  0  0
    2.8515    2.4007    2.1815 H   0  0  0  0  0  0  0  0  0  0  0  0
    3.9532    0.3218    2.4682 H   0  0  0  0  0  0  0  0  0  0  0  0
    0.2304   -0.1454    0.5094 H   0  0  0  0  0  0  0  0  0  0  0  0
   -0.9674   -0.3123    1.7976 H   0  0  0  0  0  0  0  0  0  0  0  0
    1.0340    0.8944    4.7716 H   0  0  0  0  0  0  0  0  0  0  0  0
    2.0189   -0.9080   -0.2763 H   0  0  0  0  0  0  0  0  0  0  0  0
   -1.6473    1.8446    0.2659 H   0  0  0  0  0  0  0  0  0  0  0  0
   -2.9851    3.1941   -2.1685 H   0  0  0  0  0  0  0  0  0  0  0  0
   -3.3277    0.2858    0.4929 H   0  0  0  0  0  0  0  0  0  0  0  0
   -5.5646    1.0620   -0.2253 H   0  0  0  0  0  0  0  0  0  0  0  0
   -4.9880    1.2986   -1.8811 H   0  0  0  0  0  0  0  0  0  0  0  0
    6.3319    0.8371   -1.4580 H   0  0  0  0  0  0  0  0  0  0  0  0
    0.1519    1.3058   -1.3634 H   0  0  0  0  0  0  0  0  0  0  0  0
   -0.0261    3.0615   -1.1613 H   0  0  0  0  0  0  0  0  0  0  0  0
   -0.6666    2.2388   -2.6028 H   0  0  0  0  0  0  0  0  0  0  0  0
    2.3598   -0.7836   -3.6885 H   0  0  0  0  0  0  0  0  0  0  0  0
    1.6362   -1.8052   -2.4403 H   0  0  0  0  0  0  0  0  0  0  0  0
    3.1370   -2.3126   -3.2213 H   0  0  0  0  0  0  0  0  0  0  0  0
   -2.9837    4.9699   -0.7932 H   0  0  0  0  0  0  0  0  0  0  0  0
   -1.2039   -4.6008    1.1281 H   0  0  0  0  0  0  0  0  0  0  0  0
   -5.2291   -2.2247    2.0290 H   0  0  0  0  0  0  0  0  0  0  0  0
  1  5  1  0  0  0  0
  1  8  1  0  0  0  0
  1 11  1  0  0  0  0
  1 13  2  0  0  0  0
  2  7  1  0  0  0  0
  2  8  1  0  0  0  0
  2 15  1  0  0  0  0
  2 16  2  0  0  0  0
  3 20  1  0  0  0  0
  3 22  1  0  0  0  0
  4 19  1  0  0  0  0
  4 42  1  0  0  0  0
  5 23  1  0  0  0  0
  6 26  1  0  0  0  0
  6 28  1  0  0  0  0
  7 28  1  0  0  0  0
  9 27  1  0  0  0  0
  9 56  1  0  0  0  0
 10 25  2  0  0  0  0
 11 57  1  0  0  0  0
 12 31  2  0  0  0  0
 14 32  2  0  0  0  0
 15 58  1  0  0  0  0
 17 22  1  0  0  0  0
 17 24  1  0  0  0  0
 17 25  1  0  0  0  0
 18 25  1  0  0  0  0
 18 32  1  0  0  0  0
 18 49  1  0  0  0  0
 19 20  1  0  0  0  0
 19 21  1  0  0  0  0
 19 35  1  0  0  0  0
 20 23  1  0  0  0  0
 20 36  1  0  0  0  0
 21 22  1  0  0  0  0
 21 37  1  0  0  0  0
 21 38  1  0  0  0  0
 22 39  1  0  0  0  0
 23 40  1  0  0  0  0
 23 41  1  0  0  0  0
 24 30  2  0  0  0  0
 24 43  1  0  0  0  0
 26 27  1  0  0  0  0
 26 33  1  0  0  0  0
 26 44  1  0  0  0  0
 27 31  1  0  0  0  0
 27 45  1  0  0  0  0
 28 29  1  0  0  0  0
 28 46  1  0  0  0  0
 29 31  1  0  0  0  0
 29 47  1  0  0  0  0
 29 48  1  0  0  0  0
 30 32  1  0  0  0  0
 30 34  1  0  0  0  0
 33 50  1  0  0  0  0
 33 51  1  0  0  0  0
 33 52  1  0  0  0  0
 34 53  1  0  0  0  0
 34 54  1  0  0  0  0
 34 55  1  0  0  0  0
M  END
> <PUBCHEM_COMPOUND_CID>
24892775

> <PUBCHEM_CONFORMER_RMSD>
1.4

> <PUBCHEM_CONFORMER_DIVERSEORDER>
1
56
14
97
10
142
130
54
86
7
104
17
58
15
96
128
43
151
34
93
24
55
73
44
13
121
49
129
85
123
89
119
140
47
107
77
134
91
88
114
116
99
106
126
101
23
120
64
48
30
110
60
31
144
141
79
57
28
72
26
145
95
51
100
40
127
132
117
61
42
150
83
148
98
131
35
139
87
124
135
16
122
25
33
92
137
46
69
76
67
147
133
84
6
38
71
41
70
80
143
9
81
11
109
111
149
53
45
39
59
102
125
108
18
113
27
2
112
36
66
78
105
65
63
118
146
62
68
12
52
20
8
75
5
4
94
138
21
90
22
103
37
82
115
19
3
136
74
32
50
29

> <PUBCHEM_MMFF94_PARTIAL_CHARGES>
38
1 1.51
10 -0.57
11 -0.77
12 -0.57
13 -0.7
14 -0.57
15 -0.77
16 -0.7
17 -0.47
18 -0.49
19 0.28
2 1.51
20 0.28
22 0.58
23 0.28
24 -0.04
25 0.69
26 0.28
27 0.34
28 0.56
29 0.06
3 -0.56
30 -0.12
31 0.45
32 0.62
34 0.14
4 -0.68
42 0.4
43 0.15
49 0.37
5 -0.55
56 0.4
57 0.5
58 0.5
6 -0.56
7 -0.55
8 -0.54
9 -0.68

> <PUBCHEM_EFFECTIVE_ROTOR_COUNT>
10

> <PUBCHEM_PHARMACOPHORE_FEATURES>
17
1 10 acceptor
1 11 acceptor
1 12 acceptor
1 13 acceptor
1 14 acceptor
1 15 acceptor
1 16 acceptor
1 18 donor
1 3 acceptor
1 4 acceptor
1 4 donor
1 6 acceptor
1 9 acceptor
1 9 donor
5 3 19 20 21 22 rings
6 17 18 24 25 30 32 rings
6 6 26 27 28 29 31 rings

> <PUBCHEM_HEAVY_ATOM_COUNT>
34

> <PUBCHEM_ATOM_DEF_STEREO_COUNT>
6

> <PUBCHEM_ATOM_UDEF_STEREO_COUNT>
0

> <PUBCHEM_BOND_DEF_STEREO_COUNT>
0

> <PUBCHEM_BOND_UDEF_STEREO_COUNT>
0

> <PUBCHEM_ISOTOPIC_ATOM_COUNT>
0

> <PUBCHEM_COMPONENT_COUNT>
1

> <PUBCHEM_CACTVS_TAUTO_COUNT>
15

> <PUBCHEM_CONFORMER_ID>
017BD56700000001

> <PUBCHEM_MMFF94_ENERGY>
29.4319

> <PUBCHEM_FEATURE_SELFOVERLAP>
86.294

> <PUBCHEM_SHAPE_FINGERPRINT>
10615611 76 17275100652082829309
10670039 82 18272100391258891003
12788726 201 18058998480686634694
13782708 43 18040996202733735062
13947920 75 17988917865122999358
14251757 17 18040996288679637374
14840074 17 17632009866576159765
15001296 14 18059574642503186909
15021287 119 16557082253592022842
15163728 17 18271800293626218931
15297060 5 18339080492350594121
15484559 13 14790751084297671616
15684970 41 17623277274746234563
16067690 210 18059010571051162861
17138139 8 17201915925482704370
20511986 3 17131565984666744180
21033650 10 18272073982122452314
21987440 362 17544511955155595712
22122407 14 15482406325592061863
23536364 44 17895467145809374794
3052486 1 18202289095197294860
46194498 28 18042968662342846616
50150288 127 15979984703130043230
508706 21 18261399931592431055
5895379 119 18201997725201620524
7808743 9 18341902934499099137

> <PUBCHEM_SHAPE_MULTIPOLES>
615.27
11.69
4.14
3.13
3.33
0.12
-1.31
-2.53
4.75
-7.67
0.47
4.82
-0.35
2.22

> <PUBCHEM_SHAPE_SELFOVERLAP>
1252.621

> <PUBCHEM_SHAPE_VOLUME>
358.4

> <PUBCHEM_COORDINATE_TYPE>
2
5
10

$$$$

