23424575
  -OEChem-07051213102D

 58 61  0     1  0  0  0  0  0999 V2000
    3.5000   -3.2440    0.0000 Br  0  0  0  0  0  0  0  0  0  0  0  0
    3.5000    0.2201    0.0000 Br  0  0  0  0  0  0  0  0  0  0  0  0
   11.8929    2.5147    0.0000 Br  0  0  0  0  0  0  0  0  0  0  0  0
   13.9291   -0.2878    0.0000 Br  0  0  0  0  0  0  0  0  0  0  0  0
    6.0878   -2.3210    0.0000 O   0  0  0  0  0  0  0  0  0  0  0  0
    5.5000   -3.2440    0.0000 O   0  0  0  0  0  0  0  0  0  0  0  0
    2.5000   -1.5120    0.0000 O   0  0  0  0  0  0  0  0  0  0  0  0
   16.3937    1.5733    0.0000 O   0  0  0  0  0  0  0  0  0  0  0  0
    7.7433    0.5703    0.0000 O   0  0  0  0  0  0  0  0  0  0  0  0
   13.7200    1.7012    0.0000 O   0  0  0  0  0  0  0  0  0  0  0  0
   10.5885   -1.6444    0.0000 O   0  0  0  0  0  0  0  0  0  0  0  0
   17.9814    2.3823    0.0000 O   0  0  0  0  0  0  0  0  0  0  0  0
    7.0388   -2.0120    0.0000 N   0  0  0  0  0  0  0  0  0  0  0  0
    8.7614   -0.8309    0.0000 N   0  0  0  0  0  0  0  0  0  0  0  0
   16.3937    3.1913    0.0000 N   0  0  0  0  0  0  0  0  0  0  0  0
    5.5000   -1.5120    0.0000 C   0  0  3  0  0  0  0  0  0  0  0  0
    6.0878   -0.7030    0.0000 C   0  0  0  0  0  0  0  0  0  0  0  0
    5.0000   -2.3780    0.0000 C   0  0  3  0  0  0  0  0  0  0  0  0
    5.0000   -0.6460    0.0000 C   0  0  0  0  0  0  0  0  0  0  0  0
    7.0388   -1.0120    0.0000 C   0  0  0  0  0  0  0  0  0  0  0  0
    4.0000   -2.3780    0.0000 C   0  0  0  0  0  0  0  0  0  0  0  0
    4.0000   -0.6460    0.0000 C   0  0  0  0  0  0  0  0  0  0  0  0
    3.5000   -1.5120    0.0000 C   0  0  0  0  0  0  0  0  0  0  0  0
    7.8479   -0.4242    0.0000 C   0  0  0  0  0  0  0  0  0  0  0  0
    9.5704   -0.2432    0.0000 C   0  0  0  0  0  0  0  0  0  0  0  0
   10.4840   -0.6499    0.0000 C   0  0  3  0  0  0  0  0  0  0  0  0
   15.4426    1.8823    0.0000 C   0  0  3  0  0  0  0  0  0  0  0  0
   11.2930   -0.0621    0.0000 C   0  0  0  0  0  0  0  0  0  0  0  0
   15.4426    2.8823    0.0000 C   0  0  0  0  0  0  0  0  0  0  0  0
   14.6336    1.2945    0.0000 C   0  0  0  0  0  0  0  0  0  0  0  0
   12.2065   -0.4688    0.0000 C   0  0  0  0  0  0  0  0  0  0  0  0
   11.1885    0.9324    0.0000 C   0  0  0  0  0  0  0  0  0  0  0  0
   12.9110    1.1135    0.0000 C   0  0  0  0  0  0  0  0  0  0  0  0
    2.0000   -0.6460    0.0000 C   0  0  0  0  0  0  0  0  0  0  0  0
   11.9975    1.5202    0.0000 C   0  0  0  0  0  0  0  0  0  0  0  0
   13.0155    0.1189    0.0000 C   0  0  0  0  0  0  0  0  0  0  0  0
   16.9814    2.3823    0.0000 C   0  0  0  0  0  0  0  0  0  0  0  0
    6.3400   -0.1366    0.0000 H   0  0  0  0  0  0  0  0  0  0  0  0
    5.5508   -0.3930    0.0000 H   0  0  0  0  0  0  0  0  0  0  0  0
    5.6200   -2.3780    0.0000 H   0  0  0  0  0  0  0  0  0  0  0  0
    5.3100   -0.1090    0.0000 H   0  0  0  0  0  0  0  0  0  0  0  0
    5.1900   -3.7810    0.0000 H   0  0  0  0  0  0  0  0  0  0  0  0
    9.9171    0.2709    0.0000 H   0  0  0  0  0  0  0  0  0  0  0  0
    9.1244    0.1875    0.0000 H   0  0  0  0  0  0  0  0  0  0  0  0
    8.8262   -1.4475    0.0000 H   0  0  0  0  0  0  0  0  0  0  0  0
   11.0504   -0.9021    0.0000 H   0  0  0  0  0  0  0  0  0  0  0  0
   15.5396    1.2699    0.0000 H   0  0  0  0  0  0  0  0  0  0  0  0
   15.3137    3.4888    0.0000 H   0  0  0  0  0  0  0  0  0  0  0  0
   14.8260    2.8175    0.0000 H   0  0  0  0  0  0  0  0  0  0  0  0
   14.2869    0.7805    0.0000 H   0  0  0  0  0  0  0  0  0  0  0  0
   15.0796    0.8638    0.0000 H   0  0  0  0  0  0  0  0  0  0  0  0
   16.5852    3.7810    0.0000 H   0  0  0  0  0  0  0  0  0  0  0  0
   12.2713   -1.0854    0.0000 H   0  0  0  0  0  0  0  0  0  0  0  0
   10.6221    1.1846    0.0000 H   0  0  0  0  0  0  0  0  0  0  0  0
    2.5369   -0.3360    0.0000 H   0  0  0  0  0  0  0  0  0  0  0  0
    1.6900   -0.1090    0.0000 H   0  0  0  0  0  0  0  0  0  0  0  0
    1.4631   -0.9560    0.0000 H   0  0  0  0  0  0  0  0  0  0  0  0
   11.1549   -1.8966    0.0000 H   0  0  0  0  0  0  0  0  0  0  0  0
  1 21  1  0  0  0  0
  2 22  1  0  0  0  0
  3 35  1  0  0  0  0
  4 36  1  0  0  0  0
  5 13  1  0  0  0  0
  5 16  1  0  0  0  0
  6 18  1  0  0  0  0
  6 42  1  0  0  0  0
  7 23  1  0  0  0  0
  7 34  1  0  0  0  0
  8 27  1  0  0  0  0
  8 37  1  0  0  0  0
  9 24  2  0  0  0  0
 10 30  1  0  0  0  0
 10 33  1  0  0  0  0
 11 26  1  0  0  0  0
 11 58  1  0  0  0  0
 12 37  2  0  0  0  0
 13 20  2  0  0  0  0
 14 24  1  0  0  0  0
 14 25  1  0  0  0  0
 14 45  1  0  0  0  0
 15 29  1  0  0  0  0
 15 37  1  0  0  0  0
 15 52  1  0  0  0  0
 16 17  1  0  0  0  0
 16 18  1  0  0  0  0
 16 19  1  0  0  0  0
 17 20  1  0  0  0  0
 17 38  1  0  0  0  0
 17 39  1  0  0  0  0
 18 21  1  0  0  0  0
 18 40  1  0  0  0  0
 19 22  2  0  0  0  0
 19 41  1  0  0  0  0
 20 24  1  0  0  0  0
 21 23  2  0  0  0  0
 22 23  1  0  0  0  0
 25 26  1  0  0  0  0
 25 43  1  0  0  0  0
 25 44  1  0  0  0  0
 26 28  1  0  0  0  0
 26 46  1  0  0  0  0
 27 29  1  0  0  0  0
 27 30  1  0  0  0  0
 27 47  1  0  0  0  0
 28 31  2  0  0  0  0
 28 32  1  0  0  0  0
 29 48  1  0  0  0  0
 29 49  1  0  0  0  0
 30 50  1  0  0  0  0
 30 51  1  0  0  0  0
 31 36  1  0  0  0  0
 31 53  1  0  0  0  0
 32 35  2  0  0  0  0
 32 54  1  0  0  0  0
 33 35  1  0  0  0  0
 33 36  2  0  0  0  0
 34 55  1  0  0  0  0
 34 56  1  0  0  0  0
 34 57  1  0  0  0  0
M  END
> <PUBCHEM_COMPOUND_CID>
23424575

> <PUBCHEM_COMPOUND_CANONICALIZED>
1

> <PUBCHEM_CACTVS_COMPLEXITY>
998

> <PUBCHEM_CACTVS_HBOND_ACCEPTOR>
9

> <PUBCHEM_CACTVS_HBOND_DONOR>
4

> <PUBCHEM_CACTVS_ROTATABLE_BOND>
8

> <PUBCHEM_CACTVS_SUBSKEYS>
AAADceB7PAAAHAAAAAAAAAAAAAAAAWIAAAAwQAAAAAAAAAABAAAAHgBUCAABrFzhmAYyDoLQBgCoAyFyGAACCAAgIAQAiIE8CKkPNjKEsRuPeCCm1hGbuhe6/K5OIAAAEAAgBABAAAAgAEAIAAAAAAAAAA==

> <PUBCHEM_IUPAC_OPENEYE_NAME>
7,9-dibromo-N-[2-[3,5-dibromo-4-[(2-oxooxazolidin-5-yl)methoxy]phenyl]-2-hydroxy-ethyl]-10-hydroxy-8-methoxy-1-oxa-2-azaspiro[4.5]deca-2,6,8-triene-3-carboxamide

> <PUBCHEM_IUPAC_CAS_NAME>
7,9-dibromo-N-[2-[3,5-dibromo-4-[(2-oxo-5-oxazolidinyl)methoxy]phenyl]-2-hydroxyethyl]-10-hydroxy-8-methoxy-1-oxa-2-azaspiro[4.5]deca-2,6,8-triene-3-carboxamide

> <PUBCHEM_IUPAC_NAME>
7,9-dibromo-N-[2-[3,5-dibromo-4-[(2-oxo-1,3-oxazolidin-5-yl)methoxy]phenyl]-2-hydroxyethyl]-10-hydroxy-8-methoxy-1-oxa-2-azaspiro[4.5]deca-2,6,8-triene-3-carboxamide

> <PUBCHEM_IUPAC_SYSTEMATIC_NAME>
N-[2-[3,5-bis(bromanyl)-4-[(2-oxidanylidene-1,3-oxazolidin-5-yl)methoxy]phenyl]-2-oxidanyl-ethyl]-7,9-bis(bromanyl)-8-methoxy-10-oxidanyl-1-oxa-2-azaspiro[4.5]deca-2,6,8-triene-3-carboxamide

> <PUBCHEM_IUPAC_TRADITIONAL_NAME>
7,9-dibromo-N-[2-[3,5-dibromo-4-[(2-ketooxazolidin-5-yl)methoxy]phenyl]-2-hydroxy-ethyl]-10-hydroxy-8-methoxy-1-oxa-2-azaspiro[4.5]deca-2,6,8-triene-3-carboxamide

> <PUBCHEM_IUPAC_INCHI>
InChI=1S/C22H21Br4N3O8/c1-34-18-13(25)4-22(19(31)16(18)26)5-14(29-37-22)20(32)27-7-15(30)9-2-11(23)17(12(24)3-9)35-8-10-6-28-21(33)36-10/h2-4,10,15,19,30-31H,5-8H2,1H3,(H,27,32)(H,28,33)

> <PUBCHEM_IUPAC_INCHIKEY>
WKUSHGVKGFQCSJ-UHFFFAOYSA-N

> <PUBCHEM_XLOGP3_AA>
2

> <PUBCHEM_EXACT_MASS>
774.80212

> <PUBCHEM_MOLECULAR_FORMULA>
C22H21Br4N3O8

> <PUBCHEM_MOLECULAR_WEIGHT>
775.03344

> <PUBCHEM_OPENEYE_CAN_SMILES>
COC1=C(C(C2(CC(=NO2)C(=O)NCC(C3=CC(=C(C(=C3)Br)OCC4CNC(=O)O4)Br)O)C=C1Br)O)Br

> <PUBCHEM_OPENEYE_ISO_SMILES>
COC1=C(C(C2(CC(=NO2)C(=O)NCC(C3=CC(=C(C(=C3)Br)OCC4CNC(=O)O4)Br)O)C=C1Br)O)Br

> <PUBCHEM_CACTVS_TPSA>
148

> <PUBCHEM_MONOISOTOPIC_WEIGHT>
770.806213

> <PUBCHEM_TOTAL_CHARGE>
0

> <PUBCHEM_HEAVY_ATOM_COUNT>
37

> <PUBCHEM_ATOM_DEF_STEREO_COUNT>
0

> <PUBCHEM_ATOM_UDEF_STEREO_COUNT>
4

> <PUBCHEM_BOND_DEF_STEREO_COUNT>
0

> <PUBCHEM_BOND_UDEF_STEREO_COUNT>
0

> <PUBCHEM_ISOTOPIC_ATOM_COUNT>
0

> <PUBCHEM_COMPONENT_COUNT>
1

> <PUBCHEM_CACTVS_TAUTO_COUNT>
8

> <PUBCHEM_COORDINATE_TYPE>
1
5
255

> <PUBCHEM_BONDANNOTATIONS>
26  11  3
16  17  3
27  30  3
28  31  8
28  32  8
31  36  8
32  35  8
33  35  8
33  36  8
18  6  3

$$$$

