1122
  -OEChem-07051212452D

 11 10  0     1  0  0  0  0  0999 V2000
    3.7320   -1.0950    0.0000 O   0  0  0  0  0  0  0  0  0  0  0  0
    5.4641   -0.0950    0.0000 O   0  0  0  0  0  0  0  0  0  0  0  0
    4.5981    1.4050    0.0000 O   0  0  0  0  0  0  0  0  0  0  0  0
    2.0000   -0.0950    0.0000 O   0  0  0  0  0  0  0  0  0  0  0  0
    3.7320   -0.0950    0.0000 C   0  0  3  0  0  0  0  0  0  0  0  0
    4.5981    0.4050    0.0000 C   0  0  0  0  0  0  0  0  0  0  0  0
    2.8660    0.4050    0.0000 C   0  0  0  0  0  0  0  0  0  0  0  0
    4.4682   -0.5200    0.0000 H   0  0  0  0  0  0  0  0  0  0  0  0
    2.8660    1.0250    0.0000 H   0  0  0  0  0  0  0  0  0  0  0  0
    4.2690   -1.4050    0.0000 H   0  0  0  0  0  0  0  0  0  0  0  0
    6.0010    0.2150    0.0000 H   0  0  0  0  0  0  0  0  0  0  0  0
  1  5  1  0  0  0  0
  1 10  1  0  0  0  0
  2  6  1  0  0  0  0
  2 11  1  0  0  0  0
  3  6  2  0  0  0  0
  4  7  2  0  0  0  0
  5  6  1  0  0  0  0
  5  7  1  0  0  0  0
  5  8  1  0  0  0  0
  7  9  1  0  0  0  0
M  END
> <PUBCHEM_COMPOUND_CID>
1122

> <PUBCHEM_COMPOUND_CANONICALIZED>
1

> <PUBCHEM_CACTVS_COMPLEXITY>
86.9

> <PUBCHEM_CACTVS_HBOND_ACCEPTOR>
4

> <PUBCHEM_CACTVS_HBOND_DONOR>
2

> <PUBCHEM_CACTVS_ROTATABLE_BOND>
2

> <PUBCHEM_CACTVS_SUBSKEYS>
AAADcYBAOAAAAAAAAAAAAAAAAAAAAAAAAAAAAAAAAAAAAAAAAAAAGgAACAAACBSggAIACAAAAgAIAAiQiAIAAAAAAAAAAAFAAAABEAQIAAAAQAAAIAABAAAAAAAAAAAAAAAAAAAAAAAAAAAAAAAAAAAAAA==

> <PUBCHEM_IUPAC_OPENEYE_NAME>
2-hydroxy-3-oxo-propanoic acid

> <PUBCHEM_IUPAC_CAS_NAME>
2-hydroxy-3-oxopropanoic acid

> <PUBCHEM_IUPAC_NAME>
2-hydroxy-3-oxopropanoic acid

> <PUBCHEM_IUPAC_SYSTEMATIC_NAME>
2-oxidanyl-3-oxidanylidene-propanoic acid

> <PUBCHEM_IUPAC_TRADITIONAL_NAME>
2-hydroxy-3-keto-propionic acid

> <PUBCHEM_IUPAC_INCHI>
InChI=1S/C3H4O4/c4-1-2(5)3(6)7/h1-2,5H,(H,6,7)

> <PUBCHEM_IUPAC_INCHIKEY>
QWBAFPFNGRFSFB-UHFFFAOYSA-N

> <PUBCHEM_XLOGP3_AA>
-1.1

> <PUBCHEM_EXACT_MASS>
104.010959

> <PUBCHEM_MOLECULAR_FORMULA>
C3H4O4

> <PUBCHEM_MOLECULAR_WEIGHT>
104.06146

> <PUBCHEM_OPENEYE_CAN_SMILES>
C(=O)C(C(=O)O)O

> <PUBCHEM_OPENEYE_ISO_SMILES>
C(=O)C(C(=O)O)O

> <PUBCHEM_CACTVS_TPSA>
74.6

> <PUBCHEM_MONOISOTOPIC_WEIGHT>
104.010959

> <PUBCHEM_TOTAL_CHARGE>
0

> <PUBCHEM_HEAVY_ATOM_COUNT>
7

> <PUBCHEM_ATOM_DEF_STEREO_COUNT>
0

> <PUBCHEM_ATOM_UDEF_STEREO_COUNT>
1

> <PUBCHEM_BOND_DEF_STEREO_COUNT>
0

> <PUBCHEM_BOND_UDEF_STEREO_COUNT>
0

> <PUBCHEM_ISOTOPIC_ATOM_COUNT>
0

> <PUBCHEM_COMPONENT_COUNT>
1

> <PUBCHEM_CACTVS_TAUTO_COUNT>
5

> <PUBCHEM_COORDINATE_TYPE>
1
5
255

> <PUBCHEM_BONDANNOTATIONS>
5  8  3

$$$$

