11954099
  -OEChem-07051213062D

 49 52  0     1  0  0  0  0  0999 V2000
    2.0000   -2.3616    0.0000 O   0  0  0  0  0  0  0  0  0  0  0  0
    7.3931   -0.3093    0.0000 C   0  0  1  0  0  0  0  0  0  0  0  0
    6.5271   -0.8093    0.0000 C   0  0  1  0  0  0  0  0  0  0  0  0
    7.3931    0.6907    0.0000 C   0  0  2  0  0  0  0  0  0  0  0  0
    5.6610   -0.3093    0.0000 C   0  0  2  0  0  0  0  0  0  0  0  0
    6.5271    1.1907    0.0000 C   0  0  0  0  0  0  0  0  0  0  0  0
    5.6610    0.6907    0.0000 C   0  0  0  0  0  0  0  0  0  0  0  0
    4.7510   -0.8161    0.0000 C   0  0  2  0  0  0  0  0  0  0  0  0
    8.3393   -0.6140    0.0000 C   0  0  0  0  0  0  0  0  0  0  0  0
    6.5431   -1.8508    0.0000 C   0  0  0  0  0  0  0  0  0  0  0  0
    8.3393    0.9955    0.0000 C   0  0  0  0  0  0  0  0  0  0  0  0
    8.9229    0.1907    0.0000 C   0  0  0  0  0  0  0  0  0  0  0  0
    5.6451   -2.3785    0.0000 C   0  0  0  0  0  0  0  0  0  0  0  0
    4.7430   -1.8577    0.0000 C   0  0  0  0  0  0  0  0  0  0  0  0
    7.3931    1.6907    0.0000 C   0  0  0  0  0  0  0  0  0  0  0  0
    3.8242   -0.2520    0.0000 C   0  0  0  0  0  0  0  0  0  0  0  0
    8.6500    1.9460    0.0000 C   0  0  0  0  0  0  0  0  0  0  0  0
    2.8763   -0.7800    0.0000 C   0  0  0  0  0  0  0  0  0  0  0  0
    3.8076   -2.4074    0.0000 C   0  0  0  0  0  0  0  0  0  0  0  0
    2.8680   -1.8650    0.0000 C   0  0  0  0  0  0  0  0  0  0  0  0
    9.6285    2.1522    0.0000 C   0  0  0  0  0  0  0  0  0  0  0  0
    7.4830   -1.1545    0.0000 H   0  0  0  0  0  0  0  0  0  0  0  0
    7.2664   -1.2286    0.0000 H   0  0  0  0  0  0  0  0  0  0  0  0
    6.3972    0.1157    0.0000 H   0  0  0  0  0  0  0  0  0  0  0  0
    6.9256    1.6657    0.0000 H   0  0  0  0  0  0  0  0  0  0  0  0
    6.1285    1.6657    0.0000 H   0  0  0  0  0  0  0  0  0  0  0  0
    5.4490    1.2733    0.0000 H   0  0  0  0  0  0  0  0  0  0  0  0
    5.0504    0.5831    0.0000 H   0  0  0  0  0  0  0  0  0  0  0  0
    4.7674    0.0337    0.0000 H   0  0  0  0  0  0  0  0  0  0  0  0
    8.0883   -1.1809    0.0000 H   0  0  0  0  0  0  0  0  0  0  0  0
    8.8767   -0.9232    0.0000 H   0  0  0  0  0  0  0  0  0  0  0  0
    6.7612   -2.4312    0.0000 H   0  0  0  0  0  0  0  0  0  0  0  0
    7.1523   -1.7353    0.0000 H   0  0  0  0  0  0  0  0  0  0  0  0
    9.3838   -0.2240    0.0000 H   0  0  0  0  0  0  0  0  0  0  0  0
    9.3838    0.6055    0.0000 H   0  0  0  0  0  0  0  0  0  0  0  0
    5.2478   -2.8545    0.0000 H   0  0  0  0  0  0  0  0  0  0  0  0
    6.0460   -2.8514    0.0000 H   0  0  0  0  0  0  0  0  0  0  0  0
    8.0131    1.6907    0.0000 H   0  0  0  0  0  0  0  0  0  0  0  0
    7.3931    2.3107    0.0000 H   0  0  0  0  0  0  0  0  0  0  0  0
    6.7731    1.6907    0.0000 H   0  0  0  0  0  0  0  0  0  0  0  0
    4.2324    0.2146    0.0000 H   0  0  0  0  0  0  0  0  0  0  0  0
    3.4343    0.2300    0.0000 H   0  0  0  0  0  0  0  0  0  0  0  0
    8.2359    2.4074    0.0000 H   0  0  0  0  0  0  0  0  0  0  0  0
    2.6718   -0.1947    0.0000 H   0  0  0  0  0  0  0  0  0  0  0  0
    2.2647   -0.8814    0.0000 H   0  0  0  0  0  0  0  0  0  0  0  0
    3.8100   -3.0274    0.0000 H   0  0  0  0  0  0  0  0  0  0  0  0
    9.7563    1.5455    0.0000 H   0  0  0  0  0  0  0  0  0  0  0  0
   10.2351    2.2800    0.0000 H   0  0  0  0  0  0  0  0  0  0  0  0
    9.5006    2.7589    0.0000 H   0  0  0  0  0  0  0  0  0  0  0  0
  1 20  2  0  0  0  0
  2  3  1  0  0  0  0
  2  4  1  0  0  0  0
  2  9  1  0  0  0  0
  2 22  1  6  0  0  0
  3  5  1  0  0  0  0
  3 10  1  0  0  0  0
  3 23  1  1  0  0  0
  4  6  1  0  0  0  0
  4 11  1  0  0  0  0
  4 15  1  1  0  0  0
  5  7  1  0  0  0  0
  5  8  1  0  0  0  0
  5 24  1  6  0  0  0
  6  7  1  0  0  0  0
  6 25  1  0  0  0  0
  6 26  1  0  0  0  0
  7 27  1  0  0  0  0
  7 28  1  0  0  0  0
  8 14  1  0  0  0  0
  8 16  1  0  0  0  0
  8 29  1  1  0  0  0
  9 12  1  0  0  0  0
  9 30  1  0  0  0  0
  9 31  1  0  0  0  0
 10 13  1  0  0  0  0
 10 32  1  0  0  0  0
 10 33  1  0  0  0  0
 11 12  1  0  0  0  0
 11 17  2  0  0  0  0
 12 34  1  0  0  0  0
 12 35  1  0  0  0  0
 13 14  1  0  0  0  0
 13 36  1  0  0  0  0
 13 37  1  0  0  0  0
 14 19  2  0  0  0  0
 15 38  1  0  0  0  0
 15 39  1  0  0  0  0
 15 40  1  0  0  0  0
 16 18  1  0  0  0  0
 16 41  1  0  0  0  0
 16 42  1  0  0  0  0
 17 21  1  0  0  0  0
 17 43  1  0  0  0  0
 18 20  1  0  0  0  0
 18 44  1  0  0  0  0
 18 45  1  0  0  0  0
 19 20  1  0  0  0  0
 19 46  1  0  0  0  0
 21 47  1  0  0  0  0
 21 48  1  0  0  0  0
 21 49  1  0  0  0  0
M  END
> <PUBCHEM_COMPOUND_CID>
11954099

> <PUBCHEM_COMPOUND_CANONICALIZED>
1

> <PUBCHEM_CACTVS_COMPLEXITY>
526

> <PUBCHEM_CACTVS_HBOND_ACCEPTOR>
1

> <PUBCHEM_CACTVS_HBOND_DONOR>
0

> <PUBCHEM_CACTVS_ROTATABLE_BOND>
0

> <PUBCHEM_CACTVS_SUBSKEYS>
AAADceB4IAAAAAAAAAAAAAAAAAAAAYAAAAAwYIAAAAAAAGDAAAAAGgAAAAAADwSAgAACAAAAAACIAqBSAAAAAAAgAAAACAEAAEgAABIAAQAAAAAAgAAIAQMIiMCPgAAAAAAAAACAAAQAACAAAAAACAAAAA==

> <PUBCHEM_IUPAC_OPENEYE_NAME>
(8R,9S,10R,13S,14S,17E)-17-ethylidene-13-methyl-1,2,6,7,8,9,10,11,12,14,15,16-dodecahydrocyclopenta[a]phenanthren-3-one

> <PUBCHEM_IUPAC_CAS_NAME>
(8R,9S,10R,13S,14S,17E)-17-ethylidene-13-methyl-1,2,6,7,8,9,10,11,12,14,15,16-dodecahydrocyclopenta[a]phenanthren-3-one

> <PUBCHEM_IUPAC_NAME>
(8R,9S,10R,13S,14S,17E)-17-ethylidene-13-methyl-1,2,6,7,8,9,10,11,12,14,15,16-dodecahydrocyclopenta[a]phenanthren-3-one

> <PUBCHEM_IUPAC_SYSTEMATIC_NAME>
(8R,9S,10R,13S,14S,17E)-17-ethylidene-13-methyl-1,2,6,7,8,9,10,11,12,14,15,16-dodecahydrocyclopenta[a]phenanthren-3-one

> <PUBCHEM_IUPAC_TRADITIONAL_NAME>
(8R,9S,10R,13S,14S,17E)-17-ethylidene-13-methyl-1,2,6,7,8,9,10,11,12,14,15,16-dodecahydrocyclopenta[a]phenanthren-3-one

> <PUBCHEM_IUPAC_INCHI>
InChI=1S/C20H28O/c1-3-14-5-9-19-18-7-4-13-12-15(21)6-8-16(13)17(18)10-11-20(14,19)2/h3,12,16-19H,4-11H2,1-2H3/b14-3+/t16-,17+,18+,19-,20+/m0/s1

> <PUBCHEM_IUPAC_INCHIKEY>
XVMUJEVXMOHDQB-FLPRELMKSA-N

> <PUBCHEM_XLOGP3_AA>
4.3

> <PUBCHEM_EXACT_MASS>
284.214016

> <PUBCHEM_MOLECULAR_FORMULA>
C20H28O

> <PUBCHEM_MOLECULAR_WEIGHT>
284.43572

> <PUBCHEM_OPENEYE_CAN_SMILES>
CC=C1CCC2C1(CCC3C2CCC4=CC(=O)CCC34)C

> <PUBCHEM_OPENEYE_ISO_SMILES>
C/C=C/1\CC[C@@H]2[C@@]1(CC[C@H]3[C@H]2CCC4=CC(=O)CC[C@H]34)C

> <PUBCHEM_CACTVS_TPSA>
17.1

> <PUBCHEM_MONOISOTOPIC_WEIGHT>
284.214016

> <PUBCHEM_TOTAL_CHARGE>
0

> <PUBCHEM_HEAVY_ATOM_COUNT>
21

> <PUBCHEM_ATOM_DEF_STEREO_COUNT>
5

> <PUBCHEM_ATOM_UDEF_STEREO_COUNT>
0

> <PUBCHEM_BOND_DEF_STEREO_COUNT>
1

> <PUBCHEM_BOND_UDEF_STEREO_COUNT>
0

> <PUBCHEM_ISOTOPIC_ATOM_COUNT>
0

> <PUBCHEM_COMPONENT_COUNT>
1

> <PUBCHEM_CACTVS_TAUTO_COUNT>
8

> <PUBCHEM_COORDINATE_TYPE>
1
5
255

> <PUBCHEM_BONDANNOTATIONS>
2  22  6
3  23  5
4  15  5
5  24  6
8  29  5

$$$$

