439182
  -OEChem-07051212503D

 31 33  0     1  0  0  0  0  0999 V2000
    2.1208   -0.8314   -1.0425 O   0  0  0  0  0  0  0  0  0  0  0  0
    1.6388    1.9042    1.2387 O   0  0  0  0  0  0  0  0  0  0  0  0
    3.7890    1.6393   -0.4018 O   0  0  0  0  0  0  0  0  0  0  0  0
   -0.0455   -0.3925   -0.1795 N   0  0  0  0  0  0  0  0  0  0  0  0
   -1.6231   -1.8990    0.2892 N   0  0  0  0  0  0  0  0  0  0  0  0
   -1.4315    1.5808   -0.4745 N   0  0  0  0  0  0  0  0  0  0  0  0
   -3.7938    1.0643   -0.1446 N   0  0  0  0  0  0  0  0  0  0  0  0
   -4.5641   -1.1349    0.4006 N   0  0  0  0  0  0  0  0  0  0  0  0
    2.0120    0.6009    0.8403 C   0  0  1  0  0  0  0  0  0  0  0  0
    1.2840    0.1632   -0.4215 C   0  0  1  0  0  0  0  0  0  0  0  0
    3.4600    0.5060    0.4015 C   0  0  1  0  0  0  0  0  0  0  0  0
    3.4510   -0.7373   -0.4823 C   0  0  1  0  0  0  0  0  0  0  0  0
    3.7379   -2.0170    0.2908 C   0  0  0  0  0  0  0  0  0  0  0  0
   -1.2353    0.2797   -0.2134 C   0  0  0  0  0  0  0  0  0  0  0  0
   -0.3322   -1.6979    0.1261 C   0  0  0  0  0  0  0  0  0  0  0  0
   -2.1995   -0.6713    0.0801 C   0  0  0  0  0  0  0  0  0  0  0  0
   -3.5213   -0.2382    0.1099 C   0  0  0  0  0  0  0  0  0  0  0  0
   -2.7473    1.8808   -0.4170 C   0  0  0  0  0  0  0  0  0  0  0  0
    1.8191   -0.0881    1.6708 H   0  0  0  0  0  0  0  0  0  0  0  0
    1.1582    0.9860   -1.1360 H   0  0  0  0  0  0  0  0  0  0  0  0
    4.1655    0.4705    1.2365 H   0  0  0  0  0  0  0  0  0  0  0  0
    4.1537   -0.6508   -1.3181 H   0  0  0  0  0  0  0  0  0  0  0  0
    3.6665   -2.8844   -0.3742 H   0  0  0  0  0  0  0  0  0  0  0  0
    4.7393   -1.9956    0.7308 H   0  0  0  0  0  0  0  0  0  0  0  0
    3.0066   -2.1772    1.0900 H   0  0  0  0  0  0  0  0  0  0  0  0
    1.8616    2.5151    0.5158 H   0  0  0  0  0  0  0  0  0  0  0  0
    0.4330   -2.4561    0.2223 H   0  0  0  0  0  0  0  0  0  0  0  0
    4.7066    1.5248   -0.7027 H   0  0  0  0  0  0  0  0  0  0  0  0
   -3.0020    2.9163   -0.6157 H   0  0  0  0  0  0  0  0  0  0  0  0
   -4.3634   -2.1074    0.5908 H   0  0  0  0  0  0  0  0  0  0  0  0
   -5.5164   -0.7961    0.4162 H   0  0  0  0  0  0  0  0  0  0  0  0
  1 10  1  0  0  0  0
  1 12  1  0  0  0  0
  2  9  1  0  0  0  0
  2 26  1  0  0  0  0
  3 11  1  0  0  0  0
  3 28  1  0  0  0  0
  4 10  1  0  0  0  0
  4 14  1  0  0  0  0
  4 15  1  0  0  0  0
  5 15  2  0  0  0  0
  5 16  1  0  0  0  0
  6 14  2  0  0  0  0
  6 18  1  0  0  0  0
  7 17  1  0  0  0  0
  7 18  2  0  0  0  0
  8 17  1  0  0  0  0
  8 30  1  0  0  0  0
  8 31  1  0  0  0  0
  9 10  1  0  0  0  0
  9 11  1  0  0  0  0
  9 19  1  0  0  0  0
 10 20  1  0  0  0  0
 11 12  1  0  0  0  0
 11 21  1  0  0  0  0
 12 13  1  0  0  0  0
 12 22  1  0  0  0  0
 13 23  1  0  0  0  0
 13 24  1  0  0  0  0
 13 25  1  0  0  0  0
 14 16  1  0  0  0  0
 15 27  1  0  0  0  0
 16 17  2  0  0  0  0
 18 29  1  0  0  0  0
M  END
> <PUBCHEM_COMPOUND_CID>
439182

> <PUBCHEM_CONFORMER_RMSD>
0.6

> <PUBCHEM_CONFORMER_DIVERSEORDER>
3
6
9
1
7
5
8
10
4
2
11

> <PUBCHEM_MMFF94_PARTIAL_CHARGES>
23
1 -0.56
10 0.54
11 0.28
12 0.28
14 0.11
15 0.04
16 0.23
17 0.41
18 0.47
2 -0.68
26 0.4
27 0.15
28 0.4
29 0.15
3 -0.68
30 0.4
31 0.4
4 0.05
5 -0.57
6 -0.57
7 -0.62
8 -0.9
9 0.28

> <PUBCHEM_EFFECTIVE_ROTOR_COUNT>
2

> <PUBCHEM_PHARMACOPHORE_FEATURES>
13
1 1 acceptor
1 2 acceptor
1 2 donor
1 3 acceptor
1 3 donor
1 8 cation
1 8 donor
3 4 5 15 cation
3 4 6 14 cation
3 6 7 18 cation
5 1 9 10 11 12 rings
5 4 5 14 15 16 rings
6 6 7 14 16 17 18 rings

> <PUBCHEM_HEAVY_ATOM_COUNT>
18

> <PUBCHEM_ATOM_DEF_STEREO_COUNT>
4

> <PUBCHEM_ATOM_UDEF_STEREO_COUNT>
0

> <PUBCHEM_BOND_DEF_STEREO_COUNT>
0

> <PUBCHEM_BOND_UDEF_STEREO_COUNT>
0

> <PUBCHEM_ISOTOPIC_ATOM_COUNT>
0

> <PUBCHEM_COMPONENT_COUNT>
1

> <PUBCHEM_CACTVS_TAUTO_COUNT>
3

> <PUBCHEM_CONFORMER_ID>
0006B38E00000003

> <PUBCHEM_MMFF94_ENERGY>
42.4381

> <PUBCHEM_FEATURE_SELFOVERLAP>
66.585

> <PUBCHEM_SHAPE_FINGERPRINT>
10498660 4 18202007654860443509
10608611 8 18408889520616606056
10646746 165 18340206396357004140
1100329 8 16462766381994175442
11132069 177 18343582958428286669
12032990 46 18341608196895389427
12403259 226 18409736179035084081
124424 183 18261960751231419622
13134695 92 17386583490978168944
13581323 91 18342740706197601527
14144814 61 18343303686257965922
14866123 147 16532002616564308762
15196674 1 18411981377515631949
15219456 202 18333733519906851204
15442244 35 18340207522102548762
15653759 3 18411983567706314408
16945 1 18265907868751511711
17802600 8 18409172133785835531
17804303 29 18411696633894898230
18186145 218 18261385710575716980
19049666 15 18335985362791496322
200 152 17313394443429525645
20510252 161 18409727365925905161
20645477 70 18260263075298161566
21267235 1 18341040887270828178
21501502 16 18335989679365692526
23402539 116 18409738331257006343
23559900 14 18337392738139409646
2748010 2 18411145731604375557
3286 77 18187088355712743209
42 15 18273215334936516930
43471831 8 18059579134944000499
474 4 16485833689738225540
5104073 3 18411135861552946947
69090 78 18187369809378420807
77492 1 14345794958879986149
77779 3 18413106177731472756
81228 2 18127699218897163923
9709674 26 18410849971371681814

> <PUBCHEM_SHAPE_MULTIPOLES>
327.92
7.83
2.07
0.83
0.89
0.04
-0.06
-0.38
-0.16
-0.19
-0.16
-0.37
0.14
0.57

> <PUBCHEM_SHAPE_SELFOVERLAP>
715.764

> <PUBCHEM_SHAPE_VOLUME>
175.5

> <PUBCHEM_COORDINATE_TYPE>
2
5
10

$$$$

