21610568
  -OEChem-07051213133D

 35 36  0     0  0  0  0  0  0999 V2000
    4.6823    2.8196    0.9326 Cl  0  0  0  0  0  0  0  0  0  0  0  0
    1.5512   -1.7868   -0.9989 O   0  0  0  0  0  0  0  0  0  0  0  0
   -1.3728    1.8473    0.1729 O   0  0  0  0  0  0  0  0  0  0  0  0
   -2.6943   -0.0426    0.4805 N   0  0  0  0  0  0  0  0  0  0  0  0
   -3.6546    2.0040   -0.1844 N   0  0  0  0  0  0  0  0  0  0  0  0
   -1.8067   -1.1321    0.2982 C   0  0  0  0  0  0  0  0  0  0  0  0
    0.3241   -1.9929   -0.4471 C   0  0  0  0  0  0  0  0  0  0  0  0
   -0.5494   -0.9204   -0.2676 C   0  0  0  0  0  0  0  0  0  0  0  0
   -2.1905   -2.4163    0.6843 C   0  0  0  0  0  0  0  0  0  0  0  0
   -0.0598   -3.2771   -0.0609 C   0  0  0  0  0  0  0  0  0  0  0  0
   -1.3171   -3.4889    0.5048 C   0  0  0  0  0  0  0  0  0  0  0  0
   -2.4767    1.2984    0.1544 C   0  0  0  0  0  0  0  0  0  0  0  0
    2.2874   -0.7054   -0.5450 C   0  0  0  0  0  0  0  0  0  0  0  0
   -3.6374    3.4193   -0.5316 C   0  0  0  0  0  0  0  0  0  0  0  0
   -4.9663    1.3601   -0.2086 C   0  0  0  0  0  0  0  0  0  0  0  0
    2.3804   -0.4497    0.8230 C   0  0  0  0  0  0  0  0  0  0  0  0
    2.9351    0.1290   -1.4562 C   0  0  0  0  0  0  0  0  0  0  0  0
    3.1209    0.6405    1.2799 C   0  0  0  0  0  0  0  0  0  0  0  0
    3.6756    1.2192   -0.9992 C   0  0  0  0  0  0  0  0  0  0  0  0
    3.7685    1.4749    0.3689 C   0  0  0  0  0  0  0  0  0  0  0  0
   -0.2457    0.0550   -0.6275 H   0  0  0  0  0  0  0  0  0  0  0  0
   -3.6059   -0.2983    0.8484 H   0  0  0  0  0  0  0  0  0  0  0  0
   -3.1673   -2.5950    1.1264 H   0  0  0  0  0  0  0  0  0  0  0  0
    0.6166   -4.1165   -0.1978 H   0  0  0  0  0  0  0  0  0  0  0  0
   -1.6157   -4.4888    0.8056 H   0  0  0  0  0  0  0  0  0  0  0  0
   -3.9946    3.5350   -1.5589 H   0  0  0  0  0  0  0  0  0  0  0  0
   -4.2975    3.9585    0.1539 H   0  0  0  0  0  0  0  0  0  0  0  0
   -2.6288    3.8330   -0.4566 H   0  0  0  0  0  0  0  0  0  0  0  0
   -5.6781    1.9734   -0.7694 H   0  0  0  0  0  0  0  0  0  0  0  0
   -4.9053    0.3794   -0.6888 H   0  0  0  0  0  0  0  0  0  0  0  0
   -5.3176    1.2472    0.8211 H   0  0  0  0  0  0  0  0  0  0  0  0
    1.9040   -1.0957    1.5556 H   0  0  0  0  0  0  0  0  0  0  0  0
    2.8652   -0.0655   -2.5229 H   0  0  0  0  0  0  0  0  0  0  0  0
    3.1885    0.8252    2.3490 H   0  0  0  0  0  0  0  0  0  0  0  0
    4.1747    1.8609   -1.7207 H   0  0  0  0  0  0  0  0  0  0  0  0
  1 20  1  0  0  0  0
  2  7  1  0  0  0  0
  2 13  1  0  0  0  0
  3 12  2  0  0  0  0
  4  6  1  0  0  0  0
  4 12  1  0  0  0  0
  4 22  1  0  0  0  0
  5 12  1  0  0  0  0
  5 14  1  0  0  0  0
  5 15  1  0  0  0  0
  6  8  2  0  0  0  0
  6  9  1  0  0  0  0
  7  8  1  0  0  0  0
  7 10  2  0  0  0  0
  8 21  1  0  0  0  0
  9 11  2  0  0  0  0
  9 23  1  0  0  0  0
 10 11  1  0  0  0  0
 10 24  1  0  0  0  0
 11 25  1  0  0  0  0
 13 16  2  0  0  0  0
 13 17  1  0  0  0  0
 14 26  1  0  0  0  0
 14 27  1  0  0  0  0
 14 28  1  0  0  0  0
 15 29  1  0  0  0  0
 15 30  1  0  0  0  0
 15 31  1  0  0  0  0
 16 18  1  0  0  0  0
 16 32  1  0  0  0  0
 17 19  2  0  0  0  0
 17 33  1  0  0  0  0
 18 20  2  0  0  0  0
 18 34  1  0  0  0  0
 19 20  1  0  0  0  0
 19 35  1  0  0  0  0
M  END
> <PUBCHEM_COMPOUND_CID>
21610568

> <PUBCHEM_CONFORMER_RMSD>
0.8

> <PUBCHEM_CONFORMER_DIVERSEORDER>
1
4
9
38
30
13
24
22
39
26
8
37
28
14
50
27
44
15
31
20
51
36
25
32
34
43
11
40
35
7
17
42
18
6
19
47
46
33
16
5
41
12
23
3
29
21
2
45
10
48
49

> <PUBCHEM_MMFF94_PARTIAL_CHARGES>
29
1 -0.18
10 -0.15
11 -0.15
12 0.69
13 0.08
14 0.3
15 0.3
16 -0.15
17 -0.15
18 -0.15
19 -0.15
2 -0.17
20 0.18
21 0.15
22 0.37
23 0.15
24 0.15
25 0.15
3 -0.57
32 0.15
33 0.15
34 0.15
35 0.15
4 -0.55
5 -0.66
6 0.12
7 0.08
8 -0.15
9 -0.15

> <PUBCHEM_EFFECTIVE_ROTOR_COUNT>
5

> <PUBCHEM_PHARMACOPHORE_FEATURES>
5
1 2 acceptor
1 3 acceptor
1 4 donor
6 13 16 17 18 19 20 rings
6 6 7 8 9 10 11 rings

> <PUBCHEM_HEAVY_ATOM_COUNT>
20

> <PUBCHEM_ATOM_DEF_STEREO_COUNT>
0

> <PUBCHEM_ATOM_UDEF_STEREO_COUNT>
0

> <PUBCHEM_BOND_DEF_STEREO_COUNT>
0

> <PUBCHEM_BOND_UDEF_STEREO_COUNT>
0

> <PUBCHEM_ISOTOPIC_ATOM_COUNT>
0

> <PUBCHEM_COMPONENT_COUNT>
1

> <PUBCHEM_CACTVS_TAUTO_COUNT>
2

> <PUBCHEM_CONFORMER_ID>
0149C04800000001

> <PUBCHEM_MMFF94_ENERGY>
69.4809

> <PUBCHEM_FEATURE_SELFOVERLAP>
25.371

> <PUBCHEM_SHAPE_FINGERPRINT>
10498660 4 18335697221920397928
10670039 82 17906719320850728860
10675989 125 18046354298879218553
11370993 70 18411421751672115245
12107183 9 18270136711733193826
12173636 292 18411981325781157687
12769317 202 18050296052612164389
12788726 201 17770770221959360546
13965767 371 17988371480452503316
14178342 30 18200594683781929870
14251764 30 7492713878833105461
14466204 15 17836090348476963298
14468879 13 18272359902189770281
14787075 74 18260839193932301557
14848178 96 18194681699231995597
14957384 54 18341344335521537736
15961568 22 17328582818031286532
173720 79 17988374706168036907
17834072 32 18409167688489825368
17876694 64 17558258826661813671
1798214 55 18410853295475570972
20510252 161 18263916657583983707
21524375 3 18264486363658150543
22956985 138 8640373133990348703
23557571 272 18191577558746855054
23558518 356 18272652312021964482
23559900 14 17907020930374925555
238 59 17969216918154188119
3117164 225 18340504322013189226
3187 122 17908714929484317761
3524813 1 17606959482527254346
43658 37 18337956813205411981
44317340 157 17621052280219056861
474 4 18196652019794549725
6333272 397 18341608282704798255
633830 44 18115590503562330637
7097593 13 18129964359174858658
7808743 9 18268703927317338124
84936 182 18048597320074012577
90316 7 17979347560605632099
9981440 41 18413394241383571747

> <PUBCHEM_SHAPE_MULTIPOLES>
391.76
8.68
4.33
1.08
1.43
0.5
0.08
-9.71
-0.58
-3.59
-0.17
1.05
-0.04
1.47

> <PUBCHEM_SHAPE_SELFOVERLAP>
820.089

> <PUBCHEM_SHAPE_VOLUME>
222.5

> <PUBCHEM_COORDINATE_TYPE>
2
5
10

$$$$

