16073
  -OEChem-07051213133D

 25 25  0     1  0  0  0  0  0999 V2000
   -5.0500    1.4348    0.6155 Cl  0  0  0  0  0  0  0  0  0  0  0  0
    2.2069    0.9895   -0.1886 O   0  0  0  0  0  0  0  0  0  0  0  0
    1.3524   -1.0841   -0.6365 O   0  0  0  0  0  0  0  0  0  0  0  0
   -0.0251    0.7192   -0.0437 N   0  0  0  0  0  0  0  0  0  0  0  0
   -1.3118    0.1801   -0.0581 C   0  0  0  0  0  0  0  0  0  0  0  0
    3.5245    0.4882   -0.4424 C   0  0  1  0  0  0  0  0  0  0  0  0
   -2.4094    0.9835    0.2511 C   0  0  0  0  0  0  0  0  0  0  0  0
   -1.5003   -1.1632   -0.3838 C   0  0  0  0  0  0  0  0  0  0  0  0
   -3.6955    0.4436    0.2348 C   0  0  0  0  0  0  0  0  0  0  0  0
   -2.7863   -1.7030   -0.4001 C   0  0  0  0  0  0  0  0  0  0  0  0
   -3.8839   -0.8996   -0.0911 C   0  0  0  0  0  0  0  0  0  0  0  0
    1.1848    0.0877   -0.3213 C   0  0  0  0  0  0  0  0  0  0  0  0
    4.5273    1.6229   -0.2927 C   0  0  0  0  0  0  0  0  0  0  0  0
    3.8141   -0.6027    0.4959 C   0  0  0  0  0  0  0  0  0  0  0  0
    4.0524   -1.4969    1.2609 C   0  0  0  0  0  0  0  0  0  0  0  0
    3.5659    0.1259   -1.4771 H   0  0  0  0  0  0  0  0  0  0  0  0
   -2.2620    2.0312    0.5046 H   0  0  0  0  0  0  0  0  0  0  0  0
   -0.7003   -1.8460   -0.6340 H   0  0  0  0  0  0  0  0  0  0  0  0
    0.0404    1.7042    0.2018 H   0  0  0  0  0  0  0  0  0  0  0  0
   -2.9343   -2.7488   -0.6535 H   0  0  0  0  0  0  0  0  0  0  0  0
   -4.8803   -1.3339   -0.1081 H   0  0  0  0  0  0  0  0  0  0  0  0
    5.5502    1.2842   -0.4867 H   0  0  0  0  0  0  0  0  0  0  0  0
    4.4917    2.0510    0.7161 H   0  0  0  0  0  0  0  0  0  0  0  0
    4.2893    2.4359   -0.9872 H   0  0  0  0  0  0  0  0  0  0  0  0
    4.2630   -2.2901    1.9395 H   0  0  0  0  0  0  0  0  0  0  0  0
  1  9  1  0  0  0  0
  2  6  1  0  0  0  0
  2 12  1  0  0  0  0
  3 12  2  0  0  0  0
  4  5  1  0  0  0  0
  4 12  1  0  0  0  0
  4 19  1  0  0  0  0
  5  7  2  0  0  0  0
  5  8  1  0  0  0  0
  6 13  1  0  0  0  0
  6 14  1  0  0  0  0
  6 16  1  0  0  0  0
  7  9  1  0  0  0  0
  7 17  1  0  0  0  0
  8 10  2  0  0  0  0
  8 18  1  0  0  0  0
  9 11  2  0  0  0  0
 10 11  1  0  0  0  0
 10 20  1  0  0  0  0
 11 21  1  0  0  0  0
 13 22  1  0  0  0  0
 13 23  1  0  0  0  0
 13 24  1  0  0  0  0
 14 15  3  0  0  0  0
 15 25  1  0  0  0  0
M  END
> <PUBCHEM_COMPOUND_CID>
16073

> <PUBCHEM_CONFORMER_RMSD>
0.6

> <PUBCHEM_CONFORMER_DIVERSEORDER>
2
54
55
52
18
1
73
70
76
66
57
42
17
29
72
58
5
50
24
51
69
22
74
65
6
25
11
27
56
75
49
53
14
23
63
38
9
67
26
20
44
60
15
41
62
28
71
10
3
45
61
12
59
64
8
19
13
16
7
68
31
43
46
21
35
48
33
4
40
32
34
47
36
30
39
37

> <PUBCHEM_MMFF94_PARTIAL_CHARGES>
20
1 -0.18
10 -0.15
11 -0.15
12 0.78
14 -0.2
15 -0.18
17 0.15
18 0.15
19 0.37
2 -0.43
20 0.15
21 0.15
25 0.18
3 -0.57
4 -0.55
5 0.12
6 0.48
7 -0.15
8 -0.15
9 0.18

> <PUBCHEM_EFFECTIVE_ROTOR_COUNT>
4

> <PUBCHEM_PHARMACOPHORE_FEATURES>
4
1 15 hydrophobe
1 3 acceptor
1 4 donor
6 5 7 8 9 10 11 rings

> <PUBCHEM_HEAVY_ATOM_COUNT>
15

> <PUBCHEM_ATOM_DEF_STEREO_COUNT>
0

> <PUBCHEM_ATOM_UDEF_STEREO_COUNT>
1

> <PUBCHEM_BOND_DEF_STEREO_COUNT>
0

> <PUBCHEM_BOND_UDEF_STEREO_COUNT>
0

> <PUBCHEM_ISOTOPIC_ATOM_COUNT>
0

> <PUBCHEM_COMPONENT_COUNT>
1

> <PUBCHEM_CACTVS_TAUTO_COUNT>
2

> <PUBCHEM_CONFORMER_ID>
00003EC900000002

> <PUBCHEM_MMFF94_ENERGY>
33.1174

> <PUBCHEM_FEATURE_SELFOVERLAP>
20.297

> <PUBCHEM_SHAPE_FINGERPRINT>
10014705 185 18410293614646331245
10062212 137 18409175398056250855
10616163 171 18265893558137461046
10912923 1 18411983541936426219
12107183 9 17836651090680012296
12251169 10 18410578422179838950
13167823 11 18341614806533598930
13675066 3 17418092139459876653
13760787 19 18411416189973894278
13760787 5 18202005429755673383
14252887 29 16415483744605729600
14445660 50 18410853252525586172
15196674 1 18409165502214003247
15242433 33 18412823577605179876
15375358 24 17676485068716161917
15669948 3 18115311068346763670
18186145 218 17847064384965537494
19026448 5 18413390916888570630
19050596 39 18412266142389870650
19422 9 18342460322279877002
200 152 18187937136219703223
20279233 1 16153709825340862414
20281475 54 18342183228153958006
20645477 56 18334288786797074969
20645477 70 18131638898029888458
21065198 48 18412265012697466114
212847 35 18334295391939876824
22485316 2 18342741797235352196
2255824 54 18060416890100573118
22646028 1 18413393128791524754
23402539 116 18187091680582062925
23463225 33 18412827984315537174
23503953 91 18336837458691591602
23557571 272 17241033324205744413
23559900 14 17967803990363211646
300161 21 18410297995080371908
42 15 18131350838356252786
4214541 1 18409165502235141173
474 4 17772748261174887748
5104073 3 18411136922272744955
5374978 207 18334860532400303216
573450 72 18408612460934828179
633830 44 18408884027622525390
77779 3 18410854339326333404

> <PUBCHEM_SHAPE_MULTIPOLES>
293.84
10.69
1.72
0.84
1.48
0.14
-0.14
-2.15
-1.98
-0.01
-0.06
0.38
0.16
-1.4

> <PUBCHEM_SHAPE_SELFOVERLAP>
595.262

> <PUBCHEM_SHAPE_VOLUME>
170.8

> <PUBCHEM_COORDINATE_TYPE>
2
5
10

$$$$

