87840
  -OEChem-07051213002D

 38 40  0     0  0  0  0  0  0999 V2000
    8.2103   -0.1953    0.0000 O   0  0  0  0  0  0  0  0  0  0  0  0
    6.3981   -3.0000    0.0000 O   0  0  0  0  0  0  0  0  0  0  0  0
    2.8680    0.0241    0.0000 O   0  0  0  0  0  0  0  0  0  0  0  0
    6.3981    0.0000    0.0000 N   0  0  0  0  0  0  0  0  0  0  0  0
    5.5320   -0.5000    0.0000 C   0  0  0  0  0  0  0  0  0  0  0  0
    7.2641   -0.5000    0.0000 C   0  0  0  0  0  0  0  0  0  0  0  0
    5.5320   -1.5000    0.0000 C   0  0  0  0  0  0  0  0  0  0  0  0
    7.2641   -1.5000    0.0000 C   0  0  0  0  0  0  0  0  0  0  0  0
    6.3981    1.0000    0.0000 C   0  0  0  0  0  0  0  0  0  0  0  0
    6.3981   -2.0000    0.0000 C   0  0  0  0  0  0  0  0  0  0  0  0
    4.6381    0.0347    0.0000 C   0  0  0  0  0  0  0  0  0  0  0  0
    4.6381   -2.0347    0.0000 C   0  0  0  0  0  0  0  0  0  0  0  0
    8.2103   -1.8047    0.0000 C   0  0  0  0  0  0  0  0  0  0  0  0
    7.2641    1.5000    0.0000 C   0  0  0  0  0  0  0  0  0  0  0  0
    3.7320   -0.4792    0.0000 C   0  0  0  0  0  0  0  0  0  0  0  0
    3.7320   -1.5208    0.0000 C   0  0  0  0  0  0  0  0  0  0  0  0
    8.7939   -1.0000    0.0000 C   0  0  0  0  0  0  0  0  0  0  0  0
    7.2641    2.5000    0.0000 C   0  0  0  0  0  0  0  0  0  0  0  0
    8.1301    3.0000    0.0000 C   0  0  0  0  0  0  0  0  0  0  0  0
    6.3981    3.0000    0.0000 C   0  0  0  0  0  0  0  0  0  0  0  0
    2.0000   -0.4725    0.0000 C   0  0  0  0  0  0  0  0  0  0  0  0
    6.1860    1.5826    0.0000 H   0  0  0  0  0  0  0  0  0  0  0  0
    5.7875    0.8923    0.0000 H   0  0  0  0  0  0  0  0  0  0  0  0
    4.6453    0.6546    0.0000 H   0  0  0  0  0  0  0  0  0  0  0  0
    4.6453   -2.6546    0.0000 H   0  0  0  0  0  0  0  0  0  0  0  0
    8.4029   -2.3940    0.0000 H   0  0  0  0  0  0  0  0  0  0  0  0
    7.8010    1.1900    0.0000 H   0  0  0  0  0  0  0  0  0  0  0  0
    3.1963   -1.8329    0.0000 H   0  0  0  0  0  0  0  0  0  0  0  0
    9.4139   -1.0000    0.0000 H   0  0  0  0  0  0  0  0  0  0  0  0
    6.7081    3.5369    0.0000 H   0  0  0  0  0  0  0  0  0  0  0  0
    5.8611    3.3100    0.0000 H   0  0  0  0  0  0  0  0  0  0  0  0
    6.0881    2.4631    0.0000 H   0  0  0  0  0  0  0  0  0  0  0  0
    8.4401    2.4631    0.0000 H   0  0  0  0  0  0  0  0  0  0  0  0
    8.6671    3.3100    0.0000 H   0  0  0  0  0  0  0  0  0  0  0  0
    7.8201    3.5369    0.0000 H   0  0  0  0  0  0  0  0  0  0  0  0
    1.6921    0.0656    0.0000 H   0  0  0  0  0  0  0  0  0  0  0  0
    1.4619   -0.7804    0.0000 H   0  0  0  0  0  0  0  0  0  0  0  0
    2.3079   -1.0106    0.0000 H   0  0  0  0  0  0  0  0  0  0  0  0
  1  6  1  0  0  0  0
  1 17  1  0  0  0  0
  2 10  2  0  0  0  0
  3 15  1  0  0  0  0
  3 21  1  0  0  0  0
  4  5  1  0  0  0  0
  4  6  1  0  0  0  0
  4  9  1  0  0  0  0
  5  7  2  0  0  0  0
  5 11  1  0  0  0  0
  6  8  2  0  0  0  0
  7 10  1  0  0  0  0
  7 12  1  0  0  0  0
  8 10  1  0  0  0  0
  8 13  1  0  0  0  0
  9 14  1  0  0  0  0
  9 22  1  0  0  0  0
  9 23  1  0  0  0  0
 11 15  2  0  0  0  0
 11 24  1  0  0  0  0
 12 16  2  0  0  0  0
 12 25  1  0  0  0  0
 13 17  2  0  0  0  0
 13 26  1  0  0  0  0
 14 18  2  0  0  0  0
 14 27  1  0  0  0  0
 15 16  1  0  0  0  0
 16 28  1  0  0  0  0
 17 29  1  0  0  0  0
 18 19  1  0  0  0  0
 18 20  1  0  0  0  0
 19 33  1  0  0  0  0
 19 34  1  0  0  0  0
 19 35  1  0  0  0  0
 20 30  1  0  0  0  0
 20 31  1  0  0  0  0
 20 32  1  0  0  0  0
 21 36  1  0  0  0  0
 21 37  1  0  0  0  0
 21 38  1  0  0  0  0
M  END
> <PUBCHEM_COMPOUND_CID>
87840

> <PUBCHEM_COMPOUND_CANONICALIZED>
1

> <PUBCHEM_CACTVS_COMPLEXITY>
430

> <PUBCHEM_CACTVS_HBOND_ACCEPTOR>
4

> <PUBCHEM_CACTVS_HBOND_DONOR>
0

> <PUBCHEM_CACTVS_ROTATABLE_BOND>
3

> <PUBCHEM_CACTVS_SUBSKEYS>
AAADceB6MAAAAAAAAAAAAAAAAAAAASAAAAA8QAAAAAAAAFixwAAAHgAAAAAADAzhmAYyxoMABECIAq1S0ACCCAAtIgAIiAEObMgMJn7MtZuOOejm5hnI6ce/3fPeIAAAAgACAABAAAAEAAQAAAAAAAAAAA==

> <PUBCHEM_IUPAC_OPENEYE_NAME>
7-methoxy-9-(3-methylbut-2-enyl)furo[2,3-b]quinolin-4-one

> <PUBCHEM_IUPAC_CAS_NAME>
7-methoxy-9-(3-methylbut-2-enyl)-4-furo[2,3-b]quinolinone

> <PUBCHEM_IUPAC_NAME>
7-methoxy-9-(3-methylbut-2-enyl)furo[2,3-b]quinolin-4-one

> <PUBCHEM_IUPAC_SYSTEMATIC_NAME>
7-methoxy-9-(3-methylbut-2-enyl)furo[2,3-b]quinolin-4-one

> <PUBCHEM_IUPAC_TRADITIONAL_NAME>
7-methoxy-9-(3-methylbut-2-enyl)furo[2,3-b]quinolin-4-one

> <PUBCHEM_IUPAC_INCHI>
InChI=1S/C17H17NO3/c1-11(2)6-8-18-15-10-12(20-3)4-5-13(15)16(19)14-7-9-21-17(14)18/h4-7,9-10H,8H2,1-3H3

> <PUBCHEM_IUPAC_INCHIKEY>
GARIOWCJZYSSOE-UHFFFAOYSA-N

> <PUBCHEM_XLOGP3_AA>
4

> <PUBCHEM_EXACT_MASS>
283.120843

> <PUBCHEM_MOLECULAR_FORMULA>
C17H17NO3

> <PUBCHEM_MOLECULAR_WEIGHT>
283.32178

> <PUBCHEM_OPENEYE_CAN_SMILES>
CC(=CCN1C2=C(C=CC(=C2)OC)C(=O)C3=C1OC=C3)C

> <PUBCHEM_OPENEYE_ISO_SMILES>
CC(=CCN1C2=C(C=CC(=C2)OC)C(=O)C3=C1OC=C3)C

> <PUBCHEM_CACTVS_TPSA>
42.7

> <PUBCHEM_MONOISOTOPIC_WEIGHT>
283.120843

> <PUBCHEM_TOTAL_CHARGE>
0

> <PUBCHEM_HEAVY_ATOM_COUNT>
21

> <PUBCHEM_ATOM_DEF_STEREO_COUNT>
0

> <PUBCHEM_ATOM_UDEF_STEREO_COUNT>
0

> <PUBCHEM_BOND_DEF_STEREO_COUNT>
0

> <PUBCHEM_BOND_UDEF_STEREO_COUNT>
0

> <PUBCHEM_ISOTOPIC_ATOM_COUNT>
0

> <PUBCHEM_COMPONENT_COUNT>
1

> <PUBCHEM_CACTVS_TAUTO_COUNT>
1

> <PUBCHEM_COORDINATE_TYPE>
1
5
255

> <PUBCHEM_BONDANNOTATIONS>
1  17  8
1  6  8
11  15  8
12  16  8
13  17  8
15  16  8
4  5  8
4  6  8
5  11  8
5  7  8
6  8  8
7  10  8
7  12  8
8  10  8
8  13  8

$$$$

