6118
  -OEChem-06261201073D

  8  7  0     0  0  0  0  0  0999 V2000
    1.6167    0.0842    0.0000 S   0  0  0  0  0  0  0  0  0  0  0  0
   -0.8163    1.1552    0.0000 N   0  0  0  0  0  0  0  0  0  0  0  0
   -0.6632   -1.2106    0.0000 N   0  0  0  0  0  0  0  0  0  0  0  0
   -0.1372   -0.0288   -0.0001 C   0  0  0  0  0  0  0  0  0  0  0  0
   -1.8303    1.1782    0.0008 H   0  0  0  0  0  0  0  0  0  0  0  0
   -0.3331    2.0466    0.0005 H   0  0  0  0  0  0  0  0  0  0  0  0
    1.7041    1.4220   -0.0014 H   0  0  0  0  0  0  0  0  0  0  0  0
    0.0900   -1.9072    0.0000 H   0  0  0  0  0  0  0  0  0  0  0  0
  1  4  1  0  0  0  0
  1  7  1  0  0  0  0
  2  4  1  0  0  0  0
  2  5  1  0  0  0  0
  2  6  1  0  0  0  0
  3  4  2  0  0  0  0
  3  8  1  0  0  0  0
M  END
> <PUBCHEM_COMPOUND_CID>
6118

> <PUBCHEM_CONFORMER_RMSD>
0.4

> <PUBCHEM_CONFORMER_DIVERSEORDER>
1

> <PUBCHEM_MMFF94_PARTIAL_CHARGES>
8
1 -0.32
2 -0.85
3 -0.85
4 0.64
5 0.4
6 0.4
7 0.18
8 0.4

> <PUBCHEM_EFFECTIVE_ROTOR_COUNT>
0

> <PUBCHEM_PHARMACOPHORE_FEATURES>
4
1 2 donor
1 3 donor
3 2 3 4 cation
4 1 2 3 4 anion

> <PUBCHEM_HEAVY_ATOM_COUNT>
4

> <PUBCHEM_ATOM_DEF_STEREO_COUNT>
0

> <PUBCHEM_ATOM_UDEF_STEREO_COUNT>
0

> <PUBCHEM_BOND_DEF_STEREO_COUNT>
0

> <PUBCHEM_BOND_UDEF_STEREO_COUNT>
0

> <PUBCHEM_ISOTOPIC_ATOM_COUNT>
0

> <PUBCHEM_COMPONENT_COUNT>
1

> <PUBCHEM_CACTVS_TAUTO_COUNT>
2

> <PUBCHEM_CONFORMER_ID>
000017E600000001

> <PUBCHEM_MMFF94_ENERGY>
2.9015

> <PUBCHEM_FEATURE_SELFOVERLAP>
20.334

> <PUBCHEM_SHAPE_FINGERPRINT>
139733 1 9221860758280822146
20096714 4 18195527219172578936
21015797 1 8862944991355563082
5943 1 15585965223696151539

> <PUBCHEM_SHAPE_MULTIPOLES>
76.21
1.64
1.17
0.6
0.85
0.01
0
-0.05
0
-0.45
0
0.07
0
0

> <PUBCHEM_SHAPE_SELFOVERLAP>
122.877

> <PUBCHEM_SHAPE_VOLUME>
54.4

> <PUBCHEM_COORDINATE_TYPE>
2
5
10

$$$$

