12304043
  -OEChem-07051213092D

 44 47  0     1  0  0  0  0  0999 V2000
    7.5587   -2.9004    0.0000 O   0  0  0  0  0  0  0  0  0  0  0  0
    6.9654    1.7077    0.0000 N   0  0  3  0  0  0  0  0  0  0  0  0
    4.5124    0.5902    0.0000 N   0  0  0  0  0  0  0  0  0  0  0  0
    6.2962    0.9645    0.0000 C   0  0  1  0  0  0  0  0  0  0  0  0
    7.6200   -0.2554    0.0000 C   0  0  1  0  0  0  0  0  0  0  0  0
    6.6028   -0.0310    0.0000 C   0  0  0  0  0  0  0  0  0  0  0  0
    8.3170    0.5187    0.0000 C   0  0  2  0  0  0  0  0  0  0  0  0
    7.9875    1.5068    0.0000 C   0  0  0  0  0  0  0  0  0  0  0  0
    5.3181    1.1724    0.0000 C   0  0  0  0  0  0  0  0  0  0  0  0
    6.6564    2.6587    0.0000 C   0  0  0  0  0  0  0  0  0  0  0  0
    5.0091    2.1235    0.0000 C   0  0  0  0  0  0  0  0  0  0  0  0
    5.6782    2.8666    0.0000 C   0  0  0  0  0  0  0  0  0  0  0  0
    7.9253   -1.2076    0.0000 C   0  0  0  0  0  0  0  0  0  0  0  0
    4.0150    2.1209    0.0000 C   0  0  0  0  0  0  0  0  0  0  0  0
    9.2959    0.3146    0.0000 C   0  0  0  0  0  0  0  0  0  0  0  0
    3.7086    1.1752    0.0000 C   0  0  0  0  0  0  0  0  0  0  0  0
    7.2533   -1.9482    0.0000 C   0  0  0  0  0  0  0  0  0  0  0  0
    3.3334    2.9004    0.0000 C   0  0  0  0  0  0  0  0  0  0  0  0
    2.6994    0.9435    0.0000 C   0  0  0  0  0  0  0  0  0  0  0  0
    9.9622    1.0603    0.0000 C   0  0  0  0  0  0  0  0  0  0  0  0
    2.3191    2.6921    0.0000 C   0  0  0  0  0  0  0  0  0  0  0  0
    2.0000    1.7070    0.0000 C   0  0  0  0  0  0  0  0  0  0  0  0
    5.7226    0.3373    0.0000 H   0  0  0  0  0  0  0  0  0  0  0  0
    8.2262   -0.3855    0.0000 H   0  0  0  0  0  0  0  0  0  0  0  0
    5.9878   -0.1094    0.0000 H   0  0  0  0  0  0  0  0  0  0  0  0
    6.5748   -0.6503    0.0000 H   0  0  0  0  0  0  0  0  0  0  0  0
    8.7292    0.9818    0.0000 H   0  0  0  0  0  0  0  0  0  0  0  0
    8.6005    1.5994    0.0000 H   0  0  0  0  0  0  0  0  0  0  0  0
    8.0011    2.1267    0.0000 H   0  0  0  0  0  0  0  0  0  0  0  0
    7.2703    2.7450    0.0000 H   0  0  0  0  0  0  0  0  0  0  0  0
    6.6780    3.2784    0.0000 H   0  0  0  0  0  0  0  0  0  0  0  0
    5.9105    3.4415    0.0000 H   0  0  0  0  0  0  0  0  0  0  0  0
    5.1524    3.1952    0.0000 H   0  0  0  0  0  0  0  0  0  0  0  0
    8.3052   -1.6976    0.0000 H   0  0  0  0  0  0  0  0  0  0  0  0
    8.4739   -0.9187    0.0000 H   0  0  0  0  0  0  0  0  0  0  0  0
    4.5113   -0.0298    0.0000 H   0  0  0  0  0  0  0  0  0  0  0  0
    9.4898   -0.2743    0.0000 H   0  0  0  0  0  0  0  0  0  0  0  0
    6.6474   -1.8169    0.0000 H   0  0  0  0  0  0  0  0  0  0  0  0
    3.5313    3.4880    0.0000 H   0  0  0  0  0  0  0  0  0  0  0  0
    2.5152    0.3515    0.0000 H   0  0  0  0  0  0  0  0  0  0  0  0
   10.5691    0.9337    0.0000 H   0  0  0  0  0  0  0  0  0  0  0  0
    9.7683    1.6492    0.0000 H   0  0  0  0  0  0  0  0  0  0  0  0
    1.9056    3.1541    0.0000 H   0  0  0  0  0  0  0  0  0  0  0  0
    1.3942    1.5752    0.0000 H   0  0  0  0  0  0  0  0  0  0  0  0
  1 17  2  0  0  0  0
  2  4  1  0  0  0  0
  2  8  1  0  0  0  0
  2 10  1  0  0  0  0
  3  9  1  0  0  0  0
  3 16  1  0  0  0  0
  3 36  1  0  0  0  0
  4  6  1  0  0  0  0
  4  9  1  0  0  0  0
  4 23  1  6  0  0  0
  5  6  1  0  0  0  0
  5  7  1  0  0  0  0
  5 13  1  1  0  0  0
  5 24  1  0  0  0  0
  6 25  1  0  0  0  0
  6 26  1  0  0  0  0
  7  8  1  0  0  0  0
  7 15  1  6  0  0  0
  7 27  1  0  0  0  0
  8 28  1  0  0  0  0
  8 29  1  0  0  0  0
  9 11  2  0  0  0  0
 10 12  1  0  0  0  0
 10 30  1  0  0  0  0
 10 31  1  0  0  0  0
 11 12  1  0  0  0  0
 11 14  1  0  0  0  0
 12 32  1  0  0  0  0
 12 33  1  0  0  0  0
 13 17  1  0  0  0  0
 13 34  1  0  0  0  0
 13 35  1  0  0  0  0
 14 16  1  0  0  0  0
 14 18  2  0  0  0  0
 15 20  2  0  0  0  0
 15 37  1  0  0  0  0
 16 19  2  0  0  0  0
 17 38  1  0  0  0  0
 18 21  1  0  0  0  0
 18 39  1  0  0  0  0
 19 22  1  0  0  0  0
 19 40  1  0  0  0  0
 20 41  1  0  0  0  0
 20 42  1  0  0  0  0
 21 22  2  0  0  0  0
 21 43  1  0  0  0  0
 22 44  1  0  0  0  0
M  END
> <PUBCHEM_COMPOUND_CID>
12304043

> <PUBCHEM_COMPOUND_CANONICALIZED>
1

> <PUBCHEM_CACTVS_COMPLEXITY>
437

> <PUBCHEM_CACTVS_HBOND_ACCEPTOR>
2

> <PUBCHEM_CACTVS_HBOND_DONOR>
1

> <PUBCHEM_CACTVS_ROTATABLE_BOND>
3

> <PUBCHEM_CACTVS_SUBSKEYS>
AAADceB7IAAAAAAAAAAAAAAAAAAAAWAAAAA8WIAAAAAAAFix8AAAHgAQAAAADSjhngYwwPPJkACoAyxyxACCgCAhAiAImSE4ZJgIYPLAkZGUIAhgkADIyAcYicCegAAAAAACAAAAAAAAAAQAAAAAAAAAAA==

> <PUBCHEM_IUPAC_OPENEYE_NAME>
2-[(2R,3R,12bS)-3-vinyl-1,2,3,4,6,7,12,12b-octahydroindolo[2,3-a]quinolizin-2-yl]acetaldehyde

> <PUBCHEM_IUPAC_CAS_NAME>
2-[(2R,3R,12bS)-3-ethenyl-1,2,3,4,6,7,12,12b-octahydroindolo[2,3-a]quinolizin-2-yl]acetaldehyde

> <PUBCHEM_IUPAC_NAME>
2-[(2R,3R,12bS)-3-ethenyl-1,2,3,4,6,7,12,12b-octahydroindolo[2,3-a]quinolizin-2-yl]acetaldehyde

> <PUBCHEM_IUPAC_SYSTEMATIC_NAME>
2-[(2R,3R,12bS)-3-ethenyl-1,2,3,4,6,7,12,12b-octahydroindolo[2,3-a]quinolizin-2-yl]ethanal

> <PUBCHEM_IUPAC_TRADITIONAL_NAME>
2-[(2R,3R,12bS)-3-vinyl-1,2,3,4,6,7,12,12b-octahydropyrido[2,1-a]$b-carbolin-2-yl]acetaldehyde

> <PUBCHEM_IUPAC_INCHI>
InChI=1S/C19H22N2O/c1-2-13-12-21-9-7-16-15-5-3-4-6-17(15)20-19(16)18(21)11-14(13)8-10-22/h2-6,10,13-14,18,20H,1,7-9,11-12H2/t13-,14-,18-/m0/s1

> <PUBCHEM_IUPAC_INCHIKEY>
SERYQFDKEYVUFP-DEYYWGMASA-N

> <PUBCHEM_XLOGP3_AA>
2.7

> <PUBCHEM_EXACT_MASS>
294.173213

> <PUBCHEM_MOLECULAR_FORMULA>
C19H22N2O

> <PUBCHEM_MOLECULAR_WEIGHT>
294.39078

> <PUBCHEM_OPENEYE_CAN_SMILES>
C=CC1CN2CCC3=C(C2CC1CC=O)NC4=CC=CC=C34

> <PUBCHEM_OPENEYE_ISO_SMILES>
C=C[C@H]1CN2CCC3=C([C@@H]2C[C@@H]1CC=O)NC4=CC=CC=C34

> <PUBCHEM_CACTVS_TPSA>
36.1

> <PUBCHEM_MONOISOTOPIC_WEIGHT>
294.173213

> <PUBCHEM_TOTAL_CHARGE>
0

> <PUBCHEM_HEAVY_ATOM_COUNT>
22

> <PUBCHEM_ATOM_DEF_STEREO_COUNT>
3

> <PUBCHEM_ATOM_UDEF_STEREO_COUNT>
0

> <PUBCHEM_BOND_DEF_STEREO_COUNT>
0

> <PUBCHEM_BOND_UDEF_STEREO_COUNT>
0

> <PUBCHEM_ISOTOPIC_ATOM_COUNT>
0

> <PUBCHEM_COMPONENT_COUNT>
1

> <PUBCHEM_CACTVS_TAUTO_COUNT>
2

> <PUBCHEM_COORDINATE_TYPE>
1
5
255

> <PUBCHEM_BONDANNOTATIONS>
11  14  8
14  16  8
14  18  8
16  19  8
18  21  8
19  22  8
21  22  8
3  16  8
3  9  8
4  23  6
5  13  5
7  15  6
9  11  8

$$$$

