443336
  -OEChem-07051213023D

 71 74  0     1  0  0  0  0  0999 V2000
   -6.0883   -1.2956   -1.0471 O   0  0  0  0  0  0  0  0  0  0  0  0
   -0.7865   -0.5894   -0.3706 O   0  0  0  0  0  0  0  0  0  0  0  0
   -2.2981   -1.1499    1.3379 O   0  0  0  0  0  0  0  0  0  0  0  0
    0.9762    0.8916    0.0083 O   0  0  0  0  0  0  0  0  0  0  0  0
    0.9025   -2.7464    0.3386 O   0  0  0  0  0  0  0  0  0  0  0  0
    3.7379   -2.1419   -0.1866 O   0  0  0  0  0  0  0  0  0  0  0  0
   -2.9116    3.3348    0.4055 O   0  0  0  0  0  0  0  0  0  0  0  0
    4.4679    0.3933    0.9948 O   0  0  0  0  0  0  0  0  0  0  0  0
   -5.9140   -3.2922    0.1095 O   0  0  0  0  0  0  0  0  0  0  0  0
    2.7905    2.7185   -1.0214 O   0  0  0  0  0  0  0  0  0  0  0  0
   -0.3152   -2.9760   -1.6111 O   0  0  0  0  0  0  0  0  0  0  0  0
    3.3456   -3.7689    1.4058 O   0  0  0  0  0  0  0  0  0  0  0  0
    5.7456   -0.3290   -0.7893 O   0  0  0  0  0  0  0  0  0  0  0  0
   -2.9381    4.6331    2.3162 O   0  0  0  0  0  0  0  0  0  0  0  0
    3.3205    4.9544   -0.7824 O   0  0  0  0  0  0  0  0  0  0  0  0
   -3.7999   -0.7077   -1.1451 C   0  0  2  0  0  0  0  0  0  0  0  0
   -2.9889    0.4334   -0.5322 C   0  0  2  0  0  0  0  0  0  0  0  0
   -5.2102   -0.1995   -1.3648 C   0  0  2  0  0  0  0  0  0  0  0  0
   -1.8949   -0.1273    0.4089 C   0  0  2  0  0  0  0  0  0  0  0  0
   -4.0852    1.2855    0.0755 C   0  0  0  0  0  0  0  0  0  0  0  0
   -4.0686   -1.7613   -0.1412 C   0  0  0  0  0  0  0  0  0  0  0  0
   -5.2980    0.9397   -0.3906 C   0  0  0  0  0  0  0  0  0  0  0  0
    0.4463   -0.3943    0.3218 C   0  0  2  0  0  0  0  0  0  0  0  0
    1.4126   -1.4940   -0.1182 C   0  0  1  0  0  0  0  0  0  0  0  0
   -5.4364   -2.2612   -0.3239 C   0  0  0  0  0  0  0  0  0  0  0  0
   -3.3659   -1.9279    0.9774 C   0  0  0  0  0  0  0  0  0  0  0  0
    2.8091   -1.2724    0.4628 C   0  0  2  0  0  0  0  0  0  0  0  0
   -3.7904    2.4000    1.0138 C   0  0  0  0  0  0  0  0  0  0  0  0
    3.2770    0.1667    0.2454 C   0  0  1  0  0  0  0  0  0  0  0  0
    2.2018    1.1606    0.6912 C   0  0  1  0  0  0  0  0  0  0  0  0
    2.5977    2.5997    0.3762 C   0  0  0  0  0  0  0  0  0  0  0  0
    0.0452   -3.3803   -0.5139 C   0  0  0  0  0  0  0  0  0  0  0  0
    3.9075   -3.3635    0.3973 C   0  0  0  0  0  0  0  0  0  0  0  0
    5.6367    0.1012    0.3510 C   0  0  0  0  0  0  0  0  0  0  0  0
   -2.5628    4.4128    1.1727 C   0  0  0  0  0  0  0  0  0  0  0  0
   -0.4059   -4.6740    0.0935 C   0  0  0  0  0  0  0  0  0  0  0  0
    4.9030   -4.1629   -0.3877 C   0  0  0  0  0  0  0  0  0  0  0  0
    3.1532    3.9595   -1.4747 C   0  0  0  0  0  0  0  0  0  0  0  0
    6.7979    0.3872    1.2543 C   0  0  0  0  0  0  0  0  0  0  0  0
   -1.6371    5.3080    0.4062 C   0  0  0  0  0  0  0  0  0  0  0  0
    3.3215    3.9353   -2.9637 C   0  0  0  0  0  0  0  0  0  0  0  0
   -3.3457   -1.1344   -2.0454 H   0  0  0  0  0  0  0  0  0  0  0  0
   -2.5136    1.0181   -1.3316 H   0  0  0  0  0  0  0  0  0  0  0  0
   -5.3933    0.1368   -2.3902 H   0  0  0  0  0  0  0  0  0  0  0  0
   -1.5528    0.7158    1.0229 H   0  0  0  0  0  0  0  0  0  0  0  0
   -6.2237    1.4314   -0.1277 H   0  0  0  0  0  0  0  0  0  0  0  0
    0.2840   -0.4765    1.4064 H   0  0  0  0  0  0  0  0  0  0  0  0
    1.5044   -1.5013   -1.2136 H   0  0  0  0  0  0  0  0  0  0  0  0
   -3.6322   -2.6067    1.7749 H   0  0  0  0  0  0  0  0  0  0  0  0
    2.8086   -1.4731    1.5434 H   0  0  0  0  0  0  0  0  0  0  0  0
   -3.3343    2.0010    1.9273 H   0  0  0  0  0  0  0  0  0  0  0  0
   -4.7181    2.9134    1.2956 H   0  0  0  0  0  0  0  0  0  0  0  0
    3.4643    0.3070   -0.8284 H   0  0  0  0  0  0  0  0  0  0  0  0
    2.0375    1.0897    1.7746 H   0  0  0  0  0  0  0  0  0  0  0  0
    1.7873    3.2745    0.6776 H   0  0  0  0  0  0  0  0  0  0  0  0
    3.5144    2.8771    0.9088 H   0  0  0  0  0  0  0  0  0  0  0  0
    0.4541   -5.3307    0.2464 H   0  0  0  0  0  0  0  0  0  0  0  0
   -1.1075   -5.1679   -0.5848 H   0  0  0  0  0  0  0  0  0  0  0  0
   -0.9165   -4.4802    1.0403 H   0  0  0  0  0  0  0  0  0  0  0  0
    4.5347   -4.3164   -1.4051 H   0  0  0  0  0  0  0  0  0  0  0  0
    5.0379   -5.1397    0.0856 H   0  0  0  0  0  0  0  0  0  0  0  0
    5.8658   -3.6459   -0.3999 H   0  0  0  0  0  0  0  0  0  0  0  0
    6.8049    1.4462    1.5243 H   0  0  0  0  0  0  0  0  0  0  0  0
    7.7300    0.1545    0.7316 H   0  0  0  0  0  0  0  0  0  0  0  0
    6.7341   -0.2384    2.1481 H   0  0  0  0  0  0  0  0  0  0  0  0
   -2.1376    5.6758   -0.4930 H   0  0  0  0  0  0  0  0  0  0  0  0
   -1.3628    6.1649    1.0281 H   0  0  0  0  0  0  0  0  0  0  0  0
   -0.7270    4.7621    0.1445 H   0  0  0  0  0  0  0  0  0  0  0  0
    2.3754    3.6637   -3.4385 H   0  0  0  0  0  0  0  0  0  0  0  0
    3.6144    4.9298   -3.3124 H   0  0  0  0  0  0  0  0  0  0  0  0
    4.1067    3.2254   -3.2355 H   0  0  0  0  0  0  0  0  0  0  0  0
  1 18  1  0  0  0  0
  1 25  1  0  0  0  0
  2 19  1  0  0  0  0
  2 23  1  0  0  0  0
  3 19  1  0  0  0  0
  3 26  1  0  0  0  0
  4 23  1  0  0  0  0
  4 30  1  0  0  0  0
  5 24  1  0  0  0  0
  5 32  1  0  0  0  0
  6 27  1  0  0  0  0
  6 33  1  0  0  0  0
  7 28  1  0  0  0  0
  7 35  1  0  0  0  0
  8 29  1  0  0  0  0
  8 34  1  0  0  0  0
  9 25  2  0  0  0  0
 10 31  1  0  0  0  0
 10 38  1  0  0  0  0
 11 32  2  0  0  0  0
 12 33  2  0  0  0  0
 13 34  2  0  0  0  0
 14 35  2  0  0  0  0
 15 38  2  0  0  0  0
 16 17  1  0  0  0  0
 16 18  1  0  0  0  0
 16 21  1  0  0  0  0
 16 42  1  0  0  0  0
 17 19  1  0  0  0  0
 17 20  1  0  0  0  0
 17 43  1  0  0  0  0
 18 22  1  0  0  0  0
 18 44  1  0  0  0  0
 19 45  1  0  0  0  0
 20 22  2  0  0  0  0
 20 28  1  0  0  0  0
 21 25  1  0  0  0  0
 21 26  2  0  0  0  0
 22 46  1  0  0  0  0
 23 24  1  0  0  0  0
 23 47  1  0  0  0  0
 24 27  1  0  0  0  0
 24 48  1  0  0  0  0
 26 49  1  0  0  0  0
 27 29  1  0  0  0  0
 27 50  1  0  0  0  0
 28 51  1  0  0  0  0
 28 52  1  0  0  0  0
 29 30  1  0  0  0  0
 29 53  1  0  0  0  0
 30 31  1  0  0  0  0
 30 54  1  0  0  0  0
 31 55  1  0  0  0  0
 31 56  1  0  0  0  0
 32 36  1  0  0  0  0
 33 37  1  0  0  0  0
 34 39  1  0  0  0  0
 35 40  1  0  0  0  0
 36 57  1  0  0  0  0
 36 58  1  0  0  0  0
 36 59  1  0  0  0  0
 37 60  1  0  0  0  0
 37 61  1  0  0  0  0
 37 62  1  0  0  0  0
 38 41  1  0  0  0  0
 39 63  1  0  0  0  0
 39 64  1  0  0  0  0
 39 65  1  0  0  0  0
 40 66  1  0  0  0  0
 40 67  1  0  0  0  0
 40 68  1  0  0  0  0
 41 69  1  0  0  0  0
 41 70  1  0  0  0  0
 41 71  1  0  0  0  0
M  END
> <PUBCHEM_COMPOUND_CID>
443336

> <PUBCHEM_CONFORMER_RMSD>
1.4

> <PUBCHEM_CONFORMER_DIVERSEORDER>
1
4
11
9
13
7
6
5
8
12
10
2
3

> <PUBCHEM_MMFF94_PARTIAL_CHARGES>
43
1 -0.43
10 -0.43
11 -0.57
12 -0.57
13 -0.57
14 -0.57
15 -0.57
16 0.14
17 0.14
18 0.42
19 0.56
2 -0.56
20 -0.28
21 -0.12
22 -0.29
23 0.56
24 0.28
25 0.71
26 -0.07
27 0.28
28 0.42
29 0.28
3 -0.36
30 0.28
31 0.28
32 0.66
33 0.66
34 0.66
35 0.66
36 0.06
37 0.06
38 0.66
39 0.06
4 -0.56
40 0.06
41 0.06
46 0.15
49 0.15
5 -0.43
6 -0.43
7 -0.43
8 -0.43
9 -0.57

> <PUBCHEM_EFFECTIVE_ROTOR_COUNT>
15.8

> <PUBCHEM_PHARMACOPHORE_FEATURES>
13
1 11 acceptor
1 12 acceptor
1 13 acceptor
1 14 acceptor
1 15 acceptor
1 2 acceptor
1 3 acceptor
1 4 acceptor
1 9 acceptor
5 1 16 18 21 25 rings
5 16 17 18 20 22 rings
6 3 16 17 19 21 26 rings
6 4 23 24 27 29 30 rings

> <PUBCHEM_HEAVY_ATOM_COUNT>
41

> <PUBCHEM_ATOM_DEF_STEREO_COUNT>
9

> <PUBCHEM_ATOM_UDEF_STEREO_COUNT>
0

> <PUBCHEM_BOND_DEF_STEREO_COUNT>
0

> <PUBCHEM_BOND_UDEF_STEREO_COUNT>
0

> <PUBCHEM_ISOTOPIC_ATOM_COUNT>
0

> <PUBCHEM_COMPONENT_COUNT>
1

> <PUBCHEM_CACTVS_TAUTO_COUNT>
1

> <PUBCHEM_CONFORMER_ID>
0006C3C800000001

> <PUBCHEM_MMFF94_ENERGY>
91.0643

> <PUBCHEM_FEATURE_SELFOVERLAP>
66.959

> <PUBCHEM_SHAPE_FINGERPRINT>
10190206 1 18051947266165339180
10439779 11 18338523057409701960
10940486 97 18050279564000703972
11513181 2 18041282192068778830
12107183 9 17688312712553745819
13560911 43 18130517396106234177
13911987 19 17981033116637306781
140371 6 18413105048550778008
15082195 135 18341897376547381885
15320467 1 18337394824981955545
15927050 60 17037822440159680973
18681886 176 18338527335006750496
20739085 24 18195802101785855984
22311459 1 18410295770988802794
23559900 14 18337686273410472881
6371009 1 18411144614717868504

> <PUBCHEM_SHAPE_MULTIPOLES>
755.72
13.91
7.56
1.49
1.09
5.47
-0.49
-3.31
-0.47
1.91
-0.14
0.42
1.59
-3.45

> <PUBCHEM_SHAPE_SELFOVERLAP>
1604.685

> <PUBCHEM_SHAPE_VOLUME>
416.2

> <PUBCHEM_COORDINATE_TYPE>
2
5
10

$$$$

