11211
  -OEChem-06261205243D

 30 29  0     0  0  0  0  0  0999 V2000
   -0.0708   -0.3434   -2.0444 F   0  0  0  0  0  0  0  0  0  0  0  0
    1.8632   -1.2259   -1.6009 F   0  0  0  0  0  0  0  0  0  0  0  0
   -0.1540   -2.6135   -0.4800 F   0  0  0  0  0  0  0  0  0  0  0  0
    1.0747   -1.6278    1.0241 F   0  0  0  0  0  0  0  0  0  0  0  0
    0.2391    1.5602   -0.2101 F   0  0  0  0  0  0  0  0  0  0  0  0
    1.8146    1.4599   -1.7058 F   0  0  0  0  0  0  0  0  0  0  0  0
   -1.5137   -1.6773    1.6235 F   0  0  0  0  0  0  0  0  0  0  0  0
   -0.7379    0.3367    1.3331 F   0  0  0  0  0  0  0  0  0  0  0  0
    1.8521    0.4566    1.6650 F   0  0  0  0  0  0  0  0  0  0  0  0
    2.6122    2.2523    0.7108 F   0  0  0  0  0  0  0  0  0  0  0  0
    3.5027   -1.0715    0.0208 F   0  0  0  0  0  0  0  0  0  0  0  0
    4.5238    0.3817    1.2861 F   0  0  0  0  0  0  0  0  0  0  0  0
    4.3035    0.7516   -0.8537 F   0  0  0  0  0  0  0  0  0  0  0  0
   -3.3116    0.0092    0.4730 O   0  0  0  0  0  0  0  0  0  0  0  0
   -4.5746    0.2049   -1.4523 O   0  0  0  0  0  0  0  0  0  0  0  0
    0.8321   -0.5451   -1.0411 C   0  0  0  0  0  0  0  0  0  0  0  0
    0.1695   -1.3988    0.0323 C   0  0  0  0  0  0  0  0  0  0  0  0
    1.3215    0.8282   -0.6012 C   0  0  0  0  0  0  0  0  0  0  0  0
   -1.0743   -0.8031    0.6757 C   0  0  0  0  0  0  0  0  0  0  0  0
    2.3646    0.9270    0.5001 C   0  0  0  0  0  0  0  0  0  0  0  0
   -2.2184   -0.5110   -0.2768 C   0  0  0  0  0  0  0  0  0  0  0  0
    3.6866    0.2508    0.2356 C   0  0  0  0  0  0  0  0  0  0  0  0
   -4.4263    0.3241   -0.2463 C   0  0  0  0  0  0  0  0  0  0  0  0
   -5.4413    0.8445    0.6929 C   0  0  0  0  0  0  0  0  0  0  0  0
   -6.6374    1.2297    0.2393 C   0  0  0  0  0  0  0  0  0  0  0  0
   -2.5338   -1.4290   -0.7847 H   0  0  0  0  0  0  0  0  0  0  0  0
   -1.9341    0.2483   -1.0100 H   0  0  0  0  0  0  0  0  0  0  0  0
   -5.2013    0.9081    1.7483 H   0  0  0  0  0  0  0  0  0  0  0  0
   -7.3823    1.6116    0.9296 H   0  0  0  0  0  0  0  0  0  0  0  0
   -6.9074    1.1783   -0.8096 H   0  0  0  0  0  0  0  0  0  0  0  0
  1 16  1  0  0  0  0
  2 16  1  0  0  0  0
  3 17  1  0  0  0  0
  4 17  1  0  0  0  0
  5 18  1  0  0  0  0
  6 18  1  0  0  0  0
  7 19  1  0  0  0  0
  8 19  1  0  0  0  0
  9 20  1  0  0  0  0
 10 20  1  0  0  0  0
 11 22  1  0  0  0  0
 12 22  1  0  0  0  0
 13 22  1  0  0  0  0
 14 21  1  0  0  0  0
 14 23  1  0  0  0  0
 15 23  2  0  0  0  0
 16 17  1  0  0  0  0
 16 18  1  0  0  0  0
 17 19  1  0  0  0  0
 18 20  1  0  0  0  0
 19 21  1  0  0  0  0
 20 22  1  0  0  0  0
 21 26  1  0  0  0  0
 21 27  1  0  0  0  0
 23 24  1  0  0  0  0
 24 25  2  0  0  0  0
 24 28  1  0  0  0  0
 25 29  1  0  0  0  0
 25 30  1  0  0  0  0
M  END
> <PUBCHEM_COMPOUND_CID>
11211

> <PUBCHEM_CONFORMER_RMSD>
1

> <PUBCHEM_CONFORMER_DIVERSEORDER>
1
158
50
70
111
67
165
128
21
52
25
93
189
13
151
82
115
84
90
104
173
56
153
51
147
162
161
113
8
62
78
46
60
41
148
136
174
103
12
169
55
188
57
34
108
141
91
134
146
172
176
142
43
35
72
53
31
40
127
143
130
29
65
175
159
184
156
7
149
183
129
160
107
61
123
138
73
16
137
106
125
79
166
47
88
5
152
164
74
3
95
170
179
6
77
92
96
101
36
14
87
186
45
109
49
144
190
167
58
80
139
4
171
83
59
157
15
17
64
97
132
102
9
66
150
182
187
116
112
118
117
32
10
100
119
180
71
42
24
63
121
178
155
26
126
181
2
120
68
131
30
163
185
140
44
48
86
124
168
98
37
89
177
122
28
18
145
133
23
33
22
75
114
99
20
69
38
54
105
76
39
85
27
11
135
154
94
81
110
19

> <PUBCHEM_MMFF94_PARTIAL_CHARGES>
28
1 -0.34
10 -0.34
11 -0.34
12 -0.34
13 -0.34
14 -0.43
15 -0.57
16 0.68
17 0.68
18 0.68
19 0.68
2 -0.34
20 0.68
21 0.28
22 1.02
23 0.71
24 -0.14
25 -0.3
28 0.15
29 0.15
3 -0.34
30 0.15
4 -0.34
5 -0.34
6 -0.34
7 -0.34
8 -0.34
9 -0.34

> <PUBCHEM_EFFECTIVE_ROTOR_COUNT>
9

> <PUBCHEM_PHARMACOPHORE_FEATURES>
2
1 15 acceptor
1 25 hydrophobe

> <PUBCHEM_HEAVY_ATOM_COUNT>
25

> <PUBCHEM_ATOM_DEF_STEREO_COUNT>
0

> <PUBCHEM_ATOM_UDEF_STEREO_COUNT>
0

> <PUBCHEM_BOND_DEF_STEREO_COUNT>
0

> <PUBCHEM_BOND_UDEF_STEREO_COUNT>
0

> <PUBCHEM_ISOTOPIC_ATOM_COUNT>
0

> <PUBCHEM_COMPONENT_COUNT>
1

> <PUBCHEM_CACTVS_TAUTO_COUNT>
1

> <PUBCHEM_CONFORMER_ID>
00002BCB00000001

> <PUBCHEM_MMFF94_ENERGY>
25.0021

> <PUBCHEM_FEATURE_SELFOVERLAP>
10.148

> <PUBCHEM_SHAPE_FINGERPRINT>
10064457 181 14836115520846449585
10863032 1 18336830775569627906
10948715 1 18187651236783112006
11646440 116 18261383447983086177
12011746 2 18187071867786831876
12236239 1 17603871122084716471
12403259 415 18116425956052080049
12596602 18 14764625322385552821
12633257 1 17632580427126758713
12778500 126 13038908893482680797
128620 24 14707202202364098575
13134695 92 18260829336449392988
13464513 79 9583513213979467361
13544653 18 8790893999194026589
14251764 30 13182752479852160424
14252887 29 10663822987693620721
14341114 176 14836400350762329873
15061688 2 17968663700607365024
15142383 8 9799421053136779079
15183329 4 6699529348226197985
15375462 189 12895079483186404648
15527383 91 12247676059026490271
15788980 27 17458062656000384815
1601671 61 17632578262014757892
16945 1 17263557713180242314
17349148 13 18261107465746690083
17492 54 5472569061674839608
18186145 218 18342172298084617031
18222031 100 10663817434897045089
192875 21 17167857543616413128
200 152 4750881441951665505
21521721 280 7637103905659623414
21637258 2 11527957737358420512
23402539 116 18113342998620638245
23419403 2 17556321766283587190
23557571 272 18335133138791923403
23559900 14 18343009009079672014
2871803 45 6050450297102119957
296302 2 18338233769670681876
3060560 45 17095522906939224485
3286 77 4895281382465153722
351380 180 18186805768344979209
3737641 26 10375329867250567849
4072396 5 18271531978091271123
4340502 62 18334852819240484431
465052 167 16415483782664278280
474 4 18408318883141152065
5104073 3 17702948019725927313
633830 44 18262526900861682141
83771 10 9943811079720918515
8509985 295 17846780715202516297
9999458 23 18131632274947218116

> <PUBCHEM_SHAPE_MULTIPOLES>
408.19
10.1
1.74
1.46
15.06
0.35
-0.23
-4.94
0.72
-0.63
0.1
-0.41
0.1
0.11

> <PUBCHEM_SHAPE_SELFOVERLAP>
867.503

> <PUBCHEM_SHAPE_VOLUME>
223.3

> <PUBCHEM_COORDINATE_TYPE>
2
5
10

$$$$

