14923
  -OEChem-07051212452D

  7  5  0     0  0  0  0  0  0999 V2000
    0.0369    0.0000    0.0000 O   0  5  0  0  0  0  0  0  0  0  0  0
    0.5369    3.0369    0.0000 N   0  3  0  0  0  0  0  0  0  0  0  0
    1.0739    3.3469    0.0000 H   0  0  0  0  0  0  0  0  0  0  0  0
    0.0000    2.7269    0.0000 H   0  0  0  0  0  0  0  0  0  0  0  0
    0.2269    3.5739    0.0000 H   0  0  0  0  0  0  0  0  0  0  0  0
    0.8469    2.5000    0.0000 H   0  0  0  0  0  0  0  0  0  0  0  0
    1.0369    0.0000    0.0000 H   0  0  0  0  0  0  0  0  0  0  0  0
  1  7  1  0  0  0  0
  2  3  1  0  0  0  0
  2  4  1  0  0  0  0
  2  5  1  0  0  0  0
  2  6  1  0  0  0  0
M  CHG  2   1  -1   2   1
M  END
> <PUBCHEM_COMPOUND_CID>
14923

> <PUBCHEM_COMPOUND_CANONICALIZED>
1

> <PUBCHEM_CACTVS_COMPLEXITY>
0

> <PUBCHEM_CACTVS_HBOND_ACCEPTOR>
1

> <PUBCHEM_CACTVS_HBOND_DONOR>
2

> <PUBCHEM_CACTVS_ROTATABLE_BOND>
0

> <PUBCHEM_CACTVS_SUBSKEYS>
AAADcYACIAAAAAAAAAAAAAAAAAAAAAAAAAAAAAAAAAAAAAAAAAAAAAAQCAAAAAAAAAAAAAAAAAAAAAAAAAAAAAAAAAAAAAAAAAAAAAAAAAAAAAAAAAAAAAAAAAAAAAAAAAAAAAAAAAAAAAAAAAAAAAAAAA==

> <PUBCHEM_IUPAC_OPENEYE_NAME>
ammonium hydroxide

> <PUBCHEM_IUPAC_CAS_NAME>
ammonium hydroxide

> <PUBCHEM_IUPAC_NAME>
azanium hydroxide

> <PUBCHEM_IUPAC_SYSTEMATIC_NAME>
azanium hydroxide

> <PUBCHEM_IUPAC_TRADITIONAL_NAME>
ammonium hydroxide

> <PUBCHEM_IUPAC_INCHI>
InChI=1S/H3N.H2O/h1H3;1H2

> <PUBCHEM_IUPAC_INCHIKEY>
VHUUQVKOLVNVRT-UHFFFAOYSA-N

> <PUBCHEM_EXACT_MASS>
35.037114

> <PUBCHEM_MOLECULAR_FORMULA>
H5NO

> <PUBCHEM_MOLECULAR_WEIGHT>
35.0458

> <PUBCHEM_OPENEYE_CAN_SMILES>
[NH4+].[OH-]

> <PUBCHEM_OPENEYE_ISO_SMILES>
[NH4+].[OH-]

> <PUBCHEM_CACTVS_TPSA>
2

> <PUBCHEM_MONOISOTOPIC_WEIGHT>
35.037114

> <PUBCHEM_TOTAL_CHARGE>
0

> <PUBCHEM_HEAVY_ATOM_COUNT>
2

> <PUBCHEM_ATOM_DEF_STEREO_COUNT>
0

> <PUBCHEM_ATOM_UDEF_STEREO_COUNT>
0

> <PUBCHEM_BOND_DEF_STEREO_COUNT>
0

> <PUBCHEM_BOND_UDEF_STEREO_COUNT>
0

> <PUBCHEM_ISOTOPIC_ATOM_COUNT>
0

> <PUBCHEM_COMPONENT_COUNT>
2

> <PUBCHEM_CACTVS_TAUTO_COUNT>
1

> <PUBCHEM_COORDINATE_TYPE>
1
5
255

$$$$

