14314
  -OEChem-06241222433D

 20 21  0     0  0  0  0  0  0999 V2000
    2.6346    1.2374   -0.2821 S   0  0  0  0  0  0  0  0  0  0  0  0
   -2.1711    0.2610    0.0769 N   0  0  0  0  0  0  0  0  0  0  0  0
   -0.5588    1.7941   -0.0626 N   0  0  0  0  0  0  0  0  0  0  0  0
   -0.8290   -1.7626    0.0117 N   0  0  0  0  0  0  0  0  0  0  0  0
    1.5491   -1.2435   -0.1661 N   0  0  0  0  0  0  0  0  0  0  0  0
   -0.9962   -0.4316    0.0034 C   0  0  0  0  0  0  0  0  0  0  0  0
   -0.0089    0.5369   -0.0818 C   0  0  0  0  0  0  0  0  0  0  0  0
   -1.8566    1.5934    0.0330 C   0  0  0  0  0  0  0  0  0  0  0  0
    1.3056    0.0893   -0.1687 C   0  0  0  0  0  0  0  0  0  0  0  0
   -3.4988   -0.2943    0.1817 C   0  0  0  0  0  0  0  0  0  0  0  0
    0.4825   -2.0744   -0.0773 C   0  0  0  0  0  0  0  0  0  0  0  0
    3.9476    0.2943    0.5318 C   0  0  0  0  0  0  0  0  0  0  0  0
   -2.6091    2.3692    0.0746 H   0  0  0  0  0  0  0  0  0  0  0  0
   -3.5512   -0.8922    1.0950 H   0  0  0  0  0  0  0  0  0  0  0  0
   -4.2317    0.5152    0.2238 H   0  0  0  0  0  0  0  0  0  0  0  0
   -3.6819   -0.9175   -0.6973 H   0  0  0  0  0  0  0  0  0  0  0  0
    0.7144   -3.1340   -0.0778 H   0  0  0  0  0  0  0  0  0  0  0  0
    4.2056   -0.5943   -0.0508 H   0  0  0  0  0  0  0  0  0  0  0  0
    3.6418   -0.0038    1.5386 H   0  0  0  0  0  0  0  0  0  0  0  0
    4.8394    0.9216    0.6132 H   0  0  0  0  0  0  0  0  0  0  0  0
  1  9  1  0  0  0  0
  1 12  1  0  0  0  0
  2  6  1  0  0  0  0
  2  8  1  0  0  0  0
  2 10  1  0  0  0  0
  3  7  1  0  0  0  0
  3  8  2  0  0  0  0
  4  6  1  0  0  0  0
  4 11  2  0  0  0  0
  5  9  2  0  0  0  0
  5 11  1  0  0  0  0
  6  7  2  0  0  0  0
  7  9  1  0  0  0  0
  8 13  1  0  0  0  0
 10 14  1  0  0  0  0
 10 15  1  0  0  0  0
 10 16  1  0  0  0  0
 11 17  1  0  0  0  0
 12 18  1  0  0  0  0
 12 19  1  0  0  0  0
 12 20  1  0  0  0  0
M  END
> <PUBCHEM_COMPOUND_CID>
14314

> <PUBCHEM_CONFORMER_RMSD>
0.4

> <PUBCHEM_CONFORMER_DIVERSEORDER>
1
5
2
4
3

> <PUBCHEM_MMFF94_PARTIAL_CHARGES>
14
1 -0.33
10 0.26
11 0.47
12 0.23
13 0.15
17 0.15
2 0.05
3 -0.57
4 -0.57
5 -0.62
6 0.11
7 0.23
8 0.04
9 0.41

> <PUBCHEM_EFFECTIVE_ROTOR_COUNT>
1

> <PUBCHEM_PHARMACOPHORE_FEATURES>
6
1 12 hydrophobe
1 5 acceptor
3 2 3 8 cation
3 4 5 11 cation
5 2 3 6 7 8 rings
6 4 5 6 7 9 11 rings

> <PUBCHEM_HEAVY_ATOM_COUNT>
12

> <PUBCHEM_ATOM_DEF_STEREO_COUNT>
0

> <PUBCHEM_ATOM_UDEF_STEREO_COUNT>
0

> <PUBCHEM_BOND_DEF_STEREO_COUNT>
0

> <PUBCHEM_BOND_UDEF_STEREO_COUNT>
0

> <PUBCHEM_ISOTOPIC_ATOM_COUNT>
0

> <PUBCHEM_COMPONENT_COUNT>
1

> <PUBCHEM_CACTVS_TAUTO_COUNT>
1

> <PUBCHEM_CONFORMER_ID>
000037EA00000001

> <PUBCHEM_MMFF94_ENERGY>
19.1073

> <PUBCHEM_FEATURE_SELFOVERLAP>
30.579

> <PUBCHEM_SHAPE_FINGERPRINT>
11132069 177 18334579005625275034
12251169 10 18342746187256418288
12423570 1 14943965942242060831
13380535 76 18410293597018127510
14325111 11 18410574015522417684
16945 1 18411409596824548557
17846911 113 18335987493058527288
193761 8 17978508959724519117
20510252 161 18260547831492794848
20645476 183 17558532626732159910
20871998 184 18117272558509863270
21028194 46 18334576845699992736
21040471 1 18410851070850933462
21501502 16 18266177429768641609
23235685 24 18410860940559334956
2334 1 17689714164635062821
23402539 116 18334869280990001524
23402655 69 18265067984683643149
23463225 33 18343586239709317744
23552423 10 18197772417642512383
23559900 14 18189046513889011556
2748010 2 18195804287322829653
369184 2 16558755585355786612
5084963 1 18115305712400946586
528886 8 18409732815848766667
53812653 166 18260831462241952848
7364860 26 18117558654998010830

> <PUBCHEM_SHAPE_MULTIPOLES>
230.88
4.92
1.96
0.64
1.74
0.44
-0.01
-1.01
-0.72
-0.14
0.09
0.15
-0.02
-0.03

> <PUBCHEM_SHAPE_SELFOVERLAP>
482.333

> <PUBCHEM_SHAPE_VOLUME>
134

> <PUBCHEM_COORDINATE_TYPE>
2
5
10

$$$$

