91557
  -OEChem-07051213043D

 49 51  0     1  0  0  0  0  0999 V2000
    3.6233   -1.3062   -1.4171 P   0  0  2  0  0  0  0  0  0  0  0  0
    4.1030    1.6140   -0.2037 P   0  0  1  0  0  0  0  0  0  0  0  0
    2.0828    2.1781    1.8725 P   0  0  0  0  0  0  0  0  0  0  0  0
   -0.0320   -1.2919    0.8859 O   0  0  0  0  0  0  0  0  0  0  0  0
   -0.9299   -4.0246    1.8981 O   0  0  0  0  0  0  0  0  0  0  0  0
   -2.9156   -3.3193    0.1821 O   0  0  0  0  0  0  0  0  0  0  0  0
    2.5182   -1.5573   -0.2644 O   0  0  0  0  0  0  0  0  0  0  0  0
    2.7878   -0.5275   -2.5617 O   0  0  0  0  0  0  0  0  0  0  0  0
    4.3557   -2.5242   -1.8973 O   0  0  0  0  0  0  0  0  0  0  0  0
    3.0195    1.2540    0.9368 O   0  0  0  0  0  0  0  0  0  0  0  0
    3.2007    2.1204   -1.4443 O   0  0  0  0  0  0  0  0  0  0  0  0
    5.1923    2.5549    0.2155 O   0  0  0  0  0  0  0  0  0  0  0  0
    1.0585    2.8701    0.8311 O   0  0  0  0  0  0  0  0  0  0  0  0
    1.1539    1.1116    2.6562 O   0  0  0  0  0  0  0  0  0  0  0  0
    2.8254    3.1301    2.7631 O   0  0  0  0  0  0  0  0  0  0  0  0
   -1.9535   -0.2988   -0.0897 N   0  0  0  0  0  0  0  0  0  0  0  0
   -1.9851    1.3846   -1.5538 N   0  0  0  0  0  0  0  0  0  0  0  0
   -4.1934   -0.0918    0.8280 N   0  0  0  0  0  0  0  0  0  0  0  0
   -5.4079    1.7574   -0.2023 N   0  0  0  0  0  0  0  0  0  0  0  0
   -4.4419    3.1428   -1.8977 N   0  0  0  0  0  0  0  0  0  0  0  0
   -0.5238   -3.6031    0.5960 C   0  0  1  0  0  0  0  0  0  0  0  0
   -1.6283   -2.7790   -0.0358 C   0  0  2  0  0  0  0  0  0  0  0  0
    0.6020   -2.5836    0.7379 C   0  0  1  0  0  0  0  0  0  0  0  0
   -1.4479   -1.4420    0.6668 C   0  0  1  0  0  0  0  0  0  0  0  0
    1.5145   -2.5337   -0.4796 C   0  0  0  0  0  0  0  0  0  0  0  0
   -3.1908    0.2730    0.0148 C   0  0  0  0  0  0  0  0  0  0  0  0
   -1.2669    0.4055   -1.0448 C   0  0  0  0  0  0  0  0  0  0  0  0
   -3.1899    1.3133   -0.9006 C   0  0  0  0  0  0  0  0  0  0  0  0
    4.6875   -0.0079   -0.7448 C   0  0  0  0  0  0  0  0  0  0  0  0
   -4.3540    2.0694   -0.9945 C   0  0  0  0  0  0  0  0  0  0  0  0
   -5.2641    0.7116    0.6472 C   0  0  0  0  0  0  0  0  0  0  0  0
   -0.2641   -4.4961    0.0204 H   0  0  0  0  0  0  0  0  0  0  0  0
   -1.4638   -2.6815   -1.1156 H   0  0  0  0  0  0  0  0  0  0  0  0
    1.1987   -2.7444    1.6429 H   0  0  0  0  0  0  0  0  0  0  0  0
   -1.9426   -1.4195    1.6457 H   0  0  0  0  0  0  0  0  0  0  0  0
    0.9561   -2.2559   -1.3792 H   0  0  0  0  0  0  0  0  0  0  0  0
    1.9907   -3.5057   -0.6427 H   0  0  0  0  0  0  0  0  0  0  0  0
   -0.1837   -4.5080    2.2920 H   0  0  0  0  0  0  0  0  0  0  0  0
   -2.9211   -4.2173   -0.1906 H   0  0  0  0  0  0  0  0  0  0  0  0
   -0.2528    0.1629   -1.3324 H   0  0  0  0  0  0  0  0  0  0  0  0
    5.2210   -0.4489    0.1043 H   0  0  0  0  0  0  0  0  0  0  0  0
    5.4396    0.1889   -1.5173 H   0  0  0  0  0  0  0  0  0  0  0  0
    2.1604   -1.0330   -3.1211 H   0  0  0  0  0  0  0  0  0  0  0  0
   -6.1272    0.4901    1.2660 H   0  0  0  0  0  0  0  0  0  0  0  0
   -3.6568    3.3778   -2.4898 H   0  0  0  0  0  0  0  0  0  0  0  0
   -5.2986    3.6772   -1.9473 H   0  0  0  0  0  0  0  0  0  0  0  0
    2.7937    3.0118   -1.4041 H   0  0  0  0  0  0  0  0  0  0  0  0
    1.3618    3.6427    0.3086 H   0  0  0  0  0  0  0  0  0  0  0  0
    0.5601    1.4318    3.3682 H   0  0  0  0  0  0  0  0  0  0  0  0
  1  7  1  0  0  0  0
  1  8  1  0  0  0  0
  1  9  2  0  0  0  0
  1 29  1  0  0  0  0
  2 10  1  0  0  0  0
  2 11  1  0  0  0  0
  2 12  2  0  0  0  0
  2 29  1  0  0  0  0
  3 10  1  0  0  0  0
  3 13  1  0  0  0  0
  3 14  1  0  0  0  0
  3 15  2  0  0  0  0
  4 23  1  0  0  0  0
  4 24  1  0  0  0  0
  5 21  1  0  0  0  0
  5 38  1  0  0  0  0
  6 22  1  0  0  0  0
  6 39  1  0  0  0  0
  7 25  1  0  0  0  0
  8 43  1  0  0  0  0
 11 47  1  0  0  0  0
 13 48  1  0  0  0  0
 14 49  1  0  0  0  0
 16 24  1  0  0  0  0
 16 26  1  0  0  0  0
 16 27  1  0  0  0  0
 17 27  2  0  0  0  0
 17 28  1  0  0  0  0
 18 26  2  0  0  0  0
 18 31  1  0  0  0  0
 19 30  1  0  0  0  0
 19 31  2  0  0  0  0
 20 30  1  0  0  0  0
 20 45  1  0  0  0  0
 20 46  1  0  0  0  0
 21 22  1  0  0  0  0
 21 23  1  0  0  0  0
 21 32  1  0  0  0  0
 22 24  1  0  0  0  0
 22 33  1  0  0  0  0
 23 25  1  0  0  0  0
 23 34  1  0  0  0  0
 24 35  1  0  0  0  0
 25 36  1  0  0  0  0
 25 37  1  0  0  0  0
 26 28  1  0  0  0  0
 27 40  1  0  0  0  0
 28 30  2  0  0  0  0
 29 41  1  0  0  0  0
 29 42  1  0  0  0  0
 31 44  1  0  0  0  0
M  END
> <PUBCHEM_COMPOUND_CID>
91557

> <PUBCHEM_CONFORMER_RMSD>
1.2

> <PUBCHEM_CONFORMER_DIVERSEORDER>
1
173
379
305
385
217
198
232
430
406
284
141
13
268
414
7
440
196
57
199
315
28
290
298
117
156
64
14
215
397
368
292
401
216
346
336
44
139
150
405
417
329
309
37
159
97
31
202
318
339
360
229
349
326
96
400
312
371
70
242
423
119
313
177
76
407
221
443
203
75
168
211
258
381
348
351
144
122
87
403
280
163
93
154
416
19
287
302
15
61
356
174
115
130
63
319
169
396
337
124
153
38
370
166
59
182
247
134
412
393
439
67
425
188
149
92
325
269
392
158
192
103
18
261
257
294
358
101
433
266
255
271
137
404
45
65
100
48
350
222
121
283
95
240
310
352
419
376
212
26
230
316
421
382
194
276
265
47
32
214
181
238
262
304
20
320
364
49
438
74
378
297
231
273
324
299
41
98
91
179
228
295
143
172
56
226
390
367
343
73
129
54
432
157
375
90
413
55
107
89
306
436
435
323
330
424
227
43
171
235
311
340
12
244
72
35
53
386
146
133
289
282
372
410
274
428
85
11
293
281
241
389
71
223
183
431
79
125
252
442
40
256
251
374
220
278
2
272
62
68
109
184
249
126
362
58
29
342
224
162
82
24
369
128
409
175
16
120
327
377
8
384
296
353
338
105
4
239
263
408
114
186
387
206
332
218
69
123
135
187
402
118
138
136
427
234
195
301
250
394
145
21
27
328
180
286
254
102
88
317
51
160
347
426
236
5
152
434
420
17
246
161
300
36
277
445
94
361
110
81
253
399
77
395
355
388
345
111
334
335
127
285
267
193
398
108
104
46
86
237
190
131
446
84
6
132
213
415
314
191
422
9
50
207
322
151
260
80
219
25
208
185
344
167
303
52
264
411
165
233
380
259
383
444
142
3
245
200
112
113
178
42
164
60
225
148
22
39
10
373
155
279
99
248
270
275
201
33
106
429
210
366
288
170
308
197
291
34
321
307
437
30
357
140
66
176
205
363
354
341
209
331
243
147
359
204
116
333
189
441
83
78
365
23
391
418

> <PUBCHEM_MMFF94_PARTIAL_CHARGES>
40
1 1.24
10 -0.54
11 -0.77
12 -0.7
13 -0.77
14 -0.77
15 -0.7
16 0.05
17 -0.57
18 -0.57
19 -0.62
2 1.24
20 -0.9
21 0.28
22 0.28
23 0.28
24 0.54
25 0.28
26 0.11
27 0.04
28 0.23
3 1.51
30 0.41
31 0.47
38 0.4
39 0.4
4 -0.56
40 0.15
43 0.5
44 0.15
45 0.4
46 0.4
47 0.5
48 0.5
49 0.5
5 -0.68
6 -0.68
7 -0.55
8 -0.77
9 -0.7

> <PUBCHEM_EFFECTIVE_ROTOR_COUNT>
9

> <PUBCHEM_PHARMACOPHORE_FEATURES>
21
1 11 acceptor
1 12 acceptor
1 13 acceptor
1 14 acceptor
1 15 acceptor
1 20 cation
1 20 donor
1 4 acceptor
1 5 acceptor
1 5 donor
1 6 acceptor
1 6 donor
1 8 acceptor
1 9 acceptor
3 16 17 27 cation
3 16 18 26 cation
3 18 19 31 cation
4 3 13 14 15 anion
5 16 17 26 27 28 rings
5 4 21 22 23 24 rings
6 18 19 26 28 30 31 rings

> <PUBCHEM_HEAVY_ATOM_COUNT>
31

> <PUBCHEM_ATOM_DEF_STEREO_COUNT>
4

> <PUBCHEM_ATOM_UDEF_STEREO_COUNT>
0

> <PUBCHEM_BOND_DEF_STEREO_COUNT>
0

> <PUBCHEM_BOND_UDEF_STEREO_COUNT>
0

> <PUBCHEM_ISOTOPIC_ATOM_COUNT>
0

> <PUBCHEM_COMPONENT_COUNT>
1

> <PUBCHEM_CACTVS_TAUTO_COUNT>
3

> <PUBCHEM_CONFORMER_ID>
000165A500000001

> <PUBCHEM_MMFF94_ENERGY>
-6.2193

> <PUBCHEM_FEATURE_SELFOVERLAP>
107.241

> <PUBCHEM_SHAPE_FINGERPRINT>
10165383 225 18342449378671382925
11578080 2 18264471919624644098
12769317 202 18267589185276302215
12788726 201 17555440739509841311
12925494 130 17913207852414607453
13149001 5 18260263057675212970
13402501 40 18263639572469517978
13617811 41 18130228152045180437
13726171 33 18124022430819314776
14114206 34 17538235818483496956
14251757 17 18335975424342636088
14931854 50 18192138520420439652
15322687 12 18340206396404606660
17093844 170 18411420622723619892
19311894 1 16601794091720651366
21033648 29 18272367602697035596
23227448 37 18412257324806584375
23559900 14 18262229019564146638
238 59 17531534166072629220
3187 122 17622733015798758458
3298306 158 18339650030915625149
3729539 64 18265324195792364526
508706 21 18268146457578402814
7808743 9 18200591372314788932

> <PUBCHEM_SHAPE_MULTIPOLES>
554.18
10.46
4.83
2.09
2.8
2.45
0.45
-7.51
-3.37
-0.44
1.46
-1.51
-1
3.63

> <PUBCHEM_SHAPE_SELFOVERLAP>
1124.312

> <PUBCHEM_SHAPE_VOLUME>
324.9

> <PUBCHEM_COORDINATE_TYPE>
2
5
10

$$$$

