441835
  -OEChem-07051212563D

 56 59  0     1  0  0  0  0  0999 V2000
   -1.3061    0.1452   -2.0361 O   0  0  0  0  0  0  0  0  0  0  0  0
    4.3889   -2.8043   -0.6602 O   0  0  0  0  0  0  0  0  0  0  0  0
    5.3869   -0.2321   -0.2900 O   0  0  0  0  0  0  0  0  0  0  0  0
    2.3161    3.3122    0.6885 O   0  0  0  0  0  0  0  0  0  0  0  0
   -5.5522    0.0084    0.8170 O   0  0  0  0  0  0  0  0  0  0  0  0
   -2.3620   -0.2982    0.1239 C   0  0  1  0  0  0  0  0  0  0  0  0
   -1.5000    0.6861   -0.7094 C   0  0  1  0  0  0  0  0  0  0  0  0
    0.6395   -0.4722    0.1063 C   0  0  2  0  0  0  0  0  0  0  0  0
    1.9855   -0.2878    0.9129 C   0  0  2  0  0  0  0  0  0  0  0  0
   -0.1128    0.8474   -0.1261 C   0  0  0  0  0  0  0  0  0  0  0  0
   -3.6956   -0.2494   -0.6591 C   0  0  2  0  0  0  0  0  0  0  0  0
   -1.6799   -1.6762    0.1144 C   0  0  0  0  0  0  0  0  0  0  0  0
   -0.2641   -1.5934    0.7068 C   0  0  0  0  0  0  0  0  0  0  0  0
   -2.4512    1.8787   -0.8828 C   0  0  0  0  0  0  0  0  0  0  0  0
    2.7470    0.9655    0.3994 C   0  0  1  0  0  0  0  0  0  0  0  0
   -3.8378    1.2297   -1.0761 C   0  0  0  0  0  0  0  0  0  0  0  0
    2.9162   -1.5257    0.7639 C   0  0  0  0  0  0  0  0  0  0  0  0
   -2.5691    0.1790    1.5900 C   0  0  0  0  0  0  0  0  0  0  0  0
    3.3301    0.7952   -1.0156 C   0  0  0  0  0  0  0  0  0  0  0  0
    0.4339    2.0562    0.0723 C   0  0  0  0  0  0  0  0  0  0  0  0
    1.7200   -0.1014    2.4318 C   0  0  0  0  0  0  0  0  0  0  0  0
    3.4995   -1.6898   -0.6430 C   0  0  1  0  0  0  0  0  0  0  0  0
    1.8616    2.1973    0.4352 C   0  0  0  0  0  0  0  0  0  0  0  0
    4.2344   -0.4330   -1.1102 C   0  0  2  0  0  0  0  0  0  0  0  0
   -4.8896   -0.7412    0.1014 C   0  0  0  0  0  0  0  0  0  0  0  0
   -5.2394   -2.1962   -0.0553 C   0  0  0  0  0  0  0  0  0  0  0  0
    0.8951   -0.8170   -0.9042 H   0  0  0  0  0  0  0  0  0  0  0  0
   -3.6283   -0.8490   -1.5769 H   0  0  0  0  0  0  0  0  0  0  0  0
   -1.6206   -2.0794   -0.9038 H   0  0  0  0  0  0  0  0  0  0  0  0
   -2.2606   -2.4001    0.6963 H   0  0  0  0  0  0  0  0  0  0  0  0
   -0.3695   -1.4706    1.7884 H   0  0  0  0  0  0  0  0  0  0  0  0
    0.2183   -2.5668    0.5607 H   0  0  0  0  0  0  0  0  0  0  0  0
    3.5716    1.1785    1.0936 H   0  0  0  0  0  0  0  0  0  0  0  0
   -2.1978    2.5018   -1.7478 H   0  0  0  0  0  0  0  0  0  0  0  0
   -2.4678    2.5236    0.0029 H   0  0  0  0  0  0  0  0  0  0  0  0
   -4.5891    1.7872   -0.5075 H   0  0  0  0  0  0  0  0  0  0  0  0
   -4.1401    1.2881   -2.1288 H   0  0  0  0  0  0  0  0  0  0  0  0
    2.3874   -2.4452    1.0424 H   0  0  0  0  0  0  0  0  0  0  0  0
    3.7385   -1.4673    1.4904 H   0  0  0  0  0  0  0  0  0  0  0  0
   -3.1701    1.0916    1.6544 H   0  0  0  0  0  0  0  0  0  0  0  0
   -3.0819   -0.5898    2.1796 H   0  0  0  0  0  0  0  0  0  0  0  0
   -1.6242    0.3930    2.0980 H   0  0  0  0  0  0  0  0  0  0  0  0
    2.5294    0.7229   -1.7612 H   0  0  0  0  0  0  0  0  0  0  0  0
    3.9096    1.6931   -1.2662 H   0  0  0  0  0  0  0  0  0  0  0  0
   -0.1085    2.9773   -0.1060 H   0  0  0  0  0  0  0  0  0  0  0  0
    2.6313    0.2122    2.9549 H   0  0  0  0  0  0  0  0  0  0  0  0
    0.9533    0.6542    2.6290 H   0  0  0  0  0  0  0  0  0  0  0  0
    1.4019   -1.0358    2.9058 H   0  0  0  0  0  0  0  0  0  0  0  0
    2.7008   -1.9204   -1.3558 H   0  0  0  0  0  0  0  0  0  0  0  0
    4.5988   -0.5647   -2.1343 H   0  0  0  0  0  0  0  0  0  0  0  0
   -2.0595    0.3635   -2.6077 H   0  0  0  0  0  0  0  0  0  0  0  0
   -5.3471   -2.4411   -1.1149 H   0  0  0  0  0  0  0  0  0  0  0  0
   -4.4714   -2.8213    0.4018 H   0  0  0  0  0  0  0  0  0  0  0  0
   -6.1934   -2.3954    0.4416 H   0  0  0  0  0  0  0  0  0  0  0  0
    3.8846   -3.5865   -0.3779 H   0  0  0  0  0  0  0  0  0  0  0  0
    5.1187   -0.1387    0.6370 H   0  0  0  0  0  0  0  0  0  0  0  0
  1  7  1  0  0  0  0
  1 51  1  0  0  0  0
  2 22  1  0  0  0  0
  2 55  1  0  0  0  0
  3 24  1  0  0  0  0
  3 56  1  0  0  0  0
  4 23  2  0  0  0  0
  5 25  2  0  0  0  0
  6  7  1  0  0  0  0
  6 11  1  0  0  0  0
  6 12  1  0  0  0  0
  6 18  1  0  0  0  0
  7 10  1  0  0  0  0
  7 14  1  0  0  0  0
  8  9  1  0  0  0  0
  8 10  1  0  0  0  0
  8 13  1  0  0  0  0
  8 27  1  0  0  0  0
  9 15  1  0  0  0  0
  9 17  1  0  0  0  0
  9 21  1  0  0  0  0
 10 20  2  0  0  0  0
 11 16  1  0  0  0  0
 11 25  1  0  0  0  0
 11 28  1  0  0  0  0
 12 13  1  0  0  0  0
 12 29  1  0  0  0  0
 12 30  1  0  0  0  0
 13 31  1  0  0  0  0
 13 32  1  0  0  0  0
 14 16  1  0  0  0  0
 14 34  1  0  0  0  0
 14 35  1  0  0  0  0
 15 19  1  0  0  0  0
 15 23  1  0  0  0  0
 15 33  1  0  0  0  0
 16 36  1  0  0  0  0
 16 37  1  0  0  0  0
 17 22  1  0  0  0  0
 17 38  1  0  0  0  0
 17 39  1  0  0  0  0
 18 40  1  0  0  0  0
 18 41  1  0  0  0  0
 18 42  1  0  0  0  0
 19 24  1  0  0  0  0
 19 43  1  0  0  0  0
 19 44  1  0  0  0  0
 20 23  1  0  0  0  0
 20 45  1  0  0  0  0
 21 46  1  0  0  0  0
 21 47  1  0  0  0  0
 21 48  1  0  0  0  0
 22 24  1  0  0  0  0
 22 49  1  0  0  0  0
 24 50  1  0  0  0  0
 25 26  1  0  0  0  0
 26 52  1  0  0  0  0
 26 53  1  0  0  0  0
 26 54  1  0  0  0  0
M  END
> <PUBCHEM_COMPOUND_CID>
441835

> <PUBCHEM_CONFORMER_RMSD>
0.6

> <PUBCHEM_CONFORMER_DIVERSEORDER>
1
6
4
5
2
3

> <PUBCHEM_MMFF94_PARTIAL_CHARGES>
20
1 -0.68
10 -0.28
11 0.06
15 0.06
2 -0.68
20 -0.14
22 0.28
23 0.49
24 0.28
25 0.45
26 0.06
3 -0.68
4 -0.57
45 0.15
5 -0.57
51 0.4
55 0.4
56 0.4
7 0.42
8 0.14

> <PUBCHEM_EFFECTIVE_ROTOR_COUNT>
2.8

> <PUBCHEM_PHARMACOPHORE_FEATURES>
12
1 1 acceptor
1 1 donor
1 2 acceptor
1 2 donor
1 3 acceptor
1 3 donor
1 4 acceptor
1 5 acceptor
5 6 7 11 14 16 rings
6 6 7 8 10 12 13 rings
6 8 9 10 15 20 23 rings
6 9 15 17 19 22 24 rings

> <PUBCHEM_HEAVY_ATOM_COUNT>
26

> <PUBCHEM_ATOM_DEF_STEREO_COUNT>
8

> <PUBCHEM_ATOM_UDEF_STEREO_COUNT>
0

> <PUBCHEM_BOND_DEF_STEREO_COUNT>
0

> <PUBCHEM_BOND_UDEF_STEREO_COUNT>
0

> <PUBCHEM_ISOTOPIC_ATOM_COUNT>
0

> <PUBCHEM_COMPONENT_COUNT>
1

> <PUBCHEM_CACTVS_TAUTO_COUNT>
15

> <PUBCHEM_CONFORMER_ID>
0006BDEB00000001

> <PUBCHEM_MMFF94_ENERGY>
92.0405

> <PUBCHEM_FEATURE_SELFOVERLAP>
61.033

> <PUBCHEM_SHAPE_FINGERPRINT>
10366900 7 17703790297493846057
10498660 4 16988571233404494093
11552529 35 17752203895126408623
11578080 2 17025725749978928882
12011746 2 18131633374680457031
12166972 35 17917706951105317614
12236239 1 17603580812086107905
12403259 226 18411987974606770597
12403259 415 18201445766080370845
12553582 1 18334304192591253062
12623949 98 18190162508984377279
128620 24 15554444106702934519
12916754 54 18408323272623907339
13009979 54 17604135034586914840
13134695 92 17313395534230218184
13140716 1 18126010368630335202
13224815 77 17560806536921284069
13533116 47 18114740422149258985
13583140 156 16444760328880871987
13911987 19 18194938800954701516
14289901 80 15410626933755039253
14866123 147 17396978436693816850
15142383 8 16660636401589150145
15196674 1 18343022237014129390
15420108 30 15100670864752076027
15664445 248 17274822394179574956
15848702 151 18187358852816413927
16752209 62 18196384816598836561
16945 1 18339938046779322497
17349148 13 17312819373115370335
17980427 23 5688723066186694394
1813 80 17895181260223121364
18186145 218 18334303050072001401
19591789 44 18341614828156225799
19862831 5 18130787923121265972
20645477 70 18338801117570647412
20691752 17 17058947549525143299
20775530 9 16445863414048065966
20832881 197 18337669823216419233
21033648 29 18059864943669144077
21267235 1 18341324548216886038
21304253 335 8141819299921840387
221357 26 18411982485580251741
22182313 1 18129401348733140277
22393880 68 18202294610415351055
22950370 63 18336539507866892423
23559900 14 18411426098526847133
23569914 152 17618537671076331295
296302 2 10952043455376808167
3004659 81 18129658733786952582
3323516 105 18413109454733516916
34797466 226 12895352214211282283
350125 39 18341891926840934213
46194498 28 18131062706591703660
465052 167 18259978258631075431
5104073 3 18337678623467252776
5281201 14 18410293622618762629
6786 2 7586567207711046624
7364860 26 18335424504840965800
7495541 125 18409727344250549974
7970288 3 18191865832752728590
9709674 26 18269559351510625739

> <PUBCHEM_SHAPE_MULTIPOLES>
505.72
10.08
2.51
1.43
4.28
0.48
-0.35
-4.08
1.64
-1.21
0.02
-0.33
0.05
0.92

> <PUBCHEM_SHAPE_SELFOVERLAP>
1091.274

> <PUBCHEM_SHAPE_VOLUME>
275.3

> <PUBCHEM_COORDINATE_TYPE>
2
5
10

$$$$

