1530
  -OEChem-07051213083D

 29 31  0     0  0  0  0  0  0999 V2000
   -2.7071    0.9881   -0.0003 N   0  0  0  0  0  0  0  0  0  0  0  0
   -3.2666   -1.1677   -0.0003 N   0  0  0  0  0  0  0  0  0  0  0  0
   -1.0085   -2.0590    0.0002 N   0  0  0  0  0  0  0  0  0  0  0  0
   -5.0061    0.4917   -0.0003 N   0  0  0  0  0  0  0  0  0  0  0  0
   -1.5239    0.3010    0.0000 C   0  0  0  0  0  0  0  0  0  0  0  0
   -1.9006   -1.0373    0.0000 C   0  0  0  0  0  0  0  0  0  0  0  0
    0.7389   -0.3480    0.0005 C   0  0  0  0  0  0  0  0  0  0  0  0
   -0.1889    0.6902    0.0003 C   0  0  0  0  0  0  0  0  0  0  0  0
   -3.7200    0.0669   -0.0004 C   0  0  0  0  0  0  0  0  0  0  0  0
    2.1556   -0.0602    0.0003 C   0  0  0  0  0  0  0  0  0  0  0  0
   -2.8452    2.4280    0.0006 C   0  0  0  0  0  0  0  0  0  0  0  0
    0.2864   -1.6632    0.0006 C   0  0  0  0  0  0  0  0  0  0  0  0
    2.8400    0.0792   -1.2079 C   0  0  0  0  0  0  0  0  0  0  0  0
    2.8407    0.0793    1.2082 C   0  0  0  0  0  0  0  0  0  0  0  0
    4.2069    0.3571   -1.2083 C   0  0  0  0  0  0  0  0  0  0  0  0
    4.2077    0.3575    1.2076 C   0  0  0  0  0  0  0  0  0  0  0  0
    4.8906    0.4963   -0.0007 C   0  0  0  0  0  0  0  0  0  0  0  0
    0.1093    1.7323    0.0002 H   0  0  0  0  0  0  0  0  0  0  0  0
   -1.8646    2.9070    0.0007 H   0  0  0  0  0  0  0  0  0  0  0  0
   -3.3926    2.7223   -0.8987 H   0  0  0  0  0  0  0  0  0  0  0  0
   -3.3924    2.7212    0.9004 H   0  0  0  0  0  0  0  0  0  0  0  0
    0.9925   -2.4913    0.0007 H   0  0  0  0  0  0  0  0  0  0  0  0
    2.3225   -0.0260   -2.1586 H   0  0  0  0  0  0  0  0  0  0  0  0
    2.3237   -0.0257    2.1592 H   0  0  0  0  0  0  0  0  0  0  0  0
   -5.2708    1.4715   -0.0004 H   0  0  0  0  0  0  0  0  0  0  0  0
   -5.7771   -0.1685   -0.0004 H   0  0  0  0  0  0  0  0  0  0  0  0
    4.7389    0.4652   -2.1491 H   0  0  0  0  0  0  0  0  0  0  0  0
    4.7403    0.4659    2.1479 H   0  0  0  0  0  0  0  0  0  0  0  0
    5.9549    0.7128   -0.0011 H   0  0  0  0  0  0  0  0  0  0  0  0
  1  5  1  0  0  0  0
  1  9  1  0  0  0  0
  1 11  1  0  0  0  0
  2  6  1  0  0  0  0
  2  9  2  0  0  0  0
  3  6  1  0  0  0  0
  3 12  2  0  0  0  0
  4  9  1  0  0  0  0
  4 25  1  0  0  0  0
  4 26  1  0  0  0  0
  5  6  2  0  0  0  0
  5  8  1  0  0  0  0
  7  8  2  0  0  0  0
  7 10  1  0  0  0  0
  7 12  1  0  0  0  0
  8 18  1  0  0  0  0
 10 13  2  0  0  0  0
 10 14  1  0  0  0  0
 11 19  1  0  0  0  0
 11 20  1  0  0  0  0
 11 21  1  0  0  0  0
 12 22  1  0  0  0  0
 13 15  1  0  0  0  0
 13 23  1  0  0  0  0
 14 16  2  0  0  0  0
 14 24  1  0  0  0  0
 15 17  2  0  0  0  0
 15 27  1  0  0  0  0
 16 17  1  0  0  0  0
 16 28  1  0  0  0  0
 17 29  1  0  0  0  0
M  END
> <PUBCHEM_COMPOUND_CID>
1530

> <PUBCHEM_CONFORMER_RMSD>
0.6

> <PUBCHEM_CONFORMER_DIVERSEORDER>
1
2

> <PUBCHEM_MMFF94_PARTIAL_CHARGES>
24
1 0.05
11 0.26
12 0.16
13 -0.15
14 -0.15
15 -0.15
16 -0.15
17 -0.15
18 0.15
2 -0.57
22 0.15
23 0.15
24 0.15
25 0.4
26 0.4
27 0.15
28 0.15
29 0.15
3 -0.57
4 -0.88
5 -0.15
6 0.48
8 -0.15
9 0.27

> <PUBCHEM_EFFECTIVE_ROTOR_COUNT>
1

> <PUBCHEM_PHARMACOPHORE_FEATURES>
6
1 3 acceptor
1 4 donor
4 1 2 4 9 cation
5 1 2 5 6 9 rings
6 10 13 14 15 16 17 rings
6 3 5 6 7 8 12 rings

> <PUBCHEM_HEAVY_ATOM_COUNT>
17

> <PUBCHEM_ATOM_DEF_STEREO_COUNT>
0

> <PUBCHEM_ATOM_UDEF_STEREO_COUNT>
0

> <PUBCHEM_BOND_DEF_STEREO_COUNT>
0

> <PUBCHEM_BOND_UDEF_STEREO_COUNT>
0

> <PUBCHEM_ISOTOPIC_ATOM_COUNT>
0

> <PUBCHEM_COMPONENT_COUNT>
1

> <PUBCHEM_CACTVS_TAUTO_COUNT>
3

> <PUBCHEM_CONFORMER_ID>
000005FA00000001

> <PUBCHEM_MMFF94_ENERGY>
46.4336

> <PUBCHEM_FEATURE_SELFOVERLAP>
30.575

> <PUBCHEM_SHAPE_FINGERPRINT>
10498660 4 18336828713853924729
10608611 8 18187088313021637272
10646746 165 18334859433099652320
11132069 177 18408603651946107607
11471102 20 16153423931507357856
12173636 292 18337393841581891237
12236239 1 17775568620142194048
12390115 104 18043236037332763025
12403814 3 17489593363692685461
12788726 201 17413012202730566962
12916748 109 18410288116470799480
13140716 1 18195523697594607323
13538477 17 17916867907210141890
13583140 156 16630235935847277961
14739800 52 18196661696942242320
15042514 8 18268144262966678723
15342168 16 15194139549877216654
15375358 24 17894632530895678934
15536298 74 18336827610242300630
16945 1 18410855430380155175
18186145 218 17748823038092585130
200 152 15339124524121546713
20279233 1 17748821895942683054
20510252 161 18261109703256177665
20645477 56 18261109655910998416
20645477 70 16443336616205008140
21065201 7 18334576828625819914
23048698 100 16989127552086665224
23366157 5 17914610811396338858
23402539 116 18336554841190263783
23557571 272 18040428863164623693
23559900 14 18260259755678370638
3268164 11 18261684717946735429
4028521 119 18040435524711900649
4340502 62 16558744650996506875
474 4 16915088509737525452
495365 180 17313112973033092894
4990 188 17675921014877115166
5104073 3 18267579294620481683
5281201 14 17240756307379238992
573450 72 18272943725541571674
69090 78 17531251633996225223
7364860 26 18190181380880608870
77492 1 17704075066937293030
8272917 22 16845299392280130826

> <PUBCHEM_SHAPE_MULTIPOLES>
329.93
9.42
1.6
0.96
1.61
0.07
0
2.7
0
-1.69
0
1.28
0.08
0

> <PUBCHEM_SHAPE_SELFOVERLAP>
736.972

> <PUBCHEM_SHAPE_VOLUME>
174.3

> <PUBCHEM_COORDINATE_TYPE>
2
5
10

$$$$

