5281497
  -OEChem-07051212572D

 39 40  0     1  0  0  0  0  0999 V2000
    4.3723    2.4064    0.0000 O   0  0  0  0  0  0  0  0  0  0  0  0
    5.4476   -3.0654    0.0000 O   0  0  0  0  0  0  0  0  0  0  0  0
    7.1796   -0.0654    0.0000 O   0  0  0  0  0  0  0  0  0  0  0  0
    2.8836    3.3754    0.0000 O   0  0  0  0  0  0  0  0  0  0  0  0
    3.7155    0.9346    0.0000 C   0  0  1  0  0  0  0  0  0  0  0  0
    4.5816    1.4346    0.0000 C   0  0  1  0  0  0  0  0  0  0  0  0
    3.7155   -0.0654    0.0000 C   0  0  0  0  0  0  0  0  0  0  0  0
    4.5816   -0.5654    0.0000 C   0  0  0  0  0  0  0  0  0  0  0  0
    2.9785    1.6016    0.0000 C   0  0  0  0  0  0  0  0  0  0  0  0
    5.4476   -2.0654    0.0000 C   0  0  2  0  0  0  0  0  0  0  0  0
    5.4476    0.9346    0.0000 C   0  0  0  0  0  0  0  0  0  0  0  0
    6.3136   -1.5654    0.0000 C   0  0  0  0  0  0  0  0  0  0  0  0
    6.3136   -0.5654    0.0000 C   0  0  1  0  0  0  0  0  0  0  0  0
    4.5816   -1.5654    0.0000 C   0  0  0  0  0  0  0  0  0  0  0  0
    5.4476   -0.0654    0.0000 C   0  0  0  0  0  0  0  0  0  0  0  0
    3.3836    2.5094    0.0000 C   0  0  0  0  0  0  0  0  0  0  0  0
    5.2424   -0.6293    0.0000 C   0  0  0  0  0  0  0  0  0  0  0  0
    2.0000    1.3954    0.0000 C   0  0  0  0  0  0  0  0  0  0  0  0
    3.7155   -2.0654    0.0000 C   0  0  0  0  0  0  0  0  0  0  0  0
    2.9386    0.5898    0.0000 H   0  0  0  0  0  0  0  0  0  0  0  0
    5.2686    1.9351    0.0000 H   0  0  0  0  0  0  0  0  0  0  0  0
    3.1049    0.0422    0.0000 H   0  0  0  0  0  0  0  0  0  0  0  0
    3.5035   -0.6481    0.0000 H   0  0  0  0  0  0  0  0  0  0  0  0
    5.1921   -0.6731    0.0000 H   0  0  0  0  0  0  0  0  0  0  0  0
    4.7936    0.0172    0.0000 H   0  0  0  0  0  0  0  0  0  0  0  0
    5.9845   -2.3754    0.0000 H   0  0  0  0  0  0  0  0  0  0  0  0
    5.9845    1.2446    0.0000 H   0  0  0  0  0  0  0  0  0  0  0  0
    6.5256   -2.1481    0.0000 H   0  0  0  0  0  0  0  0  0  0  0  0
    6.9242   -1.4578    0.0000 H   0  0  0  0  0  0  0  0  0  0  0  0
    6.8505   -0.8754    0.0000 H   0  0  0  0  0  0  0  0  0  0  0  0
    4.6598   -0.4172    0.0000 H   0  0  0  0  0  0  0  0  0  0  0  0
    5.0303   -1.2119    0.0000 H   0  0  0  0  0  0  0  0  0  0  0  0
    5.8250   -0.8413    0.0000 H   0  0  0  0  0  0  0  0  0  0  0  0
    1.5859    1.8569    0.0000 H   0  0  0  0  0  0  0  0  0  0  0  0
    1.8074    0.8061    0.0000 H   0  0  0  0  0  0  0  0  0  0  0  0
    3.1786   -1.7554    0.0000 H   0  0  0  0  0  0  0  0  0  0  0  0
    3.7155   -2.6854    0.0000 H   0  0  0  0  0  0  0  0  0  0  0  0
    5.9845   -3.3754    0.0000 H   0  0  0  0  0  0  0  0  0  0  0  0
    7.7166   -0.3754    0.0000 H   0  0  0  0  0  0  0  0  0  0  0  0
  1  6  1  0  0  0  0
  1 16  1  0  0  0  0
 10  2  1  1  0  0  0
  2 38  1  0  0  0  0
 13  3  1  1  0  0  0
  3 39  1  0  0  0  0
  4 16  2  0  0  0  0
  5  6  1  0  0  0  0
  5  7  1  0  0  0  0
  5  9  1  0  0  0  0
  5 20  1  6  0  0  0
  6 11  1  0  0  0  0
  6 21  1  1  0  0  0
  7  8  1  0  0  0  0
  7 22  1  0  0  0  0
  7 23  1  0  0  0  0
  8 14  1  0  0  0  0
  8 24  1  0  0  0  0
  8 25  1  0  0  0  0
  9 16  1  0  0  0  0
  9 18  2  0  0  0  0
 10 12  1  0  0  0  0
 10 14  1  0  0  0  0
 10 26  1  0  0  0  0
 11 15  2  0  0  0  0
 11 27  1  0  0  0  0
 12 13  1  0  0  0  0
 12 28  1  0  0  0  0
 12 29  1  0  0  0  0
 13 15  1  0  0  0  0
 13 30  1  0  0  0  0
 14 19  2  0  0  0  0
 15 17  1  0  0  0  0
 17 31  1  0  0  0  0
 17 32  1  0  0  0  0
 17 33  1  0  0  0  0
 18 34  1  0  0  0  0
 18 35  1  0  0  0  0
 19 36  1  0  0  0  0
 19 37  1  0  0  0  0
M  END
> <PUBCHEM_COMPOUND_CID>
5281497

> <PUBCHEM_COMPOUND_CANONICALIZED>
1

> <PUBCHEM_CACTVS_COMPLEXITY>
449

> <PUBCHEM_CACTVS_HBOND_ACCEPTOR>
4

> <PUBCHEM_CACTVS_HBOND_DONOR>
2

> <PUBCHEM_CACTVS_ROTATABLE_BOND>
0

> <PUBCHEM_CACTVS_SUBSKEYS>
AAADceBwOAAAAAAAAAAAAAAAAAAAASAAAAAAAAAAAAAAAACAAAAAGgAACAAADRSggAICCAAABgCIAiDSCAAAAAAgAAAACAEAAEgAFBIAIQACUAAFwAAIMIOKyPCOAAAAAAAAAAAAAAAAAAAAAAAAAAAAAA==

> <PUBCHEM_IUPAC_OPENEYE_NAME>
(3aS,7R,9S,10E,11aR)-7,9-dihydroxy-10-methyl-3,6-dimethylene-4,5,7,8,9,11a-hexahydro-3aH-cyclodeca[b]furan-2-one

> <PUBCHEM_IUPAC_CAS_NAME>
(3aS,7R,9S,10E,11aR)-7,9-dihydroxy-10-methyl-3,6-dimethylene-4,5,7,8,9,11a-hexahydro-3aH-cyclodeca[b]furan-2-one

> <PUBCHEM_IUPAC_NAME>
(3aS,7R,9S,10E,11aR)-7,9-dihydroxy-10-methyl-3,6-dimethylidene-4,5,7,8,9,11a-hexahydro-3aH-cyclodeca[b]furan-2-one

> <PUBCHEM_IUPAC_SYSTEMATIC_NAME>
(3aS,7R,9S,10E,11aR)-10-methyl-3,6-dimethylidene-7,9-bis(oxidanyl)-4,5,7,8,9,11a-hexahydro-3aH-cyclodeca[b]furan-2-one

> <PUBCHEM_IUPAC_TRADITIONAL_NAME>
(3aS,7R,9S,10E,11aR)-7,9-dihydroxy-10-methyl-3,6-dimethylene-4,5,7,8,9,11a-hexahydro-3aH-cyclodeca[b]furan-2-one

> <PUBCHEM_IUPAC_INCHI>
InChI=1S/C15H20O4/c1-8-4-5-11-10(3)15(18)19-14(11)6-9(2)13(17)7-12(8)16/h6,11-14,16-17H,1,3-5,7H2,2H3/b9-6+/t11-,12+,13-,14+/m0/s1

> <PUBCHEM_IUPAC_INCHIKEY>
KQCHEWVHXSAJIA-RNFGUGDUSA-N

> <PUBCHEM_XLOGP3>
-0.1

> <PUBCHEM_EXACT_MASS>
264.136159

> <PUBCHEM_MOLECULAR_FORMULA>
C15H20O4

> <PUBCHEM_MOLECULAR_WEIGHT>
264.3169

> <PUBCHEM_OPENEYE_CAN_SMILES>
CC1=CC2C(CCC(=C)C(CC1O)O)C(=C)C(=O)O2

> <PUBCHEM_OPENEYE_ISO_SMILES>
C/C/1=C\[C@@H]2[C@@H](CCC(=C)[C@@H](C[C@@H]1O)O)C(=C)C(=O)O2

> <PUBCHEM_CACTVS_TPSA>
66.8

> <PUBCHEM_MONOISOTOPIC_WEIGHT>
264.136159

> <PUBCHEM_TOTAL_CHARGE>
0

> <PUBCHEM_HEAVY_ATOM_COUNT>
19

> <PUBCHEM_ATOM_DEF_STEREO_COUNT>
4

> <PUBCHEM_ATOM_UDEF_STEREO_COUNT>
0

> <PUBCHEM_BOND_DEF_STEREO_COUNT>
1

> <PUBCHEM_BOND_UDEF_STEREO_COUNT>
0

> <PUBCHEM_ISOTOPIC_ATOM_COUNT>
0

> <PUBCHEM_COMPONENT_COUNT>
1

> <PUBCHEM_CACTVS_TAUTO_COUNT>
1

> <PUBCHEM_COORDINATE_TYPE>
1
5
255

> <PUBCHEM_BONDANNOTATIONS>
10  2  5
13  3  5
5  20  6
6  21  5

$$$$

