9930620
  -OEChem-07051213032D

 45 47  0     0  0  0  0  0  0999 V2000
    6.4144    2.4329    0.0000 O   0  0  0  0  0  0  0  0  0  0  0  0
    4.6660    2.3983    0.0000 O   0  0  0  0  0  0  0  0  0  0  0  0
    4.6660   -1.6017    0.0000 O   0  0  0  0  0  0  0  0  0  0  0  0
    8.1923    2.4225    0.0000 O   0  0  0  0  0  0  0  0  0  0  0  0
    2.9176    2.4329    0.0000 O   0  0  0  0  0  0  0  0  0  0  0  0
    9.0564   -2.1291    0.0000 O   0  0  0  0  0  0  0  0  0  0  0  0
    9.9243    2.4292    0.0000 O   0  0  0  0  0  0  0  0  0  0  0  0
    7.3244   -2.1225    0.0000 O   0  0  0  0  0  0  0  0  0  0  0  0
    5.5321    0.8983    0.0000 C   0  0  0  0  0  0  0  0  0  0  0  0
    5.5321   -0.1017    0.0000 C   0  0  0  0  0  0  0  0  0  0  0  0
    7.3321    0.9192    0.0000 C   0  0  0  0  0  0  0  0  0  0  0  0
    7.3321   -0.1225    0.0000 C   0  0  0  0  0  0  0  0  0  0  0  0
    6.4260    1.4330    0.0000 C   0  0  0  0  0  0  0  0  0  0  0  0
    6.4260   -0.6363    0.0000 C   0  0  0  0  0  0  0  0  0  0  0  0
    3.8000    0.8983    0.0000 C   0  0  0  0  0  0  0  0  0  0  0  0
    3.8000   -0.1017    0.0000 C   0  0  0  0  0  0  0  0  0  0  0  0
    4.6660    1.3983    0.0000 C   0  0  0  0  0  0  0  0  0  0  0  0
    4.6660   -0.6017    0.0000 C   0  0  0  0  0  0  0  0  0  0  0  0
    8.1962   -0.6258    0.0000 C   0  0  0  0  0  0  0  0  0  0  0  0
    8.1962    1.4225    0.0000 C   0  0  0  0  0  0  0  0  0  0  0  0
    9.0641    0.9258    0.0000 C   0  0  0  0  0  0  0  0  0  0  0  0
    2.9061    1.4330    0.0000 C   0  0  0  0  0  0  0  0  0  0  0  0
    2.9061   -0.6363    0.0000 C   0  0  0  0  0  0  0  0  0  0  0  0
    2.0000    0.9192    0.0000 C   0  0  0  0  0  0  0  0  0  0  0  0
    2.0000   -0.1225    0.0000 C   0  0  0  0  0  0  0  0  0  0  0  0
    9.9282    1.4292    0.0000 C   0  0  0  0  0  0  0  0  0  0  0  0
    8.1923   -1.6258    0.0000 C   0  0  0  0  0  0  0  0  0  0  0  0
   10.7961    0.9325    0.0000 C   0  0  0  0  0  0  0  0  0  0  0  0
   11.6602    1.4358    0.0000 C   0  0  0  0  0  0  0  0  0  0  0  0
    6.4188   -1.2563    0.0000 H   0  0  0  0  0  0  0  0  0  0  0  0
    8.8063   -0.7358    0.0000 H   0  0  0  0  0  0  0  0  0  0  0  0
    8.4105   -0.0440    0.0000 H   0  0  0  0  0  0  0  0  0  0  0  0
    8.6674    0.4494    0.0000 H   0  0  0  0  0  0  0  0  0  0  0  0
    9.4645    0.4524    0.0000 H   0  0  0  0  0  0  0  0  0  0  0  0
    2.9132   -1.2563    0.0000 H   0  0  0  0  0  0  0  0  0  0  0  0
    1.4643    1.2312    0.0000 H   0  0  0  0  0  0  0  0  0  0  0  0
    1.4643   -0.4345    0.0000 H   0  0  0  0  0  0  0  0  0  0  0  0
    6.9478    2.7491    0.0000 H   0  0  0  0  0  0  0  0  0  0  0  0
   10.3995    0.4560    0.0000 H   0  0  0  0  0  0  0  0  0  0  0  0
   11.1965    0.4591    0.0000 H   0  0  0  0  0  0  0  0  0  0  0  0
    2.3843    2.7491    0.0000 H   0  0  0  0  0  0  0  0  0  0  0  0
   11.9723    0.9001    0.0000 H   0  0  0  0  0  0  0  0  0  0  0  0
   12.1960    1.7479    0.0000 H   0  0  0  0  0  0  0  0  0  0  0  0
   11.3482    1.9716    0.0000 H   0  0  0  0  0  0  0  0  0  0  0  0
    9.0540   -2.7491    0.0000 H   0  0  0  0  0  0  0  0  0  0  0  0
  1 13  1  0  0  0  0
  1 38  1  0  0  0  0
  2 17  2  0  0  0  0
  3 18  2  0  0  0  0
  4 20  2  0  0  0  0
  5 22  1  0  0  0  0
  5 41  1  0  0  0  0
  6 27  1  0  0  0  0
  6 45  1  0  0  0  0
  7 26  2  0  0  0  0
  8 27  2  0  0  0  0
  9 10  2  0  0  0  0
  9 13  1  0  0  0  0
  9 17  1  0  0  0  0
 10 14  1  0  0  0  0
 10 18  1  0  0  0  0
 11 12  1  0  0  0  0
 11 13  2  0  0  0  0
 11 20  1  0  0  0  0
 12 14  2  0  0  0  0
 12 19  1  0  0  0  0
 14 30  1  0  0  0  0
 15 16  2  0  0  0  0
 15 17  1  0  0  0  0
 15 22  1  0  0  0  0
 16 18  1  0  0  0  0
 16 23  1  0  0  0  0
 19 27  1  0  0  0  0
 19 31  1  0  0  0  0
 19 32  1  0  0  0  0
 20 21  1  0  0  0  0
 21 26  1  0  0  0  0
 21 33  1  0  0  0  0
 21 34  1  0  0  0  0
 22 24  2  0  0  0  0
 23 25  2  0  0  0  0
 23 35  1  0  0  0  0
 24 25  1  0  0  0  0
 24 36  1  0  0  0  0
 25 37  1  0  0  0  0
 26 28  1  0  0  0  0
 28 29  1  0  0  0  0
 28 39  1  0  0  0  0
 28 40  1  0  0  0  0
 29 42  1  0  0  0  0
 29 43  1  0  0  0  0
 29 44  1  0  0  0  0
M  END
> <PUBCHEM_COMPOUND_CID>
9930620

> <PUBCHEM_COMPOUND_CANONICALIZED>
1

> <PUBCHEM_CACTVS_COMPLEXITY>
728

> <PUBCHEM_CACTVS_HBOND_ACCEPTOR>
8

> <PUBCHEM_CACTVS_HBOND_DONOR>
3

> <PUBCHEM_CACTVS_ROTATABLE_BOND>
6

> <PUBCHEM_CACTVS_SUBSKEYS>
AAADceB4PAAAAAAAAAAAAAAAAAAAAAAAAAAwYMAAAAAAAADBQAAAGgAACAAADASAmAAyDoAAAgCIAqDSCAACAAAkIAAIiAEGCMgIJjaKFRKAcUAk4BEImYeL7vTuwAADAAAYAACAAAYAADAAAAAAAAAAAA==

> <PUBCHEM_IUPAC_OPENEYE_NAME>
2-[4,5-dihydroxy-9,10-dioxo-3-(3-oxopentanoyl)-2-anthryl]acetic acid

> <PUBCHEM_IUPAC_CAS_NAME>
2-[3-(1,3-dioxopentyl)-4,5-dihydroxy-9,10-dioxo-2-anthracenyl]acetic acid

> <PUBCHEM_IUPAC_NAME>
2-[4,5-dihydroxy-9,10-dioxo-3-(3-oxopentanoyl)anthracen-2-yl]acetic acid

> <PUBCHEM_IUPAC_SYSTEMATIC_NAME>
2-[4,5-bis(oxidanyl)-9,10-bis(oxidanylidene)-3-(3-oxidanylidenepentanoyl)anthracen-2-yl]ethanoic acid

> <PUBCHEM_IUPAC_TRADITIONAL_NAME>
2-[4,5-dihydroxy-9,10-diketo-3-(3-ketopentanoyl)-2-anthryl]acetic acid

> <PUBCHEM_IUPAC_INCHI>
InChI=1S/C21H16O8/c1-2-10(22)8-14(24)16-9(7-15(25)26)6-12-18(20(16)28)21(29)17-11(19(12)27)4-3-5-13(17)23/h3-6,23,28H,2,7-8H2,1H3,(H,25,26)

> <PUBCHEM_IUPAC_INCHIKEY>
OSKHFTHBEFJNCM-UHFFFAOYSA-N

> <PUBCHEM_XLOGP3_AA>
2.2

> <PUBCHEM_EXACT_MASS>
396.084517

> <PUBCHEM_MOLECULAR_FORMULA>
C21H16O8

> <PUBCHEM_MOLECULAR_WEIGHT>
396.34694

> <PUBCHEM_OPENEYE_CAN_SMILES>
CCC(=O)CC(=O)C1=C(C=C2C(=C1O)C(=O)C3=C(C2=O)C=CC=C3O)CC(=O)O

> <PUBCHEM_OPENEYE_ISO_SMILES>
CCC(=O)CC(=O)C1=C(C=C2C(=C1O)C(=O)C3=C(C2=O)C=CC=C3O)CC(=O)O

> <PUBCHEM_CACTVS_TPSA>
146

> <PUBCHEM_MONOISOTOPIC_WEIGHT>
396.084517

> <PUBCHEM_TOTAL_CHARGE>
0

> <PUBCHEM_HEAVY_ATOM_COUNT>
29

> <PUBCHEM_ATOM_DEF_STEREO_COUNT>
0

> <PUBCHEM_ATOM_UDEF_STEREO_COUNT>
0

> <PUBCHEM_BOND_DEF_STEREO_COUNT>
0

> <PUBCHEM_BOND_UDEF_STEREO_COUNT>
0

> <PUBCHEM_ISOTOPIC_ATOM_COUNT>
0

> <PUBCHEM_COMPONENT_COUNT>
1

> <PUBCHEM_CACTVS_TAUTO_COUNT>
492

> <PUBCHEM_COORDINATE_TYPE>
1
5
255

> <PUBCHEM_BONDANNOTATIONS>
10  14  8
11  12  8
11  13  8
12  14  8
15  16  8
15  22  8
16  23  8
22  24  8
23  25  8
24  25  8
9  10  8
9  13  8

$$$$

