25201359
  -OEChem-07051213153D

 28 28  0     1  0  0  0  0  0999 V2000
    3.3859   -0.4296   -0.0894 O   0  0  0  0  0  0  0  0  0  0  0  0
   -3.0031   -0.0605   -0.4522 O   0  0  0  0  0  0  0  0  0  0  0  0
   -0.3503   -1.0754    0.1246 C   0  0  0  0  0  0  0  0  0  0  0  0
    1.1686   -1.2404    0.3917 C   0  0  0  0  0  0  0  0  0  0  0  0
    2.0067   -0.2363   -0.3876 C   0  0  1  0  0  0  0  0  0  0  0  0
   -0.7557    0.4033    0.1062 C   0  0  0  0  0  0  0  0  0  0  0  0
    1.6200    1.1851    0.0070 C   0  0  0  0  0  0  0  0  0  0  0  0
    0.1280    1.4274    0.0889 C   0  0  0  0  0  0  0  0  0  0  0  0
   -0.6994   -1.7173   -1.2349 C   0  0  0  0  0  0  0  0  0  0  0  0
   -1.0802   -1.8537    1.2421 C   0  0  0  0  0  0  0  0  0  0  0  0
   -0.2189    2.8946    0.1474 C   0  0  0  0  0  0  0  0  0  0  0  0
   -2.2016    0.7029    0.0562 C   0  0  0  0  0  0  0  0  0  0  0  0
    1.5020   -2.2605    0.1588 H   0  0  0  0  0  0  0  0  0  0  0  0
    1.3832   -1.1138    1.4631 H   0  0  0  0  0  0  0  0  0  0  0  0
    1.8758   -0.3875   -1.4651 H   0  0  0  0  0  0  0  0  0  0  0  0
    2.0726    1.8695   -0.7224 H   0  0  0  0  0  0  0  0  0  0  0  0
    2.0713    1.4429    0.9747 H   0  0  0  0  0  0  0  0  0  0  0  0
   -0.2467   -2.7124   -1.3225 H   0  0  0  0  0  0  0  0  0  0  0  0
   -0.3312   -1.1164   -2.0741 H   0  0  0  0  0  0  0  0  0  0  0  0
   -1.7745   -1.8613   -1.3763 H   0  0  0  0  0  0  0  0  0  0  0  0
   -0.7148   -2.8859    1.3021 H   0  0  0  0  0  0  0  0  0  0  0  0
   -2.1611   -1.9087    1.0776 H   0  0  0  0  0  0  0  0  0  0  0  0
   -0.9185   -1.3861    2.2205 H   0  0  0  0  0  0  0  0  0  0  0  0
    0.0239    3.2954    1.1369 H   0  0  0  0  0  0  0  0  0  0  0  0
   -1.2630    3.1247   -0.0695 H   0  0  0  0  0  0  0  0  0  0  0  0
    0.3648    3.4498   -0.5958 H   0  0  0  0  0  0  0  0  0  0  0  0
   -2.5306    1.6555    0.4950 H   0  0  0  0  0  0  0  0  0  0  0  0
    3.8905    0.2281   -0.5979 H   0  0  0  0  0  0  0  0  0  0  0  0
  1  5  1  0  0  0  0
  1 28  1  0  0  0  0
  2 12  2  0  0  0  0
  3  4  1  0  0  0  0
  3  6  1  0  0  0  0
  3  9  1  0  0  0  0
  3 10  1  0  0  0  0
  4  5  1  0  0  0  0
  4 13  1  0  0  0  0
  4 14  1  0  0  0  0
  5  7  1  0  0  0  0
  5 15  1  0  0  0  0
  6  8  2  0  0  0  0
  6 12  1  0  0  0  0
  7  8  1  0  0  0  0
  7 16  1  0  0  0  0
  7 17  1  0  0  0  0
  8 11  1  0  0  0  0
  9 18  1  0  0  0  0
  9 19  1  0  0  0  0
  9 20  1  0  0  0  0
 10 21  1  0  0  0  0
 10 22  1  0  0  0  0
 10 23  1  0  0  0  0
 11 24  1  0  0  0  0
 11 25  1  0  0  0  0
 11 26  1  0  0  0  0
 12 27  1  0  0  0  0
M  END
> <PUBCHEM_COMPOUND_CID>
25201359

> <PUBCHEM_CONFORMER_RMSD>
0.4

> <PUBCHEM_CONFORMER_DIVERSEORDER>
1
3
4
2
5

> <PUBCHEM_MMFF94_PARTIAL_CHARGES>
11
1 -0.68
11 0.14
12 0.5
2 -0.57
27 0.06
28 0.4
3 0.14
5 0.28
6 -0.12
7 0.14
8 -0.28

> <PUBCHEM_EFFECTIVE_ROTOR_COUNT>
1.8

> <PUBCHEM_PHARMACOPHORE_FEATURES>
5
1 1 acceptor
1 1 donor
1 2 acceptor
3 3 9 10 hydrophobe
6 3 4 5 6 7 8 rings

> <PUBCHEM_HEAVY_ATOM_COUNT>
12

> <PUBCHEM_ATOM_DEF_STEREO_COUNT>
1

> <PUBCHEM_ATOM_UDEF_STEREO_COUNT>
0

> <PUBCHEM_BOND_DEF_STEREO_COUNT>
0

> <PUBCHEM_BOND_UDEF_STEREO_COUNT>
0

> <PUBCHEM_ISOTOPIC_ATOM_COUNT>
0

> <PUBCHEM_COMPONENT_COUNT>
1

> <PUBCHEM_CACTVS_TAUTO_COUNT>
1

> <PUBCHEM_CONFORMER_ID>
01808ACF00000001

> <PUBCHEM_MMFF94_ENERGY>
27.2715

> <PUBCHEM_FEATURE_SELFOVERLAP>
25.371

> <PUBCHEM_SHAPE_FINGERPRINT>
12423570 1 14241463597653484818
12524768 44 18334288751956976948
13024252 1 17846494850726953134
14993402 34 18261118477932151775
16945 1 18270386304376433162
193761 8 17833832672725815752
20511035 2 18193833747727018605
2334 1 18122903131949177096
23402539 116 18187941611011168646
23419403 2 16023747430573075281
23552423 10 17833555591521748125
23559900 14 18410851071858417726
241688 4 17616807073416024106
2748010 2 18266172825590009052
353137 74 18124882519040831533
5084963 1 18046631375887402194
528886 8 18261398904978955379
53812654 25 18264510488468073794
66348 1 18410007740984708520

> <PUBCHEM_SHAPE_MULTIPOLES>
235.22
3.22
2.5
0.91
0.87
1.26
-0.01
-0.34
-0.31
-0.29
0.22
-0.26
-0.48
0.07

> <PUBCHEM_SHAPE_SELFOVERLAP>
473.549

> <PUBCHEM_SHAPE_VOLUME>
137.8

> <PUBCHEM_COORDINATE_TYPE>
2
5
10

$$$$

