17395417
  -OEChem-06241222503D

 41 43  0     0  0  0  0  0  0999 V2000
   -5.3113    1.6240    0.1926 S   0  0  0  0  0  0  0  0  0  0  0  0
   -1.0543   -3.5304   -0.6757 O   0  0  0  0  0  0  0  0  0  0  0  0
   -1.9909    2.8945   -0.3742 O   0  5  0  0  0  0  0  0  0  0  0  0
   -2.2188    2.5571    1.7830 O   0  0  0  0  0  0  0  0  0  0  0  0
    2.3623   -0.4125   -0.8929 N   0  0  0  0  0  0  0  0  0  0  0  0
    0.2519   -2.2528    0.7533 N   0  0  0  0  0  0  0  0  0  0  0  0
    4.0314   -1.0769    0.4159 N   0  0  0  0  0  0  0  0  0  0  0  0
   -2.2648    2.1533    0.5980 N   0  3  0  0  0  0  0  0  0  0  0  0
    2.4074   -2.8221   -0.3182 C   0  0  0  0  0  0  0  0  0  0  0  0
    2.9595   -1.4565   -0.2430 C   0  0  0  0  0  0  0  0  0  0  0  0
    1.3838   -3.1396    0.7891 C   0  0  0  0  0  0  0  0  0  0  0  0
    3.0980    0.7160   -0.6366 C   0  0  0  0  0  0  0  0  0  0  0  0
    4.1339    0.2752    0.1823 C   0  0  0  0  0  0  0  0  0  0  0  0
    2.9508    2.0441   -1.0386 C   0  0  0  0  0  0  0  0  0  0  0  0
   -1.9616   -1.4969    0.0591 C   0  0  0  0  0  0  0  0  0  0  0  0
   -0.8913   -2.5260    0.0122 C   0  0  0  0  0  0  0  0  0  0  0  0
    5.0887    1.2005    0.6368 C   0  0  0  0  0  0  0  0  0  0  0  0
    3.9101    2.9514   -0.5771 C   0  0  0  0  0  0  0  0  0  0  0  0
    4.9608    2.5392    0.2459 C   0  0  0  0  0  0  0  0  0  0  0  0
   -1.6368   -0.1623    0.3022 C   0  0  0  0  0  0  0  0  0  0  0  0
   -3.2921   -1.8658   -0.1394 C   0  0  0  0  0  0  0  0  0  0  0  0
   -2.6425    0.8033    0.3467 C   0  0  0  0  0  0  0  0  0  0  0  0
   -3.9729    0.4343    0.1482 C   0  0  0  0  0  0  0  0  0  0  0  0
   -4.2977   -0.9004   -0.0950 C   0  0  0  0  0  0  0  0  0  0  0  0
   -6.0035    1.4495   -1.4744 C   0  0  0  0  0  0  0  0  0  0  0  0
    1.9418   -2.9809   -1.2993 H   0  0  0  0  0  0  0  0  0  0  0  0
    3.2304   -3.5435   -0.2470 H   0  0  0  0  0  0  0  0  0  0  0  0
    1.0396   -4.1744    0.6861 H   0  0  0  0  0  0  0  0  0  0  0  0
    1.8470   -3.0317    1.7762 H   0  0  0  0  0  0  0  0  0  0  0  0
    1.5254   -0.4600   -1.4590 H   0  0  0  0  0  0  0  0  0  0  0  0
    0.3017   -1.4268    1.3399 H   0  0  0  0  0  0  0  0  0  0  0  0
    2.1339    2.3615   -1.6767 H   0  0  0  0  0  0  0  0  0  0  0  0
    5.9087    0.8903    1.2765 H   0  0  0  0  0  0  0  0  0  0  0  0
   -0.6051    0.1559    0.4291 H   0  0  0  0  0  0  0  0  0  0  0  0
    3.8355    3.9973   -0.8646 H   0  0  0  0  0  0  0  0  0  0  0  0
    5.6909    3.2678    0.5888 H   0  0  0  0  0  0  0  0  0  0  0  0
   -3.5652   -2.9016   -0.3234 H   0  0  0  0  0  0  0  0  0  0  0  0
   -5.3270   -1.2178   -0.2424 H   0  0  0  0  0  0  0  0  0  0  0  0
   -5.2235    1.5907   -2.2276 H   0  0  0  0  0  0  0  0  0  0  0  0
   -6.4626    0.4664   -1.6055 H   0  0  0  0  0  0  0  0  0  0  0  0
   -6.7730    2.2118   -1.6229 H   0  0  0  0  0  0  0  0  0  0  0  0
  1 23  1  0  0  0  0
  1 25  1  0  0  0  0
  2 16  2  0  0  0  0
  3  8  1  0  0  0  0
  4  8  2  0  0  0  0
  5 10  1  0  0  0  0
  5 12  1  0  0  0  0
  5 30  1  0  0  0  0
  6 11  1  0  0  0  0
  6 16  1  0  0  0  0
  6 31  1  0  0  0  0
  7 10  2  0  0  0  0
  7 13  1  0  0  0  0
  8 22  1  0  0  0  0
  9 10  1  0  0  0  0
  9 11  1  0  0  0  0
  9 26  1  0  0  0  0
  9 27  1  0  0  0  0
 11 28  1  0  0  0  0
 11 29  1  0  0  0  0
 12 13  1  0  0  0  0
 12 14  2  0  0  0  0
 13 17  2  0  0  0  0
 14 18  1  0  0  0  0
 14 32  1  0  0  0  0
 15 16  1  0  0  0  0
 15 20  2  0  0  0  0
 15 21  1  0  0  0  0
 17 19  1  0  0  0  0
 17 33  1  0  0  0  0
 18 19  2  0  0  0  0
 18 35  1  0  0  0  0
 19 36  1  0  0  0  0
 20 22  1  0  0  0  0
 20 34  1  0  0  0  0
 21 24  2  0  0  0  0
 21 37  1  0  0  0  0
 22 23  2  0  0  0  0
 23 24  1  0  0  0  0
 24 38  1  0  0  0  0
 25 39  1  0  0  0  0
 25 40  1  0  0  0  0
 25 41  1  0  0  0  0
M  CHG  2   3  -1   8   1
M  END
> <PUBCHEM_COMPOUND_CID>
17395417

> <PUBCHEM_CONFORMER_RMSD>
0.8

> <PUBCHEM_CONFORMER_DIVERSEORDER>
3
20
10
70
39
76
77
72
18
81
88
11
47
78
40
6
79
48
69
16
56
67
55
51
22
26
35
32
7
65
12
17
49
86
84
61
19
41
25
34
58
66
60
15
9
30
82
36
64
29
4
46
8
37
38
71
45
24
80
33
14
23
62
68
59
52
83
87
57
31
21
44
50
43
13
27
85
63
74
75
42
1
54
73
28
5
53
2

> <PUBCHEM_MMFF94_PARTIAL_CHARGES>
34
1 -0.33
10 0.01
11 0.3
12 -0.15
13 0.23
14 -0.15
15 0.09
16 0.54
17 -0.15
18 -0.15
19 -0.15
2 -0.57
20 -0.15
21 -0.15
22 0.13
23 0.1
24 -0.15
25 0.23
3 -0.52
30 0.27
31 0.37
32 0.15
33 0.15
34 0.15
35 0.15
36 0.15
37 0.15
38 0.15
4 -0.52
5 0.03
6 -0.73
7 -0.57
8 0.91
9 0.18

> <PUBCHEM_EFFECTIVE_ROTOR_COUNT>
7

> <PUBCHEM_PHARMACOPHORE_FEATURES>
11
1 2 acceptor
1 25 hydrophobe
1 3 acceptor
1 3 anion
1 4 acceptor
1 5 donor
1 6 donor
3 5 7 10 cation
5 5 7 10 12 13 rings
6 12 13 14 17 18 19 rings
6 15 20 21 22 23 24 rings

> <PUBCHEM_HEAVY_ATOM_COUNT>
25

> <PUBCHEM_ATOM_DEF_STEREO_COUNT>
0

> <PUBCHEM_ATOM_UDEF_STEREO_COUNT>
0

> <PUBCHEM_BOND_DEF_STEREO_COUNT>
0

> <PUBCHEM_BOND_UDEF_STEREO_COUNT>
0

> <PUBCHEM_ISOTOPIC_ATOM_COUNT>
0

> <PUBCHEM_COMPONENT_COUNT>
1

> <PUBCHEM_CACTVS_TAUTO_COUNT>
4

> <PUBCHEM_CONFORMER_ID>
01096ED900000003

> <PUBCHEM_MMFF94_ENERGY>
58.7014

> <PUBCHEM_FEATURE_SELFOVERLAP>
56.007

> <PUBCHEM_SHAPE_FINGERPRINT>
10498660 4 18410008832064618235
10670039 82 18268696226783595460
11370993 70 18411982421324560168
12107183 9 18271259235875350082
12925494 130 17980760764435415993
12978246 48 18411696552390753000
13617811 41 18337403690491482073
13965767 371 17917722283706170950
14251764 38 18263076768044149677
14251764 75 18334844044147811937
14466204 15 18269278035996721290
14790565 3 18046619277787826129
15003188 8 18343311348801836884
15840311 113 18194111044840546325
17810953 82 18413105086889004916
20715895 44 18341620377338316485
21033648 29 16845012441684484487
21133410 221 16596485104052928976
21623110 236 18336822083099179001
21864079 5 18411135814456603018
22113638 7 18196934366338677820
22749437 52 18411978061832462968
23227448 37 18336544898061749375
23559900 14 18334292110769400886
245318 6 17987501642026717220
469060 322 17980738468732175411
474 4 18343580750430202050
5048184 11 18339635651359862732
5104073 3 18272929431917304515
6036956 94 17478609006118936093
6328613 192 18128528281567976996
6371009 1 18337403750060925930
7064713 232 18269559338842086308
7288768 16 17916867902783507458
9981440 41 18269837523626357626

> <PUBCHEM_SHAPE_MULTIPOLES>
480.81
12.33
4.37
1.01
2.36
1.24
0.02
-9.24
-1.2
-1.25
0.04
0.37
-0.41
-0.37

> <PUBCHEM_SHAPE_SELFOVERLAP>
1025.355

> <PUBCHEM_SHAPE_VOLUME>
270.4

> <PUBCHEM_COORDINATE_TYPE>
2
5
10

$$$$

