31343
  -OEChem-07051213133D

 31 30  0     1  0  0  0  0  0999 V2000
   -3.3541    1.3754    0.1541 Cl  0  0  0  0  0  0  0  0  0  0  0  0
   -1.2363    3.1692    1.0201 Cl  0  0  0  0  0  0  0  0  0  0  0  0
   -1.2652    2.1732   -1.6964 Cl  0  0  0  0  0  0  0  0  0  0  0  0
   -0.8691   -0.9800   -0.5206 P   0  0  0  0  0  0  0  0  0  0  0  0
    0.6614    0.8969    0.2979 O   0  0  0  0  0  0  0  0  0  0  0  0
    0.0384   -2.0481    0.2918 O   0  0  0  0  0  0  0  0  0  0  0  0
   -2.3756   -1.5022   -0.2282 O   0  0  0  0  0  0  0  0  0  0  0  0
   -0.5286   -0.8565   -1.9777 O   0  0  0  0  0  0  0  0  0  0  0  0
    1.7665   -0.5477    1.7246 O   0  0  0  0  0  0  0  0  0  0  0  0
   -0.7330    0.5429    0.4342 C   0  0  1  0  0  0  0  0  0  0  0  0
   -1.6085    1.7344    0.0137 C   0  0  0  0  0  0  0  0  0  0  0  0
    2.4621   -0.3315   -0.5743 C   0  0  0  0  0  0  0  0  0  0  0  0
    1.6074   -0.0249    0.6300 C   0  0  0  0  0  0  0  0  0  0  0  0
    3.9254    0.0367   -0.3529 C   0  0  0  0  0  0  0  0  0  0  0  0
    4.1233    1.5263   -0.1121 C   0  0  0  0  0  0  0  0  0  0  0  0
    0.1428   -3.3692   -0.2083 C   0  0  0  0  0  0  0  0  0  0  0  0
   -2.7570   -1.7949    1.1041 C   0  0  0  0  0  0  0  0  0  0  0  0
   -0.8984    0.3308    1.4964 H   0  0  0  0  0  0  0  0  0  0  0  0
    2.3766   -1.4004   -0.7932 H   0  0  0  0  0  0  0  0  0  0  0  0
    2.0774    0.2005   -1.4523 H   0  0  0  0  0  0  0  0  0  0  0  0
    4.3265   -0.5189    0.5029 H   0  0  0  0  0  0  0  0  0  0  0  0
    4.5057   -0.2637   -1.2329 H   0  0  0  0  0  0  0  0  0  0  0  0
    3.7244    2.1143   -0.9447 H   0  0  0  0  0  0  0  0  0  0  0  0
    5.1901    1.7531   -0.0179 H   0  0  0  0  0  0  0  0  0  0  0  0
    3.6305    1.8537    0.8085 H   0  0  0  0  0  0  0  0  0  0  0  0
   -0.8489   -3.8141   -0.3225 H   0  0  0  0  0  0  0  0  0  0  0  0
    0.7233   -3.9666    0.4987 H   0  0  0  0  0  0  0  0  0  0  0  0
    0.6560   -3.3598   -1.1732 H   0  0  0  0  0  0  0  0  0  0  0  0
   -2.5887   -0.9546    1.7778 H   0  0  0  0  0  0  0  0  0  0  0  0
   -2.2160   -2.6711    1.4695 H   0  0  0  0  0  0  0  0  0  0  0  0
   -3.8252   -2.0282    1.1092 H   0  0  0  0  0  0  0  0  0  0  0  0
  1 11  1  0  0  0  0
  2 11  1  0  0  0  0
  3 11  1  0  0  0  0
  4  6  1  0  0  0  0
  4  7  1  0  0  0  0
  4  8  2  0  0  0  0
  4 10  1  0  0  0  0
  5 10  1  0  0  0  0
  5 13  1  0  0  0  0
  6 16  1  0  0  0  0
  7 17  1  0  0  0  0
  9 13  2  0  0  0  0
 10 11  1  0  0  0  0
 10 18  1  0  0  0  0
 12 13  1  0  0  0  0
 12 14  1  0  0  0  0
 12 19  1  0  0  0  0
 12 20  1  0  0  0  0
 14 15  1  0  0  0  0
 14 21  1  0  0  0  0
 14 22  1  0  0  0  0
 15 23  1  0  0  0  0
 15 24  1  0  0  0  0
 15 25  1  0  0  0  0
 16 26  1  0  0  0  0
 16 27  1  0  0  0  0
 16 28  1  0  0  0  0
 17 29  1  0  0  0  0
 17 30  1  0  0  0  0
 17 31  1  0  0  0  0
M  END
> <PUBCHEM_COMPOUND_CID>
31343

> <PUBCHEM_CONFORMER_RMSD>
0.8

> <PUBCHEM_CONFORMER_DIVERSEORDER>
1
18
29
43
23
10
49
27
24
50
26
32
47
45
37
46
15
33
14
21
28
44
20
12
25
40
16
6
19
39
41
35
42
48
31
36
11
17
30
9
3
34
38
13
5
22
4
7
8
2

> <PUBCHEM_MMFF94_PARTIAL_CHARGES>
15
1 -0.29
10 0.28
11 0.87
12 0.06
13 0.66
16 0.28
17 0.28
2 -0.29
3 -0.29
4 1.24
5 -0.43
6 -0.55
7 -0.55
8 -0.7
9 -0.57

> <PUBCHEM_EFFECTIVE_ROTOR_COUNT>
8

> <PUBCHEM_PHARMACOPHORE_FEATURES>
3
1 15 hydrophobe
1 8 acceptor
1 9 acceptor

> <PUBCHEM_HEAVY_ATOM_COUNT>
17

> <PUBCHEM_ATOM_DEF_STEREO_COUNT>
0

> <PUBCHEM_ATOM_UDEF_STEREO_COUNT>
1

> <PUBCHEM_BOND_DEF_STEREO_COUNT>
0

> <PUBCHEM_BOND_UDEF_STEREO_COUNT>
0

> <PUBCHEM_ISOTOPIC_ATOM_COUNT>
0

> <PUBCHEM_COMPONENT_COUNT>
1

> <PUBCHEM_CACTVS_TAUTO_COUNT>
1

> <PUBCHEM_CONFORMER_ID>
00007A6F00000001

> <PUBCHEM_MMFF94_ENERGY>
32.6671

> <PUBCHEM_FEATURE_SELFOVERLAP>
15.223

> <PUBCHEM_SHAPE_FINGERPRINT>
12173636 292 18408323315247039492
12716301 132 18261408744764991874
13538477 17 18272378606577028728
13764800 53 18409450314427756265
14251751 93 18339639074612347410
14614273 12 18271810180471772189
15490181 8 18049732015778322457
15775835 57 18202281446172121332
16945 1 18264218070099283281
20510252 161 18335133168260361752
20511035 2 17610921353202381667
20600515 1 18196070172027334839
20645476 183 18126576836241313544
20671657 1 17978223091086000398
20871999 31 18261396594239279020
21041028 32 17624397689435631019
21501502 16 17685494647520357025
21524375 3 18200589327989146040
2334 1 18265902350030026233
23402539 116 18265339413019542198
23419403 2 15440805014680765523
23526113 38 17531804787635340832
23557571 272 18189603952987812060
23558518 356 17833276694132070027
23598294 1 18339933631721637272
2748010 2 18264504896515690969
3250762 1 17976801396881962451
353137 74 18200320905370607444
53812653 8 18341619178868380594
5845 1 6228625580641338397
81228 2 18119549642695617786
9999458 23 17113517776644452745

> <PUBCHEM_SHAPE_MULTIPOLES>
329.96
5.3
3.43
1.35
4.6
0.84
0.3
-2.16
-0.28
-1.73
-0.2
-0.3
-0.21
0.17

> <PUBCHEM_SHAPE_SELFOVERLAP>
593.818

> <PUBCHEM_SHAPE_VOLUME>
213.1

> <PUBCHEM_COORDINATE_TYPE>
2
5
10

$$$$

