440435
  -OEChem-07051212492D

 53 54  0     1  0  0  0  0  0999 V2000
    8.5991    3.0950    0.0000 S   0  0  0  0  0  0  0  0  0  0  0  0
    8.5991   -2.9050    0.0000 S   0  0  0  0  0  0  0  0  0  0  0  0
    6.0010    1.5950    0.0000 O   0  0  0  0  0  0  0  0  0  0  0  0
    8.5991    0.0950    0.0000 O   0  0  0  0  0  0  0  0  0  0  0  0
    5.1350    0.0950    0.0000 O   0  0  0  0  0  0  0  0  0  0  0  0
    6.0010   -0.4050    0.0000 O   0  0  0  0  0  0  0  0  0  0  0  0
    9.4651    1.5950    0.0000 O   0  0  0  0  0  0  0  0  0  0  0  0
    4.2690    2.5950    0.0000 O   0  0  0  0  0  0  0  0  0  0  0  0
    2.5369    1.5950    0.0000 O   0  0  0  0  0  0  0  0  0  0  0  0
    2.5369   -0.4050    0.0000 O   0  0  0  0  0  0  0  0  0  0  0  0
    8.5991   -1.9050    0.0000 O   0  0  0  0  0  0  0  0  0  0  0  0
    9.4651    3.5950    0.0000 O   0  0  0  0  0  0  0  0  0  0  0  0
    5.1350   -1.9050    0.0000 O   0  0  0  0  0  0  0  0  0  0  0  0
    8.0991    3.9610    0.0000 O   0  0  0  0  0  0  0  0  0  0  0  0
    9.0991    2.2290    0.0000 O   0  0  0  0  0  0  0  0  0  0  0  0
    3.4030   -1.9050    0.0000 O   0  0  0  0  0  0  0  0  0  0  0  0
    8.5991   -3.9050    0.0000 O   0  0  0  0  0  0  0  0  0  0  0  0
    9.5991   -2.9050    0.0000 O   0  0  0  0  0  0  0  0  0  0  0  0
    7.5991   -2.9050    0.0000 O   0  0  0  0  0  0  0  0  0  0  0  0
    7.7331    2.5950    0.0000 N   0  0  0  0  0  0  0  0  0  0  0  0
    6.8671    1.0950    0.0000 C   0  0  2  0  0  0  0  0  0  0  0  0
    7.7331    1.5950    0.0000 C   0  0  2  0  0  0  0  0  0  0  0  0
    6.8671    0.0950    0.0000 C   0  0  1  0  0  0  0  0  0  0  0  0
    7.7331   -0.4050    0.0000 C   0  0  1  0  0  0  0  0  0  0  0  0
    8.5991    1.0950    0.0000 C   0  0  1  0  0  0  0  0  0  0  0  0
    5.1350    1.0950    0.0000 C   0  0  3  0  0  0  0  0  0  0  0  0
    4.2690    1.5950    0.0000 C   0  0  1  0  0  0  0  0  0  0  0  0
    3.4030    1.0950    0.0000 C   0  0  2  0  0  0  0  0  0  0  0  0
    3.4030    0.0950    0.0000 C   0  0  1  0  0  0  0  0  0  0  0  0
    4.2690   -0.4050    0.0000 C   0  0  1  0  0  0  0  0  0  0  0  0
    7.7331   -1.4050    0.0000 C   0  0  0  0  0  0  0  0  0  0  0  0
    4.2690   -1.4050    0.0000 C   0  0  0  0  0  0  0  0  0  0  0  0
    6.3301    0.7850    0.0000 H   0  0  0  0  0  0  0  0  0  0  0  0
    8.2700    1.9050    0.0000 H   0  0  0  0  0  0  0  0  0  0  0  0
    6.3301    0.4050    0.0000 H   0  0  0  0  0  0  0  0  0  0  0  0
    8.2700   -0.7150    0.0000 H   0  0  0  0  0  0  0  0  0  0  0  0
    8.5991    1.7150    0.0000 H   0  0  0  0  0  0  0  0  0  0  0  0
    5.1350    1.9450    0.0000 H   0  0  0  0  0  0  0  0  0  0  0  0
    4.8059    1.9050    0.0000 H   0  0  0  0  0  0  0  0  0  0  0  0
    3.4030    1.7150    0.0000 H   0  0  0  0  0  0  0  0  0  0  0  0
    3.4030   -0.5250    0.0000 H   0  0  0  0  0  0  0  0  0  0  0  0
    4.8059   -0.7150    0.0000 H   0  0  0  0  0  0  0  0  0  0  0  0
    7.1962    2.9050    0.0000 H   0  0  0  0  0  0  0  0  0  0  0  0
    7.1225   -1.2973    0.0000 H   0  0  0  0  0  0  0  0  0  0  0  0
    7.5210   -1.9876    0.0000 H   0  0  0  0  0  0  0  0  0  0  0  0
    6.0010   -1.0250    0.0000 H   0  0  0  0  0  0  0  0  0  0  0  0
   10.0021    1.2850    0.0000 H   0  0  0  0  0  0  0  0  0  0  0  0
    3.7320    2.9050    0.0000 H   0  0  0  0  0  0  0  0  0  0  0  0
    2.0000    1.2850    0.0000 H   0  0  0  0  0  0  0  0  0  0  0  0
    2.0000   -0.0950    0.0000 H   0  0  0  0  0  0  0  0  0  0  0  0
    9.4651    4.2150    0.0000 H   0  0  0  0  0  0  0  0  0  0  0  0
    5.1350   -2.5250    0.0000 H   0  0  0  0  0  0  0  0  0  0  0  0
    9.1360   -4.2150    0.0000 H   0  0  0  0  0  0  0  0  0  0  0  0
  1 12  1  0  0  0  0
  1 14  2  0  0  0  0
  1 15  2  0  0  0  0
  1 20  1  0  0  0  0
  2 11  1  0  0  0  0
  2 17  1  0  0  0  0
  2 18  2  0  0  0  0
  2 19  2  0  0  0  0
 21  3  1  6  0  0  0
  3 26  1  0  0  0  0
  4 24  1  0  0  0  0
  4 25  1  0  0  0  0
  5 26  1  0  0  0  0
  5 30  1  0  0  0  0
 23  6  1  1  0  0  0
  6 46  1  0  0  0  0
 25  7  1  6  0  0  0
  7 47  1  0  0  0  0
 27  8  1  1  0  0  0
  8 48  1  0  0  0  0
 28  9  1  6  0  0  0
  9 49  1  0  0  0  0
 29 10  1  1  0  0  0
 10 50  1  0  0  0  0
 11 31  1  0  0  0  0
 12 51  1  0  0  0  0
 13 32  1  0  0  0  0
 13 52  1  0  0  0  0
 16 32  2  0  0  0  0
 17 53  1  0  0  0  0
 22 20  1  1  0  0  0
 20 43  1  0  0  0  0
 21 22  1  0  0  0  0
 21 23  1  0  0  0  0
 21 33  1  0  0  0  0
 22 25  1  0  0  0  0
 22 34  1  0  0  0  0
 23 24  1  0  0  0  0
 23 35  1  0  0  0  0
 24 31  1  6  0  0  0
 24 36  1  0  0  0  0
 25 37  1  0  0  0  0
 26 27  1  0  0  0  0
 26 38  1  0  0  0  0
 27 28  1  0  0  0  0
 27 39  1  0  0  0  0
 28 29  1  0  0  0  0
 28 40  1  0  0  0  0
 29 30  1  0  0  0  0
 29 41  1  0  0  0  0
 30 32  1  6  0  0  0
 30 42  1  0  0  0  0
 31 44  1  0  0  0  0
 31 45  1  0  0  0  0
M  END
> <PUBCHEM_COMPOUND_CID>
440435

> <PUBCHEM_COMPOUND_CANONICALIZED>
1

> <PUBCHEM_CACTVS_COMPLEXITY>
867

> <PUBCHEM_CACTVS_HBOND_ACCEPTOR>
18

> <PUBCHEM_CACTVS_HBOND_DONOR>
9

> <PUBCHEM_CACTVS_ROTATABLE_BOND>
8

> <PUBCHEM_CACTVS_SUBSKEYS>
AAADceByPgBgAAAAAAAAAAAAAAAAAAAAAAAkSAAAAAAAAAAAAAAAHgAQSAAACDzxgAcACABABoAIAACQCDIAAAAAAAAAAIFAAAATEBYAgAQjQAAHMAAHAAH6fA1AAAAAAAAAAAAAAAAAAAAAAAAAAAAAAA==

> <PUBCHEM_IUPAC_OPENEYE_NAME>
(2S,3S,4S,5R)-6-[(2R,3R,4R,5S,6R)-2,5-dihydroxy-3-(sulfoamino)-6-(sulfooxymethyl)tetrahydropyran-4-yl]oxy-3,4,5-trihydroxy-tetrahydropyran-2-carboxylic acid

> <PUBCHEM_IUPAC_CAS_NAME>
(2S,3S,4S,5R)-6-[[(2R,3R,4R,5S,6R)-2,5-dihydroxy-3-(sulfoamino)-6-(sulfooxymethyl)-4-oxanyl]oxy]-3,4,5-trihydroxy-2-oxanecarboxylic acid

> <PUBCHEM_IUPAC_NAME>
(2S,3S,4S,5R)-6-[(2R,3R,4R,5S,6R)-2,5-dihydroxy-3-(sulfoamino)-6-(sulfooxymethyl)oxan-4-yl]oxy-3,4,5-trihydroxyoxane-2-carboxylic acid

> <PUBCHEM_IUPAC_SYSTEMATIC_NAME>
(2S,3S,4S,5R)-6-[(2R,3R,4R,5S,6R)-2,5-bis(oxidanyl)-3-(sulfoamino)-6-(sulfooxymethyl)oxan-4-yl]oxy-3,4,5-tris(oxidanyl)oxane-2-carboxylic acid

> <PUBCHEM_IUPAC_TRADITIONAL_NAME>
(2S,3S,4S,5R)-6-[(2R,3R,4R,5S,6R)-2,5-dihydroxy-3-(sulfoamino)-6-(sulfoxymethyl)tetrahydropyran-4-yl]oxy-3,4,5-trihydroxy-tetrahydropyran-2-carboxylic acid

> <PUBCHEM_IUPAC_INCHI>
InChI=1S/C12H21NO17S2/c14-4-2(1-27-32(24,25)26)28-11(20)3(13-31(21,22)23)8(4)29-12-7(17)5(15)6(16)9(30-12)10(18)19/h2-9,11-17,20H,1H2,(H,18,19)(H,21,22,23)(H,24,25,26)/t2-,3-,4-,5+,6+,7-,8-,9+,11-,12?/m1/s1

> <PUBCHEM_IUPAC_INCHIKEY>
CRPMVGCTWVCEFA-STDISIGGSA-N

> <PUBCHEM_XLOGP3_AA>
-5.6

> <PUBCHEM_EXACT_MASS>
515.02509

> <PUBCHEM_MOLECULAR_FORMULA>
C12H21NO17S2

> <PUBCHEM_MOLECULAR_WEIGHT>
515.42164

> <PUBCHEM_OPENEYE_CAN_SMILES>
C(C1C(C(C(C(O1)O)NS(=O)(=O)O)OC2C(C(C(C(O2)C(=O)O)O)O)O)O)OS(=O)(=O)O

> <PUBCHEM_OPENEYE_ISO_SMILES>
C([C@@H]1[C@H]([C@@H]([C@H]([C@@H](O1)O)NS(=O)(=O)O)OC2[C@@H]([C@H]([C@@H]([C@H](O2)C(=O)O)O)O)O)O)OS(=O)(=O)O

> <PUBCHEM_CACTVS_TPSA>
313

> <PUBCHEM_MONOISOTOPIC_WEIGHT>
515.02509

> <PUBCHEM_TOTAL_CHARGE>
0

> <PUBCHEM_HEAVY_ATOM_COUNT>
32

> <PUBCHEM_ATOM_DEF_STEREO_COUNT>
9

> <PUBCHEM_ATOM_UDEF_STEREO_COUNT>
1

> <PUBCHEM_BOND_DEF_STEREO_COUNT>
0

> <PUBCHEM_BOND_UDEF_STEREO_COUNT>
0

> <PUBCHEM_ISOTOPIC_ATOM_COUNT>
0

> <PUBCHEM_COMPONENT_COUNT>
1

> <PUBCHEM_CACTVS_TAUTO_COUNT>
1

> <PUBCHEM_COORDINATE_TYPE>
1
5
255

> <PUBCHEM_BONDANNOTATIONS>
29  10  5
22  20  5
24  31  6
26  38  3
21  3  6
30  32  6
23  6  5
25  7  6
27  8  5
28  9  6

$$$$

