440446
  -OEChem-07051212493D

 47 48  0     1  0  0  0  0  0999 V2000
   -0.4885   -0.5199    0.3661 O   0  0  0  0  0  0  0  0  0  0  0  0
   -1.8551    0.7864   -1.0593 O   0  0  0  0  0  0  0  0  0  0  0  0
    2.8623    0.9151    0.0126 O   0  0  0  0  0  0  0  0  0  0  0  0
    1.1094   -2.8137   -0.3760 O   0  0  0  0  0  0  0  0  0  0  0  0
    0.7839    1.9596   -0.1827 O   0  0  0  0  0  0  0  0  0  0  0  0
    3.2987   -1.4904   -1.4647 O   0  0  0  0  0  0  0  0  0  0  0  0
   -2.2656   -2.6436    0.2044 O   0  0  0  0  0  0  0  0  0  0  0  0
   -4.6579   -1.3622    1.1200 O   0  0  0  0  0  0  0  0  0  0  0  0
   -4.7416    0.7987   -0.5993 O   0  0  0  0  0  0  0  0  0  0  0  0
    5.4807    1.3254    0.7305 O   0  0  0  0  0  0  0  0  0  0  0  0
    0.8370   -0.4312   -0.1562 C   0  0  2  0  0  0  0  0  0  0  0  0
    1.6325   -1.6615    0.2790 C   0  0  2  0  0  0  0  0  0  0  0  0
   -1.4592   -0.5346   -0.6795 C   0  0  2  0  0  0  0  0  0  0  0  0
    3.1175   -1.4991   -0.0472 C   0  0  2  0  0  0  0  0  0  0  0  0
   -2.6779   -1.3599   -0.2550 C   0  0  2  0  0  0  0  0  0  0  0  0
   -3.4528   -0.6493    0.8544 C   0  0  1  0  0  0  0  0  0  0  0  0
    1.4842    0.8490    0.3770 C   0  0  1  0  0  0  0  0  0  0  0  0
    3.6334   -0.1764    0.5301 C   0  0  1  0  0  0  0  0  0  0  0  0
   -3.7731    0.7943    0.4524 C   0  0  1  0  0  0  0  0  0  0  0  0
   -2.4999    1.5187   -0.0058 C   0  0  2  0  0  0  0  0  0  0  0  0
    5.0910    0.0847    0.1692 C   0  0  0  0  0  0  0  0  0  0  0  0
   -2.7866    2.9189   -0.5364 C   0  0  0  0  0  0  0  0  0  0  0  0
    1.3276    3.1909    0.2662 C   0  0  0  0  0  0  0  0  0  0  0  0
    0.8326   -0.3812   -1.2541 H   0  0  0  0  0  0  0  0  0  0  0  0
    1.5088   -1.8228    1.3573 H   0  0  0  0  0  0  0  0  0  0  0  0
   -1.0506   -1.0316   -1.5685 H   0  0  0  0  0  0  0  0  0  0  0  0
    3.6897   -2.3472    0.3451 H   0  0  0  0  0  0  0  0  0  0  0  0
   -3.3375   -1.5149   -1.1180 H   0  0  0  0  0  0  0  0  0  0  0  0
   -2.8638   -0.6621    1.7798 H   0  0  0  0  0  0  0  0  0  0  0  0
    1.3851    0.8980    1.4699 H   0  0  0  0  0  0  0  0  0  0  0  0
    3.5340   -0.1684    1.6235 H   0  0  0  0  0  0  0  0  0  0  0  0
   -4.2285    1.3258    1.2960 H   0  0  0  0  0  0  0  0  0  0  0  0
   -1.8059    1.6086    0.8389 H   0  0  0  0  0  0  0  0  0  0  0  0
    5.2394    0.1556   -0.9131 H   0  0  0  0  0  0  0  0  0  0  0  0
    5.7443   -0.6987    0.5644 H   0  0  0  0  0  0  0  0  0  0  0  0
   -1.8513    3.4172   -0.8134 H   0  0  0  0  0  0  0  0  0  0  0  0
   -3.3983    2.8866   -1.4444 H   0  0  0  0  0  0  0  0  0  0  0  0
   -3.2967    3.5309    0.2135 H   0  0  0  0  0  0  0  0  0  0  0  0
    0.1708   -2.8870   -0.1325 H   0  0  0  0  0  0  0  0  0  0  0  0
    2.9244   -2.3192   -1.8094 H   0  0  0  0  0  0  0  0  0  0  0  0
   -3.0640   -3.1232    0.4844 H   0  0  0  0  0  0  0  0  0  0  0  0
   -5.1297   -0.8855    1.8242 H   0  0  0  0  0  0  0  0  0  0  0  0
   -5.5169    0.3049   -0.2819 H   0  0  0  0  0  0  0  0  0  0  0  0
    2.3377    3.3423   -0.1260 H   0  0  0  0  0  0  0  0  0  0  0  0
    1.3328    3.2410    1.3596 H   0  0  0  0  0  0  0  0  0  0  0  0
    0.6949    3.9993   -0.1108 H   0  0  0  0  0  0  0  0  0  0  0  0
    4.8858    2.0083    0.3763 H   0  0  0  0  0  0  0  0  0  0  0  0
  1 11  1  0  0  0  0
  1 13  1  0  0  0  0
  2 13  1  0  0  0  0
  2 20  1  0  0  0  0
  3 17  1  0  0  0  0
  3 18  1  0  0  0  0
  4 12  1  0  0  0  0
  4 39  1  0  0  0  0
  5 17  1  0  0  0  0
  5 23  1  0  0  0  0
  6 14  1  0  0  0  0
  6 40  1  0  0  0  0
  7 15  1  0  0  0  0
  7 41  1  0  0  0  0
  8 16  1  0  0  0  0
  8 42  1  0  0  0  0
  9 19  1  0  0  0  0
  9 43  1  0  0  0  0
 10 21  1  0  0  0  0
 10 47  1  0  0  0  0
 11 12  1  0  0  0  0
 11 17  1  0  0  0  0
 11 24  1  0  0  0  0
 12 14  1  0  0  0  0
 12 25  1  0  0  0  0
 13 15  1  0  0  0  0
 13 26  1  0  0  0  0
 14 18  1  0  0  0  0
 14 27  1  0  0  0  0
 15 16  1  0  0  0  0
 15 28  1  0  0  0  0
 16 19  1  0  0  0  0
 16 29  1  0  0  0  0
 17 30  1  0  0  0  0
 18 21  1  0  0  0  0
 18 31  1  0  0  0  0
 19 20  1  0  0  0  0
 19 32  1  0  0  0  0
 20 22  1  0  0  0  0
 20 33  1  0  0  0  0
 21 34  1  0  0  0  0
 21 35  1  0  0  0  0
 22 36  1  0  0  0  0
 22 37  1  0  0  0  0
 22 38  1  0  0  0  0
 23 44  1  0  0  0  0
 23 45  1  0  0  0  0
 23 46  1  0  0  0  0
M  END
> <PUBCHEM_COMPOUND_CID>
440446

> <PUBCHEM_CONFORMER_RMSD>
0.8

> <PUBCHEM_CONFORMER_DIVERSEORDER>
1
26
40
21
36
23
46
32
42
17
43
35
31
50
34
19
18
47
3
37
4
52
24
48
41
45
44
39
13
10
9
16
14
25
2
51
20
15
22
38
29
33
12
6
30
7
28
27
5
11
49
8

> <PUBCHEM_MMFF94_PARTIAL_CHARGES>
28
1 -0.56
10 -0.68
11 0.28
12 0.28
13 0.56
14 0.28
15 0.28
16 0.28
17 0.56
18 0.28
19 0.28
2 -0.56
20 0.28
21 0.28
23 0.28
3 -0.56
39 0.4
4 -0.68
40 0.4
41 0.4
42 0.4
43 0.4
47 0.4
5 -0.56
6 -0.68
7 -0.68
8 -0.68
9 -0.68

> <PUBCHEM_EFFECTIVE_ROTOR_COUNT>
6.4

> <PUBCHEM_PHARMACOPHORE_FEATURES>
18
1 1 acceptor
1 10 acceptor
1 10 donor
1 2 acceptor
1 3 acceptor
1 4 acceptor
1 4 donor
1 5 acceptor
1 6 acceptor
1 6 donor
1 7 acceptor
1 7 donor
1 8 acceptor
1 8 donor
1 9 acceptor
1 9 donor
6 2 13 15 16 19 20 rings
6 3 11 12 14 17 18 rings

> <PUBCHEM_HEAVY_ATOM_COUNT>
23

> <PUBCHEM_ATOM_DEF_STEREO_COUNT>
10

> <PUBCHEM_ATOM_UDEF_STEREO_COUNT>
0

> <PUBCHEM_BOND_DEF_STEREO_COUNT>
0

> <PUBCHEM_BOND_UDEF_STEREO_COUNT>
0

> <PUBCHEM_ISOTOPIC_ATOM_COUNT>
0

> <PUBCHEM_COMPONENT_COUNT>
1

> <PUBCHEM_CACTVS_TAUTO_COUNT>
1

> <PUBCHEM_CONFORMER_ID>
0006B87E00000001

> <PUBCHEM_MMFF94_ENERGY>
69.5447

> <PUBCHEM_FEATURE_SELFOVERLAP>
91.466

> <PUBCHEM_SHAPE_FINGERPRINT>
10366900 7 18187377523097213601
10608611 8 18410858801813210645
10616163 171 18411981351445089327
10967382 1 18338238279101532079
11132069 177 18343018899829808558
12011746 2 18340772636819967797
12173636 292 18269274728449494495
12251169 10 18409444752788038147
12507557 5 18411139108643472905
12633257 1 18335972087342944851
13132413 78 18335704961731118180
13140716 1 18124873452333214939
14223421 5 18339640040874227691
14790565 3 18339075978904916272
15042514 8 16466151778687423370
15081414 286 18260820510692779664
15196674 1 18338519758621240280
15209289 33 18202565042577547658
15375358 24 18409171047132898310
1601671 61 18334856104695131304
16945 1 18410857650988828743
17804303 29 18413101762774247845
17834074 16 18411979182708189911
1813 80 17346593080075039788
18785283 64 18126557925722349040
200 152 18113910351226599183
20645477 70 17241325905973592854
21033648 29 17677347102722285073
21267235 1 18410847772252999914
22182313 1 18334289911777592670
23227448 37 18408605833974454775
23402539 116 17704078377819092634
23557571 272 18337381725837845270
23558518 356 17910678657277983658
23559900 14 18411428284918661753
2748010 2 18336553827366868220
34934 24 18410863195396059890
350125 39 18266176132509137705
5104073 3 18340487888592712506
6287921 2 18197773310880172468
9709674 26 18409448081366743071

> <PUBCHEM_SHAPE_MULTIPOLES>
414.64
9.51
3.02
0.89
3.1
0.98
-0.07
0.6
1.37
-0.53
-0.14
-0.16
-0.12
1.16

> <PUBCHEM_SHAPE_SELFOVERLAP>
845.957

> <PUBCHEM_SHAPE_VOLUME>
235.5

> <PUBCHEM_COORDINATE_TYPE>
2
5
10

$$$$

