56928116
  -OEChem-07051213152D

 39 41  0     1  0  0  0  0  0999 V2000
    3.1197    1.2704    0.0000 C   0  0  0  0  0  0  0  0  0  0  0  0
    2.9343    2.0435    0.0000 C   0  0  3  0  0  0  0  0  0  0  0  0
    2.5458    0.8503    0.0000 C   0  0  1  0  0  0  0  0  0  0  0  0
    3.7704    1.1078    0.0000 C   0  0  1  0  0  0  0  0  0  0  0  0
    4.6301    1.4331    0.0000 C   0  0  0  0  0  0  0  0  0  0  0  0
    3.9285    2.1768    0.0000 C   0  0  0  0  0  0  0  0  0  0  0  0
    3.9285    0.4719    0.0000 C   0  0  0  0  0  0  0  0  0  0  0  0
    3.3668    2.3935    0.0000 C   0  0  0  0  0  0  0  0  0  0  0  0
    4.6362    0.6073    0.0000 C   0  0  0  0  0  0  0  0  0  0  0  0
    4.4788    2.0136    0.0000 C   0  0  0  0  0  0  0  0  0  0  0  0
    4.6357   -0.3927    0.0000 C   0  0  0  0  0  0  0  0  0  0  0  0
    5.5015   -0.8931    0.0000 C   0  0  0  0  0  0  0  0  0  0  0  0
    5.5010   -1.8931    0.0000 C   0  0  0  0  0  0  0  0  0  0  0  0
    6.3668   -2.3935    0.0000 C   0  0  0  0  0  0  0  0  0  0  0  0
    4.6347   -2.3926    0.0000 C   0  0  0  0  0  0  0  0  0  0  0  0
    2.5374    2.5198    0.0000 H   0  0  0  0  0  0  0  0  0  0  0  0
    1.7975    0.4470    0.0000 H   0  0  0  0  0  0  0  0  0  0  0  0
    5.2488    1.4720    0.0000 H   0  0  0  0  0  0  0  0  0  0  0  0
    4.4575    2.5001    0.0000 H   0  0  0  0  0  0  0  0  0  0  0  0
    3.7212    2.7611    0.0000 H   0  0  0  0  0  0  0  0  0  0  0  0
    3.6938   -0.1019    0.0000 H   0  0  0  0  0  0  0  0  0  0  0  0
    4.4698    0.1696    0.0000 H   0  0  0  0  0  0  0  0  0  0  0  0
    3.9724    2.2602    0.0000 H   0  0  0  0  0  0  0  0  0  0  0  0
    3.5001    2.9990    0.0000 H   0  0  0  0  0  0  0  0  0  0  0  0
    2.7613    2.5267    0.0000 H   0  0  0  0  0  0  0  0  0  0  0  0
    5.2467    0.4994    0.0000 H   0  0  0  0  0  0  0  0  0  0  0  0
    4.8485    1.1899    0.0000 H   0  0  0  0  0  0  0  0  0  0  0  0
    4.9672    1.6317    0.0000 H   0  0  0  0  0  0  0  0  0  0  0  0
    4.8608    2.5020    0.0000 H   0  0  0  0  0  0  0  0  0  0  0  0
    3.9904    2.3956    0.0000 H   0  0  0  0  0  0  0  0  0  0  0  0
    4.0252   -0.2847    0.0000 H   0  0  0  0  0  0  0  0  0  0  0  0
    4.4233   -0.9752    0.0000 H   0  0  0  0  0  0  0  0  0  0  0  0
    6.0385   -0.5833    0.0000 H   0  0  0  0  0  0  0  0  0  0  0  0
    4.3250   -1.8556    0.0000 H   0  0  0  0  0  0  0  0  0  0  0  0
    4.0976   -2.7024    0.0000 H   0  0  0  0  0  0  0  0  0  0  0  0
    4.9444   -2.9297    0.0000 H   0  0  0  0  0  0  0  0  0  0  0  0
    6.0565   -2.9303    0.0000 H   0  0  0  0  0  0  0  0  0  0  0  0
    6.9036   -2.7037    0.0000 H   0  0  0  0  0  0  0  0  0  0  0  0
    6.6770   -1.8567    0.0000 H   0  0  0  0  0  0  0  0  0  0  0  0
  1  2  1  0  0  0  0
  1  3  1  0  0  0  0
  1  4  1  0  0  0  0
  1  8  1  0  0  0  0
  2  3  1  0  0  0  0
  2  6  1  0  0  0  0
  2 16  1  0  0  0  0
  3  7  1  0  0  0  0
  3 17  1  1  0  0  0
  4  5  1  0  0  0  0
  4  9  1  0  0  0  0
  4 10  1  6  0  0  0
  5  6  1  0  0  0  0
  5  7  1  0  0  0  0
  5 18  1  0  0  0  0
  6 19  1  0  0  0  0
  6 20  1  0  0  0  0
  7 21  1  0  0  0  0
  7 22  1  0  0  0  0
  8 23  1  0  0  0  0
  8 24  1  0  0  0  0
  8 25  1  0  0  0  0
  9 11  1  0  0  0  0
  9 26  1  0  0  0  0
  9 27  1  0  0  0  0
 10 28  1  0  0  0  0
 10 29  1  0  0  0  0
 10 30  1  0  0  0  0
 11 12  1  0  0  0  0
 11 31  1  0  0  0  0
 11 32  1  0  0  0  0
 12 13  2  0  0  0  0
 12 33  1  0  0  0  0
 13 14  1  0  0  0  0
 13 15  1  0  0  0  0
 14 37  1  0  0  0  0
 14 38  1  0  0  0  0
 14 39  1  0  0  0  0
 15 34  1  0  0  0  0
 15 35  1  0  0  0  0
 15 36  1  0  0  0  0
M  END
> <PUBCHEM_COMPOUND_CID>
56928116

> <PUBCHEM_COMPOUND_CANONICALIZED>
1

> <PUBCHEM_CACTVS_COMPLEXITY>
309

> <PUBCHEM_CACTVS_HBOND_ACCEPTOR>
0

> <PUBCHEM_CACTVS_HBOND_DONOR>
0

> <PUBCHEM_CACTVS_ROTATABLE_BOND>
3

> <PUBCHEM_CACTVS_SUBSKEYS>
AAADceBwAAAAAAAAAAAAAAAAGAAAAYMGAAAAAAAAAAAAAAAAAAAAGAAAAAAADwCAAAACAAAAAACAAiBCAAAAAAAgAAAACAAAAAgAAAIAAQAAAAAAgAAIAAMAgMAPgAAAAAAAAACAAAQAACAAAQAACAAAAA==

> <PUBCHEM_IUPAC_OPENEYE_NAME>
(2R,7R)-6,7-dimethyl-7-(4-methylpent-3-enyl)-2,3,4,5-tetrahydro-1H-tricyclo[2.2.1.0^{2,6}]heptane

> <PUBCHEM_IUPAC_CAS_NAME>
(2R,7R)-6,7-dimethyl-7-(4-methylpent-3-enyl)-2,3,4,5-tetrahydro-1H-tricyclo[2.2.1.0^{2,6}]heptane

> <PUBCHEM_IUPAC_NAME>
(2R,7R)-6,7-dimethyl-7-(4-methylpent-3-enyl)-2,3,4,5-tetrahydro-1H-tricyclo[2.2.1.0^{2,6}]heptane

> <PUBCHEM_IUPAC_SYSTEMATIC_NAME>
(2R,7R)-6,7-dimethyl-7-(4-methylpent-3-enyl)-2,3,4,5-tetrahydro-1H-tricyclo[2.2.1.0^{2,6}]heptane

> <PUBCHEM_IUPAC_TRADITIONAL_NAME>
(2R,7R)-6,7-dimethyl-7-(4-methylpent-3-enyl)-2,3,4,5-tetrahydro-1H-tricyclo[2.2.1.0^{2,6}]heptane

> <PUBCHEM_IUPAC_INCHI>
InChI=1S/C15H24/c1-10(2)6-5-7-14(3)11-8-12-13(9-11)15(12,14)4/h6,11-13H,5,7-9H2,1-4H3/t11?,12-,13?,14-,15?/m1/s1

> <PUBCHEM_IUPAC_INCHIKEY>
KWFJIXPIFLVMPM-DMRFDLNASA-N

> <PUBCHEM_XLOGP3_AA>
5.2

> <PUBCHEM_EXACT_MASS>
204.187801

> <PUBCHEM_MOLECULAR_FORMULA>
C15H24

> <PUBCHEM_MOLECULAR_WEIGHT>
204.35106

> <PUBCHEM_OPENEYE_CAN_SMILES>
CC(=CCCC1(C2CC3C1(C3C2)C)C)C

> <PUBCHEM_OPENEYE_ISO_SMILES>
CC(=CCC[C@@]1(C2C[C@H]3C1(C3C2)C)C)C

> <PUBCHEM_CACTVS_TPSA>
0

> <PUBCHEM_MONOISOTOPIC_WEIGHT>
204.187801

> <PUBCHEM_TOTAL_CHARGE>
0

> <PUBCHEM_HEAVY_ATOM_COUNT>
15

> <PUBCHEM_ATOM_DEF_STEREO_COUNT>
2

> <PUBCHEM_ATOM_UDEF_STEREO_COUNT>
1

> <PUBCHEM_BOND_DEF_STEREO_COUNT>
0

> <PUBCHEM_BOND_UDEF_STEREO_COUNT>
0

> <PUBCHEM_ISOTOPIC_ATOM_COUNT>
0

> <PUBCHEM_COMPONENT_COUNT>
1

> <PUBCHEM_CACTVS_TAUTO_COUNT>
1

> <PUBCHEM_COORDINATE_TYPE>
1
5
255

> <PUBCHEM_BONDANNOTATIONS>
2  6  3
3  17  5
4  10  6

$$$$

