17395668
  -OEChem-06241222513D

 40 41  0     0  0  0  0  0  0999 V2000
    5.3291   -0.3986    0.3606 S   0  0  0  0  0  0  0  0  0  0  0  0
   -3.5884   -2.0430   -0.2861 O   0  0  0  0  0  0  0  0  0  0  0  0
   -5.0765    0.2822    0.0383 O   0  0  0  0  0  0  0  0  0  0  0  0
    1.0699   -1.7698   -0.2827 O   0  0  0  0  0  0  0  0  0  0  0  0
    0.4688    0.4818    0.0253 N   0  0  0  0  0  0  0  0  0  0  0  0
   -0.9278    0.4436    0.0304 C   0  0  0  0  0  0  0  0  0  0  0  0
   -1.6747    1.6104    0.1929 C   0  0  0  0  0  0  0  0  0  0  0  0
    2.8000   -0.2311   -0.0586 C   0  0  0  0  0  0  0  0  0  0  0  0
   -1.5746   -0.7817   -0.1302 C   0  0  0  0  0  0  0  0  0  0  0  0
    3.7660   -1.0965    0.4058 C   0  0  0  0  0  0  0  0  0  0  0  0
    1.3586   -0.5883   -0.1255 C   0  0  0  0  0  0  0  0  0  0  0  0
   -3.0683    1.5519    0.1951 C   0  0  0  0  0  0  0  0  0  0  0  0
   -2.9682   -0.8403   -0.1278 C   0  0  0  0  0  0  0  0  0  0  0  0
   -3.7150    0.3265    0.0347 C   0  0  0  0  0  0  0  0  0  0  0  0
    3.3504    1.0212   -0.4571 C   0  0  0  0  0  0  0  0  0  0  0  0
    4.7160    1.0655   -0.2818 C   0  0  0  0  0  0  0  0  0  0  0  0
   -1.0086    2.9366    0.3671 C   0  0  0  0  0  0  0  0  0  0  0  0
    3.6144   -2.4806    0.9098 C   0  0  0  0  0  0  0  0  0  0  0  0
    5.6460    2.1778   -0.5736 C   0  0  0  0  0  0  0  0  0  0  0  0
   -2.7522   -3.1872   -0.4463 C   0  0  0  0  0  0  0  0  0  0  0  0
   -5.7649    1.5195    0.2099 C   0  0  0  0  0  0  0  0  0  0  0  0
    0.8814    1.3987    0.1677 H   0  0  0  0  0  0  0  0  0  0  0  0
   -1.0100   -1.6853   -0.2561 H   0  0  0  0  0  0  0  0  0  0  0  0
   -3.6001    2.4883    0.3251 H   0  0  0  0  0  0  0  0  0  0  0  0
    2.7858    1.8517   -0.8626 H   0  0  0  0  0  0  0  0  0  0  0  0
   -0.3889    2.9400    1.2700 H   0  0  0  0  0  0  0  0  0  0  0  0
   -0.3882    3.1732   -0.5038 H   0  0  0  0  0  0  0  0  0  0  0  0
   -1.7353    3.7496    0.4732 H   0  0  0  0  0  0  0  0  0  0  0  0
    3.3849   -3.1650    0.0864 H   0  0  0  0  0  0  0  0  0  0  0  0
    4.5204   -2.8502    1.4024 H   0  0  0  0  0  0  0  0  0  0  0  0
    2.8052   -2.5402    1.6455 H   0  0  0  0  0  0  0  0  0  0  0  0
    6.1654    2.5030    0.3340 H   0  0  0  0  0  0  0  0  0  0  0  0
    6.3952    1.8785   -1.3142 H   0  0  0  0  0  0  0  0  0  0  0  0
    5.1105    3.0441   -0.9765 H   0  0  0  0  0  0  0  0  0  0  0  0
   -3.4140   -4.0528   -0.5584 H   0  0  0  0  0  0  0  0  0  0  0  0
   -2.1426   -3.3730    0.4448 H   0  0  0  0  0  0  0  0  0  0  0  0
   -2.1553   -3.1292   -1.3631 H   0  0  0  0  0  0  0  0  0  0  0  0
   -6.8368    1.2969    0.1874 H   0  0  0  0  0  0  0  0  0  0  0  0
   -5.5675    2.2099   -0.6174 H   0  0  0  0  0  0  0  0  0  0  0  0
   -5.5548    1.9667    1.1874 H   0  0  0  0  0  0  0  0  0  0  0  0
  1 10  1  0  0  0  0
  1 16  1  0  0  0  0
  2 13  1  0  0  0  0
  2 20  1  0  0  0  0
  3 14  1  0  0  0  0
  3 21  1  0  0  0  0
  4 11  2  0  0  0  0
  5  6  1  0  0  0  0
  5 11  1  0  0  0  0
  5 22  1  0  0  0  0
  6  7  1  0  0  0  0
  6  9  2  0  0  0  0
  7 12  2  0  0  0  0
  7 17  1  0  0  0  0
  8 10  2  0  0  0  0
  8 11  1  0  0  0  0
  8 15  1  0  0  0  0
  9 13  1  0  0  0  0
  9 23  1  0  0  0  0
 10 18  1  0  0  0  0
 12 14  1  0  0  0  0
 12 24  1  0  0  0  0
 13 14  2  0  0  0  0
 15 16  2  0  0  0  0
 15 25  1  0  0  0  0
 16 19  1  0  0  0  0
 17 26  1  0  0  0  0
 17 27  1  0  0  0  0
 17 28  1  0  0  0  0
 18 29  1  0  0  0  0
 18 30  1  0  0  0  0
 18 31  1  0  0  0  0
 19 32  1  0  0  0  0
 19 33  1  0  0  0  0
 19 34  1  0  0  0  0
 20 35  1  0  0  0  0
 20 36  1  0  0  0  0
 20 37  1  0  0  0  0
 21 38  1  0  0  0  0
 21 39  1  0  0  0  0
 21 40  1  0  0  0  0
M  END
> <PUBCHEM_COMPOUND_CID>
17395668

> <PUBCHEM_CONFORMER_RMSD>
0.8

> <PUBCHEM_CONFORMER_DIVERSEORDER>
1
10
16
5
6
15
18
7
17
8
2
13
9
11
14
12
4
3

> <PUBCHEM_MMFF94_PARTIAL_CHARGES>
25
1 -0.08
10 -0.14
11 0.72
12 -0.15
13 0.08
14 0.08
15 -0.15
16 -0.14
17 0.14
18 0.18
19 0.18
2 -0.36
20 0.28
21 0.28
22 0.37
23 0.15
24 0.15
25 0.15
3 -0.36
4 -0.57
5 -0.55
6 0.12
7 -0.14
8 -0.09
9 -0.15

> <PUBCHEM_EFFECTIVE_ROTOR_COUNT>
5

> <PUBCHEM_PHARMACOPHORE_FEATURES>
6
1 2 acceptor
1 3 acceptor
1 4 acceptor
1 5 donor
5 1 8 10 15 16 rings
6 6 7 9 12 13 14 rings

> <PUBCHEM_HEAVY_ATOM_COUNT>
21

> <PUBCHEM_ATOM_DEF_STEREO_COUNT>
0

> <PUBCHEM_ATOM_UDEF_STEREO_COUNT>
0

> <PUBCHEM_BOND_DEF_STEREO_COUNT>
0

> <PUBCHEM_BOND_UDEF_STEREO_COUNT>
0

> <PUBCHEM_ISOTOPIC_ATOM_COUNT>
0

> <PUBCHEM_COMPONENT_COUNT>
1

> <PUBCHEM_CACTVS_TAUTO_COUNT>
2

> <PUBCHEM_CONFORMER_ID>
01096FD400000001

> <PUBCHEM_MMFF94_ENERGY>
73.9318

> <PUBCHEM_FEATURE_SELFOVERLAP>
30.45

> <PUBCHEM_SHAPE_FINGERPRINT>
10366900 7 17312824891974272483
10411042 1 17760367687258442759
10595046 47 18412265012792314194
10616163 171 18408885118307237534
10759866 29 18411135840521513526
10906281 52 18114166576096227933
12107183 9 17691972982884090384
12236239 1 18202001031735626777
12390115 104 17823964839862558025
12403814 3 17989208170447209181
12616971 3 17989213646340379866
12788726 201 17749667514668294505
13167823 11 18413390955860170786
13533116 47 17917148428630312274
13631057 29 18193839232485125674
13760787 19 18411136922520936782
14251764 18 18260827103873605161
14289901 80 18412546531045739370
14341114 176 18411416258751399690
14341114 328 18411135831715073824
14528608 73 18341046320905306028
14790565 3 18192144018042706449
15196674 1 18410855438848705558
15250474 111 18339657680258420562
17492 89 18411701027932045218
19050596 39 18411985767088330994
20510252 161 18043249257099363449
20511986 3 18271821102410069101
21267235 1 18339635754581424706
21652331 79 18411417328098451884
23402539 116 18410016515623915462
23557571 272 18114452375434683742
23559900 14 18334861623543373424
245318 6 17056381217179411236
300161 21 18411705378437587908
3004659 81 18340768243057711738
34797466 226 17676758782640022188
34934 24 18410856568694032263
350125 39 18411983585687939284
3545911 37 18412261766066102796
4073 2 18059850628748758346
4214541 1 18410857685179696980
4340502 62 17059765724348288281
474 4 17846210021892649788
5104073 3 18412265025613984898
5374978 207 18410859897135515872
7097593 13 17982742062765664794
77779 3 18411136952801745294
9709674 26 18262514926329746342

> <PUBCHEM_SHAPE_MULTIPOLES>
413.43
12.76
2.99
0.72
3.14
0.81
-0.03
-3.03
-0.05
-0.71
0
0.32
0.07
-1.53

> <PUBCHEM_SHAPE_SELFOVERLAP>
862.275

> <PUBCHEM_SHAPE_VOLUME>
238.9

> <PUBCHEM_COORDINATE_TYPE>
2
5
10

$$$$

