5280401
  -OEChem-07051212453D

 41 41  0     1  0  0  0  0  0999 V2000
   -3.6654    0.0490   -0.0290 P   0  0  0  0  0  0  0  0  0  0  0  0
   -2.2223    0.4885    0.5414 O   0  0  0  0  0  0  0  0  0  0  0  0
   -0.0368   -0.3178    2.3346 O   0  0  0  0  0  0  0  0  0  0  0  0
   -0.1353   -0.3619   -2.3372 O   0  0  0  0  0  0  0  0  0  0  0  0
   -1.3238   -2.2663    0.5337 O   0  0  0  0  0  0  0  0  0  0  0  0
   -4.1482    1.3300   -0.8899 O   0  0  0  0  0  0  0  0  0  0  0  0
   -4.5980    0.1147    1.2903 O   0  0  0  0  0  0  0  0  0  0  0  0
   -3.6919   -1.2619   -0.7594 O   0  0  0  0  0  0  0  0  0  0  0  0
    1.0824    1.6679   -0.5351 N   0  0  0  0  0  0  0  0  0  0  0  0
    2.0295   -1.2496   -0.5586 N   0  0  0  0  0  0  0  0  0  0  0  0
    2.7712    3.2110   -0.8506 N   0  0  0  0  0  0  0  0  0  0  0  0
    1.8253    3.1283    1.2215 N   0  0  0  0  0  0  0  0  0  0  0  0
    4.3022   -1.4687   -0.9053 N   0  0  0  0  0  0  0  0  0  0  0  0
    3.5204   -2.0013    1.1684 N   0  0  0  0  0  0  0  0  0  0  0  0
   -1.1557    0.6618   -0.3913 C   0  0  1  0  0  0  0  0  0  0  0  0
    0.1020    1.0761    0.3854 C   0  0  1  0  0  0  0  0  0  0  0  0
    0.9017   -1.3772    0.3736 C   0  0  1  0  0  0  0  0  0  0  0  0
    0.7546   -0.0716    1.1692 C   0  0  2  0  0  0  0  0  0  0  0  0
   -0.9716   -0.6222   -1.2128 C   0  0  2  0  0  0  0  0  0  0  0  0
   -0.3635   -1.7736   -0.4004 C   0  0  2  0  0  0  0  0  0  0  0  0
    1.8286    2.6061   -0.0529 C   0  0  0  0  0  0  0  0  0  0  0  0
    3.1948   -1.5613   -0.0954 C   0  0  0  0  0  0  0  0  0  0  0  0
   -1.4321    1.4836   -1.0641 H   0  0  0  0  0  0  0  0  0  0  0  0
   -0.2605    1.8215    1.1054 H   0  0  0  0  0  0  0  0  0  0  0  0
    1.0596   -2.1996    1.0832 H   0  0  0  0  0  0  0  0  0  0  0  0
    1.7327    0.2455    1.5472 H   0  0  0  0  0  0  0  0  0  0  0  0
   -1.8815   -0.9508   -1.6921 H   0  0  0  0  0  0  0  0  0  0  0  0
   -0.1139   -2.6029   -1.0746 H   0  0  0  0  0  0  0  0  0  0  0  0
   -0.9159   -0.6152    2.0447 H   0  0  0  0  0  0  0  0  0  0  0  0
    0.7282   -0.0580   -2.0104 H   0  0  0  0  0  0  0  0  0  0  0  0
   -2.0958   -2.5696    0.0264 H   0  0  0  0  0  0  0  0  0  0  0  0
   -4.9906    1.2757   -1.3894 H   0  0  0  0  0  0  0  0  0  0  0  0
   -5.5247   -0.2017    1.2326 H   0  0  0  0  0  0  0  0  0  0  0  0
    2.8943    2.9330   -1.8181 H   0  0  0  0  0  0  0  0  0  0  0  0
    3.3704    3.9490   -0.4976 H   0  0  0  0  0  0  0  0  0  0  0  0
    2.4633    3.8760    1.4728 H   0  0  0  0  0  0  0  0  0  0  0  0
    1.2328    2.7804    1.9654 H   0  0  0  0  0  0  0  0  0  0  0  0
    4.2225   -1.1573   -1.8673 H   0  0  0  0  0  0  0  0  0  0  0  0
    5.2283   -1.7062   -0.5673 H   0  0  0  0  0  0  0  0  0  0  0  0
    4.4822   -2.2215    1.4049 H   0  0  0  0  0  0  0  0  0  0  0  0
    2.8462   -2.0904    1.9187 H   0  0  0  0  0  0  0  0  0  0  0  0
  1  2  1  0  0  0  0
  1  6  1  0  0  0  0
  1  7  1  0  0  0  0
  1  8  2  0  0  0  0
  2 15  1  0  0  0  0
  3 18  1  0  0  0  0
  3 29  1  0  0  0  0
  4 19  1  0  0  0  0
  4 30  1  0  0  0  0
  5 20  1  0  0  0  0
  5 31  1  0  0  0  0
  6 32  1  0  0  0  0
  7 33  1  0  0  0  0
  9 16  1  0  0  0  0
  9 21  2  0  0  0  0
 10 17  1  0  0  0  0
 10 22  2  0  0  0  0
 11 21  1  0  0  0  0
 11 34  1  0  0  0  0
 11 35  1  0  0  0  0
 12 21  1  0  0  0  0
 12 36  1  0  0  0  0
 12 37  1  0  0  0  0
 13 22  1  0  0  0  0
 13 38  1  0  0  0  0
 13 39  1  0  0  0  0
 14 22  1  0  0  0  0
 14 40  1  0  0  0  0
 14 41  1  0  0  0  0
 15 16  1  0  0  0  0
 15 19  1  0  0  0  0
 15 23  1  0  0  0  0
 16 18  1  0  0  0  0
 16 24  1  0  0  0  0
 17 18  1  0  0  0  0
 17 20  1  0  0  0  0
 17 25  1  0  0  0  0
 18 26  1  0  0  0  0
 19 20  1  0  0  0  0
 19 27  1  0  0  0  0
 20 28  1  0  0  0  0
M  END
> <PUBCHEM_COMPOUND_CID>
5280401

> <PUBCHEM_CONFORMER_RMSD>
0.8

> <PUBCHEM_CONFORMER_DIVERSEORDER>
3
7
20
16
4
12
25
10
27
23
17
21
14
15
26
22
8
11
5
13
9
18
1
2
6
24
19

> <PUBCHEM_MMFF94_PARTIAL_CHARGES>
35
1 1.51
10 -0.7
11 -0.85
12 -0.85
13 -0.85
14 -0.85
15 0.28
16 0.25
17 0.25
18 0.28
19 0.28
2 -0.55
20 0.28
21 0.55
22 0.55
29 0.4
3 -0.68
30 0.4
31 0.4
32 0.5
33 0.5
34 0.4
35 0.4
36 0.4
37 0.4
38 0.4
39 0.4
4 -0.68
40 0.4
41 0.4
5 -0.68
6 -0.77
7 -0.77
8 -0.7
9 -0.7

> <PUBCHEM_EFFECTIVE_ROTOR_COUNT>
5.2

> <PUBCHEM_PHARMACOPHORE_FEATURES>
17
1 11 donor
1 12 donor
1 13 donor
1 14 donor
1 3 acceptor
1 3 donor
1 4 acceptor
1 4 donor
1 5 acceptor
1 5 donor
1 6 acceptor
1 7 acceptor
1 8 acceptor
4 1 6 7 8 anion
4 10 13 14 22 cation
4 9 11 12 21 cation
6 15 16 17 18 19 20 rings

> <PUBCHEM_HEAVY_ATOM_COUNT>
22

> <PUBCHEM_ATOM_DEF_STEREO_COUNT>
6

> <PUBCHEM_ATOM_UDEF_STEREO_COUNT>
0

> <PUBCHEM_BOND_DEF_STEREO_COUNT>
0

> <PUBCHEM_BOND_UDEF_STEREO_COUNT>
0

> <PUBCHEM_ISOTOPIC_ATOM_COUNT>
0

> <PUBCHEM_COMPONENT_COUNT>
1

> <PUBCHEM_CACTVS_TAUTO_COUNT>
4

> <PUBCHEM_CONFORMER_ID>
0050929100000003

> <PUBCHEM_MMFF94_ENERGY>
43.2261

> <PUBCHEM_FEATURE_SELFOVERLAP>
86.419

> <PUBCHEM_SHAPE_FINGERPRINT>
10756046 5 18336265617823584263
10863032 1 18192707847936246423
10948715 1 18195809561595611397
11578080 2 17412703333992849912
11680986 33 18268424646588510482
12422481 6 18122659165259902248
12592029 89 18193833747948662240
12788726 201 18123182670185859146
13132413 78 18119525685547414621
13140716 1 18409726232207539347
14713325 29 17694777420128789696
1601671 61 18048884288245550269
16945 1 18272374195556139619
1813 80 18115583884838087214
18785283 64 18200026231848899216
200 152 17774155859291180146
20473742 2 18343022194064476028
20671657 1 18188776037167816345
21041028 32 18262797487875199441
21501502 16 18262237695017899479
23366157 5 18130511816832517828
23402539 116 18192441972502703830
23419403 2 17700377391778647968
3286 77 18131634512319406166
7364860 26 18262522494183090160
7495541 125 18129930243938103995
81228 2 17975685405754399970
9999458 23 18342458170933733095

> <PUBCHEM_SHAPE_MULTIPOLES>
385.63
6.49
3.01
1.5
3.66
2.27
-0.12
-0.98
0.17
-3.3
-0.03
0.04
-0.07
-0.13

> <PUBCHEM_SHAPE_SELFOVERLAP>
772.685

> <PUBCHEM_SHAPE_VOLUME>
227.4

> <PUBCHEM_COORDINATE_TYPE>
2
5
10

$$$$

