17395791
  -OEChem-06241222523D

 42 45  0     0  0  0  0  0  0999 V2000
   -1.8424    2.8331   -0.7417 O   0  0  0  0  0  0  0  0  0  0  0  0
   -0.4054    1.3381    0.3402 N   0  0  0  0  0  0  0  0  0  0  0  0
   -5.6411   -0.6168    1.3714 N   0  0  0  0  0  0  0  0  0  0  0  0
   -5.7468   -1.9832   -0.4829 N   0  0  0  0  0  0  0  0  0  0  0  0
   -6.2433   -1.5988    0.6958 N   0  0  0  0  0  0  0  0  0  0  0  0
    0.6645    2.3206    0.4994 C   0  0  0  0  0  0  0  0  0  0  0  0
    1.9533    1.8158   -0.1442 C   0  0  0  0  0  0  0  0  0  0  0  0
    2.2695    0.4008    0.2770 C   0  0  0  0  0  0  0  0  0  0  0  0
   -0.1425    0.0062    0.9037 C   0  0  0  0  0  0  0  0  0  0  0  0
    1.2974   -0.3986    0.7573 C   0  0  0  0  0  0  0  0  0  0  0  0
    3.6654   -0.0752    0.1289 C   0  0  0  0  0  0  0  0  0  0  0  0
   -1.6064    1.7236   -0.2655 C   0  0  0  0  0  0  0  0  0  0  0  0
   -2.6937    0.7358   -0.3438 C   0  0  0  0  0  0  0  0  0  0  0  0
    4.3745   -0.5157    1.2465 C   0  0  0  0  0  0  0  0  0  0  0  0
    4.2698   -0.0827   -1.1282 C   0  0  0  0  0  0  0  0  0  0  0  0
   -3.6152    0.6741    0.7176 C   0  0  0  0  0  0  0  0  0  0  0  0
   -2.7589   -0.1059   -1.4863 C   0  0  0  0  0  0  0  0  0  0  0  0
    5.6879   -0.9636    1.1070 C   0  0  0  0  0  0  0  0  0  0  0  0
    5.5835   -0.5309   -1.2677 C   0  0  0  0  0  0  0  0  0  0  0  0
    6.2926   -0.9712   -0.1499 C   0  0  0  0  0  0  0  0  0  0  0  0
   -4.6201   -0.2983    0.5589 C   0  0  0  0  0  0  0  0  0  0  0  0
   -4.6874   -1.1695   -0.6233 C   0  0  0  0  0  0  0  0  0  0  0  0
   -3.7514   -1.0859   -1.6709 C   0  0  0  0  0  0  0  0  0  0  0  0
    7.6963   -1.4518   -0.2996 C   0  0  0  0  0  0  0  0  0  0  0  0
    0.8036    2.4805    1.5760 H   0  0  0  0  0  0  0  0  0  0  0  0
    0.3835    3.2839    0.0616 H   0  0  0  0  0  0  0  0  0  0  0  0
    2.7709    2.4917    0.1338 H   0  0  0  0  0  0  0  0  0  0  0  0
    1.8555    1.8473   -1.2366 H   0  0  0  0  0  0  0  0  0  0  0  0
   -0.7728   -0.7476    0.4265 H   0  0  0  0  0  0  0  0  0  0  0  0
   -0.4072    0.0441    1.9662 H   0  0  0  0  0  0  0  0  0  0  0  0
    1.5321   -1.4179    1.0566 H   0  0  0  0  0  0  0  0  0  0  0  0
    3.9220   -0.5129    2.2352 H   0  0  0  0  0  0  0  0  0  0  0  0
    3.7312    0.2521   -2.0112 H   0  0  0  0  0  0  0  0  0  0  0  0
   -3.5564    1.3203    1.5849 H   0  0  0  0  0  0  0  0  0  0  0  0
   -2.0046    0.0053   -2.2655 H   0  0  0  0  0  0  0  0  0  0  0  0
    6.2298   -1.3054    1.9850 H   0  0  0  0  0  0  0  0  0  0  0  0
    6.0426   -0.5350   -2.2528 H   0  0  0  0  0  0  0  0  0  0  0  0
   -3.7830   -1.7177   -2.5494 H   0  0  0  0  0  0  0  0  0  0  0  0
    7.7055   -2.5278   -0.4997 H   0  0  0  0  0  0  0  0  0  0  0  0
    8.2045   -0.9373   -1.1223 H   0  0  0  0  0  0  0  0  0  0  0  0
    8.2791   -1.2585    0.6074 H   0  0  0  0  0  0  0  0  0  0  0  0
   -7.0692   -2.0483    1.0741 H   0  0  0  0  0  0  0  0  0  0  0  0
  1 12  2  0  0  0  0
  2  6  1  0  0  0  0
  2  9  1  0  0  0  0
  2 12  1  0  0  0  0
  3  5  1  0  0  0  0
  3 21  2  0  0  0  0
  4  5  1  0  0  0  0
  4 22  2  0  0  0  0
  5 42  1  0  0  0  0
  6  7  1  0  0  0  0
  6 25  1  0  0  0  0
  6 26  1  0  0  0  0
  7  8  1  0  0  0  0
  7 27  1  0  0  0  0
  7 28  1  0  0  0  0
  8 10  2  0  0  0  0
  8 11  1  0  0  0  0
  9 10  1  0  0  0  0
  9 29  1  0  0  0  0
  9 30  1  0  0  0  0
 10 31  1  0  0  0  0
 11 14  2  0  0  0  0
 11 15  1  0  0  0  0
 12 13  1  0  0  0  0
 13 16  2  0  0  0  0
 13 17  1  0  0  0  0
 14 18  1  0  0  0  0
 14 32  1  0  0  0  0
 15 19  2  0  0  0  0
 15 33  1  0  0  0  0
 16 21  1  0  0  0  0
 16 34  1  0  0  0  0
 17 23  2  0  0  0  0
 17 35  1  0  0  0  0
 18 20  2  0  0  0  0
 18 36  1  0  0  0  0
 19 20  1  0  0  0  0
 19 37  1  0  0  0  0
 20 24  1  0  0  0  0
 21 22  1  0  0  0  0
 22 23  1  0  0  0  0
 23 38  1  0  0  0  0
 24 39  1  0  0  0  0
 24 40  1  0  0  0  0
 24 41  1  0  0  0  0
M  END
> <PUBCHEM_COMPOUND_CID>
17395791

> <PUBCHEM_CONFORMER_RMSD>
0.6

> <PUBCHEM_CONFORMER_DIVERSEORDER>
1
15
13
18
11
30
23
28
17
9
21
22
25
29
26
27
20
10
19
16
31
24
14
12
6
2
7
3
8
4
5

> <PUBCHEM_MMFF94_PARTIAL_CHARGES>
33
1 -0.57
10 -0.29
11 0.03
12 0.54
13 0.09
14 -0.15
15 -0.15
16 -0.15
17 -0.15
18 -0.15
19 -0.15
2 -0.66
20 -0.14
21 0.29
22 0.29
23 -0.15
24 0.14
3 -0.71
31 0.15
32 0.15
33 0.15
34 0.15
35 0.15
36 0.15
37 0.15
38 0.15
4 -0.71
42 0.27
5 0.57
6 0.3
7 0.14
8 -0.17
9 0.44

> <PUBCHEM_EFFECTIVE_ROTOR_COUNT>
3.8

> <PUBCHEM_PHARMACOPHORE_FEATURES>
7
1 1 acceptor
1 3 acceptor
1 4 acceptor
5 3 4 5 21 22 rings
6 11 14 15 18 19 20 rings
6 13 16 17 21 22 23 rings
6 2 6 7 8 9 10 rings

> <PUBCHEM_HEAVY_ATOM_COUNT>
24

> <PUBCHEM_ATOM_DEF_STEREO_COUNT>
0

> <PUBCHEM_ATOM_UDEF_STEREO_COUNT>
0

> <PUBCHEM_BOND_DEF_STEREO_COUNT>
0

> <PUBCHEM_BOND_UDEF_STEREO_COUNT>
0

> <PUBCHEM_ISOTOPIC_ATOM_COUNT>
0

> <PUBCHEM_COMPONENT_COUNT>
1

> <PUBCHEM_CACTVS_TAUTO_COUNT>
4

> <PUBCHEM_CONFORMER_ID>
0109704F00000001

> <PUBCHEM_MMFF94_ENERGY>
69.7402

> <PUBCHEM_FEATURE_SELFOVERLAP>
35.701

> <PUBCHEM_SHAPE_FINGERPRINT>
10 15 5833704712142658435
10319926 262 16153694393977087605
11089746 13 11527944539461736558
11524674 6 16515687745002952695
11809386 21 18200602513127534976
12166972 35 17418088811102893964
12422481 6 17530676615405969191
12553582 1 18338248102071559179
12596602 18 13984663633349957671
12760667 363 18411981351819668403
13288520 33 18411138047913047145
13540713 4 18265638548781331409
13668630 136 18202280329818377374
13673619 4 18333449833043452609
13685833 64 18334012783392187906
13690498 29 18272374191271904349
13782708 43 17896042217115657622
13862211 1 18412263943498581490
13941219 33 16153706557050111662
14123256 34 18411415098677901634
14251764 18 5617249325786839169
14251764 30 18411700959101187991
14341114 176 15791729707162160162
14347332 77 18271810150444125644
14350574 20 18201719539563216240
14528608 73 13254800126871969250
14556957 393 16917055702872909164
14767858 380 17918269857808372234
15003188 100 13901898982438353830
15142383 8 14345791686806191786
15183329 4 15626227935610165442
15188451 53 16588598500582988055
15348495 7 15719684168849986138
15461852 350 12391498785757424946
15537594 2 18334296487098735823
1577012 14 17417530336922047840
16110190 28 17676491601240093494
17349148 13 18130505331764307824
17780758 139 17313104168012130033
1813 80 18410004417028525765
18927931 339 18411983585170929359
19784866 140 18202288000133706369
19841028 212 18119821210043412175
19958102 18 16988560238631666450
20028762 73 18260268521053247590
21033648 29 12103552057799095316
21054139 6 18131351951612892058
21150785 3 17632854227387275606
21267235 1 18411696582228527786
21315763 191 18335414647685098383
21403212 168 17312815014335526799
21623969 137 16588022433604421726
22950370 63 18336261263074989853
23402539 116 18201439224533806028
23522609 53 18123153949218253224
23559900 14 17417806176063273056
2748736 6 9151177549377554658
2767999 5 9583520906007457554
2838139 119 11743842456136916094
300161 21 9007057963650332860
3004659 81 18131351904025087280
312425 54 16225764112159430038
329604 57 18060700593658823650
34797466 226 15267336314616731807
351380 3 18409730659833368622
3737641 26 17823411768127974758
397830 11 17095820832031023906
4098825 35 16127824087976800181
4107672 100 17060068077498544119
465052 167 18336822000766702615
474113 269 17823147735931487911
484989 97 17559659673406151778
5104073 3 17313944079290486195
54039377 194 18410851053877280110
543368 44 11167949056856327247
559249 180 18260548940063270533
5924683 9 14852184870865587885
6669772 16 17845093948823618160
6700243 42 18046317968409621844
7226269 152 9367345937718611374
7970288 3 18411705357148069363
8863177 126 18199181781280975771
999808 66 18341604902518700443

> <PUBCHEM_SHAPE_MULTIPOLES>
468.12
17.85
2.02
1.32
10.68
1.05
-0.15
-13.28
0.26
-1.47
-0.25
-0.25
-0.27
-0.03

> <PUBCHEM_SHAPE_SELFOVERLAP>
1027.393

> <PUBCHEM_SHAPE_VOLUME>
252.5

> <PUBCHEM_COORDINATE_TYPE>
2
5
10

$$$$

