125520
  -OEChem-07051213043D

 24 25  0     0  0  0  0  0  0999 V2000
    1.0557    0.0003   -1.1906 O   0  0  0  0  0  0  0  0  0  0  0  0
    4.0770   -0.0027    0.5356 O   0  0  0  0  0  0  0  0  0  0  0  0
   -3.5385   -0.0070   -0.3385 N   0  0  0  0  0  0  0  0  0  0  0  0
    2.4671   -0.0025   -1.1588 N   0  0  0  0  0  0  0  0  0  0  0  0
   -0.7332    0.0061    0.4971 C   0  0  0  0  0  0  0  0  0  0  0  0
   -1.4229   -1.2530   -0.0403 C   0  0  0  0  0  0  0  0  0  0  0  0
   -1.4344    1.2580   -0.0449 C   0  0  0  0  0  0  0  0  0  0  0  0
   -2.9283   -1.2125    0.2224 C   0  0  0  0  0  0  0  0  0  0  0  0
   -2.9391    1.2053    0.2193 C   0  0  0  0  0  0  0  0  0  0  0  0
    0.7239    0.0039    0.1556 C   0  0  0  0  0  0  0  0  0  0  0  0
    1.7479    0.0043    1.0061 C   0  0  0  0  0  0  0  0  0  0  0  0
    2.9249   -0.0002    0.1371 C   0  0  0  0  0  0  0  0  0  0  0  0
   -0.8403    0.0079    1.5913 H   0  0  0  0  0  0  0  0  0  0  0  0
   -0.9975   -2.1472    0.4323 H   0  0  0  0  0  0  0  0  0  0  0  0
   -1.2521   -1.3566   -1.1204 H   0  0  0  0  0  0  0  0  0  0  0  0
   -1.2641    1.3586   -1.1254 H   0  0  0  0  0  0  0  0  0  0  0  0
   -1.0156    2.1569    0.4242 H   0  0  0  0  0  0  0  0  0  0  0  0
   -3.4011   -2.0921   -0.2282 H   0  0  0  0  0  0  0  0  0  0  0  0
   -3.1294   -1.2656    1.2992 H   0  0  0  0  0  0  0  0  0  0  0  0
   -3.1399    1.2591    1.2961 H   0  0  0  0  0  0  0  0  0  0  0  0
   -3.4199    2.0795   -0.2332 H   0  0  0  0  0  0  0  0  0  0  0  0
   -3.4017   -0.0077   -1.3497 H   0  0  0  0  0  0  0  0  0  0  0  0
    1.7446    0.0064    2.0809 H   0  0  0  0  0  0  0  0  0  0  0  0
    2.9859   -0.0065   -2.0275 H   0  0  0  0  0  0  0  0  0  0  0  0
  1  4  1  0  0  0  0
  1 10  1  0  0  0  0
  2 12  2  0  0  0  0
  3  8  1  0  0  0  0
  3  9  1  0  0  0  0
  3 22  1  0  0  0  0
  4 12  1  0  0  0  0
  4 24  1  0  0  0  0
  5  6  1  0  0  0  0
  5  7  1  0  0  0  0
  5 10  1  0  0  0  0
  5 13  1  0  0  0  0
  6  8  1  0  0  0  0
  6 14  1  0  0  0  0
  6 15  1  0  0  0  0
  7  9  1  0  0  0  0
  7 16  1  0  0  0  0
  7 17  1  0  0  0  0
  8 18  1  0  0  0  0
  8 19  1  0  0  0  0
  9 20  1  0  0  0  0
  9 21  1  0  0  0  0
 10 11  2  0  0  0  0
 11 12  1  0  0  0  0
 11 23  1  0  0  0  0
M  END
> <PUBCHEM_COMPOUND_CID>
125520

> <PUBCHEM_CONFORMER_RMSD>
0.6

> <PUBCHEM_CONFORMER_DIVERSEORDER>
1
4
3
7
5
2
6
8

> <PUBCHEM_MMFF94_PARTIAL_CHARGES>
13
1 -0.11
10 -0.06
11 -0.14
12 0.62
2 -0.57
22 0.36
23 0.15
24 0.37
3 -0.9
4 -0.39
5 0.14
8 0.27
9 0.27

> <PUBCHEM_EFFECTIVE_ROTOR_COUNT>
2.2

> <PUBCHEM_PHARMACOPHORE_FEATURES>
6
1 2 acceptor
1 3 cation
1 3 donor
1 4 donor
5 1 4 10 11 12 rings
6 3 5 6 7 8 9 rings

> <PUBCHEM_HEAVY_ATOM_COUNT>
12

> <PUBCHEM_ATOM_DEF_STEREO_COUNT>
0

> <PUBCHEM_ATOM_UDEF_STEREO_COUNT>
0

> <PUBCHEM_BOND_DEF_STEREO_COUNT>
0

> <PUBCHEM_BOND_UDEF_STEREO_COUNT>
0

> <PUBCHEM_ISOTOPIC_ATOM_COUNT>
0

> <PUBCHEM_COMPONENT_COUNT>
1

> <PUBCHEM_CACTVS_TAUTO_COUNT>
2

> <PUBCHEM_CONFORMER_ID>
0001EA5000000001

> <PUBCHEM_MMFF94_ENERGY>
7.9815

> <PUBCHEM_FEATURE_SELFOVERLAP>
30.446

> <PUBCHEM_SHAPE_FINGERPRINT>
10219947 1 16370725920246704808
11062470 55 18040155114844588984
124424 183 18041286542690930786
12932764 1 18410571790433719195
14144814 61 18131634499465977475
14325111 11 18408886273457527258
14993402 34 17632579348609913071
15219456 202 17676200312083847590
15775835 57 18271807977269639369
16945 1 18410849967286970473
17844478 74 17385718093263794705
18175812 5 17822579317218114200
190213 19 17775567537209198330
200 152 16415482619165990827
20201158 50 17603303756335339023
20279233 1 17748825224035883311
20645464 45 17894630353210129403
20645477 70 16153984784757415396
23402539 116 18261968404931706653
23559900 14 18261675969546583490
3248919 1 17632570552485235962
6333449 129 18260551130143183105
75552 356 18411702071486765345
77492 1 17704070694096083347

> <PUBCHEM_SHAPE_MULTIPOLES>
225.25
6.12
1.14
0.92
1.82
0
0.11
0
-0.2
-1.17
-0.04
0.5
0
0

> <PUBCHEM_SHAPE_SELFOVERLAP>
467.429

> <PUBCHEM_SHAPE_VOLUME>
128.3

> <PUBCHEM_COORDINATE_TYPE>
2
5
10

$$$$

