46173855
  -OEChem-07051213093D

 58 61  0     1  0  0  0  0  0999 V2000
   -0.9738   -2.4026    0.6680 O   0  0  0  0  0  0  0  0  0  0  0  0
   -3.7249   -1.1671   -0.8167 O   0  0  0  0  0  0  0  0  0  0  0  0
    0.0300    2.9422    0.1953 O   0  0  0  0  0  0  0  0  0  0  0  0
   -2.6977    3.4898   -0.1651 O   0  0  0  0  0  0  0  0  0  0  0  0
    1.7387    1.5360    1.5278 O   0  0  0  0  0  0  0  0  0  0  0  0
    4.4814    1.2126    1.2569 O   0  0  0  0  0  0  0  0  0  0  0  0
   -2.1915   -2.7841    2.5149 O   0  0  0  0  0  0  0  0  0  0  0  0
   -1.3641   -0.4685   -0.8638 C   0  0  2  0  0  0  0  0  0  0  0  0
   -0.3323    0.5178   -0.1849 C   0  0  1  0  0  0  0  0  0  0  0  0
    1.2015    0.2419   -0.5034 C   0  0  1  0  0  0  0  0  0  0  0  0
   -2.7624   -0.3151   -0.1672 C   0  0  1  0  0  0  0  0  0  0  0  0
   -0.9193   -1.9318   -0.6989 C   0  0  1  0  0  0  0  0  0  0  0  0
    1.5165   -1.2952   -0.4165 C   0  0  1  0  0  0  0  0  0  0  0  0
   -0.8366    1.9778   -0.3970 C   0  0  1  0  0  0  0  0  0  0  0  0
   -3.2789    1.1539   -0.2657 C   0  0  2  0  0  0  0  0  0  0  0  0
    0.5148   -2.1667   -1.1839 C   0  0  0  0  0  0  0  0  0  0  0  0
   -2.2359    2.1861    0.2059 C   0  0  2  0  0  0  0  0  0  0  0  0
   -1.5217   -0.2152   -2.3948 C   0  0  0  0  0  0  0  0  0  0  0  0
   -2.7198   -0.8125    1.2850 C   0  0  0  0  0  0  0  0  0  0  0  0
    2.9942   -1.6060   -0.7972 C   0  0  1  0  0  0  0  0  0  0  0  0
    1.6442    0.8746   -1.8431 C   0  0  0  0  0  0  0  0  0  0  0  0
    2.1267    0.8110    0.6147 C   0  0  0  0  0  0  0  0  0  0  0  0
   -4.6174    1.3697    0.4646 C   0  0  0  0  0  0  0  0  0  0  0  0
   -1.9735   -2.0983    1.5180 C   0  0  0  0  0  0  0  0  0  0  0  0
    3.9457   -0.6640   -0.0943 C   0  0  0  0  0  0  0  0  0  0  0  0
    3.5712    0.4319    0.5814 C   0  0  0  0  0  0  0  0  0  0  0  0
    3.3903   -3.0490   -0.4578 C   0  0  0  0  0  0  0  0  0  0  0  0
    4.9948    2.2307    0.4180 C   0  0  0  0  0  0  0  0  0  0  0  0
   -0.3914    0.3452    0.8984 H   0  0  0  0  0  0  0  0  0  0  0  0
   -1.5747   -2.6019   -1.2702 H   0  0  0  0  0  0  0  0  0  0  0  0
    1.4115   -1.5795    0.6440 H   0  0  0  0  0  0  0  0  0  0  0  0
   -0.8560    2.2351   -1.4595 H   0  0  0  0  0  0  0  0  0  0  0  0
   -3.5177    1.3596   -1.3182 H   0  0  0  0  0  0  0  0  0  0  0  0
    0.6090   -2.0045   -2.2618 H   0  0  0  0  0  0  0  0  0  0  0  0
    0.7470   -3.2235   -1.0100 H   0  0  0  0  0  0  0  0  0  0  0  0
   -2.1689    2.1891    1.3001 H   0  0  0  0  0  0  0  0  0  0  0  0
   -2.2564   -0.9035   -2.8298 H   0  0  0  0  0  0  0  0  0  0  0  0
   -0.6029   -0.3742   -2.9553 H   0  0  0  0  0  0  0  0  0  0  0  0
   -1.8669    0.7930   -2.6328 H   0  0  0  0  0  0  0  0  0  0  0  0
   -2.2611   -0.0707    1.9471 H   0  0  0  0  0  0  0  0  0  0  0  0
   -3.7390   -0.9895    1.6520 H   0  0  0  0  0  0  0  0  0  0  0  0
    3.1316   -1.4747   -1.8781 H   0  0  0  0  0  0  0  0  0  0  0  0
    1.2698    0.3261   -2.7071 H   0  0  0  0  0  0  0  0  0  0  0  0
    2.7318    0.9146   -1.9601 H   0  0  0  0  0  0  0  0  0  0  0  0
    1.3178    1.9145   -1.9306 H   0  0  0  0  0  0  0  0  0  0  0  0
   -4.5119    1.2556    1.5480 H   0  0  0  0  0  0  0  0  0  0  0  0
   -5.3885    0.6768    0.1165 H   0  0  0  0  0  0  0  0  0  0  0  0
   -4.9984    2.3805    0.2809 H   0  0  0  0  0  0  0  0  0  0  0  0
   -4.5473   -1.1766   -0.3010 H   0  0  0  0  0  0  0  0  0  0  0  0
    5.0050   -0.9088   -0.1378 H   0  0  0  0  0  0  0  0  0  0  0  0
    0.0658    2.7628    1.1503 H   0  0  0  0  0  0  0  0  0  0  0  0
    2.8496   -3.7687   -1.0794 H   0  0  0  0  0  0  0  0  0  0  0  0
    4.4582   -3.2192   -0.6387 H   0  0  0  0  0  0  0  0  0  0  0  0
    3.1880   -3.2836    0.5932 H   0  0  0  0  0  0  0  0  0  0  0  0
   -2.7554    3.5220   -1.1353 H   0  0  0  0  0  0  0  0  0  0  0  0
    5.5436    1.8075   -0.4306 H   0  0  0  0  0  0  0  0  0  0  0  0
    4.1959    2.8889    0.0585 H   0  0  0  0  0  0  0  0  0  0  0  0
    5.6932    2.8357    1.0038 H   0  0  0  0  0  0  0  0  0  0  0  0
  1 12  1  0  0  0  0
  1 24  1  0  0  0  0
  2 11  1  0  0  0  0
  2 49  1  0  0  0  0
  3 14  1  0  0  0  0
  3 51  1  0  0  0  0
  4 17  1  0  0  0  0
  4 55  1  0  0  0  0
  5 22  2  0  0  0  0
  6 26  1  0  0  0  0
  6 28  1  0  0  0  0
  7 24  2  0  0  0  0
  8  9  1  0  0  0  0
  8 11  1  0  0  0  0
  8 12  1  0  0  0  0
  8 18  1  0  0  0  0
  9 10  1  0  0  0  0
  9 14  1  0  0  0  0
  9 29  1  0  0  0  0
 10 13  1  0  0  0  0
 10 21  1  0  0  0  0
 10 22  1  0  0  0  0
 11 15  1  0  0  0  0
 11 19  1  0  0  0  0
 12 16  1  0  0  0  0
 12 30  1  0  0  0  0
 13 16  1  0  0  0  0
 13 20  1  0  0  0  0
 13 31  1  0  0  0  0
 14 17  1  0  0  0  0
 14 32  1  0  0  0  0
 15 17  1  0  0  0  0
 15 23  1  0  0  0  0
 15 33  1  0  0  0  0
 16 34  1  0  0  0  0
 16 35  1  0  0  0  0
 17 36  1  0  0  0  0
 18 37  1  0  0  0  0
 18 38  1  0  0  0  0
 18 39  1  0  0  0  0
 19 24  1  0  0  0  0
 19 40  1  0  0  0  0
 19 41  1  0  0  0  0
 20 25  1  0  0  0  0
 20 27  1  0  0  0  0
 20 42  1  0  0  0  0
 21 43  1  0  0  0  0
 21 44  1  0  0  0  0
 21 45  1  0  0  0  0
 22 26  1  0  0  0  0
 23 46  1  0  0  0  0
 23 47  1  0  0  0  0
 23 48  1  0  0  0  0
 25 26  2  0  0  0  0
 25 50  1  0  0  0  0
 27 52  1  0  0  0  0
 27 53  1  0  0  0  0
 27 54  1  0  0  0  0
 28 56  1  0  0  0  0
 28 57  1  0  0  0  0
 28 58  1  0  0  0  0
M  END
> <PUBCHEM_COMPOUND_CID>
46173855

> <PUBCHEM_CONFORMER_RMSD>
0.6

> <PUBCHEM_CONFORMER_DIVERSEORDER>
1

> <PUBCHEM_MMFF94_PARTIAL_CHARGES>
23
1 -0.43
10 0.06
11 0.28
12 0.28
14 0.28
17 0.28
19 0.06
2 -0.68
20 0.14
22 0.49
24 0.66
25 -0.29
26 0.09
28 0.28
3 -0.68
4 -0.68
49 0.4
5 -0.57
50 0.15
51 0.4
55 0.4
6 -0.36
7 -0.57

> <PUBCHEM_EFFECTIVE_ROTOR_COUNT>
2.4

> <PUBCHEM_PHARMACOPHORE_FEATURES>
13
1 2 acceptor
1 2 donor
1 3 acceptor
1 3 donor
1 4 acceptor
1 4 donor
1 5 acceptor
1 6 acceptor
1 7 acceptor
6 1 8 11 12 19 24 rings
6 10 13 20 22 25 26 rings
6 8 9 10 12 13 16 rings
6 8 9 11 14 15 17 rings

> <PUBCHEM_HEAVY_ATOM_COUNT>
28

> <PUBCHEM_ATOM_DEF_STEREO_COUNT>
10

> <PUBCHEM_ATOM_UDEF_STEREO_COUNT>
0

> <PUBCHEM_BOND_DEF_STEREO_COUNT>
0

> <PUBCHEM_BOND_UDEF_STEREO_COUNT>
0

> <PUBCHEM_ISOTOPIC_ATOM_COUNT>
0

> <PUBCHEM_COMPONENT_COUNT>
1

> <PUBCHEM_CACTVS_TAUTO_COUNT>
6

> <PUBCHEM_CONFORMER_ID>
02C08E9F00000001

> <PUBCHEM_MMFF94_ENERGY>
119.4724

> <PUBCHEM_FEATURE_SELFOVERLAP>
66.177

> <PUBCHEM_SHAPE_FINGERPRINT>
10366900 7 18335989653511362768
10863032 1 18260270788663370287
10906281 52 18339070506810353381
10948715 1 18263648527217997253
1100329 8 16320898608396536554
11640471 11 15430861237487841619
12011746 2 18262527991482824844
12035758 1 18271229531659530307
12553582 1 17836908032556023411
12596599 1 17274814727694144474
12633257 1 17560802104230210990
13140716 1 18192144008919268113
13224815 77 18408324380424861012
14178342 30 18131631179889157690
14223421 5 18409163307828456846
14787075 74 18335710459410537293
14790565 3 18048034078411715272
15196674 1 18333454256769687364
15209289 33 18052816137278263430
15295992 7 18263633129602180723
16945 1 18194951947053028615
19049666 15 18338231665137090194
19784866 170 18337668616678729560
20600515 1 17560800987871244839
20691752 17 18059016214849050055
20905425 154 17543627990608382045
21033648 29 18041286461134142416
23419403 2 17172599797238031092
23558518 356 18340204197529148285
23559900 14 18271231820576847014
2748010 2 18335410300850978486
335352 9 17829892392593192932
3380486 145 18123746461642257763
350125 39 18263078976232229508
392239 28 18197482134099250539
4340502 62 18200590419243343385
469060 322 17829617162420361098
5104073 3 18335702783876608179
9709674 26 18409729577754934606
9981440 41 18263385641118414826

> <PUBCHEM_SHAPE_MULTIPOLES>
535.14
7.62
3.47
1.61
3.79
0.21
0.06
2.45
1.66
-0.02
0.69
-0.52
-0.71
1.48

> <PUBCHEM_SHAPE_SELFOVERLAP>
1150.266

> <PUBCHEM_SHAPE_VOLUME>
287.7

> <PUBCHEM_COORDINATE_TYPE>
2
5
10

$$$$

