442952
  -OEChem-07051213002D

 62 67  0     1  0  0  0  0  0999 V2000
    2.0000    1.2094    0.0000 O   0  0  0  0  0  0  0  0  0  0  0  0
    5.0447   -2.0831    0.0000 O   0  0  0  0  0  0  0  0  0  0  0  0
    3.7608    1.3913    0.0000 N   0  0  0  0  0  0  0  0  0  0  0  0
    8.6914    1.8124    0.0000 N   0  0  3  0  0  0  0  0  0  0  0  0
    6.8034   -1.8814    0.0000 N   0  0  0  0  0  0  0  0  0  0  0  0
   11.7088   -1.2303    0.0000 N   0  0  3  0  0  0  0  0  0  0  0  0
    6.2095    2.2277    0.0000 C   0  0  1  0  0  0  0  0  0  0  0  0
    6.4683    3.1937    0.0000 C   0  0  1  0  0  0  0  0  0  0  0  0
    5.7317    4.1763    0.0000 C   0  0  0  0  0  0  0  0  0  0  0  0
    9.8356   -3.0580    0.0000 C   0  0  2  0  0  0  0  0  0  0  0  0
    4.6744    0.9846    0.0000 C   0  0  0  0  0  0  0  0  0  0  0  0
    9.3747   -2.1706    0.0000 C   0  0  2  0  0  0  0  0  0  0  0  0
    3.8654    2.3858    0.0000 C   0  0  0  0  0  0  0  0  0  0  0  0
    9.3280   -4.1763    0.0000 C   0  0  0  0  0  0  0  0  0  0  0  0
    7.9142    1.1831    0.0000 C   0  0  0  0  0  0  0  0  0  0  0  0
    8.3330    2.7460    0.0000 C   0  0  0  0  0  0  0  0  0  0  0  0
    7.1197   -2.8300    0.0000 C   0  0  0  0  0  0  0  0  0  0  0  0
   11.5600   -2.2192    0.0000 C   0  0  0  0  0  0  0  0  0  0  0  0
    7.6078   -1.2874    0.0000 C   0  0  0  0  0  0  0  0  0  0  0  0
    4.7992   -0.0495    0.0000 C   0  0  0  0  0  0  0  0  0  0  0  0
   10.8143   -0.7832    0.0000 C   0  0  0  0  0  0  0  0  0  0  0  0
    5.7174   -0.4457    0.0000 C   0  0  0  0  0  0  0  0  0  0  0  0
    3.9612   -0.6683    0.0000 C   0  0  0  0  0  0  0  0  0  0  0  0
    2.9088    0.7921    0.0000 C   0  0  0  0  0  0  0  0  0  0  0  0
    5.8422   -1.4798    0.0000 C   0  0  0  0  0  0  0  0  0  0  0  0
    3.0097   -0.2446    0.0000 C   0  0  0  0  0  0  0  0  0  0  0  0
    7.5069   -0.2506    0.0000 C   0  0  0  0  0  0  0  0  0  0  0  0
    6.5553    0.1731    0.0000 C   0  0  0  0  0  0  0  0  0  0  0  0
    9.6573    1.5536    0.0000 C   0  0  0  0  0  0  0  0  0  0  0  0
   12.5963   -0.7694    0.0000 C   0  0  0  0  0  0  0  0  0  0  0  0
    5.9895    1.4067    0.0000 H   0  0  0  0  0  0  0  0  0  0  0  0
    6.6883    4.0147    0.0000 H   0  0  0  0  0  0  0  0  0  0  0  0
    6.0495    4.7086    0.0000 H   0  0  0  0  0  0  0  0  0  0  0  0
    5.1186    4.2682    0.0000 H   0  0  0  0  0  0  0  0  0  0  0  0
   10.2273   -3.8124    0.0000 H   0  0  0  0  0  0  0  0  0  0  0  0
    8.9830   -1.4162    0.0000 H   0  0  0  0  0  0  0  0  0  0  0  0
    3.7631    2.9974    0.0000 H   0  0  0  0  0  0  0  0  0  0  0  0
    3.2456    2.3670    0.0000 H   0  0  0  0  0  0  0  0  0  0  0  0
    8.7490   -4.3982    0.0000 H   0  0  0  0  0  0  0  0  0  0  0  0
    9.7530   -4.6277    0.0000 H   0  0  0  0  0  0  0  0  0  0  0  0
    7.5325    0.6945    0.0000 H   0  0  0  0  0  0  0  0  0  0  0  0
    8.3564    0.7485    0.0000 H   0  0  0  0  0  0  0  0  0  0  0  0
    8.9445    2.8483    0.0000 H   0  0  0  0  0  0  0  0  0  0  0  0
    8.3546    3.3656    0.0000 H   0  0  0  0  0  0  0  0  0  0  0  0
    6.5105   -2.9451    0.0000 H   0  0  0  0  0  0  0  0  0  0  0  0
    7.1516   -3.4492    0.0000 H   0  0  0  0  0  0  0  0  0  0  0  0
   11.7146   -2.8196    0.0000 H   0  0  0  0  0  0  0  0  0  0  0  0
   12.1792   -2.1873    0.0000 H   0  0  0  0  0  0  0  0  0  0  0  0
   11.1525   -0.2635    0.0000 H   0  0  0  0  0  0  0  0  0  0  0  0
   10.3363   -0.3883    0.0000 H   0  0  0  0  0  0  0  0  0  0  0  0
    3.6159   -1.1832    0.0000 H   0  0  0  0  0  0  0  0  0  0  0  0
    4.4094   -1.0967    0.0000 H   0  0  0  0  0  0  0  0  0  0  0  0
    2.3914   -0.1982    0.0000 H   0  0  0  0  0  0  0  0  0  0  0  0
    2.8581   -0.8458    0.0000 H   0  0  0  0  0  0  0  0  0  0  0  0
    8.0099    0.1119    0.0000 H   0  0  0  0  0  0  0  0  0  0  0  0
    6.4882    0.7894    0.0000 H   0  0  0  0  0  0  0  0  0  0  0  0
    9.4968    0.9547    0.0000 H   0  0  0  0  0  0  0  0  0  0  0  0
   10.2562    1.3931    0.0000 H   0  0  0  0  0  0  0  0  0  0  0  0
    9.8178    2.1525    0.0000 H   0  0  0  0  0  0  0  0  0  0  0  0
   12.8820   -1.3197    0.0000 H   0  0  0  0  0  0  0  0  0  0  0  0
   13.1465   -0.4837    0.0000 H   0  0  0  0  0  0  0  0  0  0  0  0
   12.3106   -0.2192    0.0000 H   0  0  0  0  0  0  0  0  0  0  0  0
  1 24  2  0  0  0  0
  2 25  2  0  0  0  0
  3 11  1  0  0  0  0
  3 13  1  0  0  0  0
  3 24  1  0  0  0  0
  4 15  1  0  0  0  0
  4 16  1  0  0  0  0
  4 29  1  0  0  0  0
  5 17  1  0  0  0  0
  5 19  1  0  0  0  0
  5 25  1  0  0  0  0
  6 18  1  0  0  0  0
  6 21  1  0  0  0  0
  6 30  1  0  0  0  0
  7  9  1  0  0  0  0
  7 11  1  0  0  0  0
  7 15  1  0  0  0  0
  7 31  1  1  0  0  0
  8  9  1  0  0  0  0
  8 13  1  0  0  0  0
  8 16  1  0  0  0  0
  8 32  1  1  0  0  0
  9 33  1  0  0  0  0
  9 34  1  0  0  0  0
 10 14  1  0  0  0  0
 10 17  1  0  0  0  0
 10 18  1  0  0  0  0
 10 35  1  1  0  0  0
 11 20  2  0  0  0  0
 12 14  1  0  0  0  0
 12 19  1  0  0  0  0
 12 21  1  0  0  0  0
 12 36  1  1  0  0  0
 13 37  1  0  0  0  0
 13 38  1  0  0  0  0
 14 39  1  0  0  0  0
 14 40  1  0  0  0  0
 15 41  1  0  0  0  0
 15 42  1  0  0  0  0
 16 43  1  0  0  0  0
 16 44  1  0  0  0  0
 17 45  1  0  0  0  0
 17 46  1  0  0  0  0
 18 47  1  0  0  0  0
 18 48  1  0  0  0  0
 19 27  2  0  0  0  0
 20 22  1  0  0  0  0
 20 23  1  0  0  0  0
 21 49  1  0  0  0  0
 21 50  1  0  0  0  0
 22 25  1  0  0  0  0
 22 28  2  0  0  0  0
 23 26  1  0  0  0  0
 23 51  1  0  0  0  0
 23 52  1  0  0  0  0
 24 26  1  0  0  0  0
 26 53  1  0  0  0  0
 26 54  1  0  0  0  0
 27 28  1  0  0  0  0
 27 55  1  0  0  0  0
 28 56  1  0  0  0  0
 29 57  1  0  0  0  0
 29 58  1  0  0  0  0
 29 59  1  0  0  0  0
 30 60  1  0  0  0  0
 30 61  1  0  0  0  0
 30 62  1  0  0  0  0
M  END
> <PUBCHEM_COMPOUND_CID>
442952

> <PUBCHEM_COMPOUND_CANONICALIZED>
1

> <PUBCHEM_CACTVS_COMPLEXITY>
903

> <PUBCHEM_CACTVS_HBOND_ACCEPTOR>
4

> <PUBCHEM_CACTVS_HBOND_DONOR>
0

> <PUBCHEM_CACTVS_ROTATABLE_BOND>
1

> <PUBCHEM_CACTVS_SUBSKEYS>
AAADcfB7sAAAAAAAAAAAAAAAAAAAAAAAAAAsWLFiAAAWLACAAAAAHgAAAAAADQjBgAQCAAMAAACIAiVSUACAAAAgAgAACAEIAEgIABIAwQAEAAAAhgCIgYMYCAAMAAAAAAAAAAAAAAAAAAAAAAAAAAAAAA==

> <PUBCHEM_IUPAC_INCHI>
InChI=1S/C24H32N4O2/c1-25-9-15-7-17(13-25)21-5-3-20(24(30)27(21)11-15)19-4-6-22(29)28-12-16-8-18(23(19)28)14-26(2)10-16/h3,5,15-18H,4,6-14H2,1-2H3/t15-,16+,17-,18+/m0/s1

> <PUBCHEM_IUPAC_INCHIKEY>
IHFWMWVUSYTWDE-XWTMOSNGSA-N

> <PUBCHEM_XLOGP3_AA>
0.3

> <PUBCHEM_EXACT_MASS>
408.252526

> <PUBCHEM_MOLECULAR_FORMULA>
C24H32N4O2

> <PUBCHEM_MOLECULAR_WEIGHT>
408.53648

> <PUBCHEM_OPENEYE_CAN_SMILES>
CN1CC2CC(C1)C3=C(CCC(=O)N3C2)C4=CC=C5C6CC(CN(C6)C)CN5C4=O

> <PUBCHEM_OPENEYE_ISO_SMILES>
CN1C[C@H]2C[C@H](C1)C3=C(CCC(=O)N3C2)C4=CC=C5[C@H]6C[C@@H](CN(C6)C)CN5C4=O

> <PUBCHEM_CACTVS_TPSA>
47.1

> <PUBCHEM_MONOISOTOPIC_WEIGHT>
408.252526

> <PUBCHEM_TOTAL_CHARGE>
0

> <PUBCHEM_HEAVY_ATOM_COUNT>
30

> <PUBCHEM_ATOM_DEF_STEREO_COUNT>
4

> <PUBCHEM_ATOM_UDEF_STEREO_COUNT>
0

> <PUBCHEM_BOND_DEF_STEREO_COUNT>
0

> <PUBCHEM_BOND_UDEF_STEREO_COUNT>
0

> <PUBCHEM_ISOTOPIC_ATOM_COUNT>
0

> <PUBCHEM_COMPONENT_COUNT>
1

> <PUBCHEM_CACTVS_TAUTO_COUNT>
6

> <PUBCHEM_COORDINATE_TYPE>
1
5
255

> <PUBCHEM_BONDANNOTATIONS>
10  35  5
12  36  5
19  27  8
22  25  8
22  28  8
27  28  8
5  19  8
5  25  8
7  31  5
8  32  5

$$$$

