440303
  -OEChem-07051212493D

 20 19  0     1  0  0  0  0  0999 V2000
   -0.6056   -1.9477   -0.3911 O   0  0  0  0  0  0  0  0  0  0  0  0
   -2.9371   -0.7933   -0.8544 O   0  0  0  0  0  0  0  0  0  0  0  0
   -3.9653    1.4173    0.2434 O   0  0  0  0  0  0  0  0  0  0  0  0
    1.9292   -1.3272    0.6851 O   0  0  0  0  0  0  0  0  0  0  0  0
    3.9549    0.0852    0.1662 O   0  0  0  0  0  0  0  0  0  0  0  0
    2.6183    1.7460   -0.6814 O   0  0  0  0  0  0  0  0  0  0  0  0
   -0.8234   -0.7286    0.3041 C   0  0  1  0  0  0  0  0  0  0  0  0
    0.2571    0.2660   -0.1122 C   0  0  0  0  0  0  0  0  0  0  0  0
   -2.2103   -0.2063   -0.0525 C   0  0  0  0  0  0  0  0  0  0  0  0
    1.6487   -0.2438    0.1948 C   0  0  0  0  0  0  0  0  0  0  0  0
   -2.6583    1.0636    0.6467 C   0  0  0  0  0  0  0  0  0  0  0  0
    2.7917    0.6688   -0.1487 C   0  0  0  0  0  0  0  0  0  0  0  0
   -0.7831   -0.9363    1.3788 H   0  0  0  0  0  0  0  0  0  0  0  0
    0.2032    0.4458   -1.1926 H   0  0  0  0  0  0  0  0  0  0  0  0
    0.1306    1.2181    0.4121 H   0  0  0  0  0  0  0  0  0  0  0  0
   -2.6628    0.8932    1.7265 H   0  0  0  0  0  0  0  0  0  0  0  0
   -1.9904    1.8928    0.4047 H   0  0  0  0  0  0  0  0  0  0  0  0
   -1.2416   -2.5978   -0.0468 H   0  0  0  0  0  0  0  0  0  0  0  0
   -3.9289    1.6419   -0.7022 H   0  0  0  0  0  0  0  0  0  0  0  0
    4.7266    0.6440   -0.0672 H   0  0  0  0  0  0  0  0  0  0  0  0
  1  7  1  0  0  0  0
  1 18  1  0  0  0  0
  2  9  2  0  0  0  0
  3 11  1  0  0  0  0
  3 19  1  0  0  0  0
  4 10  2  0  0  0  0
  5 12  1  0  0  0  0
  5 20  1  0  0  0  0
  6 12  2  0  0  0  0
  7  8  1  0  0  0  0
  7  9  1  0  0  0  0
  7 13  1  0  0  0  0
  8 10  1  0  0  0  0
  8 14  1  0  0  0  0
  8 15  1  0  0  0  0
  9 11  1  0  0  0  0
 10 12  1  0  0  0  0
 11 16  1  0  0  0  0
 11 17  1  0  0  0  0
M  END
> <PUBCHEM_COMPOUND_CID>
440303

> <PUBCHEM_CONFORMER_RMSD>
0.6

> <PUBCHEM_CONFORMER_DIVERSEORDER>
1
73
66
65
85
61
21
27
16
83
25
29
24
78
49
7
64
44
10
3
80
82
26
28
6
70
54
36
4
41
47
8
71
86
13
17
5
45
14
67
76
51
63
11
19
56
62
33
9
79
2
75
52
53
46
37
20
12
34
31
23
87
18
22
81
38
58
60
74
35
39
57
32
69
77
30
42
84
15
59
48
72
43
68
50
40
55

> <PUBCHEM_MMFF94_PARTIAL_CHARGES>
15
1 -0.68
10 0.51
11 0.34
12 0.72
18 0.4
19 0.4
2 -0.57
20 0.5
3 -0.68
4 -0.57
5 -0.65
6 -0.57
7 0.34
8 0.06
9 0.45

> <PUBCHEM_EFFECTIVE_ROTOR_COUNT>
5

> <PUBCHEM_PHARMACOPHORE_FEATURES>
9
1 1 acceptor
1 1 donor
1 2 acceptor
1 3 acceptor
1 3 donor
1 4 acceptor
1 5 acceptor
1 6 acceptor
3 5 6 12 anion

> <PUBCHEM_HEAVY_ATOM_COUNT>
12

> <PUBCHEM_ATOM_DEF_STEREO_COUNT>
1

> <PUBCHEM_ATOM_UDEF_STEREO_COUNT>
0

> <PUBCHEM_BOND_DEF_STEREO_COUNT>
0

> <PUBCHEM_BOND_UDEF_STEREO_COUNT>
0

> <PUBCHEM_ISOTOPIC_ATOM_COUNT>
0

> <PUBCHEM_COMPONENT_COUNT>
1

> <PUBCHEM_CACTVS_TAUTO_COUNT>
32

> <PUBCHEM_CONFORMER_ID>
0006B7EF00000001

> <PUBCHEM_MMFF94_ENERGY>
8.7498

> <PUBCHEM_FEATURE_SELFOVERLAP>
45.76

> <PUBCHEM_SHAPE_FINGERPRINT>
10149128 111 18408598184437162441
10857977 72 14045739318239684983
12162725 195 18410856525343484740
14144814 61 18341897385248053560
14325111 11 18409166619047808019
14390081 3 18336547122917774240
14897335 6 18334859463127285663
15775835 57 18410290337148362985
18186145 218 18411701023240490679
20279233 1 15285359522141054860
20645464 45 16630526237013092795
20653085 51 18337941342316447947
20711983 171 18333167271460848693
23402539 116 18113345205906820028
3248919 1 18342746186644566522

> <PUBCHEM_SHAPE_MULTIPOLES>
211.74
6.36
1.57
0.75
0
0.08
-0.01
-2.52
0.01
0.25
-0.11
0.11
0.01
-0.77

> <PUBCHEM_SHAPE_SELFOVERLAP>
414.039

> <PUBCHEM_SHAPE_VOLUME>
125.3

> <PUBCHEM_COORDINATE_TYPE>
2
5
10

$$$$

