441858
  -OEChem-07051212562D

 78 85  0     1  0  0  0  0  0999 V2000
    2.7168   -1.5492    0.0000 O   0  0  0  0  0  0  0  0  0  0  0  0
    2.5810   -2.2563    0.0000 O   0  0  0  0  0  0  0  0  0  0  0  0
    6.2194   -0.5456    0.0000 O   0  0  0  0  0  0  0  0  0  0  0  0
    6.3151    2.5277    0.0000 O   0  0  0  0  0  0  0  0  0  0  0  0
    4.4484    3.6054    0.0000 O   0  0  0  0  0  0  0  0  0  0  0  0
    6.2351   -2.5938    0.0000 O   0  0  0  0  0  0  0  0  0  0  0  0
    6.2950   -5.2002    0.0000 O   0  0  0  0  0  0  0  0  0  0  0  0
    5.3664    5.2851    0.0000 O   0  0  0  0  0  0  0  0  0  0  0  0
    7.1895    3.1126    0.0000 O   0  0  0  0  0  0  0  0  0  0  0  0
    8.1710    3.6526    0.0000 O   0  0  0  0  0  0  0  0  0  0  0  0
    5.6408   -6.8578    0.0000 O   0  0  0  0  0  0  0  0  0  0  0  0
    3.5831   -1.0487    0.0000 C   0  0  1  0  0  0  0  0  0  0  0  0
    4.4492   -0.5487    0.0000 C   0  0  1  0  0  0  0  0  0  0  0  0
    3.5671   -2.0902    0.0000 C   0  0  1  0  0  0  0  0  0  0  0  0
    2.7171   -0.5487    0.0000 C   0  0  2  0  0  0  0  0  0  0  0  0
    4.4492    0.4513    0.0000 C   0  0  2  0  0  0  0  0  0  0  0  0
    4.4651   -2.6180    0.0000 C   0  0  1  0  0  0  0  0  0  0  0  0
    3.5831    0.9513    0.0000 C   0  0  1  0  0  0  0  0  0  0  0  0
    2.7171    0.4513    0.0000 C   0  0  0  0  0  0  0  0  0  0  0  0
    5.3592   -1.0556    0.0000 C   0  0  1  0  0  0  0  0  0  0  0  0
    2.7940   -2.7792    0.0000 C   0  0  0  0  0  0  0  0  0  0  0  0
    4.2394   -3.6286    0.0000 C   0  0  2  0  0  0  0  0  0  0  0  0
    5.3592    0.9581    0.0000 C   0  0  0  0  0  0  0  0  0  0  0  0
    5.3672   -2.0972    0.0000 C   0  0  0  0  0  0  0  0  0  0  0  0
    3.2087   -3.7280    0.0000 C   0  0  0  0  0  0  0  0  0  0  0  0
    3.5671    1.9928    0.0000 C   0  0  0  0  0  0  0  0  0  0  0  0
    5.3152   -0.0487    0.0000 C   0  0  0  0  0  0  0  0  0  0  0  0
    5.3672    1.9997    0.0000 C   0  0  2  0  0  0  0  0  0  0  0  0
    4.4651    2.5205    0.0000 C   0  0  2  0  0  0  0  0  0  0  0  0
    5.3273   -3.1247    0.0000 C   0  0  0  0  0  0  0  0  0  0  0  0
    4.9015   -4.3780    0.0000 C   0  0  0  0  0  0  0  0  0  0  0  0
    6.3234    3.6126    0.0000 C   0  0  2  0  0  0  0  0  0  0  0  0
    5.3838    4.1551    0.0000 C   0  0  2  0  0  0  0  0  0  0  0  0
    5.8970   -4.2828    0.0000 C   0  0  0  0  0  0  0  0  0  0  0  0
    4.6844   -5.3541    0.0000 C   0  0  0  0  0  0  0  0  0  0  0  0
    7.3108    4.1625    0.0000 C   0  0  1  0  0  0  0  0  0  0  0  0
    5.5456   -5.8623    0.0000 C   0  0  0  0  0  0  0  0  0  0  0  0
    7.3195    5.2927    0.0000 C   0  0  0  0  0  0  0  0  0  0  0  0
    6.3408    5.8578    0.0000 C   0  0  1  0  0  0  0  0  0  0  0  0
    6.3369    6.8578    0.0000 C   0  0  0  0  0  0  0  0  0  0  0  0
    5.1820   -0.1181    0.0000 H   0  0  0  0  0  0  0  0  0  0  0  0
    1.8671   -0.5486    0.0000 H   0  0  0  0  0  0  0  0  0  0  0  0
    2.8438    1.3706    0.0000 H   0  0  0  0  0  0  0  0  0  0  0  0
    2.5051    1.0339    0.0000 H   0  0  0  0  0  0  0  0  0  0  0  0
    2.1065    0.3436    0.0000 H   0  0  0  0  0  0  0  0  0  0  0  0
    5.3508   -0.4356    0.0000 H   0  0  0  0  0  0  0  0  0  0  0  0
    2.4325   -2.2755    0.0000 H   0  0  0  0  0  0  0  0  0  0  0  0
    2.2552   -3.0858    0.0000 H   0  0  0  0  0  0  0  0  0  0  0  0
    4.0120   -4.2054    0.0000 H   0  0  0  0  0  0  0  0  0  0  0  0
    5.5637    0.3728    0.0000 H   0  0  0  0  0  0  0  0  0  0  0  0
    5.9708    1.0595    0.0000 H   0  0  0  0  0  0  0  0  0  0  0  0
    2.6177   -3.9152    0.0000 H   0  0  0  0  0  0  0  0  0  0  0  0
    3.3328   -4.3354    0.0000 H   0  0  0  0  0  0  0  0  0  0  0  0
    3.3490    2.5732    0.0000 H   0  0  0  0  0  0  0  0  0  0  0  0
    2.9579    1.8773    0.0000 H   0  0  0  0  0  0  0  0  0  0  0  0
    5.0052   -0.5857    0.0000 H   0  0  0  0  0  0  0  0  0  0  0  0
    5.8521   -0.3587    0.0000 H   0  0  0  0  0  0  0  0  0  0  0  0
    5.6252    0.4882    0.0000 H   0  0  0  0  0  0  0  0  0  0  0  0
    6.0984    1.5662    0.0000 H   0  0  0  0  0  0  0  0  0  0  0  0
    3.7241    2.9370    0.0000 H   0  0  0  0  0  0  0  0  0  0  0  0
    5.0131   -3.6592    0.0000 H   0  0  0  0  0  0  0  0  0  0  0  0
    5.8618   -3.4388    0.0000 H   0  0  0  0  0  0  0  0  0  0  0  0
    5.6414   -2.5901    0.0000 H   0  0  0  0  0  0  0  0  0  0  0  0
    2.0000   -2.0398    0.0000 H   0  0  0  0  0  0  0  0  0  0  0  0
    6.7598   -0.8494    0.0000 H   0  0  0  0  0  0  0  0  0  0  0  0
    4.6428    4.5716    0.0000 H   0  0  0  0  0  0  0  0  0  0  0  0
    6.4884   -4.0968    0.0000 H   0  0  0  0  0  0  0  0  0  0  0  0
    5.7738   -3.6752    0.0000 H   0  0  0  0  0  0  0  0  0  0  0  0
    4.1156   -5.6010    0.0000 H   0  0  0  0  0  0  0  0  0  0  0  0
    7.3024    3.5426    0.0000 H   0  0  0  0  0  0  0  0  0  0  0  0
    7.9295    5.1819    0.0000 H   0  0  0  0  0  0  0  0  0  0  0  0
    7.5330    5.8747    0.0000 H   0  0  0  0  0  0  0  0  0  0  0  0
    5.8020    6.1646    0.0000 H   0  0  0  0  0  0  0  0  0  0  0  0
    7.1895    2.4926    0.0000 H   0  0  0  0  0  0  0  0  0  0  0  0
    8.7115    3.9563    0.0000 H   0  0  0  0  0  0  0  0  0  0  0  0
    6.9569    6.8601    0.0000 H   0  0  0  0  0  0  0  0  0  0  0  0
    6.3345    7.4777    0.0000 H   0  0  0  0  0  0  0  0  0  0  0  0
    5.7169    6.8554    0.0000 H   0  0  0  0  0  0  0  0  0  0  0  0
 12  1  1  1  0  0  0
  1 15  1  0  0  0  0
 14  2  1  1  0  0  0
  2 64  1  0  0  0  0
 20  3  1  6  0  0  0
  3 65  1  0  0  0  0
  4 28  1  0  0  0  0
  4 32  1  0  0  0  0
  5 29  1  0  0  0  0
  5 33  1  0  0  0  0
  6 24  2  0  0  0  0
  7 34  1  0  0  0  0
  7 37  1  0  0  0  0
  8 33  1  0  0  0  0
  8 39  1  0  0  0  0
 32  9  1  1  0  0  0
  9 74  1  0  0  0  0
 36 10  1  1  0  0  0
 10 75  1  0  0  0  0
 11 37  2  0  0  0  0
 12 13  1  0  0  0  0
 12 14  1  0  0  0  0
 12 15  1  0  0  0  0
 13 16  1  0  0  0  0
 13 20  1  0  0  0  0
 13 41  1  6  0  0  0
 14 17  1  0  0  0  0
 14 21  1  0  0  0  0
 15 19  1  0  0  0  0
 15 42  1  6  0  0  0
 16 18  1  0  0  0  0
 16 23  1  0  0  0  0
 16 27  1  1  0  0  0
 17 22  1  0  0  0  0
 17 24  1  0  0  0  0
 17 30  1  1  0  0  0
 18 19  1  0  0  0  0
 18 26  1  0  0  0  0
 18 43  1  6  0  0  0
 19 44  1  0  0  0  0
 19 45  1  0  0  0  0
 20 24  1  0  0  0  0
 20 46  1  0  0  0  0
 21 25  1  0  0  0  0
 21 47  1  0  0  0  0
 21 48  1  0  0  0  0
 22 25  1  0  0  0  0
 22 31  1  1  0  0  0
 22 49  1  0  0  0  0
 23 28  1  0  0  0  0
 23 50  1  0  0  0  0
 23 51  1  0  0  0  0
 25 52  1  0  0  0  0
 25 53  1  0  0  0  0
 26 29  1  0  0  0  0
 26 54  1  0  0  0  0
 26 55  1  0  0  0  0
 27 56  1  0  0  0  0
 27 57  1  0  0  0  0
 27 58  1  0  0  0  0
 28 29  1  0  0  0  0
 28 59  1  1  0  0  0
 29 60  1  6  0  0  0
 30 61  1  0  0  0  0
 30 62  1  0  0  0  0
 30 63  1  0  0  0  0
 31 34  1  0  0  0  0
 31 35  2  0  0  0  0
 32 33  1  0  0  0  0
 32 36  1  0  0  0  0
 33 66  1  1  0  0  0
 34 67  1  0  0  0  0
 34 68  1  0  0  0  0
 35 37  1  0  0  0  0
 35 69  1  0  0  0  0
 36 38  1  0  0  0  0
 36 70  1  0  0  0  0
 38 39  1  0  0  0  0
 38 71  1  0  0  0  0
 38 72  1  0  0  0  0
 39 40  1  6  0  0  0
 39 73  1  0  0  0  0
 40 76  1  0  0  0  0
 40 77  1  0  0  0  0
 40 78  1  0  0  0  0
M  END
> <PUBCHEM_COMPOUND_CID>
441858

> <PUBCHEM_COMPOUND_CANONICALIZED>
1

> <PUBCHEM_CACTVS_COMPLEXITY>
1220

> <PUBCHEM_CACTVS_HBOND_ACCEPTOR>
11

> <PUBCHEM_CACTVS_HBOND_DONOR>
4

> <PUBCHEM_CACTVS_ROTATABLE_BOND>
1

> <PUBCHEM_CACTVS_SUBSKEYS>
AAADcfB4PAAAAAAAAAAAAAAAEgAAAYIAAAA0aMECBIAAAGDQAAAAGgAACAAAD1SwgAMCCAAABgCIAqDSCAIAAAAgAAAACAFAAEgRFBYAIQAiUAAFoAAPIQPK7PzPgAAAAAAAAADCAAYQADCAAYAADAAAAA==

> <PUBCHEM_IUPAC_INCHI>
InChI=1S/C29H38O11/c1-12-6-18(30)29(35)24(37-12)38-16-8-14-9-19-28(40-19)22(25(14,2)10-17(16)39-29)21(32)23(33)26(3)15(4-5-27(26,28)34)13-7-20(31)36-11-13/h7,12,14-19,21-22,24,30,32,34-35H,4-6,8-11H2,1-3H3/t12-,14-,15-,16-,17-,18-,19+,21+,22-,24+,25+,26+,27-,28+,29+/m1/s1

> <PUBCHEM_IUPAC_INCHIKEY>
FKJNCBGJYUAKQQ-MBVMSADQSA-N

> <PUBCHEM_XLOGP3_AA>
-1

> <PUBCHEM_EXACT_MASS>
562.241412

> <PUBCHEM_MOLECULAR_FORMULA>
C29H38O11

> <PUBCHEM_MOLECULAR_WEIGHT>
562.60542

> <PUBCHEM_OPENEYE_CAN_SMILES>
CC1CC(C2(C(O1)OC3CC4CC5C6(O5)C(C4(CC3O2)C)C(C(=O)C7(C6(CCC7C8=CC(=O)OC8)O)C)O)O)O

> <PUBCHEM_OPENEYE_ISO_SMILES>
C[C@@H]1C[C@H]([C@]2([C@@H](O1)O[C@@H]3C[C@@H]4C[C@H]5[C@]6(O5)[C@@H]([C@]4(C[C@H]3O2)C)[C@@H](C(=O)[C@]7([C@@]6(CC[C@@H]7C8=CC(=O)OC8)O)C)O)O)O

> <PUBCHEM_CACTVS_TPSA>
165

> <PUBCHEM_MONOISOTOPIC_WEIGHT>
562.241412

> <PUBCHEM_TOTAL_CHARGE>
0

> <PUBCHEM_HEAVY_ATOM_COUNT>
40

> <PUBCHEM_ATOM_DEF_STEREO_COUNT>
15

> <PUBCHEM_ATOM_UDEF_STEREO_COUNT>
0

> <PUBCHEM_BOND_DEF_STEREO_COUNT>
0

> <PUBCHEM_BOND_UDEF_STEREO_COUNT>
0

> <PUBCHEM_ISOTOPIC_ATOM_COUNT>
0

> <PUBCHEM_COMPONENT_COUNT>
1

> <PUBCHEM_CACTVS_TAUTO_COUNT>
4

> <PUBCHEM_COORDINATE_TYPE>
1
5
255

> <PUBCHEM_BONDANNOTATIONS>
12  1  5
36  10  5
13  41  6
15  42  6
16  27  5
17  30  5
18  43  6
14  2  5
22  31  5
28  59  5
29  60  6
20  3  6
33  66  5
39  40  6
32  9  5

$$$$

