6197
  -OEChem-07051212523D

 43 44  0     1  0  0  0  0  0999 V2000
   -0.4952    0.9739   -1.8441 O   0  0  0  0  0  0  0  0  0  0  0  0
   -2.4809    2.1301   -0.2271 O   0  0  0  0  0  0  0  0  0  0  0  0
    4.5406   -2.1770    0.3560 O   0  0  0  0  0  0  0  0  0  0  0  0
    3.3241    2.0439    1.7412 O   0  0  0  0  0  0  0  0  0  0  0  0
    3.9111   -0.0645    1.0236 N   0  0  0  0  0  0  0  0  0  0  0  0
   -1.4294   -0.0171    0.1297 C   0  0  1  0  0  0  0  0  0  0  0  0
   -3.1221   -1.9339   -0.0625 C   0  0  2  0  0  0  0  0  0  0  0  0
   -1.8220   -1.3102   -0.5933 C   0  0  0  0  0  0  0  0  0  0  0  0
   -0.1844    0.5948   -0.5076 C   0  0  1  0  0  0  0  0  0  0  0  0
   -3.9298    0.3979    0.6352 C   0  0  1  0  0  0  0  0  0  0  0  0
   -4.2627   -0.9050   -0.0999 C   0  0  0  0  0  0  0  0  0  0  0  0
   -2.6075    0.9540    0.1117 C   0  0  0  0  0  0  0  0  0  0  0  0
    0.9732   -0.4036   -0.5222 C   0  0  0  0  0  0  0  0  0  0  0  0
    2.2255    0.1751   -1.1863 C   0  0  0  0  0  0  0  0  0  0  0  0
   -2.9419   -2.5437    1.3293 C   0  0  0  0  0  0  0  0  0  0  0  0
   -5.0664    1.4051    0.4796 C   0  0  0  0  0  0  0  0  0  0  0  0
    3.3653   -0.8370   -1.2430 C   0  0  0  0  0  0  0  0  0  0  0  0
    2.7077    1.4459   -0.4941 C   0  0  0  0  0  0  0  0  0  0  0  0
    3.9775   -1.1103    0.1108 C   0  0  0  0  0  0  0  0  0  0  0  0
    3.3172    1.1816    0.8629 C   0  0  0  0  0  0  0  0  0  0  0  0
   -1.2102   -0.2291    1.1834 H   0  0  0  0  0  0  0  0  0  0  0  0
   -1.9655   -1.1233   -1.6646 H   0  0  0  0  0  0  0  0  0  0  0  0
   -1.0436   -2.0736   -0.5010 H   0  0  0  0  0  0  0  0  0  0  0  0
   -3.3960   -2.7576   -0.7352 H   0  0  0  0  0  0  0  0  0  0  0  0
    0.0682    1.5021    0.0474 H   0  0  0  0  0  0  0  0  0  0  0  0
   -3.7942    0.2044    1.7058 H   0  0  0  0  0  0  0  0  0  0  0  0
   -5.1742   -1.3477    0.3207 H   0  0  0  0  0  0  0  0  0  0  0  0
   -4.4840   -0.6786   -1.1521 H   0  0  0  0  0  0  0  0  0  0  0  0
    1.1825   -0.7401    0.4997 H   0  0  0  0  0  0  0  0  0  0  0  0
    0.7193   -1.2909   -1.1113 H   0  0  0  0  0  0  0  0  0  0  0  0
    1.9747    0.4329   -2.2237 H   0  0  0  0  0  0  0  0  0  0  0  0
   -2.1602   -3.3108    1.3145 H   0  0  0  0  0  0  0  0  0  0  0  0
   -2.6645   -1.8003    2.0818 H   0  0  0  0  0  0  0  0  0  0  0  0
   -3.8694   -3.0229    1.6607 H   0  0  0  0  0  0  0  0  0  0  0  0
   -4.8483    2.3270    1.0296 H   0  0  0  0  0  0  0  0  0  0  0  0
   -5.2193    1.6758   -0.5710 H   0  0  0  0  0  0  0  0  0  0  0  0
   -6.0052    0.9968    0.8679 H   0  0  0  0  0  0  0  0  0  0  0  0
    4.1678   -0.4636   -1.8908 H   0  0  0  0  0  0  0  0  0  0  0  0
    3.0142   -1.7854   -1.6654 H   0  0  0  0  0  0  0  0  0  0  0  0
    1.9321    2.2091   -0.4022 H   0  0  0  0  0  0  0  0  0  0  0  0
    3.5032    1.8998   -1.1005 H   0  0  0  0  0  0  0  0  0  0  0  0
   -0.4742    0.1842   -2.4097 H   0  0  0  0  0  0  0  0  0  0  0  0
    4.3385   -0.2385    1.9292 H   0  0  0  0  0  0  0  0  0  0  0  0
  1  9  1  0  0  0  0
  1 42  1  0  0  0  0
  2 12  2  0  0  0  0
  3 19  2  0  0  0  0
  4 20  2  0  0  0  0
  5 19  1  0  0  0  0
  5 20  1  0  0  0  0
  5 43  1  0  0  0  0
  6  8  1  0  0  0  0
  6  9  1  0  0  0  0
  6 12  1  0  0  0  0
  6 21  1  0  0  0  0
  7  8  1  0  0  0  0
  7 11  1  0  0  0  0
  7 15  1  0  0  0  0
  7 24  1  0  0  0  0
  8 22  1  0  0  0  0
  8 23  1  0  0  0  0
  9 13  1  0  0  0  0
  9 25  1  0  0  0  0
 10 11  1  0  0  0  0
 10 12  1  0  0  0  0
 10 16  1  0  0  0  0
 10 26  1  0  0  0  0
 11 27  1  0  0  0  0
 11 28  1  0  0  0  0
 13 14  1  0  0  0  0
 13 29  1  0  0  0  0
 13 30  1  0  0  0  0
 14 17  1  0  0  0  0
 14 18  1  0  0  0  0
 14 31  1  0  0  0  0
 15 32  1  0  0  0  0
 15 33  1  0  0  0  0
 15 34  1  0  0  0  0
 16 35  1  0  0  0  0
 16 36  1  0  0  0  0
 16 37  1  0  0  0  0
 17 19  1  0  0  0  0
 17 38  1  0  0  0  0
 17 39  1  0  0  0  0
 18 20  1  0  0  0  0
 18 40  1  0  0  0  0
 18 41  1  0  0  0  0
M  END
> <PUBCHEM_COMPOUND_CID>
6197

> <PUBCHEM_CONFORMER_RMSD>
0.6

> <PUBCHEM_CONFORMER_DIVERSEORDER>
8
18
20
25
4
2
16
5
9
15
22
7
21
12
14
24
6
10
19
13
3
1
23
17
11

> <PUBCHEM_MMFF94_PARTIAL_CHARGES>
15
1 -0.68
10 0.06
12 0.45
17 0.06
18 0.06
19 0.57
2 -0.57
20 0.57
3 -0.57
4 -0.57
42 0.4
43 0.37
5 -0.49
6 0.06
9 0.28

> <PUBCHEM_EFFECTIVE_ROTOR_COUNT>
4.8

> <PUBCHEM_PHARMACOPHORE_FEATURES>
8
1 1 acceptor
1 1 donor
1 2 acceptor
1 3 acceptor
1 4 acceptor
1 5 donor
6 5 14 17 18 19 20 rings
6 6 7 8 10 11 12 rings

> <PUBCHEM_HEAVY_ATOM_COUNT>
20

> <PUBCHEM_ATOM_DEF_STEREO_COUNT>
4

> <PUBCHEM_ATOM_UDEF_STEREO_COUNT>
0

> <PUBCHEM_BOND_DEF_STEREO_COUNT>
0

> <PUBCHEM_BOND_UDEF_STEREO_COUNT>
0

> <PUBCHEM_ISOTOPIC_ATOM_COUNT>
0

> <PUBCHEM_COMPONENT_COUNT>
1

> <PUBCHEM_CACTVS_TAUTO_COUNT>
6

> <PUBCHEM_CONFORMER_ID>
0000183500000008

> <PUBCHEM_MMFF94_ENERGY>
41.3914

> <PUBCHEM_FEATURE_SELFOVERLAP>
40.598

> <PUBCHEM_SHAPE_FINGERPRINT>
10366900 7 18260541221284359798
11045977 3 18333168375167151848
11132069 177 18411416202959185437
11370993 144 18335139816758888033
11405975 8 18335135401516664211
11543360 7 10231756690676527942
11615757 297 16153700981950413403
12346177 29 18343872121195847983
12507560 40 18187643570218963997
12553582 1 16702304555018424550
12596599 1 17489309633441568971
12633257 1 18188197810031489249
12670546 56 18408610249153147711
12707595 3 15123511393621493012
128620 24 7637397428087878671
12892183 10 18264770956569835511
13004483 165 17389123165196581319
13224815 77 18201156563950721998
13533116 47 18410296908485560867
13583140 156 18041284270342001256
13675066 3 18410571764917265623
14178342 30 18200876175637959451
14251758 9 17775009037432739597
14289901 80 18190178988240186570
14341114 176 18336260219397865648
14420673 8 18196085779786215410
14866123 147 16241788725720461806
15295992 7 17895198817553574833
15375358 24 17822005424215387711
16752209 62 16415213307130532548
17492 89 18128809755352918283
17804303 29 18410846689894685927
1813 80 16988841683157925372
19050596 39 18410011030908356807
20281475 54 18131627855178158886
20681677 76 18187373086063875521
20775530 9 17056986253322011714
21065198 57 18334858311669888016
21065199 12 18335140851898702002
22169311 14 18334859437215057108
22646028 1 18060416919474364703
22646028 28 17988925544018414134
23402539 116 18335704983691108797
23503953 91 18201440255062167405
23559900 14 18336253600731917500
2838139 119 4821274255785914531
3286 77 18409732872147571670
351380 180 17967817188539391769
42 15 18411981390331923118
49207404 50 18113898204579109432
5104073 3 18334007277143966195
5374978 207 18260828163838847099
5924683 9 18187371982885177671
633830 44 16630239251450994301
9709674 26 18335411387694586327
9981440 41 17121122578640364229

> <PUBCHEM_SHAPE_MULTIPOLES>
383.13
10.26
2.31
1.28
0.41
0.53
-0.03
0.86
-2.6
-0.66
-0.62
0.83
-0.17
0.72

> <PUBCHEM_SHAPE_SELFOVERLAP>
787.213

> <PUBCHEM_SHAPE_VOLUME>
217.4

> <PUBCHEM_COORDINATE_TYPE>
2
5
10

$$$$

