5282154
  -OEChem-07051213033D

 36 38  0     0  0  0  0  0  0999 V2000
   -0.7366   -0.8761    0.0000 O   0  0  0  0  0  0  0  0  0  0  0  0
    0.3395    2.6298    0.3716 O   0  0  0  0  0  0  0  0  0  0  0  0
    4.3092   -0.3523   -2.0807 O   0  0  0  0  0  0  0  0  0  0  0  0
   -4.8085    1.7519    0.0263 O   0  0  0  0  0  0  0  0  0  0  0  0
   -2.4327    2.8205    0.2502 O   0  0  0  0  0  0  0  0  0  0  0  0
   -4.9741   -2.9714   -0.4301 O   0  0  0  0  0  0  0  0  0  0  0  0
    4.0664   -0.7641    2.6846 O   0  0  0  0  0  0  0  0  0  0  0  0
    5.5522   -0.8280    0.3482 O   0  0  0  0  0  0  0  0  0  0  0  0
    0.0348    0.2639    0.1614 C   0  0  0  0  0  0  0  0  0  0  0  0
   -2.7403    0.4936    0.0210 C   0  0  0  0  0  0  0  0  0  0  0  0
   -2.0995   -0.7407   -0.0607 C   0  0  0  0  0  0  0  0  0  0  0  0
    1.4797   -0.0220    0.2104 C   0  0  0  0  0  0  0  0  0  0  0  0
   -0.4581    1.5132    0.2443 C   0  0  0  0  0  0  0  0  0  0  0  0
   -1.9265    1.7087    0.1787 C   0  0  0  0  0  0  0  0  0  0  0  0
   -4.1336    0.5711   -0.0481 C   0  0  0  0  0  0  0  0  0  0  0  0
    2.2254   -0.0536   -0.9685 C   0  0  0  0  0  0  0  0  0  0  0  0
    2.1028   -0.2613    1.4354 C   0  0  0  0  0  0  0  0  0  0  0  0
   -2.8490   -1.9074   -0.2129 C   0  0  0  0  0  0  0  0  0  0  0  0
    3.5928   -0.3245   -0.9222 C   0  0  0  0  0  0  0  0  0  0  0  0
   -4.2403   -1.8343   -0.2819 C   0  0  0  0  0  0  0  0  0  0  0  0
   -4.8811   -0.5974   -0.1996 C   0  0  0  0  0  0  0  0  0  0  0  0
    3.4704   -0.5320    1.4817 C   0  0  0  0  0  0  0  0  0  0  0  0
    4.2154   -0.5636    0.3028 C   0  0  0  0  0  0  0  0  0  0  0  0
    4.8916    0.8760   -2.5121 C   0  0  0  0  0  0  0  0  0  0  0  0
    1.7468    0.1306   -1.9281 H   0  0  0  0  0  0  0  0  0  0  0  0
    1.5291   -0.2392    2.3596 H   0  0  0  0  0  0  0  0  0  0  0  0
   -2.3520   -2.8722   -0.2775 H   0  0  0  0  0  0  0  0  0  0  0  0
   -5.9657   -0.5386   -0.2534 H   0  0  0  0  0  0  0  0  0  0  0  0
   -0.2468    3.4054    0.4029 H   0  0  0  0  0  0  0  0  0  0  0  0
   -4.1907    2.4910    0.1345 H   0  0  0  0  0  0  0  0  0  0  0  0
    5.0175   -0.5812    2.6183 H   0  0  0  0  0  0  0  0  0  0  0  0
   -5.9175   -2.7364   -0.4593 H   0  0  0  0  0  0  0  0  0  0  0  0
    5.7613   -1.3167    1.1606 H   0  0  0  0  0  0  0  0  0  0  0  0
    5.5967    1.2525   -1.7643 H   0  0  0  0  0  0  0  0  0  0  0  0
    4.1140    1.6220   -2.7046 H   0  0  0  0  0  0  0  0  0  0  0  0
    5.4351    0.6895   -3.4424 H   0  0  0  0  0  0  0  0  0  0  0  0
  1  9  1  0  0  0  0
  1 11  1  0  0  0  0
  2 13  1  0  0  0  0
  2 29  1  0  0  0  0
  3 19  1  0  0  0  0
  3 24  1  0  0  0  0
  4 15  1  0  0  0  0
  4 30  1  0  0  0  0
  5 14  2  0  0  0  0
  6 20  1  0  0  0  0
  6 32  1  0  0  0  0
  7 22  1  0  0  0  0
  7 31  1  0  0  0  0
  8 23  1  0  0  0  0
  8 33  1  0  0  0  0
  9 12  1  0  0  0  0
  9 13  2  0  0  0  0
 10 11  1  0  0  0  0
 10 14  1  0  0  0  0
 10 15  2  0  0  0  0
 11 18  2  0  0  0  0
 12 16  1  0  0  0  0
 12 17  2  0  0  0  0
 13 14  1  0  0  0  0
 15 21  1  0  0  0  0
 16 19  2  0  0  0  0
 16 25  1  0  0  0  0
 17 22  1  0  0  0  0
 17 26  1  0  0  0  0
 18 20  1  0  0  0  0
 18 27  1  0  0  0  0
 19 23  1  0  0  0  0
 20 21  2  0  0  0  0
 21 28  1  0  0  0  0
 22 23  2  0  0  0  0
 24 34  1  0  0  0  0
 24 35  1  0  0  0  0
 24 36  1  0  0  0  0
M  END
> <PUBCHEM_COMPOUND_CID>
5282154

> <PUBCHEM_CONFORMER_RMSD>
0.6

> <PUBCHEM_CONFORMER_DIVERSEORDER>
1
3
6
2
4
5

> <PUBCHEM_MMFF94_PARTIAL_CHARGES>
33
1 -0.16
10 0.09
11 0.08
12 0.03
13 0.09
14 0.47
15 0.08
16 -0.15
17 -0.15
18 -0.15
19 0.08
2 -0.53
20 0.08
21 -0.15
22 0.08
23 0.08
24 0.28
25 0.15
26 0.15
27 0.15
28 0.15
29 0.45
3 -0.36
30 0.45
31 0.45
32 0.45
33 0.45
4 -0.53
5 -0.57
6 -0.53
7 -0.53
8 -0.53
9 0.05

> <PUBCHEM_EFFECTIVE_ROTOR_COUNT>
2

> <PUBCHEM_PHARMACOPHORE_FEATURES>
11
1 1 acceptor
1 2 donor
1 3 acceptor
1 4 donor
1 5 acceptor
1 6 donor
1 7 donor
1 8 donor
6 1 9 10 11 13 14 rings
6 10 11 15 18 20 21 rings
6 12 16 17 19 22 23 rings

> <PUBCHEM_HEAVY_ATOM_COUNT>
24

> <PUBCHEM_ATOM_DEF_STEREO_COUNT>
0

> <PUBCHEM_ATOM_UDEF_STEREO_COUNT>
0

> <PUBCHEM_BOND_DEF_STEREO_COUNT>
0

> <PUBCHEM_BOND_UDEF_STEREO_COUNT>
0

> <PUBCHEM_ISOTOPIC_ATOM_COUNT>
0

> <PUBCHEM_COMPONENT_COUNT>
1

> <PUBCHEM_CACTVS_TAUTO_COUNT>
435

> <PUBCHEM_CONFORMER_ID>
0050996A00000001

> <PUBCHEM_MMFF94_ENERGY>
83.7366

> <PUBCHEM_FEATURE_SELFOVERLAP>
55.851

> <PUBCHEM_SHAPE_FINGERPRINT>
10319926 262 18116738363884722394
10369192 42 17025172717849163112
10912923 1 17989488515341046971
11370993 144 16298378080887917691
11552529 35 4894118193272738565
11796584 16 18044652251411992134
12236239 1 17989205979881765754
12390115 104 17752756103461789409
12553582 1 18410571760886165971
12616971 3 17561365118671412778
12788726 201 18341886437545682601
12969540 114 14117523116765809347
13140716 1 18335707096788696617
13675066 3 17458632189774784379
13760787 5 17203328918230862607
13782708 43 17458338680780109798
14251757 5 18339911619909289111
14386348 63 17603587443468113990
14790565 3 17831005090240923217
15961568 22 18337399219303984768
16752209 62 18411983576328124923
17138139 8 17773042955486202291
17349148 13 17846504763532617234
17804303 29 18334298656457724673
17844677 252 18260265222396382409
1813 80 18260829250370711845
18222031 100 18114463349456244951
18681886 176 18412825768745428094
200 152 16917072195499884248
20511986 3 18060427906385927452
20871999 31 18337942433238043895
21033648 144 16415191248600766190
21033648 29 16877955961292990739
21033650 10 18124570202278300532
21065201 7 18260268598335648226
21267235 1 18410854331385583163
22182313 1 17530971314740172236
2297311 6 18261105275002236471
23175994 123 16877940534218706905
23366157 5 17984989197917993989
23402539 116 18410580599448722359
23557571 272 18041000691195617896
23559900 14 18188206632284796350
2838139 119 16270258170366899333
3004659 81 18060425733122114314
314173 85 18113334194032445235
335352 9 18409453571120534877
3411729 13 18118413839085451120
34797466 226 17968083180428286036
474 4 16987982905122589700
495365 180 13614250269565578688
5104073 3 18335141939010894201
573450 72 18271534177246447371
602551 16 18334582347416130994
6034566 193 15120372176587580406
6823239 73 18113616777248245256
7471813 234 17418103160889446204
77492 1 17846215605022781616
9709674 26 18122066403874733339

> <PUBCHEM_SHAPE_MULTIPOLES>
446.95
11.96
2.24
1.57
1.86
0.57
-0.08
-3.99
-2.44
-3.45
0.03
3.66
-0.13
-1.53

> <PUBCHEM_SHAPE_SELFOVERLAP>
996.112

> <PUBCHEM_SHAPE_VOLUME>
237.1

> <PUBCHEM_COORDINATE_TYPE>
2
5
10

$$$$

