442471
  -OEChem-07051212582D

 24 25  0     1  0  0  0  0  0999 V2000
    5.5443   -1.3047    0.0000 O   0  0  0  0  0  0  0  0  0  0  0  0
    3.7320    1.5000    0.0000 O   0  0  0  0  0  0  0  0  0  0  0  0
    2.8660   -1.0000    0.0000 C   0  0  1  0  0  0  0  0  0  0  0  0
    3.7320   -1.5000    0.0000 C   0  0  0  0  0  0  0  0  0  0  0  0
    2.8660    0.0000    0.0000 C   0  0  0  0  0  0  0  0  0  0  0  0
    4.5981   -1.0000    0.0000 C   0  0  0  0  0  0  0  0  0  0  0  0
    4.5981    0.0000    0.0000 C   0  0  0  0  0  0  0  0  0  0  0  0
    3.7320    0.5000    0.0000 C   0  0  0  0  0  0  0  0  0  0  0  0
    2.0000   -1.5000    0.0000 C   0  0  0  0  0  0  0  0  0  0  0  0
    5.5443    0.3047    0.0000 C   0  0  0  0  0  0  0  0  0  0  0  0
    6.1279   -0.5000    0.0000 C   0  0  0  0  0  0  0  0  0  0  0  0
    5.8550    1.2552    0.0000 C   0  0  0  0  0  0  0  0  0  0  0  0
    2.8660   -1.6200    0.0000 H   0  0  0  0  0  0  0  0  0  0  0  0
    3.3335   -1.9750    0.0000 H   0  0  0  0  0  0  0  0  0  0  0  0
    4.1306   -1.9750    0.0000 H   0  0  0  0  0  0  0  0  0  0  0  0
    2.6540    0.5826    0.0000 H   0  0  0  0  0  0  0  0  0  0  0  0
    2.2554   -0.1077    0.0000 H   0  0  0  0  0  0  0  0  0  0  0  0
    1.6900   -0.9631    0.0000 H   0  0  0  0  0  0  0  0  0  0  0  0
    1.4631   -1.8100    0.0000 H   0  0  0  0  0  0  0  0  0  0  0  0
    2.3100   -2.0369    0.0000 H   0  0  0  0  0  0  0  0  0  0  0  0
    6.7479   -0.5000    0.0000 H   0  0  0  0  0  0  0  0  0  0  0  0
    6.4443    1.0626    0.0000 H   0  0  0  0  0  0  0  0  0  0  0  0
    6.0476    1.8446    0.0000 H   0  0  0  0  0  0  0  0  0  0  0  0
    5.2656    1.4479    0.0000 H   0  0  0  0  0  0  0  0  0  0  0  0
  1  6  1  0  0  0  0
  1 11  1  0  0  0  0
  2  8  2  0  0  0  0
  3  4  1  0  0  0  0
  3  5  1  0  0  0  0
  3  9  1  6  0  0  0
  3 13  1  0  0  0  0
  4  6  1  0  0  0  0
  4 14  1  0  0  0  0
  4 15  1  0  0  0  0
  5  8  1  0  0  0  0
  5 16  1  0  0  0  0
  5 17  1  0  0  0  0
  6  7  2  0  0  0  0
  7  8  1  0  0  0  0
  7 10  1  0  0  0  0
  9 18  1  0  0  0  0
  9 19  1  0  0  0  0
  9 20  1  0  0  0  0
 10 11  2  0  0  0  0
 10 12  1  0  0  0  0
 11 21  1  0  0  0  0
 12 22  1  0  0  0  0
 12 23  1  0  0  0  0
 12 24  1  0  0  0  0
M  END
> <PUBCHEM_COMPOUND_CID>
442471

> <PUBCHEM_COMPOUND_CANONICALIZED>
1

> <PUBCHEM_CACTVS_COMPLEXITY>
200

> <PUBCHEM_CACTVS_HBOND_ACCEPTOR>
2

> <PUBCHEM_CACTVS_HBOND_DONOR>
0

> <PUBCHEM_CACTVS_ROTATABLE_BOND>
0

> <PUBCHEM_CACTVS_SUBSKEYS>
AAADccBwMAAAAAAAAAAAAAAAAAAAASAAAAAwAAAAAAAAAEgBgAAAGgAAAAAADQSgmAIiBIAABECIAohSgAACCAAkIAAAiAEECMgMJjaMNRqCGWCk4BEIqQeLzvDugAAAAAAAAACAAAIAABAAAAAAAAAAAA==

> <PUBCHEM_IUPAC_OPENEYE_NAME>
(6S)-3,6-dimethyl-6,7-dihydro-5H-benzofuran-4-one

> <PUBCHEM_IUPAC_CAS_NAME>
(6S)-3,6-dimethyl-6,7-dihydro-5H-benzofuran-4-one

> <PUBCHEM_IUPAC_NAME>
(6S)-3,6-dimethyl-6,7-dihydro-5H-1-benzofuran-4-one

> <PUBCHEM_IUPAC_SYSTEMATIC_NAME>
(6S)-3,6-dimethyl-6,7-dihydro-5H-1-benzofuran-4-one

> <PUBCHEM_IUPAC_TRADITIONAL_NAME>
(6S)-3,6-dimethyl-6,7-dihydro-5H-benzofuran-4-one

> <PUBCHEM_IUPAC_INCHI>
InChI=1S/C10H12O2/c1-6-3-8(11)10-7(2)5-12-9(10)4-6/h5-6H,3-4H2,1-2H3/t6-/m1/s1

> <PUBCHEM_IUPAC_INCHIKEY>
SMUXTLISYBPIAU-ZCFIWIBFSA-N

> <PUBCHEM_XLOGP3_AA>
1.9

> <PUBCHEM_EXACT_MASS>
164.08373

> <PUBCHEM_MOLECULAR_FORMULA>
C10H12O2

> <PUBCHEM_MOLECULAR_WEIGHT>
164.20108

> <PUBCHEM_OPENEYE_CAN_SMILES>
CC1CC2=C(C(=CO2)C)C(=O)C1

> <PUBCHEM_OPENEYE_ISO_SMILES>
C[C@H]1CC2=C(C(=CO2)C)C(=O)C1

> <PUBCHEM_CACTVS_TPSA>
30.2

> <PUBCHEM_MONOISOTOPIC_WEIGHT>
164.08373

> <PUBCHEM_TOTAL_CHARGE>
0

> <PUBCHEM_HEAVY_ATOM_COUNT>
12

> <PUBCHEM_ATOM_DEF_STEREO_COUNT>
1

> <PUBCHEM_ATOM_UDEF_STEREO_COUNT>
0

> <PUBCHEM_BOND_DEF_STEREO_COUNT>
0

> <PUBCHEM_BOND_UDEF_STEREO_COUNT>
0

> <PUBCHEM_ISOTOPIC_ATOM_COUNT>
0

> <PUBCHEM_COMPONENT_COUNT>
1

> <PUBCHEM_CACTVS_TAUTO_COUNT>
2

> <PUBCHEM_COORDINATE_TYPE>
1
5
255

> <PUBCHEM_BONDANNOTATIONS>
1  11  8
1  6  8
10  11  8
3  9  6
6  7  8
7  10  8

$$$$

