179169
  -OEChem-07051213032D

 62 65  0     1  0  0  0  0  0999 V2000
    7.2641   -1.7327    0.0000 O   0  0  0  0  0  0  0  0  0  0  0  0
    5.5321    1.2673    0.0000 O   0  0  0  0  0  0  0  0  0  0  0  0
    4.6660    0.7673    0.0000 O   0  0  0  0  0  0  0  0  0  0  0  0
    2.9176    0.8019    0.0000 O   0  0  0  0  0  0  0  0  0  0  0  0
    9.9301   -0.2535    0.0000 N   0  0  3  0  0  0  0  0  0  0  0  0
    9.9301    0.7881    0.0000 C   0  0  2  0  0  0  0  0  0  0  0  0
    9.0241   -0.7673    0.0000 C   0  0  1  0  0  0  0  0  0  0  0  0
    9.0241    1.3020    0.0000 C   0  0  0  0  0  0  0  0  0  0  0  0
    8.1301   -0.2327    0.0000 C   0  0  0  0  0  0  0  0  0  0  0  0
    8.1301    0.7673    0.0000 C   0  0  0  0  0  0  0  0  0  0  0  0
    7.2641   -0.7327    0.0000 C   0  0  0  0  0  0  0  0  0  0  0  0
   10.7942    1.2915    0.0000 C   0  0  0  0  0  0  0  0  0  0  0  0
    9.0125   -1.7673    0.0000 C   0  0  0  0  0  0  0  0  0  0  0  0
    7.2641    1.2673    0.0000 C   0  0  0  0  0  0  0  0  0  0  0  0
   10.7942   -0.7568    0.0000 C   0  0  0  0  0  0  0  0  0  0  0  0
    6.3981   -0.2327    0.0000 C   0  0  0  0  0  0  0  0  0  0  0  0
    6.3981    0.7673    0.0000 C   0  0  0  0  0  0  0  0  0  0  0  0
    5.5321   -0.7327    0.0000 C   0  0  0  0  0  0  0  0  0  0  0  0
    5.5321   -1.7327    0.0000 C   0  0  0  0  0  0  0  0  0  0  0  0
    4.6660   -0.2327    0.0000 C   0  0  0  0  0  0  0  0  0  0  0  0
    3.8000   -0.7327    0.0000 C   0  0  0  0  0  0  0  0  0  0  0  0
    4.6660   -2.2327    0.0000 C   0  0  0  0  0  0  0  0  0  0  0  0
    3.8000   -1.7327    0.0000 C   0  0  0  0  0  0  0  0  0  0  0  0
    8.1301   -2.2327    0.0000 C   0  0  0  0  0  0  0  0  0  0  0  0
    6.3981   -2.2327    0.0000 C   0  0  0  0  0  0  0  0  0  0  0  0
    2.9061   -0.1980    0.0000 C   0  0  0  0  0  0  0  0  0  0  0  0
    5.5321    2.2673    0.0000 C   0  0  0  0  0  0  0  0  0  0  0  0
    2.9061   -2.2673    0.0000 C   0  0  0  0  0  0  0  0  0  0  0  0
    2.0000   -0.7119    0.0000 C   0  0  0  0  0  0  0  0  0  0  0  0
    2.0000   -1.7535    0.0000 C   0  0  0  0  0  0  0  0  0  0  0  0
    2.0574    1.3119    0.0000 C   0  0  0  0  0  0  0  0  0  0  0  0
   10.4677    0.4792    0.0000 H   0  0  0  0  0  0  0  0  0  0  0  0
    9.5580   -1.0825    0.0000 H   0  0  0  0  0  0  0  0  0  0  0  0
    9.4177    1.7810    0.0000 H   0  0  0  0  0  0  0  0  0  0  0  0
    8.6195    1.7718    0.0000 H   0  0  0  0  0  0  0  0  0  0  0  0
   11.1063    0.7557    0.0000 H   0  0  0  0  0  0  0  0  0  0  0  0
   11.3300    1.6036    0.0000 H   0  0  0  0  0  0  0  0  0  0  0  0
   10.4822    1.8272    0.0000 H   0  0  0  0  0  0  0  0  0  0  0  0
    8.3926   -1.7601    0.0000 H   0  0  0  0  0  0  0  0  0  0  0  0
    9.0053   -2.3872    0.0000 H   0  0  0  0  0  0  0  0  0  0  0  0
    9.6325   -1.7744    0.0000 H   0  0  0  0  0  0  0  0  0  0  0  0
    7.2641    1.8873    0.0000 H   0  0  0  0  0  0  0  0  0  0  0  0
   10.4822   -1.2926    0.0000 H   0  0  0  0  0  0  0  0  0  0  0  0
   11.3300   -1.0689    0.0000 H   0  0  0  0  0  0  0  0  0  0  0  0
   11.1063   -0.2211    0.0000 H   0  0  0  0  0  0  0  0  0  0  0  0
    4.6660   -2.8527    0.0000 H   0  0  0  0  0  0  0  0  0  0  0  0
    7.8201   -2.7696    0.0000 H   0  0  0  0  0  0  0  0  0  0  0  0
    8.6671   -2.5427    0.0000 H   0  0  0  0  0  0  0  0  0  0  0  0
    8.4401   -1.6957    0.0000 H   0  0  0  0  0  0  0  0  0  0  0  0
    6.0881   -2.7696    0.0000 H   0  0  0  0  0  0  0  0  0  0  0  0
    6.9350   -2.5427    0.0000 H   0  0  0  0  0  0  0  0  0  0  0  0
    6.7081   -1.6957    0.0000 H   0  0  0  0  0  0  0  0  0  0  0  0
    6.1521    2.2673    0.0000 H   0  0  0  0  0  0  0  0  0  0  0  0
    5.5321    2.8873    0.0000 H   0  0  0  0  0  0  0  0  0  0  0  0
    4.9121    2.2673    0.0000 H   0  0  0  0  0  0  0  0  0  0  0  0
    2.9132   -2.8873    0.0000 H   0  0  0  0  0  0  0  0  0  0  0  0
    4.1291    1.0773    0.0000 H   0  0  0  0  0  0  0  0  0  0  0  0
    1.4643   -0.3998    0.0000 H   0  0  0  0  0  0  0  0  0  0  0  0
    1.4643   -2.0656    0.0000 H   0  0  0  0  0  0  0  0  0  0  0  0
    2.3736    1.8452    0.0000 H   0  0  0  0  0  0  0  0  0  0  0  0
    1.5241    1.6281    0.0000 H   0  0  0  0  0  0  0  0  0  0  0  0
    1.7413    0.7786    0.0000 H   0  0  0  0  0  0  0  0  0  0  0  0
  1 11  1  0  0  0  0
  1 24  1  0  0  0  0
  2 17  1  0  0  0  0
  2 27  1  0  0  0  0
  3 20  1  0  0  0  0
  3 57  1  0  0  0  0
  4 26  1  0  0  0  0
  4 31  1  0  0  0  0
  5  6  1  0  0  0  0
  5  7  1  0  0  0  0
  5 15  1  0  0  0  0
  6  8  1  0  0  0  0
  6 12  1  6  0  0  0
  6 32  1  0  0  0  0
  7  9  1  0  0  0  0
  7 13  1  6  0  0  0
  7 33  1  0  0  0  0
  8 10  1  0  0  0  0
  8 34  1  0  0  0  0
  8 35  1  0  0  0  0
  9 10  1  0  0  0  0
  9 11  2  0  0  0  0
 10 14  2  0  0  0  0
 11 16  1  0  0  0  0
 12 36  1  0  0  0  0
 12 37  1  0  0  0  0
 12 38  1  0  0  0  0
 13 39  1  0  0  0  0
 13 40  1  0  0  0  0
 13 41  1  0  0  0  0
 14 17  1  0  0  0  0
 14 42  1  0  0  0  0
 15 43  1  0  0  0  0
 15 44  1  0  0  0  0
 15 45  1  0  0  0  0
 16 17  2  0  0  0  0
 16 18  1  0  0  0  0
 18 19  1  0  0  0  0
 18 20  2  0  0  0  0
 19 22  2  0  0  0  0
 19 25  1  0  0  0  0
 20 21  1  0  0  0  0
 21 23  2  0  0  0  0
 21 26  1  0  0  0  0
 22 23  1  0  0  0  0
 22 46  1  0  0  0  0
 23 28  1  0  0  0  0
 24 47  1  0  0  0  0
 24 48  1  0  0  0  0
 24 49  1  0  0  0  0
 25 50  1  0  0  0  0
 25 51  1  0  0  0  0
 25 52  1  0  0  0  0
 26 29  2  0  0  0  0
 27 53  1  0  0  0  0
 27 54  1  0  0  0  0
 27 55  1  0  0  0  0
 28 30  2  0  0  0  0
 28 56  1  0  0  0  0
 29 30  1  0  0  0  0
 29 58  1  0  0  0  0
 30 59  1  0  0  0  0
 31 60  1  0  0  0  0
 31 61  1  0  0  0  0
 31 62  1  0  0  0  0
M  END
> <PUBCHEM_COMPOUND_CID>
179169

> <PUBCHEM_COMPOUND_CANONICALIZED>
1

> <PUBCHEM_CACTVS_COMPLEXITY>
602

> <PUBCHEM_CACTVS_HBOND_ACCEPTOR>
5

> <PUBCHEM_CACTVS_HBOND_DONOR>
1

> <PUBCHEM_CACTVS_ROTATABLE_BOND>
4

> <PUBCHEM_CACTVS_SUBSKEYS>
AAADceB6OAAAAAAAAAAAAAAAAAAAAAAAAAA8YMEAAAAAAADxVAAAHgAACAAADCzBmAYyBsMABgCAAiBCAACCCAAgIAAIiAAODIgMJyKGsRuEcChnwBWIuAfQ8P8O4AADCAAYAADAAAYQADAAAAAAAAAAAA==

> <PUBCHEM_IUPAC_OPENEYE_NAME>
2-[(1R,3S)-6,8-dimethoxy-1,2,3-trimethyl-3,4-dihydro-1H-isoquinolin-7-yl]-8-methoxy-3-methyl-naphthalen-1-ol

> <PUBCHEM_IUPAC_CAS_NAME>
2-[(1R,3S)-6,8-dimethoxy-1,2,3-trimethyl-3,4-dihydro-1H-isoquinolin-7-yl]-8-methoxy-3-methyl-1-naphthalenol

> <PUBCHEM_IUPAC_NAME>
2-[(1R,3S)-6,8-dimethoxy-1,2,3-trimethyl-3,4-dihydro-1H-isoquinolin-7-yl]-8-methoxy-3-methylnaphthalen-1-ol

> <PUBCHEM_IUPAC_SYSTEMATIC_NAME>
2-[(1R,3S)-6,8-dimethoxy-1,2,3-trimethyl-3,4-dihydro-1H-isoquinolin-7-yl]-8-methoxy-3-methyl-naphthalen-1-ol

> <PUBCHEM_IUPAC_TRADITIONAL_NAME>
2-[(1R,3S)-6,8-dimethoxy-1,2,3-trimethyl-3,4-dihydro-1H-isoquinolin-7-yl]-8-methoxy-3-methyl-1-naphthol

> <PUBCHEM_IUPAC_INCHI>
InChI=1S/C26H31NO4/c1-14-11-17-9-8-10-19(29-5)23(17)25(28)21(14)24-20(30-6)13-18-12-15(2)27(4)16(3)22(18)26(24)31-7/h8-11,13,15-16,28H,12H2,1-7H3/t15-,16+/m0/s1

> <PUBCHEM_IUPAC_INCHIKEY>
BHQAJMGEYYHIGV-JKSUJKDBSA-N

> <PUBCHEM_XLOGP3_AA>
5.4

> <PUBCHEM_EXACT_MASS>
421.225308

> <PUBCHEM_MOLECULAR_FORMULA>
C26H31NO4

> <PUBCHEM_MOLECULAR_WEIGHT>
421.52864

> <PUBCHEM_OPENEYE_CAN_SMILES>
CC1CC2=CC(=C(C(=C2C(N1C)C)OC)C3=C(C=C4C=CC=C(C4=C3O)OC)C)OC

> <PUBCHEM_OPENEYE_ISO_SMILES>
C[C@H]1CC2=CC(=C(C(=C2[C@H](N1C)C)OC)C3=C(C=C4C=CC=C(C4=C3O)OC)C)OC

> <PUBCHEM_CACTVS_TPSA>
51.2

> <PUBCHEM_MONOISOTOPIC_WEIGHT>
421.225308

> <PUBCHEM_TOTAL_CHARGE>
0

> <PUBCHEM_HEAVY_ATOM_COUNT>
31

> <PUBCHEM_ATOM_DEF_STEREO_COUNT>
2

> <PUBCHEM_ATOM_UDEF_STEREO_COUNT>
0

> <PUBCHEM_BOND_DEF_STEREO_COUNT>
0

> <PUBCHEM_BOND_UDEF_STEREO_COUNT>
0

> <PUBCHEM_ISOTOPIC_ATOM_COUNT>
0

> <PUBCHEM_COMPONENT_COUNT>
1

> <PUBCHEM_CACTVS_TAUTO_COUNT>
15

> <PUBCHEM_COORDINATE_TYPE>
1
5
255

> <PUBCHEM_BONDANNOTATIONS>
10  14  8
11  16  8
14  17  8
16  17  8
18  19  8
18  20  8
19  22  8
20  21  8
21  23  8
21  26  8
22  23  8
23  28  8
26  29  8
28  30  8
29  30  8
6  12  6
7  13  6
9  10  8
9  11  8

$$$$

