3647
  -OEChem-07051212543D

 28 29  0     0  0  0  0  0  0999 V2000
   -3.1069    0.9830   -0.0060 S   0  0  0  0  0  0  0  0  0  0  0  0
    2.2494    1.6808   -0.0702 S   0  0  0  0  0  0  0  0  0  0  0  0
    2.4244   -2.7627   -0.0109 F   0  0  0  0  0  0  0  0  0  0  0  0
    3.1651   -1.0579   -1.1285 F   0  0  0  0  0  0  0  0  0  0  0  0
    3.1819   -1.0196    1.0458 F   0  0  0  0  0  0  0  0  0  0  0  0
   -3.4240    1.3029    1.3717 O   0  0  0  0  0  0  0  0  0  0  0  0
   -3.1255    1.9915   -1.0467 O   0  0  0  0  0  0  0  0  0  0  0  0
    3.3508    0.9385   -0.6779 O   0  0  0  0  0  0  0  0  0  0  0  0
    1.7491    2.9001   -0.6971 O   0  0  0  0  0  0  0  0  0  0  0  0
   -2.4140   -2.0373    0.0418 N   0  0  0  0  0  0  0  0  0  0  0  0
   -4.0562   -0.3411   -0.5206 N   0  0  0  0  0  0  0  0  0  0  0  0
    2.7084    2.0581    1.5443 N   0  0  0  0  0  0  0  0  0  0  0  0
   -1.4996    0.2519    0.0129 C   0  0  0  0  0  0  0  0  0  0  0  0
   -1.3536   -1.1440    0.0370 C   0  0  0  0  0  0  0  0  0  0  0  0
    0.8849    0.5863   -0.0308 C   0  0  0  0  0  0  0  0  0  0  0  0
    1.0653   -0.7939   -0.0140 C   0  0  0  0  0  0  0  0  0  0  0  0
   -0.4013    1.1160   -0.0209 C   0  0  0  0  0  0  0  0  0  0  0  0
   -3.7878   -1.6080    0.1832 C   0  0  0  0  0  0  0  0  0  0  0  0
   -0.0425   -1.6466    0.0155 C   0  0  0  0  0  0  0  0  0  0  0  0
    2.4320   -1.3980   -0.0287 C   0  0  0  0  0  0  0  0  0  0  0  0
   -0.5631    2.1902   -0.0248 H   0  0  0  0  0  0  0  0  0  0  0  0
   -4.4498   -2.3780   -0.2258 H   0  0  0  0  0  0  0  0  0  0  0  0
   -4.0389   -1.4950    1.2437 H   0  0  0  0  0  0  0  0  0  0  0  0
    0.1045   -2.7255    0.0231 H   0  0  0  0  0  0  0  0  0  0  0  0
   -2.2113   -3.0279    0.1122 H   0  0  0  0  0  0  0  0  0  0  0  0
   -4.2264   -0.4336   -1.5300 H   0  0  0  0  0  0  0  0  0  0  0  0
    2.5584    3.0351    1.8300 H   0  0  0  0  0  0  0  0  0  0  0  0
    2.3670    1.4127    2.2696 H   0  0  0  0  0  0  0  0  0  0  0  0
  1  6  2  0  0  0  0
  1  7  2  0  0  0  0
  1 11  1  0  0  0  0
  1 13  1  0  0  0  0
  2  8  2  0  0  0  0
  2  9  2  0  0  0  0
  2 12  1  0  0  0  0
  2 15  1  0  0  0  0
  3 20  1  0  0  0  0
  4 20  1  0  0  0  0
  5 20  1  0  0  0  0
 10 14  1  0  0  0  0
 10 18  1  0  0  0  0
 10 25  1  0  0  0  0
 11 18  1  0  0  0  0
 11 26  1  0  0  0  0
 12 27  1  0  0  0  0
 12 28  1  0  0  0  0
 13 14  2  0  0  0  0
 13 17  1  0  0  0  0
 14 19  1  0  0  0  0
 15 16  1  0  0  0  0
 15 17  2  0  0  0  0
 16 19  2  0  0  0  0
 16 20  1  0  0  0  0
 17 21  1  0  0  0  0
 18 22  1  0  0  0  0
 18 23  1  0  0  0  0
 19 24  1  0  0  0  0
M  END
> <PUBCHEM_COMPOUND_CID>
3647

> <PUBCHEM_CONFORMER_RMSD>
0.6

> <PUBCHEM_CONFORMER_DIVERSEORDER>
1
2

> <PUBCHEM_MMFF94_PARTIAL_CHARGES>
26
1 1.45
10 -0.87
11 -0.91
12 -0.98
13 -0.01
14 0.1
15 -0.01
16 -0.14
17 -0.15
18 0.72
19 -0.15
2 1.45
20 1.16
21 0.15
24 0.15
25 0.4
26 0.42
27 0.42
28 0.42
3 -0.34
4 -0.34
5 -0.34
6 -0.65
7 -0.65
8 -0.65
9 -0.65

> <PUBCHEM_EFFECTIVE_ROTOR_COUNT>
2.6

> <PUBCHEM_PHARMACOPHORE_FEATURES>
10
1 10 cation
1 10 donor
1 11 donor
1 12 donor
1 6 acceptor
1 7 acceptor
1 8 acceptor
1 9 acceptor
6 1 10 11 13 14 18 rings
6 13 14 15 16 17 19 rings

> <PUBCHEM_HEAVY_ATOM_COUNT>
20

> <PUBCHEM_ATOM_DEF_STEREO_COUNT>
0

> <PUBCHEM_ATOM_UDEF_STEREO_COUNT>
0

> <PUBCHEM_BOND_DEF_STEREO_COUNT>
0

> <PUBCHEM_BOND_UDEF_STEREO_COUNT>
0

> <PUBCHEM_ISOTOPIC_ATOM_COUNT>
0

> <PUBCHEM_COMPONENT_COUNT>
1

> <PUBCHEM_CACTVS_TAUTO_COUNT>
1

> <PUBCHEM_CONFORMER_ID>
00000E3F00000001

> <PUBCHEM_MMFF94_ENERGY>
36.4665

> <PUBCHEM_FEATURE_SELFOVERLAP>
50.823

> <PUBCHEM_SHAPE_FINGERPRINT>
10608611 8 18411985749787090581
10616163 171 18266455404299812623
10967382 1 18339641122910613175
10980938 120 18413386531895863948
11132069 177 18267309909380849811
11680986 33 18409172125206392106
11715629 250 18263650575737971397
12553582 1 18195240246495486502
13140716 1 18409730685724329739
13380535 21 18411691071875190093
14144814 61 18412262839554706203
14178342 30 18338808809872827704
14223421 5 18339922606630284619
15196674 1 18411417310580569902
15219456 202 18410015399106400639
15375462 6 18341329985856206789
15442244 35 18337951306672268563
15536298 74 18334856091177116134
16945 1 18266457796453807803
17492 89 18410856534282468811
18186145 218 18408880771820854805
18981168 100 18269293333968304133
19591789 44 17330829128575567311
20510252 161 17758952628160789233
20645477 70 18335140869390320983
21267235 1 18411127039558835911
21501502 16 18410853244178322611
21524375 3 18122905326719910188
221490 88 18341323435736161738
2255824 54 18342171142400719774
2334 1 18338517439259642731
23366157 5 18060419097529088374
23402539 116 18047764976734156934
23419403 2 16959337551763841848
23463225 33 18412826871634086295
23558518 356 18271807891618148307
23559900 14 18411424998566696444
2748010 2 18411136913767251127
335352 9 18123189266854667047
350125 39 18410285896315507849
5104073 3 18410853248979822947
7364860 26 18333449816206078266
74978 22 18410854395234839199
7832392 63 18410570725292515492
81228 2 17613991220143080738
9709674 26 18339921524246317695

> <PUBCHEM_SHAPE_MULTIPOLES>
359.05
6.8
2.79
0.94
2.69
0.11
-0.18
0.2
-0.05
-1.02
0.07
-0.22
0.37
0.2

> <PUBCHEM_SHAPE_SELFOVERLAP>
751.654

> <PUBCHEM_SHAPE_VOLUME>
205

> <PUBCHEM_COORDINATE_TYPE>
2
5
10

$$$$

