189733
  -OEChem-07051213093D

 30 29  0     0  0  0  0  0  0999 V2000
   -4.9232    1.6417    0.3339 Cl  0  0  0  0  0  0  0  0  0  0  0  0
    5.6312    0.0862    0.1613 Cl  0  0  0  0  0  0  0  0  0  0  0  0
    0.3364    0.8176   -0.5420 P   0  0  0  0  0  0  0  0  0  0  0  0
    0.0865   -0.7947   -0.4919 O   0  0  0  0  0  0  0  0  0  0  0  0
    0.3821    1.2709   -1.9830 O   0  0  0  0  0  0  0  0  0  0  0  0
   -2.2935   -2.3697   -0.5528 O   0  0  0  0  0  0  0  0  0  0  0  0
   -0.9044    1.4912    0.3428 N   0  0  0  0  0  0  0  0  0  0  0  0
    1.7415    1.0969    0.3088 N   0  0  0  0  0  0  0  0  0  0  0  0
   -2.2672    1.4008   -0.1612 C   0  0  0  0  0  0  0  0  0  0  0  0
    3.0001    0.6111   -0.2381 C   0  0  0  0  0  0  0  0  0  0  0  0
    0.0672   -1.4852    0.7467 C   0  0  0  0  0  0  0  0  0  0  0  0
   -0.1831   -2.9628    0.4972 C   0  0  0  0  0  0  0  0  0  0  0  0
   -3.2534    1.7684    0.9366 C   0  0  0  0  0  0  0  0  0  0  0  0
    4.0839    0.6607    0.8276 C   0  0  0  0  0  0  0  0  0  0  0  0
   -1.5041   -3.2333   -0.1859 C   0  0  0  0  0  0  0  0  0  0  0  0
   -0.7413    2.4383    0.6838 H   0  0  0  0  0  0  0  0  0  0  0  0
    1.8741    2.0502    0.6459 H   0  0  0  0  0  0  0  0  0  0  0  0
   -2.4649    0.3802   -0.5053 H   0  0  0  0  0  0  0  0  0  0  0  0
   -2.3816    2.0679   -1.0229 H   0  0  0  0  0  0  0  0  0  0  0  0
    3.2798    1.2217   -1.1039 H   0  0  0  0  0  0  0  0  0  0  0  0
    2.8766   -0.4206   -0.5867 H   0  0  0  0  0  0  0  0  0  0  0  0
   -0.7213   -1.0679    1.3811 H   0  0  0  0  0  0  0  0  0  0  0  0
    1.0286   -1.3583    1.2531 H   0  0  0  0  0  0  0  0  0  0  0  0
    0.5967   -3.3728   -0.1539 H   0  0  0  0  0  0  0  0  0  0  0  0
   -0.1753   -3.5125    1.4436 H   0  0  0  0  0  0  0  0  0  0  0  0
   -3.1613    1.0968    1.7961 H   0  0  0  0  0  0  0  0  0  0  0  0
   -3.1044    2.7968    1.2808 H   0  0  0  0  0  0  0  0  0  0  0  0
    4.2421    1.6812    1.1906 H   0  0  0  0  0  0  0  0  0  0  0  0
    3.8335    0.0227    1.6811 H   0  0  0  0  0  0  0  0  0  0  0  0
   -1.7283   -4.3009   -0.3543 H   0  0  0  0  0  0  0  0  0  0  0  0
  1 13  1  0  0  0  0
  2 14  1  0  0  0  0
  3  4  1  0  0  0  0
  3  5  2  0  0  0  0
  3  7  1  0  0  0  0
  3  8  1  0  0  0  0
  4 11  1  0  0  0  0
  6 15  2  0  0  0  0
  7  9  1  0  0  0  0
  7 16  1  0  0  0  0
  8 10  1  0  0  0  0
  8 17  1  0  0  0  0
  9 13  1  0  0  0  0
  9 18  1  0  0  0  0
  9 19  1  0  0  0  0
 10 14  1  0  0  0  0
 10 20  1  0  0  0  0
 10 21  1  0  0  0  0
 11 12  1  0  0  0  0
 11 22  1  0  0  0  0
 11 23  1  0  0  0  0
 12 15  1  0  0  0  0
 12 24  1  0  0  0  0
 12 25  1  0  0  0  0
 13 26  1  0  0  0  0
 13 27  1  0  0  0  0
 14 28  1  0  0  0  0
 14 29  1  0  0  0  0
 15 30  1  0  0  0  0
M  END
> <PUBCHEM_COMPOUND_CID>
189733

> <PUBCHEM_CONFORMER_RMSD>
0.8

> <PUBCHEM_CONFORMER_DIVERSEORDER>
1
108
93
15
106
43
25
49
23
53
16
19
44
112
81
58
36
71
40
96
28
110
88
70
111
27
102
94
57
35
99
11
50
85
37
87
47
89
5
72
31
97
42
12
41
121
119
46
100
61
60
115
22
21
107
91
92
118
80
52
86
56
120
98
51
39
78
24
48
64
6
20
103
8
113
34
74
29
101
30
26
63
14
73
114
10
105
3
38
75
122
62
117
33
109
82
83
90
79
4
104
84
95
2
54
59
7
32
66
9
17
18
55
77
116
45
68
69
67
65
76
13

> <PUBCHEM_MMFF94_PARTIAL_CHARGES>
18
1 -0.29
10 0.27
11 0.28
12 0.06
13 0.29
14 0.29
15 0.45
16 0.36
17 0.36
2 -0.29
3 1.51
30 0.06
4 -0.55
5 -0.7
6 -0.57
7 -0.9
8 -0.9
9 0.27

> <PUBCHEM_EFFECTIVE_ROTOR_COUNT>
10

> <PUBCHEM_PHARMACOPHORE_FEATURES>
1
1 6 acceptor

> <PUBCHEM_HEAVY_ATOM_COUNT>
15

> <PUBCHEM_ATOM_DEF_STEREO_COUNT>
0

> <PUBCHEM_ATOM_UDEF_STEREO_COUNT>
0

> <PUBCHEM_BOND_DEF_STEREO_COUNT>
0

> <PUBCHEM_BOND_UDEF_STEREO_COUNT>
0

> <PUBCHEM_ISOTOPIC_ATOM_COUNT>
0

> <PUBCHEM_COMPONENT_COUNT>
1

> <PUBCHEM_CACTVS_TAUTO_COUNT>
4

> <PUBCHEM_CONFORMER_ID>
0002E52500000001

> <PUBCHEM_MMFF94_ENERGY>
-4.2202

> <PUBCHEM_FEATURE_SELFOVERLAP>
5.074

> <PUBCHEM_SHAPE_FINGERPRINT>
10756046 70 17631718388245784580
13052359 8 18411698755846086851
14866123 147 18411703175262569810
15502708 68 18196371648149739001
204376 136 18411697720595626529
20645477 70 18054229010716994121
20711985 344 17762865837203970015
20711985 365 18267304218849726478
21041028 32 17911228417524411555
22224240 67 18409167736098495201
23402539 116 18187370930333307893
23598291 2 17916300546678677356
366044 4 18411135874511967560
474229 33 18412542132851736385
7364860 26 17977378670746105049
81228 2 18055927484786306112

> <PUBCHEM_SHAPE_MULTIPOLES>
288.71
8.56
3.39
1.05
6.19
4.29
0.3
-5.78
-2.09
-3.24
-0.09
0.02
-0.28
-0.59

> <PUBCHEM_SHAPE_SELFOVERLAP>
501.271

> <PUBCHEM_SHAPE_VOLUME>
191.3

> <PUBCHEM_COORDINATE_TYPE>
2
5
10

$$$$

