442729
  -OEChem-07051212593D

 30 32  0     0  0  0  0  0  0999 V2000
    5.0317    1.0525    0.0007 Cl  0  0  0  0  0  0  0  0  0  0  0  0
   -2.6429    2.7194    0.0002 O   0  0  0  0  0  0  0  0  0  0  0  0
   -0.0962    2.4806   -0.0027 O   0  0  0  0  0  0  0  0  0  0  0  0
   -0.4106   -2.8540   -0.0015 O   0  0  0  0  0  0  0  0  0  0  0  0
    2.4372    2.4196    0.0017 O   0  0  0  0  0  0  0  0  0  0  0  0
    4.5140   -1.8805    0.0004 O   0  0  0  0  0  0  0  0  0  0  0  0
   -1.5638   -0.8074    0.0000 C   0  0  0  0  0  0  0  0  0  0  0  0
   -1.4805    0.5864   -0.0004 C   0  0  0  0  0  0  0  0  0  0  0  0
    1.0612    0.4346   -0.0003 C   0  0  0  0  0  0  0  0  0  0  0  0
    0.9778   -0.9594   -0.0004 C   0  0  0  0  0  0  0  0  0  0  0  0
   -0.1650    1.2584   -0.0009 C   0  0  0  0  0  0  0  0  0  0  0  0
   -0.3376   -1.6313   -0.0006 C   0  0  0  0  0  0  0  0  0  0  0  0
   -2.8168   -1.4321    0.0007 C   0  0  0  0  0  0  0  0  0  0  0  0
   -2.6501    1.3559   -0.0002 C   0  0  0  0  0  0  0  0  0  0  0  0
   -3.9799   -0.6615    0.0012 C   0  0  0  0  0  0  0  0  0  0  0  0
    2.3140    1.0592    0.0003 C   0  0  0  0  0  0  0  0  0  0  0  0
    2.1475   -1.7287   -0.0002 C   0  0  0  0  0  0  0  0  0  0  0  0
   -3.8968    0.7294    0.0007 C   0  0  0  0  0  0  0  0  0  0  0  0
    3.3941   -1.1022    0.0002 C   0  0  0  0  0  0  0  0  0  0  0  0
    3.4772    0.2888    0.0006 C   0  0  0  0  0  0  0  0  0  0  0  0
   -5.3144   -1.3278    0.0007 C   0  0  0  0  0  0  0  0  0  0  0  0
   -2.8954   -2.5166   -0.0013 H   0  0  0  0  0  0  0  0  0  0  0  0
    2.1019   -2.8150   -0.0003 H   0  0  0  0  0  0  0  0  0  0  0  0
   -4.8085    1.3226   -0.0012 H   0  0  0  0  0  0  0  0  0  0  0  0
   -5.2770   -2.2876    0.5271 H   0  0  0  0  0  0  0  0  0  0  0  0
   -6.0641   -0.7131    0.5105 H   0  0  0  0  0  0  0  0  0  0  0  0
   -5.6457   -1.5040   -1.0274 H   0  0  0  0  0  0  0  0  0  0  0  0
   -3.5566    3.0520    0.0006 H   0  0  0  0  0  0  0  0  0  0  0  0
    1.5764    2.8504    0.1050 H   0  0  0  0  0  0  0  0  0  0  0  0
    5.2915   -1.2958    0.0006 H   0  0  0  0  0  0  0  0  0  0  0  0
  1 20  1  0  0  0  0
  2 14  1  0  0  0  0
  2 28  1  0  0  0  0
  3 11  2  0  0  0  0
  4 12  2  0  0  0  0
  5 16  1  0  0  0  0
  5 29  1  0  0  0  0
  6 19  1  0  0  0  0
  6 30  1  0  0  0  0
  7  8  2  0  0  0  0
  7 12  1  0  0  0  0
  7 13  1  0  0  0  0
  8 11  1  0  0  0  0
  8 14  1  0  0  0  0
  9 10  1  0  0  0  0
  9 11  1  0  0  0  0
  9 16  2  0  0  0  0
 10 12  1  0  0  0  0
 10 17  2  0  0  0  0
 13 15  2  0  0  0  0
 13 22  1  0  0  0  0
 14 18  2  0  0  0  0
 15 18  1  0  0  0  0
 15 21  1  0  0  0  0
 16 20  1  0  0  0  0
 17 19  1  0  0  0  0
 17 23  1  0  0  0  0
 18 24  1  0  0  0  0
 19 20  2  0  0  0  0
 21 25  1  0  0  0  0
 21 26  1  0  0  0  0
 21 27  1  0  0  0  0
M  END
> <PUBCHEM_COMPOUND_CID>
442729

> <PUBCHEM_CONFORMER_RMSD>
0.6

> <PUBCHEM_CONFORMER_DIVERSEORDER>
1

> <PUBCHEM_MMFF94_PARTIAL_CHARGES>
27
1 -0.18
10 0.09
11 0.4
12 0.4
13 -0.15
14 0.08
15 -0.14
16 0.08
17 -0.15
18 -0.15
19 0.08
2 -0.53
20 0.18
21 0.14
22 0.15
23 0.15
24 0.15
28 0.45
29 0.45
3 -0.57
30 0.45
4 -0.57
5 -0.53
6 -0.53
7 0.09
8 0.09
9 0.09

> <PUBCHEM_EFFECTIVE_ROTOR_COUNT>
0

> <PUBCHEM_PHARMACOPHORE_FEATURES>
8
1 2 donor
1 3 acceptor
1 4 acceptor
1 5 donor
1 6 donor
6 7 8 13 14 15 18 rings
6 7 8 9 10 11 12 rings
6 9 10 16 17 19 20 rings

> <PUBCHEM_HEAVY_ATOM_COUNT>
21

> <PUBCHEM_ATOM_DEF_STEREO_COUNT>
0

> <PUBCHEM_ATOM_UDEF_STEREO_COUNT>
0

> <PUBCHEM_BOND_DEF_STEREO_COUNT>
0

> <PUBCHEM_BOND_UDEF_STEREO_COUNT>
0

> <PUBCHEM_ISOTOPIC_ATOM_COUNT>
0

> <PUBCHEM_COMPONENT_COUNT>
1

> <PUBCHEM_CACTVS_TAUTO_COUNT>
135

> <PUBCHEM_CONFORMER_ID>
0006C16900000001

> <PUBCHEM_MMFF94_ENERGY>
64.7731

> <PUBCHEM_FEATURE_SELFOVERLAP>
40.637

> <PUBCHEM_SHAPE_FINGERPRINT>
10608611 8 18410577305166679552
10616163 171 18265612091766151886
10967382 1 18338797801670999174
11471102 20 18411140225313812246
11578080 2 16986609786460177222
11806522 49 18412545396884183551
12011746 2 18410855425773724470
12403259 226 18410860983498789673
12403260 363 18411142449890392275
13140716 1 18265898140661272521
13862211 1 18410579478636811919
14790565 3 18410846651219472076
15196674 1 18410855490198207622
15230672 131 13514618509290677387
15442244 35 18410856607222085458
15536298 74 18335421274856416194
16945 1 18194683665867425062
17492 89 18338236080147731747
17804303 29 18409726291777593765
1813 80 17346599681846027044
19591789 44 18410856589741847687
200 152 18186806863988550183
20028762 73 18187369792352234375
20510252 161 18333730238552045297
21029758 11 18335706018345586641
21267235 1 18410566292912938518
221490 88 18341043047486118074
2334 1 18410575076226229061
23402539 116 18334864874543648247
23463225 33 18412262847896623492
23559900 14 18046349901470217838
2748010 2 18410857680789849229
2871803 45 18342463642664039247
335352 9 18122626320932371453
34934 24 18337395916378376238
350125 39 18410290311310162809
4214541 1 18410574032433293989
474 4 17417242122914972196
5104073 3 18410012173432968472
69090 78 18335986389141305183
7364860 26 18335702694093699000
9709674 26 18410287008401262342

> <PUBCHEM_SHAPE_MULTIPOLES>
404.69
9.05
2.72
0.6
0.05
0.39
0
-1.03
0
0.07
0
-0.01
-0.01
0

> <PUBCHEM_SHAPE_SELFOVERLAP>
907.204

> <PUBCHEM_SHAPE_VOLUME>
215.7

> <PUBCHEM_COORDINATE_TYPE>
2
5
10

$$$$

