23671563
  -OEChem-07051213032D

 51 53  0     1  0  0  0  0  0999 V2000
    7.9128   -0.8240    0.0000 S   0  0  0  0  0  0  0  0  0  0  0  0
    5.3147    0.6760    0.0000 S   0  0  0  0  0  0  0  0  0  0  0  0
   14.7470   -1.3196    0.0000 S   0  0  0  0  0  0  0  0  0  0  0  0
    7.0468    3.6760    0.0000 Na  0  3  0  0  0  0  0  0  0  0  0  0
   10.4928    1.3887    0.0000 O   0  0  0  0  0  0  0  0  0  0  0  0
    7.0468    2.6760    0.0000 O   0  5  0  0  0  0  0  0  0  0  0  0
    8.7788    2.6760    0.0000 O   0  0  0  0  0  0  0  0  0  0  0  0
   11.7200    0.1855    0.0000 O   0  0  0  0  0  0  0  0  0  0  0  0
   10.9376   -2.7106    0.0000 O   0  0  0  0  0  0  0  0  0  0  0  0
    4.4487    2.1760    0.0000 O   0  0  0  0  0  0  0  0  0  0  0  0
    3.4782   -0.3185    0.0000 O   0  0  0  0  0  0  0  0  0  0  0  0
    8.7788    0.6760    0.0000 N   0  0  0  0  0  0  0  0  0  0  0  0
   10.4928   -1.0367    0.0000 N   0  0  0  0  0  0  0  0  0  0  0  0
   11.9041   -2.4538    0.0000 N   0  0  0  0  0  0  0  0  0  0  0  0
   13.4916   -0.2987    0.0000 N   0  0  0  0  0  0  0  0  0  0  0  0
   15.1210    0.4227    0.0000 N   0  0  0  0  0  0  0  0  0  0  0  0
    8.7788   -0.3240    0.0000 C   0  0  1  0  0  0  0  0  0  0  0  0
    9.7871   -0.3281    0.0000 C   0  0  1  0  0  0  0  0  0  0  0  0
    9.7871    0.6802    0.0000 C   0  0  0  0  0  0  0  0  0  0  0  0
    7.9128    1.1760    0.0000 C   0  0  0  0  0  0  0  0  0  0  0  0
    7.0468    0.6760    0.0000 C   0  0  0  0  0  0  0  0  0  0  0  0
    7.0468   -0.3240    0.0000 C   0  0  0  0  0  0  0  0  0  0  0  0
    6.1808    1.1760    0.0000 C   0  0  0  0  0  0  0  0  0  0  0  0
    7.9128    2.1760    0.0000 C   0  0  0  0  0  0  0  0  0  0  0  0
   11.4592   -0.7798    0.0000 C   0  0  0  0  0  0  0  0  0  0  0  0
   12.1649   -1.4884    0.0000 C   0  0  0  0  0  0  0  0  0  0  0  0
   13.1313   -1.2316    0.0000 C   0  0  0  0  0  0  0  0  0  0  0  0
    4.4487    1.1760    0.0000 C   0  0  0  0  0  0  0  0  0  0  0  0
    3.5827    0.6760    0.0000 C   0  0  0  0  0  0  0  0  0  0  0  0
   13.9072   -1.8625    0.0000 C   0  0  0  0  0  0  0  0  0  0  0  0
   14.4901   -0.3531    0.0000 C   0  0  0  0  0  0  0  0  0  0  0  0
    2.6691    1.0828    0.0000 C   0  0  0  0  0  0  0  0  0  0  0  0
    2.0000    0.3396    0.0000 C   0  0  0  0  0  0  0  0  0  0  0  0
    2.5000   -0.5264    0.0000 C   0  0  0  0  0  0  0  0  0  0  0  0
   10.6768   -3.6760    0.0000 C   0  0  0  0  0  0  0  0  0  0  0  0
    8.9971   -1.1455    0.0000 H   0  0  0  0  0  0  0  0  0  0  0  0
    9.5481   -0.9002    0.0000 H   0  0  0  0  0  0  0  0  0  0  0  0
    6.4362   -0.2163    0.0000 H   0  0  0  0  0  0  0  0  0  0  0  0
    6.8347   -0.9066    0.0000 H   0  0  0  0  0  0  0  0  0  0  0  0
   10.3311   -1.6352    0.0000 H   0  0  0  0  0  0  0  0  0  0  0  0
    6.5793    1.6510    0.0000 H   0  0  0  0  0  0  0  0  0  0  0  0
    5.7822    1.6510    0.0000 H   0  0  0  0  0  0  0  0  0  0  0  0
   13.8735   -2.4816    0.0000 H   0  0  0  0  0  0  0  0  0  0  0  0
    2.5402    1.6892    0.0000 H   0  0  0  0  0  0  0  0  0  0  0  0
    1.3834    0.4044    0.0000 H   0  0  0  0  0  0  0  0  0  0  0  0
    2.2478   -1.0928    0.0000 H   0  0  0  0  0  0  0  0  0  0  0  0
   10.0783   -3.5143    0.0000 H   0  0  0  0  0  0  0  0  0  0  0  0
   10.5151   -4.2746    0.0000 H   0  0  0  0  0  0  0  0  0  0  0  0
   11.2753   -3.8377    0.0000 H   0  0  0  0  0  0  0  0  0  0  0  0
   15.7332    0.3245    0.0000 H   0  0  0  0  0  0  0  0  0  0  0  0
   14.9000    1.0020    0.0000 H   0  0  0  0  0  0  0  0  0  0  0  0
  1 17  1  0  0  0  0
  1 22  1  0  0  0  0
  2 23  1  0  0  0  0
  2 28  1  0  0  0  0
  3 30  1  0  0  0  0
  3 31  1  0  0  0  0
  5 19  2  0  0  0  0
  6 24  1  0  0  0  0
  7 24  2  0  0  0  0
  8 25  2  0  0  0  0
  9 14  1  0  0  0  0
  9 35  1  0  0  0  0
 10 28  2  0  0  0  0
 11 29  1  0  0  0  0
 11 34  1  0  0  0  0
 12 17  1  0  0  0  0
 12 19  1  0  0  0  0
 12 20  1  0  0  0  0
 18 13  1  1  0  0  0
 13 25  1  0  0  0  0
 13 40  1  0  0  0  0
 14 26  2  0  0  0  0
 15 27  1  0  0  0  0
 15 31  2  0  0  0  0
 16 31  1  0  0  0  0
 16 50  1  0  0  0  0
 16 51  1  0  0  0  0
 17 18  1  0  0  0  0
 17 36  1  6  0  0  0
 18 19  1  0  0  0  0
 18 37  1  0  0  0  0
 20 21  2  0  0  0  0
 20 24  1  0  0  0  0
 21 22  1  0  0  0  0
 21 23  1  0  0  0  0
 22 38  1  0  0  0  0
 22 39  1  0  0  0  0
 23 41  1  0  0  0  0
 23 42  1  0  0  0  0
 25 26  1  0  0  0  0
 26 27  1  0  0  0  0
 27 30  2  0  0  0  0
 28 29  1  0  0  0  0
 29 32  2  0  0  0  0
 30 43  1  0  0  0  0
 32 33  1  0  0  0  0
 32 44  1  0  0  0  0
 33 34  2  0  0  0  0
 33 45  1  0  0  0  0
 34 46  1  0  0  0  0
 35 47  1  0  0  0  0
 35 48  1  0  0  0  0
 35 49  1  0  0  0  0
M  CHG  2   4   1   6  -1
M  END
> <PUBCHEM_COMPOUND_CID>
23671563

> <PUBCHEM_COMPOUND_CANONICALIZED>
1

> <PUBCHEM_CACTVS_COMPLEXITY>
952

> <PUBCHEM_CACTVS_HBOND_ACCEPTOR>
13

> <PUBCHEM_CACTVS_HBOND_DONOR>
2

> <PUBCHEM_CACTVS_ROTATABLE_BOND>
9

> <PUBCHEM_CACTVS_SUBSKEYS>
AAADceB7uCBgAAAAAAAAAAAAAABYAWJAAAAgAAAAAAAQAAAB4AAAHgQUAAAADCzl1gaznZPYFEisA63y/AIC+KllKjkIiJX+KNiOZrqk9T+WGSCk1hO4qaaIBgAAAAAAAAAAAAAAAAAAAAAAAAAAAAAAAA==

> <PUBCHEM_IUPAC_OPENEYE_NAME>
sodium (6R,7R)-7-[[(2Z)-2-(2-aminothiazol-4-yl)-2-methoxyimino-acetyl]amino]-3-(furan-2-carbonylsulfanylmethyl)-8-oxo-5-thia-1-azabicyclo[4.2.0]oct-2-ene-2-carboxylate

> <PUBCHEM_IUPAC_CAS_NAME>
sodium (6R,7R)-7-[[(2Z)-2-(2-amino-4-thiazolyl)-2-methoxyimino-1-oxoethyl]amino]-3-[[[2-furanyl(oxo)methyl]thio]methyl]-8-oxo-5-thia-1-azabicyclo[4.2.0]oct-2-ene-2-carboxylate

> <PUBCHEM_IUPAC_NAME>
sodium (6R,7R)-7-[[(2Z)-2-(2-amino-1,3-thiazol-4-yl)-2-methoxyiminoacetyl]amino]-3-(furan-2-carbonylsulfanylmethyl)-8-oxo-5-thia-1-azabicyclo[4.2.0]oct-2-ene-2-carboxylate

> <PUBCHEM_IUPAC_SYSTEMATIC_NAME>
sodium (6R,7R)-7-[[(2Z)-2-(2-azanyl-1,3-thiazol-4-yl)-2-methoxyimino-ethanoyl]amino]-3-(furan-2-ylcarbonylsulfanylmethyl)-8-oxidanylidene-5-thia-1-azabicyclo[4.2.0]oct-2-ene-2-carboxylate

> <PUBCHEM_IUPAC_TRADITIONAL_NAME>
sodium (6R,7R)-7-[[(2Z)-2-(2-aminothiazol-4-yl)-2-methyloximino-acetyl]amino]-3-[(2-furoylthio)methyl]-8-keto-5-thia-1-azabicyclo[4.2.0]oct-2-ene-2-carboxylate

> <PUBCHEM_IUPAC_INCHI>
InChI=1S/C19H17N5O7S3.Na/c1-30-23-11(9-7-34-19(20)21-9)14(25)22-12-15(26)24-13(17(27)28)8(5-32-16(12)24)6-33-18(29)10-3-2-4-31-10;/h2-4,7,12,16H,5-6H2,1H3,(H2,20,21)(H,22,25)(H,27,28);/q;+1/p-1/b23-11-;/t12-,16-;/m1./s1

> <PUBCHEM_IUPAC_INCHIKEY>
RFLHUYUQCKHUKS-JUODUXDSSA-M

> <PUBCHEM_EXACT_MASS>
545.010955

> <PUBCHEM_MOLECULAR_FORMULA>
C19H16N5NaO7S3

> <PUBCHEM_MOLECULAR_WEIGHT>
545.544409

> <PUBCHEM_OPENEYE_CAN_SMILES>
CON=C(C1=CSC(=N1)N)C(=O)NC2C3N(C2=O)C(=C(CS3)CSC(=O)C4=CC=CO4)C(=O)[O-].[Na+]

> <PUBCHEM_OPENEYE_ISO_SMILES>
CO/N=C(/C1=CSC(=N1)N)\C(=O)N[C@H]2[C@@H]3N(C2=O)C(=C(CS3)CSC(=O)C4=CC=CO4)C(=O)[O-].[Na+]

> <PUBCHEM_CACTVS_TPSA>
259

> <PUBCHEM_MONOISOTOPIC_WEIGHT>
545.010955

> <PUBCHEM_TOTAL_CHARGE>
0

> <PUBCHEM_HEAVY_ATOM_COUNT>
35

> <PUBCHEM_ATOM_DEF_STEREO_COUNT>
2

> <PUBCHEM_ATOM_UDEF_STEREO_COUNT>
0

> <PUBCHEM_BOND_DEF_STEREO_COUNT>
1

> <PUBCHEM_BOND_UDEF_STEREO_COUNT>
0

> <PUBCHEM_ISOTOPIC_ATOM_COUNT>
0

> <PUBCHEM_COMPONENT_COUNT>
2

> <PUBCHEM_CACTVS_TAUTO_COUNT>
14

> <PUBCHEM_NONSTANDARDBOND>
4  6  7

> <PUBCHEM_COORDINATE_TYPE>
1
5
255

> <PUBCHEM_BONDANNOTATIONS>
11  29  8
11  34  8
18  13  5
15  27  8
15  31  8
17  36  6
27  30  8
29  32  8
3  30  8
3  31  8
32  33  8
33  34  8

$$$$

