5281796
  -OEChem-07051212593D

 39 39  0     0  0  0  0  0  0999 V2000
    3.6537    2.2790   -0.2143 O   0  0  0  0  0  0  0  0  0  0  0  0
   -2.0426   -2.5240    0.2553 O   0  0  0  0  0  0  0  0  0  0  0  0
    5.7818    0.6022    0.4059 O   0  0  0  0  0  0  0  0  0  0  0  0
   -2.7573   -0.7456   -1.0619 N   0  0  0  0  0  0  0  0  0  0  0  0
   -5.9307    3.0042    0.9877 N   0  0  0  0  0  0  0  0  0  0  0  0
   -5.0175   -0.5726   -0.0927 C   0  0  0  0  0  0  0  0  0  0  0  0
   -5.0270    0.9610   -0.0819 C   0  0  0  0  0  0  0  0  0  0  0  0
   -4.1323   -1.1409   -1.1982 C   0  0  0  0  0  0  0  0  0  0  0  0
   -5.9533    1.5464    0.9861 C   0  0  0  0  0  0  0  0  0  0  0  0
   -1.8202   -1.4755   -0.3412 C   0  0  0  0  0  0  0  0  0  0  0  0
    1.9268   -0.8840    0.3059 C   0  0  0  0  0  0  0  0  0  0  0  0
   -0.4730   -0.8374   -0.3658 C   0  0  0  0  0  0  0  0  0  0  0  0
    0.5541   -1.4187    0.2712 C   0  0  0  0  0  0  0  0  0  0  0  0
    2.1404    0.4561    0.0268 C   0  0  0  0  0  0  0  0  0  0  0  0
    3.4401    0.9617    0.0589 C   0  0  0  0  0  0  0  0  0  0  0  0
    2.9772   -1.7324    0.6162 C   0  0  0  0  0  0  0  0  0  0  0  0
    4.5083    0.1200    0.3698 C   0  0  0  0  0  0  0  0  0  0  0  0
    4.2768   -1.2270    0.6484 C   0  0  0  0  0  0  0  0  0  0  0  0
    3.8947    2.6277   -1.5761 C   0  0  0  0  0  0  0  0  0  0  0  0
   -6.0403   -0.9418   -0.2329 H   0  0  0  0  0  0  0  0  0  0  0  0
   -4.6730   -0.9380    0.8825 H   0  0  0  0  0  0  0  0  0  0  0  0
   -4.0090    1.3330    0.0891 H   0  0  0  0  0  0  0  0  0  0  0  0
   -5.3369    1.3264   -1.0695 H   0  0  0  0  0  0  0  0  0  0  0  0
   -4.1917   -2.2348   -1.1882 H   0  0  0  0  0  0  0  0  0  0  0  0
   -4.4763   -0.7954   -2.1789 H   0  0  0  0  0  0  0  0  0  0  0  0
   -6.9803    1.2088    0.8093 H   0  0  0  0  0  0  0  0  0  0  0  0
   -5.6540    1.1829    1.9755 H   0  0  0  0  0  0  0  0  0  0  0  0
   -2.4754    0.1158   -1.5208 H   0  0  0  0  0  0  0  0  0  0  0  0
   -6.5126    3.3507    1.7492 H   0  0  0  0  0  0  0  0  0  0  0  0
   -4.9848    3.3321    1.1782 H   0  0  0  0  0  0  0  0  0  0  0  0
   -0.3737    0.0808   -0.9329 H   0  0  0  0  0  0  0  0  0  0  0  0
    0.4080   -2.3559    0.8036 H   0  0  0  0  0  0  0  0  0  0  0  0
    1.3329    1.1468   -0.1966 H   0  0  0  0  0  0  0  0  0  0  0  0
    2.8131   -2.7844    0.8342 H   0  0  0  0  0  0  0  0  0  0  0  0
    5.0999   -1.8936    0.8918 H   0  0  0  0  0  0  0  0  0  0  0  0
    6.3883   -0.1220    0.6373 H   0  0  0  0  0  0  0  0  0  0  0  0
    3.0306    2.3694   -2.1965 H   0  0  0  0  0  0  0  0  0  0  0  0
    4.7908    2.1230   -1.9508 H   0  0  0  0  0  0  0  0  0  0  0  0
    4.0535    3.7082   -1.6302 H   0  0  0  0  0  0  0  0  0  0  0  0
  1 15  1  0  0  0  0
  1 19  1  0  0  0  0
  2 10  2  0  0  0  0
  3 17  1  0  0  0  0
  3 36  1  0  0  0  0
  4  8  1  0  0  0  0
  4 10  1  0  0  0  0
  4 28  1  0  0  0  0
  5  9  1  0  0  0  0
  5 29  1  0  0  0  0
  5 30  1  0  0  0  0
  6  7  1  0  0  0  0
  6  8  1  0  0  0  0
  6 20  1  0  0  0  0
  6 21  1  0  0  0  0
  7  9  1  0  0  0  0
  7 22  1  0  0  0  0
  7 23  1  0  0  0  0
  8 24  1  0  0  0  0
  8 25  1  0  0  0  0
  9 26  1  0  0  0  0
  9 27  1  0  0  0  0
 10 12  1  0  0  0  0
 11 13  1  0  0  0  0
 11 14  2  0  0  0  0
 11 16  1  0  0  0  0
 12 13  2  0  0  0  0
 12 31  1  0  0  0  0
 13 32  1  0  0  0  0
 14 15  1  0  0  0  0
 14 33  1  0  0  0  0
 15 17  2  0  0  0  0
 16 18  2  0  0  0  0
 16 34  1  0  0  0  0
 17 18  1  0  0  0  0
 18 35  1  0  0  0  0
 19 37  1  0  0  0  0
 19 38  1  0  0  0  0
 19 39  1  0  0  0  0
M  END
> <PUBCHEM_COMPOUND_CID>
5281796

> <PUBCHEM_CONFORMER_RMSD>
0.8

> <PUBCHEM_CONFORMER_DIVERSEORDER>
1
35
120
23
112
102
85
99
30
3
83
10
106
36
71
57
94
82
124
104
103
37
95
16
17
12
31
121
53
113
24
4
98
101
38
70
100
80
13
45
115
33
84
29
41
88
110
105
87
2
21
67
14
19
86
107
11
108
119
123
60
117
48
15
7
8
75
43
50
56
6
64
96
5
58
89
92
59
39
111
118
63
68
73
25
32
79
34
22
47
77
42
9
72
27
28
97
116
93
66
62
122
91
20
52
46
40
51
109
76
81
69
61
49
114
44
26
78
54
74
90
18
65
125
55

> <PUBCHEM_MMFF94_PARTIAL_CHARGES>
26
1 -0.36
10 0.62
11 0.03
12 -0.14
13 -0.18
14 -0.15
15 0.08
16 -0.15
17 0.08
18 -0.15
19 0.28
2 -0.57
28 0.37
29 0.36
3 -0.53
30 0.36
31 0.15
32 0.15
33 0.15
34 0.15
35 0.15
36 0.45
4 -0.73
5 -0.99
8 0.3
9 0.27

> <PUBCHEM_EFFECTIVE_ROTOR_COUNT>
8

> <PUBCHEM_PHARMACOPHORE_FEATURES>
7
1 1 acceptor
1 2 acceptor
1 3 donor
1 4 donor
1 5 cation
1 5 donor
6 11 14 15 16 17 18 rings

> <PUBCHEM_HEAVY_ATOM_COUNT>
19

> <PUBCHEM_ATOM_DEF_STEREO_COUNT>
0

> <PUBCHEM_ATOM_UDEF_STEREO_COUNT>
0

> <PUBCHEM_BOND_DEF_STEREO_COUNT>
1

> <PUBCHEM_BOND_UDEF_STEREO_COUNT>
0

> <PUBCHEM_ISOTOPIC_ATOM_COUNT>
0

> <PUBCHEM_COMPONENT_COUNT>
1

> <PUBCHEM_CACTVS_TAUTO_COUNT>
6

> <PUBCHEM_CONFORMER_ID>
0050980400000001

> <PUBCHEM_MMFF94_ENERGY>
41.5522

> <PUBCHEM_FEATURE_SELFOVERLAP>
35.52

> <PUBCHEM_SHAPE_FINGERPRINT>
105312 117 16370730344511465133
10595046 47 18336273327701746359
10912923 1 18339936951995704755
11405975 8 18130514037299513882
12107183 9 18193564599518080971
12236239 1 18260271841162745634
12596602 18 17989203734078061713
13073987 5 18409735045327774675
13167372 99 18335986444933350976
13398642 44 17129281070834951509
13785724 45 17760933235329688898
14251764 75 17914320282823871124
15163728 17 17313652863517663679
15238133 3 18260831501118308424
1768 23 18188749735484922137
17844677 252 18340200796036557355
17959699 21 18335703823421944387
20281389 69 18187368753085049715
20621476 66 18260546753545310361
20645477 56 17560814207522508599
23402655 69 18337678508036203374
23559900 14 18411990135476863754
268830 7 18271537445954066247
2838139 119 17822301218892969209
5104073 3 17916875603807263834
543358 83 18411704283585106194
54446538 1 18408609145620748791
633830 44 18408888468740405407
7062679 6 18260828220169417537
76465 3 9151180835317264327
7970288 3 9076913236051826176
8272917 22 18335704974700812526

> <PUBCHEM_SHAPE_MULTIPOLES>
363.44
15.23
2.8
1.05
13.41
1.61
0.22
9.4
-2.63
0.79
0.04
0.4
0.38
-3.02

> <PUBCHEM_SHAPE_SELFOVERLAP>
733.364

> <PUBCHEM_SHAPE_VOLUME>
212.6

> <PUBCHEM_COORDINATE_TYPE>
2
5
10

$$$$

