6857438
  -OEChem-07051213153D

 81 84  0     1  0  0  0  0  0999 V2000
    0.0009   -0.0265   -0.0823 C   0  0  1  0  0  0  0  0  0  0  0  0
    0.9664    1.0752   -0.5710 C   0  0  2  0  0  0  0  0  0  0  0  0
    2.3494    0.9911    0.0844 C   0  0  1  0  0  0  0  0  0  0  0  0
    2.9764   -0.4006   -0.2543 C   0  0  1  0  0  0  0  0  0  0  0  0
    4.4264   -0.5513    0.3397 C   0  0  2  0  0  0  0  0  0  0  0  0
   -1.2635    0.3840   -0.8762 C   0  0  2  0  0  0  0  0  0  0  0  0
    0.5978   -1.3842   -0.4791 C   0  0  0  0  0  0  0  0  0  0  0  0
    2.0166   -1.5703    0.0893 C   0  0  0  0  0  0  0  0  0  0  0  0
    5.2799    0.6381   -0.2076 C   0  0  1  0  0  0  0  0  0  0  0  0
    0.1522    2.3571   -0.4243 C   0  0  0  0  0  0  0  0  0  0  0  0
    3.2598    2.1390   -0.3751 C   0  0  0  0  0  0  0  0  0  0  0  0
   -1.2893    1.9257   -0.7518 C   0  0  0  0  0  0  0  0  0  0  0  0
    4.6846    2.0026    0.1571 C   0  0  0  0  0  0  0  0  0  0  0  0
    5.0865   -1.8704   -0.1535 C   0  0  0  0  0  0  0  0  0  0  0  0
   -0.2671   -0.0023    1.4435 C   0  0  0  0  0  0  0  0  0  0  0  0
   -2.5739   -0.2659   -0.4556 C   0  0  1  0  0  0  0  0  0  0  0  0
    6.7592    0.5475    0.1922 C   0  0  0  0  0  0  0  0  0  0  0  0
    4.3862   -0.5745    1.8893 C   0  0  0  0  0  0  0  0  0  0  0  0
    6.5736   -1.9811    0.1953 C   0  0  0  0  0  0  0  0  0  0  0  0
    7.3723   -0.7706   -0.2726 C   0  0  0  0  0  0  0  0  0  0  0  0
   -3.7334    0.2766   -1.3176 C   0  0  0  0  0  0  0  0  0  0  0  0
   -2.4566   -1.7912   -0.5437 C   0  0  0  0  0  0  0  0  0  0  0  0
   -5.1140   -0.3557   -1.0761 C   0  0  0  0  0  0  0  0  0  0  0  0
   -5.7324   -0.1394    0.3296 C   0  0  2  0  0  0  0  0  0  0  0  0
   -7.0770   -0.9130    0.5134 C   0  0  0  0  0  0  0  0  0  0  0  0
   -5.8550    1.3727    0.6420 C   0  0  0  0  0  0  0  0  0  0  0  0
   -8.2244   -0.3803   -0.3489 C   0  0  0  0  0  0  0  0  0  0  0  0
   -6.9157   -2.4207    0.2802 C   0  0  0  0  0  0  0  0  0  0  0  0
   -6.3858    1.6883    2.0340 C   0  0  0  0  0  0  0  0  0  0  0  0
    1.1255    0.9413   -1.6545 H   0  0  0  0  0  0  0  0  0  0  0  0
    2.2325    1.0898    1.1681 H   0  0  0  0  0  0  0  0  0  0  0  0
    3.0871   -0.4311   -1.3502 H   0  0  0  0  0  0  0  0  0  0  0  0
   -1.0920    0.1504   -1.9387 H   0  0  0  0  0  0  0  0  0  0  0  0
    0.0168   -2.2340   -0.1231 H   0  0  0  0  0  0  0  0  0  0  0  0
    0.6449   -1.4712   -1.5722 H   0  0  0  0  0  0  0  0  0  0  0  0
    1.9520   -1.7056    1.1734 H   0  0  0  0  0  0  0  0  0  0  0  0
    2.4148   -2.5078   -0.3150 H   0  0  0  0  0  0  0  0  0  0  0  0
    5.2593    0.5758   -1.3072 H   0  0  0  0  0  0  0  0  0  0  0  0
    0.4964    3.1414   -1.1063 H   0  0  0  0  0  0  0  0  0  0  0  0
    0.2099    2.7553    0.5949 H   0  0  0  0  0  0  0  0  0  0  0  0
    3.2899    2.1714   -1.4719 H   0  0  0  0  0  0  0  0  0  0  0  0
    2.8501    3.1004   -0.0439 H   0  0  0  0  0  0  0  0  0  0  0  0
   -1.6249    2.3831   -1.6894 H   0  0  0  0  0  0  0  0  0  0  0  0
   -1.9610    2.2690    0.0433 H   0  0  0  0  0  0  0  0  0  0  0  0
    5.2979    2.8032   -0.2744 H   0  0  0  0  0  0  0  0  0  0  0  0
    4.6959    2.1556    1.2422 H   0  0  0  0  0  0  0  0  0  0  0  0
    4.5725   -2.7412    0.2698 H   0  0  0  0  0  0  0  0  0  0  0  0
    4.9802   -1.9453   -1.2438 H   0  0  0  0  0  0  0  0  0  0  0  0
   -0.7606    0.9202    1.7655 H   0  0  0  0  0  0  0  0  0  0  0  0
   -0.9056   -0.8344    1.7553 H   0  0  0  0  0  0  0  0  0  0  0  0
    0.6501   -0.0873    2.0324 H   0  0  0  0  0  0  0  0  0  0  0  0
   -2.8022   -0.0056    0.5847 H   0  0  0  0  0  0  0  0  0  0  0  0
    7.3177    1.3745   -0.2637 H   0  0  0  0  0  0  0  0  0  0  0  0
    6.8800    0.6568    1.2755 H   0  0  0  0  0  0  0  0  0  0  0  0
    3.8754    0.2941    2.3120 H   0  0  0  0  0  0  0  0  0  0  0  0
    3.8707   -1.4669    2.2591 H   0  0  0  0  0  0  0  0  0  0  0  0
    5.3857   -0.5914    2.3323 H   0  0  0  0  0  0  0  0  0  0  0  0
    6.9857   -2.8867   -0.2655 H   0  0  0  0  0  0  0  0  0  0  0  0
    6.6969   -2.1058    1.2771 H   0  0  0  0  0  0  0  0  0  0  0  0
    7.4223   -0.7766   -1.3688 H   0  0  0  0  0  0  0  0  0  0  0  0
    8.4039   -0.8459    0.0896 H   0  0  0  0  0  0  0  0  0  0  0  0
   -3.8144    1.3636   -1.2221 H   0  0  0  0  0  0  0  0  0  0  0  0
   -3.4853    0.1001   -2.3738 H   0  0  0  0  0  0  0  0  0  0  0  0
   -3.4285   -2.2843   -0.4669 H   0  0  0  0  0  0  0  0  0  0  0  0
   -2.0034   -2.1158   -1.4856 H   0  0  0  0  0  0  0  0  0  0  0  0
   -1.9020   -2.1991    0.3020 H   0  0  0  0  0  0  0  0  0  0  0  0
   -5.7923    0.0857   -1.8183 H   0  0  0  0  0  0  0  0  0  0  0  0
   -5.0743   -1.4169   -1.3308 H   0  0  0  0  0  0  0  0  0  0  0  0
   -5.0323   -0.5635    1.0622 H   0  0  0  0  0  0  0  0  0  0  0  0
   -7.3798   -0.8025    1.5624 H   0  0  0  0  0  0  0  0  0  0  0  0
   -6.4757    1.8737   -0.1093 H   0  0  0  0  0  0  0  0  0  0  0  0
   -4.8641    1.8356    0.5813 H   0  0  0  0  0  0  0  0  0  0  0  0
   -9.1436   -0.9428   -0.1506 H   0  0  0  0  0  0  0  0  0  0  0  0
   -8.0062   -0.4739   -1.4171 H   0  0  0  0  0  0  0  0  0  0  0  0
   -8.4389    0.6701   -0.1332 H   0  0  0  0  0  0  0  0  0  0  0  0
   -6.0559   -2.8136    0.8326 H   0  0  0  0  0  0  0  0  0  0  0  0
   -6.7905   -2.6639   -0.7794 H   0  0  0  0  0  0  0  0  0  0  0  0
   -7.8059   -2.9552    0.6306 H   0  0  0  0  0  0  0  0  0  0  0  0
   -5.8072    1.1663    2.8026 H   0  0  0  0  0  0  0  0  0  0  0  0
   -6.3129    2.7635    2.2277 H   0  0  0  0  0  0  0  0  0  0  0  0
   -7.4377    1.4084    2.1386 H   0  0  0  0  0  0  0  0  0  0  0  0
  1  2  1  0  0  0  0
  1  6  1  0  0  0  0
  1  7  1  0  0  0  0
  1 15  1  0  0  0  0
  2  3  1  0  0  0  0
  2 10  1  0  0  0  0
  2 30  1  0  0  0  0
  3  4  1  0  0  0  0
  3 11  1  0  0  0  0
  3 31  1  0  0  0  0
  4  5  1  0  0  0  0
  4  8  1  0  0  0  0
  4 32  1  0  0  0  0
  5  9  1  0  0  0  0
  5 14  1  0  0  0  0
  5 18  1  0  0  0  0
  6 12  1  0  0  0  0
  6 16  1  0  0  0  0
  6 33  1  0  0  0  0
  7  8  1  0  0  0  0
  7 34  1  0  0  0  0
  7 35  1  0  0  0  0
  8 36  1  0  0  0  0
  8 37  1  0  0  0  0
  9 13  1  0  0  0  0
  9 17  1  0  0  0  0
  9 38  1  0  0  0  0
 10 12  1  0  0  0  0
 10 39  1  0  0  0  0
 10 40  1  0  0  0  0
 11 13  1  0  0  0  0
 11 41  1  0  0  0  0
 11 42  1  0  0  0  0
 12 43  1  0  0  0  0
 12 44  1  0  0  0  0
 13 45  1  0  0  0  0
 13 46  1  0  0  0  0
 14 19  1  0  0  0  0
 14 47  1  0  0  0  0
 14 48  1  0  0  0  0
 15 49  1  0  0  0  0
 15 50  1  0  0  0  0
 15 51  1  0  0  0  0
 16 21  1  0  0  0  0
 16 22  1  0  0  0  0
 16 52  1  0  0  0  0
 17 20  1  0  0  0  0
 17 53  1  0  0  0  0
 17 54  1  0  0  0  0
 18 55  1  0  0  0  0
 18 56  1  0  0  0  0
 18 57  1  0  0  0  0
 19 20  1  0  0  0  0
 19 58  1  0  0  0  0
 19 59  1  0  0  0  0
 20 60  1  0  0  0  0
 20 61  1  0  0  0  0
 21 23  1  0  0  0  0
 21 62  1  0  0  0  0
 21 63  1  0  0  0  0
 22 64  1  0  0  0  0
 22 65  1  0  0  0  0
 22 66  1  0  0  0  0
 23 24  1  0  0  0  0
 23 67  1  0  0  0  0
 23 68  1  0  0  0  0
 24 25  1  0  0  0  0
 24 26  1  0  0  0  0
 24 69  1  0  0  0  0
 25 27  1  0  0  0  0
 25 28  1  0  0  0  0
 25 70  1  0  0  0  0
 26 29  1  0  0  0  0
 26 71  1  0  0  0  0
 26 72  1  0  0  0  0
 27 73  1  0  0  0  0
 27 74  1  0  0  0  0
 27 75  1  0  0  0  0
 28 76  1  0  0  0  0
 28 77  1  0  0  0  0
 28 78  1  0  0  0  0
 29 79  1  0  0  0  0
 29 80  1  0  0  0  0
 29 81  1  0  0  0  0
M  END
> <PUBCHEM_COMPOUND_CID>
6857438

> <PUBCHEM_CONFORMER_RMSD>
1

> <PUBCHEM_CONFORMER_DIVERSEORDER>
1
7
5
8
4
3
2
6

> <PUBCHEM_MMFF94_PARTIAL_CHARGES>
0

> <PUBCHEM_EFFECTIVE_ROTOR_COUNT>
8.2

> <PUBCHEM_PHARMACOPHORE_FEATURES>
8
1 22 hydrophobe
1 29 hydrophobe
3 25 27 28 hydrophobe
5 1 2 6 10 12 rings
6 1 2 3 4 7 8 rings
6 16 21 23 24 25 26 hydrophobe
6 3 4 5 9 11 13 rings
6 5 9 14 17 19 20 rings

> <PUBCHEM_HEAVY_ATOM_COUNT>
29

> <PUBCHEM_ATOM_DEF_STEREO_COUNT>
8

> <PUBCHEM_ATOM_UDEF_STEREO_COUNT>
1

> <PUBCHEM_BOND_DEF_STEREO_COUNT>
0

> <PUBCHEM_BOND_UDEF_STEREO_COUNT>
0

> <PUBCHEM_ISOTOPIC_ATOM_COUNT>
0

> <PUBCHEM_COMPONENT_COUNT>
1

> <PUBCHEM_CACTVS_TAUTO_COUNT>
1

> <PUBCHEM_CONFORMER_ID>
0068A2DE00000001

> <PUBCHEM_MMFF94_ENERGY>
92.602

> <PUBCHEM_FEATURE_SELFOVERLAP>
40.692

> <PUBCHEM_SHAPE_FINGERPRINT>
10076449 9 18201715176667650132
10299344 5 18335138691488090423
10906281 52 18338503188505543814
11315181 36 18411135828184887179
11456790 92 17967823760461744042
11578080 2 17170416009181128458
11963148 33 18273225196039985091
12166972 35 18410573967982865688
12236239 1 18040435498926045089
12516196 113 18411421704327001332
12596602 18 18334010588880106481
13533116 47 18260834783080009872
13685833 64 18342459244211339894
13782708 43 17418382397876913715
14251764 18 18261110764445246525
14849402 71 18263078825513540897
14856354 85 17385446493123571893
14955137 171 18271241630261110413
15021287 119 18272647927413496229
15131766 46 14853891265872776896
15142383 8 14418137340079281490
15183329 4 18408895031175483927
15352257 5 18131632270747651275
15461852 350 16878235216879560549
15849732 13 18409167701775361823
17492 89 17984433094369166242
20028762 73 18410855468935147307
21130935 74 18408322198281365915
21150785 3 12967128311190819511
21267235 1 18411981382179741220
21781051 124 17846201229451211538
21792934 111 18337121123875140009
23522609 53 18197188461041925013
23559900 14 18340496573744727316
23569943 247 17986397899793527002
2838139 119 7853568011584894099
3004659 81 18131356302045166380
3178227 256 18410575084964110066
335352 9 18411419492540085782
34797466 226 16487248873051456310
350125 39 18408324410679828260
4073 2 17987233339604186578
4093350 32 17168141273952308934
465052 167 18410576189081773006
5104073 3 18339086994756701867
9996256 80 18342739607229182261
999808 66 17988917856654754083

> <PUBCHEM_SHAPE_MULTIPOLES>
596.81
21.92
2.31
1.2
16.66
0.19
-0.46
-6.28
-3.76
-0.3
0
1.03
0.22
-0.94

> <PUBCHEM_SHAPE_SELFOVERLAP>
1220.469

> <PUBCHEM_SHAPE_VOLUME>
342.9

> <PUBCHEM_COORDINATE_TYPE>
2
5
10

$$$$

