242343
  -OEChem-07051213073D

 46 49  0     1  0  0  0  0  0999 V2000
    3.7379   -0.8704    0.6316 O   0  0  0  0  0  0  0  0  0  0  0  0
    5.5745    0.1725    1.4129 O   0  0  0  0  0  0  0  0  0  0  0  0
   -5.8818    0.3907    0.9174 O   0  0  0  0  0  0  0  0  0  0  0  0
   -0.4624   -0.5300    0.0898 C   0  0  1  0  0  0  0  0  0  0  0  0
    0.4160    0.5804   -0.5655 C   0  0  2  0  0  0  0  0  0  0  0  0
    1.8458    0.5383    0.0439 C   0  0  1  0  0  0  0  0  0  0  0  0
   -1.9693   -0.4379   -0.3515 C   0  0  1  0  0  0  0  0  0  0  0  0
    2.5142   -0.8389   -0.1505 C   0  0  2  0  0  0  0  0  0  0  0  0
    0.1879   -1.9108   -0.1153 C   0  0  0  0  0  0  0  0  0  0  0  0
    1.6121   -1.9379    0.4387 C   0  0  0  0  0  0  0  0  0  0  0  0
    2.7809    1.6348   -0.4738 C   0  0  0  0  0  0  0  0  0  0  0  0
   -2.8060   -1.4820    0.4371 C   0  0  0  0  0  0  0  0  0  0  0  0
   -2.4939    0.9665   -0.0255 C   0  0  0  0  0  0  0  0  0  0  0  0
   -0.2619    1.9233   -0.4371 C   0  0  0  0  0  0  0  0  0  0  0  0
   -2.1365   -0.6937   -1.8682 C   0  0  0  0  0  0  0  0  0  0  0  0
    2.8728   -1.1935   -1.6049 C   0  0  0  0  0  0  0  0  0  0  0  0
   -1.5674    2.0764   -0.1783 C   0  0  0  0  0  0  0  0  0  0  0  0
    4.2531    1.3810   -0.1690 C   0  0  0  0  0  0  0  0  0  0  0  0
   -4.3101   -1.2964    0.2816 C   0  0  0  0  0  0  0  0  0  0  0  0
   -3.7440    1.2116    0.4016 C   0  0  0  0  0  0  0  0  0  0  0  0
    4.5687    0.1956    0.7072 C   0  0  0  0  0  0  0  0  0  0  0  0
   -4.7307    0.1203    0.5779 C   0  0  0  0  0  0  0  0  0  0  0  0
   -0.4480   -0.3475    1.1777 H   0  0  0  0  0  0  0  0  0  0  0  0
    0.5093    0.3873   -1.6414 H   0  0  0  0  0  0  0  0  0  0  0  0
    1.7529    0.7124    1.1277 H   0  0  0  0  0  0  0  0  0  0  0  0
    0.1968   -2.1805   -1.1764 H   0  0  0  0  0  0  0  0  0  0  0  0
   -0.3836   -2.6873    0.4031 H   0  0  0  0  0  0  0  0  0  0  0  0
    1.5745   -1.8287    1.5316 H   0  0  0  0  0  0  0  0  0  0  0  0
    2.0572   -2.9268    0.2685 H   0  0  0  0  0  0  0  0  0  0  0  0
    2.4989    2.5986   -0.0323 H   0  0  0  0  0  0  0  0  0  0  0  0
    2.6613    1.7606   -1.5576 H   0  0  0  0  0  0  0  0  0  0  0  0
   -2.5579   -1.4158    1.5057 H   0  0  0  0  0  0  0  0  0  0  0  0
   -2.5560   -2.5013    0.1204 H   0  0  0  0  0  0  0  0  0  0  0  0
    0.3281    2.8220   -0.5889 H   0  0  0  0  0  0  0  0  0  0  0  0
   -3.1726   -0.5458   -2.1934 H   0  0  0  0  0  0  0  0  0  0  0  0
   -1.5260   -0.0182   -2.4756 H   0  0  0  0  0  0  0  0  0  0  0  0
   -1.8594   -1.7196   -2.1323 H   0  0  0  0  0  0  0  0  0  0  0  0
    1.9993   -1.2130   -2.2618 H   0  0  0  0  0  0  0  0  0  0  0  0
    3.5993   -0.5000   -2.0366 H   0  0  0  0  0  0  0  0  0  0  0  0
    3.3498   -2.1800   -1.6480 H   0  0  0  0  0  0  0  0  0  0  0  0
   -1.9624    3.0854   -0.0875 H   0  0  0  0  0  0  0  0  0  0  0  0
    4.6615    2.2719    0.3240 H   0  0  0  0  0  0  0  0  0  0  0  0
    4.8127    1.2560   -1.1031 H   0  0  0  0  0  0  0  0  0  0  0  0
   -4.8242   -1.9621    0.9841 H   0  0  0  0  0  0  0  0  0  0  0  0
   -4.6424   -1.5518   -0.7296 H   0  0  0  0  0  0  0  0  0  0  0  0
   -4.0903    2.2150    0.6302 H   0  0  0  0  0  0  0  0  0  0  0  0
  1  8  1  0  0  0  0
  1 21  1  0  0  0  0
  2 21  2  0  0  0  0
  3 22  2  0  0  0  0
  4  5  1  0  0  0  0
  4  7  1  0  0  0  0
  4  9  1  0  0  0  0
  4 23  1  0  0  0  0
  5  6  1  0  0  0  0
  5 14  1  0  0  0  0
  5 24  1  0  0  0  0
  6  8  1  0  0  0  0
  6 11  1  0  0  0  0
  6 25  1  0  0  0  0
  7 12  1  0  0  0  0
  7 13  1  0  0  0  0
  7 15  1  0  0  0  0
  8 10  1  0  0  0  0
  8 16  1  0  0  0  0
  9 10  1  0  0  0  0
  9 26  1  0  0  0  0
  9 27  1  0  0  0  0
 10 28  1  0  0  0  0
 10 29  1  0  0  0  0
 11 18  1  0  0  0  0
 11 30  1  0  0  0  0
 11 31  1  0  0  0  0
 12 19  1  0  0  0  0
 12 32  1  0  0  0  0
 12 33  1  0  0  0  0
 13 17  1  0  0  0  0
 13 20  2  0  0  0  0
 14 17  2  0  0  0  0
 14 34  1  0  0  0  0
 15 35  1  0  0  0  0
 15 36  1  0  0  0  0
 15 37  1  0  0  0  0
 16 38  1  0  0  0  0
 16 39  1  0  0  0  0
 16 40  1  0  0  0  0
 17 41  1  0  0  0  0
 18 21  1  0  0  0  0
 18 42  1  0  0  0  0
 18 43  1  0  0  0  0
 19 22  1  0  0  0  0
 19 44  1  0  0  0  0
 19 45  1  0  0  0  0
 20 22  1  0  0  0  0
 20 46  1  0  0  0  0
M  END
> <PUBCHEM_COMPOUND_CID>
242343

> <PUBCHEM_CONFORMER_RMSD>
0.6

> <PUBCHEM_CONFORMER_DIVERSEORDER>
1

> <PUBCHEM_MMFF94_PARTIAL_CHARGES>
17
1 -0.43
13 -0.14
14 -0.29
17 -0.15
18 0.06
19 0.06
2 -0.57
20 -0.14
21 0.66
22 0.49
3 -0.57
34 0.15
41 0.15
46 0.15
5 0.14
7 0.14
8 0.28

> <PUBCHEM_EFFECTIVE_ROTOR_COUNT>
1.4

> <PUBCHEM_PHARMACOPHORE_FEATURES>
6
1 2 acceptor
1 3 acceptor
6 1 6 8 11 18 21 rings
6 4 5 6 8 9 10 rings
6 4 5 7 13 14 17 rings
6 7 12 13 19 20 22 rings

> <PUBCHEM_HEAVY_ATOM_COUNT>
22

> <PUBCHEM_ATOM_DEF_STEREO_COUNT>
5

> <PUBCHEM_ATOM_UDEF_STEREO_COUNT>
0

> <PUBCHEM_BOND_DEF_STEREO_COUNT>
0

> <PUBCHEM_BOND_UDEF_STEREO_COUNT>
0

> <PUBCHEM_ISOTOPIC_ATOM_COUNT>
0

> <PUBCHEM_COMPONENT_COUNT>
1

> <PUBCHEM_CACTVS_TAUTO_COUNT>
2

> <PUBCHEM_CONFORMER_ID>
0003B2A700000001

> <PUBCHEM_MMFF94_ENERGY>
61.2835

> <PUBCHEM_FEATURE_SELFOVERLAP>
30.502

> <PUBCHEM_SHAPE_FINGERPRINT>
10967382 1 18412542110986301789
11132069 177 18410290332647433421
12107183 9 17763745790272464393
12236239 1 18040154024519150599
12403814 3 18334582347595264541
12507560 40 18187362189779071629
12633257 1 17988639675363928611
13140716 1 18269273461001384882
13214271 11 18409451379969964343
13224815 77 18412826884524250116
13583140 156 16773257135559782566
13675066 3 18187363237735196054
14178342 30 18197783421560085088
14223421 5 18269273645753628351
14341114 176 18341895225280495418
14341114 328 18412821365464946296
14787075 74 18337953389810586937
14790565 3 18124583194022335645
15196674 1 18412261726947095465
15536298 74 18334287695189339422
15788980 27 16487262062109914919
16945 1 18196934585260294189
17349148 13 17632579348905149754
17980427 23 18189630354120210164
1813 80 17203319027058226701
19050596 39 18411983542094837516
200 152 18339654351869067911
20510252 161 18188770677281071137
21267235 1 18341603841281547658
21421861 104 18059298793511205906
21637258 2 15841260460147540563
22182313 1 18265898132192605548
22854114 59 18412542124113835787
23402539 116 18336838497773113710
23557571 272 18335691789050292028
23559900 14 18264485277073492854
26918003 58 17989489610768496377
296302 2 15864070970472557039
3286 77 13039189191126759518
34797466 226 16371000746514002785
34934 24 18410859888882970287
350125 39 18413107234874195964
3545911 37 18259980492045327636
3680242 22 18271804674270828184
392239 28 18200865202265420771
42630746 31 18408600374706745199
5104073 3 18266458891644043409
9709674 26 18411130346630763455

> <PUBCHEM_SHAPE_MULTIPOLES>
435.14
10.28
2.06
1.11
0.55
0.13
0.33
0.84
-3.77
-0.04
0.13
-0.32
-0.23
-0.07

> <PUBCHEM_SHAPE_SELFOVERLAP>
940.723

> <PUBCHEM_SHAPE_VOLUME>
233.9

> <PUBCHEM_COORDINATE_TYPE>
2
5
10

$$$$

