637039
  -OEChem-07051212552D

 83 83  0     0  0  0  0  0  0999 V2000
   13.3923    8.9400    0.0000 O   0  0  0  0  0  0  0  0  0  0  0  0
   11.6603    8.9400    0.0000 O   0  0  0  0  0  0  0  0  0  0  0  0
    3.0000   -8.0600    0.0000 C   0  0  0  0  0  0  0  0  0  0  0  0
    3.0000   -9.0600    0.0000 C   0  0  0  0  0  0  0  0  0  0  0  0
    3.8660   -9.5600    0.0000 C   0  0  0  0  0  0  0  0  0  0  0  0
    3.8660   -7.5600    0.0000 C   0  0  0  0  0  0  0  0  0  0  0  0
    4.7320   -9.0600    0.0000 C   0  0  0  0  0  0  0  0  0  0  0  0
    4.7320   -8.0600    0.0000 C   0  0  0  0  0  0  0  0  0  0  0  0
    2.0000   -8.0600    0.0000 C   0  0  0  0  0  0  0  0  0  0  0  0
    2.5000   -7.1940    0.0000 C   0  0  0  0  0  0  0  0  0  0  0  0
    3.8660   -6.5600    0.0000 C   0  0  0  0  0  0  0  0  0  0  0  0
    5.5981   -7.5600    0.0000 C   0  0  0  0  0  0  0  0  0  0  0  0
    4.7320   -6.0600    0.0000 C   0  0  0  0  0  0  0  0  0  0  0  0
    4.7320   -5.0600    0.0000 C   0  0  0  0  0  0  0  0  0  0  0  0
    3.8660   -4.5600    0.0000 C   0  0  0  0  0  0  0  0  0  0  0  0
    5.5981   -4.5600    0.0000 C   0  0  0  0  0  0  0  0  0  0  0  0
    5.5981   -3.5600    0.0000 C   0  0  0  0  0  0  0  0  0  0  0  0
    6.4641   -3.0600    0.0000 C   0  0  0  0  0  0  0  0  0  0  0  0
    6.4641   -2.0600    0.0000 C   0  0  0  0  0  0  0  0  0  0  0  0
    5.5981   -1.5600    0.0000 C   0  0  0  0  0  0  0  0  0  0  0  0
    7.3301   -1.5600    0.0000 C   0  0  0  0  0  0  0  0  0  0  0  0
    7.3301   -0.5600    0.0000 C   0  0  0  0  0  0  0  0  0  0  0  0
    8.1962   -0.0600    0.0000 C   0  0  0  0  0  0  0  0  0  0  0  0
    8.1962    0.9400    0.0000 C   0  0  0  0  0  0  0  0  0  0  0  0
    9.0622    1.4400    0.0000 C   0  0  0  0  0  0  0  0  0  0  0  0
    9.0622    2.4400    0.0000 C   0  0  0  0  0  0  0  0  0  0  0  0
    9.9282    0.9400    0.0000 C   0  0  0  0  0  0  0  0  0  0  0  0
   10.7942    4.4400    0.0000 C   0  0  0  0  0  0  0  0  0  0  0  0
    9.9282    2.9400    0.0000 C   0  0  0  0  0  0  0  0  0  0  0  0
    9.9282    3.9400    0.0000 C   0  0  0  0  0  0  0  0  0  0  0  0
   10.7942    5.4400    0.0000 C   0  0  0  0  0  0  0  0  0  0  0  0
   11.6603    3.9400    0.0000 C   0  0  0  0  0  0  0  0  0  0  0  0
   11.6603    5.9400    0.0000 C   0  0  0  0  0  0  0  0  0  0  0  0
   11.6603    6.9400    0.0000 C   0  0  0  0  0  0  0  0  0  0  0  0
   12.5263    7.4400    0.0000 C   0  0  0  0  0  0  0  0  0  0  0  0
   13.3923    6.9400    0.0000 C   0  0  0  0  0  0  0  0  0  0  0  0
   12.5263    8.4400    0.0000 C   0  0  0  0  0  0  0  0  0  0  0  0
    2.3894   -8.9523    0.0000 H   0  0  0  0  0  0  0  0  0  0  0  0
    2.7880   -9.6426    0.0000 H   0  0  0  0  0  0  0  0  0  0  0  0
    3.4675  -10.0349    0.0000 H   0  0  0  0  0  0  0  0  0  0  0  0
    4.2646  -10.0349    0.0000 H   0  0  0  0  0  0  0  0  0  0  0  0
    4.9441   -9.6426    0.0000 H   0  0  0  0  0  0  0  0  0  0  0  0
    5.3426   -8.9523    0.0000 H   0  0  0  0  0  0  0  0  0  0  0  0
    2.0000   -7.4400    0.0000 H   0  0  0  0  0  0  0  0  0  0  0  0
    1.3800   -8.0600    0.0000 H   0  0  0  0  0  0  0  0  0  0  0  0
    2.0000   -8.6800    0.0000 H   0  0  0  0  0  0  0  0  0  0  0  0
    3.0369   -6.8840    0.0000 H   0  0  0  0  0  0  0  0  0  0  0  0
    2.1900   -6.6570    0.0000 H   0  0  0  0  0  0  0  0  0  0  0  0
    1.9631   -7.5040    0.0000 H   0  0  0  0  0  0  0  0  0  0  0  0
    3.3291   -6.2500    0.0000 H   0  0  0  0  0  0  0  0  0  0  0  0
    5.9081   -8.0969    0.0000 H   0  0  0  0  0  0  0  0  0  0  0  0
    6.1350   -7.2500    0.0000 H   0  0  0  0  0  0  0  0  0  0  0  0
    5.2881   -7.0231    0.0000 H   0  0  0  0  0  0  0  0  0  0  0  0
    5.2690   -6.3700    0.0000 H   0  0  0  0  0  0  0  0  0  0  0  0
    4.1760   -4.0231    0.0000 H   0  0  0  0  0  0  0  0  0  0  0  0
    3.3291   -4.2500    0.0000 H   0  0  0  0  0  0  0  0  0  0  0  0
    3.5560   -5.0969    0.0000 H   0  0  0  0  0  0  0  0  0  0  0  0
    6.1350   -4.8700    0.0000 H   0  0  0  0  0  0  0  0  0  0  0  0
    5.0611   -3.2500    0.0000 H   0  0  0  0  0  0  0  0  0  0  0  0
    7.0010   -3.3700    0.0000 H   0  0  0  0  0  0  0  0  0  0  0  0
    5.9081   -1.0231    0.0000 H   0  0  0  0  0  0  0  0  0  0  0  0
    5.0611   -1.2500    0.0000 H   0  0  0  0  0  0  0  0  0  0  0  0
    5.2881   -2.0969    0.0000 H   0  0  0  0  0  0  0  0  0  0  0  0
    7.8671   -1.8700    0.0000 H   0  0  0  0  0  0  0  0  0  0  0  0
    6.7932   -0.2500    0.0000 H   0  0  0  0  0  0  0  0  0  0  0  0
    8.7331   -0.3700    0.0000 H   0  0  0  0  0  0  0  0  0  0  0  0
    7.6592    1.2500    0.0000 H   0  0  0  0  0  0  0  0  0  0  0  0
    8.5252    2.7500    0.0000 H   0  0  0  0  0  0  0  0  0  0  0  0
    9.6182    0.4031    0.0000 H   0  0  0  0  0  0  0  0  0  0  0  0
   10.4651    0.6300    0.0000 H   0  0  0  0  0  0  0  0  0  0  0  0
   10.2382    1.4769    0.0000 H   0  0  0  0  0  0  0  0  0  0  0  0
   10.4651    2.6300    0.0000 H   0  0  0  0  0  0  0  0  0  0  0  0
    9.3913    4.2500    0.0000 H   0  0  0  0  0  0  0  0  0  0  0  0
   10.2573    5.7500    0.0000 H   0  0  0  0  0  0  0  0  0  0  0  0
   11.3503    3.4031    0.0000 H   0  0  0  0  0  0  0  0  0  0  0  0
   12.1972    3.6300    0.0000 H   0  0  0  0  0  0  0  0  0  0  0  0
   11.9703    4.4769    0.0000 H   0  0  0  0  0  0  0  0  0  0  0  0
   12.1972    5.6300    0.0000 H   0  0  0  0  0  0  0  0  0  0  0  0
   11.1233    7.2500    0.0000 H   0  0  0  0  0  0  0  0  0  0  0  0
   13.0823    6.4031    0.0000 H   0  0  0  0  0  0  0  0  0  0  0  0
   13.9292    6.6300    0.0000 H   0  0  0  0  0  0  0  0  0  0  0  0
   13.7023    7.4769    0.0000 H   0  0  0  0  0  0  0  0  0  0  0  0
   13.3923    9.5600    0.0000 H   0  0  0  0  0  0  0  0  0  0  0  0
  1 37  1  0  0  0  0
  1 83  1  0  0  0  0
  2 37  2  0  0  0  0
  3  4  1  0  0  0  0
  3  6  1  0  0  0  0
  3  9  1  0  0  0  0
  3 10  1  0  0  0  0
  4  5  1  0  0  0  0
  4 38  1  0  0  0  0
  4 39  1  0  0  0  0
  5  7  1  0  0  0  0
  5 40  1  0  0  0  0
  5 41  1  0  0  0  0
  6  8  2  0  0  0  0
  6 11  1  0  0  0  0
  7  8  1  0  0  0  0
  7 42  1  0  0  0  0
  7 43  1  0  0  0  0
  8 12  1  0  0  0  0
  9 44  1  0  0  0  0
  9 45  1  0  0  0  0
  9 46  1  0  0  0  0
 10 47  1  0  0  0  0
 10 48  1  0  0  0  0
 10 49  1  0  0  0  0
 11 13  2  0  0  0  0
 11 50  1  0  0  0  0
 12 51  1  0  0  0  0
 12 52  1  0  0  0  0
 12 53  1  0  0  0  0
 13 14  1  0  0  0  0
 13 54  1  0  0  0  0
 14 15  1  0  0  0  0
 14 16  2  0  0  0  0
 15 55  1  0  0  0  0
 15 56  1  0  0  0  0
 15 57  1  0  0  0  0
 16 17  1  0  0  0  0
 16 58  1  0  0  0  0
 17 18  2  0  0  0  0
 17 59  1  0  0  0  0
 18 19  1  0  0  0  0
 18 60  1  0  0  0  0
 19 20  1  0  0  0  0
 19 21  2  0  0  0  0
 20 61  1  0  0  0  0
 20 62  1  0  0  0  0
 20 63  1  0  0  0  0
 21 22  1  0  0  0  0
 21 64  1  0  0  0  0
 22 23  2  0  0  0  0
 22 65  1  0  0  0  0
 23 24  1  0  0  0  0
 23 66  1  0  0  0  0
 24 25  2  0  0  0  0
 24 67  1  0  0  0  0
 25 26  1  0  0  0  0
 25 27  1  0  0  0  0
 26 29  2  0  0  0  0
 26 68  1  0  0  0  0
 27 69  1  0  0  0  0
 27 70  1  0  0  0  0
 27 71  1  0  0  0  0
 28 30  2  0  0  0  0
 28 31  1  0  0  0  0
 28 32  1  0  0  0  0
 29 30  1  0  0  0  0
 29 72  1  0  0  0  0
 30 73  1  0  0  0  0
 31 33  2  0  0  0  0
 31 74  1  0  0  0  0
 32 75  1  0  0  0  0
 32 76  1  0  0  0  0
 32 77  1  0  0  0  0
 33 34  1  0  0  0  0
 33 78  1  0  0  0  0
 34 35  2  0  0  0  0
 34 79  1  0  0  0  0
 35 36  1  0  0  0  0
 35 37  1  0  0  0  0
 36 80  1  0  0  0  0
 36 81  1  0  0  0  0
 36 82  1  0  0  0  0
M  END
> <PUBCHEM_COMPOUND_CID>
637039

> <PUBCHEM_COMPOUND_CANONICALIZED>
1

> <PUBCHEM_CACTVS_COMPLEXITY>
1130

> <PUBCHEM_CACTVS_HBOND_ACCEPTOR>
2

> <PUBCHEM_CACTVS_HBOND_DONOR>
1

> <PUBCHEM_CACTVS_ROTATABLE_BOND>
11

> <PUBCHEM_CACTVS_SUBSKEYS>
AAADcfB8MAAAAAAAAAAAAAAAAAAAAAAAAAAgAAAAAAAAAAAAAAAAGgAACAAADgCAgAACCAAAAgCIAiDSCAAAAAAgAAAICAEAAEgIBAIAAQAAUAAAgAAIkYMAgMAPAAAAAAAAAAAAAAAAAAAAAAAAAAAAAA==

> <PUBCHEM_IUPAC_OPENEYE_NAME>
(2E,4E,6E,8E,10E,12E,14E,16E,18E,20E)-2,6,10,15,19-pentamethyl-21-(2,6,6-trimethylcyclohexen-1-yl)henicosa-2,4,6,8,10,12,14,16,18,20-decaenoic acid

> <PUBCHEM_IUPAC_CAS_NAME>
(2E,4E,6E,8E,10E,12E,14E,16E,18E,20E)-2,6,10,15,19-pentamethyl-21-(2,6,6-trimethyl-1-cyclohexenyl)heneicosa-2,4,6,8,10,12,14,16,18,20-decaenoic acid

> <PUBCHEM_IUPAC_NAME>
(2E,4E,6E,8E,10E,12E,14E,16E,18E,20E)-2,6,10,15,19-pentamethyl-21-(2,6,6-trimethylcyclohexen-1-yl)henicosa-2,4,6,8,10,12,14,16,18,20-decaenoic acid

> <PUBCHEM_IUPAC_SYSTEMATIC_NAME>
(2E,4E,6E,8E,10E,12E,14E,16E,18E,20E)-2,6,10,15,19-pentamethyl-21-(2,6,6-trimethylcyclohexen-1-yl)henicosa-2,4,6,8,10,12,14,16,18,20-decaenoic acid

> <PUBCHEM_IUPAC_TRADITIONAL_NAME>
(2E,4E,6E,8E,10E,12E,14E,16E,18E,20E)-2,6,10,15,19-pentamethyl-21-(2,6,6-trimethylcyclohexen-1-yl)heneicosa-2,4,6,8,10,12,14,16,18,20-decaenoic acid

> <PUBCHEM_IUPAC_INCHI>
InChI=1S/C35H46O2/c1-27(17-11-19-29(3)21-13-22-32(6)34(36)37)15-9-10-16-28(2)18-12-20-30(4)24-25-33-31(5)23-14-26-35(33,7)8/h9-13,15-22,24-25H,14,23,26H2,1-8H3,(H,36,37)/b10-9+,17-11+,18-12+,21-13+,25-24+,27-15+,28-16+,29-19+,30-20+,32-22+

> <PUBCHEM_IUPAC_INCHIKEY>
UGJYMKZYSUMAKJ-ZGMBEONKSA-N

> <PUBCHEM_XLOGP3>
11.4

> <PUBCHEM_EXACT_MASS>
498.349781

> <PUBCHEM_MOLECULAR_FORMULA>
C35H46O2

> <PUBCHEM_MOLECULAR_WEIGHT>
498.73854

> <PUBCHEM_OPENEYE_CAN_SMILES>
CC1=C(C(CCC1)(C)C)C=CC(=CC=CC(=CC=CC=C(C)C=CC=C(C)C=CC=C(C)C(=O)O)C)C

> <PUBCHEM_OPENEYE_ISO_SMILES>
CC1=C(C(CCC1)(C)C)/C=C/C(=C/C=C/C(=C/C=C/C=C(\C)/C=C/C=C(\C)/C=C/C=C(\C)/C(=O)O)/C)/C

> <PUBCHEM_CACTVS_TPSA>
37.3

> <PUBCHEM_MONOISOTOPIC_WEIGHT>
498.349781

> <PUBCHEM_TOTAL_CHARGE>
0

> <PUBCHEM_HEAVY_ATOM_COUNT>
37

> <PUBCHEM_ATOM_DEF_STEREO_COUNT>
0

> <PUBCHEM_ATOM_UDEF_STEREO_COUNT>
0

> <PUBCHEM_BOND_DEF_STEREO_COUNT>
10

> <PUBCHEM_BOND_UDEF_STEREO_COUNT>
0

> <PUBCHEM_ISOTOPIC_ATOM_COUNT>
0

> <PUBCHEM_COMPONENT_COUNT>
1

> <PUBCHEM_CACTVS_TAUTO_COUNT>
1

> <PUBCHEM_COORDINATE_TYPE>
1
5
255

$$$$

