3392731
  -OEChem-07051213073D

 81 83  0     0  0  0  0  0  0999 V2000
    6.0408   -0.9094    1.4062 S   0  0  0  0  0  0  0  0  0  0  0  0
    1.5237   -0.0636   -1.3160 O   0  0  0  0  0  0  0  0  0  0  0  0
    4.7589    1.0742   -1.4703 O   0  0  0  0  0  0  0  0  0  0  0  0
    6.6929   -0.0913   -1.5984 O   0  0  0  0  0  0  0  0  0  0  0  0
    0.0084    1.0698   -0.0097 N   0  0  0  0  0  0  0  0  0  0  0  0
   -0.3869   -1.1912   -0.5583 N   0  0  0  0  0  0  0  0  0  0  0  0
   -6.5551   -0.1809    0.0744 C   0  0  0  0  0  0  0  0  0  0  0  0
   -7.0787   -1.5861    0.4009 C   0  0  0  0  0  0  0  0  0  0  0  0
   -7.6158    0.6368   -0.6750 C   0  0  0  0  0  0  0  0  0  0  0  0
   -5.2635   -0.2615   -0.7370 C   0  0  0  0  0  0  0  0  0  0  0  0
   -8.3988   -1.5321    1.1665 C   0  0  0  0  0  0  0  0  0  0  0  0
   -8.9349    0.6871    0.0925 C   0  0  0  0  0  0  0  0  0  0  0  0
   -9.4476   -0.7112    0.4228 C   0  0  0  0  0  0  0  0  0  0  0  0
   -4.0814   -0.6570    0.1431 C   0  0  0  0  0  0  0  0  0  0  0  0
    0.7352    2.3200   -0.0202 C   0  0  0  0  0  0  0  0  0  0  0  0
   -2.7852   -0.7057   -0.6658 C   0  0  0  0  0  0  0  0  0  0  0  0
    0.5305    3.0873    1.2904 C   0  0  0  0  0  0  0  0  0  0  0  0
    0.3440    3.1741   -1.2308 C   0  0  0  0  0  0  0  0  0  0  0  0
   -0.8769    3.6715    1.4125 C   0  0  0  0  0  0  0  0  0  0  0  0
   -1.0630    3.7582   -1.1046 C   0  0  0  0  0  0  0  0  0  0  0  0
   -1.2387    4.5264    0.2018 C   0  0  0  0  0  0  0  0  0  0  0  0
   -1.6072   -1.1371    0.1994 C   0  0  0  0  0  0  0  0  0  0  0  0
    0.4675   -0.0628   -0.6764 C   0  0  0  0  0  0  0  0  0  0  0  0
   -0.0674   -2.4696   -1.2037 C   0  0  0  0  0  0  0  0  0  0  0  0
    0.7589   -3.3883   -0.3069 C   0  0  0  0  0  0  0  0  0  0  0  0
    2.0696   -2.7729    0.1178 C   0  0  0  0  0  0  0  0  0  0  0  0
    2.1385   -2.0191    1.2894 C   0  0  0  0  0  0  0  0  0  0  0  0
    3.2121   -2.9577   -0.6608 C   0  0  0  0  0  0  0  0  0  0  0  0
    3.3498   -1.4502    1.6825 C   0  0  0  0  0  0  0  0  0  0  0  0
    4.4234   -2.3888   -0.2679 C   0  0  0  0  0  0  0  0  0  0  0  0
    4.4923   -1.6351    0.9039 C   0  0  0  0  0  0  0  0  0  0  0  0
    5.9720    0.7095    0.5884 C   0  0  0  0  0  0  0  0  0  0  0  0
    4.7587    1.4907    1.0973 C   0  0  0  0  0  0  0  0  0  0  0  0
    7.2617    1.4636    0.9322 C   0  0  0  0  0  0  0  0  0  0  0  0
    5.8624    0.5024   -0.9203 C   0  0  0  0  0  0  0  0  0  0  0  0
   -6.3490    0.3401    1.0198 H   0  0  0  0  0  0  0  0  0  0  0  0
   -6.3542   -2.1421    1.0051 H   0  0  0  0  0  0  0  0  0  0  0  0
   -7.2248   -2.1563   -0.5254 H   0  0  0  0  0  0  0  0  0  0  0  0
   -7.7909    0.1999   -1.6665 H   0  0  0  0  0  0  0  0  0  0  0  0
   -7.2562    1.6599   -0.8373 H   0  0  0  0  0  0  0  0  0  0  0  0
   -5.3733   -0.9668   -1.5699 H   0  0  0  0  0  0  0  0  0  0  0  0
   -5.0485    0.7188   -1.1813 H   0  0  0  0  0  0  0  0  0  0  0  0
   -8.2280   -1.0945    2.1579 H   0  0  0  0  0  0  0  0  0  0  0  0
   -8.7736   -2.5493    1.3269 H   0  0  0  0  0  0  0  0  0  0  0  0
   -8.7952    1.2537    1.0213 H   0  0  0  0  0  0  0  0  0  0  0  0
   -9.6849    1.2242   -0.4991 H   0  0  0  0  0  0  0  0  0  0  0  0
  -10.3568   -0.6369    1.0300 H   0  0  0  0  0  0  0  0  0  0  0  0
   -9.7239   -1.2270   -0.5050 H   0  0  0  0  0  0  0  0  0  0  0  0
   -3.9706    0.0624    0.9637 H   0  0  0  0  0  0  0  0  0  0  0  0
   -4.2513   -1.6401    0.5946 H   0  0  0  0  0  0  0  0  0  0  0  0
    1.8011    2.0799   -0.1082 H   0  0  0  0  0  0  0  0  0  0  0  0
   -2.9033   -1.4016   -1.5057 H   0  0  0  0  0  0  0  0  0  0  0  0
   -2.5899    0.2799   -1.1056 H   0  0  0  0  0  0  0  0  0  0  0  0
    0.7286    2.4337    2.1484 H   0  0  0  0  0  0  0  0  0  0  0  0
    1.2581    3.9074    1.3406 H   0  0  0  0  0  0  0  0  0  0  0  0
    1.0597    4.0005   -1.3286 H   0  0  0  0  0  0  0  0  0  0  0  0
    0.4111    2.5876   -2.1548 H   0  0  0  0  0  0  0  0  0  0  0  0
   -1.6112    2.8652    1.5260 H   0  0  0  0  0  0  0  0  0  0  0  0
   -0.9398    4.2813    2.3212 H   0  0  0  0  0  0  0  0  0  0  0  0
   -1.2595    4.4255   -1.9514 H   0  0  0  0  0  0  0  0  0  0  0  0
   -1.8050    2.9524   -1.1584 H   0  0  0  0  0  0  0  0  0  0  0  0
   -2.2749    4.8716    0.2903 H   0  0  0  0  0  0  0  0  0  0  0  0
   -0.6047    5.4214    0.1857 H   0  0  0  0  0  0  0  0  0  0  0  0
   -1.8027   -2.1410    0.5985 H   0  0  0  0  0  0  0  0  0  0  0  0
   -1.5068   -0.5071    1.0884 H   0  0  0  0  0  0  0  0  0  0  0  0
   -0.9394    1.1120    0.3384 H   0  0  0  0  0  0  0  0  0  0  0  0
   -0.9975   -2.9630   -1.5068 H   0  0  0  0  0  0  0  0  0  0  0  0
    0.4963   -2.2525   -2.1191 H   0  0  0  0  0  0  0  0  0  0  0  0
    0.9519   -4.3321   -0.8322 H   0  0  0  0  0  0  0  0  0  0  0  0
    0.1834   -3.6591    0.5876 H   0  0  0  0  0  0  0  0  0  0  0  0
    1.2576   -1.8711    1.9085 H   0  0  0  0  0  0  0  0  0  0  0  0
    3.1703   -3.5420   -1.5762 H   0  0  0  0  0  0  0  0  0  0  0  0
    3.3835   -0.8712    2.6020 H   0  0  0  0  0  0  0  0  0  0  0  0
    5.3030   -2.5505   -0.8858 H   0  0  0  0  0  0  0  0  0  0  0  0
    3.7973    1.0658    0.7956 H   0  0  0  0  0  0  0  0  0  0  0  0
    4.7715    2.5175    0.7086 H   0  0  0  0  0  0  0  0  0  0  0  0
    4.7622    1.5753    2.1910 H   0  0  0  0  0  0  0  0  0  0  0  0
    8.1538    0.9260    0.5886 H   0  0  0  0  0  0  0  0  0  0  0  0
    7.2779    2.4418    0.4363 H   0  0  0  0  0  0  0  0  0  0  0  0
    7.3595    1.6402    2.0097 H   0  0  0  0  0  0  0  0  0  0  0  0
    4.7210    0.9364   -2.4407 H   0  0  0  0  0  0  0  0  0  0  0  0
  1 31  1  0  0  0  0
  1 32  1  0  0  0  0
  2 23  2  0  0  0  0
  3 35  1  0  0  0  0
  3 81  1  0  0  0  0
  4 35  2  0  0  0  0
  5 15  1  0  0  0  0
  5 23  1  0  0  0  0
  5 66  1  0  0  0  0
  6 22  1  0  0  0  0
  6 23  1  0  0  0  0
  6 24  1  0  0  0  0
  7  8  1  0  0  0  0
  7  9  1  0  0  0  0
  7 10  1  0  0  0  0
  7 36  1  0  0  0  0
  8 11  1  0  0  0  0
  8 37  1  0  0  0  0
  8 38  1  0  0  0  0
  9 12  1  0  0  0  0
  9 39  1  0  0  0  0
  9 40  1  0  0  0  0
 10 14  1  0  0  0  0
 10 41  1  0  0  0  0
 10 42  1  0  0  0  0
 11 13  1  0  0  0  0
 11 43  1  0  0  0  0
 11 44  1  0  0  0  0
 12 13  1  0  0  0  0
 12 45  1  0  0  0  0
 12 46  1  0  0  0  0
 13 47  1  0  0  0  0
 13 48  1  0  0  0  0
 14 16  1  0  0  0  0
 14 49  1  0  0  0  0
 14 50  1  0  0  0  0
 15 17  1  0  0  0  0
 15 18  1  0  0  0  0
 15 51  1  0  0  0  0
 16 22  1  0  0  0  0
 16 52  1  0  0  0  0
 16 53  1  0  0  0  0
 17 19  1  0  0  0  0
 17 54  1  0  0  0  0
 17 55  1  0  0  0  0
 18 20  1  0  0  0  0
 18 56  1  0  0  0  0
 18 57  1  0  0  0  0
 19 21  1  0  0  0  0
 19 58  1  0  0  0  0
 19 59  1  0  0  0  0
 20 21  1  0  0  0  0
 20 60  1  0  0  0  0
 20 61  1  0  0  0  0
 21 62  1  0  0  0  0
 21 63  1  0  0  0  0
 22 64  1  0  0  0  0
 22 65  1  0  0  0  0
 24 25  1  0  0  0  0
 24 67  1  0  0  0  0
 24 68  1  0  0  0  0
 25 26  1  0  0  0  0
 25 69  1  0  0  0  0
 25 70  1  0  0  0  0
 26 27  2  0  0  0  0
 26 28  1  0  0  0  0
 27 29  1  0  0  0  0
 27 71  1  0  0  0  0
 28 30  2  0  0  0  0
 28 72  1  0  0  0  0
 29 31  2  0  0  0  0
 29 73  1  0  0  0  0
 30 31  1  0  0  0  0
 30 74  1  0  0  0  0
 32 33  1  0  0  0  0
 32 34  1  0  0  0  0
 32 35  1  0  0  0  0
 33 75  1  0  0  0  0
 33 76  1  0  0  0  0
 33 77  1  0  0  0  0
 34 78  1  0  0  0  0
 34 79  1  0  0  0  0
 34 80  1  0  0  0  0
M  END
> <PUBCHEM_COMPOUND_CID>
3392731

> <PUBCHEM_CONFORMER_RMSD>
1.4

> <PUBCHEM_CONFORMER_DIVERSEORDER>
2
121
95
125
34
100
149
71
69
43
59
74
77
53
63
155
120
93
68
87
41
64
119
132
31
104
46
42
116
72
79
151
126
60
45
73
131
78
37
150
27
112
11
107
99
101
58
146
47
141
89
20
18
82
130
143
111
91
54
97
81
76
134
67
85
29
156
32
23
122
61
50
80
28
51
24
5
137
148
147
75
33
115
52
83
86
10
19
65
36
96
84
128
153
127
98
25
136
144
26
102
142
114
124
7
56
118
39
110
30
94
55
62
152
92
21
38
138
48
133
70
44
105
49
108
123
140
4
35
139
154
109
90
113
106
15
103
22
40
57
88
6
145
129
14
66
135
117
8
16
12
13
1
3
9
17

> <PUBCHEM_MMFF94_PARTIAL_CHARGES>
25
1 -0.33
15 0.3
2 -0.57
22 0.3
23 0.69
24 0.3
25 0.14
26 -0.14
27 -0.15
28 -0.15
29 -0.15
3 -0.65
30 -0.15
31 0.1
32 0.29
35 0.66
4 -0.57
5 -0.73
6 -0.66
66 0.37
71 0.15
72 0.15
73 0.15
74 0.15
81 0.5

> <PUBCHEM_EFFECTIVE_ROTOR_COUNT>
16.4

> <PUBCHEM_PHARMACOPHORE_FEATURES>
9
1 2 acceptor
1 3 acceptor
1 4 acceptor
1 5 donor
3 3 4 35 anion
3 32 33 34 hydrophobe
6 15 17 18 19 20 21 rings
6 26 27 28 29 30 31 rings
6 7 8 9 11 12 13 rings

> <PUBCHEM_HEAVY_ATOM_COUNT>
35

> <PUBCHEM_ATOM_DEF_STEREO_COUNT>
0

> <PUBCHEM_ATOM_UDEF_STEREO_COUNT>
0

> <PUBCHEM_BOND_DEF_STEREO_COUNT>
0

> <PUBCHEM_BOND_UDEF_STEREO_COUNT>
0

> <PUBCHEM_ISOTOPIC_ATOM_COUNT>
0

> <PUBCHEM_COMPONENT_COUNT>
1

> <PUBCHEM_CACTVS_TAUTO_COUNT>
2

> <PUBCHEM_CONFORMER_ID>
0033C4DB00000002

> <PUBCHEM_MMFF94_ENERGY>
59.7557

> <PUBCHEM_FEATURE_SELFOVERLAP>
45.729

> <PUBCHEM_SHAPE_FINGERPRINT>
10006869 2 18408893957834995406
10162869 55 18334867083338818367
10165383 225 17894919521059421098
10258939 38 16630256899545642503
10675989 125 18269275660647957788
12788726 201 18411139160583688738
13560911 43 18412257321355609817
13617811 41 18413384324605044676
13811026 1 18341619256573170853
13835254 42 18188769594949156593
13899415 154 18408604751299661826
14394314 77 18265341620595919260
14849402 71 18339923715259497641
17899979 19 18410289199272238745
18365409 1 16733557005414106871
21049683 271 18342734096834010877
24771293 8 18115324258317741562
24771750 20 17984410841911335157
24893992 56 18341328878588392883
3178227 256 18411132503474251895
6004065 56 18411979131606640451

> <PUBCHEM_SHAPE_MULTIPOLES>
696.56
23.04
4.72
1.43
46.4
4.17
-0.05
-5.79
-4.39
-1.71
-0.07
-1.4
0.23
0.53

> <PUBCHEM_SHAPE_SELFOVERLAP>
1402.828

> <PUBCHEM_SHAPE_VOLUME>
408.5

> <PUBCHEM_COORDINATE_TYPE>
2
5
10

$$$$

