10065132
  -OEChem-07051213102D

 42 43  0     1  0  0  0  0  0999 V2000
    5.1350   -0.1550    0.0000 O   0  0  0  0  0  0  0  0  0  0  0  0
    6.8671   -0.1550    0.0000 O   0  0  0  0  0  0  0  0  0  0  0  0
    5.1350   -3.1550    0.0000 O   0  0  0  0  0  0  0  0  0  0  0  0
    6.8671   -2.1550    0.0000 O   0  0  0  0  0  0  0  0  0  0  0  0
    3.4030   -2.1550    0.0000 O   0  0  0  0  0  0  0  0  0  0  0  0
    5.1350    0.8450    0.0000 O   0  0  0  0  0  0  0  0  0  0  0  0
    2.5369   -0.6550    0.0000 O   0  0  0  0  0  0  0  0  0  0  0  0
    5.1350    2.8450    0.0000 O   0  0  0  0  0  0  0  0  0  0  0  0
    8.5991   -1.1550    0.0000 N   0  0  0  0  0  0  0  0  0  0  0  0
    5.1350   -2.1550    0.0000 C   0  0  2  0  0  0  0  0  0  0  0  0
    6.0010   -1.6550    0.0000 C   0  0  2  0  0  0  0  0  0  0  0  0
    4.2690   -1.6550    0.0000 C   0  0  1  0  0  0  0  0  0  0  0  0
    6.0010   -0.6550    0.0000 C   0  0  1  0  0  0  0  0  0  0  0  0
    4.2690   -0.6550    0.0000 C   0  0  1  0  0  0  0  0  0  0  0  0
    6.8671    0.8450    0.0000 C   0  0  2  0  0  0  0  0  0  0  0  0
    6.0010    1.3450    0.0000 C   0  0  2  0  0  0  0  0  0  0  0  0
    3.4030   -0.1550    0.0000 C   0  0  0  0  0  0  0  0  0  0  0  0
    6.0010    2.3450    0.0000 C   0  0  1  0  0  0  0  0  0  0  0  0
    7.7331    1.3450    0.0000 C   0  0  0  0  0  0  0  0  0  0  0  0
    6.8671    2.8450    0.0000 C   0  0  0  0  0  0  0  0  0  0  0  0
    7.7331    2.3450    0.0000 C   0  0  0  0  0  0  0  0  0  0  0  0
    8.5991    0.8450    0.0000 C   0  0  0  0  0  0  0  0  0  0  0  0
    8.5991   -0.1550    0.0000 C   0  0  0  0  0  0  0  0  0  0  0  0
    5.6720   -2.4650    0.0000 H   0  0  0  0  0  0  0  0  0  0  0  0
    6.5380   -1.3450    0.0000 H   0  0  0  0  0  0  0  0  0  0  0  0
    4.2690   -2.2750    0.0000 H   0  0  0  0  0  0  0  0  0  0  0  0
    6.5380   -0.9650    0.0000 H   0  0  0  0  0  0  0  0  0  0  0  0
    4.2690   -0.0350    0.0000 H   0  0  0  0  0  0  0  0  0  0  0  0
    6.3301    0.5350    0.0000 H   0  0  0  0  0  0  0  0  0  0  0  0
    5.4641    1.6550    0.0000 H   0  0  0  0  0  0  0  0  0  0  0  0
    3.8015    0.3199    0.0000 H   0  0  0  0  0  0  0  0  0  0  0  0
    3.0044    0.3199    0.0000 H   0  0  0  0  0  0  0  0  0  0  0  0
    5.4641    2.0350    0.0000 H   0  0  0  0  0  0  0  0  0  0  0  0
    4.5981   -3.4650    0.0000 H   0  0  0  0  0  0  0  0  0  0  0  0
    6.8671   -2.7750    0.0000 H   0  0  0  0  0  0  0  0  0  0  0  0
    3.4030   -2.7750    0.0000 H   0  0  0  0  0  0  0  0  0  0  0  0
    6.8671    3.4650    0.0000 H   0  0  0  0  0  0  0  0  0  0  0  0
    8.2700    2.6550    0.0000 H   0  0  0  0  0  0  0  0  0  0  0  0
    4.5981    1.1550    0.0000 H   0  0  0  0  0  0  0  0  0  0  0  0
    9.1360    1.1550    0.0000 H   0  0  0  0  0  0  0  0  0  0  0  0
    2.0000   -0.3450    0.0000 H   0  0  0  0  0  0  0  0  0  0  0  0
    5.1350    3.4650    0.0000 H   0  0  0  0  0  0  0  0  0  0  0  0
  1 13  1  0  0  0  0
  1 14  1  0  0  0  0
 13  2  1  1  0  0  0
 15  2  1  6  0  0  0
 10  3  1  1  0  0  0
  3 34  1  0  0  0  0
 11  4  1  6  0  0  0
  4 35  1  0  0  0  0
 12  5  1  6  0  0  0
  5 36  1  0  0  0  0
 16  6  1  1  0  0  0
  6 39  1  0  0  0  0
  7 17  1  0  0  0  0
  7 41  1  0  0  0  0
 18  8  1  6  0  0  0
  8 42  1  0  0  0  0
  9 23  3  0  0  0  0
 10 11  1  0  0  0  0
 10 12  1  0  0  0  0
 10 24  1  0  0  0  0
 11 13  1  0  0  0  0
 11 25  1  0  0  0  0
 12 14  1  0  0  0  0
 12 26  1  0  0  0  0
 13 27  1  0  0  0  0
 14 17  1  1  0  0  0
 14 28  1  0  0  0  0
 15 16  1  0  0  0  0
 15 19  1  0  0  0  0
 15 29  1  0  0  0  0
 16 18  1  0  0  0  0
 16 30  1  0  0  0  0
 17 31  1  0  0  0  0
 17 32  1  0  0  0  0
 18 20  1  0  0  0  0
 18 33  1  0  0  0  0
 19 21  1  0  0  0  0
 19 22  2  0  0  0  0
 20 21  2  0  0  0  0
 20 37  1  0  0  0  0
 21 38  1  0  0  0  0
 22 23  1  0  0  0  0
 22 40  1  0  0  0  0
M  END
> <PUBCHEM_COMPOUND_CID>
10065132

> <PUBCHEM_COMPOUND_CANONICALIZED>
1

> <PUBCHEM_CACTVS_COMPLEXITY>
526

> <PUBCHEM_CACTVS_HBOND_ACCEPTOR>
9

> <PUBCHEM_CACTVS_HBOND_DONOR>
6

> <PUBCHEM_CACTVS_ROTATABLE_BOND>
3

> <PUBCHEM_CACTVS_SUBSKEYS>
AAADceByPAAAAAAAAAAAAAAAAAAAAAAAAAAkQAAAAAAAAAAAAAAAHgAACAAADBSxgAMACAAABgCQBiBCAAAgAAAgAAAICAAAAAgZFAIAIQAiUAAFwAAPsAPAYAwAAAAAAAAAAAAAAAAAAAAAAAAAAAAAAA==

> <PUBCHEM_IUPAC_OPENEYE_NAME>
(2Z)-2-[(4R,5S,6S)-4,5-dihydroxy-6-[(2R,3R,4S,5S,6R)-3,4,5-trihydroxy-6-(hydroxymethyl)tetrahydropyran-2-yl]oxy-cyclohex-2-en-1-ylidene]acetonitrile

> <PUBCHEM_IUPAC_CAS_NAME>
(2Z)-2-[(4R,5S,6S)-4,5-dihydroxy-6-[[(2R,3R,4S,5S,6R)-3,4,5-trihydroxy-6-(hydroxymethyl)-2-oxanyl]oxy]-1-cyclohex-2-enylidene]acetonitrile

> <PUBCHEM_IUPAC_NAME>
(2Z)-2-[(4R,5S,6S)-4,5-dihydroxy-6-[(2R,3R,4S,5S,6R)-3,4,5-trihydroxy-6-(hydroxymethyl)oxan-2-yl]oxycyclohex-2-en-1-ylidene]acetonitrile

> <PUBCHEM_IUPAC_SYSTEMATIC_NAME>
(2Z)-2-[(4R,5S,6S)-6-[(2R,3R,4S,5S,6R)-6-(hydroxymethyl)-3,4,5-tris(oxidanyl)oxan-2-yl]oxy-4,5-bis(oxidanyl)cyclohex-2-en-1-ylidene]ethanenitrile

> <PUBCHEM_IUPAC_TRADITIONAL_NAME>
(2Z)-2-[(4R,5S,6S)-4,5-dihydroxy-6-[(2R,3R,4S,5S,6R)-3,4,5-trihydroxy-6-methylol-tetrahydropyran-2-yl]oxy-cyclohex-2-en-1-ylidene]acetonitrile

> <PUBCHEM_IUPAC_INCHI>
InChI=1S/C14H19NO8/c15-4-3-6-1-2-7(17)9(18)13(6)23-14-12(21)11(20)10(19)8(5-16)22-14/h1-3,7-14,16-21H,5H2/b6-3-/t7-,8-,9+,10-,11+,12-,13+,14+/m1/s1

> <PUBCHEM_IUPAC_INCHIKEY>
WIIDBJNWXCWLKF-VVAXPEBGSA-N

> <PUBCHEM_XLOGP3_AA>
-3.3

> <PUBCHEM_EXACT_MASS>
329.111067

> <PUBCHEM_MOLECULAR_FORMULA>
C14H19NO8

> <PUBCHEM_MOLECULAR_WEIGHT>
329.30256

> <PUBCHEM_OPENEYE_CAN_SMILES>
C1=CC(=CC#N)C(C(C1O)O)OC2C(C(C(C(O2)CO)O)O)O

> <PUBCHEM_OPENEYE_ISO_SMILES>
C1=C/C(=C/C#N)/[C@@H]([C@H]([C@@H]1O)O)O[C@H]2[C@@H]([C@H]([C@@H]([C@H](O2)CO)O)O)O

> <PUBCHEM_CACTVS_TPSA>
164

> <PUBCHEM_MONOISOTOPIC_WEIGHT>
329.111067

> <PUBCHEM_TOTAL_CHARGE>
0

> <PUBCHEM_HEAVY_ATOM_COUNT>
23

> <PUBCHEM_ATOM_DEF_STEREO_COUNT>
8

> <PUBCHEM_ATOM_UDEF_STEREO_COUNT>
0

> <PUBCHEM_BOND_DEF_STEREO_COUNT>
1

> <PUBCHEM_BOND_UDEF_STEREO_COUNT>
0

> <PUBCHEM_ISOTOPIC_ATOM_COUNT>
0

> <PUBCHEM_COMPONENT_COUNT>
1

> <PUBCHEM_CACTVS_TAUTO_COUNT>
1

> <PUBCHEM_COORDINATE_TYPE>
1
5
255

> <PUBCHEM_BONDANNOTATIONS>
14  17  5
13  2  5
15  2  6
10  3  5
11  4  6
12  5  6
16  6  5
18  8  6

$$$$

