17395410
  -OEChem-06241222503D

 29 30  0     0  0  0  0  0  0999 V2000
   -4.0546    1.9193   -0.7178 F   0  0  0  0  0  0  0  0  0  0  0  0
   -4.9219   -0.6033   -0.0371 O   0  0  0  0  0  0  0  0  0  0  0  0
    0.8640    1.8575    0.3209 O   0  0  0  0  0  0  0  0  0  0  0  0
    1.4138   -0.4013   -0.0296 N   0  0  0  0  0  0  0  0  0  0  0  0
    3.4775   -1.2551   -0.8039 N   0  0  0  0  0  0  0  0  0  0  0  0
   -0.8821    0.3409    0.1012 C   0  0  0  0  0  0  0  0  0  0  0  0
   -1.8100    1.3051   -0.2927 C   0  0  0  0  0  0  0  0  0  0  0  0
   -1.3119   -0.9401    0.4478 C   0  0  0  0  0  0  0  0  0  0  0  0
   -3.5972   -0.2930    0.0066 C   0  0  0  0  0  0  0  0  0  0  0  0
    0.5327    0.6731    0.1507 C   0  0  0  0  0  0  0  0  0  0  0  0
   -3.1677    0.9882   -0.3400 C   0  0  0  0  0  0  0  0  0  0  0  0
   -2.6694   -1.2571    0.4005 C   0  0  0  0  0  0  0  0  0  0  0  0
    2.8110   -0.3499   -0.0528 C   0  0  0  0  0  0  0  0  0  0  0  0
    3.4268    0.6355    0.7020 C   0  0  0  0  0  0  0  0  0  0  0  0
    4.8158    0.6959    0.6849 C   0  0  0  0  0  0  0  0  0  0  0  0
    5.5365   -0.2183   -0.0757 C   0  0  0  0  0  0  0  0  0  0  0  0
    4.8264   -1.1655   -0.7955 C   0  0  0  0  0  0  0  0  0  0  0  0
   -5.2898   -1.9319    0.3303 C   0  0  0  0  0  0  0  0  0  0  0  0
   -1.4976    2.3080   -0.5716 H   0  0  0  0  0  0  0  0  0  0  0  0
   -0.6257   -1.7102    0.7890 H   0  0  0  0  0  0  0  0  0  0  0  0
   -2.9348   -2.2683    0.6894 H   0  0  0  0  0  0  0  0  0  0  0  0
    1.0365   -1.2676   -0.4048 H   0  0  0  0  0  0  0  0  0  0  0  0
    2.8950    1.3300    1.3407 H   0  0  0  0  0  0  0  0  0  0  0  0
    5.3369    1.4464    1.2718 H   0  0  0  0  0  0  0  0  0  0  0  0
    6.6198   -0.1919   -0.1018 H   0  0  0  0  0  0  0  0  0  0  0  0
    5.3416   -1.9016   -1.4038 H   0  0  0  0  0  0  0  0  0  0  0  0
   -6.3783   -2.0035    0.2356 H   0  0  0  0  0  0  0  0  0  0  0  0
   -5.0458   -2.1422    1.3773 H   0  0  0  0  0  0  0  0  0  0  0  0
   -4.8604   -2.6724   -0.3531 H   0  0  0  0  0  0  0  0  0  0  0  0
  1 11  1  0  0  0  0
  2  9  1  0  0  0  0
  2 18  1  0  0  0  0
  3 10  2  0  0  0  0
  4 10  1  0  0  0  0
  4 13  1  0  0  0  0
  4 22  1  0  0  0  0
  5 13  1  0  0  0  0
  5 17  2  0  0  0  0
  6  7  2  0  0  0  0
  6  8  1  0  0  0  0
  6 10  1  0  0  0  0
  7 11  1  0  0  0  0
  7 19  1  0  0  0  0
  8 12  2  0  0  0  0
  8 20  1  0  0  0  0
  9 11  2  0  0  0  0
  9 12  1  0  0  0  0
 12 21  1  0  0  0  0
 13 14  2  0  0  0  0
 14 15  1  0  0  0  0
 14 23  1  0  0  0  0
 15 16  2  0  0  0  0
 15 24  1  0  0  0  0
 16 17  1  0  0  0  0
 16 25  1  0  0  0  0
 17 26  1  0  0  0  0
 18 27  1  0  0  0  0
 18 28  1  0  0  0  0
 18 29  1  0  0  0  0
M  END
> <PUBCHEM_COMPOUND_CID>
17395410

> <PUBCHEM_CONFORMER_RMSD>
0.6

> <PUBCHEM_CONFORMER_DIVERSEORDER>
1
3
7
6
2
4
8
5

> <PUBCHEM_MMFF94_PARTIAL_CHARGES>
26
1 -0.19
10 0.54
11 0.19
12 -0.15
13 0.43
14 -0.15
15 -0.15
16 -0.15
17 0.16
18 0.28
19 0.15
2 -0.36
20 0.15
21 0.15
22 0.37
23 0.15
24 0.15
25 0.15
26 0.15
3 -0.57
4 -0.55
5 -0.62
6 0.09
7 -0.15
8 -0.15
9 0.08

> <PUBCHEM_EFFECTIVE_ROTOR_COUNT>
4

> <PUBCHEM_PHARMACOPHORE_FEATURES>
6
1 2 acceptor
1 3 acceptor
1 4 donor
1 5 acceptor
6 5 13 14 15 16 17 rings
6 6 7 8 9 11 12 rings

> <PUBCHEM_HEAVY_ATOM_COUNT>
18

> <PUBCHEM_ATOM_DEF_STEREO_COUNT>
0

> <PUBCHEM_ATOM_UDEF_STEREO_COUNT>
0

> <PUBCHEM_BOND_DEF_STEREO_COUNT>
0

> <PUBCHEM_BOND_UDEF_STEREO_COUNT>
0

> <PUBCHEM_ISOTOPIC_ATOM_COUNT>
0

> <PUBCHEM_COMPONENT_COUNT>
1

> <PUBCHEM_CACTVS_TAUTO_COUNT>
3

> <PUBCHEM_CONFORMER_ID>
01096ED200000001

> <PUBCHEM_MMFF94_ENERGY>
64.1973

> <PUBCHEM_FEATURE_SELFOVERLAP>
30.446

> <PUBCHEM_SHAPE_FINGERPRINT>
10 15 18262531295573257336
10680689 15 18201432605967980569
10912923 1 17131835378243127536
11287383 113 18409167697327218504
12032990 46 18408038515669859192
12236239 1 16630531734449957746
12616971 3 14996285799180405184
13288520 33 18411135836062730151
13760787 5 15195564628209631956
1420 363 18409445869083993683
14251718 22 18343018874413367678
14386348 63 18334574646655625094
14573314 32 18410856589931433740
14790565 3 17618502529437948033
15042514 8 18197494026980594683
15196674 1 18410856594205444674
15375358 24 18335704961788815606
15961568 22 17845935109721602356
17804303 29 18413106143704180145
17844677 252 18409724062990747704
19141452 34 18114742629820971607
19489759 90 17988926677768272627
200 152 17458347458985964592
20279233 1 18408318895920487282
20374829 77 18271810099120633435
20645477 70 17895188948415268790
20871999 31 18202843270500933949
21033648 29 17749687245415534992
21033650 10 17416107607150603684
21065201 7 18272376399027031680
21267235 1 18412256216551715955
2297311 6 18410284817978172700
23175994 123 17821727230383052129
23402539 116 18131075951906918661
23557571 272 18411695504323741780
23559900 14 18338237180360128518
239999 70 18334292072668557126
2871803 45 18411417341268092978
3004659 81 18130787927949496474
3268164 11 17846508049066339925
33824 294 18260266365591302134
34797466 226 18188756263887680324
4214541 1 18411419531131630217
4325135 7 18271521997304752084
5104073 3 18260831548484099778
5283173 99 18339928232948369324
542803 24 14418132907251045370
573450 72 17846229885578064040
77779 3 18408885157167021768
9709674 26 18340204072795644706

> <PUBCHEM_SHAPE_MULTIPOLES>
341.46
12.64
1.69
0.78
3.38
0.15
-0.01
-3.78
-0.43
-1.44
-0.11
0.33
-0.02
1.33

> <PUBCHEM_SHAPE_SELFOVERLAP>
735.161

> <PUBCHEM_SHAPE_VOLUME>
189.1

> <PUBCHEM_COORDINATE_TYPE>
2
5
10

$$$$

