5275507
  -OEChem-07051213082D

 41 40  0     0  0  0  0  0  0999 V2000
    2.5369   -0.4400    0.0000 O   0  0  0  0  0  0  0  0  0  0  0  0
    3.4030    1.0600    0.0000 O   0  0  0  0  0  0  0  0  0  0  0  0
    9.4651   -0.4400    0.0000 C   0  0  0  0  0  0  0  0  0  0  0  0
    8.5991    0.0600    0.0000 C   0  0  0  0  0  0  0  0  0  0  0  0
    6.8671    0.0600    0.0000 C   0  0  0  0  0  0  0  0  0  0  0  0
   10.3312    0.0600    0.0000 C   0  0  0  0  0  0  0  0  0  0  0  0
    6.0010   -0.4400    0.0000 C   0  0  0  0  0  0  0  0  0  0  0  0
    7.7331   -0.4400    0.0000 C   0  0  0  0  0  0  0  0  0  0  0  0
    5.1350    0.0600    0.0000 C   0  0  0  0  0  0  0  0  0  0  0  0
    8.5991    1.0600    0.0000 C   0  0  0  0  0  0  0  0  0  0  0  0
   11.1972   -0.4400    0.0000 C   0  0  0  0  0  0  0  0  0  0  0  0
   12.0632    0.0600    0.0000 C   0  0  0  0  0  0  0  0  0  0  0  0
    5.1350    1.0600    0.0000 C   0  0  0  0  0  0  0  0  0  0  0  0
    4.2690   -0.4400    0.0000 C   0  0  0  0  0  0  0  0  0  0  0  0
   12.9292   -0.4400    0.0000 C   0  0  0  0  0  0  0  0  0  0  0  0
   12.0632    1.0600    0.0000 C   0  0  0  0  0  0  0  0  0  0  0  0
    3.4030    0.0600    0.0000 C   0  0  0  0  0  0  0  0  0  0  0  0
    9.0666   -0.9149    0.0000 H   0  0  0  0  0  0  0  0  0  0  0  0
    9.8637   -0.9149    0.0000 H   0  0  0  0  0  0  0  0  0  0  0  0
    7.2656    0.5349    0.0000 H   0  0  0  0  0  0  0  0  0  0  0  0
    6.4685    0.5349    0.0000 H   0  0  0  0  0  0  0  0  0  0  0  0
   10.7297    0.5349    0.0000 H   0  0  0  0  0  0  0  0  0  0  0  0
    9.9326    0.5349    0.0000 H   0  0  0  0  0  0  0  0  0  0  0  0
    5.6025   -0.9149    0.0000 H   0  0  0  0  0  0  0  0  0  0  0  0
    6.3996   -0.9149    0.0000 H   0  0  0  0  0  0  0  0  0  0  0  0
    7.7331   -1.0600    0.0000 H   0  0  0  0  0  0  0  0  0  0  0  0
    9.2191    1.0600    0.0000 H   0  0  0  0  0  0  0  0  0  0  0  0
    8.5991    1.6800    0.0000 H   0  0  0  0  0  0  0  0  0  0  0  0
    7.9791    1.0600    0.0000 H   0  0  0  0  0  0  0  0  0  0  0  0
   11.1972   -1.0600    0.0000 H   0  0  0  0  0  0  0  0  0  0  0  0
    5.7550    1.0600    0.0000 H   0  0  0  0  0  0  0  0  0  0  0  0
    5.1350    1.6800    0.0000 H   0  0  0  0  0  0  0  0  0  0  0  0
    4.5150    1.0600    0.0000 H   0  0  0  0  0  0  0  0  0  0  0  0
    4.2690   -1.0600    0.0000 H   0  0  0  0  0  0  0  0  0  0  0  0
   12.6192   -0.9769    0.0000 H   0  0  0  0  0  0  0  0  0  0  0  0
   13.4662   -0.7500    0.0000 H   0  0  0  0  0  0  0  0  0  0  0  0
   13.2392    0.0969    0.0000 H   0  0  0  0  0  0  0  0  0  0  0  0
   12.6832    1.0600    0.0000 H   0  0  0  0  0  0  0  0  0  0  0  0
   12.0632    1.6800    0.0000 H   0  0  0  0  0  0  0  0  0  0  0  0
   11.4432    1.0600    0.0000 H   0  0  0  0  0  0  0  0  0  0  0  0
    2.0000   -0.1300    0.0000 H   0  0  0  0  0  0  0  0  0  0  0  0
  1 17  1  0  0  0  0
  1 41  1  0  0  0  0
  2 17  2  0  0  0  0
  3  4  1  0  0  0  0
  3  6  1  0  0  0  0
  3 18  1  0  0  0  0
  3 19  1  0  0  0  0
  4  8  2  0  0  0  0
  4 10  1  0  0  0  0
  5  7  1  0  0  0  0
  5  8  1  0  0  0  0
  5 20  1  0  0  0  0
  5 21  1  0  0  0  0
  6 11  1  0  0  0  0
  6 22  1  0  0  0  0
  6 23  1  0  0  0  0
  7  9  1  0  0  0  0
  7 24  1  0  0  0  0
  7 25  1  0  0  0  0
  8 26  1  0  0  0  0
  9 13  1  0  0  0  0
  9 14  2  0  0  0  0
 10 27  1  0  0  0  0
 10 28  1  0  0  0  0
 10 29  1  0  0  0  0
 11 12  2  0  0  0  0
 11 30  1  0  0  0  0
 12 15  1  0  0  0  0
 12 16  1  0  0  0  0
 13 31  1  0  0  0  0
 13 32  1  0  0  0  0
 13 33  1  0  0  0  0
 14 17  1  0  0  0  0
 14 34  1  0  0  0  0
 15 35  1  0  0  0  0
 15 36  1  0  0  0  0
 15 37  1  0  0  0  0
 16 38  1  0  0  0  0
 16 39  1  0  0  0  0
 16 40  1  0  0  0  0
M  END
> <PUBCHEM_COMPOUND_CID>
5275507

> <PUBCHEM_COMPOUND_CANONICALIZED>
1

> <PUBCHEM_CACTVS_COMPLEXITY>
329

> <PUBCHEM_CACTVS_HBOND_ACCEPTOR>
2

> <PUBCHEM_CACTVS_HBOND_DONOR>
1

> <PUBCHEM_CACTVS_ROTATABLE_BOND>
7

> <PUBCHEM_CACTVS_SUBSKEYS>
AAADceBwMAAAAAAAAAAAAAAAAAAAAAAAAAAAAAAAAAAAAAAAAAAAGgAACAAADACAgAACCAAAAgCIAiDSCAAAAAAgAAAACAAAAEgABAIAAQAAEAAAgAAIEQIAAAAAAAAAAAAAAAAAAAAAAAAAAAAAAAAAAA==

> <PUBCHEM_IUPAC_OPENEYE_NAME>
(2E,6E)-3,7,11-trimethyldodeca-2,6,10-trienoic acid

> <PUBCHEM_IUPAC_CAS_NAME>
(2E,6E)-3,7,11-trimethyldodeca-2,6,10-trienoic acid

> <PUBCHEM_IUPAC_NAME>
(2E,6E)-3,7,11-trimethyldodeca-2,6,10-trienoic acid

> <PUBCHEM_IUPAC_SYSTEMATIC_NAME>
(2E,6E)-3,7,11-trimethyldodeca-2,6,10-trienoic acid

> <PUBCHEM_IUPAC_TRADITIONAL_NAME>
(2E,6E)-3,7,11-trimethyldodeca-2,6,10-trienoic acid

> <PUBCHEM_IUPAC_INCHI>
InChI=1S/C15H24O2/c1-12(2)7-5-8-13(3)9-6-10-14(4)11-15(16)17/h7,9,11H,5-6,8,10H2,1-4H3,(H,16,17)/b13-9+,14-11+

> <PUBCHEM_IUPAC_INCHIKEY>
WJHFZYAELPOJIV-IJFRVEDASA-N

> <PUBCHEM_XLOGP3_AA>
5

> <PUBCHEM_EXACT_MASS>
236.17763

> <PUBCHEM_MOLECULAR_FORMULA>
C15H24O2

> <PUBCHEM_MOLECULAR_WEIGHT>
236.34986

> <PUBCHEM_OPENEYE_CAN_SMILES>
CC(=CCCC(=CCCC(=CC(=O)O)C)C)C

> <PUBCHEM_OPENEYE_ISO_SMILES>
CC(=CCC/C(=C/CC/C(=C/C(=O)O)/C)/C)C

> <PUBCHEM_CACTVS_TPSA>
37.3

> <PUBCHEM_MONOISOTOPIC_WEIGHT>
236.17763

> <PUBCHEM_TOTAL_CHARGE>
0

> <PUBCHEM_HEAVY_ATOM_COUNT>
17

> <PUBCHEM_ATOM_DEF_STEREO_COUNT>
0

> <PUBCHEM_ATOM_UDEF_STEREO_COUNT>
0

> <PUBCHEM_BOND_DEF_STEREO_COUNT>
2

> <PUBCHEM_BOND_UDEF_STEREO_COUNT>
0

> <PUBCHEM_ISOTOPIC_ATOM_COUNT>
0

> <PUBCHEM_COMPONENT_COUNT>
1

> <PUBCHEM_CACTVS_TAUTO_COUNT>
1

> <PUBCHEM_COORDINATE_TYPE>
1
5
255

$$$$

