185859
  -OEChem-07051213073D

 28 28  0     1  0  0  0  0  0999 V2000
    2.2430    0.1867   -0.3554 N   0  0  0  0  0  0  0  0  0  0  0  0
    0.8905   -0.0017    0.1776 C   0  0  1  0  0  0  0  0  0  0  0  0
   -0.1436    0.3370   -0.9116 C   0  0  0  0  0  0  0  0  0  0  0  0
   -1.5747    0.2121   -0.4464 C   0  0  0  0  0  0  0  0  0  0  0  0
    0.7661   -1.4418    0.6759 C   0  0  0  0  0  0  0  0  0  0  0  0
   -2.2306   -1.0006   -0.5858 C   0  0  0  0  0  0  0  0  0  0  0  0
   -2.2060    1.3125    0.1108 C   0  0  0  0  0  0  0  0  0  0  0  0
    3.2380   -0.0670    0.6731 C   0  0  0  0  0  0  0  0  0  0  0  0
   -3.5529   -1.1160   -0.1566 C   0  0  0  0  0  0  0  0  0  0  0  0
   -3.5282    1.1973    0.5403 C   0  0  0  0  0  0  0  0  0  0  0  0
   -4.2016   -0.0170    0.4064 C   0  0  0  0  0  0  0  0  0  0  0  0
    4.5939    0.1224    0.1482 C   0  0  0  0  0  0  0  0  0  0  0  0
    5.7063    0.2762   -0.2765 C   0  0  0  0  0  0  0  0  0  0  0  0
    0.7305    0.6779    1.0255 H   0  0  0  0  0  0  0  0  0  0  0  0
    0.0057   -0.3081   -1.7888 H   0  0  0  0  0  0  0  0  0  0  0  0
    0.0209    1.3606   -1.2761 H   0  0  0  0  0  0  0  0  0  0  0  0
    1.3748   -1.6421    1.5626 H   0  0  0  0  0  0  0  0  0  0  0  0
    1.0281   -2.1671   -0.1028 H   0  0  0  0  0  0  0  0  0  0  0  0
   -0.2508   -1.6667    1.0082 H   0  0  0  0  0  0  0  0  0  0  0  0
    2.3372    1.1439   -0.6957 H   0  0  0  0  0  0  0  0  0  0  0  0
   -1.7388   -1.8613   -1.0300 H   0  0  0  0  0  0  0  0  0  0  0  0
   -1.6893    2.2615    0.2211 H   0  0  0  0  0  0  0  0  0  0  0  0
    3.0872    0.5958    1.5334 H   0  0  0  0  0  0  0  0  0  0  0  0
    3.2165   -1.0996    1.0318 H   0  0  0  0  0  0  0  0  0  0  0  0
   -4.0778   -2.0609   -0.2623 H   0  0  0  0  0  0  0  0  0  0  0  0
   -4.0333    2.0528    0.9792 H   0  0  0  0  0  0  0  0  0  0  0  0
   -5.2312   -0.1067    0.7404 H   0  0  0  0  0  0  0  0  0  0  0  0
    6.6930    0.4126   -0.6533 H   0  0  0  0  0  0  0  0  0  0  0  0
  1  2  1  0  0  0  0
  1  8  1  0  0  0  0
  1 20  1  0  0  0  0
  2  3  1  0  0  0  0
  2  5  1  0  0  0  0
  2 14  1  0  0  0  0
  3  4  1  0  0  0  0
  3 15  1  0  0  0  0
  3 16  1  0  0  0  0
  4  6  2  0  0  0  0
  4  7  1  0  0  0  0
  5 17  1  0  0  0  0
  5 18  1  0  0  0  0
  5 19  1  0  0  0  0
  6  9  1  0  0  0  0
  6 21  1  0  0  0  0
  7 10  2  0  0  0  0
  7 22  1  0  0  0  0
  8 12  1  0  0  0  0
  8 23  1  0  0  0  0
  8 24  1  0  0  0  0
  9 11  2  0  0  0  0
  9 25  1  0  0  0  0
 10 11  1  0  0  0  0
 10 26  1  0  0  0  0
 11 27  1  0  0  0  0
 12 13  3  0  0  0  0
 13 28  1  0  0  0  0
M  END
> <PUBCHEM_COMPOUND_CID>
185859

> <PUBCHEM_CONFORMER_RMSD>
0.6

> <PUBCHEM_CONFORMER_DIVERSEORDER>
2
12
15
11
7
8
18
19
4
9
17
16
21
13
14
1
20
10
3
5
22
6

> <PUBCHEM_MMFF94_PARTIAL_CHARGES>
19
1 -0.9
10 -0.15
11 -0.15
12 -0.2
13 -0.18
2 0.27
20 0.36
21 0.15
22 0.15
25 0.15
26 0.15
27 0.15
28 0.18
3 0.14
4 -0.14
6 -0.15
7 -0.15
8 0.47
9 -0.15

> <PUBCHEM_EFFECTIVE_ROTOR_COUNT>
4

> <PUBCHEM_PHARMACOPHORE_FEATURES>
4
1 1 cation
1 1 donor
1 13 hydrophobe
6 4 6 7 9 10 11 rings

> <PUBCHEM_HEAVY_ATOM_COUNT>
13

> <PUBCHEM_ATOM_DEF_STEREO_COUNT>
1

> <PUBCHEM_ATOM_UDEF_STEREO_COUNT>
0

> <PUBCHEM_BOND_DEF_STEREO_COUNT>
0

> <PUBCHEM_BOND_UDEF_STEREO_COUNT>
0

> <PUBCHEM_ISOTOPIC_ATOM_COUNT>
0

> <PUBCHEM_COMPONENT_COUNT>
1

> <PUBCHEM_CACTVS_TAUTO_COUNT>
1

> <PUBCHEM_CONFORMER_ID>
0002D60300000002

> <PUBCHEM_MMFF94_ENERGY>
23.3818

> <PUBCHEM_FEATURE_SELFOVERLAP>
20.297

> <PUBCHEM_SHAPE_FINGERPRINT>
10680689 15 17385447600439215180
12251169 10 18409448085640396909
12346645 44 18411983597802889922
124424 183 5039947459830715534
12815109 37 14764630815379243897
13214271 11 18113338613543457853
13897977 58 18408884040122291833
14123238 8 18408323281018624116
14943859 89 17385727993216094310
15219456 202 17530957033789167263
17834072 33 18341891849489084660
18186145 218 18335433348231245904
200 152 15985108500571905757
20645464 45 17313100848223917261
20645477 56 18040432222303984641
20645477 70 14692026798902143896
20671657 1 17914043214646882892
22485316 2 10375875177878266672
2297311 6 18040987441068411852
23175994 123 15574710279161268466
23402539 116 18335708225621023998
42788 4 18260266339673278964
77779 3 18260829306584977942

> <PUBCHEM_SHAPE_MULTIPOLES>
262.55
10.36
1.22
0.85
12
0.1
0.02
-1.08
-0.6
-1.04
-0.11
-0.04
0.03
-0.44

> <PUBCHEM_SHAPE_SELFOVERLAP>
525.895

> <PUBCHEM_SHAPE_VOLUME>
154.1

> <PUBCHEM_COORDINATE_TYPE>
2
5
10

$$$$

