195578
  -OEChem-07051213023D

 18 17  0     1  0  0  0  0  0999 V2000
    1.8196   -0.0864    0.0644 P   0  0  0  0  0  0  0  0  0  0  0  0
    0.2768   -0.4682   -0.2326 O   0  0  0  0  0  0  0  0  0  0  0  0
   -0.6796    1.5051    0.4148 O   0  0  0  0  0  0  0  0  0  0  0  0
    2.6269   -1.3675   -0.5044 O   0  0  0  0  0  0  0  0  0  0  0  0
    2.1514    1.0665   -1.0195 O   0  0  0  0  0  0  0  0  0  0  0  0
    2.1316    0.2621    1.4902 O   0  0  0  0  0  0  0  0  0  0  0  0
   -3.1747    0.6120   -0.2359 N   0  0  0  0  0  0  0  0  0  0  0  0
   -2.0684   -0.3274   -0.4090 C   0  0  2  0  0  0  0  0  0  0  0  0
   -2.3049   -1.5615    0.4505 C   0  0  0  0  0  0  0  0  0  0  0  0
   -0.7786    0.3654   -0.0185 C   0  0  0  0  0  0  0  0  0  0  0  0
   -2.0042   -0.5968   -1.4687 H   0  0  0  0  0  0  0  0  0  0  0  0
   -1.5173   -2.3066    0.2931 H   0  0  0  0  0  0  0  0  0  0  0  0
   -2.3092   -1.3141    1.5185 H   0  0  0  0  0  0  0  0  0  0  0  0
   -3.2607   -2.0378    0.2057 H   0  0  0  0  0  0  0  0  0  0  0  0
   -3.2819    0.8427    0.7517 H   0  0  0  0  0  0  0  0  0  0  0  0
   -4.0482    0.1645   -0.5125 H   0  0  0  0  0  0  0  0  0  0  0  0
    3.5944   -1.4240   -0.3530 H   0  0  0  0  0  0  0  0  0  0  0  0
    1.8348    1.9799   -0.8531 H   0  0  0  0  0  0  0  0  0  0  0  0
  1  2  1  0  0  0  0
  1  4  1  0  0  0  0
  1  5  1  0  0  0  0
  1  6  2  0  0  0  0
  2 10  1  0  0  0  0
  3 10  2  0  0  0  0
  4 17  1  0  0  0  0
  5 18  1  0  0  0  0
  7  8  1  0  0  0  0
  7 15  1  0  0  0  0
  7 16  1  0  0  0  0
  8  9  1  0  0  0  0
  8 10  1  0  0  0  0
  8 11  1  0  0  0  0
  9 12  1  0  0  0  0
  9 13  1  0  0  0  0
  9 14  1  0  0  0  0
M  END
> <PUBCHEM_COMPOUND_CID>
195578

> <PUBCHEM_CONFORMER_RMSD>
0.6

> <PUBCHEM_CONFORMER_DIVERSEORDER>
1
18
12
19
5
11
16
2
15
17
7
9
4
10
14
3
13
6
8

> <PUBCHEM_MMFF94_PARTIAL_CHARGES>
13
1 1.51
10 0.66
15 0.36
16 0.36
17 0.5
18 0.5
2 -0.42
3 -0.57
4 -0.77
5 -0.77
6 -0.7
7 -0.99
8 0.33

> <PUBCHEM_EFFECTIVE_ROTOR_COUNT>
3

> <PUBCHEM_PHARMACOPHORE_FEATURES>
7
1 3 acceptor
1 4 acceptor
1 5 acceptor
1 6 acceptor
1 7 cation
1 7 donor
4 1 4 5 6 anion

> <PUBCHEM_HEAVY_ATOM_COUNT>
10

> <PUBCHEM_ATOM_DEF_STEREO_COUNT>
1

> <PUBCHEM_ATOM_UDEF_STEREO_COUNT>
0

> <PUBCHEM_BOND_DEF_STEREO_COUNT>
0

> <PUBCHEM_BOND_UDEF_STEREO_COUNT>
0

> <PUBCHEM_ISOTOPIC_ATOM_COUNT>
0

> <PUBCHEM_COMPONENT_COUNT>
1

> <PUBCHEM_CACTVS_TAUTO_COUNT>
1

> <PUBCHEM_CONFORMER_ID>
0002FBFA00000001

> <PUBCHEM_MMFF94_ENERGY>
-26.855

> <PUBCHEM_FEATURE_SELFOVERLAP>
35.557

> <PUBCHEM_SHAPE_FINGERPRINT>
10857977 72 18262808349952440467
12716758 59 18411705425982921587
12897270 3 18338789040132978876
12932741 1 17603865568175076959
12932764 1 17531243920424702999
15310529 11 15698000768757741471
23235687 12 17775294841208892367
23552423 10 18272368680675700191
29004967 10 18188492376137063763
3248919 1 18341902861378919679
369184 2 17385732395647256459
5084963 1 18336545035647947404

> <PUBCHEM_SHAPE_MULTIPOLES>
175.32
4.51
1.38
0.93
0.49
0.17
0.19
0.61
-0.24
0.22
-0.01
-0.55
-0.06
0.16

> <PUBCHEM_SHAPE_SELFOVERLAP>
318.581

> <PUBCHEM_SHAPE_VOLUME>
112.7

> <PUBCHEM_COORDINATE_TYPE>
2
5
10

$$$$

