14195
  -OEChem-06241222422D

 50 51  0     0  0  0  0  0  0999 V2000
    2.5000    5.8700    0.0000 Cl  0  5  0  0  0  0  0  0  0  0  0  0
    0.0000    5.8700    0.0000 Cl  0  5  0  0  0  0  0  0  0  0  0  0
    8.1350    3.6200    0.0000 N   0  3  0  0  0  0  0  0  0  0  0  0
    8.1350    8.6200    0.0000 N   0  3  0  0  0  0  0  0  0  0  0  0
    8.1350    5.6200    0.0000 C   0  0  0  0  0  0  0  0  0  0  0  0
    8.1350    6.6200    0.0000 C   0  0  0  0  0  0  0  0  0  0  0  0
    8.1350    2.6200    0.0000 C   0  0  0  0  0  0  0  0  0  0  0  0
    8.1350    9.6200    0.0000 C   0  0  0  0  0  0  0  0  0  0  0  0
    7.2690    5.1200    0.0000 C   0  0  0  0  0  0  0  0  0  0  0  0
    7.2690    7.1200    0.0000 C   0  0  0  0  0  0  0  0  0  0  0  0
    9.0010    5.1200    0.0000 C   0  0  0  0  0  0  0  0  0  0  0  0
    9.0010    7.1200    0.0000 C   0  0  0  0  0  0  0  0  0  0  0  0
    7.2690    4.1200    0.0000 C   0  0  0  0  0  0  0  0  0  0  0  0
    7.2690    8.1200    0.0000 C   0  0  0  0  0  0  0  0  0  0  0  0
    9.0010    4.1200    0.0000 C   0  0  0  0  0  0  0  0  0  0  0  0
    9.0010    8.1200    0.0000 C   0  0  0  0  0  0  0  0  0  0  0  0
    7.2690    2.1200    0.0000 C   0  0  0  0  0  0  0  0  0  0  0  0
    9.0010   10.1200    0.0000 C   0  0  0  0  0  0  0  0  0  0  0  0
    7.2690    1.1200    0.0000 C   0  0  0  0  0  0  0  0  0  0  0  0
    9.0010   11.1200    0.0000 C   0  0  0  0  0  0  0  0  0  0  0  0
    6.4030    2.6200    0.0000 C   0  0  0  0  0  0  0  0  0  0  0  0
    9.8671    9.6200    0.0000 C   0  0  0  0  0  0  0  0  0  0  0  0
    9.8671   11.6200    0.0000 C   0  0  0  0  0  0  0  0  0  0  0  0
    6.4030    0.6200    0.0000 C   0  0  0  0  0  0  0  0  0  0  0  0
   10.7331   10.1200    0.0000 C   0  0  0  0  0  0  0  0  0  0  0  0
    5.5369    2.1200    0.0000 C   0  0  0  0  0  0  0  0  0  0  0  0
    5.5369    1.1200    0.0000 C   0  0  0  0  0  0  0  0  0  0  0  0
   10.7331   11.1200    0.0000 C   0  0  0  0  0  0  0  0  0  0  0  0
    8.3471    2.0374    0.0000 H   0  0  0  0  0  0  0  0  0  0  0  0
    8.7456    2.7277    0.0000 H   0  0  0  0  0  0  0  0  0  0  0  0
    7.9230   10.2026    0.0000 H   0  0  0  0  0  0  0  0  0  0  0  0
    7.5244    9.5123    0.0000 H   0  0  0  0  0  0  0  0  0  0  0  0
    6.7320    6.8100    0.0000 H   0  0  0  0  0  0  0  0  0  0  0  0
    6.7320    5.4300    0.0000 H   0  0  0  0  0  0  0  0  0  0  0  0
    9.5380    6.8100    0.0000 H   0  0  0  0  0  0  0  0  0  0  0  0
    9.5380    5.4300    0.0000 H   0  0  0  0  0  0  0  0  0  0  0  0
    6.7320    8.4300    0.0000 H   0  0  0  0  0  0  0  0  0  0  0  0
    6.7320    3.8100    0.0000 H   0  0  0  0  0  0  0  0  0  0  0  0
    9.5380    8.4300    0.0000 H   0  0  0  0  0  0  0  0  0  0  0  0
    9.5380    3.8100    0.0000 H   0  0  0  0  0  0  0  0  0  0  0  0
    8.4641   11.4300    0.0000 H   0  0  0  0  0  0  0  0  0  0  0  0
    7.8059    0.8100    0.0000 H   0  0  0  0  0  0  0  0  0  0  0  0
    9.8671    9.0000    0.0000 H   0  0  0  0  0  0  0  0  0  0  0  0
    6.4030    3.2400    0.0000 H   0  0  0  0  0  0  0  0  0  0  0  0
    9.8671   12.2400    0.0000 H   0  0  0  0  0  0  0  0  0  0  0  0
    6.4030    0.0000    0.0000 H   0  0  0  0  0  0  0  0  0  0  0  0
   11.2700    9.8100    0.0000 H   0  0  0  0  0  0  0  0  0  0  0  0
    5.0000    2.4300    0.0000 H   0  0  0  0  0  0  0  0  0  0  0  0
    5.0000    0.8100    0.0000 H   0  0  0  0  0  0  0  0  0  0  0  0
   11.2700   11.4300    0.0000 H   0  0  0  0  0  0  0  0  0  0  0  0
  3  7  1  0  0  0  0
  3 13  2  0  0  0  0
  3 15  1  0  0  0  0
  4  8  1  0  0  0  0
  4 14  2  0  0  0  0
  4 16  1  0  0  0  0
  5  6  1  0  0  0  0
  5  9  2  0  0  0  0
  5 11  1  0  0  0  0
  6 10  2  0  0  0  0
  6 12  1  0  0  0  0
  7 17  1  0  0  0  0
  7 29  1  0  0  0  0
  7 30  1  0  0  0  0
  8 18  1  0  0  0  0
  8 31  1  0  0  0  0
  8 32  1  0  0  0  0
  9 13  1  0  0  0  0
  9 34  1  0  0  0  0
 10 14  1  0  0  0  0
 10 33  1  0  0  0  0
 11 15  2  0  0  0  0
 11 36  1  0  0  0  0
 12 16  2  0  0  0  0
 12 35  1  0  0  0  0
 13 38  1  0  0  0  0
 14 37  1  0  0  0  0
 15 40  1  0  0  0  0
 16 39  1  0  0  0  0
 17 19  2  0  0  0  0
 17 21  1  0  0  0  0
 18 20  2  0  0  0  0
 18 22  1  0  0  0  0
 19 24  1  0  0  0  0
 19 42  1  0  0  0  0
 20 23  1  0  0  0  0
 20 41  1  0  0  0  0
 21 26  2  0  0  0  0
 21 44  1  0  0  0  0
 22 25  2  0  0  0  0
 22 43  1  0  0  0  0
 23 28  2  0  0  0  0
 23 45  1  0  0  0  0
 24 27  2  0  0  0  0
 24 46  1  0  0  0  0
 25 28  1  0  0  0  0
 25 47  1  0  0  0  0
 26 27  1  0  0  0  0
 26 48  1  0  0  0  0
 27 49  1  0  0  0  0
 28 50  1  0  0  0  0
M  CHG  4   1  -1   2  -1   3   1   4   1
M  END
> <PUBCHEM_COMPOUND_CID>
14195

> <PUBCHEM_COMPOUND_CANONICALIZED>
1

> <PUBCHEM_CACTVS_COMPLEXITY>
343

> <PUBCHEM_CACTVS_HBOND_ACCEPTOR>
2

> <PUBCHEM_CACTVS_HBOND_DONOR>
0

> <PUBCHEM_CACTVS_ROTATABLE_BOND>
5

> <PUBCHEM_CACTVS_SUBSKEYS>
AAADceB7AAAGAAAAAAAAAAAAAAAAAAAAAAA8eIEAAAAAAAAB9AAAHAAAAAAADADBGgQ8gJMMEACgAjBnRACCgCAxAiAI2CA4ZJgIIGLAkZGEIAhggADIyAcQgAAOgAAAAAAAAAAAAAAAAAAAAAAAAAAAAA==

> <PUBCHEM_IUPAC_OPENEYE_NAME>
1-benzyl-4-(1-benzylpyridin-1-ium-4-yl)pyridin-1-ium dichloride

> <PUBCHEM_IUPAC_CAS_NAME>
1-(phenylmethyl)-4-[1-(phenylmethyl)-4-pyridin-1-iumyl]pyridin-1-ium dichloride

> <PUBCHEM_IUPAC_NAME>
1-benzyl-4-(1-benzylpyridin-1-ium-4-yl)pyridin-1-ium dichloride

> <PUBCHEM_IUPAC_SYSTEMATIC_NAME>
1-(phenylmethyl)-4-[1-(phenylmethyl)pyridin-1-ium-4-yl]pyridin-1-ium dichloride

> <PUBCHEM_IUPAC_TRADITIONAL_NAME>
1-benzyl-4-(1-benzylpyridin-1-ium-4-yl)pyridin-1-ium dichloride

> <PUBCHEM_IUPAC_INCHI>
InChI=1S/C24H22N2.2ClH/c1-3-7-21(8-4-1)19-25-15-11-23(12-16-25)24-13-17-26(18-14-24)20-22-9-5-2-6-10-22;;/h1-18H,19-20H2;2*1H/q+2;;/p-2

> <PUBCHEM_IUPAC_INCHIKEY>
NLOIIDFMYPFJKP-UHFFFAOYSA-L

> <PUBCHEM_EXACT_MASS>
408.116004

> <PUBCHEM_MOLECULAR_FORMULA>
C24H22Cl2N2

> <PUBCHEM_MOLECULAR_WEIGHT>
409.35088

> <PUBCHEM_OPENEYE_CAN_SMILES>
C1=CC=C(C=C1)C[N+]2=CC=C(C=C2)C3=CC=[N+](C=C3)CC4=CC=CC=C4.[Cl-].[Cl-]

> <PUBCHEM_OPENEYE_ISO_SMILES>
C1=CC=C(C=C1)C[N+]2=CC=C(C=C2)C3=CC=[N+](C=C3)CC4=CC=CC=C4.[Cl-].[Cl-]

> <PUBCHEM_CACTVS_TPSA>
7.8

> <PUBCHEM_MONOISOTOPIC_WEIGHT>
408.116004

> <PUBCHEM_TOTAL_CHARGE>
0

> <PUBCHEM_HEAVY_ATOM_COUNT>
28

> <PUBCHEM_ATOM_DEF_STEREO_COUNT>
0

> <PUBCHEM_ATOM_UDEF_STEREO_COUNT>
0

> <PUBCHEM_BOND_DEF_STEREO_COUNT>
0

> <PUBCHEM_BOND_UDEF_STEREO_COUNT>
0

> <PUBCHEM_ISOTOPIC_ATOM_COUNT>
0

> <PUBCHEM_COMPONENT_COUNT>
3

> <PUBCHEM_CACTVS_TAUTO_COUNT>
1

> <PUBCHEM_COORDINATE_TYPE>
1
5
255

> <PUBCHEM_BONDANNOTATIONS>
10  14  8
11  15  8
12  16  8
17  19  8
17  21  8
18  20  8
18  22  8
19  24  8
20  23  8
21  26  8
22  25  8
23  28  8
24  27  8
25  28  8
26  27  8
3  13  8
3  15  8
4  14  8
4  16  8
5  11  8
5  9  8
6  10  8
6  12  8
9  13  8

$$$$

