128357
  -OEChem-07051213103D

 69 72  0     1  0  0  0  0  0999 V2000
    2.4138    2.0742   -1.5271 O   0  0  0  0  0  0  0  0  0  0  0  0
    5.8384   -1.3195   -2.6663 O   0  0  0  0  0  0  0  0  0  0  0  0
   -6.1556   -0.0997    1.3298 O   0  0  0  0  0  0  0  0  0  0  0  0
   -6.8879   -0.8546   -2.0997 O   0  0  0  0  0  0  0  0  0  0  0  0
   -7.9933    0.3788   -0.5482 O   0  0  0  0  0  0  0  0  0  0  0  0
    0.1807    1.0046   -0.0795 C   0  0  2  0  0  0  0  0  0  0  0  0
   -0.7399   -0.0277    0.6058 C   0  0  1  0  0  0  0  0  0  0  0  0
    1.5936    1.0455    0.5219 C   0  0  1  0  0  0  0  0  0  0  0  0
    2.2423   -0.3720    0.3691 C   0  0  1  0  0  0  0  0  0  0  0  0
    3.7010   -0.4135    0.9655 C   0  0  2  0  0  0  0  0  0  0  0  0
   -2.0464    0.2451   -0.1796 C   0  0  2  0  0  0  0  0  0  0  0  0
    4.5699    0.6958    0.2841 C   0  0  2  0  0  0  0  0  0  0  0  0
   -0.1310   -1.4163    0.3749 C   0  0  0  0  0  0  0  0  0  0  0  0
    1.3126   -1.4983    0.9014 C   0  0  0  0  0  0  0  0  0  0  0  0
    2.4654    2.1495   -0.1057 C   0  0  1  0  0  0  0  0  0  0  0  0
   -0.6543    2.2821   -0.0830 C   0  0  0  0  0  0  0  0  0  0  0  0
   -2.0995    1.7875   -0.2767 C   0  0  0  0  0  0  0  0  0  0  0  0
    3.9184    2.0908    0.3740 C   0  0  0  0  0  0  0  0  0  0  0  0
    4.3957   -1.7915    0.7554 C   0  0  0  0  0  0  0  0  0  0  0  0
   -0.9420    0.2090    2.1231 C   0  0  0  0  0  0  0  0  0  0  0  0
   -3.3231   -0.3566    0.3897 C   0  0  1  0  0  0  0  0  0  0  0  0
    4.9495    0.3515   -1.1718 C   0  0  0  0  0  0  0  0  0  0  0  0
    3.6856   -0.1792    2.5001 C   0  0  0  0  0  0  0  0  0  0  0  0
    4.7298   -2.1047   -0.6966 C   0  0  0  0  0  0  0  0  0  0  0  0
    5.6120   -1.0171   -1.2936 C   0  0  1  0  0  0  0  0  0  0  0  0
   -4.5648   -0.0387   -0.4731 C   0  0  0  0  0  0  0  0  0  0  0  0
   -3.1735   -1.8769    0.5229 C   0  0  0  0  0  0  0  0  0  0  0  0
   -5.8700   -0.6460    0.0501 C   0  0  2  0  0  0  0  0  0  0  0  0
   -7.0274   -0.3021   -0.8671 C   0  0  0  0  0  0  0  0  0  0  0  0
    0.2889    0.7057   -1.1353 H   0  0  0  0  0  0  0  0  0  0  0  0
    1.5096    1.2859    1.5863 H   0  0  0  0  0  0  0  0  0  0  0  0
    2.3226   -0.5590   -0.7106 H   0  0  0  0  0  0  0  0  0  0  0  0
   -1.9193   -0.1368   -1.2046 H   0  0  0  0  0  0  0  0  0  0  0  0
    5.5213    0.7614    0.8329 H   0  0  0  0  0  0  0  0  0  0  0  0
   -0.1260   -1.6539   -0.6968 H   0  0  0  0  0  0  0  0  0  0  0  0
   -0.6761   -2.2195    0.8686 H   0  0  0  0  0  0  0  0  0  0  0  0
    1.2931   -1.4920    1.9954 H   0  0  0  0  0  0  0  0  0  0  0  0
    1.7101   -2.4755    0.6058 H   0  0  0  0  0  0  0  0  0  0  0  0
    2.0652    3.1331    0.1692 H   0  0  0  0  0  0  0  0  0  0  0  0
   -0.3648    2.9700   -0.8830 H   0  0  0  0  0  0  0  0  0  0  0  0
   -0.5612    2.8230    0.8656 H   0  0  0  0  0  0  0  0  0  0  0  0
   -2.7445    2.2307    0.4906 H   0  0  0  0  0  0  0  0  0  0  0  0
   -2.4882    2.0977   -1.2530 H   0  0  0  0  0  0  0  0  0  0  0  0
    3.9545    2.4292    1.4168 H   0  0  0  0  0  0  0  0  0  0  0  0
    4.5212    2.8045   -0.2017 H   0  0  0  0  0  0  0  0  0  0  0  0
    3.7955   -2.6052    1.1763 H   0  0  0  0  0  0  0  0  0  0  0  0
    5.3376   -1.8060    1.3223 H   0  0  0  0  0  0  0  0  0  0  0  0
    0.0010    0.2187    2.6762 H   0  0  0  0  0  0  0  0  0  0  0  0
   -1.4369    1.1625    2.3334 H   0  0  0  0  0  0  0  0  0  0  0  0
   -1.5512   -0.5769    2.5790 H   0  0  0  0  0  0  0  0  0  0  0  0
   -3.5138    0.0530    1.3893 H   0  0  0  0  0  0  0  0  0  0  0  0
    4.0778    0.3751   -1.8328 H   0  0  0  0  0  0  0  0  0  0  0  0
    5.6315    1.1137   -1.5705 H   0  0  0  0  0  0  0  0  0  0  0  0
    4.7075   -0.1311    2.8955 H   0  0  0  0  0  0  0  0  0  0  0  0
    3.1933    0.7524    2.7882 H   0  0  0  0  0  0  0  0  0  0  0  0
    3.1818   -0.9957    3.0272 H   0  0  0  0  0  0  0  0  0  0  0  0
    5.2487   -3.0693   -0.7586 H   0  0  0  0  0  0  0  0  0  0  0  0
    3.8147   -2.2291   -1.2880 H   0  0  0  0  0  0  0  0  0  0  0  0
    6.5868   -1.0059   -0.7932 H   0  0  0  0  0  0  0  0  0  0  0  0
   -4.6861    1.0503   -0.5350 H   0  0  0  0  0  0  0  0  0  0  0  0
   -4.3840   -0.3863   -1.4985 H   0  0  0  0  0  0  0  0  0  0  0  0
    1.5599    2.4314   -1.8206 H   0  0  0  0  0  0  0  0  0  0  0  0
   -2.5589   -2.1389    1.3846 H   0  0  0  0  0  0  0  0  0  0  0  0
   -4.1121   -2.3899    0.7348 H   0  0  0  0  0  0  0  0  0  0  0  0
   -2.7594   -2.3282   -0.3845 H   0  0  0  0  0  0  0  0  0  0  0  0
   -5.8652   -1.7338    0.1357 H   0  0  0  0  0  0  0  0  0  0  0  0
    4.9784   -1.3276   -3.1199 H   0  0  0  0  0  0  0  0  0  0  0  0
   -6.1377    0.8699    1.2574 H   0  0  0  0  0  0  0  0  0  0  0  0
   -7.6428   -0.6352   -2.6863 H   0  0  0  0  0  0  0  0  0  0  0  0
  1 15  1  0  0  0  0
  1 62  1  0  0  0  0
  2 25  1  0  0  0  0
  2 67  1  0  0  0  0
  3 28  1  0  0  0  0
  3 68  1  0  0  0  0
  4 29  1  0  0  0  0
  4 69  1  0  0  0  0
  5 29  2  0  0  0  0
  6  7  1  0  0  0  0
  6  8  1  0  0  0  0
  6 16  1  0  0  0  0
  6 30  1  0  0  0  0
  7 11  1  0  0  0  0
  7 13  1  0  0  0  0
  7 20  1  0  0  0  0
  8  9  1  0  0  0  0
  8 15  1  0  0  0  0
  8 31  1  0  0  0  0
  9 10  1  0  0  0  0
  9 14  1  0  0  0  0
  9 32  1  0  0  0  0
 10 12  1  0  0  0  0
 10 19  1  0  0  0  0
 10 23  1  0  0  0  0
 11 17  1  0  0  0  0
 11 21  1  0  0  0  0
 11 33  1  0  0  0  0
 12 18  1  0  0  0  0
 12 22  1  0  0  0  0
 12 34  1  0  0  0  0
 13 14  1  0  0  0  0
 13 35  1  0  0  0  0
 13 36  1  0  0  0  0
 14 37  1  0  0  0  0
 14 38  1  0  0  0  0
 15 18  1  0  0  0  0
 15 39  1  0  0  0  0
 16 17  1  0  0  0  0
 16 40  1  0  0  0  0
 16 41  1  0  0  0  0
 17 42  1  0  0  0  0
 17 43  1  0  0  0  0
 18 44  1  0  0  0  0
 18 45  1  0  0  0  0
 19 24  1  0  0  0  0
 19 46  1  0  0  0  0
 19 47  1  0  0  0  0
 20 48  1  0  0  0  0
 20 49  1  0  0  0  0
 20 50  1  0  0  0  0
 21 26  1  0  0  0  0
 21 27  1  0  0  0  0
 21 51  1  0  0  0  0
 22 25  1  0  0  0  0
 22 52  1  0  0  0  0
 22 53  1  0  0  0  0
 23 54  1  0  0  0  0
 23 55  1  0  0  0  0
 23 56  1  0  0  0  0
 24 25  1  0  0  0  0
 24 57  1  0  0  0  0
 24 58  1  0  0  0  0
 25 59  1  0  0  0  0
 26 28  1  0  0  0  0
 26 60  1  0  0  0  0
 26 61  1  0  0  0  0
 27 63  1  0  0  0  0
 27 64  1  0  0  0  0
 27 65  1  0  0  0  0
 28 29  1  0  0  0  0
 28 66  1  0  0  0  0
M  END
> <PUBCHEM_COMPOUND_CID>
128357

> <PUBCHEM_CONFORMER_RMSD>
0.8

> <PUBCHEM_CONFORMER_DIVERSEORDER>
1
3
4
2

> <PUBCHEM_MMFF94_PARTIAL_CHARGES>
13
1 -0.68
15 0.28
2 -0.68
25 0.28
28 0.34
29 0.66
3 -0.68
4 -0.65
5 -0.57
62 0.4
67 0.4
68 0.4
69 0.5

> <PUBCHEM_EFFECTIVE_ROTOR_COUNT>
6.2

> <PUBCHEM_PHARMACOPHORE_FEATURES>
14
1 1 acceptor
1 1 donor
1 2 acceptor
1 2 donor
1 27 hydrophobe
1 3 acceptor
1 3 donor
1 4 acceptor
1 5 acceptor
3 4 5 29 anion
5 6 7 11 16 17 rings
6 10 12 19 22 24 25 rings
6 6 7 8 9 13 14 rings
6 8 9 10 12 15 18 rings

> <PUBCHEM_HEAVY_ATOM_COUNT>
29

> <PUBCHEM_ATOM_DEF_STEREO_COUNT>
11

> <PUBCHEM_ATOM_UDEF_STEREO_COUNT>
0

> <PUBCHEM_BOND_DEF_STEREO_COUNT>
0

> <PUBCHEM_BOND_UDEF_STEREO_COUNT>
0

> <PUBCHEM_ISOTOPIC_ATOM_COUNT>
0

> <PUBCHEM_COMPONENT_COUNT>
1

> <PUBCHEM_CACTVS_TAUTO_COUNT>
1

> <PUBCHEM_CONFORMER_ID>
0001F56500000001

> <PUBCHEM_MMFF94_ENERGY>
99.6662

> <PUBCHEM_FEATURE_SELFOVERLAP>
71.231

> <PUBCHEM_SHAPE_FINGERPRINT>
10693767 8 18335424611951930510
10906281 52 18271795857388777883
11578080 2 12750652016544112524
11796584 16 18340209579001987547
11954058 11 16733253647615354478
11961588 58 16558735803216202814
12011746 2 18060131042446228378
12166972 35 17967530177118001449
12236239 1 17822009800913669337
12788726 201 18130509724972916417
12838862 33 18199765660889760688
13533116 47 17748825202956679368
13782708 43 17022904553824346975
14251757 52 14764348241054683279
14294032 229 18125435573933798997
14347332 77 18262800794946756588
14931854 50 17988348361092026502
15082195 135 17704065205618723996
15183329 4 18413673513526920305
15475509 35 15864069923070814782
16994733 274 14189578546540900477
17349148 13 17968087638155504408
17492 54 17774703330577618422
1813 80 15285355098256110401
18222031 100 18408887342978237170
20028762 73 18187369851964512790
2026 5 17824814784221753118
21267235 1 18413103982934593467
21279426 13 18271525308650742371
21521239 73 18335144167977789207
21641784 216 17775001340519536653
221357 26 18411417332467018892
2215653 11 18412261731305580727
23522609 53 18193245655088651577
23559900 14 18340201895568901064
23569914 152 17402922379848803711
23569943 247 17751350897104502599
255183 451 18121221145553186606
29717793 49 18259985963744018021
3004659 81 18343586230887339509
335352 9 18343305850884722246
34797466 226 18334014969303954444
350125 39 18343582975444917709
3633792 109 18333448742047763624
3886686 26 13917621105262074446
4073 2 17489023739423396531
4340502 62 15626232298943673400
8988823 20 17095531660230325480

> <PUBCHEM_SHAPE_MULTIPOLES>
567.46
16.83
2.15
1.71
27.02
0.56
0.14
-4.89
7.52
-2.09
0.23
-1.46
-0.43
0.43

> <PUBCHEM_SHAPE_SELFOVERLAP>
1190.427

> <PUBCHEM_SHAPE_VOLUME>
318.4

> <PUBCHEM_COORDINATE_TYPE>
2
5
10

$$$$

