5281508
  -OEChem-07051212573D

 48 51  0     1  0  0  0  0  0999 V2000
   -1.1737    2.9768   -1.1840 O   0  0  0  0  0  0  0  0  0  0  0  0
   -1.6927    0.8582    1.7425 O   0  0  0  0  0  0  0  0  0  0  0  0
   -0.2264    2.6791    1.7380 O   0  0  0  0  0  0  0  0  0  0  0  0
    2.2400   -0.1278    0.0150 O   0  0  0  0  0  0  0  0  0  0  0  0
   -1.3128   -3.2001    0.1684 O   0  0  0  0  0  0  0  0  0  0  0  0
    0.1053   -4.9998    0.2048 O   0  0  0  0  0  0  0  0  0  0  0  0
    2.5077    1.7194    1.3620 O   0  0  0  0  0  0  0  0  0  0  0  0
   -0.9376    1.7975   -0.3706 C   0  0  1  0  0  0  0  0  0  0  0  0
   -1.9610    1.8420   -1.5163 C   0  0  1  0  0  0  0  0  0  0  0  0
    0.4103    1.1681   -0.6541 C   0  0  0  0  0  0  0  0  0  0  0  0
   -1.3329    2.0670    1.0710 C   0  0  1  0  0  0  0  0  0  0  0  0
   -3.4345    1.9419   -1.2501 C   0  0  0  0  0  0  0  0  0  0  0  0
    0.8120   -0.1006    0.1343 C   0  0  1  0  0  0  0  0  0  0  0  0
    0.1991   -1.4341   -0.3942 C   0  0  2  0  0  0  0  0  0  0  0  0
   -4.0315    0.5711   -0.8861 C   0  0  0  0  0  0  0  0  0  0  0  0
   -1.1542   -1.7748    0.2632 C   0  0  1  0  0  0  0  0  0  0  0  0
   -3.1179   -0.1791    0.0589 C   0  0  0  0  0  0  0  0  0  0  0  0
   -3.0072    0.3796    1.4554 C   0  0  0  0  0  0  0  0  0  0  0  0
   -2.3176   -1.1439   -0.4359 C   0  0  0  0  0  0  0  0  0  0  0  0
    0.9035   -2.7419   -0.1504 C   0  0  0  0  0  0  0  0  0  0  0  0
   -0.0965   -3.8027    0.1068 C   0  0  0  0  0  0  0  0  0  0  0  0
    2.1946   -3.0838   -0.2072 C   0  0  0  0  0  0  0  0  0  0  0  0
    2.8828    0.9810    0.4622 C   0  0  0  0  0  0  0  0  0  0  0  0
    4.1361    1.1717   -0.3198 C   0  0  0  0  0  0  0  0  0  0  0  0
    4.5046    0.2066   -1.4047 C   0  0  0  0  0  0  0  0  0  0  0  0
    4.9005    2.2288   -0.0091 C   0  0  0  0  0  0  0  0  0  0  0  0
   -1.7386    1.3241   -2.4409 H   0  0  0  0  0  0  0  0  0  0  0  0
    1.1205    1.9950   -0.5648 H   0  0  0  0  0  0  0  0  0  0  0  0
    0.4726    0.9175   -1.7232 H   0  0  0  0  0  0  0  0  0  0  0  0
   -2.1602    2.7823    1.1371 H   0  0  0  0  0  0  0  0  0  0  0  0
   -3.9368    2.3244   -2.1464 H   0  0  0  0  0  0  0  0  0  0  0  0
   -3.6500    2.6646   -0.4556 H   0  0  0  0  0  0  0  0  0  0  0  0
    0.5871   -0.0029    1.2015 H   0  0  0  0  0  0  0  0  0  0  0  0
    0.0846   -1.3611   -1.4854 H   0  0  0  0  0  0  0  0  0  0  0  0
   -4.1782   -0.0034   -1.8102 H   0  0  0  0  0  0  0  0  0  0  0  0
   -5.0272    0.6922   -0.4442 H   0  0  0  0  0  0  0  0  0  0  0  0
   -1.1464   -1.5473    1.3348 H   0  0  0  0  0  0  0  0  0  0  0  0
   -3.7374    1.1758    1.6413 H   0  0  0  0  0  0  0  0  0  0  0  0
   -3.2329   -0.4158    2.1749 H   0  0  0  0  0  0  0  0  0  0  0  0
   -2.4418   -1.4352   -1.4782 H   0  0  0  0  0  0  0  0  0  0  0  0
   -0.5898    3.2186    2.4605 H   0  0  0  0  0  0  0  0  0  0  0  0
    2.9686   -2.3705   -0.4543 H   0  0  0  0  0  0  0  0  0  0  0  0
    2.5255   -4.1019   -0.0276 H   0  0  0  0  0  0  0  0  0  0  0  0
    4.6945   -0.7864   -0.9861 H   0  0  0  0  0  0  0  0  0  0  0  0
    3.7033    0.1320   -2.1473 H   0  0  0  0  0  0  0  0  0  0  0  0
    5.4114    0.5172   -1.9351 H   0  0  0  0  0  0  0  0  0  0  0  0
    5.8262    2.4218   -0.5425 H   0  0  0  0  0  0  0  0  0  0  0  0
    4.6382    2.9308    0.7753 H   0  0  0  0  0  0  0  0  0  0  0  0
  1  8  1  0  0  0  0
  1  9  1  0  0  0  0
  2 11  1  0  0  0  0
  2 18  1  0  0  0  0
  3 11  1  0  0  0  0
  3 41  1  0  0  0  0
  4 13  1  0  0  0  0
  4 23  1  0  0  0  0
  5 16  1  0  0  0  0
  5 21  1  0  0  0  0
  6 21  2  0  0  0  0
  7 23  2  0  0  0  0
  8  9  1  0  0  0  0
  8 10  1  0  0  0  0
  8 11  1  0  0  0  0
  9 12  1  0  0  0  0
  9 27  1  0  0  0  0
 10 13  1  0  0  0  0
 10 28  1  0  0  0  0
 10 29  1  0  0  0  0
 11 30  1  0  0  0  0
 12 15  1  0  0  0  0
 12 31  1  0  0  0  0
 12 32  1  0  0  0  0
 13 14  1  0  0  0  0
 13 33  1  0  0  0  0
 14 16  1  0  0  0  0
 14 20  1  0  0  0  0
 14 34  1  0  0  0  0
 15 17  1  0  0  0  0
 15 35  1  0  0  0  0
 15 36  1  0  0  0  0
 16 19  1  0  0  0  0
 16 37  1  0  0  0  0
 17 18  1  0  0  0  0
 17 19  2  0  0  0  0
 18 38  1  0  0  0  0
 18 39  1  0  0  0  0
 19 40  1  0  0  0  0
 20 21  1  0  0  0  0
 20 22  2  0  0  0  0
 22 42  1  0  0  0  0
 22 43  1  0  0  0  0
 23 24  1  0  0  0  0
 24 25  1  0  0  0  0
 24 26  2  0  0  0  0
 25 44  1  0  0  0  0
 25 45  1  0  0  0  0
 25 46  1  0  0  0  0
 26 47  1  0  0  0  0
 26 48  1  0  0  0  0
M  END
> <PUBCHEM_COMPOUND_CID>
5281508

> <PUBCHEM_CONFORMER_RMSD>
0.8

> <PUBCHEM_CONFORMER_DIVERSEORDER>
1
2

> <PUBCHEM_MMFF94_PARTIAL_CHARGES>
33
1 -0.3
10 0.09
11 0.65
12 0.09
13 0.28
14 0.14
15 0.14
16 0.42
17 -0.28
18 0.42
19 -0.29
2 -0.56
20 -0.12
21 0.71
22 -0.3
23 0.71
24 -0.12
25 0.14
26 -0.3
27 0.1
3 -0.68
4 -0.43
40 0.15
41 0.4
42 0.15
43 0.15
47 0.15
48 0.15
5 -0.43
6 -0.57
7 -0.57
8 -0.04
9 -0.05

> <PUBCHEM_EFFECTIVE_ROTOR_COUNT>
4.8

> <PUBCHEM_PHARMACOPHORE_FEATURES>
7
1 1 acceptor
1 2 acceptor
1 3 acceptor
1 3 donor
1 6 acceptor
1 7 acceptor
5 5 14 16 20 21 rings

> <PUBCHEM_HEAVY_ATOM_COUNT>
26

> <PUBCHEM_ATOM_DEF_STEREO_COUNT>
6

> <PUBCHEM_ATOM_UDEF_STEREO_COUNT>
0

> <PUBCHEM_BOND_DEF_STEREO_COUNT>
1

> <PUBCHEM_BOND_UDEF_STEREO_COUNT>
0

> <PUBCHEM_ISOTOPIC_ATOM_COUNT>
0

> <PUBCHEM_COMPONENT_COUNT>
1

> <PUBCHEM_CACTVS_TAUTO_COUNT>
1

> <PUBCHEM_CONFORMER_ID>
005096E400000001

> <PUBCHEM_MMFF94_ENERGY>
79.984

> <PUBCHEM_FEATURE_SELFOVERLAP>
35.566

> <PUBCHEM_SHAPE_FINGERPRINT>
10165383 225 18336813234733358688
10411042 1 17260187697262481558
10863032 1 18263937707825232885
1100329 8 17905318529750866331
11370993 70 18341621437936710924
121448 382 18334581226360997412
13140716 1 17400632728156470315
13583140 156 16701474367979167316
138480 1 17691132955631580686
14223421 5 18269831094080868107
14251757 5 18196354937112401316
14468879 13 17988643064172505933
14787075 74 18115315466562105829
14790565 3 18339914944451690821
16945 1 18270968942370450525
17357779 13 17757005405873596719
17492 54 18127714668052575703
19591789 44 18339071687957910822
19958102 18 18337936971010256774
20600515 1 18048865312995680044
20775438 99 15663415260944819294
23227448 37 18124880058283423996
23419403 2 17623826317663440889
23557571 272 17975118861140341860
23559900 14 17980778347334160668
238 59 18122079842268142814
2748010 2 18199183065328029679
350125 39 18267861860234087038
458136 41 18266735960068969861
469060 322 18056464068078084659
484989 97 17548707283827763335
81228 2 18049445833865783794
9925002 15 17697024847718879388
9981440 41 18342187699177879921

> <PUBCHEM_SHAPE_MULTIPOLES>
493.98
6.78
4.81
1.34
5.78
6.14
-0.22
-4.84
1.51
0.69
-0.13
-0.56
-1
0.68

> <PUBCHEM_SHAPE_SELFOVERLAP>
1057.284

> <PUBCHEM_SHAPE_VOLUME>
270.7

> <PUBCHEM_COORDINATE_TYPE>
2
5
10

$$$$

