445794
  -OEChem-07051212442D

 59 62  0     1  0  0  0  0  0999 V2000
    5.0474    0.7384    0.0000 P   0  0  3  0  0  0  0  0  0  0  0  0
    5.4104    2.4320    0.0000 P   0  0  3  0  0  0  0  0  0  0  0  0
    4.4026   -2.7148    0.0000 O   0  0  0  0  0  0  0  0  0  0  0  0
    6.7523   -1.6311    0.0000 O   0  0  0  0  0  0  0  0  0  0  0  0
    6.7485   -3.8066    0.0000 O   0  0  0  0  0  0  0  0  0  0  0  0
    7.4382    4.7613    0.0000 O   0  0  0  0  0  0  0  0  0  0  0  0
    5.3548   -0.2132    0.0000 O   0  0  0  0  0  0  0  0  0  0  0  0
    5.3248    6.2543    0.0000 O   0  0  0  0  0  0  0  0  0  0  0  0
    7.2108    7.3389    0.0000 O   0  0  0  0  0  0  0  0  0  0  0  0
    6.0809    3.1740    0.0000 O   0  0  0  0  0  0  0  0  0  0  0  0
    8.8251    5.8803    0.0000 O   0  0  0  0  0  0  0  0  0  0  0  0
    4.7400    1.6900    0.0000 O   0  0  0  0  0  0  0  0  0  0  0  0
    5.9990    1.0458    0.0000 O   0  0  0  0  0  0  0  0  0  0  0  0
    4.0958    0.4310    0.0000 O   0  0  0  0  0  0  0  0  0  0  0  0
    4.6685    3.1024    0.0000 O   0  0  0  0  0  0  0  0  0  0  0  0
    6.1524    1.7616    0.0000 O   0  0  0  0  0  0  0  0  0  0  0  0
    4.6783   -4.4753    0.0000 N   0  0  0  0  0  0  0  0  0  0  0  0
    4.6783   -6.0848    0.0000 N   0  0  0  0  0  0  0  0  0  0  0  0
    2.8660   -4.2801    0.0000 N   0  0  0  0  0  0  0  0  0  0  0  0
    2.0000   -5.7801    0.0000 N   0  0  0  0  0  0  0  0  0  0  0  0
    2.8660   -7.2801    0.0000 N   0  0  0  0  0  0  0  0  0  0  0  0
    5.9422   -2.2174    0.0000 C   0  0  1  0  0  0  0  0  0  0  0  0
    5.9405   -3.2174    0.0000 C   0  0  2  0  0  0  0  0  0  0  0  0
    4.9917   -1.9068    0.0000 C   0  0  1  0  0  0  0  0  0  0  0  0
    4.9889   -3.5248    0.0000 C   0  0  1  0  0  0  0  0  0  0  0  0
    4.6844   -0.9552    0.0000 C   0  0  0  0  0  0  0  0  0  0  0  0
    6.2377    5.8460    0.0000 C   0  0  2  0  0  0  0  0  0  0  0  0
    6.4439    4.8675    0.0000 C   0  0  1  0  0  0  0  0  0  0  0  0
    7.1046    6.3445    0.0000 C   0  0  2  0  0  0  0  0  0  0  0  0
    7.8466    5.6741    0.0000 C   0  0  1  0  0  0  0  0  0  0  0  0
    5.7735    4.1255    0.0000 C   0  0  0  0  0  0  0  0  0  0  0  0
    3.7320   -4.7801    0.0000 C   0  0  0  0  0  0  0  0  0  0  0  0
    5.2619   -5.2801    0.0000 C   0  0  0  0  0  0  0  0  0  0  0  0
    3.7320   -5.7801    0.0000 C   0  0  0  0  0  0  0  0  0  0  0  0
    2.8660   -6.2801    0.0000 C   0  0  0  0  0  0  0  0  0  0  0  0
    2.0000   -4.7801    0.0000 C   0  0  0  0  0  0  0  0  0  0  0  0
    5.8463   -1.6049    0.0000 H   0  0  0  0  0  0  0  0  0  0  0  0
    5.8425   -3.8296    0.0000 H   0  0  0  0  0  0  0  0  0  0  0  0
    4.3795   -1.8087    0.0000 H   0  0  0  0  0  0  0  0  0  0  0  0
    5.4266   -3.9640    0.0000 H   0  0  0  0  0  0  0  0  0  0  0  0
    4.3035   -0.4660    0.0000 H   0  0  0  0  0  0  0  0  0  0  0  0
    4.1364   -1.2453    0.0000 H   0  0  0  0  0  0  0  0  0  0  0  0
    6.2063    6.4652    0.0000 H   0  0  0  0  0  0  0  0  0  0  0  0
    6.6651    4.2883    0.0000 H   0  0  0  0  0  0  0  0  0  0  0  0
    7.6838    6.5657    0.0000 H   0  0  0  0  0  0  0  0  0  0  0  0
    8.0081    6.2727    0.0000 H   0  0  0  0  0  0  0  0  0  0  0  0
    5.3926    4.6148    0.0000 H   0  0  0  0  0  0  0  0  0  0  0  0
    5.2256    3.8354    0.0000 H   0  0  0  0  0  0  0  0  0  0  0  0
    7.3182   -1.8842    0.0000 H   0  0  0  0  0  0  0  0  0  0  0  0
    7.3154   -3.5554    0.0000 H   0  0  0  0  0  0  0  0  0  0  0  0
    5.8819   -5.2801    0.0000 H   0  0  0  0  0  0  0  0  0  0  0  0
    5.2611    6.8711    0.0000 H   0  0  0  0  0  0  0  0  0  0  0  0
    7.7777    7.5901    0.0000 H   0  0  0  0  0  0  0  0  0  0  0  0
    9.2391    5.4189    0.0000 H   0  0  0  0  0  0  0  0  0  0  0  0
    1.4631   -4.4701    0.0000 H   0  0  0  0  0  0  0  0  0  0  0  0
    6.4590    0.6301    0.0000 H   0  0  0  0  0  0  0  0  0  0  0  0
    2.3291   -7.5901    0.0000 H   0  0  0  0  0  0  0  0  0  0  0  0
    3.4030   -7.5901    0.0000 H   0  0  0  0  0  0  0  0  0  0  0  0
    4.0785    2.9118    0.0000 H   0  0  0  0  0  0  0  0  0  0  0  0
  1  7  1  0  0  0  0
  1 12  1  0  0  0  0
  1 13  1  0  0  0  0
  1 14  2  0  0  0  0
  2 10  1  0  0  0  0
  2 12  1  0  0  0  0
  2 15  1  0  0  0  0
  2 16  2  0  0  0  0
  3 24  1  0  0  0  0
  3 25  1  0  0  0  0
 22  4  1  1  0  0  0
  4 49  1  0  0  0  0
 23  5  1  1  0  0  0
  5 50  1  0  0  0  0
  6 28  1  0  0  0  0
  6 30  1  0  0  0  0
  7 26  1  0  0  0  0
 27  8  1  1  0  0  0
  8 52  1  0  0  0  0
 29  9  1  1  0  0  0
  9 53  1  0  0  0  0
 10 31  1  0  0  0  0
 30 11  1  6  0  0  0
 11 54  1  0  0  0  0
 13 56  1  0  0  0  0
 15 59  1  0  0  0  0
 25 17  1  6  0  0  0
 17 32  1  0  0  0  0
 17 33  1  0  0  0  0
 18 33  2  0  0  0  0
 18 34  1  0  0  0  0
 19 32  1  0  0  0  0
 19 36  2  0  0  0  0
 20 35  2  0  0  0  0
 20 36  1  0  0  0  0
 21 35  1  0  0  0  0
 21 57  1  0  0  0  0
 21 58  1  0  0  0  0
 22 23  1  0  0  0  0
 22 24  1  0  0  0  0
 22 37  1  0  0  0  0
 23 25  1  0  0  0  0
 23 38  1  0  0  0  0
 24 26  1  6  0  0  0
 24 39  1  0  0  0  0
 25 40  1  0  0  0  0
 26 41  1  0  0  0  0
 26 42  1  0  0  0  0
 27 28  1  0  0  0  0
 27 29  1  0  0  0  0
 27 43  1  0  0  0  0
 28 31  1  6  0  0  0
 28 44  1  0  0  0  0
 29 30  1  0  0  0  0
 29 45  1  0  0  0  0
 30 46  1  0  0  0  0
 31 47  1  0  0  0  0
 31 48  1  0  0  0  0
 32 34  2  0  0  0  0
 33 51  1  0  0  0  0
 34 35  1  0  0  0  0
 36 55  1  0  0  0  0
M  END
> <PUBCHEM_COMPOUND_CID>
445794

> <PUBCHEM_COMPOUND_CANONICALIZED>
1

> <PUBCHEM_CACTVS_COMPLEXITY>
877

> <PUBCHEM_CACTVS_HBOND_ACCEPTOR>
18

> <PUBCHEM_CACTVS_HBOND_DONOR>
8

> <PUBCHEM_CACTVS_ROTATABLE_BOND>
9

> <PUBCHEM_CACTVS_SUBSKEYS>
AAADceBzvAMAAAAAAAAAAAAAAAAAAWJEgAAsAAAAAAAAAFgB+AAAHgAQCCAACBzxlwcF+L9MFxCgQQZhZICAgC0REKABUCAoVBCTWAJAyEAeRAgPAALXACDwMAIAAAAAAAAAAAAAAAAAAAAAAAAAAAAAAA==

> <PUBCHEM_IUPAC_OPENEYE_NAME>
[[(2R,3S,4R,5R)-5-(6-aminopurin-9-yl)-3,4-dihydroxy-tetrahydrofuran-2-yl]methoxy-hydroxy-phosphoryl] [(2R,3S,4R,5R)-3,4,5-trihydroxytetrahydrofuran-2-yl]methyl hydrogen phosphate

> <PUBCHEM_IUPAC_CAS_NAME>
[[(2R,3S,4R,5R)-5-(6-aminopurin-9-yl)-3,4-dihydroxy-2-oxolanyl]methoxy-hydroxyphosphoryl] [(2R,3S,4R,5R)-3,4,5-trihydroxy-2-oxolanyl]methyl hydrogen phosphate

> <PUBCHEM_IUPAC_NAME>
[[(2R,3S,4R,5R)-5-(6-aminopurin-9-yl)-3,4-dihydroxyoxolan-2-yl]methoxy-hydroxyphosphoryl] [(2R,3S,4R,5R)-3,4,5-trihydroxyoxolan-2-yl]methyl hydrogen phosphate

> <PUBCHEM_IUPAC_SYSTEMATIC_NAME>
[[(2R,3S,4R,5R)-5-(6-aminopurin-9-yl)-3,4-bis(oxidanyl)oxolan-2-yl]methoxy-oxidanyl-phosphoryl] [(2R,3S,4R,5R)-3,4,5-tris(oxidanyl)oxolan-2-yl]methyl hydrogen phosphate

> <PUBCHEM_IUPAC_TRADITIONAL_NAME>
[[(2R,3S,4R,5R)-5-adenin-9-yl-3,4-dihydroxy-tetrahydrofuran-2-yl]methoxy-hydroxy-phosphoryl] [(2R,3S,4R,5R)-3,4,5-trihydroxytetrahydrofuran-2-yl]methyl hydrogen phosphate

> <PUBCHEM_IUPAC_INCHI>
InChI=1S/C15H23N5O14P2/c16-12-7-13(18-3-17-12)20(4-19-7)14-10(23)8(21)5(32-14)1-30-35(26,27)34-36(28,29)31-2-6-9(22)11(24)15(25)33-6/h3-6,8-11,14-15,21-25H,1-2H2,(H,26,27)(H,28,29)(H2,16,17,18)/t5-,6-,8-,9-,10-,11-,14-,15-/m1/s1

> <PUBCHEM_IUPAC_INCHIKEY>
SRNWOUGRCWSEMX-KEOHHSTQSA-N

> <PUBCHEM_XLOGP3>
-6.1

> <PUBCHEM_EXACT_MASS>
559.071674

> <PUBCHEM_MOLECULAR_FORMULA>
C15H23N5O14P2

> <PUBCHEM_MOLECULAR_WEIGHT>
559.315744

> <PUBCHEM_OPENEYE_CAN_SMILES>
C1=NC2=C(C(=N1)N)N=CN2C3C(C(C(O3)COP(=O)(O)OP(=O)(O)OCC4C(C(C(O4)O)O)O)O)O

> <PUBCHEM_OPENEYE_ISO_SMILES>
C1=NC2=C(C(=N1)N)N=CN2[C@H]3[C@@H]([C@@H]([C@H](O3)COP(=O)(O)OP(=O)(O)OC[C@@H]4[C@H]([C@H]([C@@H](O4)O)O)O)O)O

> <PUBCHEM_CACTVS_TPSA>
292

> <PUBCHEM_MONOISOTOPIC_WEIGHT>
559.071674

> <PUBCHEM_TOTAL_CHARGE>
0

> <PUBCHEM_HEAVY_ATOM_COUNT>
36

> <PUBCHEM_ATOM_DEF_STEREO_COUNT>
8

> <PUBCHEM_ATOM_UDEF_STEREO_COUNT>
0

> <PUBCHEM_BOND_DEF_STEREO_COUNT>
0

> <PUBCHEM_BOND_UDEF_STEREO_COUNT>
0

> <PUBCHEM_ISOTOPIC_ATOM_COUNT>
0

> <PUBCHEM_COMPONENT_COUNT>
1

> <PUBCHEM_CACTVS_TAUTO_COUNT>
3

> <PUBCHEM_COORDINATE_TYPE>
1
5
255

> <PUBCHEM_BONDANNOTATIONS>
30  11  6
25  17  6
17  32  8
17  33  8
18  33  8
18  34  8
19  32  8
19  36  8
20  35  8
20  36  8
24  26  6
28  31  6
32  34  8
34  35  8
22  4  5
23  5  5
27  8  5
29  9  5

$$$$

