47205554
  -OEChem-06241222593D

 33 33  0     1  0  0  0  0  0999 V2000
    4.0575   -0.7043    0.0226 S   0  0  0  0  0  0  0  0  0  0  0  0
    3.8896   -1.1535   -1.3476 O   0  0  0  0  0  0  0  0  0  0  0  0
    5.3764   -0.6334    0.6250 O   0  0  0  0  0  0  0  0  0  0  0  0
    1.5395    0.6066   -1.4631 O   0  0  0  0  0  0  0  0  0  0  0  0
   -0.6285   -1.1064    0.9244 O   0  0  0  0  0  0  0  0  0  0  0  0
   -2.5982   -2.2216   -0.4757 O   0  0  0  0  0  0  0  0  0  0  0  0
    0.9668    1.1260    0.7221 N   0  0  0  0  0  0  0  0  0  0  0  0
   -0.3787    1.1456    0.4473 N   0  0  0  0  0  0  0  0  0  0  0  0
    3.2981    0.8870    0.1753 C   0  0  1  0  0  0  0  0  0  0  0  0
    4.0844    1.9342   -0.5975 C   0  0  0  0  0  0  0  0  0  0  0  0
    1.8564    0.8458   -0.3000 C   0  0  0  0  0  0  0  0  0  0  0  0
    3.0468   -1.7374    1.0569 C   0  0  0  0  0  0  0  0  0  0  0  0
   -2.5453    0.0657    0.2452 C   0  0  0  0  0  0  0  0  0  0  0  0
   -1.0994   -0.0261    0.5769 C   0  0  0  0  0  0  0  0  0  0  0  0
   -3.2338   -1.0342   -0.2661 C   0  0  0  0  0  0  0  0  0  0  0  0
   -3.2131    1.2728    0.4502 C   0  0  0  0  0  0  0  0  0  0  0  0
   -4.5903   -0.9270   -0.5724 C   0  0  0  0  0  0  0  0  0  0  0  0
   -4.5698    1.3802    0.1438 C   0  0  0  0  0  0  0  0  0  0  0  0
   -5.2584    0.2802   -0.3675 C   0  0  0  0  0  0  0  0  0  0  0  0
    3.3449    1.1412    1.2407 H   0  0  0  0  0  0  0  0  0  0  0  0
    4.1310    1.6959   -1.6660 H   0  0  0  0  0  0  0  0  0  0  0  0
    5.1129    2.0094   -0.2295 H   0  0  0  0  0  0  0  0  0  0  0  0
    3.6169    2.9200   -0.5002 H   0  0  0  0  0  0  0  0  0  0  0  0
    3.5075   -2.7270    1.0958 H   0  0  0  0  0  0  0  0  0  0  0  0
    3.0089   -1.3073    2.0592 H   0  0  0  0  0  0  0  0  0  0  0  0
    2.0487   -1.8159    0.6252 H   0  0  0  0  0  0  0  0  0  0  0  0
    1.2378    1.3280    1.6785 H   0  0  0  0  0  0  0  0  0  0  0  0
   -0.7512    2.0270    0.1119 H   0  0  0  0  0  0  0  0  0  0  0  0
   -2.7196    2.1436    0.8721 H   0  0  0  0  0  0  0  0  0  0  0  0
   -5.1327   -1.7800   -0.9711 H   0  0  0  0  0  0  0  0  0  0  0  0
   -5.0919    2.3181    0.3092 H   0  0  0  0  0  0  0  0  0  0  0  0
   -6.3150    0.3633   -0.6047 H   0  0  0  0  0  0  0  0  0  0  0  0
   -1.6460   -2.1340   -0.3127 H   0  0  0  0  0  0  0  0  0  0  0  0
  1  2  2  0  0  0  0
  1  3  2  0  0  0  0
  1  9  1  0  0  0  0
  1 12  1  0  0  0  0
  4 11  2  0  0  0  0
  5 14  2  0  0  0  0
  6 15  1  0  0  0  0
  6 33  1  0  0  0  0
  7  8  1  0  0  0  0
  7 11  1  0  0  0  0
  7 27  1  0  0  0  0
  8 14  1  0  0  0  0
  8 28  1  0  0  0  0
  9 10  1  0  0  0  0
  9 11  1  0  0  0  0
  9 20  1  0  0  0  0
 10 21  1  0  0  0  0
 10 22  1  0  0  0  0
 10 23  1  0  0  0  0
 12 24  1  0  0  0  0
 12 25  1  0  0  0  0
 12 26  1  0  0  0  0
 13 14  1  0  0  0  0
 13 15  1  0  0  0  0
 13 16  2  0  0  0  0
 15 17  2  0  0  0  0
 16 18  1  0  0  0  0
 16 29  1  0  0  0  0
 17 19  1  0  0  0  0
 17 30  1  0  0  0  0
 18 19  2  0  0  0  0
 18 31  1  0  0  0  0
 19 32  1  0  0  0  0
M  END
> <PUBCHEM_COMPOUND_CID>
47205554

> <PUBCHEM_CONFORMER_RMSD>
0.8

> <PUBCHEM_CONFORMER_DIVERSEORDER>
1
89
6
40
60
43
14
17
80
47
19
31
34
86
50
76
55
5
38
88
28
35
37
29
83
46
30
16
81
45
84
72
33
23
3
9
70
58
71
39
87
73
68
42
41
75
52
7
13
27
77
15
56
48
18
20
78
79
69
24
2
62
51
8
44
59
25
26
85
36
74
66
12
4
49
54
32
11
57
22
10
53
67
64
63
61
65
82
21

> <PUBCHEM_MMFF94_PARTIAL_CHARGES>
25
1 1.09
11 0.57
12 0.11
13 0.09
14 0.54
15 0.08
16 -0.15
17 -0.15
18 -0.15
19 -0.15
2 -0.65
27 0.37
28 0.37
29 0.15
3 -0.65
30 0.15
31 0.15
32 0.15
33 0.45
4 -0.57
5 -0.57
6 -0.53
7 -0.43
8 -0.43
9 0.17

> <PUBCHEM_EFFECTIVE_ROTOR_COUNT>
6

> <PUBCHEM_PHARMACOPHORE_FEATURES>
8
1 2 acceptor
1 3 acceptor
1 4 acceptor
1 5 acceptor
1 6 donor
1 7 donor
1 8 donor
6 13 15 16 17 18 19 rings

> <PUBCHEM_HEAVY_ATOM_COUNT>
19

> <PUBCHEM_ATOM_DEF_STEREO_COUNT>
0

> <PUBCHEM_ATOM_UDEF_STEREO_COUNT>
1

> <PUBCHEM_BOND_DEF_STEREO_COUNT>
0

> <PUBCHEM_BOND_UDEF_STEREO_COUNT>
0

> <PUBCHEM_ISOTOPIC_ATOM_COUNT>
0

> <PUBCHEM_COMPONENT_COUNT>
1

> <PUBCHEM_CACTVS_TAUTO_COUNT>
33

> <PUBCHEM_CONFORMER_ID>
02D04CB200000001

> <PUBCHEM_MMFF94_ENERGY>
41.8698

> <PUBCHEM_FEATURE_SELFOVERLAP>
42.153

> <PUBCHEM_SHAPE_FINGERPRINT>
10062212 137 18409736166245407195
11796584 16 18333733524270734607
12107183 9 17762338415236053624
12236239 1 18413392046354193362
12670545 2 18411699915450521790
12670546 56 18411986862015035981
12916748 109 17917990560174540657
13167823 11 18410294700713673431
13675066 3 17917705790799632505
13760787 19 18410007698293440028
14004511 7 18343016705402272137
15196674 1 18410856533901790291
15375358 24 17095519595730461797
15788980 27 18410008836285583169
17349148 13 17457779003100903417
17834072 14 18040432204723097998
17834072 33 18409448059796805004
17834072 8 18342178899058798573
17844677 252 18201712947237128041
18186145 218 16487256534555817136
19489759 90 17458064897730817737
200 152 18040718069145835585
20511986 3 18338533975042013944
20645477 70 18409163320781943686
21250096 35 18260831522519084010
22485316 2 18335702710819926440
22646028 1 18411702084150251105
23402539 116 18187652422727219021
23402655 69 18413106139250931332
23557571 272 17240764050661766985
23559900 14 18260270707470851320
2838139 119 17630627806593839805
300161 21 18336268963745733608
3004659 81 18410572894788992212
4214541 1 18408604773048934689
4921388 177 17274536512935534075
5104073 3 18408882910682901049
543358 83 18413106190938121746
559249 180 18337677515529369419
573450 72 18261114092949909953
633830 44 17560802112894148153
6442390 28 10519694584178046632
960060 61 18131340934731458678
9709674 26 18338509755711129138
9882013 296 7997970167636699755
9971528 1 17847062164599535588
9981440 41 17334494904532759785

> <PUBCHEM_SHAPE_MULTIPOLES>
355.55
11.98
1.87
1
0.54
0.22
-0.14
0.37
-1.26
-0.46
-0.02
-0.55
0.13
-0.89

> <PUBCHEM_SHAPE_SELFOVERLAP>
722.542

> <PUBCHEM_SHAPE_VOLUME>
207.5

> <PUBCHEM_COORDINATE_TYPE>
2
5
10

$$$$

