17396139
  -OEChem-06241222542D

 45 46  0     1  0  0  0  0  0999 V2000
    6.3301    1.1193    0.0000 S   0  0  0  0  0  0  0  0  0  0  0  0
    7.1391    2.7071    0.0000 S   0  0  0  0  0  0  0  0  0  0  0  0
    7.4179    4.4672    0.0000 S   0  0  0  0  0  0  0  0  0  0  0  0
    5.4641   -2.3807    0.0000 O   0  0  0  0  0  0  0  0  0  0  0  0
    6.3301   -0.8807    0.0000 O   0  0  0  0  0  0  0  0  0  0  0  0
    3.7320   -2.3807    0.0000 N   0  0  0  0  0  0  0  0  0  0  0  0
    4.5981   -0.8807    0.0000 N   0  0  0  0  0  0  0  0  0  0  0  0
    5.5211    2.7071    0.0000 N   0  0  0  0  0  0  0  0  0  0  0  0
    5.8301    3.6581    0.0000 N   0  0  0  0  0  0  0  0  0  0  0  0
    2.8660   -3.8807    0.0000 C   0  0  3  0  0  0  0  0  0  0  0  0
    2.8660   -4.8807    0.0000 C   0  0  3  0  0  0  0  0  0  0  0  0
    3.7320   -3.3807    0.0000 C   0  0  3  0  0  0  0  0  0  0  0  0
    3.7320   -5.3807    0.0000 C   0  0  0  0  0  0  0  0  0  0  0  0
    4.5981   -3.8807    0.0000 C   0  0  0  0  0  0  0  0  0  0  0  0
    4.5981   -4.8807    0.0000 C   0  0  0  0  0  0  0  0  0  0  0  0
    2.0000   -3.3807    0.0000 C   0  0  0  0  0  0  0  0  0  0  0  0
    2.0000   -5.3807    0.0000 C   0  0  0  0  0  0  0  0  0  0  0  0
    4.5981   -1.8807    0.0000 C   0  0  0  0  0  0  0  0  0  0  0  0
    5.4641   -0.3807    0.0000 C   0  0  0  0  0  0  0  0  0  0  0  0
    5.4641    0.6193    0.0000 C   0  0  0  0  0  0  0  0  0  0  0  0
    6.3301    2.1193    0.0000 C   0  0  0  0  0  0  0  0  0  0  0  0
    6.8301    3.6581    0.0000 C   0  0  0  0  0  0  0  0  0  0  0  0
    7.0112    5.3807    0.0000 C   0  0  0  0  0  0  0  0  0  0  0  0
    2.8660   -3.2607    0.0000 H   0  0  0  0  0  0  0  0  0  0  0  0
    2.8660   -5.5007    0.0000 H   0  0  0  0  0  0  0  0  0  0  0  0
    4.2690   -3.0707    0.0000 H   0  0  0  0  0  0  0  0  0  0  0  0
    3.3335   -5.8556    0.0000 H   0  0  0  0  0  0  0  0  0  0  0  0
    4.1306   -5.8556    0.0000 H   0  0  0  0  0  0  0  0  0  0  0  0
    5.2087   -3.9884    0.0000 H   0  0  0  0  0  0  0  0  0  0  0  0
    4.8101   -3.2981    0.0000 H   0  0  0  0  0  0  0  0  0  0  0  0
    4.8101   -5.4633    0.0000 H   0  0  0  0  0  0  0  0  0  0  0  0
    5.2087   -4.7730    0.0000 H   0  0  0  0  0  0  0  0  0  0  0  0
    2.3100   -2.8438    0.0000 H   0  0  0  0  0  0  0  0  0  0  0  0
    1.4631   -3.0707    0.0000 H   0  0  0  0  0  0  0  0  0  0  0  0
    1.6900   -3.9176    0.0000 H   0  0  0  0  0  0  0  0  0  0  0  0
    1.6900   -4.8438    0.0000 H   0  0  0  0  0  0  0  0  0  0  0  0
    1.4631   -5.6907    0.0000 H   0  0  0  0  0  0  0  0  0  0  0  0
    2.3100   -5.9176    0.0000 H   0  0  0  0  0  0  0  0  0  0  0  0
    3.1951   -2.0707    0.0000 H   0  0  0  0  0  0  0  0  0  0  0  0
    4.0611   -0.5707    0.0000 H   0  0  0  0  0  0  0  0  0  0  0  0
    5.2520    1.2019    0.0000 H   0  0  0  0  0  0  0  0  0  0  0  0
    4.8535    0.5116    0.0000 H   0  0  0  0  0  0  0  0  0  0  0  0
    7.5776    5.6329    0.0000 H   0  0  0  0  0  0  0  0  0  0  0  0
    6.7590    5.9471    0.0000 H   0  0  0  0  0  0  0  0  0  0  0  0
    6.4448    5.1285    0.0000 H   0  0  0  0  0  0  0  0  0  0  0  0
  1 20  1  0  0  0  0
  1 21  1  0  0  0  0
  2 21  1  0  0  0  0
  2 22  1  0  0  0  0
  3 22  1  0  0  0  0
  3 23  1  0  0  0  0
  4 18  2  0  0  0  0
  5 19  2  0  0  0  0
  6 12  1  0  0  0  0
  6 18  1  0  0  0  0
  6 39  1  0  0  0  0
  7 18  1  0  0  0  0
  7 19  1  0  0  0  0
  7 40  1  0  0  0  0
  8  9  1  0  0  0  0
  8 21  2  0  0  0  0
  9 22  2  0  0  0  0
 10 11  1  0  0  0  0
 10 12  1  0  0  0  0
 10 16  1  0  0  0  0
 10 24  1  0  0  0  0
 11 13  1  0  0  0  0
 11 17  1  0  0  0  0
 11 25  1  0  0  0  0
 12 14  1  0  0  0  0
 12 26  1  0  0  0  0
 13 15  1  0  0  0  0
 13 27  1  0  0  0  0
 13 28  1  0  0  0  0
 14 15  1  0  0  0  0
 14 29  1  0  0  0  0
 14 30  1  0  0  0  0
 15 31  1  0  0  0  0
 15 32  1  0  0  0  0
 16 33  1  0  0  0  0
 16 34  1  0  0  0  0
 16 35  1  0  0  0  0
 17 36  1  0  0  0  0
 17 37  1  0  0  0  0
 17 38  1  0  0  0  0
 19 20  1  0  0  0  0
 20 41  1  0  0  0  0
 20 42  1  0  0  0  0
 23 43  1  0  0  0  0
 23 44  1  0  0  0  0
 23 45  1  0  0  0  0
M  END
> <PUBCHEM_COMPOUND_CID>
17396139

> <PUBCHEM_COMPOUND_CANONICALIZED>
1

> <PUBCHEM_CACTVS_COMPLEXITY>
427

> <PUBCHEM_CACTVS_HBOND_ACCEPTOR>
7

> <PUBCHEM_CACTVS_HBOND_DONOR>
2

> <PUBCHEM_CACTVS_ROTATABLE_BOND>
5

> <PUBCHEM_CACTVS_SUBSKEYS>
AAADceBzsABgAAAAAAAAAAAAAAAAAWAAAAAwAAAAAAAAAAABgAAAHgQYAAAADSjFwASDAALAAAguAAEQEAAQAQBAABAAAIAIAACAAAIAgAAEAAAIFyIAAAEQgIAOgAAAAAAAAAAAAACAACQAAAAAAAAAAA==

> <PUBCHEM_IUPAC_OPENEYE_NAME>
N-[(2,3-dimethylcyclohexyl)carbamoyl]-2-[(5-methylsulfanyl-1,3,4-thiadiazol-2-yl)sulfanyl]acetamide

> <PUBCHEM_IUPAC_CAS_NAME>
N-[[(2,3-dimethylcyclohexyl)amino]-oxomethyl]-2-[[5-(methylthio)-1,3,4-thiadiazol-2-yl]thio]acetamide

> <PUBCHEM_IUPAC_NAME>
N-[(2,3-dimethylcyclohexyl)carbamoyl]-2-[(5-methylsulfanyl-1,3,4-thiadiazol-2-yl)sulfanyl]acetamide

> <PUBCHEM_IUPAC_SYSTEMATIC_NAME>
N-[(2,3-dimethylcyclohexyl)carbamoyl]-2-[(5-methylsulfanyl-1,3,4-thiadiazol-2-yl)sulfanyl]ethanamide

> <PUBCHEM_IUPAC_TRADITIONAL_NAME>
N-[(2,3-dimethylcyclohexyl)carbamoyl]-2-[[5-(methylthio)-1,3,4-thiadiazol-2-yl]thio]acetamide

> <PUBCHEM_IUPAC_INCHI>
InChI=1S/C14H22N4O2S3/c1-8-5-4-6-10(9(8)2)15-12(20)16-11(19)7-22-14-18-17-13(21-3)23-14/h8-10H,4-7H2,1-3H3,(H2,15,16,19,20)

> <PUBCHEM_IUPAC_INCHIKEY>
JHDXMYAMNZFUFG-UHFFFAOYSA-N

> <PUBCHEM_XLOGP3_AA>
4.2

> <PUBCHEM_EXACT_MASS>
374.090489

> <PUBCHEM_MOLECULAR_FORMULA>
C14H22N4O2S3

> <PUBCHEM_MOLECULAR_WEIGHT>
374.54508

> <PUBCHEM_OPENEYE_CAN_SMILES>
CC1CCCC(C1C)NC(=O)NC(=O)CSC2=NN=C(S2)SC

> <PUBCHEM_OPENEYE_ISO_SMILES>
CC1CCCC(C1C)NC(=O)NC(=O)CSC2=NN=C(S2)SC

> <PUBCHEM_CACTVS_TPSA>
163

> <PUBCHEM_MONOISOTOPIC_WEIGHT>
374.090489

> <PUBCHEM_TOTAL_CHARGE>
0

> <PUBCHEM_HEAVY_ATOM_COUNT>
23

> <PUBCHEM_ATOM_DEF_STEREO_COUNT>
0

> <PUBCHEM_ATOM_UDEF_STEREO_COUNT>
3

> <PUBCHEM_BOND_DEF_STEREO_COUNT>
0

> <PUBCHEM_BOND_UDEF_STEREO_COUNT>
0

> <PUBCHEM_ISOTOPIC_ATOM_COUNT>
0

> <PUBCHEM_COMPONENT_COUNT>
1

> <PUBCHEM_CACTVS_TAUTO_COUNT>
5

> <PUBCHEM_COORDINATE_TYPE>
1
5
255

> <PUBCHEM_BONDANNOTATIONS>
10  16  3
11  17  3
2  21  8
2  22  8
12  6  3
8  21  8
8  9  8
9  22  8

$$$$

