443334
  -OEChem-07051213023D

 28 29  0     1  0  0  0  0  0999 V2000
    0.8366    1.9433    0.2636 O   0  0  0  0  0  0  0  0  0  0  0  0
   -1.4602    2.2196    0.0851 O   0  0  0  0  0  0  0  0  0  0  0  0
   -0.5496    0.1058   -0.6335 C   0  0  1  0  0  0  0  0  0  0  0  0
    0.6272   -0.8728   -0.4692 C   0  0  2  0  0  0  0  0  0  0  0  0
   -1.7586   -0.8325   -0.4596 C   0  0  1  0  0  0  0  0  0  0  0  0
    0.1736   -1.8653    0.6129 C   0  0  0  0  0  0  0  0  0  0  0  0
   -1.3494   -1.7516    0.6933 C   0  0  0  0  0  0  0  0  0  0  0  0
   -0.4286    1.2740    0.3618 C   0  0  1  0  0  0  0  0  0  0  0  0
    1.9177   -0.1786   -0.1455 C   0  0  0  0  0  0  0  0  0  0  0  0
   -3.1134   -0.1823   -0.2353 C   0  0  0  0  0  0  0  0  0  0  0  0
    1.9280    1.1276    0.1557 C   0  0  0  0  0  0  0  0  0  0  0  0
    3.1766   -0.9873   -0.2292 C   0  0  0  0  0  0  0  0  0  0  0  0
   -0.5538    0.5191   -1.6516 H   0  0  0  0  0  0  0  0  0  0  0  0
    0.7462   -1.4179   -1.4163 H   0  0  0  0  0  0  0  0  0  0  0  0
   -1.8345   -1.4466   -1.3687 H   0  0  0  0  0  0  0  0  0  0  0  0
    0.6149   -1.6483    1.5930 H   0  0  0  0  0  0  0  0  0  0  0  0
    0.4742   -2.8846    0.3446 H   0  0  0  0  0  0  0  0  0  0  0  0
   -1.8310   -2.7321    0.6167 H   0  0  0  0  0  0  0  0  0  0  0  0
   -1.6340   -1.3238    1.6621 H   0  0  0  0  0  0  0  0  0  0  0  0
   -0.5557    0.9282    1.3952 H   0  0  0  0  0  0  0  0  0  0  0  0
   -3.9000   -0.9444   -0.2113 H   0  0  0  0  0  0  0  0  0  0  0  0
   -3.1581    0.3588    0.7150 H   0  0  0  0  0  0  0  0  0  0  0  0
   -3.3489    0.5149   -1.0455 H   0  0  0  0  0  0  0  0  0  0  0  0
    2.8330    1.6946    0.3282 H   0  0  0  0  0  0  0  0  0  0  0  0
    3.2955   -1.4038   -1.2346 H   0  0  0  0  0  0  0  0  0  0  0  0
    3.1497   -1.8132    0.4885 H   0  0  0  0  0  0  0  0  0  0  0  0
    4.0654   -0.3859   -0.0106 H   0  0  0  0  0  0  0  0  0  0  0  0
   -1.6458    2.6910    0.9148 H   0  0  0  0  0  0  0  0  0  0  0  0
  1  8  1  0  0  0  0
  1 11  1  0  0  0  0
  2  8  1  0  0  0  0
  2 28  1  0  0  0  0
  3  4  1  0  0  0  0
  3  5  1  0  0  0  0
  3  8  1  0  0  0  0
  3 13  1  0  0  0  0
  4  6  1  0  0  0  0
  4  9  1  0  0  0  0
  4 14  1  0  0  0  0
  5  7  1  0  0  0  0
  5 10  1  0  0  0  0
  5 15  1  0  0  0  0
  6  7  1  0  0  0  0
  6 16  1  0  0  0  0
  6 17  1  0  0  0  0
  7 18  1  0  0  0  0
  7 19  1  0  0  0  0
  8 20  1  0  0  0  0
  9 11  2  0  0  0  0
  9 12  1  0  0  0  0
 10 21  1  0  0  0  0
 10 22  1  0  0  0  0
 10 23  1  0  0  0  0
 11 24  1  0  0  0  0
 12 25  1  0  0  0  0
 12 26  1  0  0  0  0
 12 27  1  0  0  0  0
M  END
> <PUBCHEM_COMPOUND_CID>
443334

> <PUBCHEM_CONFORMER_RMSD>
0.4

> <PUBCHEM_CONFORMER_DIVERSEORDER>
2
1

> <PUBCHEM_MMFF94_PARTIAL_CHARGES>
9
1 -0.36
11 -0.07
12 0.14
2 -0.68
24 0.15
28 0.4
4 0.14
8 0.56
9 -0.28

> <PUBCHEM_EFFECTIVE_ROTOR_COUNT>
1

> <PUBCHEM_PHARMACOPHORE_FEATURES>
5
1 1 acceptor
1 2 acceptor
1 2 donor
5 3 4 5 6 7 rings
6 1 3 4 8 9 11 rings

> <PUBCHEM_HEAVY_ATOM_COUNT>
12

> <PUBCHEM_ATOM_DEF_STEREO_COUNT>
4

> <PUBCHEM_ATOM_UDEF_STEREO_COUNT>
0

> <PUBCHEM_BOND_DEF_STEREO_COUNT>
0

> <PUBCHEM_BOND_UDEF_STEREO_COUNT>
0

> <PUBCHEM_ISOTOPIC_ATOM_COUNT>
0

> <PUBCHEM_COMPONENT_COUNT>
1

> <PUBCHEM_CACTVS_TAUTO_COUNT>
1

> <PUBCHEM_CONFORMER_ID>
0006C3C600000002

> <PUBCHEM_MMFF94_ENERGY>
26.2763

> <PUBCHEM_FEATURE_SELFOVERLAP>
25.561

> <PUBCHEM_SHAPE_FINGERPRINT>
10353120 184 18410007758148617223
11206711 2 18339641247369804100
12423570 1 7774405226988934619
12524768 44 18265054622069375566
13024252 1 11959722768162966486
16945 1 18410012151910859727
17990270 104 18051415071796340682
193761 8 17618223244366420535
20201158 50 18338239271481856438
20511035 2 18120653535126563414
20588541 1 18052542066798505013
21040471 1 18052542062498191542
22802520 49 17536020409552962878
2334 1 18051131393443579719
23552423 10 18200593566879267510
23559900 14 18410575102987822766
241688 4 18336828701095116912
2748010 2 18194681453959462598
5084963 1 18186521020486813114
528886 8 18263650575748598947
66348 1 18411419509635460930

> <PUBCHEM_SHAPE_MULTIPOLES>
235.22
3.67
2.18
0.78
0.38
0.61
0
-0.59
-0.39
-0.17
0.46
-0.08
-0.14
0.19

> <PUBCHEM_SHAPE_SELFOVERLAP>
486.73

> <PUBCHEM_SHAPE_VOLUME>
134.7

> <PUBCHEM_COORDINATE_TYPE>
2
5
10

$$$$

