17395984
  -OEChem-06241222532D

 44 46  0     1  0  0  0  0  0999 V2000
    2.8660    0.5000    0.0000 O   0  0  0  0  0  0  0  0  0  0  0  0
    3.7320    2.0000    0.0000 O   0  0  0  0  0  0  0  0  0  0  0  0
    8.9282    2.0000    0.0000 O   0  0  0  0  0  0  0  0  0  0  0  0
    6.3301   -0.5000    0.0000 N   0  0  0  0  0  0  0  0  0  0  0  0
    8.9282   -1.0000    0.0000 N   0  0  0  0  0  0  0  0  0  0  0  0
    8.0622    0.5000    0.0000 N   0  0  0  0  0  0  0  0  0  0  0  0
    4.5981    0.5000    0.0000 C   0  0  0  0  0  0  0  0  0  0  0  0
    4.5981   -0.5000    0.0000 C   0  0  0  0  0  0  0  0  0  0  0  0
    5.4641    1.0000    0.0000 C   0  0  0  0  0  0  0  0  0  0  0  0
    6.3301    0.5000    0.0000 C   0  0  0  0  0  0  0  0  0  0  0  0
    5.4641   -1.0000    0.0000 C   0  0  0  0  0  0  0  0  0  0  0  0
    7.1962   -1.0000    0.0000 C   0  0  3  0  0  0  0  0  0  0  0  0
    3.7320    1.0000    0.0000 C   0  0  0  0  0  0  0  0  0  0  0  0
    8.0622   -0.5000    0.0000 C   0  0  0  0  0  0  0  0  0  0  0  0
    7.1962   -2.0000    0.0000 C   0  0  0  0  0  0  0  0  0  0  0  0
    9.7942   -0.5000    0.0000 C   0  0  0  0  0  0  0  0  0  0  0  0
    9.7942    0.5000    0.0000 C   0  0  0  0  0  0  0  0  0  0  0  0
    8.9282    1.0000    0.0000 C   0  0  0  0  0  0  0  0  0  0  0  0
   10.6882   -1.0347    0.0000 C   0  0  0  0  0  0  0  0  0  0  0  0
    2.0000    1.0000    0.0000 C   0  0  0  0  0  0  0  0  0  0  0  0
   10.6882    1.0347    0.0000 C   0  0  0  0  0  0  0  0  0  0  0  0
   11.5942   -0.5208    0.0000 C   0  0  0  0  0  0  0  0  0  0  0  0
   11.5942    0.5208    0.0000 C   0  0  0  0  0  0  0  0  0  0  0  0
    4.5981    1.1200    0.0000 H   0  0  0  0  0  0  0  0  0  0  0  0
    5.8626    1.4750    0.0000 H   0  0  0  0  0  0  0  0  0  0  0  0
    5.0656    1.4750    0.0000 H   0  0  0  0  0  0  0  0  0  0  0  0
    3.9875   -0.3923    0.0000 H   0  0  0  0  0  0  0  0  0  0  0  0
    4.3860   -1.0826    0.0000 H   0  0  0  0  0  0  0  0  0  0  0  0
    6.9407    0.3923    0.0000 H   0  0  0  0  0  0  0  0  0  0  0  0
    6.5422    1.0826    0.0000 H   0  0  0  0  0  0  0  0  0  0  0  0
    5.0656   -1.4750    0.0000 H   0  0  0  0  0  0  0  0  0  0  0  0
    5.8626   -1.4750    0.0000 H   0  0  0  0  0  0  0  0  0  0  0  0
    6.6592   -1.3100    0.0000 H   0  0  0  0  0  0  0  0  0  0  0  0
    6.5762   -2.0000    0.0000 H   0  0  0  0  0  0  0  0  0  0  0  0
    7.1962   -2.6200    0.0000 H   0  0  0  0  0  0  0  0  0  0  0  0
    7.8162   -2.0000    0.0000 H   0  0  0  0  0  0  0  0  0  0  0  0
    8.9282   -1.6200    0.0000 H   0  0  0  0  0  0  0  0  0  0  0  0
   10.6810   -1.6546    0.0000 H   0  0  0  0  0  0  0  0  0  0  0  0
    2.3100    1.5369    0.0000 H   0  0  0  0  0  0  0  0  0  0  0  0
    1.4631    1.3100    0.0000 H   0  0  0  0  0  0  0  0  0  0  0  0
    1.6900    0.4631    0.0000 H   0  0  0  0  0  0  0  0  0  0  0  0
   10.6810    1.6546    0.0000 H   0  0  0  0  0  0  0  0  0  0  0  0
   12.1300   -0.8329    0.0000 H   0  0  0  0  0  0  0  0  0  0  0  0
   12.1300    0.8329    0.0000 H   0  0  0  0  0  0  0  0  0  0  0  0
  1 13  1  0  0  0  0
  1 20  1  0  0  0  0
  2 13  2  0  0  0  0
  3 18  2  0  0  0  0
  4 10  1  0  0  0  0
  4 11  1  0  0  0  0
  4 12  1  0  0  0  0
  5 14  1  0  0  0  0
  5 16  1  0  0  0  0
  5 37  1  0  0  0  0
  6 14  2  0  0  0  0
  6 18  1  0  0  0  0
  7  8  1  0  0  0  0
  7  9  1  0  0  0  0
  7 13  1  0  0  0  0
  7 24  1  0  0  0  0
  8 11  1  0  0  0  0
  8 27  1  0  0  0  0
  8 28  1  0  0  0  0
  9 10  1  0  0  0  0
  9 25  1  0  0  0  0
  9 26  1  0  0  0  0
 10 29  1  0  0  0  0
 10 30  1  0  0  0  0
 11 31  1  0  0  0  0
 11 32  1  0  0  0  0
 12 14  1  0  0  0  0
 12 15  1  0  0  0  0
 12 33  1  0  0  0  0
 15 34  1  0  0  0  0
 15 35  1  0  0  0  0
 15 36  1  0  0  0  0
 16 17  1  0  0  0  0
 16 19  2  0  0  0  0
 17 18  1  0  0  0  0
 17 21  2  0  0  0  0
 19 22  1  0  0  0  0
 19 38  1  0  0  0  0
 20 39  1  0  0  0  0
 20 40  1  0  0  0  0
 20 41  1  0  0  0  0
 21 23  1  0  0  0  0
 21 42  1  0  0  0  0
 22 23  2  0  0  0  0
 22 43  1  0  0  0  0
 23 44  1  0  0  0  0
M  END
> <PUBCHEM_COMPOUND_CID>
17395984

> <PUBCHEM_COMPOUND_CANONICALIZED>
1

> <PUBCHEM_CACTVS_COMPLEXITY>
497

> <PUBCHEM_CACTVS_HBOND_ACCEPTOR>
4

> <PUBCHEM_CACTVS_HBOND_DONOR>
1

> <PUBCHEM_CACTVS_ROTATABLE_BOND>
4

> <PUBCHEM_CACTVS_SUBSKEYS>
AAADceB7MAAAAAAAAAAAAAAAAAAAAAAAAAA8QIAAAAAAAACBAAAAHgAQAAAADSjBmAYzyIPABACoAifyfACCAAElAgAJiAE4ZMgIYDrA3ZGUIYhkkADIycc8iACOAAAAAAACAAAAAAAAAAQAAAAAAAAAAA==

> <PUBCHEM_IUPAC_OPENEYE_NAME>
methyl 1-[1-(4-oxo-1H-quinazolin-2-yl)ethyl]piperidine-4-carboxylate

> <PUBCHEM_IUPAC_CAS_NAME>
1-[1-(4-oxo-1H-quinazolin-2-yl)ethyl]-4-piperidinecarboxylic acid methyl ester

> <PUBCHEM_IUPAC_NAME>
methyl 1-[1-(4-oxo-1H-quinazolin-2-yl)ethyl]piperidine-4-carboxylate

> <PUBCHEM_IUPAC_SYSTEMATIC_NAME>
methyl 1-[1-(4-oxidanylidene-1H-quinazolin-2-yl)ethyl]piperidine-4-carboxylate

> <PUBCHEM_IUPAC_TRADITIONAL_NAME>
1-[1-(4-keto-1H-quinazolin-2-yl)ethyl]isonipecotic acid methyl ester

> <PUBCHEM_IUPAC_INCHI>
InChI=1S/C17H21N3O3/c1-11(20-9-7-12(8-10-20)17(22)23-2)15-18-14-6-4-3-5-13(14)16(21)19-15/h3-6,11-12H,7-10H2,1-2H3,(H,18,19,21)

> <PUBCHEM_IUPAC_INCHIKEY>
MAGDMMXMXRQVGC-UHFFFAOYSA-N

> <PUBCHEM_XLOGP3_AA>
1.5

> <PUBCHEM_EXACT_MASS>
315.158292

> <PUBCHEM_MOLECULAR_FORMULA>
C17H21N3O3

> <PUBCHEM_MOLECULAR_WEIGHT>
315.36694

> <PUBCHEM_OPENEYE_CAN_SMILES>
CC(C1=NC(=O)C2=CC=CC=C2N1)N3CCC(CC3)C(=O)OC

> <PUBCHEM_OPENEYE_ISO_SMILES>
CC(C1=NC(=O)C2=CC=CC=C2N1)N3CCC(CC3)C(=O)OC

> <PUBCHEM_CACTVS_TPSA>
71

> <PUBCHEM_MONOISOTOPIC_WEIGHT>
315.158292

> <PUBCHEM_TOTAL_CHARGE>
0

> <PUBCHEM_HEAVY_ATOM_COUNT>
23

> <PUBCHEM_ATOM_DEF_STEREO_COUNT>
0

> <PUBCHEM_ATOM_UDEF_STEREO_COUNT>
1

> <PUBCHEM_BOND_DEF_STEREO_COUNT>
0

> <PUBCHEM_BOND_UDEF_STEREO_COUNT>
0

> <PUBCHEM_ISOTOPIC_ATOM_COUNT>
0

> <PUBCHEM_COMPONENT_COUNT>
1

> <PUBCHEM_CACTVS_TAUTO_COUNT>
10

> <PUBCHEM_COORDINATE_TYPE>
1
5
255

> <PUBCHEM_BONDANNOTATIONS>
12  15  3
16  17  8
16  19  8
17  18  8
17  21  8
19  22  8
21  23  8
22  23  8
5  14  8
5  16  8
6  14  8
6  18  8

$$$$

