442947
  -OEChem-07051213002D

 31 33  0     1  0  0  0  0  0999 V2000
    2.0000   -0.5446    0.0000 O   0  0  0  0  0  0  0  0  0  0  0  0
    8.6914    0.0584    0.0000 N   0  0  3  0  0  0  0  0  0  0  0  0
    3.7608   -0.3627    0.0000 N   0  0  0  0  0  0  0  0  0  0  0  0
    6.4683    1.4397    0.0000 C   0  0  1  0  0  0  0  0  0  0  0  0
    6.2095    0.4737    0.0000 C   0  0  1  0  0  0  0  0  0  0  0  0
    5.7317    2.4223    0.0000 C   0  0  0  0  0  0  0  0  0  0  0  0
    8.3330    0.9920    0.0000 C   0  0  0  0  0  0  0  0  0  0  0  0
    7.9142   -0.5709    0.0000 C   0  0  0  0  0  0  0  0  0  0  0  0
    3.8654    0.6318    0.0000 C   0  0  0  0  0  0  0  0  0  0  0  0
    4.6744   -0.7694    0.0000 C   0  0  0  0  0  0  0  0  0  0  0  0
    4.7992   -1.8035    0.0000 C   0  0  0  0  0  0  0  0  0  0  0  0
    9.6573   -0.2004    0.0000 C   0  0  0  0  0  0  0  0  0  0  0  0
    2.9088   -0.9619    0.0000 C   0  0  0  0  0  0  0  0  0  0  0  0
    3.9612   -2.4223    0.0000 C   0  0  0  0  0  0  0  0  0  0  0  0
    3.0097   -1.9986    0.0000 C   0  0  0  0  0  0  0  0  0  0  0  0
    6.6883    2.2607    0.0000 H   0  0  0  0  0  0  0  0  0  0  0  0
    5.9895   -0.3473    0.0000 H   0  0  0  0  0  0  0  0  0  0  0  0
    6.0495    2.9546    0.0000 H   0  0  0  0  0  0  0  0  0  0  0  0
    5.1186    2.5142    0.0000 H   0  0  0  0  0  0  0  0  0  0  0  0
    8.9445    1.0943    0.0000 H   0  0  0  0  0  0  0  0  0  0  0  0
    8.3546    1.6116    0.0000 H   0  0  0  0  0  0  0  0  0  0  0  0
    7.5325   -1.0595    0.0000 H   0  0  0  0  0  0  0  0  0  0  0  0
    8.3564   -1.0055    0.0000 H   0  0  0  0  0  0  0  0  0  0  0  0
    3.7631    1.2434    0.0000 H   0  0  0  0  0  0  0  0  0  0  0  0
    3.2456    0.6129    0.0000 H   0  0  0  0  0  0  0  0  0  0  0  0
    5.3685   -2.0492    0.0000 H   0  0  0  0  0  0  0  0  0  0  0  0
    9.4968   -0.7993    0.0000 H   0  0  0  0  0  0  0  0  0  0  0  0
   10.2562   -0.3609    0.0000 H   0  0  0  0  0  0  0  0  0  0  0  0
    9.8178    0.3985    0.0000 H   0  0  0  0  0  0  0  0  0  0  0  0
    4.0284   -3.0386    0.0000 H   0  0  0  0  0  0  0  0  0  0  0  0
    2.5067   -2.3611    0.0000 H   0  0  0  0  0  0  0  0  0  0  0  0
  1 13  2  0  0  0  0
  2  7  1  0  0  0  0
  2  8  1  0  0  0  0
  2 12  1  0  0  0  0
  3  9  1  0  0  0  0
  3 10  1  0  0  0  0
  3 13  1  0  0  0  0
  4  6  1  0  0  0  0
  4  7  1  0  0  0  0
  4  9  1  0  0  0  0
  4 16  1  6  0  0  0
  5  6  1  0  0  0  0
  5  8  1  0  0  0  0
  5 10  1  0  0  0  0
  5 17  1  6  0  0  0
  6 18  1  0  0  0  0
  6 19  1  0  0  0  0
  7 20  1  0  0  0  0
  7 21  1  0  0  0  0
  8 22  1  0  0  0  0
  8 23  1  0  0  0  0
  9 24  1  0  0  0  0
  9 25  1  0  0  0  0
 10 11  2  0  0  0  0
 11 14  1  0  0  0  0
 11 26  1  0  0  0  0
 12 27  1  0  0  0  0
 12 28  1  0  0  0  0
 12 29  1  0  0  0  0
 13 15  1  0  0  0  0
 14 15  2  0  0  0  0
 14 30  1  0  0  0  0
 15 31  1  0  0  0  0
M  END
> <PUBCHEM_COMPOUND_CID>
442947

> <PUBCHEM_COMPOUND_CANONICALIZED>
1

> <PUBCHEM_CACTVS_COMPLEXITY>
359

> <PUBCHEM_CACTVS_HBOND_ACCEPTOR>
2

> <PUBCHEM_CACTVS_HBOND_DONOR>
0

> <PUBCHEM_CACTVS_ROTATABLE_BOND>
0

> <PUBCHEM_CACTVS_SUBSKEYS>
AAADceBzIAAAAAAAAAAAAAAAAAAAAAAAAAAsWIAAAAAWAACAAAAAHgAAAAAADQjBgAQCAAMAAACIACVSUACAAAAgAgAICAAIAEgIAAIAwQAEAAAAhgCIgYIQAAAMAAAAAAAAAAAAAAAAAAAAAAAAAAAAAA==

> <PUBCHEM_IUPAC_INCHI>
InChI=1S/C12H16N2O/c1-13-6-9-5-10(8-13)11-3-2-4-12(15)14(11)7-9/h2-4,9-10H,5-8H2,1H3/t9-,10-/m0/s1

> <PUBCHEM_IUPAC_INCHIKEY>
CULUKMPMGVXCEI-UWVGGRQHSA-N

> <PUBCHEM_XLOGP3_AA>
0.7

> <PUBCHEM_EXACT_MASS>
204.126263

> <PUBCHEM_MOLECULAR_FORMULA>
C12H16N2O

> <PUBCHEM_MOLECULAR_WEIGHT>
204.26824

> <PUBCHEM_OPENEYE_CAN_SMILES>
CN1CC2CC(C1)C3=CC=CC(=O)N3C2

> <PUBCHEM_OPENEYE_ISO_SMILES>
CN1C[C@@H]2C[C@@H](C1)C3=CC=CC(=O)N3C2

> <PUBCHEM_CACTVS_TPSA>
23.6

> <PUBCHEM_MONOISOTOPIC_WEIGHT>
204.126263

> <PUBCHEM_TOTAL_CHARGE>
0

> <PUBCHEM_HEAVY_ATOM_COUNT>
15

> <PUBCHEM_ATOM_DEF_STEREO_COUNT>
2

> <PUBCHEM_ATOM_UDEF_STEREO_COUNT>
0

> <PUBCHEM_BOND_DEF_STEREO_COUNT>
0

> <PUBCHEM_BOND_UDEF_STEREO_COUNT>
0

> <PUBCHEM_ISOTOPIC_ATOM_COUNT>
0

> <PUBCHEM_COMPONENT_COUNT>
1

> <PUBCHEM_CACTVS_TAUTO_COUNT>
3

> <PUBCHEM_COORDINATE_TYPE>
1
5
255

> <PUBCHEM_BONDANNOTATIONS>
10  11  8
11  14  8
13  15  8
14  15  8
3  10  8
3  13  8
4  16  6
5  17  6

$$$$

