122281
  -OEChem-07051212502D

 65 69  0     1  0  0  0  0  0999 V2000
   10.4586    1.0590    0.0000 O   0  0  0  0  0  0  0  0  0  0  0  0
    9.1857    2.8142    0.0000 O   0  0  0  0  0  0  0  0  0  0  0  0
   11.9586    0.1929    0.0000 O   0  0  0  0  0  0  0  0  0  0  0  0
    9.4586   -0.6731    0.0000 O   0  0  0  0  0  0  0  0  0  0  0  0
    2.5357   -1.4934    0.0000 O   0  0  0  0  0  0  0  0  0  0  0  0
   10.4586   -2.4051    0.0000 O   0  0  0  0  0  0  0  0  0  0  0  0
   12.4586   -2.4051    0.0000 O   0  0  0  0  0  0  0  0  0  0  0  0
   13.9586    0.1929    0.0000 O   0  0  0  0  0  0  0  0  0  0  0  0
   13.9586   -1.5391    0.0000 O   0  0  0  0  0  0  0  0  0  0  0  0
    7.9288    1.5590    0.0000 C   0  0  1  0  0  0  0  0  0  0  0  0
    7.9288    0.5590    0.0000 C   0  0  2  0  0  0  0  0  0  0  0  0
    7.0628    0.0590    0.0000 C   0  0  1  0  0  0  0  0  0  0  0  0
    8.8750    1.8637    0.0000 C   0  0  2  0  0  0  0  0  0  0  0  0
    6.1968    0.5590    0.0000 C   0  0  2  0  0  0  0  0  0  0  0  0
    8.8750    0.2542    0.0000 C   0  0  0  0  0  0  0  0  0  0  0  0
    7.0628    2.0590    0.0000 C   0  0  0  0  0  0  0  0  0  0  0  0
    9.4586    1.0590    0.0000 C   0  0  1  0  0  0  0  0  0  0  0  0
    6.1968    1.5590    0.0000 C   0  0  0  0  0  0  0  0  0  0  0  0
    7.0789   -0.9825    0.0000 C   0  0  0  0  0  0  0  0  0  0  0  0
    7.9288    2.5590    0.0000 C   0  0  0  0  0  0  0  0  0  0  0  0
    5.2868    0.0521    0.0000 C   0  0  0  0  0  0  0  0  0  0  0  0
    6.1808   -1.5103    0.0000 C   0  0  0  0  0  0  0  0  0  0  0  0
    5.2787   -0.9895    0.0000 C   0  0  0  0  0  0  0  0  0  0  0  0
    4.3599    0.6162    0.0000 C   0  0  0  0  0  0  0  0  0  0  0  0
   10.9586    0.1929    0.0000 C   0  0  2  0  0  0  0  0  0  0  0  0
    4.3433   -1.5392    0.0000 C   0  0  0  0  0  0  0  0  0  0  0  0
   10.4586   -0.6731    0.0000 C   0  0  1  0  0  0  0  0  0  0  0  0
    3.4120    0.0883    0.0000 C   0  0  0  0  0  0  0  0  0  0  0  0
    3.4037   -0.9967    0.0000 C   0  0  0  0  0  0  0  0  0  0  0  0
   10.9586   -1.5391    0.0000 C   0  0  2  0  0  0  0  0  0  0  0  0
   12.4586   -0.6731    0.0000 C   0  0  1  0  0  0  0  0  0  0  0  0
   11.9586   -1.5391    0.0000 C   0  0  1  0  0  0  0  0  0  0  0  0
   13.4586   -0.6731    0.0000 C   0  0  0  0  0  0  0  0  0  0  0  0
    8.0188   -0.2863    0.0000 H   0  0  0  0  0  0  0  0  0  0  0  0
    7.8022   -0.3603    0.0000 H   0  0  0  0  0  0  0  0  0  0  0  0
    9.4875    1.9599    0.0000 H   0  0  0  0  0  0  0  0  0  0  0  0
    6.9329    0.9840    0.0000 H   0  0  0  0  0  0  0  0  0  0  0  0
    8.6240   -0.3127    0.0000 H   0  0  0  0  0  0  0  0  0  0  0  0
    9.4124   -0.0550    0.0000 H   0  0  0  0  0  0  0  0  0  0  0  0
    7.4613    2.5339    0.0000 H   0  0  0  0  0  0  0  0  0  0  0  0
    6.6643    2.5339    0.0000 H   0  0  0  0  0  0  0  0  0  0  0  0
    9.7404    1.6113    0.0000 H   0  0  0  0  0  0  0  0  0  0  0  0
    5.9847    2.1416    0.0000 H   0  0  0  0  0  0  0  0  0  0  0  0
    5.5862    1.4513    0.0000 H   0  0  0  0  0  0  0  0  0  0  0  0
    7.2969   -1.5629    0.0000 H   0  0  0  0  0  0  0  0  0  0  0  0
    7.6880   -0.8670    0.0000 H   0  0  0  0  0  0  0  0  0  0  0  0
    8.5488    2.5590    0.0000 H   0  0  0  0  0  0  0  0  0  0  0  0
    7.9288    3.1790    0.0000 H   0  0  0  0  0  0  0  0  0  0  0  0
    7.3088    2.5590    0.0000 H   0  0  0  0  0  0  0  0  0  0  0  0
    5.7835   -1.9863    0.0000 H   0  0  0  0  0  0  0  0  0  0  0  0
    6.5818   -1.9832    0.0000 H   0  0  0  0  0  0  0  0  0  0  0  0
    9.7924    2.9421    0.0000 H   0  0  0  0  0  0  0  0  0  0  0  0
    4.3719    1.2361    0.0000 H   0  0  0  0  0  0  0  0  0  0  0  0
   10.3386    0.1929    0.0000 H   0  0  0  0  0  0  0  0  0  0  0  0
    4.3457   -2.1592    0.0000 H   0  0  0  0  0  0  0  0  0  0  0  0
   10.1486   -1.2100    0.0000 H   0  0  0  0  0  0  0  0  0  0  0  0
    2.8787    0.4044    0.0000 H   0  0  0  0  0  0  0  0  0  0  0  0
   10.3386   -1.5391    0.0000 H   0  0  0  0  0  0  0  0  0  0  0  0
   12.7687   -0.1362    0.0000 H   0  0  0  0  0  0  0  0  0  0  0  0
   12.5786   -1.5391    0.0000 H   0  0  0  0  0  0  0  0  0  0  0  0
    9.1486   -1.2100    0.0000 H   0  0  0  0  0  0  0  0  0  0  0  0
    2.0000   -1.1813    0.0000 H   0  0  0  0  0  0  0  0  0  0  0  0
   10.7687   -2.9421    0.0000 H   0  0  0  0  0  0  0  0  0  0  0  0
   12.1487   -2.9421    0.0000 H   0  0  0  0  0  0  0  0  0  0  0  0
   14.5786    0.1929    0.0000 H   0  0  0  0  0  0  0  0  0  0  0  0
 17  1  1  6  0  0  0
 25  1  1  6  0  0  0
 13  2  1  1  0  0  0
  2 52  1  0  0  0  0
  3 25  1  0  0  0  0
  3 31  1  0  0  0  0
 27  4  1  1  0  0  0
  4 61  1  0  0  0  0
  5 29  1  0  0  0  0
  5 62  1  0  0  0  0
 30  6  1  6  0  0  0
  6 63  1  0  0  0  0
 32  7  1  1  0  0  0
  7 64  1  0  0  0  0
  8 33  1  0  0  0  0
  8 65  1  0  0  0  0
  9 33  2  0  0  0  0
 10 11  1  0  0  0  0
 10 13  1  0  0  0  0
 10 16  1  0  0  0  0
 10 20  1  1  0  0  0
 11 12  1  0  0  0  0
 11 15  1  0  0  0  0
 11 34  1  6  0  0  0
 12 14  1  0  0  0  0
 12 19  1  0  0  0  0
 12 35  1  1  0  0  0
 13 17  1  0  0  0  0
 13 36  1  0  0  0  0
 14 18  1  0  0  0  0
 14 21  1  0  0  0  0
 14 37  1  6  0  0  0
 15 17  1  0  0  0  0
 15 38  1  0  0  0  0
 15 39  1  0  0  0  0
 16 18  1  0  0  0  0
 16 40  1  0  0  0  0
 16 41  1  0  0  0  0
 17 42  1  0  0  0  0
 18 43  1  0  0  0  0
 18 44  1  0  0  0  0
 19 22  1  0  0  0  0
 19 45  1  0  0  0  0
 19 46  1  0  0  0  0
 20 47  1  0  0  0  0
 20 48  1  0  0  0  0
 20 49  1  0  0  0  0
 21 23  2  0  0  0  0
 21 24  1  0  0  0  0
 22 23  1  0  0  0  0
 22 50  1  0  0  0  0
 22 51  1  0  0  0  0
 23 26  1  0  0  0  0
 24 28  2  0  0  0  0
 24 53  1  0  0  0  0
 25 27  1  0  0  0  0
 25 54  1  0  0  0  0
 26 29  2  0  0  0  0
 26 55  1  0  0  0  0
 27 30  1  0  0  0  0
 27 56  1  0  0  0  0
 28 29  1  0  0  0  0
 28 57  1  0  0  0  0
 30 32  1  0  0  0  0
 30 58  1  0  0  0  0
 31 32  1  0  0  0  0
 31 33  1  6  0  0  0
 31 59  1  0  0  0  0
 32 60  1  0  0  0  0
M  END
> <PUBCHEM_COMPOUND_CID>
122281

> <PUBCHEM_COMPOUND_CANONICALIZED>
1

> <PUBCHEM_CACTVS_COMPLEXITY>
747

> <PUBCHEM_CACTVS_HBOND_ACCEPTOR>
9

> <PUBCHEM_CACTVS_HBOND_DONOR>
6

> <PUBCHEM_CACTVS_ROTATABLE_BOND>
3

> <PUBCHEM_CACTVS_SUBSKEYS>
AAADcfB4PAAAAAAAAAAAAAAAAAAAAYAAAAA0YMEAAAAAAGDBAAAAGgAACAAADxSwmAMyDoAABgCIAiDSCAICAAAgIAAIiAFGCIgZNjaCERaicAAl4BEPmAfK7PxPoAABAAAQAADAAAYAACAAAIAADCAAAA==

> <PUBCHEM_IUPAC_OPENEYE_NAME>
(2S,3S,4S,5R,6R)-6-[[(8R,9S,13S,14S,16R,17R)-3,17-dihydroxy-13-methyl-6,7,8,9,11,12,14,15,16,17-decahydrocyclopenta[a]phenanthren-16-yl]oxy]-3,4,5-trihydroxy-tetrahydropyran-2-carboxylic acid

> <PUBCHEM_IUPAC_CAS_NAME>
(2S,3S,4S,5R,6R)-6-[[(8R,9S,13S,14S,16R,17R)-3,17-dihydroxy-13-methyl-6,7,8,9,11,12,14,15,16,17-decahydrocyclopenta[a]phenanthren-16-yl]oxy]-3,4,5-trihydroxy-2-oxanecarboxylic acid

> <PUBCHEM_IUPAC_NAME>
(2S,3S,4S,5R,6R)-6-[[(8R,9S,13S,14S,16R,17R)-3,17-dihydroxy-13-methyl-6,7,8,9,11,12,14,15,16,17-decahydrocyclopenta[a]phenanthren-16-yl]oxy]-3,4,5-trihydroxyoxane-2-carboxylic acid

> <PUBCHEM_IUPAC_SYSTEMATIC_NAME>
(2S,3S,4S,5R,6R)-6-[[(8R,9S,13S,14S,16R,17R)-13-methyl-3,17-bis(oxidanyl)-6,7,8,9,11,12,14,15,16,17-decahydrocyclopenta[a]phenanthren-16-yl]oxy]-3,4,5-tris(oxidanyl)oxane-2-carboxylic acid

> <PUBCHEM_IUPAC_TRADITIONAL_NAME>
(2S,3S,4S,5R,6R)-6-[[(8R,9S,13S,14S,16R,17R)-3,17-dihydroxy-13-methyl-6,7,8,9,11,12,14,15,16,17-decahydrocyclopenta[a]phenanthren-16-yl]oxy]-3,4,5-trihydroxy-tetrahydropyran-2-carboxylic acid

> <PUBCHEM_IUPAC_INCHI>
InChI=1S/C24H32O9/c1-24-7-6-13-12-5-3-11(25)8-10(12)2-4-14(13)15(24)9-16(21(24)29)32-23-19(28)17(26)18(27)20(33-23)22(30)31/h3,5,8,13-21,23,25-29H,2,4,6-7,9H2,1H3,(H,30,31)/t13-,14-,15+,16-,17+,18+,19-,20+,21+,23-,24+/m1/s1

> <PUBCHEM_IUPAC_INCHIKEY>
FQYGGFDZJFIDPU-JRSYHJKYSA-N

> <PUBCHEM_XLOGP3>
1.1

> <PUBCHEM_EXACT_MASS>
464.204633

> <PUBCHEM_MOLECULAR_FORMULA>
C24H32O9

> <PUBCHEM_MOLECULAR_WEIGHT>
464.50548

> <PUBCHEM_OPENEYE_CAN_SMILES>
CC12CCC3C(C1CC(C2O)OC4C(C(C(C(O4)C(=O)O)O)O)O)CCC5=C3C=CC(=C5)O

> <PUBCHEM_OPENEYE_ISO_SMILES>
C[C@]12CC[C@H]3[C@H]([C@@H]1C[C@H]([C@@H]2O)O[C@H]4[C@@H]([C@H]([C@@H]([C@H](O4)C(=O)O)O)O)O)CCC5=C3C=CC(=C5)O

> <PUBCHEM_CACTVS_TPSA>
157

> <PUBCHEM_MONOISOTOPIC_WEIGHT>
464.204633

> <PUBCHEM_TOTAL_CHARGE>
0

> <PUBCHEM_HEAVY_ATOM_COUNT>
33

> <PUBCHEM_ATOM_DEF_STEREO_COUNT>
11

> <PUBCHEM_ATOM_UDEF_STEREO_COUNT>
0

> <PUBCHEM_BOND_DEF_STEREO_COUNT>
0

> <PUBCHEM_BOND_UDEF_STEREO_COUNT>
0

> <PUBCHEM_ISOTOPIC_ATOM_COUNT>
0

> <PUBCHEM_COMPONENT_COUNT>
1

> <PUBCHEM_CACTVS_TAUTO_COUNT>
9

> <PUBCHEM_COORDINATE_TYPE>
1
5
255

> <PUBCHEM_BONDANNOTATIONS>
17  1  6
25  1  6
10  20  5
11  34  6
12  35  5
14  37  6
13  2  5
21  23  8
21  24  8
23  26  8
24  28  8
26  29  8
28  29  8
31  33  6
27  4  5
30  6  6
32  7  5

$$$$

