442320
  -OEChem-07051212573D

 57 60  0     1  0  0  0  0  0999 V2000
    2.9081   -1.2616   -1.2164 O   0  0  0  0  0  0  0  0  0  0  0  0
   -0.9973    0.7944    0.1159 O   0  0  0  0  0  0  0  0  0  0  0  0
   -3.3241    0.7942   -0.0571 O   0  0  0  0  0  0  0  0  0  0  0  0
   -1.0558   -1.9914    0.6100 O   0  0  0  0  0  0  0  0  0  0  0  0
    4.4131   -2.9934   -1.3450 O   0  0  0  0  0  0  0  0  0  0  0  0
   -3.5947   -2.8366    1.8431 O   0  0  0  0  0  0  0  0  0  0  0  0
   -5.8406   -1.8398    0.3206 O   0  0  0  0  0  0  0  0  0  0  0  0
   -5.4351    2.0529   -1.2882 O   0  0  0  0  0  0  0  0  0  0  0  0
    1.9577    0.9734   -1.0611 C   0  0  1  0  0  0  0  0  0  0  0  0
    1.6549    2.2694   -0.2454 C   0  0  1  0  0  0  0  0  0  0  0  0
    2.6455   -0.1752   -0.2970 C   0  0  2  0  0  0  0  0  0  0  0  0
    0.2448    2.6995   -0.7166 C   0  0  0  0  0  0  0  0  0  0  0  0
    4.0212    0.1855    0.2652 C   0  0  1  0  0  0  0  0  0  0  0  0
   -0.4916    1.4119   -1.0560 C   0  0  1  0  0  0  0  0  0  0  0  0
    0.6059    0.5807   -1.6409 C   0  0  0  0  0  0  0  0  0  0  0  0
    1.8872    2.1984    1.2590 C   0  0  0  0  0  0  0  0  0  0  0  0
    3.9747    0.8070    1.6611 C   0  0  0  0  0  0  0  0  0  0  0  0
    3.3371    2.1925    1.6890 C   0  0  0  0  0  0  0  0  0  0  0  0
    4.6952   -1.1461    0.1855 C   0  0  0  0  0  0  0  0  0  0  0  0
   -2.1473   -0.0035   -0.1634 C   0  0  2  0  0  0  0  0  0  0  0  0
    4.0313   -1.9432   -0.8620 C   0  0  0  0  0  0  0  0  0  0  0  0
    0.4112   -0.2625   -2.6641 C   0  0  0  0  0  0  0  0  0  0  0  0
   -2.1828   -1.1486    0.8487 C   0  0  1  0  0  0  0  0  0  0  0  0
    0.9337    2.2259    2.2055 C   0  0  0  0  0  0  0  0  0  0  0  0
   -3.4666   -1.9682    0.7163 C   0  0  2  0  0  0  0  0  0  0  0  0
   -4.6985   -1.0639    0.6736 C   0  0  1  0  0  0  0  0  0  0  0  0
   -4.5132    0.0585   -0.3502 C   0  0  1  0  0  0  0  0  0  0  0  0
    5.7056   -1.6516    0.8979 C   0  0  0  0  0  0  0  0  0  0  0  0
   -5.6795    1.0414   -0.3280 C   0  0  0  0  0  0  0  0  0  0  0  0
    2.5926    1.2524   -1.9153 H   0  0  0  0  0  0  0  0  0  0  0  0
    2.3366    3.0555   -0.6037 H   0  0  0  0  0  0  0  0  0  0  0  0
    1.9751   -0.5737    0.4774 H   0  0  0  0  0  0  0  0  0  0  0  0
   -0.2895    3.3149    0.0131 H   0  0  0  0  0  0  0  0  0  0  0  0
    0.3529    3.3045   -1.6279 H   0  0  0  0  0  0  0  0  0  0  0  0
    4.5456    0.8616   -0.4239 H   0  0  0  0  0  0  0  0  0  0  0  0
   -1.2958    1.6392   -1.7673 H   0  0  0  0  0  0  0  0  0  0  0  0
    4.9954    0.9095    2.0505 H   0  0  0  0  0  0  0  0  0  0  0  0
    3.4457    0.1414    2.3564 H   0  0  0  0  0  0  0  0  0  0  0  0
    3.9139    2.8838    1.0617 H   0  0  0  0  0  0  0  0  0  0  0  0
    3.4286    2.5890    2.7091 H   0  0  0  0  0  0  0  0  0  0  0  0
   -2.0827   -0.4215   -1.1765 H   0  0  0  0  0  0  0  0  0  0  0  0
   -0.5794   -0.4335   -3.0717 H   0  0  0  0  0  0  0  0  0  0  0  0
    1.2362   -0.7875   -3.1315 H   0  0  0  0  0  0  0  0  0  0  0  0
   -2.0806   -0.7645    1.8706 H   0  0  0  0  0  0  0  0  0  0  0  0
   -0.1231    2.2725    1.9791 H   0  0  0  0  0  0  0  0  0  0  0  0
    1.1926    2.2007    3.2597 H   0  0  0  0  0  0  0  0  0  0  0  0
   -3.4315   -2.6140   -0.1698 H   0  0  0  0  0  0  0  0  0  0  0  0
   -4.8802   -0.6487    1.6725 H   0  0  0  0  0  0  0  0  0  0  0  0
   -4.4308   -0.3458   -1.3684 H   0  0  0  0  0  0  0  0  0  0  0  0
    6.1938   -1.0722    1.6733 H   0  0  0  0  0  0  0  0  0  0  0  0
    6.0789   -2.6558    0.7260 H   0  0  0  0  0  0  0  0  0  0  0  0
   -5.7773    1.5255    0.6494 H   0  0  0  0  0  0  0  0  0  0  0  0
   -6.6261    0.5526   -0.5758 H   0  0  0  0  0  0  0  0  0  0  0  0
   -1.1249   -2.3385   -0.2957 H   0  0  0  0  0  0  0  0  0  0  0  0
   -2.7939   -3.3875    1.8768 H   0  0  0  0  0  0  0  0  0  0  0  0
   -5.6937   -2.2031   -0.5694 H   0  0  0  0  0  0  0  0  0  0  0  0
   -4.5897    2.4765   -1.0608 H   0  0  0  0  0  0  0  0  0  0  0  0
  1 11  1  0  0  0  0
  1 21  1  0  0  0  0
  2 14  1  0  0  0  0
  2 20  1  0  0  0  0
  3 20  1  0  0  0  0
  3 27  1  0  0  0  0
  4 23  1  0  0  0  0
  4 54  1  0  0  0  0
  5 21  2  0  0  0  0
  6 25  1  0  0  0  0
  6 55  1  0  0  0  0
  7 26  1  0  0  0  0
  7 56  1  0  0  0  0
  8 29  1  0  0  0  0
  8 57  1  0  0  0  0
  9 10  1  0  0  0  0
  9 11  1  0  0  0  0
  9 15  1  0  0  0  0
  9 30  1  0  0  0  0
 10 12  1  0  0  0  0
 10 16  1  0  0  0  0
 10 31  1  0  0  0  0
 11 13  1  0  0  0  0
 11 32  1  0  0  0  0
 12 14  1  0  0  0  0
 12 33  1  0  0  0  0
 12 34  1  0  0  0  0
 13 17  1  0  0  0  0
 13 19  1  0  0  0  0
 13 35  1  0  0  0  0
 14 15  1  0  0  0  0
 14 36  1  0  0  0  0
 15 22  2  0  0  0  0
 16 18  1  0  0  0  0
 16 24  2  0  0  0  0
 17 18  1  0  0  0  0
 17 37  1  0  0  0  0
 17 38  1  0  0  0  0
 18 39  1  0  0  0  0
 18 40  1  0  0  0  0
 19 21  1  0  0  0  0
 19 28  2  0  0  0  0
 20 23  1  0  0  0  0
 20 41  1  0  0  0  0
 22 42  1  0  0  0  0
 22 43  1  0  0  0  0
 23 25  1  0  0  0  0
 23 44  1  0  0  0  0
 24 45  1  0  0  0  0
 24 46  1  0  0  0  0
 25 26  1  0  0  0  0
 25 47  1  0  0  0  0
 26 27  1  0  0  0  0
 26 48  1  0  0  0  0
 27 29  1  0  0  0  0
 27 49  1  0  0  0  0
 28 50  1  0  0  0  0
 28 51  1  0  0  0  0
 29 52  1  0  0  0  0
 29 53  1  0  0  0  0
M  END
> <PUBCHEM_COMPOUND_CID>
442320

> <PUBCHEM_CONFORMER_RMSD>
0.8

> <PUBCHEM_CONFORMER_DIVERSEORDER>
1
74
86
36
72
62
70
4
7
56
101
68
35
106
37
13
77
98
90
18
100
76
61
38
115
71
107
91
79
83
113
105
117
26
65
45
15
30
51
20
118
93
59
55
6
114
23
49
53
11
108
58
29
47
110
102
31
81
42
14
63
33
50
85
52
84
95
96
89
41
99
16
92
103
75
78
2
111
82
32
94
66
10
3
57
80
112
40
116
5
60
17
64
27
9
87
8
34
97
25
48
28
109
43
12
88
21
22
44
104
67
19
39
46
73
69
54
24

> <PUBCHEM_MMFF94_PARTIAL_CHARGES>
37
1 -0.43
10 0.14
11 0.28
13 0.14
14 0.42
15 -0.28
16 -0.28
18 0.14
19 -0.12
2 -0.56
20 0.56
21 0.71
22 -0.3
23 0.28
24 -0.3
25 0.28
26 0.28
27 0.28
28 -0.3
29 0.28
3 -0.56
4 -0.68
42 0.15
43 0.15
45 0.15
46 0.15
5 -0.57
50 0.15
51 0.15
54 0.4
55 0.4
56 0.4
57 0.4
6 -0.68
7 -0.68
8 -0.68
9 0.14

> <PUBCHEM_EFFECTIVE_ROTOR_COUNT>
5.2

> <PUBCHEM_PHARMACOPHORE_FEATURES>
15
1 2 acceptor
1 3 acceptor
1 4 acceptor
1 4 donor
1 5 acceptor
1 6 acceptor
1 6 donor
1 7 acceptor
1 7 donor
1 8 acceptor
1 8 donor
5 1 11 13 19 21 rings
5 9 10 12 14 15 rings
6 3 20 23 25 26 27 rings
7 9 10 11 13 16 17 18 rings

> <PUBCHEM_HEAVY_ATOM_COUNT>
29

> <PUBCHEM_ATOM_DEF_STEREO_COUNT>
10

> <PUBCHEM_ATOM_UDEF_STEREO_COUNT>
0

> <PUBCHEM_BOND_DEF_STEREO_COUNT>
0

> <PUBCHEM_BOND_UDEF_STEREO_COUNT>
0

> <PUBCHEM_ISOTOPIC_ATOM_COUNT>
0

> <PUBCHEM_COMPONENT_COUNT>
1

> <PUBCHEM_CACTVS_TAUTO_COUNT>
1

> <PUBCHEM_CONFORMER_ID>
0006BFD000000001

> <PUBCHEM_MMFF94_ENERGY>
81.4633

> <PUBCHEM_FEATURE_SELFOVERLAP>
76.23

> <PUBCHEM_SHAPE_FINGERPRINT>
10928967 22 15697447628657370091
11045977 3 18408889550538679583
11545043 162 18343019987115995505
11796584 16 18201720682013935043
11828532 37 18270680841277320339
12128747 34 18336270136377333037
12633257 1 17822292345131943382
12788726 201 15697447757074080181
13134695 92 17967253091587434240
13224815 77 6699540402659666489
13402501 40 18411420626891811234
13533116 47 18188203213543537163
13583140 156 17751927917359053401
13773456 73 7925632172580104956
13782708 43 18336537215357124363
14341114 328 13912609380727819199
14866123 147 17832134301118352689
15163728 17 7204487870804947440
15664445 248 17489867129424964212
17349148 13 16298098774948682853
17492 89 17914325780645370355
1813 80 16558479603447186132
19377110 9 15357975630222419847
20429552 37 18334299772647918690
20600515 1 18193539271969180188
20691752 17 15553893178479233628
21033648 29 18261968353360541905
21279426 13 18340771550092768125
21781051 124 17346020196912282947
23559900 14 18341609308833126476
3004659 81 17917982902369178214
404807 14 17319842155793840495
437815 12 18188485899669526166
445580 2 18408890667341011439
474 4 15214127579942464433
508706 21 18059861653924434575
5104073 3 18261098635758121073
6823239 73 18272090470206191056
77296 10 17823434720744071007
960060 61 14333138437757037411
9709674 26 18127967508434909243

> <PUBCHEM_SHAPE_MULTIPOLES>
549.85
12.29
3.16
1.88
9.37
0.28
-0.18
5.95
2
-1.05
0.64
-0.71
-0.23
2.95

> <PUBCHEM_SHAPE_SELFOVERLAP>
1171.048

> <PUBCHEM_SHAPE_VOLUME>
303.4

> <PUBCHEM_COORDINATE_TYPE>
2
5
10

$$$$

