56927725
  -OEChem-07051213152D

 54 53  0     1  0  0  0  0  0999 V2000
    6.3301   -2.1900    0.0000 O   0  0  0  0  0  0  0  0  0  0  0  0
   14.9904   -1.1900    0.0000 O   0  0  0  0  0  0  0  0  0  0  0  0
   14.1244    0.3100    0.0000 O   0  0  0  0  0  0  0  0  0  0  0  0
    5.4641   -2.6900    0.0000 O   0  0  0  0  0  0  0  0  0  0  0  0
   10.6603   -0.6900    0.0000 C   0  0  0  0  0  0  0  0  0  0  0  0
   11.5263   -1.1900    0.0000 C   0  0  0  0  0  0  0  0  0  0  0  0
    9.7942   -1.1900    0.0000 C   0  0  0  0  0  0  0  0  0  0  0  0
   12.3923   -0.6900    0.0000 C   0  0  0  0  0  0  0  0  0  0  0  0
    8.9282   -0.6900    0.0000 C   0  0  0  0  0  0  0  0  0  0  0  0
    2.8660    0.8100    0.0000 C   0  0  0  0  0  0  0  0  0  0  0  0
    2.8660    1.8100    0.0000 C   0  0  0  0  0  0  0  0  0  0  0  0
   13.2583   -1.1900    0.0000 C   0  0  0  0  0  0  0  0  0  0  0  0
    3.7320    0.3100    0.0000 C   0  0  0  0  0  0  0  0  0  0  0  0
    6.3301   -1.1900    0.0000 C   0  0  2  0  0  0  0  0  0  0  0  0
    8.0622   -1.1900    0.0000 C   0  0  0  0  0  0  0  0  0  0  0  0
    5.4641   -0.6900    0.0000 C   0  0  0  0  0  0  0  0  0  0  0  0
    2.0000    2.3100    0.0000 C   0  0  0  0  0  0  0  0  0  0  0  0
    7.1962   -0.6900    0.0000 C   0  0  0  0  0  0  0  0  0  0  0  0
    3.7320   -0.6900    0.0000 C   0  0  0  0  0  0  0  0  0  0  0  0
    4.5981   -1.1900    0.0000 C   0  0  0  0  0  0  0  0  0  0  0  0
    2.0000    3.3100    0.0000 C   0  0  0  0  0  0  0  0  0  0  0  0
   14.1244   -0.6900    0.0000 C   0  0  0  0  0  0  0  0  0  0  0  0
   11.0588   -0.2151    0.0000 H   0  0  0  0  0  0  0  0  0  0  0  0
   10.2617   -0.2151    0.0000 H   0  0  0  0  0  0  0  0  0  0  0  0
   11.1278   -1.6650    0.0000 H   0  0  0  0  0  0  0  0  0  0  0  0
   11.9248   -1.6650    0.0000 H   0  0  0  0  0  0  0  0  0  0  0  0
    9.3957   -1.6650    0.0000 H   0  0  0  0  0  0  0  0  0  0  0  0
   10.1928   -1.6650    0.0000 H   0  0  0  0  0  0  0  0  0  0  0  0
   12.7908   -0.2151    0.0000 H   0  0  0  0  0  0  0  0  0  0  0  0
   11.9938   -0.2151    0.0000 H   0  0  0  0  0  0  0  0  0  0  0  0
    9.3267   -0.2151    0.0000 H   0  0  0  0  0  0  0  0  0  0  0  0
    8.5297   -0.2151    0.0000 H   0  0  0  0  0  0  0  0  0  0  0  0
    2.2554    0.9177    0.0000 H   0  0  0  0  0  0  0  0  0  0  0  0
    2.6540    0.2274    0.0000 H   0  0  0  0  0  0  0  0  0  0  0  0
    3.4766    1.7023    0.0000 H   0  0  0  0  0  0  0  0  0  0  0  0
    3.0781    2.3926    0.0000 H   0  0  0  0  0  0  0  0  0  0  0  0
   12.8598   -1.6650    0.0000 H   0  0  0  0  0  0  0  0  0  0  0  0
   13.6569   -1.6650    0.0000 H   0  0  0  0  0  0  0  0  0  0  0  0
    4.3426    0.2023    0.0000 H   0  0  0  0  0  0  0  0  0  0  0  0
    3.9441    0.8926    0.0000 H   0  0  0  0  0  0  0  0  0  0  0  0
    6.8671   -1.5000    0.0000 H   0  0  0  0  0  0  0  0  0  0  0  0
    8.0622   -1.8100    0.0000 H   0  0  0  0  0  0  0  0  0  0  0  0
    5.8626   -0.2151    0.0000 H   0  0  0  0  0  0  0  0  0  0  0  0
    5.0656   -0.2151    0.0000 H   0  0  0  0  0  0  0  0  0  0  0  0
    1.3894    2.4177    0.0000 H   0  0  0  0  0  0  0  0  0  0  0  0
    1.7880    1.7274    0.0000 H   0  0  0  0  0  0  0  0  0  0  0  0
    7.1962   -0.0700    0.0000 H   0  0  0  0  0  0  0  0  0  0  0  0
    3.1951   -1.0000    0.0000 H   0  0  0  0  0  0  0  0  0  0  0  0
    4.5981   -1.8100    0.0000 H   0  0  0  0  0  0  0  0  0  0  0  0
    2.6200    3.3100    0.0000 H   0  0  0  0  0  0  0  0  0  0  0  0
    2.0000    3.9300    0.0000 H   0  0  0  0  0  0  0  0  0  0  0  0
    1.3800    3.3100    0.0000 H   0  0  0  0  0  0  0  0  0  0  0  0
   15.5273   -0.8800    0.0000 H   0  0  0  0  0  0  0  0  0  0  0  0
    5.4641   -3.3100    0.0000 H   0  0  0  0  0  0  0  0  0  0  0  0
  1  4  1  0  0  0  0
 14  1  1  6  0  0  0
  2 22  1  0  0  0  0
  2 53  1  0  0  0  0
  3 22  2  0  0  0  0
  4 54  1  0  0  0  0
  5  6  1  0  0  0  0
  5  7  1  0  0  0  0
  5 23  1  0  0  0  0
  5 24  1  0  0  0  0
  6  8  1  0  0  0  0
  6 25  1  0  0  0  0
  6 26  1  0  0  0  0
  7  9  1  0  0  0  0
  7 27  1  0  0  0  0
  7 28  1  0  0  0  0
  8 12  1  0  0  0  0
  8 29  1  0  0  0  0
  8 30  1  0  0  0  0
  9 15  1  0  0  0  0
  9 31  1  0  0  0  0
  9 32  1  0  0  0  0
 10 11  1  0  0  0  0
 10 13  1  0  0  0  0
 10 33  1  0  0  0  0
 10 34  1  0  0  0  0
 11 17  1  0  0  0  0
 11 35  1  0  0  0  0
 11 36  1  0  0  0  0
 12 22  1  0  0  0  0
 12 37  1  0  0  0  0
 12 38  1  0  0  0  0
 13 19  1  0  0  0  0
 13 39  1  0  0  0  0
 13 40  1  0  0  0  0
 14 16  1  0  0  0  0
 14 18  1  0  0  0  0
 14 41  1  0  0  0  0
 15 18  2  0  0  0  0
 15 42  1  0  0  0  0
 16 20  1  0  0  0  0
 16 43  1  0  0  0  0
 16 44  1  0  0  0  0
 17 21  1  0  0  0  0
 17 45  1  0  0  0  0
 17 46  1  0  0  0  0
 18 47  1  0  0  0  0
 19 20  2  0  0  0  0
 19 48  1  0  0  0  0
 20 49  1  0  0  0  0
 21 50  1  0  0  0  0
 21 51  1  0  0  0  0
 21 52  1  0  0  0  0
M  END
> <PUBCHEM_COMPOUND_CID>
56927725

> <PUBCHEM_COMPOUND_CANONICALIZED>
1

> <PUBCHEM_CACTVS_COMPLEXITY>
310

> <PUBCHEM_CACTVS_HBOND_ACCEPTOR>
4

> <PUBCHEM_CACTVS_HBOND_DONOR>
2

> <PUBCHEM_CACTVS_ROTATABLE_BOND>
15

> <PUBCHEM_CACTVS_SUBSKEYS>
AAADcfB4OAAAAAAAAAAAAAAAAAAAAAAAAAAAAAAAAAAAAAAAAAAAGgAADAAACBSggAICCAAAAgCIACDSCAAAAAAgAAAICAEAAAgABBIAAQAAUAAEwAAIAAOIyKCAAAAAAAAAAAAAAAAAAAAAAAAAAAAAAA==

> <PUBCHEM_IUPAC_OPENEYE_NAME>
(8E,10R,12Z)-10-hydroperoxyoctadeca-8,12-dienoic acid

> <PUBCHEM_IUPAC_CAS_NAME>
(8E,10R,12Z)-10-hydroperoxyoctadeca-8,12-dienoic acid

> <PUBCHEM_IUPAC_NAME>
(8E,10R,12Z)-10-hydroperoxyoctadeca-8,12-dienoic acid

> <PUBCHEM_IUPAC_SYSTEMATIC_NAME>
(8E,10R,12Z)-10-(dioxidanyl)octadeca-8,12-dienoic acid

> <PUBCHEM_IUPAC_TRADITIONAL_NAME>
(8E,10R,12Z)-10-hydroperoxyoctadeca-8,12-dienoic acid

> <PUBCHEM_IUPAC_INCHI>
InChI=1S/C18H32O4/c1-2-3-4-5-8-11-14-17(22-21)15-12-9-6-7-10-13-16-18(19)20/h8,11-12,15,17,21H,2-7,9-10,13-14,16H2,1H3,(H,19,20)/b11-8-,15-12+/t17-/m1/s1

> <PUBCHEM_IUPAC_INCHIKEY>
YONQBPOWOZLKHS-HLGVZOAESA-N

> <PUBCHEM_XLOGP3_AA>
5.3

> <PUBCHEM_EXACT_MASS>
312.23006

> <PUBCHEM_MOLECULAR_FORMULA>
C18H32O4

> <PUBCHEM_MOLECULAR_WEIGHT>
312.44428

> <PUBCHEM_OPENEYE_CAN_SMILES>
CCCCCC=CCC(C=CCCCCCCC(=O)O)OO

> <PUBCHEM_OPENEYE_ISO_SMILES>
CCCCC/C=C\C[C@H](/C=C/CCCCCCC(=O)O)OO

> <PUBCHEM_CACTVS_TPSA>
66.8

> <PUBCHEM_MONOISOTOPIC_WEIGHT>
312.23006

> <PUBCHEM_TOTAL_CHARGE>
0

> <PUBCHEM_HEAVY_ATOM_COUNT>
22

> <PUBCHEM_ATOM_DEF_STEREO_COUNT>
1

> <PUBCHEM_ATOM_UDEF_STEREO_COUNT>
0

> <PUBCHEM_BOND_DEF_STEREO_COUNT>
2

> <PUBCHEM_BOND_UDEF_STEREO_COUNT>
0

> <PUBCHEM_ISOTOPIC_ATOM_COUNT>
0

> <PUBCHEM_COMPONENT_COUNT>
1

> <PUBCHEM_CACTVS_TAUTO_COUNT>
1

> <PUBCHEM_COORDINATE_TYPE>
1
5
255

> <PUBCHEM_BONDANNOTATIONS>
14  1  6

$$$$

