17395989
  -OEChem-06241222533D

 46 49  0     1  0  0  0  0  0999 V2000
    0.4252    2.4475   -2.5606 Cl  0  0  0  0  0  0  0  0  0  0  0  0
    3.1295    1.6450   -1.9371 O   0  0  0  0  0  0  0  0  0  0  0  0
   -1.3700    0.8628   -0.5795 N   0  0  0  0  0  0  0  0  0  0  0  0
   -3.7416    1.9365    1.2723 N   0  0  0  0  0  0  0  0  0  0  0  0
   -4.6498    0.6069   -0.2572 N   0  0  0  0  0  0  0  0  0  0  0  0
    2.7321    0.2697   -0.0818 N   0  0  0  0  0  0  0  0  0  0  0  0
    1.8031   -0.3764    0.6911 N   0  0  0  0  0  0  0  0  0  0  0  0
   -2.2337    0.1473    0.3173 C   0  0  1  0  0  0  0  0  0  0  0  0
   -3.5587    0.8808    0.4231 C   0  0  0  0  0  0  0  0  0  0  0  0
   -2.4087   -1.3186   -0.0385 C   0  0  0  0  0  0  0  0  0  0  0  0
   -0.0158    0.7495   -0.5399 C   0  0  0  0  0  0  0  0  0  0  0  0
   -2.6483   -2.2562    0.9660 C   0  0  0  0  0  0  0  0  0  0  0  0
   -2.3298   -1.7275   -1.3698 C   0  0  0  0  0  0  0  0  0  0  0  0
   -5.0312    2.3631    1.1238 C   0  0  0  0  0  0  0  0  0  0  0  0
   -2.7637    2.5089    2.1671 C   0  0  0  0  0  0  0  0  0  0  0  0
   -5.5713    1.5277    0.1745 C   0  0  0  0  0  0  0  0  0  0  0  0
    0.8961    1.3509   -1.3064 C   0  0  0  0  0  0  0  0  0  0  0  0
    0.5542   -0.1520    0.4689 C   0  0  0  0  0  0  0  0  0  0  0  0
   -2.8090   -3.6027    0.6393 C   0  0  0  0  0  0  0  0  0  0  0  0
   -2.4905   -3.0740   -1.6964 C   0  0  0  0  0  0  0  0  0  0  0  0
    2.3609    1.1115   -1.1374 C   0  0  0  0  0  0  0  0  0  0  0  0
   -2.7302   -4.0117   -0.6920 C   0  0  0  0  0  0  0  0  0  0  0  0
    4.0929   -0.0275    0.2952 C   0  0  0  0  0  0  0  0  0  0  0  0
    5.0972    0.9171    0.0835 C   0  0  0  0  0  0  0  0  0  0  0  0
    4.4043   -1.2594    0.8704 C   0  0  0  0  0  0  0  0  0  0  0  0
    6.4128    0.6297    0.4473 C   0  0  0  0  0  0  0  0  0  0  0  0
    5.7198   -1.5467    1.2342 C   0  0  0  0  0  0  0  0  0  0  0  0
    6.7241   -0.6022    1.0227 C   0  0  0  0  0  0  0  0  0  0  0  0
   -1.8294    0.1882    1.3367 H   0  0  0  0  0  0  0  0  0  0  0  0
   -1.7679    1.4447   -1.3101 H   0  0  0  0  0  0  0  0  0  0  0  0
   -2.7135   -1.9510    2.0069 H   0  0  0  0  0  0  0  0  0  0  0  0
   -2.1592   -1.0183   -2.1748 H   0  0  0  0  0  0  0  0  0  0  0  0
   -5.4418    3.1922    1.6833 H   0  0  0  0  0  0  0  0  0  0  0  0
   -2.5286    1.7741    2.9408 H   0  0  0  0  0  0  0  0  0  0  0  0
   -1.8721    2.7749    1.5947 H   0  0  0  0  0  0  0  0  0  0  0  0
   -3.1791    3.4083    2.6296 H   0  0  0  0  0  0  0  0  0  0  0  0
   -6.5769    1.5420   -0.2196 H   0  0  0  0  0  0  0  0  0  0  0  0
   -0.1129   -0.7192    1.1231 H   0  0  0  0  0  0  0  0  0  0  0  0
   -2.9961   -4.3327    1.4214 H   0  0  0  0  0  0  0  0  0  0  0  0
   -2.4325   -3.3922   -2.7333 H   0  0  0  0  0  0  0  0  0  0  0  0
   -2.8563   -5.0600   -0.9464 H   0  0  0  0  0  0  0  0  0  0  0  0
    4.8892    1.9002   -0.3265 H   0  0  0  0  0  0  0  0  0  0  0  0
    3.6489   -2.0230    1.0353 H   0  0  0  0  0  0  0  0  0  0  0  0
    7.1937    1.3682    0.2906 H   0  0  0  0  0  0  0  0  0  0  0  0
    5.9632   -2.5070    1.6795 H   0  0  0  0  0  0  0  0  0  0  0  0
    7.7482   -0.8254    1.3072 H   0  0  0  0  0  0  0  0  0  0  0  0
  1 17  1  0  0  0  0
  2 21  2  0  0  0  0
  3  8  1  0  0  0  0
  3 11  1  0  0  0  0
  3 30  1  0  0  0  0
  4  9  1  0  0  0  0
  4 14  1  0  0  0  0
  4 15  1  0  0  0  0
  5  9  2  0  0  0  0
  5 16  1  0  0  0  0
  6  7  1  0  0  0  0
  6 21  1  0  0  0  0
  6 23  1  0  0  0  0
  7 18  2  0  0  0  0
  8  9  1  0  0  0  0
  8 10  1  0  0  0  0
  8 29  1  0  0  0  0
 10 12  2  0  0  0  0
 10 13  1  0  0  0  0
 11 17  2  0  0  0  0
 11 18  1  0  0  0  0
 12 19  1  0  0  0  0
 12 31  1  0  0  0  0
 13 20  2  0  0  0  0
 13 32  1  0  0  0  0
 14 16  2  0  0  0  0
 14 33  1  0  0  0  0
 15 34  1  0  0  0  0
 15 35  1  0  0  0  0
 15 36  1  0  0  0  0
 16 37  1  0  0  0  0
 17 21  1  0  0  0  0
 18 38  1  0  0  0  0
 19 22  2  0  0  0  0
 19 39  1  0  0  0  0
 20 22  1  0  0  0  0
 20 40  1  0  0  0  0
 22 41  1  0  0  0  0
 23 24  2  0  0  0  0
 23 25  1  0  0  0  0
 24 26  1  0  0  0  0
 24 42  1  0  0  0  0
 25 27  2  0  0  0  0
 25 43  1  0  0  0  0
 26 28  2  0  0  0  0
 26 44  1  0  0  0  0
 27 28  1  0  0  0  0
 27 45  1  0  0  0  0
 28 46  1  0  0  0  0
M  END
> <PUBCHEM_COMPOUND_CID>
17395989

> <PUBCHEM_CONFORMER_RMSD>
0.8

> <PUBCHEM_CONFORMER_DIVERSEORDER>
1
20
41
34
47
27
64
63
30
29
55
56
44
57
65
23
9
38
33
69
66
14
10
52
37
19
24
46
42
25
50
6
40
67
18
32
7
4
54
45
62
17
3
59
61
49
8
31
16
22
68
13
11
35
5
28
53
43
26
12
15
51
39
48
21
60
2
36
58

> <PUBCHEM_MMFF94_PARTIAL_CHARGES>
42
1 -0.14
10 -0.14
11 0.11
12 -0.15
13 -0.15
14 -0.3
15 0.26
16 0.08
17 0.15
18 0.38
19 -0.15
2 -0.57
20 -0.15
21 0.62
22 -0.15
23 0.12
24 -0.15
25 -0.15
26 -0.15
27 -0.15
28 -0.15
3 -0.87
30 0.4
31 0.15
32 0.15
33 0.15
37 0.15
38 0.06
39 0.15
4 0.05
40 0.15
41 0.15
42 0.15
43 0.15
44 0.15
45 0.15
46 0.15
5 -0.57
6 -0.11
7 -0.51
8 0.69
9 0.01

> <PUBCHEM_EFFECTIVE_ROTOR_COUNT>
5

> <PUBCHEM_PHARMACOPHORE_FEATURES>
9
1 2 acceptor
1 3 cation
1 3 donor
1 7 acceptor
3 4 5 9 cation
5 4 5 9 14 16 rings
6 10 12 13 19 20 22 rings
6 23 24 25 26 27 28 rings
6 6 7 11 17 18 21 rings

> <PUBCHEM_HEAVY_ATOM_COUNT>
28

> <PUBCHEM_ATOM_DEF_STEREO_COUNT>
0

> <PUBCHEM_ATOM_UDEF_STEREO_COUNT>
1

> <PUBCHEM_BOND_DEF_STEREO_COUNT>
0

> <PUBCHEM_BOND_UDEF_STEREO_COUNT>
0

> <PUBCHEM_ISOTOPIC_ATOM_COUNT>
0

> <PUBCHEM_COMPONENT_COUNT>
1

> <PUBCHEM_CACTVS_TAUTO_COUNT>
2

> <PUBCHEM_CONFORMER_ID>
0109711500000001

> <PUBCHEM_MMFF94_ENERGY>
85.6026

> <PUBCHEM_FEATURE_SELFOVERLAP>
45.672

> <PUBCHEM_SHAPE_FINGERPRINT>
10622 236 18126859196034781886
11049842 53 17973690800908178028
11405975 8 18336267855865613768
11552529 35 18261966145726388490
12236239 1 18341894103719284465
12293681 4 17894627071591794160
12422481 6 18342456001859217006
12553582 1 17417827157447544906
12616971 3 17561362868694112308
12788726 201 18121766254475645735
13009979 54 18268145366392770526
13540713 5 18057030324813478068
13583140 156 16877668937656525826
13673619 4 13829835925101915125
14068700 675 18045238050032220343
14840074 17 18059857315632860762
14844126 61 18188777141323123339
15131766 46 16126095466434663341
15484559 13 15687912977259100564
15537594 2 17704074036277375130
15842332 3 18056459674163036733
15849732 13 18202284736396450197
16110190 28 18272087206073204718
17780758 139 18408328765612811418
17818456 19 18409441518477327640
19141452 34 18341896307316867654
20511986 3 18342186561206920024
20554085 129 17823426079412419593
21033648 29 16732971046566375553
21403212 168 18200597033477154993
21424621 283 17459456931307889937
21781055 127 17826484915849142393
229767 44 18270116941250169461
23559900 14 18187939334710423392
23569917 315 18410006685357281367
23598288 3 18191015717016478287
23728640 28 18335700525341248243
25147074 1 18201148846073924004
312425 54 18336840749200997698
3383291 50 18335138674963095979
3633792 109 18194130826990095221
4017518 198 18261674895167457190
4073 2 18335140878513018346
484985 159 17275103873884003675
5028188 123 18336539440555820532
5104073 3 18339934727602910256
513202 73 17415566686047572050
5364581 5 17897746274948734936
5486654 36 18059853909460233027
559249 180 18341899588772368375
5924683 9 18335989661895919710
6691757 9 18259982687016430211
7226269 152 18040718112433495945
9953998 17 18337123319473288642
9981440 41 17386000715286988727

> <PUBCHEM_SHAPE_MULTIPOLES>
547.32
13.87
3.79
1.79
18.29
3.38
0.64
-1.31
-5.95
-6.04
0.46
-0.26
-0.9
-3.19

> <PUBCHEM_SHAPE_SELFOVERLAP>
1190.281

> <PUBCHEM_SHAPE_VOLUME>
298.3

> <PUBCHEM_COORDINATE_TYPE>
2
5
10

$$$$

