6735
  -OEChem-07051212463D

 18 19  0     0  0  0  0  0  0999 V2000
   -2.2260   -1.5714   -0.0011 O   0  0  0  0  0  0  0  0  0  0  0  0
   -0.9816    1.8176   -0.0001 C   0  0  0  0  0  0  0  0  0  0  0  0
   -2.1902    0.8652    0.0009 C   0  0  0  0  0  0  0  0  0  0  0  0
    0.2025    0.9055   -0.0001 C   0  0  0  0  0  0  0  0  0  0  0  0
   -0.1511   -0.4381    0.0003 C   0  0  0  0  0  0  0  0  0  0  0  0
   -1.6025   -0.5257    0.0001 C   0  0  0  0  0  0  0  0  0  0  0  0
    1.5410    1.2633   -0.0006 C   0  0  0  0  0  0  0  0  0  0  0  0
    0.7775   -1.4623    0.0006 C   0  0  0  0  0  0  0  0  0  0  0  0
    2.5050    0.2495   -0.0003 C   0  0  0  0  0  0  0  0  0  0  0  0
    2.1254   -1.1036    0.0003 C   0  0  0  0  0  0  0  0  0  0  0  0
   -0.9877    2.4527    0.8916 H   0  0  0  0  0  0  0  0  0  0  0  0
   -0.9884    2.4517   -0.8926 H   0  0  0  0  0  0  0  0  0  0  0  0
   -2.8031    1.0092   -0.8939 H   0  0  0  0  0  0  0  0  0  0  0  0
   -2.8014    1.0087    0.8969 H   0  0  0  0  0  0  0  0  0  0  0  0
    1.8418    2.3058   -0.0010 H   0  0  0  0  0  0  0  0  0  0  0  0
    0.4802   -2.5046    0.0009 H   0  0  0  0  0  0  0  0  0  0  0  0
    3.5601    0.5100   -0.0004 H   0  0  0  0  0  0  0  0  0  0  0  0
    2.8902   -1.8755    0.0006 H   0  0  0  0  0  0  0  0  0  0  0  0
  1  6  2  0  0  0  0
  2  3  1  0  0  0  0
  2  4  1  0  0  0  0
  2 11  1  0  0  0  0
  2 12  1  0  0  0  0
  3  6  1  0  0  0  0
  3 13  1  0  0  0  0
  3 14  1  0  0  0  0
  4  5  1  0  0  0  0
  4  7  2  0  0  0  0
  5  6  1  0  0  0  0
  5  8  2  0  0  0  0
  7  9  1  0  0  0  0
  7 15  1  0  0  0  0
  8 10  1  0  0  0  0
  8 16  1  0  0  0  0
  9 10  2  0  0  0  0
  9 17  1  0  0  0  0
 10 18  1  0  0  0  0
M  END
> <PUBCHEM_COMPOUND_CID>
6735

> <PUBCHEM_CONFORMER_RMSD>
0.4

> <PUBCHEM_CONFORMER_DIVERSEORDER>
1

> <PUBCHEM_MMFF94_PARTIAL_CHARGES>
14
1 -0.57
10 -0.15
15 0.15
16 0.15
17 0.15
18 0.15
2 0.14
3 0.06
4 -0.14
5 0.09
6 0.42
7 -0.15
8 -0.15
9 -0.15

> <PUBCHEM_EFFECTIVE_ROTOR_COUNT>
0.4

> <PUBCHEM_PHARMACOPHORE_FEATURES>
3
1 1 acceptor
5 2 3 4 5 6 rings
6 4 5 7 8 9 10 rings

> <PUBCHEM_HEAVY_ATOM_COUNT>
10

> <PUBCHEM_ATOM_DEF_STEREO_COUNT>
0

> <PUBCHEM_ATOM_UDEF_STEREO_COUNT>
0

> <PUBCHEM_BOND_DEF_STEREO_COUNT>
0

> <PUBCHEM_BOND_UDEF_STEREO_COUNT>
0

> <PUBCHEM_ISOTOPIC_ATOM_COUNT>
0

> <PUBCHEM_COMPONENT_COUNT>
1

> <PUBCHEM_CACTVS_TAUTO_COUNT>
2

> <PUBCHEM_CONFORMER_ID>
00001A4F00000001

> <PUBCHEM_MMFF94_ENERGY>
24.209

> <PUBCHEM_FEATURE_SELFOVERLAP>
15.303

> <PUBCHEM_SHAPE_FINGERPRINT>
10857977 72 18337402530068622354
12423570 1 6338692789298649162
12524768 44 18192146212126753743
12897270 3 18410857637734616286
16945 1 18338797943484197124
18185500 45 18411138051822782174
19973954 147 18410572907267744596
21040471 1 18122344850393162884
23402655 69 18264505043024809253
23552423 10 18272084993959338390
241688 4 18412545405226419393
2748010 2 18410576141235602860
29004967 10 18340484461145460594
369184 2 16343701057990910096
5084963 1 18188204317086199634
528886 8 18410298024918055928

> <PUBCHEM_SHAPE_MULTIPOLES>
199.93
3.26
1.84
0.61
0.23
0
0
-0.27
0
-0.33
0
0.02
0.02
0

> <PUBCHEM_SHAPE_SELFOVERLAP>
437.036

> <PUBCHEM_SHAPE_VOLUME>
110.9

> <PUBCHEM_COORDINATE_TYPE>
2
5
10

$$$$

