439241
  -OEChem-07051212442D

 21 21  0     1  0  0  0  0  0999 V2000
    5.1350   -0.8450    0.0000 O   0  0  0  0  0  0  0  0  0  0  0  0
    4.2690    1.6550    0.0000 O   0  0  0  0  0  0  0  0  0  0  0  0
    2.5369    0.6550    0.0000 O   0  0  0  0  0  0  0  0  0  0  0  0
    6.8671    0.1550    0.0000 O   0  0  0  0  0  0  0  0  0  0  0  0
    2.5369   -1.3450    0.0000 O   0  0  0  0  0  0  0  0  0  0  0  0
    4.2690    0.6550    0.0000 C   0  0  1  0  0  0  0  0  0  0  0  0
    5.1350    0.1550    0.0000 C   0  0  2  0  0  0  0  0  0  0  0  0
    3.4030    0.1550    0.0000 C   0  0  2  0  0  0  0  0  0  0  0  0
    6.0010    0.6550    0.0000 C   0  0  0  0  0  0  0  0  0  0  0  0
    3.4030   -0.8450    0.0000 C   0  0  0  0  0  0  0  0  0  0  0  0
    4.2690   -1.3450    0.0000 C   0  0  0  0  0  0  0  0  0  0  0  0
    4.8059    0.9650    0.0000 H   0  0  0  0  0  0  0  0  0  0  0  0
    5.6720   -0.1550    0.0000 H   0  0  0  0  0  0  0  0  0  0  0  0
    3.4030    0.7750    0.0000 H   0  0  0  0  0  0  0  0  0  0  0  0
    6.3996    1.1300    0.0000 H   0  0  0  0  0  0  0  0  0  0  0  0
    5.6025    1.1300    0.0000 H   0  0  0  0  0  0  0  0  0  0  0  0
    4.2690   -1.9650    0.0000 H   0  0  0  0  0  0  0  0  0  0  0  0
    3.7320    1.9650    0.0000 H   0  0  0  0  0  0  0  0  0  0  0  0
    2.0000    0.3450    0.0000 H   0  0  0  0  0  0  0  0  0  0  0  0
    7.4040    0.4650    0.0000 H   0  0  0  0  0  0  0  0  0  0  0  0
    2.5369   -1.9650    0.0000 H   0  0  0  0  0  0  0  0  0  0  0  0
  1  7  1  0  0  0  0
  1 11  1  0  0  0  0
  6  2  1  1  0  0  0
  2 18  1  0  0  0  0
  8  3  1  6  0  0  0
  3 19  1  0  0  0  0
  4  9  1  0  0  0  0
  4 20  1  0  0  0  0
  5 10  1  0  0  0  0
  5 21  1  0  0  0  0
  6  7  1  0  0  0  0
  6  8  1  0  0  0  0
  6 12  1  0  0  0  0
  7  9  1  6  0  0  0
  7 13  1  0  0  0  0
  8 10  1  0  0  0  0
  8 14  1  0  0  0  0
  9 15  1  0  0  0  0
  9 16  1  0  0  0  0
 10 11  2  0  0  0  0
 11 17  1  0  0  0  0
M  END
> <PUBCHEM_COMPOUND_CID>
439241

> <PUBCHEM_COMPOUND_CANONICALIZED>
1

> <PUBCHEM_CACTVS_COMPLEXITY>
166

> <PUBCHEM_CACTVS_HBOND_ACCEPTOR>
5

> <PUBCHEM_CACTVS_HBOND_DONOR>
4

> <PUBCHEM_CACTVS_ROTATABLE_BOND>
1

> <PUBCHEM_CACTVS_SUBSKEYS>
AAADccBgOAAAAAAAAAAAAAAAAAAAAAAAAAAgAAAAAAAAAAAAAAAAGgAACAAACBSggAIAAAAABgCAAABCAAAACAAgIAAAAAAAAAgBFAIAAQAAQAAFwAADEADAIAAAAAAAAAAAAAAAAAAAAAAAAAAAAAAAAA==

> <PUBCHEM_IUPAC_OPENEYE_NAME>
(2S,3R,4R)-2-(hydroxymethyl)-3,4-dihydro-2H-pyran-3,4,5-triol

> <PUBCHEM_IUPAC_CAS_NAME>
(2S,3R,4R)-2-(hydroxymethyl)-3,4-dihydro-2H-pyran-3,4,5-triol

> <PUBCHEM_IUPAC_NAME>
(2S,3R,4R)-2-(hydroxymethyl)-3,4-dihydro-2H-pyran-3,4,5-triol

> <PUBCHEM_IUPAC_SYSTEMATIC_NAME>
(2S,3R,4R)-2-(hydroxymethyl)-3,4-dihydro-2H-pyran-3,4,5-triol

> <PUBCHEM_IUPAC_TRADITIONAL_NAME>
(2S,3R,4R)-2-methylol-3,4-dihydro-2H-pyran-3,4,5-triol

> <PUBCHEM_IUPAC_INCHI>
InChI=1S/C6H10O5/c7-1-4-6(10)5(9)3(8)2-11-4/h2,4-10H,1H2/t4-,5-,6-/m0/s1

> <PUBCHEM_IUPAC_INCHIKEY>
CXKKSSKKIOZUNR-ZLUOBGJFSA-N

> <PUBCHEM_XLOGP3_AA>
-1.6

> <PUBCHEM_EXACT_MASS>
162.052823

> <PUBCHEM_MOLECULAR_FORMULA>
C6H10O5

> <PUBCHEM_MOLECULAR_WEIGHT>
162.1406

> <PUBCHEM_OPENEYE_CAN_SMILES>
C1=C(C(C(C(O1)CO)O)O)O

> <PUBCHEM_OPENEYE_ISO_SMILES>
C1=C([C@@H]([C@H]([C@@H](O1)CO)O)O)O

> <PUBCHEM_CACTVS_TPSA>
90.2

> <PUBCHEM_MONOISOTOPIC_WEIGHT>
162.052823

> <PUBCHEM_TOTAL_CHARGE>
0

> <PUBCHEM_HEAVY_ATOM_COUNT>
11

> <PUBCHEM_ATOM_DEF_STEREO_COUNT>
3

> <PUBCHEM_ATOM_UDEF_STEREO_COUNT>
0

> <PUBCHEM_BOND_DEF_STEREO_COUNT>
0

> <PUBCHEM_BOND_UDEF_STEREO_COUNT>
0

> <PUBCHEM_ISOTOPIC_ATOM_COUNT>
0

> <PUBCHEM_COMPONENT_COUNT>
1

> <PUBCHEM_CACTVS_TAUTO_COUNT>
7

> <PUBCHEM_COORDINATE_TYPE>
1
5
255

> <PUBCHEM_BONDANNOTATIONS>
6  2  5
8  3  6
7  9  6

$$$$

