11734
  -OEChem-06261206033D

 11 10  0     1  0  0  0  0  0999 V2000
   -1.7370   -1.0990    0.1523 Cl  0  0  0  0  0  0  0  0  0  0  0  0
    1.6804    0.8028    0.2507 O   0  0  0  0  0  0  0  0  0  0  0  0
    1.0464   -1.2778   -0.3948 O   0  0  0  0  0  0  0  0  0  0  0  0
   -0.6415    0.2813    0.3991 C   0  0  2  0  0  0  0  0  0  0  0  0
   -1.1034    1.4617   -0.4412 C   0  0  0  0  0  0  0  0  0  0  0  0
    0.7551   -0.1690    0.0340 C   0  0  0  0  0  0  0  0  0  0  0  0
   -0.6647    0.5222    1.4661 H   0  0  0  0  0  0  0  0  0  0  0  0
   -0.4672    2.3362   -0.2674 H   0  0  0  0  0  0  0  0  0  0  0  0
   -1.0563    1.2337   -1.5121 H   0  0  0  0  0  0  0  0  0  0  0  0
   -2.1320    1.7449   -0.1942 H   0  0  0  0  0  0  0  0  0  0  0  0
    2.5854    0.5037    0.0185 H   0  0  0  0  0  0  0  0  0  0  0  0
  1  4  1  0  0  0  0
  2  6  1  0  0  0  0
  2 11  1  0  0  0  0
  3  6  2  0  0  0  0
  4  5  1  0  0  0  0
  4  6  1  0  0  0  0
  4  7  1  0  0  0  0
  5  8  1  0  0  0  0
  5  9  1  0  0  0  0
  5 10  1  0  0  0  0
M  END
> <PUBCHEM_COMPOUND_CID>
11734

> <PUBCHEM_CONFORMER_RMSD>
0.4

> <PUBCHEM_CONFORMER_DIVERSEORDER>
3
4
2
1

> <PUBCHEM_MMFF94_PARTIAL_CHARGES>
6
1 -0.29
11 0.5
2 -0.65
3 -0.57
4 0.35
6 0.66

> <PUBCHEM_EFFECTIVE_ROTOR_COUNT>
1

> <PUBCHEM_PHARMACOPHORE_FEATURES>
3
1 2 acceptor
1 3 acceptor
3 2 3 6 anion

> <PUBCHEM_HEAVY_ATOM_COUNT>
6

> <PUBCHEM_ATOM_DEF_STEREO_COUNT>
0

> <PUBCHEM_ATOM_UDEF_STEREO_COUNT>
1

> <PUBCHEM_BOND_DEF_STEREO_COUNT>
0

> <PUBCHEM_BOND_UDEF_STEREO_COUNT>
0

> <PUBCHEM_ISOTOPIC_ATOM_COUNT>
0

> <PUBCHEM_COMPONENT_COUNT>
1

> <PUBCHEM_CACTVS_TAUTO_COUNT>
1

> <PUBCHEM_CONFORMER_ID>
00002DD600000003

> <PUBCHEM_MMFF94_ENERGY>
4.9324

> <PUBCHEM_FEATURE_SELFOVERLAP>
15.282

> <PUBCHEM_SHAPE_FINGERPRINT>
139733 1 8934738672817693611
16714656 1 18049435946708572124
20096714 4 17981327003705278337
21040471 1 17982171420034841797
24536 1 17895761836210421056
29004967 10 18198334057667955323
5943 1 15157577961785284241

> <PUBCHEM_SHAPE_MULTIPOLES>
113.61
2.07
1.53
0.69
0.04
0.18
0
-0.27
0.07
-0.37
-0.23
-0.05
0.02
0.25

> <PUBCHEM_SHAPE_SELFOVERLAP>
198.787

> <PUBCHEM_SHAPE_VOLUME>
76

> <PUBCHEM_COORDINATE_TYPE>
2
5
10

$$$$

