443349
  -OEChem-07051213023D

 71 73  0     1  0  0  0  0  0999 V2000
   -0.5070   -0.8268   -0.7836 O   0  0  0  0  0  0  0  0  0  0  0  0
   -2.0327   -1.7414    0.7313 O   0  0  0  0  0  0  0  0  0  0  0  0
    0.9225    0.9419   -0.2618 O   0  0  0  0  0  0  0  0  0  0  0  0
   -3.3206    3.2105   -1.2345 O   0  0  0  0  0  0  0  0  0  0  0  0
    1.5002   -2.6554    0.0135 O   0  0  0  0  0  0  0  0  0  0  0  0
    4.2037   -1.5277   -0.3028 O   0  0  0  0  0  0  0  0  0  0  0  0
    4.3725    1.0665    0.9611 O   0  0  0  0  0  0  0  0  0  0  0  0
   -6.5529   -0.4493    0.7072 O   0  0  0  0  0  0  0  0  0  0  0  0
    0.9641    3.5492    0.6078 O   0  0  0  0  0  0  0  0  0  0  0  0
   -5.8839   -2.0730    2.2157 O   0  0  0  0  0  0  0  0  0  0  0  0
    0.4786   -3.0532   -2.0199 O   0  0  0  0  0  0  0  0  0  0  0  0
    4.0134   -3.2403    1.2360 O   0  0  0  0  0  0  0  0  0  0  0  0
    5.8776    0.6376   -0.7383 O   0  0  0  0  0  0  0  0  0  0  0  0
    1.8349    5.5971   -0.0130 O   0  0  0  0  0  0  0  0  0  0  0  0
   -2.8317   -0.3145   -1.1245 C   0  0  1  0  0  0  0  0  0  0  0  0
   -4.1940   -0.1295   -0.4313 C   0  0  2  0  0  0  0  0  0  0  0  0
   -2.6021    0.9965   -1.9010 C   0  0  2  0  0  0  0  0  0  0  0  0
   -1.7299   -0.5985   -0.0831 C   0  0  2  0  0  0  0  0  0  0  0  0
   -4.2269    1.3427   -0.0116 C   0  0  0  0  0  0  0  0  0  0  0  0
   -3.3772    1.9977   -1.0696 C   0  0  0  0  0  0  0  0  0  0  0  0
   -4.3454   -1.0729    0.7156 C   0  0  0  0  0  0  0  0  0  0  0  0
   -3.1703    0.9531   -3.3124 C   0  0  0  0  0  0  0  0  0  0  0  0
    0.6195   -0.4271   -0.0036 C   0  0  2  0  0  0  0  0  0  0  0  0
    1.7994   -1.3192   -0.3894 C   0  0  1  0  0  0  0  0  0  0  0  0
    3.0891   -0.8606    0.2914 C   0  0  2  0  0  0  0  0  0  0  0  0
    3.2966    0.6451    0.1268 C   0  0  1  0  0  0  0  0  0  0  0  0
   -3.3256   -1.8018    1.1827 C   0  0  0  0  0  0  0  0  0  0  0  0
    2.0291    1.4130    0.5092 C   0  0  1  0  0  0  0  0  0  0  0  0
   -5.6643   -1.2766    1.3151 C   0  0  0  0  0  0  0  0  0  0  0  0
    2.1724    2.9080    0.2422 C   0  0  0  0  0  0  0  0  0  0  0  0
    0.8335   -3.4132   -0.9056 C   0  0  0  0  0  0  0  0  0  0  0  0
    4.5567   -2.7125    0.2751 C   0  0  0  0  0  0  0  0  0  0  0  0
    5.6154    1.0106    0.3972 C   0  0  0  0  0  0  0  0  0  0  0  0
   -7.8984   -0.5316    1.1883 C   0  0  0  0  0  0  0  0  0  0  0  0
    0.5896   -4.7831   -0.3490 C   0  0  0  0  0  0  0  0  0  0  0  0
    5.7328   -3.2949   -0.4485 C   0  0  0  0  0  0  0  0  0  0  0  0
    0.9261    4.9070    0.4288 C   0  0  0  0  0  0  0  0  0  0  0  0
    6.6410    1.4809    1.3837 C   0  0  0  0  0  0  0  0  0  0  0  0
   -0.4058    5.4457    0.8550 C   0  0  0  0  0  0  0  0  0  0  0  0
   -2.8711   -1.1687   -1.8146 H   0  0  0  0  0  0  0  0  0  0  0  0
   -4.9730   -0.3144   -1.1839 H   0  0  0  0  0  0  0  0  0  0  0  0
   -1.5454    1.2796   -1.9234 H   0  0  0  0  0  0  0  0  0  0  0  0
   -1.6233    0.2735    0.5786 H   0  0  0  0  0  0  0  0  0  0  0  0
   -3.7717    1.5185    0.9681 H   0  0  0  0  0  0  0  0  0  0  0  0
   -5.2401    1.7520   -0.0379 H   0  0  0  0  0  0  0  0  0  0  0  0
   -4.2451    0.7419   -3.3146 H   0  0  0  0  0  0  0  0  0  0  0  0
   -3.0282    1.9164   -3.8143 H   0  0  0  0  0  0  0  0  0  0  0  0
   -2.6686    0.1839   -3.9082 H   0  0  0  0  0  0  0  0  0  0  0  0
    0.4002   -0.5661    1.0649 H   0  0  0  0  0  0  0  0  0  0  0  0
    1.9639   -1.2808   -1.4756 H   0  0  0  0  0  0  0  0  0  0  0  0
    3.0535   -1.0862    1.3664 H   0  0  0  0  0  0  0  0  0  0  0  0
    3.5198    0.8596   -0.9283 H   0  0  0  0  0  0  0  0  0  0  0  0
   -3.4008   -2.5499    1.9605 H   0  0  0  0  0  0  0  0  0  0  0  0
    1.7961    1.2797    1.5745 H   0  0  0  0  0  0  0  0  0  0  0  0
    3.0016    3.3267    0.8237 H   0  0  0  0  0  0  0  0  0  0  0  0
    2.3523    3.0822   -0.8257 H   0  0  0  0  0  0  0  0  0  0  0  0
   -8.2958   -1.5388    1.0303 H   0  0  0  0  0  0  0  0  0  0  0  0
   -7.9387   -0.2617    2.2478 H   0  0  0  0  0  0  0  0  0  0  0  0
   -8.5059    0.1788    0.6215 H   0  0  0  0  0  0  0  0  0  0  0  0
    1.5432   -5.2633   -0.1157 H   0  0  0  0  0  0  0  0  0  0  0  0
    0.0670   -5.3897   -1.0941 H   0  0  0  0  0  0  0  0  0  0  0  0
   -0.0358   -4.7128    0.5446 H   0  0  0  0  0  0  0  0  0  0  0  0
    6.5822   -2.6100   -0.3861 H   0  0  0  0  0  0  0  0  0  0  0  0
    5.4679   -3.4866   -1.4913 H   0  0  0  0  0  0  0  0  0  0  0  0
    6.0139   -4.2425    0.0198 H   0  0  0  0  0  0  0  0  0  0  0  0
    6.4339    2.5155    1.6684 H   0  0  0  0  0  0  0  0  0  0  0  0
    7.6327    1.4374    0.9246 H   0  0  0  0  0  0  0  0  0  0  0  0
    6.6348    0.8305    2.2620 H   0  0  0  0  0  0  0  0  0  0  0  0
   -0.5655    5.2407    1.9164 H   0  0  0  0  0  0  0  0  0  0  0  0
   -0.4257    6.5285    0.7015 H   0  0  0  0  0  0  0  0  0  0  0  0
   -1.1976    4.9938    0.2522 H   0  0  0  0  0  0  0  0  0  0  0  0
  1 18  1  0  0  0  0
  1 23  1  0  0  0  0
  2 18  1  0  0  0  0
  2 27  1  0  0  0  0
  3 23  1  0  0  0  0
  3 28  1  0  0  0  0
  4 20  2  0  0  0  0
  5 24  1  0  0  0  0
  5 31  1  0  0  0  0
  6 25  1  0  0  0  0
  6 32  1  0  0  0  0
  7 26  1  0  0  0  0
  7 33  1  0  0  0  0
  8 29  1  0  0  0  0
  8 34  1  0  0  0  0
  9 30  1  0  0  0  0
  9 37  1  0  0  0  0
 10 29  2  0  0  0  0
 11 31  2  0  0  0  0
 12 32  2  0  0  0  0
 13 33  2  0  0  0  0
 14 37  2  0  0  0  0
 15 16  1  0  0  0  0
 15 17  1  0  0  0  0
 15 18  1  0  0  0  0
 15 40  1  0  0  0  0
 16 19  1  0  0  0  0
 16 21  1  0  0  0  0
 16 41  1  0  0  0  0
 17 20  1  0  0  0  0
 17 22  1  0  0  0  0
 17 42  1  0  0  0  0
 18 43  1  0  0  0  0
 19 20  1  0  0  0  0
 19 44  1  0  0  0  0
 19 45  1  0  0  0  0
 21 27  2  0  0  0  0
 21 29  1  0  0  0  0
 22 46  1  0  0  0  0
 22 47  1  0  0  0  0
 22 48  1  0  0  0  0
 23 24  1  0  0  0  0
 23 49  1  0  0  0  0
 24 25  1  0  0  0  0
 24 50  1  0  0  0  0
 25 26  1  0  0  0  0
 25 51  1  0  0  0  0
 26 28  1  0  0  0  0
 26 52  1  0  0  0  0
 27 53  1  0  0  0  0
 28 30  1  0  0  0  0
 28 54  1  0  0  0  0
 30 55  1  0  0  0  0
 30 56  1  0  0  0  0
 31 35  1  0  0  0  0
 32 36  1  0  0  0  0
 33 38  1  0  0  0  0
 34 57  1  0  0  0  0
 34 58  1  0  0  0  0
 34 59  1  0  0  0  0
 35 60  1  0  0  0  0
 35 61  1  0  0  0  0
 35 62  1  0  0  0  0
 36 63  1  0  0  0  0
 36 64  1  0  0  0  0
 36 65  1  0  0  0  0
 37 39  1  0  0  0  0
 38 66  1  0  0  0  0
 38 67  1  0  0  0  0
 38 68  1  0  0  0  0
 39 69  1  0  0  0  0
 39 70  1  0  0  0  0
 39 71  1  0  0  0  0
M  END
> <PUBCHEM_COMPOUND_CID>
443349

> <PUBCHEM_CONFORMER_RMSD>
1.4

> <PUBCHEM_CONFORMER_DIVERSEORDER>
1
24
10
14
11
23
22
16
17
15
8
21
13
6
3
9
20
12
7
5
2
4
18
19

> <PUBCHEM_MMFF94_PARTIAL_CHARGES>
38
1 -0.56
10 -0.57
11 -0.57
12 -0.57
13 -0.57
14 -0.57
16 0.14
17 0.06
18 0.56
19 0.06
2 -0.36
20 0.45
21 -0.12
23 0.56
24 0.28
25 0.28
26 0.28
27 -0.07
28 0.28
29 0.71
3 -0.56
30 0.28
31 0.66
32 0.66
33 0.66
34 0.28
35 0.06
36 0.06
37 0.66
38 0.06
39 0.06
4 -0.57
5 -0.43
53 0.15
6 -0.43
7 -0.43
8 -0.43
9 -0.43

> <PUBCHEM_EFFECTIVE_ROTOR_COUNT>
15

> <PUBCHEM_PHARMACOPHORE_FEATURES>
12
1 1 acceptor
1 10 acceptor
1 11 acceptor
1 12 acceptor
1 13 acceptor
1 14 acceptor
1 2 acceptor
1 3 acceptor
1 4 acceptor
5 15 16 17 19 20 rings
6 2 15 16 18 21 27 rings
6 3 23 24 25 26 28 rings

> <PUBCHEM_HEAVY_ATOM_COUNT>
39

> <PUBCHEM_ATOM_DEF_STEREO_COUNT>
9

> <PUBCHEM_ATOM_UDEF_STEREO_COUNT>
0

> <PUBCHEM_BOND_DEF_STEREO_COUNT>
0

> <PUBCHEM_BOND_UDEF_STEREO_COUNT>
0

> <PUBCHEM_ISOTOPIC_ATOM_COUNT>
0

> <PUBCHEM_COMPONENT_COUNT>
1

> <PUBCHEM_CACTVS_TAUTO_COUNT>
3

> <PUBCHEM_CONFORMER_ID>
0006C3D500000001

> <PUBCHEM_MMFF94_ENERGY>
86.0586

> <PUBCHEM_FEATURE_SELFOVERLAP>
61.131

> <PUBCHEM_SHAPE_FINGERPRINT>
10675989 125 17189279603686849981
12293681 4 18051415364033490789
12788726 201 17690013639998974888
13140716 1 18266462186416864490
13402501 40 18343299262890199923
13782708 43 18059854008614181179
140371 6 18051131698665664044
14363568 33 18339360751820333468
14955137 171 18410005541971794702
15081414 286 18408042901533211808
15351339 4 17331983010659366181
15815584 197 18334859458769139030
15968369 153 18115604775912487936
21033648 29 17896055268729889192
23558518 356 17472424729821326372
23559900 14 17988918930401521383
24771293 8 17897739661089696528
3178227 256 18339919307953301712
350125 39 18269832034520580357
5104073 3 18270969058382053674
5252454 2 17690281512751832381
7399639 24 18413103987852741575

> <PUBCHEM_SHAPE_MULTIPOLES>
720.43
14.8
6.44
1.67
5.8
6.26
0.92
-4.94
-6.2
-5.34
-0.52
2.37
-0.13
2.87

> <PUBCHEM_SHAPE_SELFOVERLAP>
1505.423

> <PUBCHEM_SHAPE_VOLUME>
401.3

> <PUBCHEM_COORDINATE_TYPE>
2
5
10

$$$$

