441150
  -OEChem-07051212523D

 25 27  0     1  0  0  0  0  0999 V2000
    0.7438   -2.2405    0.1922 S   0  0  0  0  0  0  0  0  0  0  0  0
   -1.6806    1.5826    1.2435 O   0  0  0  0  0  0  0  0  0  0  0  0
   -3.8848    1.2342   -0.2514 O   0  0  0  0  0  0  0  0  0  0  0  0
   -1.4515    1.0854   -0.0777 C   0  0  1  0  0  0  0  0  0  0  0  0
   -0.3434    0.0681   -0.0340 C   0  0  0  0  0  0  0  0  0  0  0  0
   -2.7568    0.4547   -0.6344 C   0  0  1  0  0  0  0  0  0  0  0  0
    1.0732    0.3140   -0.0692 C   0  0  0  0  0  0  0  0  0  0  0  0
   -0.6495   -1.2750    0.0956 C   0  0  0  0  0  0  0  0  0  0  0  0
    1.7928   -0.8807    0.0427 C   0  0  0  0  0  0  0  0  0  0  0  0
   -2.9767   -0.9823   -0.2055 C   0  0  0  0  0  0  0  0  0  0  0  0
   -1.9675   -1.8042    0.1330 C   0  0  0  0  0  0  0  0  0  0  0  0
    1.8052    1.5222   -0.1853 C   0  0  0  0  0  0  0  0  0  0  0  0
    3.2018   -0.8973    0.0331 C   0  0  0  0  0  0  0  0  0  0  0  0
    3.2024    1.5088   -0.1948 C   0  0  0  0  0  0  0  0  0  0  0  0
    3.8916    0.3100   -0.0876 C   0  0  0  0  0  0  0  0  0  0  0  0
   -1.1703    1.9433   -0.6988 H   0  0  0  0  0  0  0  0  0  0  0  0
   -2.7188    0.4516   -1.7316 H   0  0  0  0  0  0  0  0  0  0  0  0
   -3.9901   -1.3737   -0.2282 H   0  0  0  0  0  0  0  0  0  0  0  0
   -2.1526   -2.8407    0.3928 H   0  0  0  0  0  0  0  0  0  0  0  0
    1.2834    2.4725   -0.2692 H   0  0  0  0  0  0  0  0  0  0  0  0
    3.7500   -1.8312    0.1201 H   0  0  0  0  0  0  0  0  0  0  0  0
   -2.4149    2.2179    1.1924 H   0  0  0  0  0  0  0  0  0  0  0  0
    3.7493    2.4430   -0.2861 H   0  0  0  0  0  0  0  0  0  0  0  0
   -3.7537    2.1296   -0.6074 H   0  0  0  0  0  0  0  0  0  0  0  0
    4.9782    0.3086   -0.0954 H   0  0  0  0  0  0  0  0  0  0  0  0
  1  8  1  0  0  0  0
  1  9  1  0  0  0  0
  2  4  1  0  0  0  0
  2 22  1  0  0  0  0
  3  6  1  0  0  0  0
  3 24  1  0  0  0  0
  4  5  1  0  0  0  0
  4  6  1  0  0  0  0
  4 16  1  0  0  0  0
  5  7  1  0  0  0  0
  5  8  2  0  0  0  0
  6 10  1  0  0  0  0
  6 17  1  0  0  0  0
  7  9  1  0  0  0  0
  7 12  2  0  0  0  0
  8 11  1  0  0  0  0
  9 13  2  0  0  0  0
 10 11  2  0  0  0  0
 10 18  1  0  0  0  0
 11 19  1  0  0  0  0
 12 14  1  0  0  0  0
 12 20  1  0  0  0  0
 13 15  1  0  0  0  0
 13 21  1  0  0  0  0
 14 15  2  0  0  0  0
 14 23  1  0  0  0  0
 15 25  1  0  0  0  0
M  END
> <PUBCHEM_COMPOUND_CID>
441150

> <PUBCHEM_CONFORMER_RMSD>
0.4

> <PUBCHEM_CONFORMER_DIVERSEORDER>
1
2

> <PUBCHEM_MMFF94_PARTIAL_CHARGES>
22
1 -0.08
10 -0.29
11 -0.11
12 -0.15
13 -0.15
14 -0.15
15 -0.15
18 0.15
19 0.15
2 -0.68
20 0.15
21 0.15
22 0.4
23 0.15
24 0.4
25 0.15
3 -0.68
4 0.46
5 -0.18
6 0.42
8 -0.01
9 0.04

> <PUBCHEM_EFFECTIVE_ROTOR_COUNT>
0.4

> <PUBCHEM_PHARMACOPHORE_FEATURES>
7
1 2 acceptor
1 2 donor
1 3 acceptor
1 3 donor
5 1 5 7 8 9 rings
6 4 5 6 8 10 11 rings
6 7 9 12 13 14 15 rings

> <PUBCHEM_HEAVY_ATOM_COUNT>
15

> <PUBCHEM_ATOM_DEF_STEREO_COUNT>
2

> <PUBCHEM_ATOM_UDEF_STEREO_COUNT>
0

> <PUBCHEM_BOND_DEF_STEREO_COUNT>
0

> <PUBCHEM_BOND_UDEF_STEREO_COUNT>
0

> <PUBCHEM_ISOTOPIC_ATOM_COUNT>
0

> <PUBCHEM_COMPONENT_COUNT>
1

> <PUBCHEM_CACTVS_TAUTO_COUNT>
1

> <PUBCHEM_CONFORMER_ID>
0006BB3E00000001

> <PUBCHEM_MMFF94_ENERGY>
34.0449

> <PUBCHEM_FEATURE_SELFOVERLAP>
35.657

> <PUBCHEM_SHAPE_FINGERPRINT>
10062212 137 18338530689065413602
10608611 8 18339646642022976172
10967382 1 18339926025276513758
11132069 177 18411143532470122776
11471102 20 18339931505570361647
12491281 212 18339068367652389312
13140716 1 18412827984236325186
13380535 76 18411703205100051878
13897977 150 18412831286950182999
14144814 61 18412826880540486586
14325111 11 18412546479147415868
14614273 12 18272377472758338735
14790565 3 15174715272586734359
14897335 6 18411422821018322910
15196674 1 18411983542168599670
15219456 202 18411697673150376758
15309172 13 18412536622034038778
15442244 35 18266460000136138042
15536298 74 18335422370294687782
15775835 57 18201438098983056852
16945 1 18267018534467507610
18186145 218 18411136952495829428
200 152 18114188514245538911
20510252 161 18264203608559146074
21267235 1 18411973633452610206
21501502 16 18412548695276875894
2334 1 18339921502807813350
23402539 116 18260557692742435412
23402655 69 18335988639677749429
23463225 33 18343025510264615898
23493267 7 17917435285000350835
23557571 272 18115578241019088078
23559900 14 18260832592746694832
238 59 15398833816495775381
25 1 18342461481789074287
2748010 2 18339920416112665182
3312278 4 18409166589035862475
335352 9 18268151040197653710
353137 74 18410013230074108779
5104073 3 18412546492090308370
528886 8 18412269436650807698
53812653 166 18410860966608583754
69090 78 18410862053219628375
7364860 26 18265053711753080366
8809292 202 18272366421633847938
9709674 26 18409726231896608230

> <PUBCHEM_SHAPE_MULTIPOLES>
300.8
6.06
2.14
0.73
0.69
0.47
-0.08
-1.61
0.56
-0.2
-0.17
-0.18
-0.13
-0.16

> <PUBCHEM_SHAPE_SELFOVERLAP>
655.88

> <PUBCHEM_SHAPE_VOLUME>
165.1

> <PUBCHEM_COORDINATE_TYPE>
2
5
10

$$$$

