440160
  -OEChem-07051212493D

 25 25  0     1  0  0  0  0  0999 V2000
    2.6823    0.0485    0.0690 P   0  0  0  0  0  0  0  0  0  0  0  0
   -0.2247   -1.3125   -0.7319 O   0  0  0  0  0  0  0  0  0  0  0  0
    1.1179    0.2805    0.3937 O   0  0  0  0  0  0  0  0  0  0  0  0
   -3.1605    1.3220    0.5660 O   0  0  0  0  0  0  0  0  0  0  0  0
   -0.6338    2.3282   -0.3633 O   0  0  0  0  0  0  0  0  0  0  0  0
   -3.0924   -1.2003   -0.5974 O   0  0  0  0  0  0  0  0  0  0  0  0
    2.7927   -1.5453   -0.1817 O   0  0  0  0  0  0  0  0  0  0  0  0
    3.3763    0.2465    1.5161 O   0  0  0  0  0  0  0  0  0  0  0  0
    3.2410    0.9104   -1.0253 O   0  0  0  0  0  0  0  0  0  0  0  0
   -1.9540    0.5640    0.6161 C   0  0  2  0  0  0  0  0  0  0  0  0
   -1.0495    0.9789   -0.5443 C   0  0  2  0  0  0  0  0  0  0  0  0
   -2.2723   -0.9302    0.5415 C   0  0  2  0  0  0  0  0  0  0  0  0
    0.1725    0.0588   -0.6516 C   0  0  2  0  0  0  0  0  0  0  0  0
   -0.9954   -1.7496    0.3931 C   0  0  0  0  0  0  0  0  0  0  0  0
   -1.4696    0.7914    1.5737 H   0  0  0  0  0  0  0  0  0  0  0  0
   -1.6247    0.9396   -1.4772 H   0  0  0  0  0  0  0  0  0  0  0  0
   -2.8364   -1.2491    1.4243 H   0  0  0  0  0  0  0  0  0  0  0  0
    0.6729    0.2963   -1.5976 H   0  0  0  0  0  0  0  0  0  0  0  0
   -0.3791   -1.6942    1.2975 H   0  0  0  0  0  0  0  0  0  0  0  0
   -1.2401   -2.8021    0.2160 H   0  0  0  0  0  0  0  0  0  0  0  0
   -2.9144    2.2625    0.5921 H   0  0  0  0  0  0  0  0  0  0  0  0
   -0.0845    2.3641    0.4384 H   0  0  0  0  0  0  0  0  0  0  0  0
   -3.8877   -0.6461   -0.5191 H   0  0  0  0  0  0  0  0  0  0  0  0
    3.6541   -1.9234   -0.4592 H   0  0  0  0  0  0  0  0  0  0  0  0
    4.3553    0.2467    1.5767 H   0  0  0  0  0  0  0  0  0  0  0  0
  1  3  1  0  0  0  0
  1  7  1  0  0  0  0
  1  8  1  0  0  0  0
  1  9  2  0  0  0  0
  2 13  1  0  0  0  0
  2 14  1  0  0  0  0
  3 13  1  0  0  0  0
  4 10  1  0  0  0  0
  4 21  1  0  0  0  0
  5 11  1  0  0  0  0
  5 22  1  0  0  0  0
  6 12  1  0  0  0  0
  6 23  1  0  0  0  0
  7 24  1  0  0  0  0
  8 25  1  0  0  0  0
 10 11  1  0  0  0  0
 10 12  1  0  0  0  0
 10 15  1  0  0  0  0
 11 13  1  0  0  0  0
 11 16  1  0  0  0  0
 12 14  1  0  0  0  0
 12 17  1  0  0  0  0
 13 18  1  0  0  0  0
 14 19  1  0  0  0  0
 14 20  1  0  0  0  0
M  END
> <PUBCHEM_COMPOUND_CID>
440160

> <PUBCHEM_CONFORMER_RMSD>
0.6

> <PUBCHEM_CONFORMER_DIVERSEORDER>
2
5
1
8
3
7
6
4

> <PUBCHEM_MMFF94_PARTIAL_CHARGES>
19
1 1.51
10 0.28
11 0.28
12 0.28
13 0.56
14 0.28
2 -0.56
21 0.4
22 0.4
23 0.4
24 0.5
25 0.5
3 -0.55
4 -0.68
5 -0.68
6 -0.68
7 -0.77
8 -0.77
9 -0.7

> <PUBCHEM_EFFECTIVE_ROTOR_COUNT>
3.2

> <PUBCHEM_PHARMACOPHORE_FEATURES>
12
1 2 acceptor
1 4 acceptor
1 4 donor
1 5 acceptor
1 5 donor
1 6 acceptor
1 6 donor
1 7 acceptor
1 8 acceptor
1 9 acceptor
4 1 7 8 9 anion
6 2 10 11 12 13 14 rings

> <PUBCHEM_HEAVY_ATOM_COUNT>
14

> <PUBCHEM_ATOM_DEF_STEREO_COUNT>
4

> <PUBCHEM_ATOM_UDEF_STEREO_COUNT>
0

> <PUBCHEM_BOND_DEF_STEREO_COUNT>
0

> <PUBCHEM_BOND_UDEF_STEREO_COUNT>
0

> <PUBCHEM_ISOTOPIC_ATOM_COUNT>
0

> <PUBCHEM_COMPONENT_COUNT>
1

> <PUBCHEM_CACTVS_TAUTO_COUNT>
1

> <PUBCHEM_CONFORMER_ID>
0006B76000000002

> <PUBCHEM_MMFF94_ENERGY>
-0.7802

> <PUBCHEM_FEATURE_SELFOVERLAP>
60.946

> <PUBCHEM_SHAPE_FINGERPRINT>
10857977 72 18409166575913505768
11132069 177 18409171038569259609
12382932 28 18412262822343136768
12932764 1 17603863382142439286
13024252 1 15267351725291621263
14144814 61 18342453712409383592
14325111 11 18335698364328580814
14993402 34 18340765932011826911
15076042 46 18342736372802433628
15775835 57 18336258028779713922
16945 1 18263922138030532627
18186145 218 16950275217660350810
20645464 45 17676496025246357634
20871998 184 18334847286805655711
21501502 16 18336541711280268718
23402539 116 18262530212687857183
23463225 33 18341326772999272494
23552423 10 18201717388064377110
2748010 2 18265316469436141679
3248919 1 18272091573970736970
369184 2 17168147827412655266
5084963 1 18335701701644848346
54338 74 18270685264291612793
75552 356 18340480076115739507

> <PUBCHEM_SHAPE_MULTIPOLES>
245.01
5.27
1.82
0.99
2.71
0.17
0.14
-0.02
0.75
-0.74
-0.16
0.41
0.04
-0.22

> <PUBCHEM_SHAPE_SELFOVERLAP>
476.013

> <PUBCHEM_SHAPE_VOLUME>
148.2

> <PUBCHEM_COORDINATE_TYPE>
2
5
10

$$$$

