249887
  -OEChem-07051212583D

 24 25  0     0  0  0  0  0  0999 V2000
   -0.4403    1.3777   -0.1435 O   0  0  0  0  0  0  0  0  0  0  0  0
   -2.9879   -1.8717    0.2003 O   0  0  0  0  0  0  0  0  0  0  0  0
   -2.2236    2.7796   -0.2835 O   0  0  0  0  0  0  0  0  0  0  0  0
    3.4985   -1.3763   -0.4649 N   0  0  0  0  0  0  0  0  0  0  0  0
    0.0502    0.0520   -0.0102 C   0  0  0  0  0  0  0  0  0  0  0  0
    1.5202   -0.0638    0.0093 C   0  0  0  0  0  0  0  0  0  0  0  0
   -0.7882   -0.9881    0.1048 C   0  0  0  0  0  0  0  0  0  0  0  0
   -2.2030   -0.7488    0.0812 C   0  0  0  0  0  0  0  0  0  0  0  0
    2.3183    0.9691    0.4945 C   0  0  0  0  0  0  0  0  0  0  0  0
   -2.6969    0.4875   -0.0463 C   0  0  0  0  0  0  0  0  0  0  0  0
    2.1574   -1.2057   -0.4548 C   0  0  0  0  0  0  0  0  0  0  0  0
   -1.7833    1.6407   -0.1678 C   0  0  0  0  0  0  0  0  0  0  0  0
    3.7019    0.8308    0.5005 C   0  0  0  0  0  0  0  0  0  0  0  0
    4.2377   -0.3509    0.0144 C   0  0  0  0  0  0  0  0  0  0  0  0
   -4.3609   -1.5322    0.1660 C   0  0  0  0  0  0  0  0  0  0  0  0
   -0.4461   -2.0095    0.2305 H   0  0  0  0  0  0  0  0  0  0  0  0
    1.8837    1.8880    0.8794 H   0  0  0  0  0  0  0  0  0  0  0  0
   -3.7453    0.7565   -0.0723 H   0  0  0  0  0  0  0  0  0  0  0  0
    1.6108   -2.0502   -0.8635 H   0  0  0  0  0  0  0  0  0  0  0  0
    4.3408    1.6222    0.8754 H   0  0  0  0  0  0  0  0  0  0  0  0
    5.3112   -0.5084   -0.0021 H   0  0  0  0  0  0  0  0  0  0  0  0
   -4.6616   -0.9135    1.0201 H   0  0  0  0  0  0  0  0  0  0  0  0
   -4.9211   -2.4692    0.2643 H   0  0  0  0  0  0  0  0  0  0  0  0
   -4.6633   -1.1030   -0.7968 H   0  0  0  0  0  0  0  0  0  0  0  0
  1  5  1  0  0  0  0
  1 12  1  0  0  0  0
  2  8  1  0  0  0  0
  2 15  1  0  0  0  0
  3 12  2  0  0  0  0
  4 11  1  0  0  0  0
  4 14  2  0  0  0  0
  5  6  1  0  0  0  0
  5  7  2  0  0  0  0
  6  9  1  0  0  0  0
  6 11  2  0  0  0  0
  7  8  1  0  0  0  0
  7 16  1  0  0  0  0
  8 10  2  0  0  0  0
  9 13  2  0  0  0  0
  9 17  1  0  0  0  0
 10 12  1  0  0  0  0
 10 18  1  0  0  0  0
 11 19  1  0  0  0  0
 13 14  1  0  0  0  0
 13 20  1  0  0  0  0
 14 21  1  0  0  0  0
 15 22  1  0  0  0  0
 15 23  1  0  0  0  0
 15 24  1  0  0  0  0
M  END
> <PUBCHEM_COMPOUND_CID>
249887

> <PUBCHEM_CONFORMER_RMSD>
0.6

> <PUBCHEM_CONFORMER_DIVERSEORDER>
1
2

> <PUBCHEM_MMFF94_PARTIAL_CHARGES>
21
1 -0.23
10 -0.14
11 0.16
12 0.71
13 -0.15
14 0.16
15 0.28
16 0.15
17 0.15
18 0.15
19 0.15
2 -0.36
20 0.15
21 0.15
3 -0.57
4 -0.62
5 0.05
6 0.03
7 -0.15
8 0.08
9 -0.15

> <PUBCHEM_EFFECTIVE_ROTOR_COUNT>
2

> <PUBCHEM_PHARMACOPHORE_FEATURES>
5
1 2 acceptor
1 3 acceptor
1 4 acceptor
6 1 5 7 8 10 12 rings
6 4 6 9 11 13 14 rings

> <PUBCHEM_HEAVY_ATOM_COUNT>
15

> <PUBCHEM_ATOM_DEF_STEREO_COUNT>
0

> <PUBCHEM_ATOM_UDEF_STEREO_COUNT>
0

> <PUBCHEM_BOND_DEF_STEREO_COUNT>
0

> <PUBCHEM_BOND_UDEF_STEREO_COUNT>
0

> <PUBCHEM_ISOTOPIC_ATOM_COUNT>
0

> <PUBCHEM_COMPONENT_COUNT>
1

> <PUBCHEM_CACTVS_TAUTO_COUNT>
1

> <PUBCHEM_CONFORMER_ID>
0003D01F00000001

> <PUBCHEM_MMFF94_ENERGY>
51.4676

> <PUBCHEM_FEATURE_SELFOVERLAP>
25.371

> <PUBCHEM_SHAPE_FINGERPRINT>
10608611 8 18335989739611480488
10618630 7 18340767048687668255
10922523 26 18261110811542070374
11543360 7 14620513355329323507
12032990 46 18340484465778297739
12500047 106 18197501941961229764
12932764 1 17560524031210645972
13296908 3 18407759257207496630
14115302 16 17417525796472053731
14144814 61 18410013260376263146
14252887 29 18337381626568775011
14325111 11 18409450323355274800
15219456 202 18260832617925654816
15309172 13 16805321089259125758
15375462 6 18409166571887524918
16945 1 18340199704771544124
17834074 16 18335420188061060710
17844478 74 18408602539333287163
18186145 218 18114455773223313026
19141452 34 18115021906022443951
1986462 14 18341048605347729518
200 152 17603595118653702447
20510252 161 18408041818642154497
20645477 56 18268708479645009669
20645477 70 17313951968929085870
20871998 184 18260829302210987191
20871998 22 18338793399830765163
21267235 1 18411128113348009234
21501502 16 18412261778892878432
221490 88 18335697274071889734
22182937 141 18116427240342916321
22943178 12 18261396693244877822
2306618 200 18188204402996368385
23402539 116 18335991878658174919
23557571 272 18335128804431144708
23559900 14 18118970437124729606
2748010 2 18334580178409978708
2871803 45 18412831273986594919
43471831 8 18201726192462913587
474 4 16629104457410992780
5104073 3 18335424603651237386
573450 72 18130238163181216194
6049 1 18187355571566751860
6333449 129 18410295856081053093
69090 78 18261398883525296047
7364860 26 18194680363444393044
81228 2 18272643554709637785
8809292 202 18411414050901040746
9709674 26 18261955274905712862

> <PUBCHEM_SHAPE_MULTIPOLES>
286.1
7.66
2.09
0.67
1.55
0.89
0.01
-2.45
0.42
-1.7
-0.17
0.14
0
0.7

> <PUBCHEM_SHAPE_SELFOVERLAP>
616.037

> <PUBCHEM_SHAPE_VOLUME>
156.3

> <PUBCHEM_COORDINATE_TYPE>
2
5
10

$$$$

