53297354
  -OEChem-07051212583D

 47 50  0     1  0  0  0  0  0999 V2000
   -3.8678    1.4937   -1.0828 O   0  0  0  0  0  0  0  0  0  0  0  0
   -5.1825   -1.2292   -0.6707 O   0  0  0  0  0  0  0  0  0  0  0  0
   -0.6980   -0.8833    1.8632 O   0  0  0  0  0  0  0  0  0  0  0  0
    0.1570    0.8649    0.5753 O   0  0  0  0  0  0  0  0  0  0  0  0
   -1.2224    3.1110   -0.8186 O   0  0  0  0  0  0  0  0  0  0  0  0
    1.5988   -0.6608   -0.4430 O   0  0  0  0  0  0  0  0  0  0  0  0
    2.3898    2.1857    1.7068 O   0  0  0  0  0  0  0  0  0  0  0  0
    4.8166    1.8385    0.0728 O   0  0  0  0  0  0  0  0  0  0  0  0
    5.2482   -0.9583   -0.5171 O   0  0  0  0  0  0  0  0  0  0  0  0
    1.8023   -3.2765   -1.2934 O   0  0  0  0  0  0  0  0  0  0  0  0
   -2.5156    1.1024   -0.8067 C   0  0  2  0  0  0  0  0  0  0  0  0
   -3.4537    0.1892   -1.5080 C   0  0  1  0  0  0  0  0  0  0  0  0
   -2.2543    0.5705    0.5805 C   0  0  1  0  0  0  0  0  0  0  0  0
   -3.4065   -0.4431    0.8192 C   0  0  1  0  0  0  0  0  0  0  0  0
   -3.7948   -0.9462   -0.5923 C   0  0  1  0  0  0  0  0  0  0  0  0
   -0.8794   -0.1147    0.6667 C   0  0  2  0  0  0  0  0  0  0  0  0
   -1.5203    1.9122   -1.5418 C   0  0  0  0  0  0  0  0  0  0  0  0
   -3.0130   -1.5432    1.7497 C   0  0  0  0  0  0  0  0  0  0  0  0
   -1.7644   -1.6638    2.2117 C   0  0  0  0  0  0  0  0  0  0  0  0
    1.4487    0.2607    0.6344 C   0  0  1  0  0  0  0  0  0  0  0  0
    2.4933    1.3725    0.5383 C   0  0  2  0  0  0  0  0  0  0  0  0
    3.9076    0.8002    0.4420 C   0  0  1  0  0  0  0  0  0  0  0  0
    2.8658   -1.3206   -0.4274 C   0  0  2  0  0  0  0  0  0  0  0  0
    3.9890   -0.2986   -0.6178 C   0  0  2  0  0  0  0  0  0  0  0  0
    2.8554   -2.3630   -1.5410 C   0  0  0  0  0  0  0  0  0  0  0  0
   -3.3568   -0.0348   -2.5569 H   0  0  0  0  0  0  0  0  0  0  0  0
   -2.3103    1.3818    1.3172 H   0  0  0  0  0  0  0  0  0  0  0  0
   -4.2605    0.0889    1.2613 H   0  0  0  0  0  0  0  0  0  0  0  0
   -3.2314   -1.8437   -0.8732 H   0  0  0  0  0  0  0  0  0  0  0  0
   -0.7807   -0.8025   -0.1854 H   0  0  0  0  0  0  0  0  0  0  0  0
   -1.9068    2.2147   -2.5222 H   0  0  0  0  0  0  0  0  0  0  0  0
   -0.5931    1.3611   -1.7230 H   0  0  0  0  0  0  0  0  0  0  0  0
   -3.7816   -2.2266    2.0971 H   0  0  0  0  0  0  0  0  0  0  0  0
   -5.3718   -1.5129   -1.5814 H   0  0  0  0  0  0  0  0  0  0  0  0
   -1.4758   -2.4006    2.9480 H   0  0  0  0  0  0  0  0  0  0  0  0
    1.5609   -0.2610    1.5939 H   0  0  0  0  0  0  0  0  0  0  0  0
   -0.5634    3.5996   -1.3407 H   0  0  0  0  0  0  0  0  0  0  0  0
    2.2824    2.0228   -0.3190 H   0  0  0  0  0  0  0  0  0  0  0  0
    4.2475    0.4293    1.4161 H   0  0  0  0  0  0  0  0  0  0  0  0
    2.9718   -1.8487    0.5302 H   0  0  0  0  0  0  0  0  0  0  0  0
    3.9331    0.1488   -1.6178 H   0  0  0  0  0  0  0  0  0  0  0  0
    3.7977   -2.9176   -1.5812 H   0  0  0  0  0  0  0  0  0  0  0  0
    2.6690   -1.8939   -2.5128 H   0  0  0  0  0  0  0  0  0  0  0  0
    2.5761    1.6271    2.4808 H   0  0  0  0  0  0  0  0  0  0  0  0
    4.5303    2.2010   -0.7828 H   0  0  0  0  0  0  0  0  0  0  0  0
    5.3020   -1.3704    0.3621 H   0  0  0  0  0  0  0  0  0  0  0  0
    1.8109   -3.9272   -2.0158 H   0  0  0  0  0  0  0  0  0  0  0  0
  1 11  1  0  0  0  0
  1 12  1  0  0  0  0
  2 15  1  0  0  0  0
  2 34  1  0  0  0  0
  3 16  1  0  0  0  0
  3 19  1  0  0  0  0
  4 16  1  0  0  0  0
  4 20  1  0  0  0  0
  5 17  1  0  0  0  0
  5 37  1  0  0  0  0
  6 20  1  0  0  0  0
  6 23  1  0  0  0  0
  7 21  1  0  0  0  0
  7 44  1  0  0  0  0
  8 22  1  0  0  0  0
  8 45  1  0  0  0  0
  9 24  1  0  0  0  0
  9 46  1  0  0  0  0
 10 25  1  0  0  0  0
 10 47  1  0  0  0  0
 11 12  1  0  0  0  0
 11 13  1  0  0  0  0
 11 17  1  0  0  0  0
 12 15  1  0  0  0  0
 12 26  1  0  0  0  0
 13 14  1  0  0  0  0
 13 16  1  0  0  0  0
 13 27  1  0  0  0  0
 14 15  1  0  0  0  0
 14 18  1  0  0  0  0
 14 28  1  0  0  0  0
 15 29  1  0  0  0  0
 16 30  1  0  0  0  0
 17 31  1  0  0  0  0
 17 32  1  0  0  0  0
 18 19  2  0  0  0  0
 18 33  1  0  0  0  0
 19 35  1  0  0  0  0
 20 21  1  0  0  0  0
 20 36  1  0  0  0  0
 21 22  1  0  0  0  0
 21 38  1  0  0  0  0
 22 24  1  0  0  0  0
 22 39  1  0  0  0  0
 23 24  1  0  0  0  0
 23 25  1  0  0  0  0
 23 40  1  0  0  0  0
 24 41  1  0  0  0  0
 25 42  1  0  0  0  0
 25 43  1  0  0  0  0
M  END
> <PUBCHEM_COMPOUND_CID>
53297354

> <PUBCHEM_CONFORMER_RMSD>
0.8

> <PUBCHEM_CONFORMER_DIVERSEORDER>
1
28
7
15
32
29
33
13
35
2
9
24
30
31
3
37
8
36
39
23
34
10
4
21
18
16
12
11
5
38
20
25
6
19
26
17
14
27
22

> <PUBCHEM_MMFF94_PARTIAL_CHARGES>
34
1 -0.3
10 -0.68
11 -0.04
12 -0.05
13 0.09
14 0.14
15 0.38
16 0.56
17 0.38
18 -0.29
19 -0.07
2 -0.68
20 0.56
21 0.28
22 0.28
23 0.28
24 0.28
25 0.28
26 0.1
3 -0.36
33 0.15
34 0.4
35 0.15
37 0.4
4 -0.56
44 0.4
45 0.4
46 0.4
47 0.4
5 -0.68
6 -0.56
7 -0.68
8 -0.68
9 -0.68

> <PUBCHEM_EFFECTIVE_ROTOR_COUNT>
6

> <PUBCHEM_PHARMACOPHORE_FEATURES>
19
1 1 acceptor
1 10 acceptor
1 10 donor
1 2 acceptor
1 2 donor
1 3 acceptor
1 4 acceptor
1 5 acceptor
1 5 donor
1 6 acceptor
1 7 acceptor
1 7 donor
1 8 acceptor
1 8 donor
1 9 acceptor
1 9 donor
6 1 11 12 13 14 15 rings
6 3 13 14 16 18 19 rings
6 6 20 21 22 23 24 rings

> <PUBCHEM_HEAVY_ATOM_COUNT>
25

> <PUBCHEM_ATOM_DEF_STEREO_COUNT>
11

> <PUBCHEM_ATOM_UDEF_STEREO_COUNT>
0

> <PUBCHEM_BOND_DEF_STEREO_COUNT>
0

> <PUBCHEM_BOND_UDEF_STEREO_COUNT>
0

> <PUBCHEM_ISOTOPIC_ATOM_COUNT>
0

> <PUBCHEM_COMPONENT_COUNT>
1

> <PUBCHEM_CACTVS_TAUTO_COUNT>
1

> <PUBCHEM_CONFORMER_ID>
032D40CA00000001

> <PUBCHEM_MMFF94_ENERGY>
69.6215

> <PUBCHEM_FEATURE_SELFOVERLAP>
96.561

> <PUBCHEM_SHAPE_FINGERPRINT>
10366900 7 18413103966023846910
10498660 4 17703519873352300533
10764073 3 16824411051228246217
11582403 64 17115580163599073241
12236239 1 16298378037574098681
12596602 18 16226051046002325298
12714826 92 16916490472713937049
13224815 77 18407758131815262776
13402501 40 18413108351000690382
13911987 19 18116705211006147104
14251757 17 18271238443142013426
15238133 3 10735333089281562358
15635459 17 18409445890659160834
15961568 22 17631730440388806292
16752209 62 17274831254918294721
17357779 13 18342458114640417005
19930381 70 17896894153152384345
200 152 17748826310630869874
20465049 17 17258214601944722053
20600515 1 17489317334276102884
20645477 70 18261108582744382186
21285901 2 18341901787863864917
23402539 116 18060709398109879980
23526113 38 18266176313225045818
23557571 272 18059845169090658269
23559900 14 18131635603958342304
238 59 18334298669184552722
2838139 119 12750702629267676639
469060 322 18047771307331270358
5895379 119 17346023576402347828
7399639 24 18189635863872193216
9709674 26 18341890826901739686

> <PUBCHEM_SHAPE_MULTIPOLES>
455.8
9.44
2.69
1.78
3.81
0.09
0.35
-0.91
-2.08
0.7
-0.65
-0.73
-0.58
2.63

> <PUBCHEM_SHAPE_SELFOVERLAP>
972.693

> <PUBCHEM_SHAPE_VOLUME>
250.2

> <PUBCHEM_COORDINATE_TYPE>
2
5
10

$$$$

