17396398
  -OEChem-06241222563D

 46 48  0     1  0  0  0  0  0999 V2000
    1.3207   -0.0914    2.5628 S   0  0  0  0  0  0  0  0  0  0  0  0
   -3.2499    1.6814    1.0907 S   0  0  0  0  0  0  0  0  0  0  0  0
    3.3231    0.8348    0.3239 O   0  0  0  0  0  0  0  0  0  0  0  0
    1.4604    1.9719   -0.4655 N   0  0  0  0  0  0  0  0  0  0  0  0
   -0.9233   -0.0071    1.2012 N   0  0  0  0  0  0  0  0  0  0  0  0
   -1.6466   -1.5409   -0.5107 N   0  0  0  0  0  0  0  0  0  0  0  0
    1.8143    1.9325   -1.8652 C   0  0  0  0  0  0  0  0  0  0  0  0
    2.0028    0.4744   -2.2994 C   0  0  0  0  0  0  0  0  0  0  0  0
    3.1189    2.7086   -2.0739 C   0  0  0  0  0  0  0  0  0  0  0  0
    0.6918    2.5730   -2.6899 C   0  0  0  0  0  0  0  0  0  0  0  0
    1.6537    1.5678    1.9128 C   0  0  2  0  0  0  0  0  0  0  0  0
    2.2560    1.4118    0.5241 C   0  0  0  0  0  0  0  0  0  0  0  0
    2.5933    2.3099    2.8542 C   0  0  0  0  0  0  0  0  0  0  0  0
    0.2000   -0.7394    1.3210 C   0  0  0  0  0  0  0  0  0  0  0  0
    0.4699   -1.8771    0.5656 C   0  0  0  0  0  0  0  0  0  0  0  0
   -0.5133   -2.2497   -0.3654 C   0  0  0  0  0  0  0  0  0  0  0  0
    1.6510   -2.6258    0.7089 C   0  0  0  0  0  0  0  0  0  0  0  0
   -1.7900   -0.4583    0.2803 C   0  0  0  0  0  0  0  0  0  0  0  0
   -0.2788   -3.3832   -1.1399 C   0  0  0  0  0  0  0  0  0  0  0  0
    1.8594   -3.7541   -0.0780 C   0  0  0  0  0  0  0  0  0  0  0  0
   -3.0011    0.2939    0.1184 C   0  0  0  0  0  0  0  0  0  0  0  0
    0.8932   -4.1330   -1.0034 C   0  0  0  0  0  0  0  0  0  0  0  0
   -4.0548    0.0682   -0.7396 C   0  0  0  0  0  0  0  0  0  0  0  0
   -5.0799    1.0476   -0.5973 C   0  0  0  0  0  0  0  0  0  0  0  0
   -4.7706    1.9842    0.3643 C   0  0  0  0  0  0  0  0  0  0  0  0
    0.5967    2.4377   -0.2025 H   0  0  0  0  0  0  0  0  0  0  0  0
    2.8626   -0.0147   -1.8338 H   0  0  0  0  0  0  0  0  0  0  0  0
    1.1148   -0.1235   -2.0660 H   0  0  0  0  0  0  0  0  0  0  0  0
    2.1615    0.4132   -3.3827 H   0  0  0  0  0  0  0  0  0  0  0  0
    3.9763    2.2468   -1.5750 H   0  0  0  0  0  0  0  0  0  0  0  0
    3.0330    3.7332   -1.6930 H   0  0  0  0  0  0  0  0  0  0  0  0
    3.3676    2.7716   -3.1398 H   0  0  0  0  0  0  0  0  0  0  0  0
   -0.2563    2.0415   -2.5454 H   0  0  0  0  0  0  0  0  0  0  0  0
    0.5281    3.6154   -2.3926 H   0  0  0  0  0  0  0  0  0  0  0  0
    0.9246    2.5613   -3.7603 H   0  0  0  0  0  0  0  0  0  0  0  0
    0.7089    2.1200    1.8687 H   0  0  0  0  0  0  0  0  0  0  0  0
    3.5577    1.7994    2.9595 H   0  0  0  0  0  0  0  0  0  0  0  0
    2.8048    3.3115    2.4626 H   0  0  0  0  0  0  0  0  0  0  0  0
    2.1528    2.4293    3.8501 H   0  0  0  0  0  0  0  0  0  0  0  0
    2.4280   -2.3600    1.4194 H   0  0  0  0  0  0  0  0  0  0  0  0
   -1.0192   -3.7007   -1.8717 H   0  0  0  0  0  0  0  0  0  0  0  0
    2.7705   -4.3348    0.0290 H   0  0  0  0  0  0  0  0  0  0  0  0
    1.0481   -5.0122   -1.6219 H   0  0  0  0  0  0  0  0  0  0  0  0
   -4.1034   -0.7549   -1.4418 H   0  0  0  0  0  0  0  0  0  0  0  0
   -5.9974    1.0642   -1.1710 H   0  0  0  0  0  0  0  0  0  0  0  0
   -5.3649    2.8319    0.6749 H   0  0  0  0  0  0  0  0  0  0  0  0
  1 11  1  0  0  0  0
  1 14  1  0  0  0  0
  2 21  1  0  0  0  0
  2 25  1  0  0  0  0
  3 12  2  0  0  0  0
  4  7  1  0  0  0  0
  4 12  1  0  0  0  0
  4 26  1  0  0  0  0
  5 14  2  0  0  0  0
  5 18  1  0  0  0  0
  6 16  1  0  0  0  0
  6 18  2  0  0  0  0
  7  8  1  0  0  0  0
  7  9  1  0  0  0  0
  7 10  1  0  0  0  0
  8 27  1  0  0  0  0
  8 28  1  0  0  0  0
  8 29  1  0  0  0  0
  9 30  1  0  0  0  0
  9 31  1  0  0  0  0
  9 32  1  0  0  0  0
 10 33  1  0  0  0  0
 10 34  1  0  0  0  0
 10 35  1  0  0  0  0
 11 12  1  0  0  0  0
 11 13  1  0  0  0  0
 11 36  1  0  0  0  0
 13 37  1  0  0  0  0
 13 38  1  0  0  0  0
 13 39  1  0  0  0  0
 14 15  1  0  0  0  0
 15 16  1  0  0  0  0
 15 17  2  0  0  0  0
 16 19  2  0  0  0  0
 17 20  1  0  0  0  0
 17 40  1  0  0  0  0
 18 21  1  0  0  0  0
 19 22  1  0  0  0  0
 19 41  1  0  0  0  0
 20 22  2  0  0  0  0
 20 42  1  0  0  0  0
 21 23  2  0  0  0  0
 22 43  1  0  0  0  0
 23 24  1  0  0  0  0
 23 44  1  0  0  0  0
 24 25  2  0  0  0  0
 24 45  1  0  0  0  0
 25 46  1  0  0  0  0
M  END
> <PUBCHEM_COMPOUND_CID>
17396398

> <PUBCHEM_CONFORMER_RMSD>
0.8

> <PUBCHEM_CONFORMER_DIVERSEORDER>
1
27
64
61
63
34
68
154
40
41
112
97
33
152
141
5
71
163
138
130
24
126
129
156
161
110
52
116
153
107
146
37
77
108
32
159
157
48
80
50
10
118
84
133
117
79
49
70
94
150
35
164
119
102
3
65
83
140
103
135
136
124
39
93
58
165
73
95
76
11
158
113
30
23
89
99
131
111
92
17
155
122
28
4
55
106
160
59
123
104
18
9
62
87
75
13
12
98
42
151
31
120
85
16
128
15
115
43
78
20
134
147
26
29
14
114
100
53
81
72
86
51
56
101
69
25
105
142
60
88
139
121
144
67
137
143
66
162
132
54
149
22
45
96
127
125
36
91
148
90
46
21
109
38
6
47
44
2
7
8
19
74
145
57
82

> <PUBCHEM_MMFF94_PARTIAL_CHARGES>
28
1 -0.33
11 0.29
12 0.57
14 0.41
16 0.31
17 -0.15
18 0.67
19 -0.15
2 -0.08
20 -0.15
21 -0.01
22 -0.15
23 -0.15
24 -0.15
25 -0.11
26 0.37
3 -0.57
4 -0.73
40 0.15
41 0.15
42 0.15
43 0.15
44 0.15
45 0.15
46 0.15
5 -0.62
6 -0.62
7 0.3

> <PUBCHEM_EFFECTIVE_ROTOR_COUNT>
6

> <PUBCHEM_PHARMACOPHORE_FEATURES>
9
1 13 hydrophobe
1 3 acceptor
1 4 donor
1 5 acceptor
3 5 6 18 cation
4 7 8 9 10 hydrophobe
5 2 21 23 24 25 rings
6 15 16 17 19 20 22 rings
6 5 6 14 15 16 18 rings

> <PUBCHEM_HEAVY_ATOM_COUNT>
25

> <PUBCHEM_ATOM_DEF_STEREO_COUNT>
0

> <PUBCHEM_ATOM_UDEF_STEREO_COUNT>
1

> <PUBCHEM_BOND_DEF_STEREO_COUNT>
0

> <PUBCHEM_BOND_UDEF_STEREO_COUNT>
0

> <PUBCHEM_ISOTOPIC_ATOM_COUNT>
0

> <PUBCHEM_COMPONENT_COUNT>
1

> <PUBCHEM_CACTVS_TAUTO_COUNT>
2

> <PUBCHEM_CONFORMER_ID>
010972AE00000001

> <PUBCHEM_MMFF94_ENERGY>
62.9905

> <PUBCHEM_FEATURE_SELFOVERLAP>
45.7

> <PUBCHEM_SHAPE_FINGERPRINT>
11045515 52 17547562038844250751
11578080 2 16526060297028306720
11582403 64 16011888141232177240
11640471 11 17628088797119769356
12160290 23 17758949325426046835
12422481 6 17911266075965805760
12539773 59 17340684102871569285
12788726 201 17549255935238106239
13009979 54 17047421215192820898
133893 2 18124849482236520833
13681431 1 18051392265588817547
13965767 371 18125475031011454800
14004458 79 17398965872501423555
14181834 199 18191019217082508347
16752209 62 17979077089603795191
17357779 13 17546747296601445541
17980427 26 17534379762295317352
1813 80 17764017365634711899
18336668 15 17976254960840021434
21860390 5 17703796954724900653
23419403 2 17616002196745148810
23557571 272 17177990419455358800
23559900 14 18199748214906242627
25222932 49 16882493539266301597
474 4 18131351916968115497
550186 7 17248661559654545168
6287921 2 18338524165653221237
6443956 14 17754747352845978451
81228 2 17252009542195469931

> <PUBCHEM_SHAPE_MULTIPOLES>
501.37
6.52
4.72
2.63
11.19
4.02
0.11
-4.45
-0.3
-4.21
-1.87
-2.57
-2.46
-0.59

> <PUBCHEM_SHAPE_SELFOVERLAP>
1050.138

> <PUBCHEM_SHAPE_VOLUME>
286.7

> <PUBCHEM_COORDINATE_TYPE>
2
5
10

$$$$

