12634
  -OEChem-06261207113D

 37 37  0     0  0  0  0  0  0999 V2000
   -0.0802   -0.0185    0.9425 O   0  0  0  0  0  0  0  0  0  0  0  0
    3.4764    0.0011   -0.1870 N   0  3  0  0  0  0  0  0  0  0  0  0
    2.3157   -0.0303    0.7967 C   0  0  0  0  0  0  0  0  0  0  0  0
    3.3710    1.2456   -1.0567 C   0  0  0  0  0  0  0  0  0  0  0  0
    4.7907    0.0280    0.5800 C   0  0  0  0  0  0  0  0  0  0  0  0
    3.4287   -1.2389   -1.0681 C   0  0  0  0  0  0  0  0  0  0  0  0
    1.0086   -0.0257    0.0288 C   0  0  0  0  0  0  0  0  0  0  0  0
   -1.3399   -0.0053    0.4028 C   0  0  0  0  0  0  0  0  0  0  0  0
   -1.9864   -1.2064    0.1269 C   0  0  0  0  0  0  0  0  0  0  0  0
   -1.9635    1.2095    0.1340 C   0  0  0  0  0  0  0  0  0  0  0  0
   -3.2681   -1.1928   -0.4232 C   0  0  0  0  0  0  0  0  0  0  0  0
   -3.2454    1.2231   -0.4159 C   0  0  0  0  0  0  0  0  0  0  0  0
   -1.3289   -2.5170    0.4096 C   0  0  0  0  0  0  0  0  0  0  0  0
   -1.2813    2.5057    0.4240 C   0  0  0  0  0  0  0  0  0  0  0  0
   -3.8975    0.0219   -0.6945 C   0  0  0  0  0  0  0  0  0  0  0  0
    2.4116   -0.9276    1.4197 H   0  0  0  0  0  0  0  0  0  0  0  0
    2.3945    0.8455    1.4522 H   0  0  0  0  0  0  0  0  0  0  0  0
    3.2022    2.1135   -0.4125 H   0  0  0  0  0  0  0  0  0  0  0  0
    4.3179    1.3615   -1.5943 H   0  0  0  0  0  0  0  0  0  0  0  0
    2.5713    1.1291   -1.7922 H   0  0  0  0  0  0  0  0  0  0  0  0
    4.8455   -0.8707    1.2015 H   0  0  0  0  0  0  0  0  0  0  0  0
    5.6160    0.0457   -0.1380 H   0  0  0  0  0  0  0  0  0  0  0  0
    4.8082    0.9272    1.2029 H   0  0  0  0  0  0  0  0  0  0  0  0
    3.3291   -2.1212   -0.4290 H   0  0  0  0  0  0  0  0  0  0  0  0
    2.6027   -1.1671   -1.7798 H   0  0  0  0  0  0  0  0  0  0  0  0
    4.3675   -1.2898   -1.6292 H   0  0  0  0  0  0  0  0  0  0  0  0
    0.9094    0.8594   -0.6038 H   0  0  0  0  0  0  0  0  0  0  0  0
    0.9088   -0.9141   -0.6002 H   0  0  0  0  0  0  0  0  0  0  0  0
   -3.7878   -2.1204   -0.6479 H   0  0  0  0  0  0  0  0  0  0  0  0
   -3.7477    2.1617   -0.6352 H   0  0  0  0  0  0  0  0  0  0  0  0
   -2.0675   -3.3210    0.5022 H   0  0  0  0  0  0  0  0  0  0  0  0
   -0.6413   -2.7793   -0.4003 H   0  0  0  0  0  0  0  0  0  0  0  0
   -0.7766   -2.4896    1.3548 H   0  0  0  0  0  0  0  0  0  0  0  0
   -0.5896    2.7601   -0.3849 H   0  0  0  0  0  0  0  0  0  0  0  0
   -2.0047    3.3228    0.5222 H   0  0  0  0  0  0  0  0  0  0  0  0
   -0.7289    2.4622    1.3685 H   0  0  0  0  0  0  0  0  0  0  0  0
   -4.8951    0.0327   -1.1238 H   0  0  0  0  0  0  0  0  0  0  0  0
  1  7  1  0  0  0  0
  1  8  1  0  0  0  0
  2  3  1  0  0  0  0
  2  4  1  0  0  0  0
  2  5  1  0  0  0  0
  2  6  1  0  0  0  0
  3  7  1  0  0  0  0
  3 16  1  0  0  0  0
  3 17  1  0  0  0  0
  4 18  1  0  0  0  0
  4 19  1  0  0  0  0
  4 20  1  0  0  0  0
  5 21  1  0  0  0  0
  5 22  1  0  0  0  0
  5 23  1  0  0  0  0
  6 24  1  0  0  0  0
  6 25  1  0  0  0  0
  6 26  1  0  0  0  0
  7 27  1  0  0  0  0
  7 28  1  0  0  0  0
  8  9  2  0  0  0  0
  8 10  1  0  0  0  0
  9 11  1  0  0  0  0
  9 13  1  0  0  0  0
 10 12  2  0  0  0  0
 10 14  1  0  0  0  0
 11 15  2  0  0  0  0
 11 29  1  0  0  0  0
 12 15  1  0  0  0  0
 12 30  1  0  0  0  0
 13 31  1  0  0  0  0
 13 32  1  0  0  0  0
 13 33  1  0  0  0  0
 14 34  1  0  0  0  0
 14 35  1  0  0  0  0
 14 36  1  0  0  0  0
 15 37  1  0  0  0  0
M  CHG  1   2   1
M  END
> <PUBCHEM_COMPOUND_CID>
12634

> <PUBCHEM_CONFORMER_RMSD>
0.6

> <PUBCHEM_CONFORMER_DIVERSEORDER>
1
6
4
7
3
2
5

> <PUBCHEM_MMFF94_PARTIAL_CHARGES>
18
1 -0.36
10 -0.14
11 -0.15
12 -0.15
13 0.14
14 0.14
15 -0.15
2 -1.01
29 0.15
3 0.5
30 0.15
37 0.15
4 0.5
5 0.5
6 0.5
7 0.28
8 0.08
9 -0.14

> <PUBCHEM_EFFECTIVE_ROTOR_COUNT>
4

> <PUBCHEM_PHARMACOPHORE_FEATURES>
3
1 1 acceptor
1 2 cation
6 8 9 10 11 12 15 rings

> <PUBCHEM_HEAVY_ATOM_COUNT>
15

> <PUBCHEM_ATOM_DEF_STEREO_COUNT>
0

> <PUBCHEM_ATOM_UDEF_STEREO_COUNT>
0

> <PUBCHEM_BOND_DEF_STEREO_COUNT>
0

> <PUBCHEM_BOND_UDEF_STEREO_COUNT>
0

> <PUBCHEM_ISOTOPIC_ATOM_COUNT>
0

> <PUBCHEM_COMPONENT_COUNT>
1

> <PUBCHEM_CACTVS_TAUTO_COUNT>
1

> <PUBCHEM_CONFORMER_ID>
0000315A00000001

> <PUBCHEM_MMFF94_ENERGY>
57.9536

> <PUBCHEM_FEATURE_SELFOVERLAP>
15.223

> <PUBCHEM_SHAPE_FINGERPRINT>
12162725 195 18343861113321398468
12173636 292 18338802328798917397
13024252 1 11384115241768228787
15375358 24 18186525384537771002
15775835 57 17632299003198915293
17870717 6 18187631544695800462
18186145 218 18339640165138187470
187816 3 18410301306853266767
200 152 18341900670850555668
20279233 1 17894631439979448930
20300324 65 18408325475367318593
20510252 161 18334294301060232369
20645476 183 17917720093119986051
20645477 56 18411417327839833280
20645477 70 17095519647708010582
20871999 31 18410863122961760863
23402539 116 18337402598740678253
23557571 272 18186800296983989984
23559900 14 18261398883920960930
2748010 2 17907313056954855027
2838139 119 16342603776115676813
4028521 119 18341899622952577037
4175511 318 18060144253797305743
474 4 16987712395028639012
573450 72 18270977824674035906
93112 12 18411974776309108222
9709674 26 18334289877402465222
9971528 1 17846222176939896900

> <PUBCHEM_SHAPE_MULTIPOLES>
297.84
8.27
2.09
0.97
6.99
0
0.09
0
1.62
-1.4
-0.1
0.49
0
0.01

> <PUBCHEM_SHAPE_SELFOVERLAP>
594.607

> <PUBCHEM_SHAPE_VOLUME>
180.7

> <PUBCHEM_COORDINATE_TYPE>
2
5
10

$$$$

