5460202
  -OEChem-07051212502D

 39 39  0     0  0  0  0  0  0999 V2000
    7.4040    3.6200    0.0000 Br  0  5  0  0  0  0  0  0  0  0  0  0
    4.0010    7.1200    0.0000 O   0  0  0  0  0  0  0  0  0  0  0  0
    1.4030    3.6200    0.0000 N   0  3  0  0  0  0  0  0  0  0  0  0
    3.1350    0.6200    0.0000 N   0  0  0  0  0  0  0  0  0  0  0  0
    4.0010    2.1200    0.0000 N   0  0  0  0  0  0  0  0  0  0  0  0
    1.4030    0.6200    0.0000 N   0  0  0  0  0  0  0  0  0  0  0  0
    2.2690    4.1200    0.0000 C   0  0  0  0  0  0  0  0  0  0  0  0
    2.2690    5.1200    0.0000 C   0  0  0  0  0  0  0  0  0  0  0  0
    1.4030    2.6200    0.0000 C   0  0  0  0  0  0  0  0  0  0  0  0
    3.1350    5.6200    0.0000 C   0  0  0  0  0  0  0  0  0  0  0  0
    0.5369    4.1200    0.0000 C   0  0  0  0  0  0  0  0  0  0  0  0
    2.2690    2.1200    0.0000 C   0  0  0  0  0  0  0  0  0  0  0  0
    1.4030    5.6200    0.0000 C   0  0  0  0  0  0  0  0  0  0  0  0
    3.1350    3.6200    0.0000 C   0  0  0  0  0  0  0  0  0  0  0  0
    0.5369    5.1200    0.0000 C   0  0  0  0  0  0  0  0  0  0  0  0
    3.1350    6.6200    0.0000 C   0  0  0  0  0  0  0  0  0  0  0  0
    2.2690    1.1200    0.0000 C   0  0  0  0  0  0  0  0  0  0  0  0
    3.1350    2.6200    0.0000 C   0  0  0  0  0  0  0  0  0  0  0  0
    4.0010    1.1200    0.0000 C   0  0  0  0  0  0  0  0  0  0  0  0
    4.8671    0.6200    0.0000 C   0  0  0  0  0  0  0  0  0  0  0  0
    0.7924    2.7277    0.0000 H   0  0  0  0  0  0  0  0  0  0  0  0
    1.1909    2.0374    0.0000 H   0  0  0  0  0  0  0  0  0  0  0  0
    3.3471    5.0374    0.0000 H   0  0  0  0  0  0  0  0  0  0  0  0
    3.7456    5.7277    0.0000 H   0  0  0  0  0  0  0  0  0  0  0  0
    0.0000    3.8100    0.0000 H   0  0  0  0  0  0  0  0  0  0  0  0
    1.4030    6.2400    0.0000 H   0  0  0  0  0  0  0  0  0  0  0  0
    2.8250    3.0831    0.0000 H   0  0  0  0  0  0  0  0  0  0  0  0
    3.6720    3.3100    0.0000 H   0  0  0  0  0  0  0  0  0  0  0  0
    3.4450    4.1569    0.0000 H   0  0  0  0  0  0  0  0  0  0  0  0
    0.0000    5.4300    0.0000 H   0  0  0  0  0  0  0  0  0  0  0  0
    2.9230    7.2026    0.0000 H   0  0  0  0  0  0  0  0  0  0  0  0
    2.5244    6.5123    0.0000 H   0  0  0  0  0  0  0  0  0  0  0  0
    3.1350    3.2400    0.0000 H   0  0  0  0  0  0  0  0  0  0  0  0
    1.4030    0.0000    0.0000 H   0  0  0  0  0  0  0  0  0  0  0  0
    0.8660    0.9300    0.0000 H   0  0  0  0  0  0  0  0  0  0  0  0
    4.0010    7.7400    0.0000 H   0  0  0  0  0  0  0  0  0  0  0  0
    4.5571    0.0831    0.0000 H   0  0  0  0  0  0  0  0  0  0  0  0
    5.4040    0.3100    0.0000 H   0  0  0  0  0  0  0  0  0  0  0  0
    5.1771    1.1569    0.0000 H   0  0  0  0  0  0  0  0  0  0  0  0
  2 16  1  0  0  0  0
  2 36  1  0  0  0  0
  3  7  1  0  0  0  0
  3  9  1  0  0  0  0
  3 11  2  0  0  0  0
  4 17  2  0  0  0  0
  4 19  1  0  0  0  0
  5 18  1  0  0  0  0
  5 19  2  0  0  0  0
  6 17  1  0  0  0  0
  6 34  1  0  0  0  0
  6 35  1  0  0  0  0
  7  8  2  0  0  0  0
  7 14  1  0  0  0  0
  8 10  1  0  0  0  0
  8 13  1  0  0  0  0
  9 12  1  0  0  0  0
  9 21  1  0  0  0  0
  9 22  1  0  0  0  0
 10 16  1  0  0  0  0
 10 23  1  0  0  0  0
 10 24  1  0  0  0  0
 11 15  1  0  0  0  0
 11 25  1  0  0  0  0
 12 17  1  0  0  0  0
 12 18  2  0  0  0  0
 13 15  2  0  0  0  0
 13 26  1  0  0  0  0
 14 27  1  0  0  0  0
 14 28  1  0  0  0  0
 14 29  1  0  0  0  0
 15 30  1  0  0  0  0
 16 31  1  0  0  0  0
 16 32  1  0  0  0  0
 18 33  1  0  0  0  0
 19 20  1  0  0  0  0
 20 37  1  0  0  0  0
 20 38  1  0  0  0  0
 20 39  1  0  0  0  0
M  CHG  2   1  -1   3   1
M  END
> <PUBCHEM_COMPOUND_CID>
5460202

> <PUBCHEM_COMPOUND_CANONICALIZED>
1

> <PUBCHEM_CACTVS_COMPLEXITY>
276

> <PUBCHEM_CACTVS_HBOND_ACCEPTOR>
5

> <PUBCHEM_CACTVS_HBOND_DONOR>
2

> <PUBCHEM_CACTVS_ROTATABLE_BOND>
4

> <PUBCHEM_CACTVS_SUBSKEYS>
AAADceBzoAAAEAAAAAAAAAAAAAAAAAAAAAAsWAAAAAAAAAAB4AAAHgAQCAAADAjhnwY/sJdMEgCgAzZnZACCgCkxAqAJ2CA4ZJiIOOLA2dGEZAhswAPIyCewQAAOAAAAAAAAAAAAAAAAAAAAAAAAAAAAAA==

> <PUBCHEM_IUPAC_OPENEYE_NAME>
2-[1-[(4-amino-2-methyl-pyrimidin-5-yl)methyl]-2-methyl-pyridin-1-ium-3-yl]ethanol bromide

> <PUBCHEM_IUPAC_CAS_NAME>
2-[1-[(4-amino-2-methyl-5-pyrimidinyl)methyl]-2-methyl-3-pyridin-1-iumyl]ethanol bromide

> <PUBCHEM_IUPAC_NAME>
2-[1-[(4-amino-2-methylpyrimidin-5-yl)methyl]-2-methylpyridin-1-ium-3-yl]ethanol bromide

> <PUBCHEM_IUPAC_SYSTEMATIC_NAME>
2-[1-[(4-azanyl-2-methyl-pyrimidin-5-yl)methyl]-2-methyl-pyridin-1-ium-3-yl]ethanol bromide

> <PUBCHEM_IUPAC_TRADITIONAL_NAME>
2-[1-[(4-amino-2-methyl-pyrimidin-5-yl)methyl]-2-methyl-pyridin-1-ium-3-yl]ethanol bromide

> <PUBCHEM_IUPAC_INCHI>
InChI=1S/C14H19N4O.BrH/c1-10-12(5-7-19)4-3-6-18(10)9-13-8-16-11(2)17-14(13)15;/h3-4,6,8,19H,5,7,9H2,1-2H3,(H2,15,16,17);1H/q+1;/p-1

> <PUBCHEM_IUPAC_INCHIKEY>
GUWSQVZFXHIGLN-UHFFFAOYSA-M

> <PUBCHEM_EXACT_MASS>
338.074223

> <PUBCHEM_MOLECULAR_FORMULA>
C14H19BrN4O

> <PUBCHEM_MOLECULAR_WEIGHT>
339.23086

> <PUBCHEM_OPENEYE_CAN_SMILES>
CC1=C(C=CC=[N+]1CC2=CN=C(N=C2N)C)CCO.[Br-]

> <PUBCHEM_OPENEYE_ISO_SMILES>
CC1=C(C=CC=[N+]1CC2=CN=C(N=C2N)C)CCO.[Br-]

> <PUBCHEM_CACTVS_TPSA>
75.9

> <PUBCHEM_MONOISOTOPIC_WEIGHT>
338.074223

> <PUBCHEM_TOTAL_CHARGE>
0

> <PUBCHEM_HEAVY_ATOM_COUNT>
20

> <PUBCHEM_ATOM_DEF_STEREO_COUNT>
0

> <PUBCHEM_ATOM_UDEF_STEREO_COUNT>
0

> <PUBCHEM_BOND_DEF_STEREO_COUNT>
0

> <PUBCHEM_BOND_UDEF_STEREO_COUNT>
0

> <PUBCHEM_ISOTOPIC_ATOM_COUNT>
0

> <PUBCHEM_COMPONENT_COUNT>
2

> <PUBCHEM_CACTVS_TAUTO_COUNT>
3

> <PUBCHEM_COORDINATE_TYPE>
1
5
255

> <PUBCHEM_BONDANNOTATIONS>
11  15  8
12  17  8
12  18  8
13  15  8
3  11  8
3  7  8
4  17  8
4  19  8
5  18  8
5  19  8
7  8  8
8  13  8

$$$$

