11954148
  -OEChem-07051213073D

 66 69  0     1  0  0  0  0  0999 V2000
    4.8138    0.9968    0.1619 O   0  0  0  0  0  0  0  0  0  0  0  0
   -5.0937    0.9022   -0.4814 O   0  0  0  0  0  0  0  0  0  0  0  0
   -5.5275   -1.6522   -1.2676 O   0  0  0  0  0  0  0  0  0  0  0  0
    6.4158    0.3908   -1.3841 O   0  0  0  0  0  0  0  0  0  0  0  0
   -4.7504    2.3841    1.2535 O   0  0  0  0  0  0  0  0  0  0  0  0
    1.9684   -1.2369   -0.2908 C   0  0  2  0  0  0  0  0  0  0  0  0
    2.5351    0.0662    0.3048 C   0  0  2  0  0  0  0  0  0  0  0  0
    0.6104   -1.6174    0.3069 C   0  0  1  0  0  0  0  0  0  0  0  0
   -0.4045   -0.4653    0.0202 C   0  0  1  0  0  0  0  0  0  0  0  0
   -1.8530   -0.7796    0.5580 C   0  0  2  0  0  0  0  0  0  0  0  0
    1.5702    1.2065   -0.0432 C   0  0  0  0  0  0  0  0  0  0  0  0
    0.1466    0.9174    0.4663 C   0  0  0  0  0  0  0  0  0  0  0  0
    3.8845    0.1148   -0.4374 C   0  0  2  0  0  0  0  0  0  0  0  0
    3.1330   -2.2173   -0.1757 C   0  0  0  0  0  0  0  0  0  0  0  0
    0.0912   -2.9378   -0.2763 C   0  0  0  0  0  0  0  0  0  0  0  0
    4.3798   -1.3443   -0.4074 C   0  0  0  0  0  0  0  0  0  0  0  0
   -2.2780   -2.1773    0.0849 C   0  0  0  0  0  0  0  0  0  0  0  0
   -1.2785   -3.2913    0.2900 C   0  0  0  0  0  0  0  0  0  0  0  0
    2.7640    0.0311    1.8374 C   0  0  0  0  0  0  0  0  0  0  0  0
   -2.8300    0.2962    0.0004 C   0  0  0  0  0  0  0  0  0  0  0  0
   -1.9140   -0.7525    2.1027 C   0  0  0  0  0  0  0  0  0  0  0  0
   -4.2934   -0.1064    0.1094 C   0  0  2  0  0  0  0  0  0  0  0  0
   -3.4659   -2.4538   -0.4795 C   0  0  0  0  0  0  0  0  0  0  0  0
   -4.5117   -1.4134   -0.6186 C   0  0  0  0  0  0  0  0  0  0  0  0
    6.0605    1.0437   -0.4125 C   0  0  0  0  0  0  0  0  0  0  0  0
    6.9262    2.0267    0.3401 C   0  0  0  0  0  0  0  0  0  0  0  0
   -4.9993    2.1518    0.0785 C   0  0  0  0  0  0  0  0  0  0  0  0
    8.3288    2.1112   -0.2362 C   0  0  0  0  0  0  0  0  0  0  0  0
   -5.2499    3.1980   -0.9820 C   0  0  0  0  0  0  0  0  0  0  0  0
   -5.1785    4.6080   -0.4223 C   0  0  0  0  0  0  0  0  0  0  0  0
    1.8073   -1.0843   -1.3714 H   0  0  0  0  0  0  0  0  0  0  0  0
    0.7196   -1.7538    1.3883 H   0  0  0  0  0  0  0  0  0  0  0  0
   -0.4880   -0.4064   -1.0775 H   0  0  0  0  0  0  0  0  0  0  0  0
    1.5281    1.3456   -1.1313 H   0  0  0  0  0  0  0  0  0  0  0  0
    1.9260    2.1558    0.3749 H   0  0  0  0  0  0  0  0  0  0  0  0
    0.1366    0.9957    1.5578 H   0  0  0  0  0  0  0  0  0  0  0  0
   -0.5037    1.7171    0.0950 H   0  0  0  0  0  0  0  0  0  0  0  0
    3.7224    0.4275   -1.4787 H   0  0  0  0  0  0  0  0  0  0  0  0
    3.1704   -2.6810    0.8164 H   0  0  0  0  0  0  0  0  0  0  0  0
    3.0668   -3.0217   -0.9153 H   0  0  0  0  0  0  0  0  0  0  0  0
    0.7877   -3.7522   -0.0459 H   0  0  0  0  0  0  0  0  0  0  0  0
    0.0321   -2.8701   -1.3704 H   0  0  0  0  0  0  0  0  0  0  0  0
    4.8468   -1.6125   -1.3616 H   0  0  0  0  0  0  0  0  0  0  0  0
    5.1222   -1.5224    0.3788 H   0  0  0  0  0  0  0  0  0  0  0  0
   -1.1907   -3.4995    1.3634 H   0  0  0  0  0  0  0  0  0  0  0  0
   -1.6200   -4.2240   -0.1755 H   0  0  0  0  0  0  0  0  0  0  0  0
    3.4865   -0.7356    2.1345 H   0  0  0  0  0  0  0  0  0  0  0  0
    3.1537    0.9930    2.1906 H   0  0  0  0  0  0  0  0  0  0  0  0
    1.8464   -0.1641    2.3985 H   0  0  0  0  0  0  0  0  0  0  0  0
   -2.6039    0.4905   -1.0588 H   0  0  0  0  0  0  0  0  0  0  0  0
   -2.6491    1.2486    0.5098 H   0  0  0  0  0  0  0  0  0  0  0  0
   -1.1479   -1.3856    2.5606 H   0  0  0  0  0  0  0  0  0  0  0  0
   -2.8818   -1.1095    2.4735 H   0  0  0  0  0  0  0  0  0  0  0  0
   -1.7778    0.2611    2.4943 H   0  0  0  0  0  0  0  0  0  0  0  0
   -4.6111   -0.2522    1.1486 H   0  0  0  0  0  0  0  0  0  0  0  0
   -3.7208   -3.4507   -0.8232 H   0  0  0  0  0  0  0  0  0  0  0  0
    6.4525    3.0127    0.2908 H   0  0  0  0  0  0  0  0  0  0  0  0
    6.9826    1.7074    1.3860 H   0  0  0  0  0  0  0  0  0  0  0  0
    8.8290    1.1378   -0.1976 H   0  0  0  0  0  0  0  0  0  0  0  0
    8.9310    2.8284    0.3299 H   0  0  0  0  0  0  0  0  0  0  0  0
    8.3053    2.4341   -1.2823 H   0  0  0  0  0  0  0  0  0  0  0  0
   -4.4965    3.0803   -1.7679 H   0  0  0  0  0  0  0  0  0  0  0  0
   -6.2438    3.0273   -1.4087 H   0  0  0  0  0  0  0  0  0  0  0  0
   -4.1920    4.8105    0.0078 H   0  0  0  0  0  0  0  0  0  0  0  0
   -5.3646    5.3418   -1.2124 H   0  0  0  0  0  0  0  0  0  0  0  0
   -5.9241    4.7564    0.3659 H   0  0  0  0  0  0  0  0  0  0  0  0
  1 13  1  0  0  0  0
  1 25  1  0  0  0  0
  2 22  1  0  0  0  0
  2 27  1  0  0  0  0
  3 24  2  0  0  0  0
  4 25  2  0  0  0  0
  5 27  2  0  0  0  0
  6  7  1  0  0  0  0
  6  8  1  0  0  0  0
  6 14  1  0  0  0  0
  6 31  1  0  0  0  0
  7 11  1  0  0  0  0
  7 13  1  0  0  0  0
  7 19  1  0  0  0  0
  8  9  1  0  0  0  0
  8 15  1  0  0  0  0
  8 32  1  0  0  0  0
  9 10  1  0  0  0  0
  9 12  1  0  0  0  0
  9 33  1  0  0  0  0
 10 17  1  0  0  0  0
 10 20  1  0  0  0  0
 10 21  1  0  0  0  0
 11 12  1  0  0  0  0
 11 34  1  0  0  0  0
 11 35  1  0  0  0  0
 12 36  1  0  0  0  0
 12 37  1  0  0  0  0
 13 16  1  0  0  0  0
 13 38  1  0  0  0  0
 14 16  1  0  0  0  0
 14 39  1  0  0  0  0
 14 40  1  0  0  0  0
 15 18  1  0  0  0  0
 15 41  1  0  0  0  0
 15 42  1  0  0  0  0
 16 43  1  0  0  0  0
 16 44  1  0  0  0  0
 17 18  1  0  0  0  0
 17 23  2  0  0  0  0
 18 45  1  0  0  0  0
 18 46  1  0  0  0  0
 19 47  1  0  0  0  0
 19 48  1  0  0  0  0
 19 49  1  0  0  0  0
 20 22  1  0  0  0  0
 20 50  1  0  0  0  0
 20 51  1  0  0  0  0
 21 52  1  0  0  0  0
 21 53  1  0  0  0  0
 21 54  1  0  0  0  0
 22 24  1  0  0  0  0
 22 55  1  0  0  0  0
 23 24  1  0  0  0  0
 23 56  1  0  0  0  0
 25 26  1  0  0  0  0
 26 28  1  0  0  0  0
 26 57  1  0  0  0  0
 26 58  1  0  0  0  0
 27 29  1  0  0  0  0
 28 59  1  0  0  0  0
 28 60  1  0  0  0  0
 28 61  1  0  0  0  0
 29 30  1  0  0  0  0
 29 62  1  0  0  0  0
 29 63  1  0  0  0  0
 30 64  1  0  0  0  0
 30 65  1  0  0  0  0
 30 66  1  0  0  0  0
M  END
> <PUBCHEM_COMPOUND_CID>
11954148

> <PUBCHEM_CONFORMER_RMSD>
1

> <PUBCHEM_CONFORMER_DIVERSEORDER>
1
8
2
11
4
12
13
3
5
9
6
7
10

> <PUBCHEM_MMFF94_PARTIAL_CHARGES>
17
1 -0.43
10 0.14
13 0.28
17 -0.28
18 0.14
2 -0.43
22 0.34
23 -0.14
24 0.49
25 0.66
26 0.06
27 0.66
29 0.06
3 -0.57
4 -0.57
5 -0.57
56 0.15

> <PUBCHEM_EFFECTIVE_ROTOR_COUNT>
7.8

> <PUBCHEM_PHARMACOPHORE_FEATURES>
9
1 28 hydrophobe
1 3 acceptor
1 30 hydrophobe
1 4 acceptor
1 5 acceptor
5 6 7 13 14 16 rings
6 10 17 20 22 23 24 rings
6 6 7 8 9 11 12 rings
6 8 9 10 15 17 18 rings

> <PUBCHEM_HEAVY_ATOM_COUNT>
30

> <PUBCHEM_ATOM_DEF_STEREO_COUNT>
7

> <PUBCHEM_ATOM_UDEF_STEREO_COUNT>
0

> <PUBCHEM_BOND_DEF_STEREO_COUNT>
0

> <PUBCHEM_BOND_UDEF_STEREO_COUNT>
0

> <PUBCHEM_ISOTOPIC_ATOM_COUNT>
0

> <PUBCHEM_COMPONENT_COUNT>
1

> <PUBCHEM_CACTVS_TAUTO_COUNT>
5

> <PUBCHEM_CONFORMER_ID>
00B667E400000001

> <PUBCHEM_MMFF94_ENERGY>
79.791

> <PUBCHEM_FEATURE_SELFOVERLAP>
45.766

> <PUBCHEM_SHAPE_FINGERPRINT>
10411042 1 17690279314251075971
10670039 82 18409453553181178965
10675989 125 18050845825384024792
10835480 77 18334858312398213052
11007060 377 18338230470946297794
11315181 36 17988081067696055870
12236239 1 17774167791121473314
12403259 415 18041002804081949571
13073987 5 18272931630819246747
13690498 29 17750243513054198879
13782708 43 7493284422388522892
14251764 75 18048311439004792377
14294032 229 18335420193400467969
14347329 18 18410298024923435073
14713325 29 18341607110722591427
14790565 3 18412823620438931789
15064981 113 17024029452787681548
15183329 4 18409168830818821919
15196674 1 18409167731297118831
17980427 23 17847055571354854876
18608769 82 18265891363794346771
18681886 176 18117565028971831010
20511986 3 18335428967380421706
21236236 1 18409166606394917335
21279426 13 18261385702413349486
22393880 68 18113059324409837943
23522609 53 8357420439227353002
23559900 14 17969788471270072986
23569914 152 17247223819536111486
23569914 2 17463739421556019112
2838139 119 18339361868848823404
34934 24 18341614798360525738
350125 39 18408603665627692027
397830 11 11455884712362458308
4058900 60 18131069346363970058
4073 2 18272646814853904034
5104073 3 18130786788949661946
5283173 99 18408325483930892545
5486654 36 8430306970769196365
563151 97 18411705387017544759
6327066 14 18270406117662664733
6328613 192 18409165532658731856
636775 72 18338518530794181624

> <PUBCHEM_SHAPE_MULTIPOLES>
588.04
17.18
4.1
1.13
21.05
2.42
0.42
16.91
-4.06
-6.06
-0.66
-0.25
0
0.1

> <PUBCHEM_SHAPE_SELFOVERLAP>
1242.2

> <PUBCHEM_SHAPE_VOLUME>
325.9

> <PUBCHEM_COORDINATE_TYPE>
2
5
10

$$$$

