3751
  -OEChem-06251223382D

 85 86  0     1  0  0  0  0  0999 V2000
    2.3100   -3.0801    0.0000 O   0  0  0  0  0  0  0  0  0  0  0  0
    2.7364   -1.3720    0.0000 O   0  0  0  0  0  0  0  0  0  0  0  0
    7.6401   -1.5801    0.0000 O   0  0  0  0  0  0  0  0  0  0  0  0
    6.7741   -6.0801    0.0000 O   0  0  0  0  0  0  0  0  0  0  0  0
    4.1760   -2.5801    0.0000 C   0  0  3  0  0  0  0  0  0  0  0  0
    3.3100   -3.0801    0.0000 C   0  0  3  0  0  0  0  0  0  0  0  0
    5.0420   -3.0801    0.0000 C   0  0  3  0  0  0  0  0  0  0  0  0
    3.3100   -4.0801    0.0000 C   0  0  0  0  0  0  0  0  0  0  0  0
    4.6760   -1.7141    0.0000 C   0  0  0  0  0  0  0  0  0  0  0  0
    5.0420   -4.0801    0.0000 C   0  0  0  0  0  0  0  0  0  0  0  0
    4.1760   -4.5801    0.0000 C   0  0  0  0  0  0  0  0  0  0  0  0
    3.6760   -1.7141    0.0000 C   0  0  0  0  0  0  0  0  0  0  0  0
    5.9081   -2.5801    0.0000 C   0  0  0  0  0  0  0  0  0  0  0  0
    2.5440   -2.4373    0.0000 C   0  0  0  0  0  0  0  0  0  0  0  0
    4.1760   -0.8481    0.0000 C   0  0  0  0  0  0  0  0  0  0  0  0
    5.9081   -1.5801    0.0000 C   0  0  0  0  0  0  0  0  0  0  0  0
    5.9081   -4.5801    0.0000 C   0  0  0  0  0  0  0  0  0  0  0  0
    4.1760    4.3481    0.0000 C   0  0  0  0  0  0  0  0  0  0  0  0
    4.6760    5.2141    0.0000 C   0  0  3  0  0  0  0  0  0  0  0  0
    4.6760    3.4820    0.0000 C   0  0  3  0  0  0  0  0  0  0  0  0
    4.6760    0.0179    0.0000 C   0  0  0  0  0  0  0  0  0  0  0  0
    6.7741   -1.0801    0.0000 C   0  0  0  0  0  0  0  0  0  0  0  0
    6.7741   -4.0801    0.0000 C   0  0  0  0  0  0  0  0  0  0  0  0
    5.6760    5.2141    0.0000 C   0  0  0  0  0  0  0  0  0  0  0  0
    5.6760    3.4820    0.0000 C   0  0  0  0  0  0  0  0  0  0  0  0
    5.9081   -5.5801    0.0000 C   0  0  0  0  0  0  0  0  0  0  0  0
    3.3100    4.8481    0.0000 C   0  0  0  0  0  0  0  0  0  0  0  0
    3.3100    3.8481    0.0000 C   0  0  0  0  0  0  0  0  0  0  0  0
    4.1760    0.8840    0.0000 C   0  0  0  0  0  0  0  0  0  0  0  0
    4.1760    2.6160    0.0000 C   0  0  0  0  0  0  0  0  0  0  0  0
    6.1760    4.3481    0.0000 C   0  0  0  0  0  0  0  0  0  0  0  0
    4.1760    6.0801    0.0000 C   0  0  0  0  0  0  0  0  0  0  0  0
    4.6760    1.7500    0.0000 C   0  0  0  0  0  0  0  0  0  0  0  0
    6.1760    2.6160    0.0000 C   0  0  0  0  0  0  0  0  0  0  0  0
    3.1760    0.8840    0.0000 C   0  0  0  0  0  0  0  0  0  0  0  0
    5.0420   -2.2301    0.0000 H   0  0  0  0  0  0  0  0  0  0  0  0
    2.6994   -3.9725    0.0000 H   0  0  0  0  0  0  0  0  0  0  0  0
    3.0980   -4.6627    0.0000 H   0  0  0  0  0  0  0  0  0  0  0  0
    5.1510   -2.1126    0.0000 H   0  0  0  0  0  0  0  0  0  0  0  0
    5.1510   -1.3156    0.0000 H   0  0  0  0  0  0  0  0  0  0  0  0
    3.7775   -5.0551    0.0000 H   0  0  0  0  0  0  0  0  0  0  0  0
    4.5746   -5.0551    0.0000 H   0  0  0  0  0  0  0  0  0  0  0  0
    4.2793   -1.5711    0.0000 H   0  0  0  0  0  0  0  0  0  0  0  0
    3.7121   -1.0952    0.0000 H   0  0  0  0  0  0  0  0  0  0  0  0
    6.1201   -3.1627    0.0000 H   0  0  0  0  0  0  0  0  0  0  0  0
    6.5187   -2.4725    0.0000 H   0  0  0  0  0  0  0  0  0  0  0  0
    2.9425   -1.9624    0.0000 H   0  0  0  0  0  0  0  0  0  0  0  0
    2.0690   -2.0388    0.0000 H   0  0  0  0  0  0  0  0  0  0  0  0
    2.1454   -2.9123    0.0000 H   0  0  0  0  0  0  0  0  0  0  0  0
    3.7011   -0.4495    0.0000 H   0  0  0  0  0  0  0  0  0  0  0  0
    3.7011   -1.2466    0.0000 H   0  0  0  0  0  0  0  0  0  0  0  0
    2.0000   -3.6171    0.0000 H   0  0  0  0  0  0  0  0  0  0  0  0
    5.6960   -0.9975    0.0000 H   0  0  0  0  0  0  0  0  0  0  0  0
    5.2975   -1.6878    0.0000 H   0  0  0  0  0  0  0  0  0  0  0  0
    2.6287   -0.7615    0.0000 H   0  0  0  0  0  0  0  0  0  0  0  0
    3.8260    5.2141    0.0000 H   0  0  0  0  0  0  0  0  0  0  0  0
    3.8260    3.4820    0.0000 H   0  0  0  0  0  0  0  0  0  0  0  0
    5.2960    0.0179    0.0000 H   0  0  0  0  0  0  0  0  0  0  0  0
    7.1726   -0.6052    0.0000 H   0  0  0  0  0  0  0  0  0  0  0  0
    6.3756   -0.6052    0.0000 H   0  0  0  0  0  0  0  0  0  0  0  0
    7.0841   -4.6171    0.0000 H   0  0  0  0  0  0  0  0  0  0  0  0
    7.3110   -3.7701    0.0000 H   0  0  0  0  0  0  0  0  0  0  0  0
    6.4641   -3.5432    0.0000 H   0  0  0  0  0  0  0  0  0  0  0  0
    6.2586    5.4262    0.0000 H   0  0  0  0  0  0  0  0  0  0  0  0
    5.5684    5.8247    0.0000 H   0  0  0  0  0  0  0  0  0  0  0  0
    5.3711   -5.8901    0.0000 H   0  0  0  0  0  0  0  0  0  0  0  0
    3.6200    5.3850    0.0000 H   0  0  0  0  0  0  0  0  0  0  0  0
    2.7731    5.1581    0.0000 H   0  0  0  0  0  0  0  0  0  0  0  0
    3.0000    4.3111    0.0000 H   0  0  0  0  0  0  0  0  0  0  0  0
    3.0000    4.3850    0.0000 H   0  0  0  0  0  0  0  0  0  0  0  0
    2.7731    3.5381    0.0000 H   0  0  0  0  0  0  0  0  0  0  0  0
    3.6200    3.3111    0.0000 H   0  0  0  0  0  0  0  0  0  0  0  0
    3.5560    2.6160    0.0000 H   0  0  0  0  0  0  0  0  0  0  0  0
    6.7960    4.3481    0.0000 H   0  0  0  0  0  0  0  0  0  0  0  0
    4.7130    6.3901    0.0000 H   0  0  0  0  0  0  0  0  0  0  0  0
    3.8660    6.6171    0.0000 H   0  0  0  0  0  0  0  0  0  0  0  0
    3.6391    5.7701    0.0000 H   0  0  0  0  0  0  0  0  0  0  0  0
    5.2960    1.7500    0.0000 H   0  0  0  0  0  0  0  0  0  0  0  0
    5.6391    2.3060    0.0000 H   0  0  0  0  0  0  0  0  0  0  0  0
    6.4860    2.0791    0.0000 H   0  0  0  0  0  0  0  0  0  0  0  0
    6.7130    2.9260    0.0000 H   0  0  0  0  0  0  0  0  0  0  0  0
    3.1760    1.5040    0.0000 H   0  0  0  0  0  0  0  0  0  0  0  0
    2.5560    0.8840    0.0000 H   0  0  0  0  0  0  0  0  0  0  0  0
    3.1760    0.2640    0.0000 H   0  0  0  0  0  0  0  0  0  0  0  0
    8.1771   -1.2701    0.0000 H   0  0  0  0  0  0  0  0  0  0  0  0
  1  6  1  0  0  0  0
  1 52  1  0  0  0  0
  2 12  1  0  0  0  0
  2 55  1  0  0  0  0
  3 22  1  0  0  0  0
  3 85  1  0  0  0  0
  4 26  2  0  0  0  0
  5  6  1  0  0  0  0
  5  7  1  0  0  0  0
  5  9  1  0  0  0  0
  5 12  1  0  0  0  0
  6  8  1  0  0  0  0
  6 14  1  0  0  0  0
  7 10  1  0  0  0  0
  7 13  1  0  0  0  0
  7 36  1  0  0  0  0
  8 11  1  0  0  0  0
  8 37  1  0  0  0  0
  8 38  1  0  0  0  0
  9 15  1  0  0  0  0
  9 39  1  0  0  0  0
  9 40  1  0  0  0  0
 10 11  1  0  0  0  0
 10 17  2  3  0  0  0
 11 41  1  0  0  0  0
 11 42  1  0  0  0  0
 12 43  1  0  0  0  0
 12 44  1  0  0  0  0
 13 16  1  0  0  0  0
 13 45  1  0  0  0  0
 13 46  1  0  0  0  0
 14 47  1  0  0  0  0
 14 48  1  0  0  0  0
 14 49  1  0  0  0  0
 15 21  1  0  0  0  0
 15 50  1  0  0  0  0
 15 51  1  0  0  0  0
 16 22  1  0  0  0  0
 16 53  1  0  0  0  0
 16 54  1  0  0  0  0
 17 23  1  0  0  0  0
 17 26  1  0  0  0  0
 18 19  1  0  0  0  0
 18 20  1  0  0  0  0
 18 27  1  0  0  0  0
 18 28  1  0  0  0  0
 19 24  1  0  0  0  0
 19 32  1  0  0  0  0
 19 56  1  0  0  0  0
 20 25  1  0  0  0  0
 20 30  1  0  0  0  0
 20 57  1  0  0  0  0
 21 29  2  3  0  0  0
 21 58  1  0  0  0  0
 22 59  1  0  0  0  0
 22 60  1  0  0  0  0
 23 61  1  0  0  0  0
 23 62  1  0  0  0  0
 23 63  1  0  0  0  0
 24 31  1  0  0  0  0
 24 64  1  0  0  0  0
 24 65  1  0  0  0  0
 25 31  2  0  0  0  0
 25 34  1  0  0  0  0
 26 66  1  0  0  0  0
 27 67  1  0  0  0  0
 27 68  1  0  0  0  0
 27 69  1  0  0  0  0
 28 70  1  0  0  0  0
 28 71  1  0  0  0  0
 28 72  1  0  0  0  0
 29 33  1  0  0  0  0
 29 35  1  0  0  0  0
 30 33  2  3  0  0  0
 30 73  1  0  0  0  0
 31 74  1  0  0  0  0
 32 75  1  0  0  0  0
 32 76  1  0  0  0  0
 32 77  1  0  0  0  0
 33 78  1  0  0  0  0
 34 79  1  0  0  0  0
 34 80  1  0  0  0  0
 34 81  1  0  0  0  0
 35 82  1  0  0  0  0
 35 83  1  0  0  0  0
 35 84  1  0  0  0  0
M  END
> <PUBCHEM_COMPOUND_CID>
3751

> <PUBCHEM_COMPOUND_CANONICALIZED>
1

> <PUBCHEM_CACTVS_COMPLEXITY>
861

> <PUBCHEM_CACTVS_HBOND_ACCEPTOR>
4

> <PUBCHEM_CACTVS_HBOND_DONOR>
3

> <PUBCHEM_CACTVS_ROTATABLE_BOND>
10

> <PUBCHEM_CACTVS_SUBSKEYS>
AAADcfB4OAAAAAAAAAAAAAAAAAAAAAAAAAAwQAAAAAAAAAAAAAAAGgAACAAAD0SggAICAAAAAgCIAihSgAAAAAAgAAAICAEAAEgIEAIAAQAAQAAFgAAIgQOAwPAPgAAAAAAAAAAAAAYAADAAAAAAAAAAAA==

> <PUBCHEM_IUPAC_OPENEYE_NAME>
2-[4-hydroxy-3-(hydroxymethyl)-2-(3-hydroxypropyl)-4-methyl-3-[4-methyl-6-(2,5,6,6-tetramethylcyclohex-2-en-1-yl)hexa-3,5-dienyl]cyclohexylidene]propanal

> <PUBCHEM_IUPAC_CAS_NAME>
2-[4-hydroxy-3-(hydroxymethyl)-2-(3-hydroxypropyl)-4-methyl-3-[4-methyl-6-(2,5,6,6-tetramethyl-1-cyclohex-2-enyl)hexa-3,5-dienyl]cyclohexylidene]propanal

> <PUBCHEM_IUPAC_NAME>
2-[4-hydroxy-3-(hydroxymethyl)-2-(3-hydroxypropyl)-4-methyl-3-[4-methyl-6-(2,5,6,6-tetramethylcyclohex-2-en-1-yl)hexa-3,5-dienyl]cyclohexylidene]propanal

> <PUBCHEM_IUPAC_SYSTEMATIC_NAME>
2-[3-(hydroxymethyl)-4-methyl-3-[4-methyl-6-(2,5,6,6-tetramethylcyclohex-2-en-1-yl)hexa-3,5-dienyl]-4-oxidanyl-2-(3-oxidanylpropyl)cyclohexylidene]propanal

> <PUBCHEM_IUPAC_TRADITIONAL_NAME>
2-[4-hydroxy-2-(3-hydroxypropyl)-4-methyl-3-methylol-3-[4-methyl-6-(2,5,6,6-tetramethylcyclohex-2-en-1-yl)hexa-3,5-dienyl]cyclohexylidene]propionaldehyde

> <PUBCHEM_IUPAC_INCHI>
InChI=1S/C31H50O4/c1-22(12-15-27-23(2)13-14-25(4)29(27,5)6)10-8-17-31(21-34)28(11-9-19-32)26(24(3)20-33)16-18-30(31,7)35/h10,12-13,15,20,25,27-28,32,34-35H,8-9,11,14,16-19,21H2,1-7H3

> <PUBCHEM_IUPAC_INCHIKEY>
CUWJDZXEDIUEEW-UHFFFAOYSA-N

> <PUBCHEM_XLOGP3_AA>
5.6

> <PUBCHEM_EXACT_MASS>
486.37091

> <PUBCHEM_MOLECULAR_FORMULA>
C31H50O4

> <PUBCHEM_MOLECULAR_WEIGHT>
486.7263

> <PUBCHEM_OPENEYE_CAN_SMILES>
CC1CC=C(C(C1(C)C)C=CC(=CCCC2(C(C(=C(C)C=O)CCC2(C)O)CCCO)CO)C)C

> <PUBCHEM_OPENEYE_ISO_SMILES>
CC1CC=C(C(C1(C)C)C=CC(=CCCC2(C(C(=C(C)C=O)CCC2(C)O)CCCO)CO)C)C

> <PUBCHEM_CACTVS_TPSA>
77.8

> <PUBCHEM_MONOISOTOPIC_WEIGHT>
486.37091

> <PUBCHEM_TOTAL_CHARGE>
0

> <PUBCHEM_HEAVY_ATOM_COUNT>
35

> <PUBCHEM_ATOM_DEF_STEREO_COUNT>
0

> <PUBCHEM_ATOM_UDEF_STEREO_COUNT>
5

> <PUBCHEM_BOND_DEF_STEREO_COUNT>
0

> <PUBCHEM_BOND_UDEF_STEREO_COUNT>
3

> <PUBCHEM_ISOTOPIC_ATOM_COUNT>
0

> <PUBCHEM_COMPONENT_COUNT>
1

> <PUBCHEM_CACTVS_TAUTO_COUNT>
1

> <PUBCHEM_COORDINATE_TYPE>
1
5
255

> <PUBCHEM_BONDANNOTATIONS>
10  17  1
19  56  3
20  57  3
21  29  1
30  33  1
5  9  3
6  14  3
7  36  3

$$$$

