8479
  -OEChem-07051212513D

 18 18  0     0  0  0  0  0  0999 V2000
    2.1338   -0.0025    0.0889 S   0  0  0  0  0  0  0  0  0  0  0  0
    2.6006    0.0043   -1.4780 O   0  0  0  0  0  0  0  0  0  0  0  0
    2.5711    1.2595    0.6676 O   0  0  0  0  0  0  0  0  0  0  0  0
    2.5426   -1.2691    0.6763 O   0  0  0  0  0  0  0  0  0  0  0  0
   -3.8109    0.0032   -0.0460 N   0  0  0  0  0  0  0  0  0  0  0  0
    0.3883   -0.0007    0.0473 C   0  0  0  0  0  0  0  0  0  0  0  0
   -0.3078    1.2080    0.0363 C   0  0  0  0  0  0  0  0  0  0  0  0
   -0.3101   -1.2079    0.0263 C   0  0  0  0  0  0  0  0  0  0  0  0
   -2.4008    0.0022   -0.0169 C   0  0  0  0  0  0  0  0  0  0  0  0
   -1.7023    1.2095    0.0042 C   0  0  0  0  0  0  0  0  0  0  0  0
   -1.7046   -1.2065   -0.0058 C   0  0  0  0  0  0  0  0  0  0  0  0
    0.2153    2.1601    0.0453 H   0  0  0  0  0  0  0  0  0  0  0  0
    0.2102   -2.1615    0.0267 H   0  0  0  0  0  0  0  0  0  0  0  0
   -2.2335    2.1579   -0.0052 H   0  0  0  0  0  0  0  0  0  0  0  0
   -2.2375   -2.1538   -0.0232 H   0  0  0  0  0  0  0  0  0  0  0  0
   -4.3162    0.8791   -0.0589 H   0  0  0  0  0  0  0  0  0  0  0  0
   -4.3175   -0.8718   -0.0661 H   0  0  0  0  0  0  0  0  0  0  0  0
    2.3194    0.7926   -1.9994 H   0  0  0  0  0  0  0  0  0  0  0  0
  1  2  1  0  0  0  0
  1  3  2  0  0  0  0
  1  4  2  0  0  0  0
  1  6  1  0  0  0  0
  2 18  1  0  0  0  0
  5  9  1  0  0  0  0
  5 16  1  0  0  0  0
  5 17  1  0  0  0  0
  6  7  2  0  0  0  0
  6  8  1  0  0  0  0
  7 10  1  0  0  0  0
  7 12  1  0  0  0  0
  8 11  2  0  0  0  0
  8 13  1  0  0  0  0
  9 10  2  0  0  0  0
  9 11  1  0  0  0  0
 10 14  1  0  0  0  0
 11 15  1  0  0  0  0
M  END
> <PUBCHEM_COMPOUND_CID>
8479

> <PUBCHEM_CONFORMER_RMSD>
0.4

> <PUBCHEM_CONFORMER_DIVERSEORDER>
1

> <PUBCHEM_MMFF94_PARTIAL_CHARGES>
18
1 1.49
10 -0.15
11 -0.15
12 0.15
13 0.15
14 0.15
15 0.15
16 0.4
17 0.4
18 0.5
2 -0.68
3 -0.65
4 -0.65
5 -0.9
6 -0.01
7 -0.15
8 -0.15
9 0.1

> <PUBCHEM_EFFECTIVE_ROTOR_COUNT>
1

> <PUBCHEM_PHARMACOPHORE_FEATURES>
7
1 2 acceptor
1 3 acceptor
1 4 acceptor
1 5 cation
1 5 donor
4 1 2 3 4 anion
6 6 7 8 9 10 11 rings

> <PUBCHEM_HEAVY_ATOM_COUNT>
11

> <PUBCHEM_ATOM_DEF_STEREO_COUNT>
0

> <PUBCHEM_ATOM_UDEF_STEREO_COUNT>
0

> <PUBCHEM_BOND_DEF_STEREO_COUNT>
0

> <PUBCHEM_BOND_UDEF_STEREO_COUNT>
0

> <PUBCHEM_ISOTOPIC_ATOM_COUNT>
0

> <PUBCHEM_COMPONENT_COUNT>
1

> <PUBCHEM_CACTVS_TAUTO_COUNT>
1

> <PUBCHEM_CONFORMER_ID>
0000211F00000001

> <PUBCHEM_MMFF94_ENERGY>
27.6872

> <PUBCHEM_FEATURE_SELFOVERLAP>
35.577

> <PUBCHEM_SHAPE_FINGERPRINT>
10857977 72 18339086986325074473
12032990 46 18410004421492005299
12524768 44 18259982643586559700
12897270 3 18409163311764669654
12932764 1 18410854360653457301
14325111 11 18410578400689210777
15310529 11 16773799190549939477
15775835 57 18413386540417142352
16945 1 18411698781536548321
18186145 218 18260828228464115393
20201158 50 18040149630429957878
20645464 45 18113907035005431424
20645476 183 17917416593223946903
21040471 1 18339922730920546636
23402655 69 18193577768858261237
23552423 10 18199466554327936389
2748010 2 18122064200308473535
3248919 1 17095525097351361731
369184 2 18409737256929307763
5084963 1 17845937449733946276
7364860 26 18335423487086509018
8030462 33 18271802436645633358

> <PUBCHEM_SHAPE_MULTIPOLES>
207.64
4.8
1.4
0.81
0.72
0
-0.19
-0.01
-0.12
-0.05
0.16
-0.57
0
0

> <PUBCHEM_SHAPE_SELFOVERLAP>
420.097

> <PUBCHEM_SHAPE_VOLUME>
121.9

> <PUBCHEM_COORDINATE_TYPE>
2
5
10

$$$$

