46173791
  -OEChem-07051213023D

 56 58  0     1  0  0  0  0  0999 V2000
   -0.3717   -3.5930   -0.6371 P   0  0  2  0  0  0  0  0  0  0  0  0
   -2.5171   -1.7851   -1.5234 P   0  0  2  0  0  0  0  0  0  0  0  0
    3.1478   -1.4248    0.5947 O   0  0  0  0  0  0  0  0  0  0  0  0
    3.6826   -1.4095    3.6089 O   0  0  0  0  0  0  0  0  0  0  0  0
    1.0302   -3.1838    0.0588 O   0  0  0  0  0  0  0  0  0  0  0  0
    4.6466    2.4128    0.2991 O   0  0  0  0  0  0  0  0  0  0  0  0
   -1.0501   -2.1614   -0.9580 O   0  0  0  0  0  0  0  0  0  0  0  0
   -1.2659   -4.1527    0.5891 O   0  0  0  0  0  0  0  0  0  0  0  0
   -2.7999   -0.2948   -0.9597 O   0  0  0  0  0  0  0  0  0  0  0  0
   -0.2682   -4.5137   -1.8178 O   0  0  0  0  0  0  0  0  0  0  0  0
   -1.6770    0.9245    0.7396 O   0  0  0  0  0  0  0  0  0  0  0  0
    1.8275    3.0891   -3.2707 O   0  0  0  0  0  0  0  0  0  0  0  0
   -3.5018   -2.7360   -0.6610 O   0  0  0  0  0  0  0  0  0  0  0  0
   -2.6599   -1.9323   -3.0105 O   0  0  0  0  0  0  0  0  0  0  0  0
   -5.5306    2.0557    1.8269 O   0  0  0  0  0  0  0  0  0  0  0  0
   -3.4582    3.8440    1.4866 O   0  0  0  0  0  0  0  0  0  0  0  0
    3.0202    0.7950   -0.1345 N   0  0  0  0  0  0  0  0  0  0  0  0
    3.2339    2.7376   -1.4782 N   0  0  0  0  0  0  0  0  0  0  0  0
    2.5001   -1.1433    2.8579 C   0  0  2  0  0  0  0  0  0  0  0  0
    2.4272   -2.0772    1.6580 C   0  0  1  0  0  0  0  0  0  0  0  0
    2.5980    0.2241    2.2217 C   0  0  0  0  0  0  0  0  0  0  0  0
    3.3914   -0.0580    0.9564 C   0  0  1  0  0  0  0  0  0  0  0  0
    1.0013   -2.3168    1.1790 C   0  0  0  0  0  0  0  0  0  0  0  0
    1.9654    0.4058   -0.9510 C   0  0  0  0  0  0  0  0  0  0  0  0
    3.7031    2.0055   -0.3820 C   0  0  0  0  0  0  0  0  0  0  0  0
    1.5188    1.1088   -1.9991 C   0  0  0  0  0  0  0  0  0  0  0  0
    2.1885    2.3965   -2.3229 C   0  0  0  0  0  0  0  0  0  0  0  0
    0.3824    0.6696   -2.8654 C   0  0  0  0  0  0  0  0  0  0  0  0
   -2.6959   -0.0299    0.4346 C   0  0  1  0  0  0  0  0  0  0  0  0
   -2.0135    2.2543    0.3688 C   0  0  1  0  0  0  0  0  0  0  0  0
   -4.0362    0.3994    0.9512 C   0  0  0  0  0  0  0  0  0  0  0  0
   -3.2702    2.6887    1.1125 C   0  0  0  0  0  0  0  0  0  0  0  0
   -4.3200    1.6574    1.3135 C   0  0  0  0  0  0  0  0  0  0  0  0
   -0.8288    3.1437    0.7140 C   0  0  0  0  0  0  0  0  0  0  0  0
    1.6490   -1.2330    3.5395 H   0  0  0  0  0  0  0  0  0  0  0  0
    2.9273   -3.0349    1.8402 H   0  0  0  0  0  0  0  0  0  0  0  0
    1.5936    0.5950    1.9838 H   0  0  0  0  0  0  0  0  0  0  0  0
    3.0943    0.9712    2.8490 H   0  0  0  0  0  0  0  0  0  0  0  0
    4.4654    0.0402    1.1546 H   0  0  0  0  0  0  0  0  0  0  0  0
    0.4886   -1.3876    0.9201 H   0  0  0  0  0  0  0  0  0  0  0  0
    0.4383   -2.7973    1.9853 H   0  0  0  0  0  0  0  0  0  0  0  0
    3.6052   -2.3124    3.9616 H   0  0  0  0  0  0  0  0  0  0  0  0
    1.4780   -0.5294   -0.7277 H   0  0  0  0  0  0  0  0  0  0  0  0
    3.7110    3.6129   -1.6753 H   0  0  0  0  0  0  0  0  0  0  0  0
    0.6878    0.6451   -3.9166 H   0  0  0  0  0  0  0  0  0  0  0  0
    0.0338   -0.3335   -2.6052 H   0  0  0  0  0  0  0  0  0  0  0  0
   -0.4629    1.3578   -2.7639 H   0  0  0  0  0  0  0  0  0  0  0  0
   -2.4090   -0.9451    0.9635 H   0  0  0  0  0  0  0  0  0  0  0  0
   -2.2042    2.3077   -0.7098 H   0  0  0  0  0  0  0  0  0  0  0  0
   -1.4818   -3.5625    1.3418 H   0  0  0  0  0  0  0  0  0  0  0  0
   -4.8002   -0.3672    1.0499 H   0  0  0  0  0  0  0  0  0  0  0  0
    0.0785    2.7897    0.2153 H   0  0  0  0  0  0  0  0  0  0  0  0
   -1.0073    4.1821    0.4178 H   0  0  0  0  0  0  0  0  0  0  0  0
   -0.6259    3.1251    1.7909 H   0  0  0  0  0  0  0  0  0  0  0  0
   -3.5934   -3.6788   -0.9158 H   0  0  0  0  0  0  0  0  0  0  0  0
   -5.4795    3.0135    1.9894 H   0  0  0  0  0  0  0  0  0  0  0  0
  1  5  1  0  0  0  0
  1  7  1  0  0  0  0
  1  8  1  0  0  0  0
  1 10  2  0  0  0  0
  2  7  1  0  0  0  0
  2  9  1  0  0  0  0
  2 13  1  0  0  0  0
  2 14  2  0  0  0  0
  3 20  1  0  0  0  0
  3 22  1  0  0  0  0
  4 19  1  0  0  0  0
  4 42  1  0  0  0  0
  5 23  1  0  0  0  0
  6 25  2  0  0  0  0
  8 50  1  0  0  0  0
  9 29  1  0  0  0  0
 11 29  1  0  0  0  0
 11 30  1  0  0  0  0
 12 27  2  0  0  0  0
 13 55  1  0  0  0  0
 15 33  1  0  0  0  0
 15 56  1  0  0  0  0
 16 32  2  0  0  0  0
 17 22  1  0  0  0  0
 17 24  1  0  0  0  0
 17 25  1  0  0  0  0
 18 25  1  0  0  0  0
 18 27  1  0  0  0  0
 18 44  1  0  0  0  0
 19 20  1  0  0  0  0
 19 21  1  0  0  0  0
 19 35  1  0  0  0  0
 20 23  1  0  0  0  0
 20 36  1  0  0  0  0
 21 22  1  0  0  0  0
 21 37  1  0  0  0  0
 21 38  1  0  0  0  0
 22 39  1  0  0  0  0
 23 40  1  0  0  0  0
 23 41  1  0  0  0  0
 24 26  2  0  0  0  0
 24 43  1  0  0  0  0
 26 27  1  0  0  0  0
 26 28  1  0  0  0  0
 28 45  1  0  0  0  0
 28 46  1  0  0  0  0
 28 47  1  0  0  0  0
 29 31  1  0  0  0  0
 29 48  1  0  0  0  0
 30 32  1  0  0  0  0
 30 34  1  0  0  0  0
 30 49  1  0  0  0  0
 31 33  2  0  0  0  0
 31 51  1  0  0  0  0
 32 33  1  0  0  0  0
 34 52  1  0  0  0  0
 34 53  1  0  0  0  0
 34 54  1  0  0  0  0
M  END
> <PUBCHEM_COMPOUND_CID>
46173791

> <PUBCHEM_CONFORMER_RMSD>
1.6

> <PUBCHEM_CONFORMER_DIVERSEORDER>
1
36
88
93
26
38
40
105
81
23
96
73
51
72
101
24
108
99
17
50
16
19
8
39
32
66
90
68
60
10
91
42
44
22
37
2
31
79
64
53
56
43
84
100
98
58
80
41
13
33
83
25
46
34
54
75
94
49
28
48
67
18
5
69
82
107
78
47
87
52
71
14
70
104
63
106
55
86
77
30
59
103
65
62
102
12
57
29
45
6
76
3
61
15
35
4
89
85
9
27
95
7
92
21
20
74
11
97

> <PUBCHEM_MMFF94_PARTIAL_CHARGES>
39
1 1.51
10 -0.7
11 -0.56
12 -0.57
13 -0.77
14 -0.7
15 -0.53
16 -0.57
17 -0.47
18 -0.49
19 0.28
2 1.51
20 0.28
22 0.58
23 0.28
24 -0.04
25 0.69
26 -0.12
27 0.62
28 0.14
29 0.7
3 -0.56
30 0.34
31 -0.29
32 0.49
33 0.09
4 -0.68
42 0.4
43 0.15
44 0.37
5 -0.55
50 0.5
51 0.15
55 0.5
56 0.45
6 -0.57
7 -0.54
8 -0.77
9 -0.55

> <PUBCHEM_EFFECTIVE_ROTOR_COUNT>
9.6

> <PUBCHEM_PHARMACOPHORE_FEATURES>
16
1 10 acceptor
1 11 acceptor
1 12 acceptor
1 13 acceptor
1 14 acceptor
1 15 donor
1 16 acceptor
1 18 donor
1 3 acceptor
1 4 acceptor
1 4 donor
1 6 acceptor
1 8 acceptor
5 3 19 20 21 22 rings
6 11 29 30 31 32 33 rings
6 17 18 24 25 26 27 rings

> <PUBCHEM_HEAVY_ATOM_COUNT>
34

> <PUBCHEM_ATOM_DEF_STEREO_COUNT>
5

> <PUBCHEM_ATOM_UDEF_STEREO_COUNT>
0

> <PUBCHEM_BOND_DEF_STEREO_COUNT>
0

> <PUBCHEM_BOND_UDEF_STEREO_COUNT>
0

> <PUBCHEM_ISOTOPIC_ATOM_COUNT>
0

> <PUBCHEM_COMPONENT_COUNT>
1

> <PUBCHEM_CACTVS_TAUTO_COUNT>
24

> <PUBCHEM_CONFORMER_ID>
02C08E5F00000001

> <PUBCHEM_MMFF94_ENERGY>
29.0995

> <PUBCHEM_FEATURE_SELFOVERLAP>
81.214

> <PUBCHEM_SHAPE_FINGERPRINT>
11513181 2 18186524323660315766
12539773 59 18051991224522019726
12788726 201 17262126170135854692
13009979 54 18052849982211802930
13965767 371 18343017839126237836
150020 26 17540243672459315163
15274700 34 18129952312208441069
15297060 5 18114451319078697890
15420108 30 18341902934947667480
16067690 210 17827357674588803324
19319366 153 17843112602546369171
20511986 3 18341613685648076061
21860390 5 17843383327109044417
23559900 14 17688291805444317081
35225 105 17676498232416410092
50150288 127 16470582282023563053
513202 73 8808172875886143807
5776283 40 18045469085350168460
5951187 136 15865769853598452225
6287921 2 18338512074814276947

> <PUBCHEM_SHAPE_MULTIPOLES>
615.27
8.12
5.48
3.21
4.08
2.86
-0.58
-5.37
4.48
1.33
-1.46
-1.77
-0.19
-5.06

> <PUBCHEM_SHAPE_SELFOVERLAP>
1260.595

> <PUBCHEM_SHAPE_VOLUME>
355.9

> <PUBCHEM_COORDINATE_TYPE>
2
5
10

$$$$

