11762
  -OEChem-06261206052D

 36 39  0     0  0  0  0  0  0999 V2000
    2.9340    0.5000    0.0000 O   0  0  0  0  0  0  0  0  0  0  0  0
    6.3981   -0.5000    0.0000 O   0  0  0  0  0  0  0  0  0  0  0  0
    4.6660    0.5000    0.0000 C   0  0  0  0  0  0  0  0  0  0  0  0
    4.6660   -0.5000    0.0000 C   0  0  0  0  0  0  0  0  0  0  0  0
    3.8000   -1.0000    0.0000 C   0  0  0  0  0  0  0  0  0  0  0  0
    5.5321    1.0000    0.0000 C   0  0  0  0  0  0  0  0  0  0  0  0
    3.8000   -2.0000    0.0000 C   0  0  0  0  0  0  0  0  0  0  0  0
    5.5321    2.0000    0.0000 C   0  0  0  0  0  0  0  0  0  0  0  0
    3.8000    1.0000    0.0000 C   0  0  0  0  0  0  0  0  0  0  0  0
    5.5321   -1.0000    0.0000 C   0  0  0  0  0  0  0  0  0  0  0  0
    2.9061   -0.4653    0.0000 C   0  0  0  0  0  0  0  0  0  0  0  0
    6.4260    0.4653    0.0000 C   0  0  0  0  0  0  0  0  0  0  0  0
    4.6660   -2.5000    0.0000 C   0  0  0  0  0  0  0  0  0  0  0  0
    4.6660    2.5000    0.0000 C   0  0  0  0  0  0  0  0  0  0  0  0
    5.5321   -2.0000    0.0000 C   0  0  0  0  0  0  0  0  0  0  0  0
    3.8000    2.0000    0.0000 C   0  0  0  0  0  0  0  0  0  0  0  0
    6.4260    2.5347    0.0000 C   0  0  0  0  0  0  0  0  0  0  0  0
    2.9061   -2.5347    0.0000 C   0  0  0  0  0  0  0  0  0  0  0  0
    7.3321    0.9792    0.0000 C   0  0  0  0  0  0  0  0  0  0  0  0
    2.0000   -0.9792    0.0000 C   0  0  0  0  0  0  0  0  0  0  0  0
    7.3321    2.0208    0.0000 C   0  0  0  0  0  0  0  0  0  0  0  0
    2.0000   -2.0208    0.0000 C   0  0  0  0  0  0  0  0  0  0  0  0
    2.9132    0.1546    0.0000 H   0  0  0  0  0  0  0  0  0  0  0  0
    6.4188   -0.1546    0.0000 H   0  0  0  0  0  0  0  0  0  0  0  0
    4.6660   -3.1200    0.0000 H   0  0  0  0  0  0  0  0  0  0  0  0
    4.6660    3.1200    0.0000 H   0  0  0  0  0  0  0  0  0  0  0  0
    6.0690   -2.3100    0.0000 H   0  0  0  0  0  0  0  0  0  0  0  0
    3.2631    2.3100    0.0000 H   0  0  0  0  0  0  0  0  0  0  0  0
    2.9132   -3.1546    0.0000 H   0  0  0  0  0  0  0  0  0  0  0  0
    6.4188    3.1546    0.0000 H   0  0  0  0  0  0  0  0  0  0  0  0
    1.4643   -0.6671    0.0000 H   0  0  0  0  0  0  0  0  0  0  0  0
    7.8678    0.6671    0.0000 H   0  0  0  0  0  0  0  0  0  0  0  0
    1.4643   -2.3329    0.0000 H   0  0  0  0  0  0  0  0  0  0  0  0
    7.8678    2.3329    0.0000 H   0  0  0  0  0  0  0  0  0  0  0  0
    6.9350   -0.8100    0.0000 H   0  0  0  0  0  0  0  0  0  0  0  0
    2.3970    0.8100    0.0000 H   0  0  0  0  0  0  0  0  0  0  0  0
  1  9  1  0  0  0  0
  1 36  1  0  0  0  0
  2 10  1  0  0  0  0
  2 35  1  0  0  0  0
  3  4  1  0  0  0  0
  3  6  1  0  0  0  0
  3  9  2  0  0  0  0
  4  5  1  0  0  0  0
  4 10  2  0  0  0  0
  5  7  1  0  0  0  0
  5 11  2  0  0  0  0
  6  8  1  0  0  0  0
  6 12  2  0  0  0  0
  7 13  1  0  0  0  0
  7 18  2  0  0  0  0
  8 14  1  0  0  0  0
  8 17  2  0  0  0  0
  9 16  1  0  0  0  0
 10 15  1  0  0  0  0
 11 20  1  0  0  0  0
 11 23  1  0  0  0  0
 12 19  1  0  0  0  0
 12 24  1  0  0  0  0
 13 15  2  0  0  0  0
 13 25  1  0  0  0  0
 14 16  2  0  0  0  0
 14 26  1  0  0  0  0
 15 27  1  0  0  0  0
 16 28  1  0  0  0  0
 17 21  1  0  0  0  0
 17 30  1  0  0  0  0
 18 22  1  0  0  0  0
 18 29  1  0  0  0  0
 19 21  2  0  0  0  0
 19 32  1  0  0  0  0
 20 22  2  0  0  0  0
 20 31  1  0  0  0  0
 21 34  1  0  0  0  0
 22 33  1  0  0  0  0
M  END
> <PUBCHEM_COMPOUND_CID>
11762

> <PUBCHEM_COMPOUND_CANONICALIZED>
1

> <PUBCHEM_CACTVS_COMPLEXITY>
346

> <PUBCHEM_CACTVS_HBOND_ACCEPTOR>
2

> <PUBCHEM_CACTVS_HBOND_DONOR>
2

> <PUBCHEM_CACTVS_ROTATABLE_BOND>
1

> <PUBCHEM_CACTVS_SUBSKEYS>
AAADccB4MAAAAAAAAAAAAAAAAAAAAAAAAAAwYMGAAAAAAADBVAAAGgAACAAADASAmAAwBsAAAgCAAiBCAAACAAAgIAAIiAAGCIgIJiKCERKAcAAkwBEImAfAwPAOoAADAAAYAABAAAYAADAAAAAAAAAAAA==

> <PUBCHEM_IUPAC_OPENEYE_NAME>
1-(2-hydroxy-1-naphthyl)naphthalen-2-ol

> <PUBCHEM_IUPAC_CAS_NAME>
1-(2-hydroxy-1-naphthalenyl)-2-naphthalenol

> <PUBCHEM_IUPAC_NAME>
1-(2-hydroxynaphthalen-1-yl)naphthalen-2-ol

> <PUBCHEM_IUPAC_SYSTEMATIC_NAME>
1-(2-oxidanylnaphthalen-1-yl)naphthalen-2-ol

> <PUBCHEM_IUPAC_TRADITIONAL_NAME>
1-(2-hydroxy-1-naphthyl)-2-naphthol

> <PUBCHEM_IUPAC_INCHI>
InChI=1S/C20H14O2/c21-17-11-9-13-5-1-3-7-15(13)19(17)20-16-8-4-2-6-14(16)10-12-18(20)22/h1-12,21-22H

> <PUBCHEM_IUPAC_INCHIKEY>
PPTXVXKCQZKFBN-UHFFFAOYSA-N

> <PUBCHEM_XLOGP3_AA>
5.3

> <PUBCHEM_EXACT_MASS>
286.09938

> <PUBCHEM_MOLECULAR_FORMULA>
C20H14O2

> <PUBCHEM_MOLECULAR_WEIGHT>
286.32396

> <PUBCHEM_OPENEYE_CAN_SMILES>
C1=CC=C2C(=C1)C=CC(=C2C3=C(C=CC4=CC=CC=C43)O)O

> <PUBCHEM_OPENEYE_ISO_SMILES>
C1=CC=C2C(=C1)C=CC(=C2C3=C(C=CC4=CC=CC=C43)O)O

> <PUBCHEM_CACTVS_TPSA>
40.5

> <PUBCHEM_MONOISOTOPIC_WEIGHT>
286.09938

> <PUBCHEM_TOTAL_CHARGE>
0

> <PUBCHEM_HEAVY_ATOM_COUNT>
22

> <PUBCHEM_ATOM_DEF_STEREO_COUNT>
0

> <PUBCHEM_ATOM_UDEF_STEREO_COUNT>
0

> <PUBCHEM_BOND_DEF_STEREO_COUNT>
0

> <PUBCHEM_BOND_UDEF_STEREO_COUNT>
0

> <PUBCHEM_ISOTOPIC_ATOM_COUNT>
0

> <PUBCHEM_COMPONENT_COUNT>
1

> <PUBCHEM_CACTVS_TAUTO_COUNT>
17

> <PUBCHEM_COORDINATE_TYPE>
1
5
255

> <PUBCHEM_BONDANNOTATIONS>
10  15  8
11  20  8
12  19  8
13  15  8
14  16  8
17  21  8
18  22  8
19  21  8
20  22  8
3  6  8
3  9  8
4  10  8
4  5  8
5  11  8
5  7  8
6  12  8
6  8  8
7  13  8
7  18  8
8  14  8
8  17  8
9  16  8

$$$$

