443672
  -OEChem-07051213022D

 43 47  0     1  0  0  0  0  0999 V2000
    6.3002   -1.1621    0.0000 O   0  0  0  0  0  0  0  0  0  0  0  0
    8.0819   -0.1517    0.0000 O   0  0  0  0  0  0  0  0  0  0  0  0
    3.4519   -2.7090    0.0000 O   0  0  0  0  0  0  0  0  0  0  0  0
    2.0000   -1.8708    0.0000 O   0  0  0  0  0  0  0  0  0  0  0  0
    8.0321   -1.1821    0.0000 O   0  0  0  0  0  0  0  0  0  0  0  0
    4.5518    1.8725    0.0000 N   0  0  3  0  0  0  0  0  0  0  0  0
    5.4178    1.3725    0.0000 C   0  0  1  0  0  0  0  0  0  0  0  0
    5.4178    0.3725    0.0000 C   0  0  1  0  0  0  0  0  0  0  0  0
    6.3117    1.9072    0.0000 C   0  0  0  0  0  0  0  0  0  0  0  0
    6.3117   -0.1622    0.0000 C   0  0  1  0  0  0  0  0  0  0  0  0
    4.9169    2.7968    0.0000 C   0  0  0  0  0  0  0  0  0  0  0  0
    5.9105    2.8164    0.0000 C   0  0  0  0  0  0  0  0  0  0  0  0
    4.5518   -0.1275    0.0000 C   0  0  0  0  0  0  0  0  0  0  0  0
    3.6857    1.3725    0.0000 C   0  0  0  0  0  0  0  0  0  0  0  0
    7.2178    0.3517    0.0000 C   0  0  2  0  0  0  0  0  0  0  0  0
    3.6857    0.3725    0.0000 C   0  0  0  0  0  0  0  0  0  0  0  0
    7.2178    1.3933    0.0000 C   0  0  0  0  0  0  0  0  0  0  0  0
    4.5678   -1.1690    0.0000 C   0  0  0  0  0  0  0  0  0  0  0  0
    2.7757   -0.1344    0.0000 C   0  0  0  0  0  0  0  0  0  0  0  0
    3.6698   -1.6968    0.0000 C   0  0  0  0  0  0  0  0  0  0  0  0
    2.7677   -1.1760    0.0000 C   0  0  0  0  0  0  0  0  0  0  0  0
    7.1603   -1.6721    0.0000 C   0  0  0  0  0  0  0  0  0  0  0  0
    2.4220   -2.8164    0.0000 C   0  0  0  0  0  0  0  0  0  0  0  0
    7.1488   -2.6720    0.0000 C   0  0  0  0  0  0  0  0  0  0  0  0
    6.1539    0.9475    0.0000 H   0  0  0  0  0  0  0  0  0  0  0  0
    5.4112   -0.4775    0.0000 H   0  0  0  0  0  0  0  0  0  0  0  0
    6.8456   -0.4773    0.0000 H   0  0  0  0  0  0  0  0  0  0  0  0
    4.9863    3.4129    0.0000 H   0  0  0  0  0  0  0  0  0  0  0  0
    4.3153    2.9467    0.0000 H   0  0  0  0  0  0  0  0  0  0  0  0
    6.5057    2.9899    0.0000 H   0  0  0  0  0  0  0  0  0  0  0  0
    5.8168    3.4293    0.0000 H   0  0  0  0  0  0  0  0  0  0  0  0
    3.4737    1.9551    0.0000 H   0  0  0  0  0  0  0  0  0  0  0  0
    3.0752    1.2648    0.0000 H   0  0  0  0  0  0  0  0  0  0  0  0
    7.7553    0.6606    0.0000 H   0  0  0  0  0  0  0  0  0  0  0  0
    7.7535    1.7054    0.0000 H   0  0  0  0  0  0  0  0  0  0  0  0
    5.1083   -1.4728    0.0000 H   0  0  0  0  0  0  0  0  0  0  0  0
    2.2424    0.1818    0.0000 H   0  0  0  0  0  0  0  0  0  0  0  0
    8.6200    0.1563    0.0000 H   0  0  0  0  0  0  0  0  0  0  0  0
    1.8324   -3.0081    0.0000 H   0  0  0  0  0  0  0  0  0  0  0  0
    2.5507   -3.4229    0.0000 H   0  0  0  0  0  0  0  0  0  0  0  0
    6.5288   -2.6648    0.0000 H   0  0  0  0  0  0  0  0  0  0  0  0
    7.1416   -3.2920    0.0000 H   0  0  0  0  0  0  0  0  0  0  0  0
    7.7687   -2.6792    0.0000 H   0  0  0  0  0  0  0  0  0  0  0  0
 10  1  1  1  0  0  0
  1 22  1  0  0  0  0
 15  2  1  6  0  0  0
  2 38  1  0  0  0  0
  3 20  1  0  0  0  0
  3 23  1  0  0  0  0
  4 21  1  0  0  0  0
  4 23  1  0  0  0  0
  5 22  2  0  0  0  0
  6  7  1  0  0  0  0
  6 11  1  0  0  0  0
  6 14  1  0  0  0  0
  7  8  1  0  0  0  0
  7  9  1  0  0  0  0
  7 25  1  1  0  0  0
  8 10  1  0  0  0  0
  8 13  1  0  0  0  0
  8 26  1  6  0  0  0
  9 12  1  0  0  0  0
  9 17  2  0  0  0  0
 10 15  1  0  0  0  0
 10 27  1  0  0  0  0
 11 12  1  0  0  0  0
 11 28  1  0  0  0  0
 11 29  1  0  0  0  0
 12 30  1  0  0  0  0
 12 31  1  0  0  0  0
 13 16  1  0  0  0  0
 13 18  2  0  0  0  0
 14 16  1  0  0  0  0
 14 32  1  0  0  0  0
 14 33  1  0  0  0  0
 15 17  1  0  0  0  0
 15 34  1  0  0  0  0
 16 19  2  0  0  0  0
 17 35  1  0  0  0  0
 18 20  1  0  0  0  0
 18 36  1  0  0  0  0
 19 21  1  0  0  0  0
 19 37  1  0  0  0  0
 20 21  2  0  0  0  0
 22 24  1  0  0  0  0
 23 39  1  0  0  0  0
 23 40  1  0  0  0  0
 24 41  1  0  0  0  0
 24 42  1  0  0  0  0
 24 43  1  0  0  0  0
M  END
> <PUBCHEM_COMPOUND_CID>
443672

> <PUBCHEM_COMPOUND_CANONICALIZED>
1

> <PUBCHEM_CACTVS_COMPLEXITY>
578

> <PUBCHEM_CACTVS_HBOND_ACCEPTOR>
6

> <PUBCHEM_CACTVS_HBOND_DONOR>
1

> <PUBCHEM_CACTVS_ROTATABLE_BOND>
2

> <PUBCHEM_CACTVS_SUBSKEYS>
AAADceB6OAAAAAAAAAAAAAAAAAAAAWJAAAA8QIAAAAAAAFixAAAAHgAACAAADTzhmAcyDoMABgCIAiDSCACCCAAgIAAAiAAOjIgdNiKEsRumcCpmwBGPuAew8P8OoAABAAAQQABAAAIAACCAAAAAAAAAAA==

> <PUBCHEM_IUPAC_INCHI>
InChI=1S/C18H19NO5/c1-9(20)24-18-13(21)4-10-2-3-19-7-11-5-14-15(23-8-22-14)6-12(11)16(18)17(10)19/h4-6,13,16-18,21H,2-3,7-8H2,1H3/t13-,16-,17+,18+/m0/s1

> <PUBCHEM_IUPAC_INCHIKEY>
BIGUPJIJZYZJMV-VIBAHUMZSA-N

> <PUBCHEM_XLOGP3_AA>
0.6

> <PUBCHEM_EXACT_MASS>
329.126323

> <PUBCHEM_MOLECULAR_FORMULA>
C18H19NO5

> <PUBCHEM_MOLECULAR_WEIGHT>
329.34716

> <PUBCHEM_OPENEYE_CAN_SMILES>
CC(=O)OC1C(C=C2CCN3C2C1C4=CC5=C(C=C4C3)OCO5)O

> <PUBCHEM_OPENEYE_ISO_SMILES>
CC(=O)O[C@@H]1[C@H](C=C2CCN3[C@H]2[C@@H]1C4=CC5=C(C=C4C3)OCO5)O

> <PUBCHEM_CACTVS_TPSA>
68.2

> <PUBCHEM_MONOISOTOPIC_WEIGHT>
329.126323

> <PUBCHEM_TOTAL_CHARGE>
0

> <PUBCHEM_HEAVY_ATOM_COUNT>
24

> <PUBCHEM_ATOM_DEF_STEREO_COUNT>
4

> <PUBCHEM_ATOM_UDEF_STEREO_COUNT>
0

> <PUBCHEM_BOND_DEF_STEREO_COUNT>
0

> <PUBCHEM_BOND_UDEF_STEREO_COUNT>
0

> <PUBCHEM_ISOTOPIC_ATOM_COUNT>
0

> <PUBCHEM_COMPONENT_COUNT>
1

> <PUBCHEM_CACTVS_TAUTO_COUNT>
1

> <PUBCHEM_COORDINATE_TYPE>
1
5
255

> <PUBCHEM_BONDANNOTATIONS>
10  1  5
13  16  8
13  18  8
16  19  8
18  20  8
19  21  8
15  2  6
20  21  8
7  25  5
8  26  6

$$$$

