54689800
  -OEChem-07051213123D

 36 38  0     1  0  0  0  0  0999 V2000
    2.3471   -1.4996   -0.4749 O   0  0  0  0  0  0  0  0  0  0  0  0
   -2.2205    1.2603    1.3694 O   0  0  0  0  0  0  0  0  0  0  0  0
   -0.3246   -1.0076   -1.5931 O   0  0  0  0  0  0  0  0  0  0  0  0
   -0.2079    1.9902    2.1379 O   0  0  0  0  0  0  0  0  0  0  0  0
    4.0942    1.2734    0.0260 O   0  0  0  0  0  0  0  0  0  0  0  0
    1.3547    0.5923    0.3198 C   0  0  2  0  0  0  0  0  0  0  0  0
   -0.1469    0.4977    0.2842 C   0  0  0  0  0  0  0  0  0  0  0  0
    1.8893    1.2324   -0.9764 C   0  0  0  0  0  0  0  0  0  0  0  0
    1.9816   -0.7635    0.6074 C   0  0  0  0  0  0  0  0  0  0  0  0
   -0.8657   -0.2359   -0.5870 C   0  0  0  0  0  0  0  0  0  0  0  0
   -2.3288   -0.2619   -0.5212 C   0  0  0  0  0  0  0  0  0  0  0  0
   -0.8336    1.3067    1.3332 C   0  0  0  0  0  0  0  0  0  0  0  0
    3.3893    1.4937   -0.9575 C   0  0  0  0  0  0  0  0  0  0  0  0
   -2.9650    0.4902    0.4602 C   0  0  0  0  0  0  0  0  0  0  0  0
    2.2730   -1.4373    1.7708 C   0  0  0  0  0  0  0  0  0  0  0  0
   -3.1299   -1.0072   -1.3972 C   0  0  0  0  0  0  0  0  0  0  0  0
    2.8549   -2.6662    1.3780 C   0  0  0  0  0  0  0  0  0  0  0  0
   -4.3540    0.5203    0.5920 C   0  0  0  0  0  0  0  0  0  0  0  0
    3.9741    2.0924   -2.2106 C   0  0  0  0  0  0  0  0  0  0  0  0
    2.8775   -2.6559    0.0026 C   0  0  0  0  0  0  0  0  0  0  0  0
   -4.5238   -0.9887   -1.2788 C   0  0  0  0  0  0  0  0  0  0  0  0
   -5.1350   -0.2257   -0.2850 C   0  0  0  0  0  0  0  0  0  0  0  0
    1.6917    1.2364    1.1418 H   0  0  0  0  0  0  0  0  0  0  0  0
    1.3986    2.2007   -1.1370 H   0  0  0  0  0  0  0  0  0  0  0  0
    1.6868    0.6037   -1.8511 H   0  0  0  0  0  0  0  0  0  0  0  0
    2.0895   -1.0879    2.7767 H   0  0  0  0  0  0  0  0  0  0  0  0
   -2.7058   -1.6314   -2.1788 H   0  0  0  0  0  0  0  0  0  0  0  0
    3.2129   -3.4602    2.0172 H   0  0  0  0  0  0  0  0  0  0  0  0
   -4.8256    1.1162    1.3677 H   0  0  0  0  0  0  0  0  0  0  0  0
    3.7748    1.4332   -3.0590 H   0  0  0  0  0  0  0  0  0  0  0  0
    5.0564    2.2009   -2.0974 H   0  0  0  0  0  0  0  0  0  0  0  0
    3.5341    3.0771   -2.3856 H   0  0  0  0  0  0  0  0  0  0  0  0
    3.2196   -3.3566   -0.7449 H   0  0  0  0  0  0  0  0  0  0  0  0
   -5.1321   -1.5745   -1.9623 H   0  0  0  0  0  0  0  0  0  0  0  0
   -0.8549   -0.8928   -2.3986 H   0  0  0  0  0  0  0  0  0  0  0  0
   -6.2171   -0.2145   -0.1958 H   0  0  0  0  0  0  0  0  0  0  0  0
  1  9  1  0  0  0  0
  1 20  1  0  0  0  0
  2 12  1  0  0  0  0
  2 14  1  0  0  0  0
  3 10  1  0  0  0  0
  3 35  1  0  0  0  0
  4 12  2  0  0  0  0
  5 13  2  0  0  0  0
  6  7  1  0  0  0  0
  6  8  1  0  0  0  0
  6  9  1  0  0  0  0
  6 23  1  0  0  0  0
  7 10  2  0  0  0  0
  7 12  1  0  0  0  0
  8 13  1  0  0  0  0
  8 24  1  0  0  0  0
  8 25  1  0  0  0  0
  9 15  2  0  0  0  0
 10 11  1  0  0  0  0
 11 14  1  0  0  0  0
 11 16  2  0  0  0  0
 13 19  1  0  0  0  0
 14 18  2  0  0  0  0
 15 17  1  0  0  0  0
 15 26  1  0  0  0  0
 16 21  1  0  0  0  0
 16 27  1  0  0  0  0
 17 20  2  0  0  0  0
 17 28  1  0  0  0  0
 18 22  1  0  0  0  0
 18 29  1  0  0  0  0
 19 30  1  0  0  0  0
 19 31  1  0  0  0  0
 19 32  1  0  0  0  0
 20 33  1  0  0  0  0
 21 22  2  0  0  0  0
 21 34  1  0  0  0  0
 22 36  1  0  0  0  0
M  END
> <PUBCHEM_COMPOUND_CID>
54689800

> <PUBCHEM_CONFORMER_RMSD>
0.6

> <PUBCHEM_CONFORMER_DIVERSEORDER>
4
140
44
173
145
95
130
134
49
94
89
82
53
98
118
165
136
76
153
107
57
171
135
168
45
26
86
125
105
97
122
88
87
32
117
47
102
133
78
129
166
55
161
100
148
127
159
46
91
172
141
71
14
42
50
59
155
64
126
103
65
92
110
143
142
30
33
109
60
169
70
112
164
20
138
111
39
121
29
48
162
150
34
120
128
74
119
156
167
116
10
123
68
61
21
83
84
75
147
108
144
80
37
19
114
154
52
77
132
160
85
41
152
56
58
6
38
137
146
13
62
113
149
9
106
63
12
54
124
24
151
28
23
139
40
163
66
3
79
99
51
72
11
67
8
115
131
73
16
18
158
31
69
90
170
7
25
36
2
104
15
81
27
43
5
101
22
96
157
35
1
93
17

> <PUBCHEM_MMFF94_PARTIAL_CHARGES>
30
1 -0.28
10 0.05
11 0.03
12 0.71
13 0.45
14 0.08
15 -0.15
16 -0.15
17 -0.15
18 -0.15
19 0.06
2 -0.23
20 -0.01
21 -0.15
22 -0.15
26 0.15
27 0.15
28 0.15
29 0.15
3 -0.53
33 0.15
34 0.15
35 0.45
36 0.15
4 -0.57
5 -0.57
6 0.32
7 -0.12
8 0.06
9 -0.04

> <PUBCHEM_EFFECTIVE_ROTOR_COUNT>
4

> <PUBCHEM_PHARMACOPHORE_FEATURES>
7
1 1 acceptor
1 3 donor
1 4 acceptor
1 5 acceptor
5 1 9 15 17 20 rings
6 11 14 16 18 21 22 rings
6 2 7 10 11 12 14 rings

> <PUBCHEM_HEAVY_ATOM_COUNT>
22

> <PUBCHEM_ATOM_DEF_STEREO_COUNT>
0

> <PUBCHEM_ATOM_UDEF_STEREO_COUNT>
1

> <PUBCHEM_BOND_DEF_STEREO_COUNT>
0

> <PUBCHEM_BOND_UDEF_STEREO_COUNT>
0

> <PUBCHEM_ISOTOPIC_ATOM_COUNT>
0

> <PUBCHEM_COMPONENT_COUNT>
1

> <PUBCHEM_CACTVS_TAUTO_COUNT>
9

> <PUBCHEM_CONFORMER_ID>
0342800800000004

> <PUBCHEM_MMFF94_ENERGY>
55.3998

> <PUBCHEM_FEATURE_SELFOVERLAP>
35.547

> <PUBCHEM_SHAPE_FINGERPRINT>
10554248 39 18264498441928795661
10759866 29 18409162216711611109
11578080 2 18120686696638602104
11725454 13 16342865313290195932
12236239 1 18335420171012969348
12553582 1 17676210143891638167
12592029 89 17917715665187674852
12788726 201 17968083262027201753
13009979 54 18043527433462075882
13257819 101 16414918522577582316
13631057 29 17981885238228214183
14022347 108 17458622285559113705
15375358 24 16487259837480418413
15375462 189 18260832579197076977
15502722 9 18060702784134414286
15537594 2 18187922834031614439
15842332 3 18190726712561288112
16752209 62 17676204697619957669
17818456 19 17974289025692336121
1813 80 18124314067519452654
18186145 218 15984822692189575205
18915476 22 17703779319457184362
19078846 21 17821732740989363121
20559304 39 18113345223112984938
20600515 1 16878524357322984931
20645477 70 18059861683451271835
20715895 44 17759244385896341849
21054139 6 18194971742430792958
2255824 54 18272651285603551058
23557571 272 16298389084314386633
23559900 14 18340494459877175323
23598291 2 18266447887859033921
25147074 1 18263633121086118624
266924 1 18335409214667675728
3004659 81 18336831991140337759
312423 11 18337664325600089131
3286 77 17059786648775177010
394222 165 18341052900504858234
4340502 62 18130504137299305955
474 4 18201994379395833388
633830 44 17775290512536050537
6823239 73 16443345317101932297
7615 1 18336262461059713721
77492 1 18335699472393337001
81539 233 17846213311605100268
8272917 22 18202562886461695454
90316 7 17895761841091133185

> <PUBCHEM_SHAPE_MULTIPOLES>
423.4
8.81
2.43
1.81
6.29
0.97
0.27
-0.35
-2.55
-4.39
-0.05
0.15
-0.48
-2.18

> <PUBCHEM_SHAPE_SELFOVERLAP>
925.565

> <PUBCHEM_SHAPE_VOLUME>
227.8

> <PUBCHEM_COORDINATE_TYPE>
2
5
10

$$$$

