5280402
  -OEChem-07051212453D

 40 42  0     0  0  0  0  0  0999 V2000
    0.1898   -3.1038    0.1297 S   0  0  0  0  0  0  0  0  0  0  0  0
    4.8684   -0.0662   -1.3336 S   0  0  0  0  0  0  0  0  0  0  0  0
   -1.3903    1.4992    0.1269 O   0  0  0  0  0  0  0  0  0  0  0  0
   -0.0808   -1.8128    1.0773 O   0  0  0  0  0  0  0  0  0  0  0  0
    3.9731    1.2908   -1.0908 O   0  0  0  0  0  0  0  0  0  0  0  0
   -5.1557   -1.5372   -0.1724 O   0  0  0  0  0  0  0  0  0  0  0  0
   -2.7626   -2.3156    0.5376 O   0  0  0  0  0  0  0  0  0  0  0  0
   -5.6767    3.0764   -1.1660 O   0  0  0  0  0  0  0  0  0  0  0  0
    4.7330    2.1643    1.4347 O   0  0  0  0  0  0  0  0  0  0  0  0
    1.3406   -3.9450    0.9248 O   0  0  0  0  0  0  0  0  0  0  0  0
    0.7511   -2.6586   -1.1325 O   0  0  0  0  0  0  0  0  0  0  0  0
   -1.0230   -3.9006    0.1464 O   0  0  0  0  0  0  0  0  0  0  0  0
    5.8968    0.3529   -2.5301 O   0  0  0  0  0  0  0  0  0  0  0  0
    5.6543   -0.3334   -0.1431 O   0  0  0  0  0  0  0  0  0  0  0  0
    3.9832   -1.0882   -1.8615 O   0  0  0  0  0  0  0  0  0  0  0  0
   -0.5491    0.4651    0.5060 C   0  0  0  0  0  0  0  0  0  0  0  0
   -3.2372   -0.0702   -0.0056 C   0  0  0  0  0  0  0  0  0  0  0  0
   -2.7070    1.2125   -0.1253 C   0  0  0  0  0  0  0  0  0  0  0  0
    0.8354    0.9092    0.7463 C   0  0  0  0  0  0  0  0  0  0  0  0
   -0.9364   -0.8134    0.6668 C   0  0  0  0  0  0  0  0  0  0  0  0
   -2.3526   -1.1697    0.4096 C   0  0  0  0  0  0  0  0  0  0  0  0
   -4.5882   -0.3033   -0.2747 C   0  0  0  0  0  0  0  0  0  0  0  0
   -3.5260    2.2725   -0.5152 C   0  0  0  0  0  0  0  0  0  0  0  0
    1.7643    0.8922   -0.2945 C   0  0  0  0  0  0  0  0  0  0  0  0
    1.2176    1.3474    2.0144 C   0  0  0  0  0  0  0  0  0  0  0  0
   -5.4052    0.7585   -0.6651 C   0  0  0  0  0  0  0  0  0  0  0  0
   -4.8753    2.0439   -0.7851 C   0  0  0  0  0  0  0  0  0  0  0  0
    3.0745    1.3133   -0.0673 C   0  0  0  0  0  0  0  0  0  0  0  0
    2.5278    1.7685    2.2415 C   0  0  0  0  0  0  0  0  0  0  0  0
    3.4562    1.7514    1.2007 C   0  0  0  0  0  0  0  0  0  0  0  0
   -3.1155    3.2747   -0.6092 H   0  0  0  0  0  0  0  0  0  0  0  0
    1.4730    0.5539   -1.2865 H   0  0  0  0  0  0  0  0  0  0  0  0
    0.5050    1.3668    2.8355 H   0  0  0  0  0  0  0  0  0  0  0  0
   -6.4570    0.5786   -0.8749 H   0  0  0  0  0  0  0  0  0  0  0  0
    2.8190    2.1085    3.2316 H   0  0  0  0  0  0  0  0  0  0  0  0
   -4.4963   -2.1939    0.0988 H   0  0  0  0  0  0  0  0  0  0  0  0
   -6.5775    2.7397   -1.3113 H   0  0  0  0  0  0  0  0  0  0  0  0
    5.2324    2.1103    0.6018 H   0  0  0  0  0  0  0  0  0  0  0  0
    1.1827   -4.0649    1.8907 H   0  0  0  0  0  0  0  0  0  0  0  0
    5.4842    0.8154   -3.2970 H   0  0  0  0  0  0  0  0  0  0  0  0
  1  4  1  0  0  0  0
  1 10  1  0  0  0  0
  1 11  2  0  0  0  0
  1 12  2  0  0  0  0
  2  5  1  0  0  0  0
  2 13  1  0  0  0  0
  2 14  2  0  0  0  0
  2 15  2  0  0  0  0
  3 16  1  0  0  0  0
  3 18  1  0  0  0  0
  4 20  1  0  0  0  0
  5 28  1  0  0  0  0
  6 22  1  0  0  0  0
  6 36  1  0  0  0  0
  7 21  2  0  0  0  0
  8 27  1  0  0  0  0
  8 37  1  0  0  0  0
  9 30  1  0  0  0  0
  9 38  1  0  0  0  0
 10 39  1  0  0  0  0
 13 40  1  0  0  0  0
 16 19  1  0  0  0  0
 16 20  2  0  0  0  0
 17 18  1  0  0  0  0
 17 21  1  0  0  0  0
 17 22  2  0  0  0  0
 18 23  2  0  0  0  0
 19 24  2  0  0  0  0
 19 25  1  0  0  0  0
 20 21  1  0  0  0  0
 22 26  1  0  0  0  0
 23 27  1  0  0  0  0
 23 31  1  0  0  0  0
 24 28  1  0  0  0  0
 24 32  1  0  0  0  0
 25 29  2  0  0  0  0
 25 33  1  0  0  0  0
 26 27  2  0  0  0  0
 26 34  1  0  0  0  0
 28 30  2  0  0  0  0
 29 30  1  0  0  0  0
 29 35  1  0  0  0  0
M  END
> <PUBCHEM_COMPOUND_CID>
5280402

> <PUBCHEM_CONFORMER_RMSD>
0.8

> <PUBCHEM_CONFORMER_DIVERSEORDER>
1
26
30
11
9
6
14
8
24
23
33
31
5
21
27
16
22
7
17
29
20
10
32
15
28
13
3
19
25
12
4
18
2

> <PUBCHEM_MMFF94_PARTIAL_CHARGES>
40
1 1.67
10 -0.68
11 -0.65
12 -0.65
13 -0.68
14 -0.65
15 -0.65
16 0.05
17 0.09
18 0.08
19 0.03
2 1.67
20 0.09
21 0.47
22 0.08
23 -0.15
24 -0.15
25 -0.15
26 -0.15
27 0.08
28 0.08
29 -0.15
3 -0.16
30 0.08
31 0.15
32 0.15
33 0.15
34 0.15
35 0.15
36 0.45
37 0.45
38 0.45
39 0.5
4 -0.26
40 0.5
5 -0.27
6 -0.53
7 -0.57
8 -0.53
9 -0.53

> <PUBCHEM_EFFECTIVE_ROTOR_COUNT>
5

> <PUBCHEM_PHARMACOPHORE_FEATURES>
16
1 10 acceptor
1 11 acceptor
1 12 acceptor
1 13 acceptor
1 14 acceptor
1 15 acceptor
1 3 acceptor
1 6 donor
1 7 acceptor
1 8 donor
1 9 donor
4 1 10 11 12 anion
4 2 13 14 15 anion
6 17 18 22 23 26 27 rings
6 19 24 25 28 29 30 rings
6 3 16 17 18 20 21 rings

> <PUBCHEM_HEAVY_ATOM_COUNT>
30

> <PUBCHEM_ATOM_DEF_STEREO_COUNT>
0

> <PUBCHEM_ATOM_UDEF_STEREO_COUNT>
0

> <PUBCHEM_BOND_DEF_STEREO_COUNT>
0

> <PUBCHEM_BOND_UDEF_STEREO_COUNT>
0

> <PUBCHEM_ISOTOPIC_ATOM_COUNT>
0

> <PUBCHEM_COMPONENT_COUNT>
1

> <PUBCHEM_CACTVS_TAUTO_COUNT>
69

> <PUBCHEM_CONFORMER_ID>
0050929200000001

> <PUBCHEM_MMFF94_ENERGY>
82.4585

> <PUBCHEM_FEATURE_SELFOVERLAP>
81.37

> <PUBCHEM_SHAPE_FINGERPRINT>
10411042 1 17405155028398534347
10670039 82 18131072653567636597
107951 10 17704060785744253882
11578080 2 17344078617784791111
12236239 1 17274275966902154384
12390115 104 18410572933940239265
12403259 415 18408039593912599777
13140716 1 18196383735205562089
13402501 40 18188202105273293062
13544592 145 18260825952083813512
13617811 41 18272933791804748109
13782708 43 18041559139996880911
14251757 17 18260539035478620590
14840074 17 16845569829444358653
14931854 50 18263062458167993270
15183329 4 18342735247605664732
16752209 62 18270407066237812307
19315092 285 14635989171006941758
20642791 178 18053667150804116523
20645477 70 17240475884743323604
21033648 29 18189914040340622209
21279426 13 18334293197358924134
21781051 124 18129934569102436443
22393880 68 18261118473832447687
23366157 5 17843696692677234347
23559900 14 18260825943842421800
27425 322 16844993655233417164
3004659 81 18200591518976673114
3298306 158 18335424581691473622
3729539 64 18189887781211007486
4015057 19 17168145585555947296
508706 21 18265052435826046759
5265222 85 18269541755430313740
56616090 163 18341610460406405933
6669772 16 17894924988183075158
9709674 26 18044937874936025346
9981440 41 18343029869862202459

> <PUBCHEM_SHAPE_MULTIPOLES>
548.78
12.2
3.78
1.65
0.24
3.73
0.1
-6.63
6.38
-1.39
-0.6
2.65
-0.56
2.25

> <PUBCHEM_SHAPE_SELFOVERLAP>
1186.823

> <PUBCHEM_SHAPE_VOLUME>
301.6

> <PUBCHEM_COORDINATE_TYPE>
2
5
10

$$$$

