440774
  -OEChem-07051212503D

 24 23  0     1  0  0  0  0  0999 V2000
    2.3131   -0.5609    0.1352 P   0  0  0  0  0  0  0  0  0  0  0  0
    0.8365    0.0332    0.4243 O   0  0  0  0  0  0  0  0  0  0  0  0
    1.0644    2.0303   -0.6686 O   0  0  0  0  0  0  0  0  0  0  0  0
   -1.3781   -2.5297   -0.1121 O   0  0  0  0  0  0  0  0  0  0  0  0
   -2.9673   -1.2642    0.9028 O   0  0  0  0  0  0  0  0  0  0  0  0
    2.2411   -2.0714    0.7076 O   0  0  0  0  0  0  0  0  0  0  0  0
    2.3124   -0.7680   -1.4682 O   0  0  0  0  0  0  0  0  0  0  0  0
    3.4409    0.2738    0.6673 O   0  0  0  0  0  0  0  0  0  0  0  0
   -1.1363    2.9179    0.6915 N   0  0  0  0  0  0  0  0  0  0  0  0
   -1.0312    1.4789    0.4393 C   0  0  1  0  0  0  0  0  0  0  0  0
   -2.0460    1.0478   -0.6291 C   0  0  0  0  0  0  0  0  0  0  0  0
   -1.8891   -0.4061   -1.0787 C   0  0  0  0  0  0  0  0  0  0  0  0
    0.3956    1.2436   -0.0112 C   0  0  0  0  0  0  0  0  0  0  0  0
   -2.1560   -1.4252    0.0000 C   0  0  0  0  0  0  0  0  0  0  0  0
   -1.2009    0.9552    1.3861 H   0  0  0  0  0  0  0  0  0  0  0  0
   -3.0632    1.2097   -0.2502 H   0  0  0  0  0  0  0  0  0  0  0  0
   -1.9370    1.6811   -1.5199 H   0  0  0  0  0  0  0  0  0  0  0  0
   -2.6038   -0.6100   -1.8850 H   0  0  0  0  0  0  0  0  0  0  0  0
   -0.8906   -0.5714   -1.4971 H   0  0  0  0  0  0  0  0  0  0  0  0
   -2.0772    3.1351    1.0190 H   0  0  0  0  0  0  0  0  0  0  0  0
   -1.0226    3.4324   -0.1817 H   0  0  0  0  0  0  0  0  0  0  0  0
   -1.5522   -3.1749    0.6061 H   0  0  0  0  0  0  0  0  0  0  0  0
    3.0561   -2.6174    0.7099 H   0  0  0  0  0  0  0  0  0  0  0  0
    3.1456   -1.0323   -1.9131 H   0  0  0  0  0  0  0  0  0  0  0  0
  1  2  1  0  0  0  0
  1  6  1  0  0  0  0
  1  7  1  0  0  0  0
  1  8  2  0  0  0  0
  2 13  1  0  0  0  0
  3 13  2  0  0  0  0
  4 14  1  0  0  0  0
  4 22  1  0  0  0  0
  5 14  2  0  0  0  0
  6 23  1  0  0  0  0
  7 24  1  0  0  0  0
  9 10  1  0  0  0  0
  9 20  1  0  0  0  0
  9 21  1  0  0  0  0
 10 11  1  0  0  0  0
 10 13  1  0  0  0  0
 10 15  1  0  0  0  0
 11 12  1  0  0  0  0
 11 16  1  0  0  0  0
 11 17  1  0  0  0  0
 12 14  1  0  0  0  0
 12 18  1  0  0  0  0
 12 19  1  0  0  0  0
M  END
> <PUBCHEM_COMPOUND_CID>
440774

> <PUBCHEM_CONFORMER_RMSD>
0.6

> <PUBCHEM_CONFORMER_DIVERSEORDER>
1
49
145
105
45
223
9
217
197
221
231
135
46
115
2
184
206
74
103
142
188
79
214
66
219
218
222
181
3
23
86
175
16
234
162
83
97
110
196
93
199
168
227
171
32
144
228
11
64
209
226
28
51
73
76
67
201
80
87
216
55
63
112
224
102
173
96
36
134
138
137
56
27
122
5
129
177
150
25
211
215
18
136
210
121
61
99
185
84
161
89
17
54
193
207
154
53
165
33
186
229
29
159
40
230
7
38
126
232
116
146
139
82
34
179
132
220
120
108
131
191
59
85
194
81
172
128
187
60
123
198
15
190
124
88
192
164
140
170
24
98
157
113
156
68
31
180
20
174
166
94
130
155
70
90
148
163
176
69
233
195
203
39
107
65
183
200
143
71
158
104
42
127
169
167
41
208
147
62
182
125
78
141
160
14
225
118
133
13
153
204
92
50
95
119
114
47
117
57
189
35
10
75
212
111
52
149
213
26
109
6
202
58
43
72
30
100
37
19
8
22
91
106
21
77
101
205
152
4
178
12
48
151
44

> <PUBCHEM_MMFF94_PARTIAL_CHARGES>
18
1 1.51
10 0.33
12 0.06
13 0.66
14 0.66
2 -0.42
20 0.36
21 0.36
22 0.5
23 0.5
24 0.5
3 -0.57
4 -0.65
5 -0.57
6 -0.77
7 -0.77
8 -0.7
9 -0.99

> <PUBCHEM_EFFECTIVE_ROTOR_COUNT>
6

> <PUBCHEM_PHARMACOPHORE_FEATURES>
10
1 3 acceptor
1 4 acceptor
1 5 acceptor
1 6 acceptor
1 7 acceptor
1 8 acceptor
1 9 cation
1 9 donor
3 4 5 14 anion
4 1 6 7 8 anion

> <PUBCHEM_HEAVY_ATOM_COUNT>
14

> <PUBCHEM_ATOM_DEF_STEREO_COUNT>
1

> <PUBCHEM_ATOM_UDEF_STEREO_COUNT>
0

> <PUBCHEM_BOND_DEF_STEREO_COUNT>
0

> <PUBCHEM_BOND_UDEF_STEREO_COUNT>
0

> <PUBCHEM_ISOTOPIC_ATOM_COUNT>
0

> <PUBCHEM_COMPONENT_COUNT>
1

> <PUBCHEM_CACTVS_TAUTO_COUNT>
1

> <PUBCHEM_CONFORMER_ID>
0006B9C600000001

> <PUBCHEM_MMFF94_ENERGY>
-21.4482

> <PUBCHEM_FEATURE_SELFOVERLAP>
50.838

> <PUBCHEM_SHAPE_FINGERPRINT>
12382932 28 18189618250205634771
14251711 518 18339090310498535586
15001771 113 18412543189176366125
16945 1 18340772558930138564
19766037 51 18198319811013702919
20201158 50 18269848540011391959
20645476 183 17985529289907039381
20871998 184 18186803616529213301
21061003 4 18116720603540876945
22721475 48 18268991990414827255
22802520 49 17971462146858243470
23532345 11 18266751353479367226
23552423 10 18271242707886185085
2748010 2 18266180706549250118
66348 1 18194970857519797519
75552 356 18410584997685007438
81228 2 18262801890295740705

> <PUBCHEM_SHAPE_MULTIPOLES>
245.9
4.4
2.74
1.01
2.12
0.42
-0.21
-1.73
0.34
-1.09
0.45
0.05
-0.07
-0.04

> <PUBCHEM_SHAPE_SELFOVERLAP>
463.447

> <PUBCHEM_SHAPE_VOLUME>
152.1

> <PUBCHEM_COORDINATE_TYPE>
2
5
10

$$$$

