15126294
  -OEChem-07051213082D

 53 56  0     1  0  0  0  0  0999 V2000
   10.3474   -1.2743    0.0000 O   0  0  0  0  0  0  0  0  0  0  0  0
    8.6155   -1.2543    0.0000 O   0  0  0  0  0  0  0  0  0  0  0  0
   10.3127   -4.2741    0.0000 O   0  0  0  0  0  0  0  0  0  0  0  0
   12.0562   -3.2942    0.0000 O   0  0  0  0  0  0  0  0  0  0  0  0
    8.5923   -3.2542    0.0000 O   0  0  0  0  0  0  0  0  0  0  0  0
   12.9395   -1.8043    0.0000 O   0  0  0  0  0  0  0  0  0  0  0  0
    6.8671    1.7803    0.0000 O   0  3  0  0  0  0  0  0  0  0  0  0
   10.3972    1.8044    0.0000 O   0  0  0  0  0  0  0  0  0  0  0  0
    5.1350   -0.2197    0.0000 O   0  0  0  0  0  0  0  0  0  0  0  0
    4.2690    4.2803    0.0000 O   0  0  0  0  0  0  0  0  0  0  0  0
    2.5369    3.2803    0.0000 O   0  0  0  0  0  0  0  0  0  0  0  0
   10.3243   -3.2742    0.0000 C   0  0  1  0  0  0  0  0  0  0  0  0
   11.1960   -2.7842    0.0000 C   0  0  1  0  0  0  0  0  0  0  0  0
    9.4641   -2.7642    0.0000 C   0  0  2  0  0  0  0  0  0  0  0  0
   11.2076   -1.7843    0.0000 C   0  0  1  0  0  0  0  0  0  0  0  0
    9.4756   -1.7643    0.0000 C   0  0  1  0  0  0  0  0  0  0  0  0
   12.0793   -1.2943    0.0000 C   0  0  0  0  0  0  0  0  0  0  0  0
    8.6270   -0.2544    0.0000 C   0  0  0  0  0  0  0  0  0  0  0  0
    7.7331    0.2803    0.0000 C   0  0  0  0  0  0  0  0  0  0  0  0
    9.5331    0.2595    0.0000 C   0  0  0  0  0  0  0  0  0  0  0  0
    7.7331    1.2803    0.0000 C   0  0  0  0  0  0  0  0  0  0  0  0
    6.8671   -0.2197    0.0000 C   0  0  0  0  0  0  0  0  0  0  0  0
    9.5331    1.3011    0.0000 C   0  0  0  0  0  0  0  0  0  0  0  0
    8.6270    1.8150    0.0000 C   0  0  0  0  0  0  0  0  0  0  0  0
    6.0010    1.2803    0.0000 C   0  0  0  0  0  0  0  0  0  0  0  0
    6.0010    0.2803    0.0000 C   0  0  0  0  0  0  0  0  0  0  0  0
    5.1350    1.7803    0.0000 C   0  0  0  0  0  0  0  0  0  0  0  0
    5.1350    2.7803    0.0000 C   0  0  0  0  0  0  0  0  0  0  0  0
    4.2690    1.2803    0.0000 C   0  0  0  0  0  0  0  0  0  0  0  0
    4.2690    3.2803    0.0000 C   0  0  0  0  0  0  0  0  0  0  0  0
    3.4030    1.7803    0.0000 C   0  0  0  0  0  0  0  0  0  0  0  0
    3.4030    2.7803    0.0000 C   0  0  0  0  0  0  0  0  0  0  0  0
   10.8576   -3.5904    0.0000 H   0  0  0  0  0  0  0  0  0  0  0  0
   11.1889   -3.4042    0.0000 H   0  0  0  0  0  0  0  0  0  0  0  0
    8.9308   -2.4480    0.0000 H   0  0  0  0  0  0  0  0  0  0  0  0
   11.2148   -1.1643    0.0000 H   0  0  0  0  0  0  0  0  0  0  0  0
    8.9352   -2.0680    0.0000 H   0  0  0  0  0  0  0  0  0  0  0  0
   12.4833   -0.8240    0.0000 H   0  0  0  0  0  0  0  0  0  0  0  0
   11.6863   -0.8148    0.0000 H   0  0  0  0  0  0  0  0  0  0  0  0
   10.8460   -4.5903    0.0000 H   0  0  0  0  0  0  0  0  0  0  0  0
   12.0490   -3.9142    0.0000 H   0  0  0  0  0  0  0  0  0  0  0  0
    8.5852   -3.8741    0.0000 H   0  0  0  0  0  0  0  0  0  0  0  0
   13.4800   -1.5006    0.0000 H   0  0  0  0  0  0  0  0  0  0  0  0
   10.0688   -0.0526    0.0000 H   0  0  0  0  0  0  0  0  0  0  0  0
    6.8671   -0.8397    0.0000 H   0  0  0  0  0  0  0  0  0  0  0  0
    8.6199    2.4349    0.0000 H   0  0  0  0  0  0  0  0  0  0  0  0
    5.6720    3.0903    0.0000 H   0  0  0  0  0  0  0  0  0  0  0  0
    4.2690    0.6603    0.0000 H   0  0  0  0  0  0  0  0  0  0  0  0
   10.3948    2.4245    0.0000 H   0  0  0  0  0  0  0  0  0  0  0  0
    5.1350   -0.8397    0.0000 H   0  0  0  0  0  0  0  0  0  0  0  0
    2.8660    1.4703    0.0000 H   0  0  0  0  0  0  0  0  0  0  0  0
    3.7320    4.5903    0.0000 H   0  0  0  0  0  0  0  0  0  0  0  0
    2.0000    2.9703    0.0000 H   0  0  0  0  0  0  0  0  0  0  0  0
  1 15  1  0  0  0  0
  1 16  1  0  0  0  0
 16  2  1  6  0  0  0
  2 18  1  0  0  0  0
 12  3  1  6  0  0  0
  3 40  1  0  0  0  0
 13  4  1  1  0  0  0
  4 41  1  0  0  0  0
 14  5  1  1  0  0  0
  5 42  1  0  0  0  0
  6 17  1  0  0  0  0
  6 43  1  0  0  0  0
  7 21  2  0  0  0  0
  7 25  1  0  0  0  0
  8 23  1  0  0  0  0
  8 49  1  0  0  0  0
  9 26  1  0  0  0  0
  9 50  1  0  0  0  0
 10 30  1  0  0  0  0
 10 52  1  0  0  0  0
 11 32  1  0  0  0  0
 11 53  1  0  0  0  0
 12 13  1  0  0  0  0
 12 14  1  0  0  0  0
 12 33  1  0  0  0  0
 13 15  1  0  0  0  0
 13 34  1  0  0  0  0
 14 16  1  0  0  0  0
 14 35  1  0  0  0  0
 15 17  1  6  0  0  0
 15 36  1  0  0  0  0
 16 37  1  0  0  0  0
 17 38  1  0  0  0  0
 17 39  1  0  0  0  0
 18 19  1  0  0  0  0
 18 20  2  0  0  0  0
 19 21  1  0  0  0  0
 19 22  2  0  0  0  0
 20 23  1  0  0  0  0
 20 44  1  0  0  0  0
 21 24  1  0  0  0  0
 22 26  1  0  0  0  0
 22 45  1  0  0  0  0
 23 24  2  0  0  0  0
 24 46  1  0  0  0  0
 25 26  2  0  0  0  0
 25 27  1  0  0  0  0
 27 28  2  0  0  0  0
 27 29  1  0  0  0  0
 28 30  1  0  0  0  0
 28 47  1  0  0  0  0
 29 31  2  0  0  0  0
 29 48  1  0  0  0  0
 30 32  2  0  0  0  0
 31 32  1  0  0  0  0
 31 51  1  0  0  0  0
M  CHG  1   7   1
M  END
> <PUBCHEM_COMPOUND_CID>
15126294

> <PUBCHEM_COMPOUND_CANONICALIZED>
1

> <PUBCHEM_CACTVS_COMPLEXITY>
623

> <PUBCHEM_CACTVS_HBOND_ACCEPTOR>
10

> <PUBCHEM_CACTVS_HBOND_DONOR>
8

> <PUBCHEM_CACTVS_ROTATABLE_BOND>
4

> <PUBCHEM_CACTVS_SUBSKEYS>
AAADceB4PAAAAAAAAAAAAAAAAAAAAAAAAAA0aIEAAAAAAACR9AAAGgAACAAADBSwmAMwDsAABkCIAqBSAAICCAAkIAAIiAFGiMgdNzaGNRqieWOl4BUPuYfK7PzOIAABCAAIQABAAAIQABCAAAAAAAAAAA==

> <PUBCHEM_IUPAC_OPENEYE_NAME>
(2S,3R,4S,5S,6R)-2-[2-(3,4-dihydroxyphenyl)-3,7-dihydroxy-chromenylium-5-yl]oxy-6-(hydroxymethyl)tetrahydropyran-3,4,5-triol

> <PUBCHEM_IUPAC_CAS_NAME>
(2S,3R,4S,5S,6R)-2-[[2-(3,4-dihydroxyphenyl)-3,7-dihydroxy-1-benzopyrylium-5-yl]oxy]-6-(hydroxymethyl)oxane-3,4,5-triol

> <PUBCHEM_IUPAC_NAME>
(2S,3R,4S,5S,6R)-2-[2-(3,4-dihydroxyphenyl)-3,7-dihydroxychromenylium-5-yl]oxy-6-(hydroxymethyl)oxane-3,4,5-triol

> <PUBCHEM_IUPAC_SYSTEMATIC_NAME>
(2S,3R,4S,5S,6R)-2-[2-[3,4-bis(oxidanyl)phenyl]-3,7-bis(oxidanyl)chromenylium-5-yl]oxy-6-(hydroxymethyl)oxane-3,4,5-triol

> <PUBCHEM_IUPAC_TRADITIONAL_NAME>
(2S,3R,4S,5S,6R)-2-[[2-(3,4-dihydroxyphenyl)-3,7-dihydroxy-1-benzopyrylium-5-yl]oxy]-6-methylol-tetrahydropyran-3,4,5-triol

> <PUBCHEM_IUPAC_INCHI>
InChI=1S/C21H20O11/c22-7-16-17(27)18(28)19(29)21(32-16)31-15-5-9(23)4-14-10(15)6-13(26)20(30-14)8-1-2-11(24)12(25)3-8/h1-6,16-19,21-22,27-29H,7H2,(H3-,23,24,25,26)/p+1/t16-,17-,18+,19-,21-/m1/s1

> <PUBCHEM_IUPAC_INCHIKEY>
PWORRIQTGXEXBH-GQUPQBGVSA-O

> <PUBCHEM_EXACT_MASS>
449.108386

> <PUBCHEM_MOLECULAR_FORMULA>
C21H21O11+

> <PUBCHEM_MOLECULAR_WEIGHT>
449.38484

> <PUBCHEM_OPENEYE_CAN_SMILES>
C1=CC(=C(C=C1C2=C(C=C3C(=CC(=CC3=[O+]2)O)OC4C(C(C(C(O4)CO)O)O)O)O)O)O

> <PUBCHEM_OPENEYE_ISO_SMILES>
C1=CC(=C(C=C1C2=C(C=C3C(=CC(=CC3=[O+]2)O)O[C@H]4[C@@H]([C@H]([C@@H]([C@H](O4)CO)O)O)O)O)O)O

> <PUBCHEM_CACTVS_TPSA>
181

> <PUBCHEM_MONOISOTOPIC_WEIGHT>
449.108386

> <PUBCHEM_TOTAL_CHARGE>
1

> <PUBCHEM_HEAVY_ATOM_COUNT>
32

> <PUBCHEM_ATOM_DEF_STEREO_COUNT>
5

> <PUBCHEM_ATOM_UDEF_STEREO_COUNT>
0

> <PUBCHEM_BOND_DEF_STEREO_COUNT>
0

> <PUBCHEM_BOND_UDEF_STEREO_COUNT>
0

> <PUBCHEM_ISOTOPIC_ATOM_COUNT>
0

> <PUBCHEM_COMPONENT_COUNT>
1

> <PUBCHEM_CACTVS_TAUTO_COUNT>
224

> <PUBCHEM_COORDINATE_TYPE>
1
5
255

> <PUBCHEM_BONDANNOTATIONS>
15  17  6
18  19  8
18  20  8
19  21  8
19  22  8
16  2  6
20  23  8
21  24  8
22  26  8
23  24  8
25  26  8
27  28  8
27  29  8
28  30  8
29  31  8
12  3  6
30  32  8
31  32  8
13  4  5
14  5  5
7  21  8
7  25  8

$$$$

