5281378
  -OEChem-07051212562D

 96100  0     1  0  0  0  0  0999 V2000
    2.8990    6.1160    0.0000 O   0  0  0  0  0  0  0  0  0  0  0  0
    6.3402    3.1870    0.0000 O   0  0  0  0  0  0  0  0  0  0  0  0
    6.5580    6.2552    0.0000 O   0  0  0  0  0  0  0  0  0  0  0  0
    4.6326    8.3599    0.0000 O   0  0  0  0  0  0  0  0  0  0  0  0
    3.8222    8.4791    0.0000 O   0  0  0  0  0  0  0  0  0  0  0  0
    2.4545    8.0660    0.0000 O   0  0  0  0  0  0  0  0  0  0  0  0
    5.4561    9.3432    0.0000 O   0  0  0  0  0  0  0  0  0  0  0  0
    5.3535    1.7635    0.0000 O   0  0  0  0  0  0  0  0  0  0  0  0
    4.6622    4.3501    0.0000 C   0  0  1  0  0  0  0  0  0  0  0  0
    5.5183    3.7567    0.0000 C   0  0  1  0  0  0  0  0  0  0  0  0
    4.5761    3.3116    0.0000 C   0  0  0  0  0  0  0  0  0  0  0  0
    4.7561    5.3875    0.0000 C   0  0  1  0  0  0  0  0  0  0  0  0
    5.6570    5.8214    0.0000 C   0  0  1  0  0  0  0  0  0  0  0  0
    3.8551    5.8214    0.0000 C   0  0  1  0  0  0  0  0  0  0  0  0
    6.4568    4.2086    0.0000 C   0  0  0  0  0  0  0  0  0  0  0  0
    6.5266    5.2479    0.0000 C   0  0  1  0  0  0  0  0  0  0  0  0
    3.6326    6.7963    0.0000 C   0  0  1  0  0  0  0  0  0  0  0  0
    5.8796    6.7963    0.0000 C   0  0  1  0  0  0  0  0  0  0  0  0
    3.5795    3.3940    0.0000 C   0  0  0  0  0  0  0  0  0  0  0  0
    5.0030    2.4073    0.0000 C   0  0  0  0  0  0  0  0  0  0  0  0
    5.2561    7.5781    0.0000 C   0  0  1  0  0  0  0  0  0  0  0  0
    4.2561    7.5781    0.0000 C   0  0  2  0  0  0  0  0  0  0  0  0
    7.5246    5.1847    0.0000 C   0  0  0  0  0  0  0  0  0  0  0  0
    3.4101    7.7712    0.0000 C   0  0  0  0  0  0  0  0  0  0  0  0
    6.8094    7.1480    0.0000 C   0  0  0  0  0  0  0  0  0  0  0  0
    5.8059    8.4063    0.0000 C   0  0  0  0  0  0  0  0  0  0  0  0
    6.7639    8.1410    0.0000 C   0  0  0  0  0  0  0  0  0  0  0  0
    6.2578    2.1904    0.0000 C   0  0  0  0  0  0  0  0  0  0  0  0
    7.5457    8.7645    0.0000 C   0  0  0  0  0  0  0  0  0  0  0  0
    7.0796    1.6207    0.0000 C   0  0  0  0  0  0  0  0  0  0  0  0
    6.9972    0.6241    0.0000 C   0  0  0  0  0  0  0  0  0  0  0  0
    7.8191    0.0545    0.0000 C   0  0  0  0  0  0  0  0  0  0  0  0
    7.7367   -0.9421    0.0000 C   0  0  0  0  0  0  0  0  0  0  0  0
    8.5586   -1.5118    0.0000 C   0  0  0  0  0  0  0  0  0  0  0  0
    8.4761   -2.5084    0.0000 C   0  0  0  0  0  0  0  0  0  0  0  0
    9.2980   -3.0781    0.0000 C   0  0  0  0  0  0  0  0  0  0  0  0
    9.2156   -4.0747    0.0000 C   0  0  0  0  0  0  0  0  0  0  0  0
   10.0375   -4.6444    0.0000 C   0  0  0  0  0  0  0  0  0  0  0  0
    9.9550   -5.6409    0.0000 C   0  0  0  0  0  0  0  0  0  0  0  0
   10.7769   -6.2106    0.0000 C   0  0  0  0  0  0  0  0  0  0  0  0
   10.6945   -7.2072    0.0000 C   0  0  0  0  0  0  0  0  0  0  0  0
   11.5164   -7.7769    0.0000 C   0  0  0  0  0  0  0  0  0  0  0  0
   11.4340   -8.7735    0.0000 C   0  0  0  0  0  0  0  0  0  0  0  0
   12.2558   -9.3432    0.0000 C   0  0  0  0  0  0  0  0  0  0  0  0
    3.8154    4.4235    0.0000 H   0  0  0  0  0  0  0  0  0  0  0  0
    4.0167    4.9681    0.0000 H   0  0  0  0  0  0  0  0  0  0  0  0
    3.5447    5.0301    0.0000 H   0  0  0  0  0  0  0  0  0  0  0  0
    6.6262    3.6122    0.0000 H   0  0  0  0  0  0  0  0  0  0  0  0
    7.0734    4.2735    0.0000 H   0  0  0  0  0  0  0  0  0  0  0  0
    6.7235    5.8358    0.0000 H   0  0  0  0  0  0  0  0  0  0  0  0
    6.5204    6.2379    0.0000 H   0  0  0  0  0  0  0  0  0  0  0  0
    3.6306    4.0118    0.0000 H   0  0  0  0  0  0  0  0  0  0  0  0
    2.9616    3.4451    0.0000 H   0  0  0  0  0  0  0  0  0  0  0  0
    3.5284    2.7761    0.0000 H   0  0  0  0  0  0  0  0  0  0  0  0
    4.4424    2.1426    0.0000 H   0  0  0  0  0  0  0  0  0  0  0  0
    5.2677    1.8466    0.0000 H   0  0  0  0  0  0  0  0  0  0  0  0
    5.5637    2.6720    0.0000 H   0  0  0  0  0  0  0  0  0  0  0  0
    4.5859    8.1031    0.0000 H   0  0  0  0  0  0  0  0  0  0  0  0
    7.4854    4.5660    0.0000 H   0  0  0  0  0  0  0  0  0  0  0  0
    8.1434    5.1455    0.0000 H   0  0  0  0  0  0  0  0  0  0  0  0
    7.5638    5.8035    0.0000 H   0  0  0  0  0  0  0  0  0  0  0  0
    4.0293    7.8021    0.0000 H   0  0  0  0  0  0  0  0  0  0  0  0
    3.4872    8.3864    0.0000 H   0  0  0  0  0  0  0  0  0  0  0  0
    7.1763    6.2089    0.0000 H   0  0  0  0  0  0  0  0  0  0  0  0
    7.3274    6.8073    0.0000 H   0  0  0  0  0  0  0  0  0  0  0  0
    4.8591    8.9371    0.0000 H   0  0  0  0  0  0  0  0  0  0  0  0
    3.2039    8.5254    0.0000 H   0  0  0  0  0  0  0  0  0  0  0  0
    2.0000    7.6442    0.0000 H   0  0  0  0  0  0  0  0  0  0  0  0
    7.9323    8.2798    0.0000 H   0  0  0  0  0  0  0  0  0  0  0  0
    8.0305    9.1511    0.0000 H   0  0  0  0  0  0  0  0  0  0  0  0
    7.1592    9.2492    0.0000 H   0  0  0  0  0  0  0  0  0  0  0  0
    7.6403    1.8854    0.0000 H   0  0  0  0  0  0  0  0  0  0  0  0
    6.4366    0.3594    0.0000 H   0  0  0  0  0  0  0  0  0  0  0  0
    8.3798    0.3192    0.0000 H   0  0  0  0  0  0  0  0  0  0  0  0
    7.1760   -1.2068    0.0000 H   0  0  0  0  0  0  0  0  0  0  0  0
    9.1192   -1.2471    0.0000 H   0  0  0  0  0  0  0  0  0  0  0  0
    7.9155   -2.7731    0.0000 H   0  0  0  0  0  0  0  0  0  0  0  0
    9.8976   -3.2357    0.0000 H   0  0  0  0  0  0  0  0  0  0  0  0
    9.5574   -2.5149    0.0000 H   0  0  0  0  0  0  0  0  0  0  0  0
    8.6160   -3.9171    0.0000 H   0  0  0  0  0  0  0  0  0  0  0  0
    8.9562   -4.6378    0.0000 H   0  0  0  0  0  0  0  0  0  0  0  0
   10.6371   -4.8020    0.0000 H   0  0  0  0  0  0  0  0  0  0  0  0
   10.2968   -4.0812    0.0000 H   0  0  0  0  0  0  0  0  0  0  0  0
    9.3554   -5.4833    0.0000 H   0  0  0  0  0  0  0  0  0  0  0  0
    9.6957   -6.2041    0.0000 H   0  0  0  0  0  0  0  0  0  0  0  0
   11.3766   -6.3682    0.0000 H   0  0  0  0  0  0  0  0  0  0  0  0
   11.0363   -5.6475    0.0000 H   0  0  0  0  0  0  0  0  0  0  0  0
   10.0949   -7.0496    0.0000 H   0  0  0  0  0  0  0  0  0  0  0  0
   10.4352   -7.7704    0.0000 H   0  0  0  0  0  0  0  0  0  0  0  0
   12.1160   -7.9345    0.0000 H   0  0  0  0  0  0  0  0  0  0  0  0
   11.7757   -7.2137    0.0000 H   0  0  0  0  0  0  0  0  0  0  0  0
   10.8343   -8.6159    0.0000 H   0  0  0  0  0  0  0  0  0  0  0  0
   11.1746   -9.3366    0.0000 H   0  0  0  0  0  0  0  0  0  0  0  0
   11.9026   -9.8527    0.0000 H   0  0  0  0  0  0  0  0  0  0  0  0
   12.7654   -9.6964    0.0000 H   0  0  0  0  0  0  0  0  0  0  0  0
   12.6090   -8.8336    0.0000 H   0  0  0  0  0  0  0  0  0  0  0  0
  1 14  1  0  0  0  0
  1 17  1  0  0  0  0
 10  2  1  6  0  0  0
  2 28  1  0  0  0  0
 13  3  1  6  0  0  0
  3 64  1  0  0  0  0
 21  4  1  1  0  0  0
  4 66  1  0  0  0  0
 22  5  1  1  0  0  0
  5 67  1  0  0  0  0
  6 24  1  0  0  0  0
  6 68  1  0  0  0  0
  7 26  2  0  0  0  0
  8 28  2  0  0  0  0
  9 10  1  0  0  0  0
  9 11  1  0  0  0  0
  9 12  1  0  0  0  0
  9 45  1  6  0  0  0
 10 11  1  0  0  0  0
 10 15  1  0  0  0  0
 11 19  1  0  0  0  0
 11 20  1  0  0  0  0
 12 13  1  0  0  0  0
 12 14  1  0  0  0  0
 12 46  1  1  0  0  0
 13 16  1  0  0  0  0
 13 18  1  0  0  0  0
 14 17  1  0  0  0  0
 14 47  1  1  0  0  0
 15 16  1  0  0  0  0
 15 48  1  0  0  0  0
 15 49  1  0  0  0  0
 16 23  1  6  0  0  0
 16 50  1  0  0  0  0
 17 22  1  0  0  0  0
 17 24  1  1  0  0  0
 18 21  1  0  0  0  0
 18 25  1  0  0  0  0
 18 51  1  6  0  0  0
 19 52  1  0  0  0  0
 19 53  1  0  0  0  0
 19 54  1  0  0  0  0
 20 55  1  0  0  0  0
 20 56  1  0  0  0  0
 20 57  1  0  0  0  0
 21 22  1  0  0  0  0
 21 26  1  0  0  0  0
 22 58  1  0  0  0  0
 23 59  1  0  0  0  0
 23 60  1  0  0  0  0
 23 61  1  0  0  0  0
 24 62  1  0  0  0  0
 24 63  1  0  0  0  0
 25 27  2  0  0  0  0
 25 65  1  0  0  0  0
 26 27  1  0  0  0  0
 27 29  1  0  0  0  0
 28 30  1  0  0  0  0
 29 69  1  0  0  0  0
 29 70  1  0  0  0  0
 29 71  1  0  0  0  0
 30 31  2  0  0  0  0
 30 72  1  0  0  0  0
 31 32  1  0  0  0  0
 31 73  1  0  0  0  0
 32 33  2  0  0  0  0
 32 74  1  0  0  0  0
 33 34  1  0  0  0  0
 33 75  1  0  0  0  0
 34 35  2  0  0  0  0
 34 76  1  0  0  0  0
 35 36  1  0  0  0  0
 35 77  1  0  0  0  0
 36 37  1  0  0  0  0
 36 78  1  0  0  0  0
 36 79  1  0  0  0  0
 37 38  1  0  0  0  0
 37 80  1  0  0  0  0
 37 81  1  0  0  0  0
 38 39  1  0  0  0  0
 38 82  1  0  0  0  0
 38 83  1  0  0  0  0
 39 40  1  0  0  0  0
 39 84  1  0  0  0  0
 39 85  1  0  0  0  0
 40 41  1  0  0  0  0
 40 86  1  0  0  0  0
 40 87  1  0  0  0  0
 41 42  1  0  0  0  0
 41 88  1  0  0  0  0
 41 89  1  0  0  0  0
 42 43  1  0  0  0  0
 42 90  1  0  0  0  0
 42 91  1  0  0  0  0
 43 44  1  0  0  0  0
 43 92  1  0  0  0  0
 43 93  1  0  0  0  0
 44 94  1  0  0  0  0
 44 95  1  0  0  0  0
 44 96  1  0  0  0  0
M  END
> <PUBCHEM_COMPOUND_CID>
5281378

> <PUBCHEM_COMPOUND_CANONICALIZED>
1

> <PUBCHEM_CACTVS_COMPLEXITY>
1250

> <PUBCHEM_CACTVS_HBOND_ACCEPTOR>
8

> <PUBCHEM_CACTVS_HBOND_DONOR>
4

> <PUBCHEM_CACTVS_ROTATABLE_BOND>
14

> <PUBCHEM_CACTVS_SUBSKEYS>
AAADcfB8PAAAAAAAAAAAAAAAGiAAAQAAAAAwAAAABgwSAACAAAAAGgAACAAAD1SggAICCAAABgCIAqDSCAIAAAAgAAAICAFAAEgJFBYAIQACUAAF4AALoYPK7PzPgAAAAAAAAADCAAYAADAAAAAAAAAAAA==

> <PUBCHEM_IUPAC_INCHI>
InChI=1S/C36H52O8/c1-6-7-8-9-10-11-12-13-14-15-16-17-18-19-26(38)43-34-21-24(3)35(41)25-20-23(2)29(39)36(25,42)31(40)33(22-37)30(44-33)27(35)28(34)32(34,4)5/h14-20,24-25,27-28,30-31,37,40-42H,6-13,21-22H2,1-5H3/b15-14+,17-16+,19-18+/t24-,25+,27-,28-,30+,31-,33+,34+,35+,36-/m1/s1

> <PUBCHEM_IUPAC_INCHIKEY>
NEZVVESVXBEHTR-YYHKZOSKSA-N

> <PUBCHEM_XLOGP3_AA>
6.3

> <PUBCHEM_EXACT_MASS>
612.366219

> <PUBCHEM_MOLECULAR_FORMULA>
C36H52O8

> <PUBCHEM_MOLECULAR_WEIGHT>
612.79328

> <PUBCHEM_OPENEYE_CAN_SMILES>
CCCCCCCCCC=CC=CC=CC(=O)OC12CC(C3(C4C=C(C(=O)C4(C(C5(C(C3C1C2(C)C)O5)CO)O)O)C)O)C

> <PUBCHEM_OPENEYE_ISO_SMILES>
CCCCCCCCC/C=C/C=C/C=C/C(=O)O[C@@]12C[C@H]([C@@]3([C@@H]4C=C(C(=O)[C@]4([C@@H]([C@@]5([C@H]([C@H]3[C@@H]1C2(C)C)O5)CO)O)O)C)O)C

> <PUBCHEM_CACTVS_TPSA>
137

> <PUBCHEM_MONOISOTOPIC_WEIGHT>
612.366219

> <PUBCHEM_TOTAL_CHARGE>
0

> <PUBCHEM_HEAVY_ATOM_COUNT>
44

> <PUBCHEM_ATOM_DEF_STEREO_COUNT>
10

> <PUBCHEM_ATOM_UDEF_STEREO_COUNT>
0

> <PUBCHEM_BOND_DEF_STEREO_COUNT>
3

> <PUBCHEM_BOND_UDEF_STEREO_COUNT>
0

> <PUBCHEM_ISOTOPIC_ATOM_COUNT>
0

> <PUBCHEM_COMPONENT_COUNT>
1

> <PUBCHEM_CACTVS_TAUTO_COUNT>
3

> <PUBCHEM_COORDINATE_TYPE>
1
5
255

> <PUBCHEM_BONDANNOTATIONS>
12  46  5
14  47  5
16  23  6
17  24  5
18  51  6
10  2  6
13  3  6
21  4  5
22  5  5
9  45  6

$$$$

