8268
  -OEChem-07051213053D

 29 30  0     0  0  0  0  0  0999 V2000
    0.0953   -2.2287   -2.0560 Cl  0  0  0  0  0  0  0  0  0  0  0  0
   -1.0723   -3.4743    0.3198 Cl  0  0  0  0  0  0  0  0  0  0  0  0
    1.7753   -3.0676    0.1343 Cl  0  0  0  0  0  0  0  0  0  0  0  0
   -5.0793    2.2731   -0.3248 Cl  0  0  0  0  0  0  0  0  0  0  0  0
    4.8570    2.4847   -0.5302 Cl  0  0  0  0  0  0  0  0  0  0  0  0
    0.0039   -1.2077    1.8823 O   0  0  0  0  0  0  0  0  0  0  0  0
   -0.0238   -0.8662    0.4584 C   0  0  0  0  0  0  0  0  0  0  0  0
   -1.2796   -0.0855    0.2633 C   0  0  0  0  0  0  0  0  0  0  0  0
    1.2497    0.0092    0.2006 C   0  0  0  0  0  0  0  0  0  0  0  0
    0.1726   -2.2934   -0.2587 C   0  0  0  0  0  0  0  0  0  0  0  0
   -1.5265    1.0447    1.0424 C   0  0  0  0  0  0  0  0  0  0  0  0
    1.3891    0.5560   -1.0354 C   0  0  0  0  0  0  0  0  0  0  0  0
   -2.2077   -0.4864   -0.6979 C   0  0  0  0  0  0  0  0  0  0  0  0
    2.1224    0.1570    1.2317 C   0  0  0  0  0  0  0  0  0  0  0  0
   -2.7014    1.7741    0.8605 C   0  0  0  0  0  0  0  0  0  0  0  0
    2.5235    1.3345   -1.2653 C   0  0  0  0  0  0  0  0  0  0  0  0
   -3.3827    0.2431   -0.8798 C   0  0  0  0  0  0  0  0  0  0  0  0
    3.2567    0.9356    1.0020 C   0  0  0  0  0  0  0  0  0  0  0  0
   -3.6296    1.3734   -0.1007 C   0  0  0  0  0  0  0  0  0  0  0  0
    3.4573    1.5244   -0.2465 C   0  0  0  0  0  0  0  0  0  0  0  0
   -0.8191    1.3743    1.7988 H   0  0  0  0  0  0  0  0  0  0  0  0
    0.6591    0.4539   -1.8283 H   0  0  0  0  0  0  0  0  0  0  0  0
   -2.1185   -1.3690   -1.3094 H   0  0  0  0  0  0  0  0  0  0  0  0
    2.0131   -0.2850    2.2142 H   0  0  0  0  0  0  0  0  0  0  0  0
   -0.7491   -1.7991    2.0553 H   0  0  0  0  0  0  0  0  0  0  0  0
   -2.8809    2.6525    1.4753 H   0  0  0  0  0  0  0  0  0  0  0  0
    2.6626    1.7941   -2.2405 H   0  0  0  0  0  0  0  0  0  0  0  0
   -4.1023   -0.0855   -1.6255 H   0  0  0  0  0  0  0  0  0  0  0  0
    3.9772    1.0740    1.8043 H   0  0  0  0  0  0  0  0  0  0  0  0
  1 10  1  0  0  0  0
  2 10  1  0  0  0  0
  3 10  1  0  0  0  0
  4 19  1  0  0  0  0
  5 20  1  0  0  0  0
  6  7  1  0  0  0  0
  6 25  1  0  0  0  0
  7  8  1  0  0  0  0
  7  9  1  0  0  0  0
  7 10  1  0  0  0  0
  8 11  2  0  0  0  0
  8 13  1  0  0  0  0
  9 12  2  0  0  0  0
  9 14  1  0  0  0  0
 11 15  1  0  0  0  0
 11 21  1  0  0  0  0
 12 16  1  0  0  0  0
 12 22  1  0  0  0  0
 13 17  2  0  0  0  0
 13 23  1  0  0  0  0
 14 18  2  0  0  0  0
 14 24  1  0  0  0  0
 15 19  2  0  0  0  0
 15 26  1  0  0  0  0
 16 20  2  0  0  0  0
 16 27  1  0  0  0  0
 17 19  1  0  0  0  0
 17 28  1  0  0  0  0
 18 20  1  0  0  0  0
 18 29  1  0  0  0  0
M  END
> <PUBCHEM_COMPOUND_CID>
8268

> <PUBCHEM_CONFORMER_RMSD>
0.6

> <PUBCHEM_CONFORMER_DIVERSEORDER>
1
2

> <PUBCHEM_MMFF94_PARTIAL_CHARGES>
29
1 -0.29
10 0.87
11 -0.15
12 -0.15
13 -0.15
14 -0.15
15 -0.15
16 -0.15
17 -0.15
18 -0.15
19 0.18
2 -0.29
20 0.18
21 0.15
22 0.15
23 0.15
24 0.15
25 0.4
26 0.15
27 0.15
28 0.15
29 0.15
3 -0.29
4 -0.18
5 -0.18
6 -0.68
7 0.57
8 -0.14
9 -0.14

> <PUBCHEM_EFFECTIVE_ROTOR_COUNT>
3

> <PUBCHEM_PHARMACOPHORE_FEATURES>
4
1 6 acceptor
1 6 donor
6 8 11 13 15 17 19 rings
6 9 12 14 16 18 20 rings

> <PUBCHEM_HEAVY_ATOM_COUNT>
20

> <PUBCHEM_ATOM_DEF_STEREO_COUNT>
0

> <PUBCHEM_ATOM_UDEF_STEREO_COUNT>
0

> <PUBCHEM_BOND_DEF_STEREO_COUNT>
0

> <PUBCHEM_BOND_UDEF_STEREO_COUNT>
0

> <PUBCHEM_ISOTOPIC_ATOM_COUNT>
0

> <PUBCHEM_COMPONENT_COUNT>
1

> <PUBCHEM_CACTVS_TAUTO_COUNT>
1

> <PUBCHEM_CONFORMER_ID>
0000204C00000001

> <PUBCHEM_MMFF94_ENERGY>
70.5694

> <PUBCHEM_FEATURE_SELFOVERLAP>
20.297

> <PUBCHEM_SHAPE_FINGERPRINT>
10498660 4 18186805790057549721
10948715 1 18410576175648231710
11640471 11 18130792196471592980
12138202 97 17823413799763017478
12173636 292 18123194502593763534
12293681 160 17967531285304122457
12500047 106 18263079912735598924
12633257 1 14908176413282525932
12788726 201 17981333287332512802
12892183 10 14979688718288215509
13134695 92 17839744012393758638
13140716 1 18340484594748798587
13583140 156 16988287456425811889
13681431 1 17685197770374217558
14142880 1 17843409487776086292
14181834 199 18045779258597087350
15163728 17 18339624711756764308
15342168 16 18343865537111645149
15534591 1 18199749137817614072
15906896 17 18057598763724729482
16752209 62 18050015393753066902
167882 2 18410005577075714966
16945 1 18267021657067143371
1741750 31 18339079281285783008
1813 80 17541375078119287318
18186145 218 17095802135605834800
18981168 100 18127380510743131475
19765921 60 18334299790297195403
20510252 161 18048591517530945762
20645476 183 18341335478818710804
21524375 3 18335424581643604600
21731516 1 8790888471075322380
21756936 100 16699178515224127756
22149856 69 18188208823699474729
2255824 54 18121216747432114379
22907989 373 17974272232153443812
23402539 116 18188215282006110588
23419403 2 17470107839715596694
23557571 272 17829885430915682576
23558518 356 18130504128483148235
23559900 14 17970641893988157411
298252 57 18409731725101134048
305870 269 18410292544650568870
394222 165 18272100447457431003
4340502 62 18059569235634746153
474 4 18341613771472808945
7364860 26 17971761218262893187
81228 2 17612025980273402946
81539 233 18338802328962272061
84936 182 18189055450544712880
9981440 41 18339083683637668610
9999458 23 18128254686753960847

> <PUBCHEM_SHAPE_MULTIPOLES>
415.07
7.38
3.6
1.43
1.56
2.87
-0.14
-9.16
-1.11
-0.39
-0.3
-0.32
0.32
-0.49

> <PUBCHEM_SHAPE_SELFOVERLAP>
844.57

> <PUBCHEM_SHAPE_VOLUME>
242.2

> <PUBCHEM_COORDINATE_TYPE>
2
5
10

$$$$

