854328
  -OEChem-06241222473D

 42 44  0     1  0  0  0  0  0999 V2000
   -0.1743   -0.9409   -0.2931 O   0  0  0  0  0  0  0  0  0  0  0  0
   -1.0718   -3.0924   -0.3392 O   0  0  0  0  0  0  0  0  0  0  0  0
    1.7466    3.3995   -0.3445 O   0  0  0  0  0  0  0  0  0  0  0  0
    4.7116   -1.3605   -1.4670 O   0  0  0  0  0  0  0  0  0  0  0  0
    3.5005   -2.4820    0.0944 O   0  0  0  0  0  0  0  0  0  0  0  0
    2.9003    0.3616    0.7393 N   0  0  0  0  0  0  0  0  0  0  0  0
   -2.6859    0.2523    0.0467 C   0  0  0  0  0  0  0  0  0  0  0  0
   -4.0798    0.8282    0.2434 C   0  0  0  0  0  0  0  0  0  0  0  0
   -5.2431   -0.1141   -0.0398 C   0  0  0  0  0  0  0  0  0  0  0  0
   -5.0050   -1.4438    0.6426 C   0  0  0  0  0  0  0  0  0  0  0  0
   -3.7614   -2.0989    0.0592 C   0  0  0  0  0  0  0  0  0  0  0  0
   -2.5384   -1.2099   -0.0356 C   0  0  0  0  0  0  0  0  0  0  0  0
   -1.5829    1.0440   -0.0280 C   0  0  0  0  0  0  0  0  0  0  0  0
   -0.2594    0.4397   -0.2180 C   0  0  0  0  0  0  0  0  0  0  0  0
   -1.3036   -1.7348   -0.2105 C   0  0  0  0  0  0  0  0  0  0  0  0
    0.8573    1.1859   -0.3225 C   0  0  0  0  0  0  0  0  0  0  0  0
   -1.6601    2.4975    0.1003 C   0  0  0  0  0  0  0  0  0  0  0  0
    2.2359    0.6284   -0.5251 C   0  0  0  0  0  0  0  0  0  0  0  0
    0.7604    2.6774   -0.2343 C   0  0  0  0  0  0  0  0  0  0  0  0
   -0.5751    3.2730    0.0022 C   0  0  0  0  0  0  0  0  0  0  0  0
    4.2334   -0.1884    0.5253 C   0  0  1  0  0  0  0  0  0  0  0  0
    4.9037   -0.4487    1.8674 C   0  0  0  0  0  0  0  0  0  0  0  0
    4.0911   -1.4729   -0.2632 C   0  0  0  0  0  0  0  0  0  0  0  0
   -4.1603    1.1681    1.2849 H   0  0  0  0  0  0  0  0  0  0  0  0
   -4.2261    1.7054   -0.3981 H   0  0  0  0  0  0  0  0  0  0  0  0
   -6.1753    0.3336    0.3231 H   0  0  0  0  0  0  0  0  0  0  0  0
   -5.3569   -0.2584   -1.1215 H   0  0  0  0  0  0  0  0  0  0  0  0
   -5.8697   -2.1013    0.4984 H   0  0  0  0  0  0  0  0  0  0  0  0
   -4.8861   -1.3007    1.7238 H   0  0  0  0  0  0  0  0  0  0  0  0
   -3.9992   -2.4478   -0.9550 H   0  0  0  0  0  0  0  0  0  0  0  0
   -3.5336   -2.9925    0.6537 H   0  0  0  0  0  0  0  0  0  0  0  0
   -2.6113    2.9810    0.2916 H   0  0  0  0  0  0  0  0  0  0  0  0
    2.8325    1.3154   -1.1391 H   0  0  0  0  0  0  0  0  0  0  0  0
    2.1343   -0.2817   -1.1282 H   0  0  0  0  0  0  0  0  0  0  0  0
   -0.6414    4.3507    0.0987 H   0  0  0  0  0  0  0  0  0  0  0  0
    2.9779    1.2264    1.2749 H   0  0  0  0  0  0  0  0  0  0  0  0
    4.8521    0.5247   -0.0342 H   0  0  0  0  0  0  0  0  0  0  0  0
   -0.1106   -3.1830   -0.4603 H   0  0  0  0  0  0  0  0  0  0  0  0
    5.8957   -0.8906    1.7216 H   0  0  0  0  0  0  0  0  0  0  0  0
    5.0277    0.4798    2.4352 H   0  0  0  0  0  0  0  0  0  0  0  0
    4.3243   -1.1487    2.4808 H   0  0  0  0  0  0  0  0  0  0  0  0
    4.6265   -2.1799   -1.9996 H   0  0  0  0  0  0  0  0  0  0  0  0
  1 14  1  0  0  0  0
  1 15  1  0  0  0  0
  2 15  1  0  0  0  0
  2 38  1  0  0  0  0
  3 19  2  0  0  0  0
  4 23  1  0  0  0  0
  4 42  1  0  0  0  0
  5 23  2  0  0  0  0
  6 18  1  0  0  0  0
  6 21  1  0  0  0  0
  6 36  1  0  0  0  0
  7  8  1  0  0  0  0
  7 12  1  0  0  0  0
  7 13  2  0  0  0  0
  8  9  1  0  0  0  0
  8 24  1  0  0  0  0
  8 25  1  0  0  0  0
  9 10  1  0  0  0  0
  9 26  1  0  0  0  0
  9 27  1  0  0  0  0
 10 11  1  0  0  0  0
 10 28  1  0  0  0  0
 10 29  1  0  0  0  0
 11 12  1  0  0  0  0
 11 30  1  0  0  0  0
 11 31  1  0  0  0  0
 12 15  2  0  0  0  0
 13 14  1  0  0  0  0
 13 17  1  0  0  0  0
 14 16  2  0  0  0  0
 16 18  1  0  0  0  0
 16 19  1  0  0  0  0
 17 20  2  0  0  0  0
 17 32  1  0  0  0  0
 18 33  1  0  0  0  0
 18 34  1  0  0  0  0
 19 20  1  0  0  0  0
 20 35  1  0  0  0  0
 21 22  1  0  0  0  0
 21 23  1  0  0  0  0
 21 37  1  0  0  0  0
 22 39  1  0  0  0  0
 22 40  1  0  0  0  0
 22 41  1  0  0  0  0
M  END
> <PUBCHEM_COMPOUND_CID>
854328

> <PUBCHEM_CONFORMER_RMSD>
0.8

> <PUBCHEM_CONFORMER_DIVERSEORDER>
1
13
12
3
15
11
7
6
8
4
10
9
2
14
5

> <PUBCHEM_MMFF94_PARTIAL_CHARGES>
24
1 -0.15
11 0.14
12 -0.14
14 0.08
15 0.15
16 -0.12
17 -0.15
18 0.41
19 0.54
2 -0.53
20 -0.14
21 0.33
23 0.66
3 -0.57
32 0.15
35 0.15
36 0.36
38 0.45
4 -0.65
42 0.5
5 -0.57
6 -0.9
7 -0.14
8 0.14

> <PUBCHEM_EFFECTIVE_ROTOR_COUNT>
4.8

> <PUBCHEM_PHARMACOPHORE_FEATURES>
11
1 1 acceptor
1 2 donor
1 3 acceptor
1 4 acceptor
1 5 acceptor
1 6 cation
1 6 donor
3 4 5 23 anion
6 1 7 12 13 14 15 rings
6 13 14 16 17 19 20 rings
6 7 8 9 10 11 12 rings

> <PUBCHEM_HEAVY_ATOM_COUNT>
23

> <PUBCHEM_ATOM_DEF_STEREO_COUNT>
1

> <PUBCHEM_ATOM_UDEF_STEREO_COUNT>
0

> <PUBCHEM_BOND_DEF_STEREO_COUNT>
0

> <PUBCHEM_BOND_UDEF_STEREO_COUNT>
0

> <PUBCHEM_ISOTOPIC_ATOM_COUNT>
0

> <PUBCHEM_COMPONENT_COUNT>
1

> <PUBCHEM_CACTVS_TAUTO_COUNT>
1

> <PUBCHEM_CONFORMER_ID>
000D093800000001

> <PUBCHEM_MMFF94_ENERGY>
49.4175

> <PUBCHEM_FEATURE_SELFOVERLAP>
55.923

> <PUBCHEM_SHAPE_FINGERPRINT>
10319926 262 18048339992173847002
10967382 1 18194116309752591173
1100329 8 18341053999832317939
12403259 226 18340489950931647725
12403260 363 18336266722547810469
12422481 6 18118100671623372641
12553582 1 18410296874341756318
12714826 92 17846508061904022149
12788726 201 18271802454152654504
13140716 1 18266182725204718457
13402501 40 18187921833209614214
13583140 156 14057013753225602478
138480 1 14736482656051684333
13862211 1 18411142441712193687
14178342 30 18043797896100668937
14790565 3 17256519154951517529
14866123 147 17832420174062349203
15042514 8 18196093463387106296
15196674 1 18267019458681950797
15256400 18 18408039641209682171
15352361 1 18411418418671524202
15442244 35 18266177236669264477
15885798 251 18412545405284363464
17349148 13 17967807224457721951
17492 89 18122059797978428127
17804303 29 18408318895398273860
1813 80 17775847917269942220
19141452 34 18186524284846957719
19591789 44 18194118753161792558
20028762 73 18114744816218223903
20510252 161 18189059861750399960
20600515 1 18261667164263019477
21033648 29 17677349297461005891
21267235 1 18411691089018337403
2297311 6 18336535110347798310
23366157 5 17914053088349408676
23402539 116 18260839198026510247
23557571 272 18189046659252748236
23559900 14 18336547127355413072
2748010 2 17834101323431704493
3004659 81 18130783456429085966
314173 41 18341045238214799046
335352 9 18411134758474643949
3421961 26 18338517430575165560
4340502 62 14201112406299659925
5104073 3 18264761057582575857
7097593 13 18121783828943198725
7364860 26 18194401083169375940
9709674 26 18196368118013948595

> <PUBCHEM_SHAPE_MULTIPOLES>
439
10.11
3.54
0.92
2.27
1.67
0.19
-6.3
1.99
0.09
-0.4
1.16
-0.21
0.15

> <PUBCHEM_SHAPE_SELFOVERLAP>
941.039

> <PUBCHEM_SHAPE_VOLUME>
239.2

> <PUBCHEM_COORDINATE_TYPE>
2
5
10

$$$$

