441171
  -OEChem-07051212523D

 63 67  0     1  0  0  0  0  0999 V2000
    0.3415    4.3469   -1.2941 O   0  0  0  0  0  0  0  0  0  0  0  0
    1.3459    3.8409    2.1691 O   0  0  0  0  0  0  0  0  0  0  0  0
    0.1470   -1.0073    0.2756 O   0  0  0  0  0  0  0  0  0  0  0  0
    2.0343   -0.7181   -1.1142 O   0  0  0  0  0  0  0  0  0  0  0  0
   -1.9585   -2.2089   -0.0660 O   0  0  0  0  0  0  0  0  0  0  0  0
   -4.7175    2.3644    0.0413 O   0  0  0  0  0  0  0  0  0  0  0  0
    5.0410   -0.7552   -2.0917 O   0  0  0  0  0  0  0  0  0  0  0  0
   -6.9514    1.1178    0.0378 O   0  0  0  0  0  0  0  0  0  0  0  0
   -6.7988   -3.6183   -0.0548 O   0  0  0  0  0  0  0  0  0  0  0  0
    4.7097   -3.6310    1.6329 O   0  0  0  0  0  0  0  0  0  0  0  0
    6.1861   -4.9833    0.5815 O   0  0  0  0  0  0  0  0  0  0  0  0
    5.1504   -1.5622    0.0794 N   0  0  0  0  0  0  0  0  0  0  0  0
    0.1798    3.9205    0.0573 C   0  0  2  0  0  0  0  0  0  0  0  0
    1.5462    3.8587    0.7552 C   0  0  2  0  0  0  0  0  0  0  0  0
   -0.5229    2.5824    0.0352 C   0  0  0  0  0  0  0  0  0  0  0  0
    0.2269    1.3862   -0.0217 C   0  0  0  0  0  0  0  0  0  0  0  0
    2.3570    2.6542    0.3275 C   0  0  0  0  0  0  0  0  0  0  0  0
    1.7088    1.4543   -0.0465 C   0  0  0  0  0  0  0  0  0  0  0  0
   -0.4835    0.1703   -0.0360 C   0  0  0  0  0  0  0  0  0  0  0  0
   -1.9278    2.5491    0.0375 C   0  0  0  0  0  0  0  0  0  0  0  0
   -1.8869    0.1409   -0.0215 C   0  0  0  0  0  0  0  0  0  0  0  0
   -2.6081    1.3302    0.0102 C   0  0  0  0  0  0  0  0  0  0  0  0
    2.5193    0.3735   -0.4409 C   0  0  0  0  0  0  0  0  0  0  0  0
    3.7593    2.7376    0.3385 C   0  0  0  0  0  0  0  0  0  0  0  0
    4.5340    1.6481   -0.0448 C   0  0  0  0  0  0  0  0  0  0  0  0
    3.9143    0.4689   -0.4393 C   0  0  0  0  0  0  0  0  0  0  0  0
   -2.5900   -1.1596   -0.0406 C   0  0  0  0  0  0  0  0  0  0  0  0
   -4.0851    1.3158    0.0189 C   0  0  0  0  0  0  0  0  0  0  0  0
   -4.7888    0.0175   -0.0005 C   0  0  0  0  0  0  0  0  0  0  0  0
   -4.0670   -1.1773   -0.0287 C   0  0  0  0  0  0  0  0  0  0  0  0
    6.0218    1.7815   -0.0332 C   0  0  0  0  0  0  0  0  0  0  0  0
    4.7321   -0.6532   -0.8948 C   0  0  0  0  0  0  0  0  0  0  0  0
   -6.1885   -0.0118    0.0097 C   0  0  0  0  0  0  0  0  0  0  0  0
   -4.7450   -2.4021   -0.0466 C   0  0  0  0  0  0  0  0  0  0  0  0
   -6.1400   -2.4272   -0.0362 C   0  0  0  0  0  0  0  0  0  0  0  0
   -6.8601   -1.2345   -0.0082 C   0  0  0  0  0  0  0  0  0  0  0  0
    5.9821   -2.7084   -0.2095 C   0  0  1  0  0  0  0  0  0  0  0  0
    7.4543   -2.3447   -0.0896 C   0  0  0  0  0  0  0  0  0  0  0  0
    5.6525   -3.8848    0.6941 C   0  0  0  0  0  0  0  0  0  0  0  0
   -8.2246   -3.5717   -0.0428 C   0  0  0  0  0  0  0  0  0  0  0  0
   -0.4508    4.6613    0.5635 H   0  0  0  0  0  0  0  0  0  0  0  0
    2.1077    4.7695    0.5106 H   0  0  0  0  0  0  0  0  0  0  0  0
   -2.4775    3.4874    0.0637 H   0  0  0  0  0  0  0  0  0  0  0  0
    4.2357    3.6660    0.6462 H   0  0  0  0  0  0  0  0  0  0  0  0
    0.7784    3.6376   -1.7954 H   0  0  0  0  0  0  0  0  0  0  0  0
    0.8818    4.6607    2.4104 H   0  0  0  0  0  0  0  0  0  0  0  0
    6.3392    2.7780    0.2933 H   0  0  0  0  0  0  0  0  0  0  0  0
    6.4681    1.0587    0.6577 H   0  0  0  0  0  0  0  0  0  0  0  0
    6.4312    1.6254   -1.0368 H   0  0  0  0  0  0  0  0  0  0  0  0
    0.8705   -0.8222    0.8973 H   0  0  0  0  0  0  0  0  0  0  0  0
    2.6361   -1.4751   -1.0284 H   0  0  0  0  0  0  0  0  0  0  0  0
   -4.2009   -3.3430   -0.0690 H   0  0  0  0  0  0  0  0  0  0  0  0
    4.8750   -1.4026    1.0447 H   0  0  0  0  0  0  0  0  0  0  0  0
   -7.9447   -1.2039    0.0008 H   0  0  0  0  0  0  0  0  0  0  0  0
    5.7642   -3.0291   -1.2351 H   0  0  0  0  0  0  0  0  0  0  0  0
   -7.8941    0.8801    0.0406 H   0  0  0  0  0  0  0  0  0  0  0  0
    8.0940   -3.1989   -0.3356 H   0  0  0  0  0  0  0  0  0  0  0  0
    7.7132   -1.5210   -0.7635 H   0  0  0  0  0  0  0  0  0  0  0  0
    7.7005   -2.0292    0.9308 H   0  0  0  0  0  0  0  0  0  0  0  0
   -8.6055   -3.1194    0.8792 H   0  0  0  0  0  0  0  0  0  0  0  0
   -8.5812   -4.6068   -0.0601 H   0  0  0  0  0  0  0  0  0  0  0  0
   -8.6196   -3.0840   -0.9405 H   0  0  0  0  0  0  0  0  0  0  0  0
    4.5248   -4.4176    2.1891 H   0  0  0  0  0  0  0  0  0  0  0  0
  1 13  1  0  0  0  0
  1 45  1  0  0  0  0
  2 14  1  0  0  0  0
  2 46  1  0  0  0  0
  3 19  1  0  0  0  0
  3 50  1  0  0  0  0
  4 23  1  0  0  0  0
  4 51  1  0  0  0  0
  5 27  2  0  0  0  0
  6 28  2  0  0  0  0
  7 32  2  0  0  0  0
  8 33  1  0  0  0  0
  8 56  1  0  0  0  0
  9 35  1  0  0  0  0
  9 40  1  0  0  0  0
 10 39  1  0  0  0  0
 10 63  1  0  0  0  0
 11 39  2  0  0  0  0
 12 32  1  0  0  0  0
 12 37  1  0  0  0  0
 12 53  1  0  0  0  0
 13 14  1  0  0  0  0
 13 15  1  0  0  0  0
 13 41  1  0  0  0  0
 14 17  1  0  0  0  0
 14 42  1  0  0  0  0
 15 16  1  0  0  0  0
 15 20  2  0  0  0  0
 16 18  1  0  0  0  0
 16 19  2  0  0  0  0
 17 18  2  0  0  0  0
 17 24  1  0  0  0  0
 18 23  1  0  0  0  0
 19 21  1  0  0  0  0
 20 22  1  0  0  0  0
 20 43  1  0  0  0  0
 21 22  2  0  0  0  0
 21 27  1  0  0  0  0
 22 28  1  0  0  0  0
 23 26  2  0  0  0  0
 24 25  2  0  0  0  0
 24 44  1  0  0  0  0
 25 26  1  0  0  0  0
 25 31  1  0  0  0  0
 26 32  1  0  0  0  0
 27 30  1  0  0  0  0
 28 29  1  0  0  0  0
 29 30  2  0  0  0  0
 29 33  1  0  0  0  0
 30 34  1  0  0  0  0
 31 47  1  0  0  0  0
 31 48  1  0  0  0  0
 31 49  1  0  0  0  0
 33 36  2  0  0  0  0
 34 35  2  0  0  0  0
 34 52  1  0  0  0  0
 35 36  1  0  0  0  0
 36 54  1  0  0  0  0
 37 38  1  0  0  0  0
 37 39  1  0  0  0  0
 37 55  1  0  0  0  0
 38 57  1  0  0  0  0
 38 58  1  0  0  0  0
 38 59  1  0  0  0  0
 40 60  1  0  0  0  0
 40 61  1  0  0  0  0
 40 62  1  0  0  0  0
M  END
> <PUBCHEM_COMPOUND_CID>
441171

> <PUBCHEM_CONFORMER_RMSD>
1

> <PUBCHEM_CONFORMER_DIVERSEORDER>
1
3
4
2

> <PUBCHEM_MMFF94_PARTIAL_CHARGES>
48
1 -0.68
10 -0.65
11 -0.57
12 -0.73
13 0.42
14 0.42
15 -0.14
17 -0.14
19 0.08
2 -0.68
20 -0.15
21 0.09
22 0.09
23 0.08
24 -0.15
25 -0.14
26 0.09
27 0.4
28 0.4
29 0.09
3 -0.53
30 0.09
31 0.14
32 0.54
33 0.08
34 -0.15
35 0.08
36 -0.15
37 0.36
39 0.66
4 -0.53
40 0.28
43 0.15
44 0.15
45 0.4
46 0.4
5 -0.57
50 0.45
51 0.45
52 0.15
53 0.37
54 0.15
56 0.45
6 -0.57
63 0.5
7 -0.57
8 -0.53
9 -0.36

> <PUBCHEM_EFFECTIVE_ROTOR_COUNT>
5.4

> <PUBCHEM_PHARMACOPHORE_FEATURES>
20
1 1 acceptor
1 1 donor
1 10 acceptor
1 11 acceptor
1 12 donor
1 2 acceptor
1 2 donor
1 3 donor
1 4 donor
1 5 acceptor
1 6 acceptor
1 7 acceptor
1 8 donor
1 9 acceptor
3 10 11 39 anion
6 13 14 15 16 17 18 rings
6 15 16 19 20 21 22 rings
6 17 18 23 24 25 26 rings
6 21 22 27 28 29 30 rings
6 29 30 33 34 35 36 rings

> <PUBCHEM_HEAVY_ATOM_COUNT>
40

> <PUBCHEM_ATOM_DEF_STEREO_COUNT>
2

> <PUBCHEM_ATOM_UDEF_STEREO_COUNT>
1

> <PUBCHEM_BOND_DEF_STEREO_COUNT>
0

> <PUBCHEM_BOND_UDEF_STEREO_COUNT>
0

> <PUBCHEM_ISOTOPIC_ATOM_COUNT>
0

> <PUBCHEM_COMPONENT_COUNT>
1

> <PUBCHEM_CACTVS_TAUTO_COUNT>
970

> <PUBCHEM_CONFORMER_ID>
0006BB5300000001

> <PUBCHEM_MMFF94_ENERGY>
152.1203

> <PUBCHEM_FEATURE_SELFOVERLAP>
101.672

> <PUBCHEM_SHAPE_FINGERPRINT>
10050765 1 18410011043931253201
10411042 1 18409446999156063324
10622 236 17679885725116931527
11456790 92 18261943150956932841
117089 54 18411131450738461330
11756154 67 18410289250626976494
11963148 33 18337395920430958678
12107183 9 18262225742292908641
12166972 35 18060131050783183484
1361 4 18411699876611232230
13782708 43 18342458140721217031
13811026 1 18409736140121811660
14068700 675 18187362138635129169
14347332 77 18270399533276644500
14394314 77 18338794623754175928
14866123 147 18119524581857546553
15001296 14 18270122452289133986
15320467 1 17834394523405986522
15347591 1 18411982485670708604
15351339 4 18201725063376950146
15448158 6 18411423894781291604
15890870 6 18194115215454751116
15911013 46 18197216949749565295
16628084 112 17986109844974091914
16992752 21 18265042713259623054
18393751 57 17540274050452900712
19841028 212 18411701015278596106
208703 8 18339931523268098266
21130935 74 18335420141059072387
21267235 1 18194960748100179993
21279426 13 18410576163502068109
22311459 1 18195247702569404756
23522609 53 18051094168973354589
23559900 14 18336832983731749617
23569914 152 17977138895944716335
23569943 247 18269272525100338099
24771750 20 17696183712650060332
3004659 81 18201718488018785286
32027 91 18408893940539010261
350125 39 18264486192234225733
3886686 26 17112412771880287462
4046055 25 18202280337960225308
4073 2 18198058067053154362
4756088 132 18194973941465897043
50009960 94 18269574843690368802
5104073 3 18040995163403942232
5265222 85 17326891773306214464
6057620 51 18343291571326180438
6201320 77 17343464965658110011
6201460 15 17841440537815074026
6697151 62 18114763589039985997
7970288 3 18339081591936211010
9831232 110 18198343949331202447

> <PUBCHEM_SHAPE_MULTIPOLES>
753.64
20.04
6.07
0.95
13.03
1.61
0.04
25.19
-0.27
-5.51
1.51
-1.17
-0.15
-0.65

> <PUBCHEM_SHAPE_SELFOVERLAP>
1696.036

> <PUBCHEM_SHAPE_VOLUME>
393.3

> <PUBCHEM_COORDINATE_TYPE>
2
5
10

$$$$

