11954107
  -OEChem-07051213062D

 52 56  0     1  0  0  0  0  0999 V2000
    7.3571    0.4991    0.0000 O   0  0  0  0  0  0  0  0  0  0  0  0
    2.3441    0.2775    0.0000 O   0  0  0  0  0  0  0  0  0  0  0  0
    9.7225   -2.3424    0.0000 O   0  0  0  0  0  0  0  0  0  0  0  0
    6.2045    0.7027    0.0000 C   0  0  1  0  0  0  0  0  0  0  0  0
    5.3105    1.2374    0.0000 C   0  0  1  0  0  0  0  0  0  0  0  0
    6.2045   -0.2973    0.0000 C   0  0  1  0  0  0  0  0  0  0  0  0
    4.4045    0.7235    0.0000 C   0  0  2  0  0  0  0  0  0  0  0  0
    7.0705   -0.7973    0.0000 C   0  0  1  0  0  0  0  0  0  0  0  0
    5.3105   -0.8320    0.0000 C   0  0  0  0  0  0  0  0  0  0  0  0
    4.4045   -0.3181    0.0000 C   0  0  0  0  0  0  0  0  0  0  0  0
    7.0705    1.2027    0.0000 C   0  0  0  0  0  0  0  0  0  0  0  0
    3.6422    1.4243    0.0000 C   0  0  2  0  0  0  0  0  0  0  0  0
    5.1004    2.2513    0.0000 C   0  0  0  0  0  0  0  0  0  0  0  0
    7.9365    0.7027    0.0000 C   0  0  2  0  0  0  0  0  0  0  0  0
    7.9365   -0.2973    0.0000 C   0  0  0  0  0  0  0  0  0  0  0  0
    4.0714    2.3666    0.0000 C   0  0  0  0  0  0  0  0  0  0  0  0
    6.9571   -0.1937    0.0000 C   0  0  0  0  0  0  0  0  0  0  0  0
    7.0544   -1.8388    0.0000 C   0  0  0  0  0  0  0  0  0  0  0  0
    3.5346    0.2302    0.0000 C   0  0  0  0  0  0  0  0  0  0  0  0
    7.9525   -2.3666    0.0000 C   0  0  0  0  0  0  0  0  0  0  0  0
    2.6621    1.2256    0.0000 C   0  0  0  0  0  0  0  0  0  0  0  0
    8.8465   -0.8041    0.0000 C   0  0  0  0  0  0  0  0  0  0  0  0
    8.8546   -1.8458    0.0000 C   0  0  0  0  0  0  0  0  0  0  0  0
    2.0000    1.9750    0.0000 C   0  0  0  0  0  0  0  0  0  0  0  0
    6.2045    1.5527    0.0000 H   0  0  0  0  0  0  0  0  0  0  0  0
    6.0033    1.7299    0.0000 H   0  0  0  0  0  0  0  0  0  0  0  0
    6.2045   -1.1473    0.0000 H   0  0  0  0  0  0  0  0  0  0  0  0
    4.9169   -1.3110    0.0000 H   0  0  0  0  0  0  0  0  0  0  0  0
    5.7151   -1.3018    0.0000 H   0  0  0  0  0  0  0  0  0  0  0  0
    3.7936   -0.2120    0.0000 H   0  0  0  0  0  0  0  0  0  0  0  0
    4.1954   -0.9018    0.0000 H   0  0  0  0  0  0  0  0  0  0  0  0
    7.4690    1.6776    0.0000 H   0  0  0  0  0  0  0  0  0  0  0  0
    6.6720    1.6776    0.0000 H   0  0  0  0  0  0  0  0  0  0  0  0
    3.2563    1.9096    0.0000 H   0  0  0  0  0  0  0  0  0  0  0  0
    5.7174    2.3126    0.0000 H   0  0  0  0  0  0  0  0  0  0  0  0
    5.1043    2.8713    0.0000 H   0  0  0  0  0  0  0  0  0  0  0  0
    8.3615    1.4388    0.0000 H   0  0  0  0  0  0  0  0  0  0  0  0
    4.2048    2.9720    0.0000 H   0  0  0  0  0  0  0  0  0  0  0  0
    3.4833    2.5629    0.0000 H   0  0  0  0  0  0  0  0  0  0  0  0
    6.5300    0.2557    0.0000 H   0  0  0  0  0  0  0  0  0  0  0  0
    6.4051   -0.4761    0.0000 H   0  0  0  0  0  0  0  0  0  0  0  0
    6.4453   -1.7233    0.0000 H   0  0  0  0  0  0  0  0  0  0  0  0
    6.8364   -2.4192    0.0000 H   0  0  0  0  0  0  0  0  0  0  0  0
    3.2288    0.7695    0.0000 H   0  0  0  0  0  0  0  0  0  0  0  0
    2.9953   -0.0756    0.0000 H   0  0  0  0  0  0  0  0  0  0  0  0
    3.8405   -0.3091    0.0000 H   0  0  0  0  0  0  0  0  0  0  0  0
    7.5515   -2.8395    0.0000 H   0  0  0  0  0  0  0  0  0  0  0  0
    8.3498   -2.8425    0.0000 H   0  0  0  0  0  0  0  0  0  0  0  0
    9.3798   -0.4880    0.0000 H   0  0  0  0  0  0  0  0  0  0  0  0
    2.4646    2.3855    0.0000 H   0  0  0  0  0  0  0  0  0  0  0  0
    1.5895    2.4397    0.0000 H   0  0  0  0  0  0  0  0  0  0  0  0
    1.5354    1.5645    0.0000 H   0  0  0  0  0  0  0  0  0  0  0  0
  1 14  1  0  0  0  0
  1 17  1  0  0  0  0
  2 21  2  0  0  0  0
  3 23  2  0  0  0  0
  4  5  1  0  0  0  0
  4  6  1  0  0  0  0
  4 11  1  0  0  0  0
  4 25  1  1  0  0  0
  5  7  1  0  0  0  0
  5 13  1  0  0  0  0
  5 26  1  6  0  0  0
  6  8  1  0  0  0  0
  6  9  1  0  0  0  0
  6 27  1  6  0  0  0
  7 10  1  0  0  0  0
  7 12  1  0  0  0  0
  7 19  1  1  0  0  0
  8 15  1  0  0  0  0
  8 17  1  0  0  0  0
  8 18  1  1  0  0  0
  9 10  1  0  0  0  0
  9 28  1  0  0  0  0
  9 29  1  0  0  0  0
 10 30  1  0  0  0  0
 10 31  1  0  0  0  0
 11 14  1  0  0  0  0
 11 32  1  0  0  0  0
 11 33  1  0  0  0  0
 12 16  1  0  0  0  0
 12 21  1  1  0  0  0
 12 34  1  0  0  0  0
 13 16  1  0  0  0  0
 13 35  1  0  0  0  0
 13 36  1  0  0  0  0
 14 15  1  0  0  0  0
 14 37  1  1  0  0  0
 15 22  2  0  0  0  0
 16 38  1  0  0  0  0
 16 39  1  0  0  0  0
 17 40  1  0  0  0  0
 17 41  1  0  0  0  0
 18 20  1  0  0  0  0
 18 42  1  0  0  0  0
 18 43  1  0  0  0  0
 19 44  1  0  0  0  0
 19 45  1  0  0  0  0
 19 46  1  0  0  0  0
 20 23  1  0  0  0  0
 20 47  1  0  0  0  0
 20 48  1  0  0  0  0
 21 24  1  0  0  0  0
 22 23  1  0  0  0  0
 22 49  1  0  0  0  0
 24 50  1  0  0  0  0
 24 51  1  0  0  0  0
 24 52  1  0  0  0  0
M  END
> <PUBCHEM_COMPOUND_CID>
11954107

> <PUBCHEM_COMPOUND_CANONICALIZED>
1

> <PUBCHEM_CACTVS_COMPLEXITY>
650

> <PUBCHEM_CACTVS_HBOND_ACCEPTOR>
3

> <PUBCHEM_CACTVS_HBOND_DONOR>
0

> <PUBCHEM_CACTVS_ROTATABLE_BOND>
1

> <PUBCHEM_CACTVS_SUBSKEYS>
AAADceB4MAAAAAAAAAAAAAAAAAAAAaIAAAAwYIAABIAAAGDAAAAAGgAAAAAADxSggAICAAAABACIAqBSAAAAAAAgAAAACAEAAEgABBIAIQACEAAEwAAIIQOIzPCPgAAAAAAAAADAAAYAACAAAQAACAAAAA==

> <PUBCHEM_IUPAC_INCHI>
InChI=1S/C21H28O3/c1-12(22)15-3-4-16-14-10-19-18-9-13(23)5-8-21(18,11-24-19)17(14)6-7-20(15,16)2/h9,14-17,19H,3-8,10-11H2,1-2H3/t14-,15+,16-,17-,19+,20+,21-/m0/s1

> <PUBCHEM_IUPAC_INCHIKEY>
OPWRVUYZIIWQJW-WEEZVYGMSA-N

> <PUBCHEM_XLOGP3_AA>
2.5

> <PUBCHEM_EXACT_MASS>
328.203845

> <PUBCHEM_MOLECULAR_FORMULA>
C21H28O3

> <PUBCHEM_MOLECULAR_WEIGHT>
328.44522

> <PUBCHEM_OPENEYE_CAN_SMILES>
CC(=O)C1CCC2C1(CCC3C2CC4C5=CC(=O)CCC35CO4)C

> <PUBCHEM_OPENEYE_ISO_SMILES>
CC(=O)[C@H]1CC[C@@H]2[C@@]1(CC[C@H]3[C@H]2C[C@@H]4C5=CC(=O)CC[C@]35CO4)C

> <PUBCHEM_CACTVS_TPSA>
43.4

> <PUBCHEM_MONOISOTOPIC_WEIGHT>
328.203845

> <PUBCHEM_TOTAL_CHARGE>
0

> <PUBCHEM_HEAVY_ATOM_COUNT>
24

> <PUBCHEM_ATOM_DEF_STEREO_COUNT>
7

> <PUBCHEM_ATOM_UDEF_STEREO_COUNT>
0

> <PUBCHEM_BOND_DEF_STEREO_COUNT>
0

> <PUBCHEM_BOND_UDEF_STEREO_COUNT>
0

> <PUBCHEM_ISOTOPIC_ATOM_COUNT>
0

> <PUBCHEM_COMPONENT_COUNT>
1

> <PUBCHEM_CACTVS_TAUTO_COUNT>
6

> <PUBCHEM_COORDINATE_TYPE>
1
5
255

> <PUBCHEM_BONDANNOTATIONS>
12  21  5
14  37  5
4  25  5
5  26  6
6  27  6
7  19  5
8  18  5

$$$$

