5281818
  -OEChem-07051212592D

 57 59  0     1  0  0  0  0  0999 V2000
    5.1350   -3.9640    0.0000 O   0  0  0  0  0  0  0  0  0  0  0  0
    2.5369   -5.4640    0.0000 O   0  0  0  0  0  0  0  0  0  0  0  0
    2.5369   -3.4640    0.0000 O   0  0  0  0  0  0  0  0  0  0  0  0
    4.2690   -6.4640    0.0000 O   0  0  0  0  0  0  0  0  0  0  0  0
    6.8671   -4.9640    0.0000 O   0  0  0  0  0  0  0  0  0  0  0  0
    4.1366    2.6244    0.0000 O   0  0  0  0  0  0  0  0  0  0  0  0
    4.2690   -2.4640    0.0000 N   0  0  0  0  0  0  0  0  0  0  0  0
    3.7690   -0.9252    0.0000 N   0  0  0  0  0  0  0  0  0  0  0  0
    5.5378    1.6064    0.0000 N   0  0  0  0  0  0  0  0  0  0  0  0
    3.4030   -4.9640    0.0000 C   0  0  2  0  0  0  0  0  0  0  0  0
    3.4030   -3.9640    0.0000 C   0  0  2  0  0  0  0  0  0  0  0  0
    4.2690   -5.4640    0.0000 C   0  0  1  0  0  0  0  0  0  0  0  0
    4.2690   -3.4640    0.0000 C   0  0  1  0  0  0  0  0  0  0  0  0
    5.1350   -4.9640    0.0000 C   0  0  1  0  0  0  0  0  0  0  0  0
    6.0010   -5.4640    0.0000 C   0  0  0  0  0  0  0  0  0  0  0  0
    5.0780   -1.8763    0.0000 C   0  0  0  0  0  0  0  0  0  0  0  0
    3.4600   -1.8763    0.0000 C   0  0  0  0  0  0  0  0  0  0  0  0
    4.7690   -0.9252    0.0000 C   0  0  0  0  0  0  0  0  0  0  0  0
    5.3568   -0.1162    0.0000 C   0  0  0  0  0  0  0  0  0  0  0  0
    4.9500    0.7974    0.0000 C   0  0  0  0  0  0  0  0  0  0  0  0
    6.5323    1.5018    0.0000 C   0  0  0  0  0  0  0  0  0  0  0  0
    5.1311    2.5199    0.0000 C   0  0  0  0  0  0  0  0  0  0  0  0
    5.7189    3.3289    0.0000 C   0  0  0  0  0  0  0  0  0  0  0  0
    5.3121    4.2425    0.0000 C   0  0  0  0  0  0  0  0  0  0  0  0
    5.8999    5.0515    0.0000 C   0  0  0  0  0  0  0  0  0  0  0  0
    6.8944    4.9470    0.0000 C   0  0  0  0  0  0  0  0  0  0  0  0
    5.4932    5.9650    0.0000 C   0  0  0  0  0  0  0  0  0  0  0  0
    7.4822    5.7560    0.0000 C   0  0  0  0  0  0  0  0  0  0  0  0
    6.0810    6.7740    0.0000 C   0  0  0  0  0  0  0  0  0  0  0  0
    7.0755    6.6695    0.0000 C   0  0  0  0  0  0  0  0  0  0  0  0
    3.4030   -5.5841    0.0000 H   0  0  0  0  0  0  0  0  0  0  0  0
    3.4030   -3.3440    0.0000 H   0  0  0  0  0  0  0  0  0  0  0  0
    4.8059   -5.7740    0.0000 H   0  0  0  0  0  0  0  0  0  0  0  0
    4.8059   -3.1540    0.0000 H   0  0  0  0  0  0  0  0  0  0  0  0
    5.6720   -4.6540    0.0000 H   0  0  0  0  0  0  0  0  0  0  0  0
    5.6025   -5.9390    0.0000 H   0  0  0  0  0  0  0  0  0  0  0  0
    6.3996   -5.9390    0.0000 H   0  0  0  0  0  0  0  0  0  0  0  0
    5.6677   -2.0679    0.0000 H   0  0  0  0  0  0  0  0  0  0  0  0
    2.5369   -6.0841    0.0000 H   0  0  0  0  0  0  0  0  0  0  0  0
    2.0000   -3.7740    0.0000 H   0  0  0  0  0  0  0  0  0  0  0  0
    4.8059   -6.7740    0.0000 H   0  0  0  0  0  0  0  0  0  0  0  0
    2.8703   -2.0679    0.0000 H   0  0  0  0  0  0  0  0  0  0  0  0
    5.7875   -0.5622    0.0000 H   0  0  0  0  0  0  0  0  0  0  0  0
    5.8708    0.2305    0.0000 H   0  0  0  0  0  0  0  0  0  0  0  0
    7.4040   -5.2740    0.0000 H   0  0  0  0  0  0  0  0  0  0  0  0
    4.5194    1.2433    0.0000 H   0  0  0  0  0  0  0  0  0  0  0  0
    4.4360    0.4506    0.0000 H   0  0  0  0  0  0  0  0  0  0  0  0
    6.4675    0.8852    0.0000 H   0  0  0  0  0  0  0  0  0  0  0  0
    7.1490    1.4370    0.0000 H   0  0  0  0  0  0  0  0  0  0  0  0
    6.5972    2.1184    0.0000 H   0  0  0  0  0  0  0  0  0  0  0  0
    6.3355    3.2641    0.0000 H   0  0  0  0  0  0  0  0  0  0  0  0
    4.6955    4.3073    0.0000 H   0  0  0  0  0  0  0  0  0  0  0  0
    7.1466    4.3806    0.0000 H   0  0  0  0  0  0  0  0  0  0  0  0
    4.8766    6.0298    0.0000 H   0  0  0  0  0  0  0  0  0  0  0  0
    8.0988    5.6912    0.0000 H   0  0  0  0  0  0  0  0  0  0  0  0
    5.8288    7.3404    0.0000 H   0  0  0  0  0  0  0  0  0  0  0  0
    7.4399    7.1711    0.0000 H   0  0  0  0  0  0  0  0  0  0  0  0
  1 13  1  0  0  0  0
  1 14  1  0  0  0  0
 10  2  1  6  0  0  0
  2 39  1  0  0  0  0
 11  3  1  1  0  0  0
  3 40  1  0  0  0  0
 12  4  1  1  0  0  0
  4 41  1  0  0  0  0
  5 15  1  0  0  0  0
  5 45  1  0  0  0  0
  6 22  2  0  0  0  0
 13  7  1  6  0  0  0
  7 16  1  0  0  0  0
  7 17  1  0  0  0  0
  8 17  2  0  0  0  0
  8 18  1  0  0  0  0
  9 20  1  0  0  0  0
  9 21  1  0  0  0  0
  9 22  1  0  0  0  0
 10 11  1  0  0  0  0
 10 12  1  0  0  0  0
 10 31  1  0  0  0  0
 11 13  1  0  0  0  0
 11 32  1  0  0  0  0
 12 14  1  0  0  0  0
 12 33  1  0  0  0  0
 13 34  1  0  0  0  0
 14 15  1  6  0  0  0
 14 35  1  0  0  0  0
 15 36  1  0  0  0  0
 15 37  1  0  0  0  0
 16 18  2  0  0  0  0
 16 38  1  0  0  0  0
 17 42  1  0  0  0  0
 18 19  1  0  0  0  0
 19 20  1  0  0  0  0
 19 43  1  0  0  0  0
 19 44  1  0  0  0  0
 20 46  1  0  0  0  0
 20 47  1  0  0  0  0
 21 48  1  0  0  0  0
 21 49  1  0  0  0  0
 21 50  1  0  0  0  0
 22 23  1  0  0  0  0
 23 24  2  0  0  0  0
 23 51  1  0  0  0  0
 24 25  1  0  0  0  0
 24 52  1  0  0  0  0
 25 26  2  0  0  0  0
 25 27  1  0  0  0  0
 26 28  1  0  0  0  0
 26 53  1  0  0  0  0
 27 29  2  0  0  0  0
 27 54  1  0  0  0  0
 28 30  2  0  0  0  0
 28 55  1  0  0  0  0
 29 30  1  0  0  0  0
 29 56  1  0  0  0  0
 30 57  1  0  0  0  0
M  END
> <PUBCHEM_COMPOUND_CID>
5281818

> <PUBCHEM_COMPOUND_CANONICALIZED>
1

> <PUBCHEM_CACTVS_COMPLEXITY>
585

> <PUBCHEM_CACTVS_HBOND_ACCEPTOR>
7

> <PUBCHEM_CACTVS_HBOND_DONOR>
4

> <PUBCHEM_CACTVS_ROTATABLE_BOND>
7

> <PUBCHEM_CACTVS_SUBSKEYS>
AAADceB7OAAAAAAAAAAAAAAAAAAAAWAAAAA0QAAAAAAAAAABwAAAHgAACAAADBzhngY/kJcMFgCoAzV3dACCgC0xEqAJ2AA4cMiLeCLA2RGeYAAvhgLbyafw8AYOAAAAAAAAAAAAAAAAAAAAAAAAAAAAAA==

> <PUBCHEM_IUPAC_OPENEYE_NAME>
(E)-N-methyl-3-phenyl-N-[2-[1-[(2R,3R,4S,5S,6R)-3,4,5-trihydroxy-6-(hydroxymethyl)tetrahydropyran-2-yl]imidazol-4-yl]ethyl]prop-2-enamide

> <PUBCHEM_IUPAC_CAS_NAME>
(E)-N-methyl-3-phenyl-N-[2-[1-[(2R,3R,4S,5S,6R)-3,4,5-trihydroxy-6-(hydroxymethyl)-2-oxanyl]-4-imidazolyl]ethyl]-2-propenamide

> <PUBCHEM_IUPAC_NAME>
(E)-N-methyl-3-phenyl-N-[2-[1-[(2R,3R,4S,5S,6R)-3,4,5-trihydroxy-6-(hydroxymethyl)oxan-2-yl]imidazol-4-yl]ethyl]prop-2-enamide

> <PUBCHEM_IUPAC_SYSTEMATIC_NAME>
(E)-N-[2-[1-[(2R,3R,4S,5S,6R)-6-(hydroxymethyl)-3,4,5-tris(oxidanyl)oxan-2-yl]imidazol-4-yl]ethyl]-N-methyl-3-phenyl-prop-2-enamide

> <PUBCHEM_IUPAC_TRADITIONAL_NAME>
(E)-N-methyl-3-phenyl-N-[2-[1-[(2R,3R,4S,5S,6R)-3,4,5-trihydroxy-6-methylol-tetrahydropyran-2-yl]imidazol-4-yl]ethyl]acrylamide

> <PUBCHEM_IUPAC_INCHI>
InChI=1S/C21H27N3O6/c1-23(17(26)8-7-14-5-3-2-4-6-14)10-9-15-11-24(13-22-15)21-20(29)19(28)18(27)16(12-25)30-21/h2-8,11,13,16,18-21,25,27-29H,9-10,12H2,1H3/b8-7+/t16-,18-,19+,20-,21-/m1/s1

> <PUBCHEM_IUPAC_INCHIKEY>
CSFQQZOIHVWGMN-BBAXEOEJSA-N

> <PUBCHEM_XLOGP3_AA>
-0.3

> <PUBCHEM_EXACT_MASS>
417.189986

> <PUBCHEM_MOLECULAR_FORMULA>
C21H27N3O6

> <PUBCHEM_MOLECULAR_WEIGHT>
417.45558

> <PUBCHEM_OPENEYE_CAN_SMILES>
CN(CCC1=CN(C=N1)C2C(C(C(C(O2)CO)O)O)O)C(=O)C=CC3=CC=CC=C3

> <PUBCHEM_OPENEYE_ISO_SMILES>
CN(CCC1=CN(C=N1)[C@H]2[C@@H]([C@H]([C@@H]([C@H](O2)CO)O)O)O)C(=O)/C=C/C3=CC=CC=C3

> <PUBCHEM_CACTVS_TPSA>
128

> <PUBCHEM_MONOISOTOPIC_WEIGHT>
417.189986

> <PUBCHEM_TOTAL_CHARGE>
0

> <PUBCHEM_HEAVY_ATOM_COUNT>
30

> <PUBCHEM_ATOM_DEF_STEREO_COUNT>
5

> <PUBCHEM_ATOM_UDEF_STEREO_COUNT>
0

> <PUBCHEM_BOND_DEF_STEREO_COUNT>
1

> <PUBCHEM_BOND_UDEF_STEREO_COUNT>
0

> <PUBCHEM_ISOTOPIC_ATOM_COUNT>
0

> <PUBCHEM_COMPONENT_COUNT>
1

> <PUBCHEM_CACTVS_TAUTO_COUNT>
1

> <PUBCHEM_COORDINATE_TYPE>
1
5
255

> <PUBCHEM_BONDANNOTATIONS>
14  15  6
16  18  8
10  2  6
25  26  8
25  27  8
26  28  8
27  29  8
28  30  8
29  30  8
11  3  5
12  4  5
13  7  6
7  16  8
7  17  8
8  17  8
8  18  8

$$$$

