164787
  -OEChem-07051213043D

 29 29  0     0  0  0  0  0  0999 V2000
    2.9142    2.5671    0.2302 Cl  0  0  0  0  0  0  0  0  0  0  0  0
   -1.2907   -1.4203    1.7438 O   0  0  0  0  0  0  0  0  0  0  0  0
   -2.5255    0.0347   -0.9431 N   0  0  0  0  0  0  0  0  0  0  0  0
   -1.6704    0.7753    1.1321 N   0  0  0  0  0  0  0  0  0  0  0  0
    0.9871    0.9098    0.6748 N   0  0  0  0  0  0  0  0  0  0  0  0
    2.2775   -1.3070   -0.4597 N   0  0  0  0  0  0  0  0  0  0  0  0
   -3.2302    2.1095   -0.0867 N   0  0  0  0  0  0  0  0  0  0  0  0
    0.3821   -2.6446    0.0524 N   0  0  0  0  0  0  0  0  0  0  0  0
    4.1531    0.0570   -0.9545 N   0  0  0  0  0  0  0  0  0  0  0  0
    0.4402   -0.3045    0.6139 C   0  0  0  0  0  0  0  0  0  0  0  0
   -2.4420    0.9869    0.0886 C   0  0  0  0  0  0  0  0  0  0  0  0
    1.0417   -1.3950    0.0706 C   0  0  0  0  0  0  0  0  0  0  0  0
   -3.4996   -1.0541   -0.9612 C   0  0  0  0  0  0  0  0  0  0  0  0
   -1.6919    0.1577   -2.1384 C   0  0  0  0  0  0  0  0  0  0  0  0
   -0.9253   -0.3795    1.2059 C   0  0  0  0  0  0  0  0  0  0  0  0
    2.8568   -0.0909   -0.4130 C   0  0  0  0  0  0  0  0  0  0  0  0
    2.2230    0.9979    0.1442 C   0  0  0  0  0  0  0  0  0  0  0  0
   -3.0078   -2.0059   -1.1857 H   0  0  0  0  0  0  0  0  0  0  0  0
   -4.2658   -0.8621   -1.7186 H   0  0  0  0  0  0  0  0  0  0  0  0
   -3.9935   -1.1494    0.0113 H   0  0  0  0  0  0  0  0  0  0  0  0
   -2.3061    0.4539   -2.9945 H   0  0  0  0  0  0  0  0  0  0  0  0
   -1.2047   -0.7954   -2.3673 H   0  0  0  0  0  0  0  0  0  0  0  0
   -0.9113    0.9132   -2.0011 H   0  0  0  0  0  0  0  0  0  0  0  0
   -3.2458    2.8525    0.6033 H   0  0  0  0  0  0  0  0  0  0  0  0
   -3.8099    2.2200   -0.9114 H   0  0  0  0  0  0  0  0  0  0  0  0
    0.8830   -3.4151   -0.3734 H   0  0  0  0  0  0  0  0  0  0  0  0
   -0.2683   -2.8649    0.7957 H   0  0  0  0  0  0  0  0  0  0  0  0
    4.4291    0.9674   -1.3012 H   0  0  0  0  0  0  0  0  0  0  0  0
    4.5823   -0.7643   -1.3621 H   0  0  0  0  0  0  0  0  0  0  0  0
  1 17  1  0  0  0  0
  2 15  2  0  0  0  0
  3 11  1  0  0  0  0
  3 13  1  0  0  0  0
  3 14  1  0  0  0  0
  4 11  2  0  0  0  0
  4 15  1  0  0  0  0
  5 10  1  0  0  0  0
  5 17  2  0  0  0  0
  6 12  1  0  0  0  0
  6 16  2  0  0  0  0
  7 11  1  0  0  0  0
  7 24  1  0  0  0  0
  7 25  1  0  0  0  0
  8 12  1  0  0  0  0
  8 26  1  0  0  0  0
  8 27  1  0  0  0  0
  9 16  1  0  0  0  0
  9 28  1  0  0  0  0
  9 29  1  0  0  0  0
 10 12  2  0  0  0  0
 10 15  1  0  0  0  0
 13 18  1  0  0  0  0
 13 19  1  0  0  0  0
 13 20  1  0  0  0  0
 14 21  1  0  0  0  0
 14 22  1  0  0  0  0
 14 23  1  0  0  0  0
 16 17  1  0  0  0  0
M  END
> <PUBCHEM_COMPOUND_CID>
164787

> <PUBCHEM_CONFORMER_RMSD>
0.6

> <PUBCHEM_CONFORMER_DIVERSEORDER>
1
12
2
19
10
20
17
11
16
5
6
14
18
7
9
8
15
4
13
3

> <PUBCHEM_MMFF94_PARTIAL_CHARGES>
23
1 -0.18
10 0.4
11 0.55
12 0.41
13 0.37
14 0.37
15 0.69
16 0.41
17 0.49
2 -0.57
24 0.4
25 0.4
26 0.4
27 0.4
28 0.4
29 0.4
3 -0.79
4 -0.66
5 -0.62
6 -0.62
7 -0.85
8 -0.9
9 -0.9

> <PUBCHEM_EFFECTIVE_ROTOR_COUNT>
3

> <PUBCHEM_PHARMACOPHORE_FEATURES>
9
1 2 acceptor
1 4 donor
1 5 acceptor
1 7 donor
1 8 cation
1 8 donor
1 9 donor
3 6 9 16 cation
6 5 6 10 12 16 17 rings

> <PUBCHEM_HEAVY_ATOM_COUNT>
17

> <PUBCHEM_ATOM_DEF_STEREO_COUNT>
0

> <PUBCHEM_ATOM_UDEF_STEREO_COUNT>
0

> <PUBCHEM_BOND_DEF_STEREO_COUNT>
0

> <PUBCHEM_BOND_UDEF_STEREO_COUNT>
0

> <PUBCHEM_ISOTOPIC_ATOM_COUNT>
0

> <PUBCHEM_COMPONENT_COUNT>
1

> <PUBCHEM_CACTVS_TAUTO_COUNT>
33

> <PUBCHEM_CONFORMER_ID>
000283B300000001

> <PUBCHEM_MMFF94_ENERGY>
79.0778

> <PUBCHEM_FEATURE_SELFOVERLAP>
45.703

> <PUBCHEM_SHAPE_FINGERPRINT>
12138202 97 17775002362484174130
14115302 16 16588312721384531389
15775835 57 18336825402465190669
15852999 172 17775295940699791411
16945 1 18118119405716920369
18186145 218 18409173211791212260
18981168 100 18055622920350534756
19422 9 17531243916372289823
20281407 28 7420950876174254512
20645476 183 17968664942353794399
21524375 3 18060426815153056162
21947302 44 18342748398684456368
23402655 69 18336262461170580693
23419403 2 16763397548969740415
23557571 272 17700125500399612722
23559900 14 15502383370027524798
23598291 2 17680706222546138947
25 1 18198336449648234425
2748010 2 18266724802070846376
3286 77 18342752822421753966
7832392 63 18190748737290887433
81228 2 17130123335533163667

> <PUBCHEM_SHAPE_MULTIPOLES>
310.99
5.85
2.22
1.41
1
0.21
-0.22
1.88
-2.06
0.49
0.24
-0.87
-0.19
0.19

> <PUBCHEM_SHAPE_SELFOVERLAP>
636.582

> <PUBCHEM_SHAPE_VOLUME>
182.4

> <PUBCHEM_COORDINATE_TYPE>
2
5
10

$$$$

