5282093
  -OEChem-07051213033D

 58 58  0     1  0  0  0  0  0999 V2000
   -3.3319   -2.1116    1.0389 O   0  0  0  0  0  0  0  0  0  0  0  0
   -0.9197   -3.5064    0.8094 O   0  0  0  0  0  0  0  0  0  0  0  0
    0.1990   -1.9676   -1.3802 O   0  0  0  0  0  0  0  0  0  0  0  0
    3.1699   -0.5079    0.7994 O   0  0  0  0  0  0  0  0  0  0  0  0
   -2.0598    3.7029   -0.8784 O   0  0  0  0  0  0  0  0  0  0  0  0
    3.4086   -1.8856   -1.0373 O   0  0  0  0  0  0  0  0  0  0  0  0
   -2.4860   -0.1260   -0.0988 C   0  0  2  0  0  0  0  0  0  0  0  0
   -2.2915   -1.6427    0.1699 C   0  0  1  0  0  0  0  0  0  0  0  0
   -2.3354    0.7357    1.1806 C   0  0  0  0  0  0  0  0  0  0  0  0
   -0.9358   -2.0715    0.7717 C   0  0  2  0  0  0  0  0  0  0  0  0
   -3.8525    0.1054   -0.7622 C   0  0  0  0  0  0  0  0  0  0  0  0
   -2.5156    2.2586    0.9909 C   0  0  1  0  0  0  0  0  0  0  0  0
    0.3094   -1.6007   -0.0034 C   0  0  1  0  0  0  0  0  0  0  0  0
   -4.0129   -0.7600   -1.9929 C   0  0  0  0  0  0  0  0  0  0  0  0
    1.5984   -2.2383    0.5259 C   0  0  0  0  0  0  0  0  0  0  0  0
   -2.2995    2.9990    2.3109 C   0  0  0  0  0  0  0  0  0  0  0  0
   -1.6185    2.8768   -0.0806 C   0  0  0  0  0  0  0  0  0  0  0  0
    2.8292   -1.5455   -0.0145 C   0  0  0  0  0  0  0  0  0  0  0  0
   -0.9456   -4.0488   -0.4983 C   0  0  0  0  0  0  0  0  0  0  0  0
   -0.1916    2.4598   -0.1143 C   0  0  0  0  0  0  0  0  0  0  0  0
    4.3483    0.2671    0.4745 C   0  0  1  0  0  0  0  0  0  0  0  0
    4.0886    1.2254   -0.7032 C   0  0  0  0  0  0  0  0  0  0  0  0
    0.4878    2.4869   -1.2689 C   0  0  0  0  0  0  0  0  0  0  0  0
    4.7554    1.0068    1.7462 C   0  0  0  0  0  0  0  0  0  0  0  0
    2.8090    2.0007   -0.5586 C   0  0  0  0  0  0  0  0  0  0  0  0
    1.7927    1.8875   -1.4268 C   0  0  0  0  0  0  0  0  0  0  0  0
   -1.7188    0.1851   -0.8158 H   0  0  0  0  0  0  0  0  0  0  0  0
   -2.4617   -2.1449   -0.7714 H   0  0  0  0  0  0  0  0  0  0  0  0
   -1.3531    0.5432    1.6269 H   0  0  0  0  0  0  0  0  0  0  0  0
   -3.0700    0.3972    1.9235 H   0  0  0  0  0  0  0  0  0  0  0  0
   -0.8701   -1.7468    1.8162 H   0  0  0  0  0  0  0  0  0  0  0  0
   -3.9292    1.1497   -1.0851 H   0  0  0  0  0  0  0  0  0  0  0  0
   -4.6797   -0.0677   -0.0647 H   0  0  0  0  0  0  0  0  0  0  0  0
   -3.5512    2.4460    0.6811 H   0  0  0  0  0  0  0  0  0  0  0  0
    0.3919   -0.5115    0.0440 H   0  0  0  0  0  0  0  0  0  0  0  0
   -3.1195   -0.7468   -2.6258 H   0  0  0  0  0  0  0  0  0  0  0  0
   -4.2705   -1.7951   -1.7503 H   0  0  0  0  0  0  0  0  0  0  0  0
   -4.8435   -0.3783   -2.5980 H   0  0  0  0  0  0  0  0  0  0  0  0
    1.6954   -3.2947    0.2556 H   0  0  0  0  0  0  0  0  0  0  0  0
    1.6358   -2.1916    1.6213 H   0  0  0  0  0  0  0  0  0  0  0  0
   -1.2886    2.8392    2.7013 H   0  0  0  0  0  0  0  0  0  0  0  0
   -2.4347    4.0781    2.1796 H   0  0  0  0  0  0  0  0  0  0  0  0
   -3.0131    2.6587    3.0686 H   0  0  0  0  0  0  0  0  0  0  0  0
   -4.1663   -2.1171    0.5419 H   0  0  0  0  0  0  0  0  0  0  0  0
   -0.4763   -1.4001   -1.7876 H   0  0  0  0  0  0  0  0  0  0  0  0
    0.0676   -4.2431   -0.8630 H   0  0  0  0  0  0  0  0  0  0  0  0
   -1.5517   -3.5929   -1.2775 H   0  0  0  0  0  0  0  0  0  0  0  0
   -1.3734   -5.0529   -0.3827 H   0  0  0  0  0  0  0  0  0  0  0  0
    0.2281    2.0305    0.7887 H   0  0  0  0  0  0  0  0  0  0  0  0
    5.1636   -0.4184    0.2101 H   0  0  0  0  0  0  0  0  0  0  0  0
    4.0593    0.6402   -1.6306 H   0  0  0  0  0  0  0  0  0  0  0  0
    4.9257    1.9256   -0.8079 H   0  0  0  0  0  0  0  0  0  0  0  0
    0.0248    2.8463   -2.1835 H   0  0  0  0  0  0  0  0  0  0  0  0
    4.9864    0.2884    2.5408 H   0  0  0  0  0  0  0  0  0  0  0  0
    5.6377    1.6319    1.5788 H   0  0  0  0  0  0  0  0  0  0  0  0
    3.9425    1.6340    2.1266 H   0  0  0  0  0  0  0  0  0  0  0  0
    2.7064    2.6295    0.3219 H   0  0  0  0  0  0  0  0  0  0  0  0
    1.9079    1.2749   -2.3177 H   0  0  0  0  0  0  0  0  0  0  0  0
  1  8  1  0  0  0  0
  1 44  1  0  0  0  0
  2 10  1  0  0  0  0
  2 19  1  0  0  0  0
  3 13  1  0  0  0  0
  3 45  1  0  0  0  0
  4 18  1  0  0  0  0
  4 21  1  0  0  0  0
  5 17  2  0  0  0  0
  6 18  2  0  0  0  0
  7  8  1  0  0  0  0
  7  9  1  0  0  0  0
  7 11  1  0  0  0  0
  7 27  1  0  0  0  0
  8 10  1  0  0  0  0
  8 28  1  0  0  0  0
  9 12  1  0  0  0  0
  9 29  1  0  0  0  0
  9 30  1  0  0  0  0
 10 13  1  0  0  0  0
 10 31  1  0  0  0  0
 11 14  1  0  0  0  0
 11 32  1  0  0  0  0
 11 33  1  0  0  0  0
 12 16  1  0  0  0  0
 12 17  1  0  0  0  0
 12 34  1  0  0  0  0
 13 15  1  0  0  0  0
 13 35  1  0  0  0  0
 14 36  1  0  0  0  0
 14 37  1  0  0  0  0
 14 38  1  0  0  0  0
 15 18  1  0  0  0  0
 15 39  1  0  0  0  0
 15 40  1  0  0  0  0
 16 41  1  0  0  0  0
 16 42  1  0  0  0  0
 16 43  1  0  0  0  0
 17 20  1  0  0  0  0
 19 46  1  0  0  0  0
 19 47  1  0  0  0  0
 19 48  1  0  0  0  0
 20 23  2  0  0  0  0
 20 49  1  0  0  0  0
 21 22  1  0  0  0  0
 21 24  1  0  0  0  0
 21 50  1  0  0  0  0
 22 25  1  0  0  0  0
 22 51  1  0  0  0  0
 22 52  1  0  0  0  0
 23 26  1  0  0  0  0
 23 53  1  0  0  0  0
 24 54  1  0  0  0  0
 24 55  1  0  0  0  0
 24 56  1  0  0  0  0
 25 26  2  0  0  0  0
 25 57  1  0  0  0  0
 26 58  1  0  0  0  0
M  END
> <PUBCHEM_COMPOUND_CID>
5282093

> <PUBCHEM_CONFORMER_RMSD>
0.8

> <PUBCHEM_CONFORMER_DIVERSEORDER>
1

> <PUBCHEM_MMFF94_PARTIAL_CHARGES>
26
1 -0.68
10 0.28
12 0.06
13 0.28
15 0.06
17 0.49
18 0.66
19 0.28
2 -0.56
20 -0.14
21 0.28
22 0.14
23 -0.15
25 -0.29
26 -0.15
3 -0.68
4 -0.43
44 0.4
45 0.4
49 0.15
5 -0.57
53 0.15
57 0.15
58 0.15
6 -0.57
8 0.28

> <PUBCHEM_EFFECTIVE_ROTOR_COUNT>
4

> <PUBCHEM_PHARMACOPHORE_FEATURES>
8
1 1 acceptor
1 1 donor
1 14 hydrophobe
1 2 acceptor
1 3 acceptor
1 3 donor
1 5 acceptor
1 6 acceptor

> <PUBCHEM_HEAVY_ATOM_COUNT>
26

> <PUBCHEM_ATOM_DEF_STEREO_COUNT>
6

> <PUBCHEM_ATOM_UDEF_STEREO_COUNT>
0

> <PUBCHEM_BOND_DEF_STEREO_COUNT>
2

> <PUBCHEM_BOND_UDEF_STEREO_COUNT>
0

> <PUBCHEM_ISOTOPIC_ATOM_COUNT>
0

> <PUBCHEM_COMPONENT_COUNT>
1

> <PUBCHEM_CACTVS_TAUTO_COUNT>
2

> <PUBCHEM_CONFORMER_ID>
0050992D00000001

> <PUBCHEM_MMFF94_ENERGY>
76.1378

> <PUBCHEM_FEATURE_SELFOVERLAP>
40.601

> <PUBCHEM_SHAPE_FINGERPRINT>
10366900 7 18041563533896273384
10670039 82 18339347605610690868
10708813 3 18266453394181167664
11370993 70 18266187308241330592
12156800 1 14163283630809088037
12422481 6 18193529333899868401
12539773 59 18041281083898442613
12553582 1 18341038615148882076
12838863 1 18196682655601671338
13122387 1 18341888636452431982
13140716 1 17977101267129378824
1361 2 17766570423066131325
14081887 123 18262525788597047304
14251757 17 17630634338668936421
14464042 87 18260830410697839933
20621476 13 17045421731242871349
20715895 44 18129679619869859605
20905425 154 18337936927174457468
22113638 7 18267872674597780765
22749437 52 18411699885332788840
3027735 51 18339655532937848517
339767 52 18129115445824443360
35225 105 18042425572376497016
463206 1 18048042869998195751
508706 21 18340201998774625700
5282274 181 18194665189140092712
6287921 2 18117546534283601959
7064713 232 18336546122570638056

> <PUBCHEM_SHAPE_MULTIPOLES>
499.85
7.64
4.97
1.65
5.75
0.7
-0.19
-0.95
-0.41
-2.52
-0.19
-0.52
-0.8
-0.75

> <PUBCHEM_SHAPE_SELFOVERLAP>
992.056

> <PUBCHEM_SHAPE_VOLUME>
293.9

> <PUBCHEM_COORDINATE_TYPE>
2
5
10

$$$$

