13497
  -OEChem-06261214493D

 50 52  0     1  0  0  0  0  0999 V2000
   -0.2164    1.0321   -2.3996 O   0  0  0  0  0  0  0  0  0  0  0  0
    2.6074    0.4131    1.3257 N   0  0  2  0  0  0  0  0  0  0  0  0
   -0.6442    2.7086   -0.8915 N   0  0  0  0  0  0  0  0  0  0  0  0
    0.3157    0.8969    1.1974 C   0  0  1  0  0  0  0  0  0  0  0  0
   -0.2892    0.2846   -0.0643 C   0  0  0  0  0  0  0  0  0  0  0  0
    0.5524   -0.1696    2.2761 C   0  0  0  0  0  0  0  0  0  0  0  0
    1.7002    1.4964    0.9429 C   0  0  0  0  0  0  0  0  0  0  0  0
    2.0474   -0.1246    2.5648 C   0  0  0  0  0  0  0  0  0  0  0  0
    0.7153   -0.8232   -0.5753 C   0  0  0  0  0  0  0  0  0  0  0  0
   -1.6996   -0.3395    0.1792 C   0  0  0  0  0  0  0  0  0  0  0  0
   -0.3862    1.3728   -1.2191 C   0  0  0  0  0  0  0  0  0  0  0  0
    3.9797    0.8694    1.4892 C   0  0  0  0  0  0  0  0  0  0  0  0
    0.4929   -2.0884   -0.1515 C   0  0  0  0  0  0  0  0  0  0  0  0
   -2.3234   -0.9148   -0.8852 C   0  0  0  0  0  0  0  0  0  0  0  0
    1.7111   -0.4116   -1.3932 C   0  0  0  0  0  0  0  0  0  0  0  0
   -2.2093   -0.2663    1.4395 C   0  0  0  0  0  0  0  0  0  0  0  0
    1.3794   -3.0664   -0.6026 C   0  0  0  0  0  0  0  0  0  0  0  0
   -3.5832   -1.4726   -0.6677 C   0  0  0  0  0  0  0  0  0  0  0  0
    2.5973   -1.3897   -1.8443 C   0  0  0  0  0  0  0  0  0  0  0  0
   -3.4691   -0.8242    1.6568 C   0  0  0  0  0  0  0  0  0  0  0  0
   -0.0898    3.7585   -1.7414 C   0  0  0  0  0  0  0  0  0  0  0  0
   -1.4638    3.2028    0.2101 C   0  0  0  0  0  0  0  0  0  0  0  0
    2.4314   -2.7171   -1.4490 C   0  0  0  0  0  0  0  0  0  0  0  0
   -4.1560   -1.4274    0.6032 C   0  0  0  0  0  0  0  0  0  0  0  0
   -0.3049    1.6714    1.6468 H   0  0  0  0  0  0  0  0  0  0  0  0
    0.2234   -1.1878    2.0916 H   0  0  0  0  0  0  0  0  0  0  0  0
    0.0552    0.1265    3.2102 H   0  0  0  0  0  0  0  0  0  0  0  0
    1.8869    1.8982   -0.0536 H   0  0  0  0  0  0  0  0  0  0  0  0
    1.8315    2.3476    1.6279 H   0  0  0  0  0  0  0  0  0  0  0  0
    2.2469    0.5304    3.4229 H   0  0  0  0  0  0  0  0  0  0  0  0
    2.4419   -1.1207    2.7894 H   0  0  0  0  0  0  0  0  0  0  0  0
    4.6273    0.0331    1.7740 H   0  0  0  0  0  0  0  0  0  0  0  0
    4.0746    1.6521    2.2504 H   0  0  0  0  0  0  0  0  0  0  0  0
    4.3650    1.2632    0.5424 H   0  0  0  0  0  0  0  0  0  0  0  0
   -0.3125   -2.4162    0.4923 H   0  0  0  0  0  0  0  0  0  0  0  0
   -1.8928   -0.9605   -1.8789 H   0  0  0  0  0  0  0  0  0  0  0  0
    1.9211    0.6013   -1.7080 H   0  0  0  0  0  0  0  0  0  0  0  0
   -1.7948    0.2562    2.2845 H   0  0  0  0  0  0  0  0  0  0  0  0
    1.2495   -4.1006   -0.2969 H   0  0  0  0  0  0  0  0  0  0  0  0
   -4.1185   -1.9417   -1.4881 H   0  0  0  0  0  0  0  0  0  0  0  0
    3.4225   -1.1172   -2.4960 H   0  0  0  0  0  0  0  0  0  0  0  0
   -3.9257   -0.7716    2.6411 H   0  0  0  0  0  0  0  0  0  0  0  0
    0.4416    4.4804   -1.1142 H   0  0  0  0  0  0  0  0  0  0  0  0
   -0.9097    4.2566   -2.2668 H   0  0  0  0  0  0  0  0  0  0  0  0
    0.6097    3.3476   -2.4748 H   0  0  0  0  0  0  0  0  0  0  0  0
   -2.1672    3.9435   -0.1846 H   0  0  0  0  0  0  0  0  0  0  0  0
   -0.8215    3.6890    0.9493 H   0  0  0  0  0  0  0  0  0  0  0  0
   -2.0521    2.4064    0.6621 H   0  0  0  0  0  0  0  0  0  0  0  0
    3.1226   -3.4783   -1.7989 H   0  0  0  0  0  0  0  0  0  0  0  0
   -5.1390   -1.8575    0.7714 H   0  0  0  0  0  0  0  0  0  0  0  0
  1 11  2  0  0  0  0
  2  7  1  0  0  0  0
  2  8  1  0  0  0  0
  2 12  1  0  0  0  0
  3 11  1  0  0  0  0
  3 21  1  0  0  0  0
  3 22  1  0  0  0  0
  4  5  1  0  0  0  0
  4  6  1  0  0  0  0
  4  7  1  0  0  0  0
  4 25  1  0  0  0  0
  5  9  1  0  0  0  0
  5 10  1  0  0  0  0
  5 11  1  0  0  0  0
  6  8  1  0  0  0  0
  6 26  1  0  0  0  0
  6 27  1  0  0  0  0
  7 28  1  0  0  0  0
  7 29  1  0  0  0  0
  8 30  1  0  0  0  0
  8 31  1  0  0  0  0
  9 13  2  0  0  0  0
  9 15  1  0  0  0  0
 10 14  2  0  0  0  0
 10 16  1  0  0  0  0
 12 32  1  0  0  0  0
 12 33  1  0  0  0  0
 12 34  1  0  0  0  0
 13 17  1  0  0  0  0
 13 35  1  0  0  0  0
 14 18  1  0  0  0  0
 14 36  1  0  0  0  0
 15 19  2  0  0  0  0
 15 37  1  0  0  0  0
 16 20  2  0  0  0  0
 16 38  1  0  0  0  0
 17 23  2  0  0  0  0
 17 39  1  0  0  0  0
 18 24  2  0  0  0  0
 18 40  1  0  0  0  0
 19 23  1  0  0  0  0
 19 41  1  0  0  0  0
 20 24  1  0  0  0  0
 20 42  1  0  0  0  0
 21 43  1  0  0  0  0
 21 44  1  0  0  0  0
 21 45  1  0  0  0  0
 22 46  1  0  0  0  0
 22 47  1  0  0  0  0
 22 48  1  0  0  0  0
 23 49  1  0  0  0  0
 24 50  1  0  0  0  0
M  END
> <PUBCHEM_COMPOUND_CID>
13497

> <PUBCHEM_CONFORMER_RMSD>
0.8

> <PUBCHEM_CONFORMER_DIVERSEORDER>
1
14
12
4
2
15
5
11
9
3
6
13
10
7
8

> <PUBCHEM_MMFF94_PARTIAL_CHARGES>
32
1 -0.57
10 -0.14
11 0.57
12 0.27
13 -0.15
14 -0.15
15 -0.15
16 -0.15
17 -0.15
18 -0.15
19 -0.15
2 -0.81
20 -0.15
21 0.3
22 0.3
23 -0.15
24 -0.15
3 -0.66
35 0.15
36 0.15
37 0.15
38 0.15
39 0.15
40 0.15
41 0.15
42 0.15
49 0.15
5 0.35
50 0.15
7 0.27
8 0.27
9 -0.14

> <PUBCHEM_EFFECTIVE_ROTOR_COUNT>
6

> <PUBCHEM_PHARMACOPHORE_FEATURES>
5
1 1 acceptor
1 2 cation
5 2 4 6 7 8 rings
6 10 14 16 18 20 24 rings
6 9 13 15 17 19 23 rings

> <PUBCHEM_HEAVY_ATOM_COUNT>
24

> <PUBCHEM_ATOM_DEF_STEREO_COUNT>
0

> <PUBCHEM_ATOM_UDEF_STEREO_COUNT>
1

> <PUBCHEM_BOND_DEF_STEREO_COUNT>
0

> <PUBCHEM_BOND_UDEF_STEREO_COUNT>
0

> <PUBCHEM_ISOTOPIC_ATOM_COUNT>
0

> <PUBCHEM_COMPONENT_COUNT>
1

> <PUBCHEM_CACTVS_TAUTO_COUNT>
1

> <PUBCHEM_CONFORMER_ID>
000034B900000001

> <PUBCHEM_MMFF94_ENERGY>
125.0649

> <PUBCHEM_FEATURE_SELFOVERLAP>
25.371

> <PUBCHEM_SHAPE_FINGERPRINT>
10863032 1 17976799202100433084
10948715 1 15647615519502584242
11578080 2 18116423924411749320
12714826 92 17902772382489732406
13134695 92 17772494308163558061
13149001 5 17540266761945061100
13681431 1 18200584783861337237
13911987 19 17266323143701116958
14178342 30 18044089064939931243
14181834 199 17841716201557380077
14713325 29 18266188403816557424
14787075 74 17822557362026065190
14817 1 9038804652130834832
14863182 85 17607243165133589951
14955137 171 18051681162094676249
15209289 33 17096660794426974426
15238133 3 17417815093269752733
15664445 248 18272642433401407045
16945 1 16662055707775917283
17980427 26 16227195612158738456
1813 80 18342166744164285161
18981168 100 18043825396533204336
20600515 1 17560806511035513733
20691752 17 18410568487736283035
21330990 113 18187926136555185352
22112679 90 17130698568750139821
229495 10 17603879939156956245
23419403 2 17824266122995601322
23557571 272 18129952281040499627
25222932 49 15684764474237725299
2748010 2 17971205952085033698
3250762 1 18119260703049824848
5845 1 14678965639935298842
68419 9 16700608137304537284
81228 2 18199467851872621237
9981440 41 16887577822039603840
9999458 23 17387133061607349097

> <PUBCHEM_SHAPE_MULTIPOLES>
478.08
5.12
3.47
2.39
2.53
1.77
-0.45
-2.62
-1.78
-0.45
2.18
-1.12
0.57
1.43

> <PUBCHEM_SHAPE_SELFOVERLAP>
1036.33

> <PUBCHEM_SHAPE_VOLUME>
261.4

> <PUBCHEM_COORDINATE_TYPE>
2
5
10

$$$$

