153974
  -OEChem-07051213123D

 49 51  0     1  0  0  0  0  0999 V2000
    2.7198   -2.3129    0.7531 F   0  0  0  0  0  0  0  0  0  0  0  0
    4.5635    1.8121   -0.7114 F   0  0  0  0  0  0  0  0  0  0  0  0
    2.0769    1.3371   -0.9187 O   0  0  0  0  0  0  0  0  0  0  0  0
   -2.2953    2.3022    0.9088 O   0  0  0  0  0  0  0  0  0  0  0  0
    1.2659    0.0353    0.7767 N   0  0  0  0  0  0  0  0  0  0  0  0
   -4.9444   -1.6240   -0.2619 C   0  0  0  0  0  0  0  0  0  0  0  0
   -3.5835   -0.9302   -0.0862 C   0  0  0  0  0  0  0  0  0  0  0  0
    0.1898    0.9718    0.3936 C   0  0  2  0  0  0  0  0  0  0  0  0
   -1.1552    0.3073    0.2265 C   0  0  0  0  0  0  0  0  0  0  0  0
   -5.0244   -2.8536    0.6686 C   0  0  0  0  0  0  0  0  0  0  0  0
   -5.1080   -2.0842   -1.7266 C   0  0  0  0  0  0  0  0  0  0  0  0
   -6.1540   -0.7211    0.0703 C   0  0  0  0  0  0  0  0  0  0  0  0
   -3.5678    0.3761    0.3339 C   0  0  0  0  0  0  0  0  0  0  0  0
   -2.3331    1.0053    0.4929 C   0  0  0  0  0  0  0  0  0  0  0  0
   -2.4466   -1.6491   -0.3579 C   0  0  0  0  0  0  0  0  0  0  0  0
    0.6869    1.6304   -0.8845 C   0  0  0  0  0  0  0  0  0  0  0  0
   -1.2120   -1.0199   -0.1988 C   0  0  0  0  0  0  0  0  0  0  0  0
    2.2530    0.3652    0.0060 C   0  0  0  0  0  0  0  0  0  0  0  0
    3.5967   -0.2305    0.0203 C   0  0  0  0  0  0  0  0  0  0  0  0
   -2.9487    3.2660    0.0853 C   0  0  0  0  0  0  0  0  0  0  0  0
    3.7763   -1.5671    0.3995 C   0  0  0  0  0  0  0  0  0  0  0  0
    4.7142    0.5312   -0.3450 C   0  0  0  0  0  0  0  0  0  0  0  0
   -2.2685    4.5843    0.2265 C   0  0  0  0  0  0  0  0  0  0  0  0
    5.0515   -2.1322    0.4131 C   0  0  0  0  0  0  0  0  0  0  0  0
    5.9893   -0.0340   -0.3316 C   0  0  0  0  0  0  0  0  0  0  0  0
    6.1579   -1.3657    0.0476 C   0  0  0  0  0  0  0  0  0  0  0  0
    0.1325    1.7160    1.1985 H   0  0  0  0  0  0  0  0  0  0  0  0
   -6.0033   -3.3418    0.5938 H   0  0  0  0  0  0  0  0  0  0  0  0
   -4.8754   -2.5662    1.7162 H   0  0  0  0  0  0  0  0  0  0  0  0
   -4.2723   -3.6119    0.4253 H   0  0  0  0  0  0  0  0  0  0  0  0
   -5.0190   -1.2380   -2.4183 H   0  0  0  0  0  0  0  0  0  0  0  0
   -6.0901   -2.5440   -1.8883 H   0  0  0  0  0  0  0  0  0  0  0  0
   -4.3580   -2.8275   -2.0179 H   0  0  0  0  0  0  0  0  0  0  0  0
   -6.2004    0.1598   -0.5808 H   0  0  0  0  0  0  0  0  0  0  0  0
   -6.1441   -0.3883    1.1149 H   0  0  0  0  0  0  0  0  0  0  0  0
   -7.0958   -1.2653   -0.0740 H   0  0  0  0  0  0  0  0  0  0  0  0
   -4.4584    0.9476    0.5614 H   0  0  0  0  0  0  0  0  0  0  0  0
   -2.4667   -2.6807   -0.6920 H   0  0  0  0  0  0  0  0  0  0  0  0
    0.2250    1.2333   -1.7953 H   0  0  0  0  0  0  0  0  0  0  0  0
    0.5390    2.7147   -0.8662 H   0  0  0  0  0  0  0  0  0  0  0  0
   -0.3114   -1.5839   -0.4252 H   0  0  0  0  0  0  0  0  0  0  0  0
   -2.9272    2.9569   -0.9675 H   0  0  0  0  0  0  0  0  0  0  0  0
   -3.9944    3.3486    0.4015 H   0  0  0  0  0  0  0  0  0  0  0  0
   -1.2175    4.5160   -0.0732 H   0  0  0  0  0  0  0  0  0  0  0  0
   -2.2752    4.9175    1.2698 H   0  0  0  0  0  0  0  0  0  0  0  0
   -2.7554    5.3489   -0.3857 H   0  0  0  0  0  0  0  0  0  0  0  0
    5.1825   -3.1690    0.7083 H   0  0  0  0  0  0  0  0  0  0  0  0
    6.8506    0.5630   -0.6163 H   0  0  0  0  0  0  0  0  0  0  0  0
    7.1508   -1.8057    0.0581 H   0  0  0  0  0  0  0  0  0  0  0  0
  1 21  1  0  0  0  0
  2 22  1  0  0  0  0
  3 16  1  0  0  0  0
  3 18  1  0  0  0  0
  4 14  1  0  0  0  0
  4 20  1  0  0  0  0
  5  8  1  0  0  0  0
  5 18  2  0  0  0  0
  6  7  1  0  0  0  0
  6 10  1  0  0  0  0
  6 11  1  0  0  0  0
  6 12  1  0  0  0  0
  7 13  2  0  0  0  0
  7 15  1  0  0  0  0
  8  9  1  0  0  0  0
  8 16  1  0  0  0  0
  8 27  1  0  0  0  0
  9 14  2  0  0  0  0
  9 17  1  0  0  0  0
 10 28  1  0  0  0  0
 10 29  1  0  0  0  0
 10 30  1  0  0  0  0
 11 31  1  0  0  0  0
 11 32  1  0  0  0  0
 11 33  1  0  0  0  0
 12 34  1  0  0  0  0
 12 35  1  0  0  0  0
 12 36  1  0  0  0  0
 13 14  1  0  0  0  0
 13 37  1  0  0  0  0
 15 17  2  0  0  0  0
 15 38  1  0  0  0  0
 16 39  1  0  0  0  0
 16 40  1  0  0  0  0
 17 41  1  0  0  0  0
 18 19  1  0  0  0  0
 19 21  2  0  0  0  0
 19 22  1  0  0  0  0
 20 23  1  0  0  0  0
 20 42  1  0  0  0  0
 20 43  1  0  0  0  0
 21 24  1  0  0  0  0
 22 25  2  0  0  0  0
 23 44  1  0  0  0  0
 23 45  1  0  0  0  0
 23 46  1  0  0  0  0
 24 26  2  0  0  0  0
 24 47  1  0  0  0  0
 25 26  1  0  0  0  0
 25 48  1  0  0  0  0
 26 49  1  0  0  0  0
M  END
> <PUBCHEM_COMPOUND_CID>
153974

> <PUBCHEM_CONFORMER_RMSD>
0.8

> <PUBCHEM_CONFORMER_DIVERSEORDER>
1
51
32
21
46
41
50
14
36
53
38
15
11
5
9
34
20
42
55
30
56
18
40
28
19
24
25
22
49
44
37
16
27
48
17
8
12
39
31
35
13
54
47
10
26
29
43
45
7
3
4
33
2
52
23
6

> <PUBCHEM_MMFF94_PARTIAL_CHARGES>
28
1 -0.19
13 -0.15
14 0.08
15 -0.15
16 0.28
17 -0.15
18 0.51
19 0.09
2 -0.19
20 0.28
21 0.19
22 0.19
24 -0.15
25 -0.15
26 -0.15
3 -0.43
37 0.15
38 0.15
4 -0.36
41 0.15
47 0.15
48 0.15
49 0.15
5 -0.7
6 0.14
7 -0.14
8 0.39
9 -0.14

> <PUBCHEM_EFFECTIVE_ROTOR_COUNT>
5.6

> <PUBCHEM_PHARMACOPHORE_FEATURES>
5
1 4 acceptor
4 6 10 11 12 hydrophobe
5 3 5 8 16 18 rings
6 19 21 22 24 25 26 rings
6 7 9 13 14 15 17 rings

> <PUBCHEM_HEAVY_ATOM_COUNT>
26

> <PUBCHEM_ATOM_DEF_STEREO_COUNT>
0

> <PUBCHEM_ATOM_UDEF_STEREO_COUNT>
1

> <PUBCHEM_BOND_DEF_STEREO_COUNT>
0

> <PUBCHEM_BOND_UDEF_STEREO_COUNT>
0

> <PUBCHEM_ISOTOPIC_ATOM_COUNT>
0

> <PUBCHEM_COMPONENT_COUNT>
1

> <PUBCHEM_CACTVS_TAUTO_COUNT>
1

> <PUBCHEM_CONFORMER_ID>
0002597600000001

> <PUBCHEM_MMFF94_ENERGY>
84.7186

> <PUBCHEM_FEATURE_SELFOVERLAP>
25.371

> <PUBCHEM_SHAPE_FINGERPRINT>
10411042 1 18337391527158903819
10595046 47 18412823590986077284
10622 236 18197234717713056714
11045515 52 18201722808798733045
12107183 9 17692253354022635370
12166972 35 17917147191763990717
12236239 1 18410853243935625567
12633257 1 16226331413051702767
12760667 363 18335704923377079815
12788726 201 18341338855106241243
13167823 11 18410855486467820730
13288520 33 18334574629591741999
13533116 47 18337953390090148660
13583140 156 17531826756303649112
13782708 43 17530967964391634966
14347332 77 18409451396822701405
14508225 48 18336839606603053197
15042514 8 18409726296858992977
15183329 4 18059867172746413551
15196674 1 18339642338856122682
15250474 111 18270689791150934610
15361156 5 17842819278435389910
15420108 30 17692817403599096913
15484559 13 14147949515320456926
16087824 20 18337953524263646993
17492 89 18337387244623582574
17844677 252 18410567410184684200
17857418 61 18408323276312563890
18681886 176 18334860520385793858
200 152 18340769252280067687
20028762 73 18410296943531640706
21033648 29 14707205565017744666
21236236 1 18335701684892416001
21267235 1 18411130342831661738
21703447 108 18336559204919760896
23402539 116 18187647968993319677
23522609 53 18044626777486316625
23559900 14 18269278950323250961
23622692 118 18408888438184601372
25147074 1 18339907273365494621
255183 313 18044355340465413937
2838139 119 10087644775445607082
3004659 81 18202289065175033659
314194 84 18336264544103255194
335352 9 18408325476469605623
3411729 13 16589725439724431560
34797466 226 17385998439497705548
350125 39 18409166640675794345
351380 3 18260832561817377807
376196 1 4673795588309353737
4214541 1 18338233877182358696
4409770 3 18339366383408564965
46194498 28 17131554921068217294
463206 1 18266743476409970191
465052 167 18261106349277259006
497634 4 18272652376176753813
504579 68 18342448245285450700
5104073 3 18260828202477781360
559249 180 18339645653990587483
5924683 9 18409448124063169353
6700243 42 17678988647950615812
7164475 11 18411138039043791189
7495541 125 17676209044132259792
7970288 3 18264773160342447223

> <PUBCHEM_SHAPE_MULTIPOLES>
503.8
14.8
3.73
0.92
8.65
3.76
-0.19
-9.58
-1.12
-4.29
0.26
-0.49
-0.18
-1.49

> <PUBCHEM_SHAPE_SELFOVERLAP>
1087.008

> <PUBCHEM_SHAPE_VOLUME>
281

> <PUBCHEM_COORDINATE_TYPE>
2
5
10

$$$$

