68051
  -OEChem-07051213003D

 68 68  0     0  0  0  0  0  0999 V2000
   -2.1489    1.2332   -1.7192 O   0  0  0  0  0  0  0  0  0  0  0  0
    1.5704    1.8303    1.3488 O   0  0  0  0  0  0  0  0  0  0  0  0
    0.3165   -2.5013   -0.1851 O   0  0  0  0  0  0  0  0  0  0  0  0
    1.9034   -1.2944    2.6103 O   0  0  0  0  0  0  0  0  0  0  0  0
   -0.2814    1.7707   -0.1972 C   0  0  0  0  0  0  0  0  0  0  0  0
    0.4132    2.7206   -1.1905 C   0  0  0  0  0  0  0  0  0  0  0  0
   -1.1744    2.5718    0.7695 C   0  0  0  0  0  0  0  0  0  0  0  0
   -1.1066    0.7429   -0.9448 C   0  0  0  0  0  0  0  0  0  0  0  0
    0.8294    1.1295    0.6536 C   0  0  0  0  0  0  0  0  0  0  0  0
   -0.8786   -0.5825   -0.8944 C   0  0  0  0  0  0  0  0  0  0  0  0
    1.0330   -0.3529    0.6463 C   0  0  0  0  0  0  0  0  0  0  0  0
    0.2157   -1.1251   -0.0948 C   0  0  0  0  0  0  0  0  0  0  0  0
    1.4053    1.9773   -2.0252 C   0  0  0  0  0  0  0  0  0  0  0  0
   -1.9076    1.6535    1.6925 C   0  0  0  0  0  0  0  0  0  0  0  0
   -1.7309   -1.5702   -1.6562 C   0  0  0  0  0  0  0  0  0  0  0  0
    2.1228   -0.9312    1.4559 C   0  0  0  0  0  0  0  0  0  0  0  0
    3.4741   -1.0824    0.7768 C   0  0  0  0  0  0  0  0  0  0  0  0
    4.2700   -2.3024    1.2662 C   0  0  0  0  0  0  0  0  0  0  0  0
    2.7371    2.1680   -2.0826 C   0  0  0  0  0  0  0  0  0  0  0  0
   -3.1322    1.8292    2.2241 C   0  0  0  0  0  0  0  0  0  0  0  0
   -2.8211   -2.1233   -0.7984 C   0  0  0  0  0  0  0  0  0  0  0  0
    3.4576   -3.5802    1.0477 C   0  0  0  0  0  0  0  0  0  0  0  0
    5.6167   -2.4156    0.5475 C   0  0  0  0  0  0  0  0  0  0  0  0
    3.3940    3.2234   -1.2333 C   0  0  0  0  0  0  0  0  0  0  0  0
    3.6862    1.3854   -2.9451 C   0  0  0  0  0  0  0  0  0  0  0  0
   -3.8194    0.8659    3.1499 C   0  0  0  0  0  0  0  0  0  0  0  0
   -3.9361    3.0596    1.8977 C   0  0  0  0  0  0  0  0  0  0  0  0
   -4.0246   -2.5827   -1.1920 C   0  0  0  0  0  0  0  0  0  0  0  0
   -4.3994   -2.5875   -2.6503 C   0  0  0  0  0  0  0  0  0  0  0  0
   -5.0841   -3.1293   -0.2775 C   0  0  0  0  0  0  0  0  0  0  0  0
    0.8529    3.5662   -0.6552 H   0  0  0  0  0  0  0  0  0  0  0  0
   -0.3162    3.1801   -1.8699 H   0  0  0  0  0  0  0  0  0  0  0  0
   -1.8609    3.2013    0.1943 H   0  0  0  0  0  0  0  0  0  0  0  0
   -0.5647    3.2519    1.3783 H   0  0  0  0  0  0  0  0  0  0  0  0
    0.9928    1.2139   -2.6835 H   0  0  0  0  0  0  0  0  0  0  0  0
   -1.3804    0.7600    2.0219 H   0  0  0  0  0  0  0  0  0  0  0  0
   -2.1539   -1.0650   -2.5324 H   0  0  0  0  0  0  0  0  0  0  0  0
   -1.1261   -2.3836   -2.0748 H   0  0  0  0  0  0  0  0  0  0  0  0
    4.0409   -0.1642    0.9717 H   0  0  0  0  0  0  0  0  0  0  0  0
    3.3243   -1.1521   -0.3078 H   0  0  0  0  0  0  0  0  0  0  0  0
    4.4618   -2.1985    2.3415 H   0  0  0  0  0  0  0  0  0  0  0  0
   -2.1800    2.1992   -1.6342 H   0  0  0  0  0  0  0  0  0  0  0  0
   -2.6161   -2.1789    0.2708 H   0  0  0  0  0  0  0  0  0  0  0  0
   -0.5501   -2.8952    0.0034 H   0  0  0  0  0  0  0  0  0  0  0  0
    2.5403   -3.5951    1.6428 H   0  0  0  0  0  0  0  0  0  0  0  0
    4.0410   -4.4601    1.3411 H   0  0  0  0  0  0  0  0  0  0  0  0
    3.1819   -3.7004   -0.0058 H   0  0  0  0  0  0  0  0  0  0  0  0
    6.1881   -3.2713    0.9223 H   0  0  0  0  0  0  0  0  0  0  0  0
    5.4819   -2.5429   -0.5320 H   0  0  0  0  0  0  0  0  0  0  0  0
    6.2169   -1.5143    0.7099 H   0  0  0  0  0  0  0  0  0  0  0  0
    3.6217    4.1039   -1.8429 H   0  0  0  0  0  0  0  0  0  0  0  0
    2.8209    3.5438   -0.3631 H   0  0  0  0  0  0  0  0  0  0  0  0
    4.3401    2.8398   -0.8333 H   0  0  0  0  0  0  0  0  0  0  0  0
    4.2266    2.0547   -3.6220 H   0  0  0  0  0  0  0  0  0  0  0  0
    4.4127    0.8494   -2.3258 H   0  0  0  0  0  0  0  0  0  0  0  0
    3.1585    0.6457   -3.5560 H   0  0  0  0  0  0  0  0  0  0  0  0
   -3.2084   -0.0243    3.3319 H   0  0  0  0  0  0  0  0  0  0  0  0
   -4.7698    0.5354    2.7184 H   0  0  0  0  0  0  0  0  0  0  0  0
   -4.0180    1.3391    4.1167 H   0  0  0  0  0  0  0  0  0  0  0  0
   -4.7131    2.8173    1.1655 H   0  0  0  0  0  0  0  0  0  0  0  0
   -4.4284    3.4351    2.8022 H   0  0  0  0  0  0  0  0  0  0  0  0
   -3.3425    3.8926    1.5139 H   0  0  0  0  0  0  0  0  0  0  0  0
   -5.1341   -1.8009   -2.8509 H   0  0  0  0  0  0  0  0  0  0  0  0
   -4.8513   -3.5500   -2.9163 H   0  0  0  0  0  0  0  0  0  0  0  0
   -3.5555   -2.4521   -3.3309 H   0  0  0  0  0  0  0  0  0  0  0  0
   -6.0069   -2.5481   -0.3736 H   0  0  0  0  0  0  0  0  0  0  0  0
   -5.2999   -4.1742   -0.5224 H   0  0  0  0  0  0  0  0  0  0  0  0
   -4.7716   -3.0889    0.7712 H   0  0  0  0  0  0  0  0  0  0  0  0
  1  8  1  0  0  0  0
  1 42  1  0  0  0  0
  2  9  2  0  0  0  0
  3 12  1  0  0  0  0
  3 44  1  0  0  0  0
  4 16  2  0  0  0  0
  5  6  1  0  0  0  0
  5  7  1  0  0  0  0
  5  8  1  0  0  0  0
  5  9  1  0  0  0  0
  6 13  1  0  0  0  0
  6 31  1  0  0  0  0
  6 32  1  0  0  0  0
  7 14  1  0  0  0  0
  7 33  1  0  0  0  0
  7 34  1  0  0  0  0
  8 10  2  0  0  0  0
  9 11  1  0  0  0  0
 10 12  1  0  0  0  0
 10 15  1  0  0  0  0
 11 12  2  0  0  0  0
 11 16  1  0  0  0  0
 13 19  2  0  0  0  0
 13 35  1  0  0  0  0
 14 20  2  0  0  0  0
 14 36  1  0  0  0  0
 15 21  1  0  0  0  0
 15 37  1  0  0  0  0
 15 38  1  0  0  0  0
 16 17  1  0  0  0  0
 17 18  1  0  0  0  0
 17 39  1  0  0  0  0
 17 40  1  0  0  0  0
 18 22  1  0  0  0  0
 18 23  1  0  0  0  0
 18 41  1  0  0  0  0
 19 24  1  0  0  0  0
 19 25  1  0  0  0  0
 20 26  1  0  0  0  0
 20 27  1  0  0  0  0
 21 28  2  0  0  0  0
 21 43  1  0  0  0  0
 22 45  1  0  0  0  0
 22 46  1  0  0  0  0
 22 47  1  0  0  0  0
 23 48  1  0  0  0  0
 23 49  1  0  0  0  0
 23 50  1  0  0  0  0
 24 51  1  0  0  0  0
 24 52  1  0  0  0  0
 24 53  1  0  0  0  0
 25 54  1  0  0  0  0
 25 55  1  0  0  0  0
 25 56  1  0  0  0  0
 26 57  1  0  0  0  0
 26 58  1  0  0  0  0
 26 59  1  0  0  0  0
 27 60  1  0  0  0  0
 27 61  1  0  0  0  0
 27 62  1  0  0  0  0
 28 29  1  0  0  0  0
 28 30  1  0  0  0  0
 29 63  1  0  0  0  0
 29 64  1  0  0  0  0
 29 65  1  0  0  0  0
 30 66  1  0  0  0  0
 30 67  1  0  0  0  0
 30 68  1  0  0  0  0
M  END
> <PUBCHEM_COMPOUND_CID>
68051

> <PUBCHEM_CONFORMER_RMSD>
1

> <PUBCHEM_CONFORMER_DIVERSEORDER>
4
15
162
89
36
150
146
118
120
151
155
121
48
59
26
157
153
92
78
97
65
55
159
7
88
94
138
84
45
114
25
28
34
161
160
131
53
23
128
75
124
95
99
154
60
117
39
76
72
111
96
140
86
123
44
101
81
83
66
139
19
35
135
61
90
41
143
134
102
112
113
156
1
82
148
91
47
33
142
108
133
63
30
147
43
125
115
51
71
100
67
50
130
141
37
158
119
18
70
152
127
6
40
73
46
98
107
24
144
74
85
79
9
105
20
106
145
104
38
80
110
62
149
103
87
12
109
42
137
57
93
77
126
3
49
52
27
68
21
116
31
132
64
69
17
56
32
5
58
2
22
10
13
14
122
29
129
16
11
136
54
8

> <PUBCHEM_MMFF94_PARTIAL_CHARGES>
32
1 -0.53
10 -0.14
11 0.03
12 0.08
13 -0.29
14 -0.29
15 0.28
16 0.49
17 0.06
19 -0.28
2 -0.57
20 -0.28
21 -0.29
24 0.14
25 0.14
26 0.14
27 0.14
28 -0.28
29 0.14
3 -0.53
30 0.14
35 0.15
36 0.15
4 -0.57
42 0.45
43 0.15
44 0.45
5 0.2
6 0.14
7 0.14
8 -0.06
9 0.49

> <PUBCHEM_EFFECTIVE_ROTOR_COUNT>
9.2

> <PUBCHEM_PHARMACOPHORE_FEATURES>
10
1 1 donor
1 11 anion
1 2 acceptor
1 3 donor
1 4 acceptor
3 18 22 23 hydrophobe
3 19 24 25 hydrophobe
3 20 26 27 hydrophobe
3 28 29 30 hydrophobe
6 5 8 9 10 11 12 rings

> <PUBCHEM_HEAVY_ATOM_COUNT>
30

> <PUBCHEM_ATOM_DEF_STEREO_COUNT>
0

> <PUBCHEM_ATOM_UDEF_STEREO_COUNT>
0

> <PUBCHEM_BOND_DEF_STEREO_COUNT>
0

> <PUBCHEM_BOND_UDEF_STEREO_COUNT>
0

> <PUBCHEM_ISOTOPIC_ATOM_COUNT>
0

> <PUBCHEM_COMPONENT_COUNT>
1

> <PUBCHEM_CACTVS_TAUTO_COUNT>
19

> <PUBCHEM_CONFORMER_ID>
000109D300000004

> <PUBCHEM_MMFF94_ENERGY>
68.7634

> <PUBCHEM_FEATURE_SELFOVERLAP>
50.743

> <PUBCHEM_SHAPE_FINGERPRINT>
11421498 54 18051123701684348699
11763715 3 17533806834816453823
12035759 4 18265603308663474885
12156800 1 17677035915146028158
12788726 201 17970053453450975909
13009979 54 18335143076929456467
131258 43 18116714011251562750
133893 2 17989209218065632412
14028597 1 18119241766644680921
14713325 29 14130501829155817673
14863182 85 17910136632742487768
14955137 171 18053926623243559664
15324884 4 17330260079652301061
17980427 23 17835508697814734697
17980427 26 17700094817174732669
20600515 1 17621089516582185576
229495 10 18060124441061142749
23419403 2 15020033016925834396
23559900 14 17914924000569760551
25147074 1 18410284805003417972
25222932 49 17333317431539030755
266924 1 18338510837736880725
2818148 4 18410846659887956320
3052486 1 17896300451601979193
3380486 77 17629515014151776402
460360 51 18409163320602524285
469060 322 18057903504882109218
5104073 3 17825134703445228170
513532 50 17171804640030985695
9925002 15 18340204215062348164

> <PUBCHEM_SHAPE_MULTIPOLES>
593.91
8.99
4.87
3.04
0.05
0.89
0
6.87
-0.65
-0.45
0.32
-1.03
-0.93
-6.89

> <PUBCHEM_SHAPE_SELFOVERLAP>
1204.225

> <PUBCHEM_SHAPE_VOLUME>
345.1

> <PUBCHEM_COORDINATE_TYPE>
2
5
10

$$$$

