10457683
  -OEChem-07051213103D

 65 68  0     1  0  0  0  0  0999 V2000
    0.4665    3.2608    1.1674 O   0  0  0  0  0  0  0  0  0  0  0  0
    1.8493    3.2211   -1.1726 O   0  0  0  0  0  0  0  0  0  0  0  0
    1.9936   -1.5065    0.0970 O   0  0  0  0  0  0  0  0  0  0  0  0
    3.9141   -0.3599   -0.4979 O   0  0  0  0  0  0  0  0  0  0  0  0
    4.2161    3.8828    0.0592 O   0  0  0  0  0  0  0  0  0  0  0  0
   -2.3653    0.0140   -0.1122 O   0  0  0  0  0  0  0  0  0  0  0  0
   -4.2300   -1.3866   -0.0404 O   0  0  0  0  0  0  0  0  0  0  0  0
    4.7644   -1.5438    1.2895 O   0  0  0  0  0  0  0  0  0  0  0  0
   -4.0832    2.2554   -0.2939 O   0  0  0  0  0  0  0  0  0  0  0  0
   -6.6655    1.5644   -1.5327 O   0  0  0  0  0  0  0  0  0  0  0  0
   -7.8296   -0.7380   -0.2292 O   0  0  0  0  0  0  0  0  0  0  0  0
   -5.1393   -3.7840    0.9504 O   0  0  0  0  0  0  0  0  0  0  0  0
    1.7963    2.7313    1.1775 C   0  0  1  0  0  0  0  0  0  0  0  0
    0.6071    1.8632    1.4257 C   0  0  2  0  0  0  0  0  0  0  0  0
    2.3889    2.3597   -0.1615 C   0  0  1  0  0  0  0  0  0  0  0  0
    0.4169    0.9563    0.2356 C   0  0  1  0  0  0  0  0  0  0  0  0
    1.8337    0.9208   -0.4215 C   0  0  2  0  0  0  0  0  0  0  0  0
    2.6603   -0.2397    0.1737 C   0  0  1  0  0  0  0  0  0  0  0  0
   -0.1131   -0.4144    0.5433 C   0  0  0  0  0  0  0  0  0  0  0  0
    3.9026    2.5224   -0.1828 C   0  0  0  0  0  0  0  0  0  0  0  0
    0.6696   -1.4955    0.4284 C   0  0  0  0  0  0  0  0  0  0  0  0
   -1.5599   -0.5200    0.9221 C   0  0  0  0  0  0  0  0  0  0  0  0
    4.8863   -1.0424    0.1803 C   0  0  0  0  0  0  0  0  0  0  0  0
   -3.7546   -0.0651    0.2048 C   0  0  2  0  0  0  0  0  0  0  0  0
   -4.4959    0.9428   -0.6735 C   0  0  1  0  0  0  0  0  0  0  0  0
    6.1561   -1.0474   -0.6437 C   0  0  0  0  0  0  0  0  0  0  0  0
   -6.0104    0.8186   -0.5055 C   0  0  2  0  0  0  0  0  0  0  0  0
   -5.6133   -1.5399    0.2817 C   0  0  1  0  0  0  0  0  0  0  0  0
   -6.4620   -0.6377   -0.6173 C   0  0  1  0  0  0  0  0  0  0  0  0
    7.0660   -2.2489   -0.3439 C   0  0  0  0  0  0  0  0  0  0  0  0
   -5.9675   -3.0125    0.0996 C   0  0  0  0  0  0  0  0  0  0  0  0
    6.3558   -3.5742   -0.6311 C   0  0  0  0  0  0  0  0  0  0  0  0
    8.3462   -2.1573   -1.1766 C   0  0  0  0  0  0  0  0  0  0  0  0
    2.4680    2.9549    1.9905 H   0  0  0  0  0  0  0  0  0  0  0  0
    0.4275    1.4653    2.4110 H   0  0  0  0  0  0  0  0  0  0  0  0
   -0.2631    1.4472   -0.4743 H   0  0  0  0  0  0  0  0  0  0  0  0
    1.7246    0.7475   -1.5012 H   0  0  0  0  0  0  0  0  0  0  0  0
    2.8439   -0.0260    1.2367 H   0  0  0  0  0  0  0  0  0  0  0  0
    4.3905    1.9308    0.5969 H   0  0  0  0  0  0  0  0  0  0  0  0
    4.3113    2.2555   -1.1627 H   0  0  0  0  0  0  0  0  0  0  0  0
    2.1359    4.1285   -0.9711 H   0  0  0  0  0  0  0  0  0  0  0  0
    0.3153   -2.5077    0.5699 H   0  0  0  0  0  0  0  0  0  0  0  0
   -1.7269    0.0385    1.8513 H   0  0  0  0  0  0  0  0  0  0  0  0
   -1.8409   -1.5646    1.1039 H   0  0  0  0  0  0  0  0  0  0  0  0
    5.1848    3.9631    0.0344 H   0  0  0  0  0  0  0  0  0  0  0  0
   -3.8972    0.1906    1.2642 H   0  0  0  0  0  0  0  0  0  0  0  0
   -4.2143    0.8147   -1.7254 H   0  0  0  0  0  0  0  0  0  0  0  0
    5.8832   -1.0588   -1.7064 H   0  0  0  0  0  0  0  0  0  0  0  0
    6.6831   -0.1084   -0.4392 H   0  0  0  0  0  0  0  0  0  0  0  0
   -6.3364    1.2570    0.4449 H   0  0  0  0  0  0  0  0  0  0  0  0
   -5.7545   -1.2862    1.3413 H   0  0  0  0  0  0  0  0  0  0  0  0
   -6.3936   -0.9656   -1.6617 H   0  0  0  0  0  0  0  0  0  0  0  0
    7.3432   -2.2332    0.7176 H   0  0  0  0  0  0  0  0  0  0  0  0
   -7.0133   -3.2088    0.3547 H   0  0  0  0  0  0  0  0  0  0  0  0
   -5.7793   -3.3344   -0.9302 H   0  0  0  0  0  0  0  0  0  0  0  0
   -4.3223    2.3889    0.6392 H   0  0  0  0  0  0  0  0  0  0  0  0
   -6.3817    1.2092   -2.3922 H   0  0  0  0  0  0  0  0  0  0  0  0
   -7.8990   -0.4623    0.7007 H   0  0  0  0  0  0  0  0  0  0  0  0
    5.4822   -3.7168    0.0117 H   0  0  0  0  0  0  0  0  0  0  0  0
    7.0301   -4.4189   -0.4526 H   0  0  0  0  0  0  0  0  0  0  0  0
    6.0212   -3.6266   -1.6729 H   0  0  0  0  0  0  0  0  0  0  0  0
    8.1269   -2.1822   -2.2495 H   0  0  0  0  0  0  0  0  0  0  0  0
    8.8829   -1.2272   -0.9616 H   0  0  0  0  0  0  0  0  0  0  0  0
    9.0190   -2.9908   -0.9487 H   0  0  0  0  0  0  0  0  0  0  0  0
   -5.3786   -4.7167    0.8153 H   0  0  0  0  0  0  0  0  0  0  0  0
  1 13  1  0  0  0  0
  1 14  1  0  0  0  0
  2 15  1  0  0  0  0
  2 41  1  0  0  0  0
  3 18  1  0  0  0  0
  3 21  1  0  0  0  0
  4 18  1  0  0  0  0
  4 23  1  0  0  0  0
  5 20  1  0  0  0  0
  5 45  1  0  0  0  0
  6 22  1  0  0  0  0
  6 24  1  0  0  0  0
  7 24  1  0  0  0  0
  7 28  1  0  0  0  0
  8 23  2  0  0  0  0
  9 25  1  0  0  0  0
  9 56  1  0  0  0  0
 10 27  1  0  0  0  0
 10 57  1  0  0  0  0
 11 29  1  0  0  0  0
 11 58  1  0  0  0  0
 12 31  1  0  0  0  0
 12 65  1  0  0  0  0
 13 14  1  0  0  0  0
 13 15  1  0  0  0  0
 13 34  1  0  0  0  0
 14 16  1  0  0  0  0
 14 35  1  0  0  0  0
 15 17  1  0  0  0  0
 15 20  1  0  0  0  0
 16 17  1  0  0  0  0
 16 19  1  0  0  0  0
 16 36  1  0  0  0  0
 17 18  1  0  0  0  0
 17 37  1  0  0  0  0
 18 38  1  0  0  0  0
 19 21  2  0  0  0  0
 19 22  1  0  0  0  0
 20 39  1  0  0  0  0
 20 40  1  0  0  0  0
 21 42  1  0  0  0  0
 22 43  1  0  0  0  0
 22 44  1  0  0  0  0
 23 26  1  0  0  0  0
 24 25  1  0  0  0  0
 24 46  1  0  0  0  0
 25 27  1  0  0  0  0
 25 47  1  0  0  0  0
 26 30  1  0  0  0  0
 26 48  1  0  0  0  0
 26 49  1  0  0  0  0
 27 29  1  0  0  0  0
 27 50  1  0  0  0  0
 28 29  1  0  0  0  0
 28 31  1  0  0  0  0
 28 51  1  0  0  0  0
 29 52  1  0  0  0  0
 30 32  1  0  0  0  0
 30 33  1  0  0  0  0
 30 53  1  0  0  0  0
 31 54  1  0  0  0  0
 31 55  1  0  0  0  0
 32 59  1  0  0  0  0
 32 60  1  0  0  0  0
 32 61  1  0  0  0  0
 33 62  1  0  0  0  0
 33 63  1  0  0  0  0
 33 64  1  0  0  0  0
M  END
> <PUBCHEM_COMPOUND_CID>
10457683

> <PUBCHEM_CONFORMER_RMSD>
1

> <PUBCHEM_CONFORMER_DIVERSEORDER>
1
11
17
61
29
23
16
13
66
51
32
28
60
47
65
33
18
45
8
42
12
3
14
34
15
57
54
19
44
68
5
10
22
4
69
41
30
20
48
50
59
6
24
26
70
43
39
9
27
55
63
36
49
53
46
21
31
37
40
25
62
2
7
67
52
56
64
38
35
58

> <PUBCHEM_MMFF94_PARTIAL_CHARGES>
38
1 -0.3
10 -0.68
11 -0.68
12 -0.68
13 -0.05
14 -0.05
15 0.38
16 0.23
18 0.56
19 -0.28
2 -0.68
20 0.28
21 -0.07
22 0.42
23 0.66
24 0.56
25 0.28
26 0.06
27 0.28
28 0.28
29 0.28
3 -0.36
31 0.28
34 0.1
35 0.1
4 -0.43
41 0.4
42 0.15
45 0.4
5 -0.68
56 0.4
57 0.4
58 0.4
6 -0.56
65 0.4
7 -0.56
8 -0.57
9 -0.68

> <PUBCHEM_EFFECTIVE_ROTOR_COUNT>
11

> <PUBCHEM_PHARMACOPHORE_FEATURES>
21
1 1 acceptor
1 10 acceptor
1 10 donor
1 11 acceptor
1 11 donor
1 12 acceptor
1 12 donor
1 2 acceptor
1 2 donor
1 3 acceptor
1 5 acceptor
1 5 donor
1 6 acceptor
1 7 acceptor
1 8 acceptor
1 9 acceptor
1 9 donor
3 30 32 33 hydrophobe
6 1 13 14 15 16 17 rings
6 3 16 17 18 19 21 rings
6 7 24 25 27 28 29 rings

> <PUBCHEM_HEAVY_ATOM_COUNT>
33

> <PUBCHEM_ATOM_DEF_STEREO_COUNT>
11

> <PUBCHEM_ATOM_UDEF_STEREO_COUNT>
0

> <PUBCHEM_BOND_DEF_STEREO_COUNT>
0

> <PUBCHEM_BOND_UDEF_STEREO_COUNT>
0

> <PUBCHEM_ISOTOPIC_ATOM_COUNT>
0

> <PUBCHEM_COMPONENT_COUNT>
1

> <PUBCHEM_CACTVS_TAUTO_COUNT>
1

> <PUBCHEM_CONFORMER_ID>
009F925300000001

> <PUBCHEM_MMFF94_ENERGY>
85.8508

> <PUBCHEM_FEATURE_SELFOVERLAP>
106.683

> <PUBCHEM_SHAPE_FINGERPRINT>
10050765 1 18268711597643586515
10411042 1 18336262449092488560
12166972 35 18411697681983047424
13540713 4 17914883250172750810
13540713 5 18116691037609094992
13782708 43 18272367534209777659
13811026 1 18409168818677978442
14068700 675 18334853974518284440
14955137 171 18259707800261153482
15064986 266 18343299229364106131
15183329 4 18059574740838580178
15849732 13 18040439906000575038
15927050 60 17974571295881041894
16991971 28 18261103106819634718
18681886 176 18334866021147214866
20028762 73 18187363264112317710
21267235 1 18410290328890588347
22224240 67 8790591603136172612
22393880 68 18271815605595793691
23559900 14 18410865335044179969
23576562 1 18059569144480376479
249057 3 18410016555064656559
3004659 81 18272088314417522530
4073 2 17916304940219185739
4144715 1 18270960146583676035
484989 97 18341605984607645002
5104073 3 18337108969802949601
5758199 1 10303803294299574206

> <PUBCHEM_SHAPE_MULTIPOLES>
608.69
21.11
4.37
1.07
5.41
1.01
-0.05
-18.49
6.99
-3.64
-0.28
-0.05
0.26
2.12

> <PUBCHEM_SHAPE_SELFOVERLAP>
1274.144

> <PUBCHEM_SHAPE_VOLUME>
340.3

> <PUBCHEM_COORDINATE_TYPE>
2
5
10

$$$$

