88197
  -OEChem-07051213132D

 33 33  0     0  0  0  0  0  0999 V2000
    4.5000   -0.6307    0.0000 S   0  0  0  0  0  0  0  0  0  0  0  0
    5.8660    2.4081    0.0000 S   0  0  0  0  0  0  0  0  0  0  0  0
    5.5000   -1.6307    0.0000 S   0  0  0  0  0  0  0  0  0  0  0  0
    4.5000   -1.6307    0.0000 P   0  0  0  0  0  0  0  0  0  0  0  0
    4.5000   -2.6307    0.0000 O   0  0  0  0  0  0  0  0  0  0  0  0
    3.5000   -1.6307    0.0000 O   0  0  0  0  0  0  0  0  0  0  0  0
    4.2782    3.2172    0.0000 O   0  0  0  0  0  0  0  0  0  0  0  0
    7.1261    1.1481    0.0000 O   0  0  0  0  0  0  0  0  0  0  0  0
    5.3660    0.8693    0.0000 N   0  0  0  0  0  0  0  0  0  0  0  0
    4.5570    1.4571    0.0000 N   0  0  0  0  0  0  0  0  0  0  0  0
    5.3660   -0.1307    0.0000 C   0  0  0  0  0  0  0  0  0  0  0  0
    3.6340   -3.1307    0.0000 C   0  0  0  0  0  0  0  0  0  0  0  0
    3.0000   -0.7647    0.0000 C   0  0  0  0  0  0  0  0  0  0  0  0
    6.1750    1.4571    0.0000 C   0  0  0  0  0  0  0  0  0  0  0  0
    3.6340   -4.1307    0.0000 C   0  0  0  0  0  0  0  0  0  0  0  0
    2.0000   -0.7647    0.0000 C   0  0  0  0  0  0  0  0  0  0  0  0
    4.8660    2.4081    0.0000 C   0  0  0  0  0  0  0  0  0  0  0  0
    4.6850    4.1307    0.0000 C   0  0  0  0  0  0  0  0  0  0  0  0
    5.5781   -0.7133    0.0000 H   0  0  0  0  0  0  0  0  0  0  0  0
    5.9766   -0.0230    0.0000 H   0  0  0  0  0  0  0  0  0  0  0  0
    3.4219   -2.5481    0.0000 H   0  0  0  0  0  0  0  0  0  0  0  0
    3.0234   -3.2384    0.0000 H   0  0  0  0  0  0  0  0  0  0  0  0
    3.5826   -0.5526    0.0000 H   0  0  0  0  0  0  0  0  0  0  0  0
    2.8923   -0.1541    0.0000 H   0  0  0  0  0  0  0  0  0  0  0  0
    3.0140   -4.1307    0.0000 H   0  0  0  0  0  0  0  0  0  0  0  0
    3.6340   -4.7507    0.0000 H   0  0  0  0  0  0  0  0  0  0  0  0
    4.2540   -4.1307    0.0000 H   0  0  0  0  0  0  0  0  0  0  0  0
    2.0000   -0.1447    0.0000 H   0  0  0  0  0  0  0  0  0  0  0  0
    1.3800   -0.7647    0.0000 H   0  0  0  0  0  0  0  0  0  0  0  0
    2.0000   -1.3847    0.0000 H   0  0  0  0  0  0  0  0  0  0  0  0
    5.2514    3.8785    0.0000 H   0  0  0  0  0  0  0  0  0  0  0  0
    4.9372    4.6971    0.0000 H   0  0  0  0  0  0  0  0  0  0  0  0
    4.1186    4.3829    0.0000 H   0  0  0  0  0  0  0  0  0  0  0  0
  1  4  1  0  0  0  0
  1 11  1  0  0  0  0
  2 14  1  0  0  0  0
  2 17  1  0  0  0  0
  3  4  2  0  0  0  0
  4  5  1  0  0  0  0
  4  6  1  0  0  0  0
  5 12  1  0  0  0  0
  6 13  1  0  0  0  0
  7 17  1  0  0  0  0
  7 18  1  0  0  0  0
  8 14  2  0  0  0  0
  9 10  1  0  0  0  0
  9 11  1  0  0  0  0
  9 14  1  0  0  0  0
 10 17  2  0  0  0  0
 11 19  1  0  0  0  0
 11 20  1  0  0  0  0
 12 15  1  0  0  0  0
 12 21  1  0  0  0  0
 12 22  1  0  0  0  0
 13 16  1  0  0  0  0
 13 23  1  0  0  0  0
 13 24  1  0  0  0  0
 15 25  1  0  0  0  0
 15 26  1  0  0  0  0
 15 27  1  0  0  0  0
 16 28  1  0  0  0  0
 16 29  1  0  0  0  0
 16 30  1  0  0  0  0
 18 31  1  0  0  0  0
 18 32  1  0  0  0  0
 18 33  1  0  0  0  0
M  END
> <PUBCHEM_COMPOUND_CID>
88197

> <PUBCHEM_COMPOUND_CANONICALIZED>
1

> <PUBCHEM_CACTVS_COMPLEXITY>
369

> <PUBCHEM_CACTVS_HBOND_ACCEPTOR>
8

> <PUBCHEM_CACTVS_HBOND_DONOR>
0

> <PUBCHEM_CACTVS_ROTATABLE_BOND>
8

> <PUBCHEM_CACTVS_SUBSKEYS>
AAADccBzOAJgAAAAAAAAAAAAAAAAAQAAAAAAAAAAAAAAAAAAAAAAHgQIACAAAACggAaCAAIABRgoAAAAEAAQAABAAAACAAAIAAAAAAAAAAAAAAAAAgAAAAAAAAAAAAAAAAAAAAAAAAAAAAAAAAAAAAAAAA==

> <PUBCHEM_IUPAC_OPENEYE_NAME>
3-(diethoxyphosphinothioylsulfanylmethyl)-5-methoxy-1,3,4-thiadiazol-2-one

> <PUBCHEM_IUPAC_CAS_NAME>
3-[(diethoxyphosphinothioylthio)methyl]-5-methoxy-1,3,4-thiadiazol-2-one

> <PUBCHEM_IUPAC_NAME>
3-(diethoxyphosphinothioylsulfanylmethyl)-5-methoxy-1,3,4-thiadiazol-2-one

> <PUBCHEM_IUPAC_SYSTEMATIC_NAME>
3-(diethoxyphosphinothioylsulfanylmethyl)-5-methoxy-1,3,4-thiadiazol-2-one

> <PUBCHEM_IUPAC_TRADITIONAL_NAME>
3-[(diethoxythiophosphorylthio)methyl]-5-methoxy-1,3,4-thiadiazol-2-one

> <PUBCHEM_IUPAC_INCHI>
InChI=1S/C8H15N2O4PS3/c1-4-13-15(16,14-5-2)17-6-10-8(11)18-7(9-10)12-3/h4-6H2,1-3H3

> <PUBCHEM_IUPAC_INCHIKEY>
QAOFKYGUSMPWNY-UHFFFAOYSA-N

> <PUBCHEM_XLOGP3>
3.2

> <PUBCHEM_EXACT_MASS>
329.993157

> <PUBCHEM_MOLECULAR_FORMULA>
C8H15N2O4PS3

> <PUBCHEM_MOLECULAR_WEIGHT>
330.384462

> <PUBCHEM_OPENEYE_CAN_SMILES>
CCOP(=S)(OCC)SCN1C(=O)SC(=N1)OC

> <PUBCHEM_OPENEYE_ISO_SMILES>
CCOP(=S)(OCC)SCN1C(=O)SC(=N1)OC

> <PUBCHEM_CACTVS_TPSA>
143

> <PUBCHEM_MONOISOTOPIC_WEIGHT>
329.993157

> <PUBCHEM_TOTAL_CHARGE>
0

> <PUBCHEM_HEAVY_ATOM_COUNT>
18

> <PUBCHEM_ATOM_DEF_STEREO_COUNT>
0

> <PUBCHEM_ATOM_UDEF_STEREO_COUNT>
0

> <PUBCHEM_BOND_DEF_STEREO_COUNT>
0

> <PUBCHEM_BOND_UDEF_STEREO_COUNT>
0

> <PUBCHEM_ISOTOPIC_ATOM_COUNT>
0

> <PUBCHEM_COMPONENT_COUNT>
1

> <PUBCHEM_CACTVS_TAUTO_COUNT>
1

> <PUBCHEM_COORDINATE_TYPE>
1
5
255

> <PUBCHEM_BONDANNOTATIONS>
10  17  8
2  14  8
2  17  8
9  10  8
9  14  8

$$$$

