17395455
  -OEChem-06241222503D

 35 37  0     0  0  0  0  0  0999 V2000
    2.0949    0.6080   -0.3426 S   0  0  0  0  0  0  0  0  0  0  0  0
    6.3023   -0.2117    0.2716 S   0  0  0  0  0  0  0  0  0  0  0  0
   -0.7754   -2.0355   -0.0762 O   0  0  0  0  0  0  0  0  0  0  0  0
   -2.5574    0.6742    1.5211 O   0  0  0  0  0  0  0  0  0  0  0  0
    3.5457   -1.4461    0.2561 N   0  0  0  0  0  0  0  0  0  0  0  0
   -0.8039    0.2107   -0.5507 N   0  0  0  0  0  0  0  0  0  0  0  0
   -2.1703    0.2033   -0.7131 N   0  0  0  0  0  0  0  0  0  0  0  0
   -6.6408    1.2125    0.7490 N   0  0  0  0  0  0  0  0  0  0  0  0
    1.2998   -0.8912   -0.0944 C   0  0  0  0  0  0  0  0  0  0  0  0
    2.2293   -1.8624    0.2135 C   0  0  0  0  0  0  0  0  0  0  0  0
    3.5944   -0.1619   -0.0208 C   0  0  0  0  0  0  0  0  0  0  0  0
    4.8111    0.5643   -0.0545 C   0  0  0  0  0  0  0  0  0  0  0  0
   -0.1620   -0.9767   -0.2246 C   0  0  0  0  0  0  0  0  0  0  0  0
    1.9417   -3.2827    0.5005 C   0  0  0  0  0  0  0  0  0  0  0  0
    4.9751    1.9038   -0.3317 C   0  0  0  0  0  0  0  0  0  0  0  0
    6.3432    2.2980   -0.2757 C   0  0  0  0  0  0  0  0  0  0  0  0
   -4.4343    0.4411    0.1316 C   0  0  0  0  0  0  0  0  0  0  0  0
    7.1725    1.2450    0.0422 C   0  0  0  0  0  0  0  0  0  0  0  0
   -3.0032    0.4464    0.3810 C   0  0  0  0  0  0  0  0  0  0  0  0
   -4.9777   -0.3024   -0.9103 C   0  0  0  0  0  0  0  0  0  0  0  0
   -5.3009    1.1752    0.9253 C   0  0  0  0  0  0  0  0  0  0  0  0
   -6.3517   -0.2893   -1.1234 C   0  0  0  0  0  0  0  0  0  0  0  0
   -7.1325    0.4774   -0.2736 C   0  0  0  0  0  0  0  0  0  0  0  0
    1.2794   -3.3773    1.3668 H   0  0  0  0  0  0  0  0  0  0  0  0
    2.8614   -3.8337    0.7228 H   0  0  0  0  0  0  0  0  0  0  0  0
    1.4652   -3.7636   -0.3597 H   0  0  0  0  0  0  0  0  0  0  0  0
    4.1766    2.5961   -0.5670 H   0  0  0  0  0  0  0  0  0  0  0  0
   -0.3287    1.0959   -0.6911 H   0  0  0  0  0  0  0  0  0  0  0  0
    6.7011    3.3027   -0.4592 H   0  0  0  0  0  0  0  0  0  0  0  0
   -2.4978    0.0656   -1.6630 H   0  0  0  0  0  0  0  0  0  0  0  0
    8.2477    1.2615    0.1507 H   0  0  0  0  0  0  0  0  0  0  0  0
   -4.3664   -0.9215   -1.5601 H   0  0  0  0  0  0  0  0  0  0  0  0
   -4.9430    1.7800    1.7530 H   0  0  0  0  0  0  0  0  0  0  0  0
   -6.7983   -0.8655   -1.9257 H   0  0  0  0  0  0  0  0  0  0  0  0
   -8.2098    0.5201   -0.3966 H   0  0  0  0  0  0  0  0  0  0  0  0
  1  9  1  0  0  0  0
  1 11  1  0  0  0  0
  2 12  1  0  0  0  0
  2 18  1  0  0  0  0
  3 13  2  0  0  0  0
  4 19  2  0  0  0  0
  5 10  1  0  0  0  0
  5 11  2  0  0  0  0
  6  7  1  0  0  0  0
  6 13  1  0  0  0  0
  6 28  1  0  0  0  0
  7 19  1  0  0  0  0
  7 30  1  0  0  0  0
  8 21  1  0  0  0  0
  8 23  2  0  0  0  0
  9 10  2  0  0  0  0
  9 13  1  0  0  0  0
 10 14  1  0  0  0  0
 11 12  1  0  0  0  0
 12 15  2  0  0  0  0
 14 24  1  0  0  0  0
 14 25  1  0  0  0  0
 14 26  1  0  0  0  0
 15 16  1  0  0  0  0
 15 27  1  0  0  0  0
 16 18  2  0  0  0  0
 16 29  1  0  0  0  0
 17 19  1  0  0  0  0
 17 20  1  0  0  0  0
 17 21  2  0  0  0  0
 18 31  1  0  0  0  0
 20 22  2  0  0  0  0
 20 32  1  0  0  0  0
 21 33  1  0  0  0  0
 22 23  1  0  0  0  0
 22 34  1  0  0  0  0
 23 35  1  0  0  0  0
M  END
> <PUBCHEM_COMPOUND_CID>
17395455

> <PUBCHEM_CONFORMER_RMSD>
0.8

> <PUBCHEM_CONFORMER_DIVERSEORDER>
3
43
17
11
9
38
27
14
40
20
44
18
35
5
13
30
15
34
26
24
33
10
21
45
31
16
42
12
25
41
4
32
19
28
8
23
39
6
36
1
22
29
37
7
2

> <PUBCHEM_MMFF94_PARTIAL_CHARGES>
32
1 -0.08
10 0.05
11 0.38
12 0.04
13 0.71
14 0.18
15 -0.15
16 -0.15
17 0.09
18 -0.11
19 0.54
2 -0.08
20 -0.15
21 0.16
22 -0.15
23 0.16
27 0.15
28 0.37
29 0.15
3 -0.57
30 0.37
31 0.15
32 0.15
33 0.15
34 0.15
35 0.15
4 -0.57
5 -0.57
6 -0.43
7 -0.43
8 -0.62
9 -0.05

> <PUBCHEM_EFFECTIVE_ROTOR_COUNT>
6

> <PUBCHEM_PHARMACOPHORE_FEATURES>
9
1 3 acceptor
1 4 acceptor
1 5 acceptor
1 6 donor
1 7 donor
1 8 acceptor
5 1 5 9 10 11 rings
5 2 12 15 16 18 rings
6 8 17 20 21 22 23 rings

> <PUBCHEM_HEAVY_ATOM_COUNT>
23

> <PUBCHEM_ATOM_DEF_STEREO_COUNT>
0

> <PUBCHEM_ATOM_UDEF_STEREO_COUNT>
0

> <PUBCHEM_BOND_DEF_STEREO_COUNT>
0

> <PUBCHEM_BOND_UDEF_STEREO_COUNT>
0

> <PUBCHEM_ISOTOPIC_ATOM_COUNT>
0

> <PUBCHEM_COMPONENT_COUNT>
1

> <PUBCHEM_CACTVS_TAUTO_COUNT>
4

> <PUBCHEM_CONFORMER_ID>
01096EFF00000003

> <PUBCHEM_MMFF94_ENERGY>
44.298

> <PUBCHEM_FEATURE_SELFOVERLAP>
47.196

> <PUBCHEM_SHAPE_FINGERPRINT>
10 15 17418095391235585348
10411042 1 17836087042102114962
10595046 47 18335140929830585907
10670039 82 15647043902310428321
10835480 77 18201163252011634133
11315181 36 18334295358597886037
11524674 6 15410894046319051497
11724838 91 18272088262566808743
12236239 1 18113619014799248535
12838862 33 18339095808647485696
12925494 130 17976263435602690248
13533116 47 18261958556160617002
13631057 29 18263649455506602447
13668630 136 7997966873571214509
13685833 64 8286203851124226028
13955234 65 18200597033250958298
14123256 10 18040998432116361117
14350574 20 6843923866850471010
14429380 56 18342469109735732869
14461889 52 18059568058175676795
14528608 73 18260268546801191941
14849402 71 18336826381650032665
15021287 119 9367347059322215111
15183329 4 14996275933798671006
15301273 46 15626227940195445426
15475509 35 15912778310009192658
1577012 14 18186521029456516725
1768 124 12319744661208724840
18335252 114 18408889538397959668
18681886 176 16950291671843656921
19784866 140 6843930446735035478
20157964 124 18413387665482503954
20281389 69 18272374170166209052
20554085 129 17968109599183489738
21033648 29 17131555046128560175
21049683 118 18126587651681070698
21049683 271 18260269617113823121
21150785 3 16008747987847867564
21298829 104 18410288134015366985
21365058 113 13840269160899478803
21403212 168 18343590638235850978
21792961 116 5039679166741775796
221357 26 7060379206367819170
22224240 67 18202285784136316298
2297311 6 15140679181431747993
23081809 10 17822017549024349079
23559900 14 18338804407974610345
23845131 108 18202563943478234394
25147074 1 18337410270054188742
28498 318 8790891770248424913
300161 21 18272371988412291927
335352 9 18411416216667013846
3472631 163 18261387798621088684
397830 11 16486395573991325392
4073 2 18272366447414402755
4325135 7 18186804677765976125
4340502 62 16988843890971698898
5104073 3 18131067130086771946
5385378 56 18341897416014776034
5758199 1 18410292501584805896
9961470 85 17903360312527640760

> <PUBCHEM_SHAPE_MULTIPOLES>
449.37
20.73
2.23
0.91
9.65
1.4
0.07
-11.85
-0.55
-3.21
0.27
1.07
-0.1
-1.26

> <PUBCHEM_SHAPE_SELFOVERLAP>
950.679

> <PUBCHEM_SHAPE_VOLUME>
253.9

> <PUBCHEM_COORDINATE_TYPE>
2
5
10

$$$$

