5281541
  -OEChem-07051212583D

 30 31  0     0  0  0  0  0  0999 V2000
   -1.2349    2.3798   -0.0993 O   0  0  0  0  0  0  0  0  0  0  0  0
   -4.2603   -0.1605    0.4729 O   0  0  0  0  0  0  0  0  0  0  0  0
    0.9969    2.7993   -0.0353 O   0  0  0  0  0  0  0  0  0  0  0  0
   -3.2062   -1.8980   -0.6360 O   0  0  0  0  0  0  0  0  0  0  0  0
   -0.7032   -0.3587   -0.0646 C   0  0  0  0  0  0  0  0  0  0  0  0
    0.3098    0.5294   -0.0411 C   0  0  0  0  0  0  0  0  0  0  0  0
    1.5514   -0.2224   -0.0010 C   0  0  0  0  0  0  0  0  0  0  0  0
   -0.1413   -1.7026   -0.0398 C   0  0  0  0  0  0  0  0  0  0  0  0
   -2.0572    0.1066   -0.1076 C   0  0  0  0  0  0  0  0  0  0  0  0
    1.1994   -1.6321   -0.0023 C   0  0  0  0  0  0  0  0  0  0  0  0
    0.0826    1.9845   -0.0571 C   0  0  0  0  0  0  0  0  0  0  0  0
    2.8056    0.2390    0.0314 C   0  0  0  0  0  0  0  0  0  0  0  0
   -2.2717    1.4255   -0.1232 C   0  0  0  0  0  0  0  0  0  0  0  0
   -3.2171   -0.7821   -0.1355 C   0  0  0  0  0  0  0  0  0  0  0  0
    3.9675   -0.6189    0.0693 C   0  0  0  0  0  0  0  0  0  0  0  0
    5.2240   -0.1514    0.1017 C   0  0  0  0  0  0  0  0  0  0  0  0
    6.4331   -1.0273    0.1413 C   0  0  0  0  0  0  0  0  0  0  0  0
   -5.4784   -0.9103    0.5261 C   0  0  0  0  0  0  0  0  0  0  0  0
   -0.7185   -2.6132   -0.0459 H   0  0  0  0  0  0  0  0  0  0  0  0
    1.8554   -2.4854    0.0240 H   0  0  0  0  0  0  0  0  0  0  0  0
    2.9966    1.3082    0.0301 H   0  0  0  0  0  0  0  0  0  0  0  0
   -3.2206    1.9417   -0.1681 H   0  0  0  0  0  0  0  0  0  0  0  0
    3.8351   -1.6953    0.0721 H   0  0  0  0  0  0  0  0  0  0  0  0
    5.4070    0.9205    0.1003 H   0  0  0  0  0  0  0  0  0  0  0  0
    7.0653   -0.8284   -0.7295 H   0  0  0  0  0  0  0  0  0  0  0  0
    6.1773   -2.0916    0.1408 H   0  0  0  0  0  0  0  0  0  0  0  0
    7.0152   -0.8173    1.0439 H   0  0  0  0  0  0  0  0  0  0  0  0
   -5.3295   -1.8343    1.0928 H   0  0  0  0  0  0  0  0  0  0  0  0
   -5.8318   -1.1301   -0.4859 H   0  0  0  0  0  0  0  0  0  0  0  0
   -6.2300   -0.3023    1.0364 H   0  0  0  0  0  0  0  0  0  0  0  0
  1 11  1  0  0  0  0
  1 13  1  0  0  0  0
  2 14  1  0  0  0  0
  2 18  1  0  0  0  0
  3 11  2  0  0  0  0
  4 14  2  0  0  0  0
  5  6  2  0  0  0  0
  5  8  1  0  0  0  0
  5  9  1  0  0  0  0
  6  7  1  0  0  0  0
  6 11  1  0  0  0  0
  7 10  1  0  0  0  0
  7 12  2  0  0  0  0
  8 10  2  0  0  0  0
  8 19  1  0  0  0  0
  9 13  2  0  0  0  0
  9 14  1  0  0  0  0
 10 20  1  0  0  0  0
 12 15  1  0  0  0  0
 12 21  1  0  0  0  0
 13 22  1  0  0  0  0
 15 16  2  0  0  0  0
 15 23  1  0  0  0  0
 16 17  1  0  0  0  0
 16 24  1  0  0  0  0
 17 25  1  0  0  0  0
 17 26  1  0  0  0  0
 17 27  1  0  0  0  0
 18 28  1  0  0  0  0
 18 29  1  0  0  0  0
 18 30  1  0  0  0  0
M  END
> <PUBCHEM_COMPOUND_CID>
5281541

> <PUBCHEM_CONFORMER_RMSD>
0.6

> <PUBCHEM_CONFORMER_DIVERSEORDER>
1
6
4
3
2
5

> <PUBCHEM_MMFF94_PARTIAL_CHARGES>
22
1 -0.23
10 -0.15
11 0.71
12 -0.15
13 -0.07
14 0.71
15 -0.15
16 -0.29
17 0.14
18 0.28
19 0.15
2 -0.43
20 0.15
21 0.15
22 0.15
23 0.15
24 0.15
3 -0.57
4 -0.57
6 0.01
8 -0.15
9 0.01

> <PUBCHEM_EFFECTIVE_ROTOR_COUNT>
3

> <PUBCHEM_PHARMACOPHORE_FEATURES>
5
1 17 hydrophobe
1 3 acceptor
1 4 acceptor
5 5 6 7 8 10 rings
6 1 5 6 9 11 13 rings

> <PUBCHEM_HEAVY_ATOM_COUNT>
18

> <PUBCHEM_ATOM_DEF_STEREO_COUNT>
0

> <PUBCHEM_ATOM_UDEF_STEREO_COUNT>
0

> <PUBCHEM_BOND_DEF_STEREO_COUNT>
2

> <PUBCHEM_BOND_UDEF_STEREO_COUNT>
0

> <PUBCHEM_ISOTOPIC_ATOM_COUNT>
0

> <PUBCHEM_COMPONENT_COUNT>
1

> <PUBCHEM_CACTVS_TAUTO_COUNT>
1

> <PUBCHEM_CONFORMER_ID>
0050970500000001

> <PUBCHEM_MMFF94_ENERGY>
66.9393

> <PUBCHEM_FEATURE_SELFOVERLAP>
25.449

> <PUBCHEM_SHAPE_FINGERPRINT>
10493431 412 18045774852325119601
10967382 1 18266741285881034549
1100329 8 18268146470146943011
11680986 33 18053100623142820520
12032990 46 18410292514759916622
12236239 1 17775283898286323686
12251169 10 18261387833033437643
12403259 415 18186812391706652872
12553582 1 18339939150881589467
13140716 1 18193835947008873515
13214271 11 18334581290590282708
13257819 101 5039399817425613689
13288520 33 18412262843622885167
13740256 8 18271520893160787043
13862211 1 18410858741499480935
14787075 74 18202562852381817714
15048467 5 16805320006938040035
15196674 1 18338517439122674596
16945 1 18410303497123089911
17492 89 18125162881906447082
187816 3 17846778507594510234
19141452 34 17821729403446736271
200 152 17989208161667220770
20028762 73 18115590327411279639
20510252 161 18262519311912907032
21029758 11 18408889511968681704
21029758 27 18343862199499783476
21267235 1 18411974763044657890
221490 88 18053661378637414027
22182313 1 18116145752180058423
2297311 6 18335412509287023302
2334 1 17834396713880583135
23402539 116 18335146392575611350
23557571 272 18187638159108686990
23559900 14 18337114467403552080
23622692 118 17898017837330985855
23845131 108 17396690360279630849
2748010 2 18120658186929566359
335352 9 18410575072379603151
34934 24 18268996569213877217
350125 39 18411133628281475433
43471831 8 18271248351805976242
4463277 17 18411698781309922361
474229 33 18411699898239075506
5104073 3 18190176793712677499
8809292 202 18129659699695483035
9709674 26 18337947991722952814

> <PUBCHEM_SHAPE_MULTIPOLES>
346.95
10.58
2.21
0.64
8.33
1.33
0
-5.08
1.37
-0.75
-0.13
-0.14
-0.07
-0.04

> <PUBCHEM_SHAPE_SELFOVERLAP>
747.89

> <PUBCHEM_SHAPE_VOLUME>
192.4

> <PUBCHEM_COORDINATE_TYPE>
2
5
10

$$$$

