441701
  -OEChem-07051212553D

 31 33  0     0  0  0  0  0  0999 V2000
    0.3744   -0.6027   -0.1292 O   0  3  0  0  0  0  0  0  0  0  0  0
    4.3777    2.1105    0.3362 O   0  0  0  0  0  0  0  0  0  0  0  0
    4.7330   -2.5844   -0.3463 O   0  0  0  0  0  0  0  0  0  0  0  0
   -4.4059   -2.1742    0.7088 O   0  0  0  0  0  0  0  0  0  0  0  0
   -5.9729   -0.0703   -0.2082 O   0  0  0  0  0  0  0  0  0  0  0  0
    2.3662    0.8011    0.1116 C   0  0  0  0  0  0  0  0  0  0  0  0
    1.7736   -0.4516   -0.0812 C   0  0  0  0  0  0  0  0  0  0  0  0
   -0.3687    0.4612    0.0019 C   0  0  0  0  0  0  0  0  0  0  0  0
   -1.8486    0.3178   -0.0512 C   0  0  0  0  0  0  0  0  0  0  0  0
    1.5003    1.9619    0.2764 C   0  0  0  0  0  0  0  0  0  0  0  0
    0.1711    1.8314    0.2300 C   0  0  0  0  0  0  0  0  0  0  0  0
    3.7592    0.9097    0.1498 C   0  0  0  0  0  0  0  0  0  0  0  0
    2.5680   -1.5882   -0.2346 C   0  0  0  0  0  0  0  0  0  0  0  0
   -2.4430   -0.8721    0.3583 C   0  0  0  0  0  0  0  0  0  0  0  0
   -2.6290    1.3742   -0.5116 C   0  0  0  0  0  0  0  0  0  0  0  0
    3.9569   -1.4764   -0.1963 C   0  0  0  0  0  0  0  0  0  0  0  0
    4.5516   -0.2293   -0.0047 C   0  0  0  0  0  0  0  0  0  0  0  0
   -3.8305   -1.0069    0.3069 C   0  0  0  0  0  0  0  0  0  0  0  0
   -4.0163    1.2395   -0.5630 C   0  0  0  0  0  0  0  0  0  0  0  0
   -4.6170    0.0491   -0.1537 C   0  0  0  0  0  0  0  0  0  0  0  0
    1.9427    2.9359    0.4536 H   0  0  0  0  0  0  0  0  0  0  0  0
   -0.4714    2.6867    0.3880 H   0  0  0  0  0  0  0  0  0  0  0  0
    2.0984   -2.5564   -0.3843 H   0  0  0  0  0  0  0  0  0  0  0  0
   -1.8285   -1.6936    0.7186 H   0  0  0  0  0  0  0  0  0  0  0  0
   -2.2003    2.3037   -0.8729 H   0  0  0  0  0  0  0  0  0  0  0  0
    5.6356   -0.1465    0.0246 H   0  0  0  0  0  0  0  0  0  0  0  0
   -4.6234    2.0626   -0.9300 H   0  0  0  0  0  0  0  0  0  0  0  0
    5.3413    1.9792    0.3324 H   0  0  0  0  0  0  0  0  0  0  0  0
    5.6687   -2.3241   -0.2935 H   0  0  0  0  0  0  0  0  0  0  0  0
   -3.7089   -2.7895    0.9946 H   0  0  0  0  0  0  0  0  0  0  0  0
   -6.2150   -0.9568    0.1118 H   0  0  0  0  0  0  0  0  0  0  0  0
  1  7  1  0  0  0  0
  1  8  2  0  0  0  0
  2 12  1  0  0  0  0
  2 28  1  0  0  0  0
  3 16  1  0  0  0  0
  3 29  1  0  0  0  0
  4 18  1  0  0  0  0
  4 30  1  0  0  0  0
  5 20  1  0  0  0  0
  5 31  1  0  0  0  0
  6  7  1  0  0  0  0
  6 10  1  0  0  0  0
  6 12  2  0  0  0  0
  7 13  2  0  0  0  0
  8  9  1  0  0  0  0
  8 11  1  0  0  0  0
  9 14  2  0  0  0  0
  9 15  1  0  0  0  0
 10 11  2  0  0  0  0
 10 21  1  0  0  0  0
 11 22  1  0  0  0  0
 12 17  1  0  0  0  0
 13 16  1  0  0  0  0
 13 23  1  0  0  0  0
 14 18  1  0  0  0  0
 14 24  1  0  0  0  0
 15 19  2  0  0  0  0
 15 25  1  0  0  0  0
 16 17  2  0  0  0  0
 17 26  1  0  0  0  0
 18 20  2  0  0  0  0
 19 20  1  0  0  0  0
 19 27  1  0  0  0  0
M  CHG  1   1   1
M  END
> <PUBCHEM_COMPOUND_CID>
441701

> <PUBCHEM_CONFORMER_RMSD>
0.6

> <PUBCHEM_CONFORMER_DIVERSEORDER>
1
3
5
2
4
6

> <PUBCHEM_MMFF94_PARTIAL_CHARGES>
31
1 -0.87
10 -0.18
11 -0.14
12 0.08
13 -0.15
14 -0.15
15 -0.15
16 0.08
17 -0.15
18 0.08
19 -0.15
2 -0.53
20 0.08
21 0.15
22 0.15
23 0.15
24 0.15
25 0.15
26 0.15
27 0.15
28 0.45
29 0.45
3 -0.53
30 0.45
31 0.45
4 -0.53
5 -0.53
6 0.03
7 0.92
8 0.85
9 0.09

> <PUBCHEM_EFFECTIVE_ROTOR_COUNT>
1

> <PUBCHEM_PHARMACOPHORE_FEATURES>
7
1 2 donor
1 3 donor
1 4 donor
1 5 donor
6 1 6 7 8 10 11 rings
6 6 7 12 13 16 17 rings
6 9 14 15 18 19 20 rings

> <PUBCHEM_HEAVY_ATOM_COUNT>
20

> <PUBCHEM_ATOM_DEF_STEREO_COUNT>
0

> <PUBCHEM_ATOM_UDEF_STEREO_COUNT>
0

> <PUBCHEM_BOND_DEF_STEREO_COUNT>
0

> <PUBCHEM_BOND_UDEF_STEREO_COUNT>
0

> <PUBCHEM_ISOTOPIC_ATOM_COUNT>
0

> <PUBCHEM_COMPONENT_COUNT>
1

> <PUBCHEM_CACTVS_TAUTO_COUNT>
200

> <PUBCHEM_CONFORMER_ID>
0006BD6500000001

> <PUBCHEM_MMFF94_ENERGY>
58.0998

> <PUBCHEM_FEATURE_SELFOVERLAP>
35.554

> <PUBCHEM_SHAPE_FINGERPRINT>
10835480 77 18411146826700294877
11405975 8 18339360871925787617
11471102 20 18408325475641670620
11552529 35 17678736722760168707
12032990 46 18410008866529741180
12107183 9 17756980478036359393
12236239 1 17240483598430441701
12596602 18 15936421008802456175
13134695 92 17894640244240887032
13167823 11 18410014346739478711
13533116 47 18186240632136783017
13675066 3 18336271171232186832
13955234 65 18260834770105327328
14341114 176 18411694383732916217
14386348 63 18413388726697927217
14866123 147 17542219515970614360
15196674 1 18410855460159823313
15352361 1 18410574010968838135
15536298 74 18408324388962054312
15788980 27 18113341929015422333
15961568 22 17346033364733951940
17844677 252 18410287042808460461
1813 80 17060338517760382877
18186145 218 17846222188870010204
19141452 34 18409446960781055943
193927 3 17968647337177697150
200 152 17967536766246270089
20645477 70 18334576875690956486
21033650 10 16772951565869724500
21065198 57 18411419531231694669
21065201 7 17917716815843245553
21250096 35 18260830414280468976
21267235 1 18335696182849366838
21279426 13 18267589189813986277
221357 26 18411425037780922269
221490 88 18340762650451129730
2215653 11 18411144649557161469
22393880 68 18131075986272113371
23402539 116 17631743681350264669
23557571 272 17703796932928648861
23559900 14 18412549833458988112
239999 70 18409446999372588014
26918003 58 18409169926003756057
2871803 45 18271809055216681746
3004659 81 18201438125312218078
335352 9 18265895950465497365
33824 294 18410014321565410186
3421961 26 18335703875399518594
3545911 37 18412262822164028853
4073 2 18202279165206767107
4214541 1 18411982502913328925
465052 167 18187361038696409006
4921388 177 16558736894027178899
5104073 3 18408886256309437305
5281201 14 18272368693755820356
5283173 99 18271250546370773133
542803 24 17022617568288576681
77779 3 18411699889485266309
9709674 26 18271240513284633859

> <PUBCHEM_SHAPE_MULTIPOLES>
382.24
11.68
2.24
0.68
5.05
0.28
0
3.36
-0.36
-1.6
0.11
0.16
0
1.11

> <PUBCHEM_SHAPE_SELFOVERLAP>
853.321

> <PUBCHEM_SHAPE_VOLUME>
202.1

> <PUBCHEM_COORDINATE_TYPE>
2
5
10

$$$$

