5280625
  -OEChem-07051212483D

 17 16  0     0  0  0  0  0  0999 V2000
   -2.4294    0.7876    1.2588 O   0  0  0  0  0  0  0  0  0  0  0  0
   -2.5891    0.9202   -0.9980 O   0  0  0  0  0  0  0  0  0  0  0  0
    4.0992   -0.2593    0.3056 O   0  0  0  0  0  0  0  0  0  0  0  0
   -1.7868   -1.9900   -0.0389 N   0  0  0  0  0  0  0  0  0  0  0  0
   -1.1766   -0.7656   -0.0429 C   0  0  0  0  0  0  0  0  0  0  0  0
    0.1510   -0.5344   -0.0850 C   0  0  0  0  0  0  0  0  0  0  0  0
    0.7780    0.7749   -0.0911 C   0  0  0  0  0  0  0  0  0  0  0  0
   -2.1264    0.3882    0.0026 C   0  0  0  0  0  0  0  0  0  0  0  0
    2.1068    0.9364   -0.1341 C   0  0  0  0  0  0  0  0  0  0  0  0
    2.9732   -0.2580   -0.1771 C   0  0  0  0  0  0  0  0  0  0  0  0
    0.7668   -1.4269   -0.0873 H   0  0  0  0  0  0  0  0  0  0  0  0
    0.1543    1.6613   -0.0351 H   0  0  0  0  0  0  0  0  0  0  0  0
   -1.2255   -2.8319   -0.0692 H   0  0  0  0  0  0  0  0  0  0  0  0
   -2.7966   -2.0532   -0.0063 H   0  0  0  0  0  0  0  0  0  0  0  0
    2.5690    1.9138   -0.0724 H   0  0  0  0  0  0  0  0  0  0  0  0
    2.6043   -1.1401   -0.7190 H   0  0  0  0  0  0  0  0  0  0  0  0
   -3.0534    1.5445    1.2634 H   0  0  0  0  0  0  0  0  0  0  0  0
  1  8  1  0  0  0  0
  1 17  1  0  0  0  0
  2  8  2  0  0  0  0
  3 10  2  0  0  0  0
  4  5  1  0  0  0  0
  4 13  1  0  0  0  0
  4 14  1  0  0  0  0
  5  6  2  0  0  0  0
  5  8  1  0  0  0  0
  6  7  1  0  0  0  0
  6 11  1  0  0  0  0
  7  9  2  0  0  0  0
  7 12  1  0  0  0  0
  9 10  1  0  0  0  0
  9 15  1  0  0  0  0
 10 16  1  0  0  0  0
M  END
> <PUBCHEM_COMPOUND_CID>
5280625

> <PUBCHEM_CONFORMER_RMSD>
0.6

> <PUBCHEM_CONFORMER_DIVERSEORDER>
1
3
2

> <PUBCHEM_MMFF94_PARTIAL_CHARGES>
17
1 -0.65
10 0.5
11 0.15
12 0.15
13 0.4
14 0.4
15 0.15
16 0.06
17 0.5
2 -0.57
3 -0.57
4 -0.9
5 0.11
6 -0.15
7 -0.15
8 0.71
9 -0.14

> <PUBCHEM_EFFECTIVE_ROTOR_COUNT>
3

> <PUBCHEM_PHARMACOPHORE_FEATURES>
6
1 1 acceptor
1 2 acceptor
1 3 acceptor
1 4 cation
1 4 donor
3 1 2 8 anion

> <PUBCHEM_HEAVY_ATOM_COUNT>
10

> <PUBCHEM_ATOM_DEF_STEREO_COUNT>
0

> <PUBCHEM_ATOM_UDEF_STEREO_COUNT>
0

> <PUBCHEM_BOND_DEF_STEREO_COUNT>
2

> <PUBCHEM_BOND_UDEF_STEREO_COUNT>
0

> <PUBCHEM_ISOTOPIC_ATOM_COUNT>
0

> <PUBCHEM_COMPONENT_COUNT>
1

> <PUBCHEM_CACTVS_TAUTO_COUNT>
4

> <PUBCHEM_CONFORMER_ID>
0050937100000001

> <PUBCHEM_MMFF94_ENERGY>
30.8097

> <PUBCHEM_FEATURE_SELFOVERLAP>
30.505

> <PUBCHEM_SHAPE_FINGERPRINT>
11062470 55 16225767436732771680
12932764 1 18130785638214566636
14325111 11 18412263896285414132
14577589 140 17988644124818015686
18511873 20 18343301496109579000
19973954 147 18191022309406304816
20645464 45 18334006211649139351
207724 885 18341889705846768592
23402539 116 17894640261889741469
23552423 10 18129381497330494102
3248919 1 17968090911200282148
42627469 27 18041270066922115737
5084963 1 18269556048432686253

> <PUBCHEM_SHAPE_MULTIPOLES>
183.21
5.43
1.33
0.8
4.25
0.45
-0.07
-0.17
-0.31
-0.75
0.04
-0.45
-0.18
-0.07

> <PUBCHEM_SHAPE_SELFOVERLAP>
357.206

> <PUBCHEM_SHAPE_VOLUME>
109.6

> <PUBCHEM_COORDINATE_TYPE>
2
5
10

$$$$

