73191
  -OEChem-07051212573D

 53 56  0     1  0  0  0  0  0999 V2000
    1.3656   -0.1058   -0.4866 O   0  0  0  0  0  0  0  0  0  0  0  0
    3.5429   -0.6719    0.1318 O   0  0  0  0  0  0  0  0  0  0  0  0
   -1.1393   -0.7959   -1.5465 O   0  0  0  0  0  0  0  0  0  0  0  0
    2.2245    2.5400   -1.0063 O   0  0  0  0  0  0  0  0  0  0  0  0
    4.5688    3.2747    0.6202 O   0  0  0  0  0  0  0  0  0  0  0  0
    6.6379    1.2710    0.3767 O   0  0  0  0  0  0  0  0  0  0  0  0
    5.3048   -1.4600    2.1230 O   0  0  0  0  0  0  0  0  0  0  0  0
   -5.5964    0.8964   -0.7762 O   0  0  0  0  0  0  0  0  0  0  0  0
   -7.7057    1.6686   -0.3311 O   0  0  0  0  0  0  0  0  0  0  0  0
    1.1105   -1.4399   -0.9362 C   0  0  0  0  0  0  0  0  0  0  0  0
   -0.3685   -1.7432   -0.7614 C   0  0  1  0  0  0  0  0  0  0  0  0
    2.7451    0.2317   -0.6293 C   0  0  2  0  0  0  0  0  0  0  0  0
    2.9332    1.6642   -0.1299 C   0  0  1  0  0  0  0  0  0  0  0  0
    4.4109    2.0555   -0.1071 C   0  0  2  0  0  0  0  0  0  0  0  0
    5.2569    0.9827    0.5789 C   0  0  1  0  0  0  0  0  0  0  0  0
    4.9409   -0.4031    0.0116 C   0  0  1  0  0  0  0  0  0  0  0  0
   -0.8188   -1.6535    0.7049 C   0  0  0  0  0  0  0  0  0  0  0  0
    1.5250   -1.5380   -2.4067 C   0  0  0  0  0  0  0  0  0  0  0  0
    1.9643   -2.3779   -0.0806 C   0  0  0  0  0  0  0  0  0  0  0  0
   -2.1617   -1.0640    0.5042 C   0  0  0  0  0  0  0  0  0  0  0  0
   -2.2622   -0.5746   -0.7909 C   0  0  0  0  0  0  0  0  0  0  0  0
    5.6869   -1.5032    0.7602 C   0  0  0  0  0  0  0  0  0  0  0  0
   -3.1990   -0.9123    1.4105 C   0  0  0  0  0  0  0  0  0  0  0  0
   -3.3882    0.0854   -1.2385 C   0  0  0  0  0  0  0  0  0  0  0  0
   -4.3604   -0.2588    0.9836 C   0  0  0  0  0  0  0  0  0  0  0  0
   -4.4356    0.2292   -0.3288 C   0  0  0  0  0  0  0  0  0  0  0  0
   -5.4981   -0.0609    1.8667 C   0  0  0  0  0  0  0  0  0  0  0  0
   -6.5898    0.5714    1.4296 C   0  0  0  0  0  0  0  0  0  0  0  0
   -6.6946    1.0921    0.0544 C   0  0  0  0  0  0  0  0  0  0  0  0
   -0.6027   -2.7432   -1.1557 H   0  0  0  0  0  0  0  0  0  0  0  0
    3.0403    0.2102   -1.6841 H   0  0  0  0  0  0  0  0  0  0  0  0
    2.4920    1.7871    0.8664 H   0  0  0  0  0  0  0  0  0  0  0  0
    4.7739    2.2523   -1.1235 H   0  0  0  0  0  0  0  0  0  0  0  0
    5.0658    1.0309    1.6570 H   0  0  0  0  0  0  0  0  0  0  0  0
    5.2309   -0.4654   -1.0457 H   0  0  0  0  0  0  0  0  0  0  0  0
   -0.2094   -0.9747    1.3099 H   0  0  0  0  0  0  0  0  0  0  0  0
   -0.8506   -2.6398    1.1769 H   0  0  0  0  0  0  0  0  0  0  0  0
    2.6088   -1.6034   -2.5510 H   0  0  0  0  0  0  0  0  0  0  0  0
    1.1110   -2.4446   -2.8635 H   0  0  0  0  0  0  0  0  0  0  0  0
    1.1690   -0.6766   -2.9835 H   0  0  0  0  0  0  0  0  0  0  0  0
    2.0292   -2.0865    0.9745 H   0  0  0  0  0  0  0  0  0  0  0  0
    2.9456   -2.6163   -0.5062 H   0  0  0  0  0  0  0  0  0  0  0  0
    1.4848   -3.3682   -0.0679 H   0  0  0  0  0  0  0  0  0  0  0  0
    6.7738   -1.4023    0.6811 H   0  0  0  0  0  0  0  0  0  0  0  0
    5.4010   -2.4866    0.3739 H   0  0  0  0  0  0  0  0  0  0  0  0
   -3.1016   -1.2881    2.4243 H   0  0  0  0  0  0  0  0  0  0  0  0
    2.6064    2.4516   -1.8962 H   0  0  0  0  0  0  0  0  0  0  0  0
    5.5176    3.4885    0.6276 H   0  0  0  0  0  0  0  0  0  0  0  0
    6.8142    1.2409   -0.5792 H   0  0  0  0  0  0  0  0  0  0  0  0
   -3.4564    0.4702   -2.2493 H   0  0  0  0  0  0  0  0  0  0  0  0
    5.8423   -0.7791    2.5612 H   0  0  0  0  0  0  0  0  0  0  0  0
   -5.4454   -0.4346    2.8833 H   0  0  0  0  0  0  0  0  0  0  0  0
   -7.4408    0.7206    2.0853 H   0  0  0  0  0  0  0  0  0  0  0  0
  1 10  1  0  0  0  0
  1 12  1  0  0  0  0
  2 12  1  0  0  0  0
  2 16  1  0  0  0  0
  3 11  1  0  0  0  0
  3 21  1  0  0  0  0
  4 13  1  0  0  0  0
  4 47  1  0  0  0  0
  5 14  1  0  0  0  0
  5 48  1  0  0  0  0
  6 15  1  0  0  0  0
  6 49  1  0  0  0  0
  7 22  1  0  0  0  0
  7 51  1  0  0  0  0
  8 26  1  0  0  0  0
  8 29  1  0  0  0  0
  9 29  2  0  0  0  0
 10 11  1  0  0  0  0
 10 18  1  0  0  0  0
 10 19  1  0  0  0  0
 11 17  1  0  0  0  0
 11 30  1  0  0  0  0
 12 13  1  0  0  0  0
 12 31  1  0  0  0  0
 13 14  1  0  0  0  0
 13 32  1  0  0  0  0
 14 15  1  0  0  0  0
 14 33  1  0  0  0  0
 15 16  1  0  0  0  0
 15 34  1  0  0  0  0
 16 22  1  0  0  0  0
 16 35  1  0  0  0  0
 17 20  1  0  0  0  0
 17 36  1  0  0  0  0
 17 37  1  0  0  0  0
 18 38  1  0  0  0  0
 18 39  1  0  0  0  0
 18 40  1  0  0  0  0
 19 41  1  0  0  0  0
 19 42  1  0  0  0  0
 19 43  1  0  0  0  0
 20 21  2  0  0  0  0
 20 23  1  0  0  0  0
 21 24  1  0  0  0  0
 22 44  1  0  0  0  0
 22 45  1  0  0  0  0
 23 25  2  0  0  0  0
 23 46  1  0  0  0  0
 24 26  2  0  0  0  0
 24 50  1  0  0  0  0
 25 26  1  0  0  0  0
 25 27  1  0  0  0  0
 27 28  2  0  0  0  0
 27 52  1  0  0  0  0
 28 29  1  0  0  0  0
 28 53  1  0  0  0  0
M  END
> <PUBCHEM_COMPOUND_CID>
73191

> <PUBCHEM_CONFORMER_RMSD>
0.8

> <PUBCHEM_CONFORMER_DIVERSEORDER>
4
14
8
10
7
11
12
6
13
9
5
2
1
15
3

> <PUBCHEM_MMFF94_PARTIAL_CHARGES>
35
1 -0.56
10 0.28
11 0.28
12 0.56
13 0.28
14 0.28
15 0.28
16 0.28
17 0.14
2 -0.56
20 -0.14
21 0.08
22 0.28
23 -0.15
24 -0.15
25 0.03
26 0.08
27 -0.18
28 -0.14
29 0.71
3 -0.36
4 -0.68
46 0.15
47 0.4
48 0.4
49 0.4
5 -0.68
50 0.15
51 0.4
52 0.15
53 0.15
6 -0.68
7 -0.68
8 -0.23
9 -0.57

> <PUBCHEM_EFFECTIVE_ROTOR_COUNT>
5.8

> <PUBCHEM_PHARMACOPHORE_FEATURES>
17
1 1 acceptor
1 2 acceptor
1 3 acceptor
1 4 acceptor
1 4 donor
1 5 acceptor
1 5 donor
1 6 acceptor
1 6 donor
1 7 acceptor
1 7 donor
1 9 acceptor
3 10 18 19 hydrophobe
5 3 11 17 20 21 rings
6 2 12 13 14 15 16 rings
6 20 21 23 24 25 26 rings
6 8 25 26 27 28 29 rings

> <PUBCHEM_HEAVY_ATOM_COUNT>
29

> <PUBCHEM_ATOM_DEF_STEREO_COUNT>
6

> <PUBCHEM_ATOM_UDEF_STEREO_COUNT>
0

> <PUBCHEM_BOND_DEF_STEREO_COUNT>
0

> <PUBCHEM_BOND_UDEF_STEREO_COUNT>
0

> <PUBCHEM_ISOTOPIC_ATOM_COUNT>
0

> <PUBCHEM_COMPONENT_COUNT>
1

> <PUBCHEM_CACTVS_TAUTO_COUNT>
1

> <PUBCHEM_CONFORMER_ID>
00011DE700000004

> <PUBCHEM_MMFF94_ENERGY>
115.9953

> <PUBCHEM_FEATURE_SELFOVERLAP>
86.46

> <PUBCHEM_SHAPE_FINGERPRINT>
10 15 18343861121895450315
10319926 262 17203321209297238603
10692045 39 18342737459218572426
10928967 22 12966859974593206992
117089 54 11598911477842350504
11961588 58 14996006540290904583
12107183 9 18410300246076148306
12128747 34 17559966591426023890
12236239 1 17458346359828115727
12422481 6 18336267933016866756
12516196 113 11527948945597191575
12633257 1 18341897376811586818
12778500 126 17846500369770484968
13402501 40 18413671318498660013
13685833 64 9799687100136969831
13785724 45 18120089744225670030
13878862 14 18336000704547137740
14251764 30 14836135385544550754
14341114 176 17989486325166013478
14347424 109 18342745139453008650
15183329 4 16443063898434732585
15188451 53 16199583572835675123
15238133 3 18131059403714470980
15348495 7 17917424285731433073
1577012 14 18187369804956541158
18335252 114 17967814972462919748
20157964 124 18260544558848806975
20511986 3 17676781906469143204
20567600 247 10447925049211510169
20715895 44 18334010601089937057
21033648 29 17846502504147554632
21033650 10 14201662187936495043
21150785 3 14129070227105026459
21298829 104 17676761054904659857
21315763 76 17967248706905580857
21344244 181 12463287059835228720
21403212 168 18334017207393320334
21859007 373 17631740507785983095
22122407 14 18334848420582128929
22149856 69 10519712214691139087
22950370 63 11455901264396543198
23522609 53 11527100247370532903
23559900 14 17559656508310919487
2748736 6 17822007627460089193
2767999 5 17603587434709303115
2838139 119 18335425686051911349
312425 54 17489869323662519011
3178227 256 18130794486543873506
3472631 163 15864362328396155194
34797466 226 5473134150406195771
351380 3 12751239194492212211
3737641 26 13901091996833223208
392239 28 18201144521590444025
397830 11 18341600483224186875
465052 167 11815893457468369531
474 4 18186515505728141367
5104073 3 18341619153172592610
54039377 194 11527683985640594712
6058803 2 17975150747151893654
6371009 1 17894910736986163897
6608658 132 16226316114979322433
7970288 3 12607416463519624024

> <PUBCHEM_SHAPE_MULTIPOLES>
543.98
18.1
2.42
1.6
12.27
1.06
-0.02
9.65
-6.25
-3.43
0.16
0.47
-0.57
0.02

> <PUBCHEM_SHAPE_SELFOVERLAP>
1184.133

> <PUBCHEM_SHAPE_VOLUME>
294.6

> <PUBCHEM_COORDINATE_TYPE>
2
5
10

$$$$

