9068
  -OEChem-06261203222D

 46 46  0     1  0  0  0  0  0999 V2000
    7.3997    5.6010    0.0000 Cl  0  5  0  0  0  0  0  0  0  0  0  0
    0.8987    5.1588    0.0000 S   0  0  0  0  0  0  0  0  0  0  0  0
    2.2608    8.6040    0.0000 P   0  0  3  0  0  0  0  0  0  0  0  0
    2.4418   10.3265    0.0000 P   0  0  0  0  0  0  0  0  0  0  0  0
    2.6675    7.6904    0.0000 O   0  0  0  0  0  0  0  0  0  0  0  0
    1.8540    9.5175    0.0000 O   0  0  0  0  0  0  0  0  0  0  0  0
    3.1743    9.0107    0.0000 O   0  0  0  0  0  0  0  0  0  0  0  0
    1.3472    8.1972    0.0000 O   0  0  0  0  0  0  0  0  0  0  0  0
    3.0296   11.1355    0.0000 O   0  0  0  0  0  0  0  0  0  0  0  0
    1.6328   10.9143    0.0000 O   0  0  0  0  0  0  0  0  0  0  0  0
    3.2508    9.7387    0.0000 O   0  0  0  0  0  0  0  0  0  0  0  0
    1.3987    3.6200    0.0000 N   0  3  0  0  0  0  0  0  0  0  0  0
    3.1307    0.6200    0.0000 N   0  0  0  0  0  0  0  0  0  0  0  0
    3.9968    2.1200    0.0000 N   0  0  0  0  0  0  0  0  0  0  0  0
    1.3987    0.6200    0.0000 N   0  0  0  0  0  0  0  0  0  0  0  0
    2.2077    4.2078    0.0000 C   0  0  0  0  0  0  0  0  0  0  0  0
    1.8987    5.1588    0.0000 C   0  0  0  0  0  0  0  0  0  0  0  0
    1.3987    2.6200    0.0000 C   0  0  0  0  0  0  0  0  0  0  0  0
    2.4865    5.9679    0.0000 C   0  0  0  0  0  0  0  0  0  0  0  0
    0.5897    4.2078    0.0000 C   0  0  0  0  0  0  0  0  0  0  0  0
    2.0797    6.8814    0.0000 C   0  0  0  0  0  0  0  0  0  0  0  0
    2.2647    2.1200    0.0000 C   0  0  0  0  0  0  0  0  0  0  0  0
    3.1588    3.8988    0.0000 C   0  0  0  0  0  0  0  0  0  0  0  0
    2.2647    1.1200    0.0000 C   0  0  0  0  0  0  0  0  0  0  0  0
    3.1307    2.6200    0.0000 C   0  0  0  0  0  0  0  0  0  0  0  0
    3.9968    1.1200    0.0000 C   0  0  0  0  0  0  0  0  0  0  0  0
    4.8628    0.6200    0.0000 C   0  0  0  0  0  0  0  0  0  0  0  0
    0.7881    2.7277    0.0000 H   0  0  0  0  0  0  0  0  0  0  0  0
    1.1866    2.0374    0.0000 H   0  0  0  0  0  0  0  0  0  0  0  0
    2.9172    5.5219    0.0000 H   0  0  0  0  0  0  0  0  0  0  0  0
    3.0005    6.3146    0.0000 H   0  0  0  0  0  0  0  0  0  0  0  0
    0.0000    4.0162    0.0000 H   0  0  0  0  0  0  0  0  0  0  0  0
    1.6490    7.3274    0.0000 H   0  0  0  0  0  0  0  0  0  0  0  0
    1.5657    6.5347    0.0000 H   0  0  0  0  0  0  0  0  0  0  0  0
    2.9672    3.3091    0.0000 H   0  0  0  0  0  0  0  0  0  0  0  0
    3.7484    3.7072    0.0000 H   0  0  0  0  0  0  0  0  0  0  0  0
    3.3503    4.4884    0.0000 H   0  0  0  0  0  0  0  0  0  0  0  0
    3.1307    3.2400    0.0000 H   0  0  0  0  0  0  0  0  0  0  0  0
    1.3987    0.0000    0.0000 H   0  0  0  0  0  0  0  0  0  0  0  0
    0.8617    0.9300    0.0000 H   0  0  0  0  0  0  0  0  0  0  0  0
    4.5528    0.0831    0.0000 H   0  0  0  0  0  0  0  0  0  0  0  0
    5.3997    0.3100    0.0000 H   0  0  0  0  0  0  0  0  0  0  0  0
    5.1728    1.1569    0.0000 H   0  0  0  0  0  0  0  0  0  0  0  0
    3.6759    8.6463    0.0000 H   0  0  0  0  0  0  0  0  0  0  0  0
    2.7774   11.7019    0.0000 H   0  0  0  0  0  0  0  0  0  0  0  0
    1.0664   10.6621    0.0000 H   0  0  0  0  0  0  0  0  0  0  0  0
  2 17  1  0  0  0  0
  2 20  1  0  0  0  0
  3  5  1  0  0  0  0
  3  6  1  0  0  0  0
  3  7  1  0  0  0  0
  3  8  2  0  0  0  0
  4  6  1  0  0  0  0
  4  9  1  0  0  0  0
  4 10  1  0  0  0  0
  4 11  2  0  0  0  0
  5 21  1  0  0  0  0
  7 44  1  0  0  0  0
  9 45  1  0  0  0  0
 10 46  1  0  0  0  0
 12 16  1  0  0  0  0
 12 18  1  0  0  0  0
 12 20  2  0  0  0  0
 13 24  2  0  0  0  0
 13 26  1  0  0  0  0
 14 25  1  0  0  0  0
 14 26  2  0  0  0  0
 15 24  1  0  0  0  0
 15 39  1  0  0  0  0
 15 40  1  0  0  0  0
 16 17  2  0  0  0  0
 16 23  1  0  0  0  0
 17 19  1  0  0  0  0
 18 22  1  0  0  0  0
 18 28  1  0  0  0  0
 18 29  1  0  0  0  0
 19 21  1  0  0  0  0
 19 30  1  0  0  0  0
 19 31  1  0  0  0  0
 20 32  1  0  0  0  0
 21 33  1  0  0  0  0
 21 34  1  0  0  0  0
 22 24  1  0  0  0  0
 22 25  2  0  0  0  0
 23 35  1  0  0  0  0
 23 36  1  0  0  0  0
 23 37  1  0  0  0  0
 25 38  1  0  0  0  0
 26 27  1  0  0  0  0
 27 41  1  0  0  0  0
 27 42  1  0  0  0  0
 27 43  1  0  0  0  0
M  CHG  2   1  -1  12   1
M  END
> <PUBCHEM_COMPOUND_CID>
9068

> <PUBCHEM_COMPOUND_CANONICALIZED>
1

> <PUBCHEM_CACTVS_COMPLEXITY>
568

> <PUBCHEM_CACTVS_HBOND_ACCEPTOR>
12

> <PUBCHEM_CACTVS_HBOND_DONOR>
4

> <PUBCHEM_CACTVS_ROTATABLE_BOND>
8

> <PUBCHEM_CACTVS_SUBSKEYS>
AAADceBzuANEAAAAAAAAAAAAAAAAAWAAAAAsAAAAAAAAAAAB4AAAHgQQCCAADAjh3wavsZdMERikQxZnZICA8KlxCLgBWDQ4RBiAKIJgyUAEBAgsQAPISCKgAAAAAAAAAAAAAAAAAAAAAAAAAAAAAAAAAA==

> <PUBCHEM_IUPAC_OPENEYE_NAME>
2-[3-[(4-amino-2-methyl-pyrimidin-5-yl)methyl]-4-methyl-thiazol-3-ium-5-yl]ethyl phosphono hydrogen phosphate chloride

> <PUBCHEM_IUPAC_CAS_NAME>
2-[3-[(4-amino-2-methyl-5-pyrimidinyl)methyl]-4-methyl-5-thiazol-3-iumyl]ethyl phosphono hydrogen phosphate chloride

> <PUBCHEM_IUPAC_NAME>
2-[3-[(4-amino-2-methylpyrimidin-5-yl)methyl]-4-methyl-1,3-thiazol-3-ium-5-yl]ethyl phosphono hydrogen phosphate chloride

> <PUBCHEM_IUPAC_SYSTEMATIC_NAME>
2-[3-[(4-azanyl-2-methyl-pyrimidin-5-yl)methyl]-4-methyl-1,3-thiazol-3-ium-5-yl]ethyl phosphono hydrogen phosphate chloride

> <PUBCHEM_IUPAC_TRADITIONAL_NAME>
2-[3-[(4-amino-2-methyl-pyrimidin-5-yl)methyl]-4-methyl-thiazol-3-ium-5-yl]ethyl phosphono hydrogen phosphate chloride

> <PUBCHEM_IUPAC_INCHI>
InChI=1S/C12H18N4O7P2S.ClH/c1-8-11(3-4-22-25(20,21)23-24(17,18)19)26-7-16(8)6-10-5-14-9(2)15-12(10)13;/h5,7H,3-4,6H2,1-2H3,(H4-,13,14,15,17,18,19,20,21);1H

> <PUBCHEM_IUPAC_INCHIKEY>
YXVCLPJQTZXJLH-UHFFFAOYSA-N

> <PUBCHEM_EXACT_MASS>
460.013821

> <PUBCHEM_MOLECULAR_FORMULA>
C12H19ClN4O7P2S

> <PUBCHEM_MOLECULAR_WEIGHT>
460.767384

> <PUBCHEM_OPENEYE_CAN_SMILES>
CC1=C(SC=[N+]1CC2=CN=C(N=C2N)C)CCOP(=O)(O)OP(=O)(O)O.[Cl-]

> <PUBCHEM_OPENEYE_ISO_SMILES>
CC1=C(SC=[N+]1CC2=CN=C(N=C2N)C)CCOP(=O)(O)OP(=O)(O)O.[Cl-]

> <PUBCHEM_CACTVS_TPSA>
197

> <PUBCHEM_MONOISOTOPIC_WEIGHT>
460.013821

> <PUBCHEM_TOTAL_CHARGE>
0

> <PUBCHEM_HEAVY_ATOM_COUNT>
27

> <PUBCHEM_ATOM_DEF_STEREO_COUNT>
0

> <PUBCHEM_ATOM_UDEF_STEREO_COUNT>
0

> <PUBCHEM_BOND_DEF_STEREO_COUNT>
0

> <PUBCHEM_BOND_UDEF_STEREO_COUNT>
0

> <PUBCHEM_ISOTOPIC_ATOM_COUNT>
0

> <PUBCHEM_COMPONENT_COUNT>
2

> <PUBCHEM_CACTVS_TAUTO_COUNT>
3

> <PUBCHEM_COORDINATE_TYPE>
1
5
255

> <PUBCHEM_BONDANNOTATIONS>
12  16  8
12  20  8
13  24  8
13  26  8
14  25  8
14  26  8
16  17  8
2  17  8
2  20  8
22  24  8
22  25  8

$$$$

