75551
  -OEChem-07051212483D

 12 11  0     0  0  0  0  0  0999 V2000
   -1.4674    0.6292   -0.2815 S   0  0  0  0  0  0  0  0  0  0  0  0
    2.0922   -0.9290   -0.1976 O   0  0  0  0  0  0  0  0  0  0  0  0
    1.3963    1.2102    0.1258 O   0  0  0  0  0  0  0  0  0  0  0  0
   -0.2213   -0.5729    0.2405 C   0  0  0  0  0  0  0  0  0  0  0  0
    1.1481    0.0136    0.0513 C   0  0  0  0  0  0  0  0  0  0  0  0
   -2.9479   -0.3510    0.0614 C   0  0  0  0  0  0  0  0  0  0  0  0
   -0.3183   -1.4688   -0.3799 H   0  0  0  0  0  0  0  0  0  0  0  0
   -0.3490   -0.8315    1.2952 H   0  0  0  0  0  0  0  0  0  0  0  0
   -2.9460   -1.2660   -0.5366 H   0  0  0  0  0  0  0  0  0  0  0  0
   -3.8347    0.2326   -0.1992 H   0  0  0  0  0  0  0  0  0  0  0  0
   -2.9988   -0.6049    1.1234 H   0  0  0  0  0  0  0  0  0  0  0  0
    2.9827   -0.5337   -0.3123 H   0  0  0  0  0  0  0  0  0  0  0  0
  1  4  1  0  0  0  0
  1  6  1  0  0  0  0
  2  5  1  0  0  0  0
  2 12  1  0  0  0  0
  3  5  2  0  0  0  0
  4  5  1  0  0  0  0
  4  7  1  0  0  0  0
  4  8  1  0  0  0  0
  6  9  1  0  0  0  0
  6 10  1  0  0  0  0
  6 11  1  0  0  0  0
M  END
> <PUBCHEM_COMPOUND_CID>
75551

> <PUBCHEM_CONFORMER_RMSD>
0.4

> <PUBCHEM_CONFORMER_DIVERSEORDER>
1
7
2
8
3
6
5
4

> <PUBCHEM_MMFF94_PARTIAL_CHARGES>
7
1 -0.46
12 0.5
2 -0.65
3 -0.57
4 0.29
5 0.66
6 0.23

> <PUBCHEM_EFFECTIVE_ROTOR_COUNT>
2

> <PUBCHEM_PHARMACOPHORE_FEATURES>
4
1 2 acceptor
1 3 acceptor
1 6 hydrophobe
3 2 3 5 anion

> <PUBCHEM_HEAVY_ATOM_COUNT>
6

> <PUBCHEM_ATOM_DEF_STEREO_COUNT>
0

> <PUBCHEM_ATOM_UDEF_STEREO_COUNT>
0

> <PUBCHEM_BOND_DEF_STEREO_COUNT>
0

> <PUBCHEM_BOND_UDEF_STEREO_COUNT>
0

> <PUBCHEM_ISOTOPIC_ATOM_COUNT>
0

> <PUBCHEM_COMPONENT_COUNT>
1

> <PUBCHEM_CACTVS_TAUTO_COUNT>
1

> <PUBCHEM_CONFORMER_ID>
0001271F00000001

> <PUBCHEM_MMFF94_ENERGY>
7.0387

> <PUBCHEM_FEATURE_SELFOVERLAP>
20.355

> <PUBCHEM_SHAPE_FINGERPRINT>
139733 1 10015282642603547724
16714656 1 18201717362389304583
20096714 4 18411704270246406673
21040471 1 18268993089857668848
24536 1 18335999630683539433
29004967 10 18114464564636421410
5460574 1 8790885185588812775

> <PUBCHEM_SHAPE_MULTIPOLES>
115.59
3.6
1.06
0.63
1.64
0.15
0.01
-0.51
0.09
-0.29
0
0.07
0
0.17

> <PUBCHEM_SHAPE_SELFOVERLAP>
194.098

> <PUBCHEM_SHAPE_VOLUME>
79.7

> <PUBCHEM_COORDINATE_TYPE>
2
5
10

$$$$

