46174018
  -OEChem-07051213113D

 53 54  0     1  0  0  0  0  0999 V2000
   -0.5533    0.5093    0.5893 O   0  0  0  0  0  0  0  0  0  0  0  0
   -2.2611    0.2443   -1.0180 O   0  0  0  0  0  0  0  0  0  0  0  0
    1.3567    2.0840   -0.8733 O   0  0  0  0  0  0  0  0  0  0  0  0
    2.7603   -2.8846    1.2569 O   0  0  0  0  0  0  0  0  0  0  0  0
    4.6675   -1.3095   -0.2035 O   0  0  0  0  0  0  0  0  0  0  0  0
    4.1202    1.5087   -0.2795 N   0  0  0  0  0  0  0  0  0  0  0  0
    0.0027   -2.3270    0.6490 N   0  0  0  0  0  0  0  0  0  0  0  0
   -1.2526    3.2637    0.9112 N   0  0  0  0  0  0  0  0  0  0  0  0
   -3.2465   -2.3125   -1.5666 N   0  0  0  0  0  0  0  0  0  0  0  0
    0.6308   -0.0366    0.0008 C   0  0  2  0  0  0  0  0  0  0  0  0
    1.0279   -1.2846    0.8017 C   0  0  2  0  0  0  0  0  0  0  0  0
    1.7266    1.0344    0.0257 C   0  0  1  0  0  0  0  0  0  0  0  0
    3.0819    0.4780   -0.4246 C   0  0  2  0  0  0  0  0  0  0  0  0
    2.3885   -1.8377    0.3553 C   0  0  1  0  0  0  0  0  0  0  0  0
    3.4811   -0.7631    0.3807 C   0  0  1  0  0  0  0  0  0  0  0  0
   -1.3572    1.1565   -0.3828 C   0  0  1  0  0  0  0  0  0  0  0  0
   -2.1428    2.3177    0.2439 C   0  0  1  0  0  0  0  0  0  0  0  0
   -3.2161   -0.3326   -0.1199 C   0  0  1  0  0  0  0  0  0  0  0  0
   -3.1932    1.7934    1.2264 C   0  0  0  0  0  0  0  0  0  0  0  0
   -4.0716    0.7534    0.5356 C   0  0  0  0  0  0  0  0  0  0  0  0
   -4.0798   -1.2969   -0.9222 C   0  0  2  0  0  0  0  0  0  0  0  0
    5.2434    1.2238   -1.1541 C   0  0  0  0  0  0  0  0  0  0  0  0
   -5.1135   -1.9820   -0.0321 C   0  0  0  0  0  0  0  0  0  0  0  0
    0.4266   -0.3374   -1.0380 H   0  0  0  0  0  0  0  0  0  0  0  0
    1.0624   -1.0363    1.8710 H   0  0  0  0  0  0  0  0  0  0  0  0
    1.7912    1.4788    1.0267 H   0  0  0  0  0  0  0  0  0  0  0  0
    2.9915    0.2144   -1.4885 H   0  0  0  0  0  0  0  0  0  0  0  0
    2.3223   -2.2862   -0.6438 H   0  0  0  0  0  0  0  0  0  0  0  0
    3.7277   -0.4994    1.4167 H   0  0  0  0  0  0  0  0  0  0  0  0
   -0.7713    1.5734   -1.2032 H   0  0  0  0  0  0  0  0  0  0  0  0
   -2.6742    2.8455   -0.5592 H   0  0  0  0  0  0  0  0  0  0  0  0
   -2.6798   -0.8863    0.6600 H   0  0  0  0  0  0  0  0  0  0  0  0
   -2.7105    1.3391    2.1016 H   0  0  0  0  0  0  0  0  0  0  0  0
   -3.8186    2.6148    1.5964 H   0  0  0  0  0  0  0  0  0  0  0  0
   -4.6763    1.2615   -0.2264 H   0  0  0  0  0  0  0  0  0  0  0  0
   -4.7567    0.3345    1.2792 H   0  0  0  0  0  0  0  0  0  0  0  0
    3.7225    2.4074   -0.5557 H   0  0  0  0  0  0  0  0  0  0  0  0
   -0.8731   -2.0006    1.0528 H   0  0  0  0  0  0  0  0  0  0  0  0
    0.2744   -3.1505    1.1850 H   0  0  0  0  0  0  0  0  0  0  0  0
   -4.5983   -0.7523   -1.7212 H   0  0  0  0  0  0  0  0  0  0  0  0
    1.3858    1.7309   -1.7791 H   0  0  0  0  0  0  0  0  0  0  0  0
    2.8291   -2.5036    2.1489 H   0  0  0  0  0  0  0  0  0  0  0  0
    4.4562   -1.5862   -1.1116 H   0  0  0  0  0  0  0  0  0  0  0  0
   -1.7911    4.0550    1.2611 H   0  0  0  0  0  0  0  0  0  0  0  0
   -0.5867    3.6413    0.2385 H   0  0  0  0  0  0  0  0  0  0  0  0
    4.9488    0.8918   -2.1552 H   0  0  0  0  0  0  0  0  0  0  0  0
    5.8144    2.1497   -1.2914 H   0  0  0  0  0  0  0  0  0  0  0  0
    5.9518    0.5181   -0.7145 H   0  0  0  0  0  0  0  0  0  0  0  0
   -5.8792   -1.2809    0.3138 H   0  0  0  0  0  0  0  0  0  0  0  0
   -5.6441   -2.7666   -0.5847 H   0  0  0  0  0  0  0  0  0  0  0  0
   -4.6489   -2.4493    0.8433 H   0  0  0  0  0  0  0  0  0  0  0  0
   -3.8248   -2.9096   -2.1564 H   0  0  0  0  0  0  0  0  0  0  0  0
   -2.5736   -1.8607   -2.1847 H   0  0  0  0  0  0  0  0  0  0  0  0
  1 10  1  0  0  0  0
  1 16  1  0  0  0  0
  2 16  1  0  0  0  0
  2 18  1  0  0  0  0
  3 12  1  0  0  0  0
  3 41  1  0  0  0  0
  4 14  1  0  0  0  0
  4 42  1  0  0  0  0
  5 15  1  0  0  0  0
  5 43  1  0  0  0  0
  6 13  1  0  0  0  0
  6 22  1  0  0  0  0
  6 37  1  0  0  0  0
  7 11  1  0  0  0  0
  7 38  1  0  0  0  0
  7 39  1  0  0  0  0
  8 17  1  0  0  0  0
  8 44  1  0  0  0  0
  8 45  1  0  0  0  0
  9 21  1  0  0  0  0
  9 52  1  0  0  0  0
  9 53  1  0  0  0  0
 10 11  1  0  0  0  0
 10 12  1  0  0  0  0
 10 24  1  0  0  0  0
 11 14  1  0  0  0  0
 11 25  1  0  0  0  0
 12 13  1  0  0  0  0
 12 26  1  0  0  0  0
 13 15  1  0  0  0  0
 13 27  1  0  0  0  0
 14 15  1  0  0  0  0
 14 28  1  0  0  0  0
 15 29  1  0  0  0  0
 16 17  1  0  0  0  0
 16 30  1  0  0  0  0
 17 19  1  0  0  0  0
 17 31  1  0  0  0  0
 18 20  1  0  0  0  0
 18 21  1  0  0  0  0
 18 32  1  0  0  0  0
 19 20  1  0  0  0  0
 19 33  1  0  0  0  0
 19 34  1  0  0  0  0
 20 35  1  0  0  0  0
 20 36  1  0  0  0  0
 21 23  1  0  0  0  0
 21 40  1  0  0  0  0
 22 46  1  0  0  0  0
 22 47  1  0  0  0  0
 22 48  1  0  0  0  0
 23 49  1  0  0  0  0
 23 50  1  0  0  0  0
 23 51  1  0  0  0  0
M  END
> <PUBCHEM_COMPOUND_CID>
46174018

> <PUBCHEM_CONFORMER_RMSD>
0.8

> <PUBCHEM_CONFORMER_DIVERSEORDER>
1
5
10
6
8
9
11
3
4
7
2

> <PUBCHEM_MMFF94_PARTIAL_CHARGES>
30
1 -0.56
10 0.28
11 0.27
12 0.28
13 0.27
14 0.28
15 0.28
16 0.56
17 0.27
18 0.28
2 -0.56
21 0.27
22 0.27
3 -0.68
37 0.36
38 0.36
39 0.36
4 -0.68
41 0.4
42 0.4
43 0.4
44 0.36
45 0.36
5 -0.68
52 0.36
53 0.36
6 -0.9
7 -0.99
8 -0.99
9 -0.99

> <PUBCHEM_EFFECTIVE_ROTOR_COUNT>
6.4

> <PUBCHEM_PHARMACOPHORE_FEATURES>
18
1 1 acceptor
1 2 acceptor
1 3 acceptor
1 3 donor
1 4 acceptor
1 4 donor
1 5 acceptor
1 5 donor
1 6 cation
1 6 donor
1 7 cation
1 7 donor
1 8 cation
1 8 donor
1 9 cation
1 9 donor
6 10 11 12 13 14 15 rings
6 2 16 17 18 19 20 rings

> <PUBCHEM_HEAVY_ATOM_COUNT>
23

> <PUBCHEM_ATOM_DEF_STEREO_COUNT>
10

> <PUBCHEM_ATOM_UDEF_STEREO_COUNT>
0

> <PUBCHEM_BOND_DEF_STEREO_COUNT>
0

> <PUBCHEM_BOND_UDEF_STEREO_COUNT>
0

> <PUBCHEM_ISOTOPIC_ATOM_COUNT>
0

> <PUBCHEM_COMPONENT_COUNT>
1

> <PUBCHEM_CACTVS_TAUTO_COUNT>
1

> <PUBCHEM_CONFORMER_ID>
02C08F4200000001

> <PUBCHEM_MMFF94_ENERGY>
45.6253

> <PUBCHEM_FEATURE_SELFOVERLAP>
91.393

> <PUBCHEM_SHAPE_FINGERPRINT>
10090160 65 17988925531207027482
10616163 171 18335140942293975391
11135609 187 18057321682631814828
11578080 2 18193025735773196129
11806522 49 18413109441906650252
12236239 1 18409443700526357845
12553582 1 18188503358896252735
12596599 1 18190455158900820166
12788726 201 18260824895579718563
13167823 11 18408884057396944230
13224815 77 18272091608087642025
14178342 30 18050304835640612298
14289901 80 18339644554600162504
14576447 43 18339083691900568038
14767858 380 18197492935620428388
14787075 74 18266178331553758604
15099037 8 18339369664040359931
15196674 1 18412825793555090486
15375462 189 18264209119772462735
15537594 2 18337377284646469273
17349148 13 18060144249554988538
17492 89 18337954605276516103
19377110 9 18411705382959363706
19422 9 18335703879040228135
200 152 18341333310256008117
20281475 54 18338804519057976450
20291156 8 18336271163174761887
21054139 6 18341050710177168726
21634736 98 18410862027328687111
21673915 165 18410855447248534670
22393880 68 18340486772244093508
23402539 116 18410011009576341676
23557571 272 17676475134188151149
23559900 14 17679861784910648462
23566358 27 18194673993786204102
23598288 3 18187932823914548885
23598291 2 18338801237681947799
238078 22 18262236625644642319
25147074 1 18342459270635310362
2871803 45 18342185440357514711
312423 11 18411418453179390866
34934 24 18411416254725906105
4409770 3 15023046418032330421
474 4 18131059420957929132
5104073 3 18408042930938314920
53777708 50 18266740362452438690
633830 44 17274817021133152456
7097593 13 17978795936496437347
90525 40 18116440425949997927

> <PUBCHEM_SHAPE_MULTIPOLES>
424.06
9.98
3.16
1.11
1.89
0.03
-0.09
-2.13
-2.01
-0.86
0.6
-0.24
-0.15
-2.27

> <PUBCHEM_SHAPE_SELFOVERLAP>
857.41

> <PUBCHEM_SHAPE_VOLUME>
245.3

> <PUBCHEM_COORDINATE_TYPE>
2
5
10

$$$$

