17396512
  -OEChem-06241222572D

 45 47  0     1  0  0  0  0  0999 V2000
    4.9889   -0.0348    0.0000 O   0  0  0  0  0  0  0  0  0  0  0  0
    4.9889    3.4757    0.0000 O   0  0  0  0  0  0  0  0  0  0  0  0
    6.2619   -0.0116    0.0000 O   0  0  0  0  0  0  0  0  0  0  0  0
    5.2619    1.7204    0.0000 N   0  0  0  0  0  0  0  0  0  0  0  0
    7.7619    0.8544    0.0000 N   0  0  0  0  0  0  0  0  0  0  0  0
    3.7320    2.2204    0.0000 C   0  0  3  0  0  0  0  0  0  0  0  0
    3.7320    1.2204    0.0000 C   0  0  3  0  0  0  0  0  0  0  0  0
    2.8660    2.7204    0.0000 C   0  0  0  0  0  0  0  0  0  0  0  0
    2.8660    0.7204    0.0000 C   0  0  0  0  0  0  0  0  0  0  0  0
    2.0000    1.2204    0.0000 C   0  0  0  0  0  0  0  0  0  0  0  0
    2.0000    2.2204    0.0000 C   0  0  0  0  0  0  0  0  0  0  0  0
    4.6783    0.9157    0.0000 C   0  0  0  0  0  0  0  0  0  0  0  0
    4.6783    2.5252    0.0000 C   0  0  0  0  0  0  0  0  0  0  0  0
    6.2619    1.7204    0.0000 C   0  0  0  0  0  0  0  0  0  0  0  0
    6.7619    0.8544    0.0000 C   0  0  0  0  0  0  0  0  0  0  0  0
    8.2619   -0.0116    0.0000 C   0  0  0  0  0  0  0  0  0  0  0  0
    7.7619   -0.8776    0.0000 C   0  0  0  0  0  0  0  0  0  0  0  0
    8.2619   -1.7436    0.0000 C   0  0  0  0  0  0  0  0  0  0  0  0
    9.2619   -0.0116    0.0000 C   0  0  0  0  0  0  0  0  0  0  0  0
    7.7619   -2.6097    0.0000 C   0  0  0  0  0  0  0  0  0  0  0  0
    9.2619   -1.7436    0.0000 C   0  0  0  0  0  0  0  0  0  0  0  0
    9.7619   -0.8776    0.0000 C   0  0  0  0  0  0  0  0  0  0  0  0
    8.2619   -3.4757    0.0000 C   0  0  0  0  0  0  0  0  0  0  0  0
    3.7977    2.8370    0.0000 H   0  0  0  0  0  0  0  0  0  0  0  0
    3.7977    0.6039    0.0000 H   0  0  0  0  0  0  0  0  0  0  0  0
    3.2646    3.1954    0.0000 H   0  0  0  0  0  0  0  0  0  0  0  0
    2.4675    3.1954    0.0000 H   0  0  0  0  0  0  0  0  0  0  0  0
    2.4675    0.2455    0.0000 H   0  0  0  0  0  0  0  0  0  0  0  0
    3.2646    0.2455    0.0000 H   0  0  0  0  0  0  0  0  0  0  0  0
    1.7880    2.8031    0.0000 H   0  0  0  0  0  0  0  0  0  0  0  0
    1.3894    2.1128    0.0000 H   0  0  0  0  0  0  0  0  0  0  0  0
    1.3894    1.3281    0.0000 H   0  0  0  0  0  0  0  0  0  0  0  0
    1.7880    0.6378    0.0000 H   0  0  0  0  0  0  0  0  0  0  0  0
    6.8445    1.9325    0.0000 H   0  0  0  0  0  0  0  0  0  0  0  0
    6.1542    2.3310    0.0000 H   0  0  0  0  0  0  0  0  0  0  0  0
    8.0719    1.3914    0.0000 H   0  0  0  0  0  0  0  0  0  0  0  0
    7.1419   -0.8776    0.0000 H   0  0  0  0  0  0  0  0  0  0  0  0
    9.5719    0.5253    0.0000 H   0  0  0  0  0  0  0  0  0  0  0  0
    7.2869   -2.2112    0.0000 H   0  0  0  0  0  0  0  0  0  0  0  0
    7.2869   -3.0082    0.0000 H   0  0  0  0  0  0  0  0  0  0  0  0
    9.5719   -2.2806    0.0000 H   0  0  0  0  0  0  0  0  0  0  0  0
   10.3819   -0.8776    0.0000 H   0  0  0  0  0  0  0  0  0  0  0  0
    7.7249   -3.7857    0.0000 H   0  0  0  0  0  0  0  0  0  0  0  0
    8.5719   -4.0126    0.0000 H   0  0  0  0  0  0  0  0  0  0  0  0
    8.7988   -3.1657    0.0000 H   0  0  0  0  0  0  0  0  0  0  0  0
  1 12  2  0  0  0  0
  2 13  2  0  0  0  0
  3 15  2  0  0  0  0
  4 12  1  0  0  0  0
  4 13  1  0  0  0  0
  4 14  1  0  0  0  0
  5 15  1  0  0  0  0
  5 16  1  0  0  0  0
  5 36  1  0  0  0  0
  6  7  1  0  0  0  0
  6  8  1  0  0  0  0
  6 13  1  0  0  0  0
  6 24  1  0  0  0  0
  7  9  1  0  0  0  0
  7 12  1  0  0  0  0
  7 25  1  0  0  0  0
  8 11  1  0  0  0  0
  8 26  1  0  0  0  0
  8 27  1  0  0  0  0
  9 10  1  0  0  0  0
  9 28  1  0  0  0  0
  9 29  1  0  0  0  0
 10 11  1  0  0  0  0
 10 32  1  0  0  0  0
 10 33  1  0  0  0  0
 11 30  1  0  0  0  0
 11 31  1  0  0  0  0
 14 15  1  0  0  0  0
 14 34  1  0  0  0  0
 14 35  1  0  0  0  0
 16 17  1  0  0  0  0
 16 19  2  0  0  0  0
 17 18  2  0  0  0  0
 17 37  1  0  0  0  0
 18 20  1  0  0  0  0
 18 21  1  0  0  0  0
 19 22  1  0  0  0  0
 19 38  1  0  0  0  0
 20 23  1  0  0  0  0
 20 39  1  0  0  0  0
 20 40  1  0  0  0  0
 21 22  2  0  0  0  0
 21 41  1  0  0  0  0
 22 42  1  0  0  0  0
 23 43  1  0  0  0  0
 23 44  1  0  0  0  0
 23 45  1  0  0  0  0
M  END
> <PUBCHEM_COMPOUND_CID>
17396512

> <PUBCHEM_COMPOUND_CANONICALIZED>
1

> <PUBCHEM_CACTVS_COMPLEXITY>
467

> <PUBCHEM_CACTVS_HBOND_ACCEPTOR>
3

> <PUBCHEM_CACTVS_HBOND_DONOR>
1

> <PUBCHEM_CACTVS_ROTATABLE_BOND>
4

> <PUBCHEM_CACTVS_SUBSKEYS>
AAADceB7MAAAAAAAAAAAAAAAAAAAAWAAAAAwYAAAAAAAAFgBAAAAHgAQAAAADQjBmAQywIPAAACIAiVSUACCAAAhAgAIiAGIZIgIYDLAkbGUIAhgliDIyAcdiICOgAAAQAAAAAAAAACAACAAAAAAAAAAAA==

> <PUBCHEM_IUPAC_OPENEYE_NAME>
2-(1,3-dioxo-3a,4,5,6,7,7a-hexahydroisoindol-2-yl)-N-(3-ethylphenyl)acetamide

> <PUBCHEM_IUPAC_CAS_NAME>
2-(1,3-dioxo-3a,4,5,6,7,7a-hexahydroisoindol-2-yl)-N-(3-ethylphenyl)acetamide

> <PUBCHEM_IUPAC_NAME>
2-(1,3-dioxo-3a,4,5,6,7,7a-hexahydroisoindol-2-yl)-N-(3-ethylphenyl)acetamide

> <PUBCHEM_IUPAC_SYSTEMATIC_NAME>
2-[1,3-bis(oxidanylidene)-3a,4,5,6,7,7a-hexahydroisoindol-2-yl]-N-(3-ethylphenyl)ethanamide

> <PUBCHEM_IUPAC_TRADITIONAL_NAME>
2-(1,3-diketo-3a,4,5,6,7,7a-hexahydroisoindol-2-yl)-N-(3-ethylphenyl)acetamide

> <PUBCHEM_IUPAC_INCHI>
InChI=1S/C18H22N2O3/c1-2-12-6-5-7-13(10-12)19-16(21)11-20-17(22)14-8-3-4-9-15(14)18(20)23/h5-7,10,14-15H,2-4,8-9,11H2,1H3,(H,19,21)

> <PUBCHEM_IUPAC_INCHIKEY>
MUDZBADMEFEEOJ-UHFFFAOYSA-N

> <PUBCHEM_XLOGP3_AA>
2.5

> <PUBCHEM_EXACT_MASS>
314.163043

> <PUBCHEM_MOLECULAR_FORMULA>
C18H22N2O3

> <PUBCHEM_MOLECULAR_WEIGHT>
314.37888

> <PUBCHEM_OPENEYE_CAN_SMILES>
CCC1=CC(=CC=C1)NC(=O)CN2C(=O)C3CCCCC3C2=O

> <PUBCHEM_OPENEYE_ISO_SMILES>
CCC1=CC(=CC=C1)NC(=O)CN2C(=O)C3CCCCC3C2=O

> <PUBCHEM_CACTVS_TPSA>
66.5

> <PUBCHEM_MONOISOTOPIC_WEIGHT>
314.163043

> <PUBCHEM_TOTAL_CHARGE>
0

> <PUBCHEM_HEAVY_ATOM_COUNT>
23

> <PUBCHEM_ATOM_DEF_STEREO_COUNT>
0

> <PUBCHEM_ATOM_UDEF_STEREO_COUNT>
2

> <PUBCHEM_BOND_DEF_STEREO_COUNT>
0

> <PUBCHEM_BOND_UDEF_STEREO_COUNT>
0

> <PUBCHEM_ISOTOPIC_ATOM_COUNT>
0

> <PUBCHEM_COMPONENT_COUNT>
1

> <PUBCHEM_CACTVS_TAUTO_COUNT>
9

> <PUBCHEM_COORDINATE_TYPE>
1
5
255

> <PUBCHEM_BONDANNOTATIONS>
16  17  8
16  19  8
17  18  8
18  21  8
19  22  8
21  22  8
6  8  3
7  9  3

$$$$

