441747
  -OEChem-07051212552D

 90 96  0     1  0  0  0  0  0999 V2000
    5.0128   -0.9129    0.0000 O   0  0  0  0  0  0  0  0  0  0  0  0
    6.5304   -2.0818    0.0000 O   0  0  0  0  0  0  0  0  0  0  0  0
    8.3531    1.6800    0.0000 O   0  0  0  0  0  0  0  0  0  0  0  0
    4.6366    1.4285    0.0000 O   0  0  0  0  0  0  0  0  0  0  0  0
    6.2278    2.9919    0.0000 O   0  0  0  0  0  0  0  0  0  0  0  0
    4.2238   -0.4717    0.0000 O   0  0  0  0  0  0  0  0  0  0  0  0
    4.2354    2.1380    0.0000 O   0  0  0  0  0  0  0  0  0  0  0  0
   10.1039   -0.5901    0.0000 O   0  0  0  0  0  0  0  0  0  0  0  0
    9.2191   -2.5551    0.0000 O   0  0  0  0  0  0  0  0  0  0  0  0
    5.2090   -2.6339    0.0000 O   0  0  0  0  0  0  0  0  0  0  0  0
    3.4088    0.2068    0.0000 O   0  0  0  0  0  0  0  0  0  0  0  0
    9.5484   -0.1490    0.0000 N   0  0  3  0  0  0  0  0  0  0  0  0
    7.6017    0.2462    0.0000 C   0  0  1  0  0  0  0  0  0  0  0  0
    7.6017   -0.6213    0.0000 C   0  0  2  0  0  0  0  0  0  0  0  0
    6.9234    0.7872    0.0000 C   0  0  1  0  0  0  0  0  0  0  0  0
    8.6037    0.1402    0.0000 C   0  0  3  0  0  0  0  0  0  0  0  0
    6.0776   -0.9692    0.0000 C   0  0  1  0  0  0  0  0  0  0  0  0
    6.0776    0.5941    0.0000 C   0  0  1  0  0  0  0  0  0  0  0  0
    5.7012   -0.1876    0.0000 C   0  0  1  0  0  0  0  0  0  0  0  0
    6.9234   -1.1623    0.0000 C   0  0  2  0  0  0  0  0  0  0  0  0
    8.3531   -1.0551    0.0000 C   0  0  2  0  0  0  0  0  0  0  0  0
    8.3531    0.6800    0.0000 C   0  0  2  0  0  0  0  0  0  0  0  0
    7.0012    1.6512    0.0000 C   0  0  0  0  0  0  0  0  0  0  0  0
    6.2034    1.9922    0.0000 C   0  0  2  0  0  0  0  0  0  0  0  0
    5.6326    1.3389    0.0000 C   0  0  2  0  0  0  0  0  0  0  0  0
    5.0563    0.0824    0.0000 C   0  0  2  0  0  0  0  0  0  0  0  0
    9.5484   -0.9009    0.0000 C   0  0  0  0  0  0  0  0  0  0  0  0
    9.1044   -0.6213    0.0000 C   0  0  1  0  0  0  0  0  0  0  0  0
    5.0563    1.5669    0.0000 C   0  0  2  0  0  0  0  0  0  0  0  0
    9.1044    0.2462    0.0000 C   0  0  0  0  0  0  0  0  0  0  0  0
    8.3530   -2.0551    0.0000 C   0  0  0  0  0  0  0  0  0  0  0  0
   10.3524    0.4457    0.0000 C   0  0  0  0  0  0  0  0  0  0  0  0
    4.6140   -1.8300    0.0000 C   0  0  0  0  0  0  0  0  0  0  0  0
    7.1302   -2.8819    0.0000 C   0  0  0  0  0  0  0  0  0  0  0  0
    9.2191    2.1800    0.0000 C   0  0  0  0  0  0  0  0  0  0  0  0
    3.6701    1.1721    0.0000 C   0  0  0  0  0  0  0  0  0  0  0  0
    4.3196    3.1344    0.0000 C   0  0  0  0  0  0  0  0  0  0  0  0
    3.6205   -1.9432    0.0000 C   0  0  0  0  0  0  0  0  0  0  0  0
    9.2191   -3.5551    0.0000 C   0  0  0  0  0  0  0  0  0  0  0  0
    2.9647    1.8810    0.0000 C   0  0  0  0  0  0  0  0  0  0  0  0
    1.9982    1.6246    0.0000 C   0  0  0  0  0  0  0  0  0  0  0  0
    3.2260    2.8462    0.0000 C   0  0  0  0  0  0  0  0  0  0  0  0
    1.2928    2.3334    0.0000 C   0  0  0  0  0  0  0  0  0  0  0  0
    2.5206    3.5551    0.0000 C   0  0  0  0  0  0  0  0  0  0  0  0
    1.5540    3.2987    0.0000 C   0  0  0  0  0  0  0  0  0  0  0  0
    7.6652   -1.4690    0.0000 H   0  0  0  0  0  0  0  0  0  0  0  0
    7.7050    1.1212    0.0000 H   0  0  0  0  0  0  0  0  0  0  0  0
    8.7276    0.7477    0.0000 H   0  0  0  0  0  0  0  0  0  0  0  0
    5.5476   -1.6338    0.0000 H   0  0  0  0  0  0  0  0  0  0  0  0
    5.2284    0.5560    0.0000 H   0  0  0  0  0  0  0  0  0  0  0  0
    7.1238   -1.7490    0.0000 H   0  0  0  0  0  0  0  0  0  0  0  0
    7.8161    0.9900    0.0000 H   0  0  0  0  0  0  0  0  0  0  0  0
    7.1839    2.2437    0.0000 H   0  0  0  0  0  0  0  0  0  0  0  0
    7.6095    1.5314    0.0000 H   0  0  0  0  0  0  0  0  0  0  0  0
    5.4018    1.9143    0.0000 H   0  0  0  0  0  0  0  0  0  0  0  0
    4.5097    0.3751    0.0000 H   0  0  0  0  0  0  0  0  0  0  0  0
   10.1678   -0.8744    0.0000 H   0  0  0  0  0  0  0  0  0  0  0  0
    9.6014   -1.5186    0.0000 H   0  0  0  0  0  0  0  0  0  0  0  0
    9.2742   -1.2176    0.0000 H   0  0  0  0  0  0  0  0  0  0  0  0
    5.1344    2.1819    0.0000 H   0  0  0  0  0  0  0  0  0  0  0  0
    9.3164    0.8288    0.0000 H   0  0  0  0  0  0  0  0  0  0  0  0
    9.7150    0.1386    0.0000 H   0  0  0  0  0  0  0  0  0  0  0  0
    8.1410   -2.6377    0.0000 H   0  0  0  0  0  0  0  0  0  0  0  0
    7.7425   -1.9475    0.0000 H   0  0  0  0  0  0  0  0  0  0  0  0
    9.9837    0.9441    0.0000 H   0  0  0  0  0  0  0  0  0  0  0  0
   10.8508    0.8144    0.0000 H   0  0  0  0  0  0  0  0  0  0  0  0
   10.7211   -0.0528    0.0000 H   0  0  0  0  0  0  0  0  0  0  0  0
    5.6986    3.3150    0.0000 H   0  0  0  0  0  0  0  0  0  0  0  0
    4.2632   -1.0904    0.0000 H   0  0  0  0  0  0  0  0  0  0  0  0
   10.4305   -1.1171    0.0000 H   0  0  0  0  0  0  0  0  0  0  0  0
    7.6263   -2.5100    0.0000 H   0  0  0  0  0  0  0  0  0  0  0  0
    7.5021   -3.3780    0.0000 H   0  0  0  0  0  0  0  0  0  0  0  0
    6.6341   -3.2538    0.0000 H   0  0  0  0  0  0  0  0  0  0  0  0
    8.9091    2.7170    0.0000 H   0  0  0  0  0  0  0  0  0  0  0  0
    9.7560    2.4900    0.0000 H   0  0  0  0  0  0  0  0  0  0  0  0
    9.5291    1.6431    0.0000 H   0  0  0  0  0  0  0  0  0  0  0  0
    3.7018    3.1866    0.0000 H   0  0  0  0  0  0  0  0  0  0  0  0
    4.3717    3.7522    0.0000 H   0  0  0  0  0  0  0  0  0  0  0  0
    4.9374    3.0823    0.0000 H   0  0  0  0  0  0  0  0  0  0  0  0
    3.6908   -2.5593    0.0000 H   0  0  0  0  0  0  0  0  0  0  0  0
    3.0045   -2.0135    0.0000 H   0  0  0  0  0  0  0  0  0  0  0  0
    3.5503   -1.3272    0.0000 H   0  0  0  0  0  0  0  0  0  0  0  0
    9.8391   -3.5551    0.0000 H   0  0  0  0  0  0  0  0  0  0  0  0
    9.2191   -4.1751    0.0000 H   0  0  0  0  0  0  0  0  0  0  0  0
    8.5991   -3.5551    0.0000 H   0  0  0  0  0  0  0  0  0  0  0  0
    1.8362    1.0261    0.0000 H   0  0  0  0  0  0  0  0  0  0  0  0
    3.8252    3.0052    0.0000 H   0  0  0  0  0  0  0  0  0  0  0  0
    0.6935    2.1745    0.0000 H   0  0  0  0  0  0  0  0  0  0  0  0
    2.6826    4.1536    0.0000 H   0  0  0  0  0  0  0  0  0  0  0  0
    1.1167    3.7382    0.0000 H   0  0  0  0  0  0  0  0  0  0  0  0
 19  1  1  6  0  0  0
  1 33  1  0  0  0  0
 20  2  1  1  0  0  0
  2 34  1  0  0  0  0
 22  3  1  1  0  0  0
  3 35  1  0  0  0  0
 25  4  1  1  0  0  0
  4 36  1  0  0  0  0
 24  5  1  6  0  0  0
  5 68  1  0  0  0  0
 26  6  1  1  0  0  0
  6 69  1  0  0  0  0
 29  7  1  6  0  0  0
  7 37  1  0  0  0  0
 28  8  1  1  0  0  0
  8 70  1  0  0  0  0
  9 31  1  0  0  0  0
  9 39  1  0  0  0  0
 10 33  2  0  0  0  0
 11 36  2  0  0  0  0
 12 16  1  0  0  0  0
 12 27  1  0  0  0  0
 12 32  1  0  0  0  0
 13 14  1  0  0  0  0
 13 15  1  0  0  0  0
 13 16  1  0  0  0  0
 13 22  1  6  0  0  0
 14 20  1  0  0  0  0
 14 21  1  0  0  0  0
 14 46  1  6  0  0  0
 15 18  1  0  0  0  0
 15 23  1  0  0  0  0
 15 47  1  6  0  0  0
 16 17  1  0  0  0  0
 16 48  1  0  0  0  0
 17 19  1  0  0  0  0
 17 20  1  0  0  0  0
 17 49  1  1  0  0  0
 18 19  1  0  0  0  0
 18 25  1  0  0  0  0
 18 50  1  6  0  0  0
 19 26  1  0  0  0  0
 20 51  1  0  0  0  0
 21 27  1  0  0  0  0
 21 28  1  0  0  0  0
 21 31  1  6  0  0  0
 22 30  1  0  0  0  0
 22 52  1  0  0  0  0
 23 24  1  0  0  0  0
 23 53  1  0  0  0  0
 23 54  1  0  0  0  0
 24 25  1  0  0  0  0
 24 29  1  0  0  0  0
 25 55  1  0  0  0  0
 26 29  1  0  0  0  0
 26 56  1  0  0  0  0
 27 57  1  0  0  0  0
 27 58  1  0  0  0  0
 28 30  1  0  0  0  0
 28 59  1  0  0  0  0
 29 60  1  0  0  0  0
 30 61  1  0  0  0  0
 30 62  1  0  0  0  0
 31 63  1  0  0  0  0
 31 64  1  0  0  0  0
 32 65  1  0  0  0  0
 32 66  1  0  0  0  0
 32 67  1  0  0  0  0
 33 38  1  0  0  0  0
 34 71  1  0  0  0  0
 34 72  1  0  0  0  0
 34 73  1  0  0  0  0
 35 74  1  0  0  0  0
 35 75  1  0  0  0  0
 35 76  1  0  0  0  0
 36 40  1  0  0  0  0
 37 77  1  0  0  0  0
 37 78  1  0  0  0  0
 37 79  1  0  0  0  0
 38 80  1  0  0  0  0
 38 81  1  0  0  0  0
 38 82  1  0  0  0  0
 39 83  1  0  0  0  0
 39 84  1  0  0  0  0
 39 85  1  0  0  0  0
 40 41  2  0  0  0  0
 40 42  1  0  0  0  0
 41 43  1  0  0  0  0
 41 86  1  0  0  0  0
 42 44  2  0  0  0  0
 42 87  1  0  0  0  0
 43 45  2  0  0  0  0
 43 88  1  0  0  0  0
 44 45  1  0  0  0  0
 44 89  1  0  0  0  0
 45 90  1  0  0  0  0
M  END
> <PUBCHEM_COMPOUND_CID>
441747

> <PUBCHEM_COMPOUND_CANONICALIZED>
1

> <PUBCHEM_CACTVS_COMPLEXITY>
1200

> <PUBCHEM_CACTVS_HBOND_ACCEPTOR>
12

> <PUBCHEM_CACTVS_HBOND_DONOR>
3

> <PUBCHEM_CACTVS_ROTATABLE_BOND>
10

> <PUBCHEM_CACTVS_SUBSKEYS>
AAADcfB+PAAAAAAAAAAAAAAAAAAAAYMAAAA8YMGCB4gWAGABAAAAHgAACAAAD3zhmAYyCIMABgCIAiDSCAACAAAkAAAIiAEICMgJNjKAtRiGcQAnwAGLqYf4+P+PgAAAAAAAAADSAAaUADSAAaEADSAAAA==

> <PUBCHEM_IUPAC_INCHI>
InChI=1S/C33H45NO11/c1-16(35)45-33-21-18(13-31(39,28(43-6)26(33)37)27(21)44-29(38)17-10-8-7-9-11-17)32-20(41-4)12-19(36)30(15-40-3)14-34(2)25(32)22(33)23(42-5)24(30)32/h7-11,18-28,36-37,39H,12-15H2,1-6H3/t18-,19-,20+,21-,22+,23+,24-,25?,26+,27-,28+,30+,31-,32+,33-/m1/s1

> <PUBCHEM_IUPAC_INCHIKEY>
XUHJBXVYNBQQBD-TUWOXVOMSA-N

> <PUBCHEM_XLOGP3_AA>
-0.1

> <PUBCHEM_EXACT_MASS>
631.299261

> <PUBCHEM_MOLECULAR_FORMULA>
C33H45NO11

> <PUBCHEM_MOLECULAR_WEIGHT>
631.7105

> <PUBCHEM_OPENEYE_CAN_SMILES>
CC(=O)OC12C3C(CC(C3OC(=O)C4=CC=CC=C4)(C(C1O)OC)O)C56C(CC(C7(C5C(C2C6N(C7)C)OC)COC)O)OC

> <PUBCHEM_OPENEYE_ISO_SMILES>
CC(=O)O[C@@]12[C@@H]3[C@@H](C[C@@]([C@@H]3OC(=O)C4=CC=CC=C4)([C@H]([C@@H]1O)OC)O)[C@]56[C@H](C[C@H]([C@@]7([C@H]5[C@H]([C@H]2C6N(C7)C)OC)COC)O)OC

> <PUBCHEM_CACTVS_TPSA>
153

> <PUBCHEM_MONOISOTOPIC_WEIGHT>
631.299261

> <PUBCHEM_TOTAL_CHARGE>
0

> <PUBCHEM_HEAVY_ATOM_COUNT>
45

> <PUBCHEM_ATOM_DEF_STEREO_COUNT>
14

> <PUBCHEM_ATOM_UDEF_STEREO_COUNT>
1

> <PUBCHEM_BOND_DEF_STEREO_COUNT>
0

> <PUBCHEM_BOND_UDEF_STEREO_COUNT>
0

> <PUBCHEM_ISOTOPIC_ATOM_COUNT>
0

> <PUBCHEM_COMPONENT_COUNT>
1

> <PUBCHEM_CACTVS_TAUTO_COUNT>
1

> <PUBCHEM_COORDINATE_TYPE>
1
5
255

> <PUBCHEM_BONDANNOTATIONS>
19  1  6
16  12  3
13  22  6
14  46  6
15  47  6
17  49  5
18  50  6
20  2  5
21  31  6
22  3  5
25  4  5
40  41  8
40  42  8
41  43  8
42  44  8
43  45  8
44  45  8
24  5  6
26  6  5
29  7  6
28  8  5

$$$$

