65590
  -OEChem-07051213053D

 24 26  0     0  0  0  0  0  0999 V2000
    0.4150   -0.9186   -0.0003 O   0  0  0  0  0  0  0  0  0  0  0  0
   -4.5031   -0.1891    0.0003 N   0  0  0  0  0  0  0  0  0  0  0  0
    1.8802    0.8009   -0.0006 C   0  0  0  0  0  0  0  0  0  0  0  0
   -0.2877    0.2441   -0.0009 C   0  0  0  0  0  0  0  0  0  0  0  0
    1.7357   -0.5826   -0.0001 C   0  0  0  0  0  0  0  0  0  0  0  0
    0.5613    1.3266   -0.0013 C   0  0  0  0  0  0  0  0  0  0  0  0
   -1.7158    0.0974    0.0002 C   0  0  0  0  0  0  0  0  0  0  0  0
    3.1783    1.3407   -0.0003 C   0  0  0  0  0  0  0  0  0  0  0  0
    2.8023   -1.4797    0.0005 C   0  0  0  0  0  0  0  0  0  0  0  0
    4.2714    0.4633    0.0008 C   0  0  0  0  0  0  0  0  0  0  0  0
    4.0841   -0.9213    0.0008 C   0  0  0  0  0  0  0  0  0  0  0  0
   -2.5396    1.2217    0.0010 C   0  0  0  0  0  0  0  0  0  0  0  0
   -2.2938   -1.1710   -0.0005 C   0  0  0  0  0  0  0  0  0  0  0  0
   -3.9116    1.0265    0.0011 C   0  0  0  0  0  0  0  0  0  0  0  0
   -3.6766   -1.2590   -0.0006 C   0  0  0  0  0  0  0  0  0  0  0  0
    0.2814    2.3710   -0.0015 H   0  0  0  0  0  0  0  0  0  0  0  0
    3.3394    2.4145   -0.0006 H   0  0  0  0  0  0  0  0  0  0  0  0
    2.6491   -2.5523    0.0007 H   0  0  0  0  0  0  0  0  0  0  0  0
    5.2804    0.8677    0.0012 H   0  0  0  0  0  0  0  0  0  0  0  0
    4.9510   -1.5774    0.0014 H   0  0  0  0  0  0  0  0  0  0  0  0
   -2.1462    2.2328    0.0013 H   0  0  0  0  0  0  0  0  0  0  0  0
   -1.7096   -2.0854   -0.0013 H   0  0  0  0  0  0  0  0  0  0  0  0
   -4.5929    1.8711    0.0016 H   0  0  0  0  0  0  0  0  0  0  0  0
   -4.1720   -2.2244   -0.0013 H   0  0  0  0  0  0  0  0  0  0  0  0
  1  4  1  0  0  0  0
  1  5  1  0  0  0  0
  2 14  2  0  0  0  0
  2 15  1  0  0  0  0
  3  5  1  0  0  0  0
  3  6  1  0  0  0  0
  3  8  2  0  0  0  0
  4  6  2  0  0  0  0
  4  7  1  0  0  0  0
  5  9  2  0  0  0  0
  6 16  1  0  0  0  0
  7 12  2  0  0  0  0
  7 13  1  0  0  0  0
  8 10  1  0  0  0  0
  8 17  1  0  0  0  0
  9 11  1  0  0  0  0
  9 18  1  0  0  0  0
 10 11  2  0  0  0  0
 10 19  1  0  0  0  0
 11 20  1  0  0  0  0
 12 14  1  0  0  0  0
 12 21  1  0  0  0  0
 13 15  2  0  0  0  0
 13 22  1  0  0  0  0
 14 23  1  0  0  0  0
 15 24  1  0  0  0  0
M  END
> <PUBCHEM_COMPOUND_CID>
65590

> <PUBCHEM_CONFORMER_RMSD>
0.4

> <PUBCHEM_CONFORMER_DIVERSEORDER>
1
2

> <PUBCHEM_MMFF94_PARTIAL_CHARGES>
23
1 -0.28
10 -0.15
11 -0.15
12 -0.15
13 -0.15
14 0.16
15 0.16
16 0.15
17 0.15
18 0.15
19 0.15
2 -0.62
20 0.15
21 0.15
22 0.15
23 0.15
24 0.15
4 0.09
5 0.14
6 -0.15
7 0.05
8 -0.15
9 -0.15

> <PUBCHEM_EFFECTIVE_ROTOR_COUNT>
1

> <PUBCHEM_PHARMACOPHORE_FEATURES>
5
1 1 acceptor
1 2 acceptor
5 1 3 4 5 6 rings
6 2 7 12 13 14 15 rings
6 3 5 8 9 10 11 rings

> <PUBCHEM_HEAVY_ATOM_COUNT>
15

> <PUBCHEM_ATOM_DEF_STEREO_COUNT>
0

> <PUBCHEM_ATOM_UDEF_STEREO_COUNT>
0

> <PUBCHEM_BOND_DEF_STEREO_COUNT>
0

> <PUBCHEM_BOND_UDEF_STEREO_COUNT>
0

> <PUBCHEM_ISOTOPIC_ATOM_COUNT>
0

> <PUBCHEM_COMPONENT_COUNT>
1

> <PUBCHEM_CACTVS_TAUTO_COUNT>
1

> <PUBCHEM_CONFORMER_ID>
0001003600000001

> <PUBCHEM_MMFF94_ENERGY>
33.0363

> <PUBCHEM_FEATURE_SELFOVERLAP>
25.474

> <PUBCHEM_SHAPE_FINGERPRINT>
10608611 8 18411141333236214837
10616163 171 18336263440397101463
11471102 20 18410858763406463876
11615757 297 17676482822094890288
11806522 49 18340488863471276999
12032990 46 18409726274835114358
12932764 1 17386014931232949889
13167823 11 18409731755018536543
13296908 3 18410573993751987214
13675066 3 18113905961369095856
14144814 61 18410011048251749889
14252887 29 17822002129986183494
14325111 11 18410575076126021760
15196674 1 18410856563945332359
15375358 24 18410293613986954611
15442244 35 18265894855195803272
15536298 74 18335421266266403672
17834072 33 18336266760358549455
17834074 16 18411698781283620043
18186145 218 17917997191239788926
18522853 276 18334858320328621809
19422 9 18410571790433738404
200 152 18041003929880085565
20279233 1 18201995525566474018
20645477 70 18335702779645145414
21267235 1 18410283718398115879
21501925 9 18410581686434040394
221490 88 18269266872558690466
22485316 2 18411984667165201030
2255824 54 18060416907090603082
23402539 116 18186527622532289037
23402655 69 18409731776445770492
23463225 33 18410855477497935166
23559900 14 18335987583632745962
3545911 37 18410572885740212565
42 15 18412543223361706346
4214541 1 18410855490467518785
474 4 17417243200793774348
4990 188 18114451323774331852
5104073 3 18410292514501376753
633830 44 17275101734414678540
69090 78 18408608054403935855
7364860 26 18264489494847603696
77779 3 18410854360637646037
8809292 202 18272083868767935155
9709674 26 18410287004080103207

> <PUBCHEM_SHAPE_MULTIPOLES>
297.84
8.81
1.57
0.6
1.58
0.05
0
0.57
0
-0.11
0
-0.02
-0.01
0

> <PUBCHEM_SHAPE_SELFOVERLAP>
670.65

> <PUBCHEM_SHAPE_VOLUME>
157

> <PUBCHEM_COORDINATE_TYPE>
2
5
10

$$$$

