5284435
  -OEChem-07051213142D

 44 45  0     0  0  0  0  0  0999 V2000
    6.3301    3.0000    0.0000 S   0  0  0  0  0  0  0  0  0  0  0  0
    7.1962    4.5000    0.0000 Na  0  3  0  0  0  0  0  0  0  0  0  0
    6.3301    4.0000    0.0000 O   0  5  0  0  0  0  0  0  0  0  0  0
    7.3301    3.0000    0.0000 O   0  0  0  0  0  0  0  0  0  0  0  0
    5.3301    3.0000    0.0000 O   0  0  0  0  0  0  0  0  0  0  0  0
   10.6603   -1.5000    0.0000 O   0  5  0  0  0  0  0  0  0  0  0  0
    9.7942    0.0000    0.0000 O   0  0  0  0  0  0  0  0  0  0  0  0
    7.1962   -4.5000    0.0000 O   0  5  0  0  0  0  0  0  0  0  0  0
    8.9282   -4.5000    0.0000 O   0  0  0  0  0  0  0  0  0  0  0  0
    8.0622    0.0000    0.0000 N   0  0  0  0  0  0  0  0  0  0  0  0
    4.5981    2.0000    0.0000 N   0  0  0  0  0  0  0  0  0  0  0  0
    9.7942   -1.0000    0.0000 N   0  3  0  0  0  0  0  0  0  0  0  0
    8.0622   -4.0000    0.0000 N   0  3  0  0  0  0  0  0  0  0  0  0
    6.3301    2.0000    0.0000 C   0  0  0  0  0  0  0  0  0  0  0  0
    5.4641    1.5000    0.0000 C   0  0  0  0  0  0  0  0  0  0  0  0
    7.1962    0.5000    0.0000 C   0  0  0  0  0  0  0  0  0  0  0  0
    7.1962    1.5000    0.0000 C   0  0  0  0  0  0  0  0  0  0  0  0
    5.4641    0.5000    0.0000 C   0  0  0  0  0  0  0  0  0  0  0  0
    6.3301    0.0000    0.0000 C   0  0  0  0  0  0  0  0  0  0  0  0
    8.0622   -1.0000    0.0000 C   0  0  0  0  0  0  0  0  0  0  0  0
    8.9282   -1.5000    0.0000 C   0  0  0  0  0  0  0  0  0  0  0  0
    3.7320    1.5000    0.0000 C   0  0  0  0  0  0  0  0  0  0  0  0
    7.1962   -1.5000    0.0000 C   0  0  0  0  0  0  0  0  0  0  0  0
    8.9282   -2.5000    0.0000 C   0  0  0  0  0  0  0  0  0  0  0  0
    8.0622   -3.0000    0.0000 C   0  0  0  0  0  0  0  0  0  0  0  0
    7.1962   -2.5000    0.0000 C   0  0  0  0  0  0  0  0  0  0  0  0
    2.8660    2.0000    0.0000 C   0  0  0  0  0  0  0  0  0  0  0  0
    3.7320    0.5000    0.0000 C   0  0  0  0  0  0  0  0  0  0  0  0
    2.0000    1.5000    0.0000 C   0  0  0  0  0  0  0  0  0  0  0  0
    2.8660    0.0000    0.0000 C   0  0  0  0  0  0  0  0  0  0  0  0
    2.0000    0.5000    0.0000 C   0  0  0  0  0  0  0  0  0  0  0  0
    7.7331    1.8100    0.0000 H   0  0  0  0  0  0  0  0  0  0  0  0
    4.9272    0.1900    0.0000 H   0  0  0  0  0  0  0  0  0  0  0  0
    8.5991    0.3100    0.0000 H   0  0  0  0  0  0  0  0  0  0  0  0
    6.3301   -0.6200    0.0000 H   0  0  0  0  0  0  0  0  0  0  0  0
    4.5981    2.6200    0.0000 H   0  0  0  0  0  0  0  0  0  0  0  0
    6.6592   -1.1900    0.0000 H   0  0  0  0  0  0  0  0  0  0  0  0
    9.4651   -2.8100    0.0000 H   0  0  0  0  0  0  0  0  0  0  0  0
    6.6592   -2.8100    0.0000 H   0  0  0  0  0  0  0  0  0  0  0  0
    2.8660    2.6200    0.0000 H   0  0  0  0  0  0  0  0  0  0  0  0
    4.2690    0.1900    0.0000 H   0  0  0  0  0  0  0  0  0  0  0  0
    1.4631    1.8100    0.0000 H   0  0  0  0  0  0  0  0  0  0  0  0
    2.8660   -0.6200    0.0000 H   0  0  0  0  0  0  0  0  0  0  0  0
    1.4631    0.1900    0.0000 H   0  0  0  0  0  0  0  0  0  0  0  0
  1  3  1  0  0  0  0
  1  4  2  0  0  0  0
  1  5  2  0  0  0  0
  1 14  1  0  0  0  0
  6 12  1  0  0  0  0
  7 12  2  0  0  0  0
  8 13  1  0  0  0  0
  9 13  2  0  0  0  0
 10 16  1  0  0  0  0
 10 20  1  0  0  0  0
 10 34  1  0  0  0  0
 11 15  1  0  0  0  0
 11 22  1  0  0  0  0
 11 36  1  0  0  0  0
 12 21  1  0  0  0  0
 13 25  1  0  0  0  0
 14 15  2  0  0  0  0
 14 17  1  0  0  0  0
 15 18  1  0  0  0  0
 16 17  2  0  0  0  0
 16 19  1  0  0  0  0
 17 32  1  0  0  0  0
 18 19  2  0  0  0  0
 18 33  1  0  0  0  0
 19 35  1  0  0  0  0
 20 21  2  0  0  0  0
 20 23  1  0  0  0  0
 21 24  1  0  0  0  0
 22 27  2  0  0  0  0
 22 28  1  0  0  0  0
 23 26  2  0  0  0  0
 23 37  1  0  0  0  0
 24 25  2  0  0  0  0
 24 38  1  0  0  0  0
 25 26  1  0  0  0  0
 26 39  1  0  0  0  0
 27 29  1  0  0  0  0
 27 40  1  0  0  0  0
 28 30  2  0  0  0  0
 28 41  1  0  0  0  0
 29 31  2  0  0  0  0
 29 42  1  0  0  0  0
 30 31  1  0  0  0  0
 30 43  1  0  0  0  0
 31 44  1  0  0  0  0
M  CHG  6   2   1   3  -1   6  -1   8  -1  12   1  13   1
M  END
> <PUBCHEM_COMPOUND_CID>
5284435

> <PUBCHEM_COMPOUND_CANONICALIZED>
1

> <PUBCHEM_CACTVS_COMPLEXITY>
698

> <PUBCHEM_CACTVS_HBOND_ACCEPTOR>
9

> <PUBCHEM_CACTVS_HBOND_DONOR>
2

> <PUBCHEM_CACTVS_ROTATABLE_BOND>
4

> <PUBCHEM_CACTVS_SUBSKEYS>
AAADccB7uCBAAAAAAAAAAAAAAAAAAAAAAAAwYMAAAAAAAAABUAAAHAQUAAAACAiBUAAwwYLQQAKBACRCQ3DCAEAhAgAoiBwAdIoIYGLA0dGUIAxgkIDIyAcQAAAAAACAACQAASAAAQAASAACQAAAAAAAAA==

> <PUBCHEM_IUPAC_OPENEYE_NAME>
sodium 2-anilino-5-(2,4-dinitroanilino)benzenesulfonate

> <PUBCHEM_IUPAC_CAS_NAME>
sodium 2-anilino-5-(2,4-dinitroanilino)benzenesulfonate

> <PUBCHEM_IUPAC_NAME>
sodium 2-anilino-5-(2,4-dinitroanilino)benzenesulfonate

> <PUBCHEM_IUPAC_SYSTEMATIC_NAME>
sodium 5-[(2,4-dinitrophenyl)amino]-2-phenylazanyl-benzenesulfonate

> <PUBCHEM_IUPAC_TRADITIONAL_NAME>
sodium 2-anilino-5-(2,4-dinitroanilino)besylate

> <PUBCHEM_IUPAC_INCHI>
InChI=1S/C18H14N4O7S.Na/c23-21(24)14-7-9-15(17(11-14)22(25)26)20-13-6-8-16(18(10-13)30(27,28)29)19-12-4-2-1-3-5-12;/h1-11,19-20H,(H,27,28,29);/q;+1/p-1

> <PUBCHEM_IUPAC_INCHIKEY>
KKBFCPLWFWQNFB-UHFFFAOYSA-M

> <PUBCHEM_EXACT_MASS>
452.040264

> <PUBCHEM_MOLECULAR_FORMULA>
C18H13N4NaO7S

> <PUBCHEM_MOLECULAR_WEIGHT>
452.373189

> <PUBCHEM_OPENEYE_CAN_SMILES>
C1=CC=C(C=C1)NC2=C(C=C(C=C2)NC3=C(C=C(C=C3)[N+](=O)[O-])[N+](=O)[O-])S(=O)(=O)[O-].[Na+]

> <PUBCHEM_OPENEYE_ISO_SMILES>
C1=CC=C(C=C1)NC2=C(C=C(C=C2)NC3=C(C=C(C=C3)[N+](=O)[O-])[N+](=O)[O-])S(=O)(=O)[O-].[Na+]

> <PUBCHEM_CACTVS_TPSA>
181

> <PUBCHEM_MONOISOTOPIC_WEIGHT>
452.040264

> <PUBCHEM_TOTAL_CHARGE>
0

> <PUBCHEM_HEAVY_ATOM_COUNT>
31

> <PUBCHEM_ATOM_DEF_STEREO_COUNT>
0

> <PUBCHEM_ATOM_UDEF_STEREO_COUNT>
0

> <PUBCHEM_BOND_DEF_STEREO_COUNT>
0

> <PUBCHEM_BOND_UDEF_STEREO_COUNT>
0

> <PUBCHEM_ISOTOPIC_ATOM_COUNT>
0

> <PUBCHEM_COMPONENT_COUNT>
2

> <PUBCHEM_CACTVS_TAUTO_COUNT>
1

> <PUBCHEM_COORDINATE_TYPE>
1
5
255

> <PUBCHEM_BONDANNOTATIONS>
14  15  8
14  17  8
15  18  8
16  17  8
16  19  8
18  19  8
20  21  8
20  23  8
21  24  8
22  27  8
22  28  8
23  26  8
24  25  8
25  26  8
27  29  8
28  30  8
29  31  8
30  31  8

$$$$

