44715528
  -OEChem-07051213102D

 91 94  0     1  0  0  0  0  0999 V2000
    5.1350   -5.2500    0.0000 O   0  0  0  0  0  0  0  0  0  0  0  0
   13.7953    5.7500    0.0000 O   0  0  0  0  0  0  0  0  0  0  0  0
    3.4030   -7.2500    0.0000 O   0  0  0  0  0  0  0  0  0  0  0  0
    5.1350   -8.2500    0.0000 O   0  0  0  0  0  0  0  0  0  0  0  0
   14.6613    8.2500    0.0000 O   0  0  0  0  0  0  0  0  0  0  0  0
   16.3933    7.2500    0.0000 O   0  0  0  0  0  0  0  0  0  0  0  0
    6.8671   -5.2500    0.0000 O   0  0  0  0  0  0  0  0  0  0  0  0
   14.6613    4.2500    0.0000 O   0  0  0  0  0  0  0  0  0  0  0  0
    6.8671   -7.2500    0.0000 O   0  0  0  0  0  0  0  0  0  0  0  0
   16.3933    5.2500    0.0000 O   0  0  0  0  0  0  0  0  0  0  0  0
    2.5369   -5.7500    0.0000 O   0  0  0  0  0  0  0  0  0  0  0  0
   12.9292    8.2500    0.0000 O   0  0  0  0  0  0  0  0  0  0  0  0
    7.7331   -0.7500    0.0000 O   0  0  0  0  0  0  0  0  0  0  0  0
   11.1972    1.2500    0.0000 O   0  0  0  0  0  0  0  0  0  0  0  0
    9.0991   -0.1160    0.0000 O   0  0  0  0  0  0  0  0  0  0  0  0
    6.8671    0.7500    0.0000 O   0  0  0  0  0  0  0  0  0  0  0  0
   10.3312   -0.2500    0.0000 O   0  0  0  0  0  0  0  0  0  0  0  0
    8.0991    3.3481    0.0000 O   0  0  0  0  0  0  0  0  0  0  0  0
    9.5991    2.4820    0.0000 O   0  0  0  0  0  0  0  0  0  0  0  0
    4.2690   -6.7500    0.0000 C   0  0  1  0  0  0  0  0  0  0  0  0
    5.1350   -7.2500    0.0000 C   0  0  1  0  0  0  0  0  0  0  0  0
   14.6613    7.2500    0.0000 C   0  0  1  0  0  0  0  0  0  0  0  0
   15.5273    6.7500    0.0000 C   0  0  1  0  0  0  0  0  0  0  0  0
    4.2690   -5.7500    0.0000 C   0  0  1  0  0  0  0  0  0  0  0  0
   13.7953    6.7500    0.0000 C   0  0  1  0  0  0  0  0  0  0  0  0
    6.0010   -6.7500    0.0000 C   0  0  2  0  0  0  0  0  0  0  0  0
   15.5273    5.7500    0.0000 C   0  0  2  0  0  0  0  0  0  0  0  0
    6.0010   -5.7500    0.0000 C   0  0  1  0  0  0  0  0  0  0  0  0
   14.6613    5.2500    0.0000 C   0  0  1  0  0  0  0  0  0  0  0  0
    3.4030   -5.2500    0.0000 C   0  0  0  0  0  0  0  0  0  0  0  0
   12.9292    7.2500    0.0000 C   0  0  0  0  0  0  0  0  0  0  0  0
    6.8671   -4.2500    0.0000 C   0  0  0  0  0  0  0  0  0  0  0  0
   13.7953    3.7500    0.0000 C   0  0  0  0  0  0  0  0  0  0  0  0
    7.7331   -3.7500    0.0000 C   0  0  0  0  0  0  0  0  0  0  0  0
    6.0010   -3.7500    0.0000 C   0  0  0  0  0  0  0  0  0  0  0  0
   13.7953    2.7500    0.0000 C   0  0  0  0  0  0  0  0  0  0  0  0
   12.9292    4.2500    0.0000 C   0  0  0  0  0  0  0  0  0  0  0  0
    6.8671   -2.2500    0.0000 C   0  0  0  0  0  0  0  0  0  0  0  0
    7.7331   -2.7500    0.0000 C   0  0  0  0  0  0  0  0  0  0  0  0
    6.0010   -2.7500    0.0000 C   0  0  0  0  0  0  0  0  0  0  0  0
   12.0632    2.7500    0.0000 C   0  0  0  0  0  0  0  0  0  0  0  0
   12.9292    2.2500    0.0000 C   0  0  0  0  0  0  0  0  0  0  0  0
   12.0632    3.7500    0.0000 C   0  0  0  0  0  0  0  0  0  0  0  0
    8.5991    0.7500    0.0000 C   0  0  3  0  0  0  0  0  0  0  0  0
    6.8671   -1.2500    0.0000 C   0  0  0  0  0  0  0  0  0  0  0  0
   11.1972    2.2500    0.0000 C   0  0  0  0  0  0  0  0  0  0  0  0
    9.4651    1.2500    0.0000 C   0  0  0  0  0  0  0  0  0  0  0  0
    8.0991    1.6160    0.0000 C   0  0  0  0  0  0  0  0  0  0  0  0
    7.7331    0.2500    0.0000 C   0  0  0  0  0  0  0  0  0  0  0  0
   10.3312    0.7500    0.0000 C   0  0  0  0  0  0  0  0  0  0  0  0
    8.5991    2.4820    0.0000 C   0  0  0  0  0  0  0  0  0  0  0  0
    4.2690   -7.3700    0.0000 H   0  0  0  0  0  0  0  0  0  0  0  0
    5.6720   -7.5600    0.0000 H   0  0  0  0  0  0  0  0  0  0  0  0
   14.1244    7.5600    0.0000 H   0  0  0  0  0  0  0  0  0  0  0  0
   15.5273    7.3700    0.0000 H   0  0  0  0  0  0  0  0  0  0  0  0
    4.2690   -5.1300    0.0000 H   0  0  0  0  0  0  0  0  0  0  0  0
   13.2583    6.4400    0.0000 H   0  0  0  0  0  0  0  0  0  0  0  0
    6.5380   -6.4400    0.0000 H   0  0  0  0  0  0  0  0  0  0  0  0
   15.5273    5.1300    0.0000 H   0  0  0  0  0  0  0  0  0  0  0  0
    6.5380   -6.0600    0.0000 H   0  0  0  0  0  0  0  0  0  0  0  0
   14.1244    4.9400    0.0000 H   0  0  0  0  0  0  0  0  0  0  0  0
    3.8015   -4.7750    0.0000 H   0  0  0  0  0  0  0  0  0  0  0  0
    3.0044   -4.7750    0.0000 H   0  0  0  0  0  0  0  0  0  0  0  0
   12.3187    7.3577    0.0000 H   0  0  0  0  0  0  0  0  0  0  0  0
   12.7172    6.6674    0.0000 H   0  0  0  0  0  0  0  0  0  0  0  0
    3.4030   -7.8700    0.0000 H   0  0  0  0  0  0  0  0  0  0  0  0
    5.6720   -8.5600    0.0000 H   0  0  0  0  0  0  0  0  0  0  0  0
   15.1982    8.5600    0.0000 H   0  0  0  0  0  0  0  0  0  0  0  0
   16.3933    7.8700    0.0000 H   0  0  0  0  0  0  0  0  0  0  0  0
    7.4040   -6.9400    0.0000 H   0  0  0  0  0  0  0  0  0  0  0  0
   16.9303    5.5600    0.0000 H   0  0  0  0  0  0  0  0  0  0  0  0
    2.0000   -5.4400    0.0000 H   0  0  0  0  0  0  0  0  0  0  0  0
   12.3923    8.5600    0.0000 H   0  0  0  0  0  0  0  0  0  0  0  0
    8.2700   -4.0600    0.0000 H   0  0  0  0  0  0  0  0  0  0  0  0
    5.4641   -4.0600    0.0000 H   0  0  0  0  0  0  0  0  0  0  0  0
   14.3322    2.4400    0.0000 H   0  0  0  0  0  0  0  0  0  0  0  0
   12.9292    4.8700    0.0000 H   0  0  0  0  0  0  0  0  0  0  0  0
    8.2700   -2.4400    0.0000 H   0  0  0  0  0  0  0  0  0  0  0  0
    5.4641   -2.4400    0.0000 H   0  0  0  0  0  0  0  0  0  0  0  0
   12.9292    1.6300    0.0000 H   0  0  0  0  0  0  0  0  0  0  0  0
   11.5263    4.0600    0.0000 H   0  0  0  0  0  0  0  0  0  0  0  0
    6.6550   -0.6674    0.0000 H   0  0  0  0  0  0  0  0  0  0  0  0
    6.2565   -1.3577    0.0000 H   0  0  0  0  0  0  0  0  0  0  0  0
    9.8637    1.7250    0.0000 H   0  0  0  0  0  0  0  0  0  0  0  0
    9.0666    1.7250    0.0000 H   0  0  0  0  0  0  0  0  0  0  0  0
   10.9851    2.8326    0.0000 H   0  0  0  0  0  0  0  0  0  0  0  0
   10.5866    2.1423    0.0000 H   0  0  0  0  0  0  0  0  0  0  0  0
    7.6242    2.0146    0.0000 H   0  0  0  0  0  0  0  0  0  0  0  0
    7.6242    1.2175    0.0000 H   0  0  0  0  0  0  0  0  0  0  0  0
    9.7191   -0.1160    0.0000 H   0  0  0  0  0  0  0  0  0  0  0  0
    8.4091    3.8850    0.0000 H   0  0  0  0  0  0  0  0  0  0  0  0
  1 24  1  0  0  0  0
  1 28  1  0  0  0  0
  2 25  1  0  0  0  0
  2 29  1  0  0  0  0
 20  3  1  6  0  0  0
  3 66  1  0  0  0  0
 21  4  1  1  0  0  0
  4 67  1  0  0  0  0
 22  5  1  1  0  0  0
  5 68  1  0  0  0  0
 23  6  1  6  0  0  0
  6 69  1  0  0  0  0
 28  7  1  1  0  0  0
  7 32  1  0  0  0  0
 29  8  1  6  0  0  0
  8 33  1  0  0  0  0
 26  9  1  6  0  0  0
  9 70  1  0  0  0  0
 27 10  1  1  0  0  0
 10 71  1  0  0  0  0
 11 30  1  0  0  0  0
 11 72  1  0  0  0  0
 12 31  1  0  0  0  0
 12 73  1  0  0  0  0
 13 45  1  0  0  0  0
 13 49  1  0  0  0  0
 14 46  1  0  0  0  0
 14 50  1  0  0  0  0
 15 44  1  0  0  0  0
 15 90  1  0  0  0  0
 16 49  2  0  0  0  0
 17 50  2  0  0  0  0
 18 51  1  0  0  0  0
 18 91  1  0  0  0  0
 19 51  2  0  0  0  0
 20 21  1  0  0  0  0
 20 24  1  0  0  0  0
 20 52  1  0  0  0  0
 21 26  1  0  0  0  0
 21 53  1  0  0  0  0
 22 23  1  0  0  0  0
 22 25  1  0  0  0  0
 22 54  1  0  0  0  0
 23 27  1  0  0  0  0
 23 55  1  0  0  0  0
 24 30  1  1  0  0  0
 24 56  1  0  0  0  0
 25 31  1  6  0  0  0
 25 57  1  0  0  0  0
 26 28  1  0  0  0  0
 26 58  1  0  0  0  0
 27 29  1  0  0  0  0
 27 59  1  0  0  0  0
 28 60  1  0  0  0  0
 29 61  1  0  0  0  0
 30 62  1  0  0  0  0
 30 63  1  0  0  0  0
 31 64  1  0  0  0  0
 31 65  1  0  0  0  0
 32 34  2  0  0  0  0
 32 35  1  0  0  0  0
 33 36  2  0  0  0  0
 33 37  1  0  0  0  0
 34 39  1  0  0  0  0
 34 74  1  0  0  0  0
 35 40  2  0  0  0  0
 35 75  1  0  0  0  0
 36 42  1  0  0  0  0
 36 76  1  0  0  0  0
 37 43  2  0  0  0  0
 37 77  1  0  0  0  0
 38 39  2  0  0  0  0
 38 40  1  0  0  0  0
 38 45  1  0  0  0  0
 39 78  1  0  0  0  0
 40 79  1  0  0  0  0
 41 42  2  0  0  0  0
 41 43  1  0  0  0  0
 41 46  1  0  0  0  0
 42 80  1  0  0  0  0
 43 81  1  0  0  0  0
 44 47  1  0  0  0  0
 44 48  1  0  0  0  0
 44 49  1  0  0  0  0
 45 82  1  0  0  0  0
 45 83  1  0  0  0  0
 46 86  1  0  0  0  0
 46 87  1  0  0  0  0
 47 50  1  0  0  0  0
 47 84  1  0  0  0  0
 47 85  1  0  0  0  0
 48 51  1  0  0  0  0
 48 88  1  0  0  0  0
 48 89  1  0  0  0  0
M  END
> <PUBCHEM_COMPOUND_CID>
44715528

> <PUBCHEM_COMPOUND_CANONICALIZED>
1

> <PUBCHEM_CACTVS_COMPLEXITY>
1130

> <PUBCHEM_CACTVS_HBOND_ACCEPTOR>
19

> <PUBCHEM_CACTVS_HBOND_DONOR>
10

> <PUBCHEM_CACTVS_ROTATABLE_BOND>
17

> <PUBCHEM_CACTVS_SUBSKEYS>
AAADcfB8PgAAAAAAAAAAAAAAAAAAAAAAAAA0aIEAAAAAAAABQAAAGgAACAAADFSwmAMwDoAABgCIAiDSCAICCAAgIAAIiAFGCIgdNjaEMRqieCCl4BEPqAfL5iwOIAAAAAAAAABAAAAAAAAAAAAAAAAAAA==

> <PUBCHEM_IUPAC_OPENEYE_NAME>
3-hydroxy-5-oxo-5-[[4-[(2S,3R,4S,5S,6R)-3,4,5-trihydroxy-6-(hydroxymethyl)tetrahydropyran-2-yl]oxyphenyl]methoxy]-3-[[4-[(2S,3R,4S,5S,6R)-3,4,5-trihydroxy-6-(hydroxymethyl)tetrahydropyran-2-yl]oxyphenyl]methoxycarbonyl]pentanoic acid

> <PUBCHEM_IUPAC_CAS_NAME>
3-hydroxy-5-oxo-3-[oxo-[[4-[[(2S,3R,4S,5S,6R)-3,4,5-trihydroxy-6-(hydroxymethyl)-2-oxanyl]oxy]phenyl]methoxy]methyl]-5-[[4-[[(2S,3R,4S,5S,6R)-3,4,5-trihydroxy-6-(hydroxymethyl)-2-oxanyl]oxy]phenyl]methoxy]pentanoic acid

> <PUBCHEM_IUPAC_NAME>
3-hydroxy-5-oxo-5-[[4-[(2S,3R,4S,5S,6R)-3,4,5-trihydroxy-6-(hydroxymethyl)oxan-2-yl]oxyphenyl]methoxy]-3-[[4-[(2S,3R,4S,5S,6R)-3,4,5-trihydroxy-6-(hydroxymethyl)oxan-2-yl]oxyphenyl]methoxycarbonyl]pentanoic acid

> <PUBCHEM_IUPAC_SYSTEMATIC_NAME>
5-[[4-[(2S,3R,4S,5S,6R)-6-(hydroxymethyl)-3,4,5-tris(oxidanyl)oxan-2-yl]oxyphenyl]methoxy]-3-[[4-[(2S,3R,4S,5S,6R)-6-(hydroxymethyl)-3,4,5-tris(oxidanyl)oxan-2-yl]oxyphenyl]methoxycarbonyl]-3-oxidanyl-5-oxidanylidene-pentanoic acid

> <PUBCHEM_IUPAC_TRADITIONAL_NAME>
3-hydroxy-5-keto-5-[4-[(2S,3R,4S,5S,6R)-3,4,5-trihydroxy-6-methylol-tetrahydropyran-2-yl]oxybenzyl]oxy-3-[4-[(2S,3R,4S,5S,6R)-3,4,5-trihydroxy-6-methylol-tetrahydropyran-2-yl]oxybenzyl]oxycarbonyl-valeric acid

> <PUBCHEM_IUPAC_INCHI>
InChI=1S/C32H40O19/c33-11-19-23(38)25(40)27(42)29(50-19)48-17-5-1-15(2-6-17)13-46-22(37)10-32(45,9-21(35)36)31(44)47-14-16-3-7-18(8-4-16)49-30-28(43)26(41)24(39)20(12-34)51-30/h1-8,19-20,23-30,33-34,38-43,45H,9-14H2,(H,35,36)/t19-,20-,23-,24-,25+,26+,27-,28-,29-,30-,32?/m1/s1

> <PUBCHEM_IUPAC_INCHIKEY>
UNLDMOJTKKEMOG-IWOWLDPGSA-N

> <PUBCHEM_XLOGP3_AA>
-2.7

> <PUBCHEM_EXACT_MASS>
728.216379

> <PUBCHEM_MOLECULAR_FORMULA>
C32H40O19

> <PUBCHEM_MOLECULAR_WEIGHT>
728.6486

> <PUBCHEM_OPENEYE_CAN_SMILES>
C1=CC(=CC=C1COC(=O)CC(CC(=O)O)(C(=O)OCC2=CC=C(C=C2)OC3C(C(C(C(O3)CO)O)O)O)O)OC4C(C(C(C(O4)CO)O)O)O

> <PUBCHEM_OPENEYE_ISO_SMILES>
C1=CC(=CC=C1COC(=O)CC(CC(=O)O)(C(=O)OCC2=CC=C(C=C2)O[C@H]3[C@@H]([C@H]([C@@H]([C@H](O3)CO)O)O)O)O)O[C@H]4[C@@H]([C@H]([C@@H]([C@H](O4)CO)O)O)O

> <PUBCHEM_CACTVS_TPSA>
309

> <PUBCHEM_MONOISOTOPIC_WEIGHT>
728.216379

> <PUBCHEM_TOTAL_CHARGE>
0

> <PUBCHEM_HEAVY_ATOM_COUNT>
51

> <PUBCHEM_ATOM_DEF_STEREO_COUNT>
10

> <PUBCHEM_ATOM_UDEF_STEREO_COUNT>
1

> <PUBCHEM_BOND_DEF_STEREO_COUNT>
0

> <PUBCHEM_BOND_UDEF_STEREO_COUNT>
0

> <PUBCHEM_ISOTOPIC_ATOM_COUNT>
0

> <PUBCHEM_COMPONENT_COUNT>
1

> <PUBCHEM_CACTVS_TAUTO_COUNT>
1

> <PUBCHEM_COORDINATE_TYPE>
1
5
255

> <PUBCHEM_BONDANNOTATIONS>
27  10  5
44  15  3
24  30  5
25  31  6
20  3  6
32  34  8
32  35  8
33  36  8
33  37  8
34  39  8
35  40  8
36  42  8
37  43  8
38  39  8
38  40  8
21  4  5
41  42  8
41  43  8
22  5  5
23  6  6
28  7  5
29  8  6
26  9  6

$$$$

