23724755
  -OEChem-07051213083D

 52 54  0     1  0  0  0  0  0999 V2000
    2.2305    0.5794    0.2936 O   0  0  0  0  0  0  0  0  0  0  0  0
    2.0595   -1.7419    0.1314 O   0  0  0  0  0  0  0  0  0  0  0  0
    6.0906    0.5230   -1.1073 O   0  0  0  0  0  0  0  0  0  0  0  0
    5.0915    2.8656    0.2600 O   0  0  0  0  0  0  0  0  0  0  0  0
    4.8813   -1.9193    0.0124 O   0  0  0  0  0  0  0  0  0  0  0  0
    1.0000    2.8047    1.3378 O   0  0  0  0  0  0  0  0  0  0  0  0
   -2.3436   -1.3421   -0.5875 N   0  0  0  0  0  0  0  0  0  0  0  0
   -2.8594    0.7637   -1.6112 N   0  0  0  0  0  0  0  0  0  0  0  0
   -4.8182   -0.7113    1.1298 N   0  0  0  0  0  0  0  0  0  0  0  0
   -4.7599    2.1189   -0.9018 N   0  0  0  0  0  0  0  0  0  0  0  0
   -6.0476    1.1350    0.9103 N   0  0  0  0  0  0  0  0  0  0  0  0
    5.0731    0.4832   -0.1056 C   0  0  1  0  0  0  0  0  0  0  0  0
    4.2768    1.7857   -0.1886 C   0  0  1  0  0  0  0  0  0  0  0  0
    4.1742   -0.7308   -0.3408 C   0  0  2  0  0  0  0  0  0  0  0  0
    3.0173    1.7085    0.6775 C   0  0  1  0  0  0  0  0  0  0  0  0
    2.9063   -0.6571    0.5099 C   0  0  1  0  0  0  0  0  0  0  0  0
    2.1464    2.9509    0.5198 C   0  0  0  0  0  0  0  0  0  0  0  0
   -0.0336   -2.9291    0.4870 C   0  0  1  0  0  0  0  0  0  0  0  0
    0.8548   -1.7418    0.8814 C   0  0  0  0  0  0  0  0  0  0  0  0
   -0.4912   -2.8890   -0.9877 C   0  0  0  0  0  0  0  0  0  0  0  0
    0.6991   -4.2507    0.7497 C   0  0  0  0  0  0  0  0  0  0  0  0
   -1.1897   -1.5988   -1.4147 C   0  0  0  0  0  0  0  0  0  0  0  0
   -3.1311   -0.2064   -0.6953 C   0  0  0  0  0  0  0  0  0  0  0  0
   -4.2364    0.0038    0.1219 C   0  0  0  0  0  0  0  0  0  0  0  0
   -5.0177    1.1455    0.0046 C   0  0  0  0  0  0  0  0  0  0  0  0
   -3.6743    1.8444   -1.6568 C   0  0  0  0  0  0  0  0  0  0  0  0
   -5.8988    0.0063    1.5703 C   0  0  0  0  0  0  0  0  0  0  0  0
    5.5908    0.4089    0.8587 H   0  0  0  0  0  0  0  0  0  0  0  0
    4.0140    1.9857   -1.2347 H   0  0  0  0  0  0  0  0  0  0  0  0
    3.9216   -0.8165   -1.4043 H   0  0  0  0  0  0  0  0  0  0  0  0
    3.2751    1.6076    1.7406 H   0  0  0  0  0  0  0  0  0  0  0  0
    3.1499   -0.7692    1.5752 H   0  0  0  0  0  0  0  0  0  0  0  0
   -0.9184   -2.9126    1.1349 H   0  0  0  0  0  0  0  0  0  0  0  0
    1.8057    3.0731   -0.5137 H   0  0  0  0  0  0  0  0  0  0  0  0
    2.6752    3.8578    0.8265 H   0  0  0  0  0  0  0  0  0  0  0  0
    0.3068   -0.8039    0.7440 H   0  0  0  0  0  0  0  0  0  0  0  0
    1.0992   -1.8216    1.9485 H   0  0  0  0  0  0  0  0  0  0  0  0
    0.3724   -3.0457   -1.6467 H   0  0  0  0  0  0  0  0  0  0  0  0
   -1.1708   -3.7335   -1.1641 H   0  0  0  0  0  0  0  0  0  0  0  0
    6.5728   -0.3205   -1.0641 H   0  0  0  0  0  0  0  0  0  0  0  0
    5.3204    2.7027    1.1910 H   0  0  0  0  0  0  0  0  0  0  0  0
    5.1187   -1.8604    0.9535 H   0  0  0  0  0  0  0  0  0  0  0  0
    1.0192   -4.3160    1.7951 H   0  0  0  0  0  0  0  0  0  0  0  0
    1.5857   -4.3570    0.1157 H   0  0  0  0  0  0  0  0  0  0  0  0
    0.0403   -5.1028    0.5505 H   0  0  0  0  0  0  0  0  0  0  0  0
   -0.4893   -0.7572   -1.3720 H   0  0  0  0  0  0  0  0  0  0  0  0
   -1.5047   -1.7000   -2.4602 H   0  0  0  0  0  0  0  0  0  0  0  0
    0.5399    1.9949    1.0577 H   0  0  0  0  0  0  0  0  0  0  0  0
   -2.6371   -2.0481    0.0781 H   0  0  0  0  0  0  0  0  0  0  0  0
   -4.5108   -1.6059    1.4879 H   0  0  0  0  0  0  0  0  0  0  0  0
   -3.4192    2.5908   -2.4014 H   0  0  0  0  0  0  0  0  0  0  0  0
   -6.5316   -0.3491    2.3710 H   0  0  0  0  0  0  0  0  0  0  0  0
  1 15  1  0  0  0  0
  1 16  1  0  0  0  0
  2 16  1  0  0  0  0
  2 19  1  0  0  0  0
  3 12  1  0  0  0  0
  3 40  1  0  0  0  0
  4 13  1  0  0  0  0
  4 41  1  0  0  0  0
  5 14  1  0  0  0  0
  5 42  1  0  0  0  0
  6 17  1  0  0  0  0
  6 48  1  0  0  0  0
  7 22  1  0  0  0  0
  7 23  1  0  0  0  0
  7 49  1  0  0  0  0
  8 23  2  0  0  0  0
  8 26  1  0  0  0  0
  9 24  1  0  0  0  0
  9 27  1  0  0  0  0
  9 50  1  0  0  0  0
 10 25  1  0  0  0  0
 10 26  2  0  0  0  0
 11 25  1  0  0  0  0
 11 27  2  0  0  0  0
 12 13  1  0  0  0  0
 12 14  1  0  0  0  0
 12 28  1  0  0  0  0
 13 15  1  0  0  0  0
 13 29  1  0  0  0  0
 14 16  1  0  0  0  0
 14 30  1  0  0  0  0
 15 17  1  0  0  0  0
 15 31  1  0  0  0  0
 16 32  1  0  0  0  0
 17 34  1  0  0  0  0
 17 35  1  0  0  0  0
 18 19  1  0  0  0  0
 18 20  1  0  0  0  0
 18 21  1  0  0  0  0
 18 33  1  0  0  0  0
 19 36  1  0  0  0  0
 19 37  1  0  0  0  0
 20 22  1  0  0  0  0
 20 38  1  0  0  0  0
 20 39  1  0  0  0  0
 21 43  1  0  0  0  0
 21 44  1  0  0  0  0
 21 45  1  0  0  0  0
 22 46  1  0  0  0  0
 22 47  1  0  0  0  0
 23 24  1  0  0  0  0
 24 25  2  0  0  0  0
 26 51  1  0  0  0  0
 27 52  1  0  0  0  0
M  END
> <PUBCHEM_COMPOUND_CID>
23724755

> <PUBCHEM_CONFORMER_RMSD>
1.2

> <PUBCHEM_CONFORMER_DIVERSEORDER>
1
396
489
82
100
485
578
333
265
102
194
2
577
5
121
21
590
408
411
575
439
6
266
33
153
131
450
10
409
227
165
40
91
157
67
42
54
356
65
322
215
73
231
68
291
14
28
74
103
391
461
51
369
558
15
12
4
87
239
128
294
446
22
357
555
169
440
52
152
585
296
9
550
261
118
83
191
458
199
299
25
593
7
321
594
78
269
187
164
24
62
375
221
400
514
248
125
297
3
109
95
276
317
428
509
338
149
283
41
542
127
137
318
113
110
312
330
184
224
351
39
53
122
389
136
252
193
494
46
234
470
178
406
13
205
77
105
147
581
89
230
380
84
18
483
425
197
445
72
354
506
515
108
126
366
592
385
600
352
302
320
324
430
598
116
363
387
371
257
111
114
260
19
478
300
64
30
533
141
97
464
135
264
182

> <PUBCHEM_MMFF94_PARTIAL_CHARGES>
32
1 -0.56
10 -0.57
11 -0.57
12 0.28
13 0.28
14 0.28
15 0.28
16 0.56
17 0.28
19 0.28
2 -0.56
22 0.37
23 0.41
24 -0.15
25 0.48
26 0.47
27 0.04
3 -0.68
4 -0.68
40 0.4
41 0.4
42 0.4
48 0.4
49 0.4
5 -0.68
50 0.27
51 0.15
52 0.15
6 -0.68
7 -0.87
8 -0.62
9 0.03

> <PUBCHEM_EFFECTIVE_ROTOR_COUNT>
9.2

> <PUBCHEM_PHARMACOPHORE_FEATURES>
19
1 1 acceptor
1 2 acceptor
1 21 hydrophobe
1 3 acceptor
1 3 donor
1 4 acceptor
1 4 donor
1 5 acceptor
1 5 donor
1 6 acceptor
1 6 donor
1 7 donor
1 9 donor
3 7 8 23 cation
3 8 10 26 cation
3 9 11 27 cation
5 9 11 24 25 27 rings
6 1 12 13 14 15 16 rings
6 8 10 23 24 25 26 rings

> <PUBCHEM_HEAVY_ATOM_COUNT>
27

> <PUBCHEM_ATOM_DEF_STEREO_COUNT>
5

> <PUBCHEM_ATOM_UDEF_STEREO_COUNT>
1

> <PUBCHEM_BOND_DEF_STEREO_COUNT>
0

> <PUBCHEM_BOND_UDEF_STEREO_COUNT>
0

> <PUBCHEM_ISOTOPIC_ATOM_COUNT>
0

> <PUBCHEM_COMPONENT_COUNT>
1

> <PUBCHEM_CACTVS_TAUTO_COUNT>
8

> <PUBCHEM_CONFORMER_ID>
016A02D300000001

> <PUBCHEM_MMFF94_ENERGY>
61.1762

> <PUBCHEM_FEATURE_SELFOVERLAP>
96.716

> <PUBCHEM_SHAPE_FINGERPRINT>
11578080 2 16879647977245720018
12596602 18 15123791773128595524
12769317 202 18338526329683910915
12788726 201 17168130261039081297
12925494 130 18198065987812475677
13402501 40 18272366477747711809
13583140 156 18198911482199422759
13828863 39 18335416859999229679
14950920 106 16629701658942258681
15081414 286 18261107538808847118
151778 21 18410860949349736129
15183329 4 17894909637653422372
19315092 285 13758058672438006855
21033648 29 18340216206068128664
21365058 113 17537984150084338607
21458453 9 17630023985335529433
21585483 110 18339371867612375365
22122407 14 18189044469204887441
23845131 108 18272655632385235771
3459 83 17531517784999141526
3680242 22 18340216266809113730
444735 79 17987502737950707579
5081480 168 17025980033654592023
5252454 2 18336276677691418699

> <PUBCHEM_SHAPE_MULTIPOLES>
495.53
14.28
4.09
1.33
4.55
2.04
-0.17
-8.63
1.03
-2.61
0.58
1.44
-0.14
0.73

> <PUBCHEM_SHAPE_SELFOVERLAP>
1035.648

> <PUBCHEM_SHAPE_VOLUME>
275.4

> <PUBCHEM_COORDINATE_TYPE>
2
5
10

$$$$

