44237293
  -OEChem-07051213102D

 28 27  0     1  0  0  0  0  0999 V2000
    2.5369   -1.9050    0.0000 S   0  0  0  0  0  0  0  0  0  0  0  0
    5.1350    2.5950    0.0000 O   0  0  0  0  0  0  0  0  0  0  0  0
    2.5369    1.0950    0.0000 O   0  0  0  0  0  0  0  0  0  0  0  0
    3.4030    2.5950    0.0000 O   0  0  0  0  0  0  0  0  0  0  0  0
    6.8671    1.5950    0.0000 O   0  0  0  0  0  0  0  0  0  0  0  0
    6.0010    0.0950    0.0000 O   0  0  0  0  0  0  0  0  0  0  0  0
    4.2690    1.0950    0.0000 C   0  0  3  0  0  0  0  0  0  0  0  0
    4.2690    0.0950    0.0000 C   0  0  0  0  0  0  0  0  0  0  0  0
    3.4030   -0.4050    0.0000 C   0  0  0  0  0  0  0  0  0  0  0  0
    5.1350    1.5950    0.0000 C   0  0  3  0  0  0  0  0  0  0  0  0
    3.4030   -1.4050    0.0000 C   0  0  0  0  0  0  0  0  0  0  0  0
    3.4030    1.5950    0.0000 C   0  0  0  0  0  0  0  0  0  0  0  0
    6.0010    1.0950    0.0000 C   0  0  0  0  0  0  0  0  0  0  0  0
    2.5369   -2.9050    0.0000 C   0  0  0  0  0  0  0  0  0  0  0  0
    4.2690    1.9450    0.0000 H   0  0  0  0  0  0  0  0  0  0  0  0
    4.4810   -0.4876    0.0000 H   0  0  0  0  0  0  0  0  0  0  0  0
    4.8796    0.2027    0.0000 H   0  0  0  0  0  0  0  0  0  0  0  0
    3.1909    0.1776    0.0000 H   0  0  0  0  0  0  0  0  0  0  0  0
    2.7924   -0.5127    0.0000 H   0  0  0  0  0  0  0  0  0  0  0  0
    5.8711    2.0200    0.0000 H   0  0  0  0  0  0  0  0  0  0  0  0
    3.6150   -1.9876    0.0000 H   0  0  0  0  0  0  0  0  0  0  0  0
    4.0135   -1.2973    0.0000 H   0  0  0  0  0  0  0  0  0  0  0  0
    5.6720    2.9050    0.0000 H   0  0  0  0  0  0  0  0  0  0  0  0
    2.0000    1.4050    0.0000 H   0  0  0  0  0  0  0  0  0  0  0  0
    1.9169   -2.9050    0.0000 H   0  0  0  0  0  0  0  0  0  0  0  0
    2.5369   -3.5250    0.0000 H   0  0  0  0  0  0  0  0  0  0  0  0
    3.1569   -2.9050    0.0000 H   0  0  0  0  0  0  0  0  0  0  0  0
    7.4040    1.2850    0.0000 H   0  0  0  0  0  0  0  0  0  0  0  0
  1 11  1  0  0  0  0
  1 14  1  0  0  0  0
  2 10  1  0  0  0  0
  2 23  1  0  0  0  0
  3 12  1  0  0  0  0
  3 24  1  0  0  0  0
  4 12  2  0  0  0  0
  5 13  1  0  0  0  0
  5 28  1  0  0  0  0
  6 13  2  0  0  0  0
  7  8  1  0  0  0  0
  7 10  1  0  0  0  0
  7 12  1  0  0  0  0
  7 15  1  0  0  0  0
  8  9  1  0  0  0  0
  8 16  1  0  0  0  0
  8 17  1  0  0  0  0
  9 11  1  0  0  0  0
  9 18  1  0  0  0  0
  9 19  1  0  0  0  0
 10 13  1  0  0  0  0
 10 20  1  0  0  0  0
 11 21  1  0  0  0  0
 11 22  1  0  0  0  0
 14 25  1  0  0  0  0
 14 26  1  0  0  0  0
 14 27  1  0  0  0  0
M  END
> <PUBCHEM_COMPOUND_CID>
44237293

> <PUBCHEM_COMPOUND_CANONICALIZED>
1

> <PUBCHEM_CACTVS_COMPLEXITY>
206

> <PUBCHEM_CACTVS_HBOND_ACCEPTOR>
6

> <PUBCHEM_CACTVS_HBOND_DONOR>
3

> <PUBCHEM_CACTVS_ROTATABLE_BOND>
7

> <PUBCHEM_CACTVS_SUBSKEYS>
AAADccBwOABAAAAAAAAAAAAAAAAAAAAAAAAAAAAAAAAAAAAAAAAAGgQACAAADRSkwAKCCAAAAggIAACQCAIAAAAAABAAAAFAAAABEBYgAAAAQAAFIAABAAHLSAAOAAAAAAAAAAAAAAAAAAAAAAAAAAAAAA==

> <PUBCHEM_IUPAC_OPENEYE_NAME>
2-hydroxy-3-(3-methylsulfanylpropyl)butanedioic acid

> <PUBCHEM_IUPAC_CAS_NAME>
2-hydroxy-3-[3-(methylthio)propyl]butanedioic acid

> <PUBCHEM_IUPAC_NAME>
2-hydroxy-3-(3-methylsulfanylpropyl)butanedioic acid

> <PUBCHEM_IUPAC_SYSTEMATIC_NAME>
2-(3-methylsulfanylpropyl)-3-oxidanyl-butanedioic acid

> <PUBCHEM_IUPAC_TRADITIONAL_NAME>
2-hydroxy-3-[3-(methylthio)propyl]succinic acid

> <PUBCHEM_IUPAC_INCHI>
InChI=1S/C8H14O5S/c1-14-4-2-3-5(7(10)11)6(9)8(12)13/h5-6,9H,2-4H2,1H3,(H,10,11)(H,12,13)

> <PUBCHEM_IUPAC_INCHIKEY>
SQXVIIOPMYSNCP-UHFFFAOYSA-N

> <PUBCHEM_XLOGP3_AA>
0.1

> <PUBCHEM_EXACT_MASS>
222.056195

> <PUBCHEM_MOLECULAR_FORMULA>
C8H14O5S

> <PUBCHEM_MOLECULAR_WEIGHT>
222.25876

> <PUBCHEM_OPENEYE_CAN_SMILES>
CSCCCC(C(C(=O)O)O)C(=O)O

> <PUBCHEM_OPENEYE_ISO_SMILES>
CSCCCC(C(C(=O)O)O)C(=O)O

> <PUBCHEM_CACTVS_TPSA>
120

> <PUBCHEM_MONOISOTOPIC_WEIGHT>
222.056195

> <PUBCHEM_TOTAL_CHARGE>
0

> <PUBCHEM_HEAVY_ATOM_COUNT>
14

> <PUBCHEM_ATOM_DEF_STEREO_COUNT>
0

> <PUBCHEM_ATOM_UDEF_STEREO_COUNT>
2

> <PUBCHEM_BOND_DEF_STEREO_COUNT>
0

> <PUBCHEM_BOND_UDEF_STEREO_COUNT>
0

> <PUBCHEM_ISOTOPIC_ATOM_COUNT>
0

> <PUBCHEM_COMPONENT_COUNT>
1

> <PUBCHEM_CACTVS_TAUTO_COUNT>
1

> <PUBCHEM_COORDINATE_TYPE>
1
5
255

> <PUBCHEM_BONDANNOTATIONS>
10  20  3
7  15  3

$$$$

