5012
  -OEChem-06261200283D

 33 35  0     0  0  0  0  0  0999 V2000
    5.6270   -0.9764    0.1837 O   0  5  0  0  0  0  0  0  0  0  0  0
    5.3371    1.1680   -0.1855 O   0  0  0  0  0  0  0  0  0  0  0  0
   -2.8550    0.1009   -0.0463 N   0  0  0  0  0  0  0  0  0  0  0  0
   -5.6367   -0.4952    0.1893 N   0  0  0  0  0  0  0  0  0  0  0  0
   -0.6543   -0.7551    0.1128 N   0  0  0  0  0  0  0  0  0  0  0  0
    4.8788    0.0160    0.0095 N   0  3  0  0  0  0  0  0  0  0  0  0
   -3.3679   -1.2045   -0.4836 C   0  0  0  0  0  0  0  0  0  0  0  0
   -3.6767    0.8087    0.9415 C   0  0  0  0  0  0  0  0  0  0  0  0
   -4.8400   -1.0959   -0.8794 C   0  0  0  0  0  0  0  0  0  0  0  0
   -5.1385    0.8445    0.4958 C   0  0  0  0  0  0  0  0  0  0  0  0
   -1.4711    0.3070   -0.0730 C   0  0  0  0  0  0  0  0  0  0  0  0
   -1.0277    1.5958   -0.2910 C   0  0  0  0  0  0  0  0  0  0  0  0
    0.6759   -0.5479    0.0840 C   0  0  0  0  0  0  0  0  0  0  0  0
    1.2252    0.7332   -0.1324 C   0  0  0  0  0  0  0  0  0  0  0  0
    0.3433    1.8061   -0.3200 C   0  0  0  0  0  0  0  0  0  0  0  0
    2.6187    0.9131   -0.1561 C   0  0  0  0  0  0  0  0  0  0  0  0
    1.5523   -1.6134    0.2707 C   0  0  0  0  0  0  0  0  0  0  0  0
    3.4719   -0.1702    0.0333 C   0  0  0  0  0  0  0  0  0  0  0  0
    2.9377   -1.4349    0.2467 C   0  0  0  0  0  0  0  0  0  0  0  0
   -3.2465   -1.9366    0.3251 H   0  0  0  0  0  0  0  0  0  0  0  0
   -2.8048   -1.5688   -1.3520 H   0  0  0  0  0  0  0  0  0  0  0  0
   -3.3385    1.8406    1.0887 H   0  0  0  0  0  0  0  0  0  0  0  0
   -3.5901    0.3002    1.9104 H   0  0  0  0  0  0  0  0  0  0  0  0
   -4.9420   -0.5046   -1.7982 H   0  0  0  0  0  0  0  0  0  0  0  0
   -5.2290   -2.0965   -1.0974 H   0  0  0  0  0  0  0  0  0  0  0  0
   -5.7479    1.2781    1.2961 H   0  0  0  0  0  0  0  0  0  0  0  0
   -5.2504    1.4946   -0.3812 H   0  0  0  0  0  0  0  0  0  0  0  0
   -6.6090   -0.4318   -0.1111 H   0  0  0  0  0  0  0  0  0  0  0  0
   -1.7036    2.4284   -0.4536 H   0  0  0  0  0  0  0  0  0  0  0  0
    0.7202    2.8115   -0.4936 H   0  0  0  0  0  0  0  0  0  0  0  0
    3.0122    1.9140   -0.3250 H   0  0  0  0  0  0  0  0  0  0  0  0
    1.1582   -2.6139    0.4399 H   0  0  0  0  0  0  0  0  0  0  0  0
    3.5660   -2.3089    0.3994 H   0  0  0  0  0  0  0  0  0  0  0  0
  1  6  1  0  0  0  0
  2  6  2  0  0  0  0
  3  7  1  0  0  0  0
  3  8  1  0  0  0  0
  3 11  1  0  0  0  0
  4  9  1  0  0  0  0
  4 10  1  0  0  0  0
  4 28  1  0  0  0  0
  5 11  2  0  0  0  0
  5 13  1  0  0  0  0
  6 18  1  0  0  0  0
  7  9  1  0  0  0  0
  7 20  1  0  0  0  0
  7 21  1  0  0  0  0
  8 10  1  0  0  0  0
  8 22  1  0  0  0  0
  8 23  1  0  0  0  0
  9 24  1  0  0  0  0
  9 25  1  0  0  0  0
 10 26  1  0  0  0  0
 10 27  1  0  0  0  0
 11 12  1  0  0  0  0
 12 15  2  0  0  0  0
 12 29  1  0  0  0  0
 13 14  2  0  0  0  0
 13 17  1  0  0  0  0
 14 15  1  0  0  0  0
 14 16  1  0  0  0  0
 15 30  1  0  0  0  0
 16 18  2  0  0  0  0
 16 31  1  0  0  0  0
 17 19  2  0  0  0  0
 17 32  1  0  0  0  0
 18 19  1  0  0  0  0
 19 33  1  0  0  0  0
M  CHG  2   1  -1   6   1
M  END
> <PUBCHEM_COMPOUND_CID>
5012

> <PUBCHEM_CONFORMER_RMSD>
0.6

> <PUBCHEM_CONFORMER_DIVERSEORDER>
1
4
3
2

> <PUBCHEM_MMFF94_PARTIAL_CHARGES>
24
1 -0.52
10 0.27
11 0.41
12 -0.15
13 0.31
15 -0.15
16 -0.15
17 -0.15
18 0.13
19 -0.15
2 -0.52
28 0.36
29 0.15
3 -0.84
30 0.15
31 0.15
32 0.15
33 0.15
4 -0.9
5 -0.62
6 0.91
7 0.37
8 0.37
9 0.27

> <PUBCHEM_EFFECTIVE_ROTOR_COUNT>
3.2

> <PUBCHEM_PHARMACOPHORE_FEATURES>
9
1 1 acceptor
1 1 anion
1 2 acceptor
1 4 cation
1 4 donor
3 3 5 11 cation
6 13 14 16 17 18 19 rings
6 3 4 7 8 9 10 rings
6 5 11 12 13 14 15 rings

> <PUBCHEM_HEAVY_ATOM_COUNT>
19

> <PUBCHEM_ATOM_DEF_STEREO_COUNT>
0

> <PUBCHEM_ATOM_UDEF_STEREO_COUNT>
0

> <PUBCHEM_BOND_DEF_STEREO_COUNT>
0

> <PUBCHEM_BOND_UDEF_STEREO_COUNT>
0

> <PUBCHEM_ISOTOPIC_ATOM_COUNT>
0

> <PUBCHEM_COMPONENT_COUNT>
1

> <PUBCHEM_CACTVS_TAUTO_COUNT>
1

> <PUBCHEM_CONFORMER_ID>
0000139400000001

> <PUBCHEM_MMFF94_ENERGY>
63.1659

> <PUBCHEM_FEATURE_SELFOVERLAP>
45.782

> <PUBCHEM_SHAPE_FINGERPRINT>
10090160 65 17989488524099897058
10906281 52 18269817800982883734
11287383 113 15625935417745094044
11401426 45 18412263930481674101
11471102 20 18343584027394997948
11806522 49 18412265029766435644
12107183 9 17613146795081022107
12236239 1 18260546723358992355
13167823 11 18333452028177695231
13288520 33 18334576845689274397
13583140 156 14923952258105200599
13760787 5 18059851748959645405
13862211 1 18342462551689741514
14251764 18 18334290968925051257
14573314 32 16515674580806603997
14576447 43 18337118869180833543
14787075 74 18413107247384161872
15048467 5 17967249818948533281
15196674 1 18339924912774443548
15788980 27 15410895149983025955
17834072 33 18259704479987546545
1813 80 17988350559450332285
19489759 90 16587742058181296121
200 152 18407761430508265289
20612939 158 18130505232621669517
20645477 70 18270684276133234211
21267235 1 18410848859059106303
21641784 216 17631437003611347084
221490 88 18055349146223766275
23402539 116 18407763642242369053
23402655 69 18411422847231290381
23559900 14 18188782639144681785
26918003 58 17704066300655828185
2871803 45 18202005451599846226
300161 21 18335989735310829113
34797466 226 16660636302926695368
34934 24 18340772649667718673
3545911 37 18334856121874863995
4214541 1 18335139808744102697
4340502 62 16200435762781503938
4463277 17 18411699889379940205
5104073 3 18409731742075333938
542803 24 17385441029255335729
602551 16 16081663166389994967
7495541 125 16009037120471711955

> <PUBCHEM_SHAPE_MULTIPOLES>
359.35
12.12
1.65
0.74
0.51
0.09
-0.01
-1.55
-0.41
-0.2
0.09
0.5
0
-0.84

> <PUBCHEM_SHAPE_SELFOVERLAP>
781.288

> <PUBCHEM_SHAPE_VOLUME>
195.1

> <PUBCHEM_COORDINATE_TYPE>
2
5
10

$$$$

