11954192
  -OEChem-07051213073D

 45 48  0     1  0  0  0  0  0999 V2000
    1.8834   -1.4148    0.6449 O   0  0  0  0  0  0  0  0  0  0  0  0
   -1.0481    0.6667   -1.0405 O   0  0  0  0  0  0  0  0  0  0  0  0
    1.3976    0.0166   -2.5833 O   0  0  0  0  0  0  0  0  0  0  0  0
   -4.3930   -2.3030    0.5567 O   0  0  0  0  0  0  0  0  0  0  0  0
    6.1291    0.6259    1.6558 O   0  0  0  0  0  0  0  0  0  0  0  0
    1.3287    0.0976   -1.1688 C   0  0  1  0  0  0  0  0  0  0  0  0
    1.0780   -1.2941   -0.5586 C   0  0  2  0  0  0  0  0  0  0  0  0
    2.6643    0.3791   -0.5802 C   0  0  0  0  0  0  0  0  0  0  0  0
    0.2776    1.1164   -0.7408 C   0  0  0  0  0  0  0  0  0  0  0  0
   -0.3718   -1.5268   -0.2234 C   0  0  0  0  0  0  0  0  0  0  0  0
    2.9002   -0.5124    0.4574 C   0  0  0  0  0  0  0  0  0  0  0  0
   -1.3436   -0.5546   -0.4919 C   0  0  0  0  0  0  0  0  0  0  0  0
   -2.6943   -0.8137   -0.2459 C   0  0  0  0  0  0  0  0  0  0  0  0
    3.5856    1.3653   -0.8873 C   0  0  0  0  0  0  0  0  0  0  0  0
   -0.7756   -2.7534    0.3239 C   0  0  0  0  0  0  0  0  0  0  0  0
    4.0437   -0.4526    1.2297 C   0  0  0  0  0  0  0  0  0  0  0  0
   -3.0818   -2.0359    0.3004 C   0  0  0  0  0  0  0  0  0  0  0  0
   -2.1226   -3.0039    0.5891 C   0  0  0  0  0  0  0  0  0  0  0  0
   -3.7317    0.2190   -0.5562 C   0  0  0  0  0  0  0  0  0  0  0  0
    4.7568    1.4356   -0.1283 C   0  0  0  0  0  0  0  0  0  0  0  0
    4.9831    0.5336    0.9245 C   0  0  0  0  0  0  0  0  0  0  0  0
   -4.0025    1.1416    0.6046 C   0  0  0  0  0  0  0  0  0  0  0  0
   -3.8808    2.4823    0.6450 C   0  0  0  0  0  0  0  0  0  0  0  0
   -4.1689    3.3441    1.8415 C   0  0  0  0  0  0  0  0  0  0  0  0
   -3.4135    3.2415   -0.5684 C   0  0  0  0  0  0  0  0  0  0  0  0
    1.4009   -2.0836   -1.2536 H   0  0  0  0  0  0  0  0  0  0  0  0
    0.3320    1.3533    0.3306 H   0  0  0  0  0  0  0  0  0  0  0  0
    0.4186    2.0582   -1.2843 H   0  0  0  0  0  0  0  0  0  0  0  0
    3.4058    2.0729   -1.6894 H   0  0  0  0  0  0  0  0  0  0  0  0
    0.5230   -0.2587   -2.9074 H   0  0  0  0  0  0  0  0  0  0  0  0
   -0.0414   -3.5266    0.5370 H   0  0  0  0  0  0  0  0  0  0  0  0
    4.2079   -1.1507    2.0434 H   0  0  0  0  0  0  0  0  0  0  0  0
   -2.4171   -3.9604    1.0124 H   0  0  0  0  0  0  0  0  0  0  0  0
   -3.4331    0.7553   -1.4614 H   0  0  0  0  0  0  0  0  0  0  0  0
   -4.6763   -0.2487   -0.8609 H   0  0  0  0  0  0  0  0  0  0  0  0
    5.4895    2.2050   -0.3593 H   0  0  0  0  0  0  0  0  0  0  0  0
   -4.3531    0.6503    1.5119 H   0  0  0  0  0  0  0  0  0  0  0  0
   -4.8942   -1.4823    0.6812 H   0  0  0  0  0  0  0  0  0  0  0  0
    6.6644    1.3611    1.3111 H   0  0  0  0  0  0  0  0  0  0  0  0
   -4.9780    4.0477    1.6214 H   0  0  0  0  0  0  0  0  0  0  0  0
   -3.2769    3.9112    2.1262 H   0  0  0  0  0  0  0  0  0  0  0  0
   -4.4733    2.7441    2.7054 H   0  0  0  0  0  0  0  0  0  0  0  0
   -2.3278    3.3771   -0.5346 H   0  0  0  0  0  0  0  0  0  0  0  0
   -3.8732    4.2366   -0.5910 H   0  0  0  0  0  0  0  0  0  0  0  0
   -3.6878    2.7736   -1.5162 H   0  0  0  0  0  0  0  0  0  0  0  0
  1  7  1  0  0  0  0
  1 11  1  0  0  0  0
  2  9  1  0  0  0  0
  2 12  1  0  0  0  0
  3  6  1  0  0  0  0
  3 30  1  0  0  0  0
  4 17  1  0  0  0  0
  4 38  1  0  0  0  0
  5 21  1  0  0  0  0
  5 39  1  0  0  0  0
  6  7  1  0  0  0  0
  6  8  1  0  0  0  0
  6  9  1  0  0  0  0
  7 10  1  0  0  0  0
  7 26  1  0  0  0  0
  8 11  2  0  0  0  0
  8 14  1  0  0  0  0
  9 27  1  0  0  0  0
  9 28  1  0  0  0  0
 10 12  2  0  0  0  0
 10 15  1  0  0  0  0
 11 16  1  0  0  0  0
 12 13  1  0  0  0  0
 13 17  2  0  0  0  0
 13 19  1  0  0  0  0
 14 20  2  0  0  0  0
 14 29  1  0  0  0  0
 15 18  2  0  0  0  0
 15 31  1  0  0  0  0
 16 21  2  0  0  0  0
 16 32  1  0  0  0  0
 17 18  1  0  0  0  0
 18 33  1  0  0  0  0
 19 22  1  0  0  0  0
 19 34  1  0  0  0  0
 19 35  1  0  0  0  0
 20 21  1  0  0  0  0
 20 36  1  0  0  0  0
 22 23  2  0  0  0  0
 22 37  1  0  0  0  0
 23 24  1  0  0  0  0
 23 25  1  0  0  0  0
 24 40  1  0  0  0  0
 24 41  1  0  0  0  0
 24 42  1  0  0  0  0
 25 43  1  0  0  0  0
 25 44  1  0  0  0  0
 25 45  1  0  0  0  0
M  END
> <PUBCHEM_COMPOUND_CID>
11954192

> <PUBCHEM_CONFORMER_RMSD>
0.6

> <PUBCHEM_CONFORMER_DIVERSEORDER>
5
14
6
18
12
7
1
11
9
19
8
16
3
2
4
15
13
17
10

> <PUBCHEM_MMFF94_PARTIAL_CHARGES>
34
1 -0.36
10 -0.14
11 0.08
12 0.08
13 -0.14
14 -0.15
15 -0.15
16 -0.15
17 0.08
18 -0.15
19 0.28
2 -0.36
20 -0.15
21 0.08
22 -0.29
23 -0.28
24 0.14
25 0.14
29 0.15
3 -0.68
30 0.4
31 0.15
32 0.15
33 0.15
36 0.15
37 0.15
38 0.45
39 0.45
4 -0.53
5 -0.53
6 0.42
7 0.42
8 -0.14
9 0.28

> <PUBCHEM_EFFECTIVE_ROTOR_COUNT>
2.6

> <PUBCHEM_PHARMACOPHORE_FEATURES>
11
1 1 acceptor
1 2 acceptor
1 3 acceptor
1 3 donor
1 4 donor
1 5 donor
3 23 24 25 hydrophobe
5 1 6 7 8 11 rings
6 10 12 13 15 17 18 rings
6 2 6 7 9 10 12 rings
6 8 11 14 16 20 21 rings

> <PUBCHEM_HEAVY_ATOM_COUNT>
25

> <PUBCHEM_ATOM_DEF_STEREO_COUNT>
2

> <PUBCHEM_ATOM_UDEF_STEREO_COUNT>
0

> <PUBCHEM_BOND_DEF_STEREO_COUNT>
0

> <PUBCHEM_BOND_UDEF_STEREO_COUNT>
0

> <PUBCHEM_ISOTOPIC_ATOM_COUNT>
0

> <PUBCHEM_COMPONENT_COUNT>
1

> <PUBCHEM_CACTVS_TAUTO_COUNT>
8

> <PUBCHEM_CONFORMER_ID>
00B6681000000005

> <PUBCHEM_MMFF94_ENERGY>
78.6333

> <PUBCHEM_FEATURE_SELFOVERLAP>
56.095

> <PUBCHEM_SHAPE_FINGERPRINT>
10042902 136 11599419409148041505
10319926 262 18408608067779311866
10646746 165 18333725840579283036
11049842 53 18126536094319071558
11725454 13 17676500470136575815
12107183 9 18126013891042036610
12236239 1 17631741452183357070
12390115 104 18336533988907912940
12422481 6 17844537810360767552
12596602 18 17560802078671651209
12633257 1 18273220806957038580
12788726 201 18124295143919523803
12892183 10 18339930329097819826
12930653 34 18408884044496640399
12969540 114 16008754589223079664
13140716 1 17836919006535055451
13583140 156 17458916916364076094
13965767 371 17915175947656360245
14178342 30 18342731919021834415
14251764 38 18040442048862812552
14251764 75 17608640949708943985
14341114 328 18201721734919414320
14466204 15 18409174315925017696
14565420 104 17829872576469249033
14739800 52 18042141971364212088
14950920 106 16701725112396602513
15163728 17 17096362998606063665
15209294 21 18410577318072661037
15238133 3 18408040724048401672
19246450 95 17408552957340719128
20510252 161 18336817616201296123
20739085 24 17843388829025551628
21033648 29 17604163549259700544
21267235 1 17917430861580220138
21401589 2 18041552650670568633
21756936 100 18187660072280030100
23522609 53 17774705525501521156
23557571 272 18189034456833864086
23559900 14 18335689594754813222
25147074 1 17774715364901889340
2838139 119 17023762224265185184
3117164 225 18127137591693332994
3633792 109 18057347135087409319
392239 28 18337379445373917025
46194498 28 5037370149268531881
469060 322 18267278994986677027
5104073 3 18270977769351151248
633830 44 17753324567915523317
7064713 232 18341618126669769816
7808743 9 18408881849731364065
9849439 229 18047182236109986897
9862522 239 17987804162797053469
9981440 41 18408603682222466899

> <PUBCHEM_SHAPE_MULTIPOLES>
485.14
10.71
3.43
1.43
7.43
0.44
-0.16
6.38
4.8
-5.77
1.07
0.68
0.56
-0.69

> <PUBCHEM_SHAPE_SELFOVERLAP>
1076.806

> <PUBCHEM_SHAPE_VOLUME>
259.5

> <PUBCHEM_COORDINATE_TYPE>
2
5
10

$$$$

