46173912
  -OEChem-07051213103D

 85 88  0     1  0  0  0  0  0999 V2000
    1.3407    1.1755   -2.6377 O   0  0  0  0  0  0  0  0  0  0  0  0
    7.3032    0.4880   -1.1529 O   0  0  0  0  0  0  0  0  0  0  0  0
   -4.7967    1.0339   -1.5329 O   0  0  0  0  0  0  0  0  0  0  0  0
   -6.9705    0.7473    0.3847 O   0  0  0  0  0  0  0  0  0  0  0  0
   -6.7483   -0.7407   -1.9682 O   0  0  0  0  0  0  0  0  0  0  0  0
    1.3250   -0.3905    0.8882 C   0  0  1  0  0  0  0  0  0  0  0  0
    1.8403   -0.0916   -0.5838 C   0  0  2  0  0  0  0  0  0  0  0  0
    3.4275    0.0610   -0.7507 C   0  0  2  0  0  0  0  0  0  0  0  0
   -0.2262   -0.7751    0.8238 C   0  0  2  0  0  0  0  0  0  0  0  0
    4.1930   -0.5933    0.4538 C   0  0  1  0  0  0  0  0  0  0  0  0
    2.1352   -1.5518    1.5485 C   0  0  0  0  0  0  0  0  0  0  0  0
    0.9825    1.0286   -1.2660 C   0  0  2  0  0  0  0  0  0  0  0  0
    3.4902   -1.8694    0.9104 C   0  0  0  0  0  0  0  0  0  0  0  0
   -0.9696    0.3595    0.1498 C   0  0  0  0  0  0  0  0  0  0  0  0
    5.7425   -0.7086    0.2700 C   0  0  0  0  0  0  0  0  0  0  0  0
    3.9113    1.5338   -0.8451 C   0  0  0  0  0  0  0  0  0  0  0  0
   -0.9321   -0.8700    2.2041 C   0  0  0  0  0  0  0  0  0  0  0  0
   -0.5301    0.7511   -1.2204 C   0  0  0  0  0  0  0  0  0  0  0  0
    1.5074    0.8865    1.7764 C   0  0  0  0  0  0  0  0  0  0  0  0
    3.7879   -0.6349   -2.1006 C   0  0  0  0  0  0  0  0  0  0  0  0
   -1.8880    0.9270    0.9440 C   0  0  0  0  0  0  0  0  0  0  0  0
   -0.5330   -2.0882    0.0558 C   0  0  0  0  0  0  0  0  0  0  0  0
   -1.9092    0.3026    2.3027 C   0  0  0  0  0  0  0  0  0  0  0  0
    5.3876    1.7564   -0.4943 C   0  0  0  0  0  0  0  0  0  0  0  0
    6.2316    0.4982   -0.5455 C   0  0  0  0  0  0  0  0  0  0  0  0
    6.2086   -2.0220   -0.3839 C   0  0  0  0  0  0  0  0  0  0  0  0
    6.4384   -0.6121    1.6466 C   0  0  0  0  0  0  0  0  0  0  0  0
   -2.7860    2.0799    0.6600 C   0  0  1  0  0  0  0  0  0  0  0  0
   -4.2630    1.6291    0.7428 C   0  0  0  0  0  0  0  0  0  0  0  0
   -2.4774    3.2393    1.6140 C   0  0  0  0  0  0  0  0  0  0  0  0
   -4.6468    0.4926   -0.2251 C   0  0  1  0  0  0  0  0  0  0  0  0
   -5.9370   -0.2300    0.2168 C   0  0  2  0  0  0  0  0  0  0  0  0
   -6.4528   -1.3660   -0.7063 C   0  0  0  0  0  0  0  0  0  0  0  0
   -7.7591   -1.9769   -0.1907 C   0  0  0  0  0  0  0  0  0  0  0  0
   -5.4270   -2.4690   -0.9884 C   0  0  0  0  0  0  0  0  0  0  0  0
    1.6159   -1.0028   -1.1536 H   0  0  0  0  0  0  0  0  0  0  0  0
    4.0875    0.1021    1.2948 H   0  0  0  0  0  0  0  0  0  0  0  0
    2.3084   -1.3146    2.6071 H   0  0  0  0  0  0  0  0  0  0  0  0
    1.5691   -2.4861    1.5760 H   0  0  0  0  0  0  0  0  0  0  0  0
    1.1779    1.9916   -0.7827 H   0  0  0  0  0  0  0  0  0  0  0  0
    3.3465   -2.5562    0.0687 H   0  0  0  0  0  0  0  0  0  0  0  0
    4.0918   -2.4093    1.6503 H   0  0  0  0  0  0  0  0  0  0  0  0
    3.7316    1.9260   -1.8539 H   0  0  0  0  0  0  0  0  0  0  0  0
    3.3264    2.1733   -0.1747 H   0  0  0  0  0  0  0  0  0  0  0  0
   -1.4996   -1.8059    2.2989 H   0  0  0  0  0  0  0  0  0  0  0  0
   -0.2354   -0.8773    3.0480 H   0  0  0  0  0  0  0  0  0  0  0  0
   -1.0613    1.6345   -1.5898 H   0  0  0  0  0  0  0  0  0  0  0  0
   -0.7840   -0.0455   -1.9311 H   0  0  0  0  0  0  0  0  0  0  0  0
    0.9020    1.7308    1.4356 H   0  0  0  0  0  0  0  0  0  0  0  0
    2.5362    1.2455    1.8006 H   0  0  0  0  0  0  0  0  0  0  0  0
    1.2306    0.6995    2.8188 H   0  0  0  0  0  0  0  0  0  0  0  0
    3.1811   -0.2621   -2.9296 H   0  0  0  0  0  0  0  0  0  0  0  0
    4.8221   -0.4655   -2.4086 H   0  0  0  0  0  0  0  0  0  0  0  0
    3.6204   -1.7157   -2.0508 H   0  0  0  0  0  0  0  0  0  0  0  0
   -1.6152   -2.2122   -0.0848 H   0  0  0  0  0  0  0  0  0  0  0  0
   -0.0904   -2.1224   -0.9424 H   0  0  0  0  0  0  0  0  0  0  0  0
   -0.1909   -2.9737    0.5994 H   0  0  0  0  0  0  0  0  0  0  0  0
   -2.9021   -0.0625    2.5811 H   0  0  0  0  0  0  0  0  0  0  0  0
   -1.5695    1.0065    3.0692 H   0  0  0  0  0  0  0  0  0  0  0  0
    5.8174    2.5022   -1.1725 H   0  0  0  0  0  0  0  0  0  0  0  0
    5.4748    2.1653    0.5193 H   0  0  0  0  0  0  0  0  0  0  0  0
    6.1445   -1.4362    2.3050 H   0  0  0  0  0  0  0  0  0  0  0  0
    6.1969    0.3282    2.1555 H   0  0  0  0  0  0  0  0  0  0  0  0
    5.9258   -2.8951    0.2133 H   0  0  0  0  0  0  0  0  0  0  0  0
    7.3009   -2.0459   -0.4816 H   0  0  0  0  0  0  0  0  0  0  0  0
    5.8092   -2.1627   -1.3896 H   0  0  0  0  0  0  0  0  0  0  0  0
    7.5295   -0.6420    1.5409 H   0  0  0  0  0  0  0  0  0  0  0  0
   -2.6120    2.4556   -0.3537 H   0  0  0  0  0  0  0  0  0  0  0  0
    0.8204    1.9119   -3.0018 H   0  0  0  0  0  0  0  0  0  0  0  0
   -4.4903    1.3317    1.7742 H   0  0  0  0  0  0  0  0  0  0  0  0
   -4.8879    2.5067    0.5282 H   0  0  0  0  0  0  0  0  0  0  0  0
   -2.7439    3.0030    2.6497 H   0  0  0  0  0  0  0  0  0  0  0  0
   -1.4154    3.5074    1.5837 H   0  0  0  0  0  0  0  0  0  0  0  0
   -3.0522    4.1265    1.3260 H   0  0  0  0  0  0  0  0  0  0  0  0
   -3.8536   -0.2584   -0.2741 H   0  0  0  0  0  0  0  0  0  0  0  0
   -5.7585   -0.6692    1.2075 H   0  0  0  0  0  0  0  0  0  0  0  0
   -3.9309    1.3744   -1.8142 H   0  0  0  0  0  0  0  0  0  0  0  0
   -6.7712    1.2603    1.1856 H   0  0  0  0  0  0  0  0  0  0  0  0
   -8.5534   -1.2256   -0.1212 H   0  0  0  0  0  0  0  0  0  0  0  0
   -7.6221   -2.4335    0.7947 H   0  0  0  0  0  0  0  0  0  0  0  0
   -8.1310   -2.7458   -0.8778 H   0  0  0  0  0  0  0  0  0  0  0  0
   -4.5535   -2.0763   -1.5196 H   0  0  0  0  0  0  0  0  0  0  0  0
   -5.0908   -2.9431   -0.0609 H   0  0  0  0  0  0  0  0  0  0  0  0
   -5.8512   -3.2433   -1.6381 H   0  0  0  0  0  0  0  0  0  0  0  0
   -7.0911   -1.4240   -2.5694 H   0  0  0  0  0  0  0  0  0  0  0  0
  1 12  1  0  0  0  0
  1 69  1  0  0  0  0
  2 25  2  0  0  0  0
  3 31  1  0  0  0  0
  3 77  1  0  0  0  0
  4 32  1  0  0  0  0
  4 78  1  0  0  0  0
  5 33  1  0  0  0  0
  5 85  1  0  0  0  0
  6  7  1  0  0  0  0
  6  9  1  0  0  0  0
  6 11  1  0  0  0  0
  6 19  1  0  0  0  0
  7  8  1  0  0  0  0
  7 12  1  0  0  0  0
  7 36  1  0  0  0  0
  8 10  1  0  0  0  0
  8 16  1  0  0  0  0
  8 20  1  0  0  0  0
  9 14  1  0  0  0  0
  9 17  1  0  0  0  0
  9 22  1  0  0  0  0
 10 13  1  0  0  0  0
 10 15  1  0  0  0  0
 10 37  1  0  0  0  0
 11 13  1  0  0  0  0
 11 38  1  0  0  0  0
 11 39  1  0  0  0  0
 12 18  1  0  0  0  0
 12 40  1  0  0  0  0
 13 41  1  0  0  0  0
 13 42  1  0  0  0  0
 14 18  1  0  0  0  0
 14 21  2  0  0  0  0
 15 25  1  0  0  0  0
 15 26  1  0  0  0  0
 15 27  1  0  0  0  0
 16 24  1  0  0  0  0
 16 43  1  0  0  0  0
 16 44  1  0  0  0  0
 17 23  1  0  0  0  0
 17 45  1  0  0  0  0
 17 46  1  0  0  0  0
 18 47  1  0  0  0  0
 18 48  1  0  0  0  0
 19 49  1  0  0  0  0
 19 50  1  0  0  0  0
 19 51  1  0  0  0  0
 20 52  1  0  0  0  0
 20 53  1  0  0  0  0
 20 54  1  0  0  0  0
 21 23  1  0  0  0  0
 21 28  1  0  0  0  0
 22 55  1  0  0  0  0
 22 56  1  0  0  0  0
 22 57  1  0  0  0  0
 23 58  1  0  0  0  0
 23 59  1  0  0  0  0
 24 25  1  0  0  0  0
 24 60  1  0  0  0  0
 24 61  1  0  0  0  0
 26 64  1  0  0  0  0
 26 65  1  0  0  0  0
 26 66  1  0  0  0  0
 27 62  1  0  0  0  0
 27 63  1  0  0  0  0
 27 67  1  0  0  0  0
 28 29  1  0  0  0  0
 28 30  1  0  0  0  0
 28 68  1  0  0  0  0
 29 31  1  0  0  0  0
 29 70  1  0  0  0  0
 29 71  1  0  0  0  0
 30 72  1  0  0  0  0
 30 73  1  0  0  0  0
 30 74  1  0  0  0  0
 31 32  1  0  0  0  0
 31 75  1  0  0  0  0
 32 33  1  0  0  0  0
 32 76  1  0  0  0  0
 33 34  1  0  0  0  0
 33 35  1  0  0  0  0
 34 79  1  0  0  0  0
 34 80  1  0  0  0  0
 34 81  1  0  0  0  0
 35 82  1  0  0  0  0
 35 83  1  0  0  0  0
 35 84  1  0  0  0  0
M  END
> <PUBCHEM_COMPOUND_CID>
46173912

> <PUBCHEM_CONFORMER_RMSD>
1

> <PUBCHEM_CONFORMER_DIVERSEORDER>
1
49
11
52
22
46
27
3
14
60
62
23
21
38
58
59
12
20
4
61
53
24
6
55
30
50
34
16
57
29
5
39
45
10
13
43
18
56
44
7
35
48
31
51
37
8
41
2
15
26
54
40
9
33
36
25
32
19
28
47
17
42

> <PUBCHEM_MMFF94_PARTIAL_CHARGES>
22
1 -0.68
12 0.28
14 -0.28
15 0.06
18 0.14
2 -0.57
21 -0.28
23 0.14
24 0.06
25 0.45
28 0.14
3 -0.68
31 0.28
32 0.28
33 0.28
4 -0.68
5 -0.68
69 0.4
77 0.4
78 0.4
85 0.4
9 0.14

> <PUBCHEM_EFFECTIVE_ROTOR_COUNT>
6.8

> <PUBCHEM_PHARMACOPHORE_FEATURES>
16
1 1 acceptor
1 1 donor
1 2 acceptor
1 3 acceptor
1 3 donor
1 30 hydrophobe
1 4 acceptor
1 4 donor
1 5 acceptor
1 5 donor
3 15 26 27 hydrophobe
3 33 34 35 hydrophobe
5 9 14 17 21 23 rings
6 6 7 8 10 11 13 rings
6 6 7 9 12 14 18 rings
6 8 10 15 16 24 25 rings

> <PUBCHEM_HEAVY_ATOM_COUNT>
35

> <PUBCHEM_ATOM_DEF_STEREO_COUNT>
8

> <PUBCHEM_ATOM_UDEF_STEREO_COUNT>
1

> <PUBCHEM_BOND_DEF_STEREO_COUNT>
0

> <PUBCHEM_BOND_UDEF_STEREO_COUNT>
0

> <PUBCHEM_ISOTOPIC_ATOM_COUNT>
0

> <PUBCHEM_COMPONENT_COUNT>
1

> <PUBCHEM_CACTVS_TAUTO_COUNT>
2

> <PUBCHEM_CONFORMER_ID>
02C08ED800000001

> <PUBCHEM_MMFF94_ENERGY>
149.6351

> <PUBCHEM_FEATURE_SELFOVERLAP>
81.339

> <PUBCHEM_SHAPE_FINGERPRINT>
10076449 9 15864065456330732264
10190108 129 13840528641480378359
10554248 39 16702297984125325658
10674148 151 8790884108343260506
11135926 11 18341618161683967223
11578080 2 18192718830579358576
11963148 33 17313392231221455559
11991303 11 15194992813807995475
12011746 2 16343702149002300017
12107698 1 18186519903711660969
12166972 35 18201719535606379021
12236239 1 18413107285738050565
12422481 6 17417523757048163200
12596602 18 18410294726399315197
12645989 146 18339072809107554782
13673619 4 17095528370923595913
13690498 29 18411145715231563101
13782708 43 17603302691246993862
14068700 675 18410012113768285725
14294032 229 18115577292343330865
14767858 380 18413390925826736587
14856354 85 18186519883196342135
15131766 46 13109237917766719382
15142383 8 5545204904514017163
15183329 4 18201722838293629215
15238133 3 11312054357353030299
15328829 1 18342742892410120247
15461852 350 18334289882055680174
1577012 14 18339636836850237224
17349148 13 18272923956060491001
17980427 23 18199733886310248245
18608769 82 15430042041068629236
18681886 176 18343025454477527025
20028762 73 18341332275179971926
20105231 36 14418128500736315860
21033648 29 15769485543150106177
21150785 3 18343301452843407931
21223535 225 16701751557258856469
21267235 1 5039958425662866028
21781051 124 16515678953800827742
21859007 373 14117527523270607398
22149856 69 16660627575537228523
23522609 53 17970038150657412369
23559900 14 17703783670280654497
23569917 315 18341611555465980810
23569943 247 17762899166932052306
23576562 1 15338256949529394487
24771293 8 17989485230192615820
2838139 119 16558752317370952173
335352 9 17917988396291790666
34797466 226 16950563256091148144
3633792 109 17917435358341893897
4015057 19 16845562102861639181
4340502 62 17530686537208028494
474113 269 15840730589879278650
484989 97 17843954859135448635
6004065 56 17988642943654868172
6009941 240 15792001308536935587
6086070 43 15913326853845788721
6669772 16 18047761390579318505
7495541 125 17530686498041606729
77296 10 18412262818027122479

> <PUBCHEM_SHAPE_MULTIPOLES>
690.94
19
2.36
2.01
10.71
0.38
0.05
-6.5
4.85
2.2
-0.33
-0.54
0.17
-2.01

> <PUBCHEM_SHAPE_SELFOVERLAP>
1445.77

> <PUBCHEM_SHAPE_VOLUME>
391.4

> <PUBCHEM_COORDINATE_TYPE>
2
5
10

$$$$

