442541
  -OEChem-07051212583D

 64 65  0     0  0  0  0  0  0999 V2000
    4.3068    2.1539    1.1958 O   0  0  0  0  0  0  0  0  0  0  0  0
    2.6879   -1.7260   -1.0856 O   0  0  0  0  0  0  0  0  0  0  0  0
    0.1063    2.2940   -1.0758 O   0  0  0  0  0  0  0  0  0  0  0  0
   -2.0811    1.0455   -2.1373 O   0  0  0  0  0  0  0  0  0  0  0  0
    0.2817   -2.5831   -0.1223 O   0  0  0  0  0  0  0  0  0  0  0  0
   -4.2953   -1.7898    1.0130 O   0  0  0  0  0  0  0  0  0  0  0  0
   -5.2446    0.0776   -1.5698 O   0  0  0  0  0  0  0  0  0  0  0  0
    4.7273   -1.1561    1.5365 O   0  0  0  0  0  0  0  0  0  0  0  0
   -2.9563   -3.6896    2.0294 O   0  0  0  0  0  0  0  0  0  0  0  0
    0.3354   -0.3973   -1.9092 C   0  0  0  0  0  0  0  0  0  0  0  0
    1.4007    0.2856   -1.0779 C   0  0  0  0  0  0  0  0  0  0  0  0
   -0.8899   -0.7656   -1.1357 C   0  0  0  0  0  0  0  0  0  0  0  0
    3.5125    0.2050    0.0594 C   0  0  0  0  0  0  0  0  0  0  0  0
   -6.1345    1.8620    0.5200 C   0  0  0  0  0  0  0  0  0  0  0  0
    2.5316   -0.4242   -0.7071 C   0  0  0  0  0  0  0  0  0  0  0  0
   -4.6506    1.6109    0.1987 C   0  0  0  0  0  0  0  0  0  0  0  0
   -3.1758   -0.3805   -0.5598 C   0  0  0  0  0  0  0  0  0  0  0  0
    1.2247    1.6077   -0.7025 C   0  0  0  0  0  0  0  0  0  0  0  0
   -2.0591   -0.0196   -1.2845 C   0  0  0  0  0  0  0  0  0  0  0  0
    2.2056    2.2370    0.0638 C   0  0  0  0  0  0  0  0  0  0  0  0
    3.3496    1.5356    0.4448 C   0  0  0  0  0  0  0  0  0  0  0  0
   -0.8640   -1.8554   -0.2654 C   0  0  0  0  0  0  0  0  0  0  0  0
   -4.4253    0.4165   -0.7192 C   0  0  0  0  0  0  0  0  0  0  0  0
    5.9720   -0.5333   -0.4297 C   0  0  0  0  0  0  0  0  0  0  0  0
    4.7086   -0.5289    0.4589 C   0  0  0  0  0  0  0  0  0  0  0  0
   -3.1764   -1.4533    0.3070 C   0  0  0  0  0  0  0  0  0  0  0  0
   -2.0072   -2.1994    0.4558 C   0  0  0  0  0  0  0  0  0  0  0  0
   -6.3094    3.0659    1.4495 C   0  0  0  0  0  0  0  0  0  0  0  0
   -6.7485    0.6182    1.1662 C   0  0  0  0  0  0  0  0  0  0  0  0
    2.0308    3.6637    0.4762 C   0  0  0  0  0  0  0  0  0  0  0  0
    6.2917   -1.9470   -0.9186 C   0  0  0  0  0  0  0  0  0  0  0  0
    7.1522    0.0419    0.3472 C   0  0  0  0  0  0  0  0  0  0  0  0
   -1.9796   -3.3391    1.3661 C   0  0  0  0  0  0  0  0  0  0  0  0
    4.1721    2.0673    2.6119 C   0  0  0  0  0  0  0  0  0  0  0  0
    0.0989    0.2315   -2.7774 H   0  0  0  0  0  0  0  0  0  0  0  0
    0.7298   -1.2863   -2.4184 H   0  0  0  0  0  0  0  0  0  0  0  0
   -6.6750    2.0663   -0.4127 H   0  0  0  0  0  0  0  0  0  0  0  0
   -4.0917    1.4522    1.1291 H   0  0  0  0  0  0  0  0  0  0  0  0
   -4.2240    2.4902   -0.2977 H   0  0  0  0  0  0  0  0  0  0  0  0
    5.7811    0.1053   -1.3006 H   0  0  0  0  0  0  0  0  0  0  0  0
   -5.8048    2.9047    2.4081 H   0  0  0  0  0  0  0  0  0  0  0  0
   -7.3694    3.2531    1.6501 H   0  0  0  0  0  0  0  0  0  0  0  0
   -5.8898    3.9686    0.9933 H   0  0  0  0  0  0  0  0  0  0  0  0
   -6.2016    0.3288    2.0702 H   0  0  0  0  0  0  0  0  0  0  0  0
   -7.7884    0.8097    1.4538 H   0  0  0  0  0  0  0  0  0  0  0  0
   -6.7608   -0.2382    0.4863 H   0  0  0  0  0  0  0  0  0  0  0  0
    1.4862    3.7158    1.4243 H   0  0  0  0  0  0  0  0  0  0  0  0
    1.4767    4.2351   -0.2763 H   0  0  0  0  0  0  0  0  0  0  0  0
    2.9908    4.1775    0.5930 H   0  0  0  0  0  0  0  0  0  0  0  0
    7.1935   -1.9500   -1.5395 H   0  0  0  0  0  0  0  0  0  0  0  0
    6.4506   -2.6337   -0.0801 H   0  0  0  0  0  0  0  0  0  0  0  0
    5.4692   -2.3459   -1.5204 H   0  0  0  0  0  0  0  0  0  0  0  0
    7.3948   -0.5717    1.2218 H   0  0  0  0  0  0  0  0  0  0  0  0
    6.9267    1.0514    0.7068 H   0  0  0  0  0  0  0  0  0  0  0  0
    8.0441    0.1001   -0.2853 H   0  0  0  0  0  0  0  0  0  0  0  0
    3.4135   -2.1390   -0.5916 H   0  0  0  0  0  0  0  0  0  0  0  0
   -0.2464    1.9472   -1.9087 H   0  0  0  0  0  0  0  0  0  0  0  0
   -2.9669    1.4394   -2.1757 H   0  0  0  0  0  0  0  0  0  0  0  0
   -1.0343   -3.8995    1.4520 H   0  0  0  0  0  0  0  0  0  0  0  0
    0.8065   -2.5589   -0.9362 H   0  0  0  0  0  0  0  0  0  0  0  0
   -4.0790   -2.3743    1.7547 H   0  0  0  0  0  0  0  0  0  0  0  0
    3.3334    2.6816    2.9526 H   0  0  0  0  0  0  0  0  0  0  0  0
    4.0290    1.0333    2.9396 H   0  0  0  0  0  0  0  0  0  0  0  0
    5.0899    2.4513    3.0656 H   0  0  0  0  0  0  0  0  0  0  0  0
  1 21  1  0  0  0  0
  1 34  1  0  0  0  0
  2 15  1  0  0  0  0
  2 56  1  0  0  0  0
  3 18  1  0  0  0  0
  3 57  1  0  0  0  0
  4 19  1  0  0  0  0
  4 58  1  0  0  0  0
  5 22  1  0  0  0  0
  5 60  1  0  0  0  0
  6 26  1  0  0  0  0
  6 61  1  0  0  0  0
  7 23  2  0  0  0  0
  8 25  2  0  0  0  0
  9 33  2  0  0  0  0
 10 11  1  0  0  0  0
 10 12  1  0  0  0  0
 10 35  1  0  0  0  0
 10 36  1  0  0  0  0
 11 15  2  0  0  0  0
 11 18  1  0  0  0  0
 12 19  1  0  0  0  0
 12 22  2  0  0  0  0
 13 15  1  0  0  0  0
 13 21  2  0  0  0  0
 13 25  1  0  0  0  0
 14 16  1  0  0  0  0
 14 28  1  0  0  0  0
 14 29  1  0  0  0  0
 14 37  1  0  0  0  0
 16 23  1  0  0  0  0
 16 38  1  0  0  0  0
 16 39  1  0  0  0  0
 17 19  2  0  0  0  0
 17 23  1  0  0  0  0
 17 26  1  0  0  0  0
 18 20  2  0  0  0  0
 20 21  1  0  0  0  0
 20 30  1  0  0  0  0
 22 27  1  0  0  0  0
 24 25  1  0  0  0  0
 24 31  1  0  0  0  0
 24 32  1  0  0  0  0
 24 40  1  0  0  0  0
 26 27  2  0  0  0  0
 27 33  1  0  0  0  0
 28 41  1  0  0  0  0
 28 42  1  0  0  0  0
 28 43  1  0  0  0  0
 29 44  1  0  0  0  0
 29 45  1  0  0  0  0
 29 46  1  0  0  0  0
 30 47  1  0  0  0  0
 30 48  1  0  0  0  0
 30 49  1  0  0  0  0
 31 50  1  0  0  0  0
 31 51  1  0  0  0  0
 31 52  1  0  0  0  0
 32 53  1  0  0  0  0
 32 54  1  0  0  0  0
 32 55  1  0  0  0  0
 33 59  1  0  0  0  0
 34 62  1  0  0  0  0
 34 63  1  0  0  0  0
 34 64  1  0  0  0  0
M  END
> <PUBCHEM_COMPOUND_CID>
442541

> <PUBCHEM_CONFORMER_RMSD>
1

> <PUBCHEM_CONFORMER_DIVERSEORDER>
1
16
88
55
73
6
53
47
40
89
44
90
79
2
39
52
65
22
23
93
92
63
24
36
14
87
37
94
49
76
86
78
72
59
81
70
60
50
54
21
66
4
42
46
48
74
85
41
5
27
91
68
11
58
9
35
61
45
20
15
3
25
83
38
10
43
69
33
51
82
62
57
26
32
84
31
19
29
28
64
71
13
7
56
18
77
80
8
75
30
67
12
34
17

> <PUBCHEM_MMFF94_PARTIAL_CHARGES>
35
1 -0.36
10 0.29
11 -0.14
12 -0.14
13 0.09
15 0.08
16 0.06
17 0.09
18 0.08
19 0.08
2 -0.53
20 -0.14
21 0.08
22 0.08
23 0.42
24 0.06
25 0.42
26 0.08
27 0.09
3 -0.53
30 0.14
33 0.42
34 0.28
4 -0.53
5 -0.53
56 0.45
57 0.45
58 0.45
59 0.06
6 -0.53
60 0.45
61 0.45
7 -0.57
8 -0.57
9 -0.57

> <PUBCHEM_EFFECTIVE_ROTOR_COUNT>
9

> <PUBCHEM_PHARMACOPHORE_FEATURES>
13
1 1 acceptor
1 2 donor
1 3 donor
1 4 donor
1 5 donor
1 6 donor
1 7 acceptor
1 8 acceptor
1 9 acceptor
3 14 28 29 hydrophobe
3 24 31 32 hydrophobe
6 11 13 15 18 20 21 rings
6 12 17 19 22 26 27 rings

> <PUBCHEM_HEAVY_ATOM_COUNT>
34

> <PUBCHEM_ATOM_DEF_STEREO_COUNT>
0

> <PUBCHEM_ATOM_UDEF_STEREO_COUNT>
0

> <PUBCHEM_BOND_DEF_STEREO_COUNT>
0

> <PUBCHEM_BOND_UDEF_STEREO_COUNT>
0

> <PUBCHEM_ISOTOPIC_ATOM_COUNT>
0

> <PUBCHEM_COMPONENT_COUNT>
1

> <PUBCHEM_CACTVS_TAUTO_COUNT>
998

> <PUBCHEM_CONFORMER_ID>
0006C0AD00000001

> <PUBCHEM_MMFF94_ENERGY>
124.0451

> <PUBCHEM_FEATURE_SELFOVERLAP>
65.978

> <PUBCHEM_SHAPE_FINGERPRINT>
10319926 262 18341889650012310843
10674148 151 18410008880295851610
10692045 39 18260264178898592711
10906281 52 18336254713291854188
10928967 22 16271103530818880978
11045977 3 18341619178783828742
11370993 144 18337957796510336180
12107183 9 18411140255199066624
12166972 35 17604158033957390744
12633257 1 18343863320887129005
13140716 1 18270959042623684263
13402501 40 18412265051716409438
13692114 37 18412540978139231379
13726171 33 17913175751517268404
13914758 101 17240764029234253439
14020679 6 18201997733200912867
14849402 71 18409163281700723732
15238133 3 18409158922593417396
15361156 5 18410294679534425276
15537594 2 16702310052618891842
16110190 28 18131064901087921972
16112460 7 18334287690884758376
1813 80 16343434899194579878
20511986 3 16081385063068054318
20715895 44 17749387135161464217
21033648 29 17895489054822855650
22122407 14 17603300436251864305
23559900 14 18202006482592386428
244849 19 17971162989896989815
24893992 56 18409165542071722881
2838139 119 17603872230218511881
3117164 225 18341609274673679169
392239 28 18337938036267868241
4073 2 18341895135202096840
4144715 1 18269549430114852480
508706 21 18058743406963810215
5104073 3 18271249313667134448
6086070 43 16660929876921341784
6328613 192 18412258403323462420
6371380 46 18412548746806057389
6823239 73 18271530785018641242
7226269 152 18261111924034058737
9981440 41 18114464466437839967

> <PUBCHEM_SHAPE_MULTIPOLES>
646.88
15.97
3.73
1.77
0.6
0.18
-0.32
4.51
-4.93
1.66
-2.06
0.32
-0.06
1.47

> <PUBCHEM_SHAPE_SELFOVERLAP>
1383.139

> <PUBCHEM_SHAPE_VOLUME>
360.1

> <PUBCHEM_COORDINATE_TYPE>
2
5
10

$$$$

