441106
  -OEChem-07051212523D

 43 46  0     0  0  0  0  0  0999 V2000
   -0.2971    2.4389   -0.0145 O   0  0  0  0  0  0  0  0  0  0  0  0
    2.1751    2.5063   -0.0062 O   0  0  0  0  0  0  0  0  0  0  0  0
   -2.8107    2.3666   -0.0223 O   0  0  0  0  0  0  0  0  0  0  0  0
   -2.6244   -3.1495   -0.0041 O   0  0  0  0  0  0  0  0  0  0  0  0
    4.7081    2.5680   -0.0038 O   0  0  0  0  0  0  0  0  0  0  0  0
   -5.0101   -1.8392   -0.0150 O   0  0  0  0  0  0  0  0  0  0  0  0
   -5.7500    1.2451   -1.0861 O   0  0  0  0  0  0  0  0  0  0  0  0
   -5.7472    1.2650    1.2069 N   0  0  0  0  0  0  0  0  0  0  0  0
    1.0311   -0.9936    0.0005 C   0  0  0  0  0  0  0  0  0  0  0  0
    0.9928    0.4150   -0.0043 C   0  0  0  0  0  0  0  0  0  0  0  0
    2.2750   -1.6478    0.0061 C   0  0  0  0  0  0  0  0  0  0  0  0
   -1.4573    0.3494   -0.0110 C   0  0  0  0  0  0  0  0  0  0  0  0
   -1.4189   -1.0617   -0.0062 C   0  0  0  0  0  0  0  0  0  0  0  0
    3.4814   -0.9281    0.0067 C   0  0  0  0  0  0  0  0  0  0  0  0
    3.4428    0.4830    0.0019 C   0  0  0  0  0  0  0  0  0  0  0  0
   -0.2510    1.0690   -0.0099 C   0  0  0  0  0  0  0  0  0  0  0  0
   -0.1751   -1.7146   -0.0004 C   0  0  0  0  0  0  0  0  0  0  0  0
    2.1991    1.1358   -0.0035 C   0  0  0  0  0  0  0  0  0  0  0  0
   -2.7010    1.0028   -0.0170 C   0  0  0  0  0  0  0  0  0  0  0  0
   -2.6249   -1.7819   -0.0074 C   0  0  0  0  0  0  0  0  0  0  0  0
    2.3182   -3.1524    0.0108 C   0  0  0  0  0  0  0  0  0  0  0  0
    4.6490    1.2032    0.0021 C   0  0  0  0  0  0  0  0  0  0  0  0
    4.7248   -1.5816    0.0120 C   0  0  0  0  0  0  0  0  0  0  0  0
   -3.8896    0.2728   -0.0182 C   0  0  0  0  0  0  0  0  0  0  0  0
   -3.8517   -1.1179   -0.0134 C   0  0  0  0  0  0  0  0  0  0  0  0
    5.8758    0.5391    0.0070 C   0  0  0  0  0  0  0  0  0  0  0  0
    5.9136   -0.8517    0.0121 C   0  0  0  0  0  0  0  0  0  0  0  0
   -5.1778    0.9599   -0.0229 C   0  0  0  0  0  0  0  0  0  0  0  0
   -0.1841   -2.7995    0.0346 H   0  0  0  0  0  0  0  0  0  0  0  0
    2.2623   -3.5298    1.0366 H   0  0  0  0  0  0  0  0  0  0  0  0
    1.5145   -3.5978   -0.5826 H   0  0  0  0  0  0  0  0  0  0  0  0
    3.2013   -3.5727   -0.4747 H   0  0  0  0  0  0  0  0  0  0  0  0
    4.8384   -2.6592    0.0469 H   0  0  0  0  0  0  0  0  0  0  0  0
    6.8067    1.0999    0.0086 H   0  0  0  0  0  0  0  0  0  0  0  0
    6.8689   -1.3686    0.0230 H   0  0  0  0  0  0  0  0  0  0  0  0
   -1.1174    2.7498   -0.4278 H   0  0  0  0  0  0  0  0  0  0  0  0
    1.3663    2.8262   -0.4348 H   0  0  0  0  0  0  0  0  0  0  0  0
   -3.7349    2.6597   -0.0199 H   0  0  0  0  0  0  0  0  0  0  0  0
   -3.5463   -3.4603   -0.0060 H   0  0  0  0  0  0  0  0  0  0  0  0
    3.8216    2.9561    0.0020 H   0  0  0  0  0  0  0  0  0  0  0  0
   -5.7833   -1.2528   -0.0166 H   0  0  0  0  0  0  0  0  0  0  0  0
   -5.2936    1.0309    2.0843 H   0  0  0  0  0  0  0  0  0  0  0  0
   -6.6439    1.7361    1.2645 H   0  0  0  0  0  0  0  0  0  0  0  0
  1 16  1  0  0  0  0
  1 36  1  0  0  0  0
  2 18  1  0  0  0  0
  2 37  1  0  0  0  0
  3 19  1  0  0  0  0
  3 38  1  0  0  0  0
  4 20  1  0  0  0  0
  4 39  1  0  0  0  0
  5 22  1  0  0  0  0
  5 40  1  0  0  0  0
  6 25  1  0  0  0  0
  6 41  1  0  0  0  0
  7 28  2  0  0  0  0
  8 28  1  0  0  0  0
  8 42  1  0  0  0  0
  8 43  1  0  0  0  0
  9 10  1  0  0  0  0
  9 11  1  0  0  0  0
  9 17  2  0  0  0  0
 10 16  2  0  0  0  0
 10 18  1  0  0  0  0
 11 14  2  0  0  0  0
 11 21  1  0  0  0  0
 12 13  2  0  0  0  0
 12 16  1  0  0  0  0
 12 19  1  0  0  0  0
 13 17  1  0  0  0  0
 13 20  1  0  0  0  0
 14 15  1  0  0  0  0
 14 23  1  0  0  0  0
 15 18  2  0  0  0  0
 15 22  1  0  0  0  0
 17 29  1  0  0  0  0
 19 24  2  0  0  0  0
 20 25  2  0  0  0  0
 21 30  1  0  0  0  0
 21 31  1  0  0  0  0
 21 32  1  0  0  0  0
 22 26  2  0  0  0  0
 23 27  2  0  0  0  0
 23 33  1  0  0  0  0
 24 25  1  0  0  0  0
 24 28  1  0  0  0  0
 26 27  1  0  0  0  0
 26 34  1  0  0  0  0
 27 35  1  0  0  0  0
M  END
> <PUBCHEM_COMPOUND_CID>
441106

> <PUBCHEM_CONFORMER_RMSD>
0.6

> <PUBCHEM_CONFORMER_DIVERSEORDER>
2
1

> <PUBCHEM_MMFF94_PARTIAL_CHARGES>
34
1 -0.53
11 -0.14
16 0.08
17 -0.15
18 0.08
19 0.08
2 -0.53
20 0.08
21 0.14
22 0.08
23 -0.15
24 0.09
25 0.08
26 -0.15
27 -0.15
28 0.54
29 0.15
3 -0.53
33 0.15
34 0.15
35 0.15
36 0.45
37 0.45
38 0.45
39 0.45
4 -0.53
40 0.45
41 0.45
42 0.37
43 0.37
5 -0.53
6 -0.53
7 -0.57
8 -0.8

> <PUBCHEM_EFFECTIVE_ROTOR_COUNT>
1

> <PUBCHEM_PHARMACOPHORE_FEATURES>
12
1 1 donor
1 2 donor
1 3 donor
1 4 donor
1 5 donor
1 6 donor
1 7 acceptor
1 8 donor
6 12 13 19 20 24 25 rings
6 14 15 22 23 26 27 rings
6 9 10 11 14 15 18 rings
6 9 10 12 13 16 17 rings

> <PUBCHEM_HEAVY_ATOM_COUNT>
28

> <PUBCHEM_ATOM_DEF_STEREO_COUNT>
0

> <PUBCHEM_ATOM_UDEF_STEREO_COUNT>
0

> <PUBCHEM_BOND_DEF_STEREO_COUNT>
0

> <PUBCHEM_BOND_UDEF_STEREO_COUNT>
0

> <PUBCHEM_ISOTOPIC_ATOM_COUNT>
0

> <PUBCHEM_COMPONENT_COUNT>
1

> <PUBCHEM_CACTVS_TAUTO_COUNT>
997

> <PUBCHEM_CONFORMER_ID>
0006BB1200000002

> <PUBCHEM_MMFF94_ENERGY>
122.2313

> <PUBCHEM_FEATURE_SELFOVERLAP>
61.032

> <PUBCHEM_SHAPE_FINGERPRINT>
10411042 1 17834394519538391047
10616163 171 18337670819448741999
10906281 52 18263346105464205471
10967382 1 18338799017231380334
1100329 8 18410291384909347784
11578080 2 17169570513986546890
12107183 9 17689152735157950810
12236239 1 17821731662535866141
12788726 201 17386280025463162761
12838862 33 18339380637439428780
13140716 1 18337390444083411824
13402501 40 18411419513888178190
14341114 176 18411414024994047808
14790565 3 18338794503474076828
15183329 4 18410576201370426133
15196674 1 18410856538286408814
1601671 61 18410012139405590498
1813 80 17131834252840344764
18608769 82 18341328887052026011
18681886 176 18408890603707675920
19141452 34 18411136926588855999
19591789 44 18337955563380627662
200 152 18113901545858106315
20642791 178 18128807552234830852
21033648 144 18340217309858575141
21033648 29 17604163548906734002
21133410 171 17254900312805653254
21236236 1 18408323259770965759
21267235 1 18410848846053053986
21279426 13 18410856581188511918
21421861 104 18059020617433622258
23402539 116 18335426759355638671
23559900 14 18336271167121992008
3004659 81 18343582950144144652
335352 9 18410856581183230750
338550 245 18342735179044196820
34934 24 18411141350405638447
350125 39 18411138031176335124
3545911 37 18411136956595546221
3633792 109 18338243777657184101
3680242 22 18271249412778741914
4073 2 18059288761032202066
4214541 1 18410856551055136239
4340502 62 16917062300053600858
5104073 3 18411700958916377586
9709674 26 18409724080017805014

> <PUBCHEM_SHAPE_MULTIPOLES>
530.16
13.24
3
0.67
1.35
0.64
0.02
-2.39
0.14
-0.24
0
0.39
-0.07
-0.05

> <PUBCHEM_SHAPE_SELFOVERLAP>
1222.618

> <PUBCHEM_SHAPE_VOLUME>
273.3

> <PUBCHEM_COORDINATE_TYPE>
2
5
10

$$$$

