53297395
  -OEChem-07051213122D

 62 66  0     1  0  0  0  0  0999 V2000
    2.8921   -3.9842    0.0000 O   0  0  0  0  0  0  0  0  0  0  0  0
    5.1888   -5.9691    0.0000 O   0  0  0  0  0  0  0  0  0  0  0  0
    6.4604   -2.9538    0.0000 O   0  0  0  0  0  0  0  0  0  0  0  0
    4.6464    3.1576    0.0000 O   0  0  0  0  0  0  0  0  0  0  0  0
    2.0000   -1.4052    0.0000 O   0  0  0  0  0  0  0  0  0  0  0  0
    2.9042    0.0917    0.0000 O   0  0  0  0  0  0  0  0  0  0  0  0
    7.2387    4.6676    0.0000 O   0  0  0  0  0  0  0  0  0  0  0  0
    5.5028    5.6609    0.0000 O   0  0  0  0  0  0  0  0  0  0  0  0
    3.7484    1.6231    0.0000 O   0  0  0  0  0  0  0  0  0  0  0  0
    3.7542   -3.4776    0.0000 C   0  0  2  0  0  0  0  0  0  0  0  0
    4.6523   -2.9498    0.0000 C   0  0  3  0  0  0  0  0  0  0  0  0
    3.7459   -4.5625    0.0000 C   0  0  0  0  0  0  0  0  0  0  0  0
    4.6855   -5.1050    0.0000 C   0  0  2  0  0  0  0  0  0  0  0  0
    2.8522   -2.9568    0.0000 C   0  0  0  0  0  0  0  0  0  0  0  0
    5.6209   -4.5553    0.0000 C   0  0  0  0  0  0  0  0  0  0  0  0
    4.6362   -1.9083    0.0000 C   0  0  0  0  0  0  0  0  0  0  0  0
    5.6042   -3.4704    0.0000 C   0  0  0  0  0  0  0  0  0  0  0  0
    3.7702   -1.4083    0.0000 C   0  0  0  0  0  0  0  0  0  0  0  0
    2.8602   -1.9152    0.0000 C   0  0  0  0  0  0  0  0  0  0  0  0
    4.1889   -5.9730    0.0000 C   0  0  0  0  0  0  0  0  0  0  0  0
    5.5022   -1.4083    0.0000 C   0  0  0  0  0  0  0  0  0  0  0  0
    3.7702   -0.4083    0.0000 C   0  0  0  0  0  0  0  0  0  0  0  0
    5.5022   -0.4083    0.0000 C   0  0  0  0  0  0  0  0  0  0  0  0
    4.6362    0.0917    0.0000 C   0  0  0  0  0  0  0  0  0  0  0  0
    5.5143    2.6609    0.0000 C   0  0  2  0  0  0  0  0  0  0  0  0
    6.3784    3.1643    0.0000 C   0  0  0  0  0  0  0  0  0  0  0  0
    5.5182    1.6610    0.0000 C   0  0  0  0  0  0  0  0  0  0  0  0
    6.3746    4.1643    0.0000 C   0  0  2  0  0  0  0  0  0  0  0  0
    4.6202    1.1332    0.0000 C   0  0  0  0  0  0  0  0  0  0  0  0
    5.5066    4.6609    0.0000 C   0  0  1  0  0  0  0  0  0  0  0  0
    4.6425    4.1576    0.0000 C   0  0  1  0  0  0  0  0  0  0  0  0
    6.4122    0.0985    0.0000 C   0  0  0  0  0  0  0  0  0  0  0  0
    6.4203    1.1401    0.0000 C   0  0  0  0  0  0  0  0  0  0  0  0
    3.7746    4.6542    0.0000 C   0  0  0  0  0  0  0  0  0  0  0  0
    5.1831   -2.6295    0.0000 H   0  0  0  0  0  0  0  0  0  0  0  0
    3.1358   -4.4517    0.0000 H   0  0  0  0  0  0  0  0  0  0  0  0
    3.5323   -5.1446    0.0000 H   0  0  0  0  0  0  0  0  0  0  0  0
    2.2421   -2.8460    0.0000 H   0  0  0  0  0  0  0  0  0  0  0  0
    2.6386   -3.5388    0.0000 H   0  0  0  0  0  0  0  0  0  0  0  0
    5.8390   -5.1357    0.0000 H   0  0  0  0  0  0  0  0  0  0  0  0
    6.2301   -4.4398    0.0000 H   0  0  0  0  0  0  0  0  0  0  0  0
    3.6507   -5.6650    0.0000 H   0  0  0  0  0  0  0  0  0  0  0  0
    3.8809   -6.5111    0.0000 H   0  0  0  0  0  0  0  0  0  0  0  0
    4.7270   -6.2809    0.0000 H   0  0  0  0  0  0  0  0  0  0  0  0
    2.3528   -3.6784    0.0000 H   0  0  0  0  0  0  0  0  0  0  0  0
    6.0392   -1.7183    0.0000 H   0  0  0  0  0  0  0  0  0  0  0  0
    5.8088   -5.9667    0.0000 H   0  0  0  0  0  0  0  0  0  0  0  0
    4.7799    2.2331    0.0000 H   0  0  0  0  0  0  0  0  0  0  0  0
    6.5927    2.5825    0.0000 H   0  0  0  0  0  0  0  0  0  0  0  0
    6.9886    3.2743    0.0000 H   0  0  0  0  0  0  0  0  0  0  0  0
    6.3722    4.7843    0.0000 H   0  0  0  0  0  0  0  0  0  0  0  0
    4.9685    4.9688    0.0000 H   0  0  0  0  0  0  0  0  0  0  0  0
    4.1068    3.8455    0.0000 H   0  0  0  0  0  0  0  0  0  0  0  0
    6.9456   -0.2177    0.0000 H   0  0  0  0  0  0  0  0  0  0  0  0
    6.9584    1.4481    0.0000 H   0  0  0  0  0  0  0  0  0  0  0  0
    2.3672   -0.2183    0.0000 H   0  0  0  0  0  0  0  0  0  0  0  0
    4.0825    5.1924    0.0000 H   0  0  0  0  0  0  0  0  0  0  0  0
    3.2365    4.9622    0.0000 H   0  0  0  0  0  0  0  0  0  0  0  0
    3.4667    4.1161    0.0000 H   0  0  0  0  0  0  0  0  0  0  0  0
    7.7768    4.3597    0.0000 H   0  0  0  0  0  0  0  0  0  0  0  0
    6.0385    5.9730    0.0000 H   0  0  0  0  0  0  0  0  0  0  0  0
    3.7412    2.2431    0.0000 H   0  0  0  0  0  0  0  0  0  0  0  0
 10  1  1  6  0  0  0
  1 45  1  0  0  0  0
 13  2  1  6  0  0  0
  2 47  1  0  0  0  0
  3 17  2  0  0  0  0
  4 25  1  0  0  0  0
  4 31  1  0  0  0  0
  5 19  2  0  0  0  0
  6 22  1  0  0  0  0
  6 56  1  0  0  0  0
 28  7  1  6  0  0  0
  7 60  1  0  0  0  0
 30  8  1  1  0  0  0
  8 61  1  0  0  0  0
  9 29  1  0  0  0  0
  9 62  1  0  0  0  0
 10 11  1  0  0  0  0
 10 12  1  0  0  0  0
 10 14  1  0  0  0  0
 11 16  1  0  0  0  0
 11 17  1  0  0  0  0
 11 35  1  0  0  0  0
 12 13  1  0  0  0  0
 12 36  1  0  0  0  0
 12 37  1  0  0  0  0
 13 15  1  0  0  0  0
 13 20  1  0  0  0  0
 14 19  1  0  0  0  0
 14 38  1  0  0  0  0
 14 39  1  0  0  0  0
 15 17  1  0  0  0  0
 15 40  1  0  0  0  0
 15 41  1  0  0  0  0
 16 18  2  0  0  0  0
 16 21  1  0  0  0  0
 18 19  1  0  0  0  0
 18 22  1  0  0  0  0
 20 42  1  0  0  0  0
 20 43  1  0  0  0  0
 20 44  1  0  0  0  0
 21 23  2  0  0  0  0
 21 46  1  0  0  0  0
 22 24  2  0  0  0  0
 23 24  1  0  0  0  0
 23 32  1  0  0  0  0
 24 29  1  0  0  0  0
 25 26  1  0  0  0  0
 25 27  1  0  0  0  0
 25 48  1  1  0  0  0
 26 28  1  0  0  0  0
 26 49  1  0  0  0  0
 26 50  1  0  0  0  0
 27 29  2  0  0  0  0
 27 33  1  0  0  0  0
 28 30  1  0  0  0  0
 28 51  1  0  0  0  0
 30 31  1  0  0  0  0
 30 52  1  0  0  0  0
 31 34  1  6  0  0  0
 31 53  1  0  0  0  0
 32 33  2  0  0  0  0
 32 54  1  0  0  0  0
 33 55  1  0  0  0  0
 34 57  1  0  0  0  0
 34 58  1  0  0  0  0
 34 59  1  0  0  0  0
M  END
> <PUBCHEM_COMPOUND_CID>
53297395

> <PUBCHEM_COMPOUND_CANONICALIZED>
1

> <PUBCHEM_CACTVS_COMPLEXITY>
848

> <PUBCHEM_CACTVS_HBOND_ACCEPTOR>
9

> <PUBCHEM_CACTVS_HBOND_DONOR>
6

> <PUBCHEM_CACTVS_ROTATABLE_BOND>
1

> <PUBCHEM_CACTVS_SUBSKEYS>
AAADceB4PAAAAAAAAAAAAAAAAAAAAAAAAAA0YMGCAAAAAADBUAAAGgAACAAADVSgmAIyBsAABgCIAqBSAAACAAAkIAAIiAEECMgJNzaCNRqCcUAl4BULuQfI7vzuwAADAAAYAADAAAYQADAAAAAAAAAAAA==

> <PUBCHEM_IUPAC_OPENEYE_NAME>
(3R,4aR)-9-[(2R,4R,5S,6R)-4,5-dihydroxy-6-methyl-tetrahydropyran-2-yl]-3,4a,7,8-tetrahydroxy-3-methyl-2,4,5,12b-tetrahydrobenzo[a]anthracene-1,6-dione

> <PUBCHEM_IUPAC_CAS_NAME>
(3R,4aR)-9-[(2R,4R,5S,6R)-4,5-dihydroxy-6-methyl-2-oxanyl]-3,4a,7,8-tetrahydroxy-3-methyl-2,4,5,12b-tetrahydrobenzo[a]anthracene-1,6-dione

> <PUBCHEM_IUPAC_NAME>
(3R,4aR)-9-[(2R,4R,5S,6R)-4,5-dihydroxy-6-methyloxan-2-yl]-3,4a,7,8-tetrahydroxy-3-methyl-2,4,5,12b-tetrahydrobenzo[a]anthracene-1,6-dione

> <PUBCHEM_IUPAC_SYSTEMATIC_NAME>
(3R,4aR)-3-methyl-9-[(2R,4R,5S,6R)-6-methyl-4,5-bis(oxidanyl)oxan-2-yl]-3,4a,7,8-tetrakis(oxidanyl)-2,4,5,12b-tetrahydrobenzo[a]anthracene-1,6-dione

> <PUBCHEM_IUPAC_TRADITIONAL_NAME>
(3R,4aR)-9-[(2R,4R,5S,6R)-4,5-dihydroxy-6-methyl-tetrahydropyran-2-yl]-3,4a,7,8-tetrahydroxy-3-methyl-2,4,5,12b-tetrahydrobenz[a]anthracene-1,6-quinone

> <PUBCHEM_IUPAC_INCHI>
InChI=1S/C25H28O9/c1-10-21(29)14(26)6-17(34-10)12-4-3-11-5-13-19(23(31)18(11)22(12)30)15(27)8-25(33)9-24(2,32)7-16(28)20(13)25/h3-5,10,14,17,20-21,26,29-33H,6-9H2,1-2H3/t10-,14-,17-,20?,21-,24+,25+/m1/s1

> <PUBCHEM_IUPAC_INCHIKEY>
BITLBWAPSKBLOM-UWPRAYNDSA-N

> <PUBCHEM_XLOGP3_AA>
0.1

> <PUBCHEM_EXACT_MASS>
472.173332

> <PUBCHEM_MOLECULAR_FORMULA>
C25H28O9

> <PUBCHEM_MOLECULAR_WEIGHT>
472.48442

> <PUBCHEM_OPENEYE_CAN_SMILES>
CC1C(C(CC(O1)C2=C(C3=C(C4=C(C=C3C=C2)C5C(=O)CC(CC5(CC4=O)O)(C)O)O)O)O)O

> <PUBCHEM_OPENEYE_ISO_SMILES>
C[C@@H]1[C@H]([C@@H](C[C@@H](O1)C2=C(C3=C(C4=C(C=C3C=C2)C5C(=O)C[C@](C[C@]5(CC4=O)O)(C)O)O)O)O)O

> <PUBCHEM_CACTVS_TPSA>
165

> <PUBCHEM_MONOISOTOPIC_WEIGHT>
472.173332

> <PUBCHEM_TOTAL_CHARGE>
0

> <PUBCHEM_HEAVY_ATOM_COUNT>
34

> <PUBCHEM_ATOM_DEF_STEREO_COUNT>
6

> <PUBCHEM_ATOM_UDEF_STEREO_COUNT>
1

> <PUBCHEM_BOND_DEF_STEREO_COUNT>
0

> <PUBCHEM_BOND_UDEF_STEREO_COUNT>
0

> <PUBCHEM_ISOTOPIC_ATOM_COUNT>
0

> <PUBCHEM_COMPONENT_COUNT>
1

> <PUBCHEM_CACTVS_TAUTO_COUNT>
243

> <PUBCHEM_COORDINATE_TYPE>
1
5
255

> <PUBCHEM_BONDANNOTATIONS>
10  1  6
11  17  3
16  18  8
16  21  8
18  22  8
13  2  6
21  23  8
22  24  8
23  24  8
23  32  8
24  29  8
25  48  5
27  29  8
27  33  8
31  34  6
32  33  8
28  7  6
30  8  5

$$$$

