87111
  -OEChem-07051213093D

 16 17  0     0  0  0  0  0  0999 V2000
   -3.4867    0.6993    0.0011 Cl  0  0  0  0  0  0  0  0  0  0  0  0
    1.6901    1.3283   -0.0001 N   0  0  0  0  0  0  0  0  0  0  0  0
    0.4975    0.6404   -0.0002 C   0  0  0  0  0  0  0  0  0  0  0  0
    0.8083   -0.7211    0.0001 C   0  0  0  0  0  0  0  0  0  0  0  0
    2.2275   -0.8254    0.0006 C   0  0  0  0  0  0  0  0  0  0  0  0
   -0.8192    1.1145   -0.0006 C   0  0  0  0  0  0  0  0  0  0  0  0
   -0.2448   -1.6571   -0.0003 C   0  0  0  0  0  0  0  0  0  0  0  0
    2.7412    0.4510    0.0003 C   0  0  0  0  0  0  0  0  0  0  0  0
   -1.8472    0.1676   -0.0005 C   0  0  0  0  0  0  0  0  0  0  0  0
   -1.5668   -1.1975   -0.0003 C   0  0  0  0  0  0  0  0  0  0  0  0
    1.7763    2.3353   -0.0003 H   0  0  0  0  0  0  0  0  0  0  0  0
    2.8112   -1.7357    0.0009 H   0  0  0  0  0  0  0  0  0  0  0  0
   -1.0255    2.1803   -0.0007 H   0  0  0  0  0  0  0  0  0  0  0  0
   -0.0403   -2.7239   -0.0001 H   0  0  0  0  0  0  0  0  0  0  0  0
    3.7599    0.8124    0.0005 H   0  0  0  0  0  0  0  0  0  0  0  0
   -2.3731   -1.9275    0.0000 H   0  0  0  0  0  0  0  0  0  0  0  0
  1  9  1  0  0  0  0
  2  3  1  0  0  0  0
  2  8  1  0  0  0  0
  2 11  1  0  0  0  0
  3  4  2  0  0  0  0
  3  6  1  0  0  0  0
  4  5  1  0  0  0  0
  4  7  1  0  0  0  0
  5  8  2  0  0  0  0
  5 12  1  0  0  0  0
  6  9  2  0  0  0  0
  6 13  1  0  0  0  0
  7 10  2  0  0  0  0
  7 14  1  0  0  0  0
  8 15  1  0  0  0  0
  9 10  1  0  0  0  0
 10 16  1  0  0  0  0
M  END
> <PUBCHEM_COMPOUND_CID>
87111

> <PUBCHEM_CONFORMER_RMSD>
0.4

> <PUBCHEM_CONFORMER_DIVERSEORDER>
1

> <PUBCHEM_MMFF94_PARTIAL_CHARGES>
15
1 -0.18
10 -0.15
11 0.27
12 0.15
13 0.15
14 0.15
15 0.15
16 0.15
2 0.03
3 -0.15
5 -0.15
6 -0.15
7 -0.15
8 -0.3
9 0.18

> <PUBCHEM_EFFECTIVE_ROTOR_COUNT>
0

> <PUBCHEM_PHARMACOPHORE_FEATURES>
4
1 2 cation
1 2 donor
5 2 3 4 5 8 rings
6 3 4 6 7 9 10 rings

> <PUBCHEM_HEAVY_ATOM_COUNT>
10

> <PUBCHEM_ATOM_DEF_STEREO_COUNT>
0

> <PUBCHEM_ATOM_UDEF_STEREO_COUNT>
0

> <PUBCHEM_BOND_DEF_STEREO_COUNT>
0

> <PUBCHEM_BOND_UDEF_STEREO_COUNT>
0

> <PUBCHEM_ISOTOPIC_ATOM_COUNT>
0

> <PUBCHEM_COMPONENT_COUNT>
1

> <PUBCHEM_CACTVS_TAUTO_COUNT>
1

> <PUBCHEM_CONFORMER_ID>
0001544700000001

> <PUBCHEM_MMFF94_ENERGY>
14.9846

> <PUBCHEM_FEATURE_SELFOVERLAP>
20.389

> <PUBCHEM_SHAPE_FINGERPRINT>
10219947 1 18271803557864336093
12423570 1 12146313692505985710
13380535 76 18409732863088482847
14325111 11 18410575089322140513
15775835 57 18413666911365776781
16945 1 18410856598310358470
193761 8 17762336916492731781
21040471 1 18410855421605363906
23235685 24 18409735075054396205
23402655 69 18264222455825512261
23552423 10 18200312113414400974
241688 4 17255958399456690322
2748010 2 18338232639825316247
29004967 10 15195293018762198630
369184 2 18411141311708286594
5084963 1 18187086208017942833
528886 8 18410298007790927779
53812653 166 18334300837916041288

> <PUBCHEM_SHAPE_MULTIPOLES>
202.68
4.2
1.54
0.61
1.51
0.29
0
-0.99
0
-0.01
0
0.03
0.01
0

> <PUBCHEM_SHAPE_SELFOVERLAP>
437.194

> <PUBCHEM_SHAPE_VOLUME>
113.9

> <PUBCHEM_COORDINATE_TYPE>
2
5
10

$$$$

