5281626
  -OEChem-07051212583D

 27 29  0     0  0  0  0  0  0999 V2000
   -0.1025   -1.5677    0.0004 O   0  0  0  0  0  0  0  0  0  0  0  0
   -0.1687    2.5236    0.0022 O   0  0  0  0  0  0  0  0  0  0  0  0
    2.4460    2.5738   -0.0008 O   0  0  0  0  0  0  0  0  0  0  0  0
   -2.7834    2.4892   -0.0007 O   0  0  0  0  0  0  0  0  0  0  0  0
   -2.3908   -3.0161    0.0001 O   0  0  0  0  0  0  0  0  0  0  0  0
    4.6386   -1.6355    0.0001 O   0  0  0  0  0  0  0  0  0  0  0  0
   -1.3877    0.5088    0.0000 C   0  0  0  0  0  0  0  0  0  0  0  0
    1.1150    0.5493   -0.0001 C   0  0  0  0  0  0  0  0  0  0  0  0
   -1.2925   -0.8825    0.0001 C   0  0  0  0  0  0  0  0  0  0  0  0
    1.0648   -0.8444    0.0001 C   0  0  0  0  0  0  0  0  0  0  0  0
   -0.1488    1.3017    0.0002 C   0  0  0  0  0  0  0  0  0  0  0  0
    2.3434    1.2154   -0.0003 C   0  0  0  0  0  0  0  0  0  0  0  0
   -2.6369    1.1350   -0.0002 C   0  0  0  0  0  0  0  0  0  0  0  0
   -2.4559   -1.6547    0.0000 C   0  0  0  0  0  0  0  0  0  0  0  0
    2.2526   -1.5786    0.0001 C   0  0  0  0  0  0  0  0  0  0  0  0
    3.5266    0.4764   -0.0004 C   0  0  0  0  0  0  0  0  0  0  0  0
    3.4816   -0.9179   -0.0002 C   0  0  0  0  0  0  0  0  0  0  0  0
   -3.7957    0.3581   -0.0004 C   0  0  0  0  0  0  0  0  0  0  0  0
   -3.7056   -1.0340   -0.0003 C   0  0  0  0  0  0  0  0  0  0  0  0
    2.2223   -2.6655    0.0003 H   0  0  0  0  0  0  0  0  0  0  0  0
    4.4883    0.9844   -0.0005 H   0  0  0  0  0  0  0  0  0  0  0  0
   -4.7744    0.8309   -0.0007 H   0  0  0  0  0  0  0  0  0  0  0  0
   -4.6186   -1.6236   -0.0005 H   0  0  0  0  0  0  0  0  0  0  0  0
    3.3843    2.8290   -0.0010 H   0  0  0  0  0  0  0  0  0  0  0  0
   -1.9172    2.9245   -0.0016 H   0  0  0  0  0  0  0  0  0  0  0  0
   -3.2939   -3.3773    0.0000 H   0  0  0  0  0  0  0  0  0  0  0  0
    5.3919   -1.0202   -0.0001 H   0  0  0  0  0  0  0  0  0  0  0  0
  1  9  1  0  0  0  0
  1 10  1  0  0  0  0
  2 11  2  0  0  0  0
  3 12  1  0  0  0  0
  3 24  1  0  0  0  0
  4 13  1  0  0  0  0
  4 25  1  0  0  0  0
  5 14  1  0  0  0  0
  5 26  1  0  0  0  0
  6 17  1  0  0  0  0
  6 27  1  0  0  0  0
  7  9  1  0  0  0  0
  7 11  1  0  0  0  0
  7 13  2  0  0  0  0
  8 10  1  0  0  0  0
  8 11  1  0  0  0  0
  8 12  2  0  0  0  0
  9 14  2  0  0  0  0
 10 15  2  0  0  0  0
 12 16  1  0  0  0  0
 13 18  1  0  0  0  0
 14 19  1  0  0  0  0
 15 17  1  0  0  0  0
 15 20  1  0  0  0  0
 16 17  2  0  0  0  0
 16 21  1  0  0  0  0
 18 19  2  0  0  0  0
 18 22  1  0  0  0  0
 19 23  1  0  0  0  0
M  END
> <PUBCHEM_COMPOUND_CID>
5281626

> <PUBCHEM_CONFORMER_RMSD>
0.4

> <PUBCHEM_CONFORMER_DIVERSEORDER>
1

> <PUBCHEM_MMFF94_PARTIAL_CHARGES>
27
1 -0.17
10 0.08
11 0.4
12 0.08
13 0.08
14 0.08
15 -0.15
16 -0.15
17 0.08
18 -0.15
19 -0.15
2 -0.57
20 0.15
21 0.15
22 0.15
23 0.15
24 0.45
25 0.45
26 0.45
27 0.45
3 -0.53
4 -0.53
5 -0.53
6 -0.53
7 0.09
8 0.09
9 0.08

> <PUBCHEM_EFFECTIVE_ROTOR_COUNT>
0

> <PUBCHEM_PHARMACOPHORE_FEATURES>
9
1 1 acceptor
1 2 acceptor
1 3 donor
1 4 donor
1 5 donor
1 6 donor
6 1 7 8 9 10 11 rings
6 7 9 13 14 18 19 rings
6 8 10 12 15 16 17 rings

> <PUBCHEM_HEAVY_ATOM_COUNT>
19

> <PUBCHEM_ATOM_DEF_STEREO_COUNT>
0

> <PUBCHEM_ATOM_UDEF_STEREO_COUNT>
0

> <PUBCHEM_BOND_DEF_STEREO_COUNT>
0

> <PUBCHEM_BOND_UDEF_STEREO_COUNT>
0

> <PUBCHEM_ISOTOPIC_ATOM_COUNT>
0

> <PUBCHEM_COMPONENT_COUNT>
1

> <PUBCHEM_CACTVS_TAUTO_COUNT>
102

> <PUBCHEM_CONFORMER_ID>
0050975A00000001

> <PUBCHEM_MMFF94_ENERGY>
58.8433

> <PUBCHEM_FEATURE_SELFOVERLAP>
45.726

> <PUBCHEM_SHAPE_FINGERPRINT>
10608611 8 18410295791545832249
10616163 171 18337387119736812486
10967382 1 18266741461874382407
11132069 177 18410863143866891560
11471102 20 18411142428621290766
11578080 2 17488207978973532140
12032990 46 18411415107267706187
12251169 10 18410292540239524563
12553582 1 18340775952213122570
13140716 1 18409726257407312674
13221675 6 18411701001749992147
138480 1 15888840051591311265
14223421 5 18265897960251384360
14790565 3 17760636371537676648
15196674 1 18410855460128181285
15442244 35 18410856577051747896
15536298 74 18335139765577983016
16945 1 18338797943404932933
17492 89 18339361842768660226
17804303 29 18409726291941117588
18186145 218 17703797998043289551
19591789 44 15812543831321419462
200 152 18040725753343364775
20510252 161 18261392299461958681
21267235 1 18411129251472157667
21501502 16 18410290268207112740
221490 88 18341043000500057586
2334 1 18338516322404602470
23366157 5 18059295362460154540
23402539 116 18262529211285003615
23463225 33 18411418397349733548
23559900 14 18408047303721709520
238 59 16045663283349870101
2748010 2 18410013199866841380
335352 9 18266741461763580573
350125 39 18339355370679771297
5104073 3 18410292505885061912
54173680 148 18411135810045305347
69090 78 18408326605376247111
7364860 26 18335702689893748696
74978 22 18411420622005571304
7832392 63 18410858806145081776
8809292 202 18342453737968567739
9709674 26 18408037416200812918
9981440 41 17622163465071570608

> <PUBCHEM_SHAPE_MULTIPOLES>
355.8
7.04
2.78
0.59
1.98
0.34
0
-1.67
0
-0.55
0
-0.01
-0.01
0

> <PUBCHEM_SHAPE_SELFOVERLAP>
810.219

> <PUBCHEM_SHAPE_VOLUME>
184.2

> <PUBCHEM_COORDINATE_TYPE>
2
5
10

$$$$

