656756
  -OEChem-07051213043D

 54 56  0     1  0  0  0  0  0999 V2000
    4.0549    1.6763   -0.5195 P   0  0  2  0  0  0  0  0  0  0  0  0
    1.3067   -1.1236    0.9191 O   0  0  0  0  0  0  0  0  0  0  0  0
    0.4985   -4.3450   -0.4555 O   0  0  0  0  0  0  0  0  0  0  0  0
    2.3350   -3.9338    1.5050 O   0  0  0  0  0  0  0  0  0  0  0  0
    3.8936    0.3283    0.3617 O   0  0  0  0  0  0  0  0  0  0  0  0
    2.5320    2.1908   -0.7060 O   0  0  0  0  0  0  0  0  0  0  0  0
    4.4273    1.1286   -1.9958 O   0  0  0  0  0  0  0  0  0  0  0  0
    5.0026    2.7050    0.0258 O   0  0  0  0  0  0  0  0  0  0  0  0
    2.0964    2.7366    1.4742 O   0  0  0  0  0  0  0  0  0  0  0  0
   -0.7218   -1.4121   -0.2777 N   0  0  0  0  0  0  0  0  0  0  0  0
   -1.7281   -0.1914   -1.8484 N   0  0  0  0  0  0  0  0  0  0  0  0
   -2.6349   -1.9565    1.1165 N   0  0  0  0  0  0  0  0  0  0  0  0
   -4.6870   -0.9808    0.2259 N   0  0  0  0  0  0  0  0  0  0  0  0
   -4.7225    0.3317   -1.7749 N   0  0  0  0  0  0  0  0  0  0  0  0
    1.1350   -3.0848   -0.3972 C   0  0  2  0  0  0  0  0  0  0  0  0
    2.4608   -3.1227    0.3370 C   0  0  1  0  0  0  0  0  0  0  0  0
    0.3503   -2.0915    0.4461 C   0  0  1  0  0  0  0  0  0  0  0  0
    2.6374   -1.6690    0.7644 C   0  0  1  0  0  0  0  0  0  0  0  0
    3.3817   -0.8332   -0.2675 C   0  0  0  0  0  0  0  0  0  0  0  0
   -2.0449   -1.3786    0.0593 C   0  0  0  0  0  0  0  0  0  0  0  0
   -0.5813   -0.6845   -1.4299 C   0  0  0  0  0  0  0  0  0  0  0  0
   -2.6515   -0.6175   -0.9270 C   0  0  0  0  0  0  0  0  0  0  0  0
   -4.0252   -0.4257   -0.8179 C   0  0  0  0  0  0  0  0  0  0  0  0
   -3.9614   -1.7011    1.1151 C   0  0  0  0  0  0  0  0  0  0  0  0
   -0.7086    2.8854    0.8007 C   0  0  0  0  0  0  0  0  0  0  0  0
    0.3963    3.0412   -0.2424 C   0  0  0  0  0  0  0  0  0  0  0  0
   -2.0768    3.2447    0.2203 C   0  0  0  0  0  0  0  0  0  0  0  0
    1.7478    2.6528    0.3056 C   0  0  0  0  0  0  0  0  0  0  0  0
   -3.1775    3.1209    1.2736 C   0  0  0  0  0  0  0  0  0  0  0  0
   -4.5348    3.5095    0.7092 C   0  0  0  0  0  0  0  0  0  0  0  0
    1.2977   -2.7265   -1.4200 H   0  0  0  0  0  0  0  0  0  0  0  0
    3.2782   -3.5306   -0.2641 H   0  0  0  0  0  0  0  0  0  0  0  0
   -0.0993   -2.5772    1.3204 H   0  0  0  0  0  0  0  0  0  0  0  0
    3.1278   -1.5902    1.7415 H   0  0  0  0  0  0  0  0  0  0  0  0
    2.7171   -0.5541   -1.0914 H   0  0  0  0  0  0  0  0  0  0  0  0
    4.2382   -1.3834   -0.6695 H   0  0  0  0  0  0  0  0  0  0  0  0
   -0.3721   -4.2148   -0.8684 H   0  0  0  0  0  0  0  0  0  0  0  0
    3.1864   -3.9012    1.9737 H   0  0  0  0  0  0  0  0  0  0  0  0
    0.3731   -0.5396   -1.9168 H   0  0  0  0  0  0  0  0  0  0  0  0
   -4.5232   -2.1304    1.9377 H   0  0  0  0  0  0  0  0  0  0  0  0
   -0.4934    3.5274    1.6638 H   0  0  0  0  0  0  0  0  0  0  0  0
   -0.7217    1.8530    1.1723 H   0  0  0  0  0  0  0  0  0  0  0  0
    0.1667    2.4018   -1.1026 H   0  0  0  0  0  0  0  0  0  0  0  0
    0.4588    4.0776   -0.5910 H   0  0  0  0  0  0  0  0  0  0  0  0
   -2.3026    2.5901   -0.6296 H   0  0  0  0  0  0  0  0  0  0  0  0
   -2.0520    4.2721   -0.1631 H   0  0  0  0  0  0  0  0  0  0  0  0
   -4.2300    0.7511   -2.5519 H   0  0  0  0  0  0  0  0  0  0  0  0
   -5.7199    0.4602   -1.6715 H   0  0  0  0  0  0  0  0  0  0  0  0
   -2.9482    3.7639    2.1312 H   0  0  0  0  0  0  0  0  0  0  0  0
   -3.2228    2.0899    1.6434 H   0  0  0  0  0  0  0  0  0  0  0  0
    4.6512    1.7750   -2.6987 H   0  0  0  0  0  0  0  0  0  0  0  0
   -4.8064    2.8721   -0.1375 H   0  0  0  0  0  0  0  0  0  0  0  0
   -4.5342    4.5500    0.3690 H   0  0  0  0  0  0  0  0  0  0  0  0
   -5.3084    3.4034    1.4761 H   0  0  0  0  0  0  0  0  0  0  0  0
  1  5  1  0  0  0  0
  1  6  1  0  0  0  0
  1  7  1  0  0  0  0
  1  8  2  0  0  0  0
  2 17  1  0  0  0  0
  2 18  1  0  0  0  0
  3 15  1  0  0  0  0
  3 37  1  0  0  0  0
  4 16  1  0  0  0  0
  4 38  1  0  0  0  0
  5 19  1  0  0  0  0
  6 28  1  0  0  0  0
  7 51  1  0  0  0  0
  9 28  2  0  0  0  0
 10 17  1  0  0  0  0
 10 20  1  0  0  0  0
 10 21  1  0  0  0  0
 11 21  2  0  0  0  0
 11 22  1  0  0  0  0
 12 20  2  0  0  0  0
 12 24  1  0  0  0  0
 13 23  1  0  0  0  0
 13 24  2  0  0  0  0
 14 23  1  0  0  0  0
 14 47  1  0  0  0  0
 14 48  1  0  0  0  0
 15 16  1  0  0  0  0
 15 17  1  0  0  0  0
 15 31  1  0  0  0  0
 16 18  1  0  0  0  0
 16 32  1  0  0  0  0
 17 33  1  0  0  0  0
 18 19  1  0  0  0  0
 18 34  1  0  0  0  0
 19 35  1  0  0  0  0
 19 36  1  0  0  0  0
 20 22  1  0  0  0  0
 21 39  1  0  0  0  0
 22 23  2  0  0  0  0
 24 40  1  0  0  0  0
 25 26  1  0  0  0  0
 25 27  1  0  0  0  0
 25 41  1  0  0  0  0
 25 42  1  0  0  0  0
 26 28  1  0  0  0  0
 26 43  1  0  0  0  0
 26 44  1  0  0  0  0
 27 29  1  0  0  0  0
 27 45  1  0  0  0  0
 27 46  1  0  0  0  0
 29 30  1  0  0  0  0
 29 49  1  0  0  0  0
 29 50  1  0  0  0  0
 30 52  1  0  0  0  0
 30 53  1  0  0  0  0
 30 54  1  0  0  0  0
M  END
> <PUBCHEM_COMPOUND_CID>
656756

> <PUBCHEM_CONFORMER_RMSD>
1.2

> <PUBCHEM_CONFORMER_DIVERSEORDER>
1
27
13
71
5
68
7
81
105
111
31
30
110
104
26
95
75
93
101
127
100
80
120
55
91
119
36
29
28
87
84
66
11
14
65
97
60
112
129
123
74
42
39
94
126
89
85
108
125
72
63
46
102
122
38
50
19
109
90
59
96
113
34
45
8
107
76
70
25
40
53
35
6
99
41
18
82
106
49
32
17
73
88
15
64
121
37
58
118
52
79
44
43
51
78
103
77
21
12
16
47
69
10
62
54
115
116
24
22
124
117
48
56
61
86
4
67
23
3
57
2
128
98
114
92
20
33
83
9

> <PUBCHEM_MMFF94_PARTIAL_CHARGES>
33
1 1.51
10 0.05
11 -0.57
12 -0.57
13 -0.62
14 -0.9
15 0.28
16 0.28
17 0.54
18 0.28
19 0.28
2 -0.56
20 0.11
21 0.04
22 0.23
23 0.41
24 0.47
26 0.06
28 0.66
3 -0.68
37 0.4
38 0.4
39 0.15
4 -0.68
40 0.15
47 0.4
48 0.4
5 -0.55
51 0.5
6 -0.42
7 -0.77
8 -0.7
9 -0.57

> <PUBCHEM_EFFECTIVE_ROTOR_COUNT>
11

> <PUBCHEM_PHARMACOPHORE_FEATURES>
18
1 14 cation
1 14 donor
1 2 acceptor
1 3 acceptor
1 3 donor
1 30 hydrophobe
1 4 acceptor
1 4 donor
1 7 acceptor
1 8 acceptor
1 9 acceptor
3 10 11 21 cation
3 10 12 20 cation
3 12 13 24 cation
4 25 26 27 29 hydrophobe
5 10 11 20 21 22 rings
5 2 15 16 17 18 rings
6 12 13 20 22 23 24 rings

> <PUBCHEM_HEAVY_ATOM_COUNT>
30

> <PUBCHEM_ATOM_DEF_STEREO_COUNT>
4

> <PUBCHEM_ATOM_UDEF_STEREO_COUNT>
0

> <PUBCHEM_BOND_DEF_STEREO_COUNT>
0

> <PUBCHEM_BOND_UDEF_STEREO_COUNT>
0

> <PUBCHEM_ISOTOPIC_ATOM_COUNT>
0

> <PUBCHEM_COMPONENT_COUNT>
1

> <PUBCHEM_CACTVS_TAUTO_COUNT>
3

> <PUBCHEM_CONFORMER_ID>
000A057400000001

> <PUBCHEM_MMFF94_ENERGY>
31.2507

> <PUBCHEM_FEATURE_SELFOVERLAP>
91.968

> <PUBCHEM_SHAPE_FINGERPRINT>
1100329 8 17978792642451738961
11513181 2 17968658344999367095
11578080 2 17703795876967704221
12788726 201 18262227808209367136
13140716 1 18123198896351004490
14790565 3 18339072688516810464
19591789 44 17907296546668351211
19930381 70 18194685856765171387
23559900 14 18057617644485826083
3027735 51 18335976493800575121
3298306 158 18270407066169539207
7226269 152 18121221979208943000

> <PUBCHEM_SHAPE_MULTIPOLES>
549.38
9.01
5.77
1.42
2.12
0.59
0.33
3.72
0.64
-1.44
-1.69
0.37
-0.05
-1.54

> <PUBCHEM_SHAPE_SELFOVERLAP>
1135.605

> <PUBCHEM_SHAPE_VOLUME>
316.5

> <PUBCHEM_COORDINATE_TYPE>
2
5
10

$$$$

