17396338
  -OEChem-06241222563D

 41 43  0     0  0  0  0  0  0999 V2000
   -4.4529   -0.7183    2.2185 S   0  0  0  0  0  0  0  0  0  0  0  0
   -0.3520   -1.2046   -0.0570 O   0  0  0  0  0  0  0  0  0  0  0  0
    3.4301   -2.6614   -0.6147 O   0  0  0  0  0  0  0  0  0  0  0  0
    0.8034   -2.6935   -1.3787 O   0  0  0  0  0  0  0  0  0  0  0  0
   -4.9780    1.5026   -1.8514 O   0  0  0  0  0  0  0  0  0  0  0  0
   -3.4883   -0.4395   -0.1635 N   0  0  0  0  0  0  0  0  0  0  0  0
   -5.4297    0.8782    0.3828 N   0  0  0  0  0  0  0  0  0  0  0  0
    2.7950    1.4107    0.0319 C   0  0  0  0  0  0  0  0  0  0  0  0
    4.1065    0.8798    0.0591 C   0  0  0  0  0  0  0  0  0  0  0  0
    1.9186   -0.8109   -0.4316 C   0  0  0  0  0  0  0  0  0  0  0  0
    1.7116    0.5517   -0.2148 C   0  0  0  0  0  0  0  0  0  0  0  0
    3.2083   -1.3330   -0.4051 C   0  0  0  0  0  0  0  0  0  0  0  0
    4.2962   -0.4941   -0.1616 C   0  0  0  0  0  0  0  0  0  0  0  0
    2.6054    2.7846    0.2526 C   0  0  0  0  0  0  0  0  0  0  0  0
    5.1901    1.7387    0.3054 C   0  0  0  0  0  0  0  0  0  0  0  0
    0.7701   -1.6702   -0.6847 C   0  0  0  0  0  0  0  0  0  0  0  0
    3.6936    3.6231    0.4964 C   0  0  0  0  0  0  0  0  0  0  0  0
    4.9834    3.1012    0.5226 C   0  0  0  0  0  0  0  0  0  0  0  0
   -1.5512   -1.9674   -0.2295 C   0  0  0  0  0  0  0  0  0  0  0  0
   -2.7039   -1.3631    0.4996 C   0  0  0  0  0  0  0  0  0  0  0  0
   -3.0709   -1.6432    1.7991 C   0  0  0  0  0  0  0  0  0  0  0  0
   -4.4408   -0.0321    0.6457 C   0  0  0  0  0  0  0  0  0  0  0  0
    3.4223   -3.5080    0.5326 C   0  0  0  0  0  0  0  0  0  0  0  0
   -5.6363    1.5753   -0.8192 C   0  0  0  0  0  0  0  0  0  0  0  0
   -6.8307    2.4932   -0.7345 C   0  0  0  0  0  0  0  0  0  0  0  0
    0.7078    0.9723   -0.2482 H   0  0  0  0  0  0  0  0  0  0  0  0
    5.2995   -0.9165   -0.1448 H   0  0  0  0  0  0  0  0  0  0  0  0
    1.6062    3.2149    0.2367 H   0  0  0  0  0  0  0  0  0  0  0  0
    6.2070    1.3526    0.3306 H   0  0  0  0  0  0  0  0  0  0  0  0
    3.5333    4.6839    0.6656 H   0  0  0  0  0  0  0  0  0  0  0  0
    5.8300    3.7546    0.7123 H   0  0  0  0  0  0  0  0  0  0  0  0
   -1.3806   -2.9884    0.1333 H   0  0  0  0  0  0  0  0  0  0  0  0
   -1.7886   -2.0196   -1.2991 H   0  0  0  0  0  0  0  0  0  0  0  0
   -2.6106   -2.3232    2.5019 H   0  0  0  0  0  0  0  0  0  0  0  0
    3.5640   -4.5393    0.1980 H   0  0  0  0  0  0  0  0  0  0  0  0
    2.4667   -3.4406    1.0620 H   0  0  0  0  0  0  0  0  0  0  0  0
    4.2431   -3.2432    1.2067 H   0  0  0  0  0  0  0  0  0  0  0  0
   -6.0705    1.0517    1.1531 H   0  0  0  0  0  0  0  0  0  0  0  0
   -6.9480    3.0378   -1.6754 H   0  0  0  0  0  0  0  0  0  0  0  0
   -7.7344    1.9063   -0.5479 H   0  0  0  0  0  0  0  0  0  0  0  0
   -6.6882    3.2129    0.0765 H   0  0  0  0  0  0  0  0  0  0  0  0
  1 21  1  0  0  0  0
  1 22  1  0  0  0  0
  2 16  1  0  0  0  0
  2 19  1  0  0  0  0
  3 12  1  0  0  0  0
  3 23  1  0  0  0  0
  4 16  2  0  0  0  0
  5 24  2  0  0  0  0
  6 20  1  0  0  0  0
  6 22  2  0  0  0  0
  7 22  1  0  0  0  0
  7 24  1  0  0  0  0
  7 38  1  0  0  0  0
  8  9  1  0  0  0  0
  8 11  1  0  0  0  0
  8 14  2  0  0  0  0
  9 13  1  0  0  0  0
  9 15  2  0  0  0  0
 10 11  2  0  0  0  0
 10 12  1  0  0  0  0
 10 16  1  0  0  0  0
 11 26  1  0  0  0  0
 12 13  2  0  0  0  0
 13 27  1  0  0  0  0
 14 17  1  0  0  0  0
 14 28  1  0  0  0  0
 15 18  1  0  0  0  0
 15 29  1  0  0  0  0
 17 18  2  0  0  0  0
 17 30  1  0  0  0  0
 18 31  1  0  0  0  0
 19 20  1  0  0  0  0
 19 32  1  0  0  0  0
 19 33  1  0  0  0  0
 20 21  2  0  0  0  0
 21 34  1  0  0  0  0
 23 35  1  0  0  0  0
 23 36  1  0  0  0  0
 23 37  1  0  0  0  0
 24 25  1  0  0  0  0
 25 39  1  0  0  0  0
 25 40  1  0  0  0  0
 25 41  1  0  0  0  0
M  END
> <PUBCHEM_COMPOUND_CID>
17396338

> <PUBCHEM_CONFORMER_RMSD>
1

> <PUBCHEM_CONFORMER_DIVERSEORDER>
1
72
130
97
9
46
180
73
79
101
88
135
159
34
178
192
11
114
36
151
115
96
90
136
37
123
108
165
23
174
103
12
52
173
21
133
59
172
129
7
17
179
8
127
84
119
2
31
63
128
38
104
83
91
109
124
177
142
187
49
71
162
107
117
158
185
153
50
62
22
157
112
18
39
171
92
55
120
3
131
42
29
64
13
69
53
106
111
19
194
40
77
161
75
147
48
14
100
16
139
65
43
33
27
137
191
152
15
57
189
186
149
122
148
126
145
154
125
167
181
5
56
41
35
175
10
24
170
156
58
116
89
86
61
76
155
160
4
141
118
70
81
169
163
143
60
20
80
94
193
140
134
166
45
184
68
66
74
132
168
28
78
26
6
182
113
190
95
121
150
164
44
105
110
144
146
54
195
25
67
87
102
51
183
176
47
85
93
30
82
196
98
99
138
32
188

> <PUBCHEM_MMFF94_PARTIAL_CHARGES>
31
1 -0.08
10 0.09
11 -0.15
12 0.08
13 -0.15
14 -0.15
15 -0.15
16 0.63
17 -0.15
18 -0.15
19 0.46
2 -0.43
20 0.05
21 -0.11
22 0.44
23 0.28
24 0.57
25 0.06
26 0.15
27 0.15
28 0.15
29 0.15
3 -0.36
30 0.15
31 0.15
34 0.15
38 0.37
4 -0.57
5 -0.57
6 -0.57
7 -0.49

> <PUBCHEM_EFFECTIVE_ROTOR_COUNT>
7

> <PUBCHEM_PHARMACOPHORE_FEATURES>
7
1 3 acceptor
1 4 acceptor
1 5 acceptor
1 7 donor
5 1 6 20 21 22 rings
6 8 9 10 11 12 13 rings
6 8 9 14 15 17 18 rings

> <PUBCHEM_HEAVY_ATOM_COUNT>
25

> <PUBCHEM_ATOM_DEF_STEREO_COUNT>
0

> <PUBCHEM_ATOM_UDEF_STEREO_COUNT>
0

> <PUBCHEM_BOND_DEF_STEREO_COUNT>
0

> <PUBCHEM_BOND_UDEF_STEREO_COUNT>
0

> <PUBCHEM_ISOTOPIC_ATOM_COUNT>
0

> <PUBCHEM_COMPONENT_COUNT>
1

> <PUBCHEM_CACTVS_TAUTO_COUNT>
3

> <PUBCHEM_CONFORMER_ID>
0109727200000001

> <PUBCHEM_MMFF94_ENERGY>
70.9031

> <PUBCHEM_FEATURE_SELFOVERLAP>
35.552

> <PUBCHEM_SHAPE_FINGERPRINT>
10319926 262 17632571648013269483
10411042 1 17975689812666055294
10763959 59 18411132537564958868
11370993 144 18272090513187577191
12403259 415 18341883100540547155
12422481 6 18130514024525420668
12769317 202 18260552186462785488
13103583 49 15626226771457854273
13402501 40 18342740749833564197
13583140 156 18342164562458809147
13878862 14 18340223975732130197
14251764 38 18335979891251659345
14556957 393 17023184989852080249
14739800 52 17845383300901913513
14790565 3 17836078971457366428
14848178 96 18114742620982812136
15475509 84 18055359295452818554
16994733 274 16628810939430042886
17868525 174 18341897458494892178
20157964 124 18335138700436747063
20511986 3 17822584819350749850
20554085 129 16845299380387024905
20715895 44 18408044034797988185
20739085 24 18200027327593126036
21033648 144 18335977571889918799
21033648 29 18060414716588658363
21315764 268 18270122447698839085
21388113 180 18411138043713265877
21475661 188 18342459226957494069
22122407 14 18262792003887498529
23559900 14 18337388348071455730
2838139 119 18267591389549209997
437795 96 18343026558263789677
474 4 18189890916758556226
5104073 3 18342448245169730955

> <PUBCHEM_SHAPE_MULTIPOLES>
484.9
15.19
4.23
1.32
17.68
0.65
-0.35
12.13
-0.22
-4.35
0.09
2.11
-0.26
3.18

> <PUBCHEM_SHAPE_SELFOVERLAP>
1036.93

> <PUBCHEM_SHAPE_VOLUME>
270.8

> <PUBCHEM_COORDINATE_TYPE>
2
5
10

$$$$

