3032297
  -OEChem-07051213122D

 18 15  0     0  0  0  0  0  0999 V2000
    2.8660    0.2500    0.0000 S   0  5  0  0  0  0  0  0  0  0  0  0
    8.9282   -0.2500    0.0000 S   0  5  0  0  0  0  0  0  0  0  0  0
    3.7320   -1.2500    0.0000 S   0  0  0  0  0  0  0  0  0  0  0  0
    8.0622    1.2500    0.0000 S   0  0  0  0  0  0  0  0  0  0  0  0
    2.0000   -0.2500    0.0000 Na  0  3  0  0  0  0  0  0  0  0  0  0
    9.7942    0.2500    0.0000 Na  0  3  0  0  0  0  0  0  0  0  0  0
    7.1962   -0.2500    0.0000 N   0  0  0  0  0  0  0  0  0  0  0  0
    4.5981    0.2500    0.0000 N   0  0  0  0  0  0  0  0  0  0  0  0
    5.4641   -0.2500    0.0000 C   0  0  0  0  0  0  0  0  0  0  0  0
    6.3301    0.2500    0.0000 C   0  0  0  0  0  0  0  0  0  0  0  0
    3.7320   -0.2500    0.0000 C   0  0  0  0  0  0  0  0  0  0  0  0
    8.0622    0.2500    0.0000 C   0  0  0  0  0  0  0  0  0  0  0  0
    6.7287    0.7249    0.0000 H   0  0  0  0  0  0  0  0  0  0  0  0
    5.9316    0.7249    0.0000 H   0  0  0  0  0  0  0  0  0  0  0  0
    5.0656   -0.7249    0.0000 H   0  0  0  0  0  0  0  0  0  0  0  0
    5.8626   -0.7249    0.0000 H   0  0  0  0  0  0  0  0  0  0  0  0
    7.1962   -0.8700    0.0000 H   0  0  0  0  0  0  0  0  0  0  0  0
    4.5981    0.8700    0.0000 H   0  0  0  0  0  0  0  0  0  0  0  0
  1 11  1  0  0  0  0
  2 12  1  0  0  0  0
  3 11  2  0  0  0  0
  4 12  2  0  0  0  0
  7 10  1  0  0  0  0
  7 12  1  0  0  0  0
  7 17  1  0  0  0  0
  8  9  1  0  0  0  0
  8 11  1  0  0  0  0
  8 18  1  0  0  0  0
  9 10  1  0  0  0  0
  9 15  1  0  0  0  0
  9 16  1  0  0  0  0
 10 13  1  0  0  0  0
 10 14  1  0  0  0  0
M  CHG  4   1  -1   2  -1   5   1   6   1
M  END
> <PUBCHEM_COMPOUND_CID>
3032297

> <PUBCHEM_COMPOUND_CANONICALIZED>
1

> <PUBCHEM_CACTVS_COMPLEXITY>
108

> <PUBCHEM_CACTVS_HBOND_ACCEPTOR>
4

> <PUBCHEM_CACTVS_HBOND_DONOR>
2

> <PUBCHEM_CACTVS_ROTATABLE_BOND>
3

> <PUBCHEM_CACTVS_SUBSKEYS>
AAADcYBjADBwAAAAAAAAAAAAAAAAAAAAAAAAAAAAAAAAAAAAAAAAHAQQAAAAAADBAAQAAALAAAAEAAAAAAAAAAAAAAkAAIAIAAAAQAAAAAAQAAAAEAAAAAAAAAAAAAAAAAAAAAAAAAAAAAAAAAAAAAAAAA==

> <PUBCHEM_IUPAC_OPENEYE_NAME>
disodium N-[2-(sulfidocarbothioylamino)ethyl]carbamodithioate

> <PUBCHEM_IUPAC_CAS_NAME>
disodium N-[2-[[sulfanylidene(sulfido)methyl]amino]ethyl]carbamodithioate

> <PUBCHEM_IUPAC_NAME>
disodium N-[2-(sulfidocarbothioylamino)ethyl]carbamodithioate

> <PUBCHEM_IUPAC_SYSTEMATIC_NAME>
disodium N-[2-(sulfanidylcarbothioylamino)ethyl]carbamodithioate

> <PUBCHEM_IUPAC_TRADITIONAL_NAME>
disodium N-[2-(sulfidocarbothioylamino)ethyl]carbamodithioate

> <PUBCHEM_IUPAC_INCHI>
InChI=1S/C4H8N2S4.2Na/c7-3(8)5-1-2-6-4(9)10;;/h1-2H2,(H2,5,7,8)(H2,6,9,10);;/q;2*+1/p-2

> <PUBCHEM_IUPAC_INCHIKEY>
UQJQVUOTMVCFHX-UHFFFAOYSA-L

> <PUBCHEM_EXACT_MASS>
255.920921

> <PUBCHEM_MOLECULAR_FORMULA>
C4H6N2Na2S4

> <PUBCHEM_MOLECULAR_WEIGHT>
256.343379

> <PUBCHEM_OPENEYE_CAN_SMILES>
C(CNC(=S)[S-])NC(=S)[S-].[Na+].[Na+]

> <PUBCHEM_OPENEYE_ISO_SMILES>
C(CNC(=S)[S-])NC(=S)[S-].[Na+].[Na+]

> <PUBCHEM_CACTVS_TPSA>
90.2

> <PUBCHEM_MONOISOTOPIC_WEIGHT>
255.920921

> <PUBCHEM_TOTAL_CHARGE>
0

> <PUBCHEM_HEAVY_ATOM_COUNT>
12

> <PUBCHEM_ATOM_DEF_STEREO_COUNT>
0

> <PUBCHEM_ATOM_UDEF_STEREO_COUNT>
0

> <PUBCHEM_BOND_DEF_STEREO_COUNT>
0

> <PUBCHEM_BOND_UDEF_STEREO_COUNT>
0

> <PUBCHEM_ISOTOPIC_ATOM_COUNT>
0

> <PUBCHEM_COMPONENT_COUNT>
3

> <PUBCHEM_CACTVS_TAUTO_COUNT>
3

> <PUBCHEM_COORDINATE_TYPE>
1
5
255

$$$$

