441797
  -OEChem-07051212563D

 54 58  0     1  0  0  0  0  0999 V2000
    0.9013   -1.8834   -1.9266 O   0  0  0  0  0  0  0  0  0  0  0  0
    0.7669    2.5801    0.0026 O   0  0  0  0  0  0  0  0  0  0  0  0
   -0.0466   -3.0876   -0.1337 O   0  0  0  0  0  0  0  0  0  0  0  0
    2.0505   -2.1336    1.5572 O   0  0  0  0  0  0  0  0  0  0  0  0
    3.8746    1.4831    1.2351 O   0  0  0  0  0  0  0  0  0  0  0  0
   -2.0428   -2.3077    1.3186 O   0  0  0  0  0  0  0  0  0  0  0  0
    2.1470    3.4326    1.5458 O   0  0  0  0  0  0  0  0  0  0  0  0
   -4.4911   -1.3156    1.6493 O   0  0  0  0  0  0  0  0  0  0  0  0
    1.0199    0.2925   -0.9583 C   0  0  2  0  0  0  0  0  0  0  0  0
    0.1259   -0.6167   -0.0731 C   0  0  1  0  0  0  0  0  0  0  0  0
   -1.4537   -0.4142   -0.2150 C   0  0  2  0  0  0  0  0  0  0  0  0
    2.4900    0.3552   -0.4056 C   0  0  2  0  0  0  0  0  0  0  0  0
    0.7481   -1.9723   -0.4932 C   0  0  2  0  0  0  0  0  0  0  0  0
    0.5249    1.7220   -1.1434 C   0  0  1  0  0  0  0  0  0  0  0  0
   -1.7638    1.1291   -0.2649 C   0  0  1  0  0  0  0  0  0  0  0  0
    3.1441   -1.0661   -0.3395 C   0  0  2  0  0  0  0  0  0  0  0  0
    1.0349   -0.4948   -2.2798 C   0  0  0  0  0  0  0  0  0  0  0  0
    2.1527   -2.1461    0.1341 C   0  0  1  0  0  0  0  0  0  0  0  0
   -0.9815    1.8147   -1.4014 C   0  0  0  0  0  0  0  0  0  0  0  0
    2.5293    1.1556    0.8979 C   0  0  2  0  0  0  0  0  0  0  0  0
   -2.1758   -0.9202    1.0804 C   0  0  1  0  0  0  0  0  0  0  0  0
   -2.0546   -1.1408   -1.4528 C   0  0  0  0  0  0  0  0  0  0  0  0
   -3.2573    1.4408   -0.2242 C   0  0  0  0  0  0  0  0  0  0  0  0
    4.4745   -1.1514    0.4117 C   0  0  0  0  0  0  0  0  0  0  0  0
    1.8284    2.4883    0.8255 C   0  0  0  0  0  0  0  0  0  0  0  0
   -3.6649   -0.5986    1.0858 C   0  0  0  0  0  0  0  0  0  0  0  0
   -4.1254    0.6383    0.4124 C   0  0  0  0  0  0  0  0  0  0  0  0
   -3.7555    2.7167   -0.8449 C   0  0  0  0  0  0  0  0  0  0  0  0
    0.3308   -0.4276    0.9862 H   0  0  0  0  0  0  0  0  0  0  0  0
    3.0941    0.9160   -1.1369 H   0  0  0  0  0  0  0  0  0  0  0  0
    1.0471    2.1954   -1.9845 H   0  0  0  0  0  0  0  0  0  0  0  0
   -1.3850    1.5669    0.6724 H   0  0  0  0  0  0  0  0  0  0  0  0
    3.3985   -1.3253   -1.3774 H   0  0  0  0  0  0  0  0  0  0  0  0
    0.2209   -0.2362   -2.9588 H   0  0  0  0  0  0  0  0  0  0  0  0
    1.9585   -0.3586   -2.8527 H   0  0  0  0  0  0  0  0  0  0  0  0
    2.5495   -3.1306   -0.1473 H   0  0  0  0  0  0  0  0  0  0  0  0
   -1.2462    1.4007   -2.3785 H   0  0  0  0  0  0  0  0  0  0  0  0
   -1.2379    2.8805   -1.4391 H   0  0  0  0  0  0  0  0  0  0  0  0
    2.1042    0.5980    1.7365 H   0  0  0  0  0  0  0  0  0  0  0  0
   -1.7542   -0.4145    1.9585 H   0  0  0  0  0  0  0  0  0  0  0  0
   -3.1453   -1.0606   -1.4943 H   0  0  0  0  0  0  0  0  0  0  0  0
   -1.6985   -0.7339   -2.3983 H   0  0  0  0  0  0  0  0  0  0  0  0
   -1.8393   -2.2111   -1.4594 H   0  0  0  0  0  0  0  0  0  0  0  0
    4.9051   -2.1538    0.3077 H   0  0  0  0  0  0  0  0  0  0  0  0
    5.1988   -0.4438   -0.0053 H   0  0  0  0  0  0  0  0  0  0  0  0
    4.3708   -0.9521    1.4820 H   0  0  0  0  0  0  0  0  0  0  0  0
    0.5151   -3.8800   -0.1194 H   0  0  0  0  0  0  0  0  0  0  0  0
    2.8592   -2.5345    1.9175 H   0  0  0  0  0  0  0  0  0  0  0  0
   -5.1854    0.8619    0.4658 H   0  0  0  0  0  0  0  0  0  0  0  0
    4.2762    1.9391    0.4757 H   0  0  0  0  0  0  0  0  0  0  0  0
   -2.4404   -2.7871    0.5729 H   0  0  0  0  0  0  0  0  0  0  0  0
   -4.8281    2.8665   -0.6794 H   0  0  0  0  0  0  0  0  0  0  0  0
   -3.5940    2.7076   -1.9275 H   0  0  0  0  0  0  0  0  0  0  0  0
   -3.2384    3.5793   -0.4123 H   0  0  0  0  0  0  0  0  0  0  0  0
  1 13  1  0  0  0  0
  1 17  1  0  0  0  0
  2 14  1  0  0  0  0
  2 25  1  0  0  0  0
  3 13  1  0  0  0  0
  3 47  1  0  0  0  0
  4 18  1  0  0  0  0
  4 48  1  0  0  0  0
  5 20  1  0  0  0  0
  5 50  1  0  0  0  0
  6 21  1  0  0  0  0
  6 51  1  0  0  0  0
  7 25  2  0  0  0  0
  8 26  2  0  0  0  0
  9 10  1  0  0  0  0
  9 12  1  0  0  0  0
  9 14  1  0  0  0  0
  9 17  1  0  0  0  0
 10 11  1  0  0  0  0
 10 13  1  0  0  0  0
 10 29  1  0  0  0  0
 11 15  1  0  0  0  0
 11 21  1  0  0  0  0
 11 22  1  0  0  0  0
 12 16  1  0  0  0  0
 12 20  1  0  0  0  0
 12 30  1  0  0  0  0
 13 18  1  0  0  0  0
 14 19  1  0  0  0  0
 14 31  1  0  0  0  0
 15 19  1  0  0  0  0
 15 23  1  0  0  0  0
 15 32  1  0  0  0  0
 16 18  1  0  0  0  0
 16 24  1  0  0  0  0
 16 33  1  0  0  0  0
 17 34  1  0  0  0  0
 17 35  1  0  0  0  0
 18 36  1  0  0  0  0
 19 37  1  0  0  0  0
 19 38  1  0  0  0  0
 20 25  1  0  0  0  0
 20 39  1  0  0  0  0
 21 26  1  0  0  0  0
 21 40  1  0  0  0  0
 22 41  1  0  0  0  0
 22 42  1  0  0  0  0
 22 43  1  0  0  0  0
 23 27  2  0  0  0  0
 23 28  1  0  0  0  0
 24 44  1  0  0  0  0
 24 45  1  0  0  0  0
 24 46  1  0  0  0  0
 26 27  1  0  0  0  0
 27 49  1  0  0  0  0
 28 52  1  0  0  0  0
 28 53  1  0  0  0  0
 28 54  1  0  0  0  0
M  END
> <PUBCHEM_COMPOUND_CID>
441797

> <PUBCHEM_CONFORMER_RMSD>
0.6

> <PUBCHEM_CONFORMER_DIVERSEORDER>
1

> <PUBCHEM_MMFF94_PARTIAL_CHARGES>
25
1 -0.56
13 0.56
14 0.28
15 0.14
17 0.28
18 0.28
2 -0.43
20 0.34
21 0.34
23 -0.28
25 0.66
26 0.49
27 -0.14
28 0.14
3 -0.68
4 -0.68
47 0.4
48 0.4
49 0.15
5 -0.68
50 0.4
51 0.4
6 -0.68
7 -0.57
8 -0.57

> <PUBCHEM_EFFECTIVE_ROTOR_COUNT>
1.6

> <PUBCHEM_PHARMACOPHORE_FEATURES>
15
1 1 acceptor
1 3 acceptor
1 3 donor
1 4 acceptor
1 4 donor
1 5 acceptor
1 5 donor
1 6 acceptor
1 6 donor
1 7 acceptor
1 8 acceptor
6 11 15 21 23 26 27 rings
6 2 9 12 14 20 25 rings
6 9 10 11 14 15 19 rings
8 1 9 10 12 13 16 17 18 rings

> <PUBCHEM_HEAVY_ATOM_COUNT>
28

> <PUBCHEM_ATOM_DEF_STEREO_COUNT>
11

> <PUBCHEM_ATOM_UDEF_STEREO_COUNT>
0

> <PUBCHEM_BOND_DEF_STEREO_COUNT>
0

> <PUBCHEM_BOND_UDEF_STEREO_COUNT>
0

> <PUBCHEM_ISOTOPIC_ATOM_COUNT>
0

> <PUBCHEM_COMPONENT_COUNT>
1

> <PUBCHEM_CACTVS_TAUTO_COUNT>
13

> <PUBCHEM_CONFORMER_ID>
0006BDC500000001

> <PUBCHEM_MMFF94_ENERGY>
115.7508

> <PUBCHEM_FEATURE_SELFOVERLAP>
76.357

> <PUBCHEM_SHAPE_FINGERPRINT>
10165383 225 17973991865278867136
10366900 7 18341888602182468415
10675989 125 16683739610596334628
10863032 1 18200030784197371092
10906281 52 18045211897918312708
10948715 1 18260840305653435780
11578080 2 14906799781795470828
11640471 11 15864070983426284037
12011746 2 18265618873556130476
12035758 1 18335424569370645938
12403259 226 18412538834274635355
12422481 6 18119842199621811544
12633257 1 18268435817819514424
12788726 201 17904485452329415738
13140716 1 18408322159774067281
13224815 77 18335138678972401743
13583140 156 18411140272843230555
14178342 30 18129945572460014499
14223421 5 18341046307503302891
14790565 3 18340198614594325308
14955137 171 18187629328545513750
16945 1 18121220879132221884
17349148 13 17632014148779625647
1813 80 15913326922771039118
19049666 15 18340200920754087349
20600515 1 17981313809692131804
20691752 17 17418087763162579989
20905425 154 18271239542410800799
21033648 29 18334023799624820880
21731228 192 18043250132808233936
21756936 100 17542785314057928792
23184049 59 18334858307501508212
23419403 2 17696220340146088244
23559900 14 17983852569351476022
238 59 18116459036075245525
2748010 2 18412826910267686941
350125 39 18340757174679193485
35225 105 17102293480473486968
4340502 62 17897991457641697835
474 4 17822567196894154241
495365 180 18116735064964865609
81228 2 17253137044008926300

> <PUBCHEM_SHAPE_MULTIPOLES>
529.27
6.79
3.37
1.65
2.55
1
0.29
0.27
-2.51
-0.62
-0.77
0
-0.14
1.67

> <PUBCHEM_SHAPE_SELFOVERLAP>
1168.803

> <PUBCHEM_SHAPE_VOLUME>
276

> <PUBCHEM_COORDINATE_TYPE>
2
5
10

$$$$

