443746
  -OEChem-07051213033D

 45 46  0     1  0  0  0  0  0999 V2000
   -2.3377    0.1640    0.4627 Si  0  0  0  0  0  0  0  0  0  0  0  0
   -0.9528   -0.2590   -0.3824 O   0  0  0  0  0  0  0  0  0  0  0  0
    1.9534   -1.4954   -0.5165 O   0  0  0  0  0  0  0  0  0  0  0  0
    3.3920    0.1925    0.2646 O   0  0  0  0  0  0  0  0  0  0  0  0
    2.3876    3.0441    0.0796 O   0  0  0  0  0  0  0  0  0  0  0  0
    1.4177   -0.2307   -0.8957 C   0  0  1  0  0  0  0  0  0  0  0  0
    0.3116    0.1973    0.0722 C   0  0  1  0  0  0  0  0  0  0  0  0
    2.5400    0.7659   -0.7040 C   0  0  1  0  0  0  0  0  0  0  0  0
    0.3710    1.7204    0.0953 C   0  0  0  0  0  0  0  0  0  0  0  0
   -3.8767   -0.5485   -0.3510 C   0  0  0  0  0  0  0  0  0  0  0  0
    1.8342    1.9760   -0.1492 C   0  0  0  0  0  0  0  0  0  0  0  0
    3.1922   -1.2217    0.1526 C   0  0  0  0  0  0  0  0  0  0  0  0
   -2.5132    2.0397    0.4972 C   0  0  0  0  0  0  0  0  0  0  0  0
   -2.2640   -0.4454    2.2409 C   0  0  0  0  0  0  0  0  0  0  0  0
   -4.0167   -0.0077   -1.7913 C   0  0  0  0  0  0  0  0  0  0  0  0
   -3.7859   -2.0900   -0.4056 C   0  0  0  0  0  0  0  0  0  0  0  0
   -5.1352   -0.1534    0.4527 C   0  0  0  0  0  0  0  0  0  0  0  0
    4.3278   -1.8220   -0.6714 C   0  0  0  0  0  0  0  0  0  0  0  0
    3.1546   -1.8260    1.5493 C   0  0  0  0  0  0  0  0  0  0  0  0
    1.0536   -0.2763   -1.9278 H   0  0  0  0  0  0  0  0  0  0  0  0
    0.5093   -0.2172    1.0702 H   0  0  0  0  0  0  0  0  0  0  0  0
    3.0775    0.9912   -1.6290 H   0  0  0  0  0  0  0  0  0  0  0  0
    0.1289    2.1307    1.0771 H   0  0  0  0  0  0  0  0  0  0  0  0
   -0.1784    2.1982   -0.7185 H   0  0  0  0  0  0  0  0  0  0  0  0
   -1.8832    2.5118    1.2527 H   0  0  0  0  0  0  0  0  0  0  0  0
   -3.5387    2.3079    0.7694 H   0  0  0  0  0  0  0  0  0  0  0  0
   -2.3242    2.4836   -0.4835 H   0  0  0  0  0  0  0  0  0  0  0  0
   -3.1568   -0.1484    2.7979 H   0  0  0  0  0  0  0  0  0  0  0  0
   -1.3948   -0.0217    2.7529 H   0  0  0  0  0  0  0  0  0  0  0  0
   -2.1795   -1.5352    2.2760 H   0  0  0  0  0  0  0  0  0  0  0  0
   -4.1256    1.0832   -1.8125 H   0  0  0  0  0  0  0  0  0  0  0  0
   -4.9033   -0.4294   -2.2799 H   0  0  0  0  0  0  0  0  0  0  0  0
   -3.1500   -0.2681   -2.4112 H   0  0  0  0  0  0  0  0  0  0  0  0
   -3.7293   -2.5347    0.5950 H   0  0  0  0  0  0  0  0  0  0  0  0
   -2.9086   -2.4277   -0.9708 H   0  0  0  0  0  0  0  0  0  0  0  0
   -4.6704   -2.5139   -0.8963 H   0  0  0  0  0  0  0  0  0  0  0  0
   -5.1052   -0.5256    1.4830 H   0  0  0  0  0  0  0  0  0  0  0  0
   -6.0333   -0.5806   -0.0109 H   0  0  0  0  0  0  0  0  0  0  0  0
   -5.2878    0.9306    0.4896 H   0  0  0  0  0  0  0  0  0  0  0  0
    4.3440   -1.3922   -1.6795 H   0  0  0  0  0  0  0  0  0  0  0  0
    5.3019   -1.6144   -0.2161 H   0  0  0  0  0  0  0  0  0  0  0  0
    4.2064   -2.9044   -0.7856 H   0  0  0  0  0  0  0  0  0  0  0  0
    4.0878   -1.6365    2.0901 H   0  0  0  0  0  0  0  0  0  0  0  0
    2.3459   -1.3818    2.1400 H   0  0  0  0  0  0  0  0  0  0  0  0
    2.9722   -2.9050    1.5118 H   0  0  0  0  0  0  0  0  0  0  0  0
  1  2  1  0  0  0  0
  1 10  1  0  0  0  0
  1 13  1  0  0  0  0
  1 14  1  0  0  0  0
  2  7  1  0  0  0  0
  3  6  1  0  0  0  0
  3 12  1  0  0  0  0
  4  8  1  0  0  0  0
  4 12  1  0  0  0  0
  5 11  2  0  0  0  0
  6  7  1  0  0  0  0
  6  8  1  0  0  0  0
  6 20  1  0  0  0  0
  7  9  1  0  0  0  0
  7 21  1  0  0  0  0
  8 11  1  0  0  0  0
  8 22  1  0  0  0  0
  9 11  1  0  0  0  0
  9 23  1  0  0  0  0
  9 24  1  0  0  0  0
 10 15  1  0  0  0  0
 10 16  1  0  0  0  0
 10 17  1  0  0  0  0
 12 18  1  0  0  0  0
 12 19  1  0  0  0  0
 13 25  1  0  0  0  0
 13 26  1  0  0  0  0
 13 27  1  0  0  0  0
 14 28  1  0  0  0  0
 14 29  1  0  0  0  0
 14 30  1  0  0  0  0
 15 31  1  0  0  0  0
 15 32  1  0  0  0  0
 15 33  1  0  0  0  0
 16 34  1  0  0  0  0
 16 35  1  0  0  0  0
 16 36  1  0  0  0  0
 17 37  1  0  0  0  0
 17 38  1  0  0  0  0
 17 39  1  0  0  0  0
 18 40  1  0  0  0  0
 18 41  1  0  0  0  0
 18 42  1  0  0  0  0
 19 43  1  0  0  0  0
 19 44  1  0  0  0  0
 19 45  1  0  0  0  0
M  END
> <PUBCHEM_COMPOUND_CID>
443746

> <PUBCHEM_CONFORMER_RMSD>
0.6

> <PUBCHEM_CONFORMER_DIVERSEORDER>
1
3
4
2

> <PUBCHEM_MMFF94_PARTIAL_CHARGES>
14
1 0.54
10 -0.08
11 0.45
12 0.56
13 -0.08
14 -0.08
2 -0.58
3 -0.56
4 -0.56
5 -0.57
6 0.28
7 0.28
8 0.34
9 0.06

> <PUBCHEM_EFFECTIVE_ROTOR_COUNT>
4

> <PUBCHEM_PHARMACOPHORE_FEATURES>
7
1 3 acceptor
1 4 acceptor
1 5 acceptor
3 12 18 19 hydrophobe
4 10 15 16 17 hydrophobe
5 3 4 6 8 12 rings
5 6 7 8 9 11 rings

> <PUBCHEM_HEAVY_ATOM_COUNT>
19

> <PUBCHEM_ATOM_DEF_STEREO_COUNT>
3

> <PUBCHEM_ATOM_UDEF_STEREO_COUNT>
0

> <PUBCHEM_BOND_DEF_STEREO_COUNT>
0

> <PUBCHEM_BOND_UDEF_STEREO_COUNT>
0

> <PUBCHEM_ISOTOPIC_ATOM_COUNT>
0

> <PUBCHEM_COMPONENT_COUNT>
1

> <PUBCHEM_CACTVS_TAUTO_COUNT>
3

> <PUBCHEM_CONFORMER_ID>
0006C56200000001

> <PUBCHEM_MMFF94_ENERGY>
52.9678

> <PUBCHEM_FEATURE_SELFOVERLAP>
36.019

> <PUBCHEM_SHAPE_FINGERPRINT>
10062212 137 18260269676836526753
10366900 7 17988635298675994770
11405975 8 18341897385817791713
12236239 1 17676482830938058133
12363563 72 18340202007122123046
12403259 415 17561084705137310389
12553582 1 18268988850825538458
12633257 1 18261100899047727303
12707595 3 18342735247595023998
12916754 54 18336261267564993063
13009979 54 17604692478534518346
13134695 92 18413388739556773948
13167823 11 18409448047181136351
13224815 77 17095239198911809559
13533116 47 18272366473552926003
14178342 30 17533202288157082571
15442244 35 18336261340031025205
16945 1 18337659824622374124
17349148 13 17967817171333227007
17492 89 18335981978495255231
17834072 14 18335433386458495137
1813 80 18115290311175705390
18186145 218 17775574126348400269
18222031 100 18260839236523337126
19050596 39 17968093114629125203
192875 21 18260274066029307199
19862831 5 17560803234233838867
200 152 18187085053209777877
20279233 1 17132111329622662354
20281475 54 18187927236246122063
20369508 70 18273220806692982770
20626108 58 17968674713362564663
20645477 70 18412542080948008438
20671657 53 18343586273720961457
20832881 197 18059017314439734355
21250096 35 18341619264535689346
21267235 1 18336253630564748511
21501502 16 18409721876688948069
21501925 9 18335144202004958112
21524375 3 17681547035710039912
221490 88 18339918208336100559
2255824 54 18340199696561508788
22646028 1 17822014207270637599
22646028 28 18335138713021085543
23402539 116 18336266867648407134
23503953 91 18040428906784261731
23557571 272 16950838214948213217
23559900 14 18335425655353741155
2838139 119 13396903162211307222
2916195 48 11887081303940099246
312423 11 18336811048837649841
3286 77 18342458148973580573
4990 188 13254792473261489914
5104073 3 18335134255425138843
5161694 15 17775006790974913487
5281201 14 17775568624273781133
633830 44 17561091276484693949
7364860 26 18335981974400254016
7615 1 17895462674848795921
9709674 26 18270396088364960355

> <PUBCHEM_SHAPE_MULTIPOLES>
385.75
9.13
2.39
1.37
2.75
1.01
-0.38
-3.93
0.86
-1.73
-0.13
0.79
-0.4
-0.46

> <PUBCHEM_SHAPE_SELFOVERLAP>
774.244

> <PUBCHEM_SHAPE_VOLUME>
232.8

> <PUBCHEM_COORDINATE_TYPE>
2
5
10

$$$$

