5326317
  -OEChem-07051212533D

 26 26  0     0  0  0  0  0  0999 V2000
    1.8699    0.0303    1.6172 O   0  0  0  0  0  0  0  0  0  0  0  0
   -0.0223    2.4038    0.2021 O   0  0  0  0  0  0  0  0  0  0  0  0
   -0.0162   -2.3954    0.2414 O   0  0  0  0  0  0  0  0  0  0  0  0
   -4.0818   -0.0058   -0.4333 O   0  0  0  0  0  0  0  0  0  0  0  0
    2.4178   -0.0001   -0.7285 C   0  0  0  0  0  0  0  0  0  0  0  0
    1.4563    0.0083    0.4586 C   0  0  0  0  0  0  0  0  0  0  0  0
   -0.0174    0.0040    0.2217 C   0  0  0  0  0  0  0  0  0  0  0  0
    3.3159    1.2317   -0.6724 C   0  0  0  0  0  0  0  0  0  0  0  0
    3.2598   -1.2770   -0.7130 C   0  0  0  0  0  0  0  0  0  0  0  0
   -0.6738    1.2104    0.1065 C   0  0  0  0  0  0  0  0  0  0  0  0
   -0.6710   -1.2056    0.1262 C   0  0  0  0  0  0  0  0  0  0  0  0
   -2.0510    1.2069   -0.1151 C   0  0  0  0  0  0  0  0  0  0  0  0
   -2.0482   -1.2089   -0.0954 C   0  0  0  0  0  0  0  0  0  0  0  0
   -2.7381   -0.0026   -0.2161 C   0  0  0  0  0  0  0  0  0  0  0  0
    1.8346    0.0279   -1.6564 H   0  0  0  0  0  0  0  0  0  0  0  0
    3.9001    1.2636    0.2539 H   0  0  0  0  0  0  0  0  0  0  0  0
    2.7248    2.1515   -0.7212 H   0  0  0  0  0  0  0  0  0  0  0  0
    4.0156    1.2409   -1.5148 H   0  0  0  0  0  0  0  0  0  0  0  0
    3.9376   -1.3068   -1.5723 H   0  0  0  0  0  0  0  0  0  0  0  0
    3.8616   -1.3487    0.1997 H   0  0  0  0  0  0  0  0  0  0  0  0
    2.6203   -2.1647   -0.7557 H   0  0  0  0  0  0  0  0  0  0  0  0
   -2.5894    2.1467   -0.2093 H   0  0  0  0  0  0  0  0  0  0  0  0
   -2.5853   -2.1510   -0.1744 H   0  0  0  0  0  0  0  0  0  0  0  0
    0.8794    2.2680    0.5335 H   0  0  0  0  0  0  0  0  0  0  0  0
   -0.6553   -3.1218    0.1427 H   0  0  0  0  0  0  0  0  0  0  0  0
   -4.3924   -0.9265   -0.4762 H   0  0  0  0  0  0  0  0  0  0  0  0
  1  6  2  0  0  0  0
  2 10  1  0  0  0  0
  2 24  1  0  0  0  0
  3 11  1  0  0  0  0
  3 25  1  0  0  0  0
  4 14  1  0  0  0  0
  4 26  1  0  0  0  0
  5  6  1  0  0  0  0
  5  8  1  0  0  0  0
  5  9  1  0  0  0  0
  5 15  1  0  0  0  0
  6  7  1  0  0  0  0
  7 10  2  0  0  0  0
  7 11  1  0  0  0  0
  8 16  1  0  0  0  0
  8 17  1  0  0  0  0
  8 18  1  0  0  0  0
  9 19  1  0  0  0  0
  9 20  1  0  0  0  0
  9 21  1  0  0  0  0
 10 12  1  0  0  0  0
 11 13  2  0  0  0  0
 12 14  2  0  0  0  0
 12 22  1  0  0  0  0
 13 14  1  0  0  0  0
 13 23  1  0  0  0  0
M  END
> <PUBCHEM_COMPOUND_CID>
5326317

> <PUBCHEM_CONFORMER_RMSD>
0.6

> <PUBCHEM_CONFORMER_DIVERSEORDER>
1
3
4
2

> <PUBCHEM_MMFF94_PARTIAL_CHARGES>
17
1 -0.57
10 0.08
11 0.08
12 -0.15
13 -0.15
14 0.08
2 -0.53
22 0.15
23 0.15
24 0.45
25 0.45
26 0.45
3 -0.53
4 -0.53
5 0.06
6 0.42
7 0.09

> <PUBCHEM_EFFECTIVE_ROTOR_COUNT>
2

> <PUBCHEM_PHARMACOPHORE_FEATURES>
6
1 1 acceptor
1 2 donor
1 3 donor
1 4 donor
3 5 8 9 hydrophobe
6 7 10 11 12 13 14 rings

> <PUBCHEM_HEAVY_ATOM_COUNT>
14

> <PUBCHEM_ATOM_DEF_STEREO_COUNT>
0

> <PUBCHEM_ATOM_UDEF_STEREO_COUNT>
0

> <PUBCHEM_BOND_DEF_STEREO_COUNT>
0

> <PUBCHEM_BOND_UDEF_STEREO_COUNT>
0

> <PUBCHEM_ISOTOPIC_ATOM_COUNT>
0

> <PUBCHEM_COMPONENT_COUNT>
1

> <PUBCHEM_CACTVS_TAUTO_COUNT>
25

> <PUBCHEM_CONFORMER_ID>
005145ED00000001

> <PUBCHEM_MMFF94_ENERGY>
38.5119

> <PUBCHEM_FEATURE_SELFOVERLAP>
30.446

> <PUBCHEM_SHAPE_FINGERPRINT>
12032990 46 18409162208385641199
12524768 44 18191595150595263512
12897270 3 18336816499441052124
13538477 17 17917720062764876290
14911166 2 18410579466120512909
14993402 34 18341612598957189229
15775835 57 17632578227813294580
16945 1 18410867555267718353
18186145 218 18131632304732512061
18619055 16 18412540990321610494
193761 8 17689718988231287931
19765921 60 17416117279411958316
20201158 50 18040426724682665974
20645476 183 17775566411991466483
20871999 31 18266456503721724471
21501502 16 18116141362855285142
22802520 49 18262221296774604566
23402539 116 18409176493504610996
23463225 33 18270406116913188410
23493267 7 17702939361456512289
23552423 10 18126286591078619067
23559900 14 18335137580004014916
2748010 2 18051986818317388395
3286 77 17095249150055667706
353137 74 18341327876853379268
5084963 1 18187927347503815136
528886 8 18410573967992739483
53812653 8 18343303682073878833
7364860 26 18334297522660386808

> <PUBCHEM_SHAPE_MULTIPOLES>
264.64
5.32
1.93
0.89
0.08
0.01
0.19
0
-1.55
-0.12
0.01
-0.5
0
0.03

> <PUBCHEM_SHAPE_SELFOVERLAP>
553.86

> <PUBCHEM_SHAPE_VOLUME>
151.4

> <PUBCHEM_COORDINATE_TYPE>
2
5
10

$$$$

