200665
  -OEChem-07051213053D

 59 62  0     1  0  0  0  0  0999 V2000
   -3.8307    3.2821    0.8158 Cl  0  0  0  0  0  0  0  0  0  0  0  0
    3.0515   -0.5867    1.1415 O   0  0  0  0  0  0  0  0  0  0  0  0
    5.0887    0.3688   -1.2025 O   0  0  0  0  0  0  0  0  0  0  0  0
   -5.6949   -1.4395    1.9658 O   0  0  0  0  0  0  0  0  0  0  0  0
    5.1031    0.3842    1.5716 O   0  0  0  0  0  0  0  0  0  0  0  0
    1.6216   -0.1135   -0.8247 C   0  0  1  0  0  0  0  0  0  0  0  0
    0.7487    0.8533    0.0113 C   0  0  2  0  0  0  0  0  0  0  0  0
   -0.6898    0.9660   -0.5097 C   0  0  1  0  0  0  0  0  0  0  0  0
   -1.3549   -0.4545   -0.4670 C   0  0  1  0  0  0  0  0  0  0  0  0
    2.9847    0.0874   -0.1113 C   0  0  1  0  0  0  0  0  0  0  0  0
    0.9836   -1.5092   -0.7287 C   0  0  0  0  0  0  0  0  0  0  0  0
   -2.8556   -0.4075   -0.9340 C   0  0  2  0  0  0  0  0  0  0  0  0
    1.5954    2.1201    0.0913 C   0  0  0  0  0  0  0  0  0  0  0  0
   -0.4841   -1.5089   -1.1968 C   0  0  0  0  0  0  0  0  0  0  0  0
    3.0471    1.6066    0.1637 C   0  0  0  0  0  0  0  0  0  0  0  0
   -1.5069    2.0003    0.2898 C   0  0  0  0  0  0  0  0  0  0  0  0
    1.7395    0.2978   -2.3193 C   0  0  0  0  0  0  0  0  0  0  0  0
   -3.5489    0.6200   -0.0099 C   0  0  0  0  0  0  0  0  0  0  0  0
   -2.9819    2.0264   -0.1333 C   0  0  1  0  0  0  0  0  0  0  0  0
   -3.5687   -1.7877   -0.8476 C   0  0  0  0  0  0  0  0  0  0  0  0
   -2.9812    0.0090   -2.4233 C   0  0  0  0  0  0  0  0  0  0  0  0
    4.1862   -0.3966   -0.8670 C   0  0  0  0  0  0  0  0  0  0  0  0
   -3.9076   -2.2053    0.5686 C   0  0  0  0  0  0  0  0  0  0  0  0
   -4.4688    0.2682    0.9085 C   0  0  0  0  0  0  0  0  0  0  0  0
   -4.7883   -1.1539    1.1866 C   0  0  0  0  0  0  0  0  0  0  0  0
    4.2347   -1.8649   -1.1923 C   0  0  0  0  0  0  0  0  0  0  0  0
    4.1724   -0.3458    1.8846 C   0  0  0  0  0  0  0  0  0  0  0  0
    4.1051   -1.1163    3.1683 C   0  0  0  0  0  0  0  0  0  0  0  0
    0.6794    0.4641    1.0404 H   0  0  0  0  0  0  0  0  0  0  0  0
   -0.6586    1.3242   -1.5433 H   0  0  0  0  0  0  0  0  0  0  0  0
   -1.3585   -0.7597    0.5913 H   0  0  0  0  0  0  0  0  0  0  0  0
    1.0135   -1.8732    0.3059 H   0  0  0  0  0  0  0  0  0  0  0  0
    1.5347   -2.2392   -1.3295 H   0  0  0  0  0  0  0  0  0  0  0  0
    1.3416    2.7223    0.9701 H   0  0  0  0  0  0  0  0  0  0  0  0
    1.4563    2.7527   -0.7927 H   0  0  0  0  0  0  0  0  0  0  0  0
   -0.5245   -1.3554   -2.2797 H   0  0  0  0  0  0  0  0  0  0  0  0
   -0.8797   -2.5131   -1.0117 H   0  0  0  0  0  0  0  0  0  0  0  0
    3.6334    2.1564   -0.5813 H   0  0  0  0  0  0  0  0  0  0  0  0
    3.4312    1.8954    1.1454 H   0  0  0  0  0  0  0  0  0  0  0  0
   -1.0695    2.9964    0.1454 H   0  0  0  0  0  0  0  0  0  0  0  0
   -1.4285    1.7743    1.3624 H   0  0  0  0  0  0  0  0  0  0  0  0
    0.7691    0.3776   -2.8157 H   0  0  0  0  0  0  0  0  0  0  0  0
    2.2390    1.2630   -2.4503 H   0  0  0  0  0  0  0  0  0  0  0  0
    2.3133   -0.4395   -2.8894 H   0  0  0  0  0  0  0  0  0  0  0  0
   -3.0683    2.3708   -1.1674 H   0  0  0  0  0  0  0  0  0  0  0  0
   -2.9846   -2.5737   -1.3365 H   0  0  0  0  0  0  0  0  0  0  0  0
   -4.5130   -1.7386   -1.4108 H   0  0  0  0  0  0  0  0  0  0  0  0
   -4.0285    0.2015   -2.6874 H   0  0  0  0  0  0  0  0  0  0  0  0
   -2.4204    0.9118   -2.6760 H   0  0  0  0  0  0  0  0  0  0  0  0
   -2.6207   -0.7843   -3.0879 H   0  0  0  0  0  0  0  0  0  0  0  0
   -3.0158   -2.3396    1.1879 H   0  0  0  0  0  0  0  0  0  0  0  0
   -4.4573   -3.1527    0.5467 H   0  0  0  0  0  0  0  0  0  0  0  0
   -4.9502    0.9787    1.5694 H   0  0  0  0  0  0  0  0  0  0  0  0
    3.8203   -2.4685   -0.3820 H   0  0  0  0  0  0  0  0  0  0  0  0
    3.7054   -2.0667   -2.1245 H   0  0  0  0  0  0  0  0  0  0  0  0
    5.2809   -2.1618   -1.3165 H   0  0  0  0  0  0  0  0  0  0  0  0
    4.0558   -2.1869    2.9547 H   0  0  0  0  0  0  0  0  0  0  0  0
    3.2335   -0.7978    3.7457 H   0  0  0  0  0  0  0  0  0  0  0  0
    5.0051   -0.9190    3.7575 H   0  0  0  0  0  0  0  0  0  0  0  0
  1 19  1  0  0  0  0
  2 10  1  0  0  0  0
  2 27  1  0  0  0  0
  3 22  2  0  0  0  0
  4 25  2  0  0  0  0
  5 27  2  0  0  0  0
  6  7  1  0  0  0  0
  6 10  1  0  0  0  0
  6 11  1  0  0  0  0
  6 17  1  0  0  0  0
  7  8  1  0  0  0  0
  7 13  1  0  0  0  0
  7 29  1  0  0  0  0
  8  9  1  0  0  0  0
  8 16  1  0  0  0  0
  8 30  1  0  0  0  0
  9 12  1  0  0  0  0
  9 14  1  0  0  0  0
  9 31  1  0  0  0  0
 10 15  1  0  0  0  0
 10 22  1  0  0  0  0
 11 14  1  0  0  0  0
 11 32  1  0  0  0  0
 11 33  1  0  0  0  0
 12 18  1  0  0  0  0
 12 20  1  0  0  0  0
 12 21  1  0  0  0  0
 13 15  1  0  0  0  0
 13 34  1  0  0  0  0
 13 35  1  0  0  0  0
 14 36  1  0  0  0  0
 14 37  1  0  0  0  0
 15 38  1  0  0  0  0
 15 39  1  0  0  0  0
 16 19  1  0  0  0  0
 16 40  1  0  0  0  0
 16 41  1  0  0  0  0
 17 42  1  0  0  0  0
 17 43  1  0  0  0  0
 17 44  1  0  0  0  0
 18 19  1  0  0  0  0
 18 24  2  0  0  0  0
 19 45  1  0  0  0  0
 20 23  1  0  0  0  0
 20 46  1  0  0  0  0
 20 47  1  0  0  0  0
 21 48  1  0  0  0  0
 21 49  1  0  0  0  0
 21 50  1  0  0  0  0
 22 26  1  0  0  0  0
 23 25  1  0  0  0  0
 23 51  1  0  0  0  0
 23 52  1  0  0  0  0
 24 25  1  0  0  0  0
 24 53  1  0  0  0  0
 26 54  1  0  0  0  0
 26 55  1  0  0  0  0
 26 56  1  0  0  0  0
 27 28  1  0  0  0  0
 28 57  1  0  0  0  0
 28 58  1  0  0  0  0
 28 59  1  0  0  0  0
M  END
> <PUBCHEM_COMPOUND_CID>
200665

> <PUBCHEM_CONFORMER_RMSD>
0.8

> <PUBCHEM_CONFORMER_DIVERSEORDER>
1
5
4
3
2

> <PUBCHEM_MMFF94_PARTIAL_CHARGES>
17
1 -0.29
10 0.34
12 0.14
18 -0.28
19 0.43
2 -0.43
22 0.45
23 0.06
24 -0.14
25 0.49
26 0.06
27 0.66
28 0.06
3 -0.57
4 -0.57
5 -0.57
53 0.15

> <PUBCHEM_EFFECTIVE_ROTOR_COUNT>
4.8

> <PUBCHEM_PHARMACOPHORE_FEATURES>
7
1 3 acceptor
1 4 acceptor
1 5 acceptor
5 6 7 10 13 15 rings
6 12 18 20 23 24 25 rings
6 6 7 8 9 11 14 rings
6 8 9 12 16 18 19 rings

> <PUBCHEM_HEAVY_ATOM_COUNT>
28

> <PUBCHEM_ATOM_DEF_STEREO_COUNT>
7

> <PUBCHEM_ATOM_UDEF_STEREO_COUNT>
0

> <PUBCHEM_BOND_DEF_STEREO_COUNT>
0

> <PUBCHEM_BOND_UDEF_STEREO_COUNT>
0

> <PUBCHEM_ISOTOPIC_ATOM_COUNT>
0

> <PUBCHEM_COMPONENT_COUNT>
1

> <PUBCHEM_CACTVS_TAUTO_COUNT>
4

> <PUBCHEM_CONFORMER_ID>
00030FD900000001

> <PUBCHEM_MMFF94_ENERGY>
98.5687

> <PUBCHEM_FEATURE_SELFOVERLAP>
35.637

> <PUBCHEM_SHAPE_FINGERPRINT>
10319926 262 18262522623243235778
10928967 22 17846784000636681859
1100329 8 14657975567454876629
11089746 13 14996274847145655867
11370993 144 16298097692295248887
11405975 8 16008750216761977190
11578080 2 16661227917349133761
11595378 159 18341621438094953312
11796584 16 17417264254575564626
12236239 1 17989198257562333324
12403259 415 17676204693256593864
12422481 6 18114728413594694809
12553582 1 18408043996032233413
12596602 18 18131915949169010088
12633257 1 18041850497455650729
12788726 201 18342166757154818945
12892183 10 18271259273870295648
13103583 49 17987525968747894224
13140716 1 18047199552700114447
13224815 77 17894638040879842485
13583140 156 17916888849085341164
13675066 3 17894631460968793940
13726171 33 18192403381974220352
14178342 30 18339077206811369089
14341114 176 18334845121851689335
15788980 27 18334858324633904949
15799311 1 16702011024021386202
17349148 13 17846774104973476203
1813 80 17846491509279229861
19078846 21 18341621446832652240
19377110 9 18060420184108750928
200 152 14476960048150026111
20261772 1 18113892741523198871
20775530 9 17199094519155230051
21033648 144 15792028778345913664
21033648 29 17603877740096765072
22122407 14 14635410703131419163
22182313 1 17896304978239111741
23557571 272 18114451353464926653
23559900 14 17969221304038477636
23569914 152 13538583017466462771
2838139 119 5832839444564655506
312423 11 18201422658829257837
3472631 163 14129050418499638499
34797466 226 12535337996109188595
350125 39 18262503836797976029
376196 1 17322957115512017469
4340502 62 17489025947405838072
460360 51 17987249995650857966
474 4 4750870472758133290
508706 21 18260271875569788037
5104073 3 18262235633464856562

> <PUBCHEM_SHAPE_MULTIPOLES>
554.62
11.54
2.48
2.14
1.14
1.18
1.03
-1.93
5.37
-2.55
0.08
1.47
-0.74
0.55

> <PUBCHEM_SHAPE_SELFOVERLAP>
1182.253

> <PUBCHEM_SHAPE_VOLUME>
308.2

> <PUBCHEM_COORDINATE_TYPE>
2
5
10

$$$$

