4519
  -OEChem-06261200112D

 23 22  0     0  0  0  0  0  0999 V2000
    6.0010    2.1550    0.0000 O   0  5  0  0  0  0  0  0  0  0  0  0
    7.7331    1.1550    0.0000 O   0  0  0  0  0  0  0  0  0  0  0  0
    5.1350    0.6550    0.0000 N   0  0  0  0  0  0  0  0  0  0  0  0
    6.0010    1.1550    0.0000 N   0  0  0  0  0  0  0  0  0  0  0  0
    2.5369    1.1550    0.0000 N   0  0  0  0  0  0  0  0  0  0  0  0
    4.2690   -1.8450    0.0000 N   0  0  0  0  0  0  0  0  0  0  0  0
    6.8671    0.6550    0.0000 N   0  0  0  0  0  0  0  0  0  0  0  0
    4.2690    1.1550    0.0000 C   0  0  0  0  0  0  0  0  0  0  0  0
    5.1350   -0.3450    0.0000 C   0  0  0  0  0  0  0  0  0  0  0  0
    3.4030    0.6550    0.0000 C   0  0  0  0  0  0  0  0  0  0  0  0
    4.2690   -0.8450    0.0000 C   0  0  0  0  0  0  0  0  0  0  0  0
    4.6675    1.6300    0.0000 H   0  0  0  0  0  0  0  0  0  0  0  0
    3.8705    1.6300    0.0000 H   0  0  0  0  0  0  0  0  0  0  0  0
    5.3471   -0.9276    0.0000 H   0  0  0  0  0  0  0  0  0  0  0  0
    5.7456   -0.2373    0.0000 H   0  0  0  0  0  0  0  0  0  0  0  0
    3.0044    0.1801    0.0000 H   0  0  0  0  0  0  0  0  0  0  0  0
    3.8015    0.1801    0.0000 H   0  0  0  0  0  0  0  0  0  0  0  0
    4.0569   -0.2624    0.0000 H   0  0  0  0  0  0  0  0  0  0  0  0
    3.6584   -0.9527    0.0000 H   0  0  0  0  0  0  0  0  0  0  0  0
    3.7320   -2.1550    0.0000 H   0  0  0  0  0  0  0  0  0  0  0  0
    4.8059   -2.1550    0.0000 H   0  0  0  0  0  0  0  0  0  0  0  0
    2.0000    0.8450    0.0000 H   0  0  0  0  0  0  0  0  0  0  0  0
    2.5369    1.7750    0.0000 H   0  0  0  0  0  0  0  0  0  0  0  0
  1  4  1  0  0  0  0
  2  7  2  0  0  0  0
  3  4  1  0  0  0  0
  3  8  1  0  0  0  0
  3  9  1  0  0  0  0
  4  7  1  0  0  0  0
  5 10  1  0  0  0  0
  5 22  1  0  0  0  0
  5 23  1  0  0  0  0
  6 11  1  0  0  0  0
  6 20  1  0  0  0  0
  6 21  1  0  0  0  0
  8 10  1  0  0  0  0
  8 12  1  0  0  0  0
  8 13  1  0  0  0  0
  9 11  1  0  0  0  0
  9 14  1  0  0  0  0
  9 15  1  0  0  0  0
 10 16  1  0  0  0  0
 10 17  1  0  0  0  0
 11 18  1  0  0  0  0
 11 19  1  0  0  0  0
M  CHG  1   1  -1
M  END
> <PUBCHEM_COMPOUND_CID>
4519

> <PUBCHEM_COMPOUND_CANONICALIZED>
1

> <PUBCHEM_CACTVS_COMPLEXITY>
105

> <PUBCHEM_CACTVS_HBOND_ACCEPTOR>
7

> <PUBCHEM_CACTVS_HBOND_DONOR>
2

> <PUBCHEM_CACTVS_ROTATABLE_BOND>
5

> <PUBCHEM_CACTVS_SUBSKEYS>
AAADccBjsAAAAAAAAAAAAAAAAAAAAAAAAAAAAAAAAAAAAAAAAAAAHAAcAAAAAADBAAQAAAJAAAABAAAAAAAAAAAAAAAQAIAIAAAAQAAAAAAQAAAAEACAAAAAAAAAAAAAAAAAAAAAAAAAAAAAAAAAAAAAAA==

> <PUBCHEM_IUPAC_OPENEYE_NAME>
N-[bis(2-aminoethyl)amino]-N-oxido-nitrous amide

> <PUBCHEM_IUPAC_CAS_NAME>
N-[bis(2-aminoethyl)amino]-N-oxidonitrous amide

> <PUBCHEM_IUPAC_NAME>
N-[bis(2-aminoethyl)amino]-N-oxidonitrous amide

> <PUBCHEM_IUPAC_SYSTEMATIC_NAME>
N-[bis(2-azanylethyl)amino]-N-oxidanidyl-nitrous amide

> <PUBCHEM_IUPAC_TRADITIONAL_NAME>
N-[bis(2-aminoethyl)amino]-N-oxido-nitrous amide

> <PUBCHEM_IUPAC_INCHI>
InChI=1S/C4H12N5O2/c5-1-3-8(4-2-6)9(11)7-10/h1-6H2/q-1

> <PUBCHEM_IUPAC_INCHIKEY>
PAOXTYJXTPPVHU-UHFFFAOYSA-N

> <PUBCHEM_XLOGP3_AA>
-2

> <PUBCHEM_EXACT_MASS>
162.0991

> <PUBCHEM_MOLECULAR_FORMULA>
C4H12N5O2-

> <PUBCHEM_MOLECULAR_WEIGHT>
162.17038

> <PUBCHEM_OPENEYE_CAN_SMILES>
C(CN(CCN)N(N=O)[O-])N

> <PUBCHEM_OPENEYE_ISO_SMILES>
C(CN(CCN)N(N=O)[O-])N

> <PUBCHEM_CACTVS_TPSA>
111

> <PUBCHEM_MONOISOTOPIC_WEIGHT>
162.0991

> <PUBCHEM_TOTAL_CHARGE>
-1

> <PUBCHEM_HEAVY_ATOM_COUNT>
11

> <PUBCHEM_ATOM_DEF_STEREO_COUNT>
0

> <PUBCHEM_ATOM_UDEF_STEREO_COUNT>
0

> <PUBCHEM_BOND_DEF_STEREO_COUNT>
0

> <PUBCHEM_BOND_UDEF_STEREO_COUNT>
0

> <PUBCHEM_ISOTOPIC_ATOM_COUNT>
0

> <PUBCHEM_COMPONENT_COUNT>
1

> <PUBCHEM_CACTVS_TAUTO_COUNT>
1

> <PUBCHEM_COORDINATE_TYPE>
1
5
255

$$$$

