183419
  -OEChem-07051213013D

 38 39  0     0  0  0  0  0  0999 V2000
   -4.6697   -1.7416    0.0618 Cl  0  0  0  0  0  0  0  0  0  0  0  0
   -3.1704    2.1232    0.3062 S   0  0  0  0  0  0  0  0  0  0  0  0
   -0.0378   -3.4841   -0.9402 F   0  0  0  0  0  0  0  0  0  0  0  0
    6.3446    2.8119   -1.0998 F   0  0  0  0  0  0  0  0  0  0  0  0
   -3.7820    3.1262    1.1579 O   0  0  0  0  0  0  0  0  0  0  0  0
   -1.9071    2.3878   -0.3537 O   0  0  0  0  0  0  0  0  0  0  0  0
    1.5281    0.8608    1.1317 O   0  0  0  0  0  0  0  0  0  0  0  0
    3.2608   -0.5504    0.3853 N   0  0  0  0  0  0  0  0  0  0  0  0
    1.2209   -1.2451    0.1124 N   0  0  0  0  0  0  0  0  0  0  0  0
   -3.1145    0.6382    1.1735 N   0  0  0  0  0  0  0  0  0  0  0  0
    3.2859   -1.7755   -0.2133 N   0  0  0  0  0  0  0  0  0  0  0  0
    2.0964   -2.1829   -0.3741 N   0  0  0  0  0  0  0  0  0  0  0  0
    4.4210    0.2256    0.7261 C   0  0  0  0  0  0  0  0  0  0  0  0
   -0.1564   -1.3537    0.1042 C   0  0  0  0  0  0  0  0  0  0  0  0
   -2.3422   -0.4344    0.6246 C   0  0  0  0  0  0  0  0  0  0  0  0
    4.8472    1.1555   -0.4011 C   0  0  0  0  0  0  0  0  0  0  0  0
   -0.9515   -0.3270    0.6316 C   0  0  0  0  0  0  0  0  0  0  0  0
   -4.3649    1.7119   -0.9461 C   0  0  0  0  0  0  0  0  0  0  0  0
    1.9451   -0.1640    0.6168 C   0  0  0  0  0  0  0  0  0  0  0  0
   -0.7792   -2.4900   -0.4305 C   0  0  0  0  0  0  0  0  0  0  0  0
   -2.9515   -1.5696    0.0897 C   0  0  0  0  0  0  0  0  0  0  0  0
   -2.1699   -2.5975   -0.4378 C   0  0  0  0  0  0  0  0  0  0  0  0
    6.0610    1.9986   -0.0464 C   0  0  0  0  0  0  0  0  0  0  0  0
   -4.6136    2.8760   -1.8789 C   0  0  0  0  0  0  0  0  0  0  0  0
    4.1873    0.8174    1.6187 H   0  0  0  0  0  0  0  0  0  0  0  0
    5.2306   -0.4660    0.9843 H   0  0  0  0  0  0  0  0  0  0  0  0
    5.0660    0.5760   -1.3066 H   0  0  0  0  0  0  0  0  0  0  0  0
    4.0192    1.8215   -0.6747 H   0  0  0  0  0  0  0  0  0  0  0  0
   -0.5537    0.5693    1.0837 H   0  0  0  0  0  0  0  0  0  0  0  0
   -3.9761    0.8664   -1.5194 H   0  0  0  0  0  0  0  0  0  0  0  0
   -5.2922    1.4226   -0.4437 H   0  0  0  0  0  0  0  0  0  0  0  0
   -4.0112    0.3349    1.5769 H   0  0  0  0  0  0  0  0  0  0  0  0
   -2.6286   -3.4887   -0.8584 H   0  0  0  0  0  0  0  0  0  0  0  0
    5.8699    2.6311    0.8253 H   0  0  0  0  0  0  0  0  0  0  0  0
    6.9394    1.3766    0.1476 H   0  0  0  0  0  0  0  0  0  0  0  0
   -5.3503    2.6026   -2.6406 H   0  0  0  0  0  0  0  0  0  0  0  0
   -4.9945    3.7457   -1.3340 H   0  0  0  0  0  0  0  0  0  0  0  0
   -3.6937    3.1791   -2.3891 H   0  0  0  0  0  0  0  0  0  0  0  0
  1 21  1  0  0  0  0
  2  5  2  0  0  0  0
  2  6  2  0  0  0  0
  2 10  1  0  0  0  0
  2 18  1  0  0  0  0
  3 20  1  0  0  0  0
  4 23  1  0  0  0  0
  7 19  2  0  0  0  0
  8 11  1  0  0  0  0
  8 13  1  0  0  0  0
  8 19  1  0  0  0  0
  9 12  1  0  0  0  0
  9 14  1  0  0  0  0
  9 19  1  0  0  0  0
 10 15  1  0  0  0  0
 10 32  1  0  0  0  0
 11 12  2  0  0  0  0
 13 16  1  0  0  0  0
 13 25  1  0  0  0  0
 13 26  1  0  0  0  0
 14 17  1  0  0  0  0
 14 20  2  0  0  0  0
 15 17  2  0  0  0  0
 15 21  1  0  0  0  0
 16 23  1  0  0  0  0
 16 27  1  0  0  0  0
 16 28  1  0  0  0  0
 17 29  1  0  0  0  0
 18 24  1  0  0  0  0
 18 30  1  0  0  0  0
 18 31  1  0  0  0  0
 20 22  1  0  0  0  0
 21 22  2  0  0  0  0
 22 33  1  0  0  0  0
 23 34  1  0  0  0  0
 23 35  1  0  0  0  0
 24 36  1  0  0  0  0
 24 37  1  0  0  0  0
 24 38  1  0  0  0  0
M  END
> <PUBCHEM_COMPOUND_CID>
183419

> <PUBCHEM_CONFORMER_RMSD>
0.8

> <PUBCHEM_CONFORMER_DIVERSEORDER>
1
368
318
262
309
439
391
420
231
436
305
335
206
274
260
397
250
416
265
98
443
354
141
339
11
418
445
279
76
343
355
175
52
344
270
226
364
104
258
184
248
328
451
252
155
247
212
432
123
424
232
455
240
158
280
253
148
237
269
386
174
431
241
95
427
296
322
393
292
139
405
320
257
79
197
396
153
114
213
412
41
249
413
398
361
219
187
352
374
192
202
457
410
210
28
217
276
115
360
136
112
293
166
142
390
256
246
177
96
179
402
369
243
203
315
313
284
363
282
433
286
149
183
235
298
345
157
308
367
384
307
330
173
334
88
283
220
130
285
331
449
404
14
86
109
340
306
407
99
6
376
176
147
438
254
383
205
8
103
301
294
422
319
162
107
419
90
440
242
300
208
160
446
373
140
399
194
62
371
400
332
222
378
126
429
72
182
181
111
61
409
151
16
297
238
118
119
304
264
394
228
200
135
167
84
382
442
13
32
59
58
267
198
375
152
272
50
48
341
113
121
224
193
275
385
225
83
12
450
303
171
75
94
411
110
421
268
47
356
379
403
65
46
3
255
277
117
349
288
287
191
38
82
317
132
266
44
49
428
161
207
395
186
456
42
134
85
172
101
34
381
185
2
289
89
27
362
233
290
365
120
325
102
326
425
100
53
188
263
169
165
342
302
68
124
106
128
51
170
5
26
329
359
336
430
63
357
229
209
278
178
195
358
56
154
144
87
366
137
23
230
19
236
448
70
423
21
353
321
239
417
57
327
215
435
156
338
91
22
372
69
129
54
444
333
92
377
30
281
18
234
145
388
216
259
392
299
452
43
17
25
244
55
223
273
348
324
78
387
143
163
245
4
350
316
370
64
441
116
36
122
190
323
337
20
31
271
347
60
24
414
67
408
346
108
37
93
81
146
138
74
227
45
204
310
351
150
105
33
7
127
314
133
380
291
201
73
295
77
125
406
29
261
168
189
15
10
39
251
9
454
196
159
66
97
415
71
211
40
434
221
426
312
35
80
453
131
214
164
389
218
447
180
311
401
437
199

> <PUBCHEM_MMFF94_PARTIAL_CHARGES>
25
1 -0.18
10 -0.76
11 -0.06
12 -0.06
13 0.3
14 0.12
15 0.2
17 -0.15
18 0.11
19 0.69
2 1.33
20 0.19
21 0.18
22 -0.15
23 0.34
29 0.15
3 -0.19
32 0.42
33 0.15
4 -0.34
5 -0.65
6 -0.65
7 -0.57
8 -0.3
9 -0.11

> <PUBCHEM_EFFECTIVE_ROTOR_COUNT>
7

> <PUBCHEM_PHARMACOPHORE_FEATURES>
6
1 10 donor
1 5 acceptor
1 6 acceptor
1 7 acceptor
5 8 9 11 12 19 rings
6 14 15 17 20 21 22 rings

> <PUBCHEM_HEAVY_ATOM_COUNT>
24

> <PUBCHEM_ATOM_DEF_STEREO_COUNT>
0

> <PUBCHEM_ATOM_UDEF_STEREO_COUNT>
0

> <PUBCHEM_BOND_DEF_STEREO_COUNT>
0

> <PUBCHEM_BOND_UDEF_STEREO_COUNT>
0

> <PUBCHEM_ISOTOPIC_ATOM_COUNT>
0

> <PUBCHEM_COMPONENT_COUNT>
1

> <PUBCHEM_CACTVS_TAUTO_COUNT>
1

> <PUBCHEM_CONFORMER_ID>
0002CC7B00000001

> <PUBCHEM_MMFF94_ENERGY>
51.9159

> <PUBCHEM_FEATURE_SELFOVERLAP>
30.463

> <PUBCHEM_SHAPE_FINGERPRINT>
10498660 4 18411419556938253373
10615611 76 17702084903646742756
10670039 82 18340475678744715532
11961588 58 18059029379430402765
12107183 9 18196944486004392010
12390115 104 18187912985070101496
12403260 363 17904216058879638643
12596602 18 17489595510796649114
12788726 201 18270129989471916363
13383661 66 14492188210705845773
14251764 30 7780926619849177749
14251764 75 18263351658942004385
14508225 48 17538861186885615623
14848178 96 18264775539273631665
15575132 122 18341048519168984268
16087824 20 18262519166613006519
17834072 32 18410853299965704064
17980427 23 17918270939807854573
20101258 96 17835232351091850298
21049683 271 18049722915507844387
22907989 373 18335435564481726607
23559900 14 17968656155220776878
283562 15 18410857638552989131
2838139 119 17986403397657146109
350125 39 18335135350351635601
5104073 3 18343299309960832666
6327066 14 18342182206126289493
633830 44 17605823944508038147
7237137 82 18335421218726630685
7808743 9 18409728439715091552

> <PUBCHEM_SHAPE_MULTIPOLES>
442.57
12.12
4.07
1.11
15.75
0.66
-0.13
11.24
-2.36
-2.64
-1.33
-0.75
0.66
0.04

> <PUBCHEM_SHAPE_SELFOVERLAP>
902.395

> <PUBCHEM_SHAPE_VOLUME>
258.8

> <PUBCHEM_COORDINATE_TYPE>
2
5
10

$$$$

