3625
  -OEChem-06251223332D

 30 29  0     1  0  0  0  0  0999 V2000
    2.5369   -3.2500    0.0000 O   0  0  0  0  0  0  0  0  0  0  0  0
    4.2690   -3.2500    0.0000 O   0  0  0  0  0  0  0  0  0  0  0  0
    2.5369   -1.2500    0.0000 N   0  0  0  0  0  0  0  0  0  0  0  0
    6.0010    1.7500    0.0000 N   0  0  0  0  0  0  0  0  0  0  0  0
    6.8671    3.2500    0.0000 N   0  3  0  0  0  0  0  0  0  0  0  0
    5.1350    3.2500    0.0000 N   0  0  0  0  0  0  0  0  0  0  0  0
    4.2690   -0.2500    0.0000 C   0  0  0  0  0  0  0  0  0  0  0  0
    4.2690   -1.2500    0.0000 C   0  0  0  0  0  0  0  0  0  0  0  0
    5.1350    0.2500    0.0000 C   0  0  0  0  0  0  0  0  0  0  0  0
    3.4030   -1.7500    0.0000 C   0  0  3  0  0  0  0  0  0  0  0  0
    5.1350    1.2500    0.0000 C   0  0  0  0  0  0  0  0  0  0  0  0
    3.4030   -2.7500    0.0000 C   0  0  0  0  0  0  0  0  0  0  0  0
    6.0010    2.7500    0.0000 C   0  0  0  0  0  0  0  0  0  0  0  0
    4.0569    0.3326    0.0000 H   0  0  0  0  0  0  0  0  0  0  0  0
    3.6584   -0.3577    0.0000 H   0  0  0  0  0  0  0  0  0  0  0  0
    4.4810   -1.8326    0.0000 H   0  0  0  0  0  0  0  0  0  0  0  0
    4.8796   -1.1423    0.0000 H   0  0  0  0  0  0  0  0  0  0  0  0
    5.3471   -0.3326    0.0000 H   0  0  0  0  0  0  0  0  0  0  0  0
    5.7456    0.3577    0.0000 H   0  0  0  0  0  0  0  0  0  0  0  0
    3.4030   -1.1300    0.0000 H   0  0  0  0  0  0  0  0  0  0  0  0
    4.9230    1.8326    0.0000 H   0  0  0  0  0  0  0  0  0  0  0  0
    4.5244    1.1423    0.0000 H   0  0  0  0  0  0  0  0  0  0  0  0
    2.0000   -1.5600    0.0000 H   0  0  0  0  0  0  0  0  0  0  0  0
    2.5369   -0.6300    0.0000 H   0  0  0  0  0  0  0  0  0  0  0  0
    2.5369   -3.8700    0.0000 H   0  0  0  0  0  0  0  0  0  0  0  0
    7.4040    3.5600    0.0000 H   0  0  0  0  0  0  0  0  0  0  0  0
    7.1771    2.7131    0.0000 H   0  0  0  0  0  0  0  0  0  0  0  0
    6.5571    3.7869    0.0000 H   0  0  0  0  0  0  0  0  0  0  0  0
    4.5981    2.9400    0.0000 H   0  0  0  0  0  0  0  0  0  0  0  0
    5.1350    3.8700    0.0000 H   0  0  0  0  0  0  0  0  0  0  0  0
  1 12  1  0  0  0  0
  1 25  1  0  0  0  0
  2 12  2  0  0  0  0
  3 10  1  0  0  0  0
  3 23  1  0  0  0  0
  3 24  1  0  0  0  0
  4 11  1  0  0  0  0
  4 13  2  0  0  0  0
  5 13  1  0  0  0  0
  5 26  1  0  0  0  0
  5 27  1  0  0  0  0
  5 28  1  0  0  0  0
  6 13  1  0  0  0  0
  6 29  1  0  0  0  0
  6 30  1  0  0  0  0
  7  8  1  0  0  0  0
  7  9  1  0  0  0  0
  7 14  1  0  0  0  0
  7 15  1  0  0  0  0
  8 10  1  0  0  0  0
  8 16  1  0  0  0  0
  8 17  1  0  0  0  0
  9 11  1  0  0  0  0
  9 18  1  0  0  0  0
  9 19  1  0  0  0  0
 10 12  1  0  0  0  0
 10 20  1  0  0  0  0
 11 21  1  0  0  0  0
 11 22  1  0  0  0  0
M  CHG  1   5   1
M  END
> <PUBCHEM_COMPOUND_CID>
3625

> <PUBCHEM_COMPOUND_CANONICALIZED>
1

> <PUBCHEM_CACTVS_COMPLEXITY>
193

> <PUBCHEM_CACTVS_HBOND_ACCEPTOR>
4

> <PUBCHEM_CACTVS_HBOND_DONOR>
4

> <PUBCHEM_CACTVS_ROTATABLE_BOND>
6

> <PUBCHEM_CACTVS_SUBSKEYS>
AAADceBjsAAAAAAAAAAAAAAAAAAAAAAAAAAAAAAAAAAAAAAAAAAAHgAQCAAACCjBgAQBCAJAAgAoAACQLAAAAAEAAAAAAIGAAAACABIAgAAAQAAEEAAAAAGYSAAAAAAAAAAAAAAAAAAAAAAAAAAAAAAAAA==

> <PUBCHEM_IUPAC_OPENEYE_NAME>
[N'-(5-amino-5-carboxy-pentyl)carbamimidoyl]ammonium

> <PUBCHEM_IUPAC_CAS_NAME>
[amino-(5-amino-5-carboxypentyl)iminomethyl]ammonium

> <PUBCHEM_IUPAC_NAME>
[N'-(5-amino-5-carboxypentyl)carbamimidoyl]azanium

> <PUBCHEM_IUPAC_SYSTEMATIC_NAME>
[N'-(5-azanyl-6-oxidanyl-6-oxidanylidene-hexyl)carbamimidoyl]azanium

> <PUBCHEM_IUPAC_TRADITIONAL_NAME>
[N'-(5-amino-5-carboxy-pentyl)amidino]ammonium

> <PUBCHEM_IUPAC_INCHI>
InChI=1S/C7H16N4O2/c8-5(6(12)13)3-1-2-4-11-7(9)10/h5H,1-4,8H2,(H,12,13)(H4,9,10,11)/p+1

> <PUBCHEM_IUPAC_INCHIKEY>
QUOGESRFPZDMMT-UHFFFAOYSA-O

> <PUBCHEM_XLOGP3>
-3.7

> <PUBCHEM_EXACT_MASS>
189.135151

> <PUBCHEM_MOLECULAR_FORMULA>
C7H17N4O2+

> <PUBCHEM_MOLECULAR_WEIGHT>
189.23548

> <PUBCHEM_OPENEYE_CAN_SMILES>
C(CCN=C([NH3+])N)CC(C(=O)O)N

> <PUBCHEM_OPENEYE_ISO_SMILES>
C(CCN=C([NH3+])N)CC(C(=O)O)N

> <PUBCHEM_CACTVS_TPSA>
129

> <PUBCHEM_MONOISOTOPIC_WEIGHT>
189.135151

> <PUBCHEM_TOTAL_CHARGE>
1

> <PUBCHEM_HEAVY_ATOM_COUNT>
13

> <PUBCHEM_ATOM_DEF_STEREO_COUNT>
0

> <PUBCHEM_ATOM_UDEF_STEREO_COUNT>
1

> <PUBCHEM_BOND_DEF_STEREO_COUNT>
0

> <PUBCHEM_BOND_UDEF_STEREO_COUNT>
0

> <PUBCHEM_ISOTOPIC_ATOM_COUNT>
0

> <PUBCHEM_COMPONENT_COUNT>
1

> <PUBCHEM_CACTVS_TAUTO_COUNT>
3

> <PUBCHEM_COORDINATE_TYPE>
1
5
255

> <PUBCHEM_BONDANNOTATIONS>
10  3  3

$$$$

