156317
  -OEChem-07051213142D

 40 43  0     1  0  0  0  0  0999 V2000
    2.0258   -2.6832    0.0000 O   0  0  0  0  0  0  0  0  0  0  0  0
    3.8372   -3.7290    0.0000 O   0  0  0  0  0  0  0  0  0  0  0  0
    3.7841    0.4677    0.0000 C   0  0  0  0  0  0  0  0  0  0  0  0
    3.8001   -0.5738    0.0000 C   0  0  0  0  0  0  0  0  0  0  0  0
    2.9021   -1.1016    0.0000 C   0  0  0  0  0  0  0  0  0  0  0  0
    2.8937   -2.1865    0.0000 C   0  0  1  0  0  0  0  0  0  0  0  0
    2.9180    0.9677    0.0000 C   0  0  0  0  0  0  0  0  0  0  0  0
    4.6501    0.9677    0.0000 C   0  0  0  0  0  0  0  0  0  0  0  0
    3.8334   -2.7290    0.0000 C   0  0  2  0  0  0  0  0  0  0  0  0
    2.9180    1.9677    0.0000 C   0  0  0  0  0  0  0  0  0  0  0  0
    4.6501    1.9677    0.0000 C   0  0  0  0  0  0  0  0  0  0  0  0
    3.7841    2.4677    0.0000 C   0  0  0  0  0  0  0  0  0  0  0  0
    2.0000   -0.5808    0.0000 C   0  0  0  0  0  0  0  0  0  0  0  0
    2.0080    0.4608    0.0000 C   0  0  0  0  0  0  0  0  0  0  0  0
    4.7520   -1.0944    0.0000 C   0  0  0  0  0  0  0  0  0  0  0  0
    4.7688   -2.1793    0.0000 C   0  0  0  0  0  0  0  0  0  0  0  0
    5.5161    0.4677    0.0000 C   0  0  0  0  0  0  0  0  0  0  0  0
    2.0520    2.4677    0.0000 C   0  0  0  0  0  0  0  0  0  0  0  0
    5.5601    2.4745    0.0000 C   0  0  0  0  0  0  0  0  0  0  0  0
    3.7680    3.5092    0.0000 C   0  0  0  0  0  0  0  0  0  0  0  0
    5.5681    3.5161    0.0000 C   0  0  0  0  0  0  0  0  0  0  0  0
    4.6660    4.0370    0.0000 C   0  0  0  0  0  0  0  0  0  0  0  0
    2.3586   -1.8734    0.0000 H   0  0  0  0  0  0  0  0  0  0  0  0
    3.2970   -3.0401    0.0000 H   0  0  0  0  0  0  0  0  0  0  0  0
    1.4619   -0.8887    0.0000 H   0  0  0  0  0  0  0  0  0  0  0  0
    1.4747    0.7770    0.0000 H   0  0  0  0  0  0  0  0  0  0  0  0
    5.2829   -0.7742    0.0000 H   0  0  0  0  0  0  0  0  0  0  0  0
    5.3093   -2.4831    0.0000 H   0  0  0  0  0  0  0  0  0  0  0  0
    5.2061   -0.0692    0.0000 H   0  0  0  0  0  0  0  0  0  0  0  0
    6.0530    0.1577    0.0000 H   0  0  0  0  0  0  0  0  0  0  0  0
    5.8261    1.0046    0.0000 H   0  0  0  0  0  0  0  0  0  0  0  0
    2.3620    3.0046    0.0000 H   0  0  0  0  0  0  0  0  0  0  0  0
    1.5151    2.7777    0.0000 H   0  0  0  0  0  0  0  0  0  0  0  0
    1.7420    1.9308    0.0000 H   0  0  0  0  0  0  0  0  0  0  0  0
    6.0934    2.1584    0.0000 H   0  0  0  0  0  0  0  0  0  0  0  0
    3.2275    3.8130    0.0000 H   0  0  0  0  0  0  0  0  0  0  0  0
    2.0234   -3.3032    0.0000 H   0  0  0  0  0  0  0  0  0  0  0  0
    6.1062    3.8241    0.0000 H   0  0  0  0  0  0  0  0  0  0  0  0
    4.6636    4.6570    0.0000 H   0  0  0  0  0  0  0  0  0  0  0  0
    4.3753   -4.0370    0.0000 H   0  0  0  0  0  0  0  0  0  0  0  0
  6  1  1  1  0  0  0
  1 37  1  0  0  0  0
  9  2  1  6  0  0  0
  2 40  1  0  0  0  0
  3  4  1  0  0  0  0
  3  7  1  0  0  0  0
  3  8  2  0  0  0  0
  4  5  2  0  0  0  0
  4 15  1  0  0  0  0
  5  6  1  0  0  0  0
  5 13  1  0  0  0  0
  6  9  1  0  0  0  0
  6 23  1  0  0  0  0
  7 10  2  0  0  0  0
  7 14  1  0  0  0  0
  8 11  1  0  0  0  0
  8 17  1  0  0  0  0
  9 16  1  0  0  0  0
  9 24  1  0  0  0  0
 10 12  1  0  0  0  0
 10 18  1  0  0  0  0
 11 12  1  0  0  0  0
 11 19  2  0  0  0  0
 12 20  2  0  0  0  0
 13 14  2  0  0  0  0
 13 25  1  0  0  0  0
 14 26  1  0  0  0  0
 15 16  2  0  0  0  0
 15 27  1  0  0  0  0
 16 28  1  0  0  0  0
 17 29  1  0  0  0  0
 17 30  1  0  0  0  0
 17 31  1  0  0  0  0
 18 32  1  0  0  0  0
 18 33  1  0  0  0  0
 18 34  1  0  0  0  0
 19 21  1  0  0  0  0
 19 35  1  0  0  0  0
 20 22  1  0  0  0  0
 20 36  1  0  0  0  0
 21 22  2  0  0  0  0
 21 38  1  0  0  0  0
 22 39  1  0  0  0  0
M  END
> <PUBCHEM_COMPOUND_CID>
156317

> <PUBCHEM_COMPOUND_CANONICALIZED>
1

> <PUBCHEM_CACTVS_COMPLEXITY>
445

> <PUBCHEM_CACTVS_HBOND_ACCEPTOR>
2

> <PUBCHEM_CACTVS_HBOND_DONOR>
2

> <PUBCHEM_CACTVS_ROTATABLE_BOND>
0

> <PUBCHEM_CACTVS_SUBSKEYS>
AAADceB4MAAAAAAAAAAAAAAAAAAAAAAAAAAwYMEAAAAAAADBVAAAGgAACAAADBSgmAIyAMAAAgCAAiBCAAACAAAgAAAIiAAACIgJNiKAERCAcAAkwAEJmAeAwPAOwAACAAAQAACAAAQAACAAAAAAAAAAAA==

> <PUBCHEM_IUPAC_OPENEYE_NAME>
(3S,4S)-7,12-dimethyl-3,4-dihydrobenzo[a]anthracene-3,4-diol

> <PUBCHEM_IUPAC_CAS_NAME>
(3S,4S)-7,12-dimethyl-3,4-dihydrobenzo[a]anthracene-3,4-diol

> <PUBCHEM_IUPAC_NAME>
(3S,4S)-7,12-dimethyl-3,4-dihydrobenzo[a]anthracene-3,4-diol

> <PUBCHEM_IUPAC_SYSTEMATIC_NAME>
(3S,4S)-7,12-dimethyl-3,4-dihydrobenzo[a]anthracene-3,4-diol

> <PUBCHEM_IUPAC_TRADITIONAL_NAME>
(3S,4S)-7,12-dimethyl-3,4-dihydrobenz[a]anthracene-3,4-diol

> <PUBCHEM_IUPAC_INCHI>
InChI=1S/C20H18O2/c1-11-13-5-3-4-6-14(13)12(2)19-15(11)7-8-17-16(19)9-10-18(21)20(17)22/h3-10,18,20-22H,1-2H3/t18-,20-/m0/s1

> <PUBCHEM_IUPAC_INCHIKEY>
YZIIKMBFHLJAFT-ICSRJNTNSA-N

> <PUBCHEM_XLOGP3_AA>
3.7

> <PUBCHEM_EXACT_MASS>
290.13068

> <PUBCHEM_MOLECULAR_FORMULA>
C20H18O2

> <PUBCHEM_MOLECULAR_WEIGHT>
290.35572

> <PUBCHEM_OPENEYE_CAN_SMILES>
CC1=C2C=CC3=C(C2=C(C4=CC=CC=C14)C)C=CC(C3O)O

> <PUBCHEM_OPENEYE_ISO_SMILES>
CC1=C2C=CC3=C(C2=C(C4=CC=CC=C14)C)C=C[C@@H]([C@H]3O)O

> <PUBCHEM_CACTVS_TPSA>
40.5

> <PUBCHEM_MONOISOTOPIC_WEIGHT>
290.13068

> <PUBCHEM_TOTAL_CHARGE>
0

> <PUBCHEM_HEAVY_ATOM_COUNT>
22

> <PUBCHEM_ATOM_DEF_STEREO_COUNT>
2

> <PUBCHEM_ATOM_UDEF_STEREO_COUNT>
0

> <PUBCHEM_BOND_DEF_STEREO_COUNT>
0

> <PUBCHEM_BOND_UDEF_STEREO_COUNT>
0

> <PUBCHEM_ISOTOPIC_ATOM_COUNT>
0

> <PUBCHEM_COMPONENT_COUNT>
1

> <PUBCHEM_CACTVS_TAUTO_COUNT>
1

> <PUBCHEM_COORDINATE_TYPE>
1
5
255

> <PUBCHEM_BONDANNOTATIONS>
6  1  5
10  12  8
11  12  8
11  19  8
12  20  8
13  14  8
19  21  8
9  2  6
20  22  8
21  22  8
3  4  8
3  7  8
3  8  8
4  5  8
5  13  8
7  10  8
7  14  8
8  11  8

$$$$

