14605093
  -OEChem-07051213093D

 73 77  0     1  0  0  0  0  0999 V2000
   -3.7248   -0.9390   -0.6374 O   0  0  0  0  0  0  0  0  0  0  0  0
   -0.1492   -1.6958   -0.2418 O   0  0  0  0  0  0  0  0  0  0  0  0
   -1.3531   -3.0260    1.9950 O   0  0  0  0  0  0  0  0  0  0  0  0
   -3.9924   -4.0075    1.3691 O   0  0  0  0  0  0  0  0  0  0  0  0
    2.9268    1.2678   -1.0969 O   0  0  0  0  0  0  0  0  0  0  0  0
    3.4016   -0.6163    0.1950 O   0  0  0  0  0  0  0  0  0  0  0  0
   -6.3608   -1.4901   -1.1469 O   0  0  0  0  0  0  0  0  0  0  0  0
    5.6331    2.0673   -0.8859 O   0  0  0  0  0  0  0  0  0  0  0  0
    6.8916    1.0505    1.5765 O   0  0  0  0  0  0  0  0  0  0  0  0
    6.4569   -1.7955    1.8345 O   0  0  0  0  0  0  0  0  0  0  0  0
    1.1664    1.8691    0.6980 O   0  0  0  0  0  0  0  0  0  0  0  0
   -0.4048    3.4799    1.9689 O   0  0  0  0  0  0  0  0  0  0  0  0
    2.6662   -3.2307    0.6192 O   0  0  0  0  0  0  0  0  0  0  0  0
   -5.7148    2.3030    2.0452 O   0  0  0  0  0  0  0  0  0  0  0  0
   -2.3524   -1.0387   -1.0264 C   0  0  1  0  0  0  0  0  0  0  0  0
   -1.9356    0.3278   -1.5613 C   0  0  2  0  0  0  0  0  0  0  0  0
   -1.4974   -1.4797    0.1665 C   0  0  1  0  0  0  0  0  0  0  0  0
   -2.0297   -2.7844    0.7596 C   0  0  2  0  0  0  0  0  0  0  0  0
   -3.5348   -2.7041    1.0196 C   0  0  1  0  0  0  0  0  0  0  0  0
   -4.2727   -2.1930   -0.2220 C   0  0  1  0  0  0  0  0  0  0  0  0
   -0.5036    0.2740   -2.0535 C   0  0  0  0  0  0  0  0  0  0  0  0
   -2.1826    1.3899   -0.5095 C   0  0  0  0  0  0  0  0  0  0  0  0
    0.5488    0.8364   -1.3206 C   0  0  0  0  0  0  0  0  0  0  0  0
   -1.1343    1.9548    0.2274 C   0  0  0  0  0  0  0  0  0  0  0  0
   -5.7587   -1.9701    0.0415 C   0  0  0  0  0  0  0  0  0  0  0  0
    0.2631    1.5819   -0.0769 C   0  0  0  0  0  0  0  0  0  0  0  0
   -3.4969    1.7983   -0.2281 C   0  0  0  0  0  0  0  0  0  0  0  0
   -0.2053   -0.3896   -3.2552 C   0  0  0  0  0  0  0  0  0  0  0  0
    1.8712    0.7253   -1.7680 C   0  0  0  0  0  0  0  0  0  0  0  0
    3.9535    0.3720   -0.6717 C   0  0  2  0  0  0  0  0  0  0  0  0
    5.0191    1.1898    0.0578 C   0  0  1  0  0  0  0  0  0  0  0  0
    6.0849    0.2865    0.6787 C   0  0  2  0  0  0  0  0  0  0  0  0
    5.4488   -0.8562    1.4704 C   0  0  1  0  0  0  0  0  0  0  0  0
    4.3760   -1.5624    0.6380 C   0  0  1  0  0  0  0  0  0  0  0  0
   -1.3924    2.8938    1.2339 C   0  0  0  0  0  0  0  0  0  0  0  0
   -3.7552    2.7386    0.7698 C   0  0  0  0  0  0  0  0  0  0  0  0
    1.1111   -0.4956   -3.7055 C   0  0  0  0  0  0  0  0  0  0  0  0
    2.1484    0.0582   -2.9602 C   0  0  0  0  0  0  0  0  0  0  0  0
   -2.7039    3.2826    1.5026 C   0  0  0  0  0  0  0  0  0  0  0  0
    3.6461   -2.6303    1.4464 C   0  0  0  0  0  0  0  0  0  0  0  0
   -5.1580    3.1577    1.0539 C   0  0  0  0  0  0  0  0  0  0  0  0
   -2.2700   -1.7791   -1.8345 H   0  0  0  0  0  0  0  0  0  0  0  0
   -2.5680    0.5960   -2.4203 H   0  0  0  0  0  0  0  0  0  0  0  0
   -1.4934   -0.7268    0.9625 H   0  0  0  0  0  0  0  0  0  0  0  0
   -1.7993   -3.6361    0.1071 H   0  0  0  0  0  0  0  0  0  0  0  0
   -3.7252   -2.0432    1.8747 H   0  0  0  0  0  0  0  0  0  0  0  0
   -4.1796   -2.9068   -1.0516 H   0  0  0  0  0  0  0  0  0  0  0  0
   -5.9183   -1.2200    0.8234 H   0  0  0  0  0  0  0  0  0  0  0  0
   -6.2597   -2.8971    0.3342 H   0  0  0  0  0  0  0  0  0  0  0  0
   -4.3288    1.4047   -0.8078 H   0  0  0  0  0  0  0  0  0  0  0  0
   -1.0017   -0.8349   -3.8468 H   0  0  0  0  0  0  0  0  0  0  0  0
    4.4079   -0.1093   -1.5472 H   0  0  0  0  0  0  0  0  0  0  0  0
    4.5639    1.8189    0.8328 H   0  0  0  0  0  0  0  0  0  0  0  0
    0.3861   -1.7566    0.5671 H   0  0  0  0  0  0  0  0  0  0  0  0
    6.7604   -0.0994   -0.0948 H   0  0  0  0  0  0  0  0  0  0  0  0
    5.0190   -0.4505    2.3956 H   0  0  0  0  0  0  0  0  0  0  0  0
    4.8191   -2.0475   -0.2425 H   0  0  0  0  0  0  0  0  0  0  0  0
   -0.4166   -3.1876    1.7913 H   0  0  0  0  0  0  0  0  0  0  0  0
   -3.4892   -4.2939    2.1505 H   0  0  0  0  0  0  0  0  0  0  0  0
    1.3254   -1.0087   -4.6384 H   0  0  0  0  0  0  0  0  0  0  0  0
    3.1607   -0.0169   -3.3466 H   0  0  0  0  0  0  0  0  0  0  0  0
   -2.9007    4.0145    2.2825 H   0  0  0  0  0  0  0  0  0  0  0  0
    4.3189   -3.4163    1.7987 H   0  0  0  0  0  0  0  0  0  0  0  0
    3.1290   -2.1927    2.3067 H   0  0  0  0  0  0  0  0  0  0  0  0
   -5.9044   -0.6684   -1.3966 H   0  0  0  0  0  0  0  0  0  0  0  0
   -5.7766    3.1024    0.1513 H   0  0  0  0  0  0  0  0  0  0  0  0
   -5.1945    4.1909    1.4165 H   0  0  0  0  0  0  0  0  0  0  0  0
    4.9298    2.6160   -1.2734 H   0  0  0  0  0  0  0  0  0  0  0  0
    7.5480    0.4464    1.9640 H   0  0  0  0  0  0  0  0  0  0  0  0
    6.0919   -2.3700    2.5281 H   0  0  0  0  0  0  0  0  0  0  0  0
    0.4679    3.2138    1.6417 H   0  0  0  0  0  0  0  0  0  0  0  0
    2.1921   -2.5214    0.1544 H   0  0  0  0  0  0  0  0  0  0  0  0
   -6.6259    2.6045    2.2021 H   0  0  0  0  0  0  0  0  0  0  0  0
  1 15  1  0  0  0  0
  1 20  1  0  0  0  0
  2 17  1  0  0  0  0
  2 54  1  0  0  0  0
  3 18  1  0  0  0  0
  3 58  1  0  0  0  0
  4 19  1  0  0  0  0
  4 59  1  0  0  0  0
  5 29  1  0  0  0  0
  5 30  1  0  0  0  0
  6 30  1  0  0  0  0
  6 34  1  0  0  0  0
  7 25  1  0  0  0  0
  7 65  1  0  0  0  0
  8 31  1  0  0  0  0
  8 68  1  0  0  0  0
  9 32  1  0  0  0  0
  9 69  1  0  0  0  0
 10 33  1  0  0  0  0
 10 70  1  0  0  0  0
 11 26  2  0  0  0  0
 12 35  1  0  0  0  0
 12 71  1  0  0  0  0
 13 40  1  0  0  0  0
 13 72  1  0  0  0  0
 14 41  1  0  0  0  0
 14 73  1  0  0  0  0
 15 16  1  0  0  0  0
 15 17  1  0  0  0  0
 15 42  1  0  0  0  0
 16 21  1  0  0  0  0
 16 22  1  0  0  0  0
 16 43  1  0  0  0  0
 17 18  1  0  0  0  0
 17 44  1  0  0  0  0
 18 19  1  0  0  0  0
 18 45  1  0  0  0  0
 19 20  1  0  0  0  0
 19 46  1  0  0  0  0
 20 25  1  0  0  0  0
 20 47  1  0  0  0  0
 21 23  2  0  0  0  0
 21 28  1  0  0  0  0
 22 24  2  0  0  0  0
 22 27  1  0  0  0  0
 23 26  1  0  0  0  0
 23 29  1  0  0  0  0
 24 26  1  0  0  0  0
 24 35  1  0  0  0  0
 25 48  1  0  0  0  0
 25 49  1  0  0  0  0
 27 36  2  0  0  0  0
 27 50  1  0  0  0  0
 28 37  2  0  0  0  0
 28 51  1  0  0  0  0
 29 38  2  0  0  0  0
 30 31  1  0  0  0  0
 30 52  1  0  0  0  0
 31 32  1  0  0  0  0
 31 53  1  0  0  0  0
 32 33  1  0  0  0  0
 32 55  1  0  0  0  0
 33 34  1  0  0  0  0
 33 56  1  0  0  0  0
 34 40  1  0  0  0  0
 34 57  1  0  0  0  0
 35 39  2  0  0  0  0
 36 39  1  0  0  0  0
 36 41  1  0  0  0  0
 37 38  1  0  0  0  0
 37 60  1  0  0  0  0
 38 61  1  0  0  0  0
 39 62  1  0  0  0  0
 40 63  1  0  0  0  0
 40 64  1  0  0  0  0
 41 66  1  0  0  0  0
 41 67  1  0  0  0  0
M  END
> <PUBCHEM_COMPOUND_CID>
14605093

> <PUBCHEM_CONFORMER_RMSD>
1

> <PUBCHEM_CONFORMER_DIVERSEORDER>
1
7
47
48
13
19
45
38
31
22
24
33
34
11
28
36
3
21
27
35
15
2
41
10
46
32
29
4
39
18
14
17
40
23
43
20
37
42
16
12
25
9
8
30
5
26
6
44

> <PUBCHEM_MMFF94_PARTIAL_CHARGES>
56
1 -0.56
10 -0.68
11 -0.57
12 -0.53
13 -0.68
14 -0.68
15 0.28
16 0.29
17 0.28
18 0.28
19 0.28
2 -0.68
20 0.28
21 -0.14
22 -0.14
23 0.09
24 0.09
25 0.28
26 0.4
27 -0.15
28 -0.15
29 0.08
3 -0.68
30 0.56
31 0.28
32 0.28
33 0.28
34 0.28
35 0.08
36 -0.14
37 -0.15
38 -0.15
39 -0.15
4 -0.68
40 0.28
41 0.42
5 -0.36
50 0.15
51 0.15
54 0.4
58 0.4
59 0.4
6 -0.56
60 0.15
61 0.15
62 0.15
65 0.4
68 0.4
69 0.4
7 -0.68
70 0.4
71 0.45
72 0.4
73 0.4
8 -0.68
9 -0.68

> <PUBCHEM_EFFECTIVE_ROTOR_COUNT>
8.6

> <PUBCHEM_PHARMACOPHORE_FEATURES>
28
1 1 acceptor
1 10 acceptor
1 10 donor
1 11 acceptor
1 12 donor
1 13 acceptor
1 13 donor
1 14 acceptor
1 14 donor
1 2 acceptor
1 2 donor
1 3 acceptor
1 3 donor
1 4 acceptor
1 4 donor
1 5 acceptor
1 6 acceptor
1 7 acceptor
1 7 donor
1 8 acceptor
1 8 donor
1 9 acceptor
1 9 donor
6 1 15 17 18 19 20 rings
6 16 21 22 23 24 26 rings
6 21 23 28 29 37 38 rings
6 22 24 27 35 36 39 rings
6 6 30 31 32 33 34 rings

> <PUBCHEM_HEAVY_ATOM_COUNT>
41

> <PUBCHEM_ATOM_DEF_STEREO_COUNT>
11

> <PUBCHEM_ATOM_UDEF_STEREO_COUNT>
0

> <PUBCHEM_BOND_DEF_STEREO_COUNT>
0

> <PUBCHEM_BOND_UDEF_STEREO_COUNT>
0

> <PUBCHEM_ISOTOPIC_ATOM_COUNT>
0

> <PUBCHEM_COMPONENT_COUNT>
1

> <PUBCHEM_CACTVS_TAUTO_COUNT>
22

> <PUBCHEM_CONFORMER_ID>
00DEDB2500000001

> <PUBCHEM_MMFF94_ENERGY>
140.5274

> <PUBCHEM_FEATURE_SELFOVERLAP>
142.218

> <PUBCHEM_SHAPE_FINGERPRINT>
10305334 12 18120100725638472306
10906281 52 17749659792175151457
1100329 8 18123181570784988123
11387372 6 17978507865109934198
11456790 92 18270105818345345675
11513181 2 18262236736855909078
11578080 2 16298657408787188055
11828532 37 17980477868193593947
12107698 1 18115317673916735249
12422481 6 17559664217496984773
12633257 1 18129388262421164270
12788726 201 18263907865880620997
13540713 4 17387111243110552637
13726171 33 17897138283468168488
14028597 1 18412825803073570195
14068700 675 18127131874838647606
14468879 13 17458904962958005484
14675020 138 17978775033613820641
14840074 17 17315071065613278468
14950920 106 18339938094799286520
16067690 210 17968671539392569128
17974551 9 17754190987425808586
19246450 95 17475243873873474120
21033648 29 16732991942220561116
22182313 1 17314206977901022581
23559900 14 17985275066830325997
24893992 56 18268986502960964331
3493558 16 17756429622774751011
3633792 109 18059030470320155749
376196 1 16956184195080950277
3886686 26 18051129499421349438
392239 28 18265614291005380026
5104073 3 18410583881547671712
563151 248 18130495435774718481
9981440 41 17531814682812976764

> <PUBCHEM_SHAPE_MULTIPOLES>
761.59
13.54
4.39
2.64
10.96
0.56
2.19
1.25
-7.12
-5.55
-3.39
1.14
0.19
-2.16

> <PUBCHEM_SHAPE_SELFOVERLAP>
1664.517

> <PUBCHEM_SHAPE_VOLUME>
404.8

> <PUBCHEM_COORDINATE_TYPE>
2
5
10

$$$$

