9354
  -OEChem-07051212543D

 16 15  0     1  0  0  0  0  0999 V2000
    0.3265   -1.7544   -1.1729 S   0  0  0  0  0  0  0  0  0  0  0  0
   -0.3186    1.7549   -1.1700 S   0  0  0  0  0  0  0  0  0  0  0  0
    2.1431    0.7147    1.3513 O   0  0  0  0  0  0  0  0  0  0  0  0
   -2.1799   -0.7160    1.3428 O   0  0  0  0  0  0  0  0  0  0  0  0
    2.8115   -0.2209   -0.6071 O   0  0  0  0  0  0  0  0  0  0  0  0
   -2.7942    0.2278   -0.6232 O   0  0  0  0  0  0  0  0  0  0  0  0
    0.5242   -0.5696    0.2089 C   0  0  2  0  0  0  0  0  0  0  0  0
   -0.5164    0.5661    0.2096 C   0  0  2  0  0  0  0  0  0  0  0  0
    1.9429   -0.0302    0.2315 C   0  0  0  0  0  0  0  0  0  0  0  0
   -1.9389    0.0276    0.2290 C   0  0  0  0  0  0  0  0  0  0  0  0
    0.4095   -1.1762    1.1157 H   0  0  0  0  0  0  0  0  0  0  0  0
   -0.4048    1.1710    1.1177 H   0  0  0  0  0  0  0  0  0  0  0  0
   -0.8610   -2.2478   -0.7925 H   0  0  0  0  0  0  0  0  0  0  0  0
   -0.4932    0.8690   -2.1617 H   0  0  0  0  0  0  0  0  0  0  0  0
    3.0553    1.0731    1.3931 H   0  0  0  0  0  0  0  0  0  0  0  0
   -3.0988   -1.0591    1.3605 H   0  0  0  0  0  0  0  0  0  0  0  0
  1  7  1  0  0  0  0
  1 13  1  0  0  0  0
  2  8  1  0  0  0  0
  2 14  1  0  0  0  0
  3  9  1  0  0  0  0
  3 15  1  0  0  0  0
  4 10  1  0  0  0  0
  4 16  1  0  0  0  0
  5  9  2  0  0  0  0
  6 10  2  0  0  0  0
  7  8  1  0  0  0  0
  7  9  1  0  0  0  0
  7 11  1  0  0  0  0
  8 10  1  0  0  0  0
  8 12  1  0  0  0  0
M  END
> <PUBCHEM_COMPOUND_CID>
9354

> <PUBCHEM_CONFORMER_RMSD>
0.6

> <PUBCHEM_CONFORMER_DIVERSEORDER>
5
6
17
2
4
19
23
7
10
22
12
15
11
21
3
20
9
1
14
18
8
13
16

> <PUBCHEM_MMFF94_PARTIAL_CHARGES>
14
1 -0.41
10 0.66
13 0.18
14 0.18
15 0.5
16 0.5
2 -0.41
3 -0.65
4 -0.65
5 -0.57
6 -0.57
7 0.29
8 0.29
9 0.66

> <PUBCHEM_EFFECTIVE_ROTOR_COUNT>
3

> <PUBCHEM_PHARMACOPHORE_FEATURES>
6
1 3 acceptor
1 4 acceptor
1 5 acceptor
1 6 acceptor
3 3 5 9 anion
3 4 6 10 anion

> <PUBCHEM_HEAVY_ATOM_COUNT>
10

> <PUBCHEM_ATOM_DEF_STEREO_COUNT>
0

> <PUBCHEM_ATOM_UDEF_STEREO_COUNT>
2

> <PUBCHEM_BOND_DEF_STEREO_COUNT>
0

> <PUBCHEM_BOND_UDEF_STEREO_COUNT>
0

> <PUBCHEM_ISOTOPIC_ATOM_COUNT>
0

> <PUBCHEM_COMPONENT_COUNT>
1

> <PUBCHEM_CACTVS_TAUTO_COUNT>
1

> <PUBCHEM_CONFORMER_ID>
0000248A00000005

> <PUBCHEM_MMFF94_ENERGY>
17.0053

> <PUBCHEM_FEATURE_SELFOVERLAP>
30.564

> <PUBCHEM_SHAPE_FINGERPRINT>
10219947 1 18409724050020923589
10857977 72 18201439138381012313
12897270 3 18114751520059837245
14128692 85 15840688700346055411
16945 1 18410293605396682362
20653085 51 14129608909839124034
20711978 78 17533504683650466926
21040471 1 18041003882292735682
21922407 69 16702019846095130256
29004967 10 18342167877977551113
369184 2 15626507206846731401
5084963 1 18340769350921812778
528862 383 17484231968522409485

> <PUBCHEM_SHAPE_MULTIPOLES>
190.02
3.44
1.54
1.3
0.01
0
0.02
0.01
0.57
0
-0.71
0
0
0.59

> <PUBCHEM_SHAPE_SELFOVERLAP>
347.398

> <PUBCHEM_SHAPE_VOLUME>
122.5

> <PUBCHEM_COORDINATE_TYPE>
2
5
10

$$$$

