5877
  -OEChem-07051212543D

 62 65  0     1  0  0  0  0  0999 V2000
    2.4244    0.6316    1.8855 O   0  0  0  0  0  0  0  0  0  0  0  0
   -0.3958   -1.3673   -2.0288 O   0  0  0  0  0  0  0  0  0  0  0  0
    4.3170    1.6343   -0.7806 O   0  0  0  0  0  0  0  0  0  0  0  0
    5.7103   -0.5434   -0.0491 O   0  0  0  0  0  0  0  0  0  0  0  0
   -6.3129   -1.9789    1.6415 O   0  0  0  0  0  0  0  0  0  0  0  0
    6.0192   -2.5177    1.1103 O   0  0  0  0  0  0  0  0  0  0  0  0
    1.2353    0.6041   -0.2673 C   0  0  1  0  0  0  0  0  0  0  0  0
    0.0702    1.4245    0.3293 C   0  0  2  0  0  0  0  0  0  0  0  0
   -1.2854    1.1384   -0.3350 C   0  0  1  0  0  0  0  0  0  0  0  0
   -1.6312   -0.3772   -0.1417 C   0  0  2  0  0  0  0  0  0  0  0  0
    2.4083    1.1819    0.5715 C   0  0  1  0  0  0  0  0  0  0  0  0
    0.9124   -0.8867   -0.0444 C   0  0  0  0  0  0  0  0  0  0  0  0
   -0.4636   -1.3029   -0.6112 C   0  0  2  0  0  0  0  0  0  0  0  0
    0.6073    2.8535    0.3279 C   0  0  0  0  0  0  0  0  0  0  0  0
   -3.0670   -0.7356   -0.6953 C   0  0  1  0  0  0  0  0  0  0  0  0
    2.1071    2.6956    0.6531 C   0  0  0  0  0  0  0  0  0  0  0  0
   -2.3787    2.0410    0.2638 C   0  0  0  0  0  0  0  0  0  0  0  0
   -3.7753    1.7172   -0.2833 C   0  0  1  0  0  0  0  0  0  0  0  0
    1.4818    0.8938   -1.7740 C   0  0  0  0  0  0  0  0  0  0  0  0
   -4.0708    0.2387   -0.0455 C   0  0  0  0  0  0  0  0  0  0  0  0
    3.7727    0.8831    0.0272 C   0  0  0  0  0  0  0  0  0  0  0  0
   -3.1971   -0.6188   -2.2318 C   0  0  0  0  0  0  0  0  0  0  0  0
   -3.3950   -2.1841   -0.3612 C   0  0  0  0  0  0  0  0  0  0  0  0
   -4.7874    2.7161    0.2951 C   0  0  0  0  0  0  0  0  0  0  0  0
   -5.1057   -0.1844    0.7018 C   0  0  0  0  0  0  0  0  0  0  0  0
    4.4309   -0.3853    0.5269 C   0  0  0  0  0  0  0  0  0  0  0  0
   -4.4239   -2.5956    0.3838 C   0  0  0  0  0  0  0  0  0  0  0  0
   -5.3578   -1.6171    0.9623 C   0  0  0  0  0  0  0  0  0  0  0  0
    6.4096   -1.6618    0.3281 C   0  0  0  0  0  0  0  0  0  0  0  0
    7.7412   -1.6971   -0.3588 C   0  0  0  0  0  0  0  0  0  0  0  0
   -0.0447    1.1467    1.3902 H   0  0  0  0  0  0  0  0  0  0  0  0
   -1.2287    1.3743   -1.4018 H   0  0  0  0  0  0  0  0  0  0  0  0
   -1.6827   -0.5316    0.9499 H   0  0  0  0  0  0  0  0  0  0  0  0
    0.9132   -1.1184    1.0275 H   0  0  0  0  0  0  0  0  0  0  0  0
    1.6896   -1.5053   -0.5074 H   0  0  0  0  0  0  0  0  0  0  0  0
   -0.6477   -2.3260   -0.2673 H   0  0  0  0  0  0  0  0  0  0  0  0
    0.1066    3.4822    1.0713 H   0  0  0  0  0  0  0  0  0  0  0  0
    0.4765    3.3283   -0.6512 H   0  0  0  0  0  0  0  0  0  0  0  0
    2.6869    3.2973   -0.0548 H   0  0  0  0  0  0  0  0  0  0  0  0
    2.3091    3.0920    1.6550 H   0  0  0  0  0  0  0  0  0  0  0  0
   -2.1429    3.0896    0.0424 H   0  0  0  0  0  0  0  0  0  0  0  0
   -2.3790    1.9445    1.3583 H   0  0  0  0  0  0  0  0  0  0  0  0
   -3.7745    1.8915   -1.3666 H   0  0  0  0  0  0  0  0  0  0  0  0
    2.1639    0.1517   -2.2045 H   0  0  0  0  0  0  0  0  0  0  0  0
    0.5789    0.9042   -2.3812 H   0  0  0  0  0  0  0  0  0  0  0  0
    1.9387    1.8759   -1.9378 H   0  0  0  0  0  0  0  0  0  0  0  0
   -2.7248   -1.4552   -2.7587 H   0  0  0  0  0  0  0  0  0  0  0  0
   -4.2525   -0.6319   -2.5360 H   0  0  0  0  0  0  0  0  0  0  0  0
   -2.7667    0.3058   -2.6270 H   0  0  0  0  0  0  0  0  0  0  0  0
   -2.7538   -2.9549   -0.7837 H   0  0  0  0  0  0  0  0  0  0  0  0
    3.0099    1.1752    2.4401 H   0  0  0  0  0  0  0  0  0  0  0  0
   -0.6986   -0.5288   -2.4056 H   0  0  0  0  0  0  0  0  0  0  0  0
   -4.5088    3.7416    0.0276 H   0  0  0  0  0  0  0  0  0  0  0  0
   -5.7913    2.5379   -0.1052 H   0  0  0  0  0  0  0  0  0  0  0  0
   -4.8331    2.6620    1.3885 H   0  0  0  0  0  0  0  0  0  0  0  0
   -5.8063    0.4988    1.1676 H   0  0  0  0  0  0  0  0  0  0  0  0
    3.8054   -1.2407    0.2590 H   0  0  0  0  0  0  0  0  0  0  0  0
    4.5578   -0.3260    1.6122 H   0  0  0  0  0  0  0  0  0  0  0  0
   -4.6019   -3.6481    0.5702 H   0  0  0  0  0  0  0  0  0  0  0  0
    8.3258   -0.8176   -0.0777 H   0  0  0  0  0  0  0  0  0  0  0  0
    7.5979   -1.7347   -1.4415 H   0  0  0  0  0  0  0  0  0  0  0  0
    8.2866   -2.5927   -0.0476 H   0  0  0  0  0  0  0  0  0  0  0  0
  1 11  1  0  0  0  0
  1 51  1  0  0  0  0
  2 13  1  0  0  0  0
  2 52  1  0  0  0  0
  3 21  2  0  0  0  0
  4 26  1  0  0  0  0
  4 29  1  0  0  0  0
  5 28  2  0  0  0  0
  6 29  2  0  0  0  0
  7  8  1  0  0  0  0
  7 11  1  0  0  0  0
  7 12  1  0  0  0  0
  7 19  1  0  0  0  0
  8  9  1  0  0  0  0
  8 14  1  0  0  0  0
  8 31  1  0  0  0  0
  9 10  1  0  0  0  0
  9 17  1  0  0  0  0
  9 32  1  0  0  0  0
 10 13  1  0  0  0  0
 10 15  1  0  0  0  0
 10 33  1  0  0  0  0
 11 16  1  0  0  0  0
 11 21  1  0  0  0  0
 12 13  1  0  0  0  0
 12 34  1  0  0  0  0
 12 35  1  0  0  0  0
 13 36  1  0  0  0  0
 14 16  1  0  0  0  0
 14 37  1  0  0  0  0
 14 38  1  0  0  0  0
 15 20  1  0  0  0  0
 15 22  1  0  0  0  0
 15 23  1  0  0  0  0
 16 39  1  0  0  0  0
 16 40  1  0  0  0  0
 17 18  1  0  0  0  0
 17 41  1  0  0  0  0
 17 42  1  0  0  0  0
 18 20  1  0  0  0  0
 18 24  1  0  0  0  0
 18 43  1  0  0  0  0
 19 44  1  0  0  0  0
 19 45  1  0  0  0  0
 19 46  1  0  0  0  0
 20 25  2  0  0  0  0
 21 26  1  0  0  0  0
 22 47  1  0  0  0  0
 22 48  1  0  0  0  0
 22 49  1  0  0  0  0
 23 27  2  0  0  0  0
 23 50  1  0  0  0  0
 24 53  1  0  0  0  0
 24 54  1  0  0  0  0
 24 55  1  0  0  0  0
 25 28  1  0  0  0  0
 25 56  1  0  0  0  0
 26 57  1  0  0  0  0
 26 58  1  0  0  0  0
 27 28  1  0  0  0  0
 27 59  1  0  0  0  0
 29 30  1  0  0  0  0
 30 60  1  0  0  0  0
 30 61  1  0  0  0  0
 30 62  1  0  0  0  0
M  END
> <PUBCHEM_COMPOUND_CID>
5877

> <PUBCHEM_CONFORMER_RMSD>
0.8

> <PUBCHEM_CONFORMER_DIVERSEORDER>
1
7
8
5
6
4
3
2
10
9
11
12

> <PUBCHEM_MMFF94_PARTIAL_CHARGES>
24
1 -0.68
11 0.34
13 0.28
15 0.28
18 0.14
2 -0.68
20 -0.28
21 0.45
23 -0.29
25 -0.14
26 0.34
27 -0.14
28 0.54
29 0.66
3 -0.57
30 0.06
4 -0.43
5 -0.57
50 0.15
51 0.4
52 0.4
56 0.15
59 0.15
6 -0.57

> <PUBCHEM_EFFECTIVE_ROTOR_COUNT>
5.4

> <PUBCHEM_PHARMACOPHORE_FEATURES>
11
1 1 acceptor
1 1 donor
1 2 acceptor
1 2 donor
1 3 acceptor
1 5 acceptor
1 6 acceptor
5 7 8 11 14 16 rings
6 15 20 23 25 27 28 rings
6 7 8 9 10 12 13 rings
6 9 10 15 17 18 20 rings

> <PUBCHEM_HEAVY_ATOM_COUNT>
30

> <PUBCHEM_ATOM_DEF_STEREO_COUNT>
8

> <PUBCHEM_ATOM_UDEF_STEREO_COUNT>
0

> <PUBCHEM_BOND_DEF_STEREO_COUNT>
0

> <PUBCHEM_BOND_UDEF_STEREO_COUNT>
0

> <PUBCHEM_ISOTOPIC_ATOM_COUNT>
0

> <PUBCHEM_COMPONENT_COUNT>
1

> <PUBCHEM_CACTVS_TAUTO_COUNT>
6

> <PUBCHEM_CONFORMER_ID>
000016F500000001

> <PUBCHEM_MMFF94_ENERGY>
99.196

> <PUBCHEM_FEATURE_SELFOVERLAP>
55.916

> <PUBCHEM_SHAPE_FINGERPRINT>
10319926 262 18335712658053621568
10675989 125 16823054326663191273
11135609 12 18411411826139467547
11456790 92 17822278077888734875
11578080 2 6121954767781806074
117089 54 18270390599249914426
12035758 1 17603303765394720182
12107183 9 18267301108908795920
12166972 35 18060413595586487284
12236239 1 18202278122078489436
12422481 6 17458349667174278654
12633257 1 16733264547509095632
13009979 54 18272645740484384581
13073987 5 18411136901172895776
13140716 1 18333731291325993553
13224815 77 18190183391209704837
13782708 43 17346605175035676970
14251764 30 18202565072927408370
14341114 176 18270679766754579513
14420673 8 18409728508086544826
14955137 171 18408886230766785008
15042514 8 18409729594692366600
17492 89 18265901246107250027
1813 80 17775293768232264876
18393751 57 16382577289921813617
21033648 29 17531546328940094233
21267235 1 18411131442406300778
22182313 1 17822556305247560125
22950370 63 18341895186504600072
23522609 53 18123434294644873761
23559900 14 18261686912970773360
3004659 81 18341612651335378308
335352 9 18335707194940194989
3383291 50 18413112740917223354
34797466 226 16271362994146182340
350125 39 18336539409610600449
465052 167 18408036300089012350
474113 269 18264215717233431879
5104073 3 18260267438795004624
5265222 85 18187642458740397564
54039377 194 18410568505807611262
559249 180 18336831995181954452
6086070 43 17024053569029126041
636775 8 18336816594680010310
7970288 3 18267308638060552411
999808 66 18201428182141272595

> <PUBCHEM_SHAPE_MULTIPOLES>
582.17
15.25
3.11
1.35
17.52
0.58
-0.41
-10.75
3.94
-0.96
0.59
-0.59
-0.37
0.22

> <PUBCHEM_SHAPE_SELFOVERLAP>
1248.251

> <PUBCHEM_SHAPE_VOLUME>
317.1

> <PUBCHEM_COORDINATE_TYPE>
2
5
10

$$$$

