83489
  -OEChem-07051212583D

 74 78  0     1  0  0  0  0  0999 V2000
   -3.1629   -0.8696    0.1258 O   0  0  0  0  0  0  0  0  0  0  0  0
   -3.0861    1.9009   -0.1317 O   0  0  0  0  0  0  0  0  0  0  0  0
   -1.9674    2.8045   -2.0194 O   0  0  0  0  0  0  0  0  0  0  0  0
   -6.3357    0.8648    0.7081 O   0  0  0  0  0  0  0  0  0  0  0  0
   -2.2323   -2.8090    1.0294 O   0  0  0  0  0  0  0  0  0  0  0  0
   -5.9387   -0.6400    3.1440 O   0  0  0  0  0  0  0  0  0  0  0  0
   -4.5745   -3.1880    2.5718 O   0  0  0  0  0  0  0  0  0  0  0  0
   -1.5665    5.1846   -0.4590 O   0  0  0  0  0  0  0  0  0  0  0  0
    0.4463    4.0704    1.1068 O   0  0  0  0  0  0  0  0  0  0  0  0
    1.3948    2.0724   -0.6972 O   0  0  0  0  0  0  0  0  0  0  0  0
    2.2096   -1.2450    0.4586 O   0  0  0  0  0  0  0  0  0  0  0  0
   -0.3707   -2.8316   -3.3395 O   0  0  0  0  0  0  0  0  0  0  0  0
    2.0365   -1.8700   -3.5924 O   0  0  0  0  0  0  0  0  0  0  0  0
    5.2811    2.1027    2.4254 O   0  0  0  0  0  0  0  0  0  0  0  0
    7.7889    0.9058    2.3508 O   0  0  0  0  0  0  0  0  0  0  0  0
   -4.3447   -0.1401   -0.2094 C   0  0  1  0  0  0  0  0  0  0  0  0
   -5.1195    0.2118    1.0627 C   0  0  2  0  0  0  0  0  0  0  0  0
   -5.4383   -1.0471    1.8695 C   0  0  1  0  0  0  0  0  0  0  0  0
   -4.1916   -1.9100    2.0641 C   0  0  2  0  0  0  0  0  0  0  0  0
   -1.7675    3.9046    0.1427 C   0  0  1  0  0  0  0  0  0  0  0  0
   -2.6524    3.0840   -0.7937 C   0  0  2  0  0  0  0  0  0  0  0  0
   -0.4201    3.2154    0.3643 C   0  0  1  0  0  0  0  0  0  0  0  0
    0.2409    2.8638   -0.9690 C   0  0  2  0  0  0  0  0  0  0  0  0
   -3.4502   -2.1218    0.7441 C   0  0  1  0  0  0  0  0  0  0  0  0
   -3.9134    1.1088   -0.9717 C   0  0  0  0  0  0  0  0  0  0  0  0
   -0.7411    2.0851   -1.8553 C   0  0  2  0  0  0  0  0  0  0  0  0
   -0.1785    1.8386   -3.2525 C   0  0  0  0  0  0  0  0  0  0  0  0
   -1.1788   -2.5530    0.2024 C   0  0  0  0  0  0  0  0  0  0  0  0
    0.0002   -2.0179    0.7222 C   0  0  0  0  0  0  0  0  0  0  0  0
    1.0824   -1.7667   -0.1221 C   0  0  0  0  0  0  0  0  0  0  0  0
   -1.2816   -2.8278   -1.1617 C   0  0  0  0  0  0  0  0  0  0  0  0
    3.4025   -1.5155   -0.2939 C   0  0  1  0  0  0  0  0  0  0  0  0
    0.9692   -2.0225   -1.4919 C   0  0  0  0  0  0  0  0  0  0  0  0
    3.2735   -1.0050   -1.7278 C   0  0  0  0  0  0  0  0  0  0  0  0
   -0.2099   -2.5596   -2.0143 C   0  0  0  0  0  0  0  0  0  0  0  0
    2.0944   -1.6750   -2.3841 C   0  0  0  0  0  0  0  0  0  0  0  0
    4.5728   -0.8655    0.4138 C   0  0  0  0  0  0  0  0  0  0  0  0
    4.3918    0.3332    1.1029 C   0  0  0  0  0  0  0  0  0  0  0  0
    5.8306   -1.4664    0.3761 C   0  0  0  0  0  0  0  0  0  0  0  0
    5.4699    0.9318    1.7552 C   0  0  0  0  0  0  0  0  0  0  0  0
    6.9087   -0.8677    1.0281 C   0  0  0  0  0  0  0  0  0  0  0  0
    6.7283    0.3314    1.7178 C   0  0  0  0  0  0  0  0  0  0  0  0
   -4.9638   -0.7461   -0.8842 H   0  0  0  0  0  0  0  0  0  0  0  0
   -4.5505    0.9029    1.6958 H   0  0  0  0  0  0  0  0  0  0  0  0
   -6.2365   -1.6307    1.3945 H   0  0  0  0  0  0  0  0  0  0  0  0
   -3.5323   -1.4516    2.8118 H   0  0  0  0  0  0  0  0  0  0  0  0
   -2.2571    4.0727    1.1080 H   0  0  0  0  0  0  0  0  0  0  0  0
   -3.5342    3.6807   -1.0582 H   0  0  0  0  0  0  0  0  0  0  0  0
   -0.5603    2.3067    0.9632 H   0  0  0  0  0  0  0  0  0  0  0  0
    0.5812    3.7817   -1.4637 H   0  0  0  0  0  0  0  0  0  0  0  0
   -4.0365   -2.7536    0.0638 H   0  0  0  0  0  0  0  0  0  0  0  0
   -4.7873    1.6876   -1.2918 H   0  0  0  0  0  0  0  0  0  0  0  0
   -3.3533    0.7957   -1.8599 H   0  0  0  0  0  0  0  0  0  0  0  0
   -0.9496    1.1036   -1.4105 H   0  0  0  0  0  0  0  0  0  0  0  0
   -0.9202    1.3256   -3.8748 H   0  0  0  0  0  0  0  0  0  0  0  0
    0.7269    1.2259   -3.2246 H   0  0  0  0  0  0  0  0  0  0  0  0
    0.0515    2.7851   -3.7537 H   0  0  0  0  0  0  0  0  0  0  0  0
   -6.8509    0.2578    0.1497 H   0  0  0  0  0  0  0  0  0  0  0  0
   -6.7215   -0.0849    2.9855 H   0  0  0  0  0  0  0  0  0  0  0  0
   -3.7638   -3.7159    2.6725 H   0  0  0  0  0  0  0  0  0  0  0  0
   -1.2766    5.0498   -1.3770 H   0  0  0  0  0  0  0  0  0  0  0  0
    1.2956    3.6073    1.2077 H   0  0  0  0  0  0  0  0  0  0  0  0
    1.9123    2.0178   -1.5178 H   0  0  0  0  0  0  0  0  0  0  0  0
    0.0761   -1.8064    1.7859 H   0  0  0  0  0  0  0  0  0  0  0  0
    3.5551   -2.6050   -0.2834 H   0  0  0  0  0  0  0  0  0  0  0  0
   -2.2000   -3.2536   -1.5590 H   0  0  0  0  0  0  0  0  0  0  0  0
    4.1769   -1.2429   -2.3004 H   0  0  0  0  0  0  0  0  0  0  0  0
    3.1085    0.0767   -1.7653 H   0  0  0  0  0  0  0  0  0  0  0  0
    3.4186    0.8166    1.1288 H   0  0  0  0  0  0  0  0  0  0  0  0
    5.9841   -2.3995   -0.1594 H   0  0  0  0  0  0  0  0  0  0  0  0
   -1.2605   -3.1931   -3.4913 H   0  0  0  0  0  0  0  0  0  0  0  0
    7.8866   -1.3403    0.9947 H   0  0  0  0  0  0  0  0  0  0  0  0
    4.3493    2.3692    2.3435 H   0  0  0  0  0  0  0  0  0  0  0  0
    7.4839    1.7266    2.7750 H   0  0  0  0  0  0  0  0  0  0  0  0
  1 16  1  0  0  0  0
  1 24  1  0  0  0  0
  2 21  1  0  0  0  0
  2 25  1  0  0  0  0
  3 21  1  0  0  0  0
  3 26  1  0  0  0  0
  4 17  1  0  0  0  0
  4 58  1  0  0  0  0
  5 24  1  0  0  0  0
  5 28  1  0  0  0  0
  6 18  1  0  0  0  0
  6 59  1  0  0  0  0
  7 19  1  0  0  0  0
  7 60  1  0  0  0  0
  8 20  1  0  0  0  0
  8 61  1  0  0  0  0
  9 22  1  0  0  0  0
  9 62  1  0  0  0  0
 10 23  1  0  0  0  0
 10 63  1  0  0  0  0
 11 30  1  0  0  0  0
 11 32  1  0  0  0  0
 12 35  1  0  0  0  0
 12 71  1  0  0  0  0
 13 36  2  0  0  0  0
 14 40  1  0  0  0  0
 14 73  1  0  0  0  0
 15 42  1  0  0  0  0
 15 74  1  0  0  0  0
 16 17  1  0  0  0  0
 16 25  1  0  0  0  0
 16 43  1  0  0  0  0
 17 18  1  0  0  0  0
 17 44  1  0  0  0  0
 18 19  1  0  0  0  0
 18 45  1  0  0  0  0
 19 24  1  0  0  0  0
 19 46  1  0  0  0  0
 20 21  1  0  0  0  0
 20 22  1  0  0  0  0
 20 47  1  0  0  0  0
 21 48  1  0  0  0  0
 22 23  1  0  0  0  0
 22 49  1  0  0  0  0
 23 26  1  0  0  0  0
 23 50  1  0  0  0  0
 24 51  1  0  0  0  0
 25 52  1  0  0  0  0
 25 53  1  0  0  0  0
 26 27  1  0  0  0  0
 26 54  1  0  0  0  0
 27 55  1  0  0  0  0
 27 56  1  0  0  0  0
 27 57  1  0  0  0  0
 28 29  1  0  0  0  0
 28 31  2  0  0  0  0
 29 30  2  0  0  0  0
 29 64  1  0  0  0  0
 30 33  1  0  0  0  0
 31 35  1  0  0  0  0
 31 66  1  0  0  0  0
 32 34  1  0  0  0  0
 32 37  1  0  0  0  0
 32 65  1  0  0  0  0
 33 35  2  0  0  0  0
 33 36  1  0  0  0  0
 34 36  1  0  0  0  0
 34 67  1  0  0  0  0
 34 68  1  0  0  0  0
 37 38  2  0  0  0  0
 37 39  1  0  0  0  0
 38 40  1  0  0  0  0
 38 69  1  0  0  0  0
 39 41  2  0  0  0  0
 39 70  1  0  0  0  0
 40 42  2  0  0  0  0
 41 42  1  0  0  0  0
 41 72  1  0  0  0  0
M  END
> <PUBCHEM_COMPOUND_CID>
83489

> <PUBCHEM_CONFORMER_RMSD>
1.6

> <PUBCHEM_CONFORMER_DIVERSEORDER>
1
169
79
168
106
156
174
32
125
8
122
18
180
75
163
13
37
56
112
28
143
186
139
121
114
119
194
110
63
157
51
172
133
173
115
96
15
41
188
103
29
152
176
91
107
128
7
87
47
38
20
95
151
46
99
74
50
12
159
36
185
34
127
14
44
192
118
65
155
120
150
25
177
101
142
52
21
85
108
9
100
161
167
23
24
148
184
64
129
93
55
94
88
109
165
102
92
134
158
97
53
116
132
193
126
59
43
162
58
104
105
195
82
11
4
189
89
57
187
72
22
140
141
10
178
6
153
19
113
160
2
170
164
190
171
16
166
135
81
69
149
39
3
136
60
130
196
183
35
98
80
68
84
40
154
191
61
117
175
78
179
42
83
17
146
111
27
137
5
73
123
71
131
45
54
124
26
67
90
77
33
181
145
76
182
70
30
48
144
66
138
49
31
147
62
86

> <PUBCHEM_MMFF94_PARTIAL_CHARGES>
55
1 -0.56
10 -0.68
11 -0.36
12 -0.53
13 -0.57
14 -0.53
15 -0.53
16 0.28
17 0.28
18 0.28
19 0.28
2 -0.56
20 0.28
21 0.56
22 0.28
23 0.28
24 0.56
25 0.28
26 0.28
28 0.08
29 -0.15
3 -0.56
30 0.08
31 -0.15
32 0.42
33 0.09
34 0.06
35 0.08
36 0.42
37 -0.14
38 -0.15
39 -0.15
4 -0.68
40 0.08
41 -0.15
42 0.08
5 -0.36
58 0.4
59 0.4
6 -0.68
60 0.4
61 0.4
62 0.4
63 0.4
64 0.15
66 0.15
69 0.15
7 -0.68
70 0.15
71 0.45
72 0.15
73 0.45
74 0.45
8 -0.68
9 -0.68

> <PUBCHEM_EFFECTIVE_ROTOR_COUNT>
9

> <PUBCHEM_PHARMACOPHORE_FEATURES>
26
1 1 acceptor
1 10 acceptor
1 10 donor
1 11 acceptor
1 12 donor
1 13 acceptor
1 14 donor
1 15 donor
1 2 acceptor
1 3 acceptor
1 4 acceptor
1 4 donor
1 5 acceptor
1 6 acceptor
1 6 donor
1 7 acceptor
1 7 donor
1 8 acceptor
1 8 donor
1 9 acceptor
1 9 donor
6 1 16 17 18 19 24 rings
6 11 30 32 33 34 36 rings
6 28 29 30 31 33 35 rings
6 3 20 21 22 23 26 rings
6 37 38 39 40 41 42 rings

> <PUBCHEM_HEAVY_ATOM_COUNT>
42

> <PUBCHEM_ATOM_DEF_STEREO_COUNT>
11

> <PUBCHEM_ATOM_UDEF_STEREO_COUNT>
0

> <PUBCHEM_BOND_DEF_STEREO_COUNT>
0

> <PUBCHEM_BOND_UDEF_STEREO_COUNT>
0

> <PUBCHEM_ISOTOPIC_ATOM_COUNT>
0

> <PUBCHEM_COMPONENT_COUNT>
1

> <PUBCHEM_CACTVS_TAUTO_COUNT>
76

> <PUBCHEM_CONFORMER_ID>
0001462100000001

> <PUBCHEM_MMFF94_ENERGY>
130.9231

> <PUBCHEM_FEATURE_SELFOVERLAP>
132.084

> <PUBCHEM_SHAPE_FINGERPRINT>
10006869 2 18195263319028217218
10256941 240 16910614935899584524
10439779 11 18119513350702060153
10675989 125 16829831698993260885
11456790 92 17631998794719702491
12128747 34 18198343064594995162
12166972 35 15913319169969921798
12422481 6 18336828585231044824
13383668 262 15906266687978989379
13402501 40 18335426797868055881
14705955 166 18342462564806551162
14930077 153 5905181803228778586
15324884 4 17971722641442517991
15840311 113 17024845273974068275
15968369 153 18333449845865090173
161222 619 18040439897358120212
17980427 23 17969501502714231647
18393751 57 18187359922564639427
19309040 13 15285624495917120446
19315092 285 16271636785294849531
20764821 26 18338791196264642701
21033648 29 18114164346634200707
244849 19 17898563435452936374
24771293 8 18334291007701212841
25019877 29 17313099701479005151
25223398 141 18123170554030617294
392239 28 18336552693564372604
469060 322 16056608707082386958
50009960 94 17842271463915948883

> <PUBCHEM_SHAPE_MULTIPOLES>
776.3
14.41
5.2
3.08
15.28
5.11
-1.33
-1.65
15.12
-4.17
-0.91
0.23
-1.14
4.09

> <PUBCHEM_SHAPE_SELFOVERLAP>
1683.283

> <PUBCHEM_SHAPE_VOLUME>
418.9

> <PUBCHEM_COORDINATE_TYPE>
2
5
10

$$$$

