11954134
  -OEChem-07051213073D

 22 24  0     0  0  0  0  0  0999 V2000
    3.4736   -2.3027   -0.0014 Cl  0  0  0  0  0  0  0  0  0  0  0  0
   -4.6856    1.0899   -0.0009 Cl  0  0  0  0  0  0  0  0  0  0  0  0
    0.4141   -1.7134    0.0010 O   0  0  0  0  0  0  0  0  0  0  0  0
    0.7537    2.9610    0.0016 O   0  0  0  0  0  0  0  0  0  0  0  0
    0.6065    0.5398    0.0004 C   0  0  0  0  0  0  0  0  0  0  0  0
   -0.7799    0.2073    0.0001 C   0  0  0  0  0  0  0  0  0  0  0  0
    1.2913   -0.6714    0.0005 C   0  0  0  0  0  0  0  0  0  0  0  0
   -0.8404   -1.1828    0.0008 C   0  0  0  0  0  0  0  0  0  0  0  0
    1.3549    1.7313    0.0000 C   0  0  0  0  0  0  0  0  0  0  0  0
   -1.9874    0.9294   -0.0012 C   0  0  0  0  0  0  0  0  0  0  0  0
    2.6806   -0.7841    0.0002 C   0  0  0  0  0  0  0  0  0  0  0  0
   -2.0273   -1.9136    0.0006 C   0  0  0  0  0  0  0  0  0  0  0  0
    2.7540    1.6496   -0.0005 C   0  0  0  0  0  0  0  0  0  0  0  0
    3.4028    0.4127   -0.0007 C   0  0  0  0  0  0  0  0  0  0  0  0
   -3.1971    0.2217   -0.0007 C   0  0  0  0  0  0  0  0  0  0  0  0
   -3.2139   -1.1748    0.0003 C   0  0  0  0  0  0  0  0  0  0  0  0
   -1.9999    2.0142   -0.0023 H   0  0  0  0  0  0  0  0  0  0  0  0
   -2.0324   -2.9972    0.0011 H   0  0  0  0  0  0  0  0  0  0  0  0
    3.3482    2.5606   -0.0007 H   0  0  0  0  0  0  0  0  0  0  0  0
    4.4907    0.3936   -0.0015 H   0  0  0  0  0  0  0  0  0  0  0  0
   -4.1601   -1.7123    0.0006 H   0  0  0  0  0  0  0  0  0  0  0  0
   -0.2082    2.8528    0.0069 H   0  0  0  0  0  0  0  0  0  0  0  0
  1 11  1  0  0  0  0
  2 15  1  0  0  0  0
  3  7  1  0  0  0  0
  3  8  1  0  0  0  0
  4  9  1  0  0  0  0
  4 22  1  0  0  0  0
  5  6  1  0  0  0  0
  5  7  1  0  0  0  0
  5  9  2  0  0  0  0
  6  8  2  0  0  0  0
  6 10  1  0  0  0  0
  7 11  2  0  0  0  0
  8 12  1  0  0  0  0
  9 13  1  0  0  0  0
 10 15  2  0  0  0  0
 10 17  1  0  0  0  0
 11 14  1  0  0  0  0
 12 16  2  0  0  0  0
 12 18  1  0  0  0  0
 13 14  2  0  0  0  0
 13 19  1  0  0  0  0
 14 20  1  0  0  0  0
 15 16  1  0  0  0  0
 16 21  1  0  0  0  0
M  END
> <PUBCHEM_COMPOUND_CID>
11954134

> <PUBCHEM_CONFORMER_RMSD>
0.4

> <PUBCHEM_CONFORMER_DIVERSEORDER>
1

> <PUBCHEM_MMFF94_PARTIAL_CHARGES>
20
1 -0.18
10 -0.15
11 0.18
12 -0.15
13 -0.15
14 -0.15
15 0.18
16 -0.15
17 0.15
18 0.15
19 0.15
2 -0.18
20 0.15
21 0.15
22 0.45
3 -0.28
4 -0.53
7 0.14
8 0.14
9 0.08

> <PUBCHEM_EFFECTIVE_ROTOR_COUNT>
0

> <PUBCHEM_PHARMACOPHORE_FEATURES>
5
1 3 acceptor
1 4 donor
5 3 5 6 7 8 rings
6 5 7 9 11 13 14 rings
6 6 8 10 12 15 16 rings

> <PUBCHEM_HEAVY_ATOM_COUNT>
16

> <PUBCHEM_ATOM_DEF_STEREO_COUNT>
0

> <PUBCHEM_ATOM_UDEF_STEREO_COUNT>
0

> <PUBCHEM_BOND_DEF_STEREO_COUNT>
0

> <PUBCHEM_BOND_UDEF_STEREO_COUNT>
0

> <PUBCHEM_ISOTOPIC_ATOM_COUNT>
0

> <PUBCHEM_COMPONENT_COUNT>
1

> <PUBCHEM_CACTVS_TAUTO_COUNT>
3

> <PUBCHEM_CONFORMER_ID>
00B667D600000001

> <PUBCHEM_MMFF94_ENERGY>
31.9694

> <PUBCHEM_FEATURE_SELFOVERLAP>
25.573

> <PUBCHEM_SHAPE_FINGERPRINT>
10411042 1 17113537576913334883
10608611 8 18339364054739387041
10967382 1 18410855481624103782
10980938 120 18339642239892260448
1100329 8 16393810518684737731
11132069 177 18410862061498209633
11471102 20 18410859884229371901
116883 192 18118116111751200462
12032990 46 18338793519768362382
12507560 14 18261959664256540671
13140716 1 18411141367738254994
13380535 76 18409449185220719847
13571099 22 18334294283685015022
14144814 61 18410575050313929187
14178342 30 18048053890794489578
14325111 11 18410575041913924485
14648413 74 18268427940907463416
15042514 8 17547577441077041650
15196674 1 18410855447274940903
15219456 202 18411698755798542491
15442244 35 18337389438997721954
15536298 74 18334576837041421346
15775835 57 18341890766724724765
16945 1 18122626054839720390
17492 89 18337111163973172271
17804303 29 18340481252836818287
18186145 218 17918279761465081455
19591789 44 16317793579154157894
200 152 17968104109919599943
20559304 39 18339079272679848680
20645477 70 18335985345554072783
21267235 1 18337944688033044643
21501502 16 18338518534471190959
22094290 62 18410293618508456945
221490 88 18341041917793967003
2334 1 18410855438954226534
23402539 116 18116727394026395327
23402655 69 18334579040354486653
23463225 33 18411138052097225182
23558518 356 17841433635421618771
23559900 14 18334860537069829610
25 1 18342178877478551319
2748010 2 18410014342660548966
335352 9 18338799047459597687
34934 24 18409454674252032718
5104073 3 18410855456186831219
53812653 166 18335705992496700688
69090 78 18408890633461405335
7364860 26 18335984164769920722
74978 22 18410293575580045359
7832392 63 18408888399487476716
81228 2 17975962486826572994
8809292 202 18271802445230631171
9709674 26 18339640023441852443
9981440 41 17762346812029311040

> <PUBCHEM_SHAPE_MULTIPOLES>
321.27
6.88
2.53
0.61
3.64
0.41
0
-0.24
0
-1.25
0
0.01
-0.01
0

> <PUBCHEM_SHAPE_SELFOVERLAP>
708.548

> <PUBCHEM_SHAPE_VOLUME>
176

> <PUBCHEM_COORDINATE_TYPE>
2
5
10

$$$$

