260534
  -OEChem-07051212452D

 60 64  0     1  0  0  0  0  0999 V2000
    6.3194   -1.4689    0.0000 O   0  0  0  0  0  0  0  0  0  0  0  0
    5.0519   -3.4236    0.0000 O   0  0  0  0  0  0  0  0  0  0  0  0
    7.0625   -2.1380    0.0000 O   0  0  0  0  0  0  0  0  0  0  0  0
    5.9036   -3.4252    0.0000 O   0  0  0  0  0  0  0  0  0  0  0  0
    6.4218    3.0214    0.0000 O   0  0  0  0  0  0  0  0  0  0  0  0
    2.6254   -1.1949    0.0000 N   0  0  3  0  0  0  0  0  0  0  0  0
    5.7049   -0.1943    0.0000 N   0  0  3  0  0  0  0  0  0  0  0  0
    4.1652   -0.6946    0.0000 C   0  0  1  0  0  0  0  0  0  0  0  0
    3.5397   -1.3893    0.0000 C   0  0  2  0  0  0  0  0  0  0  0  0
    3.8286   -2.2782    0.0000 C   0  0  1  0  0  0  0  0  0  0  0  0
    5.0795   -0.8890    0.0000 C   0  0  2  0  0  0  0  0  0  0  0  0
    5.3683   -1.7779    0.0000 C   0  0  1  0  0  0  0  0  0  0  0  0
    3.7801    0.3410    0.0000 C   0  0  0  0  0  0  0  0  0  0  0  0
    4.7429   -2.4726    0.0000 C   0  0  2  0  0  0  0  0  0  0  0  0
    4.5018    0.8890    0.0000 C   0  0  0  0  0  0  0  0  0  0  0  0
    2.3366   -0.3060    0.0000 C   0  0  0  0  0  0  0  0  0  0  0  0
    4.1376   -3.2293    0.0000 C   0  0  0  0  0  0  0  0  0  0  0  0
    5.4161    0.6946    0.0000 C   0  0  0  0  0  0  0  0  0  0  0  0
    3.2031   -2.9729    0.0000 C   0  0  0  0  0  0  0  0  0  0  0  0
    2.0000   -1.8896    0.0000 C   0  0  0  0  0  0  0  0  0  0  0  0
    2.2888   -2.7785    0.0000 C   0  0  0  0  0  0  0  0  0  0  0  0
    6.1115   -2.4471    0.0000 C   0  0  0  0  0  0  0  0  0  0  0  0
    4.2129    1.7779    0.0000 C   0  0  0  0  0  0  0  0  0  0  0  0
    6.6560    0.1147    0.0000 C   0  0  0  0  0  0  0  0  0  0  0  0
    3.4685   -3.9724    0.0000 C   0  0  0  0  0  0  0  0  0  0  0  0
    6.0415    1.3893    0.0000 C   0  0  0  0  0  0  0  0  0  0  0  0
    4.8384    2.4726    0.0000 C   0  0  0  0  0  0  0  0  0  0  0  0
    5.7527    2.2782    0.0000 C   0  0  0  0  0  0  0  0  0  0  0  0
    7.8057   -2.8072    0.0000 C   0  0  0  0  0  0  0  0  0  0  0  0
    6.1128    3.9724    0.0000 C   0  0  0  0  0  0  0  0  0  0  0  0
    3.2771   -0.5809    0.0000 H   0  0  0  0  0  0  0  0  0  0  0  0
    5.9109   -1.0657    0.0000 H   0  0  0  0  0  0  0  0  0  0  0  0
    4.3564    0.5697    0.0000 H   0  0  0  0  0  0  0  0  0  0  0  0
    3.5389    0.9121    0.0000 H   0  0  0  0  0  0  0  0  0  0  0  0
    5.3493   -2.6015    0.0000 H   0  0  0  0  0  0  0  0  0  0  0  0
    2.1034    0.2685    0.0000 H   0  0  0  0  0  0  0  0  0  0  0  0
    1.7542   -0.5185    0.0000 H   0  0  0  0  0  0  0  0  0  0  0  0
    4.5193   -3.7178    0.0000 H   0  0  0  0  0  0  0  0  0  0  0  0
    4.6850   -2.9382    0.0000 H   0  0  0  0  0  0  0  0  0  0  0  0
    3.3947   -3.5625    0.0000 H   0  0  0  0  0  0  0  0  0  0  0  0
    1.6183   -1.4010    0.0000 H   0  0  0  0  0  0  0  0  0  0  0  0
    1.4526   -2.1806    0.0000 H   0  0  0  0  0  0  0  0  0  0  0  0
    1.8740   -3.2393    0.0000 H   0  0  0  0  0  0  0  0  0  0  0  0
    3.6065    1.9068    0.0000 H   0  0  0  0  0  0  0  0  0  0  0  0
    6.7342   -1.0082    0.0000 H   0  0  0  0  0  0  0  0  0  0  0  0
    6.8476   -0.4750    0.0000 H   0  0  0  0  0  0  0  0  0  0  0  0
    7.2456    0.3063    0.0000 H   0  0  0  0  0  0  0  0  0  0  0  0
    6.4644    0.7043    0.0000 H   0  0  0  0  0  0  0  0  0  0  0  0
    4.6370   -3.8844    0.0000 H   0  0  0  0  0  0  0  0  0  0  0  0
    3.0077   -3.5576    0.0000 H   0  0  0  0  0  0  0  0  0  0  0  0
    3.0536   -4.4332    0.0000 H   0  0  0  0  0  0  0  0  0  0  0  0
    3.9292   -4.3873    0.0000 H   0  0  0  0  0  0  0  0  0  0  0  0
    6.6480    1.2604    0.0000 H   0  0  0  0  0  0  0  0  0  0  0  0
    4.6468    3.0622    0.0000 H   0  0  0  0  0  0  0  0  0  0  0  0
    7.3908   -3.2679    0.0000 H   0  0  0  0  0  0  0  0  0  0  0  0
    8.2664   -3.2220    0.0000 H   0  0  0  0  0  0  0  0  0  0  0  0
    8.2205   -2.3464    0.0000 H   0  0  0  0  0  0  0  0  0  0  0  0
    6.7025    4.1640    0.0000 H   0  0  0  0  0  0  0  0  0  0  0  0
    5.9212    4.5621    0.0000 H   0  0  0  0  0  0  0  0  0  0  0  0
    5.5232    3.7808    0.0000 H   0  0  0  0  0  0  0  0  0  0  0  0
 12  1  1  6  0  0  0
  1 45  1  0  0  0  0
 14  2  1  6  0  0  0
  2 49  1  0  0  0  0
  3 22  1  0  0  0  0
  3 29  1  0  0  0  0
  4 22  2  0  0  0  0
  5 28  1  0  0  0  0
  5 30  1  0  0  0  0
  6  9  1  0  0  0  0
  6 16  1  0  0  0  0
  6 20  1  0  0  0  0
  7 11  1  0  0  0  0
  7 18  1  0  0  0  0
  7 24  1  0  0  0  0
  8  9  1  0  0  0  0
  8 11  1  0  0  0  0
  8 13  1  6  0  0  0
  8 15  1  0  0  0  0
  9 10  1  0  0  0  0
  9 31  1  1  0  0  0
 10 14  1  0  0  0  0
 10 17  1  1  0  0  0
 10 19  1  0  0  0  0
 11 12  1  0  0  0  0
 11 32  1  6  0  0  0
 12 14  1  0  0  0  0
 12 22  1  0  0  0  0
 13 16  1  0  0  0  0
 13 33  1  0  0  0  0
 13 34  1  0  0  0  0
 14 35  1  0  0  0  0
 15 18  2  0  0  0  0
 15 23  1  0  0  0  0
 16 36  1  0  0  0  0
 16 37  1  0  0  0  0
 17 25  1  0  0  0  0
 17 38  1  0  0  0  0
 17 39  1  0  0  0  0
 18 26  1  0  0  0  0
 19 21  2  0  0  0  0
 19 40  1  0  0  0  0
 20 21  1  0  0  0  0
 20 41  1  0  0  0  0
 20 42  1  0  0  0  0
 21 43  1  0  0  0  0
 23 27  2  0  0  0  0
 23 44  1  0  0  0  0
 24 46  1  0  0  0  0
 24 47  1  0  0  0  0
 24 48  1  0  0  0  0
 25 50  1  0  0  0  0
 25 51  1  0  0  0  0
 25 52  1  0  0  0  0
 26 28  2  0  0  0  0
 26 53  1  0  0  0  0
 27 28  1  0  0  0  0
 27 54  1  0  0  0  0
 29 55  1  0  0  0  0
 29 56  1  0  0  0  0
 29 57  1  0  0  0  0
 30 58  1  0  0  0  0
 30 59  1  0  0  0  0
 30 60  1  0  0  0  0
M  END
> <PUBCHEM_COMPOUND_CID>
260534

> <PUBCHEM_COMPOUND_CANONICALIZED>
1

> <PUBCHEM_CACTVS_COMPLEXITY>
760

> <PUBCHEM_CACTVS_HBOND_ACCEPTOR>
7

> <PUBCHEM_CACTVS_HBOND_DONOR>
2

> <PUBCHEM_CACTVS_ROTATABLE_BOND>
4

> <PUBCHEM_CACTVS_SUBSKEYS>
AAADceB7OAAAAAAAAAAAAAAAAAAAAWLAAAAwYIAAAAAAAFiBAAAAHgAACAAADnzhmAYyzoMABgCIAiTSSAKCCAAhIgAIiAFObIgPNj7E8ZuEcChn4Bnb6Ae42fOfoAAAAgACAABQgAYECBSgAAAAAAAAAA==

> <PUBCHEM_IUPAC_INCHI>
InChI=1S/C23H30N2O5/c1-5-21-9-6-11-25-12-10-22(17(21)25)15-8-7-14(29-3)13-16(15)24(2)18(22)23(28,19(21)26)20(27)30-4/h6-9,13,17-19,26,28H,5,10-12H2,1-4H3/t17-,18+,19+,21+,22+,23-/m0/s1

> <PUBCHEM_IUPAC_INCHIKEY>
ZDKMPOJNYNVYLA-PEGGBQQISA-N

> <PUBCHEM_XLOGP3_AA>
2.3

> <PUBCHEM_EXACT_MASS>
414.215472

> <PUBCHEM_MOLECULAR_FORMULA>
C23H30N2O5

> <PUBCHEM_MOLECULAR_WEIGHT>
414.4947

> <PUBCHEM_OPENEYE_CAN_SMILES>
CCC12C=CCN3C1C4(CC3)C(C(C2O)(C(=O)OC)O)N(C5=C4C=CC(=C5)OC)C

> <PUBCHEM_OPENEYE_ISO_SMILES>
CC[C@@]12C=CCN3[C@@H]1[C@]4(CC3)[C@H]([C@]([C@@H]2O)(C(=O)OC)O)N(C5=C4C=CC(=C5)OC)C

> <PUBCHEM_CACTVS_TPSA>
82.5

> <PUBCHEM_MONOISOTOPIC_WEIGHT>
414.215472

> <PUBCHEM_TOTAL_CHARGE>
0

> <PUBCHEM_HEAVY_ATOM_COUNT>
30

> <PUBCHEM_ATOM_DEF_STEREO_COUNT>
6

> <PUBCHEM_ATOM_UDEF_STEREO_COUNT>
0

> <PUBCHEM_BOND_DEF_STEREO_COUNT>
0

> <PUBCHEM_BOND_UDEF_STEREO_COUNT>
0

> <PUBCHEM_ISOTOPIC_ATOM_COUNT>
0

> <PUBCHEM_COMPONENT_COUNT>
1

> <PUBCHEM_CACTVS_TAUTO_COUNT>
1

> <PUBCHEM_COORDINATE_TYPE>
1
5
255

> <PUBCHEM_BONDANNOTATIONS>
12  1  6
10  17  5
11  32  6
15  18  8
15  23  8
18  26  8
14  2  6
23  27  8
26  28  8
27  28  8
8  13  6
9  31  5

$$$$

