6136
  -OEChem-06261201082D

 45 45  0     0  0  0  0  0  0999 V2000
    8.2700    4.3285    0.0000 Cl  0  0  0  0  0  0  0  0  0  0  0  0
    1.4030    1.0369    0.0000 O   0  0  0  0  0  0  0  0  0  0  0  0
    2.2690    5.5369    0.0000 N   0  0  0  0  0  0  0  0  0  0  0  0
    4.8671    5.0369    0.0000 N   0  0  0  0  0  0  0  0  0  0  0  0
    3.1350    7.0369    0.0000 N   0  0  0  0  0  0  0  0  0  0  0  0
    1.4030    7.0369    0.0000 N   0  0  0  0  0  0  0  0  0  0  0  0
    3.1350    5.0369    0.0000 C   0  0  0  0  0  0  0  0  0  0  0  0
    4.0010    5.5369    0.0000 C   0  0  0  0  0  0  0  0  0  0  0  0
    1.4030    5.0369    0.0000 C   0  0  0  0  0  0  0  0  0  0  0  0
    1.4030    4.0369    0.0000 C   0  0  0  0  0  0  0  0  0  0  0  0
    2.2690    6.5369    0.0000 C   0  0  0  0  0  0  0  0  0  0  0  0
    5.7331    5.5369    0.0000 C   0  0  0  0  0  0  0  0  0  0  0  0
    4.8671    4.0369    0.0000 C   0  0  0  0  0  0  0  0  0  0  0  0
    0.5369    3.5369    0.0000 C   0  0  0  0  0  0  0  0  0  0  0  0
    2.2690    3.5369    0.0000 C   0  0  0  0  0  0  0  0  0  0  0  0
    0.5369    2.5369    0.0000 C   0  0  0  0  0  0  0  0  0  0  0  0
    2.2690    2.5369    0.0000 C   0  0  0  0  0  0  0  0  0  0  0  0
    1.4030    2.0369    0.0000 C   0  0  0  0  0  0  0  0  0  0  0  0
    3.1350    8.0369    0.0000 C   0  0  0  0  0  0  0  0  0  0  0  0
    1.4030    8.0369    0.0000 C   0  0  0  0  0  0  0  0  0  0  0  0
    2.2690    8.5369    0.0000 C   0  0  0  0  0  0  0  0  0  0  0  0
    0.5369    0.5369    0.0000 C   0  0  0  0  0  0  0  0  0  0  0  0
    2.7365    4.5620    0.0000 H   0  0  0  0  0  0  0  0  0  0  0  0
    3.5335    4.5620    0.0000 H   0  0  0  0  0  0  0  0  0  0  0  0
    4.3996    6.0119    0.0000 H   0  0  0  0  0  0  0  0  0  0  0  0
    3.6025    6.0119    0.0000 H   0  0  0  0  0  0  0  0  0  0  0  0
    1.1909    5.6195    0.0000 H   0  0  0  0  0  0  0  0  0  0  0  0
    0.7924    4.9293    0.0000 H   0  0  0  0  0  0  0  0  0  0  0  0
    6.0431    5.0000    0.0000 H   0  0  0  0  0  0  0  0  0  0  0  0
    6.2700    5.8469    0.0000 H   0  0  0  0  0  0  0  0  0  0  0  0
    5.4231    6.0739    0.0000 H   0  0  0  0  0  0  0  0  0  0  0  0
    4.2471    4.0369    0.0000 H   0  0  0  0  0  0  0  0  0  0  0  0
    4.8671    3.4169    0.0000 H   0  0  0  0  0  0  0  0  0  0  0  0
    5.4871    4.0369    0.0000 H   0  0  0  0  0  0  0  0  0  0  0  0
    0.0000    3.8469    0.0000 H   0  0  0  0  0  0  0  0  0  0  0  0
    2.8059    3.8469    0.0000 H   0  0  0  0  0  0  0  0  0  0  0  0
    0.0000    2.2269    0.0000 H   0  0  0  0  0  0  0  0  0  0  0  0
    2.8059    2.2269    0.0000 H   0  0  0  0  0  0  0  0  0  0  0  0
    3.6720    8.3469    0.0000 H   0  0  0  0  0  0  0  0  0  0  0  0
    0.8660    8.3469    0.0000 H   0  0  0  0  0  0  0  0  0  0  0  0
    2.2690    9.1569    0.0000 H   0  0  0  0  0  0  0  0  0  0  0  0
    0.2269    1.0739    0.0000 H   0  0  0  0  0  0  0  0  0  0  0  0
    0.0000    0.2269    0.0000 H   0  0  0  0  0  0  0  0  0  0  0  0
    0.8469    0.0000    0.0000 H   0  0  0  0  0  0  0  0  0  0  0  0
    9.2700    4.3285    0.0000 H   0  0  0  0  0  0  0  0  0  0  0  0
  1 45  1  0  0  0  0
  2 18  1  0  0  0  0
  2 22  1  0  0  0  0
  3  7  1  0  0  0  0
  3  9  1  0  0  0  0
  3 11  1  0  0  0  0
  4  8  1  0  0  0  0
  4 12  1  0  0  0  0
  4 13  1  0  0  0  0
  5 11  1  0  0  0  0
  5 19  2  0  0  0  0
  6 11  2  0  0  0  0
  6 20  1  0  0  0  0
  7  8  1  0  0  0  0
  7 23  1  0  0  0  0
  7 24  1  0  0  0  0
  8 25  1  0  0  0  0
  8 26  1  0  0  0  0
  9 10  1  0  0  0  0
  9 27  1  0  0  0  0
  9 28  1  0  0  0  0
 10 14  2  0  0  0  0
 10 15  1  0  0  0  0
 12 29  1  0  0  0  0
 12 30  1  0  0  0  0
 12 31  1  0  0  0  0
 13 32  1  0  0  0  0
 13 33  1  0  0  0  0
 13 34  1  0  0  0  0
 14 16  1  0  0  0  0
 14 35  1  0  0  0  0
 15 17  2  0  0  0  0
 15 36  1  0  0  0  0
 16 18  2  0  0  0  0
 16 37  1  0  0  0  0
 17 18  1  0  0  0  0
 17 38  1  0  0  0  0
 19 21  1  0  0  0  0
 19 39  1  0  0  0  0
 20 21  2  0  0  0  0
 20 40  1  0  0  0  0
 21 41  1  0  0  0  0
 22 42  1  0  0  0  0
 22 43  1  0  0  0  0
 22 44  1  0  0  0  0
M  END
> <PUBCHEM_COMPOUND_CID>
6136

> <PUBCHEM_COMPOUND_CANONICALIZED>
1

> <PUBCHEM_CACTVS_COMPLEXITY>
274

> <PUBCHEM_CACTVS_HBOND_ACCEPTOR>
5

> <PUBCHEM_CACTVS_HBOND_DONOR>
1

> <PUBCHEM_CACTVS_ROTATABLE_BOND>
7

> <PUBCHEM_CACTVS_SUBSKEYS>
AAADceB7oAAEAAAAAAAAAAAAAAAAAAAAAAA8QAAAAAAAAAABwAAAHgAAAAAADATBmgY/lpcIFACgAjBnZACCiCkxIqAJ2CA+bJiMbqLE+VuUNChswBPIqCeQ0AIOIAAAAAAAAABAAAAAAAAAAAAAAAAAAA==

> <PUBCHEM_IUPAC_OPENEYE_NAME>
N'-[(4-methoxyphenyl)methyl]-N,N-dimethyl-N'-pyrimidin-2-yl-ethane-1,2-diamine hydrochloride

> <PUBCHEM_IUPAC_CAS_NAME>
N'-[(4-methoxyphenyl)methyl]-N,N-dimethyl-N'-(2-pyrimidinyl)ethane-1,2-diamine hydrochloride

> <PUBCHEM_IUPAC_NAME>
N'-[(4-methoxyphenyl)methyl]-N,N-dimethyl-N'-pyrimidin-2-ylethane-1,2-diamine hydrochloride

> <PUBCHEM_IUPAC_SYSTEMATIC_NAME>
N'-[(4-methoxyphenyl)methyl]-N,N-dimethyl-N'-pyrimidin-2-yl-ethane-1,2-diamine hydrochloride

> <PUBCHEM_IUPAC_TRADITIONAL_NAME>
dimethyl-[2-[p-anisyl(2-pyrimidyl)amino]ethyl]amine hydrochloride

> <PUBCHEM_IUPAC_INCHI>
InChI=1S/C16H22N4O.ClH/c1-19(2)11-12-20(16-17-9-4-10-18-16)13-14-5-7-15(21-3)8-6-14;/h4-10H,11-13H2,1-3H3;1H

> <PUBCHEM_IUPAC_INCHIKEY>
HRYJPHOTGFERGT-UHFFFAOYSA-N

> <PUBCHEM_EXACT_MASS>
322.156039

> <PUBCHEM_MOLECULAR_FORMULA>
C16H23ClN4O

> <PUBCHEM_MOLECULAR_WEIGHT>
322.83302

> <PUBCHEM_OPENEYE_CAN_SMILES>
CN(C)CCN(CC1=CC=C(C=C1)OC)C2=NC=CC=N2.Cl

> <PUBCHEM_OPENEYE_ISO_SMILES>
CN(C)CCN(CC1=CC=C(C=C1)OC)C2=NC=CC=N2.Cl

> <PUBCHEM_CACTVS_TPSA>
41.5

> <PUBCHEM_MONOISOTOPIC_WEIGHT>
322.156039

> <PUBCHEM_TOTAL_CHARGE>
0

> <PUBCHEM_HEAVY_ATOM_COUNT>
22

> <PUBCHEM_ATOM_DEF_STEREO_COUNT>
0

> <PUBCHEM_ATOM_UDEF_STEREO_COUNT>
0

> <PUBCHEM_BOND_DEF_STEREO_COUNT>
0

> <PUBCHEM_BOND_UDEF_STEREO_COUNT>
0

> <PUBCHEM_ISOTOPIC_ATOM_COUNT>
0

> <PUBCHEM_COMPONENT_COUNT>
2

> <PUBCHEM_CACTVS_TAUTO_COUNT>
1

> <PUBCHEM_COORDINATE_TYPE>
1
5
255

> <PUBCHEM_BONDANNOTATIONS>
10  14  8
10  15  8
14  16  8
15  17  8
16  18  8
17  18  8
19  21  8
20  21  8
5  11  8
5  19  8
6  11  8
6  20  8

$$$$

