8993
  -OEChem-06261203183D

 37 38  0     1  0  0  0  0  0999 V2000
   -5.8215    1.0160    0.0632 Cl  0  0  0  0  0  0  0  0  0  0  0  0
   -3.1728    0.5705   -1.2033 S   0  0  0  0  0  0  0  0  0  0  0  0
    0.5852    0.0422   -0.2277 N   0  0  3  0  0  0  0  0  0  0  0  0
    3.8029    1.8455    0.2050 N   0  0  0  0  0  0  0  0  0  0  0  0
   -0.3830   -2.0807   -0.7093 N   0  0  0  0  0  0  0  0  0  0  0  0
    1.5686    0.8634    0.4374 C   0  0  0  0  0  0  0  0  0  0  0  0
    2.8059    0.9931   -0.4418 C   0  0  0  0  0  0  0  0  0  0  0  0
   -0.4203    0.6955   -1.0675 C   0  0  0  0  0  0  0  0  0  0  0  0
    0.5709   -1.3511   -0.0731 C   0  0  0  0  0  0  0  0  0  0  0  0
   -1.7347    0.9420   -0.3771 C   0  0  0  0  0  0  0  0  0  0  0  0
    3.2452    3.1702    0.4747 C   0  0  0  0  0  0  0  0  0  0  0  0
    4.9998    1.9548   -0.6282 C   0  0  0  0  0  0  0  0  0  0  0  0
    1.5487   -1.9240    0.7360 C   0  0  0  0  0  0  0  0  0  0  0  0
   -1.9362    1.4432    0.8726 C   0  0  0  0  0  0  0  0  0  0  0  0
   -3.3259    1.5303    1.1750 C   0  0  0  0  0  0  0  0  0  0  0  0
    1.5477   -3.3048    0.8992 C   0  0  0  0  0  0  0  0  0  0  0  0
   -4.1107    1.0881    0.1328 C   0  0  0  0  0  0  0  0  0  0  0  0
   -0.3523   -3.4199   -0.5269 C   0  0  0  0  0  0  0  0  0  0  0  0
    0.5825   -4.0743    0.2590 C   0  0  0  0  0  0  0  0  0  0  0  0
    1.1078    1.8475    0.5774 H   0  0  0  0  0  0  0  0  0  0  0  0
    1.7988    0.5415    1.4595 H   0  0  0  0  0  0  0  0  0  0  0  0
    3.2394    0.0011   -0.6172 H   0  0  0  0  0  0  0  0  0  0  0  0
    2.5288    1.3909   -1.4278 H   0  0  0  0  0  0  0  0  0  0  0  0
   -0.5530    0.1261   -1.9971 H   0  0  0  0  0  0  0  0  0  0  0  0
   -0.0403    1.6721   -1.3993 H   0  0  0  0  0  0  0  0  0  0  0  0
    2.5406    3.1552    1.3120 H   0  0  0  0  0  0  0  0  0  0  0  0
    2.7602    3.6109   -0.4041 H   0  0  0  0  0  0  0  0  0  0  0  0
    4.0376    3.8593    0.7927 H   0  0  0  0  0  0  0  0  0  0  0  0
    5.7711    2.5445   -0.1202 H   0  0  0  0  0  0  0  0  0  0  0  0
    4.7891    2.4230   -1.5966 H   0  0  0  0  0  0  0  0  0  0  0  0
    5.4344    0.9655   -0.8105 H   0  0  0  0  0  0  0  0  0  0  0  0
    2.3343   -1.3793    1.2434 H   0  0  0  0  0  0  0  0  0  0  0  0
   -1.1494    1.7404    1.5531 H   0  0  0  0  0  0  0  0  0  0  0  0
   -3.7232    1.8999    2.1119 H   0  0  0  0  0  0  0  0  0  0  0  0
    2.2998   -3.7821    1.5203 H   0  0  0  0  0  0  0  0  0  0  0  0
   -1.1261   -3.9742   -1.0477 H   0  0  0  0  0  0  0  0  0  0  0  0
    0.5632   -5.1522    0.3709 H   0  0  0  0  0  0  0  0  0  0  0  0
  1 17  1  0  0  0  0
  2 10  1  0  0  0  0
  2 17  1  0  0  0  0
  3  6  1  0  0  0  0
  3  8  1  0  0  0  0
  3  9  1  0  0  0  0
  4  7  1  0  0  0  0
  4 11  1  0  0  0  0
  4 12  1  0  0  0  0
  5  9  1  0  0  0  0
  5 18  2  0  0  0  0
  6  7  1  0  0  0  0
  6 20  1  0  0  0  0
  6 21  1  0  0  0  0
  7 22  1  0  0  0  0
  7 23  1  0  0  0  0
  8 10  1  0  0  0  0
  8 24  1  0  0  0  0
  8 25  1  0  0  0  0
  9 13  2  0  0  0  0
 10 14  2  0  0  0  0
 11 26  1  0  0  0  0
 11 27  1  0  0  0  0
 11 28  1  0  0  0  0
 12 29  1  0  0  0  0
 12 30  1  0  0  0  0
 12 31  1  0  0  0  0
 13 16  1  0  0  0  0
 13 32  1  0  0  0  0
 14 15  1  0  0  0  0
 14 33  1  0  0  0  0
 15 17  2  0  0  0  0
 15 34  1  0  0  0  0
 16 19  2  0  0  0  0
 16 35  1  0  0  0  0
 18 19  1  0  0  0  0
 18 36  1  0  0  0  0
 19 37  1  0  0  0  0
M  END
> <PUBCHEM_COMPOUND_CID>
8993

> <PUBCHEM_CONFORMER_RMSD>
0.8

> <PUBCHEM_CONFORMER_DIVERSEORDER>
4
243
200
255
252
239
226
188
208
238
99
151
244
153
245
110
77
176
44
191
241
80
100
209
92
140
89
171
121
36
234
247
119
74
154
57
102
246
237
168
42
87
143
206
85
131
136
23
123
115
24
240
227
182
46
120
260
51
93
207
169
96
41
157
122
218
233
174
27
210
50
215
101
161
156
201
217
223
192
195
259
180
7
58
235
251
148
60
133
186
172
194
212
205
202
28
94
167
79
216
116
249
196
66
5
224
82
135
189
109
150
159
165
228
162
178
248
163
43
45
173
62
75
111
144
31
177
187
190
236
1
114
257
95
199
250
30
112
181
261
104
185
175
184
193
52
130
17
29
126
53
134
146
221
256
72
106
78
84
64
160
183
21
108
38
141
170
76
155
67
258
12
142
105
118
98
230
166
204
59
129
33
222
20
137
65
86
164
128
68
152
61
73
90
83
124
254
220
55
40
107
81
56
8
197
198
10
6
132
19
69
242
70
14
103
138
179
203
232
11
214
219
97
253
127
145
211
9
225
16
125
3
35
91
39
37
213
117
158
139
231
34
47
25
54
13
147
113
26
22
229
88
71
15
149
49
48
18
32
2
63

> <PUBCHEM_MMFF94_PARTIAL_CHARGES>
25
1 -0.12
10 -0.14
11 0.27
12 0.27
13 -0.15
14 -0.15
15 -0.15
16 -0.15
17 0.16
18 0.16
19 -0.15
2 -0.08
3 -0.84
32 0.15
33 0.15
34 0.15
35 0.15
36 0.15
37 0.15
4 -0.81
5 -0.62
6 0.37
7 0.27
8 0.55
9 0.41

> <PUBCHEM_EFFECTIVE_ROTOR_COUNT>
6

> <PUBCHEM_PHARMACOPHORE_FEATURES>
5
1 3 cation
1 4 cation
1 5 acceptor
5 2 10 14 15 17 rings
6 5 9 13 16 18 19 rings

> <PUBCHEM_HEAVY_ATOM_COUNT>
19

> <PUBCHEM_ATOM_DEF_STEREO_COUNT>
0

> <PUBCHEM_ATOM_UDEF_STEREO_COUNT>
0

> <PUBCHEM_BOND_DEF_STEREO_COUNT>
0

> <PUBCHEM_BOND_UDEF_STEREO_COUNT>
0

> <PUBCHEM_ISOTOPIC_ATOM_COUNT>
0

> <PUBCHEM_COMPONENT_COUNT>
1

> <PUBCHEM_CACTVS_TAUTO_COUNT>
1

> <PUBCHEM_CONFORMER_ID>
0000232100000004

> <PUBCHEM_MMFF94_ENERGY>
49.9899

> <PUBCHEM_FEATURE_SELFOVERLAP>
25.371

> <PUBCHEM_SHAPE_FINGERPRINT>
10090160 65 18409731746940545229
1100329 8 18410298042662934250
11582403 64 16698129696615135853
12532896 13 18338232657363927190
12549972 3 17678741129744411112
12553582 1 17688589785373795231
12788726 201 17762910861763079570
13052359 8 18267585693689202786
13140716 1 18413392042175738330
13533116 47 18266175218646552425
136203 1 17906732501540090794
13955234 65 18339921644758012467
14787075 74 17970631784062196173
14790565 3 18267864978470567045
14866123 147 18267304227672211682
14955137 171 18195530513834975746
15842332 3 17896331392520142181
17138139 8 17755052738322617719
1813 80 17538562510432827142
18785283 64 18272089452452078138
18915476 22 18199765798085751413
19591789 44 18411981351851570086
204376 136 18341330011336301821
20510252 161 17834121844621485570
20645477 70 18199474449242606989
21049683 118 18120399590885387928
21054139 6 18335991848730183919
21524375 3 18333450928455278844
2255824 54 18264208195568627487
23419403 2 17540198394687714518
23557571 272 17759236298456852652
23558518 356 17766844923115646920
23559900 14 18050859002887066337
23845131 108 18342178834756095747
266924 78 18124344784692524511
283562 15 17764319336200614418
3091708 16 9118661679266520186
31174 14 18126286586883690199
33824 294 18340766031022862761
3729539 64 18123726890093124822
4340502 62 18410566276466065029
458136 41 18411701014661124893
474 4 18409448102451325849
5312544 6 18409737274341415407
6025842 7 18338803424432101245
621550 34 18272652393963583117
633830 44 18259699003920536580
7097593 13 17758111888660548945
7364860 26 18267302221288922762
81228 2 17694503650634644224

> <PUBCHEM_SHAPE_MULTIPOLES>
381.79
8.51
4.63
1.06
5.97
5.25
-0.02
-9.31
0.08
-5
0.66
0.38
-0.07
-0.84

> <PUBCHEM_SHAPE_SELFOVERLAP>
768.013

> <PUBCHEM_SHAPE_VOLUME>
226.8

> <PUBCHEM_COORDINATE_TYPE>
2
5
10

$$$$

