227669
  -OEChem-07051213063D

 51 54  0     1  0  0  0  0  0999 V2000
    0.1841    2.3254    1.0427 O   0  0  0  0  0  0  0  0  0  0  0  0
    4.6966    0.8714   -0.9492 O   0  0  0  0  0  0  0  0  0  0  0  0
   -0.4476    0.3267   -0.3026 C   0  0  1  0  0  0  0  0  0  0  0  0
    0.3538   -0.8398    0.3725 C   0  0  2  0  0  0  0  0  0  0  0  0
   -1.9695    0.3272    0.1215 C   0  0  2  0  0  0  0  0  0  0  0  0
    1.7738   -0.8327   -0.2093 C   0  0  1  0  0  0  0  0  0  0  0  0
    2.5286    0.4773    0.0900 C   0  0  2  0  0  0  0  0  0  0  0  0
   -2.5445   -1.0812   -0.2452 C   0  0  1  0  0  0  0  0  0  0  0  0
    0.2974    1.6975   -0.2268 C   0  0  2  0  0  0  0  0  0  0  0  0
   -0.3212   -2.2013    0.1368 C   0  0  0  0  0  0  0  0  0  0  0  0
    1.7918    1.6195   -0.6118 C   0  0  0  0  0  0  0  0  0  0  0  0
   -1.8064   -2.2071    0.4861 C   0  0  0  0  0  0  0  0  0  0  0  0
   -2.7569    1.3874   -0.6981 C   0  0  0  0  0  0  0  0  0  0  0  0
    2.7664   -1.9273    0.1673 C   0  0  0  0  0  0  0  0  0  0  0  0
   -4.0643   -1.1900   -0.0500 C   0  0  0  0  0  0  0  0  0  0  0  0
   -2.1594    0.6325    1.6293 C   0  0  0  0  0  0  0  0  0  0  0  0
    3.8689    0.0834   -0.5115 C   0  0  0  0  0  0  0  0  0  0  0  0
    4.0729   -1.4229   -0.4655 C   0  0  0  0  0  0  0  0  0  0  0  0
   -4.2743    1.2912   -0.5218 C   0  0  0  0  0  0  0  0  0  0  0  0
   -4.8012   -0.1051   -0.8302 C   0  0  0  0  0  0  0  0  0  0  0  0
    2.8111    0.7678    1.5758 C   0  0  0  0  0  0  0  0  0  0  0  0
   -0.4466    0.0888   -1.3797 H   0  0  0  0  0  0  0  0  0  0  0  0
    0.4043   -0.6750    1.4537 H   0  0  0  0  0  0  0  0  0  0  0  0
    1.6546   -0.9192   -1.3042 H   0  0  0  0  0  0  0  0  0  0  0  0
   -2.3704   -1.2376   -1.3215 H   0  0  0  0  0  0  0  0  0  0  0  0
   -0.1793    2.3804   -0.9401 H   0  0  0  0  0  0  0  0  0  0  0  0
    0.1831   -2.9746    0.7283 H   0  0  0  0  0  0  0  0  0  0  0  0
   -0.2082   -2.4906   -0.9163 H   0  0  0  0  0  0  0  0  0  0  0  0
    1.8634    1.4792   -1.6989 H   0  0  0  0  0  0  0  0  0  0  0  0
    2.2918    2.5719   -0.3951 H   0  0  0  0  0  0  0  0  0  0  0  0
   -2.2293   -3.1777    0.1989 H   0  0  0  0  0  0  0  0  0  0  0  0
   -1.9376   -2.1226    1.5708 H   0  0  0  0  0  0  0  0  0  0  0  0
   -2.5243    1.2716   -1.7650 H   0  0  0  0  0  0  0  0  0  0  0  0
   -2.4419    2.4002   -0.4200 H   0  0  0  0  0  0  0  0  0  0  0  0
    2.4901   -2.9056   -0.2380 H   0  0  0  0  0  0  0  0  0  0  0  0
    2.8644   -2.0320    1.2531 H   0  0  0  0  0  0  0  0  0  0  0  0
   -4.3300   -1.1340    1.0111 H   0  0  0  0  0  0  0  0  0  0  0  0
   -4.4115   -2.1705   -0.3989 H   0  0  0  0  0  0  0  0  0  0  0  0
   -1.4896    0.0471    2.2641 H   0  0  0  0  0  0  0  0  0  0  0  0
   -1.9803    1.6887    1.8511 H   0  0  0  0  0  0  0  0  0  0  0  0
   -3.1764    0.4259    1.9737 H   0  0  0  0  0  0  0  0  0  0  0  0
    4.1855   -1.7958   -1.4875 H   0  0  0  0  0  0  0  0  0  0  0  0
    4.9415   -1.6831    0.1431 H   0  0  0  0  0  0  0  0  0  0  0  0
   -4.7614    2.0162   -1.1845 H   0  0  0  0  0  0  0  0  0  0  0  0
   -4.5531    1.5728    0.5000 H   0  0  0  0  0  0  0  0  0  0  0  0
   -5.8730   -0.1536   -0.6067 H   0  0  0  0  0  0  0  0  0  0  0  0
   -4.6944   -0.2997   -1.9048 H   0  0  0  0  0  0  0  0  0  0  0  0
    3.4666    0.0213    2.0372 H   0  0  0  0  0  0  0  0  0  0  0  0
    3.3218    1.7325    1.6826 H   0  0  0  0  0  0  0  0  0  0  0  0
    1.8974    0.8123    2.1736 H   0  0  0  0  0  0  0  0  0  0  0  0
    0.6067    3.1989    0.9829 H   0  0  0  0  0  0  0  0  0  0  0  0
  1  9  1  0  0  0  0
  1 51  1  0  0  0  0
  2 17  2  0  0  0  0
  3  4  1  0  0  0  0
  3  5  1  0  0  0  0
  3  9  1  0  0  0  0
  3 22  1  0  0  0  0
  4  6  1  0  0  0  0
  4 10  1  0  0  0  0
  4 23  1  0  0  0  0
  5  8  1  0  0  0  0
  5 13  1  0  0  0  0
  5 16  1  0  0  0  0
  6  7  1  0  0  0  0
  6 14  1  0  0  0  0
  6 24  1  0  0  0  0
  7 11  1  0  0  0  0
  7 17  1  0  0  0  0
  7 21  1  0  0  0  0
  8 12  1  0  0  0  0
  8 15  1  0  0  0  0
  8 25  1  0  0  0  0
  9 11  1  0  0  0  0
  9 26  1  0  0  0  0
 10 12  1  0  0  0  0
 10 27  1  0  0  0  0
 10 28  1  0  0  0  0
 11 29  1  0  0  0  0
 11 30  1  0  0  0  0
 12 31  1  0  0  0  0
 12 32  1  0  0  0  0
 13 19  1  0  0  0  0
 13 33  1  0  0  0  0
 13 34  1  0  0  0  0
 14 18  1  0  0  0  0
 14 35  1  0  0  0  0
 14 36  1  0  0  0  0
 15 20  1  0  0  0  0
 15 37  1  0  0  0  0
 15 38  1  0  0  0  0
 16 39  1  0  0  0  0
 16 40  1  0  0  0  0
 16 41  1  0  0  0  0
 17 18  1  0  0  0  0
 18 42  1  0  0  0  0
 18 43  1  0  0  0  0
 19 20  1  0  0  0  0
 19 44  1  0  0  0  0
 19 45  1  0  0  0  0
 20 46  1  0  0  0  0
 20 47  1  0  0  0  0
 21 48  1  0  0  0  0
 21 49  1  0  0  0  0
 21 50  1  0  0  0  0
M  END
> <PUBCHEM_COMPOUND_CID>
227669

> <PUBCHEM_CONFORMER_RMSD>
0.6

> <PUBCHEM_CONFORMER_DIVERSEORDER>
1

> <PUBCHEM_MMFF94_PARTIAL_CHARGES>
7
1 -0.68
17 0.45
18 0.06
2 -0.57
51 0.4
7 0.06
9 0.28

> <PUBCHEM_EFFECTIVE_ROTOR_COUNT>
2

> <PUBCHEM_PHARMACOPHORE_FEATURES>
7
1 1 acceptor
1 1 donor
1 2 acceptor
5 6 7 14 17 18 rings
6 3 4 5 8 10 12 rings
6 3 4 6 7 9 11 rings
6 5 8 13 15 19 20 rings

> <PUBCHEM_HEAVY_ATOM_COUNT>
21

> <PUBCHEM_ATOM_DEF_STEREO_COUNT>
7

> <PUBCHEM_ATOM_UDEF_STEREO_COUNT>
0

> <PUBCHEM_BOND_DEF_STEREO_COUNT>
0

> <PUBCHEM_BOND_UDEF_STEREO_COUNT>
0

> <PUBCHEM_ISOTOPIC_ATOM_COUNT>
0

> <PUBCHEM_COMPONENT_COUNT>
1

> <PUBCHEM_CACTVS_TAUTO_COUNT>
2

> <PUBCHEM_CONFORMER_ID>
0003795500000001

> <PUBCHEM_MMFF94_ENERGY>
71.1383

> <PUBCHEM_FEATURE_SELFOVERLAP>
35.611

> <PUBCHEM_SHAPE_FINGERPRINT>
10062212 137 18261118491170643759
10366900 7 17822007610216617208
10498660 4 18341893000170963916
10759866 29 17989205962696836154
10863032 1 18335423482137310035
10967382 1 18340487871360283310
11132069 177 18410863148135498003
11471102 20 18412545422780665950
11578080 2 16880487965016147411
12011746 2 18408882936458018046
12236239 1 17967811674254921481
12403259 226 18338241462321307269
12403259 415 18409735045433055153
12403814 3 17346605174666021957
12553582 1 18336531794533000736
12592029 89 18202286939741144627
12788726 201 18042398196017673192
13140716 1 18338519767021518131
13224815 77 18408040719072393722
13571099 22 18410011061126167228
14223421 5 18049724018601932377
14790565 3 18122617516746130893
14866123 147 17396976233196512315
15099037 51 18412827993011005847
15196674 1 18412825802171606871
15375358 24 18410859832726667974
15536298 74 18334862713979821739
1601671 61 18343303664941593132
16752209 62 18269559505855304160
16945 1 18342175505739306938
17349148 13 18113337518231708751
18186145 218 18410862100537972125
19862831 5 18411701010429597543
200 152 17967254191589113783
20645477 70 18339080496767075574
20871999 31 18413105052349795085
21029758 11 18334577936426520105
21267235 1 18411128160503030774
21285901 2 18058739125123548613
221357 26 18408892828342466781
221490 88 18268424638193813067
2334 1 18410292497364094450
23402539 116 18261398891872715582
23402655 69 18409449201946752735
23493267 7 17489297633360777800
23559900 14 18408044005318551920
25 1 18342463689961407599
2748010 2 18409444773946519378
2871803 45 18411981386142580910
296302 2 16702301243408748325
3004659 81 18200875179759447654
3286 77 17603875545669078874
335352 9 18268712894760360743
34934 24 18412549786631027294
350125 39 18412820271092343569
474 4 16055743236643726196
495365 180 17677066676034085690
5104073 3 18413108376696713371
633830 44 17489587891603721543
69090 78 18408890628897601119
7364860 26 18191304867010231608
74978 22 18341328898918289748
9709674 26 18339925888012029839

> <PUBCHEM_SHAPE_MULTIPOLES>
420.43
8.43
2.29
1.07
0.79
0.38
0.36
0.11
-2.2
0
0.14
-0.09
-0.32
0.22

> <PUBCHEM_SHAPE_SELFOVERLAP>
895.545

> <PUBCHEM_SHAPE_VOLUME>
230.8

> <PUBCHEM_COORDINATE_TYPE>
2
5
10

$$$$

