14388
  -OEChem-06241222433D

 34 38  0     1  0  0  0  0  0999 V2000
    1.7699   -2.8461   -0.2688 O   0  0  0  0  0  0  0  0  0  0  0  0
    1.0527   -1.9334    0.5099 C   0  0  1  0  0  0  0  0  0  0  0  0
    2.0394   -1.5964   -0.8347 C   0  0  1  0  0  0  0  0  0  0  0  0
   -0.0670   -0.9492    0.2618 C   0  0  0  0  0  0  0  0  0  0  0  0
    2.6861   -0.3148   -0.3628 C   0  0  0  0  0  0  0  0  0  0  0  0
    0.3208    0.4188    0.0836 C   0  0  0  0  0  0  0  0  0  0  0  0
    1.7912    0.7298    0.0540 C   0  0  0  0  0  0  0  0  0  0  0  0
   -1.4194   -1.2998    0.2570 C   0  0  0  0  0  0  0  0  0  0  0  0
   -0.6772    1.3853   -0.0934 C   0  0  0  0  0  0  0  0  0  0  0  0
   -2.4119   -0.3246    0.0777 C   0  0  0  0  0  0  0  0  0  0  0  0
    4.0653   -0.0937   -0.3684 C   0  0  0  0  0  0  0  0  0  0  0  0
   -2.0383    1.0300   -0.0977 C   0  0  0  0  0  0  0  0  0  0  0  0
    2.3294    1.9605    0.4483 C   0  0  0  0  0  0  0  0  0  0  0  0
   -1.7705   -2.7440    0.4586 C   0  0  0  0  0  0  0  0  0  0  0  0
    4.5742    1.1407    0.0315 C   0  0  0  0  0  0  0  0  0  0  0  0
    3.7120    2.1612    0.4352 C   0  0  0  0  0  0  0  0  0  0  0  0
   -3.7737   -0.6680    0.0718 C   0  0  0  0  0  0  0  0  0  0  0  0
   -3.0403    1.9977   -0.2772 C   0  0  0  0  0  0  0  0  0  0  0  0
   -4.7546    0.3078   -0.1057 C   0  0  0  0  0  0  0  0  0  0  0  0
   -4.3884    1.6383   -0.2806 C   0  0  0  0  0  0  0  0  0  0  0  0
    1.4638   -1.8578    1.5152 H   0  0  0  0  0  0  0  0  0  0  0  0
    1.5931   -1.5025   -1.8232 H   0  0  0  0  0  0  0  0  0  0  0  0
   -0.4018    2.4270   -0.2483 H   0  0  0  0  0  0  0  0  0  0  0  0
    4.7445   -0.8775   -0.6921 H   0  0  0  0  0  0  0  0  0  0  0  0
    1.6904    2.7714    0.7874 H   0  0  0  0  0  0  0  0  0  0  0  0
   -2.3199   -3.1251   -0.4093 H   0  0  0  0  0  0  0  0  0  0  0  0
   -0.9048   -3.3992    0.5860 H   0  0  0  0  0  0  0  0  0  0  0  0
   -2.3833   -2.8631    1.3589 H   0  0  0  0  0  0  0  0  0  0  0  0
    5.6471    1.3109    0.0257 H   0  0  0  0  0  0  0  0  0  0  0  0
    4.1200    3.1189    0.7471 H   0  0  0  0  0  0  0  0  0  0  0  0
   -4.1112   -1.6927    0.2035 H   0  0  0  0  0  0  0  0  0  0  0  0
   -2.7788    3.0449   -0.4155 H   0  0  0  0  0  0  0  0  0  0  0  0
   -5.8042    0.0284   -0.1082 H   0  0  0  0  0  0  0  0  0  0  0  0
   -5.1517    2.3983   -0.4196 H   0  0  0  0  0  0  0  0  0  0  0  0
  1  2  1  0  0  0  0
  1  3  1  0  0  0  0
  2  3  1  0  0  0  0
  2  4  1  0  0  0  0
  2 21  1  0  0  0  0
  3  5  1  0  0  0  0
  3 22  1  0  0  0  0
  4  6  1  0  0  0  0
  4  8  2  0  0  0  0
  5  7  1  0  0  0  0
  5 11  2  0  0  0  0
  6  7  1  0  0  0  0
  6  9  2  0  0  0  0
  7 13  2  0  0  0  0
  8 10  1  0  0  0  0
  8 14  1  0  0  0  0
  9 12  1  0  0  0  0
  9 23  1  0  0  0  0
 10 12  1  0  0  0  0
 10 17  2  0  0  0  0
 11 15  1  0  0  0  0
 11 24  1  0  0  0  0
 12 18  2  0  0  0  0
 13 16  1  0  0  0  0
 13 25  1  0  0  0  0
 14 26  1  0  0  0  0
 14 27  1  0  0  0  0
 14 28  1  0  0  0  0
 15 16  2  0  0  0  0
 15 29  1  0  0  0  0
 16 30  1  0  0  0  0
 17 19  1  0  0  0  0
 17 31  1  0  0  0  0
 18 20  1  0  0  0  0
 18 32  1  0  0  0  0
 19 20  2  0  0  0  0
 19 33  1  0  0  0  0
 20 34  1  0  0  0  0
M  END
> <PUBCHEM_COMPOUND_CID>
14388

> <PUBCHEM_CONFORMER_RMSD>
0.6

> <PUBCHEM_CONFORMER_DIVERSEORDER>
2
1

> <PUBCHEM_MMFF94_PARTIAL_CHARGES>
27
1 -0.3
11 -0.15
13 -0.15
14 0.14
15 -0.15
16 -0.15
17 -0.15
18 -0.15
19 -0.15
2 0.08
20 -0.15
21 0.1
22 0.1
23 0.15
24 0.15
25 0.15
29 0.15
3 0.08
30 0.15
31 0.15
32 0.15
33 0.15
34 0.15
4 -0.03
5 -0.03
8 -0.14
9 -0.15

> <PUBCHEM_EFFECTIVE_ROTOR_COUNT>
0.2

> <PUBCHEM_PHARMACOPHORE_FEATURES>
5
1 1 acceptor
6 10 12 17 18 19 20 rings
6 4 6 8 9 10 12 rings
6 5 7 11 13 15 16 rings
7 1 2 3 4 5 6 7 rings

> <PUBCHEM_HEAVY_ATOM_COUNT>
20

> <PUBCHEM_ATOM_DEF_STEREO_COUNT>
0

> <PUBCHEM_ATOM_UDEF_STEREO_COUNT>
2

> <PUBCHEM_BOND_DEF_STEREO_COUNT>
0

> <PUBCHEM_BOND_UDEF_STEREO_COUNT>
0

> <PUBCHEM_ISOTOPIC_ATOM_COUNT>
0

> <PUBCHEM_COMPONENT_COUNT>
1

> <PUBCHEM_CACTVS_TAUTO_COUNT>
1

> <PUBCHEM_CONFORMER_ID>
0000383400000002

> <PUBCHEM_MMFF94_ENERGY>
103.3796

> <PUBCHEM_FEATURE_SELFOVERLAP>
25.42

> <PUBCHEM_SHAPE_FINGERPRINT>
10411042 1 16969987550519703307
10498660 4 18272093846240844301
10608611 8 18410575084700197065
10616163 171 18339079272437469903
10646746 165 18412825759538340932
10871710 139 16321179392379885132
10948715 1 18409168792201104558
10967382 1 18410855485908534584
1100329 8 17327736709183538528
11132069 177 18341896229801877440
11370993 70 18410859845295078260
11471102 20 18335702766881146820
12403259 415 18116709617578977760
12403260 363 18267033747621296308
12730499 353 18410566301892964611
13140716 1 17908976609362761193
13380535 76 18411700976096245946
13464514 151 18409163354893703616
138480 1 17834396004932001994
14790565 3 18120366812433852033
15196674 1 18411136943694807055
15219456 202 18409445881926411660
15230672 131 17179701260404352272
15375358 24 18411136922225245317
15536298 74 18336264647303269927
16945 1 18410005550593572586
18186145 218 18263921210507487765
200 152 17603867797242218929
20510252 161 18119525440633948480
20645477 56 18342173362856743661
20645477 70 18040996284184275302
21267235 1 18410283731356792871
21279426 13 18265893751753140438
221490 88 18338790229728494115
22182313 1 18266157492330487183
23227448 37 18336548209623556727
2334 1 17906729202699252186
23366157 5 17987797544025648618
23402539 116 18338806627828857733
23402655 69 18260832635121569349
23557571 272 18266447716086715734
23558518 356 17840871772158402152
23559900 14 18335140959679507806
238 59 17694820649117283349
25 1 18410577301166955532
2748010 2 18194108630103119982
3004659 81 18272080648571052870
3323516 105 18409443730147835516
335352 9 18338797918173349150
34934 24 18409733954268463567
350125 39 18198060489483475756
3545911 37 18411979178635028613
4280585 95 17537144119301376462
474 4 17988918955390785292
495365 180 17749401329912066896
5104073 3 18270677692607292097
5262128 65 17606667291227552774
543358 83 18190737737736957825
6138700 20 18337950212415931318
69090 78 18335422344134461471
7364860 26 18336547239166909654
9709674 26 18408599258047273671
9981440 41 18341056215935229410

> <PUBCHEM_SHAPE_MULTIPOLES>
405.72
8.51
2.8
0.72
1.27
1.07
-0.01
-4.13
-0.51
-0.29
0.17
-0.14
0.07
0.82

> <PUBCHEM_SHAPE_SELFOVERLAP>
925.029

> <PUBCHEM_SHAPE_VOLUME>
212.4

> <PUBCHEM_COORDINATE_TYPE>
2
5
10

$$$$

