192796
  -OEChem-07051213022D

 51 51  0     0  0  0  0  0  0999 V2000
    8.0622    5.1900    0.0000 O   0  0  0  0  0  0  0  0  0  0  0  0
    6.3301    5.1900    0.0000 O   0  0  0  0  0  0  0  0  0  0  0  0
    2.8660   -3.8100    0.0000 C   0  0  0  0  0  0  0  0  0  0  0  0
    2.0000   -4.3100    0.0000 C   0  0  0  0  0  0  0  0  0  0  0  0
    3.7320   -4.3100    0.0000 C   0  0  0  0  0  0  0  0  0  0  0  0
    2.8660   -2.8100    0.0000 C   0  0  0  0  0  0  0  0  0  0  0  0
    2.0000   -5.3100    0.0000 C   0  0  0  0  0  0  0  0  0  0  0  0
    3.7320   -5.3100    0.0000 C   0  0  0  0  0  0  0  0  0  0  0  0
    2.8660   -5.8100    0.0000 C   0  0  0  0  0  0  0  0  0  0  0  0
    3.7320   -2.3100    0.0000 C   0  0  0  0  0  0  0  0  0  0  0  0
    3.7320   -1.3100    0.0000 C   0  0  0  0  0  0  0  0  0  0  0  0
    4.5981   -0.8100    0.0000 C   0  0  0  0  0  0  0  0  0  0  0  0
    4.5981    0.1900    0.0000 C   0  0  0  0  0  0  0  0  0  0  0  0
    5.4641    0.6900    0.0000 C   0  0  0  0  0  0  0  0  0  0  0  0
    5.4641    1.6900    0.0000 C   0  0  0  0  0  0  0  0  0  0  0  0
    6.3301    2.1900    0.0000 C   0  0  0  0  0  0  0  0  0  0  0  0
    6.3301    3.1900    0.0000 C   0  0  0  0  0  0  0  0  0  0  0  0
    7.1962    3.6900    0.0000 C   0  0  0  0  0  0  0  0  0  0  0  0
    7.1962    4.6900    0.0000 C   0  0  0  0  0  0  0  0  0  0  0  0
    3.4030   -3.5000    0.0000 H   0  0  0  0  0  0  0  0  0  0  0  0
    1.7880   -3.7274    0.0000 H   0  0  0  0  0  0  0  0  0  0  0  0
    1.3894   -4.4177    0.0000 H   0  0  0  0  0  0  0  0  0  0  0  0
    4.3426   -4.4177    0.0000 H   0  0  0  0  0  0  0  0  0  0  0  0
    3.9441   -3.7274    0.0000 H   0  0  0  0  0  0  0  0  0  0  0  0
    2.6540   -2.2274    0.0000 H   0  0  0  0  0  0  0  0  0  0  0  0
    2.2554   -2.9177    0.0000 H   0  0  0  0  0  0  0  0  0  0  0  0
    1.3894   -5.2023    0.0000 H   0  0  0  0  0  0  0  0  0  0  0  0
    1.7880   -5.8926    0.0000 H   0  0  0  0  0  0  0  0  0  0  0  0
    3.9441   -5.8926    0.0000 H   0  0  0  0  0  0  0  0  0  0  0  0
    4.3426   -5.2023    0.0000 H   0  0  0  0  0  0  0  0  0  0  0  0
    2.4675   -6.2850    0.0000 H   0  0  0  0  0  0  0  0  0  0  0  0
    3.2646   -6.2850    0.0000 H   0  0  0  0  0  0  0  0  0  0  0  0
    3.9441   -2.8926    0.0000 H   0  0  0  0  0  0  0  0  0  0  0  0
    4.3426   -2.2023    0.0000 H   0  0  0  0  0  0  0  0  0  0  0  0
    3.5200   -0.7274    0.0000 H   0  0  0  0  0  0  0  0  0  0  0  0
    3.1215   -1.4177    0.0000 H   0  0  0  0  0  0  0  0  0  0  0  0
    4.8101   -1.3926    0.0000 H   0  0  0  0  0  0  0  0  0  0  0  0
    5.2087   -0.7023    0.0000 H   0  0  0  0  0  0  0  0  0  0  0  0
    4.3860    0.7726    0.0000 H   0  0  0  0  0  0  0  0  0  0  0  0
    3.9875    0.0823    0.0000 H   0  0  0  0  0  0  0  0  0  0  0  0
    5.6762    0.1074    0.0000 H   0  0  0  0  0  0  0  0  0  0  0  0
    6.0747    0.7977    0.0000 H   0  0  0  0  0  0  0  0  0  0  0  0
    5.2520    2.2726    0.0000 H   0  0  0  0  0  0  0  0  0  0  0  0
    4.8535    1.5823    0.0000 H   0  0  0  0  0  0  0  0  0  0  0  0
    6.5422    1.6074    0.0000 H   0  0  0  0  0  0  0  0  0  0  0  0
    6.9407    2.2977    0.0000 H   0  0  0  0  0  0  0  0  0  0  0  0
    6.1181    3.7726    0.0000 H   0  0  0  0  0  0  0  0  0  0  0  0
    5.7196    3.0823    0.0000 H   0  0  0  0  0  0  0  0  0  0  0  0
    7.4082    3.1074    0.0000 H   0  0  0  0  0  0  0  0  0  0  0  0
    7.8067    3.7977    0.0000 H   0  0  0  0  0  0  0  0  0  0  0  0
    8.0622    5.8100    0.0000 H   0  0  0  0  0  0  0  0  0  0  0  0
  1 19  1  0  0  0  0
  1 51  1  0  0  0  0
  2 19  2  0  0  0  0
  3  4  1  0  0  0  0
  3  5  1  0  0  0  0
  3  6  1  0  0  0  0
  3 20  1  0  0  0  0
  4  7  1  0  0  0  0
  4 21  1  0  0  0  0
  4 22  1  0  0  0  0
  5  8  1  0  0  0  0
  5 23  1  0  0  0  0
  5 24  1  0  0  0  0
  6 10  1  0  0  0  0
  6 25  1  0  0  0  0
  6 26  1  0  0  0  0
  7  9  1  0  0  0  0
  7 27  1  0  0  0  0
  7 28  1  0  0  0  0
  8  9  1  0  0  0  0
  8 29  1  0  0  0  0
  8 30  1  0  0  0  0
  9 31  1  0  0  0  0
  9 32  1  0  0  0  0
 10 11  1  0  0  0  0
 10 33  1  0  0  0  0
 10 34  1  0  0  0  0
 11 12  1  0  0  0  0
 11 35  1  0  0  0  0
 11 36  1  0  0  0  0
 12 13  1  0  0  0  0
 12 37  1  0  0  0  0
 12 38  1  0  0  0  0
 13 14  1  0  0  0  0
 13 39  1  0  0  0  0
 13 40  1  0  0  0  0
 14 15  1  0  0  0  0
 14 41  1  0  0  0  0
 14 42  1  0  0  0  0
 15 16  1  0  0  0  0
 15 43  1  0  0  0  0
 15 44  1  0  0  0  0
 16 17  1  0  0  0  0
 16 45  1  0  0  0  0
 16 46  1  0  0  0  0
 17 18  1  0  0  0  0
 17 47  1  0  0  0  0
 17 48  1  0  0  0  0
 18 19  1  0  0  0  0
 18 49  1  0  0  0  0
 18 50  1  0  0  0  0
M  END
> <PUBCHEM_COMPOUND_CID>
192796

> <PUBCHEM_COMPOUND_CANONICALIZED>
1

> <PUBCHEM_CACTVS_COMPLEXITY>
219

> <PUBCHEM_CACTVS_HBOND_ACCEPTOR>
2

> <PUBCHEM_CACTVS_HBOND_DONOR>
1

> <PUBCHEM_CACTVS_ROTATABLE_BOND>
11

> <PUBCHEM_CACTVS_SUBSKEYS>
AAADcfB4MAAAAAAAAAAAAAAAAAAAAAAAAAAwAAAAAAAAAAAAAAAAGgAACAAADQCAgAAACAAAAgAIAACQCAAAAAAAAAAAAAEAAAAAABIAAAAAQAAEAAAAAAGIyOCOAAAAAAAAAAAAAAAAAAAAAAAAAAAAAA==

> <PUBCHEM_IUPAC_OPENEYE_NAME>
11-cyclohexylundecanoic acid

> <PUBCHEM_IUPAC_CAS_NAME>
11-cyclohexylundecanoic acid

> <PUBCHEM_IUPAC_NAME>
11-cyclohexylundecanoic acid

> <PUBCHEM_IUPAC_SYSTEMATIC_NAME>
11-cyclohexylundecanoic acid

> <PUBCHEM_IUPAC_TRADITIONAL_NAME>
11-cyclohexylundecanoic acid

> <PUBCHEM_IUPAC_INCHI>
InChI=1S/C17H32O2/c18-17(19)15-11-6-4-2-1-3-5-8-12-16-13-9-7-10-14-16/h16H,1-15H2,(H,18,19)

> <PUBCHEM_IUPAC_INCHIKEY>
WFTPSUGFEZHCGU-UHFFFAOYSA-N

> <PUBCHEM_XLOGP3_AA>
7.2

> <PUBCHEM_EXACT_MASS>
268.24023

> <PUBCHEM_MOLECULAR_FORMULA>
C17H32O2

> <PUBCHEM_MOLECULAR_WEIGHT>
268.43478

> <PUBCHEM_OPENEYE_CAN_SMILES>
C1CCC(CC1)CCCCCCCCCCC(=O)O

> <PUBCHEM_OPENEYE_ISO_SMILES>
C1CCC(CC1)CCCCCCCCCCC(=O)O

> <PUBCHEM_CACTVS_TPSA>
37.3

> <PUBCHEM_MONOISOTOPIC_WEIGHT>
268.24023

> <PUBCHEM_TOTAL_CHARGE>
0

> <PUBCHEM_HEAVY_ATOM_COUNT>
19

> <PUBCHEM_ATOM_DEF_STEREO_COUNT>
0

> <PUBCHEM_ATOM_UDEF_STEREO_COUNT>
0

> <PUBCHEM_BOND_DEF_STEREO_COUNT>
0

> <PUBCHEM_BOND_UDEF_STEREO_COUNT>
0

> <PUBCHEM_ISOTOPIC_ATOM_COUNT>
0

> <PUBCHEM_COMPONENT_COUNT>
1

> <PUBCHEM_CACTVS_TAUTO_COUNT>
1

> <PUBCHEM_COORDINATE_TYPE>
1
5
255

$$$$

