5483640
  -OEChem-07051212452D

 19 19  0     1  0  0  0  0  0999 V2000
    5.0929    0.3665    0.0000 O   0  0  0  0  0  0  0  0  0  0  0  0
    2.5897   -0.5814    0.0000 O   0  0  0  0  0  0  0  0  0  0  0  0
    2.1738    1.3749    0.0000 O   0  0  0  0  0  0  0  0  0  0  0  0
    4.0051   -1.9814    0.0000 O   0  0  0  0  0  0  0  0  0  0  0  0
    6.1807   -1.9814    0.0000 O   0  0  0  0  0  0  0  0  0  0  0  0
    6.8529    0.0877    0.0000 O   0  4  0  0  0  0  0  0  0  0  0  0
    4.2839   -0.2213    0.0000 C   0  0  2  0  0  0  0  0  0  0  0  0
    3.3328    0.0877    0.0000 C   0  0  2  0  0  0  0  0  0  0  0  0
    4.5929   -1.1723    0.0000 C   0  0  0  0  0  0  0  0  0  0  0  0
    3.1249    1.0659    0.0000 C   0  0  0  0  0  0  0  0  0  0  0  0
    5.5929   -1.1723    0.0000 C   0  0  0  0  0  0  0  0  0  0  0  0
    5.9019   -0.2213    0.0000 C   0  0  0  0  0  0  0  0  0  0  0  0
    4.1587    0.5689    0.0000 H   0  0  0  0  0  0  0  0  0  0  0  0
    3.4617   -0.5187    0.0000 H   0  0  0  0  0  0  0  0  0  0  0  0
    3.7445    1.0875    0.0000 H   0  0  0  0  0  0  0  0  0  0  0  0
    3.2112    1.6799    0.0000 H   0  0  0  0  0  0  0  0  0  0  0  0
    2.0000   -0.3898    0.0000 H   0  0  0  0  0  0  0  0  0  0  0  0
    2.0449    1.9814    0.0000 H   0  0  0  0  0  0  0  0  0  0  0  0
    6.7973   -1.9165    0.0000 H   0  0  0  0  0  0  0  0  0  0  0  0
  1  7  1  0  0  0  0
  1 12  1  0  0  0  0
  8  2  1  1  0  0  0
  2 17  1  0  0  0  0
  3 10  1  0  0  0  0
  3 18  1  0  0  0  0
  4  9  2  0  0  0  0
  5 11  1  0  0  0  0
  5 19  1  0  0  0  0
  6 12  1  0  0  0  0
  7  8  1  0  0  0  0
  7  9  1  0  0  0  0
  7 13  1  6  0  0  0
  8 10  1  0  0  0  0
  8 14  1  0  0  0  0
  9 11  1  0  0  0  0
 10 15  1  0  0  0  0
 10 16  1  0  0  0  0
 11 12  2  0  0  0  0
M  RAD  1   6   2
M  END
> <PUBCHEM_COMPOUND_CID>
5483640

> <PUBCHEM_COMPOUND_CANONICALIZED>
1

> <PUBCHEM_CACTVS_COMPLEXITY>
232

> <PUBCHEM_CACTVS_HBOND_ACCEPTOR>
5

> <PUBCHEM_CACTVS_HBOND_DONOR>
3

> <PUBCHEM_CACTVS_ROTATABLE_BOND>
2

> <PUBCHEM_CACTVS_SUBSKEYS>
AAADcYBgOAAAAAAAAAAAAAAAAAAAAQAAAAAAAAAAAAAAAAAAAAAAGgAACAAACBSggAIACAAABgCIAIBQAAIACAAgIAAAAAFAAEgREBYAAAQAQAAF4AAHAADCIAAAAAAAAAAAAAAAAAAAAAAAAAAAAAAAAA==

> <PUBCHEM_IUPAC_OPENEYE_NAME>
(2R)-2-[(1S)-1,2-dihydroxyethyl]-4-hydroxy-5-$l^{1}-oxidanyl-furan-3-one

> <PUBCHEM_IUPAC_CAS_NAME>
(2R)-2-[(1S)-1,2-dihydroxyethyl]-4-hydroxy-5-$l^{1}-oxidanyl-3-furanone

> <PUBCHEM_IUPAC_NAME>
(2R)-2-[(1S)-1,2-dihydroxyethyl]-4-hydroxy-5-$l^{1}-oxidanylfuran-3-one

> <PUBCHEM_IUPAC_SYSTEMATIC_NAME>
(2R)-2-[(1S)-1,2-bis(oxidanyl)ethyl]-5-$l^{1}-oxidanyl-4-oxidanyl-furan-3-one

> <PUBCHEM_IUPAC_TRADITIONAL_NAME>
(2R)-2-[(1S)-1,2-dihydroxyethyl]-4-hydroxy-5-$l^{1}-oxidanyl-furan-3-one

> <PUBCHEM_IUPAC_INCHI>
InChI=1S/C6H7O6/c7-1-2(8)5-3(9)4(10)6(11)12-5/h2,5,7-8,10H,1H2/t2-,5+/m0/s1

> <PUBCHEM_IUPAC_INCHIKEY>
LHFJOBMTAJJOTB-JLAZNSOCSA-N

> <PUBCHEM_XLOGP3>
-1.8

> <PUBCHEM_EXACT_MASS>
175.024263

> <PUBCHEM_MOLECULAR_FORMULA>
C6H7O6

> <PUBCHEM_MOLECULAR_WEIGHT>
175.11618

> <PUBCHEM_OPENEYE_CAN_SMILES>
C(C(C1C(=O)C(=C(O1)[O])O)O)O

> <PUBCHEM_OPENEYE_ISO_SMILES>
C([C@@H]([C@@H]1C(=O)C(=C(O1)[O])O)O)O

> <PUBCHEM_CACTVS_TPSA>
88

> <PUBCHEM_MONOISOTOPIC_WEIGHT>
175.024263

> <PUBCHEM_TOTAL_CHARGE>
0

> <PUBCHEM_HEAVY_ATOM_COUNT>
12

> <PUBCHEM_ATOM_DEF_STEREO_COUNT>
2

> <PUBCHEM_ATOM_UDEF_STEREO_COUNT>
0

> <PUBCHEM_BOND_DEF_STEREO_COUNT>
0

> <PUBCHEM_BOND_UDEF_STEREO_COUNT>
0

> <PUBCHEM_ISOTOPIC_ATOM_COUNT>
0

> <PUBCHEM_COMPONENT_COUNT>
1

> <PUBCHEM_CACTVS_TAUTO_COUNT>
8

> <PUBCHEM_COORDINATE_TYPE>
1
5
255

> <PUBCHEM_BONDANNOTATIONS>
8  2  5
7  13  6

$$$$

