5281205
  -OEChem-07051212552D

 38 39  0     1  0  0  0  0  0999 V2000
    7.1391    3.0689    0.0000 O   0  0  0  0  0  0  0  0  0  0  0  0
    2.8660   -4.5189    0.0000 O   0  0  0  0  0  0  0  0  0  0  0  0
    2.0000   -3.0189    0.0000 O   0  0  0  0  0  0  0  0  0  0  0  0
    8.0622    1.4811    0.0000 O   0  0  0  0  0  0  0  0  0  0  0  0
    7.1962   -0.0189    0.0000 O   0  0  0  0  0  0  0  0  0  0  0  0
    6.3301   -4.5189    0.0000 O   0  0  0  0  0  0  0  0  0  0  0  0
    7.1962   -3.0189    0.0000 O   0  0  0  0  0  0  0  0  0  0  0  0
    5.2423    4.8289    0.0000 O   0  0  0  0  0  0  0  0  0  0  0  0
    4.5981   -3.5189    0.0000 N   0  0  0  0  0  0  0  0  0  0  0  0
    5.4641    0.9811    0.0000 N   0  0  0  0  0  0  0  0  0  0  0  0
    6.8301    4.0199    0.0000 N   0  0  0  0  0  0  0  0  0  0  0  0
    3.7320   -2.0189    0.0000 C   0  0  0  0  0  0  0  0  0  0  0  0
    3.7320   -3.0189    0.0000 C   0  0  1  0  0  0  0  0  0  0  0  0
    4.5981   -1.5189    0.0000 C   0  0  0  0  0  0  0  0  0  0  0  0
    6.3301    1.4811    0.0000 C   0  0  1  0  0  0  0  0  0  0  0  0
    5.4641   -2.0189    0.0000 C   0  0  0  0  0  0  0  0  0  0  0  0
    4.5981   -0.5189    0.0000 C   0  0  0  0  0  0  0  0  0  0  0  0
    5.4641   -3.0189    0.0000 C   0  0  0  0  0  0  0  0  0  0  0  0
    6.3301    2.4811    0.0000 C   0  0  0  0  0  0  0  0  0  0  0  0
    5.4641   -0.0189    0.0000 C   0  0  0  0  0  0  0  0  0  0  0  0
    2.8660   -3.5189    0.0000 C   0  0  0  0  0  0  0  0  0  0  0  0
    5.5211    3.0689    0.0000 C   0  0  0  0  0  0  0  0  0  0  0  0
    7.1962    0.9811    0.0000 C   0  0  0  0  0  0  0  0  0  0  0  0
    6.3301   -3.5189    0.0000 C   0  0  0  0  0  0  0  0  0  0  0  0
    5.8301    4.0199    0.0000 C   0  0  0  0  0  0  0  0  0  0  0  0
    3.5200   -1.4363    0.0000 H   0  0  0  0  0  0  0  0  0  0  0  0
    3.1215   -2.1266    0.0000 H   0  0  0  0  0  0  0  0  0  0  0  0
    3.7320   -3.6389    0.0000 H   0  0  0  0  0  0  0  0  0  0  0  0
    5.7932    1.7911    0.0000 H   0  0  0  0  0  0  0  0  0  0  0  0
    6.0010   -1.7089    0.0000 H   0  0  0  0  0  0  0  0  0  0  0  0
    4.0611   -0.2089    0.0000 H   0  0  0  0  0  0  0  0  0  0  0  0
    4.9272    1.2911    0.0000 H   0  0  0  0  0  0  0  0  0  0  0  0
    6.0010   -0.3289    0.0000 H   0  0  0  0  0  0  0  0  0  0  0  0
    4.9315    2.8773    0.0000 H   0  0  0  0  0  0  0  0  0  0  0  0
    7.1946    4.5215    0.0000 H   0  0  0  0  0  0  0  0  0  0  0  0
    2.3291   -4.8289    0.0000 H   0  0  0  0  0  0  0  0  0  0  0  0
    8.5991    1.1711    0.0000 H   0  0  0  0  0  0  0  0  0  0  0  0
    6.8671   -4.8289    0.0000 H   0  0  0  0  0  0  0  0  0  0  0  0
  1 11  1  0  0  0  0
  1 19  1  0  0  0  0
  2 21  1  0  0  0  0
  2 36  1  0  0  0  0
  3 21  2  0  0  0  0
  4 23  1  0  0  0  0
  4 37  1  0  0  0  0
  5 23  2  0  0  0  0
  6 24  1  0  0  0  0
  6 38  1  0  0  0  0
  7 24  2  0  0  0  0
  8 25  2  0  0  0  0
  9 13  1  0  0  0  0
  9 18  2  0  0  0  0
 15 10  1  1  0  0  0
 10 20  1  0  0  0  0
 10 32  1  0  0  0  0
 11 25  1  0  0  0  0
 11 35  1  0  0  0  0
 12 13  1  0  0  0  0
 12 14  1  0  0  0  0
 12 26  1  0  0  0  0
 12 27  1  0  0  0  0
 13 21  1  6  0  0  0
 13 28  1  0  0  0  0
 14 16  2  0  0  0  0
 14 17  1  0  0  0  0
 15 19  1  0  0  0  0
 15 23  1  0  0  0  0
 15 29  1  0  0  0  0
 16 18  1  0  0  0  0
 16 30  1  0  0  0  0
 17 20  2  0  0  0  0
 17 31  1  0  0  0  0
 18 24  1  0  0  0  0
 19 22  2  0  0  0  0
 20 33  1  0  0  0  0
 22 25  1  0  0  0  0
 22 34  1  0  0  0  0
M  END
> <PUBCHEM_COMPOUND_CID>
5281205

> <PUBCHEM_COMPOUND_CANONICALIZED>
1

> <PUBCHEM_CACTVS_COMPLEXITY>
749

> <PUBCHEM_CACTVS_HBOND_ACCEPTOR>
10

> <PUBCHEM_CACTVS_HBOND_DONOR>
5

> <PUBCHEM_CACTVS_ROTATABLE_BOND>
7

> <PUBCHEM_CACTVS_SUBSKEYS>
AAADccBzPAAAAAAAAAAAAAAAAAAAAQAAAAAgAAAAAAAAAAAAAAAAHgAUCAAADCzBgAQACALQAgCoAyH2XASAAAAgIgAoCIGYAFgKABYAgSAAQAAF8AAYgQKIAAAAAAAAAAAAAAAAAAAAAAAAAAAAAAAAAA==

> <PUBCHEM_IUPAC_OPENEYE_NAME>
(2S)-4-[(E)-2-[[(S)-carboxy-(3-oxoisoxazol-5-yl)methyl]amino]vinyl]-2,3-dihydropyridine-2,6-dicarboxylic acid

> <PUBCHEM_IUPAC_CAS_NAME>
(2S)-4-[(E)-2-[[(S)-carboxy-(3-oxo-5-isoxazolyl)methyl]amino]ethenyl]-2,3-dihydropyridine-2,6-dicarboxylic acid

> <PUBCHEM_IUPAC_NAME>
(2S)-4-[(E)-2-[[(S)-carboxy-(3-oxo-1,2-oxazol-5-yl)methyl]amino]ethenyl]-2,3-dihydropyridine-2,6-dicarboxylic acid

> <PUBCHEM_IUPAC_SYSTEMATIC_NAME>
(2S)-4-[(E)-2-[[(1S)-2-oxidanyl-2-oxidanylidene-1-(3-oxidanylidene-1,2-oxazol-5-yl)ethyl]amino]ethenyl]-2,3-dihydropyridine-2,6-dicarboxylic acid

> <PUBCHEM_IUPAC_TRADITIONAL_NAME>
(2S)-4-[(E)-2-[[(S)-carboxy-(3-keto-4-isoxazolin-5-yl)methyl]amino]vinyl]-2,3-dihydropyridine-2,6-dicarboxylic acid

> <PUBCHEM_IUPAC_INCHI>
InChI=1S/C14H13N3O8/c18-10-5-9(25-17-10)11(14(23)24)15-2-1-6-3-7(12(19)20)16-8(4-6)13(21)22/h1-3,5,8,11,15H,4H2,(H,17,18)(H,19,20)(H,21,22)(H,23,24)/b2-1+/t8-,11-/m0/s1

> <PUBCHEM_IUPAC_INCHIKEY>
FMPYGTODIPYQRC-FJBMXLOBSA-N

> <PUBCHEM_XLOGP3_AA>
-1

> <PUBCHEM_EXACT_MASS>
351.070264

> <PUBCHEM_MOLECULAR_FORMULA>
C14H13N3O8

> <PUBCHEM_MOLECULAR_WEIGHT>
351.26832

> <PUBCHEM_OPENEYE_CAN_SMILES>
C1C(N=C(C=C1C=CNC(C2=CC(=O)NO2)C(=O)O)C(=O)O)C(=O)O

> <PUBCHEM_OPENEYE_ISO_SMILES>
C1[C@H](N=C(C=C1/C=C/N[C@@H](C2=CC(=O)NO2)C(=O)O)C(=O)O)C(=O)O

> <PUBCHEM_CACTVS_TPSA>
175

> <PUBCHEM_MONOISOTOPIC_WEIGHT>
351.070264

> <PUBCHEM_TOTAL_CHARGE>
0

> <PUBCHEM_HEAVY_ATOM_COUNT>
25

> <PUBCHEM_ATOM_DEF_STEREO_COUNT>
2

> <PUBCHEM_ATOM_UDEF_STEREO_COUNT>
0

> <PUBCHEM_BOND_DEF_STEREO_COUNT>
1

> <PUBCHEM_BOND_UDEF_STEREO_COUNT>
0

> <PUBCHEM_ISOTOPIC_ATOM_COUNT>
0

> <PUBCHEM_COMPONENT_COUNT>
1

> <PUBCHEM_CACTVS_TAUTO_COUNT>
6

> <PUBCHEM_COORDINATE_TYPE>
1
5
255

> <PUBCHEM_BONDANNOTATIONS>
1  11  8
1  19  8
15  10  5
11  25  8
13  21  6
19  22  8
22  25  8

$$$$

