255697
  -OEChem-07051213063D

 50 53  0     1  0  0  0  0  0999 V2000
   -4.8526   -1.1628   -0.5311 O   0  0  0  0  0  0  0  0  0  0  0  0
    4.6836   -0.3473   -1.9741 O   0  0  0  0  0  0  0  0  0  0  0  0
   -0.4264    0.8346    0.4630 C   0  0  1  0  0  0  0  0  0  0  0  0
   -1.6988    0.6674   -0.3697 C   0  0  1  0  0  0  0  0  0  0  0  0
    0.4706   -0.4242    0.2640 C   0  0  1  0  0  0  0  0  0  0  0  0
   -2.5168   -0.5714    0.0456 C   0  0  2  0  0  0  0  0  0  0  0  0
    1.7573   -0.2975    1.1305 C   0  0  2  0  0  0  0  0  0  0  0  0
   -0.3086   -1.7367    0.5307 C   0  0  0  0  0  0  0  0  0  0  0  0
   -1.6570   -1.8159   -0.2077 C   0  0  0  0  0  0  0  0  0  0  0  0
    2.5296    1.0081    0.8111 C   0  0  2  0  0  0  0  0  0  0  0  0
    0.3376    2.1110    0.0926 C   0  0  0  0  0  0  0  0  0  0  0  0
   -2.7337    1.7891   -0.3840 C   0  0  0  0  0  0  0  0  0  0  0  0
   -3.7167   -0.4088   -0.9082 C   0  0  2  0  0  0  0  0  0  0  0  0
    1.6215    2.2407    0.9069 C   0  0  0  0  0  0  0  0  0  0  0  0
   -4.0220    1.1009   -0.8708 C   0  0  0  0  0  0  0  0  0  0  0  0
    2.7189   -1.4961    1.0211 C   0  0  0  0  0  0  0  0  0  0  0  0
   -2.9962   -0.5682    1.5194 C   0  0  0  0  0  0  0  0  0  0  0  0
    3.2421    0.9366   -0.5513 C   0  0  0  0  0  0  0  0  0  0  0  0
    3.4112   -1.5767   -0.3347 C   0  0  0  0  0  0  0  0  0  0  0  0
    4.1563   -0.2830   -0.6532 C   0  0  1  0  0  0  0  0  0  0  0  0
   -0.6932    0.9159    1.5241 H   0  0  0  0  0  0  0  0  0  0  0  0
   -1.3771    0.5382   -1.4170 H   0  0  0  0  0  0  0  0  0  0  0  0
    0.7638   -0.4544   -0.7942 H   0  0  0  0  0  0  0  0  0  0  0  0
    1.4351   -0.2447    2.1806 H   0  0  0  0  0  0  0  0  0  0  0  0
   -0.4670   -1.8592    1.6083 H   0  0  0  0  0  0  0  0  0  0  0  0
    0.2896   -2.5960    0.2073 H   0  0  0  0  0  0  0  0  0  0  0  0
   -1.4574   -1.9207   -1.2822 H   0  0  0  0  0  0  0  0  0  0  0  0
   -2.1910   -2.7244    0.0957 H   0  0  0  0  0  0  0  0  0  0  0  0
    3.3121    1.1283    1.5742 H   0  0  0  0  0  0  0  0  0  0  0  0
   -0.2865    2.9919    0.2835 H   0  0  0  0  0  0  0  0  0  0  0  0
    0.5690    2.1183   -0.9790 H   0  0  0  0  0  0  0  0  0  0  0  0
   -2.4432    2.6070   -1.0514 H   0  0  0  0  0  0  0  0  0  0  0  0
   -2.8811    2.2129    0.6155 H   0  0  0  0  0  0  0  0  0  0  0  0
   -3.4400   -0.7022   -1.9288 H   0  0  0  0  0  0  0  0  0  0  0  0
    2.1664    3.1386    0.5921 H   0  0  0  0  0  0  0  0  0  0  0  0
    1.3530    2.3965    1.9600 H   0  0  0  0  0  0  0  0  0  0  0  0
   -4.8625    1.3373   -0.2086 H   0  0  0  0  0  0  0  0  0  0  0  0
   -4.2971    1.4527   -1.8714 H   0  0  0  0  0  0  0  0  0  0  0  0
    2.2073   -2.4390    1.2366 H   0  0  0  0  0  0  0  0  0  0  0  0
    3.4884   -1.3962    1.7986 H   0  0  0  0  0  0  0  0  0  0  0  0
   -2.1693   -0.5357    2.2336 H   0  0  0  0  0  0  0  0  0  0  0  0
   -3.6457    0.2831    1.7461 H   0  0  0  0  0  0  0  0  0  0  0  0
   -3.5690   -1.4767    1.7394 H   0  0  0  0  0  0  0  0  0  0  0  0
    2.5225    0.9200   -1.3786 H   0  0  0  0  0  0  0  0  0  0  0  0
    3.8389    1.8441   -0.7101 H   0  0  0  0  0  0  0  0  0  0  0  0
    4.1171   -2.4163   -0.3414 H   0  0  0  0  0  0  0  0  0  0  0  0
    2.6858   -1.7993   -1.1265 H   0  0  0  0  0  0  0  0  0  0  0  0
    5.0006   -0.1611    0.0361 H   0  0  0  0  0  0  0  0  0  0  0  0
   -5.5726   -0.9332   -1.1430 H   0  0  0  0  0  0  0  0  0  0  0  0
    5.2672   -1.1237   -2.0191 H   0  0  0  0  0  0  0  0  0  0  0  0
  1 13  1  0  0  0  0
  1 49  1  0  0  0  0
  2 20  1  0  0  0  0
  2 50  1  0  0  0  0
  3  4  1  0  0  0  0
  3  5  1  0  0  0  0
  3 11  1  0  0  0  0
  3 21  1  0  0  0  0
  4  6  1  0  0  0  0
  4 12  1  0  0  0  0
  4 22  1  0  0  0  0
  5  7  1  0  0  0  0
  5  8  1  0  0  0  0
  5 23  1  0  0  0  0
  6  9  1  0  0  0  0
  6 13  1  0  0  0  0
  6 17  1  0  0  0  0
  7 10  1  0  0  0  0
  7 16  1  0  0  0  0
  7 24  1  0  0  0  0
  8  9  1  0  0  0  0
  8 25  1  0  0  0  0
  8 26  1  0  0  0  0
  9 27  1  0  0  0  0
  9 28  1  0  0  0  0
 10 14  1  0  0  0  0
 10 18  1  0  0  0  0
 10 29  1  0  0  0  0
 11 14  1  0  0  0  0
 11 30  1  0  0  0  0
 11 31  1  0  0  0  0
 12 15  1  0  0  0  0
 12 32  1  0  0  0  0
 12 33  1  0  0  0  0
 13 15  1  0  0  0  0
 13 34  1  0  0  0  0
 14 35  1  0  0  0  0
 14 36  1  0  0  0  0
 15 37  1  0  0  0  0
 15 38  1  0  0  0  0
 16 19  1  0  0  0  0
 16 39  1  0  0  0  0
 16 40  1  0  0  0  0
 17 41  1  0  0  0  0
 17 42  1  0  0  0  0
 17 43  1  0  0  0  0
 18 20  1  0  0  0  0
 18 44  1  0  0  0  0
 18 45  1  0  0  0  0
 19 20  1  0  0  0  0
 19 46  1  0  0  0  0
 19 47  1  0  0  0  0
 20 48  1  0  0  0  0
M  END
> <PUBCHEM_COMPOUND_CID>
255697

> <PUBCHEM_CONFORMER_RMSD>
0.6

> <PUBCHEM_CONFORMER_DIVERSEORDER>
1
2

> <PUBCHEM_MMFF94_PARTIAL_CHARGES>
6
1 -0.68
13 0.28
2 -0.68
20 0.28
49 0.4
50 0.4

> <PUBCHEM_EFFECTIVE_ROTOR_COUNT>
2.2

> <PUBCHEM_PHARMACOPHORE_FEATURES>
8
1 1 acceptor
1 1 donor
1 2 acceptor
1 2 donor
5 4 6 12 13 15 rings
6 3 4 5 6 8 9 rings
6 3 5 7 10 11 14 rings
6 7 10 16 18 19 20 rings

> <PUBCHEM_HEAVY_ATOM_COUNT>
20

> <PUBCHEM_ATOM_DEF_STEREO_COUNT>
8

> <PUBCHEM_ATOM_UDEF_STEREO_COUNT>
0

> <PUBCHEM_BOND_DEF_STEREO_COUNT>
0

> <PUBCHEM_BOND_UDEF_STEREO_COUNT>
0

> <PUBCHEM_ISOTOPIC_ATOM_COUNT>
0

> <PUBCHEM_COMPONENT_COUNT>
1

> <PUBCHEM_CACTVS_TAUTO_COUNT>
1

> <PUBCHEM_CONFORMER_ID>
0003E6D100000001

> <PUBCHEM_MMFF94_ENERGY>
61.7105

> <PUBCHEM_FEATURE_SELFOVERLAP>
40.724

> <PUBCHEM_SHAPE_FINGERPRINT>
10366900 7 18059855030778870467
10465860 71 18334009510516338516
10498660 4 17846508053351095477
10759866 29 17917990628915025562
10967382 1 18339936900297361129
11543360 7 16702297957764080618
12553582 1 18334286600331336226
12596599 1 17894349968828343543
12707595 3 18186804686181869616
12788726 201 18046341100697275800
13140716 1 18267316502176833201
13221675 6 18411984624252471050
13224815 77 18131917052516435225
13296908 3 18410299107302679009
13533116 47 17604430670339604459
13675066 3 5473140725884925183
14289901 80 14117528626992526481
14790565 3 17759798539271652361
15163728 17 16198489734906994879
15196674 1 18411709798127799025
15536298 74 18261403208299043225
15635459 17 18334294258215976198
15848702 151 17603296072654651559
16752209 62 18263932201028157016
16945 1 18268999691190832601
17041 50 18334012774654534176
17349148 13 16950564359454313303
17804303 29 18409452488013569237
1813 80 14635132544248826528
18186145 218 18260269642023069009
19862831 5 18410293631240514416
200 152 17385724694496523202
20645476 183 17775281651385795451
20645477 70 18186805738327602996
20871999 31 18412537730325342766
21069387 34 15647057061979439854
21267235 1 18411136939416021450
21637258 2 15936684978341320830
21756936 100 11742679147914712230
221357 26 18408609162658310317
2334 1 18412834581132226321
23402539 116 18336833099621526390
23493267 7 17561080315100374953
23559900 14 18261403217126627504
2748010 2 18340500983964061929
2838139 119 15984243129808906950
296302 2 13183019609584899333
3004659 81 18200314458989186698
3060560 45 18186526492655333366
3323516 105 18410015420370201589
335352 9 18194414500731345149
4280585 95 17400072467290770798
474 4 15840975686224626358
4990 188 18333452049319995094
5104073 3 18411147939417916129
633830 44 18261968392041783373
7364860 26 18116158774906274808
74978 22 18334862675367229859
9709674 26 18265342702821896947

> <PUBCHEM_SHAPE_MULTIPOLES>
399.85
8.35
2.16
1.24
0.45
0.43
0.06
-1.33
3.34
-0.08
-0.25
-0.59
-0.08
0.42

> <PUBCHEM_SHAPE_SELFOVERLAP>
847.488

> <PUBCHEM_SHAPE_VOLUME>
221.1

> <PUBCHEM_COORDINATE_TYPE>
2
5
10

$$$$

