47205448
  -OEChem-06241222583D

 44 45  0     0  0  0  0  0  0999 V2000
   -3.9349    1.3577    0.2035 S   0  0  0  0  0  0  0  0  0  0  0  0
   -4.7381    1.8424    1.3085 O   0  0  0  0  0  0  0  0  0  0  0  0
   -3.9182    2.0514   -1.0694 O   0  0  0  0  0  0  0  0  0  0  0  0
   -0.1590   -3.0298    0.8984 O   0  0  0  0  0  0  0  0  0  0  0  0
   -1.9895   -1.0497   -0.2804 N   0  0  0  0  0  0  0  0  0  0  0  0
    1.2921   -1.9435   -0.5536 N   0  0  0  0  0  0  0  0  0  0  0  0
   -1.4367    0.3107   -0.1633 C   0  0  0  0  0  0  0  0  0  0  0  0
   -3.3121   -1.0509   -0.9290 C   0  0  0  0  0  0  0  0  0  0  0  0
   -2.2600    1.1885    0.7718 C   0  0  0  0  0  0  0  0  0  0  0  0
   -4.3668   -0.3408   -0.0886 C   0  0  0  0  0  0  0  0  0  0  0  0
   -1.0645   -1.8995   -1.0349 C   0  0  0  0  0  0  0  0  0  0  0  0
    4.1901    0.2254   -0.4962 C   0  0  0  0  0  0  0  0  0  0  0  0
    3.1389    0.1374    0.5823 C   0  0  0  0  0  0  0  0  0  0  0  0
    4.6119    1.6601   -0.8250 C   0  0  0  0  0  0  0  0  0  0  0  0
    3.4036    2.5849   -0.9098 C   0  0  0  0  0  0  0  0  0  0  0  0
    2.9088   -1.2226    1.1719 C   0  0  0  0  0  0  0  0  0  0  0  0
    2.6192    2.5853    0.4026 C   0  0  0  0  0  0  0  0  0  0  0  0
    2.4469    1.2156    0.9898 C   0  0  0  0  0  0  0  0  0  0  0  0
    2.5240   -2.2674    0.1297 C   0  0  0  0  0  0  0  0  0  0  0  0
    0.0442   -2.3551   -0.1085 C   0  0  0  0  0  0  0  0  0  0  0  0
   -1.3593    0.7836   -1.1511 H   0  0  0  0  0  0  0  0  0  0  0  0
   -3.2525   -0.5973   -1.9268 H   0  0  0  0  0  0  0  0  0  0  0  0
   -3.6545   -2.0844   -1.0648 H   0  0  0  0  0  0  0  0  0  0  0  0
   -0.4237    0.2706    0.2519 H   0  0  0  0  0  0  0  0  0  0  0  0
   -2.2957    0.7639    1.7808 H   0  0  0  0  0  0  0  0  0  0  0  0
   -1.8351    2.1950    0.8351 H   0  0  0  0  0  0  0  0  0  0  0  0
   -5.3369   -0.3467   -0.5949 H   0  0  0  0  0  0  0  0  0  0  0  0
   -4.4829   -0.8232    0.8878 H   0  0  0  0  0  0  0  0  0  0  0  0
   -1.5550   -2.8249   -1.3648 H   0  0  0  0  0  0  0  0  0  0  0  0
   -0.6876   -1.4050   -1.9379 H   0  0  0  0  0  0  0  0  0  0  0  0
    3.8017   -0.2392   -1.4105 H   0  0  0  0  0  0  0  0  0  0  0  0
    5.0824   -0.3379   -0.1982 H   0  0  0  0  0  0  0  0  0  0  0  0
    5.2973    2.0274   -0.0504 H   0  0  0  0  0  0  0  0  0  0  0  0
    5.1650    1.6744   -1.7710 H   0  0  0  0  0  0  0  0  0  0  0  0
    2.7506    2.2556   -1.7282 H   0  0  0  0  0  0  0  0  0  0  0  0
    3.7240    3.6050   -1.1492 H   0  0  0  0  0  0  0  0  0  0  0  0
    3.8258   -1.5463    1.6796 H   0  0  0  0  0  0  0  0  0  0  0  0
    2.1287   -1.1814    1.9430 H   0  0  0  0  0  0  0  0  0  0  0  0
    1.6335    3.0315    0.2277 H   0  0  0  0  0  0  0  0  0  0  0  0
    3.1305    3.2153    1.1401 H   0  0  0  0  0  0  0  0  0  0  0  0
    1.7101    1.1186    1.7830 H   0  0  0  0  0  0  0  0  0  0  0  0
    2.4036   -3.2384    0.6238 H   0  0  0  0  0  0  0  0  0  0  0  0
    3.3010   -2.3893   -0.6319 H   0  0  0  0  0  0  0  0  0  0  0  0
    1.3622   -1.3794   -1.3951 H   0  0  0  0  0  0  0  0  0  0  0  0
  1  2  2  0  0  0  0
  1  3  2  0  0  0  0
  1  9  1  0  0  0  0
  1 10  1  0  0  0  0
  4 20  2  0  0  0  0
  5  7  1  0  0  0  0
  5  8  1  0  0  0  0
  5 11  1  0  0  0  0
  6 19  1  0  0  0  0
  6 20  1  0  0  0  0
  6 44  1  0  0  0  0
  7  9  1  0  0  0  0
  7 21  1  0  0  0  0
  7 24  1  0  0  0  0
  8 10  1  0  0  0  0
  8 22  1  0  0  0  0
  8 23  1  0  0  0  0
  9 25  1  0  0  0  0
  9 26  1  0  0  0  0
 10 27  1  0  0  0  0
 10 28  1  0  0  0  0
 11 20  1  0  0  0  0
 11 29  1  0  0  0  0
 11 30  1  0  0  0  0
 12 13  1  0  0  0  0
 12 14  1  0  0  0  0
 12 31  1  0  0  0  0
 12 32  1  0  0  0  0
 13 16  1  0  0  0  0
 13 18  2  0  0  0  0
 14 15  1  0  0  0  0
 14 33  1  0  0  0  0
 14 34  1  0  0  0  0
 15 17  1  0  0  0  0
 15 35  1  0  0  0  0
 15 36  1  0  0  0  0
 16 19  1  0  0  0  0
 16 37  1  0  0  0  0
 16 38  1  0  0  0  0
 17 18  1  0  0  0  0
 17 39  1  0  0  0  0
 17 40  1  0  0  0  0
 18 41  1  0  0  0  0
 19 42  1  0  0  0  0
 19 43  1  0  0  0  0
M  END
> <PUBCHEM_COMPOUND_CID>
47205448

> <PUBCHEM_CONFORMER_RMSD>
0.8

> <PUBCHEM_CONFORMER_DIVERSEORDER>
1
12
114
75
160
153
10
150
104
122
169
100
134
50
140
99
61
45
154
91
73
97
78
81
159
39
145
19
51
58
123
121
136
176
17
105
152
37
31
135
132
46
55
68
107
175
79
111
44
87
56
149
62
127
83
42
67
164
133
86
77
124
60
144
26
2
93
109
113
166
65
21
71
53
161
5
112
119
59
146
142
95
4
131
98
156
72
25
18
54
168
177
139
23
33
15
80
118
66
120
76
29
8
69
103
16
173
115
125
108
38
14
117
40
171
57
116
147
32
172
138
3
129
74
157
35
13
130
43
41
63
48
92
148
128
126
102
89
143
101
34
162
163
170
96
165
82
84
27
49
85
22
110
90
94
20
64
6
7
151
24
158
9
30
36
88
141
47
174
155
28
70
137
106
52
11
167

> <PUBCHEM_MMFF94_PARTIAL_CHARGES>
20
1 1.09
10 0.11
11 0.33
12 0.14
13 -0.28
16 0.14
17 0.14
18 -0.29
19 0.3
2 -0.65
20 0.57
3 -0.65
4 -0.57
41 0.15
44 0.37
5 -0.81
6 -0.73
7 0.27
8 0.27
9 0.11

> <PUBCHEM_EFFECTIVE_ROTOR_COUNT>
7.8

> <PUBCHEM_PHARMACOPHORE_FEATURES>
7
1 2 acceptor
1 3 acceptor
1 4 acceptor
1 5 cation
1 6 donor
6 1 5 7 8 9 10 rings
6 12 13 14 15 17 18 rings

> <PUBCHEM_HEAVY_ATOM_COUNT>
20

> <PUBCHEM_ATOM_DEF_STEREO_COUNT>
0

> <PUBCHEM_ATOM_UDEF_STEREO_COUNT>
0

> <PUBCHEM_BOND_DEF_STEREO_COUNT>
0

> <PUBCHEM_BOND_UDEF_STEREO_COUNT>
0

> <PUBCHEM_ISOTOPIC_ATOM_COUNT>
0

> <PUBCHEM_COMPONENT_COUNT>
1

> <PUBCHEM_CACTVS_TAUTO_COUNT>
2

> <PUBCHEM_CONFORMER_ID>
02D04C4800000001

> <PUBCHEM_MMFF94_ENERGY>
13.6938

> <PUBCHEM_FEATURE_SELFOVERLAP>
35.537

> <PUBCHEM_SHAPE_FINGERPRINT>
10382601 240 17846505811995026500
10498660 4 18334014977730358792
10670039 82 18338516314263295172
10681291 71 18410564072588575560
11615756 256 18409732841597614239
12633257 1 18059308620733975938
12788726 201 17909280078472395202
13583140 156 17701544145941982451
13828863 39 14259358897452728518
14123255 52 18340486664748656364
14251764 75 18196638619233706108
14787075 74 18197224637867820351
151778 21 18341891900638555308
15342168 16 18342174470821006943
15342816 4 10015575147061997986
17834072 32 18410570673937556648
20465049 17 18338216246415169374
21475661 188 17914343617549481693
21864079 5 18337114471060170334
22182937 141 18268425741868552402
23227448 37 18337115652571764015
23559900 14 17823135811888970311
2637199 183 18411130308545406222
44154327 71 18411416232760231748
474 4 18412547638767733675
5048184 11 18339078194506290528
633830 44 18410012182165924959
7808743 9 18197495126233161924

> <PUBCHEM_SHAPE_MULTIPOLES>
387.87
9.93
3.46
1.14
3.06
0.65
0.06
-6.6
-0.6
-0.99
0.01
-0.03
-0.15
-1.27

> <PUBCHEM_SHAPE_SELFOVERLAP>
765.872

> <PUBCHEM_SHAPE_VOLUME>
230.5

> <PUBCHEM_COORDINATE_TYPE>
2
5
10

$$$$

