13534
  -OEChem-06241222393D

 29 28  0     1  0  0  0  0  0999 V2000
    0.1550    0.8284    0.3750 C   0  0  1  0  0  0  0  0  0  0  0  0
   -0.8592   -0.2865   -0.0299 C   0  0  1  0  0  0  0  0  0  0  0  0
    1.6096    0.5639   -0.0816 C   0  0  0  0  0  0  0  0  0  0  0  0
   -2.2391   -0.0495    0.6269 C   0  0  0  0  0  0  0  0  0  0  0  0
   -0.2621    2.2266   -0.1042 C   0  0  0  0  0  0  0  0  0  0  0  0
   -0.9929   -0.4544   -1.5483 C   0  0  0  0  0  0  0  0  0  0  0  0
    2.1877   -0.7641    0.4119 C   0  0  0  0  0  0  0  0  0  0  0  0
   -3.2490   -1.1517    0.3323 C   0  0  0  0  0  0  0  0  0  0  0  0
    3.6499   -0.9126    0.0179 C   0  0  0  0  0  0  0  0  0  0  0  0
    0.1724    0.8626    1.4736 H   0  0  0  0  0  0  0  0  0  0  0  0
   -0.4896   -1.2383    0.3709 H   0  0  0  0  0  0  0  0  0  0  0  0
    1.6797    0.6116   -1.1748 H   0  0  0  0  0  0  0  0  0  0  0  0
    2.2439    1.3771    0.2963 H   0  0  0  0  0  0  0  0  0  0  0  0
   -2.1102    0.0251    1.7136 H   0  0  0  0  0  0  0  0  0  0  0  0
   -2.6736    0.8974    0.2895 H   0  0  0  0  0  0  0  0  0  0  0  0
   -0.3138    2.2817   -1.1959 H   0  0  0  0  0  0  0  0  0  0  0  0
   -1.2314    2.5251    0.3036 H   0  0  0  0  0  0  0  0  0  0  0  0
    0.4634    2.9776    0.2286 H   0  0  0  0  0  0  0  0  0  0  0  0
   -1.5629   -1.3553   -1.7970 H   0  0  0  0  0  0  0  0  0  0  0  0
   -0.0175   -0.5680   -2.0294 H   0  0  0  0  0  0  0  0  0  0  0  0
   -1.5022    0.4000   -2.0051 H   0  0  0  0  0  0  0  0  0  0  0  0
    1.6342   -1.6063   -0.0155 H   0  0  0  0  0  0  0  0  0  0  0  0
    2.0983   -0.8286    1.5022 H   0  0  0  0  0  0  0  0  0  0  0  0
   -2.8413   -2.1370    0.5786 H   0  0  0  0  0  0  0  0  0  0  0  0
   -3.5550   -1.1505   -0.7179 H   0  0  0  0  0  0  0  0  0  0  0  0
   -4.1513   -1.0001    0.9339 H   0  0  0  0  0  0  0  0  0  0  0  0
    4.2571   -0.1126    0.4533 H   0  0  0  0  0  0  0  0  0  0  0  0
    4.0432   -1.8696    0.3750 H   0  0  0  0  0  0  0  0  0  0  0  0
    3.7681   -0.8812   -1.0700 H   0  0  0  0  0  0  0  0  0  0  0  0
  1  2  1  0  0  0  0
  1  3  1  0  0  0  0
  1  5  1  0  0  0  0
  1 10  1  0  0  0  0
  2  4  1  0  0  0  0
  2  6  1  0  0  0  0
  2 11  1  0  0  0  0
  3  7  1  0  0  0  0
  3 12  1  0  0  0  0
  3 13  1  0  0  0  0
  4  8  1  0  0  0  0
  4 14  1  0  0  0  0
  4 15  1  0  0  0  0
  5 16  1  0  0  0  0
  5 17  1  0  0  0  0
  5 18  1  0  0  0  0
  6 19  1  0  0  0  0
  6 20  1  0  0  0  0
  6 21  1  0  0  0  0
  7  9  1  0  0  0  0
  7 22  1  0  0  0  0
  7 23  1  0  0  0  0
  8 24  1  0  0  0  0
  8 25  1  0  0  0  0
  8 26  1  0  0  0  0
  9 27  1  0  0  0  0
  9 28  1  0  0  0  0
  9 29  1  0  0  0  0
M  END
> <PUBCHEM_COMPOUND_CID>
13534

> <PUBCHEM_CONFORMER_RMSD>
0.6

> <PUBCHEM_CONFORMER_DIVERSEORDER>
1
31
41
26
23
13
34
11
12
54
24
43
48
8
46
16
50
15
38
49
32
21
51
17
3
45
27
39
53
42
10
36
9
47
37
35
44
14
25
18
29
52
33
40
28
22
19
2
7
5
20
6
30
4

> <PUBCHEM_MMFF94_PARTIAL_CHARGES>
0

> <PUBCHEM_EFFECTIVE_ROTOR_COUNT>
4

> <PUBCHEM_PHARMACOPHORE_FEATURES>
5
1 5 hydrophobe
1 6 hydrophobe
1 8 hydrophobe
1 9 hydrophobe
5 1 2 3 4 7 hydrophobe

> <PUBCHEM_HEAVY_ATOM_COUNT>
9

> <PUBCHEM_ATOM_DEF_STEREO_COUNT>
0

> <PUBCHEM_ATOM_UDEF_STEREO_COUNT>
2

> <PUBCHEM_BOND_DEF_STEREO_COUNT>
0

> <PUBCHEM_BOND_UDEF_STEREO_COUNT>
0

> <PUBCHEM_ISOTOPIC_ATOM_COUNT>
0

> <PUBCHEM_COMPONENT_COUNT>
1

> <PUBCHEM_CACTVS_TAUTO_COUNT>
1

> <PUBCHEM_CONFORMER_ID>
000034DE00000001

> <PUBCHEM_MMFF94_ENERGY>
8.5848

> <PUBCHEM_FEATURE_SELFOVERLAP>
25.517

> <PUBCHEM_SHAPE_FINGERPRINT>
12897270 3 15123790673616870018
12932764 1 17750249130929118818
20201158 50 17988923374996808458
20711978 78 18053957155707189533
20711985 344 18056779820861886016
20871998 184 18114747160752531884
20871998 22 18261944241240120238
21028194 46 10015578424169056024
21293036 1 12607398875770483907
23211744 25 11167368432658776265
23211744 41 5183804219882503345
23552423 10 18130784577209971000
29004967 10 18270685263959517952
528862 383 18194681458249129092

> <PUBCHEM_SHAPE_MULTIPOLES>
185.22
4.85
1.62
0.98
1.79
0.99
-0.37
-3.03
0.79
-0.11
0.01
-0.36
-0.14
-0.01

> <PUBCHEM_SHAPE_SELFOVERLAP>
326.459

> <PUBCHEM_SHAPE_VOLUME>
123.9

> <PUBCHEM_COORDINATE_TYPE>
2
5
10

$$$$

