91531
  -OEChem-07051212513D

 35 37  0     1  0  0  0  0  0999 V2000
   -4.4635   -1.5403    0.1365 P   0  0  0  0  0  0  0  0  0  0  0  0
   -1.0035    0.9006    0.9257 O   0  0  0  0  0  0  0  0  0  0  0  0
   -1.3056    3.8513    0.0695 O   0  0  0  0  0  0  0  0  0  0  0  0
   -3.4898   -0.3407    0.6209 O   0  0  0  0  0  0  0  0  0  0  0  0
   -3.6376   -2.2444   -1.0623 O   0  0  0  0  0  0  0  0  0  0  0  0
   -5.6464   -0.7554   -0.6378 O   0  0  0  0  0  0  0  0  0  0  0  0
    4.6963   -2.5175   -0.3122 O   0  0  0  0  0  0  0  0  0  0  0  0
   -4.9231   -2.4629    1.2273 O   0  0  0  0  0  0  0  0  0  0  0  0
    1.1155    0.2239    0.1013 N   0  0  0  0  0  0  0  0  0  0  0  0
    3.3113    1.2480    0.3443 N   0  0  0  0  0  0  0  0  0  0  0  0
    1.8151   -1.8801   -0.2677 N   0  0  0  0  0  0  0  0  0  0  0  0
    5.1562   -0.2828    0.1096 N   0  0  0  0  0  0  0  0  0  0  0  0
    0.2029    1.3468    0.2825 C   0  0  1  0  0  0  0  0  0  0  0  0
   -1.5482    2.6285   -0.6226 C   0  0  1  0  0  0  0  0  0  0  0  0
   -0.2168    2.0278   -1.0122 C   0  0  0  0  0  0  0  0  0  0  0  0
   -2.1244    1.5998    0.3445 C   0  0  1  0  0  0  0  0  0  0  0  0
   -3.0114    0.5748   -0.3488 C   0  0  0  0  0  0  0  0  0  0  0  0
    2.4696    0.2309    0.1362 C   0  0  0  0  0  0  0  0  0  0  0  0
    0.7644   -1.0858   -0.1482 C   0  0  0  0  0  0  0  0  0  0  0  0
    2.8866   -1.0512   -0.0888 C   0  0  0  0  0  0  0  0  0  0  0  0
    4.3036   -1.3746   -0.1123 C   0  0  0  0  0  0  0  0  0  0  0  0
    4.6488    0.9034    0.3147 C   0  0  0  0  0  0  0  0  0  0  0  0
    0.6896    2.0516    0.9668 H   0  0  0  0  0  0  0  0  0  0  0  0
   -2.1939    2.8519   -1.4759 H   0  0  0  0  0  0  0  0  0  0  0  0
   -0.3571    1.2919   -1.8128 H   0  0  0  0  0  0  0  0  0  0  0  0
    0.5253    2.7619   -1.3407 H   0  0  0  0  0  0  0  0  0  0  0  0
   -2.6706    2.0681    1.1712 H   0  0  0  0  0  0  0  0  0  0  0  0
   -2.4434    0.0202   -1.1024 H   0  0  0  0  0  0  0  0  0  0  0  0
   -3.8575    1.0730   -0.8321 H   0  0  0  0  0  0  0  0  0  0  0  0
   -0.8566    3.6557    0.9088 H   0  0  0  0  0  0  0  0  0  0  0  0
   -0.2667   -1.4005   -0.2368 H   0  0  0  0  0  0  0  0  0  0  0  0
    3.0168    2.2048    0.5093 H   0  0  0  0  0  0  0  0  0  0  0  0
    5.3112    1.7659    0.4893 H   0  0  0  0  0  0  0  0  0  0  0  0
   -4.0014   -3.0556   -1.4767 H   0  0  0  0  0  0  0  0  0  0  0  0
   -6.4242   -1.2623   -0.9545 H   0  0  0  0  0  0  0  0  0  0  0  0
  1  4  1  0  0  0  0
  1  5  1  0  0  0  0
  1  6  1  0  0  0  0
  1  8  2  0  0  0  0
  2 13  1  0  0  0  0
  2 16  1  0  0  0  0
  3 14  1  0  0  0  0
  3 30  1  0  0  0  0
  4 17  1  0  0  0  0
  5 34  1  0  0  0  0
  6 35  1  0  0  0  0
  7 21  2  0  0  0  0
  9 13  1  0  0  0  0
  9 18  1  0  0  0  0
  9 19  1  0  0  0  0
 10 18  1  0  0  0  0
 10 22  1  0  0  0  0
 10 32  1  0  0  0  0
 11 19  2  0  0  0  0
 11 20  1  0  0  0  0
 12 21  1  0  0  0  0
 12 22  2  0  0  0  0
 13 15  1  0  0  0  0
 13 23  1  0  0  0  0
 14 15  1  0  0  0  0
 14 16  1  0  0  0  0
 14 24  1  0  0  0  0
 15 25  1  0  0  0  0
 15 26  1  0  0  0  0
 16 17  1  0  0  0  0
 16 27  1  0  0  0  0
 17 28  1  0  0  0  0
 17 29  1  0  0  0  0
 18 20  2  0  0  0  0
 19 31  1  0  0  0  0
 20 21  1  0  0  0  0
 22 33  1  0  0  0  0
M  END
> <PUBCHEM_COMPOUND_CID>
91531

> <PUBCHEM_CONFORMER_RMSD>
0.8

> <PUBCHEM_CONFORMER_DIVERSEORDER>
1
11
36
38
25
19
13
31
5
8
29
6
15
35
34
23
22
17
3
20
30
32
9
27
4
33
37
10
2
21
28
7
14
24
18
26
16
12

> <PUBCHEM_MMFF94_PARTIAL_CHARGES>
27
1 1.51
10 -0.53
11 -0.57
12 -0.66
13 0.54
14 0.28
16 0.28
17 0.28
18 -0.07
19 0.04
2 -0.56
20 0.14
21 0.87
22 0.44
3 -0.68
30 0.4
31 0.15
32 0.4
33 0.06
34 0.5
35 0.5
4 -0.55
5 -0.77
6 -0.77
7 -0.57
8 -0.7
9 0.05

> <PUBCHEM_EFFECTIVE_ROTOR_COUNT>
5

> <PUBCHEM_PHARMACOPHORE_FEATURES>
14
1 10 donor
1 12 donor
1 2 acceptor
1 3 acceptor
1 3 donor
1 5 acceptor
1 6 acceptor
1 7 acceptor
1 8 acceptor
3 9 11 19 cation
4 1 5 6 8 anion
5 2 13 14 15 16 rings
5 9 11 18 19 20 rings
6 10 12 18 20 21 22 rings

> <PUBCHEM_HEAVY_ATOM_COUNT>
22

> <PUBCHEM_ATOM_DEF_STEREO_COUNT>
3

> <PUBCHEM_ATOM_UDEF_STEREO_COUNT>
0

> <PUBCHEM_BOND_DEF_STEREO_COUNT>
0

> <PUBCHEM_BOND_UDEF_STEREO_COUNT>
0

> <PUBCHEM_ISOTOPIC_ATOM_COUNT>
0

> <PUBCHEM_COMPONENT_COUNT>
1

> <PUBCHEM_CACTVS_TAUTO_COUNT>
3

> <PUBCHEM_CONFORMER_ID>
0001658B00000001

> <PUBCHEM_MMFF94_ENERGY>
16.6408

> <PUBCHEM_FEATURE_SELFOVERLAP>
71.232

> <PUBCHEM_SHAPE_FINGERPRINT>
10616163 171 18337672047983247615
11045515 52 18060139838587412517
11265709 11 18411978049280240761
11552529 35 17968099745905675579
11806522 49 18412825772222899648
12403259 226 18338239362072048968
12403260 363 18272372018619455432
12623949 98 17968078833631466406
12916754 54 18336263548050332416
13004483 165 18338528516354871503
13103583 49 17096074797974610691
13544653 18 18410289186286875785
14787075 74 18271806757578171776
14790565 3 17330555341379995628
15196674 1 18409167735554656162
15352361 1 18411981330519106403
17349148 13 17632572769015245850
17357779 13 18342188734649964101
17492 89 18338237192981890434
19141452 34 18337665425660804409
200 152 18114752623808767213
20261772 1 18041001708712554967
21673915 165 18407760326401275622
221490 88 18336545027522392374
22393880 68 18128541659494246358
23402539 116 18131354115437431185
23557571 272 18412263973468523901
23559900 14 18339089292796846008
2871803 45 18342744034939784667
314194 84 18264205808015067347
3421961 26 18266175020650853761
350125 39 18335704910702986176
46194498 28 17487909904359139959
474229 33 18410013208879035362
5104073 3 18261960768648543066
5283173 99 18059026093617248765
9709674 26 18046909552292208918

> <PUBCHEM_SHAPE_MULTIPOLES>
395.59
11.12
3.26
0.84
0.92
1.3
0.01
-8.25
-0.39
2.05
0.25
0.59
-0.06
0.66

> <PUBCHEM_SHAPE_SELFOVERLAP>
837.596

> <PUBCHEM_SHAPE_VOLUME>
223.4

> <PUBCHEM_COORDINATE_TYPE>
2
5
10

$$$$

