67686
  -OEChem-07051213033D

 39 41  0     1  0  0  0  0  0999 V2000
    3.4709    1.8741   -0.8537 S   0  0  0  0  0  0  0  0  0  0  0  0
    4.6574   -0.6575    0.0555 S   0  0  0  0  0  0  0  0  0  0  0  0
    0.8241    1.9715   -0.2812 N   0  0  1  0  0  0  0  0  0  0  0  0
    2.0241    0.0140    0.5367 N   0  0  0  0  0  0  0  0  0  0  0  0
    0.9876    1.0207    0.8162 C   0  0  0  0  0  0  0  0  0  0  0  0
   -0.3582    2.8059   -0.0539 C   0  0  0  0  0  0  0  0  0  0  0  0
    2.0162    2.8060   -0.3583 C   0  0  0  0  0  0  0  0  0  0  0  0
    1.7476   -1.2987    1.1321 C   0  0  0  0  0  0  0  0  0  0  0  0
    3.2880    0.3346    0.0041 C   0  0  0  0  0  0  0  0  0  0  0  0
   -1.6160    1.9835    0.0372 C   0  0  0  0  0  0  0  0  0  0  0  0
    0.6607   -2.0323    0.3925 C   0  0  0  0  0  0  0  0  0  0  0  0
   -2.3418    1.7152   -1.1150 C   0  0  0  0  0  0  0  0  0  0  0  0
   -2.0319    1.5048    1.2718 C   0  0  0  0  0  0  0  0  0  0  0  0
   -0.1568   -2.9178    1.0810 C   0  0  0  0  0  0  0  0  0  0  0  0
    0.4910   -1.8126   -0.9674 C   0  0  0  0  0  0  0  0  0  0  0  0
   -3.5070    0.9532   -1.0309 C   0  0  0  0  0  0  0  0  0  0  0  0
   -3.1971    0.7427    1.3558 C   0  0  0  0  0  0  0  0  0  0  0  0
   -1.1640   -3.5974    0.3960 C   0  0  0  0  0  0  0  0  0  0  0  0
   -0.5164   -2.4922   -1.6524 C   0  0  0  0  0  0  0  0  0  0  0  0
   -3.9346    0.4668    0.2044 C   0  0  0  0  0  0  0  0  0  0  0  0
   -1.3437   -3.3846   -0.9706 C   0  0  0  0  0  0  0  0  0  0  0  0
    0.0848    0.4391    0.9793 H   0  0  0  0  0  0  0  0  0  0  0  0
    1.2472    1.5109    1.7641 H   0  0  0  0  0  0  0  0  0  0  0  0
   -0.4710    3.5240   -0.8773 H   0  0  0  0  0  0  0  0  0  0  0  0
   -0.2522    3.4129    0.8566 H   0  0  0  0  0  0  0  0  0  0  0  0
    1.8822    3.5860   -1.1161 H   0  0  0  0  0  0  0  0  0  0  0  0
    2.2253    3.3146    0.5911 H   0  0  0  0  0  0  0  0  0  0  0  0
    1.4576   -1.1241    2.1764 H   0  0  0  0  0  0  0  0  0  0  0  0
    2.6225   -1.9508    1.1552 H   0  0  0  0  0  0  0  0  0  0  0  0
   -2.0163    2.0864   -2.0827 H   0  0  0  0  0  0  0  0  0  0  0  0
   -1.4809    1.7280    2.1814 H   0  0  0  0  0  0  0  0  0  0  0  0
   -0.0238   -3.0910    2.1451 H   0  0  0  0  0  0  0  0  0  0  0  0
    1.1277   -1.1393   -1.5327 H   0  0  0  0  0  0  0  0  0  0  0  0
   -4.0807    0.7372   -1.9276 H   0  0  0  0  0  0  0  0  0  0  0  0
   -3.5323    0.3674    2.3182 H   0  0  0  0  0  0  0  0  0  0  0  0
   -1.8084   -4.2921    0.9267 H   0  0  0  0  0  0  0  0  0  0  0  0
   -0.6547   -2.3291   -2.7172 H   0  0  0  0  0  0  0  0  0  0  0  0
   -4.8419   -0.1265    0.2699 H   0  0  0  0  0  0  0  0  0  0  0  0
   -2.1278   -3.9139   -1.5041 H   0  0  0  0  0  0  0  0  0  0  0  0
  1  7  1  0  0  0  0
  1  9  1  0  0  0  0
  2  9  2  0  0  0  0
  3  5  1  0  0  0  0
  3  6  1  0  0  0  0
  3  7  1  0  0  0  0
  4  5  1  0  0  0  0
  4  8  1  0  0  0  0
  4  9  1  0  0  0  0
  5 22  1  0  0  0  0
  5 23  1  0  0  0  0
  6 10  1  0  0  0  0
  6 24  1  0  0  0  0
  6 25  1  0  0  0  0
  7 26  1  0  0  0  0
  7 27  1  0  0  0  0
  8 11  1  0  0  0  0
  8 28  1  0  0  0  0
  8 29  1  0  0  0  0
 10 12  2  0  0  0  0
 10 13  1  0  0  0  0
 11 14  2  0  0  0  0
 11 15  1  0  0  0  0
 12 16  1  0  0  0  0
 12 30  1  0  0  0  0
 13 17  2  0  0  0  0
 13 31  1  0  0  0  0
 14 18  1  0  0  0  0
 14 32  1  0  0  0  0
 15 19  2  0  0  0  0
 15 33  1  0  0  0  0
 16 20  2  0  0  0  0
 16 34  1  0  0  0  0
 17 20  1  0  0  0  0
 17 35  1  0  0  0  0
 18 21  2  0  0  0  0
 18 36  1  0  0  0  0
 19 21  1  0  0  0  0
 19 37  1  0  0  0  0
 20 38  1  0  0  0  0
 21 39  1  0  0  0  0
M  END
> <PUBCHEM_COMPOUND_CID>
67686

> <PUBCHEM_CONFORMER_RMSD>
0.8

> <PUBCHEM_CONFORMER_DIVERSEORDER>
2
6
42
51
30
43
21
54
50
26
47
19
23
29
5
1
40
37
39
48
41
35
24
44
12
4
55
53
11
14
15
31
52
8
18
17
27
13
32
3
59
34
49
25
46
16
20
57
45
9
38
10
56
33
28
22
7
36
58

> <PUBCHEM_MMFF94_PARTIAL_CHARGES>
31
1 -0.37
10 -0.14
11 -0.14
12 -0.15
13 -0.15
14 -0.15
15 -0.15
16 -0.15
17 -0.15
18 -0.15
19 -0.15
2 -0.38
20 -0.15
21 -0.15
3 -0.81
30 0.15
31 0.15
32 0.15
33 0.15
34 0.15
35 0.15
36 0.15
37 0.15
38 0.15
39 0.15
4 -0.66
5 0.57
6 0.41
7 0.5
8 0.44
9 0.58

> <PUBCHEM_EFFECTIVE_ROTOR_COUNT>
5

> <PUBCHEM_PHARMACOPHORE_FEATURES>
5
1 2 acceptor
1 3 cation
6 1 3 4 5 7 9 rings
6 10 12 13 16 17 20 rings
6 11 14 15 18 19 21 rings

> <PUBCHEM_HEAVY_ATOM_COUNT>
21

> <PUBCHEM_ATOM_DEF_STEREO_COUNT>
0

> <PUBCHEM_ATOM_UDEF_STEREO_COUNT>
0

> <PUBCHEM_BOND_DEF_STEREO_COUNT>
0

> <PUBCHEM_BOND_UDEF_STEREO_COUNT>
0

> <PUBCHEM_ISOTOPIC_ATOM_COUNT>
0

> <PUBCHEM_COMPONENT_COUNT>
1

> <PUBCHEM_CACTVS_TAUTO_COUNT>
1

> <PUBCHEM_CONFORMER_ID>
0001086600000002

> <PUBCHEM_MMFF94_ENERGY>
69.8129

> <PUBCHEM_FEATURE_SELFOVERLAP>
25.371

> <PUBCHEM_SHAPE_FINGERPRINT>
104564 63 17761205514511230517
10616163 171 18196092363807205521
1100329 8 18411707551981332992
11578080 2 12533123433461701877
12156800 1 17333316340052658951
12422481 6 18050819188556362827
12553582 1 17114098326945896403
12715332 25 18408318900273457416
12788726 201 17330270568248099312
13140716 1 18266464217925911304
14178342 30 17903358448205203688
14251751 93 18342460318005859250
15209289 33 18040436632892571368
15210252 30 16977325141029387877
17138139 8 17753927959465094671
17492 54 18341065016755468831
19591789 44 18412542093816969058
21041028 32 17762900961647346698
21160774 45 18268427941118674133
21197605 99 18122607376860965843
21236236 1 17906168448340152884
21524375 3 18408884066024081546
229495 10 16700636673457992850
23419403 2 17115437248793939842
238 59 18126593277713739837
2803657 2 17978269068552648766
3060560 45 18341055232514097636
35225 105 18264211313962564799
6287921 2 17824810385662673983
6438718 38 18043521707848566646
81228 2 17762906458983868289

> <PUBCHEM_SHAPE_MULTIPOLES>
429.91
6.22
4.62
1.34
2.36
2.99
0.08
-2.8
0.14
-1.04
0.63
-0.58
0.38
-0.68

> <PUBCHEM_SHAPE_SELFOVERLAP>
888.922

> <PUBCHEM_SHAPE_VOLUME>
246.5

> <PUBCHEM_COORDINATE_TYPE>
2
5
10

$$$$

