6889
  -OEChem-06261201343D

 16 17  0     0  0  0  0  0  0999 V2000
    4.0396   -1.0263    0.0006 Br  0  0  0  0  0  0  0  0  0  0  0  0
   -1.7579   -2.0922   -0.0002 O   0  0  0  0  0  0  0  0  0  0  0  0
   -3.5386    0.1626    0.0010 O   0  0  0  0  0  0  0  0  0  0  0  0
   -1.4988    1.3667    0.0000 N   0  0  0  0  0  0  0  0  0  0  0  0
   -0.0342   -0.4056   -0.0005 C   0  0  0  0  0  0  0  0  0  0  0  0
   -0.1564    0.9805   -0.0005 C   0  0  0  0  0  0  0  0  0  0  0  0
   -1.3935   -0.9417   -0.0001 C   0  0  0  0  0  0  0  0  0  0  0  0
    1.1858   -1.0451   -0.0004 C   0  0  0  0  0  0  0  0  0  0  0  0
    0.9553    1.7968   -0.0002 C   0  0  0  0  0  0  0  0  0  0  0  0
   -2.3315    0.2624    0.0000 C   0  0  0  0  0  0  0  0  0  0  0  0
    2.3219   -0.2322    0.0002 C   0  0  0  0  0  0  0  0  0  0  0  0
    2.2082    1.1740    0.0002 C   0  0  0  0  0  0  0  0  0  0  0  0
   -1.8040    2.3328    0.0004 H   0  0  0  0  0  0  0  0  0  0  0  0
    1.2526   -2.1272   -0.0003 H   0  0  0  0  0  0  0  0  0  0  0  0
    0.8718    2.8775    0.0000 H   0  0  0  0  0  0  0  0  0  0  0  0
    3.1002    1.7968    0.0006 H   0  0  0  0  0  0  0  0  0  0  0  0
  1 11  1  0  0  0  0
  2  7  2  0  0  0  0
  3 10  2  0  0  0  0
  4  6  1  0  0  0  0
  4 10  1  0  0  0  0
  4 13  1  0  0  0  0
  5  6  2  0  0  0  0
  5  7  1  0  0  0  0
  5  8  1  0  0  0  0
  6  9  1  0  0  0  0
  7 10  1  0  0  0  0
  8 11  2  0  0  0  0
  8 14  1  0  0  0  0
  9 12  2  0  0  0  0
  9 15  1  0  0  0  0
 11 12  1  0  0  0  0
 12 16  1  0  0  0  0
M  END
> <PUBCHEM_COMPOUND_CID>
6889

> <PUBCHEM_CONFORMER_RMSD>
0.4

> <PUBCHEM_CONFORMER_DIVERSEORDER>
1

> <PUBCHEM_MMFF94_PARTIAL_CHARGES>
16
1 -0.11
10 0.63
11 0.11
12 -0.15
13 0.37
14 0.15
15 0.15
16 0.15
2 -0.57
3 -0.57
4 -0.55
5 0.09
6 0.12
7 0.48
8 -0.15
9 -0.15

> <PUBCHEM_EFFECTIVE_ROTOR_COUNT>
0.2

> <PUBCHEM_PHARMACOPHORE_FEATURES>
6
1 1 hydrophobe
1 2 acceptor
1 3 acceptor
1 4 donor
5 4 5 6 7 10 rings
6 5 6 8 9 11 12 rings

> <PUBCHEM_HEAVY_ATOM_COUNT>
12

> <PUBCHEM_ATOM_DEF_STEREO_COUNT>
0

> <PUBCHEM_ATOM_UDEF_STEREO_COUNT>
0

> <PUBCHEM_BOND_DEF_STEREO_COUNT>
0

> <PUBCHEM_BOND_UDEF_STEREO_COUNT>
0

> <PUBCHEM_ISOTOPIC_ATOM_COUNT>
0

> <PUBCHEM_COMPONENT_COUNT>
1

> <PUBCHEM_CACTVS_TAUTO_COUNT>
4

> <PUBCHEM_CONFORMER_ID>
00001AE900000001

> <PUBCHEM_MMFF94_ENERGY>
31.6353

> <PUBCHEM_FEATURE_SELFOVERLAP>
30.541

> <PUBCHEM_SHAPE_FINGERPRINT>
10130415 120 18411138056413148776
12032990 46 18410568522243363378
12932764 1 17346049908446035406
13380535 76 18335984246016064559
13690532 89 18411140263826015071
14128692 85 18411696561212581636
14325111 11 18338517443396568832
14911166 2 18411986896427203887
15536298 74 18334295332374596440
16945 1 18410575106185537572
17990270 104 18268149751770514722
193761 8 18050285873275382948
19973954 147 18339078164304057608
20201158 50 18336264625855041078
20588541 1 18336542828103517502
21501502 16 18266457615964902686
2334 1 18122344579709879526
23402539 116 18188502379237261069
23402655 69 18049742986017022589
23463225 33 18412545444387403518
23552423 10 18200030612546430844
23559900 14 18263647428619148454
2748010 2 18266742372317694020
528886 8 18409735036373199986
7364860 26 18262800658120090080
8809292 202 18271802402244086962

> <PUBCHEM_SHAPE_MULTIPOLES>
236.18
5.24
1.8
0.61
1.79
0.04
0
-1.42
0
0
0
0.11
0
0

> <PUBCHEM_SHAPE_SELFOVERLAP>
506.673

> <PUBCHEM_SHAPE_VOLUME>
134.7

> <PUBCHEM_COORDINATE_TYPE>
2
5
10

$$$$

