46173867
  -OEChem-07051213103D

 56 58  0     1  0  0  0  0  0999 V2000
   -1.0684    2.6075    0.0588 P   0  0  2  0  0  0  0  0  0  0  0  0
   -3.9878    2.2467   -0.0088 P   0  0  2  0  0  0  0  0  0  0  0  0
    2.3814    0.9714   -1.9414 O   0  0  0  0  0  0  0  0  0  0  0  0
    1.7678   -0.9367   -4.2554 O   0  0  0  0  0  0  0  0  0  0  0  0
   -0.0118    2.1427   -1.0737 O   0  0  0  0  0  0  0  0  0  0  0  0
   -2.4978    2.3058   -0.6332 O   0  0  0  0  0  0  0  0  0  0  0  0
   -2.4243   -0.7779    1.2295 O   0  0  0  0  0  0  0  0  0  0  0  0
    5.7199   -1.2597   -0.9736 O   0  0  0  0  0  0  0  0  0  0  0  0
   -3.9618    0.9691    0.9842 O   0  0  0  0  0  0  0  0  0  0  0  0
   -0.9843    4.2227    0.0303 O   0  0  0  0  0  0  0  0  0  0  0  0
   -0.8870    1.9872    1.4134 O   0  0  0  0  0  0  0  0  0  0  0  0
    5.1510    0.0436    3.3997 O   0  0  0  0  0  0  0  0  0  0  0  0
   -4.8950    1.7669   -1.2595 O   0  0  0  0  0  0  0  0  0  0  0  0
   -4.4395    3.5289    0.6280 O   0  0  0  0  0  0  0  0  0  0  0  0
   -5.0897   -3.5119   -0.1191 O   0  0  0  0  0  0  0  0  0  0  0  0
   -2.6052   -4.2572    0.5438 O   0  0  0  0  0  0  0  0  0  0  0  0
    3.7419   -0.1563   -0.4076 N   0  0  0  0  0  0  0  0  0  0  0  0
    5.4232   -0.6042    1.2041 N   0  0  0  0  0  0  0  0  0  0  0  0
    1.2643   -0.8752   -2.9227 C   0  0  2  0  0  0  0  0  0  0  0  0
    1.1104    0.5772   -2.4936 C   0  0  1  0  0  0  0  0  0  0  0  0
    2.3016   -1.4080   -1.9615 C   0  0  0  0  0  0  0  0  0  0  0  0
    3.1885   -0.1956   -1.7295 C   0  0  1  0  0  0  0  0  0  0  0  0
    0.0520    0.7676   -1.4149 C   0  0  0  0  0  0  0  0  0  0  0  0
    3.0017    0.4443    0.6034 C   0  0  0  0  0  0  0  0  0  0  0  0
    5.0088   -0.7130   -0.1279 C   0  0  0  0  0  0  0  0  0  0  0  0
    3.4011    0.5465    1.8770 C   0  0  0  0  0  0  0  0  0  0  0  0
    4.7259   -0.0171    2.2492 C   0  0  0  0  0  0  0  0  0  0  0  0
   -3.5509   -0.3036    0.4960 C   0  0  2  0  0  0  0  0  0  0  0  0
    2.5882    1.1989    2.9487 C   0  0  0  0  0  0  0  0  0  0  0  0
   -4.7030   -1.2741    0.6932 C   0  0  0  0  0  0  0  0  0  0  0  0
   -1.8605   -1.9408    0.6412 C   0  0  2  0  0  0  0  0  0  0  0  0
   -4.3099   -2.6674    0.2963 C   0  0  0  0  0  0  0  0  0  0  0  0
   -2.8733   -3.0645    0.5266 C   0  0  0  0  0  0  0  0  0  0  0  0
   -0.6775   -2.3639    1.4992 C   0  0  0  0  0  0  0  0  0  0  0  0
    0.3302   -1.4444   -2.8958 H   0  0  0  0  0  0  0  0  0  0  0  0
    0.9094    1.2456   -3.3381 H   0  0  0  0  0  0  0  0  0  0  0  0
    2.8737   -2.2561   -2.3507 H   0  0  0  0  0  0  0  0  0  0  0  0
    1.8152   -1.7257   -1.0311 H   0  0  0  0  0  0  0  0  0  0  0  0
    3.9965   -0.1720   -2.4704 H   0  0  0  0  0  0  0  0  0  0  0  0
    0.2557    0.1820   -0.5158 H   0  0  0  0  0  0  0  0  0  0  0  0
   -0.9252    0.4597   -1.8022 H   0  0  0  0  0  0  0  0  0  0  0  0
    1.0960   -0.5427   -4.8378 H   0  0  0  0  0  0  0  0  0  0  0  0
    2.0434    0.8628    0.3415 H   0  0  0  0  0  0  0  0  0  0  0  0
    6.3327   -0.9981    1.4286 H   0  0  0  0  0  0  0  0  0  0  0  0
   -3.2841   -0.2272   -0.5654 H   0  0  0  0  0  0  0  0  0  0  0  0
   -5.0051   -1.3032    1.7467 H   0  0  0  0  0  0  0  0  0  0  0  0
   -5.5707   -0.9568    0.1053 H   0  0  0  0  0  0  0  0  0  0  0  0
   -1.5061   -1.7028   -0.3686 H   0  0  0  0  0  0  0  0  0  0  0  0
    2.3474    0.4786    3.7372 H   0  0  0  0  0  0  0  0  0  0  0  0
    1.6451    1.5976    2.5626 H   0  0  0  0  0  0  0  0  0  0  0  0
    3.1413    2.0318    3.3949 H   0  0  0  0  0  0  0  0  0  0  0  0
   -0.1601   -3.2289    1.0724 H   0  0  0  0  0  0  0  0  0  0  0  0
    0.0399   -1.5418    1.5970 H   0  0  0  0  0  0  0  0  0  0  0  0
   -1.0030   -2.6254    2.5125 H   0  0  0  0  0  0  0  0  0  0  0  0
   -1.1240    4.6894   -0.8210 H   0  0  0  0  0  0  0  0  0  0  0  0
   -5.1588    2.4274   -1.9349 H   0  0  0  0  0  0  0  0  0  0  0  0
  1  5  1  0  0  0  0
  1  6  1  0  0  0  0
  1 10  1  0  0  0  0
  1 11  2  0  0  0  0
  2  6  1  0  0  0  0
  2  9  1  0  0  0  0
  2 13  1  0  0  0  0
  2 14  2  0  0  0  0
  3 20  1  0  0  0  0
  3 22  1  0  0  0  0
  4 19  1  0  0  0  0
  4 42  1  0  0  0  0
  5 23  1  0  0  0  0
  7 28  1  0  0  0  0
  7 31  1  0  0  0  0
  8 25  2  0  0  0  0
  9 28  1  0  0  0  0
 10 55  1  0  0  0  0
 12 27  2  0  0  0  0
 13 56  1  0  0  0  0
 15 32  2  0  0  0  0
 16 33  2  0  0  0  0
 17 22  1  0  0  0  0
 17 24  1  0  0  0  0
 17 25  1  0  0  0  0
 18 25  1  0  0  0  0
 18 27  1  0  0  0  0
 18 44  1  0  0  0  0
 19 20  1  0  0  0  0
 19 21  1  0  0  0  0
 19 35  1  0  0  0  0
 20 23  1  0  0  0  0
 20 36  1  0  0  0  0
 21 22  1  0  0  0  0
 21 37  1  0  0  0  0
 21 38  1  0  0  0  0
 22 39  1  0  0  0  0
 23 40  1  0  0  0  0
 23 41  1  0  0  0  0
 24 26  2  0  0  0  0
 24 43  1  0  0  0  0
 26 27  1  0  0  0  0
 26 29  1  0  0  0  0
 28 30  1  0  0  0  0
 28 45  1  0  0  0  0
 29 49  1  0  0  0  0
 29 50  1  0  0  0  0
 29 51  1  0  0  0  0
 30 32  1  0  0  0  0
 30 46  1  0  0  0  0
 30 47  1  0  0  0  0
 31 33  1  0  0  0  0
 31 34  1  0  0  0  0
 31 48  1  0  0  0  0
 32 33  1  0  0  0  0
 34 52  1  0  0  0  0
 34 53  1  0  0  0  0
 34 54  1  0  0  0  0
M  END
> <PUBCHEM_COMPOUND_CID>
46173867

> <PUBCHEM_CONFORMER_RMSD>
1.6

> <PUBCHEM_CONFORMER_DIVERSEORDER>
1
28
39
9
51
74
53
20
94
105
55
18
27
106
61
66
15
100
111
69
98
56
44
10
112
57
118
33
71
49
115
41
67
22
31
92
42
45
5
90
108
88
23
40
43
97
38
76
116
78
48
89
99
59
11
73
12
16
117
95
34
36
32
91
46
47
19
58
25
93
84
83
81
75
114
113
8
64
6
68
65
86
26
63
96
104
110
50
24
37
70
72
107
52
2
85
3
14
62
80
54
60
87
13
82
7
35
21
17
29
102
109
4
30
79
101
77
103

> <PUBCHEM_MMFF94_PARTIAL_CHARGES>
37
1 1.51
10 -0.77
11 -0.7
12 -0.57
13 -0.77
14 -0.7
15 -0.57
16 -0.57
17 -0.47
18 -0.49
19 0.28
2 1.51
20 0.28
22 0.58
23 0.28
24 -0.04
25 0.69
26 -0.12
27 0.62
28 0.56
29 0.14
3 -0.56
30 0.06
31 0.34
32 0.51
33 0.51
4 -0.68
42 0.4
43 0.15
44 0.37
5 -0.55
55 0.5
56 0.5
6 -0.54
7 -0.56
8 -0.57
9 -0.55

> <PUBCHEM_EFFECTIVE_ROTOR_COUNT>
9.8

> <PUBCHEM_PHARMACOPHORE_FEATURES>
16
1 10 acceptor
1 11 acceptor
1 12 acceptor
1 13 acceptor
1 14 acceptor
1 15 acceptor
1 16 acceptor
1 18 donor
1 3 acceptor
1 4 acceptor
1 4 donor
1 7 acceptor
1 8 acceptor
5 3 19 20 21 22 rings
6 17 18 24 25 26 27 rings
6 7 28 30 31 32 33 rings

> <PUBCHEM_HEAVY_ATOM_COUNT>
34

> <PUBCHEM_ATOM_DEF_STEREO_COUNT>
5

> <PUBCHEM_ATOM_UDEF_STEREO_COUNT>
0

> <PUBCHEM_BOND_DEF_STEREO_COUNT>
0

> <PUBCHEM_BOND_UDEF_STEREO_COUNT>
0

> <PUBCHEM_ISOTOPIC_ATOM_COUNT>
0

> <PUBCHEM_COMPONENT_COUNT>
1

> <PUBCHEM_CACTVS_TAUTO_COUNT>
24

> <PUBCHEM_CONFORMER_ID>
02C08EAB00000001

> <PUBCHEM_MMFF94_ENERGY>
30.4154

> <PUBCHEM_FEATURE_SELFOVERLAP>
81.221

> <PUBCHEM_SHAPE_FINGERPRINT>
11828532 37 18125162628930566603
12128747 34 18190739933077689318
12166972 35 17346042147593723059
12712778 12 18271257044803322299
12717326 68 17684100075728578247
12788726 201 18128230351569072909
13583140 156 17821729459159920342
13726171 33 18052220021646074156
14081887 123 18337386136225912997
14508693 111 18129089039980411698
14840074 17 17059770147531885540
20511986 3 17346594175460934068
20554085 129 18122912186168278081
20600515 1 18410859888340638801
208703 8 17346589785824801714
23557571 272 18334001800828671383
23559900 14 18191010403988803052
244849 19 17531514494974902437
3052486 1 18273209807075898778
3459 110 17313393270592496990
508706 21 18335706052615524419
602551 16 18413106186616878048

> <PUBCHEM_SHAPE_MULTIPOLES>
615.27
11.81
4.16
3.14
3.08
0.19
-1.35
-3.41
4.62
-8.04
0.59
5.19
-0.24
1.54

> <PUBCHEM_SHAPE_SELFOVERLAP>
1257.797

> <PUBCHEM_SHAPE_VOLUME>
356.9

> <PUBCHEM_COORDINATE_TYPE>
2
5
10

$$$$

