443437
  -OEChem-07051213023D

 34 34  0     1  0  0  0  0  0999 V2000
    4.9187    0.3713   -0.3213 O   0  0  0  0  0  0  0  0  0  0  0  0
    3.5378    2.0422    0.4270 O   0  0  0  0  0  0  0  0  0  0  0  0
    0.1980   -1.2184    1.2203 O   0  0  0  0  0  0  0  0  0  0  0  0
    1.4327    0.1928   -0.1500 N   0  0  0  0  0  0  0  0  0  0  0  0
    2.7314   -0.2508    0.2550 C   0  0  1  0  0  0  0  0  0  0  0  0
    3.3203   -1.2912   -0.6677 C   0  0  0  0  0  0  0  0  0  0  0  0
   -2.2896   -0.2415    0.2794 C   0  0  0  0  0  0  0  0  0  0  0  0
   -3.5043    0.4250   -0.3741 C   0  0  0  0  0  0  0  0  0  0  0  0
   -0.9677    0.3028   -0.2603 C   0  0  0  0  0  0  0  0  0  0  0  0
    4.8002   -1.0416   -0.5247 C   0  0  0  0  0  0  0  0  0  0  0  0
   -4.8127   -0.1626    0.1589 C   0  0  0  0  0  0  0  0  0  0  0  0
    3.7268    0.8719    0.1336 C   0  0  0  0  0  0  0  0  0  0  0  0
    0.2595   -0.3331    0.3716 C   0  0  0  0  0  0  0  0  0  0  0  0
   -6.0249    0.4687   -0.5253 C   0  0  0  0  0  0  0  0  0  0  0  0
   -7.3261   -0.1356   -0.0225 C   0  0  0  0  0  0  0  0  0  0  0  0
    2.7202   -0.5997    1.2936 H   0  0  0  0  0  0  0  0  0  0  0  0
    3.0320   -2.3149   -0.4122 H   0  0  0  0  0  0  0  0  0  0  0  0
    3.0127   -1.1084   -1.7055 H   0  0  0  0  0  0  0  0  0  0  0  0
   -2.3305   -1.3251    0.1113 H   0  0  0  0  0  0  0  0  0  0  0  0
   -2.3299   -0.0924    1.3656 H   0  0  0  0  0  0  0  0  0  0  0  0
   -3.4547    0.2865   -1.4609 H   0  0  0  0  0  0  0  0  0  0  0  0
   -3.4789    1.5046   -0.1832 H   0  0  0  0  0  0  0  0  0  0  0  0
   -0.9154    0.1370   -1.3432 H   0  0  0  0  0  0  0  0  0  0  0  0
   -0.9161    1.3844   -0.0857 H   0  0  0  0  0  0  0  0  0  0  0  0
    5.3543   -1.3320   -1.4217 H   0  0  0  0  0  0  0  0  0  0  0  0
    5.2278   -1.5549    0.3428 H   0  0  0  0  0  0  0  0  0  0  0  0
   -4.8745   -0.0019    1.2421 H   0  0  0  0  0  0  0  0  0  0  0  0
   -4.8222   -1.2467   -0.0079 H   0  0  0  0  0  0  0  0  0  0  0  0
    1.3714    0.9125   -0.8652 H   0  0  0  0  0  0  0  0  0  0  0  0
   -6.0344    1.5495   -0.3425 H   0  0  0  0  0  0  0  0  0  0  0  0
   -5.9585    0.3236   -1.6099 H   0  0  0  0  0  0  0  0  0  0  0  0
   -7.3620   -1.2115   -0.2217 H   0  0  0  0  0  0  0  0  0  0  0  0
   -7.4393    0.0185    1.0554 H   0  0  0  0  0  0  0  0  0  0  0  0
   -8.1796    0.3312   -0.5240 H   0  0  0  0  0  0  0  0  0  0  0  0
  1 10  1  0  0  0  0
  1 12  1  0  0  0  0
  2 12  2  0  0  0  0
  3 13  2  0  0  0  0
  4  5  1  0  0  0  0
  4 13  1  0  0  0  0
  4 29  1  0  0  0  0
  5  6  1  0  0  0  0
  5 12  1  0  0  0  0
  5 16  1  0  0  0  0
  6 10  1  0  0  0  0
  6 17  1  0  0  0  0
  6 18  1  0  0  0  0
  7  8  1  0  0  0  0
  7  9  1  0  0  0  0
  7 19  1  0  0  0  0
  7 20  1  0  0  0  0
  8 11  1  0  0  0  0
  8 21  1  0  0  0  0
  8 22  1  0  0  0  0
  9 13  1  0  0  0  0
  9 23  1  0  0  0  0
  9 24  1  0  0  0  0
 10 25  1  0  0  0  0
 10 26  1  0  0  0  0
 11 14  1  0  0  0  0
 11 27  1  0  0  0  0
 11 28  1  0  0  0  0
 14 15  1  0  0  0  0
 14 30  1  0  0  0  0
 14 31  1  0  0  0  0
 15 32  1  0  0  0  0
 15 33  1  0  0  0  0
 15 34  1  0  0  0  0
M  END
> <PUBCHEM_COMPOUND_CID>
443437

> <PUBCHEM_CONFORMER_RMSD>
0.8

> <PUBCHEM_CONFORMER_DIVERSEORDER>
1
101
5
41
51
75
89
108
106
84
6
96
66
105
76
53
14
92
79
4
42
95
107
54
2
100
74
37
3
109
88
16
73
56
8
31
30
99
11
52
93
69
94
22
50
15
102
83
78
27
103
45
38
13
98
10
20
39
65
81
46
17
9
72
97
7
58
35
48
85
28
19
71
49
63
87
33
55
60
24
91
26
62
68
64
59
12
21
34
90
25
61
104
36
23
29
44
70
82
57
80
18
67
40
32
47
86
77
43

> <PUBCHEM_MMFF94_PARTIAL_CHARGES>
10
1 -0.43
10 0.28
12 0.66
13 0.57
2 -0.57
29 0.37
3 -0.57
4 -0.73
5 0.36
9 0.06

> <PUBCHEM_EFFECTIVE_ROTOR_COUNT>
7.8

> <PUBCHEM_PHARMACOPHORE_FEATURES>
6
1 15 hydrophobe
1 2 acceptor
1 3 acceptor
1 4 donor
5 1 5 6 10 12 rings
5 7 8 9 11 14 hydrophobe

> <PUBCHEM_HEAVY_ATOM_COUNT>
15

> <PUBCHEM_ATOM_DEF_STEREO_COUNT>
1

> <PUBCHEM_ATOM_UDEF_STEREO_COUNT>
0

> <PUBCHEM_BOND_DEF_STEREO_COUNT>
0

> <PUBCHEM_BOND_UDEF_STEREO_COUNT>
0

> <PUBCHEM_ISOTOPIC_ATOM_COUNT>
0

> <PUBCHEM_COMPONENT_COUNT>
1

> <PUBCHEM_CACTVS_TAUTO_COUNT>
4

> <PUBCHEM_CONFORMER_ID>
0006C42D00000001

> <PUBCHEM_MMFF94_ENERGY>
10.4691

> <PUBCHEM_FEATURE_SELFOVERLAP>
30.446

> <PUBCHEM_SHAPE_FINGERPRINT>
10354089 29 12607401092211011574
11287383 113 18335701620309559983
12730499 353 18343297080619818691
12916748 109 18131070454459633765
13081056 2 18342178873131109429
13167372 99 18040991895355913905
13533116 47 17022900198326991470
13836976 161 17675922101794076270
14123238 8 17458344147967053967
1420 363 18201715159498284723
14251718 22 18411702084973138383
15242439 84 18272366477399513058
17834072 33 18186805768708612263
17834072 8 18413102874849076134
17834076 25 16128655258674786211
17844677 252 18334851745198142505
18186145 218 18272940414153408694
20281389 69 10663828494759962751
20645477 70 18188488090050327134
220451 1 17022621971025648823
221357 26 18408042935260207245
23035841 295 17967534576097967783
23402539 116 12895351076150281435
23402655 69 18334293158883553548
23536379 177 17967249823733922235
23557571 272 17346317167534690719
29717793 49 17313097570615432652
3545911 37 17917711314491396619
42788 4 18409449194037241421
522135 26 18186802487248089934
7495541 125 16950289468572848475

> <PUBCHEM_SHAPE_MULTIPOLES>
286.1
16.01
1.2
0.79
22.58
0.27
-0.06
0.44
2.37
-1.73
-0.07
-0.04
-0.13
0.6

> <PUBCHEM_SHAPE_SELFOVERLAP>
556.919

> <PUBCHEM_SHAPE_VOLUME>
174.1

> <PUBCHEM_COORDINATE_TYPE>
2
5
10

$$$$

