8811
  -OEChem-06261203083D

 36 37  0     0  0  0  0  0  0999 V2000
    6.7053   -1.3264    0.4308 N   0  0  0  0  0  0  0  0  0  0  0  0
   -6.7028    1.3272    0.4309 N   0  0  0  0  0  0  0  0  0  0  0  0
    6.8912    0.8597   -0.3741 N   0  0  0  0  0  0  0  0  0  0  0  0
   -6.8895   -0.8588   -0.3740 N   0  0  0  0  0  0  0  0  0  0  0  0
    1.8963    0.3412   -0.0174 C   0  0  0  0  0  0  0  0  0  0  0  0
   -1.9134   -0.3401   -0.0173 C   0  0  0  0  0  0  0  0  0  0  0  0
    0.4510    0.5049   -0.0271 C   0  0  0  0  0  0  0  0  0  0  0  0
   -0.4493   -0.5065   -0.0271 C   0  0  0  0  0  0  0  0  0  0  0  0
    4.6683    0.0280    0.0030 C   0  0  0  0  0  0  0  0  0  0  0  0
   -4.6664   -0.0279    0.0030 C   0  0  0  0  0  0  0  0  0  0  0  0
    2.4589   -0.8629    0.4056 C   0  0  0  0  0  0  0  0  0  0  0  0
   -2.4566    0.8621    0.4056 C   0  0  0  0  0  0  0  0  0  0  0  0
    2.7196    1.3888   -0.4304 C   0  0  0  0  0  0  0  0  0  0  0  0
   -2.7182   -1.3895   -0.4303 C   0  0  0  0  0  0  0  0  0  0  0  0
    3.8448   -1.0195    0.4160 C   0  0  0  0  0  0  0  0  0  0  0  0
   -3.8425    1.0193    0.4160 C   0  0  0  0  0  0  0  0  0  0  0  0
    4.1056    1.2323   -0.4201 C   0  0  0  0  0  0  0  0  0  0  0  0
   -4.1042   -1.2324   -0.4202 C   0  0  0  0  0  0  0  0  0  0  0  0
    6.1133   -0.1356    0.0136 C   0  0  0  0  0  0  0  0  0  0  0  0
   -6.1114    0.1361    0.0137 C   0  0  0  0  0  0  0  0  0  0  0  0
    0.1179    1.5388   -0.0547 H   0  0  0  0  0  0  0  0  0  0  0  0
   -0.1207   -1.5420   -0.0526 H   0  0  0  0  0  0  0  0  0  0  0  0
    1.8599   -1.6978    0.7570 H   0  0  0  0  0  0  0  0  0  0  0  0
   -1.8553    1.6945    0.7570 H   0  0  0  0  0  0  0  0  0  0  0  0
    2.2993    2.3343   -0.7648 H   0  0  0  0  0  0  0  0  0  0  0  0
   -2.2953   -2.3333   -0.7641 H   0  0  0  0  0  0  0  0  0  0  0  0
    4.2303   -1.9733    0.7588 H   0  0  0  0  0  0  0  0  0  0  0  0
   -4.2276    1.9732    0.7590 H   0  0  0  0  0  0  0  0  0  0  0  0
    4.7178    2.0678   -0.7484 H   0  0  0  0  0  0  0  0  0  0  0  0
   -4.7166   -2.0677   -0.7485 H   0  0  0  0  0  0  0  0  0  0  0  0
    7.7157   -1.4206    0.4328 H   0  0  0  0  0  0  0  0  0  0  0  0
    6.1849   -2.1368    0.7428 H   0  0  0  0  0  0  0  0  0  0  0  0
   -7.7133    1.4217    0.4329 H   0  0  0  0  0  0  0  0  0  0  0  0
   -6.1822    2.1373    0.7428 H   0  0  0  0  0  0  0  0  0  0  0  0
    7.8678    0.5549   -0.2946 H   0  0  0  0  0  0  0  0  0  0  0  0
   -7.8660   -0.5537   -0.2945 H   0  0  0  0  0  0  0  0  0  0  0  0
  1 19  1  0  0  0  0
  1 31  1  0  0  0  0
  1 32  1  0  0  0  0
  2 20  1  0  0  0  0
  2 33  1  0  0  0  0
  2 34  1  0  0  0  0
  3 19  2  0  0  0  0
  3 35  1  0  0  0  0
  4 20  2  0  0  0  0
  4 36  1  0  0  0  0
  5  7  1  0  0  0  0
  5 11  2  0  0  0  0
  5 13  1  0  0  0  0
  6  8  1  0  0  0  0
  6 12  2  0  0  0  0
  6 14  1  0  0  0  0
  7  8  2  0  0  0  0
  7 21  1  0  0  0  0
  8 22  1  0  0  0  0
  9 15  2  0  0  0  0
  9 17  1  0  0  0  0
  9 19  1  0  0  0  0
 10 16  2  0  0  0  0
 10 18  1  0  0  0  0
 10 20  1  0  0  0  0
 11 15  1  0  0  0  0
 11 23  1  0  0  0  0
 12 16  1  0  0  0  0
 12 24  1  0  0  0  0
 13 17  2  0  0  0  0
 13 25  1  0  0  0  0
 14 18  2  0  0  0  0
 14 26  1  0  0  0  0
 15 27  1  0  0  0  0
 16 28  1  0  0  0  0
 17 29  1  0  0  0  0
 18 30  1  0  0  0  0
M  END
> <PUBCHEM_COMPOUND_CID>
8811

> <PUBCHEM_CONFORMER_RMSD>
0.6

> <PUBCHEM_CONFORMER_DIVERSEORDER>
2
1

> <PUBCHEM_MMFF94_PARTIAL_CHARGES>
36
1 -0.85
10 0.09
11 -0.15
12 -0.15
13 -0.15
14 -0.15
15 -0.15
16 -0.15
17 -0.15
18 -0.15
19 0.41
2 -0.85
20 0.41
21 0.15
22 0.15
23 0.15
24 0.15
25 0.15
26 0.15
27 0.15
28 0.15
29 0.15
3 -0.85
30 0.15
31 0.4
32 0.4
33 0.4
34 0.4
35 0.4
36 0.4
4 -0.85
5 0.03
6 0.03
7 -0.18
8 -0.18
9 0.09

> <PUBCHEM_EFFECTIVE_ROTOR_COUNT>
4

> <PUBCHEM_PHARMACOPHORE_FEATURES>
8
1 1 donor
1 2 donor
1 3 donor
1 4 donor
3 1 3 19 cation
3 2 4 20 cation
6 5 9 11 13 15 17 rings
6 6 10 12 14 16 18 rings

> <PUBCHEM_HEAVY_ATOM_COUNT>
20

> <PUBCHEM_ATOM_DEF_STEREO_COUNT>
0

> <PUBCHEM_ATOM_UDEF_STEREO_COUNT>
0

> <PUBCHEM_BOND_DEF_STEREO_COUNT>
0

> <PUBCHEM_BOND_UDEF_STEREO_COUNT>
1

> <PUBCHEM_ISOTOPIC_ATOM_COUNT>
0

> <PUBCHEM_COMPONENT_COUNT>
1

> <PUBCHEM_CACTVS_TAUTO_COUNT>
1

> <PUBCHEM_CONFORMER_ID>
0000226B00000002

> <PUBCHEM_MMFF94_ENERGY>
71.7092

> <PUBCHEM_FEATURE_SELFOVERLAP>
40.681

> <PUBCHEM_SHAPE_FINGERPRINT>
10299344 5 18412544314457713206
10968037 39 18411419505899610823
11315181 36 17676202451246515177
11524674 6 16225767398273453767
11719270 70 17894630379312866774
12091667 2 18261110769172684851
12107183 9 17690280829713914960
12166972 35 18410855443033559280
12236239 1 18410856551049854984
12516196 113 17167581583356455328
13167372 99 18410854395029578657
13288520 33 18259987055314453663
13533116 47 16988293065710805160
14170010 4 18131632262584932620
1420 363 15841833356665041450
14251764 18 18410575080368111652
14251764 46 18409168809307094619
14933364 13 18343864415824227437
15183329 4 18410573989446418456
17834072 33 18409730638680123164
17834076 25 18410573980856503335
18681886 176 18187933832777838298
19489759 90 16660641865172678827
200 152 18408604751705674784
20281389 69 18342459248649089100
20612939 158 17988918938743880628
21267235 1 18411132537058361354
21315763 28 18410294709213839785
21641784 216 16987987414959518580
220451 1 16630529522615809610
22224240 67 16128375943929475872
23035841 295 18409168817918219283
23402539 116 18113341899399050733
23536379 177 18410855464423129280
23559900 14 18262245408494281289
29717793 49 18259980475171420428
300161 21 18408890624264698755
3004659 81 18412265030019838240
34797466 226 17022896823273902656
3545911 37 18410293609691643015
4073 2 17988357058221446450
4214541 1 18410012134931379085
4340502 62 15410899553041741320
4463277 17 18412545409858938068
5104073 3 18338517430495609705
542803 24 17846779598394779949
54446538 1 18411136935168617705
559249 180 18334579023438640879
8209 1 18410856559639796084

> <PUBCHEM_SHAPE_MULTIPOLES>
391.67
19.31
1.39
0.7
0.05
0
0
0
-0.02
0
0.03
0
0
-1.14

> <PUBCHEM_SHAPE_SELFOVERLAP>
842.593

> <PUBCHEM_SHAPE_VOLUME>
211.5

> <PUBCHEM_COORDINATE_TYPE>
2
5
10

$$$$

