441301
  -OEChem-07051212543D

 53 56  0     1  0  0  0  0  0999 V2000
   -4.1597   -0.7315   -1.7989 O   0  0  0  0  0  0  0  0  0  0  0  0
    4.5971    0.0240   -1.7746 O   0  0  0  0  0  0  0  0  0  0  0  0
    0.1902   -0.4716   -0.1121 C   0  0  1  0  0  0  0  0  0  0  0  0
   -0.6549    0.7621    0.3443 C   0  0  2  0  0  0  0  0  0  0  0  0
   -2.0675    0.6320   -0.2387 C   0  0  1  0  0  0  0  0  0  0  0  0
    1.6766   -0.3882    0.4003 C   0  0  2  0  0  0  0  0  0  0  0  0
   -2.7883   -0.6497    0.2280 C   0  0  2  0  0  0  0  0  0  0  0  0
    2.2697    0.9641   -0.1105 C   0  0  1  0  0  0  0  0  0  0  0  0
   -0.5234   -1.8123    0.2039 C   0  0  0  0  0  0  0  0  0  0  0  0
   -1.9835   -1.8537   -0.2836 C   0  0  0  0  0  0  0  0  0  0  0  0
    0.0081    2.0805   -0.0800 C   0  0  0  0  0  0  0  0  0  0  0  0
   -3.0815    1.7366    0.0410 C   0  0  0  0  0  0  0  0  0  0  0  0
   -4.1786   -0.4325   -0.4062 C   0  0  1  0  0  0  0  0  0  0  0  0
    1.4633    2.1750    0.3730 C   0  0  0  0  0  0  0  0  0  0  0  0
    2.5306   -1.5371   -0.2069 C   0  0  0  0  0  0  0  0  0  0  0  0
   -4.4489    1.0756   -0.2211 C   0  0  0  0  0  0  0  0  0  0  0  0
    3.7652    1.1226    0.2124 C   0  0  0  0  0  0  0  0  0  0  0  0
    1.7324   -0.5019    1.9456 C   0  0  0  0  0  0  0  0  0  0  0  0
   -2.9691   -0.7569    1.7638 C   0  0  0  0  0  0  0  0  0  0  0  0
    4.0336   -1.3981    0.0686 C   0  0  0  0  0  0  0  0  0  0  0  0
    4.5885   -0.0387   -0.3482 C   0  0  1  0  0  0  0  0  0  0  0  0
    0.2396   -0.4226   -1.2118 H   0  0  0  0  0  0  0  0  0  0  0  0
   -0.7269    0.7745    1.4367 H   0  0  0  0  0  0  0  0  0  0  0  0
   -1.9421    0.5974   -1.3321 H   0  0  0  0  0  0  0  0  0  0  0  0
    2.1898    0.9622   -1.2087 H   0  0  0  0  0  0  0  0  0  0  0  0
   -0.4980   -2.0170    1.2782 H   0  0  0  0  0  0  0  0  0  0  0  0
    0.0090   -2.6396   -0.2785 H   0  0  0  0  0  0  0  0  0  0  0  0
   -1.9722   -1.8730   -1.3805 H   0  0  0  0  0  0  0  0  0  0  0  0
   -2.4519   -2.7921    0.0368 H   0  0  0  0  0  0  0  0  0  0  0  0
   -0.5459    2.9311    0.3338 H   0  0  0  0  0  0  0  0  0  0  0  0
   -0.0327    2.1806   -1.1723 H   0  0  0  0  0  0  0  0  0  0  0  0
   -2.9307    2.6032   -0.6108 H   0  0  0  0  0  0  0  0  0  0  0  0
   -3.0189    2.0888    1.0768 H   0  0  0  0  0  0  0  0  0  0  0  0
   -4.9604   -1.0468    0.0508 H   0  0  0  0  0  0  0  0  0  0  0  0
    1.8972    3.0969   -0.0334 H   0  0  0  0  0  0  0  0  0  0  0  0
    1.5116    2.2659    1.4640 H   0  0  0  0  0  0  0  0  0  0  0  0
    2.3749   -1.5730   -1.2932 H   0  0  0  0  0  0  0  0  0  0  0  0
    2.2041   -2.5079    0.1842 H   0  0  0  0  0  0  0  0  0  0  0  0
   -5.1004    1.2474    0.6430 H   0  0  0  0  0  0  0  0  0  0  0  0
   -4.9329    1.5163   -1.0993 H   0  0  0  0  0  0  0  0  0  0  0  0
    4.1233    2.0622   -0.2272 H   0  0  0  0  0  0  0  0  0  0  0  0
    3.9199    1.2019    1.2940 H   0  0  0  0  0  0  0  0  0  0  0  0
    1.4103   -1.4930    2.2819 H   0  0  0  0  0  0  0  0  0  0  0  0
    2.7426   -0.3576    2.3383 H   0  0  0  0  0  0  0  0  0  0  0  0
    1.0980    0.2330    2.4468 H   0  0  0  0  0  0  0  0  0  0  0  0
   -3.5152   -1.6738    2.0153 H   0  0  0  0  0  0  0  0  0  0  0  0
   -2.0195   -0.7903    2.3040 H   0  0  0  0  0  0  0  0  0  0  0  0
   -3.5409    0.0781    2.1808 H   0  0  0  0  0  0  0  0  0  0  0  0
    4.2312   -1.5639    1.1335 H   0  0  0  0  0  0  0  0  0  0  0  0
    4.5567   -2.1927   -0.4777 H   0  0  0  0  0  0  0  0  0  0  0  0
    5.6289    0.0478   -0.0160 H   0  0  0  0  0  0  0  0  0  0  0  0
   -3.6719   -0.0372   -2.2709 H   0  0  0  0  0  0  0  0  0  0  0  0
    4.9750    0.8834   -2.0279 H   0  0  0  0  0  0  0  0  0  0  0  0
  1 13  1  0  0  0  0
  1 52  1  0  0  0  0
  2 21  1  0  0  0  0
  2 53  1  0  0  0  0
  3  4  1  0  0  0  0
  3  6  1  0  0  0  0
  3  9  1  0  0  0  0
  3 22  1  0  0  0  0
  4  5  1  0  0  0  0
  4 11  1  0  0  0  0
  4 23  1  0  0  0  0
  5  7  1  0  0  0  0
  5 12  1  0  0  0  0
  5 24  1  0  0  0  0
  6  8  1  0  0  0  0
  6 15  1  0  0  0  0
  6 18  1  0  0  0  0
  7 10  1  0  0  0  0
  7 13  1  0  0  0  0
  7 19  1  0  0  0  0
  8 14  1  0  0  0  0
  8 17  1  0  0  0  0
  8 25  1  0  0  0  0
  9 10  1  0  0  0  0
  9 26  1  0  0  0  0
  9 27  1  0  0  0  0
 10 28  1  0  0  0  0
 10 29  1  0  0  0  0
 11 14  1  0  0  0  0
 11 30  1  0  0  0  0
 11 31  1  0  0  0  0
 12 16  1  0  0  0  0
 12 32  1  0  0  0  0
 12 33  1  0  0  0  0
 13 16  1  0  0  0  0
 13 34  1  0  0  0  0
 14 35  1  0  0  0  0
 14 36  1  0  0  0  0
 15 20  1  0  0  0  0
 15 37  1  0  0  0  0
 15 38  1  0  0  0  0
 16 39  1  0  0  0  0
 16 40  1  0  0  0  0
 17 21  1  0  0  0  0
 17 41  1  0  0  0  0
 17 42  1  0  0  0  0
 18 43  1  0  0  0  0
 18 44  1  0  0  0  0
 18 45  1  0  0  0  0
 19 46  1  0  0  0  0
 19 47  1  0  0  0  0
 19 48  1  0  0  0  0
 20 21  1  0  0  0  0
 20 49  1  0  0  0  0
 20 50  1  0  0  0  0
 21 51  1  0  0  0  0
M  END
> <PUBCHEM_COMPOUND_CID>
441301

> <PUBCHEM_CONFORMER_RMSD>
0.6

> <PUBCHEM_CONFORMER_DIVERSEORDER>
1

> <PUBCHEM_MMFF94_PARTIAL_CHARGES>
6
1 -0.68
13 0.28
2 -0.68
21 0.28
52 0.4
53 0.4

> <PUBCHEM_EFFECTIVE_ROTOR_COUNT>
2.2

> <PUBCHEM_PHARMACOPHORE_FEATURES>
8
1 1 acceptor
1 1 donor
1 2 acceptor
1 2 donor
5 5 7 12 13 16 rings
6 3 4 5 7 9 10 rings
6 3 4 6 8 11 14 rings
6 6 8 15 17 20 21 rings

> <PUBCHEM_HEAVY_ATOM_COUNT>
21

> <PUBCHEM_ATOM_DEF_STEREO_COUNT>
7

> <PUBCHEM_ATOM_UDEF_STEREO_COUNT>
1

> <PUBCHEM_BOND_DEF_STEREO_COUNT>
0

> <PUBCHEM_BOND_UDEF_STEREO_COUNT>
0

> <PUBCHEM_ISOTOPIC_ATOM_COUNT>
0

> <PUBCHEM_COMPONENT_COUNT>
1

> <PUBCHEM_CACTVS_TAUTO_COUNT>
1

> <PUBCHEM_CONFORMER_ID>
0006BBD500000001

> <PUBCHEM_MMFF94_ENERGY>
75.3144

> <PUBCHEM_FEATURE_SELFOVERLAP>
40.683

> <PUBCHEM_SHAPE_FINGERPRINT>
10366900 7 17846501405031468563
10498660 4 18341619234544569845
10967382 1 18410576214397791874
11132069 177 18409173177621144264
11471102 20 18410578370745642012
12011746 2 18412829101086194581
12236239 1 17846500348675352290
12553582 1 18409160009188052648
12670546 56 4678532425819143014
12788726 201 18192996147579697817
13140716 1 17906731397438272321
13221675 6 18342458127583016538
13224815 77 17847063267994192970
13296908 3 18273493451185297475
13583140 156 16988850445001913697
14790565 3 18122054579450888185
15099037 51 18410577318478648125
15163728 17 16126433236143717159
15196674 1 18410576192769987505
15209294 21 12103571917717341879
15309172 13 18334287669715194579
15375358 24 18411140221045108322
15536298 74 18261396611482568512
15788980 27 18408320008195671726
15848702 151 17531517767518280278
16752209 62 18339089275479476017
16945 1 18267020561655083281
17349148 13 17894632547743349375
17804303 29 18408882919299370861
18186145 218 17775571952725637979
19862831 5 18343022189774776712
200 152 17967818236595574157
20645477 70 18339931398180608189
20871999 31 18411979165422884302
21029758 11 18334017193986302593
21267235 1 18410003342938268786
221357 26 18409173212213153621
221490 88 18268424633713969778
23402539 116 18334582373259456390
23493267 7 17988922275458391291
23559900 14 18187654574231560424
2748010 2 18412833468804346121
3004659 81 18200310043831222398
3286 77 16588033398065090882
335352 9 18338236097279258060
34934 24 18411706461154357976
4340502 62 16200142235884116977
474 4 17203317863549409164
4921388 177 16271633512798464729
4990 188 18040713684300679196
5104073 3 18410856568266667912
633830 44 17560797710942910286
7364860 26 18189621549046765648
74978 22 18337958887416166083
7832392 63 18337393747050444752
9709674 26 18265618684540691251
9981440 41 17334775280493617336

> <PUBCHEM_SHAPE_MULTIPOLES>
420.43
8.97
2.06
1.22
1.09
0.39
0.17
-0.28
-2.47
-0.05
0.05
-0.09
-0.29
-0.01

> <PUBCHEM_SHAPE_SELFOVERLAP>
891.128

> <PUBCHEM_SHAPE_VOLUME>
233.2

> <PUBCHEM_COORDINATE_TYPE>
2
5
10

$$$$

