93275
  -OEChem-07051213013D

 37 37  0     1  0  0  0  0  0999 V2000
   -1.5180    2.0307    0.2279 S   0  0  1  0  0  0  0  0  0  0  0  0
    1.2731    2.1890   -0.8877 S   0  0  0  0  0  0  0  0  0  0  0  0
   -1.8962   -1.2293   -0.5614 O   0  0  0  0  0  0  0  0  0  0  0  0
    2.2088   -0.8174    0.5402 O   0  0  0  0  0  0  0  0  0  0  0  0
   -1.4450    2.1678    1.7207 O   0  0  0  0  0  0  0  0  0  0  0  0
   -1.2689   -1.0250    1.6471 O   0  0  0  0  0  0  0  0  0  0  0  0
    1.5920   -1.1744   -1.6518 O   0  0  0  0  0  0  0  0  0  0  0  0
   -0.9822    3.6219   -0.4967 C   0  0  0  0  0  0  0  0  0  0  0  0
    0.5243    3.7604   -0.3559 C   0  0  0  0  0  0  0  0  0  0  0  0
   -0.0032    1.2076   -0.2499 C   0  0  0  0  0  0  0  0  0  0  0  0
    0.0916   -0.1176   -0.1076 C   0  0  0  0  0  0  0  0  0  0  0  0
   -3.0626   -1.9611   -0.1701 C   0  0  0  0  0  0  0  0  0  0  0  0
    3.4723   -1.4437    0.2946 C   0  0  0  0  0  0  0  0  0  0  0  0
   -1.0886   -0.8232    0.4547 C   0  0  0  0  0  0  0  0  0  0  0  0
    1.3674   -0.7528   -0.5264 C   0  0  0  0  0  0  0  0  0  0  0  0
   -3.9011   -1.1036    0.7653 C   0  0  0  0  0  0  0  0  0  0  0  0
   -3.8384   -2.3689   -1.4133 C   0  0  0  0  0  0  0  0  0  0  0  0
    4.1958   -0.6939   -0.8136 C   0  0  0  0  0  0  0  0  0  0  0  0
    4.2790   -1.4663    1.5839 C   0  0  0  0  0  0  0  0  0  0  0  0
   -1.5096    4.4342    0.0117 H   0  0  0  0  0  0  0  0  0  0  0  0
   -1.2852    3.6223   -1.5496 H   0  0  0  0  0  0  0  0  0  0  0  0
    0.9064    4.5863   -0.9624 H   0  0  0  0  0  0  0  0  0  0  0  0
    0.8033    3.9420    0.6878 H   0  0  0  0  0  0  0  0  0  0  0  0
   -2.7475   -2.8767    0.3461 H   0  0  0  0  0  0  0  0  0  0  0  0
    3.2971   -2.4828   -0.0116 H   0  0  0  0  0  0  0  0  0  0  0  0
   -4.9124   -1.5163    0.8571 H   0  0  0  0  0  0  0  0  0  0  0  0
   -3.5115   -1.0548    1.7844 H   0  0  0  0  0  0  0  0  0  0  0  0
   -3.9889   -0.0770    0.3942 H   0  0  0  0  0  0  0  0  0  0  0  0
   -4.7243   -2.9580   -1.1576 H   0  0  0  0  0  0  0  0  0  0  0  0
   -3.2042   -2.9628   -2.0803 H   0  0  0  0  0  0  0  0  0  0  0  0
   -4.1538   -1.4874   -1.9823 H   0  0  0  0  0  0  0  0  0  0  0  0
    5.2586   -0.9613   -0.8253 H   0  0  0  0  0  0  0  0  0  0  0  0
    3.8244   -0.9270   -1.8139 H   0  0  0  0  0  0  0  0  0  0  0  0
    4.1218    0.3902   -0.6764 H   0  0  0  0  0  0  0  0  0  0  0  0
    5.2426   -1.9658    1.4451 H   0  0  0  0  0  0  0  0  0  0  0  0
    3.7244   -1.9887    2.3709 H   0  0  0  0  0  0  0  0  0  0  0  0
    4.4589   -0.4490    1.9488 H   0  0  0  0  0  0  0  0  0  0  0  0
  1  5  2  0  0  0  0
  1  8  1  0  0  0  0
  1 10  1  0  0  0  0
  2  9  1  0  0  0  0
  2 10  1  0  0  0  0
  3 12  1  0  0  0  0
  3 14  1  0  0  0  0
  4 13  1  0  0  0  0
  4 15  1  0  0  0  0
  6 14  2  0  0  0  0
  7 15  2  0  0  0  0
  8  9  1  0  0  0  0
  8 20  1  0  0  0  0
  8 21  1  0  0  0  0
  9 22  1  0  0  0  0
  9 23  1  0  0  0  0
 10 11  2  0  0  0  0
 11 14  1  0  0  0  0
 11 15  1  0  0  0  0
 12 16  1  0  0  0  0
 12 17  1  0  0  0  0
 12 24  1  0  0  0  0
 13 18  1  0  0  0  0
 13 19  1  0  0  0  0
 13 25  1  0  0  0  0
 16 26  1  0  0  0  0
 16 27  1  0  0  0  0
 16 28  1  0  0  0  0
 17 29  1  0  0  0  0
 17 30  1  0  0  0  0
 17 31  1  0  0  0  0
 18 32  1  0  0  0  0
 18 33  1  0  0  0  0
 18 34  1  0  0  0  0
 19 35  1  0  0  0  0
 19 36  1  0  0  0  0
 19 37  1  0  0  0  0
M  END
> <PUBCHEM_COMPOUND_CID>
93275

> <PUBCHEM_CONFORMER_RMSD>
0.8

> <PUBCHEM_CONFORMER_DIVERSEORDER>
10
159
83
67
121
50
129
13
70
162
154
170
134
55
119
147
39
160
151
143
152
88
127
141
89
116
97
167
165
33
118
169
102
108
107
75
6
132
122
113
20
131
163
135
12
48
133
137
61
41
136
8
2
161
27
145
73
111
19
164
112
146
60
43
28
17
115
87
166
34
130
95
11
142
85
158
79
168
125
58
155
35
106
1
49
69
56
15
126
44
78
94
24
103
101
92
149
47
80
71
9
14
140
30
105
124
26
148
77
138
144
59
90
65
157
16
91
52
117
153
37
156
96
31
76
21
29
72
110
22
114
32
99
45
23
128
3
51
150
86
40
5
68
74
100
62
57
42
82
93
120
139
63
123
66
104
4
36
7
109
64
46
25
84
81
38
98
18
53
54

> <PUBCHEM_MMFF94_PARTIAL_CHARGES>
15
1 0.25
10 0.16
11 0.03
12 0.28
13 0.28
14 0.71
15 0.71
2 -0.33
3 -0.43
4 -0.43
5 -0.5
6 -0.57
7 -0.57
8 0.19
9 0.23

> <PUBCHEM_EFFECTIVE_ROTOR_COUNT>
6.6

> <PUBCHEM_PHARMACOPHORE_FEATURES>
7
1 11 anion
1 5 acceptor
1 6 acceptor
1 7 acceptor
3 12 16 17 hydrophobe
3 13 18 19 hydrophobe
5 1 2 8 9 10 rings

> <PUBCHEM_HEAVY_ATOM_COUNT>
19

> <PUBCHEM_ATOM_DEF_STEREO_COUNT>
0

> <PUBCHEM_ATOM_UDEF_STEREO_COUNT>
1

> <PUBCHEM_BOND_DEF_STEREO_COUNT>
0

> <PUBCHEM_BOND_UDEF_STEREO_COUNT>
0

> <PUBCHEM_ISOTOPIC_ATOM_COUNT>
0

> <PUBCHEM_COMPONENT_COUNT>
1

> <PUBCHEM_CACTVS_TAUTO_COUNT>
1

> <PUBCHEM_CONFORMER_ID>
00016C5B0000000A

> <PUBCHEM_MMFF94_ENERGY>
50.23

> <PUBCHEM_FEATURE_SELFOVERLAP>
35.52

> <PUBCHEM_SHAPE_FINGERPRINT>
10989021 7 18339071610178728168
11265709 11 18411983546184173946
11578080 2 17677347025750782681
11833330 49 18341057418547086081
12553582 1 18411974745870472726
12592029 89 17546725950397738875
12788726 201 18271798085885928170
13004483 165 18338818778439628570
13009979 54 17896022262090919603
13083527 12 18262530173563269502
13134695 92 18269286663862838879
13140716 1 18412258467162331337
13294875 104 17395301213189126081
13583140 156 17753360796196942818
13681431 1 18192994824813354087
14178000 22 17692263245095161452
14178342 30 17983310506156428586
14181834 199 18195524783867950967
15042514 8 18125437759364088577
16945 1 18051680341782530244
17539 30 18266193883640594933
1813 80 18335697217672994495
18222031 100 18260835843235741118
20097449 115 18410854330578195215
20600515 1 18334859381191032979
20626108 58 18042977462731362231
20671657 53 18339648845288581503
21041028 32 18341037550534562673
21304303 282 17477527494440017677
21452121 199 18263653865793748417
21524375 3 17407397404699946216
22112679 90 18266716100082132060
23388829 49 18263354802920848348
23402539 116 18409176523158496839
23419403 2 17899450577742561433
23526113 38 17915187801977107019
23557571 272 18188200022361724318
23598291 2 18043521725529725759
25 1 17618493290888785293
257057 1 18411706464980138669
3091708 16 8993096351699453328
3729539 64 8572215541966593368
6442390 28 17541370684388803513
7364860 26 18051129194409495517
7471813 234 18336837376765479207
81228 2 18264190573586772571
90316 7 18339079397049219178
9981440 41 17116646986605403792

> <PUBCHEM_SHAPE_MULTIPOLES>
369.36
6.55
4.09
1.39
2.25
4.93
0.21
-7.3
0.3
-1.31
-0.47
0.04
-0.41
-1.27

> <PUBCHEM_SHAPE_SELFOVERLAP>
716.779

> <PUBCHEM_SHAPE_VOLUME>
224.5

> <PUBCHEM_COORDINATE_TYPE>
2
5
10

$$$$

