54691343
  -OEChem-07051213033D

 21 22  0     0  0  0  0  0  0999 V2000
   -0.5679   -1.5951    0.0324 O   0  0  0  0  0  0  0  0  0  0  0  0
   -1.3567    2.5071    0.0298 O   0  0  0  0  0  0  0  0  0  0  0  0
    4.1345   -0.8031   -0.0044 O   0  0  0  0  0  0  0  0  0  0  0  0
   -2.7990   -2.0405   -0.0407 O   0  0  0  0  0  0  0  0  0  0  0  0
   -3.5086    0.5754   -0.0116 N   0  0  0  0  0  0  0  0  0  0  0  0
    0.2319    0.7070    0.0085 C   0  0  0  0  0  0  0  0  0  0  0  0
    0.4869   -0.6632    0.0270 C   0  0  0  0  0  0  0  0  0  0  0  0
   -1.1698    1.1404    0.0160 C   0  0  0  0  0  0  0  0  0  0  0  0
    1.3379    1.5672   -0.0331 C   0  0  0  0  0  0  0  0  0  0  0  0
   -2.1789    0.2537   -0.0029 C   0  0  0  0  0  0  0  0  0  0  0  0
    1.7815   -1.1865    0.0263 C   0  0  0  0  0  0  0  0  0  0  0  0
    2.8646   -0.3157   -0.0024 C   0  0  0  0  0  0  0  0  0  0  0  0
    2.6430    1.0593   -0.0355 C   0  0  0  0  0  0  0  0  0  0  0  0
   -1.8993   -1.2062   -0.0095 C   0  0  0  0  0  0  0  0  0  0  0  0
    1.2036    2.6461   -0.0589 H   0  0  0  0  0  0  0  0  0  0  0  0
    1.9406   -2.2610    0.0432 H   0  0  0  0  0  0  0  0  0  0  0  0
    3.4789    1.7538   -0.0632 H   0  0  0  0  0  0  0  0  0  0  0  0
   -3.8121    1.5397   -0.0076 H   0  0  0  0  0  0  0  0  0  0  0  0
   -4.2014   -0.1632   -0.0235 H   0  0  0  0  0  0  0  0  0  0  0  0
   -2.3099    2.6913    0.0322 H   0  0  0  0  0  0  0  0  0  0  0  0
    4.7584   -0.0572   -0.0275 H   0  0  0  0  0  0  0  0  0  0  0  0
  1  7  1  0  0  0  0
  1 14  1  0  0  0  0
  2  8  1  0  0  0  0
  2 20  1  0  0  0  0
  3 12  1  0  0  0  0
  3 21  1  0  0  0  0
  4 14  2  0  0  0  0
  5 10  1  0  0  0  0
  5 18  1  0  0  0  0
  5 19  1  0  0  0  0
  6  7  2  0  0  0  0
  6  8  1  0  0  0  0
  6  9  1  0  0  0  0
  7 11  1  0  0  0  0
  8 10  2  0  0  0  0
  9 13  2  0  0  0  0
  9 15  1  0  0  0  0
 10 14  1  0  0  0  0
 11 12  2  0  0  0  0
 11 16  1  0  0  0  0
 12 13  1  0  0  0  0
 13 17  1  0  0  0  0
M  END
> <PUBCHEM_COMPOUND_CID>
54691343

> <PUBCHEM_CONFORMER_RMSD>
0.4

> <PUBCHEM_CONFORMER_DIVERSEORDER>
1

> <PUBCHEM_MMFF94_PARTIAL_CHARGES>
21
1 -0.23
10 0.11
11 -0.15
12 0.08
13 -0.15
14 0.71
15 0.15
16 0.15
17 0.15
18 0.4
19 0.4
2 -0.53
20 0.45
21 0.45
3 -0.53
4 -0.57
5 -0.9
6 0.03
7 0.08
8 0.05
9 -0.15

> <PUBCHEM_EFFECTIVE_ROTOR_COUNT>
0

> <PUBCHEM_PHARMACOPHORE_FEATURES>
7
1 2 donor
1 3 donor
1 4 acceptor
1 5 cation
1 5 donor
6 1 6 7 8 10 14 rings
6 6 7 9 11 12 13 rings

> <PUBCHEM_HEAVY_ATOM_COUNT>
14

> <PUBCHEM_ATOM_DEF_STEREO_COUNT>
0

> <PUBCHEM_ATOM_UDEF_STEREO_COUNT>
0

> <PUBCHEM_BOND_DEF_STEREO_COUNT>
0

> <PUBCHEM_BOND_UDEF_STEREO_COUNT>
0

> <PUBCHEM_ISOTOPIC_ATOM_COUNT>
0

> <PUBCHEM_COMPONENT_COUNT>
1

> <PUBCHEM_CACTVS_TAUTO_COUNT>
23

> <PUBCHEM_CONFORMER_ID>
0342860F00000001

> <PUBCHEM_MMFF94_ENERGY>
45.4828

> <PUBCHEM_FEATURE_SELFOVERLAP>
35.548

> <PUBCHEM_SHAPE_FINGERPRINT>
10608611 8 18409453565776281312
10967382 1 18338516455553863395
11132069 177 18408890633076186112
11769659 78 18411705348494246502
12032990 46 18339919303737435851
12932764 1 17417823845632139860
13140716 1 18410290272575901009
13380535 76 18336266855043210087
14325111 11 18410855417289447020
14911166 2 18339368555928222253
15196674 1 18410855425768423428
15536298 74 18334857169736250784
15775835 57 18343578564217624924
16945 1 18410574036701634176
17804303 29 18335698356181738390
193761 8 17546165667492277633
19973954 147 18410572868697473948
20201158 50 18335138721574057918
20871998 184 18187081741389339159
21267235 1 18411128113353303479
21501502 16 18338794516174128492
2334 1 18194682566487672587
23402539 116 18261685864797968293
23463225 33 18412261696908724212
23552423 10 18200313216972881294
23559900 14 18334861654119730410
2748010 2 18265899055499680405
3312278 4 18412261718325551434
5104073 3 18410293579922285034
528886 8 18410016541377797467
7364860 26 18191304880100926752
8809292 202 18343298158703920258

> <PUBCHEM_SHAPE_MULTIPOLES>
259.66
5.24
2.07
0.58
1.42
0.33
0
-1.04
-0.05
-0.82
0
0.03
0.01
-0.04

> <PUBCHEM_SHAPE_SELFOVERLAP>
571.011

> <PUBCHEM_SHAPE_VOLUME>
139.4

> <PUBCHEM_COORDINATE_TYPE>
2
5
10

$$$$

