11954119
  -OEChem-07051213063D

 23 24  0     0  0  0  0  0  0999 V2000
   -1.0658    2.5320    0.0009 Cl  0  0  0  0  0  0  0  0  0  0  0  0
    4.5801   -0.0504   -0.0011 O   0  0  0  0  0  0  0  0  0  0  0  0
    0.4310   -0.1650    0.0005 C   0  0  0  0  0  0  0  0  0  0  0  0
   -1.0149   -0.2047    0.0009 C   0  0  0  0  0  0  0  0  0  0  0  0
    1.1276   -0.1451   -1.2077 C   0  0  0  0  0  0  0  0  0  0  0  0
    1.1286   -0.1463    1.2083 C   0  0  0  0  0  0  0  0  0  0  0  0
   -1.7867    0.9599    0.0006 C   0  0  0  0  0  0  0  0  0  0  0  0
   -1.6443   -1.4518    0.0004 C   0  0  0  0  0  0  0  0  0  0  0  0
    2.5219   -0.1067   -1.2082 C   0  0  0  0  0  0  0  0  0  0  0  0
    2.5230   -0.1078    1.2079 C   0  0  0  0  0  0  0  0  0  0  0  0
    3.2197   -0.0880   -0.0005 C   0  0  0  0  0  0  0  0  0  0  0  0
   -3.1793    0.8776   -0.0006 C   0  0  0  0  0  0  0  0  0  0  0  0
   -3.0368   -1.5341   -0.0005 C   0  0  0  0  0  0  0  0  0  0  0  0
   -3.8042   -0.3695   -0.0010 C   0  0  0  0  0  0  0  0  0  0  0  0
    0.5992   -0.1588   -2.1581 H   0  0  0  0  0  0  0  0  0  0  0  0
    0.6010   -0.1610    2.1591 H   0  0  0  0  0  0  0  0  0  0  0  0
   -1.0640   -2.3720    0.0005 H   0  0  0  0  0  0  0  0  0  0  0  0
    3.0529   -0.0914   -2.1562 H   0  0  0  0  0  0  0  0  0  0  0  0
    3.0610   -0.0932    2.1519 H   0  0  0  0  0  0  0  0  0  0  0  0
   -3.7926    1.7751   -0.0010 H   0  0  0  0  0  0  0  0  0  0  0  0
   -3.5236   -2.5049   -0.0010 H   0  0  0  0  0  0  0  0  0  0  0  0
   -4.8884   -0.4338   -0.0019 H   0  0  0  0  0  0  0  0  0  0  0  0
    4.8947   -0.0413   -0.9214 H   0  0  0  0  0  0  0  0  0  0  0  0
  1  7  1  0  0  0  0
  2 11  1  0  0  0  0
  2 23  1  0  0  0  0
  3  4  1  0  0  0  0
  3  5  2  0  0  0  0
  3  6  1  0  0  0  0
  4  7  1  0  0  0  0
  4  8  2  0  0  0  0
  5  9  1  0  0  0  0
  5 15  1  0  0  0  0
  6 10  2  0  0  0  0
  6 16  1  0  0  0  0
  7 12  2  0  0  0  0
  8 13  1  0  0  0  0
  8 17  1  0  0  0  0
  9 11  2  0  0  0  0
  9 18  1  0  0  0  0
 10 11  1  0  0  0  0
 10 19  1  0  0  0  0
 12 14  1  0  0  0  0
 12 20  1  0  0  0  0
 13 14  2  0  0  0  0
 13 21  1  0  0  0  0
 14 22  1  0  0  0  0
M  END
> <PUBCHEM_COMPOUND_CID>
11954119

> <PUBCHEM_CONFORMER_RMSD>
0.4

> <PUBCHEM_CONFORMER_DIVERSEORDER>
1
2
3

> <PUBCHEM_MMFF94_PARTIAL_CHARGES>
21
1 -0.18
10 -0.15
11 0.08
12 -0.15
13 -0.15
14 -0.15
15 0.15
16 0.15
17 0.15
18 0.15
19 0.15
2 -0.53
20 0.15
21 0.15
22 0.15
23 0.45
5 -0.15
6 -0.15
7 0.18
8 -0.15
9 -0.15

> <PUBCHEM_EFFECTIVE_ROTOR_COUNT>
1

> <PUBCHEM_PHARMACOPHORE_FEATURES>
3
1 2 donor
6 3 5 6 9 10 11 rings
6 4 7 8 12 13 14 rings

> <PUBCHEM_HEAVY_ATOM_COUNT>
14

> <PUBCHEM_ATOM_DEF_STEREO_COUNT>
0

> <PUBCHEM_ATOM_UDEF_STEREO_COUNT>
0

> <PUBCHEM_BOND_DEF_STEREO_COUNT>
0

> <PUBCHEM_BOND_UDEF_STEREO_COUNT>
0

> <PUBCHEM_ISOTOPIC_ATOM_COUNT>
0

> <PUBCHEM_COMPONENT_COUNT>
1

> <PUBCHEM_CACTVS_TAUTO_COUNT>
2

> <PUBCHEM_CONFORMER_ID>
00B667C700000001

> <PUBCHEM_MMFF94_ENERGY>
42.4044

> <PUBCHEM_FEATURE_SELFOVERLAP>
15.223

> <PUBCHEM_SHAPE_FINGERPRINT>
11578080 2 5976116567723728515
12236239 1 17703791418301000707
13538477 17 18130792265116898443
13581323 91 18412548721051863450
14144814 61 17632579361457872115
14614273 12 18198907092426237741
14993402 34 17418376882848807094
15219456 202 17676202506817443078
15375462 189 17989203733508427193
15653759 3 18186242827012861642
15775835 57 17917711344002312125
16945 1 18410856585826389701
17844478 74 17676203580538226513
18175812 5 17749112153605177061
18186145 218 16845290510240257118
19049666 15 17678449994452262614
19868273 325 18411981343224575805
200 152 16630529514110179611
20201158 50 17458060477829752814
20279233 1 17676485046967304623
20344682 1 17821729433484808685
20510252 161 18335137656617529401
20645477 70 16154265155953748916
22094290 60 18408600374938847212
22802520 49 17824532204535307597
2297311 6 18335689551451315636
23402539 116 18335710446282574941
23557571 272 18260542346756052524
23559900 14 18261954163031260086
2748010 2 18193006932632376497
474 4 17201910424183772676
5902787 121 18268993077331632171
7364860 26 17973443196371026249
77492 1 17704071802287374915
81228 2 18336813299558866129

> <PUBCHEM_SHAPE_MULTIPOLES>
284.11
6.6
1.59
1.04
2.41
0.87
0
-0.96
0
-1.57
0
0.78
-0.05
0

> <PUBCHEM_SHAPE_SELFOVERLAP>
610.175

> <PUBCHEM_SHAPE_VOLUME>
158

> <PUBCHEM_COORDINATE_TYPE>
2
5
10

$$$$

