20802017
  -OEChem-07051213093D

 22 21  0     1  0  0  0  0  0999 V2000
    2.2567   -1.5170   -1.0945 O   0  0  0  0  0  0  0  0  0  0  0  0
   -4.0029    1.0205    0.2147 O   0  0  0  0  0  0  0  0  0  0  0  0
   -3.4096   -1.1103   -0.2991 O   0  0  0  0  0  0  0  0  0  0  0  0
    2.7015    2.0716    0.6457 O   0  0  0  0  0  0  0  0  0  0  0  0
    1.1562    0.9349   -0.6915 N   0  0  0  0  0  0  0  0  0  0  0  0
    2.0788   -1.9407    1.1560 N   0  0  0  0  0  0  0  0  0  0  0  0
    0.7884   -0.1129    0.2304 C   0  0  1  0  0  0  0  0  0  0  0  0
   -0.6493   -0.5782   -0.0173 C   0  0  0  0  0  0  0  0  0  0  0  0
   -1.6824    0.5227    0.2300 C   0  0  0  0  0  0  0  0  0  0  0  0
    1.7853   -1.2400    0.0064 C   0  0  0  0  0  0  0  0  0  0  0  0
   -3.0952    0.0298    0.0129 C   0  0  0  0  0  0  0  0  0  0  0  0
    2.0727    1.9196   -0.3937 C   0  0  0  0  0  0  0  0  0  0  0  0
    0.8941    0.2684    1.2533 H   0  0  0  0  0  0  0  0  0  0  0  0
   -0.7517   -0.9502   -1.0459 H   0  0  0  0  0  0  0  0  0  0  0  0
   -0.8679   -1.4353    0.6332 H   0  0  0  0  0  0  0  0  0  0  0  0
   -1.6023    0.8802    1.2625 H   0  0  0  0  0  0  0  0  0  0  0  0
   -1.5138    1.3618   -0.4535 H   0  0  0  0  0  0  0  0  0  0  0  0
    0.7654    0.9135   -1.6294 H   0  0  0  0  0  0  0  0  0  0  0  0
    1.6671   -1.7106    2.0547 H   0  0  0  0  0  0  0  0  0  0  0  0
    2.7241   -2.7234    1.1385 H   0  0  0  0  0  0  0  0  0  0  0  0
    2.1998    2.6010   -1.2511 H   0  0  0  0  0  0  0  0  0  0  0  0
   -4.9224    0.7070    0.0782 H   0  0  0  0  0  0  0  0  0  0  0  0
  1 10  2  0  0  0  0
  2 11  1  0  0  0  0
  2 22  1  0  0  0  0
  3 11  2  0  0  0  0
  4 12  2  0  0  0  0
  5  7  1  0  0  0  0
  5 12  1  0  0  0  0
  5 18  1  0  0  0  0
  6 10  1  0  0  0  0
  6 19  1  0  0  0  0
  6 20  1  0  0  0  0
  7  8  1  0  0  0  0
  7 10  1  0  0  0  0
  7 13  1  0  0  0  0
  8  9  1  0  0  0  0
  8 14  1  0  0  0  0
  8 15  1  0  0  0  0
  9 11  1  0  0  0  0
  9 16  1  0  0  0  0
  9 17  1  0  0  0  0
 12 21  1  0  0  0  0
M  END
> <PUBCHEM_COMPOUND_CID>
20802017

> <PUBCHEM_CONFORMER_RMSD>
0.6

> <PUBCHEM_CONFORMER_DIVERSEORDER>
1
394
244
208
362
407
160
148
349
60
146
175
317
209
216
23
298
342
2
167
309
173
116
120
180
375
337
374
193
99
20
249
104
215
268
290
390
88
320
300
90
61
291
370
399
139
71
400
174
204
55
217
228
48
136
408
152
360
308
257
7
405
73
332
155
361
30
121
77
284
184
385
59
355
263
314
12
169
345
149
72
350
401
64
182
368
388
14
352
141
301
354
172
293
96
340
386
89
197
26
256
357
87
5
36
143
295
18
382
3
154
312
54
409
335
150
411
239
52
376
235
403
270
84
200
4
310
45
49
10
346
85
303
336
162
373
56
195
410
358
404
114
37
159
288
16
177
348
127
283
95
246
97
62
67
27
245
163
329
224
383
377
328
321
221
240
158
325
319
294
273
32
281
128
359
264
11
351
133
225
331
110
395
213
35
305
296
248
51
92
118
75
272
323
190
339
367
144
392
31
324
124
211
123
219
402
9
112
236
147
289
231
198
378
277
353
115
234
326
29
330
66
50
6
191
297
189
232
230
269
105
238
218
260
322
126
237
86
280
19
210
302
113
129
161
199
347
413
134
251
68
170
117
389
25
132
285
250
153
258
391
206
81
83
93
212
356
82
229
261
41
44
271
203
157
33
47
138
333
111
243
406
343
125
34
46
412
145
103
78
318
327
165
363
214
28
220
205
380
396
381
369
222
183
186
8
80
316
21
102
278
282
299
178
397
344
247
135
227
187
366
266
79
275
107
171
24
13
255
233
259
130
379
122
365
101
108
313
274
22
384
304
265
276
142
74
94
17
226
393
76
292
286
387
176
151
58
192
63
371
253
306
252
341
39
70
194
188
38
65
109
181
262
202
15
156
207
223
100
137
98
279
140
166
315
307
242
106
398
43
42
201
267
164
57
338
69
91
334
185
40
131
287
311
414
168
53
196
179
372
119
364
241
254

> <PUBCHEM_MMFF94_PARTIAL_CHARGES>
16
1 -0.57
10 0.57
11 0.66
12 0.57
18 0.37
19 0.37
2 -0.65
20 0.37
21 0.06
22 0.5
3 -0.57
4 -0.57
5 -0.73
6 -0.8
7 0.36
9 0.06

> <PUBCHEM_EFFECTIVE_ROTOR_COUNT>
6

> <PUBCHEM_PHARMACOPHORE_FEATURES>
7
1 1 acceptor
1 2 acceptor
1 3 acceptor
1 4 acceptor
1 5 donor
1 6 donor
3 2 3 11 anion

> <PUBCHEM_HEAVY_ATOM_COUNT>
12

> <PUBCHEM_ATOM_DEF_STEREO_COUNT>
0

> <PUBCHEM_ATOM_UDEF_STEREO_COUNT>
1

> <PUBCHEM_BOND_DEF_STEREO_COUNT>
0

> <PUBCHEM_BOND_UDEF_STEREO_COUNT>
0

> <PUBCHEM_ISOTOPIC_ATOM_COUNT>
0

> <PUBCHEM_COMPONENT_COUNT>
1

> <PUBCHEM_CACTVS_TAUTO_COUNT>
4

> <PUBCHEM_CONFORMER_ID>
013D69E100000001

> <PUBCHEM_MMFF94_ENERGY>
16.2751

> <PUBCHEM_FEATURE_SELFOVERLAP>
35.579

> <PUBCHEM_SHAPE_FINGERPRINT>
12932764 1 18060418058099601511
13380535 76 18268713796782535858
13380536 305 18409440418786423318
14325111 11 18409727344572095405
161256 15 18271526493713654116
17041 49 18268151048724063753
17041 50 18264483077844106357
170605 34 18337952273055753852
18186145 218 18272931652710275183
20645477 70 18408887339290282183
20653091 64 18410008879425147376
20711985 327 18266746959701806738
20871998 22 18121220041735346918
21524375 3 18122347874271912756
2255824 54 18272364286945203438
230 275 18059852827001685236
23552423 10 18412545414222535595
3248919 1 17749107829126952439
7364860 26 18260827103087433036
81539 233 18271530780122605468
9939556 21 18336547200717633471

> <PUBCHEM_SHAPE_MULTIPOLES>
213.52
5.76
2.08
0.84
6
0.29
-0.01
0.78
-0.13
-2.17
-0.17
-0.49
-0.19
-0.16

> <PUBCHEM_SHAPE_SELFOVERLAP>
410.304

> <PUBCHEM_SHAPE_VOLUME>
128.4

> <PUBCHEM_COORDINATE_TYPE>
2
5
10

$$$$

