4724
  -OEChem-06261200183D

 50 51  0     1  0  0  0  0  0999 V2000
   -0.2632   -0.8982    1.3119 O   0  0  0  0  0  0  0  0  0  0  0  0
    1.6801   -0.2262    3.1837 O   0  0  0  0  0  0  0  0  0  0  0  0
    2.8397   -0.5231   -0.3168 N   0  0  0  0  0  0  0  0  0  0  0  0
   -1.6651    1.1500   -0.1254 C   0  0  0  0  0  0  0  0  0  0  0  0
   -2.5176    2.1216   -0.9496 C   0  0  0  0  0  0  0  0  0  0  0  0
   -1.9906    1.5852    1.3134 C   0  0  0  0  0  0  0  0  0  0  0  0
   -2.3253    3.4481   -0.2318 C   0  0  0  0  0  0  0  0  0  0  0  0
   -2.2778    3.0860    1.2478 C   0  0  0  0  0  0  0  0  0  0  0  0
   -1.8631   -0.3287   -0.3799 C   0  0  0  0  0  0  0  0  0  0  0  0
   -1.1563   -1.2814    0.3473 C   0  0  0  0  0  0  0  0  0  0  0  0
   -2.7689   -0.7368   -1.3589 C   0  0  0  0  0  0  0  0  0  0  0  0
    3.2682    0.4890   -1.2879 C   0  0  0  0  0  0  0  0  0  0  0  0
    2.0399   -0.9280    1.9902 C   0  0  2  0  0  0  0  0  0  0  0  0
    2.4891    0.0994    0.9484 C   0  0  0  0  0  0  0  0  0  0  0  0
    0.8446   -1.7641    1.5387 C   0  0  0  0  0  0  0  0  0  0  0  0
   -1.3465   -2.6385    0.1049 C   0  0  0  0  0  0  0  0  0  0  0  0
   -2.9635   -2.0958   -1.6061 C   0  0  0  0  0  0  0  0  0  0  0  0
    4.4973    1.2272   -0.7446 C   0  0  0  0  0  0  0  0  0  0  0  0
    2.1156    1.4748   -1.5062 C   0  0  0  0  0  0  0  0  0  0  0  0
    3.6156   -0.2138   -2.6047 C   0  0  0  0  0  0  0  0  0  0  0  0
   -2.2522   -3.0466   -0.8742 C   0  0  0  0  0  0  0  0  0  0  0  0
   -0.6115    1.3806   -0.3276 H   0  0  0  0  0  0  0  0  0  0  0  0
   -2.2038    2.1755   -1.9969 H   0  0  0  0  0  0  0  0  0  0  0  0
   -3.5828    1.8609   -0.9179 H   0  0  0  0  0  0  0  0  0  0  0  0
   -2.8759    1.0595    1.6932 H   0  0  0  0  0  0  0  0  0  0  0  0
   -1.1690    1.3790    2.0069 H   0  0  0  0  0  0  0  0  0  0  0  0
   -1.3729    3.9007   -0.5330 H   0  0  0  0  0  0  0  0  0  0  0  0
   -3.1212    4.1636   -0.4586 H   0  0  0  0  0  0  0  0  0  0  0  0
   -3.2341    3.3071    1.7347 H   0  0  0  0  0  0  0  0  0  0  0  0
   -1.5059    3.6659    1.7647 H   0  0  0  0  0  0  0  0  0  0  0  0
   -3.3362   -0.0377   -1.9635 H   0  0  0  0  0  0  0  0  0  0  0  0
    2.8774   -1.5915    2.2373 H   0  0  0  0  0  0  0  0  0  0  0  0
    3.3313    0.6336    1.4011 H   0  0  0  0  0  0  0  0  0  0  0  0
    1.6757    0.8255    0.8566 H   0  0  0  0  0  0  0  0  0  0  0  0
    1.1310   -2.3321    0.6451 H   0  0  0  0  0  0  0  0  0  0  0  0
    0.5667   -2.4638    2.3360 H   0  0  0  0  0  0  0  0  0  0  0  0
    3.5842   -1.2043   -0.1698 H   0  0  0  0  0  0  0  0  0  0  0  0
   -0.8412   -3.4136    0.6728 H   0  0  0  0  0  0  0  0  0  0  0  0
   -3.6677   -2.4143   -2.3692 H   0  0  0  0  0  0  0  0  0  0  0  0
    4.2654    1.9263    0.0655 H   0  0  0  0  0  0  0  0  0  0  0  0
    4.9553    1.8314   -1.5378 H   0  0  0  0  0  0  0  0  0  0  0  0
    5.2676    0.5304   -0.3934 H   0  0  0  0  0  0  0  0  0  0  0  0
    2.3311    2.1164   -2.3702 H   0  0  0  0  0  0  0  0  0  0  0  0
    1.1795    0.9523   -1.7335 H   0  0  0  0  0  0  0  0  0  0  0  0
    1.9481    2.1589   -0.6685 H   0  0  0  0  0  0  0  0  0  0  0  0
    4.4341   -0.9309   -2.4715 H   0  0  0  0  0  0  0  0  0  0  0  0
    3.9300    0.5075   -3.3678 H   0  0  0  0  0  0  0  0  0  0  0  0
    2.7537   -0.7615   -3.0037 H   0  0  0  0  0  0  0  0  0  0  0  0
   -2.4095   -4.1047   -1.0623 H   0  0  0  0  0  0  0  0  0  0  0  0
    1.4277   -0.8895    3.8484 H   0  0  0  0  0  0  0  0  0  0  0  0
  1 10  1  0  0  0  0
  1 15  1  0  0  0  0
  2 13  1  0  0  0  0
  2 50  1  0  0  0  0
  3 12  1  0  0  0  0
  3 14  1  0  0  0  0
  3 37  1  0  0  0  0
  4  5  1  0  0  0  0
  4  6  1  0  0  0  0
  4  9  1  0  0  0  0
  4 22  1  0  0  0  0
  5  7  1  0  0  0  0
  5 23  1  0  0  0  0
  5 24  1  0  0  0  0
  6  8  1  0  0  0  0
  6 25  1  0  0  0  0
  6 26  1  0  0  0  0
  7  8  1  0  0  0  0
  7 27  1  0  0  0  0
  7 28  1  0  0  0  0
  8 29  1  0  0  0  0
  8 30  1  0  0  0  0
  9 10  1  0  0  0  0
  9 11  2  0  0  0  0
 10 16  2  0  0  0  0
 11 17  1  0  0  0  0
 11 31  1  0  0  0  0
 12 18  1  0  0  0  0
 12 19  1  0  0  0  0
 12 20  1  0  0  0  0
 13 14  1  0  0  0  0
 13 15  1  0  0  0  0
 13 32  1  0  0  0  0
 14 33  1  0  0  0  0
 14 34  1  0  0  0  0
 15 35  1  0  0  0  0
 15 36  1  0  0  0  0
 16 21  1  0  0  0  0
 16 38  1  0  0  0  0
 17 21  2  0  0  0  0
 17 39  1  0  0  0  0
 18 40  1  0  0  0  0
 18 41  1  0  0  0  0
 18 42  1  0  0  0  0
 19 43  1  0  0  0  0
 19 44  1  0  0  0  0
 19 45  1  0  0  0  0
 20 46  1  0  0  0  0
 20 47  1  0  0  0  0
 20 48  1  0  0  0  0
 21 49  1  0  0  0  0
M  END
> <PUBCHEM_COMPOUND_CID>
4724

> <PUBCHEM_CONFORMER_RMSD>
0.8

> <PUBCHEM_CONFORMER_DIVERSEORDER>
3
175
189
103
76
130
174
203
5
135
199
4
14
112
23
172
57
164
177
192
78
77
113
148
128
93
26
121
155
209
8
114
210
70
108
131
124
215
202
54
106
190
48
39
150
100
18
160
109
55
71
63
20
141
204
122
134
56
212
75
156
143
133
9
119
136
168
165
187
169
129
180
158
170
35
68
95
105
84
74
98
167
208
30
89
43
152
147
216
51
127
102
79
184
201
196
29
27
120
115
96
137
138
191
50
118
59
17
37
182
72
60
185
80
12
116
21
94
194
145
178
16
162
126
111
154
88
6
151
83
195
19
104
90
64
214
1
69
62
91
153
171
87
159
157
61
186
65
58
38
92
36
205
193
206
181
31
211
34
173
132
41
47
163
161
123
40
85
213
86
24
142
44
149
10
66
188
73
11
110
176
32
179
67
207
7
144
45
125
33
28
2
107
25
13
97
101
53
49
139
140
82
46
200
52
197
198
183
15
22
81
42
99
117
146
166

> <PUBCHEM_MMFF94_PARTIAL_CHARGES>
20
1 -0.36
10 0.08
11 -0.15
12 0.27
13 0.28
14 0.27
15 0.28
16 -0.15
17 -0.15
2 -0.68
21 -0.15
3 -0.9
31 0.15
37 0.36
38 0.15
39 0.15
4 0.14
49 0.15
50 0.4
9 -0.14

> <PUBCHEM_EFFECTIVE_ROTOR_COUNT>
8

> <PUBCHEM_PHARMACOPHORE_FEATURES>
8
1 1 acceptor
1 2 acceptor
1 2 donor
1 3 cation
1 3 donor
4 12 18 19 20 hydrophobe
5 4 5 6 7 8 rings
6 9 10 11 16 17 21 rings

> <PUBCHEM_HEAVY_ATOM_COUNT>
21

> <PUBCHEM_ATOM_DEF_STEREO_COUNT>
0

> <PUBCHEM_ATOM_UDEF_STEREO_COUNT>
1

> <PUBCHEM_BOND_DEF_STEREO_COUNT>
0

> <PUBCHEM_BOND_UDEF_STEREO_COUNT>
0

> <PUBCHEM_ISOTOPIC_ATOM_COUNT>
0

> <PUBCHEM_COMPONENT_COUNT>
1

> <PUBCHEM_CACTVS_TAUTO_COUNT>
1

> <PUBCHEM_CONFORMER_ID>
0000127400000003

> <PUBCHEM_MMFF94_ENERGY>
54.7301

> <PUBCHEM_FEATURE_SELFOVERLAP>
40.599

> <PUBCHEM_SHAPE_FINGERPRINT>
10764073 3 15287846639625075275
11578080 2 16950836994961360089
11640471 11 18059584632185134096
12035759 4 18201165373065685879
12539773 59 17699260214882175927
12788726 201 18410019810317323743
128993 33 17988345070667127004
13009979 54 17985296099106106242
133893 2 16916799521312206882
13681431 1 17540264146615809531
13965767 371 16972845120471681865
14123250 116 18200861903561816156
14251751 93 18269256019234297252
15475509 8 18041836208970402191
15534591 1 18129080346981987018
15664445 248 17900834755486630447
16752209 62 18337123344810633829
17357990 137 18057613272319122202
1813 80 17826524262498176359
192875 21 17845109380419124684
20600515 1 17754760233500742259
20642791 239 17915186715482198061
20905425 154 17760683298223154945
21475661 188 15192497124070503277
21756936 100 17630576039083540516
23419403 2 16475126477660482635
235170 7 17750227020421603116
23526113 38 16733271243589989386
23557571 272 18041858198221190803
238 59 16558480681715813046
2637199 183 17982706843743316620
469060 322 15265073386532220395
5262128 65 18193543472641874196
621550 5 17242994788098282878
6786 2 17465058977231499515
6992083 37 17695943254515366058
81228 2 18187660067768694411

> <PUBCHEM_SHAPE_MULTIPOLES>
415.45
6.52
3.65
2.42
6.34
1.17
0.85
1.54
-3.43
-4.78
-0.13
1.88
-0.42
-1.72

> <PUBCHEM_SHAPE_SELFOVERLAP>
848.618

> <PUBCHEM_SHAPE_VOLUME>
243.6

> <PUBCHEM_COORDINATE_TYPE>
2
5
10

$$$$

