5280595
  -OEChem-07051212482D

 17 16  0     0  0  0  0  0  0999 V2000
    6.8671   -0.2500    0.0000 O   0  0  0  0  0  0  0  0  0  0  0  0
    6.8671    1.7500    0.0000 O   0  0  0  0  0  0  0  0  0  0  0  0
    2.5369   -1.7500    0.0000 O   0  0  0  0  0  0  0  0  0  0  0  0
    5.1350    1.7500    0.0000 O   0  0  0  0  0  0  0  0  0  0  0  0
    3.4030   -0.2500    0.0000 O   0  0  0  0  0  0  0  0  0  0  0  0
    5.1350   -0.2500    0.0000 C   0  0  0  0  0  0  0  0  0  0  0  0
    5.1350   -1.2500    0.0000 C   0  0  0  0  0  0  0  0  0  0  0  0
    6.0010    0.2500    0.0000 C   0  0  0  0  0  0  0  0  0  0  0  0
    4.2690   -1.7500    0.0000 C   0  0  0  0  0  0  0  0  0  0  0  0
    6.0010    1.2500    0.0000 C   0  0  0  0  0  0  0  0  0  0  0  0
    3.4030   -1.2500    0.0000 C   0  0  0  0  0  0  0  0  0  0  0  0
    4.9230    0.3326    0.0000 H   0  0  0  0  0  0  0  0  0  0  0  0
    4.5244   -0.3577    0.0000 H   0  0  0  0  0  0  0  0  0  0  0  0
    5.6720   -1.5600    0.0000 H   0  0  0  0  0  0  0  0  0  0  0  0
    4.2690   -2.3700    0.0000 H   0  0  0  0  0  0  0  0  0  0  0  0
    6.8671    2.3700    0.0000 H   0  0  0  0  0  0  0  0  0  0  0  0
    2.0000   -1.4400    0.0000 H   0  0  0  0  0  0  0  0  0  0  0  0
  1  8  2  0  0  0  0
  2 10  1  0  0  0  0
  2 16  1  0  0  0  0
  3 11  1  0  0  0  0
  3 17  1  0  0  0  0
  4 10  2  0  0  0  0
  5 11  2  0  0  0  0
  6  7  1  0  0  0  0
  6  8  1  0  0  0  0
  6 12  1  0  0  0  0
  6 13  1  0  0  0  0
  7  9  2  0  0  0  0
  7 14  1  0  0  0  0
  8 10  1  0  0  0  0
  9 11  1  0  0  0  0
  9 15  1  0  0  0  0
M  END
> <PUBCHEM_COMPOUND_CID>
5280595

> <PUBCHEM_COMPOUND_CANONICALIZED>
1

> <PUBCHEM_CACTVS_COMPLEXITY>
215

> <PUBCHEM_CACTVS_HBOND_ACCEPTOR>
5

> <PUBCHEM_CACTVS_HBOND_DONOR>
2

> <PUBCHEM_CACTVS_ROTATABLE_BOND>
4

> <PUBCHEM_CACTVS_SUBSKEYS>
AAADcYBgOAAAAAAAAAAAAAAAAAAAAAAAAAAAAAAAAAAAAAAAAAAAGgAACAAACASAgAAACAAAAgCIAKDSCAIAAAAgAAAICAFAAEgABBAAAQAAUAAEgAAIEYIAAAAAAAAAAAAAAAAAAAAAAAAAAAAAAAAAAA==

> <PUBCHEM_IUPAC_OPENEYE_NAME>
(Z)-5-oxohex-2-enedioic acid

> <PUBCHEM_IUPAC_CAS_NAME>
(Z)-5-oxo-2-hexenedioic acid

> <PUBCHEM_IUPAC_NAME>
(Z)-5-oxohex-2-enedioic acid

> <PUBCHEM_IUPAC_SYSTEMATIC_NAME>
(Z)-5-oxidanylidenehex-2-enedioic acid

> <PUBCHEM_IUPAC_TRADITIONAL_NAME>
(Z)-5-ketohex-2-enedioic acid

> <PUBCHEM_IUPAC_INCHI>
InChI=1S/C6H6O5/c7-4(6(10)11)2-1-3-5(8)9/h1,3H,2H2,(H,8,9)(H,10,11)/b3-1-

> <PUBCHEM_IUPAC_INCHIKEY>
OOEDHTCVMHDXRH-IWQZZHSRSA-N

> <PUBCHEM_XLOGP3_AA>
-0.4

> <PUBCHEM_EXACT_MASS>
158.021523

> <PUBCHEM_MOLECULAR_FORMULA>
C6H6O5

> <PUBCHEM_MOLECULAR_WEIGHT>
158.10884

> <PUBCHEM_OPENEYE_CAN_SMILES>
C(C=CC(=O)O)C(=O)C(=O)O

> <PUBCHEM_OPENEYE_ISO_SMILES>
C(/C=C\C(=O)O)C(=O)C(=O)O

> <PUBCHEM_CACTVS_TPSA>
91.7

> <PUBCHEM_MONOISOTOPIC_WEIGHT>
158.021523

> <PUBCHEM_TOTAL_CHARGE>
0

> <PUBCHEM_HEAVY_ATOM_COUNT>
11

> <PUBCHEM_ATOM_DEF_STEREO_COUNT>
0

> <PUBCHEM_ATOM_UDEF_STEREO_COUNT>
0

> <PUBCHEM_BOND_DEF_STEREO_COUNT>
1

> <PUBCHEM_BOND_UDEF_STEREO_COUNT>
0

> <PUBCHEM_ISOTOPIC_ATOM_COUNT>
0

> <PUBCHEM_COMPONENT_COUNT>
1

> <PUBCHEM_CACTVS_TAUTO_COUNT>
4

> <PUBCHEM_COORDINATE_TYPE>
1
5
255

$$$$

