585253
  -OEChem-06241222452D

 23 25  0     0  0  0  0  0  0999 V2000
    8.9875    0.8047    0.0000 O   0  0  0  0  0  0  0  0  0  0  0  0
    8.9875   -0.8047    0.0000 O   0  0  0  0  0  0  0  0  0  0  0  0
    3.6636    0.9067    0.0000 O   0  0  0  0  0  0  0  0  0  0  0  0
    3.4945   -0.7024    0.0000 O   0  0  0  0  0  0  0  0  0  0  0  0
    4.5772    0.5000    0.0000 N   0  3  0  0  0  0  0  0  0  0  0  0
    4.4727   -0.4945    0.0000 N   0  0  0  0  0  0  0  0  0  0  0  0
    2.0000    0.2681    0.0000 N   0  5  0  0  0  0  0  0  0  0  0  0
    6.3092    0.5000    0.0000 C   0  0  0  0  0  0  0  0  0  0  0  0
    5.4432    1.0000    0.0000 C   0  0  0  0  0  0  0  0  0  0  0  0
    8.0413    0.5000    0.0000 C   0  0  0  0  0  0  0  0  0  0  0  0
    8.0413   -0.5000    0.0000 C   0  0  0  0  0  0  0  0  0  0  0  0
    7.1753    1.0000    0.0000 C   0  0  0  0  0  0  0  0  0  0  0  0
    6.3092   -0.5000    0.0000 C   0  0  0  0  0  0  0  0  0  0  0  0
    7.1753   -1.0000    0.0000 C   0  0  0  0  0  0  0  0  0  0  0  0
    9.5711    0.0000    0.0000 C   0  0  0  0  0  0  0  0  0  0  0  0
    2.9945    0.1636    0.0000 C   0  0  0  0  0  0  0  0  0  0  0  0
    5.8418    1.4750    0.0000 H   0  0  0  0  0  0  0  0  0  0  0  0
    5.0447    1.4750    0.0000 H   0  0  0  0  0  0  0  0  0  0  0  0
    7.1753    1.6200    0.0000 H   0  0  0  0  0  0  0  0  0  0  0  0
    5.7723   -0.8100    0.0000 H   0  0  0  0  0  0  0  0  0  0  0  0
    7.1753   -1.6200    0.0000 H   0  0  0  0  0  0  0  0  0  0  0  0
   10.0320   -0.4147    0.0000 H   0  0  0  0  0  0  0  0  0  0  0  0
   10.0320    0.4147    0.0000 H   0  0  0  0  0  0  0  0  0  0  0  0
  1 10  1  0  0  0  0
  1 15  1  0  0  0  0
  2 11  1  0  0  0  0
  2 15  1  0  0  0  0
  3  5  1  0  0  0  0
  3 16  1  0  0  0  0
  4  6  1  0  0  0  0
  4 16  1  0  0  0  0
  5  6  2  0  0  0  0
  5  9  1  0  0  0  0
  7 16  2  0  0  0  0
  8  9  1  0  0  0  0
  8 12  2  0  0  0  0
  8 13  1  0  0  0  0
  9 17  1  0  0  0  0
  9 18  1  0  0  0  0
 10 11  2  0  0  0  0
 10 12  1  0  0  0  0
 11 14  1  0  0  0  0
 12 19  1  0  0  0  0
 13 14  2  0  0  0  0
 13 20  1  0  0  0  0
 14 21  1  0  0  0  0
 15 22  1  0  0  0  0
 15 23  1  0  0  0  0
M  CHG  2   5   1   7  -1
M  END
> <PUBCHEM_COMPOUND_CID>
585253

> <PUBCHEM_COMPOUND_CANONICALIZED>
1

> <PUBCHEM_CACTVS_COMPLEXITY>
333

> <PUBCHEM_CACTVS_HBOND_ACCEPTOR>
6

> <PUBCHEM_CACTVS_HBOND_DONOR>
0

> <PUBCHEM_CACTVS_ROTATABLE_BOND>
2

> <PUBCHEM_CACTVS_SUBSKEYS>
AAADcYBzOAAAAAAAAAAAAAAAAAAAASIAAAAwAAAAAAAAAEgBAAAAHgAMAAAADATBmAcwDoAQBACiAiBCAACCCAAgIAAoiAAGjIgdJiKEsRugMCJkwBEOqAew0BAOIAABAAAAQABAAAIAAACAAAAAAAAAAA==

> <PUBCHEM_IUPAC_OPENEYE_NAME>
[2-(1,3-benzodioxol-5-ylmethyl)-1,4,2,3-dioxadiazol-2-ium-5-ylidene]azanide

> <PUBCHEM_IUPAC_CAS_NAME>
[2-(1,3-benzodioxol-5-ylmethyl)-1,4,2,3-dioxadiazol-2-ium-5-ylidene]azanide

> <PUBCHEM_IUPAC_NAME>
[2-(1,3-benzodioxol-5-ylmethyl)-1,4,2,3-dioxadiazol-2-ium-5-ylidene]azanide

> <PUBCHEM_IUPAC_SYSTEMATIC_NAME>
[2-(1,3-benzodioxol-5-ylmethyl)-1,4,2,3-dioxadiazol-2-ium-5-ylidene]azanide

> <PUBCHEM_IUPAC_TRADITIONAL_NAME>
(2-piperonyl-1,4,2,3-dioxadiazol-2-ium-5-ylidene)azanide

> <PUBCHEM_IUPAC_INCHI>
InChI=1S/C9H7N3O4/c10-9-15-11-12(16-9)4-6-1-2-7-8(3-6)14-5-13-7/h1-3H,4-5H2

> <PUBCHEM_IUPAC_INCHIKEY>
XZVWHCXQHUTTOK-UHFFFAOYSA-N

> <PUBCHEM_XLOGP3_AA>
2.5

> <PUBCHEM_EXACT_MASS>
221.043656

> <PUBCHEM_MOLECULAR_FORMULA>
C9H7N3O4

> <PUBCHEM_MOLECULAR_WEIGHT>
221.16958

> <PUBCHEM_OPENEYE_CAN_SMILES>
C1OC2=C(O1)C=C(C=C2)C[N+]3=NOC(=[N-])O3

> <PUBCHEM_OPENEYE_ISO_SMILES>
C1OC2=C(O1)C=C(C=C2)C[N+]3=NOC(=[N-])O3

> <PUBCHEM_CACTVS_TPSA>
53.3

> <PUBCHEM_MONOISOTOPIC_WEIGHT>
221.043656

> <PUBCHEM_TOTAL_CHARGE>
0

> <PUBCHEM_HEAVY_ATOM_COUNT>
16

> <PUBCHEM_ATOM_DEF_STEREO_COUNT>
0

> <PUBCHEM_ATOM_UDEF_STEREO_COUNT>
0

> <PUBCHEM_BOND_DEF_STEREO_COUNT>
0

> <PUBCHEM_BOND_UDEF_STEREO_COUNT>
0

> <PUBCHEM_ISOTOPIC_ATOM_COUNT>
0

> <PUBCHEM_COMPONENT_COUNT>
1

> <PUBCHEM_CACTVS_TAUTO_COUNT>
1

> <PUBCHEM_COORDINATE_TYPE>
1
5
255

> <PUBCHEM_BONDANNOTATIONS>
10  11  8
10  12  8
11  14  8
13  14  8
3  16  8
3  5  8
4  16  8
4  6  8
5  6  8
8  12  8
8  13  8

$$$$

