441870
  -OEChem-07051212562D

101107  0     1  0  0  0  0  0999 V2000
   14.8570   -1.4789    0.0000 O   0  0  0  0  0  0  0  0  0  0  0  0
    9.4639   -2.5313    0.0000 O   0  0  0  0  0  0  0  0  0  0  0  0
   15.7567    3.4711    0.0000 O   0  0  0  0  0  0  0  0  0  0  0  0
    7.7318   -2.5246    0.0000 O   0  0  0  0  0  0  0  0  0  0  0  0
   17.0458    4.6279    0.0000 O   0  0  0  0  0  0  0  0  0  0  0  0
    9.4716   -0.5313    0.0000 O   0  0  0  0  0  0  0  0  0  0  0  0
    6.0075   -0.5179    0.0000 O   0  0  0  0  0  0  0  0  0  0  0  0
    7.7434    0.4754    0.0000 O   0  0  0  0  0  0  0  0  0  0  0  0
    5.1357   -2.0146    0.0000 O   0  0  0  0  0  0  0  0  0  0  0  0
    4.2793    0.4887    0.0000 O   0  0  0  0  0  0  0  0  0  0  0  0
    2.5434   -0.5046    0.0000 O   0  0  0  0  0  0  0  0  0  0  0  0
    2.5357   -2.5046    0.0000 O   0  0  0  0  0  0  0  0  0  0  0  0
    3.3960   -4.0079    0.0000 O   0  0  0  0  0  0  0  0  0  0  0  0
   14.8570   -0.4789    0.0000 C   0  0  2  0  0  0  0  0  0  0  0  0
   14.8570    0.5211    0.0000 C   0  0  1  0  0  0  0  0  0  0  0  0
   13.9909   -0.9789    0.0000 C   0  0  1  0  0  0  0  0  0  0  0  0
   13.1249   -0.4789    0.0000 C   0  0  1  0  0  0  0  0  0  0  0  0
   12.2149   -0.9858    0.0000 C   0  0  2  0  0  0  0  0  0  0  0  0
   15.8032    0.8258    0.0000 C   0  0  2  0  0  0  0  0  0  0  0  0
   13.9909    1.0211    0.0000 C   0  0  0  0  0  0  0  0  0  0  0  0
   13.1249    0.5211    0.0000 C   0  0  0  0  0  0  0  0  0  0  0  0
   15.8032   -0.7837    0.0000 C   0  0  0  0  0  0  0  0  0  0  0  0
   16.3868    0.0211    0.0000 C   0  0  0  0  0  0  0  0  0  0  0  0
   14.0070   -2.0204    0.0000 C   0  0  0  0  0  0  0  0  0  0  0  0
   12.2069   -2.0274    0.0000 C   0  0  0  0  0  0  0  0  0  0  0  0
   14.8570    1.5211    0.0000 C   0  0  0  0  0  0  0  0  0  0  0  0
   13.1090   -2.5482    0.0000 C   0  0  0  0  0  0  0  0  0  0  0  0
   11.2881   -0.4217    0.0000 C   0  0  0  0  0  0  0  0  0  0  0  0
   12.2226    0.0142    0.0000 C   0  0  0  0  0  0  0  0  0  0  0  0
   16.1139    1.7763    0.0000 C   0  0  0  0  0  0  0  0  0  0  0  0
   10.3402   -0.9496    0.0000 C   0  0  0  0  0  0  0  0  0  0  0  0
   11.2715   -2.5771    0.0000 C   0  0  0  0  0  0  0  0  0  0  0  0
   10.3318   -2.0346    0.0000 C   0  0  1  0  0  0  0  0  0  0  0  0
   17.0924    1.9825    0.0000 C   0  0  0  0  0  0  0  0  0  0  0  0
   15.4460    2.5206    0.0000 C   0  0  0  0  0  0  0  0  0  0  0  0
   17.4030    2.9331    0.0000 C   0  0  0  0  0  0  0  0  0  0  0  0
    8.5998   -2.0279    0.0000 C   0  0  2  0  0  0  0  0  0  0  0  0
   16.7352    3.6774    0.0000 C   0  0  0  0  0  0  0  0  0  0  0  0
    8.6036   -1.0279    0.0000 C   0  0  1  0  0  0  0  0  0  0  0  0
    7.7396   -0.5246    0.0000 C   0  0  1  0  0  0  0  0  0  0  0  0
    6.8678   -2.0213    0.0000 C   0  0  2  0  0  0  0  0  0  0  0  0
    6.8716   -1.0213    0.0000 C   0  0  2  0  0  0  0  0  0  0  0  0
    5.9998   -2.5179    0.0000 C   0  0  0  0  0  0  0  0  0  0  0  0
    5.1396   -1.0146    0.0000 C   0  0  2  0  0  0  0  0  0  0  0  0
    4.2755   -0.5112    0.0000 C   0  0  1  0  0  0  0  0  0  0  0  0
    3.4075   -1.0079    0.0000 C   0  0  2  0  0  0  0  0  0  0  0  0
    4.2678   -2.5112    0.0000 C   0  0  1  0  0  0  0  0  0  0  0  0
    3.4037   -2.0079    0.0000 C   0  0  1  0  0  0  0  0  0  0  0  0
    4.2639   -3.5112    0.0000 C   0  0  0  0  0  0  0  0  0  0  0  0
   14.7303   -1.3982    0.0000 H   0  0  0  0  0  0  0  0  0  0  0  0
   13.8610   -0.0539    0.0000 H   0  0  0  0  0  0  0  0  0  0  0  0
   16.4157    0.9220    0.0000 H   0  0  0  0  0  0  0  0  0  0  0  0
   14.3895    1.4960    0.0000 H   0  0  0  0  0  0  0  0  0  0  0  0
   13.5924    1.4960    0.0000 H   0  0  0  0  0  0  0  0  0  0  0  0
   12.9129    1.1037    0.0000 H   0  0  0  0  0  0  0  0  0  0  0  0
   12.5143    0.4134    0.0000 H   0  0  0  0  0  0  0  0  0  0  0  0
   15.5522   -1.3506    0.0000 H   0  0  0  0  0  0  0  0  0  0  0  0
   16.3406   -1.0929    0.0000 H   0  0  0  0  0  0  0  0  0  0  0  0
   16.8477   -0.3937    0.0000 H   0  0  0  0  0  0  0  0  0  0  0  0
   16.8477    0.4358    0.0000 H   0  0  0  0  0  0  0  0  0  0  0  0
   14.2250   -2.6008    0.0000 H   0  0  0  0  0  0  0  0  0  0  0  0
   14.6162   -1.9049    0.0000 H   0  0  0  0  0  0  0  0  0  0  0  0
   15.4770    1.5211    0.0000 H   0  0  0  0  0  0  0  0  0  0  0  0
   14.8570    2.1411    0.0000 H   0  0  0  0  0  0  0  0  0  0  0  0
   14.2370    1.5211    0.0000 H   0  0  0  0  0  0  0  0  0  0  0  0
   12.7117   -3.0242    0.0000 H   0  0  0  0  0  0  0  0  0  0  0  0
   13.5099   -3.0211    0.0000 H   0  0  0  0  0  0  0  0  0  0  0  0
   11.6963    0.0450    0.0000 H   0  0  0  0  0  0  0  0  0  0  0  0
   10.8982    0.0603    0.0000 H   0  0  0  0  0  0  0  0  0  0  0  0
   15.3939   -1.7889    0.0000 H   0  0  0  0  0  0  0  0  0  0  0  0
   12.8426    0.0094    0.0000 H   0  0  0  0  0  0  0  0  0  0  0  0
   12.2274    0.6342    0.0000 H   0  0  0  0  0  0  0  0  0  0  0  0
   11.6026    0.0190    0.0000 H   0  0  0  0  0  0  0  0  0  0  0  0
   10.1356   -0.3644    0.0000 H   0  0  0  0  0  0  0  0  0  0  0  0
    9.7285   -1.0510    0.0000 H   0  0  0  0  0  0  0  0  0  0  0  0
   11.2739   -3.1971    0.0000 H   0  0  0  0  0  0  0  0  0  0  0  0
    9.7967   -1.7215    0.0000 H   0  0  0  0  0  0  0  0  0  0  0  0
   17.5064    1.5211    0.0000 H   0  0  0  0  0  0  0  0  0  0  0  0
   14.8393    2.3928    0.0000 H   0  0  0  0  0  0  0  0  0  0  0  0
   18.0097    3.0609    0.0000 H   0  0  0  0  0  0  0  0  0  0  0  0
    9.1379   -1.7200    0.0000 H   0  0  0  0  0  0  0  0  0  0  0  0
    8.6060   -0.4079    0.0000 H   0  0  0  0  0  0  0  0  0  0  0  0
    7.2038   -0.2125    0.0000 H   0  0  0  0  0  0  0  0  0  0  0  0
    6.8654   -2.6412    0.0000 H   0  0  0  0  0  0  0  0  0  0  0  0
    6.8740   -0.4013    0.0000 H   0  0  0  0  0  0  0  0  0  0  0  0
    9.4740    0.0887    0.0000 H   0  0  0  0  0  0  0  0  0  0  0  0
    5.6919   -1.9798    0.0000 H   0  0  0  0  0  0  0  0  0  0  0  0
    5.4617   -2.8258    0.0000 H   0  0  0  0  0  0  0  0  0  0  0  0
    6.3077   -3.0560    0.0000 H   0  0  0  0  0  0  0  0  0  0  0  0
    7.2077    0.7875    0.0000 H   0  0  0  0  0  0  0  0  0  0  0  0
    5.1420   -0.3946    0.0000 H   0  0  0  0  0  0  0  0  0  0  0  0
    3.7398   -0.1992    0.0000 H   0  0  0  0  0  0  0  0  0  0  0  0
    3.4099   -0.3879    0.0000 H   0  0  0  0  0  0  0  0  0  0  0  0
    4.8035   -2.8233    0.0000 H   0  0  0  0  0  0  0  0  0  0  0  0
    3.4013   -2.6279    0.0000 H   0  0  0  0  0  0  0  0  0  0  0  0
    4.4737   -4.0946    0.0000 H   0  0  0  0  0  0  0  0  0  0  0  0
    4.8749   -3.4059    0.0000 H   0  0  0  0  0  0  0  0  0  0  0  0
    3.7436    0.8008    0.0000 H   0  0  0  0  0  0  0  0  0  0  0  0
    2.0053   -0.8125    0.0000 H   0  0  0  0  0  0  0  0  0  0  0  0
    2.0000   -2.1925    0.0000 H   0  0  0  0  0  0  0  0  0  0  0  0
    3.3936   -4.6279    0.0000 H   0  0  0  0  0  0  0  0  0  0  0  0
 14  1  1  1  0  0  0
  1 70  1  0  0  0  0
 33  2  1  1  0  0  0
 37  2  1  6  0  0  0
  3 35  1  0  0  0  0
  3 38  1  0  0  0  0
  4 37  1  0  0  0  0
  4 41  1  0  0  0  0
  5 38  2  0  0  0  0
 39  6  1  1  0  0  0
  6 86  1  0  0  0  0
 42  7  1  6  0  0  0
 44  7  1  6  0  0  0
 40  8  1  1  0  0  0
  8 90  1  0  0  0  0
  9 44  1  0  0  0  0
  9 47  1  0  0  0  0
 45 10  1  1  0  0  0
 10 98  1  0  0  0  0
 46 11  1  6  0  0  0
 11 99  1  0  0  0  0
 48 12  1  1  0  0  0
 12100  1  0  0  0  0
 13 49  1  0  0  0  0
 13101  1  0  0  0  0
 14 15  1  0  0  0  0
 14 16  1  0  0  0  0
 14 22  1  0  0  0  0
 15 19  1  0  0  0  0
 15 20  1  0  0  0  0
 15 26  1  1  0  0  0
 16 17  1  0  0  0  0
 16 24  1  0  0  0  0
 16 50  1  1  0  0  0
 17 18  1  0  0  0  0
 17 21  1  0  0  0  0
 17 51  1  6  0  0  0
 18 25  1  0  0  0  0
 18 28  1  0  0  0  0
 18 29  1  1  0  0  0
 19 23  1  0  0  0  0
 19 30  1  1  0  0  0
 19 52  1  0  0  0  0
 20 21  1  0  0  0  0
 20 53  1  0  0  0  0
 20 54  1  0  0  0  0
 21 55  1  0  0  0  0
 21 56  1  0  0  0  0
 22 23  1  0  0  0  0
 22 57  1  0  0  0  0
 22 58  1  0  0  0  0
 23 59  1  0  0  0  0
 23 60  1  0  0  0  0
 24 27  1  0  0  0  0
 24 61  1  0  0  0  0
 24 62  1  0  0  0  0
 25 27  1  0  0  0  0
 25 32  2  0  0  0  0
 26 63  1  0  0  0  0
 26 64  1  0  0  0  0
 26 65  1  0  0  0  0
 27 66  1  0  0  0  0
 27 67  1  0  0  0  0
 28 31  1  0  0  0  0
 28 68  1  0  0  0  0
 28 69  1  0  0  0  0
 29 71  1  0  0  0  0
 29 72  1  0  0  0  0
 29 73  1  0  0  0  0
 30 34  1  0  0  0  0
 30 35  2  0  0  0  0
 31 33  1  0  0  0  0
 31 74  1  0  0  0  0
 31 75  1  0  0  0  0
 32 33  1  0  0  0  0
 32 76  1  0  0  0  0
 33 77  1  0  0  0  0
 34 36  2  0  0  0  0
 34 78  1  0  0  0  0
 35 79  1  0  0  0  0
 36 38  1  0  0  0  0
 36 80  1  0  0  0  0
 37 39  1  0  0  0  0
 37 81  1  0  0  0  0
 39 40  1  0  0  0  0
 39 82  1  0  0  0  0
 40 42  1  0  0  0  0
 40 83  1  0  0  0  0
 41 42  1  0  0  0  0
 41 43  1  1  0  0  0
 41 84  1  0  0  0  0
 42 85  1  0  0  0  0
 43 87  1  0  0  0  0
 43 88  1  0  0  0  0
 43 89  1  0  0  0  0
 44 45  1  0  0  0  0
 44 91  1  0  0  0  0
 45 46  1  0  0  0  0
 45 92  1  0  0  0  0
 46 48  1  0  0  0  0
 46 93  1  0  0  0  0
 47 48  1  0  0  0  0
 47 49  1  6  0  0  0
 47 94  1  0  0  0  0
 48 95  1  0  0  0  0
 49 96  1  0  0  0  0
 49 97  1  0  0  0  0
M  END
> <PUBCHEM_COMPOUND_CID>
441870

> <PUBCHEM_COMPOUND_CANONICALIZED>
1

> <PUBCHEM_CACTVS_COMPLEXITY>
1370

> <PUBCHEM_CACTVS_HBOND_ACCEPTOR>
13

> <PUBCHEM_CACTVS_HBOND_DONOR>
7

> <PUBCHEM_CACTVS_ROTATABLE_BOND>
6

> <PUBCHEM_CACTVS_SUBSKEYS>
AAADcfB8PAAAAAAAAAAAAAAAAAAAAYAAAAA0aIECAAAAAGDAAAAAGgAACAAAD1SwgAMCCAAABgCIAiDSCAAACAAgIAAICAAAAEgZFAIAIQAiUAAFgAAPoYPA4PwPgAAAAAAAAACAAAYAADAAAYAADAAAAA==

> <PUBCHEM_IUPAC_OPENEYE_NAME>
5-[(3S,8R,9S,10R,13R,14S,17R)-3-[(2R,3R,4S,5R,6S)-3,4-dihydroxy-6-methyl-5-[(2S,3R,4S,5S,6R)-3,4,5-trihydroxy-6-(hydroxymethyl)tetrahydropyran-2-yl]oxy-tetrahydropyran-2-yl]oxy-14-hydroxy-10,13-dimethyl-1,2,3,6,7,8,9,11,12,15,16,17-dodecahydrocyclopenta[a]phenanthren-17-yl]pyran-2-one

> <PUBCHEM_IUPAC_CAS_NAME>
5-[(3S,8R,9S,10R,13R,14S,17R)-3-[[(2R,3R,4S,5R,6S)-3,4-dihydroxy-6-methyl-5-[[(2S,3R,4S,5S,6R)-3,4,5-trihydroxy-6-(hydroxymethyl)-2-oxanyl]oxy]-2-oxanyl]oxy]-14-hydroxy-10,13-dimethyl-1,2,3,6,7,8,9,11,12,15,16,17-dodecahydrocyclopenta[a]phenanthren-17-yl]-2-pyranone

> <PUBCHEM_IUPAC_NAME>
5-[(3S,8R,9S,10R,13R,14S,17R)-3-[(2R,3R,4S,5R,6S)-3,4-dihydroxy-6-methyl-5-[(2S,3R,4S,5S,6R)-3,4,5-trihydroxy-6-(hydroxymethyl)oxan-2-yl]oxyoxan-2-yl]oxy-14-hydroxy-10,13-dimethyl-1,2,3,6,7,8,9,11,12,15,16,17-dodecahydrocyclopenta[a]phenanthren-17-yl]pyran-2-one

> <PUBCHEM_IUPAC_SYSTEMATIC_NAME>
5-[(3S,8R,9S,10R,13R,14S,17R)-3-[(2R,3R,4S,5R,6S)-5-[(2S,3R,4S,5S,6R)-6-(hydroxymethyl)-3,4,5-tris(oxidanyl)oxan-2-yl]oxy-6-methyl-3,4-bis(oxidanyl)oxan-2-yl]oxy-10,13-dimethyl-14-oxidanyl-1,2,3,6,7,8,9,11,12,15,16,17-dodecahydrocyclopenta[a]phenanthren-17-yl]pyran-2-one

> <PUBCHEM_IUPAC_TRADITIONAL_NAME>
5-[(3S,8R,9S,10R,13R,14S,17R)-3-[(2R,3R,4S,5R,6S)-3,4-dihydroxy-6-methyl-5-[(2S,3R,4S,5S,6R)-3,4,5-trihydroxy-6-methylol-tetrahydropyran-2-yl]oxy-tetrahydropyran-2-yl]oxy-14-hydroxy-10,13-dimethyl-1,2,3,6,7,8,9,11,12,15,16,17-dodecahydrocyclopenta[a]phenanthren-17-yl]pyran-2-one

> <PUBCHEM_IUPAC_INCHI>
InChI=1S/C36H52O13/c1-17-31(49-33-29(42)27(40)26(39)24(15-37)48-33)28(41)30(43)32(46-17)47-20-8-11-34(2)19(14-20)5-6-23-22(34)9-12-35(3)21(10-13-36(23,35)44)18-4-7-25(38)45-16-18/h4,7,14,16-17,20-24,26-33,37,39-44H,5-6,8-13,15H2,1-3H3/t17-,20-,21+,22-,23+,24+,26+,27-,28-,29+,30+,31-,32-,33-,34-,35+,36-/m0/s1

> <PUBCHEM_IUPAC_INCHIKEY>
NXJOCELNFPGKIV-ARHXXGKOSA-N

> <PUBCHEM_XLOGP3_AA>
0.3

> <PUBCHEM_EXACT_MASS>
692.340792

> <PUBCHEM_MOLECULAR_FORMULA>
C36H52O13

> <PUBCHEM_MOLECULAR_WEIGHT>
692.79028

> <PUBCHEM_OPENEYE_CAN_SMILES>
CC1C(C(C(C(O1)OC2CCC3(C4CCC5(C(CCC5(C4CCC3=C2)O)C6=COC(=O)C=C6)C)C)O)O)OC7C(C(C(C(O7)CO)O)O)O

> <PUBCHEM_OPENEYE_ISO_SMILES>
C[C@H]1[C@@H]([C@H]([C@H]([C@@H](O1)O[C@H]2CC[C@@]3([C@H]4CC[C@@]5([C@H](CC[C@@]5([C@@H]4CCC3=C2)O)C6=COC(=O)C=C6)C)C)O)O)O[C@H]7[C@@H]([C@H]([C@@H]([C@H](O7)CO)O)O)O

> <PUBCHEM_CACTVS_TPSA>
205

> <PUBCHEM_MONOISOTOPIC_WEIGHT>
692.340792

> <PUBCHEM_TOTAL_CHARGE>
0

> <PUBCHEM_HEAVY_ATOM_COUNT>
49

> <PUBCHEM_ATOM_DEF_STEREO_COUNT>
17

> <PUBCHEM_ATOM_UDEF_STEREO_COUNT>
0

> <PUBCHEM_BOND_DEF_STEREO_COUNT>
0

> <PUBCHEM_BOND_UDEF_STEREO_COUNT>
0

> <PUBCHEM_ISOTOPIC_ATOM_COUNT>
0

> <PUBCHEM_COMPONENT_COUNT>
1

> <PUBCHEM_CACTVS_TAUTO_COUNT>
1

> <PUBCHEM_COORDINATE_TYPE>
1
5
255

> <PUBCHEM_BONDANNOTATIONS>
14  1  5
45  10  5
46  11  6
48  12  5
15  26  5
16  50  5
17  51  6
18  29  5
19  30  5
33  2  5
37  2  6
3  35  8
3  38  8
30  34  8
30  35  8
34  36  8
36  38  8
41  43  5
47  49  6
39  6  5
42  7  6
44  7  6
40  8  5

$$$$

