443265
  -OEChem-07051213013D

 35 35  0     1  0  0  0  0  0999 V2000
    0.4630    0.9495   -0.2165 O   0  0  0  0  0  0  0  0  0  0  0  0
   -1.5407   -0.2180   -0.4738 O   0  0  0  0  0  0  0  0  0  0  0  0
    2.6737   -2.4738   -0.7271 O   0  0  0  0  0  0  0  0  0  0  0  0
    3.8986   -0.1330    0.4460 O   0  0  0  0  0  0  0  0  0  0  0  0
   -0.1683   -2.6407    0.0316 O   0  0  0  0  0  0  0  0  0  0  0  0
    1.5132    3.3593    0.5871 O   0  0  0  0  0  0  0  0  0  0  0  0
   -3.7132   -1.6714    0.4680 O   0  0  0  0  0  0  0  0  0  0  0  0
   -2.9821    2.0724   -1.2584 O   0  0  0  0  0  0  0  0  0  0  0  0
    1.9545   -1.4934    0.0225 C   0  0  1  0  0  0  0  0  0  0  0  0
    2.6285   -0.1394   -0.2007 C   0  0  1  0  0  0  0  0  0  0  0  0
    0.4971   -1.4686   -0.4383 C   0  0  2  0  0  0  0  0  0  0  0  0
    1.7685    0.9947    0.3620 C   0  0  1  0  0  0  0  0  0  0  0  0
   -0.2393   -0.2471    0.1116 C   0  0  1  0  0  0  0  0  0  0  0  0
    2.3635    2.3638    0.0480 C   0  0  0  0  0  0  0  0  0  0  0  0
   -2.4842    0.3875    0.3961 C   0  0  0  0  0  0  0  0  0  0  0  0
   -3.0687   -0.7011    1.2867 C   0  0  0  0  0  0  0  0  0  0  0  0
   -3.5640    1.0593   -0.4446 C   0  0  0  0  0  0  0  0  0  0  0  0
    2.0215   -1.7974    1.0743 H   0  0  0  0  0  0  0  0  0  0  0  0
    2.8059    0.0069   -1.2733 H   0  0  0  0  0  0  0  0  0  0  0  0
    0.4444   -1.4915   -1.5332 H   0  0  0  0  0  0  0  0  0  0  0  0
    1.6698    0.9109    1.4529 H   0  0  0  0  0  0  0  0  0  0  0  0
   -0.3153   -0.3341    1.2043 H   0  0  0  0  0  0  0  0  0  0  0  0
    2.4328    2.5326   -1.0318 H   0  0  0  0  0  0  0  0  0  0  0  0
    3.3574    2.4841    0.4882 H   0  0  0  0  0  0  0  0  0  0  0  0
   -1.9991    1.1626    1.0042 H   0  0  0  0  0  0  0  0  0  0  0  0
    3.5966   -2.4551   -0.4207 H   0  0  0  0  0  0  0  0  0  0  0  0
    3.7508   -0.2549    1.3994 H   0  0  0  0  0  0  0  0  0  0  0  0
   -0.1345   -2.6381    1.0034 H   0  0  0  0  0  0  0  0  0  0  0  0
   -3.8108   -0.2888    1.9771 H   0  0  0  0  0  0  0  0  0  0  0  0
   -2.3022   -1.2169    1.8720 H   0  0  0  0  0  0  0  0  0  0  0  0
   -4.3265    1.5198    0.1915 H   0  0  0  0  0  0  0  0  0  0  0  0
   -4.0439    0.3448   -1.1214 H   0  0  0  0  0  0  0  0  0  0  0  0
    0.6324    3.2396    0.1923 H   0  0  0  0  0  0  0  0  0  0  0  0
   -3.0428   -2.0326   -0.1369 H   0  0  0  0  0  0  0  0  0  0  0  0
   -3.7033    2.4748   -1.7718 H   0  0  0  0  0  0  0  0  0  0  0  0
  1 12  1  0  0  0  0
  1 13  1  0  0  0  0
  2 13  1  0  0  0  0
  2 15  1  0  0  0  0
  3  9  1  0  0  0  0
  3 26  1  0  0  0  0
  4 10  1  0  0  0  0
  4 27  1  0  0  0  0
  5 11  1  0  0  0  0
  5 28  1  0  0  0  0
  6 14  1  0  0  0  0
  6 33  1  0  0  0  0
  7 16  1  0  0  0  0
  7 34  1  0  0  0  0
  8 17  1  0  0  0  0
  8 35  1  0  0  0  0
  9 10  1  0  0  0  0
  9 11  1  0  0  0  0
  9 18  1  0  0  0  0
 10 12  1  0  0  0  0
 10 19  1  0  0  0  0
 11 13  1  0  0  0  0
 11 20  1  0  0  0  0
 12 14  1  0  0  0  0
 12 21  1  0  0  0  0
 13 22  1  0  0  0  0
 14 23  1  0  0  0  0
 14 24  1  0  0  0  0
 15 16  1  0  0  0  0
 15 17  1  0  0  0  0
 15 25  1  0  0  0  0
 16 29  1  0  0  0  0
 16 30  1  0  0  0  0
 17 31  1  0  0  0  0
 17 32  1  0  0  0  0
M  END
> <PUBCHEM_COMPOUND_CID>
443265

> <PUBCHEM_CONFORMER_RMSD>
0.8

> <PUBCHEM_CONFORMER_DIVERSEORDER>
1
30
33
41
4
36
2
52
49
39
44
47
43
15
38
3
17
20
9
25
23
45
6
48
22
10
8
14
32
34
35
50
40
11
27
21
7
31
37
12
46
13
5
29
26
51
42
16
28
24
18
19

> <PUBCHEM_MMFF94_PARTIAL_CHARGES>
23
1 -0.56
10 0.28
11 0.28
12 0.28
13 0.56
14 0.28
15 0.28
16 0.28
17 0.28
2 -0.56
26 0.4
27 0.4
28 0.4
3 -0.68
33 0.4
34 0.4
35 0.4
4 -0.68
5 -0.68
6 -0.68
7 -0.68
8 -0.68
9 0.28

> <PUBCHEM_EFFECTIVE_ROTOR_COUNT>
6.2

> <PUBCHEM_PHARMACOPHORE_FEATURES>
15
1 1 acceptor
1 2 acceptor
1 3 acceptor
1 3 donor
1 4 acceptor
1 4 donor
1 5 acceptor
1 5 donor
1 6 acceptor
1 6 donor
1 7 acceptor
1 7 donor
1 8 acceptor
1 8 donor
6 1 9 10 11 12 13 rings

> <PUBCHEM_HEAVY_ATOM_COUNT>
17

> <PUBCHEM_ATOM_DEF_STEREO_COUNT>
5

> <PUBCHEM_ATOM_UDEF_STEREO_COUNT>
0

> <PUBCHEM_BOND_DEF_STEREO_COUNT>
0

> <PUBCHEM_BOND_UDEF_STEREO_COUNT>
0

> <PUBCHEM_ISOTOPIC_ATOM_COUNT>
0

> <PUBCHEM_COMPONENT_COUNT>
1

> <PUBCHEM_CACTVS_TAUTO_COUNT>
1

> <PUBCHEM_CONFORMER_ID>
0006C38100000001

> <PUBCHEM_MMFF94_ENERGY>
43.6255

> <PUBCHEM_FEATURE_SELFOVERLAP>
76.185

> <PUBCHEM_SHAPE_FINGERPRINT>
10366900 7 18129931283103924731
10608611 8 18413672409324939685
10967382 1 18337110180392960484
11471102 22 18340752776421705707
116883 192 17613155591195233820
12403259 226 18412826863207662515
12654215 9 18268433614749068038
13140716 1 18120656834120421754
13294875 104 17413337963061701585
14026960 21 18196931067787742561
14648413 74 18412547643168208937
15219456 202 18341327885680606267
15375462 6 18341047398504182173
16945 1 18335983090922725142
17041 50 18266738158960148870
18186145 218 18187354433036375986
19049666 15 18200592630644923313
200 152 18040443192009057407
20233049 118 18343018921900958564
20606313 2 18336834211516850652
20681677 76 18412830183470654943
21501502 16 18047190748312537178
21524375 3 18047750399757247616
21639500 275 18334868203122313901
22854114 111 18262513689278548449
2334 1 18264486368168836816
23557571 272 17775284929178623703
2748010 2 18192155021563483846
3286 77 18272935985831331234
6049 1 18272358798409444325
7364860 26 18335412422891876404
81228 2 17471288930167925056
8809292 202 18128529560544908867
9709674 26 18411983585434894255

> <PUBCHEM_SHAPE_MULTIPOLES>
302.9
6.26
3.01
0.88
2.99
0.93
-0.02
0.35
-0.33
-1.45
0.14
0.53
0.09
1.24

> <PUBCHEM_SHAPE_SELFOVERLAP>
599.947

> <PUBCHEM_SHAPE_VOLUME>
177.8

> <PUBCHEM_COORDINATE_TYPE>
2
5
10

$$$$

