171852
  -OEChem-07051213053D

 23 24  0     0  0  0  0  0  0999 V2000
   -0.0500   -2.6000   -0.0797 Cl  0  0  0  0  0  0  0  0  0  0  0  0
   -3.1939   -2.5211    0.1805 Cl  0  0  0  0  0  0  0  0  0  0  0  0
   -2.9693    2.9373    0.0416 Cl  0  0  0  0  0  0  0  0  0  0  0  0
   -4.6820    0.2565    0.2437 Cl  0  0  0  0  0  0  0  0  0  0  0  0
    4.2391    0.2036    1.8970 O   0  0  0  0  0  0  0  0  0  0  0  0
   -0.1643    0.1085   -0.1297 C   0  0  0  0  0  0  0  0  0  0  0  0
    1.2774    0.1240   -0.2498 C   0  0  0  0  0  0  0  0  0  0  0  0
   -0.8970   -1.0785   -0.0432 C   0  0  0  0  0  0  0  0  0  0  0  0
   -0.8313    1.3360   -0.1008 C   0  0  0  0  0  0  0  0  0  0  0  0
    2.0727    0.1569    0.8956 C   0  0  0  0  0  0  0  0  0  0  0  0
    1.8720    0.1054   -1.5115 C   0  0  0  0  0  0  0  0  0  0  0  0
   -2.2865   -1.0379    0.0716 C   0  0  0  0  0  0  0  0  0  0  0  0
   -2.2208    1.3766    0.0141 C   0  0  0  0  0  0  0  0  0  0  0  0
   -2.9484    0.1897    0.1004 C   0  0  0  0  0  0  0  0  0  0  0  0
    3.4627    0.1709    0.7796 C   0  0  0  0  0  0  0  0  0  0  0  0
    3.2621    0.1197   -1.6275 C   0  0  0  0  0  0  0  0  0  0  0  0
    4.0574    0.1523   -0.4820 C   0  0  0  0  0  0  0  0  0  0  0  0
   -0.2656    2.2642   -0.1681 H   0  0  0  0  0  0  0  0  0  0  0  0
    1.6191    0.1713    1.8846 H   0  0  0  0  0  0  0  0  0  0  0  0
    1.2670    0.0794   -2.4147 H   0  0  0  0  0  0  0  0  0  0  0  0
    3.7251    0.1051   -2.6098 H   0  0  0  0  0  0  0  0  0  0  0  0
    5.1390    0.1631   -0.5862 H   0  0  0  0  0  0  0  0  0  0  0  0
    5.1746    0.2094    1.6306 H   0  0  0  0  0  0  0  0  0  0  0  0
  1  8  1  0  0  0  0
  2 12  1  0  0  0  0
  3 13  1  0  0  0  0
  4 14  1  0  0  0  0
  5 15  1  0  0  0  0
  5 23  1  0  0  0  0
  6  7  1  0  0  0  0
  6  8  1  0  0  0  0
  6  9  2  0  0  0  0
  7 10  2  0  0  0  0
  7 11  1  0  0  0  0
  8 12  2  0  0  0  0
  9 13  1  0  0  0  0
  9 18  1  0  0  0  0
 10 15  1  0  0  0  0
 10 19  1  0  0  0  0
 11 16  2  0  0  0  0
 11 20  1  0  0  0  0
 12 14  1  0  0  0  0
 13 14  2  0  0  0  0
 15 17  2  0  0  0  0
 16 17  1  0  0  0  0
 16 21  1  0  0  0  0
 17 22  1  0  0  0  0
M  END
> <PUBCHEM_COMPOUND_CID>
171852

> <PUBCHEM_CONFORMER_RMSD>
0.6

> <PUBCHEM_CONFORMER_DIVERSEORDER>
2
4
5
3
1

> <PUBCHEM_MMFF94_PARTIAL_CHARGES>
21
1 -0.18
10 -0.15
11 -0.15
12 0.18
13 0.18
14 0.18
15 0.08
16 -0.15
17 -0.15
18 0.15
19 0.15
2 -0.18
20 0.15
21 0.15
22 0.15
23 0.45
3 -0.18
4 -0.18
5 -0.53
8 0.18
9 -0.15

> <PUBCHEM_EFFECTIVE_ROTOR_COUNT>
1

> <PUBCHEM_PHARMACOPHORE_FEATURES>
3
1 5 donor
6 6 8 9 12 13 14 rings
6 7 10 11 15 16 17 rings

> <PUBCHEM_HEAVY_ATOM_COUNT>
17

> <PUBCHEM_ATOM_DEF_STEREO_COUNT>
0

> <PUBCHEM_ATOM_UDEF_STEREO_COUNT>
0

> <PUBCHEM_BOND_DEF_STEREO_COUNT>
0

> <PUBCHEM_BOND_UDEF_STEREO_COUNT>
0

> <PUBCHEM_ISOTOPIC_ATOM_COUNT>
0

> <PUBCHEM_COMPONENT_COUNT>
1

> <PUBCHEM_CACTVS_TAUTO_COUNT>
3

> <PUBCHEM_CONFORMER_ID>
00029F4C00000002

> <PUBCHEM_MMFF94_ENERGY>
51.116

> <PUBCHEM_FEATURE_SELFOVERLAP>
15.223

> <PUBCHEM_SHAPE_FINGERPRINT>
10062212 137 18130791110034894659
10646746 165 18334013921416109392
11132069 177 18334853901134178811
11725454 13 17171560776304399728
12236239 1 17704069590674642708
12403259 415 18040996280227216408
12500047 106 18337109085123676076
12553582 1 18123742063627349539
12788726 201 17771329894879310386
13140716 1 18266735784581758193
13538477 17 18059572442967701790
13581323 91 18412547583080676374
13862211 1 18339644448012281507
14178342 30 18341053007420214994
14614273 12 18271248330409806421
15042514 8 18340200783405045107
15219456 202 17458343018316834566
15669948 3 18270675368565851598
16752209 62 18341330011436522063
16945 1 18411131446722230653
1741750 31 18263923418163064385
18186145 218 17822284738486107024
19049666 15 17822843316289272174
19422 9 17775286045427268850
200 152 16415485938759030957
20279233 1 17749385962249919814
20510252 161 18334007259621153241
20645476 183 17559944442269330351
20645477 56 18040437672137376952
20645477 70 14836130965891496832
21065201 7 18335697265175837662
22112679 90 17917992784830391756
22943178 12 17894906352066575654
23048698 100 16917064460300837348
2334 1 17978223860401935661
23366157 5 17771054192565355443
23402539 116 18336551529580633023
23526113 38 17603308171588093442
23557571 272 18187357761831729052
23559900 14 18261382361181715102
23598291 2 17775559823970174494
2748010 2 17980749752154060469
350125 39 17979062014452955645
4072396 5 18272097127605972483
43471831 8 18342178894537796459
474 4 16915083007763132620
573450 72 18201726162545159672
6049 1 17749658632665096712
69090 78 17458348532986407735
7364860 26 17901948865497313919
7615 1 17775003466564920004
77492 1 17704351057024463044
81228 2 18337380527146525531
8272917 22 16558473092434760947
84936 182 17540538354250107465
90316 7 17846224409426813508

> <PUBCHEM_SHAPE_MULTIPOLES>
351.46
8.01
2.37
1.16
1.99
0.36
-0.03
-1.23
-1.09
-3.3
-0.03
1.71
-0.09
0.09

> <PUBCHEM_SHAPE_SELFOVERLAP>
728.306

> <PUBCHEM_SHAPE_VOLUME>
204.9

> <PUBCHEM_COORDINATE_TYPE>
2
5
10

$$$$

