16818
  -OEChem-07051213063D

 51 54  0     1  0  0  0  0  0999 V2000
    5.1198   -1.1271   -0.1227 O   0  0  0  0  0  0  0  0  0  0  0  0
   -4.5281   -2.3101    0.5331 O   0  0  0  0  0  0  0  0  0  0  0  0
   -5.3568    0.2432    1.2797 O   0  0  0  0  0  0  0  0  0  0  0  0
    2.7334   -0.5265   -0.2215 C   0  0  1  0  0  0  0  0  0  0  0  0
    1.9938    0.7083    0.3364 C   0  0  2  0  0  0  0  0  0  0  0  0
    0.6397    0.9546   -0.3418 C   0  0  1  0  0  0  0  0  0  0  0  0
   -0.2743   -0.2998   -0.1260 C   0  0  2  0  0  0  0  0  0  0  0  0
    4.0794   -0.4329    0.5625 C   0  0  2  0  0  0  0  0  0  0  0  0
    1.8545   -1.7584    0.0478 C   0  0  0  0  0  0  0  0  0  0  0  0
    3.0478    1.8096    0.2812 C   0  0  0  0  0  0  0  0  0  0  0  0
    0.4477   -1.6063   -0.5609 C   0  0  0  0  0  0  0  0  0  0  0  0
    4.3782    1.0897    0.5707 C   0  0  0  0  0  0  0  0  0  0  0  0
   -1.7067   -0.1067   -0.7527 C   0  0  1  0  0  0  0  0  0  0  0  0
   -0.0353    2.2243    0.2001 C   0  0  0  0  0  0  0  0  0  0  0  0
    3.0188   -0.4417   -1.7497 C   0  0  0  0  0  0  0  0  0  0  0  0
   -1.4130    2.4378   -0.4185 C   0  0  0  0  0  0  0  0  0  0  0  0
   -2.2734    1.2143   -0.2244 C   0  0  0  0  0  0  0  0  0  0  0  0
    4.0489   -0.9877    1.9923 C   0  0  0  0  0  0  0  0  0  0  0  0
   -1.6736   -0.0613   -2.2970 C   0  0  0  0  0  0  0  0  0  0  0  0
   -2.6071   -1.2786   -0.3863 C   0  0  0  0  0  0  0  0  0  0  0  0
   -3.4414    1.3146    0.4292 C   0  0  0  0  0  0  0  0  0  0  0  0
   -3.7719   -1.1892    0.2660 C   0  0  0  0  0  0  0  0  0  0  0  0
   -4.2803    0.1300    0.7024 C   0  0  0  0  0  0  0  0  0  0  0  0
    1.7764    0.5427    1.4027 H   0  0  0  0  0  0  0  0  0  0  0  0
    0.8004    1.1090   -1.4141 H   0  0  0  0  0  0  0  0  0  0  0  0
   -0.4191   -0.3937    0.9633 H   0  0  0  0  0  0  0  0  0  0  0  0
    1.7290   -1.9168    1.1254 H   0  0  0  0  0  0  0  0  0  0  0  0
    2.3310   -2.6640   -0.3465 H   0  0  0  0  0  0  0  0  0  0  0  0
    2.8554    2.5961    1.0183 H   0  0  0  0  0  0  0  0  0  0  0  0
    3.0798    2.2843   -0.7060 H   0  0  0  0  0  0  0  0  0  0  0  0
    0.5154   -1.6609   -1.6516 H   0  0  0  0  0  0  0  0  0  0  0  0
   -0.1352   -2.4790   -0.2469 H   0  0  0  0  0  0  0  0  0  0  0  0
    5.1258    1.3742   -0.1786 H   0  0  0  0  0  0  0  0  0  0  0  0
    4.7756    1.4129    1.5401 H   0  0  0  0  0  0  0  0  0  0  0  0
    0.5852    3.1024   -0.0134 H   0  0  0  0  0  0  0  0  0  0  0  0
   -0.1291    2.1606    1.2922 H   0  0  0  0  0  0  0  0  0  0  0  0
    2.1111   -0.3268   -2.3474 H   0  0  0  0  0  0  0  0  0  0  0  0
    3.6689    0.3996   -2.0102 H   0  0  0  0  0  0  0  0  0  0  0  0
    3.5085   -1.3567   -2.1031 H   0  0  0  0  0  0  0  0  0  0  0  0
   -1.3172    2.6581   -1.4879 H   0  0  0  0  0  0  0  0  0  0  0  0
   -1.8700    3.3254    0.0360 H   0  0  0  0  0  0  0  0  0  0  0  0
    3.2837   -0.5191    2.6167 H   0  0  0  0  0  0  0  0  0  0  0  0
    3.8871   -2.0713    1.9886 H   0  0  0  0  0  0  0  0  0  0  0  0
    5.0197   -0.8349    2.4791 H   0  0  0  0  0  0  0  0  0  0  0  0
   -2.6638    0.1773   -2.7065 H   0  0  0  0  0  0  0  0  0  0  0  0
   -0.9795    0.6910   -2.6833 H   0  0  0  0  0  0  0  0  0  0  0  0
   -1.3768   -1.0243   -2.7282 H   0  0  0  0  0  0  0  0  0  0  0  0
   -2.2922   -2.2680   -0.7123 H   0  0  0  0  0  0  0  0  0  0  0  0
    5.3860   -0.6170   -0.9051 H   0  0  0  0  0  0  0  0  0  0  0  0
   -3.8078    2.2662    0.8000 H   0  0  0  0  0  0  0  0  0  0  0  0
   -5.3273   -2.0164    1.0038 H   0  0  0  0  0  0  0  0  0  0  0  0
  1  8  1  0  0  0  0
  1 49  1  0  0  0  0
  2 22  1  0  0  0  0
  2 51  1  0  0  0  0
  3 23  2  0  0  0  0
  4  5  1  0  0  0  0
  4  8  1  0  0  0  0
  4  9  1  0  0  0  0
  4 15  1  0  0  0  0
  5  6  1  0  0  0  0
  5 10  1  0  0  0  0
  5 24  1  0  0  0  0
  6  7  1  0  0  0  0
  6 14  1  0  0  0  0
  6 25  1  0  0  0  0
  7 11  1  0  0  0  0
  7 13  1  0  0  0  0
  7 26  1  0  0  0  0
  8 12  1  0  0  0  0
  8 18  1  0  0  0  0
  9 11  1  0  0  0  0
  9 27  1  0  0  0  0
  9 28  1  0  0  0  0
 10 12  1  0  0  0  0
 10 29  1  0  0  0  0
 10 30  1  0  0  0  0
 11 31  1  0  0  0  0
 11 32  1  0  0  0  0
 12 33  1  0  0  0  0
 12 34  1  0  0  0  0
 13 17  1  0  0  0  0
 13 19  1  0  0  0  0
 13 20  1  0  0  0  0
 14 16  1  0  0  0  0
 14 35  1  0  0  0  0
 14 36  1  0  0  0  0
 15 37  1  0  0  0  0
 15 38  1  0  0  0  0
 15 39  1  0  0  0  0
 16 17  1  0  0  0  0
 16 40  1  0  0  0  0
 16 41  1  0  0  0  0
 17 21  2  0  0  0  0
 18 42  1  0  0  0  0
 18 43  1  0  0  0  0
 18 44  1  0  0  0  0
 19 45  1  0  0  0  0
 19 46  1  0  0  0  0
 19 47  1  0  0  0  0
 20 22  2  0  0  0  0
 20 48  1  0  0  0  0
 21 23  1  0  0  0  0
 21 50  1  0  0  0  0
 22 23  1  0  0  0  0
M  END
> <PUBCHEM_COMPOUND_CID>
16818

> <PUBCHEM_CONFORMER_RMSD>
0.6

> <PUBCHEM_CONFORMER_DIVERSEORDER>
1

> <PUBCHEM_MMFF94_PARTIAL_CHARGES>
15
1 -0.68
13 0.28
16 0.14
17 -0.28
2 -0.53
20 -0.29
21 -0.14
22 0.09
23 0.54
3 -0.57
48 0.15
49 0.4
50 0.15
51 0.45
8 0.28

> <PUBCHEM_EFFECTIVE_ROTOR_COUNT>
1.4

> <PUBCHEM_PHARMACOPHORE_FEATURES>
8
1 1 acceptor
1 1 donor
1 2 donor
1 3 acceptor
5 4 5 8 10 12 rings
6 13 17 20 21 22 23 rings
6 4 5 6 7 9 11 rings
6 6 7 13 14 16 17 rings

> <PUBCHEM_HEAVY_ATOM_COUNT>
23

> <PUBCHEM_ATOM_DEF_STEREO_COUNT>
6

> <PUBCHEM_ATOM_UDEF_STEREO_COUNT>
0

> <PUBCHEM_BOND_DEF_STEREO_COUNT>
0

> <PUBCHEM_BOND_UDEF_STEREO_COUNT>
0

> <PUBCHEM_ISOTOPIC_ATOM_COUNT>
0

> <PUBCHEM_COMPONENT_COUNT>
1

> <PUBCHEM_CACTVS_TAUTO_COUNT>
6

> <PUBCHEM_CONFORMER_ID>
000041B200000001

> <PUBCHEM_MMFF94_ENERGY>
80.0276

> <PUBCHEM_FEATURE_SELFOVERLAP>
40.694

> <PUBCHEM_SHAPE_FINGERPRINT>
11132069 177 18334293184468740925
11552529 35 17749672887899299359
11578080 2 17631753593866363629
11796584 16 16200440143695748611
12236239 1 17774998042479849060
12403259 415 18260275165894778792
12403814 3 18187373133756733453
12553582 1 18410859879686536804
12633257 1 18411692189067834371
128620 24 16559032683787060036
13140716 1 18335985272449574497
13214271 11 18335143107083619069
13224815 77 18411986862062268460
13544653 18 17989207010563127411
13583140 156 17631196176252032214
13675066 3 17749111092869606706
14178342 30 18120376716327327656
14223421 5 18338236092963139621
14289901 80 16630531764736222942
14341114 176 18412258454335113864
14341114 328 18413103961464999323
14787075 74 18130503020528577144
14790565 3 17906725904318473492
15196674 1 18409448063775176768
15209289 33 18060416928201553603
15788980 27 16702025274870436919
16945 1 18265057005760556740
17349148 13 17489867150435394962
17492 89 18342183314375648810
1813 80 17489297586459029005
18186145 218 18343029899816008212
19050596 39 18411982468279167043
19141452 34 18040433278902856503
19784866 170 18333726944507190855
200 152 13614519658298258381
20028762 73 18043530504396244375
20261772 1 18187368718229542806
20739085 24 18410848833279025924
20775438 99 12386679446110803817
21033648 29 16805892891409078923
21267235 1 18410002247726824591
21421861 104 18129100206868949562
21637258 2 16199861770883921953
22182313 1 17970626505009326260
23402539 116 18202007637405838551
23557571 272 18261386814519624708
23559900 14 18191864737493097070
2838139 119 14708604226082652465
296302 2 14056724534433133444
3286 77 18272655605960323030
34934 24 18409735101346406997
350125 39 18408882932733048384
392239 28 18412544301414478491
4340502 62 15140675878317041605
5104073 3 18408043991742509016
7097593 13 17697892714464624138
9709674 26 18190745421375168551

> <PUBCHEM_SHAPE_MULTIPOLES>
455.72
9.82
2.19
1.36
0.79
0.45
0.33
-2.28
-3.82
0.58
-0.13
-0.23
-0.26
0.1

> <PUBCHEM_SHAPE_SELFOVERLAP>
985.558

> <PUBCHEM_SHAPE_VOLUME>
248.8

> <PUBCHEM_COORDINATE_TYPE>
2
5
10

$$$$

