88052
  -OEChem-07051212453D

 18 17  0     1  0  0  0  0  0999 V2000
   -2.3154   -0.8744    0.8857 O   0  0  0  0  0  0  0  0  0  0  0  0
    3.2651   -0.4835    0.7168 O   0  0  0  0  0  0  0  0  0  0  0  0
   -1.5951   -2.1770   -0.8229 O   0  0  0  0  0  0  0  0  0  0  0  0
    2.3484    0.8834   -0.8469 O   0  0  0  0  0  0  0  0  0  0  0  0
   -1.7353    2.2669   -0.6443 O   0  0  0  0  0  0  0  0  0  0  0  0
   -0.4200    0.8738    0.6966 N   0  0  0  0  0  0  0  0  0  0  0  0
   -0.2726   -0.2386   -0.2110 C   0  0  1  0  0  0  0  0  0  0  0  0
    1.0449   -0.9792    0.0350 C   0  0  0  0  0  0  0  0  0  0  0  0
   -1.4434   -1.2010   -0.0980 C   0  0  0  0  0  0  0  0  0  0  0  0
    2.2574   -0.0825   -0.1022 C   0  0  0  0  0  0  0  0  0  0  0  0
   -1.1340    2.0120    0.3913 C   0  0  0  0  0  0  0  0  0  0  0  0
   -0.2976    0.1655   -1.2308 H   0  0  0  0  0  0  0  0  0  0  0  0
    1.1629   -1.8117   -0.6676 H   0  0  0  0  0  0  0  0  0  0  0  0
    1.0378   -1.4005    1.0487 H   0  0  0  0  0  0  0  0  0  0  0  0
   -0.0294    0.7904    1.6309 H   0  0  0  0  0  0  0  0  0  0  0  0
   -1.1169    2.7175    1.2383 H   0  0  0  0  0  0  0  0  0  0  0  0
   -3.0628   -1.5075    0.9385 H   0  0  0  0  0  0  0  0  0  0  0  0
    4.0549    0.0923    0.6330 H   0  0  0  0  0  0  0  0  0  0  0  0
  1  9  1  0  0  0  0
  1 17  1  0  0  0  0
  2 10  1  0  0  0  0
  2 18  1  0  0  0  0
  3  9  2  0  0  0  0
  4 10  2  0  0  0  0
  5 11  2  0  0  0  0
  6  7  1  0  0  0  0
  6 11  1  0  0  0  0
  6 15  1  0  0  0  0
  7  8  1  0  0  0  0
  7  9  1  0  0  0  0
  7 12  1  0  0  0  0
  8 10  1  0  0  0  0
  8 13  1  0  0  0  0
  8 14  1  0  0  0  0
 11 16  1  0  0  0  0
M  END
> <PUBCHEM_COMPOUND_CID>
88052

> <PUBCHEM_CONFORMER_RMSD>
0.6

> <PUBCHEM_CONFORMER_DIVERSEORDER>
1
26
41
40
5
3
16
39
28
18
29
31
27
37
10
11
13
22
7
20
25
12
15
38
19
14
35
30
33
36
8
6
9
24
17
32
2
4
34
23
21

> <PUBCHEM_MMFF94_PARTIAL_CHARGES>
15
1 -0.65
10 0.66
11 0.57
15 0.37
16 0.06
17 0.5
18 0.5
2 -0.65
3 -0.57
4 -0.57
5 -0.57
6 -0.73
7 0.36
8 0.06
9 0.66

> <PUBCHEM_EFFECTIVE_ROTOR_COUNT>
5

> <PUBCHEM_PHARMACOPHORE_FEATURES>
8
1 1 acceptor
1 2 acceptor
1 3 acceptor
1 4 acceptor
1 5 acceptor
1 6 donor
3 1 3 9 anion
3 2 4 10 anion

> <PUBCHEM_HEAVY_ATOM_COUNT>
11

> <PUBCHEM_ATOM_DEF_STEREO_COUNT>
1

> <PUBCHEM_ATOM_UDEF_STEREO_COUNT>
0

> <PUBCHEM_BOND_DEF_STEREO_COUNT>
0

> <PUBCHEM_BOND_UDEF_STEREO_COUNT>
0

> <PUBCHEM_ISOTOPIC_ATOM_COUNT>
0

> <PUBCHEM_COMPONENT_COUNT>
1

> <PUBCHEM_CACTVS_TAUTO_COUNT>
2

> <PUBCHEM_CONFORMER_ID>
000157F400000001

> <PUBCHEM_MMFF94_ENERGY>
13.0633

> <PUBCHEM_FEATURE_SELFOVERLAP>
40.713

> <PUBCHEM_SHAPE_FINGERPRINT>
1 1 17544479008123435077
100427 49 18048595915408638657
21040471 1 18120370114719694872
23552423 10 17254557093699640207
241688 4 18119536440055807851
2748010 2 18047740783019581807
81228 2 18408037403463155827

> <PUBCHEM_SHAPE_MULTIPOLES>
192.05
3.68
2.21
0.86
2.79
0.55
0
-0.14
0.3
-1.9
-0.38
-0.04
0.01
-0.18

> <PUBCHEM_SHAPE_SELFOVERLAP>
371.756

> <PUBCHEM_SHAPE_VOLUME>
114.7

> <PUBCHEM_COORDINATE_TYPE>
2
5
10

$$$$

