17190
  -OEChem-07051213132D

 32 34  0     0  0  0  0  0  0999 V2000
    4.6660   -2.0000    0.0000 O   0  0  0  0  0  0  0  0  0  0  0  0
    4.6660    2.0000    0.0000 O   0  0  0  0  0  0  0  0  0  0  0  0
    2.9176   -2.0346    0.0000 N   0  0  0  0  0  0  0  0  0  0  0  0
    2.9176    2.0346    0.0000 N   0  0  0  0  0  0  0  0  0  0  0  0
    6.4144    2.0346    0.0000 N   0  0  0  0  0  0  0  0  0  0  0  0
    6.4144   -2.0346    0.0000 N   0  0  0  0  0  0  0  0  0  0  0  0
    5.5321    0.5000    0.0000 C   0  0  0  0  0  0  0  0  0  0  0  0
    5.5321   -0.5000    0.0000 C   0  0  0  0  0  0  0  0  0  0  0  0
    3.8000    0.5000    0.0000 C   0  0  0  0  0  0  0  0  0  0  0  0
    3.8000   -0.5000    0.0000 C   0  0  0  0  0  0  0  0  0  0  0  0
    4.6660    1.0000    0.0000 C   0  0  0  0  0  0  0  0  0  0  0  0
    4.6660   -1.0000    0.0000 C   0  0  0  0  0  0  0  0  0  0  0  0
    6.4260    1.0347    0.0000 C   0  0  0  0  0  0  0  0  0  0  0  0
    6.4260   -1.0347    0.0000 C   0  0  0  0  0  0  0  0  0  0  0  0
    2.9061    1.0347    0.0000 C   0  0  0  0  0  0  0  0  0  0  0  0
    2.9061   -1.0347    0.0000 C   0  0  0  0  0  0  0  0  0  0  0  0
    2.0000   -0.5208    0.0000 C   0  0  0  0  0  0  0  0  0  0  0  0
    2.0000    0.5208    0.0000 C   0  0  0  0  0  0  0  0  0  0  0  0
    7.3321   -0.5208    0.0000 C   0  0  0  0  0  0  0  0  0  0  0  0
    7.3321    0.5208    0.0000 C   0  0  0  0  0  0  0  0  0  0  0  0
    7.8678    0.8329    0.0000 H   0  0  0  0  0  0  0  0  0  0  0  0
    7.8678   -0.8329    0.0000 H   0  0  0  0  0  0  0  0  0  0  0  0
    1.4643    0.8329    0.0000 H   0  0  0  0  0  0  0  0  0  0  0  0
    1.4643   -0.8329    0.0000 H   0  0  0  0  0  0  0  0  0  0  0  0
    6.9478    2.3508    0.0000 H   0  0  0  0  0  0  0  0  0  0  0  0
    5.8740    2.3384    0.0000 H   0  0  0  0  0  0  0  0  0  0  0  0
    6.9478   -2.3508    0.0000 H   0  0  0  0  0  0  0  0  0  0  0  0
    5.8740   -2.3384    0.0000 H   0  0  0  0  0  0  0  0  0  0  0  0
    2.3843    2.3508    0.0000 H   0  0  0  0  0  0  0  0  0  0  0  0
    3.4581    2.3384    0.0000 H   0  0  0  0  0  0  0  0  0  0  0  0
    2.3843   -2.3508    0.0000 H   0  0  0  0  0  0  0  0  0  0  0  0
    3.4581   -2.3384    0.0000 H   0  0  0  0  0  0  0  0  0  0  0  0
  1 12  2  0  0  0  0
  2 11  2  0  0  0  0
  3 16  1  0  0  0  0
  3 31  1  0  0  0  0
  3 32  1  0  0  0  0
  4 15  1  0  0  0  0
  4 29  1  0  0  0  0
  4 30  1  0  0  0  0
  5 13  1  0  0  0  0
  5 25  1  0  0  0  0
  5 26  1  0  0  0  0
  6 14  1  0  0  0  0
  6 27  1  0  0  0  0
  6 28  1  0  0  0  0
  7  8  1  0  0  0  0
  7 11  1  0  0  0  0
  7 13  2  0  0  0  0
  8 12  1  0  0  0  0
  8 14  2  0  0  0  0
  9 10  1  0  0  0  0
  9 11  1  0  0  0  0
  9 15  2  0  0  0  0
 10 12  1  0  0  0  0
 10 16  2  0  0  0  0
 13 20  1  0  0  0  0
 14 19  1  0  0  0  0
 15 18  1  0  0  0  0
 16 17  1  0  0  0  0
 17 18  2  0  0  0  0
 17 24  1  0  0  0  0
 18 23  1  0  0  0  0
 19 20  2  0  0  0  0
 19 22  1  0  0  0  0
 20 21  1  0  0  0  0
M  END
> <PUBCHEM_COMPOUND_CID>
17190

> <PUBCHEM_COMPOUND_CANONICALIZED>
1

> <PUBCHEM_CACTVS_COMPLEXITY>
365

> <PUBCHEM_CACTVS_HBOND_ACCEPTOR>
6

> <PUBCHEM_CACTVS_HBOND_DONOR>
4

> <PUBCHEM_CACTVS_ROTATABLE_BOND>
0

> <PUBCHEM_CACTVS_SUBSKEYS>
AAADccBzsAAAAAAAAAAAAAAAAAAAAAAAAAAwYMAAAAAAAADBQAAAHgAQAAAADAyBmAAwwIBAAACIAqRSQACCAAAkAgAIiAEAZMgIIDqAlJGAIYBgkAAIyUcdiMCOgACAQAASAACAAQSAACQAAAAAAAAAAA==

> <PUBCHEM_IUPAC_OPENEYE_NAME>
1,4,5,8-tetraaminoanthracene-9,10-dione

> <PUBCHEM_IUPAC_CAS_NAME>
1,4,5,8-tetraaminoanthracene-9,10-dione

> <PUBCHEM_IUPAC_NAME>
1,4,5,8-tetraaminoanthracene-9,10-dione

> <PUBCHEM_IUPAC_SYSTEMATIC_NAME>
1,4,5,8-tetrakis(azanyl)anthracene-9,10-dione

> <PUBCHEM_IUPAC_TRADITIONAL_NAME>
1,4,5,8-tetraamino-9,10-anthraquinone

> <PUBCHEM_IUPAC_INCHI>
InChI=1S/C14H12N4O2/c15-5-1-2-6(16)10-9(5)13(19)11-7(17)3-4-8(18)12(11)14(10)20/h1-4H,15-18H2

> <PUBCHEM_IUPAC_INCHIKEY>
JSFUMBWFPQSADC-UHFFFAOYSA-N

> <PUBCHEM_XLOGP3_AA>
1.2

> <PUBCHEM_EXACT_MASS>
268.096026

> <PUBCHEM_MOLECULAR_FORMULA>
C14H12N4O2

> <PUBCHEM_MOLECULAR_WEIGHT>
268.27068

> <PUBCHEM_OPENEYE_CAN_SMILES>
C1=CC(=C2C(=C1N)C(=O)C3=C(C=CC(=C3C2=O)N)N)N

> <PUBCHEM_OPENEYE_ISO_SMILES>
C1=CC(=C2C(=C1N)C(=O)C3=C(C=CC(=C3C2=O)N)N)N

> <PUBCHEM_CACTVS_TPSA>
138

> <PUBCHEM_MONOISOTOPIC_WEIGHT>
268.096026

> <PUBCHEM_TOTAL_CHARGE>
0

> <PUBCHEM_HEAVY_ATOM_COUNT>
20

> <PUBCHEM_ATOM_DEF_STEREO_COUNT>
0

> <PUBCHEM_ATOM_UDEF_STEREO_COUNT>
0

> <PUBCHEM_BOND_DEF_STEREO_COUNT>
0

> <PUBCHEM_BOND_UDEF_STEREO_COUNT>
0

> <PUBCHEM_ISOTOPIC_ATOM_COUNT>
0

> <PUBCHEM_COMPONENT_COUNT>
1

> <PUBCHEM_CACTVS_TAUTO_COUNT>
52

> <PUBCHEM_COORDINATE_TYPE>
1
5
255

> <PUBCHEM_BONDANNOTATIONS>
10  16  8
13  20  8
14  19  8
15  18  8
16  17  8
17  18  8
19  20  8
7  13  8
7  8  8
8  14  8
9  10  8
9  15  8

$$$$

