5311147
  -OEChem-07051213062D

 74 80  0     1  0  0  0  0  0999 V2000
    5.2162   -1.6629    0.0000 O   0  0  0  0  0  0  0  0  0  0  0  0
    7.6834    0.6263    0.0000 O   0  0  0  0  0  0  0  0  0  0  0  0
    8.2707    0.0657    0.0000 O   0  0  0  0  0  0  0  0  0  0  0  0
    4.5390   -0.1108    0.0000 N   0  0  0  0  0  0  0  0  0  0  0  0
    6.1862    1.4176    0.0000 N   0  0  0  0  0  0  0  0  0  0  0  0
    7.0010   -1.1124    0.0000 N   0  0  0  0  0  0  0  0  0  0  0  0
    8.6561   -1.6229    0.0000 N   0  0  0  0  0  0  0  0  0  0  0  0
    3.6730   -1.6108    0.0000 C   0  0  0  0  0  0  0  0  0  0  0  0
    4.5092   -3.0591    0.0000 C   0  0  0  0  0  0  0  0  0  0  0  0
    2.9819   -3.4942    0.0000 C   0  0  0  0  0  0  0  0  0  0  0  0
    2.8368   -3.0591    0.0000 C   0  0  0  0  0  0  0  0  0  0  0  0
    4.5092   -2.0936    0.0000 C   0  0  0  0  0  0  0  0  0  0  0  0
    2.9819   -2.4489    0.0000 C   0  0  0  0  0  0  0  0  0  0  0  0
    2.8368   -2.0936    0.0000 C   0  0  0  0  0  0  0  0  0  0  0  0
    2.0000   -3.5419    0.0000 C   0  0  0  0  0  0  0  0  0  0  0  0
    3.6730   -3.3619    0.0000 C   0  0  0  0  0  0  0  0  0  0  0  0
    3.8876   -3.9710    0.0000 C   0  0  0  0  0  0  0  0  0  0  0  0
    3.6730   -0.6108    0.0000 C   0  0  0  0  0  0  0  0  0  0  0  0
    4.4643    0.8864    0.0000 C   0  0  0  0  0  0  0  0  0  0  0  0
    5.3653   -0.6741    0.0000 C   0  0  0  0  0  0  0  0  0  0  0  0
    6.3208   -0.3793    0.0000 C   0  0  2  0  0  0  0  0  0  0  0  0
    5.1973    1.5666    0.0000 C   0  0  0  0  0  0  0  0  0  0  0  0
    3.4643    1.1781    0.0000 C   0  0  0  0  0  0  0  0  0  0  0  0
    6.6862    0.5515    0.0000 C   0  0  0  0  0  0  0  0  0  0  0  0
    4.9812    2.5856    0.0000 C   0  0  0  0  0  0  0  0  0  0  0  0
    3.2247    2.1918    0.0000 C   0  0  0  0  0  0  0  0  0  0  0  0
    3.9883    2.9003    0.0000 C   0  0  0  0  0  0  0  0  0  0  0  0
    6.7495    2.2438    0.0000 C   0  0  0  0  0  0  0  0  0  0  0  0
    7.9759   -0.8899    0.0000 C   0  0  0  0  0  0  0  0  0  0  0  0
    7.7467    2.1691    0.0000 C   0  0  0  0  0  0  0  0  0  0  0  0
    6.3156    3.1448    0.0000 C   0  0  0  0  0  0  0  0  0  0  0  0
    8.3100    2.9953    0.0000 C   0  0  0  0  0  0  0  0  0  0  0  0
    6.8789    3.9710    0.0000 C   0  0  0  0  0  0  0  0  0  0  0  0
    7.8761    3.8963    0.0000 C   0  0  0  0  0  0  0  0  0  0  0  0
    9.6310   -1.4004    0.0000 C   0  0  0  0  0  0  0  0  0  0  0  0
   10.3112   -2.1334    0.0000 C   0  0  0  0  0  0  0  0  0  0  0  0
    9.9258   -0.4448    0.0000 C   0  0  0  0  0  0  0  0  0  0  0  0
   11.2861   -1.9109    0.0000 C   0  0  0  0  0  0  0  0  0  0  0  0
   10.9007   -0.2223    0.0000 C   0  0  0  0  0  0  0  0  0  0  0  0
   11.5809   -0.9553    0.0000 C   0  0  0  0  0  0  0  0  0  0  0  0
    2.8912   -3.6767    0.0000 H   0  0  0  0  0  0  0  0  0  0  0  0
    5.1016   -3.2418    0.0000 H   0  0  0  0  0  0  0  0  0  0  0  0
    2.8478   -4.0995    0.0000 H   0  0  0  0  0  0  0  0  0  0  0  0
    5.1198   -2.2012    0.0000 H   0  0  0  0  0  0  0  0  0  0  0  0
    4.7212   -1.5110    0.0000 H   0  0  0  0  0  0  0  0  0  0  0  0
    2.6383   -1.9329    0.0000 H   0  0  0  0  0  0  0  0  0  0  0  0
    2.3885   -2.6284    0.0000 H   0  0  0  0  0  0  0  0  0  0  0  0
    2.6247   -1.5110    0.0000 H   0  0  0  0  0  0  0  0  0  0  0  0
    2.2262   -2.2012    0.0000 H   0  0  0  0  0  0  0  0  0  0  0  0
    3.5782   -4.5083    0.0000 H   0  0  0  0  0  0  0  0  0  0  0  0
    4.4127   -4.3006    0.0000 H   0  0  0  0  0  0  0  0  0  0  0  0
    3.3030   -3.8594    0.0000 H   0  0  0  0  0  0  0  0  0  0  0  0
    4.0430   -3.8594    0.0000 H   0  0  0  0  0  0  0  0  0  0  0  0
    1.5188   -3.1510    0.0000 H   0  0  0  0  0  0  0  0  0  0  0  0
    1.8068   -4.1310    0.0000 H   0  0  0  0  0  0  0  0  0  0  0  0
    3.4609   -0.0282    0.0000 H   0  0  0  0  0  0  0  0  0  0  0  0
    3.0624   -0.7184    0.0000 H   0  0  0  0  0  0  0  0  0  0  0  0
    6.1604   -0.9782    0.0000 H   0  0  0  0  0  0  0  0  0  0  0  0
    3.0147    0.7511    0.0000 H   0  0  0  0  0  0  0  0  0  0  0  0
    5.4406    3.0020    0.0000 H   0  0  0  0  0  0  0  0  0  0  0  0
    6.8183   -1.7048    0.0000 H   0  0  0  0  0  0  0  0  0  0  0  0
    2.6316    2.3722    0.0000 H   0  0  0  0  0  0  0  0  0  0  0  0
    3.8526    3.5052    0.0000 H   0  0  0  0  0  0  0  0  0  0  0  0
    8.0157    1.6105    0.0000 H   0  0  0  0  0  0  0  0  0  0  0  0
    5.6973    3.1911    0.0000 H   0  0  0  0  0  0  0  0  0  0  0  0
    8.4734   -2.2154    0.0000 H   0  0  0  0  0  0  0  0  0  0  0  0
    8.9283    2.9490    0.0000 H   0  0  0  0  0  0  0  0  0  0  0  0
    6.6099    4.5296    0.0000 H   0  0  0  0  0  0  0  0  0  0  0  0
    8.2254    4.4086    0.0000 H   0  0  0  0  0  0  0  0  0  0  0  0
   10.1285   -2.7259    0.0000 H   0  0  0  0  0  0  0  0  0  0  0  0
    9.5041    0.0097    0.0000 H   0  0  0  0  0  0  0  0  0  0  0  0
   11.7078   -2.3654    0.0000 H   0  0  0  0  0  0  0  0  0  0  0  0
   11.0835    0.3702    0.0000 H   0  0  0  0  0  0  0  0  0  0  0  0
   12.1853   -0.8174    0.0000 H   0  0  0  0  0  0  0  0  0  0  0  0
  1 20  2  0  0  0  0
  2 24  2  0  0  0  0
  3 29  2  0  0  0  0
  4 18  1  0  0  0  0
  4 19  1  0  0  0  0
  4 20  1  0  0  0  0
  5 22  1  0  0  0  0
  5 24  1  0  0  0  0
  5 28  1  0  0  0  0
 21  6  1  6  0  0  0
  6 29  1  0  0  0  0
  6 61  1  0  0  0  0
  7 29  1  0  0  0  0
  7 35  1  0  0  0  0
  7 66  1  0  0  0  0
  8 12  1  0  0  0  0
  8 13  1  0  0  0  0
  8 14  1  0  0  0  0
  8 18  1  0  0  0  0
  9 12  1  0  0  0  0
  9 16  1  0  0  0  0
  9 17  1  0  0  0  0
  9 42  1  0  0  0  0
 10 13  1  0  0  0  0
 10 15  1  0  0  0  0
 10 17  1  0  0  0  0
 10 43  1  0  0  0  0
 11 14  1  0  0  0  0
 11 15  1  0  0  0  0
 11 16  1  0  0  0  0
 11 41  1  0  0  0  0
 12 44  1  0  0  0  0
 12 45  1  0  0  0  0
 13 46  1  0  0  0  0
 13 47  1  0  0  0  0
 14 48  1  0  0  0  0
 14 49  1  0  0  0  0
 15 54  1  0  0  0  0
 15 55  1  0  0  0  0
 16 52  1  0  0  0  0
 16 53  1  0  0  0  0
 17 50  1  0  0  0  0
 17 51  1  0  0  0  0
 18 56  1  0  0  0  0
 18 57  1  0  0  0  0
 19 22  1  0  0  0  0
 19 23  2  0  0  0  0
 20 21  1  0  0  0  0
 21 24  1  0  0  0  0
 21 58  1  0  0  0  0
 22 25  2  0  0  0  0
 23 26  1  0  0  0  0
 23 59  1  0  0  0  0
 25 27  1  0  0  0  0
 25 60  1  0  0  0  0
 26 27  2  0  0  0  0
 26 62  1  0  0  0  0
 27 63  1  0  0  0  0
 28 30  2  0  0  0  0
 28 31  1  0  0  0  0
 30 32  1  0  0  0  0
 30 64  1  0  0  0  0
 31 33  2  0  0  0  0
 31 65  1  0  0  0  0
 32 34  2  0  0  0  0
 32 67  1  0  0  0  0
 33 34  1  0  0  0  0
 33 68  1  0  0  0  0
 34 69  1  0  0  0  0
 35 36  2  0  0  0  0
 35 37  1  0  0  0  0
 36 38  1  0  0  0  0
 36 70  1  0  0  0  0
 37 39  2  0  0  0  0
 37 71  1  0  0  0  0
 38 40  2  0  0  0  0
 38 72  1  0  0  0  0
 39 40  1  0  0  0  0
 39 73  1  0  0  0  0
 40 74  1  0  0  0  0
M  END
> <PUBCHEM_COMPOUND_CID>
5311147

> <PUBCHEM_COMPOUND_CANONICALIZED>
1

> <PUBCHEM_CACTVS_COMPLEXITY>
930

> <PUBCHEM_CACTVS_HBOND_ACCEPTOR>
3

> <PUBCHEM_CACTVS_HBOND_DONOR>
2

> <PUBCHEM_CACTVS_ROTATABLE_BOND>
5

> <PUBCHEM_CACTVS_SUBSKEYS>
AAADcfB/sAAAAAAAAAAAAAAAAAAAAAAAAAAwYMGDBYAAAAABUAAAHgAQAAAADyjBkAQxwIPAAACIACVSUACCAAAhAgAIiIGIdIiIYGrI0bGUIAholgLIyCcQgMAPAAAAAAAAACAAAAQAAAAAQAAAAAAAAA==

> <PUBCHEM_IUPAC_OPENEYE_NAME>
1-[(3R)-1-(1-adamantylmethyl)-2,4-dioxo-5-phenyl-1,5-benzodiazepin-3-yl]-3-phenyl-urea

> <PUBCHEM_IUPAC_CAS_NAME>
1-[(3R)-1-(1-adamantylmethyl)-2,4-dioxo-5-phenyl-1,5-benzodiazepin-3-yl]-3-phenylurea

> <PUBCHEM_IUPAC_NAME>
1-[(3R)-1-(1-adamantylmethyl)-2,4-dioxo-5-phenyl-1,5-benzodiazepin-3-yl]-3-phenylurea

> <PUBCHEM_IUPAC_SYSTEMATIC_NAME>
1-[(3R)-1-(1-adamantylmethyl)-2,4-bis(oxidanylidene)-5-phenyl-1,5-benzodiazepin-3-yl]-3-phenyl-urea

> <PUBCHEM_IUPAC_TRADITIONAL_NAME>
1-[(3R)-1-(1-adamantylmethyl)-2,4-diketo-5-phenyl-1,5-benzodiazepin-3-yl]-3-phenyl-urea

> <PUBCHEM_IUPAC_INCHI>
InChI=1S/C33H34N4O3/c38-30-29(35-32(40)34-25-9-3-1-4-10-25)31(39)37(26-11-5-2-6-12-26)28-14-8-7-13-27(28)36(30)21-33-18-22-15-23(19-33)17-24(16-22)20-33/h1-14,22-24,29H,15-21H2,(H2,34,35,40)/t22?,23?,24?,29-,33?/m1/s1

> <PUBCHEM_IUPAC_INCHIKEY>
RZERRLOTRSJIAW-NEPGVILWSA-N

> <PUBCHEM_XLOGP3_AA>
5.8

> <PUBCHEM_EXACT_MASS>
534.263091

> <PUBCHEM_MOLECULAR_FORMULA>
C33H34N4O3

> <PUBCHEM_MOLECULAR_WEIGHT>
534.64806

> <PUBCHEM_OPENEYE_CAN_SMILES>
C1C2CC3CC1CC(C2)(C3)CN4C5=CC=CC=C5N(C(=O)C(C4=O)NC(=O)NC6=CC=CC=C6)C7=CC=CC=C7

> <PUBCHEM_OPENEYE_ISO_SMILES>
C1C2CC3CC1CC(C2)(C3)CN4C5=CC=CC=C5N(C(=O)[C@@H](C4=O)NC(=O)NC6=CC=CC=C6)C7=CC=CC=C7

> <PUBCHEM_CACTVS_TPSA>
81.8

> <PUBCHEM_MONOISOTOPIC_WEIGHT>
534.263091

> <PUBCHEM_TOTAL_CHARGE>
0

> <PUBCHEM_HEAVY_ATOM_COUNT>
40

> <PUBCHEM_ATOM_DEF_STEREO_COUNT>
1

> <PUBCHEM_ATOM_UDEF_STEREO_COUNT>
0

> <PUBCHEM_BOND_DEF_STEREO_COUNT>
0

> <PUBCHEM_BOND_UDEF_STEREO_COUNT>
0

> <PUBCHEM_ISOTOPIC_ATOM_COUNT>
0

> <PUBCHEM_COMPONENT_COUNT>
1

> <PUBCHEM_CACTVS_TAUTO_COUNT>
9

> <PUBCHEM_COORDINATE_TYPE>
1
5
255

> <PUBCHEM_BONDANNOTATIONS>
19  22  8
19  23  8
22  25  8
23  26  8
25  27  8
26  27  8
28  30  8
28  31  8
30  32  8
31  33  8
32  34  8
33  34  8
35  36  8
35  37  8
36  38  8
37  39  8
38  40  8
39  40  8
21  6  6

$$$$

