443356
  -OEChem-07051213022D

 53 57  0     1  0  0  0  0  0999 V2000
    6.6555   -2.9369    0.0000 O   0  0  0  0  0  0  0  0  0  0  0  0
    7.0156   -1.2427    0.0000 O   0  0  0  0  0  0  0  0  0  0  0  0
    6.4218    3.0214    0.0000 O   0  0  0  0  0  0  0  0  0  0  0  0
    2.6254   -1.1949    0.0000 N   0  0  3  0  0  0  0  0  0  0  0  0
    5.7049   -0.1943    0.0000 N   0  0  0  0  0  0  0  0  0  0  0  0
    4.1652   -0.6946    0.0000 C   0  0  2  0  0  0  0  0  0  0  0  0
    3.5397   -1.3893    0.0000 C   0  0  2  0  0  0  0  0  0  0  0  0
    3.8286   -2.2782    0.0000 C   0  0  1  0  0  0  0  0  0  0  0  0
    3.7801    0.3410    0.0000 C   0  0  0  0  0  0  0  0  0  0  0  0
    5.0795   -0.8890    0.0000 C   0  0  0  0  0  0  0  0  0  0  0  0
    2.3366   -0.3060    0.0000 C   0  0  0  0  0  0  0  0  0  0  0  0
    4.7429   -2.4726    0.0000 C   0  0  0  0  0  0  0  0  0  0  0  0
    4.5018    0.8890    0.0000 C   0  0  0  0  0  0  0  0  0  0  0  0
    5.3683   -1.7779    0.0000 C   0  0  0  0  0  0  0  0  0  0  0  0
    4.1376   -3.2293    0.0000 C   0  0  0  0  0  0  0  0  0  0  0  0
    3.2031   -2.9729    0.0000 C   0  0  0  0  0  0  0  0  0  0  0  0
    2.0000   -1.8896    0.0000 C   0  0  0  0  0  0  0  0  0  0  0  0
    5.4161    0.6946    0.0000 C   0  0  0  0  0  0  0  0  0  0  0  0
    2.2888   -2.7785    0.0000 C   0  0  0  0  0  0  0  0  0  0  0  0
    4.2129    1.7779    0.0000 C   0  0  0  0  0  0  0  0  0  0  0  0
    3.4685   -3.9724    0.0000 C   0  0  0  0  0  0  0  0  0  0  0  0
    6.3465   -1.9858    0.0000 C   0  0  0  0  0  0  0  0  0  0  0  0
    6.0415    1.3893    0.0000 C   0  0  0  0  0  0  0  0  0  0  0  0
    4.8384    2.4726    0.0000 C   0  0  0  0  0  0  0  0  0  0  0  0
    5.7527    2.2782    0.0000 C   0  0  0  0  0  0  0  0  0  0  0  0
    7.6336   -3.1448    0.0000 C   0  0  0  0  0  0  0  0  0  0  0  0
    6.1128    3.9724    0.0000 C   0  0  0  0  0  0  0  0  0  0  0  0
    3.2771   -0.5809    0.0000 H   0  0  0  0  0  0  0  0  0  0  0  0
    4.3564    0.5697    0.0000 H   0  0  0  0  0  0  0  0  0  0  0  0
    3.5389    0.9121    0.0000 H   0  0  0  0  0  0  0  0  0  0  0  0
    2.1034    0.2685    0.0000 H   0  0  0  0  0  0  0  0  0  0  0  0
    1.7542   -0.5185    0.0000 H   0  0  0  0  0  0  0  0  0  0  0  0
    4.5106   -3.0474    0.0000 H   0  0  0  0  0  0  0  0  0  0  0  0
    5.2687   -2.8011    0.0000 H   0  0  0  0  0  0  0  0  0  0  0  0
    4.5193   -3.7178    0.0000 H   0  0  0  0  0  0  0  0  0  0  0  0
    4.6850   -2.9382    0.0000 H   0  0  0  0  0  0  0  0  0  0  0  0
    3.3947   -3.5625    0.0000 H   0  0  0  0  0  0  0  0  0  0  0  0
    1.6183   -1.4010    0.0000 H   0  0  0  0  0  0  0  0  0  0  0  0
    1.4526   -2.1806    0.0000 H   0  0  0  0  0  0  0  0  0  0  0  0
    6.3114   -0.3232    0.0000 H   0  0  0  0  0  0  0  0  0  0  0  0
    1.8740   -3.2393    0.0000 H   0  0  0  0  0  0  0  0  0  0  0  0
    3.6065    1.9068    0.0000 H   0  0  0  0  0  0  0  0  0  0  0  0
    3.0077   -3.5576    0.0000 H   0  0  0  0  0  0  0  0  0  0  0  0
    3.0536   -4.4332    0.0000 H   0  0  0  0  0  0  0  0  0  0  0  0
    3.9292   -4.3873    0.0000 H   0  0  0  0  0  0  0  0  0  0  0  0
    6.6480    1.2604    0.0000 H   0  0  0  0  0  0  0  0  0  0  0  0
    4.6468    3.0622    0.0000 H   0  0  0  0  0  0  0  0  0  0  0  0
    7.5047   -3.7513    0.0000 H   0  0  0  0  0  0  0  0  0  0  0  0
    8.2401   -3.2737    0.0000 H   0  0  0  0  0  0  0  0  0  0  0  0
    7.7625   -2.5384    0.0000 H   0  0  0  0  0  0  0  0  0  0  0  0
    6.7025    4.1640    0.0000 H   0  0  0  0  0  0  0  0  0  0  0  0
    5.9212    4.5621    0.0000 H   0  0  0  0  0  0  0  0  0  0  0  0
    5.5232    3.7808    0.0000 H   0  0  0  0  0  0  0  0  0  0  0  0
  1 22  1  0  0  0  0
  1 26  1  0  0  0  0
  2 22  2  0  0  0  0
  3 25  1  0  0  0  0
  3 27  1  0  0  0  0
  4  7  1  0  0  0  0
  4 11  1  0  0  0  0
  4 17  1  0  0  0  0
  5 10  1  0  0  0  0
  5 18  1  0  0  0  0
  5 40  1  0  0  0  0
  6  7  1  0  0  0  0
  6  9  1  6  0  0  0
  6 10  1  0  0  0  0
  6 13  1  0  0  0  0
  7  8  1  0  0  0  0
  7 28  1  1  0  0  0
  8 12  1  0  0  0  0
  8 15  1  1  0  0  0
  8 16  1  0  0  0  0
  9 11  1  0  0  0  0
  9 29  1  0  0  0  0
  9 30  1  0  0  0  0
 10 14  2  0  0  0  0
 11 31  1  0  0  0  0
 11 32  1  0  0  0  0
 12 14  1  0  0  0  0
 12 33  1  0  0  0  0
 12 34  1  0  0  0  0
 13 18  2  0  0  0  0
 13 20  1  0  0  0  0
 14 22  1  0  0  0  0
 15 21  1  0  0  0  0
 15 35  1  0  0  0  0
 15 36  1  0  0  0  0
 16 19  2  0  0  0  0
 16 37  1  0  0  0  0
 17 19  1  0  0  0  0
 17 38  1  0  0  0  0
 17 39  1  0  0  0  0
 18 23  1  0  0  0  0
 19 41  1  0  0  0  0
 20 24  2  0  0  0  0
 20 42  1  0  0  0  0
 21 43  1  0  0  0  0
 21 44  1  0  0  0  0
 21 45  1  0  0  0  0
 23 25  2  0  0  0  0
 23 46  1  0  0  0  0
 24 25  1  0  0  0  0
 24 47  1  0  0  0  0
 26 48  1  0  0  0  0
 26 49  1  0  0  0  0
 26 50  1  0  0  0  0
 27 51  1  0  0  0  0
 27 52  1  0  0  0  0
 27 53  1  0  0  0  0
M  END
> <PUBCHEM_COMPOUND_CID>
443356

> <PUBCHEM_COMPOUND_CANONICALIZED>
1

> <PUBCHEM_CACTVS_COMPLEXITY>
716

> <PUBCHEM_CACTVS_HBOND_ACCEPTOR>
5

> <PUBCHEM_CACTVS_HBOND_DONOR>
1

> <PUBCHEM_CACTVS_ROTATABLE_BOND>
4

> <PUBCHEM_CACTVS_SUBSKEYS>
AAADceB7MAAAAAAAAAAAAAAAAAAAAWLAAAAwQIAAAAAAAFiBAAAAHgAQAAAADizBmAYyzoPABACIAiTSSACCCAAhIgAIiAEObMgMJjLE8ZuEMChm0BnI6UeY2fOfoAAAAgACAABAAAAEAAQAAAAAAAAAAA==

> <PUBCHEM_IUPAC_INCHI>
InChI=1S/C22H26N2O3/c1-4-21-8-5-10-24-11-9-22(20(21)24)16-7-6-14(26-2)12-17(16)23-18(22)15(13-21)19(25)27-3/h5-8,12,20,23H,4,9-11,13H2,1-3H3/t20-,21-,22-/m0/s1

> <PUBCHEM_IUPAC_INCHIKEY>
AEXBRBWRPNGGEZ-FKBYEOEOSA-N

> <PUBCHEM_XLOGP3_AA>
3.3

> <PUBCHEM_EXACT_MASS>
366.194343

> <PUBCHEM_MOLECULAR_FORMULA>
C22H26N2O3

> <PUBCHEM_MOLECULAR_WEIGHT>
366.45344

> <PUBCHEM_OPENEYE_CAN_SMILES>
CCC12CC(=C3C4(C1N(CC4)CC=C2)C5=C(N3)C=C(C=C5)OC)C(=O)OC

> <PUBCHEM_OPENEYE_ISO_SMILES>
CC[C@]12CC(=C3[C@@]4([C@H]1N(CC4)CC=C2)C5=C(N3)C=C(C=C5)OC)C(=O)OC

> <PUBCHEM_CACTVS_TPSA>
50.8

> <PUBCHEM_MONOISOTOPIC_WEIGHT>
366.194343

> <PUBCHEM_TOTAL_CHARGE>
0

> <PUBCHEM_HEAVY_ATOM_COUNT>
27

> <PUBCHEM_ATOM_DEF_STEREO_COUNT>
3

> <PUBCHEM_ATOM_UDEF_STEREO_COUNT>
0

> <PUBCHEM_BOND_DEF_STEREO_COUNT>
0

> <PUBCHEM_BOND_UDEF_STEREO_COUNT>
0

> <PUBCHEM_ISOTOPIC_ATOM_COUNT>
0

> <PUBCHEM_COMPONENT_COUNT>
1

> <PUBCHEM_CACTVS_TAUTO_COUNT>
3

> <PUBCHEM_COORDINATE_TYPE>
1
5
255

> <PUBCHEM_BONDANNOTATIONS>
13  18  8
13  20  8
18  23  8
20  24  8
23  25  8
24  25  8
6  9  6
7  28  5
8  15  5

$$$$

