9304
  -OEChem-06261203352D

 18 18  0     0  0  0  0  0  0999 V2000
    5.4641   -1.9050    0.0000 I   0  0  0  0  0  0  0  0  0  0  0  0
    2.0000   -1.9050    0.0000 I   0  0  0  0  0  0  0  0  0  0  0  0
    4.5981    2.5950    0.0000 O   0  0  0  0  0  0  0  0  0  0  0  0
    3.7320   -2.9050    0.0000 O   0  0  0  0  0  0  0  0  0  0  0  0
    5.4641    1.0950    0.0000 O   0  0  0  0  0  0  0  0  0  0  0  0
    3.7320    0.0950    0.0000 N   0  0  0  0  0  0  0  0  0  0  0  0
    3.7320    1.0950    0.0000 C   0  0  0  0  0  0  0  0  0  0  0  0
    4.5981   -0.4050    0.0000 C   0  0  0  0  0  0  0  0  0  0  0  0
    2.8660   -0.4050    0.0000 C   0  0  0  0  0  0  0  0  0  0  0  0
    2.8660   -1.4050    0.0000 C   0  0  0  0  0  0  0  0  0  0  0  0
    4.5981   -1.4050    0.0000 C   0  0  0  0  0  0  0  0  0  0  0  0
    3.7320   -1.9050    0.0000 C   0  0  0  0  0  0  0  0  0  0  0  0
    4.5981    1.5950    0.0000 C   0  0  0  0  0  0  0  0  0  0  0  0
    3.5200    1.6776    0.0000 H   0  0  0  0  0  0  0  0  0  0  0  0
    3.1215    0.9873    0.0000 H   0  0  0  0  0  0  0  0  0  0  0  0
    2.3291   -0.0950    0.0000 H   0  0  0  0  0  0  0  0  0  0  0  0
    5.1350   -0.0950    0.0000 H   0  0  0  0  0  0  0  0  0  0  0  0
    5.1350    2.9050    0.0000 H   0  0  0  0  0  0  0  0  0  0  0  0
  1 11  1  0  0  0  0
  2 10  1  0  0  0  0
  3 13  1  0  0  0  0
  3 18  1  0  0  0  0
  4 12  2  0  0  0  0
  5 13  2  0  0  0  0
  6  7  1  0  0  0  0
  6  8  1  0  0  0  0
  6  9  1  0  0  0  0
  7 13  1  0  0  0  0
  7 14  1  0  0  0  0
  7 15  1  0  0  0  0
  8 11  2  0  0  0  0
  8 17  1  0  0  0  0
  9 10  2  0  0  0  0
  9 16  1  0  0  0  0
 10 12  1  0  0  0  0
 11 12  1  0  0  0  0
M  END
> <PUBCHEM_COMPOUND_CID>
9304

> <PUBCHEM_COMPOUND_CANONICALIZED>
1

> <PUBCHEM_CACTVS_COMPLEXITY>
300

> <PUBCHEM_CACTVS_HBOND_ACCEPTOR>
4

> <PUBCHEM_CACTVS_HBOND_DONOR>
1

> <PUBCHEM_CACTVS_ROTATABLE_BOND>
2

> <PUBCHEM_CACTVS_SUBSKEYS>
AAADcYBiMAAAAwAAAAAAAAAAAAAAAAAAAAAgAAAAAAAAAAAAAAAAHgAgCAAACATDgAQACAMAAgCIAIDWSAAAAAAgAAAAAACIAEgCAAAAACAAAAAAAAAQAMAAAAAAAAAAAAAAAAAAAAAAAAAAAAAAAAAAAA==

> <PUBCHEM_IUPAC_OPENEYE_NAME>
2-(3,5-diiodo-4-oxo-1-pyridyl)acetic acid

> <PUBCHEM_IUPAC_CAS_NAME>
2-(3,5-diiodo-4-oxo-1-pyridinyl)acetic acid

> <PUBCHEM_IUPAC_NAME>
2-(3,5-diiodo-4-oxopyridin-1-yl)acetic acid

> <PUBCHEM_IUPAC_SYSTEMATIC_NAME>
2-[3,5-bis(iodanyl)-4-oxidanylidene-pyridin-1-yl]ethanoic acid

> <PUBCHEM_IUPAC_TRADITIONAL_NAME>
2-(3,5-diiodo-4-keto-1-pyridyl)acetic acid

> <PUBCHEM_IUPAC_INCHI>
InChI=1S/C7H5I2NO3/c8-4-1-10(3-6(11)12)2-5(9)7(4)13/h1-2H,3H2,(H,11,12)

> <PUBCHEM_IUPAC_INCHIKEY>
PVBALTLWZVEAIO-UHFFFAOYSA-N

> <PUBCHEM_XLOGP3_AA>
1.2

> <PUBCHEM_EXACT_MASS>
404.835889

> <PUBCHEM_MOLECULAR_FORMULA>
C7H5I2NO3

> <PUBCHEM_MOLECULAR_WEIGHT>
404.92844

> <PUBCHEM_OPENEYE_CAN_SMILES>
C1=C(C(=O)C(=CN1CC(=O)O)I)I

> <PUBCHEM_OPENEYE_ISO_SMILES>
C1=C(C(=O)C(=CN1CC(=O)O)I)I

> <PUBCHEM_CACTVS_TPSA>
57.6

> <PUBCHEM_MONOISOTOPIC_WEIGHT>
404.835889

> <PUBCHEM_TOTAL_CHARGE>
0

> <PUBCHEM_HEAVY_ATOM_COUNT>
13

> <PUBCHEM_ATOM_DEF_STEREO_COUNT>
0

> <PUBCHEM_ATOM_UDEF_STEREO_COUNT>
0

> <PUBCHEM_BOND_DEF_STEREO_COUNT>
0

> <PUBCHEM_BOND_UDEF_STEREO_COUNT>
0

> <PUBCHEM_ISOTOPIC_ATOM_COUNT>
0

> <PUBCHEM_COMPONENT_COUNT>
1

> <PUBCHEM_CACTVS_TAUTO_COUNT>
1

> <PUBCHEM_COORDINATE_TYPE>
1
5
255

> <PUBCHEM_BONDANNOTATIONS>
10  12  8
11  12  8
6  8  8
6  9  8
8  11  8
9  10  8

$$$$

