13713
  -OEChem-06241222403D

 27 29  0     0  0  0  0  0  0999 V2000
   -0.1621    1.4686    0.0002 N   0  0  0  0  0  0  0  0  0  0  0  0
   -0.5581   -2.7040    0.0000 N   0  0  0  0  0  0  0  0  0  0  0  0
    4.6286    1.1147   -0.0006 N   0  0  0  0  0  0  0  0  0  0  0  0
    0.8509   -0.7138    0.0000 C   0  0  0  0  0  0  0  0  0  0  0  0
   -1.5676   -0.4842   -0.0001 C   0  0  0  0  0  0  0  0  0  0  0  0
   -0.4238   -1.2891   -0.0001 C   0  0  0  0  0  0  0  0  0  0  0  0
    0.9362    0.6888    0.0001 C   0  0  0  0  0  0  0  0  0  0  0  0
   -1.3876    0.9092    0.0000 C   0  0  0  0  0  0  0  0  0  0  0  0
    2.0173   -1.4984    0.0001 C   0  0  0  0  0  0  0  0  0  0  0  0
    2.2026    1.2676    0.0002 C   0  0  0  0  0  0  0  0  0  0  0  0
   -2.8608   -1.0356   -0.0001 C   0  0  0  0  0  0  0  0  0  0  0  0
    3.3638    0.4909    0.0003 C   0  0  0  0  0  0  0  0  0  0  0  0
   -2.5225    1.7159    0.0000 C   0  0  0  0  0  0  0  0  0  0  0  0
    3.2714   -0.8950    0.0002 C   0  0  0  0  0  0  0  0  0  0  0  0
   -3.9790   -0.2071   -0.0001 C   0  0  0  0  0  0  0  0  0  0  0  0
   -3.8091    1.1715    0.0000 C   0  0  0  0  0  0  0  0  0  0  0  0
    2.0053   -2.5830    0.0000 H   0  0  0  0  0  0  0  0  0  0  0  0
    2.2875    2.3538    0.0001 H   0  0  0  0  0  0  0  0  0  0  0  0
   -3.0532   -2.1030   -0.0001 H   0  0  0  0  0  0  0  0  0  0  0  0
   -2.4156    2.7992    0.0000 H   0  0  0  0  0  0  0  0  0  0  0  0
    4.1644   -1.5142    0.0000 H   0  0  0  0  0  0  0  0  0  0  0  0
   -4.9770   -0.6346   -0.0001 H   0  0  0  0  0  0  0  0  0  0  0  0
   -4.6750    1.8270    0.0000 H   0  0  0  0  0  0  0  0  0  0  0  0
    0.2456   -3.3128   -0.0007 H   0  0  0  0  0  0  0  0  0  0  0  0
   -1.4619   -3.1508   -0.0008 H   0  0  0  0  0  0  0  0  0  0  0  0
    4.6956    2.1238    0.0011 H   0  0  0  0  0  0  0  0  0  0  0  0
    5.4698    0.5534    0.0010 H   0  0  0  0  0  0  0  0  0  0  0  0
  1  7  2  0  0  0  0
  1  8  1  0  0  0  0
  2  6  1  0  0  0  0
  2 24  1  0  0  0  0
  2 25  1  0  0  0  0
  3 12  1  0  0  0  0
  3 26  1  0  0  0  0
  3 27  1  0  0  0  0
  4  6  2  0  0  0  0
  4  7  1  0  0  0  0
  4  9  1  0  0  0  0
  5  6  1  0  0  0  0
  5  8  1  0  0  0  0
  5 11  2  0  0  0  0
  7 10  1  0  0  0  0
  8 13  2  0  0  0  0
  9 14  2  0  0  0  0
  9 17  1  0  0  0  0
 10 12  2  0  0  0  0
 10 18  1  0  0  0  0
 11 15  1  0  0  0  0
 11 19  1  0  0  0  0
 12 14  1  0  0  0  0
 13 16  1  0  0  0  0
 13 20  1  0  0  0  0
 14 21  1  0  0  0  0
 15 16  2  0  0  0  0
 15 22  1  0  0  0  0
 16 23  1  0  0  0  0
M  END
> <PUBCHEM_COMPOUND_CID>
13713

> <PUBCHEM_CONFORMER_RMSD>
0.4

> <PUBCHEM_CONFORMER_DIVERSEORDER>
1

> <PUBCHEM_MMFF94_PARTIAL_CHARGES>
25
1 -0.62
10 -0.15
11 -0.15
12 0.1
13 -0.15
14 -0.15
15 -0.15
16 -0.15
17 0.15
18 0.15
19 0.15
2 -0.9
20 0.15
21 0.15
22 0.15
23 0.15
24 0.4
25 0.4
26 0.4
27 0.4
3 -0.9
6 0.1
7 0.31
8 0.31
9 -0.15

> <PUBCHEM_EFFECTIVE_ROTOR_COUNT>
0

> <PUBCHEM_PHARMACOPHORE_FEATURES>
8
1 1 acceptor
1 2 cation
1 2 donor
1 3 cation
1 3 donor
6 1 4 5 6 7 8 rings
6 4 7 9 10 12 14 rings
6 5 8 11 13 15 16 rings

> <PUBCHEM_HEAVY_ATOM_COUNT>
16

> <PUBCHEM_ATOM_DEF_STEREO_COUNT>
0

> <PUBCHEM_ATOM_UDEF_STEREO_COUNT>
0

> <PUBCHEM_BOND_DEF_STEREO_COUNT>
0

> <PUBCHEM_BOND_UDEF_STEREO_COUNT>
0

> <PUBCHEM_ISOTOPIC_ATOM_COUNT>
0

> <PUBCHEM_COMPONENT_COUNT>
1

> <PUBCHEM_CACTVS_TAUTO_COUNT>
12

> <PUBCHEM_CONFORMER_ID>
0000359100000001

> <PUBCHEM_MMFF94_ENERGY>
77.4943

> <PUBCHEM_FEATURE_SELFOVERLAP>
40.656

> <PUBCHEM_SHAPE_FINGERPRINT>
10411042 1 15600328213948657765
10608611 8 18410858788754586237
10967382 1 18410855494493194407
11132069 177 18409735075012159321
11471102 20 18410579512800773988
11543360 7 15791743965915837061
13140716 1 18267300030903068491
13221675 6 18410575067536074206
13380535 76 18409729551847980766
14144814 61 18411419526783688184
14325111 11 18410856589746940545
14897335 6 18410294700940429310
15196674 1 18410574010931823911
15219456 202 18408882970654095871
15309172 13 18410003356118407643
15442244 35 18122344841871787242
15536298 74 18334857255461432494
15775835 57 18410290324062864545
16945 1 18266740186152979495
18186145 218 18336541732707437572
193761 8 17762056545232958405
200 152 18114190731065907109
20510252 161 18260827120119953841
20645477 70 18335423533756351007
21267235 1 18410846681231203306
21501502 16 18410577326651883707
2334 1 18410575101879884353
23402539 116 18335148561238410909
23402655 69 18334582377581102853
23463225 33 18341332283341937012
23559900 14 18333449868220517510
2748010 2 18411697729079695855
335352 9 17978229692265865079
43471831 8 18342460391047164523
474 4 17130700566595988572
4990 188 18040706000852132692
5104073 3 18411136965185481754
528886 8 18410298029249940043
53812653 166 18334861610347410664
54173680 148 18124312697108263595
633830 44 18188206636342315445
69090 78 18408045099912765743
7364860 26 18191868052854629286
9709674 26 18409162190968629222

> <PUBCHEM_SHAPE_MULTIPOLES>
314.33
7.05
2.05
0.6
1.28
0.64
0
-1.98
0
-0.15
0
-0.02
0
0

> <PUBCHEM_SHAPE_SELFOVERLAP>
713.513

> <PUBCHEM_SHAPE_VOLUME>
163.6

> <PUBCHEM_COORDINATE_TYPE>
2
5
10

$$$$

