51043
  -OEChem-07051213113D

 22 23  0     0  0  0  0  0  0999 V2000
   -3.1614   -2.7288   -0.2878 Cl  0  0  0  0  0  0  0  0  0  0  0  0
   -3.1573    2.7303    0.2856 Cl  0  0  0  0  0  0  0  0  0  0  0  0
   -4.7990    0.0019    0.0016 Cl  0  0  0  0  0  0  0  0  0  0  0  0
    5.6867    0.0012    0.0004 Cl  0  0  0  0  0  0  0  0  0  0  0  0
   -0.2709   -0.0009    0.0010 C   0  0  0  0  0  0  0  0  0  0  0  0
    1.1760   -0.0010   -0.0001 C   0  0  0  0  0  0  0  0  0  0  0  0
   -0.9679    1.2006    0.1271 C   0  0  0  0  0  0  0  0  0  0  0  0
   -0.9689   -1.2019   -0.1259 C   0  0  0  0  0  0  0  0  0  0  0  0
    1.8731    1.1023   -0.4926 C   0  0  0  0  0  0  0  0  0  0  0  0
    1.8740   -1.1037    0.4923 C   0  0  0  0  0  0  0  0  0  0  0  0
   -2.3638   -1.2013   -0.1266 C   0  0  0  0  0  0  0  0  0  0  0  0
   -2.3627    1.2013    0.1263 C   0  0  0  0  0  0  0  0  0  0  0  0
   -3.0607    0.0004   -0.0004 C   0  0  0  0  0  0  0  0  0  0  0  0
    3.2680    1.1029   -0.4927 C   0  0  0  0  0  0  0  0  0  0  0  0
    3.2689   -1.1032    0.4922 C   0  0  0  0  0  0  0  0  0  0  0  0
    3.9658    0.0000   -0.0005 C   0  0  0  0  0  0  0  0  0  0  0  0
   -0.4500    2.1477    0.2592 H   0  0  0  0  0  0  0  0  0  0  0  0
   -0.4517   -2.1494   -0.2578 H   0  0  0  0  0  0  0  0  0  0  0  0
    1.3739    1.9699   -0.9152 H   0  0  0  0  0  0  0  0  0  0  0  0
    1.3753   -1.9715    0.9152 H   0  0  0  0  0  0  0  0  0  0  0  0
    3.7985    1.9665   -0.8858 H   0  0  0  0  0  0  0  0  0  0  0  0
    3.8001   -1.9662    0.8855 H   0  0  0  0  0  0  0  0  0  0  0  0
  1 11  1  0  0  0  0
  2 12  1  0  0  0  0
  3 13  1  0  0  0  0
  4 16  1  0  0  0  0
  5  6  1  0  0  0  0
  5  7  2  0  0  0  0
  5  8  1  0  0  0  0
  6  9  2  0  0  0  0
  6 10  1  0  0  0  0
  7 12  1  0  0  0  0
  7 17  1  0  0  0  0
  8 11  2  0  0  0  0
  8 18  1  0  0  0  0
  9 14  1  0  0  0  0
  9 19  1  0  0  0  0
 10 15  2  0  0  0  0
 10 20  1  0  0  0  0
 11 13  1  0  0  0  0
 12 13  2  0  0  0  0
 14 16  2  0  0  0  0
 14 21  1  0  0  0  0
 15 16  1  0  0  0  0
 15 22  1  0  0  0  0
M  END
> <PUBCHEM_COMPOUND_CID>
51043

> <PUBCHEM_CONFORMER_RMSD>
0.6

> <PUBCHEM_CONFORMER_DIVERSEORDER>
1

> <PUBCHEM_MMFF94_PARTIAL_CHARGES>
20
1 -0.18
10 -0.15
11 0.18
12 0.18
13 0.18
14 -0.15
15 -0.15
16 0.18
17 0.15
18 0.15
19 0.15
2 -0.18
20 0.15
21 0.15
22 0.15
3 -0.18
4 -0.18
7 -0.15
8 -0.15
9 -0.15

> <PUBCHEM_EFFECTIVE_ROTOR_COUNT>
1

> <PUBCHEM_PHARMACOPHORE_FEATURES>
2
6 5 7 8 11 12 13 rings
6 6 9 10 14 15 16 rings

> <PUBCHEM_HEAVY_ATOM_COUNT>
16

> <PUBCHEM_ATOM_DEF_STEREO_COUNT>
0

> <PUBCHEM_ATOM_UDEF_STEREO_COUNT>
0

> <PUBCHEM_BOND_DEF_STEREO_COUNT>
0

> <PUBCHEM_BOND_UDEF_STEREO_COUNT>
0

> <PUBCHEM_ISOTOPIC_ATOM_COUNT>
0

> <PUBCHEM_COMPONENT_COUNT>
1

> <PUBCHEM_CACTVS_TAUTO_COUNT>
1

> <PUBCHEM_CONFORMER_ID>
0000C76300000001

> <PUBCHEM_MMFF94_ENERGY>
46.9532

> <PUBCHEM_FEATURE_SELFOVERLAP>
10.149

> <PUBCHEM_SHAPE_FINGERPRINT>
10616163 171 18409448059486107934
11806522 49 18270402685793358038
12107183 9 17764594604780394610
12173636 292 18408610266227379239
12236239 1 18131070437363926672
12251169 10 18412825797860652828
12390115 104 17970050348533045209
12500047 106 18335708294324858144
12553582 1 18047760291178460231
13140716 1 18191862336948880187
13167823 11 18342176674376814234
13288520 33 18407757036804272294
13760787 19 18342175557395244750
14144814 61 18341050799959992624
14178342 30 18340504334360287002
14508225 48 18264504892679621013
15042514 8 18337667504425137815
15196674 1 18339642364346039760
15442244 35 18268995465238470674
15669948 3 18335426750823895047
16945 1 18407760339792261383
17802600 8 18410296908274466840
17834072 33 18342736283072305356
18186145 218 17131561539512527722
18522853 276 18410856559877406832
19050596 39 18341050731256372618
19422 9 18341894065354631582
200 152 18340492179233528311
20279233 1 16443059487197266822
20510252 161 18187643669530973177
20645477 56 18335699485573884801
21267235 1 18341040870006270626
21426921 1 18408604747168023319
21501502 16 18342175566074499340
221490 88 18197491836124546394
2306618 200 18114172034751384665
23175994 123 16732697247028181928
23402539 116 18409173177431376735
23402655 69 18272090521698409956
23463225 33 18341613745602648318
23557571 272 18040712593247415744
23559900 14 18334865965544618520
26918003 58 17775564217447346643
2748010 2 15673794595524015245
3312278 4 18340487777113699947
34797466 226 17676198040927499428
3545911 37 18410573993989370574
4214541 1 18410575110654682132
474 4 17560511795017923956
5104073 3 18338798910115427848
559249 180 18268997660051356338
573450 72 18341623632981315482
69090 78 18410013256102420703
77779 3 18410009944856611350
9709674 26 18334289902787160190

> <PUBCHEM_SHAPE_MULTIPOLES>
336.75
9.8
2.27
0.7
6.98
0
0
0
0
-2.93
0
0.11
0
-0.72

> <PUBCHEM_SHAPE_SELFOVERLAP>
694.425

> <PUBCHEM_SHAPE_VOLUME>
185.7

> <PUBCHEM_COORDINATE_TYPE>
2
5
10

$$$$

