17395306
  -OEChem-06241222493D

 43 44  0     1  0  0  0  0  0999 V2000
    2.4730    0.3578    0.0963 S   0  0  0  0  0  0  0  0  0  0  0  0
   -0.1555   -0.5084   -1.8253 O   0  0  0  0  0  0  0  0  0  0  0  0
   -6.5665   -1.9434   -0.5655 O   0  0  0  0  0  0  0  0  0  0  0  0
   -0.7859    1.1737   -0.3111 N   0  0  0  0  0  0  0  0  0  0  0  0
   -6.1511   -0.0315    0.7500 N   0  0  0  0  0  0  0  0  0  0  0  0
    4.1158    0.8237   -0.5808 C   0  0  2  0  0  0  0  0  0  0  0  0
    5.2039   -0.0410   -0.0395 C   0  0  0  0  0  0  0  0  0  0  0  0
    4.3224    2.3298   -0.3440 C   0  0  0  0  0  0  0  0  0  0  0  0
    1.4584    1.1256   -1.1831 C   0  0  0  0  0  0  0  0  0  0  0  0
    5.5067   -1.2522   -0.6616 C   0  0  0  0  0  0  0  0  0  0  0  0
    5.9189    0.3617    1.0885 C   0  0  0  0  0  0  0  0  0  0  0  0
   -2.1419    0.8685   -0.0427 C   0  0  0  0  0  0  0  0  0  0  0  0
    0.0823    0.4955   -1.1584 C   0  0  0  0  0  0  0  0  0  0  0  0
    6.5244   -2.0610   -0.1555 C   0  0  0  0  0  0  0  0  0  0  0  0
    6.9367   -0.4471    1.5944 C   0  0  0  0  0  0  0  0  0  0  0  0
   -4.8148    0.2690    0.4847 C   0  0  0  0  0  0  0  0  0  0  0  0
   -2.7469   -0.2247   -0.6628 C   0  0  0  0  0  0  0  0  0  0  0  0
   -2.8734    1.6622    0.8411 C   0  0  0  0  0  0  0  0  0  0  0  0
    7.2394   -1.6584    0.9723 C   0  0  0  0  0  0  0  0  0  0  0  0
   -4.0833   -0.5244   -0.3991 C   0  0  0  0  0  0  0  0  0  0  0  0
   -4.2099    1.3623    1.1049 C   0  0  0  0  0  0  0  0  0  0  0  0
   -6.9223   -1.0792    0.2290 C   0  0  0  0  0  0  0  0  0  0  0  0
   -8.3305   -1.0587    0.7684 C   0  0  0  0  0  0  0  0  0  0  0  0
    4.0909    0.6721   -1.6674 H   0  0  0  0  0  0  0  0  0  0  0  0
    3.6213    2.9251   -0.9390 H   0  0  0  0  0  0  0  0  0  0  0  0
    5.3290    2.6359   -0.6533 H   0  0  0  0  0  0  0  0  0  0  0  0
    4.1913    2.6205    0.7045 H   0  0  0  0  0  0  0  0  0  0  0  0
    1.3873    2.2051   -1.0198 H   0  0  0  0  0  0  0  0  0  0  0  0
    1.8802    0.9560   -2.1792 H   0  0  0  0  0  0  0  0  0  0  0  0
    4.9574   -1.5795   -1.5405 H   0  0  0  0  0  0  0  0  0  0  0  0
    5.7038    1.2883    1.6106 H   0  0  0  0  0  0  0  0  0  0  0  0
   -0.4223    1.9848    0.1845 H   0  0  0  0  0  0  0  0  0  0  0  0
    6.7598   -3.0044   -0.6395 H   0  0  0  0  0  0  0  0  0  0  0  0
    7.4913   -0.1359    2.4748 H   0  0  0  0  0  0  0  0  0  0  0  0
   -2.2463   -0.8832   -1.3586 H   0  0  0  0  0  0  0  0  0  0  0  0
   -2.4140    2.5170    1.3307 H   0  0  0  0  0  0  0  0  0  0  0  0
    8.0311   -2.2884    1.3670 H   0  0  0  0  0  0  0  0  0  0  0  0
   -4.4839   -1.3852   -0.9163 H   0  0  0  0  0  0  0  0  0  0  0  0
   -4.7678    1.9890    1.7960 H   0  0  0  0  0  0  0  0  0  0  0  0
   -6.6151    0.5943    1.4052 H   0  0  0  0  0  0  0  0  0  0  0  0
   -8.9102   -1.8714    0.3221 H   0  0  0  0  0  0  0  0  0  0  0  0
   -8.3120   -1.1893    1.8540 H   0  0  0  0  0  0  0  0  0  0  0  0
   -8.8084   -0.1062    0.5226 H   0  0  0  0  0  0  0  0  0  0  0  0
  1  6  1  0  0  0  0
  1  9  1  0  0  0  0
  2 13  2  0  0  0  0
  3 22  2  0  0  0  0
  4 12  1  0  0  0  0
  4 13  1  0  0  0  0
  4 32  1  0  0  0  0
  5 16  1  0  0  0  0
  5 22  1  0  0  0  0
  5 40  1  0  0  0  0
  6  7  1  0  0  0  0
  6  8  1  0  0  0  0
  6 24  1  0  0  0  0
  7 10  2  0  0  0  0
  7 11  1  0  0  0  0
  8 25  1  0  0  0  0
  8 26  1  0  0  0  0
  8 27  1  0  0  0  0
  9 13  1  0  0  0  0
  9 28  1  0  0  0  0
  9 29  1  0  0  0  0
 10 14  1  0  0  0  0
 10 30  1  0  0  0  0
 11 15  2  0  0  0  0
 11 31  1  0  0  0  0
 12 17  2  0  0  0  0
 12 18  1  0  0  0  0
 14 19  2  0  0  0  0
 14 33  1  0  0  0  0
 15 19  1  0  0  0  0
 15 34  1  0  0  0  0
 16 20  2  0  0  0  0
 16 21  1  0  0  0  0
 17 20  1  0  0  0  0
 17 35  1  0  0  0  0
 18 21  2  0  0  0  0
 18 36  1  0  0  0  0
 19 37  1  0  0  0  0
 20 38  1  0  0  0  0
 21 39  1  0  0  0  0
 22 23  1  0  0  0  0
 23 41  1  0  0  0  0
 23 42  1  0  0  0  0
 23 43  1  0  0  0  0
M  END
> <PUBCHEM_COMPOUND_CID>
17395306

> <PUBCHEM_CONFORMER_RMSD>
0.8

> <PUBCHEM_CONFORMER_DIVERSEORDER>
1
156
172
171
8
155
139
48
40
173
111
34
121
109
97
25
104
28
197
209
153
157
103
75
67
2
51
101
165
19
88
162
44
60
141
168
125
147
115
42
127
189
148
151
65
96
201
131
26
122
110
212
152
27
84
108
196
205
66
211
43
105
149
117
18
136
161
13
175
30
23
184
22
99
52
195
31
6
202
9
166
102
82
181
128
100
206
169
204
178
146
106
113
86
78
37
3
154
91
92
134
5
87
129
179
76
188
144
11
17
71
12
10
130
198
118
176
98
126
114
164
174
64
191
4
194
45
74
190
182
120
132
39
14
29
36
185
159
7
73
50
187
177
213
208
116
186
210
203
143
24
95
46
47
133
21
56
55
124
192
142
89
193
170
150
163
138
15
207
54
57
63
123
53
72
49
58
79
90
69
41
35
160
62
119
85
81
93
33
180
135
158
215
200
38
107
20
16
70
199
167
94
80
77
83
61
59
32
137
214
140
183
68
145
112

> <PUBCHEM_MMFF94_PARTIAL_CHARGES>
33
1 -0.46
10 -0.15
11 -0.15
12 0.12
13 0.57
14 -0.15
15 -0.15
16 0.12
17 -0.15
18 -0.15
19 -0.15
2 -0.57
20 -0.15
21 -0.15
22 0.57
23 0.06
3 -0.57
30 0.15
31 0.15
32 0.37
33 0.15
34 0.15
35 0.15
36 0.15
37 0.15
38 0.15
39 0.15
4 -0.55
40 0.37
5 -0.55
6 0.37
7 -0.14
9 0.29

> <PUBCHEM_EFFECTIVE_ROTOR_COUNT>
8

> <PUBCHEM_PHARMACOPHORE_FEATURES>
7
1 2 acceptor
1 3 acceptor
1 4 donor
1 5 donor
1 8 hydrophobe
6 12 16 17 18 20 21 rings
6 7 10 11 14 15 19 rings

> <PUBCHEM_HEAVY_ATOM_COUNT>
23

> <PUBCHEM_ATOM_DEF_STEREO_COUNT>
0

> <PUBCHEM_ATOM_UDEF_STEREO_COUNT>
1

> <PUBCHEM_BOND_DEF_STEREO_COUNT>
0

> <PUBCHEM_BOND_UDEF_STEREO_COUNT>
0

> <PUBCHEM_ISOTOPIC_ATOM_COUNT>
0

> <PUBCHEM_COMPONENT_COUNT>
1

> <PUBCHEM_CACTVS_TAUTO_COUNT>
4

> <PUBCHEM_CONFORMER_ID>
01096E6A00000001

> <PUBCHEM_MMFF94_ENERGY>
68.5167

> <PUBCHEM_FEATURE_SELFOVERLAP>
35.52

> <PUBCHEM_SHAPE_FINGERPRINT>
10 15 16950283988125974336
10066227 112 10159699079949542591
11646440 116 15357695292852789274
12166972 35 18201434757520366421
12236239 1 18412539895311055053
12596602 18 18186523232896118016
12838862 33 17458063777720013783
13533116 47 18343017753485484500
13668630 136 17418093196322447011
13673619 4 17418377999640557556
13685833 64 18131914862526245204
13914758 101 17989488541796880573
14216079 64 17918557933564293339
14251757 52 7781520299923803623
14251764 18 18334013874292730172
14428016 167 18200880690197746650
14528608 73 10375861988350146788
15188451 53 18413389838746492189
15348495 7 17748836189730903418
15690457 1 18342741793389037803
15716309 27 18409165490025199719
1577012 14 18410281515117303580
16994733 274 6122510081806010327
1768 124 18410576201956677238
1818759 1 17846206757590878675
18222031 100 16200148786004837180
1979834 28 17168139070881655300
20028762 73 18413107269096979282
2026 5 17417258761576599298
20281389 69 5833996031390036018
20735858 18 17821444660278994279
21298829 104 7853566920663435202
21304303 64 5978100245603203707
21344244 78 18408328783442456216
21424621 283 6555420816236606423
21637258 2 17846501448034200620
21792934 111 18040437698709476137
2215653 11 15410895145487793372
22224240 67 15936407836743966701
23081809 10 18130212818025892540
23559900 14 14261057732748172709
23576562 1 11527363967606049611
2767999 5 5472849343093785448
3004659 81 12319741362784130012
3014063 24 18202565081285045958
33532 11 18202284718900388314
3383291 50 18412823569243047627
3663271 9 18187082862760853968
4340502 62 17095520712611889302
445580 126 5689593858406092974
5104073 3 18114462280025258152
5385378 56 14345787280048316700
543368 44 7709452818907972869
5758199 1 5473140730638887141
6328613 192 10015867574579723199
9689198 14 7565349747372514057
9953998 17 16587743123523394895
9980921 221 14620528864778289055

> <PUBCHEM_SHAPE_MULTIPOLES>
455.48
24.78
1.9
1.28
9.21
0.01
0
14.77
8.52
-1.15
-0.01
-0.69
-0.01
-0.99

> <PUBCHEM_SHAPE_SELFOVERLAP>
937.496

> <PUBCHEM_SHAPE_VOLUME>
261.1

> <PUBCHEM_COORDINATE_TYPE>
2
5
10

$$$$

