440357
  -OEChem-07051212492D

 25 26  0     0  0  0  0  0  0999 V2000
    7.8171   -0.4333    0.0000 S   0  0  0  0  0  0  0  0  0  0  0  0
    9.8862   -1.1056    0.0000 S   0  0  0  0  0  0  0  0  0  0  0  0
    2.4608   -0.4124    0.0000 O   0  0  0  0  0  0  0  0  0  0  0  0
    8.6262    0.1545    0.0000 C   0  0  0  0  0  0  0  0  0  0  0  0
    9.5772   -0.1545    0.0000 C   0  0  0  0  0  0  0  0  0  0  0  0
    8.3171    1.1056    0.0000 C   0  0  0  0  0  0  0  0  0  0  0  0
    7.0081    0.1545    0.0000 C   0  0  0  0  0  0  0  0  0  0  0  0
    7.3171    1.1056    0.0000 C   0  0  0  0  0  0  0  0  0  0  0  0
   10.3862    0.4333    0.0000 C   0  0  0  0  0  0  0  0  0  0  0  0
   11.1952   -0.1545    0.0000 C   0  0  0  0  0  0  0  0  0  0  0  0
   10.8862   -1.1056    0.0000 C   0  0  0  0  0  0  0  0  0  0  0  0
    4.1550   -0.7725    0.0000 C   0  0  0  0  0  0  0  0  0  0  0  0
    3.4118   -0.1034    0.0000 C   0  0  0  0  0  0  0  0  0  0  0  0
    6.0571   -0.1545    0.0000 C   0  0  0  0  0  0  0  0  0  0  0  0
    5.1060   -0.4635    0.0000 C   0  0  0  0  0  0  0  0  0  0  0  0
    8.6816    1.6072    0.0000 H   0  0  0  0  0  0  0  0  0  0  0  0
    6.9527    1.6072    0.0000 H   0  0  0  0  0  0  0  0  0  0  0  0
   10.3862    1.0533    0.0000 H   0  0  0  0  0  0  0  0  0  0  0  0
   11.7849    0.0371    0.0000 H   0  0  0  0  0  0  0  0  0  0  0  0
    3.6664   -1.1542    0.0000 H   0  0  0  0  0  0  0  0  0  0  0  0
    4.4460   -1.3200    0.0000 H   0  0  0  0  0  0  0  0  0  0  0  0
   11.2507   -1.6072    0.0000 H   0  0  0  0  0  0  0  0  0  0  0  0
    3.9004    0.2783    0.0000 H   0  0  0  0  0  0  0  0  0  0  0  0
    3.1207    0.4440    0.0000 H   0  0  0  0  0  0  0  0  0  0  0  0
    2.0000    0.0024    0.0000 H   0  0  0  0  0  0  0  0  0  0  0  0
  1  4  1  0  0  0  0
  1  7  1  0  0  0  0
  2  5  1  0  0  0  0
  2 11  1  0  0  0  0
  3 13  1  0  0  0  0
  3 25  1  0  0  0  0
  4  5  1  0  0  0  0
  4  6  2  0  0  0  0
  5  9  2  0  0  0  0
  6  8  1  0  0  0  0
  6 16  1  0  0  0  0
  7  8  2  0  0  0  0
  7 14  1  0  0  0  0
  8 17  1  0  0  0  0
  9 10  1  0  0  0  0
  9 18  1  0  0  0  0
 10 11  2  0  0  0  0
 10 19  1  0  0  0  0
 11 22  1  0  0  0  0
 12 13  1  0  0  0  0
 12 15  1  0  0  0  0
 12 20  1  0  0  0  0
 12 21  1  0  0  0  0
 13 23  1  0  0  0  0
 13 24  1  0  0  0  0
 14 15  3  0  0  0  0
M  END
> <PUBCHEM_COMPOUND_CID>
440357

> <PUBCHEM_COMPOUND_CANONICALIZED>
1

> <PUBCHEM_CACTVS_COMPLEXITY>
265

> <PUBCHEM_CACTVS_HBOND_ACCEPTOR>
3

> <PUBCHEM_CACTVS_HBOND_DONOR>
1

> <PUBCHEM_CACTVS_ROTATABLE_BOND>
3

> <PUBCHEM_CACTVS_SUBSKEYS>
AAADccBwIABgAAAAAAAAAAAAAAAAASJAAAAAAAAAAAAAAAAB4AAAGgQACAAACACk0AKwAYAAAgjEECBCAAgDAIAgCBBIiBgAAIgIMCKgERCAYAAggAAoiAcAgIAAAAAAAAAAAAAAAAAAAAAAAAAAAAAAAA==

> <PUBCHEM_IUPAC_OPENEYE_NAME>
4-[5-(2-thienyl)-2-thienyl]but-3-yn-1-ol

> <PUBCHEM_IUPAC_CAS_NAME>
4-(5-thiophen-2-yl-2-thiophenyl)-3-butyn-1-ol

> <PUBCHEM_IUPAC_NAME>
4-(5-thiophen-2-ylthiophen-2-yl)but-3-yn-1-ol

> <PUBCHEM_IUPAC_SYSTEMATIC_NAME>
4-(5-thiophen-2-ylthiophen-2-yl)but-3-yn-1-ol

> <PUBCHEM_IUPAC_TRADITIONAL_NAME>
4-[5-(2-thienyl)-2-thienyl]but-3-yn-1-ol

> <PUBCHEM_IUPAC_INCHI>
InChI=1S/C12H10OS2/c13-8-2-1-4-10-6-7-12(15-10)11-5-3-9-14-11/h3,5-7,9,13H,2,8H2

> <PUBCHEM_IUPAC_INCHIKEY>
ASKPCVROMAYWEF-UHFFFAOYSA-N

> <PUBCHEM_XLOGP3_AA>
3

> <PUBCHEM_EXACT_MASS>
234.017307

> <PUBCHEM_MOLECULAR_FORMULA>
C12H10OS2

> <PUBCHEM_MOLECULAR_WEIGHT>
234.3372

> <PUBCHEM_OPENEYE_CAN_SMILES>
C1=CSC(=C1)C2=CC=C(S2)C#CCCO

> <PUBCHEM_OPENEYE_ISO_SMILES>
C1=CSC(=C1)C2=CC=C(S2)C#CCCO

> <PUBCHEM_CACTVS_TPSA>
76.7

> <PUBCHEM_MONOISOTOPIC_WEIGHT>
234.017307

> <PUBCHEM_TOTAL_CHARGE>
0

> <PUBCHEM_HEAVY_ATOM_COUNT>
15

> <PUBCHEM_ATOM_DEF_STEREO_COUNT>
0

> <PUBCHEM_ATOM_UDEF_STEREO_COUNT>
0

> <PUBCHEM_BOND_DEF_STEREO_COUNT>
0

> <PUBCHEM_BOND_UDEF_STEREO_COUNT>
0

> <PUBCHEM_ISOTOPIC_ATOM_COUNT>
0

> <PUBCHEM_COMPONENT_COUNT>
1

> <PUBCHEM_CACTVS_TAUTO_COUNT>
1

> <PUBCHEM_COORDINATE_TYPE>
1
5
255

> <PUBCHEM_BONDANNOTATIONS>
1  4  8
1  7  8
10  11  8
2  11  8
2  5  8
4  6  8
5  9  8
6  8  8
7  8  8
9  10  8

$$$$

