51075
  -OEChem-07051213053D

 22 23  0     0  0  0  0  0  0999 V2000
   -0.0659    2.6011   -0.0833 Cl  0  0  0  0  0  0  0  0  0  0  0  0
   -3.2058    2.5180    0.2216 Cl  0  0  0  0  0  0  0  0  0  0  0  0
   -2.9777   -2.9396    0.0528 Cl  0  0  0  0  0  0  0  0  0  0  0  0
   -4.6902   -0.2615    0.2922 Cl  0  0  0  0  0  0  0  0  0  0  0  0
    4.4643   -0.2186    2.1094 Cl  0  0  0  0  0  0  0  0  0  0  0  0
   -0.1783   -0.1074   -0.1448 C   0  0  0  0  0  0  0  0  0  0  0  0
    1.2615   -0.1205   -0.2857 C   0  0  0  0  0  0  0  0  0  0  0  0
   -0.9111    1.0784   -0.0420 C   0  0  0  0  0  0  0  0  0  0  0  0
   -0.8437   -1.3356   -0.1121 C   0  0  0  0  0  0  0  0  0  0  0  0
    2.0735   -0.1586    0.8479 C   0  0  0  0  0  0  0  0  0  0  0  0
    1.8376   -0.0952   -1.5558 C   0  0  0  0  0  0  0  0  0  0  0  0
   -2.2988    1.0358    0.0924 C   0  0  0  0  0  0  0  0  0  0  0  0
   -2.2313   -1.3781    0.0222 C   0  0  0  0  0  0  0  0  0  0  0  0
   -2.9590   -0.1925    0.1245 C   0  0  0  0  0  0  0  0  0  0  0  0
    3.4615   -0.1716    0.7114 C   0  0  0  0  0  0  0  0  0  0  0  0
    3.2257   -0.1079   -1.6922 C   0  0  0  0  0  0  0  0  0  0  0  0
    4.0377   -0.1461   -0.5586 C   0  0  0  0  0  0  0  0  0  0  0  0
   -0.2781   -2.2629   -0.1919 H   0  0  0  0  0  0  0  0  0  0  0  0
    1.6262   -0.1781    1.8400 H   0  0  0  0  0  0  0  0  0  0  0  0
    1.2193   -0.0651   -2.4499 H   0  0  0  0  0  0  0  0  0  0  0  0
    3.6744   -0.0880   -2.6810 H   0  0  0  0  0  0  0  0  0  0  0  0
    5.1178   -0.1555   -0.6803 H   0  0  0  0  0  0  0  0  0  0  0  0
  1  8  1  0  0  0  0
  2 12  1  0  0  0  0
  3 13  1  0  0  0  0
  4 14  1  0  0  0  0
  5 15  1  0  0  0  0
  6  7  1  0  0  0  0
  6  8  1  0  0  0  0
  6  9  2  0  0  0  0
  7 10  2  0  0  0  0
  7 11  1  0  0  0  0
  8 12  2  0  0  0  0
  9 13  1  0  0  0  0
  9 18  1  0  0  0  0
 10 15  1  0  0  0  0
 10 19  1  0  0  0  0
 11 16  2  0  0  0  0
 11 20  1  0  0  0  0
 12 14  1  0  0  0  0
 13 14  2  0  0  0  0
 15 17  2  0  0  0  0
 16 17  1  0  0  0  0
 16 21  1  0  0  0  0
 17 22  1  0  0  0  0
M  END
> <PUBCHEM_COMPOUND_CID>
51075

> <PUBCHEM_CONFORMER_RMSD>
0.6

> <PUBCHEM_CONFORMER_DIVERSEORDER>
1
2

> <PUBCHEM_MMFF94_PARTIAL_CHARGES>
20
1 -0.18
10 -0.15
11 -0.15
12 0.18
13 0.18
14 0.18
15 0.18
16 -0.15
17 -0.15
18 0.15
19 0.15
2 -0.18
20 0.15
21 0.15
22 0.15
3 -0.18
4 -0.18
5 -0.18
8 0.18
9 -0.15

> <PUBCHEM_EFFECTIVE_ROTOR_COUNT>
1

> <PUBCHEM_PHARMACOPHORE_FEATURES>
2
6 6 8 9 12 13 14 rings
6 7 10 11 15 16 17 rings

> <PUBCHEM_HEAVY_ATOM_COUNT>
17

> <PUBCHEM_ATOM_DEF_STEREO_COUNT>
0

> <PUBCHEM_ATOM_UDEF_STEREO_COUNT>
0

> <PUBCHEM_BOND_DEF_STEREO_COUNT>
0

> <PUBCHEM_BOND_UDEF_STEREO_COUNT>
0

> <PUBCHEM_ISOTOPIC_ATOM_COUNT>
0

> <PUBCHEM_COMPONENT_COUNT>
1

> <PUBCHEM_CACTVS_TAUTO_COUNT>
1

> <PUBCHEM_CONFORMER_ID>
0000C78300000001

> <PUBCHEM_MMFF94_ENERGY>
49.782

> <PUBCHEM_FEATURE_SELFOVERLAP>
10.149

> <PUBCHEM_SHAPE_FINGERPRINT>
10062212 137 17917715716231436499
10319926 262 18262537982494530410
11132069 177 18334575758804189473
12173636 292 18193838378145206853
12236239 1 17775563143842698398
12500047 106 18336545031231667486
12553582 1 18340197480400997643
13083527 12 17538304846575047999
13140716 1 18265891351056416867
13538477 17 18202279182402408158
13581323 91 18342177790857048142
13583140 156 18045815440155580026
13862211 1 18411139104971166483
14178342 30 18411705404286889834
14420673 8 17692262150401462266
15219456 202 17458347463650209892
15342168 16 16009608854049991896
15375358 24 17895202129089384776
15375462 189 17989205919298621146
15669948 3 18342731914447084471
16752209 62 18413107286228615511
16945 1 18410285909427230559
17804303 29 18335977584959170617
18175812 5 17603583015272312606
18186145 218 12463581685421069558
19049666 15 17605544655727722942
19422 9 17704067412867734874
200 152 16630532833972108850
20279233 1 17749104495821140638
20510252 161 18188204416097612809
20600515 1 18408891736714567241
20715346 28 17603864494602103646
21065201 7 18335134315227892526
21452121 199 17905331732390176071
21501502 16 18121776136978661357
21650355 55 18339656571823659017
22112679 90 17988924491856824396
22854114 59 16877946018533325282
22943178 12 17821722853863994878
23175994 123 14045741560349880854
23184049 29 18266740177932394517
232386 152 18343304730003694542
2334 1 17905603303530959279
23366157 5 17770218254464213781
23402539 116 18335150795312429847
23419403 2 17837530403350148684
23557571 272 18187357757673645452
23559900 14 18189327030691889382
23598291 2 17417523752035667212
2748010 2 18048878499098705015
2838139 119 14925328937237324475
350125 39 17618492628989204397
474 4 16986287397873327652
495365 180 17169281544360404326
5104073 3 18266454309499429619
573450 72 18272939331658275866
5902787 121 18267866090375972915
6049 1 17676474043545675278
633830 44 13840537403403274112
7097593 13 17985843754970922210
7364860 26 17900814951239532045
7615 1 17846217730920784588
77492 1 17775562039999180102
81228 2 18190161537878078193
90316 7 18201445834441359084

> <PUBCHEM_SHAPE_MULTIPOLES>
359.2
8.37
2.34
1.31
2.33
0.33
0.09
-1.29
2.04
-3.39
0.08
2.23
-0.1
-0.17

> <PUBCHEM_SHAPE_SELFOVERLAP>
733.781

> <PUBCHEM_SHAPE_VOLUME>
201.3

> <PUBCHEM_COORDINATE_TYPE>
2
5
10

$$$$

