586182
  -OEChem-06241222453D

 26 27  0     0  0  0  0  0  0999 V2000
    5.9226    0.2571   -0.0606 Cl  0  0  0  0  0  0  0  0  0  0  0  0
   -3.9719   -0.3845    0.0980 N   0  0  0  0  0  0  0  0  0  0  0  0
   -0.7044    0.9903   -0.2381 N   0  0  0  0  0  0  0  0  0  0  0  0
   -0.5453   -1.3261    0.3209 N   0  0  0  0  0  0  0  0  0  0  0  0
   -2.0314    0.9045   -0.2155 N   0  0  0  0  0  0  0  0  0  0  0  0
   -1.8722   -1.4120    0.3433 N   0  0  0  0  0  0  0  0  0  0  0  0
    1.4219   -0.0356    0.0097 C   0  0  0  0  0  0  0  0  0  0  0  0
   -4.8148    0.7260   -0.1692 C   0  0  0  0  0  0  0  0  0  0  0  0
   -0.0218   -0.1290    0.0310 C   0  0  0  0  0  0  0  0  0  0  0  0
    2.0479    1.1654    0.3433 C   0  0  0  0  0  0  0  0  0  0  0  0
    2.1877   -1.1461   -0.3452 C   0  0  0  0  0  0  0  0  0  0  0  0
   -2.5650   -0.2933    0.0744 C   0  0  0  0  0  0  0  0  0  0  0  0
   -6.2780    0.3379   -0.1145 C   0  0  0  0  0  0  0  0  0  0  0  0
    3.4397    1.2558    0.3219 C   0  0  0  0  0  0  0  0  0  0  0  0
    3.5794   -1.0558   -0.3664 C   0  0  0  0  0  0  0  0  0  0  0  0
    4.2055    0.1453   -0.0330 C   0  0  0  0  0  0  0  0  0  0  0  0
   -4.6366    1.5236    0.5618 H   0  0  0  0  0  0  0  0  0  0  0  0
   -4.6023    1.1363   -1.1637 H   0  0  0  0  0  0  0  0  0  0  0  0
   -4.3642   -1.2920    0.3207 H   0  0  0  0  0  0  0  0  0  0  0  0
    1.4790    2.0457    0.6330 H   0  0  0  0  0  0  0  0  0  0  0  0
    1.7289   -2.0930   -0.6195 H   0  0  0  0  0  0  0  0  0  0  0  0
   -6.5064   -0.4392   -0.8517 H   0  0  0  0  0  0  0  0  0  0  0  0
   -6.5447   -0.0513    0.8740 H   0  0  0  0  0  0  0  0  0  0  0  0
   -6.9129    1.2044   -0.3232 H   0  0  0  0  0  0  0  0  0  0  0  0
    3.9143    2.1975    0.5858 H   0  0  0  0  0  0  0  0  0  0  0  0
    4.1636   -1.9285   -0.6470 H   0  0  0  0  0  0  0  0  0  0  0  0
  1 16  1  0  0  0  0
  2  8  1  0  0  0  0
  2 12  1  0  0  0  0
  2 19  1  0  0  0  0
  3  5  2  0  0  0  0
  3  9  1  0  0  0  0
  4  6  1  0  0  0  0
  4  9  2  0  0  0  0
  5 12  1  0  0  0  0
  6 12  2  0  0  0  0
  7  9  1  0  0  0  0
  7 10  2  0  0  0  0
  7 11  1  0  0  0  0
  8 13  1  0  0  0  0
  8 17  1  0  0  0  0
  8 18  1  0  0  0  0
 10 14  1  0  0  0  0
 10 20  1  0  0  0  0
 11 15  2  0  0  0  0
 11 21  1  0  0  0  0
 13 22  1  0  0  0  0
 13 23  1  0  0  0  0
 13 24  1  0  0  0  0
 14 16  2  0  0  0  0
 14 25  1  0  0  0  0
 15 16  1  0  0  0  0
 15 26  1  0  0  0  0
M  END
> <PUBCHEM_COMPOUND_CID>
586182

> <PUBCHEM_CONFORMER_RMSD>
0.6

> <PUBCHEM_CONFORMER_DIVERSEORDER>
1
4
3
5
2

> <PUBCHEM_MMFF94_PARTIAL_CHARGES>
19
1 -0.18
10 -0.15
11 -0.15
12 0.72
14 -0.15
15 -0.15
16 0.18
19 0.4
2 -0.87
20 0.15
21 0.15
25 0.15
26 0.15
3 -0.31
4 -0.31
5 -0.31
6 -0.31
8 0.37
9 0.62

> <PUBCHEM_EFFECTIVE_ROTOR_COUNT>
3

> <PUBCHEM_PHARMACOPHORE_FEATURES>
5
1 2 donor
3 3 4 9 cation
4 2 5 6 12 cation
6 3 4 5 6 9 12 rings
6 7 10 11 14 15 16 rings

> <PUBCHEM_HEAVY_ATOM_COUNT>
16

> <PUBCHEM_ATOM_DEF_STEREO_COUNT>
0

> <PUBCHEM_ATOM_UDEF_STEREO_COUNT>
0

> <PUBCHEM_BOND_DEF_STEREO_COUNT>
0

> <PUBCHEM_BOND_UDEF_STEREO_COUNT>
0

> <PUBCHEM_ISOTOPIC_ATOM_COUNT>
0

> <PUBCHEM_COMPONENT_COUNT>
1

> <PUBCHEM_CACTVS_TAUTO_COUNT>
2

> <PUBCHEM_CONFORMER_ID>
0008F1C600000001

> <PUBCHEM_MMFF94_ENERGY>
44.585

> <PUBCHEM_FEATURE_SELFOVERLAP>
25.455

> <PUBCHEM_SHAPE_FINGERPRINT>
10608611 8 18410296891469046592
11401426 45 18412265034567805103
11471102 20 18333168371251869200
12236239 1 15647051573169380492
13533116 47 4750884693421315916
15048467 5 18131628959607220188
15196674 1 18338797801845091994
15242439 84 18410291406373433178
17834072 33 17894917304475792933
17834076 25 18131633382890570445
18522853 276 18260829306590493240
187816 3 14490473084430679791
200 152 17603305959653477427
20279233 1 18410285909132026250
20645477 56 18272090487380778557
20645477 70 18187926243671398854
21267235 1 18409158935630896806
212847 35 18342455937297648316
23402539 116 18335708221463193743
23402655 69 18259987088856644581
23536379 177 17095240345831536369
23559900 14 18334861571840443584
26918003 58 18409729547373379802
29717793 49 16732976540182819324
335352 9 18410011027272792358
3545911 37 18410292505879779693
366044 4 18342176670076656667
4047638 21 18411981360377908850
4072396 5 18335431183889560170
42788 4 18409730664397257349
495365 180 17676781881026400498
5104073 3 18339080384839021914
522135 26 18334857233896899206
5374978 207 18341619230344476856
542803 24 16774077362670406294
69090 78 18334580131144421343
8272917 22 17895187852539127990

> <PUBCHEM_SHAPE_MULTIPOLES>
306.24
12.6
1.3
0.64
8.19
0.11
0
-2.12
-0.72
-0.41
0.05
-0.08
0.01
0.43

> <PUBCHEM_SHAPE_SELFOVERLAP>
638.982

> <PUBCHEM_SHAPE_VOLUME>
174.3

> <PUBCHEM_COORDINATE_TYPE>
2
5
10

$$$$

