2728
  -OEChem-07051213053D

 26 26  0     0  0  0  0  0  0999 V2000
    4.5925    1.7643    0.2368 Cl  0  0  0  0  0  0  0  0  0  0  0  0
   -2.5850    0.5664   -0.5069 O   0  0  0  0  0  0  0  0  0  0  0  0
   -1.5708   -1.4800   -0.3901 O   0  0  0  0  0  0  0  0  0  0  0  0
   -0.3446    0.5161   -0.2746 N   0  0  0  0  0  0  0  0  0  0  0  0
   -3.8183    0.0579    0.0146 C   0  0  0  0  0  0  0  0  0  0  0  0
   -3.6460   -0.2535    1.4935 C   0  0  0  0  0  0  0  0  0  0  0  0
   -4.9218    1.0770   -0.2252 C   0  0  0  0  0  0  0  0  0  0  0  0
    0.9773    0.0924   -0.1351 C   0  0  0  0  0  0  0  0  0  0  0  0
   -1.4973   -0.2572   -0.3893 C   0  0  0  0  0  0  0  0  0  0  0  0
    2.0040    1.0310   -0.0319 C   0  0  0  0  0  0  0  0  0  0  0  0
    1.2719   -1.2704   -0.0963 C   0  0  0  0  0  0  0  0  0  0  0  0
    3.3252    0.6067    0.1100 C   0  0  0  0  0  0  0  0  0  0  0  0
    2.5930   -1.6947    0.0456 C   0  0  0  0  0  0  0  0  0  0  0  0
    3.6197   -0.7560    0.1488 C   0  0  0  0  0  0  0  0  0  0  0  0
   -4.0805   -0.8577   -0.5302 H   0  0  0  0  0  0  0  0  0  0  0  0
   -4.6016   -0.5391    1.9456 H   0  0  0  0  0  0  0  0  0  0  0  0
   -2.9460   -1.0753    1.6697 H   0  0  0  0  0  0  0  0  0  0  0  0
   -3.2553    0.6168    2.0328 H   0  0  0  0  0  0  0  0  0  0  0  0
   -5.8870    0.7148    0.1413 H   0  0  0  0  0  0  0  0  0  0  0  0
   -5.0128    1.2952   -1.2947 H   0  0  0  0  0  0  0  0  0  0  0  0
   -4.6907    2.0264    0.2704 H   0  0  0  0  0  0  0  0  0  0  0  0
   -0.4880    1.5230   -0.2945 H   0  0  0  0  0  0  0  0  0  0  0  0
    1.7739    2.0940   -0.0618 H   0  0  0  0  0  0  0  0  0  0  0  0
    0.5312   -2.0545   -0.1698 H   0  0  0  0  0  0  0  0  0  0  0  0
    2.8236   -2.7557    0.0760 H   0  0  0  0  0  0  0  0  0  0  0  0
    4.6446   -1.1013    0.2588 H   0  0  0  0  0  0  0  0  0  0  0  0
  1 12  1  0  0  0  0
  2  5  1  0  0  0  0
  2  9  1  0  0  0  0
  3  9  2  0  0  0  0
  4  8  1  0  0  0  0
  4  9  1  0  0  0  0
  4 22  1  0  0  0  0
  5  6  1  0  0  0  0
  5  7  1  0  0  0  0
  5 15  1  0  0  0  0
  6 16  1  0  0  0  0
  6 17  1  0  0  0  0
  6 18  1  0  0  0  0
  7 19  1  0  0  0  0
  7 20  1  0  0  0  0
  7 21  1  0  0  0  0
  8 10  2  0  0  0  0
  8 11  1  0  0  0  0
 10 12  1  0  0  0  0
 10 23  1  0  0  0  0
 11 13  2  0  0  0  0
 11 24  1  0  0  0  0
 12 14  2  0  0  0  0
 13 14  1  0  0  0  0
 13 25  1  0  0  0  0
 14 26  1  0  0  0  0
M  END
> <PUBCHEM_COMPOUND_CID>
2728

> <PUBCHEM_CONFORMER_RMSD>
0.6

> <PUBCHEM_CONFORMER_DIVERSEORDER>
2
28
16
24
8
34
23
33
7
15
26
27
1
25
31
32
10
9
18
17
35
3
11
12
4
36
13
6
14
5
29
21
30
22
19
20

> <PUBCHEM_MMFF94_PARTIAL_CHARGES>
17
1 -0.18
10 -0.15
11 -0.15
12 0.18
13 -0.15
14 -0.15
2 -0.43
22 0.37
23 0.15
24 0.15
25 0.15
26 0.15
3 -0.57
4 -0.55
5 0.28
8 0.12
9 0.78

> <PUBCHEM_EFFECTIVE_ROTOR_COUNT>
4

> <PUBCHEM_PHARMACOPHORE_FEATURES>
4
1 3 acceptor
1 4 donor
3 5 6 7 hydrophobe
6 8 10 11 12 13 14 rings

> <PUBCHEM_HEAVY_ATOM_COUNT>
14

> <PUBCHEM_ATOM_DEF_STEREO_COUNT>
0

> <PUBCHEM_ATOM_UDEF_STEREO_COUNT>
0

> <PUBCHEM_BOND_DEF_STEREO_COUNT>
0

> <PUBCHEM_BOND_UDEF_STEREO_COUNT>
0

> <PUBCHEM_ISOTOPIC_ATOM_COUNT>
0

> <PUBCHEM_COMPONENT_COUNT>
1

> <PUBCHEM_CACTVS_TAUTO_COUNT>
2

> <PUBCHEM_CONFORMER_ID>
00000AA800000002

> <PUBCHEM_MMFF94_ENERGY>
34.1071

> <PUBCHEM_FEATURE_SELFOVERLAP>
20.297

> <PUBCHEM_SHAPE_FINGERPRINT>
11471102 20 18408888451285521164
12346645 6 18333732437949736686
12507560 40 18343577452279985777
13214271 11 18131070394556672127
13675066 3 18202560683396725385
14144814 61 18261109698929243211
14252887 29 18060132158963626272
14445660 50 18334011666220655847
14897335 6 18335143067970126766
15219456 202 18344144791199548586
15375358 24 18131351908003524187
15775835 57 18261393308694623558
17834072 33 18113625551612944079
18186145 218 18260260867246750950
200 152 18187373121240895367
20279233 1 17917708015777093819
20645477 70 18337396053284775031
21065199 12 18272928336795108323
212847 35 18113622312843833417
22485316 2 17917712413697062883
22854114 59 18413106151951171481
23048698 100 18187081780001612803
23402539 116 11167950142812958243
23402655 69 18260271853846966781
23532345 1 18411420626289989096
23559900 14 17417523730724698714
26918003 58 18202284727268387089
3268164 11 14635157880044569889
4047638 21 18410011044151941830
42 15 18201999962489126199
449060 50 18411980239080370709
449060 62 18335422353120047836
5104073 3 18413389838825510395
602551 16 16415186832967847370
69090 78 18409736162061196735
77779 3 18411136948290513207
90127 26 18339352058805993649

> <PUBCHEM_SHAPE_MULTIPOLES>
273.26
9.73
1.59
0.82
5.08
0.13
0.24
-3.69
1.21
-1.49
-0.02
0.64
0.03
0.32

> <PUBCHEM_SHAPE_SELFOVERLAP>
548.351

> <PUBCHEM_SHAPE_VOLUME>
161.7

> <PUBCHEM_COORDINATE_TYPE>
2
5
10

$$$$

