13187056
  -OEChem-07051213112D

 65 66  0     1  0  0  0  0  0999 V2000
    4.6200    0.2211    0.0000 O   0  0  0  0  0  0  0  0  0  0  0  0
    8.0841    2.2211    0.0000 O   0  0  0  0  0  0  0  0  0  0  0  0
    4.6200    2.2211    0.0000 O   0  0  0  0  0  0  0  0  0  0  0  0
    4.6200   -1.5110    0.0000 O   0  0  0  0  0  0  0  0  0  0  0  0
    8.0841    3.2211    0.0000 O   0  0  0  0  0  0  0  0  0  0  0  0
    6.3520    3.2211    0.0000 N   0  0  0  0  0  0  0  0  0  0  0  0
    6.8521   -0.6449    0.0000 N   0  0  0  0  0  0  0  0  0  0  0  0
    2.6200    0.2211    0.0000 N   0  0  0  0  0  0  0  0  0  0  0  0
    4.1200   -4.1090    0.0000 N   0  0  0  0  0  0  0  0  0  0  0  0
    8.0841    5.2211    0.0000 N   0  0  0  0  0  0  0  0  0  0  0  0
    5.4860    0.7211    0.0000 C   0  0  1  0  0  0  0  0  0  0  0  0
    6.3520    2.2211    0.0000 C   0  0  1  0  0  0  0  0  0  0  0  0
    5.4860    1.7211    0.0000 C   0  0  1  0  0  0  0  0  0  0  0  0
    6.3520    0.2211    0.0000 C   0  0  2  0  0  0  0  0  0  0  0  0
    7.2181    1.7211    0.0000 C   0  0  2  0  0  0  0  0  0  0  0  0
    7.2181    0.7211    0.0000 C   0  0  0  0  0  0  0  0  0  0  0  0
    4.1201   -0.6450    0.0000 C   0  0  1  0  0  0  0  0  0  0  0  0
    3.1200   -0.6450    0.0000 C   0  0  1  0  0  0  0  0  0  0  0  0
    2.6200   -1.5110    0.0000 C   0  0  0  0  0  0  0  0  0  0  0  0
    4.1200   -2.3770    0.0000 C   0  0  1  0  0  0  0  0  0  0  0  0
    3.1201   -2.3770    0.0000 C   0  0  0  0  0  0  0  0  0  0  0  0
    5.4860    3.7211    0.0000 C   0  0  0  0  0  0  0  0  0  0  0  0
    7.2181    3.7211    0.0000 C   0  0  0  0  0  0  0  0  0  0  0  0
    4.6200   -3.2430    0.0000 C   0  0  0  0  0  0  0  0  0  0  0  0
    8.9501    1.7211    0.0000 C   0  0  0  0  0  0  0  0  0  0  0  0
    7.2181    4.7211    0.0000 C   0  0  0  0  0  0  0  0  0  0  0  0
    4.6200   -4.9751    0.0000 C   0  0  0  0  0  0  0  0  0  0  0  0
    4.1200   -5.8411    0.0000 C   0  0  0  0  0  0  0  0  0  0  0  0
    5.4860    0.1011    0.0000 H   0  0  0  0  0  0  0  0  0  0  0  0
    6.8890    2.5311    0.0000 H   0  0  0  0  0  0  0  0  0  0  0  0
    5.4860    2.3411    0.0000 H   0  0  0  0  0  0  0  0  0  0  0  0
    5.9137   -0.2173    0.0000 H   0  0  0  0  0  0  0  0  0  0  0  0
    7.2181    2.3411    0.0000 H   0  0  0  0  0  0  0  0  0  0  0  0
    7.4301    0.1385    0.0000 H   0  0  0  0  0  0  0  0  0  0  0  0
    7.8287    0.8288    0.0000 H   0  0  0  0  0  0  0  0  0  0  0  0
    3.8101   -0.1081    0.0000 H   0  0  0  0  0  0  0  0  0  0  0  0
    2.5000   -0.6450    0.0000 H   0  0  0  0  0  0  0  0  0  0  0  0
    2.1451   -1.1125    0.0000 H   0  0  0  0  0  0  0  0  0  0  0  0
    2.1451   -1.9096    0.0000 H   0  0  0  0  0  0  0  0  0  0  0  0
    4.7400   -2.3770    0.0000 H   0  0  0  0  0  0  0  0  0  0  0  0
    7.4720   -0.6449    0.0000 H   0  0  0  0  0  0  0  0  0  0  0  0
    6.5421   -1.1819    0.0000 H   0  0  0  0  0  0  0  0  0  0  0  0
    2.5375   -2.5891    0.0000 H   0  0  0  0  0  0  0  0  0  0  0  0
    3.2278   -2.9876    0.0000 H   0  0  0  0  0  0  0  0  0  0  0  0
    4.0831    1.9111    0.0000 H   0  0  0  0  0  0  0  0  0  0  0  0
    5.7960    4.2580    0.0000 H   0  0  0  0  0  0  0  0  0  0  0  0
    4.9491    4.0311    0.0000 H   0  0  0  0  0  0  0  0  0  0  0  0
    5.1760    3.1841    0.0000 H   0  0  0  0  0  0  0  0  0  0  0  0
    5.0950   -3.6415    0.0000 H   0  0  0  0  0  0  0  0  0  0  0  0
    5.0950   -2.8445    0.0000 H   0  0  0  0  0  0  0  0  0  0  0  0
    2.0000    0.2211    0.0000 H   0  0  0  0  0  0  0  0  0  0  0  0
    2.9300    0.7581    0.0000 H   0  0  0  0  0  0  0  0  0  0  0  0
    8.6401    1.1842    0.0000 H   0  0  0  0  0  0  0  0  0  0  0  0
    9.4871    1.4111    0.0000 H   0  0  0  0  0  0  0  0  0  0  0  0
    9.2601    2.2580    0.0000 H   0  0  0  0  0  0  0  0  0  0  0  0
    7.0060    5.3037    0.0000 H   0  0  0  0  0  0  0  0  0  0  0  0
    6.6075    4.6134    0.0000 H   0  0  0  0  0  0  0  0  0  0  0  0
    3.5000   -4.1090    0.0000 H   0  0  0  0  0  0  0  0  0  0  0  0
    5.0950   -5.3736    0.0000 H   0  0  0  0  0  0  0  0  0  0  0  0
    5.0950   -4.5765    0.0000 H   0  0  0  0  0  0  0  0  0  0  0  0
    8.0841    5.8411    0.0000 H   0  0  0  0  0  0  0  0  0  0  0  0
    8.6210    4.9111    0.0000 H   0  0  0  0  0  0  0  0  0  0  0  0
    3.5831   -5.5311    0.0000 H   0  0  0  0  0  0  0  0  0  0  0  0
    3.8100   -6.3780    0.0000 H   0  0  0  0  0  0  0  0  0  0  0  0
    4.6569   -6.1511    0.0000 H   0  0  0  0  0  0  0  0  0  0  0  0
 11  1  1  1  0  0  0
 17  1  1  1  0  0  0
 15  2  1  1  0  0  0
  2 25  1  0  0  0  0
 13  3  1  6  0  0  0
  3 45  1  0  0  0  0
  4 17  1  0  0  0  0
  4 20  1  0  0  0  0
  5 23  2  0  0  0  0
 12  6  1  6  0  0  0
  6 22  1  0  0  0  0
  6 23  1  0  0  0  0
 14  7  1  6  0  0  0
  7 41  1  0  0  0  0
  7 42  1  0  0  0  0
 18  8  1  1  0  0  0
  8 51  1  0  0  0  0
  8 52  1  0  0  0  0
  9 24  1  0  0  0  0
  9 27  1  0  0  0  0
  9 58  1  0  0  0  0
 10 26  1  0  0  0  0
 10 61  1  0  0  0  0
 10 62  1  0  0  0  0
 11 13  1  0  0  0  0
 11 14  1  0  0  0  0
 11 29  1  0  0  0  0
 12 13  1  0  0  0  0
 12 15  1  0  0  0  0
 12 30  1  0  0  0  0
 13 31  1  0  0  0  0
 14 16  1  0  0  0  0
 14 32  1  0  0  0  0
 15 16  1  0  0  0  0
 15 33  1  0  0  0  0
 16 34  1  0  0  0  0
 16 35  1  0  0  0  0
 17 18  1  0  0  0  0
 17 36  1  0  0  0  0
 18 19  1  0  0  0  0
 18 37  1  0  0  0  0
 19 21  1  0  0  0  0
 19 38  1  0  0  0  0
 19 39  1  0  0  0  0
 20 21  1  0  0  0  0
 20 24  1  6  0  0  0
 20 40  1  0  0  0  0
 21 43  1  0  0  0  0
 21 44  1  0  0  0  0
 22 46  1  0  0  0  0
 22 47  1  0  0  0  0
 22 48  1  0  0  0  0
 23 26  1  0  0  0  0
 24 49  1  0  0  0  0
 24 50  1  0  0  0  0
 25 53  1  0  0  0  0
 25 54  1  0  0  0  0
 25 55  1  0  0  0  0
 26 56  1  0  0  0  0
 26 57  1  0  0  0  0
 27 28  1  0  0  0  0
 27 59  1  0  0  0  0
 27 60  1  0  0  0  0
 28 63  1  0  0  0  0
 28 64  1  0  0  0  0
 28 65  1  0  0  0  0
M  END
> <PUBCHEM_COMPOUND_CID>
13187056

> <PUBCHEM_COMPOUND_CANONICALIZED>
1

> <PUBCHEM_CACTVS_COMPLEXITY>
499

> <PUBCHEM_CACTVS_HBOND_ACCEPTOR>
9

> <PUBCHEM_CACTVS_HBOND_DONOR>
5

> <PUBCHEM_CACTVS_ROTATABLE_BOND>
8

> <PUBCHEM_CACTVS_SUBSKEYS>
AAADcfB7uAAAAAAAAAAAAAAAAAAAAAAAAAA0QAAAAAAAAAAAAAAAHgAQCAAACDzxgAcCCAPABgAIAAEQEAAAAAAAAAAAAICIAAATUAIAgAA3QAAHFgCXAAHwcA8AAAAAAAAAAAACAQAUAACgAAAAAAAAAA==

> <PUBCHEM_IUPAC_OPENEYE_NAME>
2-amino-N-[(1S,2R,3R,4S,6S)-4-amino-3-[(2R,3R,6S)-3-amino-6-(ethylaminomethyl)tetrahydropyran-2-yl]oxy-2-hydroxy-6-methoxy-cyclohexyl]-N-methyl-acetamide

> <PUBCHEM_IUPAC_CAS_NAME>
2-amino-N-[(1S,2R,3R,4S,6S)-4-amino-3-[[(2R,3R,6S)-3-amino-6-(ethylaminomethyl)-2-oxanyl]oxy]-2-hydroxy-6-methoxycyclohexyl]-N-methylacetamide

> <PUBCHEM_IUPAC_NAME>
2-amino-N-[(1S,2R,3R,4S,6S)-4-amino-3-[(2R,3R,6S)-3-amino-6-(ethylaminomethyl)oxan-2-yl]oxy-2-hydroxy-6-methoxycyclohexyl]-N-methylacetamide

> <PUBCHEM_IUPAC_SYSTEMATIC_NAME>
2-azanyl-N-[(1S,2R,3R,4S,6S)-4-azanyl-3-[(2R,3R,6S)-3-azanyl-6-(ethylaminomethyl)oxan-2-yl]oxy-6-methoxy-2-oxidanyl-cyclohexyl]-N-methyl-ethanamide

> <PUBCHEM_IUPAC_TRADITIONAL_NAME>
2-amino-N-[(1S,2R,3R,4S,6S)-4-amino-3-[(2R,3R,6S)-3-amino-6-(ethylaminomethyl)tetrahydropyran-2-yl]oxy-2-hydroxy-6-methoxy-cyclohexyl]-N-methyl-acetamide

> <PUBCHEM_IUPAC_INCHI>
InChI=1S/C18H37N5O5/c1-4-22-9-10-5-6-11(20)18(27-10)28-17-12(21)7-13(26-3)15(16(17)25)23(2)14(24)8-19/h10-13,15-18,22,25H,4-9,19-21H2,1-3H3/t10-,11+,12-,13-,15+,16+,17+,18+/m0/s1

> <PUBCHEM_IUPAC_INCHIKEY>
XKGUGTMUSMUVIP-GTSDWETFSA-N

> <PUBCHEM_XLOGP3_AA>
-3

> <PUBCHEM_EXACT_MASS>
403.279469

> <PUBCHEM_MOLECULAR_FORMULA>
C18H37N5O5

> <PUBCHEM_MOLECULAR_WEIGHT>
403.51688

> <PUBCHEM_OPENEYE_CAN_SMILES>
CCNCC1CCC(C(O1)OC2C(CC(C(C2O)N(C)C(=O)CN)OC)N)N

> <PUBCHEM_OPENEYE_ISO_SMILES>
CCNC[C@@H]1CC[C@H]([C@H](O1)O[C@@H]2[C@H](C[C@@H]([C@H]([C@H]2O)N(C)C(=O)CN)OC)N)N

> <PUBCHEM_CACTVS_TPSA>
158

> <PUBCHEM_MONOISOTOPIC_WEIGHT>
403.279469

> <PUBCHEM_TOTAL_CHARGE>
0

> <PUBCHEM_HEAVY_ATOM_COUNT>
28

> <PUBCHEM_ATOM_DEF_STEREO_COUNT>
8

> <PUBCHEM_ATOM_UDEF_STEREO_COUNT>
0

> <PUBCHEM_BOND_DEF_STEREO_COUNT>
0

> <PUBCHEM_BOND_UDEF_STEREO_COUNT>
0

> <PUBCHEM_ISOTOPIC_ATOM_COUNT>
0

> <PUBCHEM_COMPONENT_COUNT>
1

> <PUBCHEM_CACTVS_TAUTO_COUNT>
1

> <PUBCHEM_COORDINATE_TYPE>
1
5
255

> <PUBCHEM_BONDANNOTATIONS>
11  1  5
17  1  5
15  2  5
20  24  6
13  3  6
12  6  6
14  7  6
18  8  5

$$$$

