544
  -OEChem-07051212522D

  4  3  0     0  0  0  0  0  0999 V2000
    2.8660    0.2500    0.0000 As  0  0  0  0  0  0  0  0  0  0  0  0
    3.7320    0.7500    0.0000 O   0  5  0  0  0  0  0  0  0  0  0  0
    2.0000    0.7500    0.0000 O   0  5  0  0  0  0  0  0  0  0  0  0
    2.8660   -0.7500    0.0000 O   0  5  0  0  0  0  0  0  0  0  0  0
  1  2  1  0  0  0  0
  1  3  1  0  0  0  0
  1  4  1  0  0  0  0
M  CHG  3   2  -1   3  -1   4  -1
M  END
> <PUBCHEM_COMPOUND_CID>
544

> <PUBCHEM_COMPOUND_CANONICALIZED>
1

> <PUBCHEM_CACTVS_COMPLEXITY>
8

> <PUBCHEM_CACTVS_HBOND_ACCEPTOR>
3

> <PUBCHEM_CACTVS_HBOND_DONOR>
0

> <PUBCHEM_CACTVS_ROTATABLE_BOND>
0

> <PUBCHEM_CACTVS_SUBSKEYS>
AAADcQAAMAAAAAAAQAAAAAAAAAAAAAAAAAAAAAAAAAAAAAAAAAAAAAAAAAAAAAAAAAAAAAAAAAAAAAAAAAAAAAAAAAAAAAAAAAAAAAAAAAAAAAAAAAAAAAAAAAAAAAAAAAAAAAAAAAAAAAAAAAAAAAAAAA==

> <PUBCHEM_IUPAC_OPENEYE_NAME>
trioxidoarsane

> <PUBCHEM_IUPAC_CAS_NAME>
trioxidoarsine

> <PUBCHEM_IUPAC_NAME>
trioxidoarsane

> <PUBCHEM_IUPAC_SYSTEMATIC_NAME>
tris(oxidanidyl)arsane

> <PUBCHEM_IUPAC_TRADITIONAL_NAME>
trioxidoarsine

> <PUBCHEM_IUPAC_INCHI>
InChI=1S/AsO3/c2-1(3)4/q-3

> <PUBCHEM_IUPAC_INCHIKEY>
OWTFKEBRIAXSMO-UHFFFAOYSA-N

> <PUBCHEM_EXACT_MASS>
122.90634

> <PUBCHEM_MOLECULAR_FORMULA>
AsO3-3

> <PUBCHEM_MOLECULAR_WEIGHT>
122.9198

> <PUBCHEM_OPENEYE_CAN_SMILES>
[O-][As]([O-])[O-]

> <PUBCHEM_OPENEYE_ISO_SMILES>
[O-][As]([O-])[O-]

> <PUBCHEM_CACTVS_TPSA>
69.2

> <PUBCHEM_MONOISOTOPIC_WEIGHT>
122.90634

> <PUBCHEM_TOTAL_CHARGE>
-3

> <PUBCHEM_HEAVY_ATOM_COUNT>
4

> <PUBCHEM_ATOM_DEF_STEREO_COUNT>
0

> <PUBCHEM_ATOM_UDEF_STEREO_COUNT>
0

> <PUBCHEM_BOND_DEF_STEREO_COUNT>
0

> <PUBCHEM_BOND_UDEF_STEREO_COUNT>
0

> <PUBCHEM_ISOTOPIC_ATOM_COUNT>
0

> <PUBCHEM_COMPONENT_COUNT>
1

> <PUBCHEM_CACTVS_TAUTO_COUNT>
1

> <PUBCHEM_COORDINATE_TYPE>
1
5
255

$$$$

