10399
  -OEChem-06261204312D

 22 22  0     0  0  0  0  0  0999 V2000
    5.1906    0.0000    0.0000 O   0  0  0  0  0  0  0  0  0  0  0  0
    4.1906    0.0000    0.0000 C   0  0  0  0  0  0  0  0  0  0  0  0
    3.7568   -0.9010    0.0000 C   0  0  0  0  0  0  0  0  0  0  0  0
    3.7568    0.9010    0.0000 C   0  0  0  0  0  0  0  0  0  0  0  0
    2.7818    1.1235    0.0000 C   0  0  0  0  0  0  0  0  0  0  0  0
    2.7818   -1.1235    0.0000 C   0  0  0  0  0  0  0  0  0  0  0  0
    2.0000   -0.5000    0.0000 C   0  0  0  0  0  0  0  0  0  0  0  0
    2.0000    0.5000    0.0000 C   0  0  0  0  0  0  0  0  0  0  0  0
    4.5205    0.5250    0.0000 H   0  0  0  0  0  0  0  0  0  0  0  0
    4.3612    1.0389    0.0000 H   0  0  0  0  0  0  0  0  0  0  0  0
    3.7568    1.5210    0.0000 H   0  0  0  0  0  0  0  0  0  0  0  0
    3.7568   -1.5210    0.0000 H   0  0  0  0  0  0  0  0  0  0  0  0
    4.3612   -1.0389    0.0000 H   0  0  0  0  0  0  0  0  0  0  0  0
    3.0508    1.6821    0.0000 H   0  0  0  0  0  0  0  0  0  0  0  0
    2.2971    1.5100    0.0000 H   0  0  0  0  0  0  0  0  0  0  0  0
    2.2971   -1.5100    0.0000 H   0  0  0  0  0  0  0  0  0  0  0  0
    3.0508   -1.6821    0.0000 H   0  0  0  0  0  0  0  0  0  0  0  0
    1.3955   -0.3620    0.0000 H   0  0  0  0  0  0  0  0  0  0  0  0
    1.7310   -1.0586    0.0000 H   0  0  0  0  0  0  0  0  0  0  0  0
    1.7310    1.0586    0.0000 H   0  0  0  0  0  0  0  0  0  0  0  0
    1.3955    0.3620    0.0000 H   0  0  0  0  0  0  0  0  0  0  0  0
    5.5006   -0.5369    0.0000 H   0  0  0  0  0  0  0  0  0  0  0  0
  1  2  1  0  0  0  0
  1 22  1  0  0  0  0
  2  3  1  0  0  0  0
  2  4  1  0  0  0  0
  2  9  1  0  0  0  0
  3  6  1  0  0  0  0
  3 12  1  0  0  0  0
  3 13  1  0  0  0  0
  4  5  1  0  0  0  0
  4 10  1  0  0  0  0
  4 11  1  0  0  0  0
  5  8  1  0  0  0  0
  5 14  1  0  0  0  0
  5 15  1  0  0  0  0
  6  7  1  0  0  0  0
  6 16  1  0  0  0  0
  6 17  1  0  0  0  0
  7  8  1  0  0  0  0
  7 18  1  0  0  0  0
  7 19  1  0  0  0  0
  8 20  1  0  0  0  0
  8 21  1  0  0  0  0
M  END
> <PUBCHEM_COMPOUND_CID>
10399

> <PUBCHEM_COMPOUND_CANONICALIZED>
1

> <PUBCHEM_CACTVS_COMPLEXITY>
53.4

> <PUBCHEM_CACTVS_HBOND_ACCEPTOR>
1

> <PUBCHEM_CACTVS_HBOND_DONOR>
1

> <PUBCHEM_CACTVS_ROTATABLE_BOND>
0

> <PUBCHEM_CACTVS_SUBSKEYS>
AAADccBgIAAAAAAAAAAAAAAAAAAAAAAAAAAAAAAABgAAAAAAAAAAGgAACAAACBSggAIAAAAAAgAAAAAAAAAAAAAAAAAAAAAAAAAAEAIAAAAAQAAEAAAAAAGAwCAAAAAAAAAAAAAAAAAAAAAAAAAAAAAAAA==

> <PUBCHEM_IUPAC_OPENEYE_NAME>
cycloheptanol

> <PUBCHEM_IUPAC_CAS_NAME>
cycloheptanol

> <PUBCHEM_IUPAC_NAME>
cycloheptanol

> <PUBCHEM_IUPAC_SYSTEMATIC_NAME>
cycloheptanol

> <PUBCHEM_IUPAC_TRADITIONAL_NAME>
cycloheptanol

> <PUBCHEM_IUPAC_INCHI>
InChI=1S/C7H14O/c8-7-5-3-1-2-4-6-7/h7-8H,1-6H2

> <PUBCHEM_IUPAC_INCHIKEY>
QCRFMSUKWRQZEM-UHFFFAOYSA-N

> <PUBCHEM_XLOGP3>
1

> <PUBCHEM_EXACT_MASS>
114.104465

> <PUBCHEM_MOLECULAR_FORMULA>
C7H14O

> <PUBCHEM_MOLECULAR_WEIGHT>
114.18546

> <PUBCHEM_OPENEYE_CAN_SMILES>
C1CCCC(CC1)O

> <PUBCHEM_OPENEYE_ISO_SMILES>
C1CCCC(CC1)O

> <PUBCHEM_CACTVS_TPSA>
20.2

> <PUBCHEM_MONOISOTOPIC_WEIGHT>
114.104465

> <PUBCHEM_TOTAL_CHARGE>
0

> <PUBCHEM_HEAVY_ATOM_COUNT>
8

> <PUBCHEM_ATOM_DEF_STEREO_COUNT>
0

> <PUBCHEM_ATOM_UDEF_STEREO_COUNT>
0

> <PUBCHEM_BOND_DEF_STEREO_COUNT>
0

> <PUBCHEM_BOND_UDEF_STEREO_COUNT>
0

> <PUBCHEM_ISOTOPIC_ATOM_COUNT>
0

> <PUBCHEM_COMPONENT_COUNT>
1

> <PUBCHEM_CACTVS_TAUTO_COUNT>
1

> <PUBCHEM_COORDINATE_TYPE>
1
5
255

$$$$

