443861
  -OEChem-07051213032D

 19 19  0     0  0  0  0  0  0999 V2000
    6.4147   -1.8846    0.0000 O   0  0  0  0  0  0  0  0  0  0  0  0
    2.3644    1.0581    0.0000 O   0  0  0  0  0  0  0  0  0  0  0  0
    6.9500   -0.2373    0.0000 O   0  0  0  0  0  0  0  0  0  0  0  0
    3.7657    2.0762    0.0000 O   0  0  0  0  0  0  0  0  0  0  0  0
    4.4467   -1.1852    0.0000 N   0  0  0  0  0  0  0  0  0  0  0  0
    4.9467    0.3536    0.0000 C   0  0  0  0  0  0  0  0  0  0  0  0
    5.2558   -0.5974    0.0000 C   0  0  0  0  0  0  0  0  0  0  0  0
    3.9467    0.3536    0.0000 C   0  0  0  0  0  0  0  0  0  0  0  0
    3.6377   -0.5974    0.0000 C   0  0  0  0  0  0  0  0  0  0  0  0
    5.5345    1.1626    0.0000 C   0  0  0  0  0  0  0  0  0  0  0  0
    6.2068   -0.9064    0.0000 C   0  0  0  0  0  0  0  0  0  0  0  0
    3.3590    1.1626    0.0000 C   0  0  0  0  0  0  0  0  0  0  0  0
    4.4467   -1.8052    0.0000 H   0  0  0  0  0  0  0  0  0  0  0  0
    3.0481   -0.7890    0.0000 H   0  0  0  0  0  0  0  0  0  0  0  0
    6.0361    0.7982    0.0000 H   0  0  0  0  0  0  0  0  0  0  0  0
    5.8990    1.6642    0.0000 H   0  0  0  0  0  0  0  0  0  0  0  0
    5.0329    1.5271    0.0000 H   0  0  0  0  0  0  0  0  0  0  0  0
    7.0044   -2.0762    0.0000 H   0  0  0  0  0  0  0  0  0  0  0  0
    2.0000    1.5597    0.0000 H   0  0  0  0  0  0  0  0  0  0  0  0
  1 11  1  0  0  0  0
  1 18  1  0  0  0  0
  2 12  1  0  0  0  0
  2 19  1  0  0  0  0
  3 11  2  0  0  0  0
  4 12  2  0  0  0  0
  5  7  1  0  0  0  0
  5  9  1  0  0  0  0
  5 13  1  0  0  0  0
  6  7  2  0  0  0  0
  6  8  1  0  0  0  0
  6 10  1  0  0  0  0
  7 11  1  0  0  0  0
  8  9  2  0  0  0  0
  8 12  1  0  0  0  0
  9 14  1  0  0  0  0
 10 15  1  0  0  0  0
 10 16  1  0  0  0  0
 10 17  1  0  0  0  0
M  END
> <PUBCHEM_COMPOUND_CID>
443861

> <PUBCHEM_COMPOUND_CANONICALIZED>
1

> <PUBCHEM_CACTVS_COMPLEXITY>
216

> <PUBCHEM_CACTVS_HBOND_ACCEPTOR>
4

> <PUBCHEM_CACTVS_HBOND_DONOR>
3

> <PUBCHEM_CACTVS_ROTATABLE_BOND>
2

> <PUBCHEM_CACTVS_SUBSKEYS>
AAADcYBiOAAAAAAAAAAAAAAAAAAAAWAAAAAAAAAAAAAAAAABgAAAHgAQCAAADAjBngQuiJLJkgCoAxT3TASCgCA3ACAA2aGoTNgKJnrAlLGEUYhmwAHY2ca8NwAOgAAAAAAAAAAAAAAAAAAAAAAAAAAAAA==

> <PUBCHEM_IUPAC_OPENEYE_NAME>
3-methyl-1H-pyrrole-2,4-dicarboxylic acid

> <PUBCHEM_IUPAC_CAS_NAME>
3-methyl-1H-pyrrole-2,4-dicarboxylic acid

> <PUBCHEM_IUPAC_NAME>
3-methyl-1H-pyrrole-2,4-dicarboxylic acid

> <PUBCHEM_IUPAC_SYSTEMATIC_NAME>
3-methyl-1H-pyrrole-2,4-dicarboxylic acid

> <PUBCHEM_IUPAC_TRADITIONAL_NAME>
3-methyl-1H-pyrrole-2,4-dicarboxylic acid

> <PUBCHEM_IUPAC_INCHI>
InChI=1S/C7H7NO4/c1-3-4(6(9)10)2-8-5(3)7(11)12/h2,8H,1H3,(H,9,10)(H,11,12)

> <PUBCHEM_IUPAC_INCHIKEY>
DVIKMLHVAWYDMS-UHFFFAOYSA-N

> <PUBCHEM_XLOGP3_AA>
0.5

> <PUBCHEM_EXACT_MASS>
169.037508

> <PUBCHEM_MOLECULAR_FORMULA>
C7H7NO4

> <PUBCHEM_MOLECULAR_WEIGHT>
169.13478

> <PUBCHEM_OPENEYE_CAN_SMILES>
CC1=C(NC=C1C(=O)O)C(=O)O

> <PUBCHEM_OPENEYE_ISO_SMILES>
CC1=C(NC=C1C(=O)O)C(=O)O

> <PUBCHEM_CACTVS_TPSA>
90.4

> <PUBCHEM_MONOISOTOPIC_WEIGHT>
169.037508

> <PUBCHEM_TOTAL_CHARGE>
0

> <PUBCHEM_HEAVY_ATOM_COUNT>
12

> <PUBCHEM_ATOM_DEF_STEREO_COUNT>
0

> <PUBCHEM_ATOM_UDEF_STEREO_COUNT>
0

> <PUBCHEM_BOND_DEF_STEREO_COUNT>
0

> <PUBCHEM_BOND_UDEF_STEREO_COUNT>
0

> <PUBCHEM_ISOTOPIC_ATOM_COUNT>
0

> <PUBCHEM_COMPONENT_COUNT>
1

> <PUBCHEM_CACTVS_TAUTO_COUNT>
6

> <PUBCHEM_COORDINATE_TYPE>
1
5
255

> <PUBCHEM_BONDANNOTATIONS>
5  7  8
5  9  8
6  7  8
6  8  8
8  9  8

$$$$

