5281648
  -OEChem-07051212582D

 32 34  0     0  0  0  0  0  0999 V2000
    6.0290   -0.2699    0.0000 O   0  0  0  0  0  0  0  0  0  0  0  0
    4.2690    2.7648    0.0000 O   0  0  0  0  0  0  0  0  0  0  0  0
    4.2690   -1.2352    0.0000 O   0  0  0  0  0  0  0  0  0  0  0  0
    6.0174    2.7994    0.0000 O   0  0  0  0  0  0  0  0  0  0  0  0
    2.5369   -0.2352    0.0000 O   0  0  0  0  0  0  0  0  0  0  0  0
    8.6555   -2.7627    0.0000 O   0  0  0  0  0  0  0  0  0  0  0  0
   10.3914   -1.7694    0.0000 O   0  0  0  0  0  0  0  0  0  0  0  0
    5.1350    1.2648    0.0000 C   0  0  0  0  0  0  0  0  0  0  0  0
    5.1350    0.2648    0.0000 C   0  0  0  0  0  0  0  0  0  0  0  0
    6.9350    0.2440    0.0000 C   0  0  0  0  0  0  0  0  0  0  0  0
    7.7991   -0.2594    0.0000 C   0  0  0  0  0  0  0  0  0  0  0  0
    6.0290    1.7994    0.0000 C   0  0  0  0  0  0  0  0  0  0  0  0
    6.9350    1.2856    0.0000 C   0  0  0  0  0  0  0  0  0  0  0  0
    4.2690    1.7648    0.0000 C   0  0  0  0  0  0  0  0  0  0  0  0
    4.2690   -0.2352    0.0000 C   0  0  0  0  0  0  0  0  0  0  0  0
    3.4030    0.2648    0.0000 C   0  0  0  0  0  0  0  0  0  0  0  0
    3.4030    1.2648    0.0000 C   0  0  0  0  0  0  0  0  0  0  0  0
    7.7953   -1.2594    0.0000 C   0  0  0  0  0  0  0  0  0  0  0  0
    8.6671    0.2373    0.0000 C   0  0  0  0  0  0  0  0  0  0  0  0
    8.6594   -1.7627    0.0000 C   0  0  0  0  0  0  0  0  0  0  0  0
    9.5312   -0.2661    0.0000 C   0  0  0  0  0  0  0  0  0  0  0  0
    9.5273   -1.2660    0.0000 C   0  0  0  0  0  0  0  0  0  0  0  0
    7.4708    1.5976    0.0000 H   0  0  0  0  0  0  0  0  0  0  0  0
    2.8660    1.5748    0.0000 H   0  0  0  0  0  0  0  0  0  0  0  0
    7.2571   -1.5673    0.0000 H   0  0  0  0  0  0  0  0  0  0  0  0
    8.6694    0.8573    0.0000 H   0  0  0  0  0  0  0  0  0  0  0  0
   10.0693    0.0419    0.0000 H   0  0  0  0  0  0  0  0  0  0  0  0
    3.7320    3.0748    0.0000 H   0  0  0  0  0  0  0  0  0  0  0  0
    3.7320   -1.5452    0.0000 H   0  0  0  0  0  0  0  0  0  0  0  0
    2.0000    0.0748    0.0000 H   0  0  0  0  0  0  0  0  0  0  0  0
    9.1912   -3.0748    0.0000 H   0  0  0  0  0  0  0  0  0  0  0  0
   10.9295   -1.4615    0.0000 H   0  0  0  0  0  0  0  0  0  0  0  0
  1  9  1  0  0  0  0
  1 10  1  0  0  0  0
  2 14  1  0  0  0  0
  2 28  1  0  0  0  0
  3 15  1  0  0  0  0
  3 29  1  0  0  0  0
  4 12  2  0  0  0  0
  5 16  1  0  0  0  0
  5 30  1  0  0  0  0
  6 20  1  0  0  0  0
  6 31  1  0  0  0  0
  7 22  1  0  0  0  0
  7 32  1  0  0  0  0
  8  9  2  0  0  0  0
  8 12  1  0  0  0  0
  8 14  1  0  0  0  0
  9 15  1  0  0  0  0
 10 11  1  0  0  0  0
 10 13  2  0  0  0  0
 11 18  2  0  0  0  0
 11 19  1  0  0  0  0
 12 13  1  0  0  0  0
 13 23  1  0  0  0  0
 14 17  2  0  0  0  0
 15 16  2  0  0  0  0
 16 17  1  0  0  0  0
 17 24  1  0  0  0  0
 18 20  1  0  0  0  0
 18 25  1  0  0  0  0
 19 21  2  0  0  0  0
 19 26  1  0  0  0  0
 20 22  2  0  0  0  0
 21 22  1  0  0  0  0
 21 27  1  0  0  0  0
M  END
> <PUBCHEM_COMPOUND_CID>
5281648

> <PUBCHEM_COMPOUND_CANONICALIZED>
1

> <PUBCHEM_CACTVS_COMPLEXITY>
477

> <PUBCHEM_CACTVS_HBOND_ACCEPTOR>
7

> <PUBCHEM_CACTVS_HBOND_DONOR>
5

> <PUBCHEM_CACTVS_ROTATABLE_BOND>
1

> <PUBCHEM_CACTVS_SUBSKEYS>
AAADccBwOAAAAAAAAAAAAAAAAAAAAAAAAAAwYIAAAAAAAACBQAAAGgAACAAADASAmAAwBoAABgCIAqBSAAACCAAkIAAIiAEGiMgNJzaGNRqCeWOl4BULuQfK7LzOIQABCAAIQABCAAIQABCAAAAAAAAAAA==

> <PUBCHEM_IUPAC_OPENEYE_NAME>
2-(3,4-dihydroxyphenyl)-5,7,8-trihydroxy-chromen-4-one

> <PUBCHEM_IUPAC_CAS_NAME>
2-(3,4-dihydroxyphenyl)-5,7,8-trihydroxy-1-benzopyran-4-one

> <PUBCHEM_IUPAC_NAME>
2-(3,4-dihydroxyphenyl)-5,7,8-trihydroxychromen-4-one

> <PUBCHEM_IUPAC_SYSTEMATIC_NAME>
2-[3,4-bis(oxidanyl)phenyl]-5,7,8-tris(oxidanyl)chromen-4-one

> <PUBCHEM_IUPAC_TRADITIONAL_NAME>
2-(3,4-dihydroxyphenyl)-5,7,8-trihydroxy-chromone

> <PUBCHEM_IUPAC_INCHI>
InChI=1S/C15H10O7/c16-7-2-1-6(3-8(7)17)12-5-10(19)13-9(18)4-11(20)14(21)15(13)22-12/h1-5,16-18,20-21H

> <PUBCHEM_IUPAC_INCHIKEY>
ASOIXDIITRKTOX-UHFFFAOYSA-N

> <PUBCHEM_XLOGP3_AA>
2

> <PUBCHEM_EXACT_MASS>
302.042653

> <PUBCHEM_MOLECULAR_FORMULA>
C15H10O7

> <PUBCHEM_MOLECULAR_WEIGHT>
302.2357

> <PUBCHEM_OPENEYE_CAN_SMILES>
C1=CC(=C(C=C1C2=CC(=O)C3=C(O2)C(=C(C=C3O)O)O)O)O

> <PUBCHEM_OPENEYE_ISO_SMILES>
C1=CC(=C(C=C1C2=CC(=O)C3=C(O2)C(=C(C=C3O)O)O)O)O

> <PUBCHEM_CACTVS_TPSA>
127

> <PUBCHEM_MONOISOTOPIC_WEIGHT>
302.042653

> <PUBCHEM_TOTAL_CHARGE>
0

> <PUBCHEM_HEAVY_ATOM_COUNT>
22

> <PUBCHEM_ATOM_DEF_STEREO_COUNT>
0

> <PUBCHEM_ATOM_UDEF_STEREO_COUNT>
0

> <PUBCHEM_BOND_DEF_STEREO_COUNT>
0

> <PUBCHEM_BOND_UDEF_STEREO_COUNT>
0

> <PUBCHEM_ISOTOPIC_ATOM_COUNT>
0

> <PUBCHEM_COMPONENT_COUNT>
1

> <PUBCHEM_CACTVS_TAUTO_COUNT>
418

> <PUBCHEM_COORDINATE_TYPE>
1
5
255

> <PUBCHEM_BONDANNOTATIONS>
1  10  8
1  9  8
10  13  8
11  18  8
11  19  8
12  13  8
14  17  8
15  16  8
16  17  8
18  20  8
19  21  8
20  22  8
21  22  8
8  12  8
8  14  8
8  9  8
9  15  8

$$$$

