442135
  -OEChem-07051212573D

 44 46  0     1  0  0  0  0  0999 V2000
   -0.0569    2.0575    0.6249 O   0  0  0  0  0  0  0  0  0  0  0  0
   -2.2403    0.3996   -0.0467 O   0  0  0  0  0  0  0  0  0  0  0  0
    3.0671   -0.9983   -1.1098 O   0  0  0  0  0  0  0  0  0  0  0  0
   -4.4458    0.6322   -0.6843 O   0  0  0  0  0  0  0  0  0  0  0  0
    4.5737   -2.4980   -1.9611 O   0  0  0  0  0  0  0  0  0  0  0  0
   -0.3753    1.7353   -0.7546 C   0  0  2  0  0  0  0  0  0  0  0  0
   -1.8733    1.5077   -0.8740 C   0  0  0  0  0  0  0  0  0  0  0  0
    0.4431    0.5057   -1.1782 C   0  0  0  0  0  0  0  0  0  0  0  0
    1.5265    0.5860   -0.1747 C   0  0  0  0  0  0  0  0  0  0  0  0
    1.1635    1.4667    0.8303 C   0  0  0  0  0  0  0  0  0  0  0  0
   -2.2700    1.1817   -2.3162 C   0  0  0  0  0  0  0  0  0  0  0  0
   -2.6515    2.7257   -0.3720 C   0  0  0  0  0  0  0  0  0  0  0  0
    2.7241   -0.0966   -0.0896 C   0  0  0  0  0  0  0  0  0  0  0  0
    1.9656    1.6917    1.9346 C   0  0  0  0  0  0  0  0  0  0  0  0
    3.5674    0.1108    1.0016 C   0  0  0  0  0  0  0  0  0  0  0  0
    3.1833    1.0077    2.0146 C   0  0  0  0  0  0  0  0  0  0  0  0
   -3.5633    0.0761   -0.0524 C   0  0  0  0  0  0  0  0  0  0  0  0
    4.8222   -0.6209    1.0571 C   0  0  0  0  0  0  0  0  0  0  0  0
    4.2618   -1.7099   -1.0751 C   0  0  0  0  0  0  0  0  0  0  0  0
    5.1458   -1.4737    0.0819 C   0  0  0  0  0  0  0  0  0  0  0  0
   -3.7412   -1.0699    0.8708 C   0  0  0  0  0  0  0  0  0  0  0  0
   -4.7011   -2.0074    0.7735 C   0  0  0  0  0  0  0  0  0  0  0  0
   -4.7629   -3.1213    1.7873 C   0  0  0  0  0  0  0  0  0  0  0  0
   -5.7624   -2.0885   -0.2878 C   0  0  0  0  0  0  0  0  0  0  0  0
   -0.0724    2.6039   -1.3577 H   0  0  0  0  0  0  0  0  0  0  0  0
    0.8030    0.6005   -2.2068 H   0  0  0  0  0  0  0  0  0  0  0  0
   -0.0938   -0.4409   -1.0626 H   0  0  0  0  0  0  0  0  0  0  0  0
   -3.3315    1.3259   -2.5355 H   0  0  0  0  0  0  0  0  0  0  0  0
   -1.7388    1.8375   -3.0166 H   0  0  0  0  0  0  0  0  0  0  0  0
   -2.0287    0.1447   -2.5764 H   0  0  0  0  0  0  0  0  0  0  0  0
   -2.6562    2.7764    0.7232 H   0  0  0  0  0  0  0  0  0  0  0  0
   -3.6944    2.7648   -0.6976 H   0  0  0  0  0  0  0  0  0  0  0  0
   -2.1978    3.6506   -0.7485 H   0  0  0  0  0  0  0  0  0  0  0  0
    1.6661    2.3796    2.7176 H   0  0  0  0  0  0  0  0  0  0  0  0
    3.8272    1.1773    2.8746 H   0  0  0  0  0  0  0  0  0  0  0  0
    5.4868   -0.4636    1.8993 H   0  0  0  0  0  0  0  0  0  0  0  0
    6.0800   -2.0237    0.1164 H   0  0  0  0  0  0  0  0  0  0  0  0
   -3.0052   -1.1395    1.6689 H   0  0  0  0  0  0  0  0  0  0  0  0
   -5.7343   -3.1184    2.2927 H   0  0  0  0  0  0  0  0  0  0  0  0
   -3.9892   -3.0300    2.5571 H   0  0  0  0  0  0  0  0  0  0  0  0
   -4.6288   -4.0904    1.2956 H   0  0  0  0  0  0  0  0  0  0  0  0
   -5.5799   -1.4294   -1.1387 H   0  0  0  0  0  0  0  0  0  0  0  0
   -6.7398   -1.8391    0.1373 H   0  0  0  0  0  0  0  0  0  0  0  0
   -5.8138   -3.1057   -0.6917 H   0  0  0  0  0  0  0  0  0  0  0  0
  1  6  1  0  0  0  0
  1 10  1  0  0  0  0
  2  7  1  0  0  0  0
  2 17  1  0  0  0  0
  3 13  1  0  0  0  0
  3 19  1  0  0  0  0
  4 17  2  0  0  0  0
  5 19  2  0  0  0  0
  6  7  1  0  0  0  0
  6  8  1  0  0  0  0
  6 25  1  0  0  0  0
  7 11  1  0  0  0  0
  7 12  1  0  0  0  0
  8  9  1  0  0  0  0
  8 26  1  0  0  0  0
  8 27  1  0  0  0  0
  9 10  2  0  0  0  0
  9 13  1  0  0  0  0
 10 14  1  0  0  0  0
 11 28  1  0  0  0  0
 11 29  1  0  0  0  0
 11 30  1  0  0  0  0
 12 31  1  0  0  0  0
 12 32  1  0  0  0  0
 12 33  1  0  0  0  0
 13 15  2  0  0  0  0
 14 16  2  0  0  0  0
 14 34  1  0  0  0  0
 15 16  1  0  0  0  0
 15 18  1  0  0  0  0
 16 35  1  0  0  0  0
 17 21  1  0  0  0  0
 18 20  2  0  0  0  0
 18 36  1  0  0  0  0
 19 20  1  0  0  0  0
 20 37  1  0  0  0  0
 21 22  2  0  0  0  0
 21 38  1  0  0  0  0
 22 23  1  0  0  0  0
 22 24  1  0  0  0  0
 23 39  1  0  0  0  0
 23 40  1  0  0  0  0
 23 41  1  0  0  0  0
 24 42  1  0  0  0  0
 24 43  1  0  0  0  0
 24 44  1  0  0  0  0
M  END
> <PUBCHEM_COMPOUND_CID>
442135

> <PUBCHEM_CONFORMER_RMSD>
0.8

> <PUBCHEM_CONFORMER_DIVERSEORDER>
1
12
34
27
4
37
16
18
33
26
32
8
15
25
5
29
36
20
6
17
24
19
28
31
22
13
30
10
14
3
2
21
35
23
11
9
7

> <PUBCHEM_MMFF94_PARTIAL_CHARGES>
27
1 -0.36
10 0.08
13 0.08
14 -0.15
15 0.03
16 -0.15
17 0.71
18 -0.18
19 0.71
2 -0.43
20 -0.14
21 -0.14
22 -0.28
23 0.14
24 0.14
3 -0.23
34 0.15
35 0.15
36 0.15
37 0.15
38 0.15
4 -0.57
5 -0.57
6 0.28
7 0.28
8 0.14
9 -0.14

> <PUBCHEM_EFFECTIVE_ROTOR_COUNT>
4.6

> <PUBCHEM_PHARMACOPHORE_FEATURES>
8
1 1 acceptor
1 4 acceptor
1 5 acceptor
3 22 23 24 hydrophobe
3 7 11 12 hydrophobe
5 1 6 8 9 10 rings
6 3 13 15 18 19 20 rings
6 9 10 13 14 15 16 rings

> <PUBCHEM_HEAVY_ATOM_COUNT>
24

> <PUBCHEM_ATOM_DEF_STEREO_COUNT>
1

> <PUBCHEM_ATOM_UDEF_STEREO_COUNT>
0

> <PUBCHEM_BOND_DEF_STEREO_COUNT>
0

> <PUBCHEM_BOND_UDEF_STEREO_COUNT>
0

> <PUBCHEM_ISOTOPIC_ATOM_COUNT>
0

> <PUBCHEM_COMPONENT_COUNT>
1

> <PUBCHEM_CACTVS_TAUTO_COUNT>
1

> <PUBCHEM_CONFORMER_ID>
0006BF1700000001

> <PUBCHEM_MMFF94_ENERGY>
83.3555

> <PUBCHEM_FEATURE_SELFOVERLAP>
40.722

> <PUBCHEM_SHAPE_FINGERPRINT>
10042902 136 18129937867557996523
10692045 39 5905509345597327796
10981352 41 18191302685483876131
11370993 144 17967531302784242793
11720765 8 10805173969141021888
11796584 16 18271248321318640202
12363563 72 18130223745076191001
12422481 6 15141507186079428104
12549972 3 17896055393173391777
12623949 98 18191294992621935871
12633257 1 16950841414814893135
12892183 10 17676766475068705441
13103583 49 17604408791581312507
13383661 66 18192965262718298698
13402501 40 18409727369867879543
13911882 115 18337390448673719914
13965767 371 13841080660715352699
14251740 57 18124866859959667203
14251751 18 18272374200262680746
14790565 3 17390817487172500864
14950920 106 17022896814277955483
15342816 4 17417540094502357441
15510800 12 18335987570505744902
15537594 2 17168150057318236588
16752209 62 17275113829243012193
17138139 8 16988285261502313219
17913733 40 17533514339407180328
1813 80 17703795760887542221
19377110 9 14562814314183055927
193927 3 18201715099242285003
20403669 9 18341895160766717811
21054139 6 17346883360394363074
21065201 7 18270410497727147768
21623969 137 18113624491120213482
231179 274 10303805502102694252
23559900 14 18342745117282515213
25122255 55 18411983521137323151
2838139 119 9439129689152861531
3004659 81 17418099763396111523
316301 35 18412549799310675538
38570 142 15939224622210268152
437795 51 18041276549019724152
4921388 177 18199751504049630325
508706 21 18272371979870310799
5104073 3 18187655746915738976
5352402 22 18114180821932744378
602551 16 18202570591849315392
7471813 234 15338854092001840972
7495541 125 18412830188103433816
7970288 3 17987797402408273235
8863177 126 18260547831450609694
960060 61 15338849612161118387

> <PUBCHEM_SHAPE_MULTIPOLES>
464.56
12.38
3
1.87
4.11
0.88
-0.07
11.84
0.74
2.87
0.09
-1.17
0.1
3.53

> <PUBCHEM_SHAPE_SELFOVERLAP>
1006.389

> <PUBCHEM_SHAPE_VOLUME>
254.1

> <PUBCHEM_COORDINATE_TYPE>
2
5
10

$$$$

