44237179
  -OEChem-07051213102D

 34 33  0     1  0  0  0  0  0999 V2000
    2.0000   -2.6550    0.0000 S   0  0  0  0  0  0  0  0  0  0  0  0
    5.4641    3.3450    0.0000 O   0  0  0  0  0  0  0  0  0  0  0  0
    2.8660    1.8450    0.0000 O   0  0  0  0  0  0  0  0  0  0  0  0
    3.7320    3.3450    0.0000 O   0  0  0  0  0  0  0  0  0  0  0  0
    7.1962    2.3450    0.0000 O   0  0  0  0  0  0  0  0  0  0  0  0
    6.3301    0.8450    0.0000 O   0  0  0  0  0  0  0  0  0  0  0  0
    4.5981    0.8450    0.0000 C   0  0  0  0  0  0  0  0  0  0  0  0
    4.5981    1.8450    0.0000 C   0  0  3  0  0  0  0  0  0  0  0  0
    3.7320    0.3450    0.0000 C   0  0  0  0  0  0  0  0  0  0  0  0
    3.7320   -0.6550    0.0000 C   0  0  0  0  0  0  0  0  0  0  0  0
    5.4641    2.3450    0.0000 C   0  0  3  0  0  0  0  0  0  0  0  0
    2.8660   -1.1550    0.0000 C   0  0  0  0  0  0  0  0  0  0  0  0
    3.7320    2.3450    0.0000 C   0  0  0  0  0  0  0  0  0  0  0  0
    2.8660   -2.1550    0.0000 C   0  0  0  0  0  0  0  0  0  0  0  0
    6.3301    1.8450    0.0000 C   0  0  0  0  0  0  0  0  0  0  0  0
    2.0000   -3.6550    0.0000 C   0  0  0  0  0  0  0  0  0  0  0  0
    4.8101    0.2624    0.0000 H   0  0  0  0  0  0  0  0  0  0  0  0
    5.2087    0.9527    0.0000 H   0  0  0  0  0  0  0  0  0  0  0  0
    4.5981    2.6950    0.0000 H   0  0  0  0  0  0  0  0  0  0  0  0
    3.5200    0.9276    0.0000 H   0  0  0  0  0  0  0  0  0  0  0  0
    3.1215    0.2373    0.0000 H   0  0  0  0  0  0  0  0  0  0  0  0
    3.9441   -1.2376    0.0000 H   0  0  0  0  0  0  0  0  0  0  0  0
    4.3426   -0.5473    0.0000 H   0  0  0  0  0  0  0  0  0  0  0  0
    6.2002    2.7700    0.0000 H   0  0  0  0  0  0  0  0  0  0  0  0
    2.6540   -0.5724    0.0000 H   0  0  0  0  0  0  0  0  0  0  0  0
    2.2554   -1.2627    0.0000 H   0  0  0  0  0  0  0  0  0  0  0  0
    3.0781   -2.7376    0.0000 H   0  0  0  0  0  0  0  0  0  0  0  0
    3.4766   -2.0473    0.0000 H   0  0  0  0  0  0  0  0  0  0  0  0
    6.0010    3.6550    0.0000 H   0  0  0  0  0  0  0  0  0  0  0  0
    2.3291    2.1550    0.0000 H   0  0  0  0  0  0  0  0  0  0  0  0
    7.7331    2.0350    0.0000 H   0  0  0  0  0  0  0  0  0  0  0  0
    1.3800   -3.6550    0.0000 H   0  0  0  0  0  0  0  0  0  0  0  0
    2.0000   -4.2750    0.0000 H   0  0  0  0  0  0  0  0  0  0  0  0
    2.6200   -3.6550    0.0000 H   0  0  0  0  0  0  0  0  0  0  0  0
  1 14  1  0  0  0  0
  1 16  1  0  0  0  0
  2 11  1  0  0  0  0
  2 29  1  0  0  0  0
  3 13  1  0  0  0  0
  3 30  1  0  0  0  0
  4 13  2  0  0  0  0
  5 15  1  0  0  0  0
  5 31  1  0  0  0  0
  6 15  2  0  0  0  0
  7  8  1  0  0  0  0
  7  9  1  0  0  0  0
  7 17  1  0  0  0  0
  7 18  1  0  0  0  0
  8 11  1  0  0  0  0
  8 13  1  0  0  0  0
  8 19  1  0  0  0  0
  9 10  1  0  0  0  0
  9 20  1  0  0  0  0
  9 21  1  0  0  0  0
 10 12  1  0  0  0  0
 10 22  1  0  0  0  0
 10 23  1  0  0  0  0
 11 15  1  0  0  0  0
 11 24  1  0  0  0  0
 12 14  1  0  0  0  0
 12 25  1  0  0  0  0
 12 26  1  0  0  0  0
 14 27  1  0  0  0  0
 14 28  1  0  0  0  0
 16 32  1  0  0  0  0
 16 33  1  0  0  0  0
 16 34  1  0  0  0  0
M  END
> <PUBCHEM_COMPOUND_CID>
44237179

> <PUBCHEM_COMPOUND_CANONICALIZED>
1

> <PUBCHEM_CACTVS_COMPLEXITY>
231

> <PUBCHEM_CACTVS_HBOND_ACCEPTOR>
6

> <PUBCHEM_CACTVS_HBOND_DONOR>
3

> <PUBCHEM_CACTVS_ROTATABLE_BOND>
9

> <PUBCHEM_CACTVS_SUBSKEYS>
AAADceBwOABAAAAAAAAAAAAAAAAAAAAAAAAAAAAAAAAAAAAAAAAAGgQACAAADRSkwAKCCAAAAggIAACQCAIAAAAAABAAAAFAAAABEBYgAAAAQAAFIAABAAHLyOCOAAAAAAAAAAAAAAAAAAAAAAAAAAAAAA==

> <PUBCHEM_IUPAC_OPENEYE_NAME>
2-hydroxy-3-(5-methylsulfanylpentyl)butanedioic acid

> <PUBCHEM_IUPAC_CAS_NAME>
2-hydroxy-3-[5-(methylthio)pentyl]butanedioic acid

> <PUBCHEM_IUPAC_NAME>
2-hydroxy-3-(5-methylsulfanylpentyl)butanedioic acid

> <PUBCHEM_IUPAC_SYSTEMATIC_NAME>
2-(5-methylsulfanylpentyl)-3-oxidanyl-butanedioic acid

> <PUBCHEM_IUPAC_TRADITIONAL_NAME>
2-hydroxy-3-[5-(methylthio)pentyl]succinic acid

> <PUBCHEM_IUPAC_INCHI>
InChI=1S/C10H18O5S/c1-16-6-4-2-3-5-7(9(12)13)8(11)10(14)15/h7-8,11H,2-6H2,1H3,(H,12,13)(H,14,15)

> <PUBCHEM_IUPAC_INCHIKEY>
YBISUHXEJDGADQ-UHFFFAOYSA-N

> <PUBCHEM_XLOGP3_AA>
1

> <PUBCHEM_EXACT_MASS>
250.087495

> <PUBCHEM_MOLECULAR_FORMULA>
C10H18O5S

> <PUBCHEM_MOLECULAR_WEIGHT>
250.31192

> <PUBCHEM_OPENEYE_CAN_SMILES>
CSCCCCCC(C(C(=O)O)O)C(=O)O

> <PUBCHEM_OPENEYE_ISO_SMILES>
CSCCCCCC(C(C(=O)O)O)C(=O)O

> <PUBCHEM_CACTVS_TPSA>
120

> <PUBCHEM_MONOISOTOPIC_WEIGHT>
250.087495

> <PUBCHEM_TOTAL_CHARGE>
0

> <PUBCHEM_HEAVY_ATOM_COUNT>
16

> <PUBCHEM_ATOM_DEF_STEREO_COUNT>
0

> <PUBCHEM_ATOM_UDEF_STEREO_COUNT>
2

> <PUBCHEM_BOND_DEF_STEREO_COUNT>
0

> <PUBCHEM_BOND_UDEF_STEREO_COUNT>
0

> <PUBCHEM_ISOTOPIC_ATOM_COUNT>
0

> <PUBCHEM_COMPONENT_COUNT>
1

> <PUBCHEM_CACTVS_TAUTO_COUNT>
1

> <PUBCHEM_COORDINATE_TYPE>
1
5
255

> <PUBCHEM_BONDANNOTATIONS>
11  24  3
8  19  3

$$$$

