2468
  -OEChem-07051212543D

 26 25  0     0  0  0  0  0  0999 V2000
   -0.3497   -0.5099   -0.4042 N   0  0  0  0  0  0  0  0  0  0  0  0
    1.8576   -0.2370   -0.7525 N   0  0  0  0  0  0  0  0  0  0  0  0
    1.1708   -2.1080    0.5274 N   0  0  0  0  0  0  0  0  0  0  0  0
    3.3991    1.4977   -0.5205 N   0  0  0  0  0  0  0  0  0  0  0  0
    2.0376    1.0653    1.2613 N   0  0  0  0  0  0  0  0  0  0  0  0
   -2.7829   -0.5724   -0.2281 C   0  0  0  0  0  0  0  0  0  0  0  0
   -2.8865    0.8622    0.2945 C   0  0  0  0  0  0  0  0  0  0  0  0
   -1.4718   -1.2433    0.1662 C   0  0  0  0  0  0  0  0  0  0  0  0
   -4.1958    1.5127   -0.1242 C   0  0  0  0  0  0  0  0  0  0  0  0
    0.8380   -0.9825   -0.1947 C   0  0  0  0  0  0  0  0  0  0  0  0
    2.3836    0.7152   -0.0251 C   0  0  0  0  0  0  0  0  0  0  0  0
   -3.6185   -1.1659    0.1619 H   0  0  0  0  0  0  0  0  0  0  0  0
   -2.8738   -0.5674   -1.3216 H   0  0  0  0  0  0  0  0  0  0  0  0
   -2.0574    1.4698   -0.0853 H   0  0  0  0  0  0  0  0  0  0  0  0
   -2.8157    0.8643    1.3884 H   0  0  0  0  0  0  0  0  0  0  0  0
   -1.3972   -1.2730    1.2601 H   0  0  0  0  0  0  0  0  0  0  0  0
   -1.4872   -2.2738   -0.2086 H   0  0  0  0  0  0  0  0  0  0  0  0
   -4.2811    1.5567   -1.2147 H   0  0  0  0  0  0  0  0  0  0  0  0
   -5.0532    0.9549    0.2658 H   0  0  0  0  0  0  0  0  0  0  0  0
   -4.2517    2.5351    0.2624 H   0  0  0  0  0  0  0  0  0  0  0  0
    0.4738   -2.6930    0.9737 H   0  0  0  0  0  0  0  0  0  0  0  0
    2.1407   -2.3846    0.6371 H   0  0  0  0  0  0  0  0  0  0  0  0
    3.8154    2.2387    0.0326 H   0  0  0  0  0  0  0  0  0  0  0  0
    3.7607    1.3556   -1.4573 H   0  0  0  0  0  0  0  0  0  0  0  0
    1.3043    0.5830    1.7694 H   0  0  0  0  0  0  0  0  0  0  0  0
    2.5086    1.8234    1.7430 H   0  0  0  0  0  0  0  0  0  0  0  0
  1  8  1  0  0  0  0
  1 10  2  0  0  0  0
  2 10  1  0  0  0  0
  2 11  2  0  0  0  0
  3 10  1  0  0  0  0
  3 21  1  0  0  0  0
  3 22  1  0  0  0  0
  4 11  1  0  0  0  0
  4 23  1  0  0  0  0
  4 24  1  0  0  0  0
  5 11  1  0  0  0  0
  5 25  1  0  0  0  0
  5 26  1  0  0  0  0
  6  7  1  0  0  0  0
  6  8  1  0  0  0  0
  6 12  1  0  0  0  0
  6 13  1  0  0  0  0
  7  9  1  0  0  0  0
  7 14  1  0  0  0  0
  7 15  1  0  0  0  0
  8 16  1  0  0  0  0
  8 17  1  0  0  0  0
  9 18  1  0  0  0  0
  9 19  1  0  0  0  0
  9 20  1  0  0  0  0
M  END
> <PUBCHEM_COMPOUND_CID>
2468

> <PUBCHEM_CONFORMER_RMSD>
0.6

> <PUBCHEM_CONFORMER_DIVERSEORDER>
1
54
34
57
55
47
50
42
21
49
5
60
35
51
46
37
48
27
28
33
41
45
52
18
58
40
38
43
62
10
24
32
17
6
8
19
16
61
36
31
12
14
23
30
56
59
9
3
22
44
4
29
13
20
63
7
11
39
26
2
15
25
53

> <PUBCHEM_MMFF94_PARTIAL_CHARGES>
14
1 -0.7
10 0.71
11 0.55
2 -0.66
21 0.4
22 0.4
23 0.4
24 0.4
25 0.4
26 0.4
3 -0.85
4 -0.85
5 -0.85
8 0.25

> <PUBCHEM_EFFECTIVE_ROTOR_COUNT>
4

> <PUBCHEM_PHARMACOPHORE_FEATURES>
6
1 3 donor
1 4 donor
1 5 donor
1 9 hydrophobe
4 1 2 3 10 cation
4 2 4 5 11 cation

> <PUBCHEM_HEAVY_ATOM_COUNT>
11

> <PUBCHEM_ATOM_DEF_STEREO_COUNT>
0

> <PUBCHEM_ATOM_UDEF_STEREO_COUNT>
0

> <PUBCHEM_BOND_DEF_STEREO_COUNT>
0

> <PUBCHEM_BOND_UDEF_STEREO_COUNT>
0

> <PUBCHEM_ISOTOPIC_ATOM_COUNT>
0

> <PUBCHEM_COMPONENT_COUNT>
1

> <PUBCHEM_CACTVS_TAUTO_COUNT>
5

> <PUBCHEM_CONFORMER_ID>
000009A400000001

> <PUBCHEM_MMFF94_ENERGY>
24.0027

> <PUBCHEM_FEATURE_SELFOVERLAP>
30.548

> <PUBCHEM_SHAPE_FINGERPRINT>
10149128 111 18343015558456282077
12932764 1 17895194368305202391
13618510 140 18410571803625037129
14251710 61 8718821007688228373
14390081 3 18334858303385992895
14897335 6 18410860979636066335
15775835 57 18408881854247610813
170605 34 18410289220419897279
177051 138 10735870673574390561
18342897 96 18334858268894346999
20767249 442 18413673526042868949
20767249 462 18342179951236550557
230 275 18410296921143083315
305870 269 18342461443250634042
3248919 1 17346873438740353327
449060 62 18336542811203352973
7364860 26 18262800816485377318

> <PUBCHEM_SHAPE_MULTIPOLES>
201.47
6.45
1.86
0.82
3.76
0.25
0.12
-4.28
-0.36
-0.25
0.18
-0.35
-0.11
-0.07

> <PUBCHEM_SHAPE_SELFOVERLAP>
376.439

> <PUBCHEM_SHAPE_VOLUME>
121.2

> <PUBCHEM_COORDINATE_TYPE>
2
5
10

$$$$

