53297437
  -OEChem-07051213153D

 29 29  0     0  0  0  0  0  0999 V2000
   -1.0817   -1.9299    0.4006 O   0  0  0  0  0  0  0  0  0  0  0  0
    4.9396    1.9875   -0.0113 O   0  0  0  0  0  0  0  0  0  0  0  0
    4.8627   -1.6312   -0.5593 O   0  0  0  0  0  0  0  0  0  0  0  0
    3.7001   -0.0673    0.2489 N   0  0  0  0  0  0  0  0  0  0  0  0
    4.1731   -0.6444   -0.8427 N   0  0  0  0  0  0  0  0  0  0  0  0
   -4.1297    1.6545   -0.3366 N   0  0  0  0  0  0  0  0  0  0  0  0
    1.2749   -0.4160    0.1686 C   0  0  0  0  0  0  0  0  0  0  0  0
    2.4156    0.5982    0.0620 C   0  0  0  0  0  0  0  0  0  0  0  0
   -0.0985    0.2328   -0.0247 C   0  0  0  0  0  0  0  0  0  0  0  0
   -1.2564   -0.7392    0.1524 C   0  0  0  0  0  0  0  0  0  0  0  0
   -2.6488   -0.2191    0.0399 C   0  0  0  0  0  0  0  0  0  0  0  0
    4.6860    0.8635    0.8313 C   0  0  0  0  0  0  0  0  0  0  0  0
   -3.7433   -1.0629    0.1929 C   0  0  0  0  0  0  0  0  0  0  0  0
   -2.8935    1.1195   -0.2214 C   0  0  0  0  0  0  0  0  0  0  0  0
   -5.0309   -0.5497    0.0813 C   0  0  0  0  0  0  0  0  0  0  0  0
   -5.1689    0.8037   -0.1818 C   0  0  0  0  0  0  0  0  0  0  0  0
    1.3969   -1.2092   -0.5803 H   0  0  0  0  0  0  0  0  0  0  0  0
    1.3095   -0.9067    1.1504 H   0  0  0  0  0  0  0  0  0  0  0  0
    2.2502    1.3438    0.8520 H   0  0  0  0  0  0  0  0  0  0  0  0
    2.3664    1.1435   -0.8908 H   0  0  0  0  0  0  0  0  0  0  0  0
   -0.1517    0.6568   -1.0339 H   0  0  0  0  0  0  0  0  0  0  0  0
   -0.2096    1.0363    0.7125 H   0  0  0  0  0  0  0  0  0  0  0  0
    5.6399    0.3576    1.0282 H   0  0  0  0  0  0  0  0  0  0  0  0
    4.3262    1.2335    1.7990 H   0  0  0  0  0  0  0  0  0  0  0  0
   -3.6167   -2.1222    0.3986 H   0  0  0  0  0  0  0  0  0  0  0  0
   -2.1013    1.8471   -0.3571 H   0  0  0  0  0  0  0  0  0  0  0  0
   -5.8989   -1.1886    0.1966 H   0  0  0  0  0  0  0  0  0  0  0  0
   -6.1518    1.2532   -0.2781 H   0  0  0  0  0  0  0  0  0  0  0  0
    5.5854    2.5485    0.4510 H   0  0  0  0  0  0  0  0  0  0  0  0
  1 10  2  0  0  0  0
  2 12  1  0  0  0  0
  2 29  1  0  0  0  0
  3  5  2  0  0  0  0
  4  5  1  0  0  0  0
  4  8  1  0  0  0  0
  4 12  1  0  0  0  0
  6 14  1  0  0  0  0
  6 16  2  0  0  0  0
  7  8  1  0  0  0  0
  7  9  1  0  0  0  0
  7 17  1  0  0  0  0
  7 18  1  0  0  0  0
  8 19  1  0  0  0  0
  8 20  1  0  0  0  0
  9 10  1  0  0  0  0
  9 21  1  0  0  0  0
  9 22  1  0  0  0  0
 10 11  1  0  0  0  0
 11 13  1  0  0  0  0
 11 14  2  0  0  0  0
 12 23  1  0  0  0  0
 12 24  1  0  0  0  0
 13 15  2  0  0  0  0
 13 25  1  0  0  0  0
 14 26  1  0  0  0  0
 15 16  1  0  0  0  0
 15 27  1  0  0  0  0
 16 28  1  0  0  0  0
M  END
> <PUBCHEM_COMPOUND_CID>
53297437

> <PUBCHEM_CONFORMER_RMSD>
1

> <PUBCHEM_CONFORMER_DIVERSEORDER>
1
35
84
63
32
31
44
30
59
83
79
38
26
78
11
41
36
51
20
50
4
80
74
76
72
54
43
53
12
40
45
37
67
16
28
69
47
27
46
42
58
19
70
6
7
23
52
75
62
39
77
18
71
29
9
81
14
34
25
56
68
24
17
13
2
15
33
22
82
66
60
73
55
3
64
61
10
5
49
48
57
65
8
21

> <PUBCHEM_MMFF94_PARTIAL_CHARGES>
20
1 -0.57
10 0.42
11 0.09
12 0.55
13 -0.15
14 0.16
15 -0.15
16 0.16
2 -0.68
25 0.15
26 0.15
27 0.15
28 0.15
29 0.4
3 -0.16
4 -0.36
5 -0.01
6 -0.62
8 0.27
9 0.06

> <PUBCHEM_EFFECTIVE_ROTOR_COUNT>
7

> <PUBCHEM_PHARMACOPHORE_FEATURES>
5
1 1 acceptor
1 2 acceptor
1 2 donor
1 6 acceptor
6 6 11 13 14 15 16 rings

> <PUBCHEM_HEAVY_ATOM_COUNT>
16

> <PUBCHEM_ATOM_DEF_STEREO_COUNT>
0

> <PUBCHEM_ATOM_UDEF_STEREO_COUNT>
0

> <PUBCHEM_BOND_DEF_STEREO_COUNT>
0

> <PUBCHEM_BOND_UDEF_STEREO_COUNT>
0

> <PUBCHEM_ISOTOPIC_ATOM_COUNT>
0

> <PUBCHEM_COMPONENT_COUNT>
1

> <PUBCHEM_CACTVS_TAUTO_COUNT>
2

> <PUBCHEM_CONFORMER_ID>
032D411D00000001

> <PUBCHEM_MMFF94_ENERGY>
36.2349

> <PUBCHEM_FEATURE_SELFOVERLAP>
25.371

> <PUBCHEM_SHAPE_FINGERPRINT>
10014705 185 18410858733077968113
10912923 1 15769771338452102578
11128504 68 13984663607817205800
11287383 113 18335138674345040530
12596602 18 17132120099867318561
12916748 109 18342737407836791657
13081056 2 18410575097548149748
13533116 47 17676485081796677546
13675066 3 18411697660333936210
14123238 8 17603586305127661717
14573314 32 18409727387057577454
15042514 8 18198335162081874467
15196674 1 18410856563940064113
15501527 16 18410291424276261881
17834072 33 18187647985645843430
17834072 8 18336542811087152814
17844677 252 18408878555475545552
200 152 17095525097783917459
20281389 69 18130509738464498629
20300324 65 18187086148637551753
20645477 56 18339364067397338304
20645477 70 17822003238298931118
23402539 116 18336272275529093783
23559900 14 18334013900284060450
2916195 48 18337399252987866304
300161 21 17530691978841622374
3004659 81 18412823621198567410
351380 180 18408325475588910125
4214541 1 18411419513904041457
42788 4 18410575080420885185
4990 188 18334572481702198134
5104073 3 18412545418237688610
542803 24 17313100852081099569
633830 44 18412832390931130774
77779 3 18410573985156732394
90127 26 18272643554582952928
9971528 1 18202561783256662716

> <PUBCHEM_SHAPE_MULTIPOLES>
296.72
13.3
1.62
0.71
6.29
0.06
0.01
2.51
-0.54
0.4
-0.06
0.36
-0.03
0.89

> <PUBCHEM_SHAPE_SELFOVERLAP>
599.021

> <PUBCHEM_SHAPE_VOLUME>
171.3

> <PUBCHEM_COORDINATE_TYPE>
2
5
10

$$$$

