56927740
  -OEChem-07051213153D

 45 45  0     1  0  0  0  0  0999 V2000
   -1.3071   -0.7808   -0.3031 O   0  0  0  0  0  0  0  0  0  0  0  0
   -1.3935    3.0471    1.3292 O   0  0  0  0  0  0  0  0  0  0  0  0
   -2.9190   -1.0109    1.4185 O   0  0  0  0  0  0  0  0  0  0  0  0
    2.1015   -3.1300   -0.8668 O   0  0  0  0  0  0  0  0  0  0  0  0
   -4.8264   -0.3440   -0.4201 O   0  0  0  0  0  0  0  0  0  0  0  0
   -3.3432   -1.2676   -1.8840 O   0  0  0  0  0  0  0  0  0  0  0  0
    2.2649    2.6954    0.1303 O   0  0  0  0  0  0  0  0  0  0  0  0
    3.7594   -0.5896   -1.0475 O   0  0  0  0  0  0  0  0  0  0  0  0
    0.2568    1.7372   -0.5526 N   0  0  0  0  0  0  0  0  0  0  0  0
    2.2182   -0.6971    0.6939 N   0  0  0  0  0  0  0  0  0  0  0  0
   -0.1895   -0.4376    0.5265 C   0  0  2  0  0  0  0  0  0  0  0  0
   -0.0846    1.0867    0.6957 C   0  0  2  0  0  0  0  0  0  0  0  0
   -1.4050    1.6265    1.2608 C   0  0  2  0  0  0  0  0  0  0  0  0
    1.0588   -1.0592   -0.0907 C   0  0  2  0  0  0  0  0  0  0  0  0
   -2.5970    1.1635    0.4232 C   0  0  0  0  0  0  0  0  0  0  0  0
   -2.5632   -0.3509    0.2137 C   0  0  1  0  0  0  0  0  0  0  0  0
    0.9352   -2.5858   -0.2541 C   0  0  2  0  0  0  0  0  0  0  0  0
   -3.5860   -0.7148   -0.8215 C   0  0  0  0  0  0  0  0  0  0  0  0
    0.7228   -3.3065    1.0725 C   0  0  0  0  0  0  0  0  0  0  0  0
    1.4062    2.4862   -0.7226 C   0  0  0  0  0  0  0  0  0  0  0  0
    3.4712   -0.4936    0.1426 C   0  0  0  0  0  0  0  0  0  0  0  0
    1.5277    3.0280   -2.1216 C   0  0  0  0  0  0  0  0  0  0  0  0
    4.4916   -0.1022    1.1777 C   0  0  0  0  0  0  0  0  0  0  0  0
   -0.3542   -0.8648    1.5239 H   0  0  0  0  0  0  0  0  0  0  0  0
    0.7013    1.3269    1.4218 H   0  0  0  0  0  0  0  0  0  0  0  0
   -1.5189    1.2606    2.2887 H   0  0  0  0  0  0  0  0  0  0  0  0
    1.2105   -0.6618   -1.1031 H   0  0  0  0  0  0  0  0  0  0  0  0
   -3.5238    1.4852    0.9161 H   0  0  0  0  0  0  0  0  0  0  0  0
   -2.5773    1.6863   -0.5428 H   0  0  0  0  0  0  0  0  0  0  0  0
    0.0965   -2.8156   -0.9214 H   0  0  0  0  0  0  0  0  0  0  0  0
   -0.3740    1.6165   -1.3398 H   0  0  0  0  0  0  0  0  0  0  0  0
    2.1163   -0.6505    1.7040 H   0  0  0  0  0  0  0  0  0  0  0  0
   -2.2440    3.3308    1.7055 H   0  0  0  0  0  0  0  0  0  0  0  0
    0.7161   -4.3915    0.9155 H   0  0  0  0  0  0  0  0  0  0  0  0
   -0.2263   -3.0397    1.5442 H   0  0  0  0  0  0  0  0  0  0  0  0
    1.5386   -3.1068    1.7752 H   0  0  0  0  0  0  0  0  0  0  0  0
   -3.0447   -0.3600    2.1277 H   0  0  0  0  0  0  0  0  0  0  0  0
    1.9503   -4.0813   -0.9998 H   0  0  0  0  0  0  0  0  0  0  0  0
    0.5915    3.5039   -2.4274 H   0  0  0  0  0  0  0  0  0  0  0  0
    2.3274    3.7727   -2.1599 H   0  0  0  0  0  0  0  0  0  0  0  0
    1.7634    2.2109   -2.8090 H   0  0  0  0  0  0  0  0  0  0  0  0
   -5.5104   -0.5720   -1.0853 H   0  0  0  0  0  0  0  0  0  0  0  0
    4.5875   -0.8976    1.9221 H   0  0  0  0  0  0  0  0  0  0  0  0
    5.4621    0.0549    0.6991 H   0  0  0  0  0  0  0  0  0  0  0  0
    4.1837    0.8242    1.6705 H   0  0  0  0  0  0  0  0  0  0  0  0
  1 11  1  0  0  0  0
  1 16  1  0  0  0  0
  2 13  1  0  0  0  0
  2 33  1  0  0  0  0
  3 16  1  0  0  0  0
  3 37  1  0  0  0  0
  4 17  1  0  0  0  0
  4 38  1  0  0  0  0
  5 18  1  0  0  0  0
  5 42  1  0  0  0  0
  6 18  2  0  0  0  0
  7 20  2  0  0  0  0
  8 21  2  0  0  0  0
  9 12  1  0  0  0  0
  9 20  1  0  0  0  0
  9 31  1  0  0  0  0
 10 14  1  0  0  0  0
 10 21  1  0  0  0  0
 10 32  1  0  0  0  0
 11 12  1  0  0  0  0
 11 14  1  0  0  0  0
 11 24  1  0  0  0  0
 12 13  1  0  0  0  0
 12 25  1  0  0  0  0
 13 15  1  0  0  0  0
 13 26  1  0  0  0  0
 14 17  1  0  0  0  0
 14 27  1  0  0  0  0
 15 16  1  0  0  0  0
 15 28  1  0  0  0  0
 15 29  1  0  0  0  0
 16 18  1  0  0  0  0
 17 19  1  0  0  0  0
 17 30  1  0  0  0  0
 19 34  1  0  0  0  0
 19 35  1  0  0  0  0
 19 36  1  0  0  0  0
 20 22  1  0  0  0  0
 21 23  1  0  0  0  0
 22 39  1  0  0  0  0
 22 40  1  0  0  0  0
 22 41  1  0  0  0  0
 23 43  1  0  0  0  0
 23 44  1  0  0  0  0
 23 45  1  0  0  0  0
M  END
> <PUBCHEM_COMPOUND_CID>
56927740

> <PUBCHEM_CONFORMER_RMSD>
0.8

> <PUBCHEM_CONFORMER_DIVERSEORDER>
1
36
7
14
27
33
30
20
35
16
31
11
22
28
18
23
8
12
32
10
2
34
26
17
25
24
15
3
19
29
21
13
9
4
5
6

> <PUBCHEM_MMFF94_PARTIAL_CHARGES>
27
1 -0.56
10 -0.73
11 0.28
12 0.3
13 0.28
14 0.3
16 0.62
17 0.28
18 0.66
2 -0.68
20 0.57
21 0.57
22 0.06
23 0.06
3 -0.68
31 0.37
32 0.37
33 0.4
37 0.4
38 0.4
4 -0.68
42 0.5
5 -0.65
6 -0.57
7 -0.57
8 -0.57
9 -0.73

> <PUBCHEM_EFFECTIVE_ROTOR_COUNT>
8.2

> <PUBCHEM_PHARMACOPHORE_FEATURES>
15
1 1 acceptor
1 10 donor
1 2 acceptor
1 2 donor
1 3 acceptor
1 3 donor
1 4 acceptor
1 4 donor
1 5 acceptor
1 6 acceptor
1 7 acceptor
1 8 acceptor
1 9 donor
3 5 6 18 anion
6 1 11 12 13 15 16 rings

> <PUBCHEM_HEAVY_ATOM_COUNT>
23

> <PUBCHEM_ATOM_DEF_STEREO_COUNT>
6

> <PUBCHEM_ATOM_UDEF_STEREO_COUNT>
0

> <PUBCHEM_BOND_DEF_STEREO_COUNT>
0

> <PUBCHEM_BOND_UDEF_STEREO_COUNT>
0

> <PUBCHEM_ISOTOPIC_ATOM_COUNT>
0

> <PUBCHEM_COMPONENT_COUNT>
1

> <PUBCHEM_CACTVS_TAUTO_COUNT>
4

> <PUBCHEM_CONFORMER_ID>
0364A5FC00000001

> <PUBCHEM_MMFF94_ENERGY>
42.1438

> <PUBCHEM_FEATURE_SELFOVERLAP>
76.232

> <PUBCHEM_SHAPE_FINGERPRINT>
1100329 8 18266466407911099082
12553582 1 18200018663995009656
13134695 92 17846509118766559956
13140716 1 18266455399799084938
133893 2 17630860773508321324
14178342 30 18263930019543577536
14181834 199 18268718216488610412
14251757 17 17841741756855794189
14787075 74 17750247919458165496
16945 1 18335975428342431562
17492 54 18059277787416861708
18785283 64 17987220163134885613
192875 21 18412827971356886080
19591789 44 17185583625377070763
20645476 183 17838331887260357101
20691752 17 18056464282947898386
21501502 16 18047751791184545250
2334 1 17905604406683719114
23388829 49 18335140907733374137
23402539 116 18337400413209330058
23419403 2 17183691705215518681
23557571 272 17240475927149404745
2748010 2 18051121497896939282
3380486 145 18055352706577990544
34934 24 18194403514036196849
352729 6 18194391208976311058
46194498 28 18129962104406231647
6992083 37 17757820505025507409
7495541 125 17489305240006490507
81228 2 18054225715532631433
9925002 15 17753068102227169006

> <PUBCHEM_SHAPE_MULTIPOLES>
416.41
6.57
3.77
1.47
1.27
0.49
0.32
-1.5
0.5
-2
0.55
0.17
0.5
-1.03

> <PUBCHEM_SHAPE_SELFOVERLAP>
844.044

> <PUBCHEM_SHAPE_VOLUME>
241.2

> <PUBCHEM_COORDINATE_TYPE>
2
5
10

$$$$

