15604135
  -OEChem-07051213123D

 44 46  0     0  0  0  0  0  0999 V2000
    2.7052   -1.7399   -3.1386 Cl  0  0  0  0  0  0  0  0  0  0  0  0
    5.4829   -1.9589    1.4838 Cl  0  0  0  0  0  0  0  0  0  0  0  0
   -1.1581    2.5445   -1.2943 O   0  0  0  0  0  0  0  0  0  0  0  0
   -0.2621   -0.6559    1.0021 O   0  0  0  0  0  0  0  0  0  0  0  0
    0.2887    1.4755    0.2597 N   0  0  0  0  0  0  0  0  0  0  0  0
    1.6351    1.4719    0.8077 C   0  0  0  0  0  0  0  0  0  0  0  0
    2.4843    0.3253    0.2431 C   0  0  0  0  0  0  0  0  0  0  0  0
    1.5121    1.3386    2.3370 C   0  0  0  0  0  0  0  0  0  0  0  0
    2.2780    2.8284    0.4648 C   0  0  0  0  0  0  0  0  0  0  0  0
   -0.2380    2.7358   -0.2233 C   0  0  0  0  0  0  0  0  0  0  0  0
   -0.5592    0.3903    0.4282 C   0  0  0  0  0  0  0  0  0  0  0  0
   -1.9251    0.5685   -0.1664 C   0  0  0  0  0  0  0  0  0  0  0  0
   -2.1290    1.5993   -1.0142 C   0  0  0  0  0  0  0  0  0  0  0  0
    3.4681   -0.2127    1.0368 C   0  0  0  0  0  0  0  0  0  0  0  0
    2.2245   -0.1149   -1.0321 C   0  0  0  0  0  0  0  0  0  0  0  0
   -2.9611   -0.4362    0.1219 C   0  0  0  0  0  0  0  0  0  0  0  0
    2.9964   -1.1573   -1.5455 C   0  0  0  0  0  0  0  0  0  0  0  0
    4.2400   -1.2552    0.5236 C   0  0  0  0  0  0  0  0  0  0  0  0
   -3.3978    1.8668   -1.7730 C   0  0  0  0  0  0  0  0  0  0  0  0
    4.0042   -1.7275   -0.7675 C   0  0  0  0  0  0  0  0  0  0  0  0
   -3.0505   -1.5865   -0.6599 C   0  0  0  0  0  0  0  0  0  0  0  0
   -3.8503   -0.2349    1.1762 C   0  0  0  0  0  0  0  0  0  0  0  0
   -4.0326   -2.5386   -0.3869 C   0  0  0  0  0  0  0  0  0  0  0  0
   -4.8324   -1.1872    1.4492 C   0  0  0  0  0  0  0  0  0  0  0  0
   -4.9234   -2.3390    0.6676 C   0  0  0  0  0  0  0  0  0  0  0  0
    0.7363    2.0138    2.7217 H   0  0  0  0  0  0  0  0  0  0  0  0
    1.2460    0.3297    2.6709 H   0  0  0  0  0  0  0  0  0  0  0  0
    2.4346    1.6270    2.8548 H   0  0  0  0  0  0  0  0  0  0  0  0
    1.7697    3.6870    0.9201 H   0  0  0  0  0  0  0  0  0  0  0  0
    2.4204    2.9784   -0.6129 H   0  0  0  0  0  0  0  0  0  0  0  0
    3.2962    2.8589    0.8792 H   0  0  0  0  0  0  0  0  0  0  0  0
   -0.7373    3.2555    0.6042 H   0  0  0  0  0  0  0  0  0  0  0  0
    0.4829    3.4088   -0.6764 H   0  0  0  0  0  0  0  0  0  0  0  0
    3.6938    0.1486    2.0331 H   0  0  0  0  0  0  0  0  0  0  0  0
    1.4610    0.3359   -1.6587 H   0  0  0  0  0  0  0  0  0  0  0  0
   -3.1954    1.8604   -2.8493 H   0  0  0  0  0  0  0  0  0  0  0  0
   -3.7893    2.8540   -1.5051 H   0  0  0  0  0  0  0  0  0  0  0  0
   -4.1890    1.1374   -1.5833 H   0  0  0  0  0  0  0  0  0  0  0  0
    4.6060   -2.5406   -1.1678 H   0  0  0  0  0  0  0  0  0  0  0  0
   -2.3629   -1.7563   -1.4849 H   0  0  0  0  0  0  0  0  0  0  0  0
   -3.7911    0.6577    1.7941 H   0  0  0  0  0  0  0  0  0  0  0  0
   -4.1036   -3.4355   -0.9952 H   0  0  0  0  0  0  0  0  0  0  0  0
   -5.5261   -1.0319    2.2703 H   0  0  0  0  0  0  0  0  0  0  0  0
   -5.6880   -3.0804    0.8803 H   0  0  0  0  0  0  0  0  0  0  0  0
  1 17  1  0  0  0  0
  2 18  1  0  0  0  0
  3 10  1  0  0  0  0
  3 13  1  0  0  0  0
  4 11  2  0  0  0  0
  5  6  1  0  0  0  0
  5 10  1  0  0  0  0
  5 11  1  0  0  0  0
  6  7  1  0  0  0  0
  6  8  1  0  0  0  0
  6  9  1  0  0  0  0
  7 14  2  0  0  0  0
  7 15  1  0  0  0  0
  8 26  1  0  0  0  0
  8 27  1  0  0  0  0
  8 28  1  0  0  0  0
  9 29  1  0  0  0  0
  9 30  1  0  0  0  0
  9 31  1  0  0  0  0
 10 32  1  0  0  0  0
 10 33  1  0  0  0  0
 11 12  1  0  0  0  0
 12 13  2  0  0  0  0
 12 16  1  0  0  0  0
 13 19  1  0  0  0  0
 14 18  1  0  0  0  0
 14 34  1  0  0  0  0
 15 17  2  0  0  0  0
 15 35  1  0  0  0  0
 16 21  2  0  0  0  0
 16 22  1  0  0  0  0
 17 20  1  0  0  0  0
 18 20  2  0  0  0  0
 19 36  1  0  0  0  0
 19 37  1  0  0  0  0
 19 38  1  0  0  0  0
 20 39  1  0  0  0  0
 21 23  1  0  0  0  0
 21 40  1  0  0  0  0
 22 24  2  0  0  0  0
 22 41  1  0  0  0  0
 23 25  2  0  0  0  0
 23 42  1  0  0  0  0
 24 25  1  0  0  0  0
 24 43  1  0  0  0  0
 25 44  1  0  0  0  0
M  END
> <PUBCHEM_COMPOUND_CID>
15604135

> <PUBCHEM_CONFORMER_RMSD>
0.8

> <PUBCHEM_CONFORMER_DIVERSEORDER>
2
7
13
6
4
9
11
3
14
10
5
8
1
12

> <PUBCHEM_MMFF94_PARTIAL_CHARGES>
31
1 -0.18
10 0.58
11 0.62
12 -0.01
13 -0.06
14 -0.15
15 -0.15
16 0.03
17 0.18
18 0.18
19 0.14
2 -0.18
20 -0.15
21 -0.15
22 -0.15
23 -0.15
24 -0.15
25 -0.15
3 -0.36
34 0.15
35 0.15
39 0.15
4 -0.57
40 0.15
41 0.15
42 0.15
43 0.15
44 0.15
5 -0.66
6 0.44
7 -0.14

> <PUBCHEM_EFFECTIVE_ROTOR_COUNT>
3.6

> <PUBCHEM_PHARMACOPHORE_FEATURES>
6
1 3 acceptor
1 4 acceptor
3 6 8 9 hydrophobe
6 16 21 22 23 24 25 rings
6 3 5 10 11 12 13 rings
6 7 14 15 17 18 20 rings

> <PUBCHEM_HEAVY_ATOM_COUNT>
25

> <PUBCHEM_ATOM_DEF_STEREO_COUNT>
0

> <PUBCHEM_ATOM_UDEF_STEREO_COUNT>
0

> <PUBCHEM_BOND_DEF_STEREO_COUNT>
0

> <PUBCHEM_BOND_UDEF_STEREO_COUNT>
0

> <PUBCHEM_ISOTOPIC_ATOM_COUNT>
0

> <PUBCHEM_COMPONENT_COUNT>
1

> <PUBCHEM_CACTVS_TAUTO_COUNT>
1

> <PUBCHEM_CONFORMER_ID>
00EE19A700000002

> <PUBCHEM_MMFF94_ENERGY>
92.9293

> <PUBCHEM_FEATURE_SELFOVERLAP>
30.446

> <PUBCHEM_SHAPE_FINGERPRINT>
10764073 3 15871061859071299561
10928967 22 18343010073941911483
11796584 16 18056207006017452082
12107183 9 18261940947569748353
12293681 25 17970912395439368006
12363563 72 18343018869812646739
12553582 1 17603863420992278492
12596599 1 18261379045198255427
12596602 18 14057006009574004879
12623949 98 18046610236470269663
12633257 1 17967810509807484231
12714826 92 18341040921619614461
12892183 10 16298657369510068547
13140716 1 18411985779831353945
13533116 47 17604422982670501927
14251751 18 18271529779421774738
14341114 328 13912620372129598954
15422964 175 17604980584898581422
15664445 248 17841977910910751725
15848702 151 18335414609378487275
16752209 62 17418102013774196393
17974551 9 15577504314428246170
1813 80 18271231730376862533
19141452 34 18333729113919414347
20403669 9 18409449180773012199
20600515 1 18191866936701261028
21033648 29 5689055123209573363
21756936 100 15288752426547374184
22182313 1 18270698475648510389
23559900 14 18269291204324005936
3380486 145 17459774664245304628
3388396 114 16271056282184682910
44062 13 18129667541894159175
633830 44 14835546094235079412
7097593 13 16732696130283852565
7399639 24 18048330950160366976
7970288 3 18059293158836633563

> <PUBCHEM_SHAPE_MULTIPOLES>
501.51
10.25
3.16
2.08
1.55
0.91
0.87
-8.95
-2.71
0.55
0.56
-1.22
-0.48
1.88

> <PUBCHEM_SHAPE_SELFOVERLAP>
1071.379

> <PUBCHEM_SHAPE_VOLUME>
281.1

> <PUBCHEM_COORDINATE_TYPE>
2
5
10

$$$$

