17396380
  -OEChem-06241222563D

 38 41  0     1  0  0  0  0  0999 V2000
   -2.9181    2.6489   -1.4638 S   0  0  0  0  0  0  0  0  0  0  0  0
    0.1678   -1.1805   -2.1193 O   0  0  0  0  0  0  0  0  0  0  0  0
   -0.3828    0.1998   -0.3567 N   0  0  0  0  0  0  0  0  0  0  0  0
    4.4321    1.5118    1.0799 N   0  0  0  0  0  0  0  0  0  0  0  0
    5.8044   -0.2621    0.5450 N   0  0  0  0  0  0  0  0  0  0  0  0
    5.6328    0.9291    1.1238 N   0  0  0  0  0  0  0  0  0  0  0  0
   -1.8003    0.2273   -0.6378 C   0  0  1  0  0  0  0  0  0  0  0  0
   -2.5847   -0.9070   -0.0025 C   0  0  0  0  0  0  0  0  0  0  0  0
   -2.3353    1.5936   -0.2477 C   0  0  0  0  0  0  0  0  0  0  0  0
    0.5244   -0.5195   -1.1360 C   0  0  0  0  0  0  0  0  0  0  0  0
    1.9148   -0.4727   -0.7042 C   0  0  0  0  0  0  0  0  0  0  0  0
   -3.7360   -1.3920   -0.6231 C   0  0  0  0  0  0  0  0  0  0  0  0
   -2.1544   -1.4640    1.2018 C   0  0  0  0  0  0  0  0  0  0  0  0
   -2.4309    2.1500    1.0089 C   0  0  0  0  0  0  0  0  0  0  0  0
    2.3503    0.6535    0.0177 C   0  0  0  0  0  0  0  0  0  0  0  0
    3.7060    0.6141    0.3937 C   0  0  0  0  0  0  0  0  0  0  0  0
    2.7602   -1.5656   -1.0337 C   0  0  0  0  0  0  0  0  0  0  0  0
    4.5810   -0.5169    0.0526 C   0  0  0  0  0  0  0  0  0  0  0  0
   -4.4566   -2.4340   -0.0396 C   0  0  0  0  0  0  0  0  0  0  0  0
   -2.8752   -2.5060    1.7852 C   0  0  0  0  0  0  0  0  0  0  0  0
   -2.9904    3.4599    0.9727 C   0  0  0  0  0  0  0  0  0  0  0  0
    4.1181   -1.6315   -0.6713 C   0  0  0  0  0  0  0  0  0  0  0  0
   -3.3008    3.8548   -0.3099 C   0  0  0  0  0  0  0  0  0  0  0  0
   -4.0263   -2.9910    1.1646 C   0  0  0  0  0  0  0  0  0  0  0  0
   -1.8968    0.1038   -1.7256 H   0  0  0  0  0  0  0  0  0  0  0  0
   -0.0751    0.6371    0.5059 H   0  0  0  0  0  0  0  0  0  0  0  0
   -4.0829   -0.9662   -1.5609 H   0  0  0  0  0  0  0  0  0  0  0  0
   -1.2680   -1.0999    1.7134 H   0  0  0  0  0  0  0  0  0  0  0  0
   -2.1151    1.6502    1.9156 H   0  0  0  0  0  0  0  0  0  0  0  0
    1.7382    1.5137    0.2535 H   0  0  0  0  0  0  0  0  0  0  0  0
    2.3538   -2.4094   -1.5915 H   0  0  0  0  0  0  0  0  0  0  0  0
   -5.3533   -2.8113   -0.5225 H   0  0  0  0  0  0  0  0  0  0  0  0
   -2.5417   -2.9381    2.7241 H   0  0  0  0  0  0  0  0  0  0  0  0
   -3.1560    4.0811    1.8432 H   0  0  0  0  0  0  0  0  0  0  0  0
    4.7453   -2.4747   -0.9315 H   0  0  0  0  0  0  0  0  0  0  0  0
   -3.7338    4.7938   -0.6246 H   0  0  0  0  0  0  0  0  0  0  0  0
   -4.5879   -3.8018    1.6194 H   0  0  0  0  0  0  0  0  0  0  0  0
    6.4067    1.3867    1.5916 H   0  0  0  0  0  0  0  0  0  0  0  0
  1  9  1  0  0  0  0
  1 23  1  0  0  0  0
  2 10  2  0  0  0  0
  3  7  1  0  0  0  0
  3 10  1  0  0  0  0
  3 26  1  0  0  0  0
  4  6  1  0  0  0  0
  4 16  2  0  0  0  0
  5  6  1  0  0  0  0
  5 18  2  0  0  0  0
  6 38  1  0  0  0  0
  7  8  1  0  0  0  0
  7  9  1  0  0  0  0
  7 25  1  0  0  0  0
  8 12  2  0  0  0  0
  8 13  1  0  0  0  0
  9 14  2  0  0  0  0
 10 11  1  0  0  0  0
 11 15  2  0  0  0  0
 11 17  1  0  0  0  0
 12 19  1  0  0  0  0
 12 27  1  0  0  0  0
 13 20  2  0  0  0  0
 13 28  1  0  0  0  0
 14 21  1  0  0  0  0
 14 29  1  0  0  0  0
 15 16  1  0  0  0  0
 15 30  1  0  0  0  0
 16 18  1  0  0  0  0
 17 22  2  0  0  0  0
 17 31  1  0  0  0  0
 18 22  1  0  0  0  0
 19 24  2  0  0  0  0
 19 32  1  0  0  0  0
 20 24  1  0  0  0  0
 20 33  1  0  0  0  0
 21 23  2  0  0  0  0
 21 34  1  0  0  0  0
 22 35  1  0  0  0  0
 23 36  1  0  0  0  0
 24 37  1  0  0  0  0
M  END
> <PUBCHEM_COMPOUND_CID>
17396380

> <PUBCHEM_CONFORMER_RMSD>
0.8

> <PUBCHEM_CONFORMER_DIVERSEORDER>
1
47
66
30
64
24
52
25
58
6
54
53
28
29
55
42
41
48
31
21
39
33
50
51
65
26
22
63
45
59
61
15
37
27
20
32
46
44
19
17
62
38
56
4
60
16
57
18
13
49
12
34
5
43
23
8
40
35
2
10
11
14
9
3
36
7

> <PUBCHEM_MMFF94_PARTIAL_CHARGES>
37
1 -0.08
10 0.54
11 0.09
12 -0.15
13 -0.15
14 -0.15
15 -0.15
16 0.29
17 -0.15
18 0.29
19 -0.15
2 -0.57
20 -0.15
21 -0.15
22 -0.15
23 -0.11
24 -0.15
26 0.37
27 0.15
28 0.15
29 0.15
3 -0.73
30 0.15
31 0.15
32 0.15
33 0.15
34 0.15
35 0.15
36 0.15
37 0.15
38 0.27
4 -0.71
5 -0.71
6 0.57
7 0.62
8 -0.14
9 -0.14

> <PUBCHEM_EFFECTIVE_ROTOR_COUNT>
5

> <PUBCHEM_PHARMACOPHORE_FEATURES>
8
1 2 acceptor
1 3 donor
1 4 acceptor
1 5 acceptor
5 1 9 14 21 23 rings
5 4 5 6 16 18 rings
6 11 15 16 17 18 22 rings
6 8 12 13 19 20 24 rings

> <PUBCHEM_HEAVY_ATOM_COUNT>
24

> <PUBCHEM_ATOM_DEF_STEREO_COUNT>
0

> <PUBCHEM_ATOM_UDEF_STEREO_COUNT>
1

> <PUBCHEM_BOND_DEF_STEREO_COUNT>
0

> <PUBCHEM_BOND_UDEF_STEREO_COUNT>
0

> <PUBCHEM_ISOTOPIC_ATOM_COUNT>
0

> <PUBCHEM_COMPONENT_COUNT>
1

> <PUBCHEM_CACTVS_TAUTO_COUNT>
7

> <PUBCHEM_CONFORMER_ID>
0109729C00000001

> <PUBCHEM_MMFF94_ENERGY>
58.0982

> <PUBCHEM_FEATURE_SELFOVERLAP>
40.775

> <PUBCHEM_SHAPE_FINGERPRINT>
10319926 262 18339371863601991330
10366900 7 18339071571909209426
11405975 8 18265895937891747058
11545043 162 18335697282725114934
11646440 116 18129369411767998571
12107183 9 17910122644065933186
12403259 118 18409739456638748728
12403814 3 17967816003260417071
12507560 40 18261111894090210798
12633257 1 17846215600833712380
12788726 201 18128804266352376691
12892183 10 18409733950332257446
12930653 34 18411136969565409390
13004483 165 18268701724162333619
131258 38 15400696999531628225
133893 2 16628814207019589604
13583140 156 18261115196788283478
14178342 30 18201712989817419054
14251764 38 18408886248105078376
14468879 13 17969233380974869141
14565420 104 17688015828063240817
15131766 46 16444481065511496360
15806764 133 17605251034857741444
15842332 3 17416939816766419782
17349148 13 17060335189150392762
17844677 252 18408038494970424308
20600515 1 18127396874969748199
20681677 76 18260551147196477820
21033648 144 18191595348565205916
21033648 29 17822026315005043440
21049683 118 18124613126187095969
21065198 57 18336263560950935214
21065199 12 18335137605272977014
21304303 282 18129118873561448997
21315764 371 16988013674104670672
21344244 78 17610866073696550987
21401589 2 18190175883475360361
22182313 1 17895182342480903940
22956985 138 17046545973455952691
23557571 272 18411705374237747993
23559900 14 17845099454306605117
23845131 108 17836071644464517417
255183 313 18266723844894753801
283562 15 18341899584778237587
3380486 145 18189617138579543999
376196 1 17682969056315885629
4015057 19 17823993431074328892
4073 2 18340486759744495010
4258327 124 17988062474672752509
463206 1 17842269260233936827
5104073 3 18336553810920410914
5924683 9 18342739619697528243
6004065 56 18120656821626708679
7226269 152 18343025484974671781
7288768 16 17972305481183511985
7615 1 17631431445522206269
81228 2 18197472157064249127
90127 26 18114461240922500366
9981440 41 17896613957933008847

> <PUBCHEM_SHAPE_MULTIPOLES>
471.96
11.37
4.03
1.48
15.73
2.14
-0.08
-0.94
2.93
-7.84
0.9
-0.33
-0.2
1.96

> <PUBCHEM_SHAPE_SELFOVERLAP>
1029.337

> <PUBCHEM_SHAPE_VOLUME>
257.5

> <PUBCHEM_COORDINATE_TYPE>
2
5
10

$$$$

