17395342
  -OEChem-06241222492D

 37 38  0     1  0  0  0  0  0999 V2000
    3.7320    0.4400    0.0000 S   0  0  0  0  0  0  0  0  0  0  0  0
    4.7320    0.4400    0.0000 O   0  0  0  0  0  0  0  0  0  0  0  0
    2.7320    0.4400    0.0000 O   0  0  0  0  0  0  0  0  0  0  0  0
    2.0000    3.4400    0.0000 O   0  0  0  0  0  0  0  0  0  0  0  0
    3.7320    1.4400    0.0000 N   0  0  3  0  0  0  0  0  0  0  0  0
    3.7320    3.4400    0.0000 N   0  0  0  0  0  0  0  0  0  0  0  0
    4.5981    1.9400    0.0000 C   0  0  0  0  0  0  0  0  0  0  0  0
    2.8660    1.9400    0.0000 C   0  0  0  0  0  0  0  0  0  0  0  0
    4.5981    2.9400    0.0000 C   0  0  0  0  0  0  0  0  0  0  0  0
    3.7320   -0.5600    0.0000 C   0  0  0  0  0  0  0  0  0  0  0  0
    2.8660    2.9400    0.0000 C   0  0  0  0  0  0  0  0  0  0  0  0
    3.7320   -3.5600    0.0000 C   0  0  0  0  0  0  0  0  0  0  0  0
    3.7320   -2.5600    0.0000 C   0  0  0  0  0  0  0  0  0  0  0  0
    2.8660   -1.0600    0.0000 C   0  0  0  0  0  0  0  0  0  0  0  0
    4.5981   -1.0600    0.0000 C   0  0  0  0  0  0  0  0  0  0  0  0
    2.8660   -2.0600    0.0000 C   0  0  0  0  0  0  0  0  0  0  0  0
    4.5981   -2.0600    0.0000 C   0  0  0  0  0  0  0  0  0  0  0  0
    4.5981   -4.0600    0.0000 C   0  0  0  0  0  0  0  0  0  0  0  0
    2.8660   -4.0600    0.0000 C   0  0  0  0  0  0  0  0  0  0  0  0
    4.8101    1.3574    0.0000 H   0  0  0  0  0  0  0  0  0  0  0  0
    5.2087    2.0477    0.0000 H   0  0  0  0  0  0  0  0  0  0  0  0
    2.2554    2.0477    0.0000 H   0  0  0  0  0  0  0  0  0  0  0  0
    2.6540    1.3574    0.0000 H   0  0  0  0  0  0  0  0  0  0  0  0
    5.2087    2.8323    0.0000 H   0  0  0  0  0  0  0  0  0  0  0  0
    4.8101    3.5226    0.0000 H   0  0  0  0  0  0  0  0  0  0  0  0
    3.7320    4.0600    0.0000 H   0  0  0  0  0  0  0  0  0  0  0  0
    3.7320   -4.1800    0.0000 H   0  0  0  0  0  0  0  0  0  0  0  0
    2.3291   -0.7500    0.0000 H   0  0  0  0  0  0  0  0  0  0  0  0
    5.1350   -0.7500    0.0000 H   0  0  0  0  0  0  0  0  0  0  0  0
    2.3291   -2.3700    0.0000 H   0  0  0  0  0  0  0  0  0  0  0  0
    5.1350   -2.3700    0.0000 H   0  0  0  0  0  0  0  0  0  0  0  0
    2.5560   -3.5231    0.0000 H   0  0  0  0  0  0  0  0  0  0  0  0
    4.2881   -4.5969    0.0000 H   0  0  0  0  0  0  0  0  0  0  0  0
    5.1350   -4.3700    0.0000 H   0  0  0  0  0  0  0  0  0  0  0  0
    4.9081   -3.5231    0.0000 H   0  0  0  0  0  0  0  0  0  0  0  0
    2.3291   -4.3700    0.0000 H   0  0  0  0  0  0  0  0  0  0  0  0
    3.1760   -4.5969    0.0000 H   0  0  0  0  0  0  0  0  0  0  0  0
  1  2  2  0  0  0  0
  1  3  2  0  0  0  0
  1  5  1  0  0  0  0
  1 10  1  0  0  0  0
  4 11  2  0  0  0  0
  5  7  1  0  0  0  0
  5  8  1  0  0  0  0
  6  9  1  0  0  0  0
  6 11  1  0  0  0  0
  6 26  1  0  0  0  0
  7  9  1  0  0  0  0
  7 20  1  0  0  0  0
  7 21  1  0  0  0  0
  8 11  1  0  0  0  0
  8 22  1  0  0  0  0
  8 23  1  0  0  0  0
  9 24  1  0  0  0  0
  9 25  1  0  0  0  0
 10 14  2  0  0  0  0
 10 15  1  0  0  0  0
 12 13  1  0  0  0  0
 12 18  1  0  0  0  0
 12 19  1  0  0  0  0
 12 27  1  0  0  0  0
 13 16  2  0  0  0  0
 13 17  1  0  0  0  0
 14 16  1  0  0  0  0
 14 28  1  0  0  0  0
 15 17  2  0  0  0  0
 15 29  1  0  0  0  0
 16 30  1  0  0  0  0
 17 31  1  0  0  0  0
 18 33  1  0  0  0  0
 18 34  1  0  0  0  0
 18 35  1  0  0  0  0
 19 32  1  0  0  0  0
 19 36  1  0  0  0  0
 19 37  1  0  0  0  0
M  END
> <PUBCHEM_COMPOUND_CID>
17395342

> <PUBCHEM_COMPOUND_CANONICALIZED>
1

> <PUBCHEM_CACTVS_COMPLEXITY>
420

> <PUBCHEM_CACTVS_HBOND_ACCEPTOR>
4

> <PUBCHEM_CACTVS_HBOND_DONOR>
1

> <PUBCHEM_CACTVS_ROTATABLE_BOND>
3

> <PUBCHEM_CACTVS_SUBSKEYS>
AAADceBzMABAAAAAAAAAAAAAAAAAAAAAAAA8QAAAAAAAAAABAAAAHgQQQAAADQDB2AQyAYLAAAKIAiFSEHBCABAgAAAIiJiIAIgIYCKAETCQIAAglgCIiAcAgMAOkAAAAAAAAAAgAAAAAAAAAAAAAAAAAA==

> <PUBCHEM_IUPAC_OPENEYE_NAME>
4-(4-isopropylphenyl)sulfonylpiperazin-2-one

> <PUBCHEM_IUPAC_CAS_NAME>
4-(4-propan-2-ylphenyl)sulfonyl-2-piperazinone

> <PUBCHEM_IUPAC_NAME>
4-(4-propan-2-ylphenyl)sulfonylpiperazin-2-one

> <PUBCHEM_IUPAC_SYSTEMATIC_NAME>
4-(4-propan-2-ylphenyl)sulfonylpiperazin-2-one

> <PUBCHEM_IUPAC_TRADITIONAL_NAME>
4-p-cumenylsulfonylpiperazin-2-one

> <PUBCHEM_IUPAC_INCHI>
InChI=1S/C13H18N2O3S/c1-10(2)11-3-5-12(6-4-11)19(17,18)15-8-7-14-13(16)9-15/h3-6,10H,7-9H2,1-2H3,(H,14,16)

> <PUBCHEM_IUPAC_INCHIKEY>
NDLVWXMZHCABPY-UHFFFAOYSA-N

> <PUBCHEM_XLOGP3_AA>
1.3

> <PUBCHEM_EXACT_MASS>
282.103813

> <PUBCHEM_MOLECULAR_FORMULA>
C13H18N2O3S

> <PUBCHEM_MOLECULAR_WEIGHT>
282.35862

> <PUBCHEM_OPENEYE_CAN_SMILES>
CC(C)C1=CC=C(C=C1)S(=O)(=O)N2CCNC(=O)C2

> <PUBCHEM_OPENEYE_ISO_SMILES>
CC(C)C1=CC=C(C=C1)S(=O)(=O)N2CCNC(=O)C2

> <PUBCHEM_CACTVS_TPSA>
74.9

> <PUBCHEM_MONOISOTOPIC_WEIGHT>
282.103813

> <PUBCHEM_TOTAL_CHARGE>
0

> <PUBCHEM_HEAVY_ATOM_COUNT>
19

> <PUBCHEM_ATOM_DEF_STEREO_COUNT>
0

> <PUBCHEM_ATOM_UDEF_STEREO_COUNT>
0

> <PUBCHEM_BOND_DEF_STEREO_COUNT>
0

> <PUBCHEM_BOND_UDEF_STEREO_COUNT>
0

> <PUBCHEM_ISOTOPIC_ATOM_COUNT>
0

> <PUBCHEM_COMPONENT_COUNT>
1

> <PUBCHEM_CACTVS_TAUTO_COUNT>
3

> <PUBCHEM_COORDINATE_TYPE>
1
5
255

> <PUBCHEM_BONDANNOTATIONS>
10  14  8
10  15  8
13  16  8
13  17  8
14  16  8
15  17  8

$$$$

