3809
  -OEChem-06251223412D

 38 38  0     0  0  0  0  0  0999 V2000
    2.0000   -0.0600    0.0000 O   0  0  0  0  0  0  0  0  0  0  0  0
    6.3301    2.4400    0.0000 O   0  0  0  0  0  0  0  0  0  0  0  0
    6.3301    4.4400    0.0000 O   0  0  0  0  0  0  0  0  0  0  0  0
    3.7320   -0.0600    0.0000 N   0  0  0  0  0  0  0  0  0  0  0  0
    2.8660   -4.5600    0.0000 N   0  0  0  0  0  0  0  0  0  0  0  0
    5.4641    3.9400    0.0000 N   0  0  0  0  0  0  0  0  0  0  0  0
    4.5981    1.4400    0.0000 C   0  0  0  0  0  0  0  0  0  0  0  0
    3.7320    0.9400    0.0000 C   0  0  0  0  0  0  0  0  0  0  0  0
    4.5981    2.4400    0.0000 C   0  0  0  0  0  0  0  0  0  0  0  0
    2.8660   -1.5600    0.0000 C   0  0  0  0  0  0  0  0  0  0  0  0
    2.8660   -3.5600    0.0000 C   0  0  0  0  0  0  0  0  0  0  0  0
    2.8660   -0.5600    0.0000 C   0  0  0  0  0  0  0  0  0  0  0  0
    2.0000   -2.0600    0.0000 C   0  0  0  0  0  0  0  0  0  0  0  0
    3.7320   -2.0600    0.0000 C   0  0  0  0  0  0  0  0  0  0  0  0
    2.0000   -3.0600    0.0000 C   0  0  0  0  0  0  0  0  0  0  0  0
    3.7320   -3.0600    0.0000 C   0  0  0  0  0  0  0  0  0  0  0  0
    5.4641    2.9400    0.0000 C   0  0  0  0  0  0  0  0  0  0  0  0
    2.0000   -5.0600    0.0000 C   0  0  0  0  0  0  0  0  0  0  0  0
    3.7320   -5.0600    0.0000 C   0  0  0  0  0  0  0  0  0  0  0  0
    4.8101    0.8574    0.0000 H   0  0  0  0  0  0  0  0  0  0  0  0
    5.2087    1.5477    0.0000 H   0  0  0  0  0  0  0  0  0  0  0  0
    3.5200    1.5226    0.0000 H   0  0  0  0  0  0  0  0  0  0  0  0
    3.1215    0.8323    0.0000 H   0  0  0  0  0  0  0  0  0  0  0  0
    4.3860    3.0226    0.0000 H   0  0  0  0  0  0  0  0  0  0  0  0
    3.9875    2.3323    0.0000 H   0  0  0  0  0  0  0  0  0  0  0  0
    4.2690   -0.3700    0.0000 H   0  0  0  0  0  0  0  0  0  0  0  0
    1.4631   -1.7500    0.0000 H   0  0  0  0  0  0  0  0  0  0  0  0
    4.2690   -1.7500    0.0000 H   0  0  0  0  0  0  0  0  0  0  0  0
    1.4631   -3.3700    0.0000 H   0  0  0  0  0  0  0  0  0  0  0  0
    4.2690   -3.3700    0.0000 H   0  0  0  0  0  0  0  0  0  0  0  0
    1.6900   -4.5231    0.0000 H   0  0  0  0  0  0  0  0  0  0  0  0
    3.4220   -5.5969    0.0000 H   0  0  0  0  0  0  0  0  0  0  0  0
    4.2690   -5.3700    0.0000 H   0  0  0  0  0  0  0  0  0  0  0  0
    4.0420   -4.5231    0.0000 H   0  0  0  0  0  0  0  0  0  0  0  0
    1.4631   -5.3700    0.0000 H   0  0  0  0  0  0  0  0  0  0  0  0
    2.3100   -5.5969    0.0000 H   0  0  0  0  0  0  0  0  0  0  0  0
    4.9272    4.2500    0.0000 H   0  0  0  0  0  0  0  0  0  0  0  0
    6.3301    5.0600    0.0000 H   0  0  0  0  0  0  0  0  0  0  0  0
  1 12  2  0  0  0  0
  2 17  2  0  0  0  0
  3  6  1  0  0  0  0
  3 38  1  0  0  0  0
  4  8  1  0  0  0  0
  4 12  1  0  0  0  0
  4 26  1  0  0  0  0
  5 11  1  0  0  0  0
  5 18  1  0  0  0  0
  5 19  1  0  0  0  0
  6 17  1  0  0  0  0
  6 37  1  0  0  0  0
  7  8  1  0  0  0  0
  7  9  1  0  0  0  0
  7 20  1  0  0  0  0
  7 21  1  0  0  0  0
  8 22  1  0  0  0  0
  8 23  1  0  0  0  0
  9 17  1  0  0  0  0
  9 24  1  0  0  0  0
  9 25  1  0  0  0  0
 10 12  1  0  0  0  0
 10 13  2  0  0  0  0
 10 14  1  0  0  0  0
 11 15  2  0  0  0  0
 11 16  1  0  0  0  0
 13 15  1  0  0  0  0
 13 27  1  0  0  0  0
 14 16  2  0  0  0  0
 14 28  1  0  0  0  0
 15 29  1  0  0  0  0
 16 30  1  0  0  0  0
 18 31  1  0  0  0  0
 18 35  1  0  0  0  0
 18 36  1  0  0  0  0
 19 32  1  0  0  0  0
 19 33  1  0  0  0  0
 19 34  1  0  0  0  0
M  END
> <PUBCHEM_COMPOUND_CID>
3809

> <PUBCHEM_COMPOUND_CANONICALIZED>
1

> <PUBCHEM_CACTVS_COMPLEXITY>
300

> <PUBCHEM_CACTVS_HBOND_ACCEPTOR>
4

> <PUBCHEM_CACTVS_HBOND_DONOR>
3

> <PUBCHEM_CACTVS_ROTATABLE_BOND>
6

> <PUBCHEM_CACTVS_SUBSKEYS>
AAADceBzMAAAAAAAAAAAAAAAAAAAAAAAAAAwAAAAAAAAAAABAAAAHgAUCAAADAjBmAQywIPQAACIAiVSUACCAAAlAgAoiIEIZMgIIDLAlZGEIQhglgDIyYcciQCeCAAAAAAAAAAQAAAAAAAAAAAAAAAAAA==

> <PUBCHEM_IUPAC_OPENEYE_NAME>
4-(dimethylamino)-N-[4-(hydroxyamino)-4-oxo-butyl]benzamide

> <PUBCHEM_IUPAC_CAS_NAME>
4-(dimethylamino)-N-[4-(hydroxyamino)-4-oxobutyl]benzamide

> <PUBCHEM_IUPAC_NAME>
4-(dimethylamino)-N-[4-(hydroxyamino)-4-oxobutyl]benzamide

> <PUBCHEM_IUPAC_SYSTEMATIC_NAME>
4-(dimethylamino)-N-[4-(oxidanylamino)-4-oxidanylidene-butyl]benzamide

> <PUBCHEM_IUPAC_TRADITIONAL_NAME>
4-(dimethylamino)-N-[4-(hydroxyamino)-4-keto-butyl]benzamide

> <PUBCHEM_IUPAC_INCHI>
InChI=1S/C13H19N3O3/c1-16(2)11-7-5-10(6-8-11)13(18)14-9-3-4-12(17)15-19/h5-8,19H,3-4,9H2,1-2H3,(H,14,18)(H,15,17)

> <PUBCHEM_IUPAC_INCHIKEY>
NEKDWIFWVZMRCZ-UHFFFAOYSA-N

> <PUBCHEM_XLOGP3_AA>
0.4

> <PUBCHEM_EXACT_MASS>
265.142641

> <PUBCHEM_MOLECULAR_FORMULA>
C13H19N3O3

> <PUBCHEM_MOLECULAR_WEIGHT>
265.30826

> <PUBCHEM_OPENEYE_CAN_SMILES>
CN(C)C1=CC=C(C=C1)C(=O)NCCCC(=O)NO

> <PUBCHEM_OPENEYE_ISO_SMILES>
CN(C)C1=CC=C(C=C1)C(=O)NCCCC(=O)NO

> <PUBCHEM_CACTVS_TPSA>
81.7

> <PUBCHEM_MONOISOTOPIC_WEIGHT>
265.142641

> <PUBCHEM_TOTAL_CHARGE>
0

> <PUBCHEM_HEAVY_ATOM_COUNT>
19

> <PUBCHEM_ATOM_DEF_STEREO_COUNT>
0

> <PUBCHEM_ATOM_UDEF_STEREO_COUNT>
0

> <PUBCHEM_BOND_DEF_STEREO_COUNT>
0

> <PUBCHEM_BOND_UDEF_STEREO_COUNT>
0

> <PUBCHEM_ISOTOPIC_ATOM_COUNT>
0

> <PUBCHEM_COMPONENT_COUNT>
1

> <PUBCHEM_CACTVS_TAUTO_COUNT>
8

> <PUBCHEM_COORDINATE_TYPE>
1
5
255

> <PUBCHEM_BONDANNOTATIONS>
10  13  8
10  14  8
11  15  8
11  16  8
13  15  8
14  16  8

$$$$

