11418
  -OEChem-06261205392D

 22 22  0     1  0  0  0  0  0999 V2000
    3.7320    1.3450    0.0000 O   0  0  0  0  0  0  0  0  0  0  0  0
    2.8660   -0.1550    0.0000 C   0  0  3  0  0  0  0  0  0  0  0  0
    3.7320    0.3450    0.0000 C   0  0  3  0  0  0  0  0  0  0  0  0
    2.8660   -1.1550    0.0000 C   0  0  0  0  0  0  0  0  0  0  0  0
    4.5981   -0.1550    0.0000 C   0  0  0  0  0  0  0  0  0  0  0  0
    3.7320   -1.6550    0.0000 C   0  0  0  0  0  0  0  0  0  0  0  0
    4.5981   -1.1550    0.0000 C   0  0  0  0  0  0  0  0  0  0  0  0
    2.0000    0.3450    0.0000 C   0  0  0  0  0  0  0  0  0  0  0  0
    2.8660    0.6950    0.0000 H   0  0  0  0  0  0  0  0  0  0  0  0
    4.4682    0.7700    0.0000 H   0  0  0  0  0  0  0  0  0  0  0  0
    2.2554   -1.0473    0.0000 H   0  0  0  0  0  0  0  0  0  0  0  0
    2.6540   -1.7376    0.0000 H   0  0  0  0  0  0  0  0  0  0  0  0
    5.2087   -0.2627    0.0000 H   0  0  0  0  0  0  0  0  0  0  0  0
    4.8101    0.4276    0.0000 H   0  0  0  0  0  0  0  0  0  0  0  0
    3.3335   -2.1300    0.0000 H   0  0  0  0  0  0  0  0  0  0  0  0
    4.1306   -2.1300    0.0000 H   0  0  0  0  0  0  0  0  0  0  0  0
    4.8101   -1.7376    0.0000 H   0  0  0  0  0  0  0  0  0  0  0  0
    5.2087   -1.0473    0.0000 H   0  0  0  0  0  0  0  0  0  0  0  0
    2.3100    0.8819    0.0000 H   0  0  0  0  0  0  0  0  0  0  0  0
    1.4631    0.6550    0.0000 H   0  0  0  0  0  0  0  0  0  0  0  0
    1.6900   -0.1919    0.0000 H   0  0  0  0  0  0  0  0  0  0  0  0
    4.2690    1.6550    0.0000 H   0  0  0  0  0  0  0  0  0  0  0  0
  1  3  1  0  0  0  0
  1 22  1  0  0  0  0
  2  3  1  0  0  0  0
  2  4  1  0  0  0  0
  2  8  1  0  0  0  0
  2  9  1  0  0  0  0
  3  5  1  0  0  0  0
  3 10  1  0  0  0  0
  4  6  1  0  0  0  0
  4 11  1  0  0  0  0
  4 12  1  0  0  0  0
  5  7  1  0  0  0  0
  5 13  1  0  0  0  0
  5 14  1  0  0  0  0
  6  7  1  0  0  0  0
  6 15  1  0  0  0  0
  6 16  1  0  0  0  0
  7 17  1  0  0  0  0
  7 18  1  0  0  0  0
  8 19  1  0  0  0  0
  8 20  1  0  0  0  0
  8 21  1  0  0  0  0
M  END
> <PUBCHEM_COMPOUND_CID>
11418

> <PUBCHEM_COMPOUND_CANONICALIZED>
1

> <PUBCHEM_CACTVS_COMPLEXITY>
70.8

> <PUBCHEM_CACTVS_HBOND_ACCEPTOR>
1

> <PUBCHEM_CACTVS_HBOND_DONOR>
1

> <PUBCHEM_CACTVS_ROTATABLE_BOND>
0

> <PUBCHEM_CACTVS_SUBSKEYS>
AAADccBgIAAAAAAAAAAAAAAAAAAAAAAAAAAwAAAAAAAAAAAAAAAAGgAACAAADRSggAICAAAAAgAAAAAAAAAAAAAAAAAAAAAAAAAAEAIAAAAAQAAEAAAAAAGAwCAOAAAAAAAAAAAAAAAAABAAAAAAAAAAAA==

> <PUBCHEM_IUPAC_OPENEYE_NAME>
2-methylcyclohexanol

> <PUBCHEM_IUPAC_CAS_NAME>
2-methyl-1-cyclohexanol

> <PUBCHEM_IUPAC_NAME>
2-methylcyclohexan-1-ol

> <PUBCHEM_IUPAC_SYSTEMATIC_NAME>
2-methylcyclohexan-1-ol

> <PUBCHEM_IUPAC_TRADITIONAL_NAME>
2-methylcyclohexanol

> <PUBCHEM_IUPAC_INCHI>
InChI=1S/C7H14O/c1-6-4-2-3-5-7(6)8/h6-8H,2-5H2,1H3

> <PUBCHEM_IUPAC_INCHIKEY>
NDVWOBYBJYUSMF-UHFFFAOYSA-N

> <PUBCHEM_XLOGP3>
1.8

> <PUBCHEM_EXACT_MASS>
114.104465

> <PUBCHEM_MOLECULAR_FORMULA>
C7H14O

> <PUBCHEM_MOLECULAR_WEIGHT>
114.18546

> <PUBCHEM_OPENEYE_CAN_SMILES>
CC1CCCCC1O

> <PUBCHEM_OPENEYE_ISO_SMILES>
CC1CCCCC1O

> <PUBCHEM_CACTVS_TPSA>
20.2

> <PUBCHEM_MONOISOTOPIC_WEIGHT>
114.104465

> <PUBCHEM_TOTAL_CHARGE>
0

> <PUBCHEM_HEAVY_ATOM_COUNT>
8

> <PUBCHEM_ATOM_DEF_STEREO_COUNT>
0

> <PUBCHEM_ATOM_UDEF_STEREO_COUNT>
2

> <PUBCHEM_BOND_DEF_STEREO_COUNT>
0

> <PUBCHEM_BOND_UDEF_STEREO_COUNT>
0

> <PUBCHEM_ISOTOPIC_ATOM_COUNT>
0

> <PUBCHEM_COMPONENT_COUNT>
1

> <PUBCHEM_CACTVS_TAUTO_COUNT>
1

> <PUBCHEM_COORDINATE_TYPE>
1
5
255

> <PUBCHEM_BONDANNOTATIONS>
2  9  3
3  10  3

$$$$

