441980
  -OEChem-07051212563D

 34 36  0     0  0  0  0  0  0999 V2000
   -2.9408    0.7645    0.0580 O   0  0  0  0  0  0  0  0  0  0  0  0
    1.4060   -1.3243   -0.1534 O   0  0  0  0  0  0  0  0  0  0  0  0
    0.8893    3.4819    0.1394 O   0  0  0  0  0  0  0  0  0  0  0  0
    3.2377    2.3037    0.0207 O   0  0  0  0  0  0  0  0  0  0  0  0
    2.9274   -3.4342    0.6356 O   0  0  0  0  0  0  0  0  0  0  0  0
   -3.6219   -0.5050   -0.0030 C   0  0  0  0  0  0  0  0  0  0  0  0
   -0.7673   -0.3440   -0.0515 C   0  0  0  0  0  0  0  0  0  0  0  0
   -1.5743    0.7961    0.0317 C   0  0  0  0  0  0  0  0  0  0  0  0
   -2.7357   -1.7219   -0.0918 C   0  0  0  0  0  0  0  0  0  0  0  0
    0.6304   -0.1907   -0.0712 C   0  0  0  0  0  0  0  0  0  0  0  0
   -1.4033   -1.6537   -0.1148 C   0  0  0  0  0  0  0  0  0  0  0  0
   -4.5306   -0.4489   -1.2367 C   0  0  0  0  0  0  0  0  0  0  0  0
   -4.4817   -0.5953    1.2631 C   0  0  0  0  0  0  0  0  0  0  0  0
    1.1963    1.0856   -0.0080 C   0  0  0  0  0  0  0  0  0  0  0  0
   -0.9993    2.0693    0.0946 C   0  0  0  0  0  0  0  0  0  0  0  0
    0.3855    2.2179    0.0749 C   0  0  0  0  0  0  0  0  0  0  0  0
    2.6614    1.2257   -0.0296 C   0  0  0  0  0  0  0  0  0  0  0  0
    2.7838   -1.1960   -0.1740 C   0  0  0  0  0  0  0  0  0  0  0  0
    3.4343   -0.0258   -0.1185 C   0  0  0  0  0  0  0  0  0  0  0  0
    3.5029   -2.5048   -0.2654 C   0  0  0  0  0  0  0  0  0  0  0  0
   -3.2105   -2.6990   -0.1390 H   0  0  0  0  0  0  0  0  0  0  0  0
   -0.8033   -2.5533   -0.1791 H   0  0  0  0  0  0  0  0  0  0  0  0
   -5.1492   -1.3480   -1.3329 H   0  0  0  0  0  0  0  0  0  0  0  0
   -5.1943    0.4227   -1.1939 H   0  0  0  0  0  0  0  0  0  0  0  0
   -3.9382   -0.3393   -2.1531 H   0  0  0  0  0  0  0  0  0  0  0  0
   -3.8537   -0.5922    2.1623 H   0  0  0  0  0  0  0  0  0  0  0  0
   -5.1446    0.2739    1.3482 H   0  0  0  0  0  0  0  0  0  0  0  0
   -5.0982   -1.5009    1.2779 H   0  0  0  0  0  0  0  0  0  0  0  0
   -1.6365    2.9487    0.1593 H   0  0  0  0  0  0  0  0  0  0  0  0
    4.5159    0.0400   -0.1376 H   0  0  0  0  0  0  0  0  0  0  0  0
    4.5701   -2.4148   -0.0378 H   0  0  0  0  0  0  0  0  0  0  0  0
    3.4042   -2.9117   -1.2768 H   0  0  0  0  0  0  0  0  0  0  0  0
    1.8582    3.4641    0.1191 H   0  0  0  0  0  0  0  0  0  0  0  0
    3.0341   -3.0799    1.5351 H   0  0  0  0  0  0  0  0  0  0  0  0
  1  6  1  0  0  0  0
  1  8  1  0  0  0  0
  2 10  1  0  0  0  0
  2 18  1  0  0  0  0
  3 16  1  0  0  0  0
  3 33  1  0  0  0  0
  4 17  2  0  0  0  0
  5 20  1  0  0  0  0
  5 34  1  0  0  0  0
  6  9  1  0  0  0  0
  6 12  1  0  0  0  0
  6 13  1  0  0  0  0
  7  8  2  0  0  0  0
  7 10  1  0  0  0  0
  7 11  1  0  0  0  0
  8 15  1  0  0  0  0
  9 11  2  0  0  0  0
  9 21  1  0  0  0  0
 10 14  2  0  0  0  0
 11 22  1  0  0  0  0
 12 23  1  0  0  0  0
 12 24  1  0  0  0  0
 12 25  1  0  0  0  0
 13 26  1  0  0  0  0
 13 27  1  0  0  0  0
 13 28  1  0  0  0  0
 14 16  1  0  0  0  0
 14 17  1  0  0  0  0
 15 16  2  0  0  0  0
 15 29  1  0  0  0  0
 17 19  1  0  0  0  0
 18 19  2  0  0  0  0
 18 20  1  0  0  0  0
 19 30  1  0  0  0  0
 20 31  1  0  0  0  0
 20 32  1  0  0  0  0
M  END
> <PUBCHEM_COMPOUND_CID>
441980

> <PUBCHEM_CONFORMER_RMSD>
0.6

> <PUBCHEM_CONFORMER_DIVERSEORDER>
1

> <PUBCHEM_MMFF94_PARTIAL_CHARGES>
24
1 -0.36
10 0.08
11 -0.18
14 0.09
15 -0.15
16 0.08
17 0.47
18 -0.06
19 -0.14
2 -0.16
20 0.42
21 0.15
22 0.15
29 0.15
3 -0.53
30 0.15
33 0.45
34 0.4
4 -0.57
5 -0.68
6 0.42
7 0.03
8 0.08
9 -0.29

> <PUBCHEM_EFFECTIVE_ROTOR_COUNT>
1.4

> <PUBCHEM_PHARMACOPHORE_FEATURES>
10
1 1 acceptor
1 2 acceptor
1 3 donor
1 4 acceptor
1 5 acceptor
1 5 donor
3 6 12 13 hydrophobe
6 1 6 7 8 9 11 rings
6 2 10 14 17 18 19 rings
6 7 8 10 14 15 16 rings

> <PUBCHEM_HEAVY_ATOM_COUNT>
20

> <PUBCHEM_ATOM_DEF_STEREO_COUNT>
0

> <PUBCHEM_ATOM_UDEF_STEREO_COUNT>
0

> <PUBCHEM_BOND_DEF_STEREO_COUNT>
0

> <PUBCHEM_BOND_UDEF_STEREO_COUNT>
0

> <PUBCHEM_ISOTOPIC_ATOM_COUNT>
0

> <PUBCHEM_COMPONENT_COUNT>
1

> <PUBCHEM_CACTVS_TAUTO_COUNT>
5

> <PUBCHEM_CONFORMER_ID>
0006BE7C00000001

> <PUBCHEM_MMFF94_ENERGY>
59.9919

> <PUBCHEM_FEATURE_SELFOVERLAP>
50.806

> <PUBCHEM_SHAPE_FINGERPRINT>
10411042 1 18266458896050448742
10967382 1 18410010996749072022
1100329 8 17977102692842762889
11471102 20 18337958878710271477
11578080 2 17344925220347673180
116883 192 18190457362435236574
12236239 1 17676763181408732203
12553582 1 18337950198681976190
13140716 1 17976256837793821625
138480 1 18410292510686813684
14178342 30 17900840261608232826
14790565 3 17907006288515824876
14866123 147 17545037564383516907
15042514 8 17547006794267847778
15196674 1 18409728461258330597
15442244 35 18336261352942047617
15536298 74 18261390018559855100
16945 1 18337671897691125101
200 152 18040442062295391693
20645477 70 18412554193051409735
20739085 24 18194373750013263809
21267235 1 18409438185403344894
21279426 13 18197786698925847181
21421861 104 18271811254498374778
21501502 16 18335133245443328144
221490 88 18341325651986408506
2255824 54 18124030135478407804
23184049 29 18266177429926806198
2334 1 18409445929276865261
23402539 116 18189344635166879431
23463225 33 18408601474197254502
23559900 14 18338243759933495426
2748010 2 18337961206466676732
3091708 16 9285254209413834712
335352 9 18122061168014337069
34934 24 18335709282119668614
352729 6 17760085511621073444
5104073 3 18337389443334881595
54173680 148 17834113430965181930
7364860 26 18336264540024149888
9709674 26 18340484452756557555

> <PUBCHEM_SHAPE_MULTIPOLES>
382.24
7.58
3.25
0.79
4.18
0.32
-0.01
-3.38
0.07
-3.4
-0.3
0.71
-0.15
-0.11

> <PUBCHEM_SHAPE_SELFOVERLAP>
844.081

> <PUBCHEM_SHAPE_VOLUME>
205.8

> <PUBCHEM_COORDINATE_TYPE>
2
5
10

$$$$

