188456
  -OEChem-07051212562D

 53 55  0     1  0  0  0  0  0999 V2000
    7.9014   -0.2846    0.0000 O   0  0  0  0  0  0  0  0  0  0  0  0
    4.4210    1.7500    0.0000 O   0  0  0  0  0  0  0  0  0  0  0  0
    6.1694   -2.2846    0.0000 O   0  0  0  0  0  0  0  0  0  0  0  0
    6.1694    0.7154    0.0000 C   0  0  2  0  0  0  0  0  0  0  0  0
    7.0354    0.2154    0.0000 C   0  0  2  0  0  0  0  0  0  0  0  0
    5.3033    0.2154    0.0000 C   0  0  2  0  0  0  0  0  0  0  0  0
    7.9454    0.7222    0.0000 C   0  0  0  0  0  0  0  0  0  0  0  0
    6.1533    1.7569    0.0000 C   0  0  0  0  0  0  0  0  0  0  0  0
    4.4094    0.7500    0.0000 C   0  0  2  0  0  0  0  0  0  0  0  0
    7.0354   -0.7846    0.0000 C   0  0  0  0  0  0  0  0  0  0  0  0
    7.9534    1.7638    0.0000 C   0  0  0  0  0  0  0  0  0  0  0  0
    5.3033   -0.7846    0.0000 C   0  0  0  0  0  0  0  0  0  0  0  0
    7.0513    2.2846    0.0000 C   0  0  0  0  0  0  0  0  0  0  0  0
    3.5033    0.2362    0.0000 C   0  0  0  0  0  0  0  0  0  0  0  0
    6.1694   -1.2846    0.0000 C   0  0  0  0  0  0  0  0  0  0  0  0
    5.3033    1.2154    0.0000 C   0  0  0  0  0  0  0  0  0  0  0  0
    3.5033   -0.8054    0.0000 C   0  0  1  0  0  0  0  0  0  0  0  0
    8.9453    0.7107    0.0000 C   0  0  0  0  0  0  0  0  0  0  0  0
    8.7040    0.0706    0.0000 C   0  0  0  0  0  0  0  0  0  0  0  0
    4.4094   -1.3193    0.0000 C   0  0  0  0  0  0  0  0  0  0  0  0
    3.0067   -1.6734    0.0000 C   0  0  0  0  0  0  0  0  0  0  0  0
    2.5033   -0.8093    0.0000 C   0  0  0  0  0  0  0  0  0  0  0  0
    2.0000    0.0548    0.0000 C   0  0  0  0  0  0  0  0  0  0  0  0
    6.9022    1.1460    0.0000 H   0  0  0  0  0  0  0  0  0  0  0  0
    5.9353    2.3373    0.0000 H   0  0  0  0  0  0  0  0  0  0  0  0
    5.5442    1.6414    0.0000 H   0  0  0  0  0  0  0  0  0  0  0  0
    3.8755    1.0652    0.0000 H   0  0  0  0  0  0  0  0  0  0  0  0
    7.2474   -1.3672    0.0000 H   0  0  0  0  0  0  0  0  0  0  0  0
    7.6460   -0.6770    0.0000 H   0  0  0  0  0  0  0  0  0  0  0  0
    8.5634    1.6530    0.0000 H   0  0  0  0  0  0  0  0  0  0  0  0
    8.1670    2.3459    0.0000 H   0  0  0  0  0  0  0  0  0  0  0  0
    7.4486    2.7606    0.0000 H   0  0  0  0  0  0  0  0  0  0  0  0
    6.6504    2.7575    0.0000 H   0  0  0  0  0  0  0  0  0  0  0  0
    3.2943    0.8199    0.0000 H   0  0  0  0  0  0  0  0  0  0  0  0
    2.8925    0.1301    0.0000 H   0  0  0  0  0  0  0  0  0  0  0  0
    5.9233    1.2154    0.0000 H   0  0  0  0  0  0  0  0  0  0  0  0
    5.3033    1.8354    0.0000 H   0  0  0  0  0  0  0  0  0  0  0  0
    4.6833    1.2154    0.0000 H   0  0  0  0  0  0  0  0  0  0  0  0
    8.9382    0.0907    0.0000 H   0  0  0  0  0  0  0  0  0  0  0  0
    9.5653    0.7035    0.0000 H   0  0  0  0  0  0  0  0  0  0  0  0
    8.9525    1.3306    0.0000 H   0  0  0  0  0  0  0  0  0  0  0  0
    8.3000   -0.3997    0.0000 H   0  0  0  0  0  0  0  0  0  0  0  0
    9.1743   -0.3334    0.0000 H   0  0  0  0  0  0  0  0  0  0  0  0
    9.1079    0.5409    0.0000 H   0  0  0  0  0  0  0  0  0  0  0  0
    4.4166   -1.9392    0.0000 H   0  0  0  0  0  0  0  0  0  0  0  0
    7.9014   -0.9046    0.0000 H   0  0  0  0  0  0  0  0  0  0  0  0
    3.8876    2.0662    0.0000 H   0  0  0  0  0  0  0  0  0  0  0  0
    2.4685   -1.3655    0.0000 H   0  0  0  0  0  0  0  0  0  0  0  0
    2.6987   -2.2115    0.0000 H   0  0  0  0  0  0  0  0  0  0  0  0
    3.5448   -1.9813    0.0000 H   0  0  0  0  0  0  0  0  0  0  0  0
    2.1954   -1.3474    0.0000 H   0  0  0  0  0  0  0  0  0  0  0  0
    2.3079    0.5929    0.0000 H   0  0  0  0  0  0  0  0  0  0  0  0
    1.3800    0.0524    0.0000 H   0  0  0  0  0  0  0  0  0  0  0  0
  5  1  1  6  0  0  0
  1 46  1  0  0  0  0
  9  2  1  6  0  0  0
  2 47  1  0  0  0  0
  3 15  2  0  0  0  0
  4  5  1  0  0  0  0
  4  6  1  0  0  0  0
  4  8  1  0  0  0  0
  4 24  1  1  0  0  0
  5  7  1  0  0  0  0
  5 10  1  0  0  0  0
  6  9  1  0  0  0  0
  6 12  1  0  0  0  0
  6 16  1  6  0  0  0
  7 11  1  0  0  0  0
  7 18  1  0  0  0  0
  7 19  1  0  0  0  0
  8 13  1  0  0  0  0
  8 25  1  0  0  0  0
  8 26  1  0  0  0  0
  9 14  1  0  0  0  0
  9 27  1  0  0  0  0
 10 15  1  0  0  0  0
 10 28  1  0  0  0  0
 10 29  1  0  0  0  0
 11 13  1  0  0  0  0
 11 30  1  0  0  0  0
 11 31  1  0  0  0  0
 12 15  1  0  0  0  0
 12 20  2  0  0  0  0
 13 32  1  0  0  0  0
 13 33  1  0  0  0  0
 14 17  1  0  0  0  0
 14 34  1  0  0  0  0
 14 35  1  0  0  0  0
 16 36  1  0  0  0  0
 16 37  1  0  0  0  0
 16 38  1  0  0  0  0
 17 20  1  0  0  0  0
 17 21  1  1  0  0  0
 17 22  1  0  0  0  0
 18 39  1  0  0  0  0
 18 40  1  0  0  0  0
 18 41  1  0  0  0  0
 19 42  1  0  0  0  0
 19 43  1  0  0  0  0
 19 44  1  0  0  0  0
 20 45  1  0  0  0  0
 21 48  1  0  0  0  0
 21 49  1  0  0  0  0
 21 50  1  0  0  0  0
 22 23  2  0  0  0  0
 22 51  1  0  0  0  0
 23 52  1  0  0  0  0
 23 53  1  0  0  0  0
M  END
> <PUBCHEM_COMPOUND_CID>
188456

> <PUBCHEM_COMPOUND_CANONICALIZED>
1

> <PUBCHEM_CACTVS_COMPLEXITY>
590

> <PUBCHEM_CACTVS_HBOND_ACCEPTOR>
3

> <PUBCHEM_CACTVS_HBOND_DONOR>
2

> <PUBCHEM_CACTVS_ROTATABLE_BOND>
1

> <PUBCHEM_CACTVS_SUBSKEYS>
AAADceB4MAAAAAAAAAAAAAAAAAAAAAAAAAAwYIAAAAAAAADAAAAAGgAACAAAD1SggAICAAAAAgCIAqBSAAAAAAAgAAAICAEAAEgAEBYAAAAAQAAE4AAIAYPKzPDPgAAAAAAAAAAAAAYAADAAAAAAAAAAAA==

> <PUBCHEM_IUPAC_OPENEYE_NAME>
(4aS,4bS,5S,7S,10aR)-5,10a-dihydroxy-1,1,4b,7-tetramethyl-7-vinyl-3,4,4a,5,6,10-hexahydro-2H-phenanthren-9-one

> <PUBCHEM_IUPAC_CAS_NAME>
(4aS,4bS,5S,7S,10aR)-7-ethenyl-5,10a-dihydroxy-1,1,4b,7-tetramethyl-3,4,4a,5,6,10-hexahydro-2H-phenanthren-9-one

> <PUBCHEM_IUPAC_NAME>
(4aS,4bS,5S,7S,10aR)-7-ethenyl-5,10a-dihydroxy-1,1,4b,7-tetramethyl-3,4,4a,5,6,10-hexahydro-2H-phenanthren-9-one

> <PUBCHEM_IUPAC_SYSTEMATIC_NAME>
(4aS,4bS,5S,7S,10aR)-7-ethenyl-1,1,4b,7-tetramethyl-5,10a-bis(oxidanyl)-3,4,4a,5,6,10-hexahydro-2H-phenanthren-9-one

> <PUBCHEM_IUPAC_TRADITIONAL_NAME>
(4aS,4bS,5S,7S,10aR)-5,10a-dihydroxy-1,1,4b,7-tetramethyl-7-vinyl-3,4,4a,5,6,10-hexahydro-2H-phenanthren-9-one

> <PUBCHEM_IUPAC_INCHI>
InChI=1S/C20H30O3/c1-6-18(4)10-13-14(21)11-20(23)15(8-7-9-17(20,2)3)19(13,5)16(22)12-18/h6,10,15-16,22-23H,1,7-9,11-12H2,2-5H3/t15-,16-,18-,19+,20+/m0/s1

> <PUBCHEM_IUPAC_INCHIKEY>
BWRPYSJNBVBIRP-FLFBIERCSA-N

> <PUBCHEM_XLOGP3_AA>
3.5

> <PUBCHEM_EXACT_MASS>
318.219495

> <PUBCHEM_MOLECULAR_FORMULA>
C20H30O3

> <PUBCHEM_MOLECULAR_WEIGHT>
318.4504

> <PUBCHEM_OPENEYE_CAN_SMILES>
CC1(CCCC2C1(CC(=O)C3=CC(CC(C23C)O)(C)C=C)O)C

> <PUBCHEM_OPENEYE_ISO_SMILES>
C[C@]1(C[C@@H]([C@]2([C@@H]3CCCC([C@]3(CC(=O)C2=C1)O)(C)C)C)O)C=C

> <PUBCHEM_CACTVS_TPSA>
57.5

> <PUBCHEM_MONOISOTOPIC_WEIGHT>
318.219495

> <PUBCHEM_TOTAL_CHARGE>
0

> <PUBCHEM_HEAVY_ATOM_COUNT>
23

> <PUBCHEM_ATOM_DEF_STEREO_COUNT>
5

> <PUBCHEM_ATOM_UDEF_STEREO_COUNT>
0

> <PUBCHEM_BOND_DEF_STEREO_COUNT>
0

> <PUBCHEM_BOND_UDEF_STEREO_COUNT>
0

> <PUBCHEM_ISOTOPIC_ATOM_COUNT>
0

> <PUBCHEM_COMPONENT_COUNT>
1

> <PUBCHEM_CACTVS_TAUTO_COUNT>
2

> <PUBCHEM_COORDINATE_TYPE>
1
5
255

> <PUBCHEM_BONDANNOTATIONS>
5  1  6
17  21  5
9  2  6
4  24  5
6  16  6

$$$$

