15608168
  -OEChem-07051213113D

 35 36  0     0  0  0  0  0  0999 V2000
    3.2037   -2.2328   -1.3584 O   0  0  0  0  0  0  0  0  0  0  0  0
    0.4855   -2.3054   -0.8984 O   0  0  0  0  0  0  0  0  0  0  0  0
   -0.5355   -0.9776    2.4469 O   0  0  0  0  0  0  0  0  0  0  0  0
   -3.2602   -0.9694    2.8730 O   0  0  0  0  0  0  0  0  0  0  0  0
    4.7734    2.1286    0.1325 O   0  0  0  0  0  0  0  0  0  0  0  0
   -5.3198    0.7614   -1.1855 O   0  0  0  0  0  0  0  0  0  0  0  0
    2.9952    3.3007    0.9266 O   0  0  0  0  0  0  0  0  0  0  0  0
   -3.6749    1.2453   -2.6775 O   0  0  0  0  0  0  0  0  0  0  0  0
    0.5632   -0.0795   -0.0088 C   0  0  0  0  0  0  0  0  0  0  0  0
   -0.8638   -0.0875    0.2443 C   0  0  0  0  0  0  0  0  0  0  0  0
    1.1970   -1.1869   -0.5723 C   0  0  0  0  0  0  0  0  0  0  0  0
    1.3039    1.0561    0.3190 C   0  0  0  0  0  0  0  0  0  0  0  0
   -1.3725   -0.5357    1.4633 C   0  0  0  0  0  0  0  0  0  0  0  0
   -1.7319    0.3608   -0.7512 C   0  0  0  0  0  0  0  0  0  0  0  0
    2.6784    1.0843    0.0834 C   0  0  0  0  0  0  0  0  0  0  0  0
    2.5715   -1.1588   -0.8079 C   0  0  0  0  0  0  0  0  0  0  0  0
   -3.1087    0.3613   -0.5277 C   0  0  0  0  0  0  0  0  0  0  0  0
    3.3122   -0.0232   -0.4800 C   0  0  0  0  0  0  0  0  0  0  0  0
   -2.7493   -0.5354    1.6869 C   0  0  0  0  0  0  0  0  0  0  0  0
   -3.6174   -0.0869    0.6914 C   0  0  0  0  0  0  0  0  0  0  0  0
    3.4513    2.2679    0.4252 C   0  0  0  0  0  0  0  0  0  0  0  0
   -4.0143    0.8286   -1.5653 C   0  0  0  0  0  0  0  0  0  0  0  0
    3.7130   -3.2158   -0.4594 C   0  0  0  0  0  0  0  0  0  0  0  0
    0.8072    1.9188    0.7590 H   0  0  0  0  0  0  0  0  0  0  0  0
   -1.3326    0.7097   -1.7016 H   0  0  0  0  0  0  0  0  0  0  0  0
    4.3807   -0.0364   -0.6787 H   0  0  0  0  0  0  0  0  0  0  0  0
   -4.6837   -0.1009    0.9015 H   0  0  0  0  0  0  0  0  0  0  0  0
    1.0852   -2.9454   -1.3186 H   0  0  0  0  0  0  0  0  0  0  0  0
    0.3923   -0.9302    2.1684 H   0  0  0  0  0  0  0  0  0  0  0  0
   -2.5202   -1.2417    3.4431 H   0  0  0  0  0  0  0  0  0  0  0  0
    2.9125   -3.6252    0.1649 H   0  0  0  0  0  0  0  0  0  0  0  0
    4.4970   -2.7852    0.1716 H   0  0  0  0  0  0  0  0  0  0  0  0
    4.1461   -4.0280   -1.0496 H   0  0  0  0  0  0  0  0  0  0  0  0
    5.2857    2.9316    0.3672 H   0  0  0  0  0  0  0  0  0  0  0  0
   -5.9222    1.0781   -1.8921 H   0  0  0  0  0  0  0  0  0  0  0  0
  1 16  1  0  0  0  0
  1 23  1  0  0  0  0
  2 11  1  0  0  0  0
  2 28  1  0  0  0  0
  3 13  1  0  0  0  0
  3 29  1  0  0  0  0
  4 19  1  0  0  0  0
  4 30  1  0  0  0  0
  5 21  1  0  0  0  0
  5 34  1  0  0  0  0
  6 22  1  0  0  0  0
  6 35  1  0  0  0  0
  7 21  2  0  0  0  0
  8 22  2  0  0  0  0
  9 10  1  0  0  0  0
  9 11  2  0  0  0  0
  9 12  1  0  0  0  0
 10 13  2  0  0  0  0
 10 14  1  0  0  0  0
 11 16  1  0  0  0  0
 12 15  2  0  0  0  0
 12 24  1  0  0  0  0
 13 19  1  0  0  0  0
 14 17  2  0  0  0  0
 14 25  1  0  0  0  0
 15 18  1  0  0  0  0
 15 21  1  0  0  0  0
 16 18  2  0  0  0  0
 17 20  1  0  0  0  0
 17 22  1  0  0  0  0
 18 26  1  0  0  0  0
 19 20  2  0  0  0  0
 20 27  1  0  0  0  0
 23 31  1  0  0  0  0
 23 32  1  0  0  0  0
 23 33  1  0  0  0  0
M  END
> <PUBCHEM_COMPOUND_CID>
15608168

> <PUBCHEM_CONFORMER_RMSD>
0.6

> <PUBCHEM_CONFORMER_DIVERSEORDER>
1
8
2
7
6
3
4
5

> <PUBCHEM_MMFF94_PARTIAL_CHARGES>
30
1 -0.36
11 0.08
12 -0.15
13 0.08
14 -0.15
15 0.09
16 0.08
17 0.09
18 -0.15
19 0.08
2 -0.53
20 -0.15
21 0.63
22 0.63
23 0.28
24 0.15
25 0.15
26 0.15
27 0.15
28 0.45
29 0.45
3 -0.53
30 0.45
34 0.5
35 0.5
4 -0.53
5 -0.65
6 -0.65
7 -0.57
8 -0.57

> <PUBCHEM_EFFECTIVE_ROTOR_COUNT>
4

> <PUBCHEM_PHARMACOPHORE_FEATURES>
12
1 1 acceptor
1 2 donor
1 3 donor
1 4 donor
1 5 acceptor
1 6 acceptor
1 7 acceptor
1 8 acceptor
3 5 7 21 anion
3 6 8 22 anion
6 10 13 14 17 19 20 rings
6 9 11 12 15 16 18 rings

> <PUBCHEM_HEAVY_ATOM_COUNT>
23

> <PUBCHEM_ATOM_DEF_STEREO_COUNT>
0

> <PUBCHEM_ATOM_UDEF_STEREO_COUNT>
0

> <PUBCHEM_BOND_DEF_STEREO_COUNT>
0

> <PUBCHEM_BOND_UDEF_STEREO_COUNT>
0

> <PUBCHEM_ISOTOPIC_ATOM_COUNT>
0

> <PUBCHEM_COMPONENT_COUNT>
1

> <PUBCHEM_CACTVS_TAUTO_COUNT>
86

> <PUBCHEM_CONFORMER_ID>
00EE296800000001

> <PUBCHEM_MMFF94_ENERGY>
85.8099

> <PUBCHEM_FEATURE_SELFOVERLAP>
61.013

> <PUBCHEM_SHAPE_FINGERPRINT>
11582403 64 17768292013002415721
11725454 13 18057347044391961517
11796584 16 17202758341096610378
12236239 1 16877938360437759869
12403259 415 18130496492241506107
12549972 3 18059848519138912577
12553582 1 17971170759450630038
12730499 353 18336546027759025733
13009979 54 16588859221682073278
13134695 92 18264201581883279990
13583140 156 18130792239431776874
13911987 19 18118960291705556036
15842332 3 16950552316028482923
17349148 13 17458912655345029638
1813 80 17244395794104584070
18186145 218 17988074607996781301
18219364 16 18191581952398510168
18222031 100 17824544295580948246
18915476 22 18409443678872023850
19049666 15 18201711907548632840
192875 21 17968381272264101878
200 152 17823141288261961519
20645477 70 18335986445128744214
21065201 7 17203599393775346483
212916 134 16988855985726230429
21639500 275 18187359913657316800
21756936 100 16879887683243548584
22112679 90 16370998654690720259
22182313 1 18130497570262570659
22943178 12 18202272602581095523
23557571 272 17775276136937619437
23559900 14 17632288025748225814
23598291 2 17095509742774869181
25147074 1 17095233752587277883
312423 11 17022893566944543215
474 4 17896029958614226856
495365 180 18201730581987606802
6049 1 18130487696042988881
633830 44 17387950024854615864
7471813 234 17750241468375101368
7615 1 17022899094440729259
77492 1 16950273035753667235
9658208 31 17632293536496890345

> <PUBCHEM_SHAPE_MULTIPOLES>
426.37
8.97
2.67
2
2.9
0.01
-0.63
2.39
2.43
-5.19
0.11
3.01
-0.29
2.62

> <PUBCHEM_SHAPE_SELFOVERLAP>
935.588

> <PUBCHEM_SHAPE_VOLUME>
230.9

> <PUBCHEM_COORDINATE_TYPE>
2
5
10

$$$$

