121965
  -OEChem-07051213023D

 26 28  0     0  0  0  0  0  0999 V2000
    0.1528    2.4594    0.0011 O   0  0  0  0  0  0  0  0  0  0  0  0
    0.4093   -1.5822    0.0010 N   0  0  0  0  0  0  0  0  0  0  0  0
   -4.6812    0.7897   -0.0017 N   0  0  0  0  0  0  0  0  0  0  0  0
   -0.9976    0.3995    0.0006 C   0  0  0  0  0  0  0  0  0  0  0  0
   -0.8645   -0.9991    0.0008 C   0  0  0  0  0  0  0  0  0  0  0  0
    1.5538    0.5618    0.0005 C   0  0  0  0  0  0  0  0  0  0  0  0
    1.5990   -0.8423    0.0006 C   0  0  0  0  0  0  0  0  0  0  0  0
    0.2300    1.2378    0.0007 C   0  0  0  0  0  0  0  0  0  0  0  0
   -2.2611    0.9972    0.0000 C   0  0  0  0  0  0  0  0  0  0  0  0
   -2.0185   -1.7899    0.0003 C   0  0  0  0  0  0  0  0  0  0  0  0
    2.7315    1.3149   -0.0002 C   0  0  0  0  0  0  0  0  0  0  0  0
    2.8439   -1.4805   -0.0004 C   0  0  0  0  0  0  0  0  0  0  0  0
   -3.4016    0.1948   -0.0005 C   0  0  0  0  0  0  0  0  0  0  0  0
   -3.2812   -1.1947   -0.0004 C   0  0  0  0  0  0  0  0  0  0  0  0
    3.9644    0.6636   -0.0012 C   0  0  0  0  0  0  0  0  0  0  0  0
    4.0211   -0.7299   -0.0013 C   0  0  0  0  0  0  0  0  0  0  0  0
    0.4736   -2.5918    0.0016 H   0  0  0  0  0  0  0  0  0  0  0  0
   -2.3629    2.0796   -0.0003 H   0  0  0  0  0  0  0  0  0  0  0  0
   -1.9429   -2.8745    0.0004 H   0  0  0  0  0  0  0  0  0  0  0  0
    2.7086    2.4009   -0.0004 H   0  0  0  0  0  0  0  0  0  0  0  0
    2.9065   -2.5660   -0.0006 H   0  0  0  0  0  0  0  0  0  0  0  0
   -4.1655   -1.8272   -0.0009 H   0  0  0  0  0  0  0  0  0  0  0  0
    4.8833    1.2428   -0.0018 H   0  0  0  0  0  0  0  0  0  0  0  0
    4.9839   -1.2330   -0.0020 H   0  0  0  0  0  0  0  0  0  0  0  0
   -5.5092    0.2090   -0.0011 H   0  0  0  0  0  0  0  0  0  0  0  0
   -4.7713    1.7970   -0.0008 H   0  0  0  0  0  0  0  0  0  0  0  0
  1  8  2  0  0  0  0
  2  5  1  0  0  0  0
  2  7  1  0  0  0  0
  2 17  1  0  0  0  0
  3 13  1  0  0  0  0
  3 25  1  0  0  0  0
  3 26  1  0  0  0  0
  4  5  2  0  0  0  0
  4  8  1  0  0  0  0
  4  9  1  0  0  0  0
  5 10  1  0  0  0  0
  6  7  1  0  0  0  0
  6  8  1  0  0  0  0
  6 11  2  0  0  0  0
  7 12  2  0  0  0  0
  9 13  2  0  0  0  0
  9 18  1  0  0  0  0
 10 14  2  0  0  0  0
 10 19  1  0  0  0  0
 11 15  1  0  0  0  0
 11 20  1  0  0  0  0
 12 16  1  0  0  0  0
 12 21  1  0  0  0  0
 13 14  1  0  0  0  0
 14 22  1  0  0  0  0
 15 16  2  0  0  0  0
 15 23  1  0  0  0  0
 16 24  1  0  0  0  0
M  END
> <PUBCHEM_COMPOUND_CID>
121965

> <PUBCHEM_CONFORMER_RMSD>
0.4

> <PUBCHEM_CONFORMER_DIVERSEORDER>
1

> <PUBCHEM_MMFF94_PARTIAL_CHARGES>
26
1 -0.57
10 -0.15
11 -0.15
12 -0.15
13 0.1
14 -0.15
15 -0.15
16 -0.15
17 0.4
18 0.15
19 0.15
2 -0.6
20 0.15
21 0.15
22 0.15
23 0.15
24 0.15
25 0.4
26 0.4
3 -0.9
4 0.09
5 0.1
6 0.09
7 0.1
8 0.4
9 -0.15

> <PUBCHEM_EFFECTIVE_ROTOR_COUNT>
0

> <PUBCHEM_PHARMACOPHORE_FEATURES>
8
1 1 acceptor
1 2 cation
1 2 donor
1 3 cation
1 3 donor
6 2 4 5 6 7 8 rings
6 4 5 9 10 13 14 rings
6 6 7 11 12 15 16 rings

> <PUBCHEM_HEAVY_ATOM_COUNT>
16

> <PUBCHEM_ATOM_DEF_STEREO_COUNT>
0

> <PUBCHEM_ATOM_UDEF_STEREO_COUNT>
0

> <PUBCHEM_BOND_DEF_STEREO_COUNT>
0

> <PUBCHEM_BOND_UDEF_STEREO_COUNT>
0

> <PUBCHEM_ISOTOPIC_ATOM_COUNT>
0

> <PUBCHEM_COMPONENT_COUNT>
1

> <PUBCHEM_CACTVS_TAUTO_COUNT>
6

> <PUBCHEM_CONFORMER_ID>
0001DC6D00000001

> <PUBCHEM_MMFF94_ENERGY>
64.2053

> <PUBCHEM_FEATURE_SELFOVERLAP>
40.64

> <PUBCHEM_SHAPE_FINGERPRINT>
10062212 137 18410019809985455871
10411042 1 15816500987377613419
10608611 8 18410578357481159352
10967382 1 18410575123476248006
11132069 177 18410016524319215072
11471102 20 18410578396119807028
11806522 49 18267026059482513791
12032990 46 18410851053666003778
13140716 1 18411142424352944330
13221675 6 18411419513904151874
13380535 76 18409448093956310695
14115302 16 18130495388445545334
14144814 61 18410292497300492186
14325111 11 18410856538186071584
15196674 1 18410855438669279494
15375462 189 18131073765805611866
15442244 35 18266177429879521898
15536298 74 18334294258326602938
16945 1 18410575084663078918
17804303 29 18408600340373451957
18186145 218 17846786204033596518
18522853 276 18335421274476647225
193761 8 17690280834051202946
19591789 44 15884036267914048718
200 152 17967538952258016919
20510252 161 18188772884641053776
20645477 70 18335703879109274455
21029758 11 18334020497095760465
21267235 1 18410565193396016490
21501502 16 18267584611304703175
221490 88 18197490727685562322
2334 1 18338516339764014594
23402539 116 18261120672549813070
23402655 69 18407761443029274428
23463225 33 18411981356030174534
23559900 14 18335423461437907576
2748010 2 18410012109161549446
3312278 4 18409726235937763739
335352 9 18338799038700767094
34934 24 18410300198377365818
5104073 3 18411136909361540859
528886 8 18409735053574278666
537710 114 18410851062292972164
53812653 166 18334861576019301320
69090 78 18335144193594501647
7364860 26 18119529834359533904
8809292 202 18271803501692313771
9709674 26 18409725136569197334

> <PUBCHEM_SHAPE_MULTIPOLES>
313.44
7.33
1.97
0.6
0.94
0.17
0
-0.07
0
-0.04
0
-0.02
-0.01
0

> <PUBCHEM_SHAPE_SELFOVERLAP>
704.006

> <PUBCHEM_SHAPE_VOLUME>
164.2

> <PUBCHEM_COORDINATE_TYPE>
2
5
10

$$$$

