44465
  -OEChem-07051213123D

 34 35  0     0  0  0  0  0  0999 V2000
    0.2975    1.9402    1.3013 Br  0  0  0  0  0  0  0  0  0  0  0  0
    3.1772   -1.7995   -2.0155 Br  0  0  0  0  0  0  0  0  0  0  0  0
    5.7761    0.8606    2.2570 Br  0  0  0  0  0  0  0  0  0  0  0  0
   -1.2494   -3.4907    0.6080 F   0  0  0  0  0  0  0  0  0  0  0  0
   -0.0919   -2.9603   -1.1478 F   0  0  0  0  0  0  0  0  0  0  0  0
    0.6266   -2.4139    0.8305 F   0  0  0  0  0  0  0  0  0  0  0  0
   -1.3690    3.3932   -1.1778 O   0  5  0  0  0  0  0  0  0  0  0  0
    0.4791    2.2712   -1.5585 O   0  0  0  0  0  0  0  0  0  0  0  0
   -5.1054   -0.8645    1.3271 O   0  5  0  0  0  0  0  0  0  0  0  0
   -5.1804    1.2626    0.7897 O   0  0  0  0  0  0  0  0  0  0  0  0
    0.7270   -0.1263   -1.0130 N   0  0  0  0  0  0  0  0  0  0  0  0
   -0.7011    2.3335   -1.1417 N   0  3  0  0  0  0  0  0  0  0  0  0
   -4.5705    0.1681    0.8559 N   0  3  0  0  0  0  0  0  0  0  0  0
   -0.6062   -0.0465   -0.5443 C   0  0  0  0  0  0  0  0  0  0  0  0
   -1.2219   -1.1814   -0.0166 C   0  0  0  0  0  0  0  0  0  0  0  0
   -1.3041    1.1596   -0.6084 C   0  0  0  0  0  0  0  0  0  0  0  0
    1.9030    0.1030   -0.2501 C   0  0  0  0  0  0  0  0  0  0  0  0
   -2.5354   -1.1102    0.4473 C   0  0  0  0  0  0  0  0  0  0  0  0
   -2.6175    1.2307   -0.1446 C   0  0  0  0  0  0  0  0  0  0  0  0
   -3.2333    0.0959    0.3833 C   0  0  0  0  0  0  0  0  0  0  0  0
    0.8707   -0.2081   -2.4731 C   0  0  0  0  0  0  0  0  0  0  0  0
   -0.4999   -2.4874    0.0655 C   0  0  0  0  0  0  0  0  0  0  0  0
    1.8735    0.9975    0.8168 C   0  0  0  0  0  0  0  0  0  0  0  0
    3.0805   -0.5665   -0.5740 C   0  0  0  0  0  0  0  0  0  0  0  0
    3.0289    1.2239    1.5649 C   0  0  0  0  0  0  0  0  0  0  0  0
    4.2358   -0.3400    0.1741 C   0  0  0  0  0  0  0  0  0  0  0  0
    4.2101    0.5552    1.2437 C   0  0  0  0  0  0  0  0  0  0  0  0
   -3.0035   -2.0019    0.8566 H   0  0  0  0  0  0  0  0  0  0  0  0
   -3.1659    2.1686   -0.1927 H   0  0  0  0  0  0  0  0  0  0  0  0
    1.7512    0.3115   -2.8694 H   0  0  0  0  0  0  0  0  0  0  0  0
    0.0284    0.2903   -2.9757 H   0  0  0  0  0  0  0  0  0  0  0  0
    0.7739   -1.2373   -2.8336 H   0  0  0  0  0  0  0  0  0  0  0  0
    3.0118    1.9218    2.3994 H   0  0  0  0  0  0  0  0  0  0  0  0
    5.1583   -0.8606   -0.0739 H   0  0  0  0  0  0  0  0  0  0  0  0
  1 23  1  0  0  0  0
  2 24  1  0  0  0  0
  3 27  1  0  0  0  0
  4 22  1  0  0  0  0
  5 22  1  0  0  0  0
  6 22  1  0  0  0  0
  7 12  1  0  0  0  0
  8 12  2  0  0  0  0
  9 13  1  0  0  0  0
 10 13  2  0  0  0  0
 11 14  1  0  0  0  0
 11 17  1  0  0  0  0
 11 21  1  0  0  0  0
 12 16  1  0  0  0  0
 13 20  1  0  0  0  0
 14 15  2  0  0  0  0
 14 16  1  0  0  0  0
 15 18  1  0  0  0  0
 15 22  1  0  0  0  0
 16 19  2  0  0  0  0
 17 23  2  0  0  0  0
 17 24  1  0  0  0  0
 18 20  2  0  0  0  0
 18 28  1  0  0  0  0
 19 20  1  0  0  0  0
 19 29  1  0  0  0  0
 21 30  1  0  0  0  0
 21 31  1  0  0  0  0
 21 32  1  0  0  0  0
 23 25  1  0  0  0  0
 24 26  2  0  0  0  0
 25 27  2  0  0  0  0
 25 33  1  0  0  0  0
 26 27  1  0  0  0  0
 26 34  1  0  0  0  0
M  CHG  4   7  -1   9  -1  12   1  13   1
M  END
> <PUBCHEM_COMPOUND_CID>
44465

> <PUBCHEM_CONFORMER_RMSD>
0.8

> <PUBCHEM_CONFORMER_DIVERSEORDER>
1
2

> <PUBCHEM_MMFF94_PARTIAL_CHARGES>
31
1 -0.11
10 -0.52
11 -0.57
12 0.91
13 0.91
14 0.1
15 -0.14
16 0.13
17 0.1
18 -0.15
19 -0.15
2 -0.11
20 0.13
21 0.37
22 1.16
23 0.11
24 0.11
25 -0.15
26 -0.15
27 0.11
28 0.15
29 0.15
3 -0.11
33 0.15
34 0.15
4 -0.34
5 -0.34
6 -0.34
7 -0.52
8 -0.52
9 -0.52

> <PUBCHEM_EFFECTIVE_ROTOR_COUNT>
5

> <PUBCHEM_PHARMACOPHORE_FEATURES>
12
1 1 hydrophobe
1 10 acceptor
1 11 cation
1 2 hydrophobe
1 3 hydrophobe
1 7 acceptor
1 7 anion
1 8 acceptor
1 9 acceptor
1 9 anion
6 14 15 16 18 19 20 rings
6 17 23 24 25 26 27 rings

> <PUBCHEM_HEAVY_ATOM_COUNT>
27

> <PUBCHEM_ATOM_DEF_STEREO_COUNT>
0

> <PUBCHEM_ATOM_UDEF_STEREO_COUNT>
0

> <PUBCHEM_BOND_DEF_STEREO_COUNT>
0

> <PUBCHEM_BOND_UDEF_STEREO_COUNT>
0

> <PUBCHEM_ISOTOPIC_ATOM_COUNT>
0

> <PUBCHEM_COMPONENT_COUNT>
1

> <PUBCHEM_CACTVS_TAUTO_COUNT>
1

> <PUBCHEM_CONFORMER_ID>
0000ADB100000001

> <PUBCHEM_MMFF94_ENERGY>
171.7294

> <PUBCHEM_FEATURE_SELFOVERLAP>
61.055

> <PUBCHEM_SHAPE_FINGERPRINT>
10863032 1 16588311553000374759
10906281 52 17968369057778117152
11578080 2 17977656842719671169
11640471 11 14490189384718802082
12035758 1 18335983077752824905
12236239 1 16702300165693918308
12422481 6 17986116437769652985
12633257 1 18336277730079765104
12788726 201 17917417748770739292
12930653 34 18125733515023110497
13140716 1 18196096538620438360
13402501 40 18259982695638000002
13583140 156 17910436950184429440
14022347 108 18058712672330489350
14223421 5 18051410961612754805
14787075 74 17968383359860807561
15420108 30 18261683670417975859
16945 1 18201723967785196974
17980427 23 17970071032831590581
1813 80 16845857905864573030
19049666 15 18117560841362769678
20028762 73 18191296097215170615
20600515 1 18340200795751604021
20642791 13 18045229249364740023
20691752 17 18413110558746002863
20832881 197 17753032075909789902
20905425 154 18052810644220937439
21033648 29 18335138721748332977
21330990 113 18269832167817612249
21637258 2 15841562837822985865
22182313 1 18268151031391317917
22956985 138 17487339497963860659
23419403 2 17897159341591886188
23558518 356 17907579129857472171
23559900 14 18335123311853853670
23598288 3 16985504729882156008
2748010 2 18197782308762265431
350125 39 18125154089912543930
394222 165 16985994957280542669
4340502 62 18113897161160656155
465052 167 17560786690331077475
5265222 85 18341602738683468862
81228 2 18123772875458415446

> <PUBCHEM_SHAPE_MULTIPOLES>
513.23
8.67
3.04
1.93
0.78
1.19
0.65
-2.58
-5.84
-0.36
0.35
1
-0.21
2.24

> <PUBCHEM_SHAPE_SELFOVERLAP>
1084.051

> <PUBCHEM_SHAPE_VOLUME>
297.5

> <PUBCHEM_COORDINATE_TYPE>
2
5
10

$$$$

