5629
  -OEChem-06261200472D

 61 63  0     1  0  0  0  0  0999 V2000
    9.0622   -1.5000    0.0000 O   0  0  0  0  0  0  0  0  0  0  0  0
    7.3301   -1.5000    0.0000 O   0  0  0  0  0  0  0  0  0  0  0  0
    9.0622   -4.5000    0.0000 O   0  0  0  0  0  0  0  0  0  0  0  0
    3.0000    3.0000    0.0000 O   0  0  0  0  0  0  0  0  0  0  0  0
    3.8660   -0.5000    0.0000 O   0  0  0  0  0  0  0  0  0  0  0  0
    4.7320    3.0000    0.0000 O   0  0  0  0  0  0  0  0  0  0  0  0
    5.5981   -0.5000    0.0000 N   0  0  0  0  0  0  0  0  0  0  0  0
    3.8660    1.5000    0.0000 N   0  0  0  0  0  0  0  0  0  0  0  0
    7.3301   -3.5000    0.0000 C   0  0  3  0  0  0  0  0  0  0  0  0
    7.3301   -4.5000    0.0000 C   0  0  0  0  0  0  0  0  0  0  0  0
    8.1962   -3.0000    0.0000 C   0  0  0  0  0  0  0  0  0  0  0  0
    6.4641   -3.0000    0.0000 C   0  0  0  0  0  0  0  0  0  0  0  0
    9.0622   -3.5000    0.0000 C   0  0  0  0  0  0  0  0  0  0  0  0
    6.4641   -2.0000    0.0000 C   0  0  0  0  0  0  0  0  0  0  0  0
    6.4641   -5.0000    0.0000 C   0  0  0  0  0  0  0  0  0  0  0  0
    8.1962   -2.0000    0.0000 C   0  0  0  0  0  0  0  0  0  0  0  0
    5.5981   -3.5000    0.0000 C   0  0  0  0  0  0  0  0  0  0  0  0
    9.9282   -3.0000    0.0000 C   0  0  0  0  0  0  0  0  0  0  0  0
    5.5981   -1.5000    0.0000 C   0  0  0  0  0  0  0  0  0  0  0  0
    9.9282   -2.0000    0.0000 C   0  0  0  0  0  0  0  0  0  0  0  0
    4.7320   -3.0000    0.0000 C   0  0  0  0  0  0  0  0  0  0  0  0
    3.0000    4.0000    0.0000 C   0  0  0  0  0  0  0  0  0  0  0  0
    4.7320   -2.0000    0.0000 C   0  0  0  0  0  0  0  0  0  0  0  0
   10.8221   -3.5347    0.0000 C   0  0  0  0  0  0  0  0  0  0  0  0
   10.8221   -1.4653    0.0000 C   0  0  0  0  0  0  0  0  0  0  0  0
    3.0000    5.0000    0.0000 C   0  0  0  0  0  0  0  0  0  0  0  0
    2.0000    4.0000    0.0000 C   0  0  0  0  0  0  0  0  0  0  0  0
    4.0000    4.0000    0.0000 C   0  0  0  0  0  0  0  0  0  0  0  0
   11.7282   -3.0208    0.0000 C   0  0  0  0  0  0  0  0  0  0  0  0
   11.7282   -1.9792    0.0000 C   0  0  0  0  0  0  0  0  0  0  0  0
    4.7320    0.0000    0.0000 C   0  0  0  0  0  0  0  0  0  0  0  0
    4.7320    1.0000    0.0000 C   0  0  0  0  0  0  0  0  0  0  0  0
    3.8660    2.5000    0.0000 C   0  0  0  0  0  0  0  0  0  0  0  0
    7.8671   -3.8100    0.0000 H   0  0  0  0  0  0  0  0  0  0  0  0
    7.5422   -5.0826    0.0000 H   0  0  0  0  0  0  0  0  0  0  0  0
    7.9407   -4.3923    0.0000 H   0  0  0  0  0  0  0  0  0  0  0  0
    7.0010   -1.6900    0.0000 H   0  0  0  0  0  0  0  0  0  0  0  0
    6.1541   -4.4631    0.0000 H   0  0  0  0  0  0  0  0  0  0  0  0
    5.9272   -5.3100    0.0000 H   0  0  0  0  0  0  0  0  0  0  0  0
    6.7741   -5.5369    0.0000 H   0  0  0  0  0  0  0  0  0  0  0  0
    5.5981   -4.1200    0.0000 H   0  0  0  0  0  0  0  0  0  0  0  0
    4.1951   -3.3100    0.0000 H   0  0  0  0  0  0  0  0  0  0  0  0
    4.1951   -1.6900    0.0000 H   0  0  0  0  0  0  0  0  0  0  0  0
   10.8150   -4.1546    0.0000 H   0  0  0  0  0  0  0  0  0  0  0  0
    6.1350   -0.1900    0.0000 H   0  0  0  0  0  0  0  0  0  0  0  0
   10.8150   -0.8454    0.0000 H   0  0  0  0  0  0  0  0  0  0  0  0
    4.0000    3.3800    0.0000 H   0  0  0  0  0  0  0  0  0  0  0  0
    4.6200    4.0000    0.0000 H   0  0  0  0  0  0  0  0  0  0  0  0
    4.0000    4.6200    0.0000 H   0  0  0  0  0  0  0  0  0  0  0  0
    2.0000    4.6200    0.0000 H   0  0  0  0  0  0  0  0  0  0  0  0
    1.3800    4.0000    0.0000 H   0  0  0  0  0  0  0  0  0  0  0  0
    2.0000    3.3800    0.0000 H   0  0  0  0  0  0  0  0  0  0  0  0
    3.6200    5.0000    0.0000 H   0  0  0  0  0  0  0  0  0  0  0  0
    3.0000    5.6200    0.0000 H   0  0  0  0  0  0  0  0  0  0  0  0
    2.3800    5.0000    0.0000 H   0  0  0  0  0  0  0  0  0  0  0  0
   12.2639   -3.3329    0.0000 H   0  0  0  0  0  0  0  0  0  0  0  0
   12.2639   -1.6671    0.0000 H   0  0  0  0  0  0  0  0  0  0  0  0
    7.3301   -0.8800    0.0000 H   0  0  0  0  0  0  0  0  0  0  0  0
    5.3426    0.8923    0.0000 H   0  0  0  0  0  0  0  0  0  0  0  0
    4.9441    1.5826    0.0000 H   0  0  0  0  0  0  0  0  0  0  0  0
    3.3291    1.1900    0.0000 H   0  0  0  0  0  0  0  0  0  0  0  0
  1 16  1  0  0  0  0
  1 20  1  0  0  0  0
  2 16  1  0  0  0  0
  2 58  1  0  0  0  0
  3 13  2  0  0  0  0
  4 22  1  0  0  0  0
  4 33  1  0  0  0  0
  5 31  2  0  0  0  0
  6 33  2  0  0  0  0
  7 19  1  0  0  0  0
  7 31  1  0  0  0  0
  7 45  1  0  0  0  0
  8 32  1  0  0  0  0
  8 33  1  0  0  0  0
  8 61  1  0  0  0  0
  9 10  1  0  0  0  0
  9 11  1  0  0  0  0
  9 12  1  0  0  0  0
  9 34  1  0  0  0  0
 10 15  1  0  0  0  0
 10 35  1  0  0  0  0
 10 36  1  0  0  0  0
 11 13  1  0  0  0  0
 11 16  2  0  0  0  0
 12 14  2  0  0  0  0
 12 17  1  0  0  0  0
 13 18  1  0  0  0  0
 14 19  1  0  0  0  0
 14 37  1  0  0  0  0
 15 38  1  0  0  0  0
 15 39  1  0  0  0  0
 15 40  1  0  0  0  0
 17 21  2  0  0  0  0
 17 41  1  0  0  0  0
 18 20  1  0  0  0  0
 18 24  2  0  0  0  0
 19 23  2  0  0  0  0
 20 25  2  0  0  0  0
 21 23  1  0  0  0  0
 21 42  1  0  0  0  0
 22 26  1  0  0  0  0
 22 27  1  0  0  0  0
 22 28  1  0  0  0  0
 23 43  1  0  0  0  0
 24 29  1  0  0  0  0
 24 44  1  0  0  0  0
 25 30  1  0  0  0  0
 25 46  1  0  0  0  0
 26 53  1  0  0  0  0
 26 54  1  0  0  0  0
 26 55  1  0  0  0  0
 27 50  1  0  0  0  0
 27 51  1  0  0  0  0
 27 52  1  0  0  0  0
 28 47  1  0  0  0  0
 28 48  1  0  0  0  0
 28 49  1  0  0  0  0
 29 30  2  0  0  0  0
 29 56  1  0  0  0  0
 30 57  1  0  0  0  0
 31 32  1  0  0  0  0
 32 59  1  0  0  0  0
 32 60  1  0  0  0  0
M  END
> <PUBCHEM_COMPOUND_CID>
5629

> <PUBCHEM_COMPOUND_CANONICALIZED>
1

> <PUBCHEM_CACTVS_COMPLEXITY>
771

> <PUBCHEM_CACTVS_HBOND_ACCEPTOR>
6

> <PUBCHEM_CACTVS_HBOND_DONOR>
3

> <PUBCHEM_CACTVS_ROTATABLE_BOND>
8

> <PUBCHEM_CACTVS_SUBSKEYS>
AAADceB7OAAAAAAAAAAAAAAAAAAAAAAAAAAwYIAAAAAAAACBQAAAHgAQCAAADUzBmAQyzoLABgCIAqVSWACCCAAlIgAIiIGObMkcZjbEtbucMWhk9hHM6YeYyPCOgAAAQAAIAAAAAACAABAAAAAAAAAAAA==

> <PUBCHEM_IUPAC_OPENEYE_NAME>
tert-butyl N-[2-[3-[1-(2-hydroxy-4-oxo-chromen-3-yl)propyl]anilino]-2-oxo-ethyl]carbamate

> <PUBCHEM_IUPAC_CAS_NAME>
N-[2-[3-[1-(2-hydroxy-4-oxo-1-benzopyran-3-yl)propyl]anilino]-2-oxoethyl]carbamic acid tert-butyl ester

> <PUBCHEM_IUPAC_NAME>
tert-butyl N-[2-[3-[1-(2-hydroxy-4-oxochromen-3-yl)propyl]anilino]-2-oxoethyl]carbamate

> <PUBCHEM_IUPAC_SYSTEMATIC_NAME>
tert-butyl N-[2-oxidanylidene-2-[[3-[1-(2-oxidanyl-4-oxidanylidene-chromen-3-yl)propyl]phenyl]amino]ethyl]carbamate

> <PUBCHEM_IUPAC_TRADITIONAL_NAME>
N-[2-[3-[1-(2-hydroxy-4-keto-chromen-3-yl)propyl]anilino]-2-keto-ethyl]carbamic acid tert-butyl ester

> <PUBCHEM_IUPAC_INCHI>
InChI=1S/C25H28N2O6/c1-5-17(21-22(29)18-11-6-7-12-19(18)32-23(21)30)15-9-8-10-16(13-15)27-20(28)14-26-24(31)33-25(2,3)4/h6-13,17,30H,5,14H2,1-4H3,(H,26,31)(H,27,28)

> <PUBCHEM_IUPAC_INCHIKEY>
ZOROCKTULVQQGN-UHFFFAOYSA-N

> <PUBCHEM_XLOGP3>
3.5

> <PUBCHEM_EXACT_MASS>
452.194737

> <PUBCHEM_MOLECULAR_FORMULA>
C25H28N2O6

> <PUBCHEM_MOLECULAR_WEIGHT>
452.49962

> <PUBCHEM_OPENEYE_CAN_SMILES>
CCC(C1=CC(=CC=C1)NC(=O)CNC(=O)OC(C)(C)C)C2=C(OC3=CC=CC=C3C2=O)O

> <PUBCHEM_OPENEYE_ISO_SMILES>
CCC(C1=CC(=CC=C1)NC(=O)CNC(=O)OC(C)(C)C)C2=C(OC3=CC=CC=C3C2=O)O

> <PUBCHEM_CACTVS_TPSA>
114

> <PUBCHEM_MONOISOTOPIC_WEIGHT>
452.194737

> <PUBCHEM_TOTAL_CHARGE>
0

> <PUBCHEM_HEAVY_ATOM_COUNT>
33

> <PUBCHEM_ATOM_DEF_STEREO_COUNT>
0

> <PUBCHEM_ATOM_UDEF_STEREO_COUNT>
1

> <PUBCHEM_BOND_DEF_STEREO_COUNT>
0

> <PUBCHEM_BOND_UDEF_STEREO_COUNT>
0

> <PUBCHEM_ISOTOPIC_ATOM_COUNT>
0

> <PUBCHEM_COMPONENT_COUNT>
1

> <PUBCHEM_CACTVS_TAUTO_COUNT>
18

> <PUBCHEM_COORDINATE_TYPE>
1
5
255

> <PUBCHEM_BONDANNOTATIONS>
1  16  8
1  20  8
11  13  8
11  16  8
12  14  8
12  17  8
13  18  8
14  19  8
17  21  8
18  20  8
18  24  8
19  23  8
20  25  8
21  23  8
24  29  8
25  30  8
29  30  8
9  10  3

$$$$

