156280
  -OEChem-07051212592D

 22 23  0     0  0  0  0  0  0999 V2000
    6.4103    0.8047    0.0000 O   0  0  0  0  0  0  0  0  0  0  0  0
    2.8660    1.0000    0.0000 O   0  0  0  0  0  0  0  0  0  0  0  0
    4.5981    2.0000    0.0000 O   0  0  0  0  0  0  0  0  0  0  0  0
    4.5981   -2.0000    0.0000 O   0  0  0  0  0  0  0  0  0  0  0  0
    5.4641   -0.5000    0.0000 C   0  0  0  0  0  0  0  0  0  0  0  0
    5.4641    0.5000    0.0000 C   0  0  0  0  0  0  0  0  0  0  0  0
    6.4103   -0.8047    0.0000 C   0  0  0  0  0  0  0  0  0  0  0  0
    6.9939    0.0000    0.0000 C   0  0  0  0  0  0  0  0  0  0  0  0
    4.5981    1.0000    0.0000 C   0  0  0  0  0  0  0  0  0  0  0  0
    4.5981   -1.0000    0.0000 C   0  0  0  0  0  0  0  0  0  0  0  0
    3.7320    0.5000    0.0000 C   0  0  0  0  0  0  0  0  0  0  0  0
    3.7320   -0.5000    0.0000 C   0  0  0  0  0  0  0  0  0  0  0  0
    7.9939    0.0000    0.0000 C   0  0  0  0  0  0  0  0  0  0  0  0
    2.0000    0.5000    0.0000 C   0  0  0  0  0  0  0  0  0  0  0  0
    6.6029   -1.3940    0.0000 H   0  0  0  0  0  0  0  0  0  0  0  0
    3.1951   -0.8100    0.0000 H   0  0  0  0  0  0  0  0  0  0  0  0
    7.9939   -0.6200    0.0000 H   0  0  0  0  0  0  0  0  0  0  0  0
    8.6139    0.0000    0.0000 H   0  0  0  0  0  0  0  0  0  0  0  0
    7.9939    0.6200    0.0000 H   0  0  0  0  0  0  0  0  0  0  0  0
    1.6900    1.0369    0.0000 H   0  0  0  0  0  0  0  0  0  0  0  0
    1.4631    0.1900    0.0000 H   0  0  0  0  0  0  0  0  0  0  0  0
    2.3100   -0.0369    0.0000 H   0  0  0  0  0  0  0  0  0  0  0  0
  1  6  1  0  0  0  0
  1  8  1  0  0  0  0
  2 11  1  0  0  0  0
  2 14  1  0  0  0  0
  3  9  2  0  0  0  0
  4 10  2  0  0  0  0
  5  6  2  0  0  0  0
  5  7  1  0  0  0  0
  5 10  1  0  0  0  0
  6  9  1  0  0  0  0
  7  8  2  0  0  0  0
  7 15  1  0  0  0  0
  8 13  1  0  0  0  0
  9 11  1  0  0  0  0
 10 12  1  0  0  0  0
 11 12  2  0  0  0  0
 12 16  1  0  0  0  0
 13 17  1  0  0  0  0
 13 18  1  0  0  0  0
 13 19  1  0  0  0  0
 14 20  1  0  0  0  0
 14 21  1  0  0  0  0
 14 22  1  0  0  0  0
M  END
> <PUBCHEM_COMPOUND_CID>
156280

> <PUBCHEM_COMPOUND_CANONICALIZED>
1

> <PUBCHEM_CACTVS_COMPLEXITY>
318

> <PUBCHEM_CACTVS_HBOND_ACCEPTOR>
4

> <PUBCHEM_CACTVS_HBOND_DONOR>
0

> <PUBCHEM_CACTVS_ROTATABLE_BOND>
1

> <PUBCHEM_CACTVS_SUBSKEYS>
AAADccBwOAAAAAAAAAAAAAAAAAAAASAAAAAgAAAAAAAAAEABgAAAGgAAAAAADASAmAIyBIAABECIAqBSAAICCAAkIAAAiAFGCMgMJjaMNR6CGWCl4BEIqYeLziBuAAAAAAAAAAAAAAAAAAAAAAAAAAAAAA==

> <PUBCHEM_IUPAC_OPENEYE_NAME>
6-methoxy-2-methyl-benzofuran-4,7-dione

> <PUBCHEM_IUPAC_CAS_NAME>
6-methoxy-2-methylbenzofuran-4,7-dione

> <PUBCHEM_IUPAC_NAME>
6-methoxy-2-methyl-1-benzofuran-4,7-dione

> <PUBCHEM_IUPAC_SYSTEMATIC_NAME>
6-methoxy-2-methyl-1-benzofuran-4,7-dione

> <PUBCHEM_IUPAC_TRADITIONAL_NAME>
6-methoxy-2-methyl-benzofuran-4,7-quinone

> <PUBCHEM_IUPAC_INCHI>
InChI=1S/C10H8O4/c1-5-3-6-7(11)4-8(13-2)9(12)10(6)14-5/h3-4H,1-2H3

> <PUBCHEM_IUPAC_INCHIKEY>
DNQLVCZXYPFUHF-UHFFFAOYSA-N

> <PUBCHEM_XLOGP3_AA>
1.4

> <PUBCHEM_EXACT_MASS>
192.042259

> <PUBCHEM_MOLECULAR_FORMULA>
C10H8O4

> <PUBCHEM_MOLECULAR_WEIGHT>
192.16812

> <PUBCHEM_OPENEYE_CAN_SMILES>
CC1=CC2=C(O1)C(=O)C(=CC2=O)OC

> <PUBCHEM_OPENEYE_ISO_SMILES>
CC1=CC2=C(O1)C(=O)C(=CC2=O)OC

> <PUBCHEM_CACTVS_TPSA>
56.5

> <PUBCHEM_MONOISOTOPIC_WEIGHT>
192.042259

> <PUBCHEM_TOTAL_CHARGE>
0

> <PUBCHEM_HEAVY_ATOM_COUNT>
14

> <PUBCHEM_ATOM_DEF_STEREO_COUNT>
0

> <PUBCHEM_ATOM_UDEF_STEREO_COUNT>
0

> <PUBCHEM_BOND_DEF_STEREO_COUNT>
0

> <PUBCHEM_BOND_UDEF_STEREO_COUNT>
0

> <PUBCHEM_ISOTOPIC_ATOM_COUNT>
0

> <PUBCHEM_COMPONENT_COUNT>
1

> <PUBCHEM_CACTVS_TAUTO_COUNT>
4

> <PUBCHEM_COORDINATE_TYPE>
1
5
255

> <PUBCHEM_BONDANNOTATIONS>
1  6  8
1  8  8
5  6  8
5  7  8
7  8  8

$$$$

