6668
  -OEChem-06261201262D

 38 39  0     0  0  0  0  0  0999 V2000
    4.2690   -1.2500    0.0000 S   0  0  0  0  0  0  0  0  0  0  0  0
    8.5991    1.2500    0.0000 S   0  0  0  0  0  0  0  0  0  0  0  0
    4.2690   -2.2500    0.0000 O   0  0  0  0  0  0  0  0  0  0  0  0
    8.5991    2.2500    0.0000 O   0  0  0  0  0  0  0  0  0  0  0  0
    3.2690   -1.2500    0.0000 O   0  0  0  0  0  0  0  0  0  0  0  0
    5.2690   -1.2500    0.0000 O   0  0  0  0  0  0  0  0  0  0  0  0
    9.5991    1.2500    0.0000 O   0  0  0  0  0  0  0  0  0  0  0  0
    7.5991    1.2500    0.0000 O   0  0  0  0  0  0  0  0  0  0  0  0
    2.5369    1.7500    0.0000 N   0  0  0  0  0  0  0  0  0  0  0  0
   10.3312   -1.7500    0.0000 N   0  0  0  0  0  0  0  0  0  0  0  0
    7.7331   -0.2500    0.0000 C   0  0  0  0  0  0  0  0  0  0  0  0
    5.1350    0.2500    0.0000 C   0  0  0  0  0  0  0  0  0  0  0  0
    4.2690   -0.2500    0.0000 C   0  0  0  0  0  0  0  0  0  0  0  0
    8.5991    0.2500    0.0000 C   0  0  0  0  0  0  0  0  0  0  0  0
    6.0010   -0.2500    0.0000 C   0  0  0  0  0  0  0  0  0  0  0  0
    6.8671    0.2500    0.0000 C   0  0  0  0  0  0  0  0  0  0  0  0
    9.4651   -0.2500    0.0000 C   0  0  0  0  0  0  0  0  0  0  0  0
    3.4030    0.2500    0.0000 C   0  0  0  0  0  0  0  0  0  0  0  0
    5.1350    1.2500    0.0000 C   0  0  0  0  0  0  0  0  0  0  0  0
    7.7331   -1.2500    0.0000 C   0  0  0  0  0  0  0  0  0  0  0  0
    9.4651   -1.2500    0.0000 C   0  0  0  0  0  0  0  0  0  0  0  0
    3.4030    1.2500    0.0000 C   0  0  0  0  0  0  0  0  0  0  0  0
    8.5991   -1.7500    0.0000 C   0  0  0  0  0  0  0  0  0  0  0  0
    4.2690    1.7500    0.0000 C   0  0  0  0  0  0  0  0  0  0  0  0
    6.0010   -0.8700    0.0000 H   0  0  0  0  0  0  0  0  0  0  0  0
    6.8671    0.8700    0.0000 H   0  0  0  0  0  0  0  0  0  0  0  0
    2.8660   -0.0600    0.0000 H   0  0  0  0  0  0  0  0  0  0  0  0
   10.0021    0.0600    0.0000 H   0  0  0  0  0  0  0  0  0  0  0  0
    5.6720    1.5600    0.0000 H   0  0  0  0  0  0  0  0  0  0  0  0
    7.1962   -1.5600    0.0000 H   0  0  0  0  0  0  0  0  0  0  0  0
    4.2690    2.3700    0.0000 H   0  0  0  0  0  0  0  0  0  0  0  0
    8.5991   -2.3700    0.0000 H   0  0  0  0  0  0  0  0  0  0  0  0
    2.5369    2.3700    0.0000 H   0  0  0  0  0  0  0  0  0  0  0  0
    2.0000    1.4400    0.0000 H   0  0  0  0  0  0  0  0  0  0  0  0
   10.3312   -2.3700    0.0000 H   0  0  0  0  0  0  0  0  0  0  0  0
   10.8681   -1.4400    0.0000 H   0  0  0  0  0  0  0  0  0  0  0  0
    9.1360    2.5600    0.0000 H   0  0  0  0  0  0  0  0  0  0  0  0
    3.7320   -2.5600    0.0000 H   0  0  0  0  0  0  0  0  0  0  0  0
  1  3  1  0  0  0  0
  1  5  2  0  0  0  0
  1  6  2  0  0  0  0
  1 13  1  0  0  0  0
  2  4  1  0  0  0  0
  2  7  2  0  0  0  0
  2  8  2  0  0  0  0
  2 14  1  0  0  0  0
  3 38  1  0  0  0  0
  4 37  1  0  0  0  0
  9 22  1  0  0  0  0
  9 33  1  0  0  0  0
  9 34  1  0  0  0  0
 10 21  1  0  0  0  0
 10 35  1  0  0  0  0
 10 36  1  0  0  0  0
 11 14  2  0  0  0  0
 11 16  1  0  0  0  0
 11 20  1  0  0  0  0
 12 13  2  0  0  0  0
 12 15  1  0  0  0  0
 12 19  1  0  0  0  0
 13 18  1  0  0  0  0
 14 17  1  0  0  0  0
 15 16  2  3  0  0  0
 15 25  1  0  0  0  0
 16 26  1  0  0  0  0
 17 21  2  0  0  0  0
 17 28  1  0  0  0  0
 18 22  2  0  0  0  0
 18 27  1  0  0  0  0
 19 24  2  0  0  0  0
 19 29  1  0  0  0  0
 20 23  2  0  0  0  0
 20 30  1  0  0  0  0
 21 23  1  0  0  0  0
 22 24  1  0  0  0  0
 23 32  1  0  0  0  0
 24 31  1  0  0  0  0
M  END
> <PUBCHEM_COMPOUND_CID>
6668

> <PUBCHEM_COMPOUND_CANONICALIZED>
1

> <PUBCHEM_CACTVS_COMPLEXITY>
606

> <PUBCHEM_CACTVS_HBOND_ACCEPTOR>
8

> <PUBCHEM_CACTVS_HBOND_DONOR>
4

> <PUBCHEM_CACTVS_ROTATABLE_BOND>
4

> <PUBCHEM_CACTVS_SUBSKEYS>
AAADccBzOABgAAAAAAAAAAAAAAAAAAAAAAAwYAAAAAAAAAABQAAAHAQQCAAADAiBWAAwwYBAAIKAAiRCQHDCAEAgAgAIiBgAZIgIICKAkZGAIARgkAAIyAcQgAAOCAAAACAEAAAQAAAAQAgAAAAAAAAAAA==

> <PUBCHEM_IUPAC_OPENEYE_NAME>
5-amino-2-[2-(4-amino-2-sulfo-phenyl)vinyl]benzenesulfonic acid

> <PUBCHEM_IUPAC_CAS_NAME>
5-amino-2-[2-(4-amino-2-sulfophenyl)ethenyl]benzenesulfonic acid

> <PUBCHEM_IUPAC_NAME>
5-amino-2-[2-(4-amino-2-sulfophenyl)ethenyl]benzenesulfonic acid

> <PUBCHEM_IUPAC_SYSTEMATIC_NAME>
5-azanyl-2-[2-(4-azanyl-2-sulfo-phenyl)ethenyl]benzenesulfonic acid

> <PUBCHEM_IUPAC_TRADITIONAL_NAME>
5-amino-2-[2-(4-amino-2-sulfo-phenyl)vinyl]besylic acid

> <PUBCHEM_IUPAC_INCHI>
InChI=1S/C14H14N2O6S2/c15-11-5-3-9(13(7-11)23(17,18)19)1-2-10-4-6-12(16)8-14(10)24(20,21)22/h1-8H,15-16H2,(H,17,18,19)(H,20,21,22)

> <PUBCHEM_IUPAC_INCHIKEY>
REJHVSOVQBJEBF-UHFFFAOYSA-N

> <PUBCHEM_XLOGP3_AA>
0.3

> <PUBCHEM_EXACT_MASS>
370.029328

> <PUBCHEM_MOLECULAR_FORMULA>
C14H14N2O6S2

> <PUBCHEM_MOLECULAR_WEIGHT>
370.40076

> <PUBCHEM_OPENEYE_CAN_SMILES>
C1=CC(=C(C=C1N)S(=O)(=O)O)C=CC2=C(C=C(C=C2)N)S(=O)(=O)O

> <PUBCHEM_OPENEYE_ISO_SMILES>
C1=CC(=C(C=C1N)S(=O)(=O)O)C=CC2=C(C=C(C=C2)N)S(=O)(=O)O

> <PUBCHEM_CACTVS_TPSA>
178

> <PUBCHEM_MONOISOTOPIC_WEIGHT>
370.029328

> <PUBCHEM_TOTAL_CHARGE>
0

> <PUBCHEM_HEAVY_ATOM_COUNT>
24

> <PUBCHEM_ATOM_DEF_STEREO_COUNT>
0

> <PUBCHEM_ATOM_UDEF_STEREO_COUNT>
0

> <PUBCHEM_BOND_DEF_STEREO_COUNT>
0

> <PUBCHEM_BOND_UDEF_STEREO_COUNT>
1

> <PUBCHEM_ISOTOPIC_ATOM_COUNT>
0

> <PUBCHEM_COMPONENT_COUNT>
1

> <PUBCHEM_CACTVS_TAUTO_COUNT>
2

> <PUBCHEM_COORDINATE_TYPE>
1
5
255

> <PUBCHEM_BONDANNOTATIONS>
11  14  8
11  20  8
12  13  8
12  19  8
13  18  8
14  17  8
15  16  1
17  21  8
18  22  8
19  24  8
20  23  8
21  23  8
22  24  8

$$$$

