224005
  -OEChem-07051213073D

 55 58  0     1  0  0  0  0  0999 V2000
    5.1751    1.1305    0.1843 O   0  0  0  0  0  0  0  0  0  0  0  0
   -5.4995   -0.4259   -1.0810 O   0  0  0  0  0  0  0  0  0  0  0  0
    2.7831    0.5447    0.2041 C   0  0  1  0  0  0  0  0  0  0  0  0
    2.0654   -0.7270   -0.2967 C   0  0  2  0  0  0  0  0  0  0  0  0
    0.6792   -0.9218    0.3319 C   0  0  1  0  0  0  0  0  0  0  0  0
   -0.2121    0.3136   -0.0090 C   0  0  1  0  0  0  0  0  0  0  0  0
    4.1661    0.3921   -0.5017 C   0  0  2  0  0  0  0  0  0  0  0  0
   -1.6782    0.1874    0.5607 C   0  0  2  0  0  0  0  0  0  0  0  0
    1.9245    1.7551   -0.1988 C   0  0  0  0  0  0  0  0  0  0  0  0
    0.4904    1.6507    0.3525 C   0  0  0  0  0  0  0  0  0  0  0  0
    3.1095   -1.8229   -0.1090 C   0  0  0  0  0  0  0  0  0  0  0  0
    4.4557   -1.1289   -0.3873 C   0  0  0  0  0  0  0  0  0  0  0  0
    0.0117   -2.2079   -0.1730 C   0  0  0  0  0  0  0  0  0  0  0  0
    2.9908    0.5718    1.7471 C   0  0  0  0  0  0  0  0  0  0  0  0
   -2.2566   -1.1797    0.1772 C   0  0  0  0  0  0  0  0  0  0  0  0
   -1.3768   -2.3814    0.4291 C   0  0  0  0  0  0  0  0  0  0  0  0
   -2.5441    1.3266   -0.0561 C   0  0  0  0  0  0  0  0  0  0  0  0
    4.2101    0.8438   -1.9669 C   0  0  0  0  0  0  0  0  0  0  0  0
   -1.7103    0.3121    2.1012 C   0  0  0  0  0  0  0  0  0  0  0  0
   -4.0497    1.1059    0.1010 C   0  0  2  0  0  0  0  0  0  0  0  0
   -3.4811   -1.3585   -0.3450 C   0  0  0  0  0  0  0  0  0  0  0  0
   -4.4256   -0.2289   -0.5157 C   0  0  0  0  0  0  0  0  0  0  0  0
   -4.8276    2.2486   -0.5489 C   0  0  0  0  0  0  0  0  0  0  0  0
    1.9012   -0.6398   -1.3817 H   0  0  0  0  0  0  0  0  0  0  0  0
    0.7865   -1.0130    1.4180 H   0  0  0  0  0  0  0  0  0  0  0  0
   -0.3063    0.3199   -1.1074 H   0  0  0  0  0  0  0  0  0  0  0  0
    1.8510    1.8317   -1.2901 H   0  0  0  0  0  0  0  0  0  0  0  0
    2.3865    2.6869    0.1484 H   0  0  0  0  0  0  0  0  0  0  0  0
    0.5105    1.7917    1.4373 H   0  0  0  0  0  0  0  0  0  0  0  0
   -0.0798    2.4933   -0.0541 H   0  0  0  0  0  0  0  0  0  0  0  0
    2.9487   -2.6617   -0.7941 H   0  0  0  0  0  0  0  0  0  0  0  0
    3.0920   -2.2230    0.9110 H   0  0  0  0  0  0  0  0  0  0  0  0
    5.1635   -1.3474    0.4210 H   0  0  0  0  0  0  0  0  0  0  0  0
    4.9011   -1.5236   -1.3079 H   0  0  0  0  0  0  0  0  0  0  0  0
    0.6208   -3.0798    0.0929 H   0  0  0  0  0  0  0  0  0  0  0  0
   -0.0597   -2.1921   -1.2683 H   0  0  0  0  0  0  0  0  0  0  0  0
    2.0563    0.4910    2.3076 H   0  0  0  0  0  0  0  0  0  0  0  0
    3.6372   -0.2399    2.0960 H   0  0  0  0  0  0  0  0  0  0  0  0
    3.4606    1.5135    2.0550 H   0  0  0  0  0  0  0  0  0  0  0  0
   -1.2913   -2.5402    1.5111 H   0  0  0  0  0  0  0  0  0  0  0  0
   -1.8241   -3.2957    0.0202 H   0  0  0  0  0  0  0  0  0  0  0  0
   -2.3154    1.4155   -1.1281 H   0  0  0  0  0  0  0  0  0  0  0  0
   -2.2787    2.2900    0.3972 H   0  0  0  0  0  0  0  0  0  0  0  0
    5.1986    0.6461   -2.3990 H   0  0  0  0  0  0  0  0  0  0  0  0
    3.4672    0.3402   -2.5911 H   0  0  0  0  0  0  0  0  0  0  0  0
    4.0626    1.9265   -2.0470 H   0  0  0  0  0  0  0  0  0  0  0  0
   -2.7028    0.0795    2.5040 H   0  0  0  0  0  0  0  0  0  0  0  0
   -1.0055   -0.3688    2.5881 H   0  0  0  0  0  0  0  0  0  0  0  0
   -1.4638    1.3275    2.4288 H   0  0  0  0  0  0  0  0  0  0  0  0
   -4.3233    1.0660    1.1618 H   0  0  0  0  0  0  0  0  0  0  0  0
    6.0349    0.8952   -0.2043 H   0  0  0  0  0  0  0  0  0  0  0  0
   -3.8468   -2.3419   -0.6213 H   0  0  0  0  0  0  0  0  0  0  0  0
   -4.5450    3.2119   -0.1117 H   0  0  0  0  0  0  0  0  0  0  0  0
   -4.6431    2.2939   -1.6279 H   0  0  0  0  0  0  0  0  0  0  0  0
   -5.9057    2.1192   -0.4041 H   0  0  0  0  0  0  0  0  0  0  0  0
  1  7  1  0  0  0  0
  1 51  1  0  0  0  0
  2 22  2  0  0  0  0
  3  4  1  0  0  0  0
  3  7  1  0  0  0  0
  3  9  1  0  0  0  0
  3 14  1  0  0  0  0
  4  5  1  0  0  0  0
  4 11  1  0  0  0  0
  4 24  1  0  0  0  0
  5  6  1  0  0  0  0
  5 13  1  0  0  0  0
  5 25  1  0  0  0  0
  6  8  1  0  0  0  0
  6 10  1  0  0  0  0
  6 26  1  0  0  0  0
  7 12  1  0  0  0  0
  7 18  1  0  0  0  0
  8 15  1  0  0  0  0
  8 17  1  0  0  0  0
  8 19  1  0  0  0  0
  9 10  1  0  0  0  0
  9 27  1  0  0  0  0
  9 28  1  0  0  0  0
 10 29  1  0  0  0  0
 10 30  1  0  0  0  0
 11 12  1  0  0  0  0
 11 31  1  0  0  0  0
 11 32  1  0  0  0  0
 12 33  1  0  0  0  0
 12 34  1  0  0  0  0
 13 16  1  0  0  0  0
 13 35  1  0  0  0  0
 13 36  1  0  0  0  0
 14 37  1  0  0  0  0
 14 38  1  0  0  0  0
 14 39  1  0  0  0  0
 15 16  1  0  0  0  0
 15 21  2  0  0  0  0
 16 40  1  0  0  0  0
 16 41  1  0  0  0  0
 17 20  1  0  0  0  0
 17 42  1  0  0  0  0
 17 43  1  0  0  0  0
 18 44  1  0  0  0  0
 18 45  1  0  0  0  0
 18 46  1  0  0  0  0
 19 47  1  0  0  0  0
 19 48  1  0  0  0  0
 19 49  1  0  0  0  0
 20 22  1  0  0  0  0
 20 23  1  0  0  0  0
 20 50  1  0  0  0  0
 21 22  1  0  0  0  0
 21 52  1  0  0  0  0
 23 53  1  0  0  0  0
 23 54  1  0  0  0  0
 23 55  1  0  0  0  0
M  END
> <PUBCHEM_COMPOUND_CID>
224005

> <PUBCHEM_CONFORMER_RMSD>
0.6

> <PUBCHEM_CONFORMER_DIVERSEORDER>
1
2

> <PUBCHEM_MMFF94_PARTIAL_CHARGES>
11
1 -0.68
15 -0.28
16 0.14
2 -0.57
20 0.06
21 -0.14
22 0.49
51 0.4
52 0.15
7 0.28
8 0.14

> <PUBCHEM_EFFECTIVE_ROTOR_COUNT>
1.8

> <PUBCHEM_PHARMACOPHORE_FEATURES>
7
1 1 acceptor
1 1 donor
1 2 acceptor
5 3 4 7 11 12 rings
6 3 4 5 6 9 10 rings
6 5 6 8 13 15 16 rings
6 8 15 17 20 21 22 rings

> <PUBCHEM_HEAVY_ATOM_COUNT>
23

> <PUBCHEM_ATOM_DEF_STEREO_COUNT>
7

> <PUBCHEM_ATOM_UDEF_STEREO_COUNT>
0

> <PUBCHEM_BOND_DEF_STEREO_COUNT>
0

> <PUBCHEM_BOND_UDEF_STEREO_COUNT>
0

> <PUBCHEM_ISOTOPIC_ATOM_COUNT>
0

> <PUBCHEM_COMPONENT_COUNT>
1

> <PUBCHEM_CACTVS_TAUTO_COUNT>
5

> <PUBCHEM_CONFORMER_ID>
00036B0500000001

> <PUBCHEM_MMFF94_ENERGY>
80.4317

> <PUBCHEM_FEATURE_SELFOVERLAP>
35.613

> <PUBCHEM_SHAPE_FINGERPRINT>
10366900 7 17313098631889021322
10411042 1 17042888465523049099
10498660 4 18408879642376448112
1100329 8 16895391187678335762
11315181 36 17821441357828938728
11370993 70 18408610235999246475
12011746 2 18334572434784345782
12236239 1 17821727247763030105
12403259 415 18261115153759638825
12553582 1 18264749039805430880
12592029 89 18271810150792259795
12633257 1 14908177521610123070
12788726 201 18042679675162815744
13224815 77 17821725031174816050
13544653 18 6483345634486871125
14790565 3 18048307040615552385
15099037 51 18412545418295755493
15196674 1 18410012160537633111
15375358 24 18409165489682412250
15420108 30 16457688815737887080
15788980 27 18059852882830848897
1601671 61 18342738524676293548
16752209 62 18337113375775061651
16945 1 18265893553715406010
17349148 13 17967247607103497115
18186145 218 18040432187759396329
18608769 82 18268143159291686379
19862831 5 18040995159066373569
200 152 17530685403046238627
20645477 70 17167859747240454204
20871999 31 18411415098677687197
21033648 29 18410579487216035217
21267235 1 18408877438884301367
21279426 13 18337109093544779895
21285901 2 18201442522767710949
21421861 104 17631185250103340130
221357 26 18333737905754282309
22393880 68 18261112988821555135
23402539 116 18335426798047403917
23402655 69 18335421291746135237
23559900 14 18187649111259642896
296302 2 16917064438762547866
3004659 81 18342457093060640822
3286 77 17458631159267580642
335352 9 18339641265072088022
34797466 226 17458622272532027596
34934 24 18413390921705712514
350125 39 18411131416931746793
3759504 43 17703503320611697387
4028521 119 18334574642096907227
4280585 95 17322099482924649990
474 4 17632574937673127831
495365 180 17531260443475140282
4990 188 17822006527710798412
5104073 3 18410574011053319547
542803 24 17704349974466026597
633830 44 17632573876832108011
9709674 26 18264490589847739531

> <PUBCHEM_SHAPE_MULTIPOLES>
461.59
10.48
2.23
1.24
1.8
0.44
0.27
-2.61
-3.37
0.7
-0.14
-0.45
-0.28
0.01

> <PUBCHEM_SHAPE_SELFOVERLAP>
987.122

> <PUBCHEM_SHAPE_VOLUME>
255.1

> <PUBCHEM_COORDINATE_TYPE>
2
5
10

$$$$

