17395701
  -OEChem-06241222512D

 31 32  0     0  0  0  0  0  0999 V2000
    2.8660   -4.3807    0.0000 Br  0  0  0  0  0  0  0  0  0  0  0  0
    3.7320    0.1193    0.0000 S   0  0  0  0  0  0  0  0  0  0  0  0
    3.2320    2.6581    0.0000 N   0  0  0  0  0  0  0  0  0  0  0  0
    4.5411    1.7071    0.0000 N   0  0  0  0  0  0  0  0  0  0  0  0
    2.9230    1.7071    0.0000 N   0  0  0  0  0  0  0  0  0  0  0  0
    4.8198    3.4672    0.0000 C   0  0  0  0  0  0  0  0  0  0  0  0
    4.2320    2.6581    0.0000 C   0  0  0  0  0  0  0  0  0  0  0  0
    5.8144    3.3626    0.0000 C   0  0  0  0  0  0  0  0  0  0  0  0
    4.4131    4.3807    0.0000 C   0  0  0  0  0  0  0  0  0  0  0  0
    3.7320    1.1193    0.0000 C   0  0  0  0  0  0  0  0  0  0  0  0
    2.8660   -0.3807    0.0000 C   0  0  0  0  0  0  0  0  0  0  0  0
    2.8660   -1.3807    0.0000 C   0  0  0  0  0  0  0  0  0  0  0  0
    2.0000   -1.8807    0.0000 C   0  0  0  0  0  0  0  0  0  0  0  0
    3.7320   -1.8807    0.0000 C   0  0  0  0  0  0  0  0  0  0  0  0
    2.0000   -2.8807    0.0000 C   0  0  0  0  0  0  0  0  0  0  0  0
    3.7320   -2.8807    0.0000 C   0  0  0  0  0  0  0  0  0  0  0  0
    2.8660   -3.3807    0.0000 C   0  0  0  0  0  0  0  0  0  0  0  0
    5.1843    3.9688    0.0000 H   0  0  0  0  0  0  0  0  0  0  0  0
    4.9795    4.6329    0.0000 H   0  0  0  0  0  0  0  0  0  0  0  0
    4.1609    4.9471    0.0000 H   0  0  0  0  0  0  0  0  0  0  0  0
    5.7496    2.7460    0.0000 H   0  0  0  0  0  0  0  0  0  0  0  0
    6.4310    3.2978    0.0000 H   0  0  0  0  0  0  0  0  0  0  0  0
    5.8792    3.9792    0.0000 H   0  0  0  0  0  0  0  0  0  0  0  0
    3.8467    4.1285    0.0000 H   0  0  0  0  0  0  0  0  0  0  0  0
    2.8676    3.1597    0.0000 H   0  0  0  0  0  0  0  0  0  0  0  0
    2.6540    0.2019    0.0000 H   0  0  0  0  0  0  0  0  0  0  0  0
    2.2554   -0.4884    0.0000 H   0  0  0  0  0  0  0  0  0  0  0  0
    1.4631   -1.5707    0.0000 H   0  0  0  0  0  0  0  0  0  0  0  0
    4.2690   -1.5707    0.0000 H   0  0  0  0  0  0  0  0  0  0  0  0
    1.4631   -3.1907    0.0000 H   0  0  0  0  0  0  0  0  0  0  0  0
    4.2690   -3.1907    0.0000 H   0  0  0  0  0  0  0  0  0  0  0  0
  1 17  1  0  0  0  0
  2 10  1  0  0  0  0
  2 11  1  0  0  0  0
  3  5  1  0  0  0  0
  3  7  1  0  0  0  0
  3 25  1  0  0  0  0
  4  7  2  0  0  0  0
  4 10  1  0  0  0  0
  5 10  2  0  0  0  0
  6  7  1  0  0  0  0
  6  8  1  0  0  0  0
  6  9  1  0  0  0  0
  6 18  1  0  0  0  0
  8 21  1  0  0  0  0
  8 22  1  0  0  0  0
  8 23  1  0  0  0  0
  9 19  1  0  0  0  0
  9 20  1  0  0  0  0
  9 24  1  0  0  0  0
 11 12  1  0  0  0  0
 11 26  1  0  0  0  0
 11 27  1  0  0  0  0
 12 13  2  0  0  0  0
 12 14  1  0  0  0  0
 13 15  1  0  0  0  0
 13 28  1  0  0  0  0
 14 16  2  0  0  0  0
 14 29  1  0  0  0  0
 15 17  2  0  0  0  0
 15 30  1  0  0  0  0
 16 17  1  0  0  0  0
 16 31  1  0  0  0  0
M  END
> <PUBCHEM_COMPOUND_CID>
17395701

> <PUBCHEM_COMPOUND_CANONICALIZED>
1

> <PUBCHEM_CACTVS_COMPLEXITY>
232

> <PUBCHEM_CACTVS_HBOND_ACCEPTOR>
3

> <PUBCHEM_CACTVS_HBOND_DONOR>
1

> <PUBCHEM_CACTVS_ROTATABLE_BOND>
4

> <PUBCHEM_CACTVS_SUBSKEYS>
AAADccBzAABAEAAAAAAAAAAAAAAAAWAAAAAwAAAAAAAAAAABwAAAHARYAAABrQCFWwCzEIZrEAiiAiJiJAAS0AvgALQdqAAwAKiIKCKgGRCEIAAgmAIIihcAgAAOAgAAAAAAAAAEAAAAAAAAAAAAAAAAAA==

> <PUBCHEM_IUPAC_OPENEYE_NAME>
3-[(4-bromophenyl)methylsulfanyl]-5-isopropyl-1H-1,2,4-triazole

> <PUBCHEM_IUPAC_CAS_NAME>
3-[(4-bromophenyl)methylthio]-5-propan-2-yl-1H-1,2,4-triazole

> <PUBCHEM_IUPAC_NAME>
3-[(4-bromophenyl)methylsulfanyl]-5-propan-2-yl-1H-1,2,4-triazole

> <PUBCHEM_IUPAC_SYSTEMATIC_NAME>
3-[(4-bromophenyl)methylsulfanyl]-5-propan-2-yl-1H-1,2,4-triazole

> <PUBCHEM_IUPAC_TRADITIONAL_NAME>
3-[(4-bromobenzyl)thio]-5-isopropyl-1H-1,2,4-triazole

> <PUBCHEM_IUPAC_INCHI>
InChI=1S/C12H14BrN3S/c1-8(2)11-14-12(16-15-11)17-7-9-3-5-10(13)6-4-9/h3-6,8H,7H2,1-2H3,(H,14,15,16)

> <PUBCHEM_IUPAC_INCHIKEY>
KWSGSLUHPODALE-UHFFFAOYSA-N

> <PUBCHEM_XLOGP3_AA>
4.2

> <PUBCHEM_EXACT_MASS>
311.009181

> <PUBCHEM_MOLECULAR_FORMULA>
C12H14BrN3S

> <PUBCHEM_MOLECULAR_WEIGHT>
312.22866

> <PUBCHEM_OPENEYE_CAN_SMILES>
CC(C)C1=NC(=NN1)SCC2=CC=C(C=C2)Br

> <PUBCHEM_OPENEYE_ISO_SMILES>
CC(C)C1=NC(=NN1)SCC2=CC=C(C=C2)Br

> <PUBCHEM_CACTVS_TPSA>
66.9

> <PUBCHEM_MONOISOTOPIC_WEIGHT>
311.009181

> <PUBCHEM_TOTAL_CHARGE>
0

> <PUBCHEM_HEAVY_ATOM_COUNT>
17

> <PUBCHEM_ATOM_DEF_STEREO_COUNT>
0

> <PUBCHEM_ATOM_UDEF_STEREO_COUNT>
0

> <PUBCHEM_BOND_DEF_STEREO_COUNT>
0

> <PUBCHEM_BOND_UDEF_STEREO_COUNT>
0

> <PUBCHEM_ISOTOPIC_ATOM_COUNT>
0

> <PUBCHEM_COMPONENT_COUNT>
1

> <PUBCHEM_CACTVS_TAUTO_COUNT>
5

> <PUBCHEM_COORDINATE_TYPE>
1
5
255

> <PUBCHEM_BONDANNOTATIONS>
12  13  8
12  14  8
13  15  8
14  16  8
15  17  8
16  17  8
3  5  8
3  7  8
4  10  8
4  7  8
5  10  8

$$$$

