11469920
  -OEChem-07051213112D

 39 38  0     0  0  0  0  0  0999 V2000
    2.5369   -3.4400    0.0000 O   0  0  0  0  0  0  0  0  0  0  0  0
    3.4030   -1.9400    0.0000 O   0  0  0  0  0  0  0  0  0  0  0  0
    7.7331    1.5600    0.0000 C   0  0  0  0  0  0  0  0  0  0  0  0
    6.8671    1.0600    0.0000 C   0  0  0  0  0  0  0  0  0  0  0  0
    7.7331    2.5600    0.0000 C   0  0  0  0  0  0  0  0  0  0  0  0
    6.8671    0.0600    0.0000 C   0  0  0  0  0  0  0  0  0  0  0  0
    8.5991    3.0600    0.0000 C   0  0  0  0  0  0  0  0  0  0  0  0
    6.0010   -0.4400    0.0000 C   0  0  0  0  0  0  0  0  0  0  0  0
    6.0010   -1.4400    0.0000 C   0  0  0  0  0  0  0  0  0  0  0  0
    8.5991    4.0600    0.0000 C   0  0  0  0  0  0  0  0  0  0  0  0
    9.4651    2.5600    0.0000 C   0  0  0  0  0  0  0  0  0  0  0  0
    5.1350   -1.9400    0.0000 C   0  0  0  0  0  0  0  0  0  0  0  0
    5.1350   -2.9400    0.0000 C   0  0  0  0  0  0  0  0  0  0  0  0
    4.2690   -3.4400    0.0000 C   0  0  0  0  0  0  0  0  0  0  0  0
    3.4030   -2.9400    0.0000 C   0  0  0  0  0  0  0  0  0  0  0  0
    7.9451    0.9774    0.0000 H   0  0  0  0  0  0  0  0  0  0  0  0
    8.3437    1.6677    0.0000 H   0  0  0  0  0  0  0  0  0  0  0  0
    6.6550    1.6426    0.0000 H   0  0  0  0  0  0  0  0  0  0  0  0
    6.2565    0.9523    0.0000 H   0  0  0  0  0  0  0  0  0  0  0  0
    7.5210    3.1426    0.0000 H   0  0  0  0  0  0  0  0  0  0  0  0
    7.1225    2.4523    0.0000 H   0  0  0  0  0  0  0  0  0  0  0  0
    7.0791   -0.5226    0.0000 H   0  0  0  0  0  0  0  0  0  0  0  0
    7.4776    0.1677    0.0000 H   0  0  0  0  0  0  0  0  0  0  0  0
    8.5991    2.4400    0.0000 H   0  0  0  0  0  0  0  0  0  0  0  0
    5.7890    0.1426    0.0000 H   0  0  0  0  0  0  0  0  0  0  0  0
    5.3905   -0.5477    0.0000 H   0  0  0  0  0  0  0  0  0  0  0  0
    6.2131   -2.0226    0.0000 H   0  0  0  0  0  0  0  0  0  0  0  0
    6.6116   -1.3323    0.0000 H   0  0  0  0  0  0  0  0  0  0  0  0
    9.2191    4.0600    0.0000 H   0  0  0  0  0  0  0  0  0  0  0  0
    8.5991    4.6800    0.0000 H   0  0  0  0  0  0  0  0  0  0  0  0
    7.9791    4.0600    0.0000 H   0  0  0  0  0  0  0  0  0  0  0  0
    9.1551    2.0231    0.0000 H   0  0  0  0  0  0  0  0  0  0  0  0
   10.0021    2.2500    0.0000 H   0  0  0  0  0  0  0  0  0  0  0  0
    9.7751    3.0969    0.0000 H   0  0  0  0  0  0  0  0  0  0  0  0
    4.9230   -1.3574    0.0000 H   0  0  0  0  0  0  0  0  0  0  0  0
    4.5244   -2.0477    0.0000 H   0  0  0  0  0  0  0  0  0  0  0  0
    5.6720   -3.2500    0.0000 H   0  0  0  0  0  0  0  0  0  0  0  0
    4.2690   -4.0600    0.0000 H   0  0  0  0  0  0  0  0  0  0  0  0
    2.0000   -3.1300    0.0000 H   0  0  0  0  0  0  0  0  0  0  0  0
  1 15  1  0  0  0  0
  1 39  1  0  0  0  0
  2 15  2  0  0  0  0
  3  4  1  0  0  0  0
  3  5  1  0  0  0  0
  3 16  1  0  0  0  0
  3 17  1  0  0  0  0
  4  6  1  0  0  0  0
  4 18  1  0  0  0  0
  4 19  1  0  0  0  0
  5  7  1  0  0  0  0
  5 20  1  0  0  0  0
  5 21  1  0  0  0  0
  6  8  1  0  0  0  0
  6 22  1  0  0  0  0
  6 23  1  0  0  0  0
  7 10  1  0  0  0  0
  7 11  1  0  0  0  0
  7 24  1  0  0  0  0
  8  9  1  0  0  0  0
  8 25  1  0  0  0  0
  8 26  1  0  0  0  0
  9 12  1  0  0  0  0
  9 27  1  0  0  0  0
  9 28  1  0  0  0  0
 10 29  1  0  0  0  0
 10 30  1  0  0  0  0
 10 31  1  0  0  0  0
 11 32  1  0  0  0  0
 11 33  1  0  0  0  0
 11 34  1  0  0  0  0
 12 13  1  0  0  0  0
 12 35  1  0  0  0  0
 12 36  1  0  0  0  0
 13 14  2  0  0  0  0
 13 37  1  0  0  0  0
 14 15  1  0  0  0  0
 14 38  1  0  0  0  0
M  END
> <PUBCHEM_COMPOUND_CID>
11469920

> <PUBCHEM_COMPOUND_CANONICALIZED>
1

> <PUBCHEM_CACTVS_COMPLEXITY>
183

> <PUBCHEM_CACTVS_HBOND_ACCEPTOR>
2

> <PUBCHEM_CACTVS_HBOND_DONOR>
1

> <PUBCHEM_CACTVS_ROTATABLE_BOND>
9

> <PUBCHEM_CACTVS_SUBSKEYS>
AAADceBwMAAAAAAAAAAAAAAAAAAAAAAAAAAAAAAAAAAAAAAAAAAAGgAACAAADQCAgAACCAAAAgCIACDSCAAAAAAgAAAICAAAAEgABAIAAQAAEAAAgAAIEYMAgMAMAAAAAAAAAAAAAAAAAAAAAAAAAAAAAA==

> <PUBCHEM_IUPAC_OPENEYE_NAME>
(Z)-11-methyldodec-2-enoic acid

> <PUBCHEM_IUPAC_CAS_NAME>
(Z)-11-methyl-2-dodecenoic acid

> <PUBCHEM_IUPAC_NAME>
(Z)-11-methyldodec-2-enoic acid

> <PUBCHEM_IUPAC_SYSTEMATIC_NAME>
(Z)-11-methyldodec-2-enoic acid

> <PUBCHEM_IUPAC_TRADITIONAL_NAME>
(Z)-11-methyldodec-2-enoic acid

> <PUBCHEM_IUPAC_INCHI>
InChI=1S/C13H24O2/c1-12(2)10-8-6-4-3-5-7-9-11-13(14)15/h9,11-12H,3-8,10H2,1-2H3,(H,14,15)/b11-9-

> <PUBCHEM_IUPAC_INCHIKEY>
SNTXNGAQYNSTHI-LUAWRHEFSA-N

> <PUBCHEM_XLOGP3_AA>
5.1

> <PUBCHEM_EXACT_MASS>
212.17763

> <PUBCHEM_MOLECULAR_FORMULA>
C13H24O2

> <PUBCHEM_MOLECULAR_WEIGHT>
212.32846

> <PUBCHEM_OPENEYE_CAN_SMILES>
CC(C)CCCCCCCC=CC(=O)O

> <PUBCHEM_OPENEYE_ISO_SMILES>
CC(C)CCCCCCC/C=C\C(=O)O

> <PUBCHEM_CACTVS_TPSA>
37.3

> <PUBCHEM_MONOISOTOPIC_WEIGHT>
212.17763

> <PUBCHEM_TOTAL_CHARGE>
0

> <PUBCHEM_HEAVY_ATOM_COUNT>
15

> <PUBCHEM_ATOM_DEF_STEREO_COUNT>
0

> <PUBCHEM_ATOM_UDEF_STEREO_COUNT>
0

> <PUBCHEM_BOND_DEF_STEREO_COUNT>
1

> <PUBCHEM_BOND_UDEF_STEREO_COUNT>
0

> <PUBCHEM_ISOTOPIC_ATOM_COUNT>
0

> <PUBCHEM_COMPONENT_COUNT>
1

> <PUBCHEM_CACTVS_TAUTO_COUNT>
1

> <PUBCHEM_COORDINATE_TYPE>
1
5
255

$$$$

