191385
  -OEChem-07051213113D

 64 66  0     1  0  0  0  0  0999 V2000
    1.3547   -0.7190    0.0096 O   0  0  0  0  0  0  0  0  0  0  0  0
   -2.2957   -0.8355    0.1886 O   0  0  0  0  0  0  0  0  0  0  0  0
    2.2323    1.4474    0.3780 O   0  0  0  0  0  0  0  0  0  0  0  0
    0.2036   -2.8218   -1.5935 O   0  0  0  0  0  0  0  0  0  0  0  0
   -2.2292    1.3670   -0.6736 O   0  0  0  0  0  0  0  0  0  0  0  0
   -5.3148   -0.4220   -0.3573 O   0  0  0  0  0  0  0  0  0  0  0  0
    4.7508    0.0349   -2.5797 O   0  0  0  0  0  0  0  0  0  0  0  0
    5.7051    0.2431    0.1242 O   0  0  0  0  0  0  0  0  0  0  0  0
   -4.9799    1.8664   -1.7997 O   0  0  0  0  0  0  0  0  0  0  0  0
    3.0341    2.0981    2.9050 O   0  0  0  0  0  0  0  0  0  0  0  0
   -1.4277    3.5562    0.8914 O   0  0  0  0  0  0  0  0  0  0  0  0
   -0.9159   -1.4974    2.7968 N   0  0  0  0  0  0  0  0  0  0  0  0
   -2.1270   -3.7113    1.1098 N   0  0  0  0  0  0  0  0  0  0  0  0
    1.8938   -0.4731   -2.7835 N   0  0  0  0  0  0  0  0  0  0  0  0
    0.0850   -0.7417    0.6660 C   0  0  1  0  0  0  0  0  0  0  0  0
   -1.0086   -1.1347   -0.3429 C   0  0  1  0  0  0  0  0  0  0  0  0
    0.1951   -1.6994    1.8667 C   0  0  2  0  0  0  0  0  0  0  0  0
   -0.9397   -2.6141   -0.7609 C   0  0  2  0  0  0  0  0  0  0  0  0
   -0.8397   -3.5906    0.4251 C   0  0  1  0  0  0  0  0  0  0  0  0
    0.2702   -3.1670    1.4054 C   0  0  0  0  0  0  0  0  0  0  0  0
    1.6168    0.5610   -0.5617 C   0  0  1  0  0  0  0  0  0  0  0  0
   -2.9651    0.1344   -0.6034 C   0  0  2  0  0  0  0  0  0  0  0  0
    2.5017    0.4319   -1.8074 C   0  0  1  0  0  0  0  0  0  0  0  0
   -4.2985    0.4776    0.0377 C   0  0  1  0  0  0  0  0  0  0  0  0
    3.9070   -0.0493   -1.4298 C   0  0  2  0  0  0  0  0  0  0  0  0
    4.4913    0.8397   -0.3261 C   0  0  1  0  0  0  0  0  0  0  0  0
   -4.5302    1.8919   -0.4458 C   0  0  1  0  0  0  0  0  0  0  0  0
    3.5085    0.9927    0.8410 C   0  0  1  0  0  0  0  0  0  0  0  0
   -3.1215    2.4706   -0.4039 C   0  0  1  0  0  0  0  0  0  0  0  0
    3.9970    2.0074    1.8712 C   0  0  0  0  0  0  0  0  0  0  0  0
   -2.7535    3.0565    0.9527 C   0  0  0  0  0  0  0  0  0  0  0  0
   -0.1314    0.2584    1.0698 H   0  0  0  0  0  0  0  0  0  0  0  0
   -0.8331   -0.5665   -1.2661 H   0  0  0  0  0  0  0  0  0  0  0  0
    1.1238   -1.4792    2.4088 H   0  0  0  0  0  0  0  0  0  0  0  0
   -1.8182   -2.8660   -1.3675 H   0  0  0  0  0  0  0  0  0  0  0  0
   -0.5788   -4.5850    0.0420 H   0  0  0  0  0  0  0  0  0  0  0  0
    1.2454   -3.3314    0.9285 H   0  0  0  0  0  0  0  0  0  0  0  0
    0.2700   -3.8327    2.2796 H   0  0  0  0  0  0  0  0  0  0  0  0
    0.6819    1.0438   -0.8728 H   0  0  0  0  0  0  0  0  0  0  0  0
   -3.1034   -0.2579   -1.6195 H   0  0  0  0  0  0  0  0  0  0  0  0
    2.5952    1.4177   -2.2815 H   0  0  0  0  0  0  0  0  0  0  0  0
   -4.2241    0.4509    1.1315 H   0  0  0  0  0  0  0  0  0  0  0  0
    3.9050   -1.0973   -1.1036 H   0  0  0  0  0  0  0  0  0  0  0  0
    4.7407    1.8238   -0.7430 H   0  0  0  0  0  0  0  0  0  0  0  0
   -5.2692    2.4398    0.1455 H   0  0  0  0  0  0  0  0  0  0  0  0
    3.3722    0.0337    1.3583 H   0  0  0  0  0  0  0  0  0  0  0  0
   -2.9533    3.2116   -1.1933 H   0  0  0  0  0  0  0  0  0  0  0  0
   -0.9018   -0.5407    3.1476 H   0  0  0  0  0  0  0  0  0  0  0  0
   -0.7999   -2.1038    3.6075 H   0  0  0  0  0  0  0  0  0  0  0  0
   -2.4083   -2.8053    1.4825 H   0  0  0  0  0  0  0  0  0  0  0  0
   -2.0308   -4.3291    1.9149 H   0  0  0  0  0  0  0  0  0  0  0  0
    0.9996   -2.6273   -1.0725 H   0  0  0  0  0  0  0  0  0  0  0  0
    4.1089    3.0035    1.4302 H   0  0  0  0  0  0  0  0  0  0  0  0
    4.9523    1.7071    2.3111 H   0  0  0  0  0  0  0  0  0  0  0  0
    0.9282   -0.1968   -2.9560 H   0  0  0  0  0  0  0  0  0  0  0  0
    1.8588   -1.4178   -2.4068 H   0  0  0  0  0  0  0  0  0  0  0  0
   -2.7724    2.2973    1.7403 H   0  0  0  0  0  0  0  0  0  0  0  0
   -3.4251    3.8733    1.2341 H   0  0  0  0  0  0  0  0  0  0  0  0
   -5.0322   -1.3148   -0.0950 H   0  0  0  0  0  0  0  0  0  0  0  0
    4.3498   -0.5159   -3.2737 H   0  0  0  0  0  0  0  0  0  0  0  0
    6.2917    0.1572   -0.6468 H   0  0  0  0  0  0  0  0  0  0  0  0
   -5.0668    2.7893   -2.0937 H   0  0  0  0  0  0  0  0  0  0  0  0
    2.1895    2.3581    2.4990 H   0  0  0  0  0  0  0  0  0  0  0  0
   -1.4077    4.2581    0.2187 H   0  0  0  0  0  0  0  0  0  0  0  0
  1 15  1  0  0  0  0
  1 21  1  0  0  0  0
  2 16  1  0  0  0  0
  2 22  1  0  0  0  0
  3 21  1  0  0  0  0
  3 28  1  0  0  0  0
  4 18  1  0  0  0  0
  4 52  1  0  0  0  0
  5 22  1  0  0  0  0
  5 29  1  0  0  0  0
  6 24  1  0  0  0  0
  6 59  1  0  0  0  0
  7 25  1  0  0  0  0
  7 60  1  0  0  0  0
  8 26  1  0  0  0  0
  8 61  1  0  0  0  0
  9 27  1  0  0  0  0
  9 62  1  0  0  0  0
 10 30  1  0  0  0  0
 10 63  1  0  0  0  0
 11 31  1  0  0  0  0
 11 64  1  0  0  0  0
 12 17  1  0  0  0  0
 12 48  1  0  0  0  0
 12 49  1  0  0  0  0
 13 19  1  0  0  0  0
 13 50  1  0  0  0  0
 13 51  1  0  0  0  0
 14 23  1  0  0  0  0
 14 55  1  0  0  0  0
 14 56  1  0  0  0  0
 15 16  1  0  0  0  0
 15 17  1  0  0  0  0
 15 32  1  0  0  0  0
 16 18  1  0  0  0  0
 16 33  1  0  0  0  0
 17 20  1  0  0  0  0
 17 34  1  0  0  0  0
 18 19  1  0  0  0  0
 18 35  1  0  0  0  0
 19 20  1  0  0  0  0
 19 36  1  0  0  0  0
 20 37  1  0  0  0  0
 20 38  1  0  0  0  0
 21 23  1  0  0  0  0
 21 39  1  0  0  0  0
 22 24  1  0  0  0  0
 22 40  1  0  0  0  0
 23 25  1  0  0  0  0
 23 41  1  0  0  0  0
 24 27  1  0  0  0  0
 24 42  1  0  0  0  0
 25 26  1  0  0  0  0
 25 43  1  0  0  0  0
 26 28  1  0  0  0  0
 26 44  1  0  0  0  0
 27 29  1  0  0  0  0
 27 45  1  0  0  0  0
 28 30  1  0  0  0  0
 28 46  1  0  0  0  0
 29 31  1  0  0  0  0
 29 47  1  0  0  0  0
 30 53  1  0  0  0  0
 30 54  1  0  0  0  0
 31 57  1  0  0  0  0
 31 58  1  0  0  0  0
M  END
> <PUBCHEM_COMPOUND_CID>
191385

> <PUBCHEM_CONFORMER_RMSD>
1

> <PUBCHEM_CONFORMER_DIVERSEORDER>
1
19
56
47
59
54
58
48
31
11
53
26
63
42
49
38
52
30
29
61
57
60
36
7
40
41
32
43
17
22
55
24
4
37
15
21
25
33
27
62
35
34
9
6
39
64
5
12
51
3
10
14
45
28
20
16
8
50
13
46
18
23
2
44

> <PUBCHEM_MMFF94_PARTIAL_CHARGES>
43
1 -0.56
10 -0.68
11 -0.68
12 -0.99
13 -0.99
14 -0.99
15 0.28
16 0.28
17 0.27
18 0.28
19 0.27
2 -0.56
21 0.56
22 0.56
23 0.27
24 0.28
25 0.28
26 0.28
27 0.28
28 0.28
29 0.28
3 -0.56
30 0.28
31 0.28
4 -0.68
48 0.36
49 0.36
5 -0.56
50 0.36
51 0.36
52 0.4
55 0.36
56 0.36
59 0.4
6 -0.68
60 0.4
61 0.4
62 0.4
63 0.4
64 0.4
7 -0.68
8 -0.68
9 -0.68

> <PUBCHEM_EFFECTIVE_ROTOR_COUNT>
9.4

> <PUBCHEM_PHARMACOPHORE_FEATURES>
27
1 1 acceptor
1 10 acceptor
1 10 donor
1 11 acceptor
1 11 donor
1 12 cation
1 12 donor
1 13 cation
1 13 donor
1 14 cation
1 14 donor
1 2 acceptor
1 3 acceptor
1 4 acceptor
1 4 donor
1 5 acceptor
1 6 acceptor
1 6 donor
1 7 acceptor
1 7 donor
1 8 acceptor
1 8 donor
1 9 acceptor
1 9 donor
5 5 22 24 27 29 rings
6 15 16 17 18 19 20 rings
6 3 21 23 25 26 28 rings

> <PUBCHEM_HEAVY_ATOM_COUNT>
31

> <PUBCHEM_ATOM_DEF_STEREO_COUNT>
14

> <PUBCHEM_ATOM_UDEF_STEREO_COUNT>
0

> <PUBCHEM_BOND_DEF_STEREO_COUNT>
0

> <PUBCHEM_BOND_UDEF_STEREO_COUNT>
0

> <PUBCHEM_ISOTOPIC_ATOM_COUNT>
0

> <PUBCHEM_COMPONENT_COUNT>
1

> <PUBCHEM_CACTVS_TAUTO_COUNT>
1

> <PUBCHEM_CONFORMER_ID>
0002EB9900000001

> <PUBCHEM_MMFF94_ENERGY>
77.4371

> <PUBCHEM_FEATURE_SELFOVERLAP>
137.122

> <PUBCHEM_SHAPE_FINGERPRINT>
10498660 4 18335427902270944709
108634 29 18261392213441390584
11578080 2 17825096013756488432
11582403 64 17171845442615767978
11725454 13 17968393238258928786
12422481 6 17129604563602694756
12788726 201 17627776522874777690
133893 2 17555448788500080737
13402501 40 18041285382939627776
13583140 156 18041277643972705414
14251757 17 17603863459325230684
14251764 3 18259979379553813472
14468879 13 17823712858256930936
17980427 23 17469917800676783211
20567600 347 18270397312398880623
20600515 1 18198356060564425397
21033648 29 18410581668938225400
21524375 3 18131347535716429607
23419403 2 17043950442914264307
23557571 272 18192148200812532812
23559900 14 18336543829511463996
3380486 145 17389944456957511547
35225 105 17844223182352170603
469060 322 12893375111483274410
474 4 17774716584276864567
5252454 2 17905316674130341577
9981440 41 18201715198010676451

> <PUBCHEM_SHAPE_MULTIPOLES>
558.46
9.59
4.13
2.31
1.6
2.05
-0.21
-7.4
2.64
-3.36
-1.82
2.32
-0.02
1.56

> <PUBCHEM_SHAPE_SELFOVERLAP>
1153.628

> <PUBCHEM_SHAPE_VOLUME>
315

> <PUBCHEM_COORDINATE_TYPE>
2
5
10

$$$$

