11253
  -OEChem-06261205273D

 10  9  0     1  0  0  0  0  0999 V2000
    1.6099   -1.3771   -0.0002 Br  0  0  0  0  0  0  0  0  0  0  0  0
   -1.6843   -0.1366    0.8283 O   0  5  0  0  0  0  0  0  0  0  0  0
   -0.9435   -0.1030   -1.2422 O   0  0  0  0  0  0  0  0  0  0  0  0
   -0.7844   -0.0335   -0.0156 N   0  3  0  0  0  0  0  0  0  0  0  0
    0.6023    0.1960    0.5090 C   0  0  2  0  0  0  0  0  0  0  0  0
    1.2000    1.4543   -0.0793 C   0  0  0  0  0  0  0  0  0  0  0  0
    0.5595    0.2284    1.6012 H   0  0  0  0  0  0  0  0  0  0  0  0
    1.2809    1.4078   -1.1715 H   0  0  0  0  0  0  0  0  0  0  0  0
    0.5895    2.3293    0.1694 H   0  0  0  0  0  0  0  0  0  0  0  0
    2.2078    1.6259    0.3146 H   0  0  0  0  0  0  0  0  0  0  0  0
  1  5  1  0  0  0  0
  2  4  1  0  0  0  0
  3  4  2  0  0  0  0
  4  5  1  0  0  0  0
  5  6  1  0  0  0  0
  5  7  1  0  0  0  0
  6  8  1  0  0  0  0
  6  9  1  0  0  0  0
  6 10  1  0  0  0  0
M  CHG  2   2  -1   4   1
M  END
> <PUBCHEM_COMPOUND_CID>
11253

> <PUBCHEM_CONFORMER_RMSD>
0.4

> <PUBCHEM_CONFORMER_DIVERSEORDER>
1
3
4
2

> <PUBCHEM_MMFF94_PARTIAL_CHARGES>
5
1 -0.23
2 -0.52
3 -0.52
4 0.8
5 0.47

> <PUBCHEM_EFFECTIVE_ROTOR_COUNT>
1

> <PUBCHEM_PHARMACOPHORE_FEATURES>
5
1 1 hydrophobe
1 2 acceptor
1 2 anion
1 3 acceptor
3 1 5 6 hydrophobe

> <PUBCHEM_HEAVY_ATOM_COUNT>
6

> <PUBCHEM_ATOM_DEF_STEREO_COUNT>
0

> <PUBCHEM_ATOM_UDEF_STEREO_COUNT>
1

> <PUBCHEM_BOND_DEF_STEREO_COUNT>
0

> <PUBCHEM_BOND_UDEF_STEREO_COUNT>
0

> <PUBCHEM_ISOTOPIC_ATOM_COUNT>
0

> <PUBCHEM_COMPONENT_COUNT>
1

> <PUBCHEM_CACTVS_TAUTO_COUNT>
2

> <PUBCHEM_CONFORMER_ID>
00002BF500000001

> <PUBCHEM_MMFF94_ENERGY>
6.6796

> <PUBCHEM_FEATURE_SELFOVERLAP>
26.372

> <PUBCHEM_SHAPE_FINGERPRINT>
139733 1 9654705509535629306
20096714 4 17970336036313191968
24536 1 18341909471138448433
29004967 10 18340764957138822090
5943 1 5966322637833853364

> <PUBCHEM_SHAPE_MULTIPOLES>
112.7
2.06
1.41
0.94
0.05
0.52
-0.15
-0.77
0.14
0.78
-0.04
-0.29
-0.09
0.03

> <PUBCHEM_SHAPE_SELFOVERLAP>
189.576

> <PUBCHEM_SHAPE_VOLUME>
78.9

> <PUBCHEM_COORDINATE_TYPE>
2
5
10

$$$$

