442037
  -OEChem-07051212563D

 59 63  0     1  0  0  0  0  0999 V2000
    4.9698   -0.1080   -0.7428 O   0  0  0  0  0  0  0  0  0  0  0  0
    0.3805   -2.5595   -1.9997 O   0  0  0  0  0  0  0  0  0  0  0  0
    2.1328    3.3199    0.6005 O   0  0  0  0  0  0  0  0  0  0  0  0
   -4.6026    0.9554    1.8219 O   0  0  0  0  0  0  0  0  0  0  0  0
    3.1175    3.5681   -1.4799 O   0  0  0  0  0  0  0  0  0  0  0  0
   -5.4793    1.2562   -0.7929 O   0  0  0  0  0  0  0  0  0  0  0  0
    1.3545   -2.0409    0.9704 N   0  0  1  0  0  0  0  0  0  0  0  0
   -1.5968   -1.3117   -2.1681 N   0  0  0  0  0  0  0  0  0  0  0  0
    0.4600   -0.9154    0.6735 C   0  0  2  0  0  0  0  0  0  0  0  0
   -0.7264   -1.6357    0.0211 C   0  0  1  0  0  0  0  0  0  0  0  0
    1.1843    0.1537   -0.1434 C   0  0  0  0  0  0  0  0  0  0  0  0
    3.3337   -0.5716    1.0616 C   0  0  1  0  0  0  0  0  0  0  0  0
    2.4556    0.6256    0.5968 C   0  0  1  0  0  0  0  0  0  0  0  0
   -0.8070   -2.9676    0.7927 C   0  0  0  0  0  0  0  0  0  0  0  0
    2.4763   -1.6194    1.8014 C   0  0  0  0  0  0  0  0  0  0  0  0
    0.4998   -3.0502    1.5905 C   0  0  0  0  0  0  0  0  0  0  0  0
   -2.0056   -0.8420    0.0257 C   0  0  0  0  0  0  0  0  0  0  0  0
    4.1274   -1.1211   -0.1533 C   0  0  2  0  0  0  0  0  0  0  0  0
   -0.5315   -1.9198   -1.4971 C   0  0  0  0  0  0  0  0  0  0  0  0
    3.2695    1.5312   -0.2774 C   0  0  0  0  0  0  0  0  0  0  0  0
   -2.4610   -0.6817   -1.2814 C   0  0  0  0  0  0  0  0  0  0  0  0
   -2.7171   -0.2961    1.0803 C   0  0  0  0  0  0  0  0  0  0  0  0
    5.0559   -2.2768    0.2117 C   0  0  0  0  0  0  0  0  0  0  0  0
    4.4159    1.1404   -0.8442 C   0  0  0  0  0  0  0  0  0  0  0  0
   -3.6144    0.0120   -1.5912 C   0  0  0  0  0  0  0  0  0  0  0  0
    2.8474    2.9176   -0.4813 C   0  0  0  0  0  0  0  0  0  0  0  0
   -3.8892    0.4110    0.7943 C   0  0  0  0  0  0  0  0  0  0  0  0
   -4.3338    0.5641   -0.5309 C   0  0  0  0  0  0  0  0  0  0  0  0
    1.6460    4.6650    0.5501 C   0  0  0  0  0  0  0  0  0  0  0  0
   -4.2680    2.2864    2.2070 C   0  0  0  0  0  0  0  0  0  0  0  0
   -6.6942    0.5107   -0.8158 C   0  0  0  0  0  0  0  0  0  0  0  0
    0.1296   -0.4523    1.6165 H   0  0  0  0  0  0  0  0  0  0  0  0
    0.5115    1.0042   -0.3109 H   0  0  0  0  0  0  0  0  0  0  0  0
    1.4546   -0.2254   -1.1362 H   0  0  0  0  0  0  0  0  0  0  0  0
    4.0678   -0.1792    1.7818 H   0  0  0  0  0  0  0  0  0  0  0  0
    2.1462    1.1470    1.5123 H   0  0  0  0  0  0  0  0  0  0  0  0
   -0.8917   -3.8249    0.1142 H   0  0  0  0  0  0  0  0  0  0  0  0
   -1.6598   -3.0088    1.4800 H   0  0  0  0  0  0  0  0  0  0  0  0
    3.0882   -2.4837    2.0790 H   0  0  0  0  0  0  0  0  0  0  0  0
    2.1172   -1.1840    2.7441 H   0  0  0  0  0  0  0  0  0  0  0  0
    0.2990   -2.8215    2.6449 H   0  0  0  0  0  0  0  0  0  0  0  0
    0.9431   -4.0491    1.5317 H   0  0  0  0  0  0  0  0  0  0  0  0
    3.4454   -1.4729   -0.9375 H   0  0  0  0  0  0  0  0  0  0  0  0
   -1.7354   -1.3271   -3.1716 H   0  0  0  0  0  0  0  0  0  0  0  0
   -2.3758   -0.4141    2.1036 H   0  0  0  0  0  0  0  0  0  0  0  0
    5.7331   -1.9917    1.0241 H   0  0  0  0  0  0  0  0  0  0  0  0
    4.5007   -3.1695    0.5111 H   0  0  0  0  0  0  0  0  0  0  0  0
    5.6869   -2.5441   -0.6435 H   0  0  0  0  0  0  0  0  0  0  0  0
    5.0609    1.7789   -1.4332 H   0  0  0  0  0  0  0  0  0  0  0  0
   -3.9488    0.1239   -2.6168 H   0  0  0  0  0  0  0  0  0  0  0  0
    2.4819    5.3679    0.4835 H   0  0  0  0  0  0  0  0  0  0  0  0
    1.0940    4.8615    1.4730 H   0  0  0  0  0  0  0  0  0  0  0  0
    0.9671    4.7898   -0.2989 H   0  0  0  0  0  0  0  0  0  0  0  0
   -4.4201    2.9792    1.3733 H   0  0  0  0  0  0  0  0  0  0  0  0
   -3.2305    2.3364    2.5525 H   0  0  0  0  0  0  0  0  0  0  0  0
   -4.9251    2.5806    3.0300 H   0  0  0  0  0  0  0  0  0  0  0  0
   -6.8755    0.0383    0.1548 H   0  0  0  0  0  0  0  0  0  0  0  0
   -6.6634   -0.2487   -1.6035 H   0  0  0  0  0  0  0  0  0  0  0  0
   -7.5157    1.2006   -1.0273 H   0  0  0  0  0  0  0  0  0  0  0  0
  1 18  1  0  0  0  0
  1 24  1  0  0  0  0
  2 19  2  0  0  0  0
  3 26  1  0  0  0  0
  3 29  1  0  0  0  0
  4 27  1  0  0  0  0
  4 30  1  0  0  0  0
  5 26  2  0  0  0  0
  6 28  1  0  0  0  0
  6 31  1  0  0  0  0
  7  9  1  0  0  0  0
  7 15  1  0  0  0  0
  7 16  1  0  0  0  0
  8 19  1  0  0  0  0
  8 21  1  0  0  0  0
  8 44  1  0  0  0  0
  9 10  1  0  0  0  0
  9 11  1  0  0  0  0
  9 32  1  0  0  0  0
 10 14  1  0  0  0  0
 10 17  1  0  0  0  0
 10 19  1  0  0  0  0
 11 13  1  0  0  0  0
 11 33  1  0  0  0  0
 11 34  1  0  0  0  0
 12 13  1  0  0  0  0
 12 15  1  0  0  0  0
 12 18  1  0  0  0  0
 12 35  1  0  0  0  0
 13 20  1  0  0  0  0
 13 36  1  0  0  0  0
 14 16  1  0  0  0  0
 14 37  1  0  0  0  0
 14 38  1  0  0  0  0
 15 39  1  0  0  0  0
 15 40  1  0  0  0  0
 16 41  1  0  0  0  0
 16 42  1  0  0  0  0
 17 21  1  0  0  0  0
 17 22  2  0  0  0  0
 18 23  1  0  0  0  0
 18 43  1  0  0  0  0
 20 24  2  0  0  0  0
 20 26  1  0  0  0  0
 21 25  2  0  0  0  0
 22 27  1  0  0  0  0
 22 45  1  0  0  0  0
 23 46  1  0  0  0  0
 23 47  1  0  0  0  0
 23 48  1  0  0  0  0
 24 49  1  0  0  0  0
 25 28  1  0  0  0  0
 25 50  1  0  0  0  0
 27 28  2  0  0  0  0
 29 51  1  0  0  0  0
 29 52  1  0  0  0  0
 29 53  1  0  0  0  0
 30 54  1  0  0  0  0
 30 55  1  0  0  0  0
 30 56  1  0  0  0  0
 31 57  1  0  0  0  0
 31 58  1  0  0  0  0
 31 59  1  0  0  0  0
M  END
> <PUBCHEM_COMPOUND_CID>
442037

> <PUBCHEM_CONFORMER_RMSD>
0.8

> <PUBCHEM_CONFORMER_DIVERSEORDER>
1
4
5
3
2

> <PUBCHEM_MMFF94_PARTIAL_CHARGES>
31
1 -0.36
10 0.2
13 0.14
15 0.27
16 0.27
17 -0.14
18 0.28
19 0.57
2 -0.57
20 -0.12
21 0.12
22 -0.15
24 -0.07
25 -0.15
26 0.71
27 0.08
28 0.08
29 0.28
3 -0.43
30 0.28
31 0.28
4 -0.36
44 0.37
45 0.15
49 0.15
5 -0.57
50 0.15
6 -0.36
7 -0.81
8 -0.55
9 0.27

> <PUBCHEM_EFFECTIVE_ROTOR_COUNT>
5.4

> <PUBCHEM_PHARMACOPHORE_FEATURES>
12
1 1 acceptor
1 2 acceptor
1 4 acceptor
1 5 acceptor
1 6 acceptor
1 7 cation
1 8 donor
5 7 9 10 14 16 rings
5 8 10 17 19 21 rings
6 1 12 13 18 20 24 rings
6 17 21 22 25 27 28 rings
6 7 9 11 12 13 15 rings

> <PUBCHEM_HEAVY_ATOM_COUNT>
31

> <PUBCHEM_ATOM_DEF_STEREO_COUNT>
5

> <PUBCHEM_ATOM_UDEF_STEREO_COUNT>
0

> <PUBCHEM_BOND_DEF_STEREO_COUNT>
0

> <PUBCHEM_BOND_UDEF_STEREO_COUNT>
0

> <PUBCHEM_ISOTOPIC_ATOM_COUNT>
0

> <PUBCHEM_COMPONENT_COUNT>
1

> <PUBCHEM_CACTVS_TAUTO_COUNT>
2

> <PUBCHEM_CONFORMER_ID>
0006BEB500000001

> <PUBCHEM_MMFF94_ENERGY>
110.378

> <PUBCHEM_FEATURE_SELFOVERLAP>
61.126

> <PUBCHEM_SHAPE_FINGERPRINT>
10165383 225 17418373610532354598
10615611 76 18261100916227921713
10670039 82 17676487302110017177
10763959 59 18342459300273041061
10906281 52 18341325580095740120
11045977 3 17775280586555614275
1200032 147 16881295286245665891
12166972 35 18114472231437946753
12236239 1 18187375358634305611
12422481 6 17464548872493170586
12633257 1 18201730560760865682
12788726 201 18267864064195972498
13544653 18 9583525295511532875
13583140 156 18201435904919757923
13590594 115 18339924943404236984
13617811 41 17167871863981785477
13627175 23 18334845126685246737
13782708 43 16916786339641422938
14429115 67 9078850596528546013
14955137 171 17845109526675490674
151778 21 17988923327947054492
15420108 30 17033859237301478240
15475509 8 18117821421524454566
1813 80 17684937194693350366
18335252 114 18337686312028710509
20567600 247 8934699099532684989
21033648 29 17060346231885551901
21033650 10 15864887903311830904
21133410 90 17389135461672599593
21756936 100 18335975368429096026
21860390 5 18335697273670625836
22122407 14 18270114742723065649
22907989 373 17680996188805349063
23559900 14 18337954481581398376
25223398 141 16734413520281369103
340366 18 18187367619092851710
3797600 57 12823300074771147174
4409770 3 15377939883391376919
469060 322 17266937637672724569
474 4 18408887369086066571
5081480 168 17318149985749043357
513202 73 17402060384023691426
5252454 2 17845658019562660444
5895379 119 17822004315929676792
6086070 43 18057627488687589839
633830 44 18341623589573206798
7288768 16 17487062150175680104
9981440 41 17470469330354720320

> <PUBCHEM_SHAPE_MULTIPOLES>
592.79
11.2
4.21
1.84
9.2
3.86
-0.01
4.47
0.95
-4.21
-0.66
1.34
-0.3
-1.78

> <PUBCHEM_SHAPE_SELFOVERLAP>
1297.929

> <PUBCHEM_SHAPE_VOLUME>
322.2

> <PUBCHEM_COORDINATE_TYPE>
2
5
10

$$$$

