31261
  -OEChem-07051213073D

 15 14  0     0  0  0  0  0  0999 V2000
   -1.3197   -1.2209    0.0368 O   0  0  0  0  0  0  0  0  0  0  0  0
    1.3189   -1.2208   -0.0383 O   0  0  0  0  0  0  0  0  0  0  0  0
    0.0000    0.8033    0.0172 C   0  0  0  0  0  0  0  0  0  0  0  0
   -1.2888    0.0079   -0.0028 C   0  0  0  0  0  0  0  0  0  0  0  0
    1.2890    0.0077    0.0065 C   0  0  0  0  0  0  0  0  0  0  0  0
   -2.5635    0.8117   -0.0267 C   0  0  0  0  0  0  0  0  0  0  0  0
    2.5641    0.8112    0.0073 C   0  0  0  0  0  0  0  0  0  0  0  0
   -0.0039    1.4194    0.9225 H   0  0  0  0  0  0  0  0  0  0  0  0
    0.0041    1.4509   -0.8660 H   0  0  0  0  0  0  0  0  0  0  0  0
   -2.6370    1.4086    0.8856 H   0  0  0  0  0  0  0  0  0  0  0  0
   -2.5706    1.4619   -0.9050 H   0  0  0  0  0  0  0  0  0  0  0  0
   -3.4235    0.1385   -0.0820 H   0  0  0  0  0  0  0  0  0  0  0  0
    3.4248    0.1378    0.0488 H   0  0  0  0  0  0  0  0  0  0  0  0
    2.6220    1.4070   -0.9068 H   0  0  0  0  0  0  0  0  0  0  0  0
    2.5863    1.4625    0.8846 H   0  0  0  0  0  0  0  0  0  0  0  0
  1  4  2  0  0  0  0
  2  5  2  0  0  0  0
  3  4  1  0  0  0  0
  3  5  1  0  0  0  0
  3  8  1  0  0  0  0
  3  9  1  0  0  0  0
  4  6  1  0  0  0  0
  5  7  1  0  0  0  0
  6 10  1  0  0  0  0
  6 11  1  0  0  0  0
  6 12  1  0  0  0  0
  7 13  1  0  0  0  0
  7 14  1  0  0  0  0
  7 15  1  0  0  0  0
M  END
> <PUBCHEM_COMPOUND_CID>
31261

> <PUBCHEM_CONFORMER_RMSD>
0.4

> <PUBCHEM_CONFORMER_DIVERSEORDER>
1
9
10
22
12
13
8
3
25
2
14
15
26
20
24
4
23
19
17
5
21
6
18
11
16
7

> <PUBCHEM_MMFF94_PARTIAL_CHARGES>
7
1 -0.57
2 -0.57
3 0.12
4 0.45
5 0.45
6 0.06
7 0.06

> <PUBCHEM_EFFECTIVE_ROTOR_COUNT>
2

> <PUBCHEM_PHARMACOPHORE_FEATURES>
3
1 1 acceptor
1 2 acceptor
1 3 anion

> <PUBCHEM_HEAVY_ATOM_COUNT>
7

> <PUBCHEM_ATOM_DEF_STEREO_COUNT>
0

> <PUBCHEM_ATOM_UDEF_STEREO_COUNT>
0

> <PUBCHEM_BOND_DEF_STEREO_COUNT>
0

> <PUBCHEM_BOND_UDEF_STEREO_COUNT>
0

> <PUBCHEM_ISOTOPIC_ATOM_COUNT>
0

> <PUBCHEM_COMPONENT_COUNT>
1

> <PUBCHEM_CACTVS_TAUTO_COUNT>
5

> <PUBCHEM_CONFORMER_ID>
00007A1D00000001

> <PUBCHEM_MMFF94_ENERGY>
4.9494

> <PUBCHEM_FEATURE_SELFOVERLAP>
15.232

> <PUBCHEM_SHAPE_FINGERPRINT>
14325111 11 18410856607464931877
14390081 3 18260552203473927336
16714656 1 18341893013040138829
20096714 4 18411417323486518761
21040471 1 18411136943705382529
23552423 10 18343580767546670134
24536 1 18338811064524740961
29004967 10 17846771918824605600
5460574 1 9295288343859725989

> <PUBCHEM_SHAPE_MULTIPOLES>
132.32
3.54
1.21
0.59
0
0.25
0
-0.91
0.02
0
0
0
-0.04
0.02

> <PUBCHEM_SHAPE_SELFOVERLAP>
242.302

> <PUBCHEM_SHAPE_VOLUME>
84.2

> <PUBCHEM_COORDINATE_TYPE>
2
5
10

$$$$

