5281872
  -OEChem-07051213002D

 51 53  0     1  0  0  0  0  0999 V2000
    4.5981   -4.7500    0.0000 Cl  0  0  0  0  0  0  0  0  0  0  0  0
    2.0000   -5.2500    0.0000 F   0  0  0  0  0  0  0  0  0  0  0  0
    3.3660   -5.6160    0.0000 F   0  0  0  0  0  0  0  0  0  0  0  0
    2.3660   -3.8840    0.0000 F   0  0  0  0  0  0  0  0  0  0  0  0
    5.9641   -0.3840    0.0000 O   0  0  0  0  0  0  0  0  0  0  0  0
    4.2320   -0.3840    0.0000 O   0  0  0  0  0  0  0  0  0  0  0  0
    5.5981   -2.7500    0.0000 C   0  0  0  0  0  0  0  0  0  0  0  0
    4.5981   -2.7500    0.0000 C   0  0  3  0  0  0  0  0  0  0  0  0
    5.0981   -1.8840    0.0000 C   0  0  3  0  0  0  0  0  0  0  0  0
    5.5981   -3.7500    0.0000 C   0  0  0  0  0  0  0  0  0  0  0  0
    6.4641   -2.2500    0.0000 C   0  0  0  0  0  0  0  0  0  0  0  0
    3.7320   -3.2500    0.0000 C   0  0  0  0  0  0  0  0  0  0  0  0
    5.0981   -0.8840    0.0000 C   0  0  0  0  0  0  0  0  0  0  0  0
    3.7320   -4.2500    0.0000 C   0  0  0  0  0  0  0  0  0  0  0  0
    5.9641    0.6160    0.0000 C   0  0  0  0  0  0  0  0  0  0  0  0
    2.8660   -4.7500    0.0000 C   0  0  0  0  0  0  0  0  0  0  0  0
    6.8301    1.1160    0.0000 C   0  0  0  0  0  0  0  0  0  0  0  0
    6.8301    2.1160    0.0000 C   0  0  0  0  0  0  0  0  0  0  0  0
    7.6962    0.6160    0.0000 C   0  0  0  0  0  0  0  0  0  0  0  0
    7.6962    2.6160    0.0000 C   0  0  0  0  0  0  0  0  0  0  0  0
    5.9641    2.6160    0.0000 C   0  0  0  0  0  0  0  0  0  0  0  0
    8.5622    1.1160    0.0000 C   0  0  0  0  0  0  0  0  0  0  0  0
    8.5622    2.1160    0.0000 C   0  0  0  0  0  0  0  0  0  0  0  0
    7.6962    3.6160    0.0000 C   0  0  0  0  0  0  0  0  0  0  0  0
    8.5622    4.1160    0.0000 C   0  0  0  0  0  0  0  0  0  0  0  0
    6.8301    4.1160    0.0000 C   0  0  0  0  0  0  0  0  0  0  0  0
    8.5622    5.1160    0.0000 C   0  0  0  0  0  0  0  0  0  0  0  0
    6.8301    5.1160    0.0000 C   0  0  0  0  0  0  0  0  0  0  0  0
    7.6962    5.6160    0.0000 C   0  0  0  0  0  0  0  0  0  0  0  0
    4.7585   -3.3489    0.0000 H   0  0  0  0  0  0  0  0  0  0  0  0
    5.6970   -1.7235    0.0000 H   0  0  0  0  0  0  0  0  0  0  0  0
    6.7741   -2.7869    0.0000 H   0  0  0  0  0  0  0  0  0  0  0  0
    4.9781   -3.7500    0.0000 H   0  0  0  0  0  0  0  0  0  0  0  0
    5.5981   -4.3700    0.0000 H   0  0  0  0  0  0  0  0  0  0  0  0
    6.2181   -3.7500    0.0000 H   0  0  0  0  0  0  0  0  0  0  0  0
    7.0010   -1.9400    0.0000 H   0  0  0  0  0  0  0  0  0  0  0  0
    6.1541   -1.7131    0.0000 H   0  0  0  0  0  0  0  0  0  0  0  0
    3.1951   -2.9400    0.0000 H   0  0  0  0  0  0  0  0  0  0  0  0
    5.7520    1.1986    0.0000 H   0  0  0  0  0  0  0  0  0  0  0  0
    5.3535    0.5084    0.0000 H   0  0  0  0  0  0  0  0  0  0  0  0
    7.6962   -0.0040    0.0000 H   0  0  0  0  0  0  0  0  0  0  0  0
    6.2741    3.1530    0.0000 H   0  0  0  0  0  0  0  0  0  0  0  0
    5.4272    2.9260    0.0000 H   0  0  0  0  0  0  0  0  0  0  0  0
    5.6541    2.0791    0.0000 H   0  0  0  0  0  0  0  0  0  0  0  0
    9.0991    0.8060    0.0000 H   0  0  0  0  0  0  0  0  0  0  0  0
    9.0991    2.4260    0.0000 H   0  0  0  0  0  0  0  0  0  0  0  0
    9.0991    3.8060    0.0000 H   0  0  0  0  0  0  0  0  0  0  0  0
    6.2932    3.8060    0.0000 H   0  0  0  0  0  0  0  0  0  0  0  0
    9.0991    5.4260    0.0000 H   0  0  0  0  0  0  0  0  0  0  0  0
    6.2932    5.4260    0.0000 H   0  0  0  0  0  0  0  0  0  0  0  0
    7.6962    6.2360    0.0000 H   0  0  0  0  0  0  0  0  0  0  0  0
  1 14  1  0  0  0  0
  2 16  1  0  0  0  0
  3 16  1  0  0  0  0
  4 16  1  0  0  0  0
  5 13  1  0  0  0  0
  5 15  1  0  0  0  0
  6 13  2  0  0  0  0
  7  8  1  0  0  0  0
  7  9  1  0  0  0  0
  7 10  1  0  0  0  0
  7 11  1  0  0  0  0
  8  9  1  0  0  0  0
  8 12  1  0  0  0  0
  8 30  1  0  0  0  0
  9 13  1  0  0  0  0
  9 31  1  0  0  0  0
 10 33  1  0  0  0  0
 10 34  1  0  0  0  0
 10 35  1  0  0  0  0
 11 32  1  0  0  0  0
 11 36  1  0  0  0  0
 11 37  1  0  0  0  0
 12 14  2  0  0  0  0
 12 38  1  0  0  0  0
 14 16  1  0  0  0  0
 15 17  1  0  0  0  0
 15 39  1  0  0  0  0
 15 40  1  0  0  0  0
 17 18  2  0  0  0  0
 17 19  1  0  0  0  0
 18 20  1  0  0  0  0
 18 21  1  0  0  0  0
 19 22  2  0  0  0  0
 19 41  1  0  0  0  0
 20 23  2  0  0  0  0
 20 24  1  0  0  0  0
 21 42  1  0  0  0  0
 21 43  1  0  0  0  0
 21 44  1  0  0  0  0
 22 23  1  0  0  0  0
 22 45  1  0  0  0  0
 23 46  1  0  0  0  0
 24 25  2  0  0  0  0
 24 26  1  0  0  0  0
 25 27  1  0  0  0  0
 25 47  1  0  0  0  0
 26 28  2  0  0  0  0
 26 48  1  0  0  0  0
 27 29  2  0  0  0  0
 27 49  1  0  0  0  0
 28 29  1  0  0  0  0
 28 50  1  0  0  0  0
 29 51  1  0  0  0  0
M  END
> <PUBCHEM_COMPOUND_CID>
5281872

> <PUBCHEM_COMPOUND_CANONICALIZED>
1

> <PUBCHEM_CACTVS_COMPLEXITY>
622

> <PUBCHEM_CACTVS_HBOND_ACCEPTOR>
5

> <PUBCHEM_CACTVS_HBOND_DONOR>
0

> <PUBCHEM_CACTVS_ROTATABLE_BOND>
6

> <PUBCHEM_CACTVS_SUBSKEYS>
AAADceB4MYAEAAAAAAAAAAAAGAAAAAAAAAAwYAAAAAAAAAABQAAAGwIAAAAADwKgmBIyCIAABACIAiDSCAACAAAgAAAIiAEACIgIJjKAMRiCMAAkwAEIqAeIwPAPgAACAAAQAAAAAAQAACAAAAAAAAAAAA==

> <PUBCHEM_IUPAC_OPENEYE_NAME>
(2-methyl-3-phenyl-phenyl)methyl 3-[(Z)-2-chloro-3,3,3-trifluoro-prop-1-enyl]-2,2-dimethyl-cyclopropanecarboxylate

> <PUBCHEM_IUPAC_CAS_NAME>
3-[(Z)-2-chloro-3,3,3-trifluoroprop-1-enyl]-2,2-dimethyl-1-cyclopropanecarboxylic acid (2-methyl-3-phenylphenyl)methyl ester

> <PUBCHEM_IUPAC_NAME>
(2-methyl-3-phenylphenyl)methyl 3-[(Z)-2-chloro-3,3,3-trifluoroprop-1-enyl]-2,2-dimethylcyclopropane-1-carboxylate

> <PUBCHEM_IUPAC_SYSTEMATIC_NAME>
(2-methyl-3-phenyl-phenyl)methyl 3-[(Z)-2-chloranyl-3,3,3-tris(fluoranyl)prop-1-enyl]-2,2-dimethyl-cyclopropane-1-carboxylate

> <PUBCHEM_IUPAC_TRADITIONAL_NAME>
3-[(Z)-2-chloro-3,3,3-trifluoro-prop-1-enyl]-2,2-dimethyl-cyclopropanecarboxylic acid (2-methyl-3-phenyl-benzyl) ester

> <PUBCHEM_IUPAC_INCHI>
InChI=1S/C23H22ClF3O2/c1-14-16(10-7-11-17(14)15-8-5-4-6-9-15)13-29-21(28)20-18(22(20,2)3)12-19(24)23(25,26)27/h4-12,18,20H,13H2,1-3H3/b19-12-

> <PUBCHEM_IUPAC_INCHIKEY>
OMFRMAHOUUJSGP-UNOMPAQXSA-N

> <PUBCHEM_XLOGP3>
6

> <PUBCHEM_EXACT_MASS>
422.126042

> <PUBCHEM_MOLECULAR_FORMULA>
C23H22ClF3O2

> <PUBCHEM_MOLECULAR_WEIGHT>
422.86779

> <PUBCHEM_OPENEYE_CAN_SMILES>
CC1=C(C=CC=C1COC(=O)C2C(C2(C)C)C=C(C(F)(F)F)Cl)C3=CC=CC=C3

> <PUBCHEM_OPENEYE_ISO_SMILES>
CC1=C(C=CC=C1COC(=O)C2C(C2(C)C)/C=C(/C(F)(F)F)\Cl)C3=CC=CC=C3

> <PUBCHEM_CACTVS_TPSA>
26.3

> <PUBCHEM_MONOISOTOPIC_WEIGHT>
422.126042

> <PUBCHEM_TOTAL_CHARGE>
0

> <PUBCHEM_HEAVY_ATOM_COUNT>
29

> <PUBCHEM_ATOM_DEF_STEREO_COUNT>
0

> <PUBCHEM_ATOM_UDEF_STEREO_COUNT>
2

> <PUBCHEM_BOND_DEF_STEREO_COUNT>
1

> <PUBCHEM_BOND_UDEF_STEREO_COUNT>
0

> <PUBCHEM_ISOTOPIC_ATOM_COUNT>
0

> <PUBCHEM_COMPONENT_COUNT>
1

> <PUBCHEM_CACTVS_TAUTO_COUNT>
1

> <PUBCHEM_COORDINATE_TYPE>
1
5
255

> <PUBCHEM_BONDANNOTATIONS>
17  18  8
17  19  8
18  20  8
19  22  8
20  23  8
22  23  8
24  25  8
24  26  8
25  27  8
26  28  8
27  29  8
28  29  8
8  12  3
9  13  3

$$$$

