20501
  -OEChem-07051212462D

 19 19  0     0  0  0  0  0  0999 V2000
    3.9726   -1.8876    0.0000 O   0  0  0  0  0  0  0  0  0  0  0  0
    2.5123   -0.7230    0.0000 O   0  0  0  0  0  0  0  0  0  0  0  0
    3.9726    2.3093    0.0000 O   0  0  0  0  0  0  0  0  0  0  0  0
    7.1039    1.0769    0.0000 O   0  0  0  0  0  0  0  0  0  0  0  0
    7.1039   -0.6552    0.0000 O   0  0  0  0  0  0  0  0  0  0  0  0
    5.6039    0.2109    0.0000 C   0  0  0  0  0  0  0  0  0  0  0  0
    5.1700   -0.6901    0.0000 C   0  0  0  0  0  0  0  0  0  0  0  0
    4.1951   -0.9126    0.0000 C   0  0  0  0  0  0  0  0  0  0  0  0
    5.1700    1.1118    0.0000 C   0  0  0  0  0  0  0  0  0  0  0  0
    3.4132   -0.2891    0.0000 C   0  0  0  0  0  0  0  0  0  0  0  0
    4.1951    1.3343    0.0000 C   0  0  0  0  0  0  0  0  0  0  0  0
    3.4132    0.7109    0.0000 C   0  0  0  0  0  0  0  0  0  0  0  0
    6.6039    0.2109    0.0000 C   0  0  0  0  0  0  0  0  0  0  0  0
    5.5566   -1.1748    0.0000 H   0  0  0  0  0  0  0  0  0  0  0  0
    5.5566    1.5966    0.0000 H   0  0  0  0  0  0  0  0  0  0  0  0
    2.8546    0.9799    0.0000 H   0  0  0  0  0  0  0  0  0  0  0  0
    4.4270   -2.3093    0.0000 H   0  0  0  0  0  0  0  0  0  0  0  0
    2.0000   -0.3738    0.0000 H   0  0  0  0  0  0  0  0  0  0  0  0
    7.7239    1.0769    0.0000 H   0  0  0  0  0  0  0  0  0  0  0  0
  1  8  1  0  0  0  0
  1 17  1  0  0  0  0
  2 10  1  0  0  0  0
  2 18  1  0  0  0  0
  3 11  2  0  0  0  0
  4 13  1  0  0  0  0
  4 19  1  0  0  0  0
  5 13  2  0  0  0  0
  6  7  1  0  0  0  0
  6  9  2  0  0  0  0
  6 13  1  0  0  0  0
  7  8  2  0  0  0  0
  7 14  1  0  0  0  0
  8 10  1  0  0  0  0
  9 11  1  0  0  0  0
  9 15  1  0  0  0  0
 10 12  2  0  0  0  0
 11 12  1  0  0  0  0
 12 16  1  0  0  0  0
M  END
> <PUBCHEM_COMPOUND_CID>
20501

> <PUBCHEM_COMPOUND_CANONICALIZED>
1

> <PUBCHEM_CACTVS_COMPLEXITY>
359

> <PUBCHEM_CACTVS_HBOND_ACCEPTOR>
5

> <PUBCHEM_CACTVS_HBOND_DONOR>
3

> <PUBCHEM_CACTVS_ROTATABLE_BOND>
1

> <PUBCHEM_CACTVS_SUBSKEYS>
AAADcYBwOAAAAAAAAAAAAAAAAAAAAAAAAAAAAAAABAAAAAAAAAAAGgAACAAADASAgAAACAAAAgCIAqDSCAAAAAAgIAAACAEAAEgJBAAAAQAAUAAAQAAJkYIAAAAAAAAAAAAAAAAAAAAAAAAAAAAAAAAAAA==

> <PUBCHEM_IUPAC_OPENEYE_NAME>
5,6-dihydroxy-3-oxo-cyclohepta-1,4,6-triene-1-carboxylic acid

> <PUBCHEM_IUPAC_CAS_NAME>
5,6-dihydroxy-3-oxo-1-cyclohepta-1,4,6-trienecarboxylic acid

> <PUBCHEM_IUPAC_NAME>
5,6-dihydroxy-3-oxocyclohepta-1,4,6-triene-1-carboxylic acid

> <PUBCHEM_IUPAC_SYSTEMATIC_NAME>
5,6-bis(oxidanyl)-3-oxidanylidene-cyclohepta-1,4,6-triene-1-carboxylic acid

> <PUBCHEM_IUPAC_TRADITIONAL_NAME>
5,6-dihydroxy-3-keto-cyclohepta-1,4,6-triene-1-carboxylic acid

> <PUBCHEM_IUPAC_INCHI>
InChI=1S/C8H6O5/c9-5-1-4(8(12)13)2-6(10)7(11)3-5/h1-3,10-11H,(H,12,13)

> <PUBCHEM_IUPAC_INCHIKEY>
ZGKNMKBZOSTFCB-UHFFFAOYSA-N

> <PUBCHEM_XLOGP3_AA>
-0.4

> <PUBCHEM_EXACT_MASS>
182.021523

> <PUBCHEM_MOLECULAR_FORMULA>
C8H6O5

> <PUBCHEM_MOLECULAR_WEIGHT>
182.13024

> <PUBCHEM_OPENEYE_CAN_SMILES>
C1=C(C=C(C(=CC1=O)O)O)C(=O)O

> <PUBCHEM_OPENEYE_ISO_SMILES>
C1=C(C=C(C(=CC1=O)O)O)C(=O)O

> <PUBCHEM_CACTVS_TPSA>
94.8

> <PUBCHEM_MONOISOTOPIC_WEIGHT>
182.021523

> <PUBCHEM_TOTAL_CHARGE>
0

> <PUBCHEM_HEAVY_ATOM_COUNT>
13

> <PUBCHEM_ATOM_DEF_STEREO_COUNT>
0

> <PUBCHEM_ATOM_UDEF_STEREO_COUNT>
0

> <PUBCHEM_BOND_DEF_STEREO_COUNT>
0

> <PUBCHEM_BOND_UDEF_STEREO_COUNT>
0

> <PUBCHEM_ISOTOPIC_ATOM_COUNT>
0

> <PUBCHEM_COMPONENT_COUNT>
1

> <PUBCHEM_CACTVS_TAUTO_COUNT>
11

> <PUBCHEM_COORDINATE_TYPE>
1
5
255

> <PUBCHEM_BONDANNOTATIONS>
10  12  8
11  12  8
6  7  8
6  9  8
7  8  8
8  10  8
9  11  8

$$$$

