17395447
  -OEChem-06241222503D

 46 48  0     1  0  0  0  0  0999 V2000
   -5.3191   -1.8632    0.5017 S   0  0  0  0  0  0  0  0  0  0  0  0
   -5.5940   -3.1523   -0.0977 O   0  0  0  0  0  0  0  0  0  0  0  0
   -5.7341   -1.5314    1.8490 O   0  0  0  0  0  0  0  0  0  0  0  0
   -2.6458    1.1970    1.1703 O   0  0  0  0  0  0  0  0  0  0  0  0
    2.9401    1.0576    0.0730 O   0  0  0  0  0  0  0  0  0  0  0  0
   -2.2328    0.1520   -0.8807 N   0  0  0  0  0  0  0  0  0  0  0  0
   -3.4636   -0.5880   -0.8734 C   0  0  1  0  0  0  0  0  0  0  0  0
   -3.5745   -1.5115    0.3391 C   0  0  0  0  0  0  0  0  0  0  0  0
   -4.6875    0.3298   -0.8177 C   0  0  0  0  0  0  0  0  0  0  0  0
   -5.8893   -0.5840   -0.6079 C   0  0  0  0  0  0  0  0  0  0  0  0
   -1.3625   -0.0538   -2.0434 C   0  0  0  0  0  0  0  0  0  0  0  0
   -1.9280    1.0113    0.1883 C   0  0  0  0  0  0  0  0  0  0  0  0
   -0.6522    1.7444    0.1664 C   0  0  0  0  0  0  0  0  0  0  0  0
    0.5540    1.0448    0.1301 C   0  0  0  0  0  0  0  0  0  0  0  0
   -0.6493    3.1391    0.1814 C   0  0  0  0  0  0  0  0  0  0  0  0
    1.7630    1.7399    0.1086 C   0  0  0  0  0  0  0  0  0  0  0  0
    0.5597    3.8344    0.1601 C   0  0  0  0  0  0  0  0  0  0  0  0
    1.7658    3.1347    0.1236 C   0  0  0  0  0  0  0  0  0  0  0  0
    2.8647   -0.3670    0.0594 C   0  0  0  0  0  0  0  0  0  0  0  0
    4.2551   -0.9311    0.0520 C   0  0  0  0  0  0  0  0  0  0  0  0
    4.8994   -1.1819   -1.1594 C   0  0  0  0  0  0  0  0  0  0  0  0
    4.9032   -1.2050    1.2564 C   0  0  0  0  0  0  0  0  0  0  0  0
    6.1920   -1.7063   -1.1665 C   0  0  0  0  0  0  0  0  0  0  0  0
    6.1957   -1.7295    1.2493 C   0  0  0  0  0  0  0  0  0  0  0  0
    6.8401   -1.9801    0.0378 C   0  0  0  0  0  0  0  0  0  0  0  0
   -3.5294   -1.2006   -1.7829 H   0  0  0  0  0  0  0  0  0  0  0  0
   -3.2458   -1.0766    1.2844 H   0  0  0  0  0  0  0  0  0  0  0  0
   -3.0337   -2.4490    0.1823 H   0  0  0  0  0  0  0  0  0  0  0  0
   -4.6516    1.0461    0.0078 H   0  0  0  0  0  0  0  0  0  0  0  0
   -4.7947    0.9147   -1.7377 H   0  0  0  0  0  0  0  0  0  0  0  0
   -6.1867   -1.0625   -1.5456 H   0  0  0  0  0  0  0  0  0  0  0  0
   -6.7417   -0.0634   -0.1669 H   0  0  0  0  0  0  0  0  0  0  0  0
   -1.9768   -0.0907   -2.9489 H   0  0  0  0  0  0  0  0  0  0  0  0
   -0.6413    0.7532   -2.1770 H   0  0  0  0  0  0  0  0  0  0  0  0
   -0.8398   -1.0063   -1.9195 H   0  0  0  0  0  0  0  0  0  0  0  0
    0.4938   -0.0383    0.1382 H   0  0  0  0  0  0  0  0  0  0  0  0
   -1.5827    3.6955    0.2073 H   0  0  0  0  0  0  0  0  0  0  0  0
    0.5620    4.9204    0.1712 H   0  0  0  0  0  0  0  0  0  0  0  0
    2.7045    3.6817    0.1069 H   0  0  0  0  0  0  0  0  0  0  0  0
    2.3493   -0.7410    0.9541 H   0  0  0  0  0  0  0  0  0  0  0  0
    2.3375   -0.7209   -0.8366 H   0  0  0  0  0  0  0  0  0  0  0  0
    4.4061   -0.9707   -2.1045 H   0  0  0  0  0  0  0  0  0  0  0  0
    4.4131   -1.0119    2.2070 H   0  0  0  0  0  0  0  0  0  0  0  0
    6.6940   -1.9009   -2.1098 H   0  0  0  0  0  0  0  0  0  0  0  0
    6.7007   -1.9421    2.1870 H   0  0  0  0  0  0  0  0  0  0  0  0
    7.8467   -2.3880    0.0324 H   0  0  0  0  0  0  0  0  0  0  0  0
  1  2  2  0  0  0  0
  1  3  2  0  0  0  0
  1  8  1  0  0  0  0
  1 10  1  0  0  0  0
  4 12  2  0  0  0  0
  5 16  1  0  0  0  0
  5 19  1  0  0  0  0
  6  7  1  0  0  0  0
  6 11  1  0  0  0  0
  6 12  1  0  0  0  0
  7  8  1  0  0  0  0
  7  9  1  0  0  0  0
  7 26  1  0  0  0  0
  8 27  1  0  0  0  0
  8 28  1  0  0  0  0
  9 10  1  0  0  0  0
  9 29  1  0  0  0  0
  9 30  1  0  0  0  0
 10 31  1  0  0  0  0
 10 32  1  0  0  0  0
 11 33  1  0  0  0  0
 11 34  1  0  0  0  0
 11 35  1  0  0  0  0
 12 13  1  0  0  0  0
 13 14  2  0  0  0  0
 13 15  1  0  0  0  0
 14 16  1  0  0  0  0
 14 36  1  0  0  0  0
 15 17  2  0  0  0  0
 15 37  1  0  0  0  0
 16 18  2  0  0  0  0
 17 18  1  0  0  0  0
 17 38  1  0  0  0  0
 18 39  1  0  0  0  0
 19 20  1  0  0  0  0
 19 40  1  0  0  0  0
 19 41  1  0  0  0  0
 20 21  2  0  0  0  0
 20 22  1  0  0  0  0
 21 23  1  0  0  0  0
 21 42  1  0  0  0  0
 22 24  2  0  0  0  0
 22 43  1  0  0  0  0
 23 25  2  0  0  0  0
 23 44  1  0  0  0  0
 24 25  1  0  0  0  0
 24 45  1  0  0  0  0
 25 46  1  0  0  0  0
M  END
> <PUBCHEM_COMPOUND_CID>
17395447

> <PUBCHEM_CONFORMER_RMSD>
1

> <PUBCHEM_CONFORMER_DIVERSEORDER>
1
183
231
518
538
23
457
409
28
151
252
105
203
410
140
234
451
129
111
36
145
537
205
292
382
56
342
542
237
212
193
522
320
247
257
346
556
58
4
209
177
21
507
359
371
544
218
97
377
63
165
16
402
415
519
438
531
95
432
291
211
281
487
520
424
275
204
527
312
34
394
268
9
55
543
54
294
419
385
470
505
242
98
168
59
436
149
296
35
67
52
120
502
485
465
526
319
186
489
227
184
561
18
499
49
435
38
65
464
93
496
125
517
530
37
395
103
255
475
420
107
20
270
185
61
462
264
174
210
362
411
15
510
133
354
222
284
417
494
208
404
87
271
550
298
278
295
506
7
380
182
48
439
189
50
153
122
17
146
171
332
471
5
261
474
10
117
3
27
86
82
11
267
455
338
430
245
76
516
118
6
478
207
99
135
2
324
525
53
225
176
31
114

> <PUBCHEM_MMFF94_PARTIAL_CHARGES>
33
1 1.09
10 0.11
11 0.3
12 0.54
13 0.09
14 -0.15
15 -0.15
16 0.08
17 -0.15
18 -0.15
19 0.42
2 -0.65
20 -0.14
21 -0.15
22 -0.15
23 -0.15
24 -0.15
25 -0.15
3 -0.65
36 0.15
37 0.15
38 0.15
39 0.15
4 -0.57
42 0.15
43 0.15
44 0.15
45 0.15
46 0.15
5 -0.36
6 -0.66
7 0.3
8 0.11

> <PUBCHEM_EFFECTIVE_ROTOR_COUNT>
6.8

> <PUBCHEM_PHARMACOPHORE_FEATURES>
7
1 2 acceptor
1 3 acceptor
1 4 acceptor
1 5 acceptor
5 1 7 8 9 10 rings
6 13 14 15 16 17 18 rings
6 20 21 22 23 24 25 rings

> <PUBCHEM_HEAVY_ATOM_COUNT>
25

> <PUBCHEM_ATOM_DEF_STEREO_COUNT>
0

> <PUBCHEM_ATOM_UDEF_STEREO_COUNT>
1

> <PUBCHEM_BOND_DEF_STEREO_COUNT>
0

> <PUBCHEM_BOND_UDEF_STEREO_COUNT>
0

> <PUBCHEM_ISOTOPIC_ATOM_COUNT>
0

> <PUBCHEM_COMPONENT_COUNT>
1

> <PUBCHEM_CACTVS_TAUTO_COUNT>
1

> <PUBCHEM_CONFORMER_ID>
01096EF700000001

> <PUBCHEM_MMFF94_ENERGY>
79.2702

> <PUBCHEM_FEATURE_SELFOVERLAP>
35.536

> <PUBCHEM_SHAPE_FINGERPRINT>
10050765 1 18410576193003252408
11135926 11 18120107082797459468
11809386 21 18199192969649325240
12107183 9 18334845144223507057
12166972 35 17918269849028514598
12422481 6 17385436648341202045
12596602 18 14129063620770625182
12760667 363 18408045126030514853
13533116 47 18265330595720507417
13540713 4 18267326303261307197
13673619 4 18131350791617936967
13690498 29 18060422426060132463
13782708 43 18060144189367943475
13955234 65 18047190743701676465
14123256 34 18410568500789859782
14251764 30 18413672396070980639
14420673 8 18412824690508533939
14866123 147 18265331888564205601
15042514 8 18262518233512807084
15183329 4 14620796037450053882
15721738 202 17967535662761572248
15927050 60 17759803650666758830
16992752 21 18337099134475956684
17138139 8 17846785104986381722
17492 89 18265897956652768817
17686467 74 18410581708837441424
17980427 23 5328452722542532137
1813 80 18261387871435260932
193927 3 18334294279722350652
19784866 240 18411698790073956405
1979834 28 17313093146978680814
19841028 212 18192999219251694107
20028762 73 18259985946486008822
20567600 70 18341056224946838386
20832881 197 18342740706704101441
21033650 10 16773526567570177605
21682296 61 18409166580952557471
229767 8 17912915098701030771
23198884 109 15410612627065917703
23559900 14 18340495448299908385
249999 5 18190748518775420768
270888 7 9223234043966911490
2747138 104 18335144211454684282
2748736 6 9151176428486120466
2838139 119 10375870745150315770
3004659 81 18131071541471306198
312425 54 16081088186254666126
329604 57 18342173384737528478
3421961 26 18336550404383980488
3459 39 9367057823212876510
3862424 121 16700030645289152851
4107672 100 17060064800185400167
437815 12 18410580591249210589
439807 62 17918273164400765211
46194498 28 17488466282512120572
465052 167 18333726888582867670
5104073 3 18114178627178622249
5219985 13 9367342643826699248
5486654 36 18412254056542064025
559249 180 18335987575106153845
56633871 153 17967817124015104607
6697151 62 18191613928751944733
77188 2 18409450267384543788
7970288 3 18411422838557602882
8863177 126 18129093429648147363

> <PUBCHEM_SHAPE_MULTIPOLES>
489.88
16.85
3.71
1.29
8.11
3.02
-0.13
-19.95
1.28
-0.28
0.62
-0.11
-0.53
0.61

> <PUBCHEM_SHAPE_SELFOVERLAP>
1033.413

> <PUBCHEM_SHAPE_VOLUME>
276.1

> <PUBCHEM_COORDINATE_TYPE>
2
5
10

$$$$

