236536
  -OEChem-07051213073D

 52 55  0     1  0  0  0  0  0999 V2000
    5.4034   -0.8773    0.4663 O   0  0  0  0  0  0  0  0  0  0  0  0
   -5.3891   -0.3098    0.9522 O   0  0  0  0  0  0  0  0  0  0  0  0
    2.1484    0.7574    0.3208 C   0  0  2  0  0  0  0  0  0  0  0  0
    3.0005   -0.5000    0.0622 C   0  0  2  0  0  0  0  0  0  0  0  0
    0.7855    0.6979   -0.3752 C   0  0  1  0  0  0  0  0  0  0  0  0
   -0.0005   -0.5374    0.1629 C   0  0  1  0  0  0  0  0  0  0  0  0
   -1.4521   -0.6598   -0.4501 C   0  0  2  0  0  0  0  0  0  0  0  0
    2.2582   -1.7058    0.6511 C   0  0  0  0  0  0  0  0  0  0  0  0
    0.8412   -1.8408    0.0634 C   0  0  0  0  0  0  0  0  0  0  0  0
    4.2791   -0.0958    0.8210 C   0  0  2  0  0  0  0  0  0  0  0  0
    3.1009    1.9055   -0.0029 C   0  0  0  0  0  0  0  0  0  0  0  0
   -0.0223    1.9779   -0.1412 C   0  0  0  0  0  0  0  0  0  0  0  0
    4.4767    1.3883    0.4556 C   0  0  0  0  0  0  0  0  0  0  0  0
   -2.1879    0.6922   -0.3104 C   0  0  0  0  0  0  0  0  0  0  0  0
   -1.3889    1.8852   -0.8066 C   0  0  0  0  0  0  0  0  0  0  0  0
    3.3219   -0.7690   -1.4300 C   0  0  0  0  0  0  0  0  0  0  0  0
   -2.2050   -1.7685    0.3328 C   0  0  0  0  0  0  0  0  0  0  0  0
   -1.4134   -1.0489   -1.9466 C   0  0  0  0  0  0  0  0  0  0  0  0
   -3.4442    0.8250    0.1767 C   0  0  0  0  0  0  0  0  0  0  0  0
   -3.7000   -1.7444    0.0982 C   0  0  0  0  0  0  0  0  0  0  0  0
   -4.2576   -0.4005    0.4762 C   0  0  0  0  0  0  0  0  0  0  0  0
   -4.1547    2.1287    0.4235 C   0  0  0  0  0  0  0  0  0  0  0  0
    1.9488    0.8262    1.4036 H   0  0  0  0  0  0  0  0  0  0  0  0
    0.9387    0.5966   -1.4551 H   0  0  0  0  0  0  0  0  0  0  0  0
   -0.1366   -0.3588    1.2423 H   0  0  0  0  0  0  0  0  0  0  0  0
    2.1740   -1.6001    1.7405 H   0  0  0  0  0  0  0  0  0  0  0  0
    2.8193   -2.6312    0.4740 H   0  0  0  0  0  0  0  0  0  0  0  0
    0.9164   -2.1637   -0.9797 H   0  0  0  0  0  0  0  0  0  0  0  0
    0.3400   -2.6528    0.6014 H   0  0  0  0  0  0  0  0  0  0  0  0
    4.1368   -0.1815    1.9058 H   0  0  0  0  0  0  0  0  0  0  0  0
    2.8273    2.8263    0.5221 H   0  0  0  0  0  0  0  0  0  0  0  0
    3.1139    2.1265   -1.0759 H   0  0  0  0  0  0  0  0  0  0  0  0
    0.5129    2.8406   -0.5549 H   0  0  0  0  0  0  0  0  0  0  0  0
   -0.1435    2.1629    0.9339 H   0  0  0  0  0  0  0  0  0  0  0  0
    5.2262    1.5224   -0.3325 H   0  0  0  0  0  0  0  0  0  0  0  0
    4.8310    1.9462    1.3297 H   0  0  0  0  0  0  0  0  0  0  0  0
   -1.2606    1.7947   -1.8927 H   0  0  0  0  0  0  0  0  0  0  0  0
   -1.9055    2.8372   -0.6632 H   0  0  0  0  0  0  0  0  0  0  0  0
    3.8971    0.0425   -1.8868 H   0  0  0  0  0  0  0  0  0  0  0  0
    3.9162   -1.6839   -1.5378 H   0  0  0  0  0  0  0  0  0  0  0  0
    2.4241   -0.9024   -2.0392 H   0  0  0  0  0  0  0  0  0  0  0  0
   -2.0241   -1.6487    1.4102 H   0  0  0  0  0  0  0  0  0  0  0  0
   -1.8281   -2.7621    0.0627 H   0  0  0  0  0  0  0  0  0  0  0  0
   -0.7504   -0.4027   -2.5293 H   0  0  0  0  0  0  0  0  0  0  0  0
   -1.0672   -2.0786   -2.0862 H   0  0  0  0  0  0  0  0  0  0  0  0
   -2.4064   -0.9803   -2.4056 H   0  0  0  0  0  0  0  0  0  0  0  0
   -4.1734   -2.5064    0.7278 H   0  0  0  0  0  0  0  0  0  0  0  0
   -3.9610   -1.9572   -0.9429 H   0  0  0  0  0  0  0  0  0  0  0  0
    5.1973   -1.8020    0.6850 H   0  0  0  0  0  0  0  0  0  0  0  0
   -3.4689    2.9453    0.6631 H   0  0  0  0  0  0  0  0  0  0  0  0
   -4.8275    2.0594    1.2852 H   0  0  0  0  0  0  0  0  0  0  0  0
   -4.7484    2.4078   -0.4524 H   0  0  0  0  0  0  0  0  0  0  0  0
  1 10  1  0  0  0  0
  1 49  1  0  0  0  0
  2 21  2  0  0  0  0
  3  4  1  0  0  0  0
  3  5  1  0  0  0  0
  3 11  1  0  0  0  0
  3 23  1  0  0  0  0
  4  8  1  0  0  0  0
  4 10  1  0  0  0  0
  4 16  1  0  0  0  0
  5  6  1  0  0  0  0
  5 12  1  0  0  0  0
  5 24  1  0  0  0  0
  6  7  1  0  0  0  0
  6  9  1  0  0  0  0
  6 25  1  0  0  0  0
  7 14  1  0  0  0  0
  7 17  1  0  0  0  0
  7 18  1  0  0  0  0
  8  9  1  0  0  0  0
  8 26  1  0  0  0  0
  8 27  1  0  0  0  0
  9 28  1  0  0  0  0
  9 29  1  0  0  0  0
 10 13  1  0  0  0  0
 10 30  1  0  0  0  0
 11 13  1  0  0  0  0
 11 31  1  0  0  0  0
 11 32  1  0  0  0  0
 12 15  1  0  0  0  0
 12 33  1  0  0  0  0
 12 34  1  0  0  0  0
 13 35  1  0  0  0  0
 13 36  1  0  0  0  0
 14 15  1  0  0  0  0
 14 19  2  0  0  0  0
 15 37  1  0  0  0  0
 15 38  1  0  0  0  0
 16 39  1  0  0  0  0
 16 40  1  0  0  0  0
 16 41  1  0  0  0  0
 17 20  1  0  0  0  0
 17 42  1  0  0  0  0
 17 43  1  0  0  0  0
 18 44  1  0  0  0  0
 18 45  1  0  0  0  0
 18 46  1  0  0  0  0
 19 21  1  0  0  0  0
 19 22  1  0  0  0  0
 20 21  1  0  0  0  0
 20 47  1  0  0  0  0
 20 48  1  0  0  0  0
 22 50  1  0  0  0  0
 22 51  1  0  0  0  0
 22 52  1  0  0  0  0
M  END
> <PUBCHEM_COMPOUND_CID>
236536

> <PUBCHEM_CONFORMER_RMSD>
0.6

> <PUBCHEM_CONFORMER_DIVERSEORDER>
1

> <PUBCHEM_MMFF94_PARTIAL_CHARGES>
11
1 -0.68
10 0.28
14 -0.28
15 0.14
19 -0.12
2 -0.57
20 0.06
21 0.49
22 0.14
49 0.4
7 0.14

> <PUBCHEM_EFFECTIVE_ROTOR_COUNT>
1.8

> <PUBCHEM_PHARMACOPHORE_FEATURES>
7
1 1 acceptor
1 1 donor
1 2 acceptor
5 3 4 10 11 13 rings
6 3 4 5 6 8 9 rings
6 5 6 7 12 14 15 rings
6 7 14 17 19 20 21 rings

> <PUBCHEM_HEAVY_ATOM_COUNT>
22

> <PUBCHEM_ATOM_DEF_STEREO_COUNT>
6

> <PUBCHEM_ATOM_UDEF_STEREO_COUNT>
0

> <PUBCHEM_BOND_DEF_STEREO_COUNT>
0

> <PUBCHEM_BOND_UDEF_STEREO_COUNT>
0

> <PUBCHEM_ISOTOPIC_ATOM_COUNT>
0

> <PUBCHEM_COMPONENT_COUNT>
1

> <PUBCHEM_CACTVS_TAUTO_COUNT>
5

> <PUBCHEM_CONFORMER_ID>
00039BF800000001

> <PUBCHEM_MMFF94_ENERGY>
71.0892

> <PUBCHEM_FEATURE_SELFOVERLAP>
35.616

> <PUBCHEM_SHAPE_FINGERPRINT>
10616163 171 18411138030474786619
10967382 1 18412827962561034740
11132069 177 18412824694333613101
12011746 2 18413393150904541543
12107183 9 17906736156530899539
12236239 1 18113338579194314167
12251169 10 18411134723798049753
12403259 415 18409457972998335032
12403814 3 18334020466977826295
12507560 40 18334009506057860333
12553582 1 18343029886366649212
12633257 1 18341617082623393585
12670546 56 18408608037350413819
13140716 1 18411141320509575144
13214271 11 18410298016686882527
13221675 6 18411421742997355934
13224815 77 18343306959170745092
13583140 156 18272101529794392445
13675066 3 18187086143836123912
14223421 5 18270402822620239007
14341114 176 18341890775135155592
14787075 74 18268711623465761137
14790565 3 18125150538054380772
15196674 1 18411983550769174720
15209289 33 18131351916435391778
15536298 74 18335417958867357156
15788980 27 15913330208167565941
16945 1 18268155429421933004
17349148 13 16988844999247165392
1813 80 17060615603227496557
18186145 218 18272941513886602190
19141452 34 18187364294582416463
19591789 44 18411703153713269258
20028762 73 18263359188637248519
20261772 1 18335422348260656070
21033648 29 17385735724267945763
21267235 1 18413100662983175131
21421861 104 17844535615585305898
21637258 2 15554161468486244129
22854114 59 18412825776575662017
23184049 59 18334292059066003181
23227448 37 18335985285593010791
23402539 116 18410583863650370999
23557571 272 18334851723527705070
23559900 14 18262799708816188766
296302 2 5545196138153189762
335352 9 18339645662712300284
34934 24 18340494451577059477
350125 39 18413107269307650908
4214541 1 18411138052002364241
5104073 3 18411707582135821136
7097593 13 17555188204123362259
9709674 26 18410570673858721214

> <PUBCHEM_SHAPE_MULTIPOLES>
441.01
9.82
2.27
1.06
0.73
0.44
-0.41
0.38
2.78
-0.56
0.02
-0.01
-0.24
0.04

> <PUBCHEM_SHAPE_SELFOVERLAP>
944.72

> <PUBCHEM_SHAPE_VOLUME>
242.3

> <PUBCHEM_COORDINATE_TYPE>
2
5
10

$$$$

