11262655
  -OEChem-07051213123D

 39 39  0     1  0  0  0  0  0999 V2000
   -3.9084    2.6131   -0.2199 Cl  0  0  0  0  0  0  0  0  0  0  0  0
   -5.8347   -2.3428    0.6443 Cl  0  0  0  0  0  0  0  0  0  0  0  0
   -1.2954    1.1751   -0.5899 O   0  0  0  0  0  0  0  0  0  0  0  0
    1.0451    0.4027   -1.6068 O   0  0  0  0  0  0  0  0  0  0  0  0
    2.1310    0.5720    0.4362 N   0  0  0  0  0  0  0  0  0  0  0  0
    5.1013    0.1359    2.0204 N   0  0  0  0  0  0  0  0  0  0  0  0
    3.4303    0.1195   -0.0282 C   0  0  1  0  0  0  0  0  0  0  0  0
    3.3392   -1.3219   -0.6290 C   0  0  0  0  0  0  0  0  0  0  0  0
    3.9601    1.1296   -1.0622 C   0  0  0  0  0  0  0  0  0  0  0  0
    2.7961   -2.3623    0.3614 C   0  0  0  0  0  0  0  0  0  0  0  0
    4.6827   -1.8292   -1.1816 C   0  0  0  0  0  0  0  0  0  0  0  0
    1.0415    0.6736   -0.4079 C   0  0  0  0  0  0  0  0  0  0  0  0
   -0.2086    1.1467    0.3202 C   0  0  1  0  0  0  0  0  0  0  0  0
    4.3669    0.1278    1.1215 C   0  0  0  0  0  0  0  0  0  0  0  0
   -0.0202    2.5477    0.8802 C   0  0  0  0  0  0  0  0  0  0  0  0
   -2.3695    0.3717   -0.3004 C   0  0  0  0  0  0  0  0  0  0  0  0
   -3.6352    0.9137   -0.1059 C   0  0  0  0  0  0  0  0  0  0  0  0
   -2.1643   -1.0004   -0.2066 C   0  0  0  0  0  0  0  0  0  0  0  0
   -4.7092    0.0729    0.1864 C   0  0  0  0  0  0  0  0  0  0  0  0
   -3.2381   -1.8411    0.0857 C   0  0  0  0  0  0  0  0  0  0  0  0
   -4.5107   -1.3044    0.2822 C   0  0  0  0  0  0  0  0  0  0  0  0
    2.6532   -1.3185   -1.4835 H   0  0  0  0  0  0  0  0  0  0  0  0
    2.0126    0.7784    1.4243 H   0  0  0  0  0  0  0  0  0  0  0  0
    3.8717    2.1586   -0.6901 H   0  0  0  0  0  0  0  0  0  0  0  0
    5.0210    0.9695   -1.2873 H   0  0  0  0  0  0  0  0  0  0  0  0
    3.4148    1.0791   -2.0101 H   0  0  0  0  0  0  0  0  0  0  0  0
    2.6848   -3.3363   -0.1283 H   0  0  0  0  0  0  0  0  0  0  0  0
    3.4645   -2.4996    1.2175 H   0  0  0  0  0  0  0  0  0  0  0  0
    1.8093   -2.0779    0.7401 H   0  0  0  0  0  0  0  0  0  0  0  0
    4.5680   -2.8364   -1.5984 H   0  0  0  0  0  0  0  0  0  0  0  0
    5.0500   -1.1930   -1.9922 H   0  0  0  0  0  0  0  0  0  0  0  0
    5.4533   -1.8820   -0.4061 H   0  0  0  0  0  0  0  0  0  0  0  0
   -0.3925    0.4622    1.1598 H   0  0  0  0  0  0  0  0  0  0  0  0
   -0.9476    2.9053    1.3403 H   0  0  0  0  0  0  0  0  0  0  0  0
    0.2302    3.2552    0.0812 H   0  0  0  0  0  0  0  0  0  0  0  0
    0.7726    2.5941    1.6325 H   0  0  0  0  0  0  0  0  0  0  0  0
   -1.1817   -1.4350   -0.3677 H   0  0  0  0  0  0  0  0  0  0  0  0
   -5.7022    0.4902    0.3399 H   0  0  0  0  0  0  0  0  0  0  0  0
   -3.0691   -2.9126    0.1552 H   0  0  0  0  0  0  0  0  0  0  0  0
  1 17  1  0  0  0  0
  2 21  1  0  0  0  0
  3 13  1  0  0  0  0
  3 16  1  0  0  0  0
  4 12  2  0  0  0  0
  5  7  1  0  0  0  0
  5 12  1  0  0  0  0
  5 23  1  0  0  0  0
  6 14  3  0  0  0  0
  7  8  1  0  0  0  0
  7  9  1  0  0  0  0
  7 14  1  0  0  0  0
  8 10  1  0  0  0  0
  8 11  1  0  0  0  0
  8 22  1  0  0  0  0
  9 24  1  0  0  0  0
  9 25  1  0  0  0  0
  9 26  1  0  0  0  0
 10 27  1  0  0  0  0
 10 28  1  0  0  0  0
 10 29  1  0  0  0  0
 11 30  1  0  0  0  0
 11 31  1  0  0  0  0
 11 32  1  0  0  0  0
 12 13  1  0  0  0  0
 13 15  1  0  0  0  0
 13 33  1  0  0  0  0
 15 34  1  0  0  0  0
 15 35  1  0  0  0  0
 15 36  1  0  0  0  0
 16 17  2  0  0  0  0
 16 18  1  0  0  0  0
 17 19  1  0  0  0  0
 18 20  2  0  0  0  0
 18 37  1  0  0  0  0
 19 21  2  0  0  0  0
 19 38  1  0  0  0  0
 20 21  1  0  0  0  0
 20 39  1  0  0  0  0
M  END
> <PUBCHEM_COMPOUND_CID>
11262655

> <PUBCHEM_CONFORMER_RMSD>
0.8

> <PUBCHEM_CONFORMER_DIVERSEORDER>
2
209
245
16
274
267
338
236
394
330
242
203
93
183
231
153
305
117
244
364
219
349
31
271
67
269
237
257
26
224
368
205
255
313
398
369
360
223
37
94
91
166
58
333
14
383
406
181
372
18
352
234
144
172
322
7
298
199
403
356
200
5
258
264
401
207
156
179
110
143
361
275
395
126
291
129
354
197
227
214
405
204
292
386
25
363
45
21
270
38
134
173
295
145
228
365
280
74
57
15
302
83
139
277
189
167
96
307
345
131
76
90
198
299
217
3
238
128
265
65
80
259
169
397
306
13
392
240
88
286
344
149
100
235
251
341
374
92
68
314
109
161
301
174
193
328
304
229
243
11
101
141
232
384
320
178
233
170
375
319
73
262
60
125
187
381
268
272
120
53
127
336
180
332
376
116
324
81
164
111
155
140
380
373
250
119
357
220
10
323
285
284
33
343
55
353
106
261
370
316
66
49
98
346
256
382
211
194
340
201
12
185
212
312
54
331
239
171
87
192
215
118
355
296
64
248
107
51
108
254
287
213
182
160
400
85
283
168
41
163
303
311
43
188
44
281
39
142
151
358
293
121
28
71
385
176
225
390
278
342
310
290
78
157
404
124
387
159
208
24
154
102
297
1
276
300
367
135
63
184
335
402
59
266
221
104
190
99
79
388
77
351
366
105
115
279
112
218
377
4
396
72
84
329
36
122
318
146
226
46
6
70
97
113
29
241
210
152
175
32
40
186
260
393
8
253
20
196
321
399
133
177
222
9
162
130
195
165
362
17
123
325
150
86
337
30
47
191
132
350
378
309
19
391
282
103
206
263
273
247
339
348
138
52
347
249
136
34
89
50
114
230
288
35
147
202
334
61
75
62
137
315
42
379
327
246
216
252
308
371
48
22
158
69
27
326
56
82
95
359
23
148
317
289
389
294

> <PUBCHEM_MMFF94_PARTIAL_CHARGES>
20
1 -0.18
12 0.57
13 0.34
14 0.36
16 0.08
17 0.18
18 -0.15
19 -0.15
2 -0.18
20 -0.15
21 0.18
23 0.37
3 -0.36
37 0.15
38 0.15
39 0.15
4 -0.57
5 -0.73
6 -0.56
7 0.5

> <PUBCHEM_EFFECTIVE_ROTOR_COUNT>
6

> <PUBCHEM_PHARMACOPHORE_FEATURES>
6
1 3 acceptor
1 4 acceptor
1 5 donor
1 6 acceptor
3 8 10 11 hydrophobe
6 16 17 18 19 20 21 rings

> <PUBCHEM_HEAVY_ATOM_COUNT>
21

> <PUBCHEM_ATOM_DEF_STEREO_COUNT>
0

> <PUBCHEM_ATOM_UDEF_STEREO_COUNT>
2

> <PUBCHEM_BOND_DEF_STEREO_COUNT>
0

> <PUBCHEM_BOND_UDEF_STEREO_COUNT>
0

> <PUBCHEM_ISOTOPIC_ATOM_COUNT>
0

> <PUBCHEM_COMPONENT_COUNT>
1

> <PUBCHEM_CACTVS_TAUTO_COUNT>
2

> <PUBCHEM_CONFORMER_ID>
00ABDABF00000002

> <PUBCHEM_MMFF94_ENERGY>
52.8525

> <PUBCHEM_FEATURE_SELFOVERLAP>
30.454

> <PUBCHEM_SHAPE_FINGERPRINT>
10616163 171 18410570733998800087
10912923 1 17846495932942946540
11796584 16 18272940439991829787
12107183 9 17838057365962169369
12236239 1 17704076183154192273
12507560 40 18187087277770761198
12596602 18 16660640722453538971
12892183 10 18113900480795770713
13167823 11 18413103970128916791
13533116 47 18190457161199657387
13583140 156 18040731259069808617
13675066 3 18187650218844318444
14178342 30 18124887999946349376
14252887 29 17748821917301299580
15196674 1 18411133658150684575
15342816 4 17847064380728365094
15537594 2 18114737136061856815
15788980 27 16415487072720009396
15880784 105 17095248016068621143
17492 89 18412259558141988198
17804303 29 18409725124290450133
1813 80 17632857520777794709
18681886 176 18341044126414576524
193927 3 18130777924537835683
20281475 54 18412822499452629957
20626108 58 17918003754240084712
21033648 29 17095818684415591601
21065199 12 18333453152952529619
21250096 35 18335421274682414435
21267235 1 18411125939989075574
23402539 116 16271654471917479052
23557571 272 18335409192881291342
23559900 14 18263361559294496492
239999 70 18334853927278763078
2838139 119 9078572343352586827
3004659 81 18202560674870153054
4214541 1 18411979204299343965
5104073 3 18187928434030483818
573450 72 18201725063181497617
633830 44 13829854676744350725
9709674 26 18342450417948272299

> <PUBCHEM_SHAPE_MULTIPOLES>
414.21
12.71
2.7
1.17
1.93
0.02
0.18
5.77
1.88
2.08
0.15
-1.67
-0.07
1.03

> <PUBCHEM_SHAPE_SELFOVERLAP>
829.616

> <PUBCHEM_SHAPE_VOLUME>
244.2

> <PUBCHEM_COORDINATE_TYPE>
2
5
10

$$$$

