441398
  -OEChem-07051212542D

 61 62  0     1  0  0  0  0  0999 V2000
   11.7355    5.3077    0.0000 Cl  0  0  0  0  0  0  0  0  0  0  0  0
    7.8357    8.8556    0.0000 S   0  0  0  0  0  0  0  0  0  0  0  0
    5.1707    6.8339    0.0000 O   0  0  0  0  0  0  0  0  0  0  0  0
    7.4756    5.5434    0.0000 O   0  0  0  0  0  0  0  0  0  0  0  0
    9.1228    6.0786    0.0000 O   0  0  0  0  0  0  0  0  0  0  0  0
    3.9434    8.0370    0.0000 O   0  0  0  0  0  0  0  0  0  0  0  0
    7.1154    3.8492    0.0000 O   0  0  0  0  0  0  0  0  0  0  0  0
    6.7553    2.1550    0.0000 O   0  0  0  0  0  0  0  0  0  0  0  0
    8.4026    2.6902    0.0000 O   0  0  0  0  0  0  0  0  0  0  0  0
    6.8846    7.5466    0.0000 N   0  0  0  0  0  0  0  0  0  0  0  0
    5.1707    9.2593    0.0000 N   0  0  0  0  0  0  0  0  0  0  0  0
    3.7594   10.6764    0.0000 N   0  0  0  0  0  0  0  0  0  0  0  0
    6.8846    8.5466    0.0000 C   0  0  1  0  0  0  0  0  0  0  0  0
    8.4235    8.0466    0.0000 C   0  0  0  0  0  0  0  0  0  0  0  0
    7.8357    7.2376    0.0000 C   0  0  2  0  0  0  0  0  0  0  0  0
    5.8763    8.5507    0.0000 C   0  0  1  0  0  0  0  0  0  0  0  0
    5.8763    7.5424    0.0000 C   0  0  0  0  0  0  0  0  0  0  0  0
    9.2325    8.6344    0.0000 C   0  0  0  0  0  0  0  0  0  0  0  0
    9.2325    7.4588    0.0000 C   0  0  0  0  0  0  0  0  0  0  0  0
    8.1447    6.2865    0.0000 C   0  0  0  0  0  0  0  0  0  0  0  0
    4.2042    9.0024    0.0000 C   0  0  0  0  0  0  0  0  0  0  0  0
    3.4986    9.7110    0.0000 C   0  0  1  0  0  0  0  0  0  0  0  0
    7.7846    4.5923    0.0000 C   0  0  3  0  0  0  0  0  0  0  0  0
    2.5321    9.4542    0.0000 C   0  0  0  0  0  0  0  0  0  0  0  0
    8.7627    4.3844    0.0000 C   0  0  0  0  0  0  0  0  0  0  0  0
    1.8265   10.1627    0.0000 C   0  0  0  0  0  0  0  0  0  0  0  0
    2.2713    8.4888    0.0000 C   0  0  0  0  0  0  0  0  0  0  0  0
    0.8600    9.9059    0.0000 C   0  0  0  0  0  0  0  0  0  0  0  0
    1.3048    8.2319    0.0000 C   0  0  0  0  0  0  0  0  0  0  0  0
    7.4245    2.8981    0.0000 C   0  0  0  0  0  0  0  0  0  0  0  0
    0.5992    8.9405    0.0000 C   0  0  0  0  0  0  0  0  0  0  0  0
    7.0643    1.2039    0.0000 C   0  0  0  0  0  0  0  0  0  0  0  0
    6.3952    0.4608    0.0000 C   0  0  0  0  0  0  0  0  0  0  0  0
    6.7534    9.3864    0.0000 H   0  0  0  0  0  0  0  0  0  0  0  0
    7.3973    6.7992    0.0000 H   0  0  0  0  0  0  0  0  0  0  0  0
    5.3033    8.3140    0.0000 H   0  0  0  0  0  0  0  0  0  0  0  0
    9.5969    8.1328    0.0000 H   0  0  0  0  0  0  0  0  0  0  0  0
    9.7341    8.9988    0.0000 H   0  0  0  0  0  0  0  0  0  0  0  0
    8.8680    9.1360    0.0000 H   0  0  0  0  0  0  0  0  0  0  0  0
    8.8680    6.9572    0.0000 H   0  0  0  0  0  0  0  0  0  0  0  0
    9.7341    7.0944    0.0000 H   0  0  0  0  0  0  0  0  0  0  0  0
    9.5969    7.9604    0.0000 H   0  0  0  0  0  0  0  0  0  0  0  0
    5.3324    9.8578    0.0000 H   0  0  0  0  0  0  0  0  0  0  0  0
    3.0611   10.1503    0.0000 H   0  0  0  0  0  0  0  0  0  0  0  0
    7.1781    4.7212    0.0000 H   0  0  0  0  0  0  0  0  0  0  0  0
    3.3219   11.1157    0.0000 H   0  0  0  0  0  0  0  0  0  0  0  0
    4.3586   10.8356    0.0000 H   0  0  0  0  0  0  0  0  0  0  0  0
    8.6338    3.7779    0.0000 H   0  0  0  0  0  0  0  0  0  0  0  0
    9.3692    4.2555    0.0000 H   0  0  0  0  0  0  0  0  0  0  0  0
    8.8916    4.9908    0.0000 H   0  0  0  0  0  0  0  0  0  0  0  0
    1.9882   10.7613    0.0000 H   0  0  0  0  0  0  0  0  0  0  0  0
    2.7088    8.0495    0.0000 H   0  0  0  0  0  0  0  0  0  0  0  0
    0.4225   10.3452    0.0000 H   0  0  0  0  0  0  0  0  0  0  0  0
    1.1432    7.6334    0.0000 H   0  0  0  0  0  0  0  0  0  0  0  0
    0.0000    8.7813    0.0000 H   0  0  0  0  0  0  0  0  0  0  0  0
    7.4460    0.7153    0.0000 H   0  0  0  0  0  0  0  0  0  0  0  0
    7.6118    1.4950    0.0000 H   0  0  0  0  0  0  0  0  0  0  0  0
    5.9345    0.8756    0.0000 H   0  0  0  0  0  0  0  0  0  0  0  0
    5.9803    0.0000    0.0000 H   0  0  0  0  0  0  0  0  0  0  0  0
    6.8560    0.0459    0.0000 H   0  0  0  0  0  0  0  0  0  0  0  0
   12.7355    5.3077    0.0000 H   0  0  0  0  0  0  0  0  0  0  0  0
  1 61  1  0  0  0  0
  2 13  1  0  0  0  0
  2 14  1  0  0  0  0
  3 17  2  0  0  0  0
  4 20  1  0  0  0  0
  4 23  1  0  0  0  0
  5 20  2  0  0  0  0
  6 21  2  0  0  0  0
  7 23  1  0  0  0  0
  7 30  1  0  0  0  0
  8 30  1  0  0  0  0
  8 32  1  0  0  0  0
  9 30  2  0  0  0  0
 10 13  1  0  0  0  0
 10 15  1  0  0  0  0
 10 17  1  0  0  0  0
 16 11  1  1  0  0  0
 11 21  1  0  0  0  0
 11 43  1  0  0  0  0
 22 12  1  1  0  0  0
 12 46  1  0  0  0  0
 12 47  1  0  0  0  0
 13 16  1  0  0  0  0
 13 34  1  6  0  0  0
 14 15  1  0  0  0  0
 14 18  1  0  0  0  0
 14 19  1  0  0  0  0
 15 20  1  6  0  0  0
 15 35  1  0  0  0  0
 16 17  1  0  0  0  0
 16 36  1  0  0  0  0
 18 37  1  0  0  0  0
 18 38  1  0  0  0  0
 18 39  1  0  0  0  0
 19 40  1  0  0  0  0
 19 41  1  0  0  0  0
 19 42  1  0  0  0  0
 21 22  1  0  0  0  0
 22 24  1  0  0  0  0
 22 44  1  0  0  0  0
 23 25  1  0  0  0  0
 23 45  1  0  0  0  0
 24 26  2  0  0  0  0
 24 27  1  0  0  0  0
 25 48  1  0  0  0  0
 25 49  1  0  0  0  0
 25 50  1  0  0  0  0
 26 28  1  0  0  0  0
 26 51  1  0  0  0  0
 27 29  2  0  0  0  0
 27 52  1  0  0  0  0
 28 31  2  0  0  0  0
 28 53  1  0  0  0  0
 29 31  1  0  0  0  0
 29 54  1  0  0  0  0
 31 55  1  0  0  0  0
 32 33  1  0  0  0  0
 32 56  1  0  0  0  0
 32 57  1  0  0  0  0
 33 58  1  0  0  0  0
 33 59  1  0  0  0  0
 33 60  1  0  0  0  0
M  END
> <PUBCHEM_COMPOUND_CID>
441398

> <PUBCHEM_COMPOUND_CANONICALIZED>
1

> <PUBCHEM_CACTVS_COMPLEXITY>
756

> <PUBCHEM_CACTVS_HBOND_ACCEPTOR>
9

> <PUBCHEM_CACTVS_HBOND_DONOR>
3

> <PUBCHEM_CACTVS_ROTATABLE_BOND>
10

> <PUBCHEM_CACTVS_SUBSKEYS>
AAADceB7OABEAAAAAAAAAAAAAABYAWAAAAAwAAAABYAAAAABAAAAHgQQAAAADCj12AeyCIPABAiIAiHSGACCAABgABAIiIGIBIgaYDqglTG3IABklgC8iAcYiICOAAAAAAAAAAAAAAAAAAAAAAAAAAAAAA==

> <PUBCHEM_IUPAC_OPENEYE_NAME>
1-ethoxycarbonyloxyethyl (2S,5R,6R)-6-[[(2R)-2-amino-2-phenyl-acetyl]amino]-3,3-dimethyl-7-oxo-4-thia-1-azabicyclo[3.2.0]heptane-2-carboxylate hydrochloride

> <PUBCHEM_IUPAC_CAS_NAME>
(2S,5R,6R)-6-[[(2R)-2-amino-1-oxo-2-phenylethyl]amino]-3,3-dimethyl-7-oxo-4-thia-1-azabicyclo[3.2.0]heptane-2-carboxylic acid 1-ethoxycarbonyloxyethyl ester hydrochloride

> <PUBCHEM_IUPAC_NAME>
1-ethoxycarbonyloxyethyl (2S,5R,6R)-6-[[(2R)-2-amino-2-phenylacetyl]amino]-3,3-dimethyl-7-oxo-4-thia-1-azabicyclo[3.2.0]heptane-2-carboxylate hydrochloride

> <PUBCHEM_IUPAC_SYSTEMATIC_NAME>
1-ethoxycarbonyloxyethyl (2S,5R,6R)-6-[[(2R)-2-azanyl-2-phenyl-ethanoyl]amino]-3,3-dimethyl-7-oxidanylidene-4-thia-1-azabicyclo[3.2.0]heptane-2-carboxylate hydrochloride

> <PUBCHEM_IUPAC_TRADITIONAL_NAME>
(2S,5R,6R)-6-[[(2R)-2-amino-2-phenyl-acetyl]amino]-7-keto-3,3-dimethyl-4-thia-1-azabicyclo[3.2.0]heptane-2-carboxylic acid 1-carbethoxyoxyethyl ester hydrochloride

> <PUBCHEM_IUPAC_INCHI>
InChI=1S/C21H27N3O7S.ClH/c1-5-29-20(28)31-11(2)30-19(27)15-21(3,4)32-18-14(17(26)24(15)18)23-16(25)13(22)12-9-7-6-8-10-12;/h6-11,13-15,18H,5,22H2,1-4H3,(H,23,25);1H/t11?,13-,14-,15+,18-;/m1./s1

> <PUBCHEM_IUPAC_INCHIKEY>
IWVTXAGTHUECPN-ANBBSHPLSA-N

> <PUBCHEM_EXACT_MASS>
501.133649

> <PUBCHEM_MOLECULAR_FORMULA>
C21H28ClN3O7S

> <PUBCHEM_MOLECULAR_WEIGHT>
501.98092

> <PUBCHEM_OPENEYE_CAN_SMILES>
CCOC(=O)OC(C)OC(=O)C1C(SC2N1C(=O)C2NC(=O)C(C3=CC=CC=C3)N)(C)C.Cl

> <PUBCHEM_OPENEYE_ISO_SMILES>
CCOC(=O)OC(C)OC(=O)[C@H]1C(S[C@H]2N1C(=O)[C@H]2NC(=O)[C@@H](C3=CC=CC=C3)N)(C)C.Cl

> <PUBCHEM_CACTVS_TPSA>
163

> <PUBCHEM_MONOISOTOPIC_WEIGHT>
501.133649

> <PUBCHEM_TOTAL_CHARGE>
0

> <PUBCHEM_HEAVY_ATOM_COUNT>
33

> <PUBCHEM_ATOM_DEF_STEREO_COUNT>
4

> <PUBCHEM_ATOM_UDEF_STEREO_COUNT>
1

> <PUBCHEM_BOND_DEF_STEREO_COUNT>
0

> <PUBCHEM_BOND_UDEF_STEREO_COUNT>
0

> <PUBCHEM_ISOTOPIC_ATOM_COUNT>
0

> <PUBCHEM_COMPONENT_COUNT>
2

> <PUBCHEM_CACTVS_TAUTO_COUNT>
4

> <PUBCHEM_COORDINATE_TYPE>
1
5
255

> <PUBCHEM_BONDANNOTATIONS>
16  11  5
22  12  5
13  34  6
15  20  6
23  25  3
24  26  8
24  27  8
26  28  8
27  29  8
28  31  8
29  31  8

$$$$

