11551643
  -OEChem-07051213112D

 47 50  0     1  0  0  0  0  0999 V2000
    7.2762   -2.2675    0.0000 O   0  0  0  0  0  0  0  0  0  0  0  0
    4.6497   -0.7328    0.0000 O   0  0  0  0  0  0  0  0  0  0  0  0
    9.0501   -1.2434    0.0000 O   0  0  0  0  0  0  0  0  0  0  0  0
    2.8680    0.2776    0.0000 O   0  0  0  0  0  0  0  0  0  0  0  0
    6.8422    1.7927    0.0000 N   0  0  3  0  0  0  0  0  0  0  0  0
    6.3981    0.3018    0.0000 C   0  0  2  0  0  0  0  0  0  0  0  0
    7.2641    0.8018    0.0000 C   0  0  1  0  0  0  0  0  0  0  0  0
    7.2641    1.8018    0.0000 C   0  0  2  0  0  0  0  0  0  0  0  0
    6.1950    0.6717    0.0000 C   0  0  0  0  0  0  0  0  0  0  0  0
    5.5320    0.8018    0.0000 C   0  0  0  0  0  0  0  0  0  0  0  0
    6.3981    2.3018    0.0000 C   0  0  0  0  0  0  0  0  0  0  0  0
    8.1741    0.2949    0.0000 C   0  0  0  0  0  0  0  0  0  0  0  0
    6.1114    1.4673    0.0000 C   0  0  0  0  0  0  0  0  0  0  0  0
    5.5320    1.8018    0.0000 C   0  0  0  0  0  0  0  0  0  0  0  0
    6.3820   -0.7398    0.0000 C   0  0  0  0  0  0  0  0  0  0  0  0
    8.1821   -0.7467    0.0000 C   0  0  0  0  0  0  0  0  0  0  0  0
    7.2800   -1.2675    0.0000 C   0  0  0  0  0  0  0  0  0  0  0  0
    4.6381    0.2671    0.0000 C   0  0  0  0  0  0  0  0  0  0  0  0
    7.0501    2.7708    0.0000 C   0  0  0  0  0  0  0  0  0  0  0  0
    4.6381    2.3364    0.0000 C   0  0  0  0  0  0  0  0  0  0  0  0
    3.7320    0.7809    0.0000 C   0  0  0  0  0  0  0  0  0  0  0  0
    3.7320    1.8226    0.0000 C   0  0  0  0  0  0  0  0  0  0  0  0
    8.1403   -2.7708    0.0000 C   0  0  0  0  0  0  0  0  0  0  0  0
    2.0000    0.7743    0.0000 C   0  0  0  0  0  0  0  0  0  0  0  0
    8.0002    1.2268    0.0000 H   0  0  0  0  0  0  0  0  0  0  0  0
    7.6891    2.5379    0.0000 H   0  0  0  0  0  0  0  0  0  0  0  0
    5.6002    0.8468    0.0000 H   0  0  0  0  0  0  0  0  0  0  0  0
    6.7867    0.8569    0.0000 H   0  0  0  0  0  0  0  0  0  0  0  0
    6.7966    2.7767    0.0000 H   0  0  0  0  0  0  0  0  0  0  0  0
    5.9995    2.7767    0.0000 H   0  0  0  0  0  0  0  0  0  0  0  0
    8.7858    0.1935    0.0000 H   0  0  0  0  0  0  0  0  0  0  0  0
    8.3786    0.8802    0.0000 H   0  0  0  0  0  0  0  0  0  0  0  0
    5.9198    2.0570    0.0000 H   0  0  0  0  0  0  0  0  0  0  0  0
    5.5049    1.3384    0.0000 H   0  0  0  0  0  0  0  0  0  0  0  0
    5.8415   -1.0435    0.0000 H   0  0  0  0  0  0  0  0  0  0  0  0
    7.6566    2.6419    0.0000 H   0  0  0  0  0  0  0  0  0  0  0  0
    7.1790    3.3773    0.0000 H   0  0  0  0  0  0  0  0  0  0  0  0
    6.4436    2.8997    0.0000 H   0  0  0  0  0  0  0  0  0  0  0  0
    4.6453    2.9564    0.0000 H   0  0  0  0  0  0  0  0  0  0  0  0
    3.1963    2.1346    0.0000 H   0  0  0  0  0  0  0  0  0  0  0  0
    4.1164   -1.0490    0.0000 H   0  0  0  0  0  0  0  0  0  0  0  0
    7.8282   -3.3066    0.0000 H   0  0  0  0  0  0  0  0  0  0  0  0
    8.6760   -3.0829    0.0000 H   0  0  0  0  0  0  0  0  0  0  0  0
    8.4523   -2.2351    0.0000 H   0  0  0  0  0  0  0  0  0  0  0  0
    2.3079    1.3124    0.0000 H   0  0  0  0  0  0  0  0  0  0  0  0
    1.4619    1.0822    0.0000 H   0  0  0  0  0  0  0  0  0  0  0  0
    1.6921    0.2361    0.0000 H   0  0  0  0  0  0  0  0  0  0  0  0
  1 17  1  0  0  0  0
  1 23  1  0  0  0  0
  2 18  1  0  0  0  0
  2 41  1  0  0  0  0
  3 16  2  0  0  0  0
  4 21  1  0  0  0  0
  4 24  1  0  0  0  0
  5  8  1  0  0  0  0
  5 13  1  0  0  0  0
  5 19  1  0  0  0  0
  6  7  1  0  0  0  0
  6  9  1  0  0  0  0
  6 10  1  0  0  0  0
  6 15  1  6  0  0  0
  7  8  1  0  0  0  0
  7 12  1  0  0  0  0
  7 25  1  6  0  0  0
  8 11  1  0  0  0  0
  8 26  1  6  0  0  0
  9 13  1  0  0  0  0
  9 27  1  0  0  0  0
  9 28  1  0  0  0  0
 10 14  2  0  0  0  0
 10 18  1  0  0  0  0
 11 14  1  0  0  0  0
 11 29  1  0  0  0  0
 11 30  1  0  0  0  0
 12 16  1  0  0  0  0
 12 31  1  0  0  0  0
 12 32  1  0  0  0  0
 13 33  1  0  0  0  0
 13 34  1  0  0  0  0
 14 20  1  0  0  0  0
 15 17  2  0  0  0  0
 15 35  1  0  0  0  0
 16 17  1  0  0  0  0
 18 21  2  0  0  0  0
 19 36  1  0  0  0  0
 19 37  1  0  0  0  0
 19 38  1  0  0  0  0
 20 22  2  0  0  0  0
 20 39  1  0  0  0  0
 21 22  1  0  0  0  0
 22 40  1  0  0  0  0
 23 42  1  0  0  0  0
 23 43  1  0  0  0  0
 23 44  1  0  0  0  0
 24 45  1  0  0  0  0
 24 46  1  0  0  0  0
 24 47  1  0  0  0  0
M  END
> <PUBCHEM_COMPOUND_CID>
11551643

> <PUBCHEM_COMPOUND_CANONICALIZED>
1

> <PUBCHEM_CACTVS_COMPLEXITY>
562

> <PUBCHEM_CACTVS_HBOND_ACCEPTOR>
5

> <PUBCHEM_CACTVS_HBOND_DONOR>
1

> <PUBCHEM_CACTVS_ROTATABLE_BOND>
2

> <PUBCHEM_CACTVS_SUBSKEYS>
AAADceB6OAAAAAAAAAAAAAAAAAAAAAAAAAA8YIEAAAAWAADBAAAAHgAACAAADyzBmAYyBoMABgCIAqBSAAICCAAgIAAIiAFOiMgNJjKGsR+EcCMkwBGLuYec2POPoAABAAAYQADQAAaAADSAAAAAAAAAAA==

> <PUBCHEM_IUPAC_INCHI>
InChI=1S/C19H23NO4/c1-20-7-6-19-10-16(24-3)14(21)9-12(19)13(20)8-11-4-5-15(23-2)18(22)17(11)19/h4-5,10,12-13,22H,6-9H2,1-3H3/t12-,13+,19-/m1/s1

> <PUBCHEM_IUPAC_INCHIKEY>
OWDQPILTDJLGCN-QHRIQVFBSA-N

> <PUBCHEM_XLOGP3_AA>
2.3

> <PUBCHEM_EXACT_MASS>
329.162708

> <PUBCHEM_MOLECULAR_FORMULA>
C19H23NO4

> <PUBCHEM_MOLECULAR_WEIGHT>
329.39022

> <PUBCHEM_OPENEYE_CAN_SMILES>
CN1CCC23C=C(C(=O)CC2C1CC4=C3C(=C(C=C4)OC)O)OC

> <PUBCHEM_OPENEYE_ISO_SMILES>
CN1CC[C@@]23C=C(C(=O)C[C@@H]2[C@@H]1CC4=C3C(=C(C=C4)OC)O)OC

> <PUBCHEM_CACTVS_TPSA>
59

> <PUBCHEM_MONOISOTOPIC_WEIGHT>
329.162708

> <PUBCHEM_TOTAL_CHARGE>
0

> <PUBCHEM_HEAVY_ATOM_COUNT>
24

> <PUBCHEM_ATOM_DEF_STEREO_COUNT>
3

> <PUBCHEM_ATOM_UDEF_STEREO_COUNT>
0

> <PUBCHEM_BOND_DEF_STEREO_COUNT>
0

> <PUBCHEM_BOND_UDEF_STEREO_COUNT>
0

> <PUBCHEM_ISOTOPIC_ATOM_COUNT>
0

> <PUBCHEM_COMPONENT_COUNT>
1

> <PUBCHEM_CACTVS_TAUTO_COUNT>
14

> <PUBCHEM_COORDINATE_TYPE>
1
5
255

> <PUBCHEM_BONDANNOTATIONS>
10  14  8
10  18  8
14  20  8
18  21  8
20  22  8
21  22  8
6  15  6
7  25  6
8  26  6

$$$$

