108016
  -OEChem-07051213113D

 27 31  0     1  0  0  0  0  0999 V2000
    0.0003   -3.3046    0.0001 O   0  0  0  0  0  0  0  0  0  0  0  0
    0.5954   -2.1964   -0.6045 C   0  0  1  0  0  0  0  0  0  0  0  0
   -0.5952   -2.1966    0.6044 C   0  0  1  0  0  0  0  0  0  0  0  0
    1.4275   -1.0089   -0.1654 C   0  0  0  0  0  0  0  0  0  0  0  0
   -1.4273   -1.0090    0.1654 C   0  0  0  0  0  0  0  0  0  0  0  0
    0.7131    0.2214   -0.0092 C   0  0  0  0  0  0  0  0  0  0  0  0
   -0.7131    0.2212    0.0092 C   0  0  0  0  0  0  0  0  0  0  0  0
    1.4200    1.4353    0.0751 C   0  0  0  0  0  0  0  0  0  0  0  0
   -1.4203    1.4352   -0.0750 C   0  0  0  0  0  0  0  0  0  0  0  0
    2.8204   -1.0159   -0.0925 C   0  0  0  0  0  0  0  0  0  0  0  0
   -2.8203   -1.0161    0.0925 C   0  0  0  0  0  0  0  0  0  0  0  0
    0.6976    2.6389    0.0564 C   0  0  0  0  0  0  0  0  0  0  0  0
   -0.6980    2.6387   -0.0563 C   0  0  0  0  0  0  0  0  0  0  0  0
    2.8227    1.3972    0.1465 C   0  0  0  0  0  0  0  0  0  0  0  0
   -2.8229    1.3969   -0.1465 C   0  0  0  0  0  0  0  0  0  0  0  0
    3.5118    0.1815    0.0865 C   0  0  0  0  0  0  0  0  0  0  0  0
   -3.5118    0.1812   -0.0866 C   0  0  0  0  0  0  0  0  0  0  0  0
    0.3018   -2.1203   -1.6506 H   0  0  0  0  0  0  0  0  0  0  0  0
   -0.3017   -2.1204    1.6507 H   0  0  0  0  0  0  0  0  0  0  0  0
    3.3720   -1.9434   -0.2172 H   0  0  0  0  0  0  0  0  0  0  0  0
   -3.3719   -1.9437    0.2171 H   0  0  0  0  0  0  0  0  0  0  0  0
    1.2182    3.5936    0.0994 H   0  0  0  0  0  0  0  0  0  0  0  0
   -1.2186    3.5933   -0.0992 H   0  0  0  0  0  0  0  0  0  0  0  0
    3.3945    2.3189    0.2348 H   0  0  0  0  0  0  0  0  0  0  0  0
   -3.3947    2.3184   -0.2349 H   0  0  0  0  0  0  0  0  0  0  0  0
    4.5974    0.1758    0.1337 H   0  0  0  0  0  0  0  0  0  0  0  0
   -4.5974    0.1753   -0.1339 H   0  0  0  0  0  0  0  0  0  0  0  0
  1  2  1  0  0  0  0
  1  3  1  0  0  0  0
  2  3  1  0  0  0  0
  2  4  1  0  0  0  0
  2 18  1  0  0  0  0
  3  5  1  0  0  0  0
  3 19  1  0  0  0  0
  4  6  1  0  0  0  0
  4 10  2  0  0  0  0
  5  7  1  0  0  0  0
  5 11  2  0  0  0  0
  6  7  1  0  0  0  0
  6  8  2  0  0  0  0
  7  9  2  0  0  0  0
  8 12  1  0  0  0  0
  8 14  1  0  0  0  0
  9 13  1  0  0  0  0
  9 15  1  0  0  0  0
 10 16  1  0  0  0  0
 10 20  1  0  0  0  0
 11 17  1  0  0  0  0
 11 21  1  0  0  0  0
 12 13  2  0  0  0  0
 12 22  1  0  0  0  0
 13 23  1  0  0  0  0
 14 16  2  0  0  0  0
 14 24  1  0  0  0  0
 15 17  2  0  0  0  0
 15 25  1  0  0  0  0
 16 26  1  0  0  0  0
 17 27  1  0  0  0  0
M  END
> <PUBCHEM_COMPOUND_CID>
108016

> <PUBCHEM_CONFORMER_RMSD>
0.4

> <PUBCHEM_CONFORMER_DIVERSEORDER>
1
2

> <PUBCHEM_MMFF94_PARTIAL_CHARGES>
23
1 -0.3
10 -0.15
11 -0.15
12 -0.15
13 -0.15
14 -0.15
15 -0.15
16 -0.15
17 -0.15
18 0.1
19 0.1
2 0.08
20 0.15
21 0.15
22 0.15
23 0.15
24 0.15
25 0.15
26 0.15
27 0.15
3 0.08
4 -0.03
5 -0.03

> <PUBCHEM_EFFECTIVE_ROTOR_COUNT>
0.2

> <PUBCHEM_PHARMACOPHORE_FEATURES>
5
1 1 acceptor
6 4 6 8 10 14 16 rings
6 5 7 9 11 15 17 rings
6 6 7 8 9 12 13 rings
7 1 2 3 4 5 6 7 rings

> <PUBCHEM_HEAVY_ATOM_COUNT>
17

> <PUBCHEM_ATOM_DEF_STEREO_COUNT>
0

> <PUBCHEM_ATOM_UDEF_STEREO_COUNT>
2

> <PUBCHEM_BOND_DEF_STEREO_COUNT>
0

> <PUBCHEM_BOND_UDEF_STEREO_COUNT>
0

> <PUBCHEM_ISOTOPIC_ATOM_COUNT>
0

> <PUBCHEM_COMPONENT_COUNT>
1

> <PUBCHEM_CACTVS_TAUTO_COUNT>
1

> <PUBCHEM_CONFORMER_ID>
0001A5F000000001

> <PUBCHEM_MMFF94_ENERGY>
97.0828

> <PUBCHEM_FEATURE_SELFOVERLAP>
25.449

> <PUBCHEM_SHAPE_FINGERPRINT>
10759866 29 17988917865138784116
10967382 1 18410573985156732391
11132069 177 18409173228923478848
11680986 33 17978230452485755641
12011746 2 18410292467446743932
12382932 28 18265616472732754432
13140716 1 18410572932895091537
13380535 76 18410858758663246499
13897977 150 18338801229350430453
14178342 30 17976267055805966000
14614273 12 18057047023841503565
14790565 3 18266719385627404324
15196674 1 18410856559639951972
15309172 13 18410003330137555353
16945 1 18410569591399907333
193761 8 17762338423751933105
19591789 44 18410852161593759174
20028762 73 18043245731016376119
20510252 161 18333732442065732824
20511035 2 17827642452532066324
20588541 1 18410570686627325196
20645476 183 17916287369265176718
20739085 24 18126254585151608777
20905425 154 17975977888321028518
21267235 1 18410565189058552354
21501502 16 17977947122067218793
2334 1 18410855434363782177
23402539 116 18335151877232887590
23419403 2 15879069271047960016
23463225 33 18413390951353985928
23559900 14 18262789654957515356
238 59 17767449899191919021
25 1 18341336698937569613
2748010 2 18410852148713683893
335352 9 18050287273387294588
34934 24 18196662795888763432
43471831 8 18269276935804383962
528886 8 18409736165891641552
54173680 148 18123750855377516034
589210 1 17690561883799738592
7364860 26 18048036568853878295
8809292 202 18342734126397381458

> <PUBCHEM_SHAPE_MULTIPOLES>
343.98
4.64
3.22
0.66
0
0.57
0
-0.6
0
0
0
0
0.08
0.26

> <PUBCHEM_SHAPE_SELFOVERLAP>
800.778

> <PUBCHEM_SHAPE_VOLUME>
176.8

> <PUBCHEM_COORDINATE_TYPE>
2
5
10

$$$$

