72881
  -OEChem-07051213063D

 14 14  0     0  0  0  0  0  0999 V2000
   -1.5346    0.0106   -0.1125 S   0  0  0  0  0  0  0  0  0  0  0  0
    1.0307   -1.3892   -0.0248 S   0  0  0  0  0  0  0  0  0  0  0  0
   -2.0389    1.2404   -0.6978 O   0  0  0  0  0  0  0  0  0  0  0  0
   -1.8875   -1.2745   -0.6901 O   0  0  0  0  0  0  0  0  0  0  0  0
   -1.9038   -0.0082    1.5534 N   0  0  0  0  0  0  0  0  0  0  0  0
    0.2192    0.1185   -0.0533 C   0  0  0  0  0  0  0  0  0  0  0  0
    1.0978    1.1791   -0.0239 C   0  0  0  0  0  0  0  0  0  0  0  0
    2.4551    0.7482    0.0223 C   0  0  0  0  0  0  0  0  0  0  0  0
    2.5622   -0.6251    0.0267 C   0  0  0  0  0  0  0  0  0  0  0  0
    0.7846    2.2151   -0.0342 H   0  0  0  0  0  0  0  0  0  0  0  0
    3.3095    1.4119    0.0511 H   0  0  0  0  0  0  0  0  0  0  0  0
    3.4664   -1.2162    0.0577 H   0  0  0  0  0  0  0  0  0  0  0  0
   -1.7258    0.8557    2.0819 H   0  0  0  0  0  0  0  0  0  0  0  0
   -2.7815   -0.4660    1.8308 H   0  0  0  0  0  0  0  0  0  0  0  0
  1  3  2  0  0  0  0
  1  4  2  0  0  0  0
  1  5  1  0  0  0  0
  1  6  1  0  0  0  0
  2  6  1  0  0  0  0
  2  9  1  0  0  0  0
  5 13  1  0  0  0  0
  5 14  1  0  0  0  0
  6  7  2  0  0  0  0
  7  8  1  0  0  0  0
  7 10  1  0  0  0  0
  8  9  2  0  0  0  0
  8 11  1  0  0  0  0
  9 12  1  0  0  0  0
M  END
> <PUBCHEM_COMPOUND_CID>
72881

> <PUBCHEM_CONFORMER_RMSD>
0.4

> <PUBCHEM_CONFORMER_DIVERSEORDER>
1
2

> <PUBCHEM_MMFF94_PARTIAL_CHARGES>
14
1 1.5
10 0.15
11 0.15
12 0.15
13 0.42
14 0.42
2 -0.08
3 -0.65
4 -0.65
5 -0.98
6 -0.02
7 -0.15
8 -0.15
9 -0.11

> <PUBCHEM_EFFECTIVE_ROTOR_COUNT>
1

> <PUBCHEM_PHARMACOPHORE_FEATURES>
4
1 3 acceptor
1 4 acceptor
1 5 donor
5 2 6 7 8 9 rings

> <PUBCHEM_HEAVY_ATOM_COUNT>
9

> <PUBCHEM_ATOM_DEF_STEREO_COUNT>
0

> <PUBCHEM_ATOM_UDEF_STEREO_COUNT>
0

> <PUBCHEM_BOND_DEF_STEREO_COUNT>
0

> <PUBCHEM_BOND_UDEF_STEREO_COUNT>
0

> <PUBCHEM_ISOTOPIC_ATOM_COUNT>
0

> <PUBCHEM_COMPONENT_COUNT>
1

> <PUBCHEM_CACTVS_TAUTO_COUNT>
1

> <PUBCHEM_CONFORMER_ID>
00011CB100000001

> <PUBCHEM_MMFF94_ENERGY>
8.3497

> <PUBCHEM_FEATURE_SELFOVERLAP>
20.315

> <PUBCHEM_SHAPE_FINGERPRINT>
12897270 3 18267316351863293175
12932741 1 16917071014431253132
12932764 1 18410288108155086924
14325111 11 18410862031924107364
15775835 57 18335698304204443444
16945 1 18188206627936834286
18185500 45 18333454256880580406
21040471 1 18339083666621212100
23552423 10 18342460348197315494
24536 1 17203324494393279981
29004967 10 18272926150577626760
3248919 1 17131837551464735812
369184 2 18334860506466767481
5084963 1 18261678056262340326

> <PUBCHEM_SHAPE_MULTIPOLES>
176.2
3.63
1.41
0.9
0.2
0.14
-0.27
-0.14
-0.05
0.13
0.19
-0.56
0.01
0.01

> <PUBCHEM_SHAPE_SELFOVERLAP>
335.034

> <PUBCHEM_SHAPE_VOLUME>
109.3

> <PUBCHEM_COORDINATE_TYPE>
2
5
10

$$$$

