9421
  -OEChem-06261203413D

 58 60  0     1  0  0  0  0  0999 V2000
    0.1279    5.1732   -0.0078 Cl  0  0  0  0  0  0  0  0  0  0  0  0
   -2.3087   -4.5130   -0.1288 O   0  0  0  0  0  0  0  0  0  0  0  0
    4.7521   -0.4686    0.3737 N   0  0  0  0  0  0  0  0  0  0  0  0
    0.2368   -0.1387   -0.3444 N   0  0  0  0  0  0  0  0  0  0  0  0
   -3.7716    0.7857    0.4596 N   0  0  0  0  0  0  0  0  0  0  0  0
    0.9148    0.3359   -1.5036 C   0  0  1  0  0  0  0  0  0  0  0  0
    2.4338    0.2701   -1.2948 C   0  0  0  0  0  0  0  0  0  0  0  0
    2.8947    1.0695   -0.0697 C   0  0  0  0  0  0  0  0  0  0  0  0
    4.4013    0.9282    0.1440 C   0  0  0  0  0  0  0  0  0  0  0  0
   -1.1225    0.1750   -0.0721 C   0  0  0  0  0  0  0  0  0  0  0  0
    0.4912   -0.5137   -2.6972 C   0  0  0  0  0  0  0  0  0  0  0  0
    4.0654   -0.9838    1.5596 C   0  0  0  0  0  0  0  0  0  0  0  0
    6.2007   -0.6189    0.5203 C   0  0  0  0  0  0  0  0  0  0  0  0
   -2.0618   -0.8548    0.0423 C   0  0  0  0  0  0  0  0  0  0  0  0
   -1.5090    1.5104    0.0797 C   0  0  0  0  0  0  0  0  0  0  0  0
   -3.3940   -0.4991    0.3126 C   0  0  0  0  0  0  0  0  0  0  0  0
   -2.8628    1.7737    0.3485 C   0  0  0  0  0  0  0  0  0  0  0  0
    4.3700   -2.4567    1.7736 C   0  0  0  0  0  0  0  0  0  0  0  0
    6.9339   -0.0898   -0.7007 C   0  0  0  0  0  0  0  0  0  0  0  0
   -1.7012   -2.2056   -0.1054 C   0  0  0  0  0  0  0  0  0  0  0  0
   -0.5863    2.5653   -0.0299 C   0  0  0  0  0  0  0  0  0  0  0  0
   -4.3338   -1.5199    0.4276 C   0  0  0  0  0  0  0  0  0  0  0  0
   -3.2539    3.1013    0.5007 C   0  0  0  0  0  0  0  0  0  0  0  0
   -2.6600   -3.2071    0.0143 C   0  0  0  0  0  0  0  0  0  0  0  0
   -1.0029    3.8838    0.1264 C   0  0  0  0  0  0  0  0  0  0  0  0
   -3.9790   -2.8631    0.2814 C   0  0  0  0  0  0  0  0  0  0  0  0
   -2.3396    4.1520    0.3923 C   0  0  0  0  0  0  0  0  0  0  0  0
   -0.9357   -4.7912   -0.4020 C   0  0  0  0  0  0  0  0  0  0  0  0
    0.6692    1.3612   -1.7867 H   0  0  0  0  0  0  0  0  0  0  0  0
    2.7227   -0.7830   -1.1898 H   0  0  0  0  0  0  0  0  0  0  0  0
    2.9427    0.6465   -2.1913 H   0  0  0  0  0  0  0  0  0  0  0  0
    2.3200    0.8424    0.8321 H   0  0  0  0  0  0  0  0  0  0  0  0
    2.7012    2.1319   -0.2681 H   0  0  0  0  0  0  0  0  0  0  0  0
    4.8762    1.3258   -0.7591 H   0  0  0  0  0  0  0  0  0  0  0  0
    4.7117    1.5647    0.9828 H   0  0  0  0  0  0  0  0  0  0  0  0
    0.5978   -0.9813    0.0897 H   0  0  0  0  0  0  0  0  0  0  0  0
    1.0229   -0.2038   -3.6034 H   0  0  0  0  0  0  0  0  0  0  0  0
   -0.5821   -0.4183   -2.8950 H   0  0  0  0  0  0  0  0  0  0  0  0
    0.7043   -1.5759   -2.5302 H   0  0  0  0  0  0  0  0  0  0  0  0
    2.9793   -0.9432    1.4425 H   0  0  0  0  0  0  0  0  0  0  0  0
    4.3223   -0.4156    2.4624 H   0  0  0  0  0  0  0  0  0  0  0  0
    6.4727   -1.6769    0.5928 H   0  0  0  0  0  0  0  0  0  0  0  0
    6.5761   -0.1167    1.4209 H   0  0  0  0  0  0  0  0  0  0  0  0
    4.2448   -3.0354    0.8519 H   0  0  0  0  0  0  0  0  0  0  0  0
    5.3779   -2.6238    2.1655 H   0  0  0  0  0  0  0  0  0  0  0  0
    3.6764   -2.8709    2.5144 H   0  0  0  0  0  0  0  0  0  0  0  0
    6.4907   -0.4558   -1.6333 H   0  0  0  0  0  0  0  0  0  0  0  0
    6.9717    1.0036   -0.7263 H   0  0  0  0  0  0  0  0  0  0  0  0
    7.9743   -0.4340   -0.6792 H   0  0  0  0  0  0  0  0  0  0  0  0
   -0.6703   -2.4495   -0.3269 H   0  0  0  0  0  0  0  0  0  0  0  0
    0.4771    2.4091   -0.1327 H   0  0  0  0  0  0  0  0  0  0  0  0
   -5.3738   -1.2758    0.6366 H   0  0  0  0  0  0  0  0  0  0  0  0
   -4.2958    3.3372    0.7096 H   0  0  0  0  0  0  0  0  0  0  0  0
   -4.7399   -3.6328    0.3779 H   0  0  0  0  0  0  0  0  0  0  0  0
   -2.6898    5.1732    0.5186 H   0  0  0  0  0  0  0  0  0  0  0  0
   -0.2877   -4.4729    0.4219 H   0  0  0  0  0  0  0  0  0  0  0  0
   -0.8373   -5.8788   -0.4817 H   0  0  0  0  0  0  0  0  0  0  0  0
   -0.6234   -4.3725   -1.3648 H   0  0  0  0  0  0  0  0  0  0  0  0
  1 25  1  0  0  0  0
  2 24  1  0  0  0  0
  2 28  1  0  0  0  0
  3  9  1  0  0  0  0
  3 12  1  0  0  0  0
  3 13  1  0  0  0  0
  4  6  1  0  0  0  0
  4 10  1  0  0  0  0
  4 36  1  0  0  0  0
  5 16  1  0  0  0  0
  5 17  2  0  0  0  0
  6  7  1  0  0  0  0
  6 11  1  0  0  0  0
  6 29  1  0  0  0  0
  7  8  1  0  0  0  0
  7 30  1  0  0  0  0
  7 31  1  0  0  0  0
  8  9  1  0  0  0  0
  8 32  1  0  0  0  0
  8 33  1  0  0  0  0
  9 34  1  0  0  0  0
  9 35  1  0  0  0  0
 10 14  1  0  0  0  0
 10 15  2  0  0  0  0
 11 37  1  0  0  0  0
 11 38  1  0  0  0  0
 11 39  1  0  0  0  0
 12 18  1  0  0  0  0
 12 40  1  0  0  0  0
 12 41  1  0  0  0  0
 13 19  1  0  0  0  0
 13 42  1  0  0  0  0
 13 43  1  0  0  0  0
 14 16  2  0  0  0  0
 14 20  1  0  0  0  0
 15 17  1  0  0  0  0
 15 21  1  0  0  0  0
 16 22  1  0  0  0  0
 17 23  1  0  0  0  0
 18 44  1  0  0  0  0
 18 45  1  0  0  0  0
 18 46  1  0  0  0  0
 19 47  1  0  0  0  0
 19 48  1  0  0  0  0
 19 49  1  0  0  0  0
 20 24  2  0  0  0  0
 20 50  1  0  0  0  0
 21 25  2  0  0  0  0
 21 51  1  0  0  0  0
 22 26  2  0  0  0  0
 22 52  1  0  0  0  0
 23 27  2  0  0  0  0
 23 53  1  0  0  0  0
 24 26  1  0  0  0  0
 25 27  1  0  0  0  0
 26 54  1  0  0  0  0
 27 55  1  0  0  0  0
 28 56  1  0  0  0  0
 28 57  1  0  0  0  0
 28 58  1  0  0  0  0
M  END
> <PUBCHEM_COMPOUND_CID>
9421

> <PUBCHEM_CONFORMER_RMSD>
1

> <PUBCHEM_CONFORMER_DIVERSEORDER>
3
46
11
67
48
14
74
30
13
40
28
8
49
25
10
68
76
58
6
51
65
20
55
57
69
39
31
23
4
43
5
32
72
33
54
45
35
63
27
77
7
59
2
18
12
44
17
37
15
53
61
47
24
26
64
52
19
9
42
34
36
1
60
29
78
62
56
70
41
50
38
16
66
75
21
22
80
73
71
79

> <PUBCHEM_MMFF94_PARTIAL_CHARGES>
28
1 -0.18
10 0.1
12 0.27
13 0.27
16 0.31
17 0.31
2 -0.36
20 -0.15
21 -0.15
22 -0.15
23 -0.15
24 0.08
25 0.18
26 -0.15
27 -0.15
28 0.28
3 -0.81
36 0.4
4 -0.87
5 -0.62
50 0.15
51 0.15
52 0.15
53 0.15
54 0.15
55 0.15
6 0.37
9 0.27

> <PUBCHEM_EFFECTIVE_ROTOR_COUNT>
9

> <PUBCHEM_PHARMACOPHORE_FEATURES>
8
1 2 acceptor
1 3 cation
1 4 cation
1 4 donor
1 5 acceptor
6 14 16 20 22 24 26 rings
6 15 17 21 23 25 27 rings
6 5 10 14 15 16 17 rings

> <PUBCHEM_HEAVY_ATOM_COUNT>
28

> <PUBCHEM_ATOM_DEF_STEREO_COUNT>
0

> <PUBCHEM_ATOM_UDEF_STEREO_COUNT>
1

> <PUBCHEM_BOND_DEF_STEREO_COUNT>
0

> <PUBCHEM_BOND_UDEF_STEREO_COUNT>
0

> <PUBCHEM_ISOTOPIC_ATOM_COUNT>
0

> <PUBCHEM_COMPONENT_COUNT>
1

> <PUBCHEM_CACTVS_TAUTO_COUNT>
2

> <PUBCHEM_CONFORMER_ID>
000024CD00000003

> <PUBCHEM_MMFF94_ENERGY>
100.5975

> <PUBCHEM_FEATURE_SELFOVERLAP>
40.656

> <PUBCHEM_SHAPE_FINGERPRINT>
10319926 262 18262810665736313874
10411042 1 18193554472295997675
1100329 8 18338228255492278457
11049842 53 17908110503300718990
11056379 131 18409721894263975732
11552529 35 18341341032812850246
11582403 64 17318760197300867877
12107183 9 17766003079571130136
12553582 1 18048289207995118391
12788726 201 18270099233105029494
13140716 1 17905310850697136923
13583140 156 17894925039780698690
14844126 61 18412823573247046019
14856354 85 18409721834440720342
15042514 8 18410289203292801529
15230672 131 18050842519325648958
15250474 111 18272098240245518002
15475509 35 17196833893289155755
16728300 4 17772758397160010987
17818456 19 18341893056031853822
20600515 1 18188473688982414973
21033648 29 16805865334608821742
21796203 349 17766801028053978107
22956985 138 17618791253891406928
23366157 5 17549536315420208013
23522609 53 17773010134532620524
23559900 14 18121223078060713633
3886686 26 17836365217456914794
4409770 3 18342464776641310053
463206 1 18055915385974963338
5047190 48 18124033696301311934
550186 7 18188770673159696566
9981440 41 17979914144560478033

> <PUBCHEM_SHAPE_MULTIPOLES>
557.28
10.91
6.43
1.31
21.4
1.46
-0.58
-4.46
2.86
-7.45
0.65
1.3
-0.46
-1.33

> <PUBCHEM_SHAPE_SELFOVERLAP>
1172.879

> <PUBCHEM_SHAPE_VOLUME>
317.6

> <PUBCHEM_COORDINATE_TYPE>
2
5
10

$$$$

