89034
  -OEChem-07051212483D

 23 22  0     1  0  0  0  0  0999 V2000
   -2.5071   -0.1695   -0.1858 S   0  0  1  0  0  0  0  0  0  0  0  0
   -2.5463    0.3151   -1.5580 O   0  0  0  0  0  0  0  0  0  0  0  0
    2.7816   -1.6239    0.2254 O   0  0  0  0  0  0  0  0  0  0  0  0
    3.6233    0.2909   -0.6539 O   0  0  0  0  0  0  0  0  0  0  0  0
    1.6249    1.7920    0.2426 N   0  0  0  0  0  0  0  0  0  0  0  0
   -2.6118   -1.6573    0.2299 N   0  0  0  0  0  0  0  0  0  0  0  0
   -1.0313    0.4661    0.5454 C   0  0  0  0  0  0  0  0  0  0  0  0
    0.2090   -0.1879   -0.0541 C   0  0  0  0  0  0  0  0  0  0  0  0
    1.5056    0.3689    0.5485 C   0  0  1  0  0  0  0  0  0  0  0  0
   -3.7884    0.6964    0.6962 C   0  0  0  0  0  0  0  0  0  0  0  0
    2.7408   -0.2908   -0.0362 C   0  0  0  0  0  0  0  0  0  0  0  0
   -1.0368    1.5472    0.3744 H   0  0  0  0  0  0  0  0  0  0  0  0
   -1.0834    0.2834    1.6237 H   0  0  0  0  0  0  0  0  0  0  0  0
    0.2150   -0.0610   -1.1451 H   0  0  0  0  0  0  0  0  0  0  0  0
    0.1763   -1.2707    0.1158 H   0  0  0  0  0  0  0  0  0  0  0  0
    1.5243    0.2346    1.6354 H   0  0  0  0  0  0  0  0  0  0  0  0
   -3.6506    1.7694    0.5472 H   0  0  0  0  0  0  0  0  0  0  0  0
   -4.7543    0.3886    0.2897 H   0  0  0  0  0  0  0  0  0  0  0  0
   -3.7254    0.4486    1.7575 H   0  0  0  0  0  0  0  0  0  0  0  0
    1.6472    1.9367   -0.7660 H   0  0  0  0  0  0  0  0  0  0  0  0
    2.5015    2.1580    0.6116 H   0  0  0  0  0  0  0  0  0  0  0  0
   -1.8307   -2.2390   -0.0847 H   0  0  0  0  0  0  0  0  0  0  0  0
    3.5870   -2.0443   -0.1445 H   0  0  0  0  0  0  0  0  0  0  0  0
  1  2  2  0  0  0  0
  1  6  2  0  0  0  0
  1  7  1  0  0  0  0
  1 10  1  0  0  0  0
  3 11  1  0  0  0  0
  3 23  1  0  0  0  0
  4 11  2  0  0  0  0
  5  9  1  0  0  0  0
  5 20  1  0  0  0  0
  5 21  1  0  0  0  0
  6 22  1  0  0  0  0
  7  8  1  0  0  0  0
  7 12  1  0  0  0  0
  7 13  1  0  0  0  0
  8  9  1  0  0  0  0
  8 14  1  0  0  0  0
  8 15  1  0  0  0  0
  9 11  1  0  0  0  0
  9 16  1  0  0  0  0
 10 17  1  0  0  0  0
 10 18  1  0  0  0  0
 10 19  1  0  0  0  0
M  END
> <PUBCHEM_COMPOUND_CID>
89034

> <PUBCHEM_CONFORMER_RMSD>
0.6

> <PUBCHEM_CONFORMER_DIVERSEORDER>
1
12
15
22
3
18
9
21
23
20
4
2
8
10
16
7
5
19
14
11
17
13
6

> <PUBCHEM_MMFF94_PARTIAL_CHARGES>
14
1 1.03
10 0.11
11 0.66
2 -0.65
20 0.36
21 0.36
22 0.4
23 0.5
3 -0.65
4 -0.57
5 -0.99
6 -0.99
7 0.11
9 0.33

> <PUBCHEM_EFFECTIVE_ROTOR_COUNT>
4

> <PUBCHEM_PHARMACOPHORE_FEATURES>
6
1 2 acceptor
1 3 acceptor
1 4 acceptor
1 5 cation
1 5 donor
3 3 4 11 anion

> <PUBCHEM_HEAVY_ATOM_COUNT>
11

> <PUBCHEM_ATOM_DEF_STEREO_COUNT>
1

> <PUBCHEM_ATOM_UDEF_STEREO_COUNT>
0

> <PUBCHEM_BOND_DEF_STEREO_COUNT>
0

> <PUBCHEM_BOND_UDEF_STEREO_COUNT>
0

> <PUBCHEM_ISOTOPIC_ATOM_COUNT>
0

> <PUBCHEM_COMPONENT_COUNT>
1

> <PUBCHEM_CACTVS_TAUTO_COUNT>
1

> <PUBCHEM_CONFORMER_ID>
00015BCA00000001

> <PUBCHEM_MMFF94_ENERGY>
7.7683

> <PUBCHEM_FEATURE_SELFOVERLAP>
30.505

> <PUBCHEM_SHAPE_FINGERPRINT>
10130415 120 18040434416763182993
10219947 1 7781510417420040986
11062470 55 17530684328956326601
12932764 1 17775295949505685497
14144814 61 18334295387470485355
14325111 11 18335983082074184865
14390081 3 14908183057617310868
14577589 140 17240480321275332581
15775835 57 18273491277842317579
18186145 218 18411421700111077360
20201158 50 18408323297739940594
20211469 26 6266897944185114025
20645477 70 18340207504538220374
23380061 50 4895258300978770703
23402539 116 14562815504036956145
3248919 1 18263095356852290097
93112 12 18410012109166785089

> <PUBCHEM_SHAPE_MULTIPOLES>
202.65
6.6
1.35
0.91
0.02
0.16
-0.26
0.36
-0.25
-0.24
0.19
0.5
-0.07
-0.14

> <PUBCHEM_SHAPE_SELFOVERLAP>
369.419

> <PUBCHEM_SHAPE_VOLUME>
129.6

> <PUBCHEM_COORDINATE_TYPE>
2
5
10

$$$$

