443733
  -OEChem-07051213032D

 25 25  0     0  0  0  0  0  0999 V2000
    5.4543   -0.4197    0.0000 O   0  0  0  0  0  0  0  0  0  0  0  0
    2.9511    0.5282    0.0000 O   0  0  0  0  0  0  0  0  0  0  0  0
    3.4863   -1.1191    0.0000 O   0  0  0  0  0  0  0  0  0  0  0  0
    7.2144   -0.1410    0.0000 N   0  0  0  0  0  0  0  0  0  0  0  0
    5.9543    1.1191    0.0000 N   0  0  0  0  0  0  0  0  0  0  0  0
    4.9543    1.1191    0.0000 N   0  0  0  0  0  0  0  0  0  0  0  0
    7.9575    0.5282    0.0000 C   0  0  0  0  0  0  0  0  0  0  0  0
    8.9086    0.2192    0.0000 C   0  0  0  0  0  0  0  0  0  0  0  0
    6.2633    0.1681    0.0000 C   0  0  0  0  0  0  0  0  0  0  0  0
    9.6517    0.8883    0.0000 C   0  0  0  0  0  0  0  0  0  0  0  0
    4.6453    0.1681    0.0000 C   0  0  0  0  0  0  0  0  0  0  0  0
    3.6942   -0.1410    0.0000 C   0  0  0  0  0  0  0  0  0  0  0  0
   10.6028    0.5793    0.0000 C   0  0  0  0  0  0  0  0  0  0  0  0
    2.0000    0.2192    0.0000 C   0  0  0  0  0  0  0  0  0  0  0  0
    8.2486    1.0756    0.0000 H   0  0  0  0  0  0  0  0  0  0  0  0
    7.4689    0.9099    0.0000 H   0  0  0  0  0  0  0  0  0  0  0  0
    8.6175   -0.3283    0.0000 H   0  0  0  0  0  0  0  0  0  0  0  0
    9.3971   -0.1626    0.0000 H   0  0  0  0  0  0  0  0  0  0  0  0
    7.3432   -0.7474    0.0000 H   0  0  0  0  0  0  0  0  0  0  0  0
    9.5228    1.4947    0.0000 H   0  0  0  0  0  0  0  0  0  0  0  0
   10.7317   -0.0272    0.0000 H   0  0  0  0  0  0  0  0  0  0  0  0
   11.0635    0.9941    0.0000 H   0  0  0  0  0  0  0  0  0  0  0  0
    1.8084    0.8088    0.0000 H   0  0  0  0  0  0  0  0  0  0  0  0
    1.4103    0.0276    0.0000 H   0  0  0  0  0  0  0  0  0  0  0  0
    2.1916   -0.3705    0.0000 H   0  0  0  0  0  0  0  0  0  0  0  0
  1  9  1  0  0  0  0
  1 11  1  0  0  0  0
  2 12  1  0  0  0  0
  2 14  1  0  0  0  0
  3 12  2  0  0  0  0
  4  7  1  0  0  0  0
  4  9  1  0  0  0  0
  4 19  1  0  0  0  0
  5  6  1  0  0  0  0
  5  9  2  0  0  0  0
  6 11  2  0  0  0  0
  7  8  1  0  0  0  0
  7 15  1  0  0  0  0
  7 16  1  0  0  0  0
  8 10  1  0  0  0  0
  8 17  1  0  0  0  0
  8 18  1  0  0  0  0
 10 13  2  0  0  0  0
 10 20  1  0  0  0  0
 11 12  1  0  0  0  0
 13 21  1  0  0  0  0
 13 22  1  0  0  0  0
 14 23  1  0  0  0  0
 14 24  1  0  0  0  0
 14 25  1  0  0  0  0
M  END
> <PUBCHEM_COMPOUND_CID>
443733

> <PUBCHEM_COMPOUND_CANONICALIZED>
1

> <PUBCHEM_CACTVS_COMPLEXITY>
210

> <PUBCHEM_CACTVS_HBOND_ACCEPTOR>
6

> <PUBCHEM_CACTVS_HBOND_DONOR>
1

> <PUBCHEM_CACTVS_ROTATABLE_BOND>
6

> <PUBCHEM_CACTVS_SUBSKEYS>
AAADccBzMAAAAAAAAAAAAAAAAAAAAWAAAAAAAAAAAAAAAAABgAAAHgAYAAAACADBggYDGALABECqACHyOAYQAAIqAAAfAIDIAAmDAAAACQQNAAAQHgICAAAAAAAAAAAAAAAAAAAAAAAAAAAAAAAAAAAAAA==

> <PUBCHEM_IUPAC_OPENEYE_NAME>
methyl 5-(but-3-enylamino)-1,3,4-oxadiazole-2-carboxylate

> <PUBCHEM_IUPAC_CAS_NAME>
5-(but-3-enylamino)-1,3,4-oxadiazole-2-carboxylic acid methyl ester

> <PUBCHEM_IUPAC_NAME>
methyl 5-(but-3-enylamino)-1,3,4-oxadiazole-2-carboxylate

> <PUBCHEM_IUPAC_SYSTEMATIC_NAME>
methyl 5-(but-3-enylamino)-1,3,4-oxadiazole-2-carboxylate

> <PUBCHEM_IUPAC_TRADITIONAL_NAME>
5-(but-3-enylamino)-1,3,4-oxadiazole-2-carboxylic acid methyl ester

> <PUBCHEM_IUPAC_INCHI>
InChI=1S/C8H11N3O3/c1-3-4-5-9-8-11-10-6(14-8)7(12)13-2/h3H,1,4-5H2,2H3,(H,9,11)

> <PUBCHEM_IUPAC_INCHIKEY>
RYZCYLNZNIEFLI-UHFFFAOYSA-N

> <PUBCHEM_XLOGP3_AA>
1.4

> <PUBCHEM_EXACT_MASS>
197.080041

> <PUBCHEM_MOLECULAR_FORMULA>
C8H11N3O3

> <PUBCHEM_MOLECULAR_WEIGHT>
197.19124

> <PUBCHEM_OPENEYE_CAN_SMILES>
COC(=O)C1=NN=C(O1)NCCC=C

> <PUBCHEM_OPENEYE_ISO_SMILES>
COC(=O)C1=NN=C(O1)NCCC=C

> <PUBCHEM_CACTVS_TPSA>
77.2

> <PUBCHEM_MONOISOTOPIC_WEIGHT>
197.080041

> <PUBCHEM_TOTAL_CHARGE>
0

> <PUBCHEM_HEAVY_ATOM_COUNT>
14

> <PUBCHEM_ATOM_DEF_STEREO_COUNT>
0

> <PUBCHEM_ATOM_UDEF_STEREO_COUNT>
0

> <PUBCHEM_BOND_DEF_STEREO_COUNT>
0

> <PUBCHEM_BOND_UDEF_STEREO_COUNT>
0

> <PUBCHEM_ISOTOPIC_ATOM_COUNT>
0

> <PUBCHEM_COMPONENT_COUNT>
1

> <PUBCHEM_CACTVS_TAUTO_COUNT>
4

> <PUBCHEM_COORDINATE_TYPE>
1
5
255

> <PUBCHEM_BONDANNOTATIONS>
1  11  8
1  9  8
5  6  8
5  9  8
6  11  8

$$$$

