9850208
  -OEChem-07051212512D

 68 70  0     1  0  0  0  0  0999 V2000
    5.4641   -2.3450    0.0000 O   0  0  0  0  0  0  0  0  0  0  0  0
    9.7942    0.1550    0.0000 O   0  0  0  0  0  0  0  0  0  0  0  0
    5.4641    3.6550    0.0000 O   0  0  0  0  0  0  0  0  0  0  0  0
    4.5981   -3.8450    0.0000 O   0  0  0  0  0  0  0  0  0  0  0  0
   10.6603    1.6550    0.0000 O   0  0  0  0  0  0  0  0  0  0  0  0
    4.5981   -5.8450    0.0000 O   0  0  0  0  0  0  0  0  0  0  0  0
    4.5981    5.1550    0.0000 O   0  0  0  0  0  0  0  0  0  0  0  0
   10.6603    3.6550    0.0000 O   0  0  0  0  0  0  0  0  0  0  0  0
    2.8660    6.1550    0.0000 O   0  0  0  0  0  0  0  0  0  0  0  0
    7.1962   -2.3450    0.0000 N   0  0  0  0  0  0  0  0  0  0  0  0
    8.0622    0.1550    0.0000 N   0  0  0  0  0  0  0  0  0  0  0  0
    4.5981    2.1550    0.0000 N   0  0  0  0  0  0  0  0  0  0  0  0
    7.1962   -1.3450    0.0000 C   0  0  1  0  0  0  0  0  0  0  0  0
    6.3301   -0.8450    0.0000 C   0  0  0  0  0  0  0  0  0  0  0  0
    6.3301    0.1550    0.0000 C   0  0  0  0  0  0  0  0  0  0  0  0
    8.0622   -0.8450    0.0000 C   0  0  0  0  0  0  0  0  0  0  0  0
    5.4641    0.6550    0.0000 C   0  0  0  0  0  0  0  0  0  0  0  0
    5.4641    1.6550    0.0000 C   0  0  0  0  0  0  0  0  0  0  0  0
    6.3301   -2.8450    0.0000 C   0  0  0  0  0  0  0  0  0  0  0  0
    8.9282    0.6550    0.0000 C   0  0  0  0  0  0  0  0  0  0  0  0
    6.3301   -3.8450    0.0000 C   0  0  0  0  0  0  0  0  0  0  0  0
    4.5981    3.1550    0.0000 C   0  0  0  0  0  0  0  0  0  0  0  0
    8.9282    1.6550    0.0000 C   0  0  0  0  0  0  0  0  0  0  0  0
    5.4641   -4.3450    0.0000 C   0  0  0  0  0  0  0  0  0  0  0  0
    7.1962   -4.3450    0.0000 C   0  0  0  0  0  0  0  0  0  0  0  0
    3.7320    3.6550    0.0000 C   0  0  0  0  0  0  0  0  0  0  0  0
    9.7942    2.1550    0.0000 C   0  0  0  0  0  0  0  0  0  0  0  0
    8.0622    2.1550    0.0000 C   0  0  0  0  0  0  0  0  0  0  0  0
    5.4641   -5.3450    0.0000 C   0  0  0  0  0  0  0  0  0  0  0  0
    7.1962   -5.3450    0.0000 C   0  0  0  0  0  0  0  0  0  0  0  0
    6.3301   -5.8450    0.0000 C   0  0  0  0  0  0  0  0  0  0  0  0
    3.7320    4.6550    0.0000 C   0  0  0  0  0  0  0  0  0  0  0  0
    2.8660    3.1550    0.0000 C   0  0  0  0  0  0  0  0  0  0  0  0
    9.7942    3.1550    0.0000 C   0  0  0  0  0  0  0  0  0  0  0  0
    8.0622    3.1550    0.0000 C   0  0  0  0  0  0  0  0  0  0  0  0
    8.9282    3.6550    0.0000 C   0  0  0  0  0  0  0  0  0  0  0  0
    2.8660    5.1550    0.0000 C   0  0  0  0  0  0  0  0  0  0  0  0
    2.0000    3.6550    0.0000 C   0  0  0  0  0  0  0  0  0  0  0  0
    2.0000    4.6550    0.0000 C   0  0  0  0  0  0  0  0  0  0  0  0
    6.6592   -1.6550    0.0000 H   0  0  0  0  0  0  0  0  0  0  0  0
    5.7196   -0.7373    0.0000 H   0  0  0  0  0  0  0  0  0  0  0  0
    6.1181   -1.4276    0.0000 H   0  0  0  0  0  0  0  0  0  0  0  0
    6.9407    0.0473    0.0000 H   0  0  0  0  0  0  0  0  0  0  0  0
    6.5422    0.7376    0.0000 H   0  0  0  0  0  0  0  0  0  0  0  0
    8.2742   -1.4276    0.0000 H   0  0  0  0  0  0  0  0  0  0  0  0
    8.6728   -0.7373    0.0000 H   0  0  0  0  0  0  0  0  0  0  0  0
    4.8535    0.7627    0.0000 H   0  0  0  0  0  0  0  0  0  0  0  0
    5.2520    0.0724    0.0000 H   0  0  0  0  0  0  0  0  0  0  0  0
    7.7331   -2.6550    0.0000 H   0  0  0  0  0  0  0  0  0  0  0  0
    6.0747    1.5473    0.0000 H   0  0  0  0  0  0  0  0  0  0  0  0
    5.6762    2.2376    0.0000 H   0  0  0  0  0  0  0  0  0  0  0  0
    7.5252    0.4650    0.0000 H   0  0  0  0  0  0  0  0  0  0  0  0
    4.0611    1.8450    0.0000 H   0  0  0  0  0  0  0  0  0  0  0  0
    7.7331   -4.0350    0.0000 H   0  0  0  0  0  0  0  0  0  0  0  0
    7.5252    1.8450    0.0000 H   0  0  0  0  0  0  0  0  0  0  0  0
    7.7331   -5.6550    0.0000 H   0  0  0  0  0  0  0  0  0  0  0  0
    6.3301   -6.4650    0.0000 H   0  0  0  0  0  0  0  0  0  0  0  0
    2.8660    2.5350    0.0000 H   0  0  0  0  0  0  0  0  0  0  0  0
    7.5252    3.4650    0.0000 H   0  0  0  0  0  0  0  0  0  0  0  0
    8.9282    4.2750    0.0000 H   0  0  0  0  0  0  0  0  0  0  0  0
    4.0611   -4.1550    0.0000 H   0  0  0  0  0  0  0  0  0  0  0  0
    1.4631    3.3450    0.0000 H   0  0  0  0  0  0  0  0  0  0  0  0
    1.4631    4.9650    0.0000 H   0  0  0  0  0  0  0  0  0  0  0  0
   11.1972    1.9650    0.0000 H   0  0  0  0  0  0  0  0  0  0  0  0
    4.5981   -6.4650    0.0000 H   0  0  0  0  0  0  0  0  0  0  0  0
    4.5981    5.7750    0.0000 H   0  0  0  0  0  0  0  0  0  0  0  0
   10.6603    4.2750    0.0000 H   0  0  0  0  0  0  0  0  0  0  0  0
    2.3291    6.4650    0.0000 H   0  0  0  0  0  0  0  0  0  0  0  0
  1 19  2  0  0  0  0
  2 20  2  0  0  0  0
  3 22  2  0  0  0  0
  4 24  1  0  0  0  0
  4 61  1  0  0  0  0
  5 27  1  0  0  0  0
  5 64  1  0  0  0  0
  6 29  1  0  0  0  0
  6 65  1  0  0  0  0
  7 32  1  0  0  0  0
  7 66  1  0  0  0  0
  8 34  1  0  0  0  0
  8 67  1  0  0  0  0
  9 37  1  0  0  0  0
  9 68  1  0  0  0  0
 13 10  1  1  0  0  0
 10 19  1  0  0  0  0
 10 49  1  0  0  0  0
 11 16  1  0  0  0  0
 11 20  1  0  0  0  0
 11 52  1  0  0  0  0
 12 18  1  0  0  0  0
 12 22  1  0  0  0  0
 12 53  1  0  0  0  0
 13 14  1  0  0  0  0
 13 16  1  0  0  0  0
 13 40  1  0  0  0  0
 14 15  1  0  0  0  0
 14 41  1  0  0  0  0
 14 42  1  0  0  0  0
 15 17  1  0  0  0  0
 15 43  1  0  0  0  0
 15 44  1  0  0  0  0
 16 45  1  0  0  0  0
 16 46  1  0  0  0  0
 17 18  1  0  0  0  0
 17 47  1  0  0  0  0
 17 48  1  0  0  0  0
 18 50  1  0  0  0  0
 18 51  1  0  0  0  0
 19 21  1  0  0  0  0
 20 23  1  0  0  0  0
 21 24  2  0  0  0  0
 21 25  1  0  0  0  0
 22 26  1  0  0  0  0
 23 27  2  0  0  0  0
 23 28  1  0  0  0  0
 24 29  1  0  0  0  0
 25 30  2  0  0  0  0
 25 54  1  0  0  0  0
 26 32  2  0  0  0  0
 26 33  1  0  0  0  0
 27 34  1  0  0  0  0
 28 35  2  0  0  0  0
 28 55  1  0  0  0  0
 29 31  2  0  0  0  0
 30 31  1  0  0  0  0
 30 56  1  0  0  0  0
 31 57  1  0  0  0  0
 32 37  1  0  0  0  0
 33 38  2  0  0  0  0
 33 58  1  0  0  0  0
 34 36  2  0  0  0  0
 35 36  1  0  0  0  0
 35 59  1  0  0  0  0
 36 60  1  0  0  0  0
 37 39  2  0  0  0  0
 38 39  1  0  0  0  0
 38 62  1  0  0  0  0
 39 63  1  0  0  0  0
M  END
> <PUBCHEM_COMPOUND_CID>
9850208

> <PUBCHEM_COMPOUND_CANONICALIZED>
1

> <PUBCHEM_CACTVS_COMPLEXITY>
815

> <PUBCHEM_CACTVS_HBOND_ACCEPTOR>
9

> <PUBCHEM_CACTVS_HBOND_DONOR>
9

> <PUBCHEM_CACTVS_ROTATABLE_BOND>
11

> <PUBCHEM_CACTVS_SUBSKEYS>
AAADceB7PAAAAAAAAAAAAAAAAAAAAAAAAAAwYMAAAAAAAAABUAAAHgAQCAAADCzBmAQwBoLAAgCIAiFSEACCAAAkIAAIiIEOjMgJZjaClROUcUlm9hGJmYe6yDCOAAABAAAIQAAAAAIAABCAAAAAAAAAAA==

> <PUBCHEM_IUPAC_OPENEYE_NAME>
N-[(5S)-5,6-bis[(2,3-dihydroxybenzoyl)amino]hexyl]-2,3-dihydroxy-benzamide

> <PUBCHEM_IUPAC_CAS_NAME>
N-[(5S)-5,6-bis[[(2,3-dihydroxyphenyl)-oxomethyl]amino]hexyl]-2,3-dihydroxybenzamide

> <PUBCHEM_IUPAC_NAME>
N-[(5S)-5,6-bis[(2,3-dihydroxybenzoyl)amino]hexyl]-2,3-dihydroxybenzamide

> <PUBCHEM_IUPAC_SYSTEMATIC_NAME>
N-[(5S)-5,6-bis[[2,3-bis(oxidanyl)phenyl]carbonylamino]hexyl]-2,3-bis(oxidanyl)benzamide

> <PUBCHEM_IUPAC_TRADITIONAL_NAME>
N-[(5S)-5,6-bis[(2,3-dihydroxybenzoyl)amino]hexyl]-2,3-dihydroxy-benzamide

> <PUBCHEM_IUPAC_INCHI>
InChI=1S/C27H29N3O9/c31-19-10-3-7-16(22(19)34)25(37)28-13-2-1-6-15(30-27(39)18-9-5-12-21(33)24(18)36)14-29-26(38)17-8-4-11-20(32)23(17)35/h3-5,7-12,15,31-36H,1-2,6,13-14H2,(H,28,37)(H,29,38)(H,30,39)/t15-/m0/s1

> <PUBCHEM_IUPAC_INCHIKEY>
PQFUTLNOFNJSTL-HNNXBMFYSA-N

> <PUBCHEM_XLOGP3_AA>
3.8

> <PUBCHEM_EXACT_MASS>
539.19038

> <PUBCHEM_MOLECULAR_FORMULA>
C27H29N3O9

> <PUBCHEM_MOLECULAR_WEIGHT>
539.53386

> <PUBCHEM_OPENEYE_CAN_SMILES>
C1=CC(=C(C(=C1)O)O)C(=O)NCCCCC(CNC(=O)C2=C(C(=CC=C2)O)O)NC(=O)C3=C(C(=CC=C3)O)O

> <PUBCHEM_OPENEYE_ISO_SMILES>
C1=CC(=C(C(=C1)O)O)C(=O)NCCCC[C@@H](CNC(=O)C2=C(C(=CC=C2)O)O)NC(=O)C3=C(C(=CC=C3)O)O

> <PUBCHEM_CACTVS_TPSA>
209

> <PUBCHEM_MONOISOTOPIC_WEIGHT>
539.19038

> <PUBCHEM_TOTAL_CHARGE>
0

> <PUBCHEM_HEAVY_ATOM_COUNT>
39

> <PUBCHEM_ATOM_DEF_STEREO_COUNT>
1

> <PUBCHEM_ATOM_UDEF_STEREO_COUNT>
0

> <PUBCHEM_BOND_DEF_STEREO_COUNT>
0

> <PUBCHEM_BOND_UDEF_STEREO_COUNT>
0

> <PUBCHEM_ISOTOPIC_ATOM_COUNT>
0

> <PUBCHEM_COMPONENT_COUNT>
1

> <PUBCHEM_CACTVS_TAUTO_COUNT>
994

> <PUBCHEM_COORDINATE_TYPE>
1
5
255

> <PUBCHEM_BONDANNOTATIONS>
13  10  5
21  24  8
21  25  8
23  27  8
23  28  8
24  29  8
25  30  8
26  32  8
26  33  8
27  34  8
28  35  8
29  31  8
30  31  8
32  37  8
33  38  8
34  36  8
35  36  8
37  39  8
38  39  8

$$$$

