7910
  -OEChem-06261202263D

 21 20  0     1  0  0  0  0  0999 V2000
   -1.0367   -1.2508    0.4925 O   0  0  0  0  0  0  0  0  0  0  0  0
    1.3806    0.2736   -0.4366 C   0  0  0  0  0  0  0  0  0  0  0  0
   -0.0945    0.5217   -0.8001 C   0  0  0  0  0  0  0  0  0  0  0  0
   -1.1214    0.1598    0.2796 C   0  0  1  0  0  0  0  0  0  0  0  0
    1.8020    1.0188    0.8301 C   0  0  0  0  0  0  0  0  0  0  0  0
    1.6230   -1.2279   -0.2580 C   0  0  0  0  0  0  0  0  0  0  0  0
   -2.5531    0.5049   -0.1074 C   0  0  0  0  0  0  0  0  0  0  0  0
    1.9950    0.6274   -1.2739 H   0  0  0  0  0  0  0  0  0  0  0  0
   -0.3232   -0.0367   -1.7178 H   0  0  0  0  0  0  0  0  0  0  0  0
   -0.2102    1.5851   -1.0472 H   0  0  0  0  0  0  0  0  0  0  0  0
   -0.8841    0.6607    1.2230 H   0  0  0  0  0  0  0  0  0  0  0  0
    1.3095    0.6293    1.7264 H   0  0  0  0  0  0  0  0  0  0  0  0
    1.5721    2.0861    0.7475 H   0  0  0  0  0  0  0  0  0  0  0  0
    2.8824    0.9220    0.9841 H   0  0  0  0  0  0  0  0  0  0  0  0
    1.1599   -1.8139   -1.0585 H   0  0  0  0  0  0  0  0  0  0  0  0
    2.7007   -1.4271   -0.2983 H   0  0  0  0  0  0  0  0  0  0  0  0
    1.2836   -1.6039    0.7115 H   0  0  0  0  0  0  0  0  0  0  0  0
   -2.8535   -0.0340   -1.0126 H   0  0  0  0  0  0  0  0  0  0  0  0
   -3.2488    0.2048    0.6836 H   0  0  0  0  0  0  0  0  0  0  0  0
   -2.6670    1.5787   -0.2835 H   0  0  0  0  0  0  0  0  0  0  0  0
   -1.6617   -1.4779    1.2019 H   0  0  0  0  0  0  0  0  0  0  0  0
  1  4  1  0  0  0  0
  1 21  1  0  0  0  0
  2  3  1  0  0  0  0
  2  5  1  0  0  0  0
  2  6  1  0  0  0  0
  2  8  1  0  0  0  0
  3  4  1  0  0  0  0
  3  9  1  0  0  0  0
  3 10  1  0  0  0  0
  4  7  1  0  0  0  0
  4 11  1  0  0  0  0
  5 12  1  0  0  0  0
  5 13  1  0  0  0  0
  5 14  1  0  0  0  0
  6 15  1  0  0  0  0
  6 16  1  0  0  0  0
  6 17  1  0  0  0  0
  7 18  1  0  0  0  0
  7 19  1  0  0  0  0
  7 20  1  0  0  0  0
M  END
> <PUBCHEM_COMPOUND_CID>
7910

> <PUBCHEM_CONFORMER_RMSD>
0.4

> <PUBCHEM_CONFORMER_DIVERSEORDER>
1
2

> <PUBCHEM_MMFF94_PARTIAL_CHARGES>
3
1 -0.68
21 0.4
4 0.28

> <PUBCHEM_EFFECTIVE_ROTOR_COUNT>
2

> <PUBCHEM_PHARMACOPHORE_FEATURES>
3
1 1 acceptor
1 1 donor
3 2 5 6 hydrophobe

> <PUBCHEM_HEAVY_ATOM_COUNT>
7

> <PUBCHEM_ATOM_DEF_STEREO_COUNT>
0

> <PUBCHEM_ATOM_UDEF_STEREO_COUNT>
1

> <PUBCHEM_BOND_DEF_STEREO_COUNT>
0

> <PUBCHEM_BOND_UDEF_STEREO_COUNT>
0

> <PUBCHEM_ISOTOPIC_ATOM_COUNT>
0

> <PUBCHEM_COMPONENT_COUNT>
1

> <PUBCHEM_CACTVS_TAUTO_COUNT>
1

> <PUBCHEM_CONFORMER_ID>
00001EE600000001

> <PUBCHEM_MMFF94_ENERGY>
9.6647

> <PUBCHEM_FEATURE_SELFOVERLAP>
15.223

> <PUBCHEM_SHAPE_FINGERPRINT>
14390081 3 17967817115414360041
16714656 1 17632003268941351095
20096714 4 17095807611916133184
21040471 1 18272646852964653789
23552449 11 18188497989622474142
24536 1 18130222653532025037
29004967 10 18411976975058147976
5084963 1 18271237335050811813

> <PUBCHEM_SHAPE_MULTIPOLES>
138.19
3.04
1.24
0.88
1.21
0.26
-0.02
-0.32
0.19
-0.46
0.17
-0.13
-0.1
0.34

> <PUBCHEM_SHAPE_SELFOVERLAP>
243.494

> <PUBCHEM_SHAPE_VOLUME>
91.9

> <PUBCHEM_COORDINATE_TYPE>
2
5
10

$$$$

