11323
  -OEChem-06261205323D

 49 52  0     0  0  0  0  0  0999 V2000
    0.0014   -0.0206   -0.5342 O   0  0  0  0  0  0  0  0  0  0  0  0
    1.1885   -0.0138    0.2780 C   0  0  0  0  0  0  0  0  0  0  0  0
   -1.1615   -0.0130    0.2717 C   0  0  0  0  0  0  0  0  0  0  0  0
    2.2926   -0.7667   -0.3842 C   0  0  0  0  0  0  0  0  0  0  0  0
    1.5674    1.4106    0.6715 C   0  0  0  0  0  0  0  0  0  0  0  0
   -2.2636    0.7692   -0.4122 C   0  0  0  0  0  0  0  0  0  0  0  0
   -1.5869   -1.4161    0.6591 C   0  0  0  0  0  0  0  0  0  0  0  0
    3.2535   -1.4191    0.3885 C   0  0  0  0  0  0  0  0  0  0  0  0
    2.2175    1.6172    1.8691 C   0  0  0  0  0  0  0  0  0  0  0  0
   -3.2002    1.4315    0.3613 C   0  0  0  0  0  0  0  0  0  0  0  0
   -2.2410   -1.6126    1.8612 C   0  0  0  0  0  0  0  0  0  0  0  0
    2.3643   -0.8191   -1.7764 C   0  0  0  0  0  0  0  0  0  0  0  0
    1.2473    2.4427   -0.1839 C   0  0  0  0  0  0  0  0  0  0  0  0
   -2.3080    0.8040   -1.7946 C   0  0  0  0  0  0  0  0  0  0  0  0
   -1.3105   -2.4639   -0.1996 C   0  0  0  0  0  0  0  0  0  0  0  0
    4.2861   -2.1233   -0.2307 C   0  0  0  0  0  0  0  0  0  0  0  0
    2.5643    2.9195    2.2288 C   0  0  0  0  0  0  0  0  0  0  0  0
   -4.2151    2.1521   -0.2684 C   0  0  0  0  0  0  0  0  0  0  0  0
   -2.6325   -2.9030    2.2176 C   0  0  0  0  0  0  0  0  0  0  0  0
    3.3969   -1.5235   -2.3955 C   0  0  0  0  0  0  0  0  0  0  0  0
    1.5941    3.7449    0.1760 C   0  0  0  0  0  0  0  0  0  0  0  0
   -3.3228    1.5248   -2.4242 C   0  0  0  0  0  0  0  0  0  0  0  0
   -1.7023   -3.7544    0.1568 C   0  0  0  0  0  0  0  0  0  0  0  0
    4.3577   -2.1756   -1.6226 C   0  0  0  0  0  0  0  0  0  0  0  0
    2.2526    3.9832    1.3824 C   0  0  0  0  0  0  0  0  0  0  0  0
   -4.2763    2.1988   -1.6611 C   0  0  0  0  0  0  0  0  0  0  0  0
   -2.3632   -3.9739    1.3655 C   0  0  0  0  0  0  0  0  0  0  0  0
    0.9615   -0.5666    1.2027 H   0  0  0  0  0  0  0  0  0  0  0  0
   -0.9409    0.5399    1.1977 H   0  0  0  0  0  0  0  0  0  0  0  0
    3.2103   -1.3935    1.4739 H   0  0  0  0  0  0  0  0  0  0  0  0
    2.4600    0.7977    2.5382 H   0  0  0  0  0  0  0  0  0  0  0  0
   -3.1616    1.4082    1.4461 H   0  0  0  0  0  0  0  0  0  0  0  0
   -2.4518   -0.7886    2.5360 H   0  0  0  0  0  0  0  0  0  0  0  0
    1.6345   -0.3116   -2.4013 H   0  0  0  0  0  0  0  0  0  0  0  0
    0.7478    2.2786   -1.1333 H   0  0  0  0  0  0  0  0  0  0  0  0
   -1.5837    0.2786   -2.4097 H   0  0  0  0  0  0  0  0  0  0  0  0
   -0.8070   -2.3142   -1.1497 H   0  0  0  0  0  0  0  0  0  0  0  0
    5.0335   -2.6320    0.3709 H   0  0  0  0  0  0  0  0  0  0  0  0
    3.0759    3.1053    3.1687 H   0  0  0  0  0  0  0  0  0  0  0  0
   -4.9569    2.6780    0.3256 H   0  0  0  0  0  0  0  0  0  0  0  0
   -3.1460   -3.0743    3.1592 H   0  0  0  0  0  0  0  0  0  0  0  0
    3.4543   -1.5625   -3.4794 H   0  0  0  0  0  0  0  0  0  0  0  0
    1.3541    4.5732   -0.4844 H   0  0  0  0  0  0  0  0  0  0  0  0
   -3.3722    1.5593   -3.5086 H   0  0  0  0  0  0  0  0  0  0  0  0
   -1.4947   -4.5880   -0.5077 H   0  0  0  0  0  0  0  0  0  0  0  0
    5.1617   -2.7238   -2.1048 H   0  0  0  0  0  0  0  0  0  0  0  0
    2.5229    4.9972    1.6623 H   0  0  0  0  0  0  0  0  0  0  0  0
   -5.0666    2.7596   -2.1514 H   0  0  0  0  0  0  0  0  0  0  0  0
   -2.6683   -4.9787    1.6428 H   0  0  0  0  0  0  0  0  0  0  0  0
  1  2  1  0  0  0  0
  1  3  1  0  0  0  0
  2  4  1  0  0  0  0
  2  5  1  0  0  0  0
  2 28  1  0  0  0  0
  3  6  1  0  0  0  0
  3  7  1  0  0  0  0
  3 29  1  0  0  0  0
  4  8  2  0  0  0  0
  4 12  1  0  0  0  0
  5  9  2  0  0  0  0
  5 13  1  0  0  0  0
  6 10  2  0  0  0  0
  6 14  1  0  0  0  0
  7 11  2  0  0  0  0
  7 15  1  0  0  0  0
  8 16  1  0  0  0  0
  8 30  1  0  0  0  0
  9 17  1  0  0  0  0
  9 31  1  0  0  0  0
 10 18  1  0  0  0  0
 10 32  1  0  0  0  0
 11 19  1  0  0  0  0
 11 33  1  0  0  0  0
 12 20  2  0  0  0  0
 12 34  1  0  0  0  0
 13 21  2  0  0  0  0
 13 35  1  0  0  0  0
 14 22  2  0  0  0  0
 14 36  1  0  0  0  0
 15 23  2  0  0  0  0
 15 37  1  0  0  0  0
 16 24  2  0  0  0  0
 16 38  1  0  0  0  0
 17 25  2  0  0  0  0
 17 39  1  0  0  0  0
 18 26  2  0  0  0  0
 18 40  1  0  0  0  0
 19 27  2  0  0  0  0
 19 41  1  0  0  0  0
 20 24  1  0  0  0  0
 20 42  1  0  0  0  0
 21 25  1  0  0  0  0
 21 43  1  0  0  0  0
 22 26  1  0  0  0  0
 22 44  1  0  0  0  0
 23 27  1  0  0  0  0
 23 45  1  0  0  0  0
 24 46  1  0  0  0  0
 25 47  1  0  0  0  0
 26 48  1  0  0  0  0
 27 49  1  0  0  0  0
M  END
> <PUBCHEM_COMPOUND_CID>
11323

> <PUBCHEM_CONFORMER_RMSD>
0.8

> <PUBCHEM_CONFORMER_DIVERSEORDER>
1
12
2
10
11
15
13
7
14
9
6
8
5
3
4

> <PUBCHEM_MMFF94_PARTIAL_CHARGES>
47
1 -0.56
10 -0.15
11 -0.15
12 -0.15
13 -0.15
14 -0.15
15 -0.15
16 -0.15
17 -0.15
18 -0.15
19 -0.15
2 0.57
20 -0.15
21 -0.15
22 -0.15
23 -0.15
24 -0.15
25 -0.15
26 -0.15
27 -0.15
3 0.57
30 0.15
31 0.15
32 0.15
33 0.15
34 0.15
35 0.15
36 0.15
37 0.15
38 0.15
39 0.15
4 -0.14
40 0.15
41 0.15
42 0.15
43 0.15
44 0.15
45 0.15
46 0.15
47 0.15
48 0.15
49 0.15
5 -0.14
6 -0.14
7 -0.14
8 -0.15
9 -0.15

> <PUBCHEM_EFFECTIVE_ROTOR_COUNT>
6

> <PUBCHEM_PHARMACOPHORE_FEATURES>
5
1 1 acceptor
6 4 8 12 16 20 24 rings
6 5 9 13 17 21 25 rings
6 6 10 14 18 22 26 rings
6 7 11 15 19 23 27 rings

> <PUBCHEM_HEAVY_ATOM_COUNT>
27

> <PUBCHEM_ATOM_DEF_STEREO_COUNT>
0

> <PUBCHEM_ATOM_UDEF_STEREO_COUNT>
0

> <PUBCHEM_BOND_DEF_STEREO_COUNT>
0

> <PUBCHEM_BOND_UDEF_STEREO_COUNT>
0

> <PUBCHEM_ISOTOPIC_ATOM_COUNT>
0

> <PUBCHEM_COMPONENT_COUNT>
1

> <PUBCHEM_CACTVS_TAUTO_COUNT>
1

> <PUBCHEM_CONFORMER_ID>
00002C3B00000001

> <PUBCHEM_MMFF94_ENERGY>
82.5434

> <PUBCHEM_FEATURE_SELFOVERLAP>
25.372

> <PUBCHEM_SHAPE_FINGERPRINT>
10165383 225 17914597600646200445
10305334 12 17694553313288722248
10675989 125 17763188338109478388
10906281 52 18187648059129941728
11578080 2 18269258110957580780
12160290 23 17560529404626215903
12293681 160 17977668937294231668
12714826 92 18199160989080726590
12788726 201 17903354059149150478
13149001 5 18410293635477310140
133893 2 17458905933942315708
13681431 1 18040990752931367036
13692114 37 18341899606806793251
14223421 5 18194117404494303234
15420108 30 16235042075048849273
15439362 3 18336282196630416600
15775530 1 18338517413315746181
1813 80 17751082620572134052
18365409 1 14875855599006466028
19319366 153 17402880615339214721
20600515 1 18266168612617436532
20775438 99 18047783458384666295
21033648 29 18057904591461823309
229495 10 17897160209206830555
23557571 272 17842560643630678455
23558518 356 18266478537299163055
23559900 14 18270393872003521559
283562 15 17760364796596804368
3084891 72 18124030405923976490
3298306 158 18056478585194483023
3380486 77 18054226806928844250
3493558 16 15359411716155219579
376196 1 17613489580790625417
6049 1 18339349760813770131
621550 34 17831854655649978043
7226269 152 18123756610929078750
7399639 24 17832425293668751168
81228 2 17916307126468276259
9709674 26 18337681797627399327
9981440 41 17464294575726403721

> <PUBCHEM_SHAPE_MULTIPOLES>
549.78
7.68
5.4
2.34
0.35
0.03
-0.31
-0.31
-2.77
-0.16
2.42
-0.03
0.04
5.28

> <PUBCHEM_SHAPE_SELFOVERLAP>
1209.912

> <PUBCHEM_SHAPE_VOLUME>
294.1

> <PUBCHEM_COORDINATE_TYPE>
2
5
10

$$$$

