5281662
  -OEChem-07051212582D

 51 54  0     1  0  0  0  0  0999 V2000
    8.9951    1.6377    0.0000 O   0  0  0  0  0  0  0  0  0  0  0  0
    8.1465    0.1278    0.0000 O   0  0  0  0  0  0  0  0  0  0  0  0
   11.6103    0.1679    0.0000 O   0  0  0  0  0  0  0  0  0  0  0  0
   11.5872    2.1677    0.0000 O   0  0  0  0  0  0  0  0  0  0  0  0
    9.8900   -0.8521    0.0000 O   0  0  0  0  0  0  0  0  0  0  0  0
    8.9720    3.6376    0.0000 O   0  0  0  0  0  0  0  0  0  0  0  0
    6.3981   -2.9068    0.0000 O   0  0  0  0  0  0  0  0  0  0  0  0
    6.3981    0.0932    0.0000 O   0  0  0  0  0  0  0  0  0  0  0  0
    8.1465   -3.9414    0.0000 O   0  0  0  0  0  0  0  0  0  0  0  0
    4.6497    0.1278    0.0000 O   0  0  0  0  0  0  0  0  0  0  0  0
    2.8680   -2.9309    0.0000 O   0  0  0  0  0  0  0  0  0  0  0  0
   10.7386    0.6578    0.0000 C   0  0  1  0  0  0  0  0  0  0  0  0
   10.7270    1.6578    0.0000 C   0  0  1  0  0  0  0  0  0  0  0  0
    9.8784    0.1478    0.0000 C   0  0  2  0  0  0  0  0  0  0  0  0
    9.8553    2.1477    0.0000 C   0  0  1  0  0  0  0  0  0  0  0  0
    9.0067    0.6378    0.0000 C   0  0  1  0  0  0  0  0  0  0  0  0
    9.8437    3.1476    0.0000 C   0  0  0  0  0  0  0  0  0  0  0  0
    8.1580   -0.8721    0.0000 C   0  0  0  0  0  0  0  0  0  0  0  0
    7.2641   -1.4068    0.0000 C   0  0  0  0  0  0  0  0  0  0  0  0
    7.2641   -2.4068    0.0000 C   0  0  0  0  0  0  0  0  0  0  0  0
    9.0641   -1.3860    0.0000 C   0  0  0  0  0  0  0  0  0  0  0  0
    6.3981   -0.9068    0.0000 C   0  0  0  0  0  0  0  0  0  0  0  0
    5.5320   -1.4068    0.0000 C   0  0  0  0  0  0  0  0  0  0  0  0
    8.1580   -2.9414    0.0000 C   0  0  0  0  0  0  0  0  0  0  0  0
    9.0641   -2.4276    0.0000 C   0  0  0  0  0  0  0  0  0  0  0  0
    5.5320   -2.4068    0.0000 C   0  0  0  0  0  0  0  0  0  0  0  0
    4.6381   -0.8721    0.0000 C   0  0  0  0  0  0  0  0  0  0  0  0
    4.6381   -2.9414    0.0000 C   0  0  0  0  0  0  0  0  0  0  0  0
    3.7320   -2.4276    0.0000 C   0  0  0  0  0  0  0  0  0  0  0  0
    3.7320   -1.3860    0.0000 C   0  0  0  0  0  0  0  0  0  0  0  0
    2.0000   -2.4343    0.0000 C   0  0  0  0  0  0  0  0  0  0  0  0
   11.2719    0.9740    0.0000 H   0  0  0  0  0  0  0  0  0  0  0  0
   11.2675    1.3540    0.0000 H   0  0  0  0  0  0  0  0  0  0  0  0
    9.3451   -0.1683    0.0000 H   0  0  0  0  0  0  0  0  0  0  0  0
    9.3148    2.4515    0.0000 H   0  0  0  0  0  0  0  0  0  0  0  0
    9.0138    0.0178    0.0000 H   0  0  0  0  0  0  0  0  0  0  0  0
   10.4555    3.0470    0.0000 H   0  0  0  0  0  0  0  0  0  0  0  0
   10.0490    3.7327    0.0000 H   0  0  0  0  0  0  0  0  0  0  0  0
   12.1437    0.4841    0.0000 H   0  0  0  0  0  0  0  0  0  0  0  0
   11.5801    2.7877    0.0000 H   0  0  0  0  0  0  0  0  0  0  0  0
   10.4305   -1.1559    0.0000 H   0  0  0  0  0  0  0  0  0  0  0  0
    8.9648    4.2576    0.0000 H   0  0  0  0  0  0  0  0  0  0  0  0
    9.5998   -1.0739    0.0000 H   0  0  0  0  0  0  0  0  0  0  0  0
    9.5998   -2.7397    0.0000 H   0  0  0  0  0  0  0  0  0  0  0  0
    4.6453   -3.5614    0.0000 H   0  0  0  0  0  0  0  0  0  0  0  0
    3.1963   -1.0739    0.0000 H   0  0  0  0  0  0  0  0  0  0  0  0
    8.6798   -4.2576    0.0000 H   0  0  0  0  0  0  0  0  0  0  0  0
    4.1164    0.4440    0.0000 H   0  0  0  0  0  0  0  0  0  0  0  0
    2.3079   -1.8961    0.0000 H   0  0  0  0  0  0  0  0  0  0  0  0
    1.4619   -2.1263    0.0000 H   0  0  0  0  0  0  0  0  0  0  0  0
    1.6921   -2.9724    0.0000 H   0  0  0  0  0  0  0  0  0  0  0  0
  1 15  1  0  0  0  0
  1 16  1  0  0  0  0
 16  2  1  6  0  0  0
  2 18  1  0  0  0  0
 12  3  1  6  0  0  0
  3 39  1  0  0  0  0
 13  4  1  1  0  0  0
  4 40  1  0  0  0  0
 14  5  1  1  0  0  0
  5 41  1  0  0  0  0
  6 17  1  0  0  0  0
  6 42  1  0  0  0  0
  7 20  1  0  0  0  0
  7 26  1  0  0  0  0
  8 22  2  0  0  0  0
  9 24  1  0  0  0  0
  9 47  1  0  0  0  0
 10 27  1  0  0  0  0
 10 48  1  0  0  0  0
 11 29  1  0  0  0  0
 11 31  1  0  0  0  0
 12 13  1  0  0  0  0
 12 14  1  0  0  0  0
 12 32  1  0  0  0  0
 13 15  1  0  0  0  0
 13 33  1  0  0  0  0
 14 16  1  0  0  0  0
 14 34  1  0  0  0  0
 15 17  1  6  0  0  0
 15 35  1  0  0  0  0
 16 36  1  0  0  0  0
 17 37  1  0  0  0  0
 17 38  1  0  0  0  0
 18 19  2  0  0  0  0
 18 21  1  0  0  0  0
 19 20  1  0  0  0  0
 19 22  1  0  0  0  0
 20 24  2  0  0  0  0
 21 25  2  0  0  0  0
 21 43  1  0  0  0  0
 22 23  1  0  0  0  0
 23 26  1  0  0  0  0
 23 27  2  0  0  0  0
 24 25  1  0  0  0  0
 25 44  1  0  0  0  0
 26 28  2  0  0  0  0
 27 30  1  0  0  0  0
 28 29  1  0  0  0  0
 28 45  1  0  0  0  0
 29 30  2  0  0  0  0
 30 46  1  0  0  0  0
 31 49  1  0  0  0  0
 31 50  1  0  0  0  0
 31 51  1  0  0  0  0
M  END
> <PUBCHEM_COMPOUND_CID>
5281662

> <PUBCHEM_COMPOUND_CANONICALIZED>
1

> <PUBCHEM_CACTVS_COMPLEXITY>
647

> <PUBCHEM_CACTVS_HBOND_ACCEPTOR>
11

> <PUBCHEM_CACTVS_HBOND_DONOR>
6

> <PUBCHEM_CACTVS_ROTATABLE_BOND>
4

> <PUBCHEM_CACTVS_SUBSKEYS>
AAADceB4PAAAAAAAAAAAAAAAAAAAAAAAAAA0aIEAAAAAAACRQAAAGgAACAAADBSwmAMyDoAABgCIAqBSAAACCAAkIAAIiAEGiMgdNzaGNRqieWOl4BUPuQfK7PzOIQABCAAIQABCAAIQABCAAAAAAAAAAA==

> <PUBCHEM_IUPAC_OPENEYE_NAME>
1,5-dihydroxy-3-methoxy-8-[(2S,3R,4S,5S,6R)-3,4,5-trihydroxy-6-(hydroxymethyl)tetrahydropyran-2-yl]oxy-xanthen-9-one

> <PUBCHEM_IUPAC_CAS_NAME>
1,5-dihydroxy-3-methoxy-8-[[(2S,3R,4S,5S,6R)-3,4,5-trihydroxy-6-(hydroxymethyl)-2-oxanyl]oxy]-9-xanthenone

> <PUBCHEM_IUPAC_NAME>
1,5-dihydroxy-3-methoxy-8-[(2S,3R,4S,5S,6R)-3,4,5-trihydroxy-6-(hydroxymethyl)oxan-2-yl]oxyxanthen-9-one

> <PUBCHEM_IUPAC_SYSTEMATIC_NAME>
8-[(2S,3R,4S,5S,6R)-6-(hydroxymethyl)-3,4,5-tris(oxidanyl)oxan-2-yl]oxy-3-methoxy-1,5-bis(oxidanyl)xanthen-9-one

> <PUBCHEM_IUPAC_TRADITIONAL_NAME>
1,5-dihydroxy-3-methoxy-8-[(2S,3R,4S,5S,6R)-3,4,5-trihydroxy-6-methylol-tetrahydropyran-2-yl]oxy-xanthone

> <PUBCHEM_IUPAC_INCHI>
InChI=1S/C20H20O11/c1-28-7-4-9(23)13-11(5-7)29-19-8(22)2-3-10(14(19)16(13)25)30-20-18(27)17(26)15(24)12(6-21)31-20/h2-5,12,15,17-18,20-24,26-27H,6H2,1H3/t12-,15-,17+,18-,20-/m1/s1

> <PUBCHEM_IUPAC_INCHIKEY>
XMVBNLMKPMPWAX-DIKOWXHZSA-N

> <PUBCHEM_XLOGP3_AA>
0.6

> <PUBCHEM_EXACT_MASS>
436.100561

> <PUBCHEM_MOLECULAR_FORMULA>
C20H20O11

> <PUBCHEM_MOLECULAR_WEIGHT>
436.3662

> <PUBCHEM_OPENEYE_CAN_SMILES>
COC1=CC(=C2C(=C1)OC3=C(C=CC(=C3C2=O)OC4C(C(C(C(O4)CO)O)O)O)O)O

> <PUBCHEM_OPENEYE_ISO_SMILES>
COC1=CC(=C2C(=C1)OC3=C(C=CC(=C3C2=O)O[C@H]4[C@@H]([C@H]([C@@H]([C@H](O4)CO)O)O)O)O)O

> <PUBCHEM_CACTVS_TPSA>
175

> <PUBCHEM_MONOISOTOPIC_WEIGHT>
436.100561

> <PUBCHEM_TOTAL_CHARGE>
0

> <PUBCHEM_HEAVY_ATOM_COUNT>
31

> <PUBCHEM_ATOM_DEF_STEREO_COUNT>
5

> <PUBCHEM_ATOM_UDEF_STEREO_COUNT>
0

> <PUBCHEM_BOND_DEF_STEREO_COUNT>
0

> <PUBCHEM_BOND_UDEF_STEREO_COUNT>
0

> <PUBCHEM_ISOTOPIC_ATOM_COUNT>
0

> <PUBCHEM_COMPONENT_COUNT>
1

> <PUBCHEM_CACTVS_TAUTO_COUNT>
10

> <PUBCHEM_COORDINATE_TYPE>
1
5
255

> <PUBCHEM_BONDANNOTATIONS>
15  17  6
18  19  8
18  21  8
19  20  8
19  22  8
16  2  6
20  24  8
21  25  8
22  23  8
23  26  8
23  27  8
24  25  8
26  28  8
27  30  8
28  29  8
29  30  8
12  3  6
13  4  5
14  5  5
7  20  8
7  26  8

$$$$

