10250053
  -OEChem-07051213022D

 66 66  0     1  0  0  0  0  0999 V2000
    7.1962    2.5950    0.0000 O   0  0  0  0  0  0  0  0  0  0  0  0
    5.4641    2.5950    0.0000 O   0  0  0  0  0  0  0  0  0  0  0  0
    3.7320   -0.4050    0.0000 O   0  0  0  0  0  0  0  0  0  0  0  0
    9.7942   -1.9050    0.0000 O   0  0  0  0  0  0  0  0  0  0  0  0
    5.5981    0.0950    0.0000 O   0  0  0  0  0  0  0  0  0  0  0  0
    8.0622    1.0950    0.0000 C   0  0  2  0  0  0  0  0  0  0  0  0
    7.1962    1.5950    0.0000 C   0  0  1  0  0  0  0  0  0  0  0  0
    6.3301    1.0950    0.0000 C   0  0  2  0  0  0  0  0  0  0  0  0
    8.0622    0.0950    0.0000 C   0  0  0  0  0  0  0  0  0  0  0  0
    8.9282    1.5950    0.0000 C   0  0  0  0  0  0  0  0  0  0  0  0
    5.4641    1.5950    0.0000 C   0  0  1  0  0  0  0  0  0  0  0  0
    8.9282   -0.4050    0.0000 C   0  0  1  0  0  0  0  0  0  0  0  0
    6.3301    0.0950    0.0000 C   0  0  0  0  0  0  0  0  0  0  0  0
    4.5981    1.0950    0.0000 C   0  0  0  0  0  0  0  0  0  0  0  0
    8.9282    2.5950    0.0000 C   0  0  0  0  0  0  0  0  0  0  0  0
    9.7942    0.0950    0.0000 C   0  0  0  0  0  0  0  0  0  0  0  0
    8.9282   -1.4050    0.0000 C   0  0  0  0  0  0  0  0  0  0  0  0
    4.5981    0.0950    0.0000 C   0  0  0  0  0  0  0  0  0  0  0  0
    3.7320   -1.4050    0.0000 C   0  0  1  0  0  0  0  0  0  0  0  0
    4.5981   -1.9050    0.0000 C   0  0  2  0  0  0  0  0  0  0  0  0
    8.0622   -1.9050    0.0000 C   0  0  0  0  0  0  0  0  0  0  0  0
    2.8660   -1.9050    0.0000 C   0  0  0  0  0  0  0  0  0  0  0  0
    5.4641   -1.4050    0.0000 C   0  0  0  0  0  0  0  0  0  0  0  0
    4.5981   -2.9050    0.0000 C   0  0  0  0  0  0  0  0  0  0  0  0
    6.3301   -1.9050    0.0000 C   0  0  0  0  0  0  0  0  0  0  0  0
    7.1962   -1.4050    0.0000 C   0  0  0  0  0  0  0  0  0  0  0  0
    2.0000   -1.4050    0.0000 C   0  0  0  0  0  0  0  0  0  0  0  0
    6.3301   -2.9050    0.0000 C   0  0  0  0  0  0  0  0  0  0  0  0
    8.0622    1.7150    0.0000 H   0  0  0  0  0  0  0  0  0  0  0  0
    6.6592    1.9050    0.0000 H   0  0  0  0  0  0  0  0  0  0  0  0
    6.8671    0.7850    0.0000 H   0  0  0  0  0  0  0  0  0  0  0  0
    7.4516    0.2027    0.0000 H   0  0  0  0  0  0  0  0  0  0  0  0
    7.8501   -0.4876    0.0000 H   0  0  0  0  0  0  0  0  0  0  0  0
    6.0010    1.9050    0.0000 H   0  0  0  0  0  0  0  0  0  0  0  0
    9.1403    1.0124    0.0000 H   0  0  0  0  0  0  0  0  0  0  0  0
    9.5388    1.7027    0.0000 H   0  0  0  0  0  0  0  0  0  0  0  0
    9.4651   -0.7150    0.0000 H   0  0  0  0  0  0  0  0  0  0  0  0
    5.7101    0.0950    0.0000 H   0  0  0  0  0  0  0  0  0  0  0  0
    6.3301   -0.5250    0.0000 H   0  0  0  0  0  0  0  0  0  0  0  0
    6.9501    0.0950    0.0000 H   0  0  0  0  0  0  0  0  0  0  0  0
    4.3860    1.6776    0.0000 H   0  0  0  0  0  0  0  0  0  0  0  0
    3.9875    0.9873    0.0000 H   0  0  0  0  0  0  0  0  0  0  0  0
    9.5482    2.5950    0.0000 H   0  0  0  0  0  0  0  0  0  0  0  0
    8.9282    3.2150    0.0000 H   0  0  0  0  0  0  0  0  0  0  0  0
    8.3082    2.5950    0.0000 H   0  0  0  0  0  0  0  0  0  0  0  0
    7.7331    2.9050    0.0000 H   0  0  0  0  0  0  0  0  0  0  0  0
   10.1042   -0.4419    0.0000 H   0  0  0  0  0  0  0  0  0  0  0  0
   10.3312    0.4050    0.0000 H   0  0  0  0  0  0  0  0  0  0  0  0
    9.4842    0.6319    0.0000 H   0  0  0  0  0  0  0  0  0  0  0  0
    4.9272    2.9050    0.0000 H   0  0  0  0  0  0  0  0  0  0  0  0
    3.1951   -1.0950    0.0000 H   0  0  0  0  0  0  0  0  0  0  0  0
    5.1350   -2.2150    0.0000 H   0  0  0  0  0  0  0  0  0  0  0  0
    8.0622   -2.5250    0.0000 H   0  0  0  0  0  0  0  0  0  0  0  0
    2.4675   -2.3800    0.0000 H   0  0  0  0  0  0  0  0  0  0  0  0
    3.2646   -2.3800    0.0000 H   0  0  0  0  0  0  0  0  0  0  0  0
    5.4641   -0.7850    0.0000 H   0  0  0  0  0  0  0  0  0  0  0  0
    3.9781   -2.9050    0.0000 H   0  0  0  0  0  0  0  0  0  0  0  0
    4.5981   -3.5250    0.0000 H   0  0  0  0  0  0  0  0  0  0  0  0
    5.2181   -2.9050    0.0000 H   0  0  0  0  0  0  0  0  0  0  0  0
    7.1962   -0.7850    0.0000 H   0  0  0  0  0  0  0  0  0  0  0  0
    2.3100   -0.8681    0.0000 H   0  0  0  0  0  0  0  0  0  0  0  0
    1.4631   -1.0950    0.0000 H   0  0  0  0  0  0  0  0  0  0  0  0
    1.6900   -1.9419    0.0000 H   0  0  0  0  0  0  0  0  0  0  0  0
    5.7101   -2.9050    0.0000 H   0  0  0  0  0  0  0  0  0  0  0  0
    6.3301   -3.5250    0.0000 H   0  0  0  0  0  0  0  0  0  0  0  0
    6.9501   -2.9050    0.0000 H   0  0  0  0  0  0  0  0  0  0  0  0
  7  1  1  1  0  0  0
  1 46  1  0  0  0  0
 11  2  1  1  0  0  0
  2 50  1  0  0  0  0
  3 18  1  0  0  0  0
  3 19  1  0  0  0  0
  4 17  2  0  0  0  0
  5 18  2  0  0  0  0
  6  7  1  0  0  0  0
  6  9  1  0  0  0  0
  6 10  1  1  0  0  0
  6 29  1  0  0  0  0
  7  8  1  0  0  0  0
  7 30  1  0  0  0  0
  8 11  1  0  0  0  0
  8 13  1  1  0  0  0
  8 31  1  0  0  0  0
  9 12  1  0  0  0  0
  9 32  1  0  0  0  0
  9 33  1  0  0  0  0
 10 15  1  0  0  0  0
 10 35  1  0  0  0  0
 10 36  1  0  0  0  0
 11 14  1  0  0  0  0
 11 34  1  0  0  0  0
 12 16  1  1  0  0  0
 12 17  1  0  0  0  0
 12 37  1  0  0  0  0
 13 38  1  0  0  0  0
 13 39  1  0  0  0  0
 13 40  1  0  0  0  0
 14 18  1  0  0  0  0
 14 41  1  0  0  0  0
 14 42  1  0  0  0  0
 15 43  1  0  0  0  0
 15 44  1  0  0  0  0
 15 45  1  0  0  0  0
 16 47  1  0  0  0  0
 16 48  1  0  0  0  0
 16 49  1  0  0  0  0
 17 21  1  0  0  0  0
 19 20  1  0  0  0  0
 19 22  1  1  0  0  0
 19 51  1  0  0  0  0
 20 23  1  0  0  0  0
 20 24  1  6  0  0  0
 20 52  1  0  0  0  0
 21 26  2  0  0  0  0
 21 53  1  0  0  0  0
 22 27  1  0  0  0  0
 22 54  1  0  0  0  0
 22 55  1  0  0  0  0
 23 25  2  0  0  0  0
 23 56  1  0  0  0  0
 24 57  1  0  0  0  0
 24 58  1  0  0  0  0
 24 59  1  0  0  0  0
 25 26  1  0  0  0  0
 25 28  1  0  0  0  0
 26 60  1  0  0  0  0
 27 61  1  0  0  0  0
 27 62  1  0  0  0  0
 27 63  1  0  0  0  0
 28 64  1  0  0  0  0
 28 65  1  0  0  0  0
 28 66  1  0  0  0  0
M  END
> <PUBCHEM_COMPOUND_CID>
10250053

> <PUBCHEM_COMPOUND_CANONICALIZED>
1

> <PUBCHEM_CACTVS_COMPLEXITY>
580

> <PUBCHEM_CACTVS_HBOND_ACCEPTOR>
5

> <PUBCHEM_CACTVS_HBOND_DONOR>
2

> <PUBCHEM_CACTVS_ROTATABLE_BOND>
2

> <PUBCHEM_CACTVS_SUBSKEYS>
AAADcfB4OAAAAAAAAAAAAAAAAAAAAAAAAAAAAAAAAAAAAAAAAAAAGgAACAAADRSggAICCAAABgCIAqDSCAAAAAAgAAAICAEAAEgIEBYAAQACQAAF4AAIgYOI7OzOAAAAAAAAAAAAAAAAAAAAAAAAAAAAAA==

> <PUBCHEM_IUPAC_OPENEYE_NAME>
(4R,5S,6S,7S,9R,11E,13E,15S,16R)-7,16-diethyl-4,6-dihydroxy-5,9,13,15-tetramethyl-1-oxacyclohexadeca-11,13-diene-2,10-dione

> <PUBCHEM_IUPAC_CAS_NAME>
(4R,5S,6S,7S,9R,11E,13E,15S,16R)-7,16-diethyl-4,6-dihydroxy-5,9,13,15-tetramethyl-1-oxacyclohexadeca-11,13-diene-2,10-dione

> <PUBCHEM_IUPAC_NAME>
(4R,5S,6S,7S,9R,11E,13E,15S,16R)-7,16-diethyl-4,6-dihydroxy-5,9,13,15-tetramethyl-1-oxacyclohexadeca-11,13-diene-2,10-dione

> <PUBCHEM_IUPAC_SYSTEMATIC_NAME>
(4R,5S,6S,7S,9R,11E,13E,15S,16R)-7,16-diethyl-5,9,13,15-tetramethyl-4,6-bis(oxidanyl)-1-oxacyclohexadeca-11,13-diene-2,10-dione

> <PUBCHEM_IUPAC_TRADITIONAL_NAME>
(4R,5S,6S,7S,9R,11E,13E,15S,16R)-7,16-diethyl-4,6-dihydroxy-5,9,13,15-tetramethyl-1-oxacyclohexadeca-11,13-diene-2,10-quinone

> <PUBCHEM_IUPAC_INCHI>
InChI=1S/C23H38O5/c1-7-18-12-15(4)19(24)10-9-14(3)11-16(5)21(8-2)28-22(26)13-20(25)17(6)23(18)27/h9-11,15-18,20-21,23,25,27H,7-8,12-13H2,1-6H3/b10-9+,14-11+/t15-,16+,17+,18+,20-,21-,23-/m1/s1

> <PUBCHEM_IUPAC_INCHIKEY>
YJSXTLYNFBFHAT-HJOMEYPASA-N

> <PUBCHEM_XLOGP3_AA>
4

> <PUBCHEM_EXACT_MASS>
394.271924

> <PUBCHEM_MOLECULAR_FORMULA>
C23H38O5

> <PUBCHEM_MOLECULAR_WEIGHT>
394.54482

> <PUBCHEM_OPENEYE_CAN_SMILES>
CCC1CC(C(=O)C=CC(=CC(C(OC(=O)CC(C(C1O)C)O)CC)C)C)C

> <PUBCHEM_OPENEYE_ISO_SMILES>
CC[C@H]1C[C@H](C(=O)/C=C/C(=C/[C@@H]([C@H](OC(=O)C[C@H]([C@@H]([C@H]1O)C)O)CC)C)/C)C

> <PUBCHEM_CACTVS_TPSA>
83.8

> <PUBCHEM_MONOISOTOPIC_WEIGHT>
394.271924

> <PUBCHEM_TOTAL_CHARGE>
0

> <PUBCHEM_HEAVY_ATOM_COUNT>
28

> <PUBCHEM_ATOM_DEF_STEREO_COUNT>
7

> <PUBCHEM_ATOM_UDEF_STEREO_COUNT>
0

> <PUBCHEM_BOND_DEF_STEREO_COUNT>
2

> <PUBCHEM_BOND_UDEF_STEREO_COUNT>
0

> <PUBCHEM_ISOTOPIC_ATOM_COUNT>
0

> <PUBCHEM_COMPONENT_COUNT>
1

> <PUBCHEM_CACTVS_TAUTO_COUNT>
14

> <PUBCHEM_COORDINATE_TYPE>
1
5
255

> <PUBCHEM_BONDANNOTATIONS>
7  1  5
12  16  5
19  22  5
11  2  5
20  24  6
6  10  5
8  13  5

$$$$

