8317
  -OEChem-06261202443D

 52 60  0     0  0  0  0  0  0999 V2000
   -5.6283    2.5311    0.0032 O   0  0  0  0  0  0  0  0  0  0  0  0
    5.6284    2.5309   -0.0002 O   0  0  0  0  0  0  0  0  0  0  0  0
   -1.4367    0.1879   -0.0012 C   0  0  0  0  0  0  0  0  0  0  0  0
    1.4367    0.1880   -0.0010 C   0  0  0  0  0  0  0  0  0  0  0  0
   -0.7180   -1.0312   -0.0015 C   0  0  0  0  0  0  0  0  0  0  0  0
    0.7178   -1.0312   -0.0014 C   0  0  0  0  0  0  0  0  0  0  0  0
   -0.7179    1.4143   -0.0010 C   0  0  0  0  0  0  0  0  0  0  0  0
    0.7179    1.4143   -0.0010 C   0  0  0  0  0  0  0  0  0  0  0  0
   -2.8791    0.1799   -0.0006 C   0  0  0  0  0  0  0  0  0  0  0  0
    2.8792    0.1799   -0.0005 C   0  0  0  0  0  0  0  0  0  0  0  0
   -3.6071   -1.0345   -0.0005 C   0  0  0  0  0  0  0  0  0  0  0  0
    3.6071   -1.0344   -0.0001 C   0  0  0  0  0  0  0  0  0  0  0  0
   -3.5591    1.4075    0.0000 C   0  0  0  0  0  0  0  0  0  0  0  0
    3.5591    1.4075   -0.0003 C   0  0  0  0  0  0  0  0  0  0  0  0
   -1.4790   -2.2171   -0.0018 C   0  0  0  0  0  0  0  0  0  0  0  0
    1.4790   -2.2171   -0.0013 C   0  0  0  0  0  0  0  0  0  0  0  0
   -1.4777    2.6061   -0.0008 C   0  0  0  0  0  0  0  0  0  0  0  0
    1.4777    2.6062   -0.0010 C   0  0  0  0  0  0  0  0  0  0  0  0
   -5.0939   -1.0286    0.0001 C   0  0  0  0  0  0  0  0  0  0  0  0
    5.0939   -1.0286    0.0007 C   0  0  0  0  0  0  0  0  0  0  0  0
   -2.8730   -2.2211   -0.0012 C   0  0  0  0  0  0  0  0  0  0  0  0
    2.8730   -2.2211   -0.0007 C   0  0  0  0  0  0  0  0  0  0  0  0
   -2.8666    2.6105   -0.0003 C   0  0  0  0  0  0  0  0  0  0  0  0
    2.8667    2.6107   -0.0006 C   0  0  0  0  0  0  0  0  0  0  0  0
   -5.0384    1.4576    0.0008 C   0  0  0  0  0  0  0  0  0  0  0  0
    5.0383    1.4575    0.0000 C   0  0  0  0  0  0  0  0  0  0  0  0
   -5.7938    0.1900    0.0008 C   0  0  0  0  0  0  0  0  0  0  0  0
    5.7938    0.1900    0.0008 C   0  0  0  0  0  0  0  0  0  0  0  0
   -5.8760   -2.2012    0.0003 C   0  0  0  0  0  0  0  0  0  0  0  0
    5.8760   -2.2012    0.0013 C   0  0  0  0  0  0  0  0  0  0  0  0
   -7.1969    0.2413    0.0015 C   0  0  0  0  0  0  0  0  0  0  0  0
    7.1969    0.2414    0.0015 C   0  0  0  0  0  0  0  0  0  0  0  0
   -7.2751   -2.1569    0.0009 C   0  0  0  0  0  0  0  0  0  0  0  0
    7.2750   -2.1568    0.0019 C   0  0  0  0  0  0  0  0  0  0  0  0
   -7.9352   -0.9358    0.0014 C   0  0  0  0  0  0  0  0  0  0  0  0
    7.9353   -0.9359    0.0019 C   0  0  0  0  0  0  0  0  0  0  0  0
   -1.0095   -3.1972   -0.0022 H   0  0  0  0  0  0  0  0  0  0  0  0
    1.0094   -3.1972   -0.0017 H   0  0  0  0  0  0  0  0  0  0  0  0
   -1.0067    3.5851   -0.0008 H   0  0  0  0  0  0  0  0  0  0  0  0
    1.0066    3.5851   -0.0012 H   0  0  0  0  0  0  0  0  0  0  0  0
   -3.3530   -3.1951   -0.0012 H   0  0  0  0  0  0  0  0  0  0  0  0
    3.3530   -3.1953   -0.0006 H   0  0  0  0  0  0  0  0  0  0  0  0
   -3.3823    3.5670   -0.0001 H   0  0  0  0  0  0  0  0  0  0  0  0
    3.3824    3.5671   -0.0006 H   0  0  0  0  0  0  0  0  0  0  0  0
   -5.4242   -3.1889   -0.0001 H   0  0  0  0  0  0  0  0  0  0  0  0
    5.4243   -3.1890    0.0014 H   0  0  0  0  0  0  0  0  0  0  0  0
   -7.7282    1.1893    0.0019 H   0  0  0  0  0  0  0  0  0  0  0  0
    7.7283    1.1893    0.0015 H   0  0  0  0  0  0  0  0  0  0  0  0
   -7.8446   -3.0820    0.0009 H   0  0  0  0  0  0  0  0  0  0  0  0
    7.8445   -3.0820    0.0023 H   0  0  0  0  0  0  0  0  0  0  0  0
   -9.0203   -0.9008    0.0019 H   0  0  0  0  0  0  0  0  0  0  0  0
    9.0204   -0.9009    0.0024 H   0  0  0  0  0  0  0  0  0  0  0  0
  1 25  2  0  0  0  0
  2 26  2  0  0  0  0
  3  5  2  0  0  0  0
  3  7  1  0  0  0  0
  3  9  1  0  0  0  0
  4  6  2  0  0  0  0
  4  8  1  0  0  0  0
  4 10  1  0  0  0  0
  5  6  1  0  0  0  0
  5 15  1  0  0  0  0
  6 16  1  0  0  0  0
  7  8  1  0  0  0  0
  7 17  2  0  0  0  0
  8 18  2  0  0  0  0
  9 11  2  0  0  0  0
  9 13  1  0  0  0  0
 10 12  2  0  0  0  0
 10 14  1  0  0  0  0
 11 19  1  0  0  0  0
 11 21  1  0  0  0  0
 12 20  1  0  0  0  0
 12 22  1  0  0  0  0
 13 23  2  0  0  0  0
 13 25  1  0  0  0  0
 14 24  2  0  0  0  0
 14 26  1  0  0  0  0
 15 21  2  0  0  0  0
 15 37  1  0  0  0  0
 16 22  2  0  0  0  0
 16 38  1  0  0  0  0
 17 23  1  0  0  0  0
 17 39  1  0  0  0  0
 18 24  1  0  0  0  0
 18 40  1  0  0  0  0
 19 27  1  0  0  0  0
 19 29  2  0  0  0  0
 20 28  1  0  0  0  0
 20 30  2  0  0  0  0
 21 41  1  0  0  0  0
 22 42  1  0  0  0  0
 23 43  1  0  0  0  0
 24 44  1  0  0  0  0
 25 27  1  0  0  0  0
 26 28  1  0  0  0  0
 27 31  2  0  0  0  0
 28 32  2  0  0  0  0
 29 33  1  0  0  0  0
 29 45  1  0  0  0  0
 30 34  1  0  0  0  0
 30 46  1  0  0  0  0
 31 35  1  0  0  0  0
 31 47  1  0  0  0  0
 32 36  1  0  0  0  0
 32 48  1  0  0  0  0
 33 35  2  0  0  0  0
 33 49  1  0  0  0  0
 34 36  2  0  0  0  0
 34 50  1  0  0  0  0
 35 51  1  0  0  0  0
 36 52  1  0  0  0  0
M  END
> <PUBCHEM_COMPOUND_CID>
8317

> <PUBCHEM_CONFORMER_RMSD>
0.6

> <PUBCHEM_CONFORMER_DIVERSEORDER>
1

> <PUBCHEM_MMFF94_PARTIAL_CHARGES>
40
1 -0.57
13 0.09
14 0.09
15 -0.15
16 -0.15
17 -0.15
18 -0.15
2 -0.57
21 -0.15
22 -0.15
23 -0.15
24 -0.15
25 0.4
26 0.4
27 0.09
28 0.09
29 -0.15
30 -0.15
31 -0.15
32 -0.15
33 -0.15
34 -0.15
35 -0.15
36 -0.15
37 0.15
38 0.15
39 0.15
40 0.15
41 0.15
42 0.15
43 0.15
44 0.15
45 0.15
46 0.15
47 0.15
48 0.15
49 0.15
50 0.15
51 0.15
52 0.15

> <PUBCHEM_EFFECTIVE_ROTOR_COUNT>
0

> <PUBCHEM_PHARMACOPHORE_FEATURES>
11
1 1 acceptor
1 2 acceptor
6 10 12 14 20 26 28 rings
6 19 27 29 31 33 35 rings
6 20 28 30 32 34 36 rings
6 3 4 5 6 7 8 rings
6 3 5 9 11 15 21 rings
6 3 7 9 13 17 23 rings
6 4 6 10 12 16 22 rings
6 4 8 10 14 18 24 rings
6 9 11 13 19 25 27 rings

> <PUBCHEM_HEAVY_ATOM_COUNT>
36

> <PUBCHEM_ATOM_DEF_STEREO_COUNT>
0

> <PUBCHEM_ATOM_UDEF_STEREO_COUNT>
0

> <PUBCHEM_BOND_DEF_STEREO_COUNT>
0

> <PUBCHEM_BOND_UDEF_STEREO_COUNT>
0

> <PUBCHEM_ISOTOPIC_ATOM_COUNT>
0

> <PUBCHEM_COMPONENT_COUNT>
1

> <PUBCHEM_CACTVS_TAUTO_COUNT>
1

> <PUBCHEM_CONFORMER_ID>
0000207D00000001

> <PUBCHEM_MMFF94_ENERGY>
145.7005

> <PUBCHEM_FEATURE_SELFOVERLAP>
56.088

> <PUBCHEM_SHAPE_FINGERPRINT>
10050765 1 18122625221447558731
10580692 12 18409729534456796666
11135926 11 18340492257402841375
11456790 92 18113887257446094321
11524674 6 16732986414207294503
11578080 2 16807312193553898242
117089 54 17984694520765957515
11719270 70 18259704510596215038
11963148 33 18340494468726267618
12107698 1 18410856563935075178
12133447 93 18263070171639197260
12166972 35 18060418006133005916
13383668 362 18118417154952586944
13402501 40 18410575084663085420
13811026 1 18410580582221224293
14068700 675 18335137596219156825
14394314 77 18337387257466540161
15082195 135 18058719201245782452
15131766 46 15287639789478007720
15183329 4 18412263938818381883
15196674 1 18410855460128363173
15361156 5 18129935672402349414
16067689 302 18337103459239277399
18608769 82 18409450284595093627
18681886 176 18335709333907371722
19611394 137 18057592184626168651
20028762 73 18334012804535377750
20721686 56 18341611478334799963
21033648 29 17750255655216700122
21057603 40 16878215468266773078
21130935 74 18334012813372556650
21133410 127 17841726114158797181
21197605 99 18335700529651799518
21236236 1 18409730685508025473
21267235 1 18410571790423344770
21792934 111 18335430066285329888
22311459 1 18410855460408334286
23522609 53 18122592102923831308
23559900 14 18337398153481695097
23569917 315 18409160017520596246
24771750 20 18268700611829536996
3004659 81 18273498961459442056
335352 9 18410855455864888902
3383291 50 18341896272894573531
350125 39 18410293609686381252
4073 2 17987513723886187394
4144715 1 18341321232529027243
439807 62 18411417302291387081
4461854 278 18113610154198529679
484989 97 18340764858354626275
5104073 3 18335423477789784352
6138700 20 18412826880920470139
9831232 110 18189891088747419086
9896288 288 17824256223107332777
99344 41 18336827593331060455

> <PUBCHEM_SHAPE_MULTIPOLES>
729.12
21.37
3.31
0.61
0
0.81
0
-7.76
0.02
0
0
0
-0.01
0

> <PUBCHEM_SHAPE_SELFOVERLAP>
1750.058

> <PUBCHEM_SHAPE_VOLUME>
355.9

> <PUBCHEM_COORDINATE_TYPE>
2
5
10

$$$$

