5281135
  -OEChem-07051212553D

 44 44  0     1  0  0  0  0  0999 V2000
    0.1497   -2.2783    0.3607 S   0  0  0  0  0  0  0  0  0  0  0  0
   -2.9587    1.7454    1.1251 S   0  0  0  0  0  0  0  0  0  0  0  0
    1.1898   -0.0331   -0.6492 O   0  0  0  0  0  0  0  0  0  0  0  0
    5.0312   -0.6966    0.6515 O   0  0  0  0  0  0  0  0  0  0  0  0
    4.2343    1.9638   -0.2798 O   0  0  0  0  0  0  0  0  0  0  0  0
    2.8319   -2.0366    1.9511 O   0  0  0  0  0  0  0  0  0  0  0  0
    0.3179    2.2861   -1.8334 O   0  0  0  0  0  0  0  0  0  0  0  0
   -2.7986    0.2739    0.4371 O   0  0  0  0  0  0  0  0  0  0  0  0
   -4.4008    2.2512    0.5575 O   0  0  0  0  0  0  0  0  0  0  0  0
   -1.9393    2.6196    0.5754 O   0  0  0  0  0  0  0  0  0  0  0  0
   -3.0877    1.5694    2.5595 O   0  0  0  0  0  0  0  0  0  0  0  0
   -1.5440   -0.2751    0.6913 N   0  0  0  0  0  0  0  0  0  0  0  0
    3.7063   -0.1666    0.7247 C   0  0  1  0  0  0  0  0  0  0  0  0
    3.4687    0.7751   -0.4565 C   0  0  1  0  0  0  0  0  0  0  0  0
    2.7257   -1.3436    0.7080 C   0  0  2  0  0  0  0  0  0  0  0  0
    1.9875    1.1481   -0.5592 C   0  0  1  0  0  0  0  0  0  0  0  0
    1.2871   -0.8536    0.5148 C   0  0  2  0  0  0  0  0  0  0  0  0
    1.7019    1.9896   -1.7989 C   0  0  0  0  0  0  0  0  0  0  0  0
   -2.4143   -2.2226   -0.6920 C   0  0  2  0  0  0  0  0  0  0  0  0
   -1.4000   -1.4446    0.1516 C   0  0  0  0  0  0  0  0  0  0  0  0
   -2.8153   -1.5061   -1.9918 C   0  0  0  0  0  0  0  0  0  0  0  0
   -3.6494   -2.5812    0.1361 C   0  0  0  0  0  0  0  0  0  0  0  0
   -1.6238   -1.1841   -2.8838 C   0  0  0  0  0  0  0  0  0  0  0  0
    3.6455    0.3835    1.6719 H   0  0  0  0  0  0  0  0  0  0  0  0
    3.8136    0.2951   -1.3802 H   0  0  0  0  0  0  0  0  0  0  0  0
    3.0170   -2.0401   -0.0885 H   0  0  0  0  0  0  0  0  0  0  0  0
    1.6625    1.7202    0.3206 H   0  0  0  0  0  0  0  0  0  0  0  0
    0.9692   -0.2812    1.3952 H   0  0  0  0  0  0  0  0  0  0  0  0
    1.9476    1.4445   -2.7162 H   0  0  0  0  0  0  0  0  0  0  0  0
    2.2567    2.9320   -1.7882 H   0  0  0  0  0  0  0  0  0  0  0  0
    5.1465   -1.2972    1.4077 H   0  0  0  0  0  0  0  0  0  0  0  0
    3.9317    2.3982    0.5359 H   0  0  0  0  0  0  0  0  0  0  0  0
    2.5692   -1.4250    2.6601 H   0  0  0  0  0  0  0  0  0  0  0  0
   -1.9568   -3.1774   -0.9851 H   0  0  0  0  0  0  0  0  0  0  0  0
   -3.5042   -2.1489   -2.5542 H   0  0  0  0  0  0  0  0  0  0  0  0
   -3.3611   -0.5796   -1.7854 H   0  0  0  0  0  0  0  0  0  0  0  0
   -0.1683    1.4485   -1.7578 H   0  0  0  0  0  0  0  0  0  0  0  0
   -4.2686   -3.3106   -0.3974 H   0  0  0  0  0  0  0  0  0  0  0  0
   -3.3612   -3.0231    1.0961 H   0  0  0  0  0  0  0  0  0  0  0  0
   -4.2779   -1.7107    0.3463 H   0  0  0  0  0  0  0  0  0  0  0  0
   -0.9482   -0.4703   -2.4092 H   0  0  0  0  0  0  0  0  0  0  0  0
   -1.0578   -2.0896   -3.1244 H   0  0  0  0  0  0  0  0  0  0  0  0
   -1.9680   -0.7416   -3.8241 H   0  0  0  0  0  0  0  0  0  0  0  0
   -4.5367    2.1342   -0.4121 H   0  0  0  0  0  0  0  0  0  0  0  0
  1 17  1  0  0  0  0
  1 20  1  0  0  0  0
  2  8  1  0  0  0  0
  2  9  1  0  0  0  0
  2 10  2  0  0  0  0
  2 11  2  0  0  0  0
  3 16  1  0  0  0  0
  3 17  1  0  0  0  0
  4 13  1  0  0  0  0
  4 31  1  0  0  0  0
  5 14  1  0  0  0  0
  5 32  1  0  0  0  0
  6 15  1  0  0  0  0
  6 33  1  0  0  0  0
  7 18  1  0  0  0  0
  7 37  1  0  0  0  0
  8 12  1  0  0  0  0
  9 44  1  0  0  0  0
 12 20  2  0  0  0  0
 13 14  1  0  0  0  0
 13 15  1  0  0  0  0
 13 24  1  0  0  0  0
 14 16  1  0  0  0  0
 14 25  1  0  0  0  0
 15 17  1  0  0  0  0
 15 26  1  0  0  0  0
 16 18  1  0  0  0  0
 16 27  1  0  0  0  0
 17 28  1  0  0  0  0
 18 29  1  0  0  0  0
 18 30  1  0  0  0  0
 19 20  1  0  0  0  0
 19 21  1  0  0  0  0
 19 22  1  0  0  0  0
 19 34  1  0  0  0  0
 21 23  1  0  0  0  0
 21 35  1  0  0  0  0
 21 36  1  0  0  0  0
 22 38  1  0  0  0  0
 22 39  1  0  0  0  0
 22 40  1  0  0  0  0
 23 41  1  0  0  0  0
 23 42  1  0  0  0  0
 23 43  1  0  0  0  0
M  END
> <PUBCHEM_COMPOUND_CID>
5281135

> <PUBCHEM_CONFORMER_RMSD>
0.8

> <PUBCHEM_CONFORMER_DIVERSEORDER>
1
109
115
20
101
113
63
112
9
106
89
59
170
111
86
149
128
36
126
79
139
67
167
98
127
95
133
90
99
70
134
146
144
110
147
64
114
137
26
93
58
48
65
19
11
29
159
154
15
108
102
22
143
44
160
55
7
166
152
82
148
153
66
47
88
40
150
73
122
23
10
96
18
8
52
130
105
145
43
94
138
87
83
100
116
169
151
168
156
162
12
91
165
129
14
37
140
62
155
117
81
27
135
61
97
3
51
84
142
119
56
163
123
71
35
85
164
78
74
120
69
121
21
39
118
107
125
157
33
16
124
80
4
17
131
50
13
103
46
77
161
38
75
42
141
45
54
30
92
72
25
132
49
136
41
53
158
68
5
2
31
6
32
34
24
28
60
57
104
76

> <PUBCHEM_MMFF94_PARTIAL_CHARGES>
25
1 -0.37
10 -0.65
11 -0.65
12 -0.51
13 0.28
14 0.28
15 0.28
16 0.28
17 0.51
18 0.28
19 0.06
2 1.67
20 0.53
3 -0.56
31 0.4
32 0.4
33 0.4
37 0.4
4 -0.68
44 0.5
5 -0.68
6 -0.68
7 -0.68
8 -0.12
9 -0.68

> <PUBCHEM_EFFECTIVE_ROTOR_COUNT>
8.2

> <PUBCHEM_PHARMACOPHORE_FEATURES>
17
1 10 acceptor
1 11 acceptor
1 12 acceptor
1 22 hydrophobe
1 23 hydrophobe
1 3 acceptor
1 4 acceptor
1 4 donor
1 5 acceptor
1 5 donor
1 6 acceptor
1 6 donor
1 7 acceptor
1 7 donor
1 9 acceptor
4 2 9 10 11 anion
6 3 13 14 15 16 17 rings

> <PUBCHEM_HEAVY_ATOM_COUNT>
23

> <PUBCHEM_ATOM_DEF_STEREO_COUNT>
6

> <PUBCHEM_ATOM_UDEF_STEREO_COUNT>
0

> <PUBCHEM_BOND_DEF_STEREO_COUNT>
0

> <PUBCHEM_BOND_UDEF_STEREO_COUNT>
1

> <PUBCHEM_ISOTOPIC_ATOM_COUNT>
0

> <PUBCHEM_COMPONENT_COUNT>
1

> <PUBCHEM_CACTVS_TAUTO_COUNT>
1

> <PUBCHEM_CONFORMER_ID>
0050956F00000001

> <PUBCHEM_MMFF94_ENERGY>
41.6079

> <PUBCHEM_FEATURE_SELFOVERLAP>
86.341

> <PUBCHEM_SHAPE_FINGERPRINT>
11578080 2 18048072672418014544
11582403 64 14132765792301236794
11640471 11 18334569191714726891
12596599 1 18412823573278960910
12788726 201 18188485758088598991
13583140 156 17489297638114681169
14251757 17 17272046170353217255
14251764 3 15936415558541295927
14464042 87 18336544898652196519
18219364 16 17346322539990229158
192875 21 18266748982314697190
20261772 1 18271519913876478032
20739085 24 17704061898889615932
21197605 99 17552647263455075261
21524375 3 17897446318679977187
23352939 185 17986971673644392759
23419403 2 16963301088812160601
23557571 272 17677036967397028907
23559900 14 17677321844779323814
23598288 3 18260831467101695327
23598291 2 18341887481217194174
2748010 2 17044307926101084158
633830 44 18270950272785801502
6438718 38 18040711459359848757
6992083 37 18343298205837582640
7471813 234 18118136765853333647
7615 1 18411150129508520546
7832392 63 18410569626055135874

> <PUBCHEM_SHAPE_MULTIPOLES>
423.22
8
3.27
2.08
3.8
0.9
-0.88
0.87
1.83
-2.49
0.29
-1.1
0.21
-3.09

> <PUBCHEM_SHAPE_SELFOVERLAP>
814.779

> <PUBCHEM_SHAPE_VOLUME>
258.8

> <PUBCHEM_COORDINATE_TYPE>
2
5
10

$$$$

