46173920
  -OEChem-07051213103D

 36 38  0     1  0  0  0  0  0999 V2000
    1.1489   -0.2688   -1.6062 O   0  0  0  0  0  0  0  0  0  0  0  0
   -0.2539   -2.2517    0.6860 O   0  0  0  0  0  0  0  0  0  0  0  0
   -2.8819    1.3039   -0.4622 O   0  0  0  0  0  0  0  0  0  0  0  0
    1.1228   -0.4765   -0.2041 C   0  0  2  0  0  0  0  0  0  0  0  0
    1.4032    0.8471    0.5588 C   0  0  1  0  0  0  0  0  0  0  0  0
    2.3466   -1.3262    0.2211 C   0  0  2  0  0  0  0  0  0  0  0  0
    2.9166    1.0520    0.3596 C   0  0  0  0  0  0  0  0  0  0  0  0
    3.5219   -0.3405    0.1948 C   0  0  0  0  0  0  0  0  0  0  0  0
    0.5910    2.0925    0.2278 C   0  0  0  0  0  0  0  0  0  0  0  0
   -0.2145   -1.1176    0.2108 C   0  0  0  0  0  0  0  0  0  0  0  0
    2.6391   -2.5542   -0.6368 C   0  0  0  0  0  0  0  0  0  0  0  0
   -0.5788    1.9947   -0.7235 C   0  0  0  0  0  0  0  0  0  0  0  0
   -1.4510   -0.3746    0.0141 C   0  0  0  0  0  0  0  0  0  0  0  0
   -1.5702    0.9433   -0.3841 C   0  0  0  0  0  0  0  0  0  0  0  0
    0.8804    3.2710    0.8085 C   0  0  0  0  0  0  0  0  0  0  0  0
   -2.7841   -0.8360    0.2033 C   0  0  0  0  0  0  0  0  0  0  0  0
   -3.6106    0.2179   -0.1033 C   0  0  0  0  0  0  0  0  0  0  0  0
   -3.2257   -2.1763    0.6354 C   0  0  0  0  0  0  0  0  0  0  0  0
    1.2282    0.6447    1.6278 H   0  0  0  0  0  0  0  0  0  0  0  0
    2.2095   -1.6623    1.2587 H   0  0  0  0  0  0  0  0  0  0  0  0
    3.1245    1.6491   -0.5372 H   0  0  0  0  0  0  0  0  0  0  0  0
    3.3676    1.5737    1.2110 H   0  0  0  0  0  0  0  0  0  0  0  0
    4.2325   -0.5629    0.9985 H   0  0  0  0  0  0  0  0  0  0  0  0
    4.0766   -0.3895   -0.7496 H   0  0  0  0  0  0  0  0  0  0  0  0
    3.4989   -3.1009   -0.2345 H   0  0  0  0  0  0  0  0  0  0  0  0
    1.7869   -3.2397   -0.6539 H   0  0  0  0  0  0  0  0  0  0  0  0
    2.8773   -2.2844   -1.6709 H   0  0  0  0  0  0  0  0  0  0  0  0
   -0.2039    1.8204   -1.7387 H   0  0  0  0  0  0  0  0  0  0  0  0
   -1.1011    2.9597   -0.7763 H   0  0  0  0  0  0  0  0  0  0  0  0
    0.9744   -1.1189   -2.0438 H   0  0  0  0  0  0  0  0  0  0  0  0
    1.6965    3.3698    1.5162 H   0  0  0  0  0  0  0  0  0  0  0  0
    0.3040    4.1655    0.5967 H   0  0  0  0  0  0  0  0  0  0  0  0
   -4.6827    0.3515   -0.1140 H   0  0  0  0  0  0  0  0  0  0  0  0
   -4.3182   -2.2515    0.6543 H   0  0  0  0  0  0  0  0  0  0  0  0
   -2.8604   -2.3974    1.6435 H   0  0  0  0  0  0  0  0  0  0  0  0
   -2.8526   -2.9464   -0.0474 H   0  0  0  0  0  0  0  0  0  0  0  0
  1  4  1  0  0  0  0
  1 30  1  0  0  0  0
  2 10  2  0  0  0  0
  3 14  1  0  0  0  0
  3 17  1  0  0  0  0
  4  5  1  0  0  0  0
  4  6  1  0  0  0  0
  4 10  1  0  0  0  0
  5  7  1  0  0  0  0
  5  9  1  0  0  0  0
  5 19  1  0  0  0  0
  6  8  1  0  0  0  0
  6 11  1  0  0  0  0
  6 20  1  0  0  0  0
  7  8  1  0  0  0  0
  7 21  1  0  0  0  0
  7 22  1  0  0  0  0
  8 23  1  0  0  0  0
  8 24  1  0  0  0  0
  9 12  1  0  0  0  0
  9 15  2  0  0  0  0
 10 13  1  0  0  0  0
 11 25  1  0  0  0  0
 11 26  1  0  0  0  0
 11 27  1  0  0  0  0
 12 14  1  0  0  0  0
 12 28  1  0  0  0  0
 12 29  1  0  0  0  0
 13 14  2  0  0  0  0
 13 16  1  0  0  0  0
 15 31  1  0  0  0  0
 15 32  1  0  0  0  0
 16 17  2  0  0  0  0
 16 18  1  0  0  0  0
 17 33  1  0  0  0  0
 18 34  1  0  0  0  0
 18 35  1  0  0  0  0
 18 36  1  0  0  0  0
M  END
> <PUBCHEM_COMPOUND_CID>
46173920

> <PUBCHEM_CONFORMER_RMSD>
0.6

> <PUBCHEM_CONFORMER_DIVERSEORDER>
1

> <PUBCHEM_MMFF94_PARTIAL_CHARGES>
18
1 -0.68
10 0.6
12 0.32
13 -0.09
14 -0.04
15 -0.3
16 -0.18
17 -0.01
18 0.18
2 -0.57
3 -0.28
30 0.4
31 0.15
32 0.15
33 0.15
4 0.34
5 0.14
9 -0.28

> <PUBCHEM_EFFECTIVE_ROTOR_COUNT>
0.8

> <PUBCHEM_PHARMACOPHORE_FEATURES>
7
1 1 acceptor
1 1 donor
1 2 acceptor
1 3 acceptor
5 3 13 14 16 17 rings
5 4 5 6 7 8 rings
7 4 5 9 10 12 13 14 rings

> <PUBCHEM_HEAVY_ATOM_COUNT>
18

> <PUBCHEM_ATOM_DEF_STEREO_COUNT>
3

> <PUBCHEM_ATOM_UDEF_STEREO_COUNT>
0

> <PUBCHEM_BOND_DEF_STEREO_COUNT>
0

> <PUBCHEM_BOND_UDEF_STEREO_COUNT>
0

> <PUBCHEM_ISOTOPIC_ATOM_COUNT>
0

> <PUBCHEM_COMPONENT_COUNT>
1

> <PUBCHEM_CACTVS_TAUTO_COUNT>
1

> <PUBCHEM_CONFORMER_ID>
02C08EE000000001

> <PUBCHEM_MMFF94_ENERGY>
39.0735

> <PUBCHEM_FEATURE_SELFOVERLAP>
35.58

> <PUBCHEM_SHAPE_FINGERPRINT>
10608611 8 18411706452227001633
108231 29 18410575089174499672
10863032 1 18409730685597871736
10967382 1 18411140263731017619
1100329 8 16248284665907279306
11132069 177 18411427206243229272
11578080 2 16914853325506679540
11680986 33 17909828734800139043
12011746 2 18339646624779667292
12382932 28 18410860974929545072
13027679 85 18337112362083859761
13140716 1 18339361997181053386
14115302 16 18129653252759453453
14223421 5 18196655094854016219
14817 1 4749438976990528436
15196674 1 18412266099266111360
15219456 202 18408325492673716834
16945 1 18191314783720063132
17804303 29 18341046333320605257
19049666 15 18411421743044802739
19591789 44 17834392320329837148
20510252 161 18121503715444987576
20511035 2 17977103453215186108
20588541 1 18411982429777351224
20645477 70 18195821656756305935
21501502 16 18267583494613264525
21524375 3 17322107823671321568
22721475 48 18412826888840582577
22802520 49 18190174779288534430
23184049 29 18195250155290948090
2334 1 18411702092698013642
23402539 116 18261688054909418822
23419403 2 17698200328738353012
23557571 272 18189892200853206686
23559900 14 18266744765458879870
2748010 2 18411426132443343887
31174 14 18266170635256934619
335352 9 17979076316282569085
53812653 166 18410859841121612297
7364860 26 18192429675662850856
81228 2 17828471810606329576
8809292 202 18195525032907683190
9709674 26 18338237166742328582

> <PUBCHEM_SHAPE_MULTIPOLES>
352.82
5.31
3.06
0.9
1.78
0.8
0.14
-1.92
-0.28
-0.79
-0.4
-0.11
0.02
0.94

> <PUBCHEM_SHAPE_SELFOVERLAP>
767.507

> <PUBCHEM_SHAPE_VOLUME>
194.2

> <PUBCHEM_COORDINATE_TYPE>
2
5
10

$$$$

