128843
  -OEChem-07051212483D

 16 15  0     0  0  0  0  0  0999 V2000
   -2.5592    0.8473    0.0149 O   0  0  0  0  0  0  0  0  0  0  0  0
   -1.7383   -1.3071   -0.0166 O   0  0  0  0  0  0  0  0  0  0  0  0
    0.9722   -1.5182   -0.0065 O   0  0  0  0  0  0  0  0  0  0  0  0
    3.2949   -0.5380    0.0139 O   0  0  0  0  0  0  0  0  0  0  0  0
    2.4331    1.5879   -0.0284 O   0  0  0  0  0  0  0  0  0  0  0  0
   -0.2330    0.6025    0.0108 C   0  0  0  0  0  0  0  0  0  0  0  0
   -1.5701   -0.0961    0.0069 C   0  0  0  0  0  0  0  0  0  0  0  0
    0.9778   -0.2966   -0.0005 C   0  0  0  0  0  0  0  0  0  0  0  0
    2.3196    0.3795    0.0119 C   0  0  0  0  0  0  0  0  0  0  0  0
   -3.8969    0.3387   -0.0064 C   0  0  0  0  0  0  0  0  0  0  0  0
   -0.1849    1.2360   -0.8816 H   0  0  0  0  0  0  0  0  0  0  0  0
   -0.1810    1.2185    0.9151 H   0  0  0  0  0  0  0  0  0  0  0  0
   -4.0835   -0.2733    0.8813 H   0  0  0  0  0  0  0  0  0  0  0  0
   -4.0672   -0.2407   -0.9188 H   0  0  0  0  0  0  0  0  0  0  0  0
   -4.5841    1.1889    0.0027 H   0  0  0  0  0  0  0  0  0  0  0  0
    4.1876   -0.1318   -0.0028 H   0  0  0  0  0  0  0  0  0  0  0  0
  1  7  1  0  0  0  0
  1 10  1  0  0  0  0
  2  7  2  0  0  0  0
  3  8  2  0  0  0  0
  4  9  1  0  0  0  0
  4 16  1  0  0  0  0
  5  9  2  0  0  0  0
  6  7  1  0  0  0  0
  6  8  1  0  0  0  0
  6 11  1  0  0  0  0
  6 12  1  0  0  0  0
  8  9  1  0  0  0  0
 10 13  1  0  0  0  0
 10 14  1  0  0  0  0
 10 15  1  0  0  0  0
M  END
> <PUBCHEM_COMPOUND_CID>
128843

> <PUBCHEM_CONFORMER_RMSD>
0.6

> <PUBCHEM_CONFORMER_DIVERSEORDER>
1
9
10
16
14
4
2
5
15
8
3
6
7
13
11
12

> <PUBCHEM_MMFF94_PARTIAL_CHARGES>
11
1 -0.43
10 0.28
16 0.5
2 -0.57
3 -0.57
4 -0.65
5 -0.57
6 0.12
7 0.66
8 0.51
9 0.72

> <PUBCHEM_EFFECTIVE_ROTOR_COUNT>
4

> <PUBCHEM_PHARMACOPHORE_FEATURES>
6
1 2 acceptor
1 3 acceptor
1 4 acceptor
1 5 acceptor
1 6 anion
3 4 5 9 anion

> <PUBCHEM_HEAVY_ATOM_COUNT>
10

> <PUBCHEM_ATOM_DEF_STEREO_COUNT>
0

> <PUBCHEM_ATOM_UDEF_STEREO_COUNT>
0

> <PUBCHEM_BOND_DEF_STEREO_COUNT>
0

> <PUBCHEM_BOND_UDEF_STEREO_COUNT>
0

> <PUBCHEM_ISOTOPIC_ATOM_COUNT>
0

> <PUBCHEM_COMPONENT_COUNT>
1

> <PUBCHEM_CACTVS_TAUTO_COUNT>
3

> <PUBCHEM_CONFORMER_ID>
0001F74B00000001

> <PUBCHEM_MMFF94_ENERGY>
12.5769

> <PUBCHEM_FEATURE_SELFOVERLAP>
30.524

> <PUBCHEM_SHAPE_FINGERPRINT>
11062470 55 5184341902411472873
12897270 3 18409729555968640876
12932764 1 17274835644074060722
13380535 76 18410013247370457567
14325111 11 18338798918383640608
14390081 3 18408042896678997377
170605 34 18342738515859213187
20201158 50 18410011069626515395
21040471 1 18266459802599063464
23235685 24 18410862070272727913
23402655 69 18334584576799569797
23552423 10 18342739585438068478
3248919 1 17095511890337501982

> <PUBCHEM_SHAPE_MULTIPOLES>
176.45
5.64
1.28
0.57
2.25
0.1
0
-0.93
0
-0.4
-0.01
0.03
-0.01
-0.01

> <PUBCHEM_SHAPE_SELFOVERLAP>
342.568

> <PUBCHEM_SHAPE_VOLUME>
105.9

> <PUBCHEM_COORDINATE_TYPE>
2
5
10

$$$$

