440918
  -OEChem-07051212513D

 19 18  0     0  0  0  0  0  0999 V2000
   -3.6854    0.9818   -0.0061 O   0  0  0  0  0  0  0  0  0  0  0  0
   -2.9749   -1.1753   -0.0198 O   0  0  0  0  0  0  0  0  0  0  0  0
    3.9109    0.9269   -0.0128 O   0  0  0  0  0  0  0  0  0  0  0  0
   -0.2478   -0.4421    0.0320 C   0  0  0  0  0  0  0  0  0  0  0  0
    1.1477    0.1883    0.0157 C   0  0  0  0  0  0  0  0  0  0  0  0
   -1.3393    0.6275    0.0096 C   0  0  0  0  0  0  0  0  0  0  0  0
    2.2598   -0.8570    0.0054 C   0  0  0  0  0  0  0  0  0  0  0  0
   -2.7237    0.0217   -0.0073 C   0  0  0  0  0  0  0  0  0  0  0  0
    3.6527   -0.2717   -0.0166 C   0  0  0  0  0  0  0  0  0  0  0  0
   -0.3602   -1.0691    0.9252 H   0  0  0  0  0  0  0  0  0  0  0  0
   -0.3614   -1.1045   -0.8352 H   0  0  0  0  0  0  0  0  0  0  0  0
    1.2665    0.8388    0.8912 H   0  0  0  0  0  0  0  0  0  0  0  0
    1.2488    0.8331   -0.8664 H   0  0  0  0  0  0  0  0  0  0  0  0
   -1.2316    1.2503   -0.8853 H   0  0  0  0  0  0  0  0  0  0  0  0
   -1.2547    1.2617    0.8989 H   0  0  0  0  0  0  0  0  0  0  0  0
    2.1879   -1.4928    0.8947 H   0  0  0  0  0  0  0  0  0  0  0  0
    2.1641   -1.4995   -0.8770 H   0  0  0  0  0  0  0  0  0  0  0  0
    4.4673   -1.0164   -0.0344 H   0  0  0  0  0  0  0  0  0  0  0  0
   -4.5871    0.5956   -0.0167 H   0  0  0  0  0  0  0  0  0  0  0  0
  1  8  1  0  0  0  0
  1 19  1  0  0  0  0
  2  8  2  0  0  0  0
  3  9  2  0  0  0  0
  4  5  1  0  0  0  0
  4  6  1  0  0  0  0
  4 10  1  0  0  0  0
  4 11  1  0  0  0  0
  5  7  1  0  0  0  0
  5 12  1  0  0  0  0
  5 13  1  0  0  0  0
  6  8  1  0  0  0  0
  6 14  1  0  0  0  0
  6 15  1  0  0  0  0
  7  9  1  0  0  0  0
  7 16  1  0  0  0  0
  7 17  1  0  0  0  0
  9 18  1  0  0  0  0
M  END
> <PUBCHEM_COMPOUND_CID>
440918

> <PUBCHEM_CONFORMER_RMSD>
0.6

> <PUBCHEM_CONFORMER_DIVERSEORDER>
1
46
26
5
51
47
4
48
24
21
41
16
42
3
45
37
14
19
40
20
32
11
31
38
39
15
2
44
50
43
7
49
10
36
8
6
13
35
17
28
23
9
18
25
12
33
22
29
34
27
30

> <PUBCHEM_MMFF94_PARTIAL_CHARGES>
9
1 -0.65
18 0.06
19 0.5
2 -0.57
3 -0.57
6 0.06
7 0.06
8 0.66
9 0.45

> <PUBCHEM_EFFECTIVE_ROTOR_COUNT>
5

> <PUBCHEM_PHARMACOPHORE_FEATURES>
5
1 1 acceptor
1 2 acceptor
1 3 acceptor
3 1 2 8 anion
4 4 5 6 7 hydrophobe

> <PUBCHEM_HEAVY_ATOM_COUNT>
9

> <PUBCHEM_ATOM_DEF_STEREO_COUNT>
0

> <PUBCHEM_ATOM_UDEF_STEREO_COUNT>
0

> <PUBCHEM_BOND_DEF_STEREO_COUNT>
0

> <PUBCHEM_BOND_UDEF_STEREO_COUNT>
0

> <PUBCHEM_ISOTOPIC_ATOM_COUNT>
0

> <PUBCHEM_COMPONENT_COUNT>
1

> <PUBCHEM_CACTVS_TAUTO_COUNT>
2

> <PUBCHEM_CONFORMER_ID>
0006BA5600000001

> <PUBCHEM_MMFF94_ENERGY>
2.8238

> <PUBCHEM_FEATURE_SELFOVERLAP>
25.43

> <PUBCHEM_SHAPE_FINGERPRINT>
11062470 55 18342738532975752704
12932764 1 17560527286468665806
14325111 11 18410856572683102922
190213 19 17603303760893933490
20645477 70 18188491409717220654

> <PUBCHEM_SHAPE_MULTIPOLES>
167.61
7.45
1.04
0.58
1.42
0.05
0
-0.93
0.07
-0.19
0
0.03
0.01
-0.01

> <PUBCHEM_SHAPE_SELFOVERLAP>
307.52

> <PUBCHEM_SHAPE_VOLUME>
105.3

> <PUBCHEM_COORDINATE_TYPE>
2
5
10

$$$$

