47205693
  -OEChem-06241222593D

 38 38  0     1  0  0  0  0  0999 V2000
    0.1167   -1.4720    1.5800 O   0  0  0  0  0  0  0  0  0  0  0  0
    2.3727    0.3467   -1.2476 O   0  0  0  0  0  0  0  0  0  0  0  0
   -1.0520   -1.7541   -0.4091 N   0  0  0  0  0  0  0  0  0  0  0  0
    2.4792   -1.5198    0.1286 N   0  0  0  0  0  0  0  0  0  0  0  0
   -2.3684   -1.4300    0.0920 C   0  0  1  0  0  0  0  0  0  0  0  0
   -2.6260    0.0608    0.0504 C   0  0  0  0  0  0  0  0  0  0  0  0
   -3.4291   -2.2293   -0.6621 C   0  0  0  0  0  0  0  0  0  0  0  0
    1.3089   -2.1813   -0.3979 C   0  0  0  0  0  0  0  0  0  0  0  0
    0.0869   -1.7475    0.3832 C   0  0  0  0  0  0  0  0  0  0  0  0
    4.1633    0.1791    0.3734 C   0  0  0  0  0  0  0  0  0  0  0  0
   -2.0896    0.8330   -0.9800 C   0  0  0  0  0  0  0  0  0  0  0  0
   -3.3997    0.6626    1.0427 C   0  0  0  0  0  0  0  0  0  0  0  0
    4.6596    1.5277   -0.1397 C   0  0  0  0  0  0  0  0  0  0  0  0
    2.9153   -0.2932   -0.3508 C   0  0  0  0  0  0  0  0  0  0  0  0
   -2.3270    2.2071   -1.0181 C   0  0  0  0  0  0  0  0  0  0  0  0
   -3.6371    2.0366    1.0047 C   0  0  0  0  0  0  0  0  0  0  0  0
    5.9271    1.9646    0.5763 C   0  0  0  0  0  0  0  0  0  0  0  0
   -3.1008    2.8089   -0.0257 C   0  0  0  0  0  0  0  0  0  0  0  0
   -2.3906   -1.7490    1.1424 H   0  0  0  0  0  0  0  0  0  0  0  0
   -0.9616   -1.9600   -1.4002 H   0  0  0  0  0  0  0  0  0  0  0  0
   -3.4433   -1.9698   -1.7271 H   0  0  0  0  0  0  0  0  0  0  0  0
   -3.2326   -3.3045   -0.5868 H   0  0  0  0  0  0  0  0  0  0  0  0
   -4.4293   -2.0372   -0.2591 H   0  0  0  0  0  0  0  0  0  0  0  0
    1.2063   -1.9472   -1.4621 H   0  0  0  0  0  0  0  0  0  0  0  0
    1.4410   -3.2603   -0.2761 H   0  0  0  0  0  0  0  0  0  0  0  0
    3.9347    0.2467    1.4437 H   0  0  0  0  0  0  0  0  0  0  0  0
    4.9423   -0.5815    0.2420 H   0  0  0  0  0  0  0  0  0  0  0  0
   -1.4954    0.3904   -1.7745 H   0  0  0  0  0  0  0  0  0  0  0  0
   -3.8248    0.0719    1.8497 H   0  0  0  0  0  0  0  0  0  0  0  0
    3.8829    2.2892   -0.0002 H   0  0  0  0  0  0  0  0  0  0  0  0
    4.8561    1.4693   -1.2169 H   0  0  0  0  0  0  0  0  0  0  0  0
    2.9832   -1.9693    0.8875 H   0  0  0  0  0  0  0  0  0  0  0  0
   -1.9122    2.8081   -1.8221 H   0  0  0  0  0  0  0  0  0  0  0  0
   -4.2401    2.5052    1.7770 H   0  0  0  0  0  0  0  0  0  0  0  0
    5.7546    2.0654    1.6525 H   0  0  0  0  0  0  0  0  0  0  0  0
    6.2639    2.9332    0.1939 H   0  0  0  0  0  0  0  0  0  0  0  0
    6.7336    1.2402    0.4235 H   0  0  0  0  0  0  0  0  0  0  0  0
   -3.2863    3.8786   -0.0557 H   0  0  0  0  0  0  0  0  0  0  0  0
  1  9  2  0  0  0  0
  2 14  2  0  0  0  0
  3  5  1  0  0  0  0
  3  9  1  0  0  0  0
  3 20  1  0  0  0  0
  4  8  1  0  0  0  0
  4 14  1  0  0  0  0
  4 32  1  0  0  0  0
  5  6  1  0  0  0  0
  5  7  1  0  0  0  0
  5 19  1  0  0  0  0
  6 11  2  0  0  0  0
  6 12  1  0  0  0  0
  7 21  1  0  0  0  0
  7 22  1  0  0  0  0
  7 23  1  0  0  0  0
  8  9  1  0  0  0  0
  8 24  1  0  0  0  0
  8 25  1  0  0  0  0
 10 13  1  0  0  0  0
 10 14  1  0  0  0  0
 10 26  1  0  0  0  0
 10 27  1  0  0  0  0
 11 15  1  0  0  0  0
 11 28  1  0  0  0  0
 12 16  2  0  0  0  0
 12 29  1  0  0  0  0
 13 17  1  0  0  0  0
 13 30  1  0  0  0  0
 13 31  1  0  0  0  0
 15 18  2  0  0  0  0
 15 33  1  0  0  0  0
 16 18  1  0  0  0  0
 16 34  1  0  0  0  0
 17 35  1  0  0  0  0
 17 36  1  0  0  0  0
 17 37  1  0  0  0  0
 18 38  1  0  0  0  0
M  END
> <PUBCHEM_COMPOUND_CID>
47205693

> <PUBCHEM_CONFORMER_RMSD>
0.8

> <PUBCHEM_CONFORMER_DIVERSEORDER>
1
231
185
47
89
213
256
308
206
215
157
300
118
149
122
21
292
27
55
123
276
67
314
92
142
12
291
158
37
5
302
174
312
116
160
56
299
96
200
9
318
131
281
143
306
168
246
106
294
51
187
188
34
277
46
44
309
140
315
28
60
250
79
121
76
29
42
199
307
91
217
166
226
202
90
190
249
235
26
83
305
252
107
169
262
259
258
119
30
275
11
230
257
290
273
293
64
7
303
100
84
285
218
117
179
101
272
287
105
103
17
25
125
229
88
113
68
189
284
265
138
282
19
3
234
144
244
280
212
104
58
208
6
227
124
242
296
177
85
94
214
93
109
54
298
304
184
301
133
220
151
263
195
261
112
211
74
311
141
40
102
115
193
48
75
317
255
254
163
238
241
35
32
223
165
201
98
175
73
289
171
295
10
271
270
69
156
159
186
288
251
52
196
228
97
135
77
219
279
162
128
207
31
39
197
245
240
154
182
181
204
72
2
233
266
232
178
120
286
61
198
243
57
148
268
86
63
180
173
264
260
170
239
20
236
43
99
81
237
210
253
147
45
18
161
134
247
16
224
132
216
191
139
310
136
221
267
23
176
172
15
127
4
14
114
126
194
297
82
38
95
203
66
111
150
225
313
316
283
8
145
36
137
274
87
152
248
146
78
50
59
41
80
129
65
205
164
222
269
110
108
167
71
209
24
62
192
183
22
70
49
153
155
53
33
278
130
13

> <PUBCHEM_MMFF94_PARTIAL_CHARGES>
22
1 -0.57
10 0.06
11 -0.15
12 -0.15
14 0.57
15 -0.15
16 -0.15
18 -0.15
2 -0.57
20 0.37
28 0.15
29 0.15
3 -0.73
32 0.37
33 0.15
34 0.15
38 0.15
4 -0.73
5 0.44
6 -0.14
8 0.36
9 0.57

> <PUBCHEM_EFFECTIVE_ROTOR_COUNT>
8

> <PUBCHEM_PHARMACOPHORE_FEATURES>
6
1 1 acceptor
1 17 hydrophobe
1 2 acceptor
1 3 donor
1 4 donor
6 6 11 12 15 16 18 rings

> <PUBCHEM_HEAVY_ATOM_COUNT>
18

> <PUBCHEM_ATOM_DEF_STEREO_COUNT>
0

> <PUBCHEM_ATOM_UDEF_STEREO_COUNT>
1

> <PUBCHEM_BOND_DEF_STEREO_COUNT>
0

> <PUBCHEM_BOND_UDEF_STEREO_COUNT>
0

> <PUBCHEM_ISOTOPIC_ATOM_COUNT>
0

> <PUBCHEM_COMPONENT_COUNT>
1

> <PUBCHEM_CACTVS_TAUTO_COUNT>
4

> <PUBCHEM_CONFORMER_ID>
02D04D3D00000001

> <PUBCHEM_MMFF94_ENERGY>
30.5345

> <PUBCHEM_FEATURE_SELFOVERLAP>
30.446

> <PUBCHEM_SHAPE_FINGERPRINT>
10670039 82 18270948043787764524
10764073 3 7240651693380375205
11715629 250 18339919410953336815
12173636 292 18262518225349504063
12390115 104 18336535046055475812
12596602 18 16772680893168085112
14123255 352 18411705387428637460
14123255 52 18266177416794192277
14142880 1 18342459236064510573
14251764 38 18192713341753994768
14251764 75 18117548742098155705
14466204 15 18338528439531179616
15342168 16 18045496667577817249
17834072 32 18338516459865064233
20671657 1 18051690246119786407
21095088 737 18338815484547528389
21401589 2 18413102849253378704
21623110 236 18269271257762926445
21864079 5 18339364183329683244
22182937 141 18408316705149595393
22907989 373 17968678089417739543
23227448 37 18408603673579414125
23557571 272 18113612352899134782
23559900 14 17969222408014500878
27216 239 18343015631834528161
5104073 3 18342739637315403858
7064713 232 18342453729895883956
7808743 9 18408606976129846040
8199 26 18409728495280465392
9981440 41 18342178830461239354

> <PUBCHEM_SHAPE_MULTIPOLES>
348.73
10.18
3.24
1.1
14.68
0.42
0.08
7.34
1.22
-1.84
-0.09
-0.43
0.14
-0.12

> <PUBCHEM_SHAPE_SELFOVERLAP>
698.798

> <PUBCHEM_SHAPE_VOLUME>
204.6

> <PUBCHEM_COORDINATE_TYPE>
2
5
10

$$$$

