11210
  -OEChem-06261205233D

 18 17  0     0  0  0  0  0  0999 V2000
   -0.4102    0.0016   -0.0001 C   0  0  0  0  0  0  0  0  0  0  0  0
   -1.1410   -0.4880    1.2626 C   0  0  0  0  0  0  0  0  0  0  0  0
   -1.1591   -0.5090   -1.2438 C   0  0  0  0  0  0  0  0  0  0  0  0
   -0.4341    1.5411   -0.0129 C   0  0  0  0  0  0  0  0  0  0  0  0
    0.9872   -0.5982   -0.0050 C   0  0  0  0  0  0  0  0  0  0  0  0
    2.1572    0.0525   -0.0008 C   0  0  0  0  0  0  0  0  0  0  0  0
   -1.1893   -1.5828    1.3011 H   0  0  0  0  0  0  0  0  0  0  0  0
   -0.6343   -0.1463    2.1729 H   0  0  0  0  0  0  0  0  0  0  0  0
   -2.1704   -0.1126    1.2949 H   0  0  0  0  0  0  0  0  0  0  0  0
   -0.6650   -0.1830   -2.1669 H   0  0  0  0  0  0  0  0  0  0  0  0
   -2.1887   -0.1336   -1.2679 H   0  0  0  0  0  0  0  0  0  0  0  0
   -1.2084   -1.6043   -1.2631 H   0  0  0  0  0  0  0  0  0  0  0  0
    0.0594    1.9434   -0.9052 H   0  0  0  0  0  0  0  0  0  0  0  0
   -1.4636    1.9184   -0.0123 H   0  0  0  0  0  0  0  0  0  0  0  0
    0.0656    1.9587    0.8688 H   0  0  0  0  0  0  0  0  0  0  0  0
    1.0347   -1.6870   -0.0100 H   0  0  0  0  0  0  0  0  0  0  0  0
    3.0883   -0.5047   -0.0038 H   0  0  0  0  0  0  0  0  0  0  0  0
    2.2245    1.1335    0.0059 H   0  0  0  0  0  0  0  0  0  0  0  0
  1  2  1  0  0  0  0
  1  3  1  0  0  0  0
  1  4  1  0  0  0  0
  1  5  1  0  0  0  0
  2  7  1  0  0  0  0
  2  8  1  0  0  0  0
  2  9  1  0  0  0  0
  3 10  1  0  0  0  0
  3 11  1  0  0  0  0
  3 12  1  0  0  0  0
  4 13  1  0  0  0  0
  4 14  1  0  0  0  0
  4 15  1  0  0  0  0
  5  6  2  0  0  0  0
  5 16  1  0  0  0  0
  6 17  1  0  0  0  0
  6 18  1  0  0  0  0
M  END
> <PUBCHEM_COMPOUND_CID>
11210

> <PUBCHEM_CONFORMER_RMSD>
0.4

> <PUBCHEM_CONFORMER_DIVERSEORDER>
1

> <PUBCHEM_MMFF94_PARTIAL_CHARGES>
6
1 0.14
16 0.15
17 0.15
18 0.15
5 -0.29
6 -0.3

> <PUBCHEM_EFFECTIVE_ROTOR_COUNT>
1

> <PUBCHEM_PHARMACOPHORE_FEATURES>
2
1 6 hydrophobe
4 1 2 3 4 hydrophobe

> <PUBCHEM_HEAVY_ATOM_COUNT>
6

> <PUBCHEM_ATOM_DEF_STEREO_COUNT>
0

> <PUBCHEM_ATOM_UDEF_STEREO_COUNT>
0

> <PUBCHEM_BOND_DEF_STEREO_COUNT>
0

> <PUBCHEM_BOND_UDEF_STEREO_COUNT>
0

> <PUBCHEM_ISOTOPIC_ATOM_COUNT>
0

> <PUBCHEM_COMPONENT_COUNT>
1

> <PUBCHEM_CACTVS_TAUTO_COUNT>
1

> <PUBCHEM_CONFORMER_ID>
00002BCA00000001

> <PUBCHEM_MMFF94_ENERGY>
10.5237

> <PUBCHEM_FEATURE_SELFOVERLAP>
10.15

> <PUBCHEM_SHAPE_FINGERPRINT>
137420 1 6218036643757906971
20096714 4 17834960046007024384
21040471 1 17682129012019903216
24536 1 18060136591575636298
29004967 10 18339924809742883219
5943 1 12099682815966455201

> <PUBCHEM_SHAPE_MULTIPOLES>
123.48
2.05
1.16
1.14
1.3
0.53
0.01
-0.23
-0.01
-0.21
-0.01
-0.6
-0.26
0

> <PUBCHEM_SHAPE_SELFOVERLAP>
220.072

> <PUBCHEM_SHAPE_VOLUME>
83.2

> <PUBCHEM_COORDINATE_TYPE>
2
5
10

$$$$

