443374
  -OEChem-07051213023D

 51 53  0     1  0  0  0  0  0999 V2000
    3.3907    2.0763   -0.4681 S   0  0  0  0  0  0  0  0  0  0  0  0
    1.5622   -3.4956    0.1749 O   0  0  0  0  0  0  0  0  0  0  0  0
    4.6361    2.0482   -1.2217 O   0  0  0  0  0  0  0  0  0  0  0  0
    2.2800    2.8934   -0.9377 O   0  0  0  0  0  0  0  0  0  0  0  0
   -3.8695    1.0557    0.1677 N   0  0  1  0  0  0  0  0  0  0  0  0
   -1.3304   -0.5809   -0.2159 N   0  0  0  0  0  0  0  0  0  0  0  0
   -3.8312   -0.3492   -0.2844 C   0  0  1  0  0  0  0  0  0  0  0  0
   -3.9757   -0.2744   -1.8145 C   0  0  0  0  0  0  0  0  0  0  0  0
   -4.1580    1.2051   -2.1237 C   0  0  0  0  0  0  0  0  0  0  0  0
   -4.6681    1.7835   -0.8189 C   0  0  0  0  0  0  0  0  0  0  0  0
   -2.5611   -1.0588    0.1409 C   0  0  0  0  0  0  0  0  0  0  0  0
   -4.3927    1.2101    1.5191 C   0  0  0  0  0  0  0  0  0  0  0  0
   -2.3797   -2.1977    0.8873 C   0  0  0  0  0  0  0  0  0  0  0  0
   -0.3586   -1.4015    0.2946 C   0  0  0  0  0  0  0  0  0  0  0  0
   -4.3716    2.6591    1.9601 C   0  0  0  0  0  0  0  0  0  0  0  0
   -0.9833   -2.4163    0.9853 C   0  0  0  0  0  0  0  0  0  0  0  0
    1.0459   -1.1495    0.0817 C   0  0  0  0  0  0  0  0  0  0  0  0
    1.4864    0.1662   -0.0713 C   0  0  0  0  0  0  0  0  0  0  0  0
    1.9632   -2.2004    0.0287 C   0  0  0  0  0  0  0  0  0  0  0  0
    2.8406    0.4302   -0.2768 C   0  0  0  0  0  0  0  0  0  0  0  0
    3.3172   -1.9364   -0.1768 C   0  0  0  0  0  0  0  0  0  0  0  0
    3.7560   -0.6211   -0.3294 C   0  0  0  0  0  0  0  0  0  0  0  0
    3.7646    2.6119    1.1861 C   0  0  0  0  0  0  0  0  0  0  0  0
    4.2630    4.0396    1.2075 C   0  0  0  0  0  0  0  0  0  0  0  0
    2.5739   -4.4975    0.1053 C   0  0  0  0  0  0  0  0  0  0  0  0
   -4.6948   -0.9058    0.1066 H   0  0  0  0  0  0  0  0  0  0  0  0
   -4.8754   -0.8217   -2.1224 H   0  0  0  0  0  0  0  0  0  0  0  0
   -3.1308   -0.6891   -2.3744 H   0  0  0  0  0  0  0  0  0  0  0  0
   -3.1913    1.6515   -2.3883 H   0  0  0  0  0  0  0  0  0  0  0  0
   -4.8489    1.3719   -2.9552 H   0  0  0  0  0  0  0  0  0  0  0  0
   -4.4998    2.8643   -0.7892 H   0  0  0  0  0  0  0  0  0  0  0  0
   -5.7414    1.5824   -0.7093 H   0  0  0  0  0  0  0  0  0  0  0  0
   -5.4139    0.8178    1.6038 H   0  0  0  0  0  0  0  0  0  0  0  0
   -3.7704    0.6374    2.2172 H   0  0  0  0  0  0  0  0  0  0  0  0
   -1.1750    0.2428   -0.7813 H   0  0  0  0  0  0  0  0  0  0  0  0
   -3.1627   -2.8043    1.3205 H   0  0  0  0  0  0  0  0  0  0  0  0
   -3.3771    3.1013    1.8359 H   0  0  0  0  0  0  0  0  0  0  0  0
   -5.0952    3.2703    1.4118 H   0  0  0  0  0  0  0  0  0  0  0  0
   -4.6322    2.7275    3.0218 H   0  0  0  0  0  0  0  0  0  0  0  0
   -0.5126   -3.2236    1.5287 H   0  0  0  0  0  0  0  0  0  0  0  0
    0.7880    0.9970   -0.0090 H   0  0  0  0  0  0  0  0  0  0  0  0
    4.0878   -2.6976   -0.2282 H   0  0  0  0  0  0  0  0  0  0  0  0
    4.8160   -0.4371   -0.4811 H   0  0  0  0  0  0  0  0  0  0  0  0
    2.8511    2.5191    1.7810 H   0  0  0  0  0  0  0  0  0  0  0  0
    4.5255    1.9374    1.5903 H   0  0  0  0  0  0  0  0  0  0  0  0
    4.4896    4.3480    2.2327 H   0  0  0  0  0  0  0  0  0  0  0  0
    5.1735    4.1503    0.6099 H   0  0  0  0  0  0  0  0  0  0  0  0
    3.5133    4.7275    0.8035 H   0  0  0  0  0  0  0  0  0  0  0  0
    3.0510   -4.5240   -0.8804 H   0  0  0  0  0  0  0  0  0  0  0  0
    2.0777   -5.4642    0.2413 H   0  0  0  0  0  0  0  0  0  0  0  0
    3.2991   -4.3983    0.9202 H   0  0  0  0  0  0  0  0  0  0  0  0
  1  3  2  0  0  0  0
  1  4  2  0  0  0  0
  1 20  1  0  0  0  0
  1 23  1  0  0  0  0
  2 19  1  0  0  0  0
  2 25  1  0  0  0  0
  5  7  1  0  0  0  0
  5 10  1  0  0  0  0
  5 12  1  0  0  0  0
  6 11  1  0  0  0  0
  6 14  1  0  0  0  0
  6 35  1  0  0  0  0
  7  8  1  0  0  0  0
  7 11  1  0  0  0  0
  7 26  1  0  0  0  0
  8  9  1  0  0  0  0
  8 27  1  0  0  0  0
  8 28  1  0  0  0  0
  9 10  1  0  0  0  0
  9 29  1  0  0  0  0
  9 30  1  0  0  0  0
 10 31  1  0  0  0  0
 10 32  1  0  0  0  0
 11 13  2  0  0  0  0
 12 15  1  0  0  0  0
 12 33  1  0  0  0  0
 12 34  1  0  0  0  0
 13 16  1  0  0  0  0
 13 36  1  0  0  0  0
 14 16  2  0  0  0  0
 14 17  1  0  0  0  0
 15 37  1  0  0  0  0
 15 38  1  0  0  0  0
 15 39  1  0  0  0  0
 16 40  1  0  0  0  0
 17 18  1  0  0  0  0
 17 19  2  0  0  0  0
 18 20  2  0  0  0  0
 18 41  1  0  0  0  0
 19 21  1  0  0  0  0
 20 22  1  0  0  0  0
 21 22  2  0  0  0  0
 21 42  1  0  0  0  0
 22 43  1  0  0  0  0
 23 24  1  0  0  0  0
 23 44  1  0  0  0  0
 23 45  1  0  0  0  0
 24 46  1  0  0  0  0
 24 47  1  0  0  0  0
 24 48  1  0  0  0  0
 25 49  1  0  0  0  0
 25 50  1  0  0  0  0
 25 51  1  0  0  0  0
M  END
> <PUBCHEM_COMPOUND_CID>
443374

> <PUBCHEM_CONFORMER_RMSD>
0.8

> <PUBCHEM_CONFORMER_DIVERSEORDER>
28
77
162
130
50
53
48
81
160
68
26
38
18
157
127
8
47
14
122
105
31
103
99
97
100
46
118
87
70
120
119
57
33
22
13
35
36
159
129
44
24
25
9
52
93
144
154
69
95
156
19
37
161
75
90
121
40
126
143
113
62
2
114
108
152
15
149
85
91
61
17
128
146
34
45
124
104
39
110
155
4
6
64
41
43
82
32
145
55
147
84
138
67
88
133
59
101
76
83
125
11
153
10
66
1
78
150
73
12
132
7
94
116
151
23
27
123
54
158
29
135
111
16
71
79
107
74
137
142
98
148
131
140
117
5
58
20
112
21
60
109
42
72
163
30
139
96
106
134
92
141
115
89
3
86
51
102
80
49
56
136
63
65

> <PUBCHEM_MMFF94_PARTIAL_CHARGES>
27
1 1.2
10 0.27
11 -0.33
12 0.27
13 -0.15
14 -0.2
16 -0.15
17 0.05
18 -0.15
19 0.08
2 -0.36
20 -0.01
21 -0.15
22 -0.15
23 0.11
25 0.28
3 -0.65
35 0.27
36 0.15
4 -0.65
40 0.15
41 0.15
42 0.15
43 0.15
5 -0.81
6 0.03
7 0.45

> <PUBCHEM_EFFECTIVE_ROTOR_COUNT>
7

> <PUBCHEM_PHARMACOPHORE_FEATURES>
9
1 2 acceptor
1 3 acceptor
1 4 acceptor
1 5 cation
1 6 cation
1 6 donor
5 5 7 8 9 10 rings
5 6 11 13 14 16 rings
6 17 18 19 20 21 22 rings

> <PUBCHEM_HEAVY_ATOM_COUNT>
25

> <PUBCHEM_ATOM_DEF_STEREO_COUNT>
0

> <PUBCHEM_ATOM_UDEF_STEREO_COUNT>
1

> <PUBCHEM_BOND_DEF_STEREO_COUNT>
0

> <PUBCHEM_BOND_UDEF_STEREO_COUNT>
0

> <PUBCHEM_ISOTOPIC_ATOM_COUNT>
0

> <PUBCHEM_COMPONENT_COUNT>
1

> <PUBCHEM_CACTVS_TAUTO_COUNT>
1

> <PUBCHEM_CONFORMER_ID>
0006C3EE0000001C

> <PUBCHEM_MMFF94_ENERGY>
44.8396

> <PUBCHEM_FEATURE_SELFOVERLAP>
45.687

> <PUBCHEM_SHAPE_FINGERPRINT>
10670039 82 17841697527187647412
10815517 723 16962090827426650610
11135609 201 18043526110142449593
11331351 85 17318730541005810994
12173636 292 18122906417594306326
12422481 6 17916609565249489080
12633257 1 18202009858146725178
12769317 202 18411142437438059110
13140716 1 18412263904970489442
13583140 156 16056610815626732869
13590594 115 17834955656529264786
13878862 14 18056775423416729861
14347329 18 18056188086760645580
14848178 96 18411421691558384284
15081414 286 18195803201055286878
17818456 19 17099180046012076827
17980427 23 17969795261550239546
18186145 218 18269834375541780023
21033648 144 18413113844227043093
21033648 29 17632301215624375701
21033650 10 15936681675126601459
21478907 32 17331964327308859962
21860390 5 18263645220188424510
22122407 14 17976523229721563257
22393880 68 18335977563416159054
22907989 373 17823432521879454351
23559900 14 18337679706226804962
24771293 8 18115881849028262170
283562 15 18051132493298670811
312425 83 17168128049146793213
376196 1 18341338799235112866
474 4 18339360863768512347
495365 180 18337684039774635006
5104073 3 18271805696431113178
543358 83 18337385062727136830
5895379 119 17460306878975172296
633830 44 18263073478600412991
7399639 24 18197769999613673395
7808743 9 17548973357030144628
79837 15 18053942849329674842
84936 182 18261111846592285184
9981440 41 18267875973080111866

> <PUBCHEM_SHAPE_MULTIPOLES>
490.77
10.99
5
1.51
5.26
0.69
-0.13
-9.28
-0.76
-6.43
1.61
1.9
-1.12
0.04

> <PUBCHEM_SHAPE_SELFOVERLAP>
1027.518

> <PUBCHEM_SHAPE_VOLUME>
281.4

> <PUBCHEM_COORDINATE_TYPE>
2
5
10

$$$$

