4977
  -OEChem-06261200272D

 31 32  0     1  0  0  0  0  0999 V2000
    7.1441    2.3921    0.0000 O   0  0  0  0  0  0  0  0  0  0  0  0
    3.7320    1.4801    0.0000 O   0  0  0  0  0  0  0  0  0  0  0  0
    2.0000   -1.5199    0.0000 O   0  0  0  0  0  0  0  0  0  0  0  0
    5.5443    0.2848    0.0000 N   0  0  0  0  0  0  0  0  0  0  0  0
    3.7320   -1.5199    0.0000 N   0  0  0  0  0  0  0  0  0  0  0  0
    2.8660   -0.0199    0.0000 N   0  0  0  0  0  0  0  0  0  0  0  0
    5.5443   -1.3247    0.0000 N   0  0  0  0  0  0  0  0  0  0  0  0
    4.5981   -0.0199    0.0000 C   0  0  0  0  0  0  0  0  0  0  0  0
    5.8550    1.2353    0.0000 C   0  0  0  0  0  0  0  0  0  0  0  0
    4.5981   -1.0199    0.0000 C   0  0  0  0  0  0  0  0  0  0  0  0
    6.8335    1.4416    0.0000 C   0  0  3  0  0  0  0  0  0  0  0  0
    3.7320    0.4801    0.0000 C   0  0  0  0  0  0  0  0  0  0  0  0
    6.1279   -0.5199    0.0000 C   0  0  0  0  0  0  0  0  0  0  0  0
    2.8660   -1.0199    0.0000 C   0  0  0  0  0  0  0  0  0  0  0  0
    7.5013    0.6972    0.0000 C   0  0  0  0  0  0  0  0  0  0  0  0
    3.7320   -2.5199    0.0000 C   0  0  0  0  0  0  0  0  0  0  0  0
    2.0000    0.4801    0.0000 C   0  0  0  0  0  0  0  0  0  0  0  0
    5.8344    1.8550    0.0000 H   0  0  0  0  0  0  0  0  0  0  0  0
    5.2411    1.3227    0.0000 H   0  0  0  0  0  0  0  0  0  0  0  0
    6.2658    2.0742    0.0000 H   0  0  0  0  0  0  0  0  0  0  0  0
    6.7479   -0.5199    0.0000 H   0  0  0  0  0  0  0  0  0  0  0  0
    7.0398    0.2832    0.0000 H   0  0  0  0  0  0  0  0  0  0  0  0
    7.9154    0.2358    0.0000 H   0  0  0  0  0  0  0  0  0  0  0  0
    7.9628    1.1113    0.0000 H   0  0  0  0  0  0  0  0  0  0  0  0
    3.1120   -2.5199    0.0000 H   0  0  0  0  0  0  0  0  0  0  0  0
    3.7320   -3.1399    0.0000 H   0  0  0  0  0  0  0  0  0  0  0  0
    4.3520   -2.5199    0.0000 H   0  0  0  0  0  0  0  0  0  0  0  0
    2.3100    1.0170    0.0000 H   0  0  0  0  0  0  0  0  0  0  0  0
    1.4631    0.7901    0.0000 H   0  0  0  0  0  0  0  0  0  0  0  0
    1.6900   -0.0569    0.0000 H   0  0  0  0  0  0  0  0  0  0  0  0
    7.7508    2.5199    0.0000 H   0  0  0  0  0  0  0  0  0  0  0  0
  1 11  1  0  0  0  0
  1 31  1  0  0  0  0
  2 12  2  0  0  0  0
  3 14  2  0  0  0  0
  4  8  1  0  0  0  0
  4  9  1  0  0  0  0
  4 13  1  0  0  0  0
  5 10  1  0  0  0  0
  5 14  1  0  0  0  0
  5 16  1  0  0  0  0
  6 12  1  0  0  0  0
  6 14  1  0  0  0  0
  6 17  1  0  0  0  0
  7 10  1  0  0  0  0
  7 13  2  0  0  0  0
  8 10  2  0  0  0  0
  8 12  1  0  0  0  0
  9 11  1  0  0  0  0
  9 18  1  0  0  0  0
  9 19  1  0  0  0  0
 11 15  1  0  0  0  0
 11 20  1  0  0  0  0
 13 21  1  0  0  0  0
 15 22  1  0  0  0  0
 15 23  1  0  0  0  0
 15 24  1  0  0  0  0
 16 25  1  0  0  0  0
 16 26  1  0  0  0  0
 16 27  1  0  0  0  0
 17 28  1  0  0  0  0
 17 29  1  0  0  0  0
 17 30  1  0  0  0  0
M  END
> <PUBCHEM_COMPOUND_CID>
4977

> <PUBCHEM_COMPOUND_CANONICALIZED>
1

> <PUBCHEM_CACTVS_COMPLEXITY>
348

> <PUBCHEM_CACTVS_HBOND_ACCEPTOR>
4

> <PUBCHEM_CACTVS_HBOND_DONOR>
1

> <PUBCHEM_CACTVS_ROTATABLE_BOND>
2

> <PUBCHEM_CACTVS_SUBSKEYS>
AAADccBzsAAAAAAAAAAAAAAAAAAAAWAAAAAsAAAAAAAAAFgBgAAAHgAACAAACBzhlgYHsBcMEgCoAQdxdACAgC0XEKABUAGoVECCWAhASCAUAIgIByLQAGAAAAAAAAAAAAAAAAAAAAAAAAAAAAAAAAAAAA==

> <PUBCHEM_IUPAC_OPENEYE_NAME>
7-(2-hydroxypropyl)-1,3-dimethyl-purine-2,6-dione

> <PUBCHEM_IUPAC_CAS_NAME>
7-(2-hydroxypropyl)-1,3-dimethylpurine-2,6-dione

> <PUBCHEM_IUPAC_NAME>
7-(2-hydroxypropyl)-1,3-dimethylpurine-2,6-dione

> <PUBCHEM_IUPAC_SYSTEMATIC_NAME>
1,3-dimethyl-7-(2-oxidanylpropyl)purine-2,6-dione

> <PUBCHEM_IUPAC_TRADITIONAL_NAME>
7-(2-hydroxypropyl)-1,3-dimethyl-xanthine

> <PUBCHEM_IUPAC_INCHI>
InChI=1S/C10H14N4O3/c1-6(15)4-14-5-11-8-7(14)9(16)13(3)10(17)12(8)2/h5-6,15H,4H2,1-3H3

> <PUBCHEM_IUPAC_INCHIKEY>
KYHQZNGJUGFTGR-UHFFFAOYSA-N

> <PUBCHEM_XLOGP3>
-0.8

> <PUBCHEM_EXACT_MASS>
238.10659

> <PUBCHEM_MOLECULAR_FORMULA>
C10H14N4O3

> <PUBCHEM_MOLECULAR_WEIGHT>
238.24316

> <PUBCHEM_OPENEYE_CAN_SMILES>
CC(CN1C=NC2=C1C(=O)N(C(=O)N2C)C)O

> <PUBCHEM_OPENEYE_ISO_SMILES>
CC(CN1C=NC2=C1C(=O)N(C(=O)N2C)C)O

> <PUBCHEM_CACTVS_TPSA>
78.7

> <PUBCHEM_MONOISOTOPIC_WEIGHT>
238.10659

> <PUBCHEM_TOTAL_CHARGE>
0

> <PUBCHEM_HEAVY_ATOM_COUNT>
17

> <PUBCHEM_ATOM_DEF_STEREO_COUNT>
0

> <PUBCHEM_ATOM_UDEF_STEREO_COUNT>
1

> <PUBCHEM_BOND_DEF_STEREO_COUNT>
0

> <PUBCHEM_BOND_UDEF_STEREO_COUNT>
0

> <PUBCHEM_ISOTOPIC_ATOM_COUNT>
0

> <PUBCHEM_COMPONENT_COUNT>
1

> <PUBCHEM_CACTVS_TAUTO_COUNT>
1

> <PUBCHEM_COORDINATE_TYPE>
1
5
255

> <PUBCHEM_BONDANNOTATIONS>
11  20  3
4  13  8
4  8  8
5  10  8
5  14  8
6  12  8
6  14  8
7  10  8
7  13  8
8  10  8
8  12  8

$$$$

