4265
  -OEChem-06261200002D

 79 82  0     1  0  0  0  0  0999 V2000
    7.9288   -2.2250    0.0000 O   0  0  0  0  0  0  0  0  0  0  0  0
    5.3307    0.2750    0.0000 O   0  0  0  0  0  0  0  0  0  0  0  0
    5.2710   -3.7734    0.0000 O   0  0  0  0  0  0  0  0  0  0  0  0
   10.1362    0.7196    0.0000 O   0  0  0  0  0  0  0  0  0  0  0  0
    2.5519   -1.1857    0.0000 O   0  0  0  0  0  0  0  0  0  0  0  0
    6.1847   -4.2942    0.0000 O   0  0  0  0  0  0  0  0  0  0  0  0
    2.5357   -3.2773    0.0000 O   0  0  0  0  0  0  0  0  0  0  0  0
    8.8285    2.7251    0.0000 O   0  0  0  0  0  0  0  0  0  0  0  0
    7.9288   -0.2250    0.0000 C   0  0  3  0  0  0  0  0  0  0  0  0
    7.9288   -1.2250    0.0000 C   0  0  3  0  0  0  0  0  0  0  0  0
    8.8750    0.0797    0.0000 C   0  0  3  0  0  0  0  0  0  0  0  0
    6.1968   -1.2250    0.0000 C   0  0  3  0  0  0  0  0  0  0  0  0
    5.2868   -1.7318    0.0000 C   0  0  3  0  0  0  0  0  0  0  0  0
    7.0628    0.2750    0.0000 C   0  0  0  0  0  0  0  0  0  0  0  0
    7.0628   -1.7250    0.0000 C   0  0  0  0  0  0  0  0  0  0  0  0
    6.1968   -0.2250    0.0000 C   0  0  3  0  0  0  0  0  0  0  0  0
    8.8750   -1.5297    0.0000 C   0  0  0  0  0  0  0  0  0  0  0  0
    9.4586   -0.7250    0.0000 C   0  0  0  0  0  0  0  0  0  0  0  0
    5.2787   -2.7734    0.0000 C   0  0  3  0  0  0  0  0  0  0  0  0
    9.1857    1.0303    0.0000 C   0  0  3  0  0  0  0  0  0  0  0  0
    7.9288    0.7750    0.0000 C   0  0  0  0  0  0  0  0  0  0  0  0
    4.3599   -1.1678    0.0000 C   0  0  0  0  0  0  0  0  0  0  0  0
    7.0789   -2.7665    0.0000 C   0  0  0  0  0  0  0  0  0  0  0  0
    4.3433   -3.3232    0.0000 C   0  0  0  0  0  0  0  0  0  0  0  0
    5.2945   -0.7319    0.0000 C   0  0  0  0  0  0  0  0  0  0  0  0
    6.1808   -3.2943    0.0000 C   0  0  0  0  0  0  0  0  0  0  0  0
    3.4120   -1.6957    0.0000 C   0  0  3  0  0  0  0  0  0  0  0  0
    3.4037   -2.7807    0.0000 C   0  0  3  0  0  0  0  0  0  0  0  0
    9.4964    1.9808    0.0000 C   0  0  3  0  0  0  0  0  0  0  0  0
    8.2352    1.3409    0.0000 C   0  0  0  0  0  0  0  0  0  0  0  0
   10.4749    2.1870    0.0000 C   0  0  0  0  0  0  0  0  0  0  0  0
   10.7855    3.1375    0.0000 C   0  0  0  0  0  0  0  0  0  0  0  0
   11.7640    3.3437    0.0000 C   0  0  0  0  0  0  0  0  0  0  0  0
   12.0747    4.2942    0.0000 C   0  0  0  0  0  0  0  0  0  0  0  0
   12.4319    2.5994    0.0000 C   0  0  0  0  0  0  0  0  0  0  0  0
    9.4875    0.1759    0.0000 H   0  0  0  0  0  0  0  0  0  0  0  0
    6.7337   -0.9150    0.0000 H   0  0  0  0  0  0  0  0  0  0  0  0
    7.4613    0.7499    0.0000 H   0  0  0  0  0  0  0  0  0  0  0  0
    6.6643    0.7499    0.0000 H   0  0  0  0  0  0  0  0  0  0  0  0
    6.1968    0.3950    0.0000 H   0  0  0  0  0  0  0  0  0  0  0  0
    8.6240   -2.0966    0.0000 H   0  0  0  0  0  0  0  0  0  0  0  0
    9.4124   -1.8390    0.0000 H   0  0  0  0  0  0  0  0  0  0  0  0
    9.9195   -1.1397    0.0000 H   0  0  0  0  0  0  0  0  0  0  0  0
    9.9195   -0.3103    0.0000 H   0  0  0  0  0  0  0  0  0  0  0  0
    8.5488    0.7750    0.0000 H   0  0  0  0  0  0  0  0  0  0  0  0
    7.9288    1.3950    0.0000 H   0  0  0  0  0  0  0  0  0  0  0  0
    7.3088    0.7750    0.0000 H   0  0  0  0  0  0  0  0  0  0  0  0
    4.7681   -0.7011    0.0000 H   0  0  0  0  0  0  0  0  0  0  0  0
    3.9700   -0.6857    0.0000 H   0  0  0  0  0  0  0  0  0  0  0  0
    7.6193   -3.0703    0.0000 H   0  0  0  0  0  0  0  0  0  0  0  0
    3.9460   -3.7991    0.0000 H   0  0  0  0  0  0  0  0  0  0  0  0
    4.7443   -3.7961    0.0000 H   0  0  0  0  0  0  0  0  0  0  0  0
    5.9145   -0.7367    0.0000 H   0  0  0  0  0  0  0  0  0  0  0  0
    5.2993   -0.1119    0.0000 H   0  0  0  0  0  0  0  0  0  0  0  0
    4.6745   -0.7271    0.0000 H   0  0  0  0  0  0  0  0  0  0  0  0
    2.8722   -2.0005    0.0000 H   0  0  0  0  0  0  0  0  0  0  0  0
    8.4658   -2.5350    0.0000 H   0  0  0  0  0  0  0  0  0  0  0  0
    2.8686   -2.4676    0.0000 H   0  0  0  0  0  0  0  0  0  0  0  0
    9.6890    2.5701    0.0000 H   0  0  0  0  0  0  0  0  0  0  0  0
    8.4278    1.9302    0.0000 H   0  0  0  0  0  0  0  0  0  0  0  0
    7.6459    1.5335    0.0000 H   0  0  0  0  0  0  0  0  0  0  0  0
    8.0426    0.7516    0.0000 H   0  0  0  0  0  0  0  0  0  0  0  0
    5.3307    0.8950    0.0000 H   0  0  0  0  0  0  0  0  0  0  0  0
    4.7317   -4.0793    0.0000 H   0  0  0  0  0  0  0  0  0  0  0  0
   10.5977    1.1336    0.0000 H   0  0  0  0  0  0  0  0  0  0  0  0
   10.4954    1.5673    0.0000 H   0  0  0  0  0  0  0  0  0  0  0  0
   11.0887    2.0996    0.0000 H   0  0  0  0  0  0  0  0  0  0  0  0
    2.5590   -0.5658    0.0000 H   0  0  0  0  0  0  0  0  0  0  0  0
    2.0000   -2.9653    0.0000 H   0  0  0  0  0  0  0  0  0  0  0  0
    9.0211    3.3144    0.0000 H   0  0  0  0  0  0  0  0  0  0  0  0
   10.7650    3.7572    0.0000 H   0  0  0  0  0  0  0  0  0  0  0  0
   10.1717    3.2249    0.0000 H   0  0  0  0  0  0  0  0  0  0  0  0
   12.3707    3.4716    0.0000 H   0  0  0  0  0  0  0  0  0  0  0  0
   12.6640    4.1016    0.0000 H   0  0  0  0  0  0  0  0  0  0  0  0
   12.2673    4.8836    0.0000 H   0  0  0  0  0  0  0  0  0  0  0  0
   11.9704    2.1854    0.0000 H   0  0  0  0  0  0  0  0  0  0  0  0
   12.8459    2.1380    0.0000 H   0  0  0  0  0  0  0  0  0  0  0  0
   12.8934    3.0135    0.0000 H   0  0  0  0  0  0  0  0  0  0  0  0
   11.4854    4.4869    0.0000 H   0  0  0  0  0  0  0  0  0  0  0  0
  1 10  1  0  0  0  0
  1 57  1  0  0  0  0
  2 16  1  0  0  0  0
  2 63  1  0  0  0  0
  3 19  1  0  0  0  0
  3 64  1  0  0  0  0
  4 20  1  0  0  0  0
  4 65  1  0  0  0  0
  5 27  1  0  0  0  0
  5 68  1  0  0  0  0
  6 26  2  0  0  0  0
  7 28  1  0  0  0  0
  7 69  1  0  0  0  0
  8 29  1  0  0  0  0
  8 70  1  0  0  0  0
  9 10  1  0  0  0  0
  9 11  1  0  0  0  0
  9 14  1  0  0  0  0
  9 21  1  0  0  0  0
 10 15  1  0  0  0  0
 10 17  1  0  0  0  0
 11 18  1  0  0  0  0
 11 20  1  0  0  0  0
 11 36  1  0  0  0  0
 12 13  1  0  0  0  0
 12 15  1  0  0  0  0
 12 16  1  0  0  0  0
 12 37  1  0  0  0  0
 13 19  1  0  0  0  0
 13 22  1  0  0  0  0
 13 25  1  0  0  0  0
 14 16  1  0  0  0  0
 14 38  1  0  0  0  0
 14 39  1  0  0  0  0
 15 23  2  0  0  0  0
 16 40  1  0  0  0  0
 17 18  1  0  0  0  0
 17 41  1  0  0  0  0
 17 42  1  0  0  0  0
 18 43  1  0  0  0  0
 18 44  1  0  0  0  0
 19 24  1  0  0  0  0
 19 26  1  0  0  0  0
 20 29  1  0  0  0  0
 20 30  1  0  0  0  0
 21 45  1  0  0  0  0
 21 46  1  0  0  0  0
 21 47  1  0  0  0  0
 22 27  1  0  0  0  0
 22 48  1  0  0  0  0
 22 49  1  0  0  0  0
 23 26  1  0  0  0  0
 23 50  1  0  0  0  0
 24 28  1  0  0  0  0
 24 51  1  0  0  0  0
 24 52  1  0  0  0  0
 25 53  1  0  0  0  0
 25 54  1  0  0  0  0
 25 55  1  0  0  0  0
 27 28  1  0  0  0  0
 27 56  1  0  0  0  0
 28 58  1  0  0  0  0
 29 31  1  0  0  0  0
 29 59  1  0  0  0  0
 30 60  1  0  0  0  0
 30 61  1  0  0  0  0
 30 62  1  0  0  0  0
 31 32  1  0  0  0  0
 31 66  1  0  0  0  0
 31 67  1  0  0  0  0
 32 33  1  0  0  0  0
 32 71  1  0  0  0  0
 32 72  1  0  0  0  0
 33 34  1  0  0  0  0
 33 35  1  0  0  0  0
 33 73  1  0  0  0  0
 34 74  1  0  0  0  0
 34 75  1  0  0  0  0
 34 79  1  0  0  0  0
 35 76  1  0  0  0  0
 35 77  1  0  0  0  0
 35 78  1  0  0  0  0
M  END
> <PUBCHEM_COMPOUND_CID>
4265

> <PUBCHEM_COMPOUND_CANONICALIZED>
1

> <PUBCHEM_CACTVS_COMPLEXITY>
904

> <PUBCHEM_CACTVS_HBOND_ACCEPTOR>
8

> <PUBCHEM_CACTVS_HBOND_DONOR>
7

> <PUBCHEM_CACTVS_ROTATABLE_BOND>
5

> <PUBCHEM_CACTVS_SUBSKEYS>
AAADcfB4PAAAAAAAAAAAAAAAAAAAAYAAAAAwYIAAAAAAAGCAAAAAGgAACAAAD1SggAICAAAAAgCIAqBSAAIAAAAgAAAACAFAAEgBFBIAAQAAUAAFwAAJEQPK7PTPgAAAAAAAAADCAAYQADCAAYAADAAAAA==

> <PUBCHEM_IUPAC_OPENEYE_NAME>
17-(1,2-dihydroxy-1,5-dimethyl-hexyl)-2,3,5,11,14-pentahydroxy-10,13-dimethyl-1,2,3,4,9,11,12,15,16,17-decahydrocyclopenta[a]phenanthren-6-one

> <PUBCHEM_IUPAC_CAS_NAME>
17-(2,3-dihydroxy-6-methylheptan-2-yl)-2,3,5,11,14-pentahydroxy-10,13-dimethyl-1,2,3,4,9,11,12,15,16,17-decahydrocyclopenta[a]phenanthren-6-one

> <PUBCHEM_IUPAC_NAME>
17-(2,3-dihydroxy-6-methylheptan-2-yl)-2,3,5,11,14-pentahydroxy-10,13-dimethyl-1,2,3,4,9,11,12,15,16,17-decahydrocyclopenta[a]phenanthren-6-one

> <PUBCHEM_IUPAC_SYSTEMATIC_NAME>
10,13-dimethyl-17-[6-methyl-2,3-bis(oxidanyl)heptan-2-yl]-2,3,5,11,14-pentakis(oxidanyl)-1,2,3,4,9,11,12,15,16,17-decahydrocyclopenta[a]phenanthren-6-one

> <PUBCHEM_IUPAC_TRADITIONAL_NAME>
17-(1,2-dihydroxy-1,5-dimethyl-hexyl)-2,3,5,11,14-pentahydroxy-10,13-dimethyl-1,2,3,4,9,11,12,15,16,17-decahydrocyclopenta[a]phenanthren-6-one

> <PUBCHEM_IUPAC_INCHI>
InChI=1S/C27H44O8/c1-14(2)6-7-20(31)25(5,33)19-8-9-26(34)15-10-21(32)27(35)13-17(29)16(28)11-24(27,4)22(15)18(30)12-23(19,26)3/h10,14,16-20,22,28-31,33-35H,6-9,11-13H2,1-5H3

> <PUBCHEM_IUPAC_INCHIKEY>
LRJUYAVTHIEHAI-UHFFFAOYSA-N

> <PUBCHEM_XLOGP3_AA>
-0.1

> <PUBCHEM_EXACT_MASS>
496.303618

> <PUBCHEM_MOLECULAR_FORMULA>
C27H44O8

> <PUBCHEM_MOLECULAR_WEIGHT>
496.63346

> <PUBCHEM_OPENEYE_CAN_SMILES>
CC(C)CCC(C(C)(C1CCC2(C1(CC(C3C2=CC(=O)C4(C3(CC(C(C4)O)O)C)O)O)C)O)O)O

> <PUBCHEM_OPENEYE_ISO_SMILES>
CC(C)CCC(C(C)(C1CCC2(C1(CC(C3C2=CC(=O)C4(C3(CC(C(C4)O)O)C)O)O)C)O)O)O

> <PUBCHEM_CACTVS_TPSA>
159

> <PUBCHEM_MONOISOTOPIC_WEIGHT>
496.303618

> <PUBCHEM_TOTAL_CHARGE>
0

> <PUBCHEM_HEAVY_ATOM_COUNT>
35

> <PUBCHEM_ATOM_DEF_STEREO_COUNT>
0

> <PUBCHEM_ATOM_UDEF_STEREO_COUNT>
11

> <PUBCHEM_BOND_DEF_STEREO_COUNT>
0

> <PUBCHEM_BOND_UDEF_STEREO_COUNT>
0

> <PUBCHEM_ISOTOPIC_ATOM_COUNT>
0

> <PUBCHEM_COMPONENT_COUNT>
1

> <PUBCHEM_CACTVS_TAUTO_COUNT>
3

> <PUBCHEM_COORDINATE_TYPE>
1
5
255

> <PUBCHEM_BONDANNOTATIONS>
10  1  3
11  18  3
12  15  3
13  25  3
16  2  3
19  3  3
20  4  3
27  5  3
28  7  3
29  8  3
9  21  3

$$$$

