442486
  -OEChem-07051212583D

 45 48  0     1  0  0  0  0  0999 V2000
    0.8857   -3.0358    0.2146 O   0  0  0  0  0  0  0  0  0  0  0  0
   -0.8225    0.0553   -2.3279 O   0  0  0  0  0  0  0  0  0  0  0  0
    2.8872    0.7261    0.8314 N   0  0  2  0  0  0  0  0  0  0  0  0
   -0.4054    0.3139    0.0909 C   0  0  1  0  0  0  0  0  0  0  0  0
    0.8859   -0.5975    0.0335 C   0  0  2  0  0  0  0  0  0  0  0  0
   -1.2704   -0.4097    1.1751 C   0  0  2  0  0  0  0  0  0  0  0  0
   -0.1339    1.7759    0.5453 C   0  0  0  0  0  0  0  0  0  0  0  0
    1.8981   -0.2913    1.1742 C   0  0  0  0  0  0  0  0  0  0  0  0
   -1.1217   -1.8992    0.8662 C   0  0  0  0  0  0  0  0  0  0  0  0
    1.6192   -0.6725   -1.3300 C   0  0  0  0  0  0  0  0  0  0  0  0
    0.2894   -1.9732    0.3558 C   0  0  0  0  0  0  0  0  0  0  0  0
   -2.7267    0.0527    1.2790 C   0  0  0  0  0  0  0  0  0  0  0  0
   -1.2591    0.3477   -1.2153 C   0  0  0  0  0  0  0  0  0  0  0  0
   -3.4661    0.0335   -0.0600 C   0  0  2  0  0  0  0  0  0  0  0  0
    1.1532    2.4276    0.0346 C   0  0  0  0  0  0  0  0  0  0  0  0
   -2.6962    0.8282   -1.1062 C   0  0  0  0  0  0  0  0  0  0  0  0
    3.1311   -0.7886   -1.1602 C   0  0  0  0  0  0  0  0  0  0  0  0
    2.3864    2.0967    0.8853 C   0  0  0  0  0  0  0  0  0  0  0  0
    3.6479    0.4249   -0.3859 C   0  0  0  0  0  0  0  0  0  0  0  0
   -4.8823    0.5856    0.0992 C   0  0  0  0  0  0  0  0  0  0  0  0
   -0.8230   -0.2427    2.1653 H   0  0  0  0  0  0  0  0  0  0  0  0
   -0.1366    1.8389    1.6415 H   0  0  0  0  0  0  0  0  0  0  0  0
   -0.9607    2.4229    0.2335 H   0  0  0  0  0  0  0  0  0  0  0  0
    1.3904   -0.0188    2.1074 H   0  0  0  0  0  0  0  0  0  0  0  0
    2.4448   -1.2059    1.4455 H   0  0  0  0  0  0  0  0  0  0  0  0
   -1.7918   -2.2533    0.0796 H   0  0  0  0  0  0  0  0  0  0  0  0
   -1.2387   -2.5079    1.7665 H   0  0  0  0  0  0  0  0  0  0  0  0
    1.4489    0.2332   -1.9192 H   0  0  0  0  0  0  0  0  0  0  0  0
    1.2617   -1.5153   -1.9338 H   0  0  0  0  0  0  0  0  0  0  0  0
   -3.2574   -0.5800    2.0016 H   0  0  0  0  0  0  0  0  0  0  0  0
   -2.7444    1.0706    1.6900 H   0  0  0  0  0  0  0  0  0  0  0  0
   -3.5549   -1.0045   -0.4028 H   0  0  0  0  0  0  0  0  0  0  0  0
    1.3188    2.2164   -1.0252 H   0  0  0  0  0  0  0  0  0  0  0  0
    1.0138    3.5155    0.0967 H   0  0  0  0  0  0  0  0  0  0  0  0
   -2.7024    1.9008   -0.8900 H   0  0  0  0  0  0  0  0  0  0  0  0
   -3.1744    0.7023   -2.0854 H   0  0  0  0  0  0  0  0  0  0  0  0
    3.3892   -1.7204   -0.6429 H   0  0  0  0  0  0  0  0  0  0  0  0
    3.6147   -0.8291   -2.1430 H   0  0  0  0  0  0  0  0  0  0  0  0
    3.1966    2.7858    0.6122 H   0  0  0  0  0  0  0  0  0  0  0  0
    2.1652    2.3387    1.9334 H   0  0  0  0  0  0  0  0  0  0  0  0
    4.6915    0.2424   -0.1038 H   0  0  0  0  0  0  0  0  0  0  0  0
    3.6686    1.2857   -1.0669 H   0  0  0  0  0  0  0  0  0  0  0  0
   -5.4230    0.5470   -0.8524 H   0  0  0  0  0  0  0  0  0  0  0  0
   -5.4478   -0.0021    0.8299 H   0  0  0  0  0  0  0  0  0  0  0  0
   -4.8694    1.6268    0.4390 H   0  0  0  0  0  0  0  0  0  0  0  0
  1 11  2  0  0  0  0
  2 13  2  0  0  0  0
  3  8  1  0  0  0  0
  3 18  1  0  0  0  0
  3 19  1  0  0  0  0
  4  5  1  0  0  0  0
  4  6  1  0  0  0  0
  4  7  1  0  0  0  0
  4 13  1  0  0  0  0
  5  8  1  0  0  0  0
  5 10  1  0  0  0  0
  5 11  1  0  0  0  0
  6  9  1  0  0  0  0
  6 12  1  0  0  0  0
  6 21  1  0  0  0  0
  7 15  1  0  0  0  0
  7 22  1  0  0  0  0
  7 23  1  0  0  0  0
  8 24  1  0  0  0  0
  8 25  1  0  0  0  0
  9 11  1  0  0  0  0
  9 26  1  0  0  0  0
  9 27  1  0  0  0  0
 10 17  1  0  0  0  0
 10 28  1  0  0  0  0
 10 29  1  0  0  0  0
 12 14  1  0  0  0  0
 12 30  1  0  0  0  0
 12 31  1  0  0  0  0
 13 16  1  0  0  0  0
 14 16  1  0  0  0  0
 14 20  1  0  0  0  0
 14 32  1  0  0  0  0
 15 18  1  0  0  0  0
 15 33  1  0  0  0  0
 15 34  1  0  0  0  0
 16 35  1  0  0  0  0
 16 36  1  0  0  0  0
 17 19  1  0  0  0  0
 17 37  1  0  0  0  0
 17 38  1  0  0  0  0
 18 39  1  0  0  0  0
 18 40  1  0  0  0  0
 19 41  1  0  0  0  0
 19 42  1  0  0  0  0
 20 43  1  0  0  0  0
 20 44  1  0  0  0  0
 20 45  1  0  0  0  0
M  END
> <PUBCHEM_COMPOUND_CID>
442486

> <PUBCHEM_CONFORMER_RMSD>
0.6

> <PUBCHEM_CONFORMER_DIVERSEORDER>
2
3
1

> <PUBCHEM_MMFF94_PARTIAL_CHARGES>
12
1 -0.57
11 0.45
13 0.45
16 0.06
18 0.27
19 0.27
2 -0.57
3 -0.81
4 0.06
5 0.06
8 0.27
9 0.06

> <PUBCHEM_EFFECTIVE_ROTOR_COUNT>
2.2

> <PUBCHEM_PHARMACOPHORE_FEATURES>
7
1 1 acceptor
1 2 acceptor
1 3 cation
5 4 5 6 9 11 rings
6 3 5 8 10 17 19 rings
6 4 6 12 13 14 16 rings
7 3 4 5 7 8 15 18 rings

> <PUBCHEM_HEAVY_ATOM_COUNT>
20

> <PUBCHEM_ATOM_DEF_STEREO_COUNT>
4

> <PUBCHEM_ATOM_UDEF_STEREO_COUNT>
0

> <PUBCHEM_BOND_DEF_STEREO_COUNT>
0

> <PUBCHEM_BOND_UDEF_STEREO_COUNT>
0

> <PUBCHEM_ISOTOPIC_ATOM_COUNT>
0

> <PUBCHEM_COMPONENT_COUNT>
1

> <PUBCHEM_CACTVS_TAUTO_COUNT>
4

> <PUBCHEM_CONFORMER_ID>
0006C07600000002

> <PUBCHEM_MMFF94_ENERGY>
65.9526

> <PUBCHEM_FEATURE_SELFOVERLAP>
36.265

> <PUBCHEM_SHAPE_FINGERPRINT>
10863032 1 15575006017935462648
10948715 1 18188495661802947313
12011746 2 18341889701403991300
12035758 1 18340767040118891768
12236239 1 17167861967448415177
12403814 3 17131562630450090852
12423570 1 5665500087595918848
12491281 212 16732975401673328233
13140716 1 18339647715590519456
13538477 17 16009040470614683693
13581323 91 16988853769196051577
14142880 1 17258796818836576805
144361 1 17531533190872446892
14787075 74 17898576371872968507
15309172 13 18341335513262851961
15775835 57 17989208114232566178
15848702 151 17604136142503685190
16945 1 18342171185260663587
18186145 218 18409737257114144885
18219364 16 18340190913163341937
18981168 100 17899692358752692296
21501502 16 18053387595540552213
22344851 262 17313110713384169812
22892500 29 18410571807861566429
2334 1 18050844420845108674
23402539 116 18334019402058071310
23419403 2 17248871699160285519
23493267 7 16916766509766217506
23559900 14 18337095810434662798
238 59 17911839934983113111
25 1 18411985784036013641
2748010 2 18195235633647571066
3060560 45 18335706056583599919
3286 77 18200041762371286507
3323516 105 18411136974118384847
4340502 62 18335141943522164547
474 4 18187932728950579473
5337951 7 18409443661650021764
633830 44 18333733511739202189
77492 1 17167863058422829953
81228 2 17625268511234932930
8272917 22 18335419123362670129
9999458 23 18411132524490146181

> <PUBCHEM_SHAPE_MULTIPOLES>
394.87
5.8
2.22
1.48
3.54
0.42
-0.5
-1.44
-0.27
-1.12
0.51
0.08
0.03
0.71

> <PUBCHEM_SHAPE_SELFOVERLAP>
850.152

> <PUBCHEM_SHAPE_VOLUME>
212.4

> <PUBCHEM_COORDINATE_TYPE>
2
5
10

$$$$

