242492
  -OEChem-07051213062D

 60 63  0     1  0  0  0  0  0999 V2000
    5.1610    1.9009    0.0000 O   0  0  0  0  0  0  0  0  0  0  0  0
    7.9821    3.0344    0.0000 O   0  0  0  0  0  0  0  0  0  0  0  0
    2.0000   -2.0175    0.0000 O   0  0  0  0  0  0  0  0  0  0  0  0
    7.3931    0.0348    0.0000 C   0  0  2  0  0  0  0  0  0  0  0  0
    7.3931    1.0348    0.0000 C   0  0  2  0  0  0  0  0  0  0  0  0
    6.5271   -0.4652    0.0000 C   0  0  1  0  0  0  0  0  0  0  0  0
    5.6610    0.0348    0.0000 C   0  0  2  0  0  0  0  0  0  0  0  0
    5.6610    1.0348    0.0000 C   0  0  2  0  0  0  0  0  0  0  0  0
    4.7510   -0.4720    0.0000 C   0  0  2  0  0  0  0  0  0  0  0  0
    6.5271    1.5348    0.0000 C   0  0  0  0  0  0  0  0  0  0  0  0
    8.3393    1.3396    0.0000 C   0  0  2  0  0  0  0  0  0  0  0  0
    8.3393   -0.2699    0.0000 C   0  0  0  0  0  0  0  0  0  0  0  0
    6.5431   -1.5067    0.0000 C   0  0  0  0  0  0  0  0  0  0  0  0
    8.9229    0.5349    0.0000 C   0  0  0  0  0  0  0  0  0  0  0  0
    5.6451   -2.0344    0.0000 C   0  0  1  0  0  0  0  0  0  0  0  0
    4.7430   -1.5136    0.0000 C   0  0  0  0  0  0  0  0  0  0  0  0
    7.3931    2.0348    0.0000 C   0  0  0  0  0  0  0  0  0  0  0  0
    3.8242    0.0921    0.0000 C   0  0  0  0  0  0  0  0  0  0  0  0
    4.7214    1.3770    0.0000 C   0  0  0  0  0  0  0  0  0  0  0  0
    4.4163    0.4703    0.0000 C   0  0  0  0  0  0  0  0  0  0  0  0
    8.6500    2.2901    0.0000 C   0  0  0  0  0  0  0  0  0  0  0  0
    2.8763   -0.4359    0.0000 C   0  0  0  0  0  0  0  0  0  0  0  0
    3.8076   -2.0633    0.0000 C   0  0  0  0  0  0  0  0  0  0  0  0
    5.6489   -3.0344    0.0000 C   0  0  0  0  0  0  0  0  0  0  0  0
    2.8680   -1.5208    0.0000 C   0  0  0  0  0  0  0  0  0  0  0  0
    9.6285    2.4963    0.0000 C   0  0  0  0  0  0  0  0  0  0  0  0
    7.4830   -0.8104    0.0000 H   0  0  0  0  0  0  0  0  0  0  0  0
    7.2664   -0.8845    0.0000 H   0  0  0  0  0  0  0  0  0  0  0  0
    6.3972    0.4598    0.0000 H   0  0  0  0  0  0  0  0  0  0  0  0
    6.9256    2.0098    0.0000 H   0  0  0  0  0  0  0  0  0  0  0  0
    6.1285    2.0098    0.0000 H   0  0  0  0  0  0  0  0  0  0  0  0
    7.9018    1.7789    0.0000 H   0  0  0  0  0  0  0  0  0  0  0  0
    8.0883   -0.8368    0.0000 H   0  0  0  0  0  0  0  0  0  0  0  0
    8.8767   -0.5791    0.0000 H   0  0  0  0  0  0  0  0  0  0  0  0
    6.7612   -2.0871    0.0000 H   0  0  0  0  0  0  0  0  0  0  0  0
    7.1523   -1.3912    0.0000 H   0  0  0  0  0  0  0  0  0  0  0  0
    9.3838    0.1201    0.0000 H   0  0  0  0  0  0  0  0  0  0  0  0
    9.3838    0.9496    0.0000 H   0  0  0  0  0  0  0  0  0  0  0  0
    5.1087   -2.3454    0.0000 H   0  0  0  0  0  0  0  0  0  0  0  0
    8.0131    2.0348    0.0000 H   0  0  0  0  0  0  0  0  0  0  0  0
    7.3931    2.6548    0.0000 H   0  0  0  0  0  0  0  0  0  0  0  0
    6.7731    2.0348    0.0000 H   0  0  0  0  0  0  0  0  0  0  0  0
    4.2324    0.5587    0.0000 H   0  0  0  0  0  0  0  0  0  0  0  0
    3.4343    0.5741    0.0000 H   0  0  0  0  0  0  0  0  0  0  0  0
    4.9335    1.9596    0.0000 H   0  0  0  0  0  0  0  0  0  0  0  0
    4.1388    1.5891    0.0000 H   0  0  0  0  0  0  0  0  0  0  0  0
    4.5093    0.7944    0.0000 H   0  0  0  0  0  0  0  0  0  0  0  0
    5.0005    0.6779    0.0000 H   0  0  0  0  0  0  0  0  0  0  0  0
    4.2087    1.0545    0.0000 H   0  0  0  0  0  0  0  0  0  0  0  0
    3.8320    0.2628    0.0000 H   0  0  0  0  0  0  0  0  0  0  0  0
    5.4710    2.4378    0.0000 H   0  0  0  0  0  0  0  0  0  0  0  0
    2.6718    0.1494    0.0000 H   0  0  0  0  0  0  0  0  0  0  0  0
    2.2647   -0.5372    0.0000 H   0  0  0  0  0  0  0  0  0  0  0  0
    3.8100   -2.6833    0.0000 H   0  0  0  0  0  0  0  0  0  0  0  0
    5.0289   -3.0368    0.0000 H   0  0  0  0  0  0  0  0  0  0  0  0
    5.6513   -3.6544    0.0000 H   0  0  0  0  0  0  0  0  0  0  0  0
    6.2689   -3.0320    0.0000 H   0  0  0  0  0  0  0  0  0  0  0  0
    9.7563    1.8896    0.0000 H   0  0  0  0  0  0  0  0  0  0  0  0
   10.2351    2.6242    0.0000 H   0  0  0  0  0  0  0  0  0  0  0  0
    9.5006    3.1030    0.0000 H   0  0  0  0  0  0  0  0  0  0  0  0
  8  1  1  1  0  0  0
  1 51  1  0  0  0  0
  2 21  2  0  0  0  0
  3 25  2  0  0  0  0
  4  5  1  0  0  0  0
  4  6  1  0  0  0  0
  4 12  1  0  0  0  0
  4 27  1  6  0  0  0
  5 10  1  0  0  0  0
  5 11  1  0  0  0  0
  5 17  1  1  0  0  0
  6  7  1  0  0  0  0
  6 13  1  0  0  0  0
  6 28  1  1  0  0  0
  7  8  1  0  0  0  0
  7  9  1  0  0  0  0
  7 29  1  6  0  0  0
  8 10  1  0  0  0  0
  8 19  1  0  0  0  0
  9 16  1  0  0  0  0
  9 18  1  0  0  0  0
  9 20  1  1  0  0  0
 10 30  1  0  0  0  0
 10 31  1  0  0  0  0
 11 14  1  0  0  0  0
 11 21  1  1  0  0  0
 11 32  1  0  0  0  0
 12 14  1  0  0  0  0
 12 33  1  0  0  0  0
 12 34  1  0  0  0  0
 13 15  1  0  0  0  0
 13 35  1  0  0  0  0
 13 36  1  0  0  0  0
 14 37  1  0  0  0  0
 14 38  1  0  0  0  0
 15 16  1  0  0  0  0
 15 24  1  6  0  0  0
 15 39  1  0  0  0  0
 16 23  2  0  0  0  0
 17 40  1  0  0  0  0
 17 41  1  0  0  0  0
 17 42  1  0  0  0  0
 18 22  1  0  0  0  0
 18 43  1  0  0  0  0
 18 44  1  0  0  0  0
 19 45  1  0  0  0  0
 19 46  1  0  0  0  0
 19 47  1  0  0  0  0
 20 48  1  0  0  0  0
 20 49  1  0  0  0  0
 20 50  1  0  0  0  0
 21 26  1  0  0  0  0
 22 25  1  0  0  0  0
 22 52  1  0  0  0  0
 22 53  1  0  0  0  0
 23 25  1  0  0  0  0
 23 54  1  0  0  0  0
 24 55  1  0  0  0  0
 24 56  1  0  0  0  0
 24 57  1  0  0  0  0
 26 58  1  0  0  0  0
 26 59  1  0  0  0  0
 26 60  1  0  0  0  0
M  END
> <PUBCHEM_COMPOUND_CID>
242492

> <PUBCHEM_COMPOUND_CANONICALIZED>
1

> <PUBCHEM_CACTVS_COMPLEXITY>
694

> <PUBCHEM_CACTVS_HBOND_ACCEPTOR>
3

> <PUBCHEM_CACTVS_HBOND_DONOR>
1

> <PUBCHEM_CACTVS_ROTATABLE_BOND>
1

> <PUBCHEM_CACTVS_SUBSKEYS>
AAADcfB4MAAAAAAAAAAAAAAAAAAAAYAAAAAwYIAAAAAAAGDAAAAAGgAACAAAD0SAgAACAAAAAgCIAqBSAAAAAAAgAAAACAEAAEgAABIAAQAAQAAEgAAIAQOIzPDPgAAAAAAAAADAAAYAADAAAQAACAAAAA==

> <PUBCHEM_IUPAC_OPENEYE_NAME>
(6S,8S,9S,10R,11S,13S,14S,17S)-17-acetyl-11-hydroxy-6,10,11,13-tetramethyl-2,6,7,8,9,12,14,15,16,17-decahydro-1H-cyclopenta[a]phenanthren-3-one

> <PUBCHEM_IUPAC_CAS_NAME>
(6S,8S,9S,10R,11S,13S,14S,17S)-17-acetyl-11-hydroxy-6,10,11,13-tetramethyl-2,6,7,8,9,12,14,15,16,17-decahydro-1H-cyclopenta[a]phenanthren-3-one

> <PUBCHEM_IUPAC_NAME>
(6S,8S,9S,10R,11S,13S,14S,17S)-17-acetyl-11-hydroxy-6,10,11,13-tetramethyl-2,6,7,8,9,12,14,15,16,17-decahydro-1H-cyclopenta[a]phenanthren-3-one

> <PUBCHEM_IUPAC_SYSTEMATIC_NAME>
(6S,8S,9S,10R,11S,13S,14S,17S)-17-ethanoyl-6,10,11,13-tetramethyl-11-oxidanyl-2,6,7,8,9,12,14,15,16,17-decahydro-1H-cyclopenta[a]phenanthren-3-one

> <PUBCHEM_IUPAC_TRADITIONAL_NAME>
(6S,8S,9S,10R,11S,13S,14S,17S)-17-acetyl-11-hydroxy-6,10,11,13-tetramethyl-2,6,7,8,9,12,14,15,16,17-decahydro-1H-cyclopenta[a]phenanthren-3-one

> <PUBCHEM_IUPAC_INCHI>
InChI=1S/C23H34O3/c1-13-10-16-18-7-6-17(14(2)24)22(18,4)12-23(5,26)20(16)21(3)9-8-15(25)11-19(13)21/h11,13,16-18,20,26H,6-10,12H2,1-5H3/t13-,16-,17+,18-,20-,21-,22+,23-/m0/s1

> <PUBCHEM_IUPAC_INCHIKEY>
NVFLFMSIUUPFBG-XMYKTDNUSA-N

> <PUBCHEM_XLOGP3_AA>
3.2

> <PUBCHEM_EXACT_MASS>
358.250795

> <PUBCHEM_MOLECULAR_FORMULA>
C23H34O3

> <PUBCHEM_MOLECULAR_WEIGHT>
358.51426

> <PUBCHEM_OPENEYE_CAN_SMILES>
CC1CC2C3CCC(C3(CC(C2C4(C1=CC(=O)CC4)C)(C)O)C)C(=O)C

> <PUBCHEM_OPENEYE_ISO_SMILES>
C[C@H]1C[C@H]2[C@@H]3CC[C@@H]([C@]3(C[C@]([C@@H]2[C@@]4(C1=CC(=O)CC4)C)(C)O)C)C(=O)C

> <PUBCHEM_CACTVS_TPSA>
54.4

> <PUBCHEM_MONOISOTOPIC_WEIGHT>
358.250795

> <PUBCHEM_TOTAL_CHARGE>
0

> <PUBCHEM_HEAVY_ATOM_COUNT>
26

> <PUBCHEM_ATOM_DEF_STEREO_COUNT>
8

> <PUBCHEM_ATOM_UDEF_STEREO_COUNT>
0

> <PUBCHEM_BOND_DEF_STEREO_COUNT>
0

> <PUBCHEM_BOND_UDEF_STEREO_COUNT>
0

> <PUBCHEM_ISOTOPIC_ATOM_COUNT>
0

> <PUBCHEM_COMPONENT_COUNT>
1

> <PUBCHEM_CACTVS_TAUTO_COUNT>
15

> <PUBCHEM_COORDINATE_TYPE>
1
5
255

> <PUBCHEM_BONDANNOTATIONS>
8  1  5
11  21  5
15  24  6
4  27  6
5  17  5
6  28  5
7  29  6
9  20  5

$$$$

