47205556
  -OEChem-06241222593D

 33 34  0     0  0  0  0  0  0999 V2000
    0.8454   -1.4459   -0.0243 O   0  0  0  0  0  0  0  0  0  0  0  0
    4.2349    2.3635    0.0152 O   0  0  0  0  0  0  0  0  0  0  0  0
    2.0733    0.5562   -0.0068 N   0  0  0  0  0  0  0  0  0  0  0  0
   -2.7448    0.7528   -0.0285 N   0  0  0  0  0  0  0  0  0  0  0  0
   -4.2660   -1.0044    0.0038 N   0  0  0  0  0  0  0  0  0  0  0  0
   -5.0065    1.2888   -0.0005 N   0  0  0  0  0  0  0  0  0  0  0  0
   -0.3204    0.6617   -0.0254 C   0  0  0  0  0  0  0  0  0  0  0  0
   -1.6136   -0.1422   -0.0384 C   0  0  0  0  0  0  0  0  0  0  0  0
    0.9191   -0.2217   -0.0186 C   0  0  0  0  0  0  0  0  0  0  0  0
    3.4156    0.1081    0.0024 C   0  0  0  0  0  0  0  0  0  0  0  0
    4.4703    1.0208    0.0121 C   0  0  0  0  0  0  0  0  0  0  0  0
    3.6787   -1.2617   -0.0007 C   0  0  0  0  0  0  0  0  0  0  0  0
   -4.0640    0.3269   -0.0075 C   0  0  0  0  0  0  0  0  0  0  0  0
    5.7881    0.5638    0.0189 C   0  0  0  0  0  0  0  0  0  0  0  0
    4.9967   -1.7188    0.0061 C   0  0  0  0  0  0  0  0  0  0  0  0
    6.0514   -0.8060    0.0159 C   0  0  0  0  0  0  0  0  0  0  0  0
   -5.5608   -1.3836    0.0238 C   0  0  0  0  0  0  0  0  0  0  0  0
   -6.2785    0.8394    0.0199 C   0  0  0  0  0  0  0  0  0  0  0  0
   -6.6190   -0.4979    0.0328 C   0  0  0  0  0  0  0  0  0  0  0  0
   -0.2749    1.3133   -0.9071 H   0  0  0  0  0  0  0  0  0  0  0  0
   -0.2881    1.3061    0.8622 H   0  0  0  0  0  0  0  0  0  0  0  0
   -1.6459   -0.7996    0.8392 H   0  0  0  0  0  0  0  0  0  0  0  0
   -1.6445   -0.7784   -0.9314 H   0  0  0  0  0  0  0  0  0  0  0  0
    1.9599    1.5678   -0.0043 H   0  0  0  0  0  0  0  0  0  0  0  0
   -2.5905    1.7547   -0.0402 H   0  0  0  0  0  0  0  0  0  0  0  0
    2.9217   -2.0324   -0.0080 H   0  0  0  0  0  0  0  0  0  0  0  0
    6.6198    1.2633    0.0266 H   0  0  0  0  0  0  0  0  0  0  0  0
    5.2031   -2.7852    0.0037 H   0  0  0  0  0  0  0  0  0  0  0  0
    7.0774   -1.1620    0.0212 H   0  0  0  0  0  0  0  0  0  0  0  0
   -5.7299   -2.4551    0.0328 H   0  0  0  0  0  0  0  0  0  0  0  0
   -7.0423    1.6097    0.0255 H   0  0  0  0  0  0  0  0  0  0  0  0
    5.0854    2.8353    0.0222 H   0  0  0  0  0  0  0  0  0  0  0  0
   -7.6482   -0.8301    0.0489 H   0  0  0  0  0  0  0  0  0  0  0  0
  1  9  2  0  0  0  0
  2 11  1  0  0  0  0
  2 32  1  0  0  0  0
  3  9  1  0  0  0  0
  3 10  1  0  0  0  0
  3 24  1  0  0  0  0
  4  8  1  0  0  0  0
  4 13  1  0  0  0  0
  4 25  1  0  0  0  0
  5 13  1  0  0  0  0
  5 17  2  0  0  0  0
  6 13  2  0  0  0  0
  6 18  1  0  0  0  0
  7  8  1  0  0  0  0
  7  9  1  0  0  0  0
  7 20  1  0  0  0  0
  7 21  1  0  0  0  0
  8 22  1  0  0  0  0
  8 23  1  0  0  0  0
 10 11  1  0  0  0  0
 10 12  2  0  0  0  0
 11 14  2  0  0  0  0
 12 15  1  0  0  0  0
 12 26  1  0  0  0  0
 14 16  1  0  0  0  0
 14 27  1  0  0  0  0
 15 16  2  0  0  0  0
 15 28  1  0  0  0  0
 16 29  1  0  0  0  0
 17 19  1  0  0  0  0
 17 30  1  0  0  0  0
 18 19  2  0  0  0  0
 18 31  1  0  0  0  0
 19 33  1  0  0  0  0
M  END
> <PUBCHEM_COMPOUND_CID>
47205556

> <PUBCHEM_CONFORMER_RMSD>
0.8

> <PUBCHEM_CONFORMER_DIVERSEORDER>
1
5
39
34
17
7
58
55
56
46
75
4
6
19
9
41
81
36
32
54
35
14
60
40
69
30
64
24
65
57
11
66
20
79
33
44
84
29
45
10
47
85
53
63
37
31
16
28
73
71
12
3
82
2
48
26
18
52
67
74
22
62
25
59
80
87
68
86
42
51
70
38
43
49
61
23
72
77
83
76
27
8
21
50
13
78
15

> <PUBCHEM_MMFF94_PARTIAL_CHARGES>
29
1 -0.57
10 0.12
11 0.08
12 -0.15
13 0.72
14 -0.15
15 -0.15
16 -0.15
17 0.16
18 0.16
19 -0.15
2 -0.53
24 0.37
25 0.4
26 0.15
27 0.15
28 0.15
29 0.15
3 -0.55
30 0.15
31 0.15
32 0.45
33 0.15
4 -0.87
5 -0.62
6 -0.62
7 0.06
8 0.37
9 0.57

> <PUBCHEM_EFFECTIVE_ROTOR_COUNT>
6

> <PUBCHEM_PHARMACOPHORE_FEATURES>
8
1 1 acceptor
1 2 donor
1 3 donor
1 4 donor
1 5 acceptor
4 4 5 6 13 cation
6 10 11 12 14 15 16 rings
6 5 6 13 17 18 19 rings

> <PUBCHEM_HEAVY_ATOM_COUNT>
19

> <PUBCHEM_ATOM_DEF_STEREO_COUNT>
0

> <PUBCHEM_ATOM_UDEF_STEREO_COUNT>
0

> <PUBCHEM_BOND_DEF_STEREO_COUNT>
0

> <PUBCHEM_BOND_UDEF_STEREO_COUNT>
0

> <PUBCHEM_ISOTOPIC_ATOM_COUNT>
0

> <PUBCHEM_COMPONENT_COUNT>
1

> <PUBCHEM_CACTVS_TAUTO_COUNT>
16

> <PUBCHEM_CONFORMER_ID>
02D04CB400000001

> <PUBCHEM_MMFF94_ENERGY>
54.5256

> <PUBCHEM_FEATURE_SELFOVERLAP>
40.598

> <PUBCHEM_SHAPE_FINGERPRINT>
10595046 47 18409448081134439529
11287383 113 18410573980893420171
11315181 36 18260265244773240345
11524674 6 16660646241881913559
11719270 70 18041001777495621158
12091667 2 17418373610727143365
12107183 9 17617095149752142537
12166972 35 18342453733742607380
12236239 1 18334012796055465613
12516196 113 18187085052877748033
12616971 3 17894640240019259852
12916748 109 15574710309458154370
13167372 99 18261389004858357513
13167823 11 18409732867404516671
13533116 47 17131562738198631954
1420 363 18202279204230653043
14251732 16 18411136896782554163
14251764 18 18343304760791009274
14341114 176 18411978057564064293
14461889 52 18268714909548266402
14933364 13 18411417315070917317
15183329 4 18412828010159226627
15716309 27 18333449833750067823
17834072 33 18408041801325037407
17844677 252 18410849979961421389
18222031 100 16702583831024647196
19427546 62 18270398266630531178
19489759 90 16845293856489240133
20281389 69 18413108372850508377
20645477 70 18409447029432188326
21267235 1 18334853970497331318
21315763 129 18411419543969332324
21315763 28 18409731768351499999
220451 1 16702584934862975259
23035841 295 18413389847784696411
23402539 116 18343023294045517693
23536379 177 18409729577649121417
23559900 14 18337680703144332473
239999 70 18334853952885283422
3004659 81 18413670227655412402
329604 57 18113052744446315321
3545911 37 18411418402029705764
4073 2 18060133189946142970
4214541 1 18410855495226677261
42788 4 18410855468733927141
4325135 7 18408041801478070479
4463277 17 18410293618524320141
465052 167 18260827129342793710
7495541 125 17749394736831189000

> <PUBCHEM_SHAPE_MULTIPOLES>
359.35
19.46
1.63
0.59
12.7
0.12
0
-1.06
-0.24
-1.19
-0.01
-0.02
-0.01
0.02

> <PUBCHEM_SHAPE_SELFOVERLAP>
757.099

> <PUBCHEM_SHAPE_VOLUME>
199.3

> <PUBCHEM_COORDINATE_TYPE>
2
5
10

$$$$

