239806
  -OEChem-07051213053D

 54 57  0     1  0  0  0  0  0999 V2000
    1.5355    1.7220   -2.2652 Br  0  0  0  0  0  0  0  0  0  0  0  0
    0.0996    1.9921    1.5323 O   0  0  0  0  0  0  0  0  0  0  0  0
    4.7201    1.3594    0.5790 O   0  0  0  0  0  0  0  0  0  0  0  0
   -6.0866    0.0515   -1.2685 O   0  0  0  0  0  0  0  0  0  0  0  0
    1.3451   -1.0891   -0.2346 C   0  0  2  0  0  0  0  0  0  0  0  0
    2.2466    0.1154    0.1128 C   0  0  2  0  0  0  0  0  0  0  0  0
   -0.0437   -1.0420    0.4246 C   0  0  1  0  0  0  0  0  0  0  0  0
   -0.7811    0.2574   -0.0304 C   0  0  1  0  0  0  0  0  0  0  0  0
   -2.2787    0.3402    0.4835 C   0  0  2  0  0  0  0  0  0  0  0  0
    1.5483    1.4306   -0.3126 C   0  0  2  0  0  0  0  0  0  0  0  0
    3.5360   -0.3133   -0.6417 C   0  0  2  0  0  0  0  0  0  0  0  0
    0.0823    1.5473    0.1796 C   0  0  2  0  0  0  0  0  0  0  0  0
    2.2403   -2.2974    0.0430 C   0  0  0  0  0  0  0  0  0  0  0  0
   -0.8561   -2.2861    0.0266 C   0  0  0  0  0  0  0  0  0  0  0  0
    3.6446   -1.8312   -0.3804 C   0  0  0  0  0  0  0  0  0  0  0  0
   -2.9927   -0.9800    0.1639 C   0  0  0  0  0  0  0  0  0  0  0  0
    2.5734    0.1937    1.6384 C   0  0  0  0  0  0  0  0  0  0  0  0
   -2.2745   -2.2421    0.5730 C   0  0  0  0  0  0  0  0  0  0  0  0
   -2.9777    1.5162   -0.2598 C   0  0  0  0  0  0  0  0  0  0  0  0
   -2.4081    0.5629    2.0066 C   0  0  0  0  0  0  0  0  0  0  0  0
    4.7671    0.4349   -0.2307 C   0  0  0  0  0  0  0  0  0  0  0  0
   -4.4952    1.4715   -0.1798 C   0  0  0  0  0  0  0  0  0  0  0  0
   -4.2047   -1.0627   -0.4100 C   0  0  0  0  0  0  0  0  0  0  0  0
   -5.0044    0.1510   -0.6941 C   0  0  0  0  0  0  0  0  0  0  0  0
    6.0645   -0.0020   -0.8556 C   0  0  0  0  0  0  0  0  0  0  0  0
    1.1729   -1.0945   -1.3227 H   0  0  0  0  0  0  0  0  0  0  0  0
    0.0539   -1.0461    1.5145 H   0  0  0  0  0  0  0  0  0  0  0  0
   -0.8639    0.1554   -1.1253 H   0  0  0  0  0  0  0  0  0  0  0  0
    2.1319    2.2869    0.0457 H   0  0  0  0  0  0  0  0  0  0  0  0
    3.4296   -0.1773   -1.7228 H   0  0  0  0  0  0  0  0  0  0  0  0
   -0.4042    2.3607   -0.3717 H   0  0  0  0  0  0  0  0  0  0  0  0
    1.9300   -3.1799   -0.5257 H   0  0  0  0  0  0  0  0  0  0  0  0
    2.2306   -2.5664    1.1053 H   0  0  0  0  0  0  0  0  0  0  0  0
   -0.3654   -3.1911    0.4039 H   0  0  0  0  0  0  0  0  0  0  0  0
   -0.8904   -2.3781   -1.0670 H   0  0  0  0  0  0  0  0  0  0  0  0
    4.3743   -2.0795    0.3985 H   0  0  0  0  0  0  0  0  0  0  0  0
    3.9606   -2.3486   -1.2937 H   0  0  0  0  0  0  0  0  0  0  0  0
    3.3252   -0.5338    1.9615 H   0  0  0  0  0  0  0  0  0  0  0  0
    2.9135    1.1889    1.9425 H   0  0  0  0  0  0  0  0  0  0  0  0
    1.6891    0.0050    2.2527 H   0  0  0  0  0  0  0  0  0  0  0  0
   -2.2496   -2.3026    1.6679 H   0  0  0  0  0  0  0  0  0  0  0  0
   -2.8113   -3.1352    0.2301 H   0  0  0  0  0  0  0  0  0  0  0  0
   -2.6958    1.4978   -1.3220 H   0  0  0  0  0  0  0  0  0  0  0  0
   -2.6349    2.4804    0.1345 H   0  0  0  0  0  0  0  0  0  0  0  0
   -1.7405   -0.0911    2.5765 H   0  0  0  0  0  0  0  0  0  0  0  0
   -2.1796    1.5953    2.2883 H   0  0  0  0  0  0  0  0  0  0  0  0
   -3.4276    0.3659    2.3600 H   0  0  0  0  0  0  0  0  0  0  0  0
   -4.9117    2.2715   -0.8019 H   0  0  0  0  0  0  0  0  0  0  0  0
   -4.8542    1.6138    0.8443 H   0  0  0  0  0  0  0  0  0  0  0  0
    0.5709    2.8420    1.5612 H   0  0  0  0  0  0  0  0  0  0  0  0
   -4.6720   -2.0169   -0.6292 H   0  0  0  0  0  0  0  0  0  0  0  0
    6.3790   -0.9613   -0.4392 H   0  0  0  0  0  0  0  0  0  0  0  0
    5.9464   -0.0804   -1.9393 H   0  0  0  0  0  0  0  0  0  0  0  0
    6.8372    0.7440   -0.6480 H   0  0  0  0  0  0  0  0  0  0  0  0
  1 10  1  0  0  0  0
  2 12  1  0  0  0  0
  2 50  1  0  0  0  0
  3 21  2  0  0  0  0
  4 24  2  0  0  0  0
  5  6  1  0  0  0  0
  5  7  1  0  0  0  0
  5 13  1  0  0  0  0
  5 26  1  0  0  0  0
  6 10  1  0  0  0  0
  6 11  1  0  0  0  0
  6 17  1  0  0  0  0
  7  8  1  0  0  0  0
  7 14  1  0  0  0  0
  7 27  1  0  0  0  0
  8  9  1  0  0  0  0
  8 12  1  0  0  0  0
  8 28  1  0  0  0  0
  9 16  1  0  0  0  0
  9 19  1  0  0  0  0
  9 20  1  0  0  0  0
 10 12  1  0  0  0  0
 10 29  1  0  0  0  0
 11 15  1  0  0  0  0
 11 21  1  0  0  0  0
 11 30  1  0  0  0  0
 12 31  1  0  0  0  0
 13 15  1  0  0  0  0
 13 32  1  0  0  0  0
 13 33  1  0  0  0  0
 14 18  1  0  0  0  0
 14 34  1  0  0  0  0
 14 35  1  0  0  0  0
 15 36  1  0  0  0  0
 15 37  1  0  0  0  0
 16 18  1  0  0  0  0
 16 23  2  0  0  0  0
 17 38  1  0  0  0  0
 17 39  1  0  0  0  0
 17 40  1  0  0  0  0
 18 41  1  0  0  0  0
 18 42  1  0  0  0  0
 19 22  1  0  0  0  0
 19 43  1  0  0  0  0
 19 44  1  0  0  0  0
 20 45  1  0  0  0  0
 20 46  1  0  0  0  0
 20 47  1  0  0  0  0
 21 25  1  0  0  0  0
 22 24  1  0  0  0  0
 22 48  1  0  0  0  0
 22 49  1  0  0  0  0
 23 24  1  0  0  0  0
 23 51  1  0  0  0  0
 25 52  1  0  0  0  0
 25 53  1  0  0  0  0
 25 54  1  0  0  0  0
M  END
> <PUBCHEM_COMPOUND_CID>
239806

> <PUBCHEM_CONFORMER_RMSD>
0.6

> <PUBCHEM_CONFORMER_DIVERSEORDER>
1
2

> <PUBCHEM_MMFF94_PARTIAL_CHARGES>
17
1 -0.23
10 0.23
11 0.06
12 0.28
16 -0.28
18 0.14
2 -0.68
21 0.45
22 0.06
23 -0.14
24 0.49
25 0.06
3 -0.57
4 -0.57
50 0.4
51 0.15
9 0.14

> <PUBCHEM_EFFECTIVE_ROTOR_COUNT>
2.8

> <PUBCHEM_PHARMACOPHORE_FEATURES>
9
1 1 hydrophobe
1 2 acceptor
1 2 donor
1 3 acceptor
1 4 acceptor
5 5 6 11 13 15 rings
6 5 6 7 8 10 12 rings
6 7 8 9 14 16 18 rings
6 9 16 19 22 23 24 rings

> <PUBCHEM_HEAVY_ATOM_COUNT>
25

> <PUBCHEM_ATOM_DEF_STEREO_COUNT>
8

> <PUBCHEM_ATOM_UDEF_STEREO_COUNT>
0

> <PUBCHEM_BOND_DEF_STEREO_COUNT>
0

> <PUBCHEM_BOND_UDEF_STEREO_COUNT>
0

> <PUBCHEM_ISOTOPIC_ATOM_COUNT>
0

> <PUBCHEM_COMPONENT_COUNT>
1

> <PUBCHEM_CACTVS_TAUTO_COUNT>
15

> <PUBCHEM_CONFORMER_ID>
0003A8BE00000001

> <PUBCHEM_MMFF94_ENERGY>
90.1167

> <PUBCHEM_FEATURE_SELFOVERLAP>
45.758

> <PUBCHEM_SHAPE_FINGERPRINT>
10366900 7 17821728342721358042
10498660 4 18410008853676416472
10863032 1 18261387879945775170
11315181 36 17967527961426195944
11370993 70 18411703162134340326
12011746 2 18334013886882265374
12166972 35 18411134706096350485
12236239 1 17894912958063906205
12788726 201 17896034523747757473
13140716 1 18123454004190720960
13224815 77 18259980496092459610
14787075 74 18260833691366986976
14790565 3 17614275998261762065
14931854 50 18408889572456667247
15196674 1 18410292548898342743
15238133 3 15913331333274931270
15375358 24 18413106160620298906
15788980 27 17131830963048155322
1601671 61 18273215296508340044
16945 1 18271230660391935514
17349148 13 18260266373779744801
18608769 82 18341327778792214571
18681886 176 18339362955470371880
18769570 83 16845299362088876380
19862831 5 18407759240106742227
200 152 17748829618351766951
20691752 17 17844797282246517858
21029758 11 18259987063345394729
21033648 29 18334303049687042448
21267235 1 18337660941050243923
21285901 2 18059018405224362303
21421861 104 17416700226975684282
221357 26 18261683640368821229
23402539 116 16877938356301132801
23559900 14 18262806155113785304
2871803 45 18408321107854986006
296302 2 17346878961609119859
3004659 81 18270964656505103666
335352 9 18411981365179473614
34797466 226 17313100822264456180
34934 24 18344148094361890482
350125 39 18269545062354892051
3545911 37 18411697681887991351
465052 167 16225767406757749796
474 4 17918270935222664807
484989 97 18267867169326121391
5104073 3 18412542145341104018
5283173 99 18339083803638815533
9709674 26 18410853226951461383
9981440 41 16835425464199071868

> <PUBCHEM_SHAPE_MULTIPOLES>
502.82
10.84
2.3
1.39
0.57
0.62
0.16
-1.03
-2.93
-0.03
-0.26
-0.02
-0.66
-0.02

> <PUBCHEM_SHAPE_SELFOVERLAP>
1061.665

> <PUBCHEM_SHAPE_VOLUME>
287.3

> <PUBCHEM_COORDINATE_TYPE>
2
5
10

$$$$

