4858
  -OEChem-06261200223D

 39 41  0     0  0  0  0  0  0999 V2000
    4.8027    2.0403    0.2239 O   0  0  0  0  0  0  0  0  0  0  0  0
   -3.9585    1.3622   -0.3690 O   0  0  0  0  0  0  0  0  0  0  0  0
    2.5177    2.0733    0.0748 N   0  0  0  0  0  0  0  0  0  0  0  0
   -2.4448   -0.4379   -0.3306 N   0  0  0  0  0  0  0  0  0  0  0  0
   -6.0197   -0.3980    0.1288 N   0  0  0  0  0  0  0  0  0  0  0  0
    1.2350    0.0091   -0.0748 C   0  0  0  0  0  0  0  0  0  0  0  0
    2.5016   -0.7492   -0.0156 C   0  0  0  0  0  0  0  0  0  0  0  0
    1.2818    1.4132   -0.0275 C   0  0  0  0  0  0  0  0  0  0  0  0
    3.7242   -0.0543    0.0871 C   0  0  0  0  0  0  0  0  0  0  0  0
   -0.0351   -0.5864   -0.1768 C   0  0  0  0  0  0  0  0  0  0  0  0
   -1.2005    0.1863   -0.2289 C   0  0  0  0  0  0  0  0  0  0  0  0
    0.1176    2.1906   -0.0795 C   0  0  0  0  0  0  0  0  0  0  0  0
    3.7397    1.4311    0.1353 C   0  0  0  0  0  0  0  0  0  0  0  0
   -1.1244    1.5736   -0.1803 C   0  0  0  0  0  0  0  0  0  0  0  0
    2.5641   -2.1547   -0.0565 C   0  0  0  0  0  0  0  0  0  0  0  0
    4.9493   -0.7364    0.1458 C   0  0  0  0  0  0  0  0  0  0  0  0
   -4.8040   -0.8937   -0.5005 C   0  0  0  0  0  0  0  0  0  0  0  0
    3.7848   -2.8347    0.0021 C   0  0  0  0  0  0  0  0  0  0  0  0
   -3.7151    0.1600   -0.3956 C   0  0  0  0  0  0  0  0  0  0  0  0
    4.9757   -2.1264    0.1031 C   0  0  0  0  0  0  0  0  0  0  0  0
   -5.7851   -0.0982    1.5433 C   0  0  0  0  0  0  0  0  0  0  0  0
   -7.1070   -1.3698   -0.0085 C   0  0  0  0  0  0  0  0  0  0  0  0
   -0.1398   -1.6677   -0.2176 H   0  0  0  0  0  0  0  0  0  0  0  0
    2.5104    3.0891    0.1062 H   0  0  0  0  0  0  0  0  0  0  0  0
    0.1725    3.2758   -0.0417 H   0  0  0  0  0  0  0  0  0  0  0  0
   -1.9766    2.2369   -0.2156 H   0  0  0  0  0  0  0  0  0  0  0  0
    1.6670   -2.7622   -0.1350 H   0  0  0  0  0  0  0  0  0  0  0  0
    5.8916   -0.2009    0.2249 H   0  0  0  0  0  0  0  0  0  0  0  0
   -2.4120   -1.4544   -0.3682 H   0  0  0  0  0  0  0  0  0  0  0  0
   -4.4770   -1.8363   -0.0444 H   0  0  0  0  0  0  0  0  0  0  0  0
   -4.9674   -1.0725   -1.5701 H   0  0  0  0  0  0  0  0  0  0  0  0
    3.8005   -3.9204   -0.0316 H   0  0  0  0  0  0  0  0  0  0  0  0
    5.9228   -2.6555    0.1485 H   0  0  0  0  0  0  0  0  0  0  0  0
   -5.0838    0.7263    1.6996 H   0  0  0  0  0  0  0  0  0  0  0  0
   -5.4169   -0.9730    2.0926 H   0  0  0  0  0  0  0  0  0  0  0  0
   -6.7196    0.2237    2.0187 H   0  0  0  0  0  0  0  0  0  0  0  0
   -8.0349   -0.9724    0.4176 H   0  0  0  0  0  0  0  0  0  0  0  0
   -6.8779   -2.3203    0.4870 H   0  0  0  0  0  0  0  0  0  0  0  0
   -7.3095   -1.5719   -1.0662 H   0  0  0  0  0  0  0  0  0  0  0  0
  1 13  2  0  0  0  0
  2 19  2  0  0  0  0
  3  8  1  0  0  0  0
  3 13  1  0  0  0  0
  3 24  1  0  0  0  0
  4 11  1  0  0  0  0
  4 19  1  0  0  0  0
  4 29  1  0  0  0  0
  5 17  1  0  0  0  0
  5 21  1  0  0  0  0
  5 22  1  0  0  0  0
  6  7  1  0  0  0  0
  6  8  2  0  0  0  0
  6 10  1  0  0  0  0
  7  9  1  0  0  0  0
  7 15  2  0  0  0  0
  8 12  1  0  0  0  0
  9 13  1  0  0  0  0
  9 16  2  0  0  0  0
 10 11  2  0  0  0  0
 10 23  1  0  0  0  0
 11 14  1  0  0  0  0
 12 14  2  0  0  0  0
 12 25  1  0  0  0  0
 14 26  1  0  0  0  0
 15 18  1  0  0  0  0
 15 27  1  0  0  0  0
 16 20  1  0  0  0  0
 16 28  1  0  0  0  0
 17 19  1  0  0  0  0
 17 30  1  0  0  0  0
 17 31  1  0  0  0  0
 18 20  2  0  0  0  0
 18 32  1  0  0  0  0
 20 33  1  0  0  0  0
 21 34  1  0  0  0  0
 21 35  1  0  0  0  0
 21 36  1  0  0  0  0
 22 37  1  0  0  0  0
 22 38  1  0  0  0  0
 22 39  1  0  0  0  0
M  END
> <PUBCHEM_COMPOUND_CID>
4858

> <PUBCHEM_CONFORMER_RMSD>
0.6

> <PUBCHEM_CONFORMER_DIVERSEORDER>
1
3
6
5
2
4
8
7

> <PUBCHEM_MMFF94_PARTIAL_CHARGES>
29
1 -0.57
10 -0.15
11 0.12
12 -0.15
13 0.54
14 -0.15
15 -0.15
16 -0.15
17 0.33
18 -0.15
19 0.57
2 -0.57
20 -0.15
21 0.27
22 0.27
23 0.15
24 0.37
25 0.15
26 0.15
27 0.15
28 0.15
29 0.37
3 -0.55
32 0.15
33 0.15
4 -0.55
5 -0.81
8 0.12
9 0.09

> <PUBCHEM_EFFECTIVE_ROTOR_COUNT>
4

> <PUBCHEM_PHARMACOPHORE_FEATURES>
8
1 1 acceptor
1 2 acceptor
1 3 donor
1 4 donor
1 5 cation
6 3 6 7 8 9 13 rings
6 6 8 10 11 12 14 rings
6 7 9 15 16 18 20 rings

> <PUBCHEM_HEAVY_ATOM_COUNT>
22

> <PUBCHEM_ATOM_DEF_STEREO_COUNT>
0

> <PUBCHEM_ATOM_UDEF_STEREO_COUNT>
0

> <PUBCHEM_BOND_DEF_STEREO_COUNT>
0

> <PUBCHEM_BOND_UDEF_STEREO_COUNT>
0

> <PUBCHEM_ISOTOPIC_ATOM_COUNT>
0

> <PUBCHEM_COMPONENT_COUNT>
1

> <PUBCHEM_CACTVS_TAUTO_COUNT>
4

> <PUBCHEM_CONFORMER_ID>
000012FA00000001

> <PUBCHEM_MMFF94_ENERGY>
72.5075

> <PUBCHEM_FEATURE_SELFOVERLAP>
40.641

> <PUBCHEM_SHAPE_FINGERPRINT>
10411042 1 18194120944502715150
10967382 1 18410297991465646268
11963148 33 18199192784629030954
12107183 9 17901377124215018305
12236239 1 17967529065364523347
12596602 18 17603864486223335003
12616971 3 17894920628427156447
12730499 353 18339920425077068208
13073987 5 18407759244417884737
13533116 47 18333449828684779137
13540713 4 18269010837095780476
13685833 64 18343017783945641075
13785724 45 17754724254364765190
13862211 1 18341052998909836859
13955234 65 18335427829208846448
14341114 176 18411696578582296325
146900 427 17895478033625453208
15196674 1 18410577313941399493
15250474 111 18041293062636702103
15475509 84 17749947889790765601
15483637 11 18052258397474470507
15537594 2 18260548887764131743
17492 89 18193560201671912606
17844677 252 18410852196422794677
19427546 62 18125440813650572096
200 152 18260834825248805088
20028762 73 18260831522541242039
20645477 70 18341617027247747790
21033650 10 16127814221973152813
21065198 48 18187640315377708249
21130935 74 18335137579788334955
21197605 99 18336825273875582815
21267235 1 18336261336421788838
21279426 13 18270124638137376397
21623969 137 18343015567383904859
21682296 61 18339355370626984763
21792934 111 18335714878900210769
221490 88 18340488975472775116
23522609 53 18121466224533782885
23559900 14 18339369651408717448
239999 70 17988924457618242994
3004659 81 18202566206798677006
314194 84 18334581222287589151
33824 294 18411985750092993674
3421961 26 18409733980117219714
345986 75 17968945317344279882
350125 39 18337111263263120556
4073 2 18129377116675277883
4214541 1 18338519746000251517
42630746 31 18408605834153464844
46194498 28 17489590021738839213
465052 167 18334011713618667134
5104073 3 18335425724068346569
542803 24 17095520678304813225
5758199 1 18188492346684787744
8863177 126 18130775721357185611
9709674 26 18342738515912012610

> <PUBCHEM_SHAPE_MULTIPOLES>
426.07
14.87
2.55
0.75
21.9
0.15
0.16
6.81
2.03
-3.38
-0.01
0.74
0.03
0.1

> <PUBCHEM_SHAPE_SELFOVERLAP>
927.265

> <PUBCHEM_SHAPE_VOLUME>
231.5

> <PUBCHEM_COORDINATE_TYPE>
2
5
10

$$$$

