98579
  -OEChem-07051212463D

 19 20  0     0  0  0  0  0  0999 V2000
    2.7623   -0.5856    0.0002 O   0  0  0  0  0  0  0  0  0  0  0  0
    0.3500    2.9027   -0.0010 O   0  0  0  0  0  0  0  0  0  0  0  0
   -3.7330    0.6930    0.0029 O   0  0  0  0  0  0  0  0  0  0  0  0
    2.9047    1.7105   -0.0022 O   0  0  0  0  0  0  0  0  0  0  0  0
    1.9846   -2.7536    0.0018 O   0  0  0  0  0  0  0  0  0  0  0  0
   -2.9508   -1.8214   -0.0048 O   0  0  0  0  0  0  0  0  0  0  0  0
    0.7737    0.5503    0.0000 C   0  0  0  0  0  0  0  0  0  0  0  0
    0.4972   -0.8420    0.0010 C   0  0  0  0  0  0  0  0  0  0  0  0
   -0.0765    1.5845   -0.0001 C   0  0  0  0  0  0  0  0  0  0  0  0
   -0.6458   -1.5252    0.0001 C   0  0  0  0  0  0  0  0  0  0  0  0
    2.2493    0.6847   -0.0009 C   0  0  0  0  0  0  0  0  0  0  0  0
    1.7925   -1.5513    0.0017 C   0  0  0  0  0  0  0  0  0  0  0  0
   -1.5194    1.5002    0.0020 C   0  0  0  0  0  0  0  0  0  0  0  0
   -2.0294   -1.0004   -0.0019 C   0  0  0  0  0  0  0  0  0  0  0  0
   -2.3594    0.4535    0.0012 C   0  0  0  0  0  0  0  0  0  0  0  0
   -0.6052   -2.6138    0.0003 H   0  0  0  0  0  0  0  0  0  0  0  0
   -2.0255    2.4677    0.0045 H   0  0  0  0  0  0  0  0  0  0  0  0
   -0.4040    3.5143   -0.0029 H   0  0  0  0  0  0  0  0  0  0  0  0
   -4.1893   -0.1658    0.0017 H   0  0  0  0  0  0  0  0  0  0  0  0
  1 11  1  0  0  0  0
  1 12  1  0  0  0  0
  2  9  1  0  0  0  0
  2 18  1  0  0  0  0
  3 15  1  0  0  0  0
  3 19  1  0  0  0  0
  4 11  2  0  0  0  0
  5 12  2  0  0  0  0
  6 14  2  0  0  0  0
  7  8  1  0  0  0  0
  7  9  2  0  0  0  0
  7 11  1  0  0  0  0
  8 10  2  0  0  0  0
  8 12  1  0  0  0  0
  9 13  1  0  0  0  0
 10 14  1  0  0  0  0
 10 16  1  0  0  0  0
 13 15  2  0  0  0  0
 13 17  1  0  0  0  0
 14 15  1  0  0  0  0
M  END
> <PUBCHEM_COMPOUND_CID>
98579

> <PUBCHEM_CONFORMER_RMSD>
0.4

> <PUBCHEM_CONFORMER_DIVERSEORDER>
1

> <PUBCHEM_MMFF94_PARTIAL_CHARGES>
19
1 -0.3
10 -0.14
11 0.71
12 0.71
13 -0.15
14 0.54
15 0.09
16 0.15
17 0.15
18 0.45
19 0.45
2 -0.53
3 -0.53
4 -0.57
5 -0.57
6 -0.57
7 0.01
8 0.01
9 0.08

> <PUBCHEM_EFFECTIVE_ROTOR_COUNT>
0.2

> <PUBCHEM_PHARMACOPHORE_FEATURES>
7
1 2 donor
1 3 donor
1 4 acceptor
1 5 acceptor
1 6 acceptor
5 1 7 8 11 12 rings
7 7 8 9 10 13 14 15 rings

> <PUBCHEM_HEAVY_ATOM_COUNT>
15

> <PUBCHEM_ATOM_DEF_STEREO_COUNT>
0

> <PUBCHEM_ATOM_UDEF_STEREO_COUNT>
0

> <PUBCHEM_BOND_DEF_STEREO_COUNT>
0

> <PUBCHEM_BOND_UDEF_STEREO_COUNT>
0

> <PUBCHEM_ISOTOPIC_ATOM_COUNT>
0

> <PUBCHEM_COMPONENT_COUNT>
1

> <PUBCHEM_CACTVS_TAUTO_COUNT>
14

> <PUBCHEM_CONFORMER_ID>
0001811300000001

> <PUBCHEM_MMFF94_ENERGY>
45.6316

> <PUBCHEM_FEATURE_SELFOVERLAP>
35.549

> <PUBCHEM_SHAPE_FINGERPRINT>
10967382 1 18410575119059740551
11132069 177 18410581656195429928
11471102 20 18338803308283380919
12382932 28 18409733958310087033
12524768 44 18336823203499996103
13140716 1 18339080492192384115
13897977 150 18410578366282090557
15442244 35 18193275419200696715
16945 1 18194683893643200998
17990270 104 18411983524835795195
193761 8 18194682790021313188
20201158 50 18411984684445335987
21501502 16 18410577283792076363
2334 1 18410856538233810691
23463225 33 18411419556885427851
23552423 10 18342454854723186190
23559900 14 18118404184468051910
2748010 2 18410293622581878271
2897 32 18267302028063010237
528886 8 18409735044899850585
53812653 166 18334578988482706129
7364860 26 18334858363721373774
7832392 63 18408322194355007385
8809292 202 18271519887848393362

> <PUBCHEM_SHAPE_MULTIPOLES>
273.48
4.5
2.73
0.58
1.55
0.14
0
-0.43
0
-0.76
0
0.01
0
0

> <PUBCHEM_SHAPE_SELFOVERLAP>
604.211

> <PUBCHEM_SHAPE_VOLUME>
145.4

> <PUBCHEM_COORDINATE_TYPE>
2
5
10

$$$$

