97250
  -OEChem-07051212512D

 19 20  0     0  0  0  0  0  0999 V2000
    5.4804   -1.3765    0.0000 O   0  0  0  0  0  0  0  0  0  0  0  0
    2.0000   -0.3419    0.0000 O   0  0  0  0  0  0  0  0  0  0  0  0
    3.7320   -0.3419    0.0000 N   0  0  0  0  0  0  0  0  0  0  0  0
    4.5981    0.1581    0.0000 C   0  0  0  0  0  0  0  0  0  0  0  0
    4.5981    1.1581    0.0000 C   0  0  0  0  0  0  0  0  0  0  0  0
    5.4920   -0.3766    0.0000 C   0  0  0  0  0  0  0  0  0  0  0  0
    5.4920    1.6927    0.0000 C   0  0  0  0  0  0  0  0  0  0  0  0
    3.7320    1.6581    0.0000 C   0  0  0  0  0  0  0  0  0  0  0  0
    6.3981    0.1372    0.0000 C   0  0  0  0  0  0  0  0  0  0  0  0
    6.3981    1.1789    0.0000 C   0  0  0  0  0  0  0  0  0  0  0  0
    2.8660    0.1581    0.0000 C   0  0  0  0  0  0  0  0  0  0  0  0
    2.8660    1.1581    0.0000 C   0  0  0  0  0  0  0  0  0  0  0  0
    3.7320   -0.9619    0.0000 H   0  0  0  0  0  0  0  0  0  0  0  0
    5.4848    2.3127    0.0000 H   0  0  0  0  0  0  0  0  0  0  0  0
    3.7320    2.2781    0.0000 H   0  0  0  0  0  0  0  0  0  0  0  0
    6.9338   -0.1748    0.0000 H   0  0  0  0  0  0  0  0  0  0  0  0
    6.9338    1.4909    0.0000 H   0  0  0  0  0  0  0  0  0  0  0  0
    2.3291    1.4681    0.0000 H   0  0  0  0  0  0  0  0  0  0  0  0
    6.0138   -1.6927    0.0000 H   0  0  0  0  0  0  0  0  0  0  0  0
  1  6  1  0  0  0  0
  1 19  1  0  0  0  0
  2 11  2  0  0  0  0
  3  4  1  0  0  0  0
  3 11  1  0  0  0  0
  3 13  1  0  0  0  0
  4  5  2  0  0  0  0
  4  6  1  0  0  0  0
  5  7  1  0  0  0  0
  5  8  1  0  0  0  0
  6  9  2  0  0  0  0
  7 10  2  0  0  0  0
  7 14  1  0  0  0  0
  8 12  2  0  0  0  0
  8 15  1  0  0  0  0
  9 10  1  0  0  0  0
  9 16  1  0  0  0  0
 10 17  1  0  0  0  0
 11 12  1  0  0  0  0
 12 18  1  0  0  0  0
M  END
> <PUBCHEM_COMPOUND_CID>
97250

> <PUBCHEM_COMPOUND_CANONICALIZED>
1

> <PUBCHEM_CACTVS_COMPLEXITY>
225

> <PUBCHEM_CACTVS_HBOND_ACCEPTOR>
2

> <PUBCHEM_CACTVS_HBOND_DONOR>
2

> <PUBCHEM_CACTVS_ROTATABLE_BOND>
0

> <PUBCHEM_CACTVS_SUBSKEYS>
AAADcYByMAAAAAAAAAAAAAAAAAAAAAAAAAAwQAAAAAAAAACBAAAAHgAQCAAADAyBmAAwxoLAAgCIAiVSUACCAAAhIAAIiAAHTMgKJiLSkZOEcAhk1BHY2YeQwBAOAAABAAACEAAAAAIAAAQgAAAAAAAAAA==

> <PUBCHEM_IUPAC_OPENEYE_NAME>
8-hydroxy-1H-quinolin-2-one

> <PUBCHEM_IUPAC_CAS_NAME>
8-hydroxy-1H-quinolin-2-one

> <PUBCHEM_IUPAC_NAME>
8-hydroxy-1H-quinolin-2-one

> <PUBCHEM_IUPAC_SYSTEMATIC_NAME>
8-oxidanyl-1H-quinolin-2-one

> <PUBCHEM_IUPAC_TRADITIONAL_NAME>
8-hydroxycarbostyril

> <PUBCHEM_IUPAC_INCHI>
InChI=1S/C9H7NO2/c11-7-3-1-2-6-4-5-8(12)10-9(6)7/h1-5,11H,(H,10,12)

> <PUBCHEM_IUPAC_INCHIKEY>
ZXZKYYHTWHJHFT-UHFFFAOYSA-N

> <PUBCHEM_XLOGP3_AA>
1

> <PUBCHEM_EXACT_MASS>
161.047678

> <PUBCHEM_MOLECULAR_FORMULA>
C9H7NO2

> <PUBCHEM_MOLECULAR_WEIGHT>
161.15738

> <PUBCHEM_OPENEYE_CAN_SMILES>
C1=CC2=C(C(=C1)O)NC(=O)C=C2

> <PUBCHEM_OPENEYE_ISO_SMILES>
C1=CC2=C(C(=C1)O)NC(=O)C=C2

> <PUBCHEM_CACTVS_TPSA>
49.3

> <PUBCHEM_MONOISOTOPIC_WEIGHT>
161.047678

> <PUBCHEM_TOTAL_CHARGE>
0

> <PUBCHEM_HEAVY_ATOM_COUNT>
12

> <PUBCHEM_ATOM_DEF_STEREO_COUNT>
0

> <PUBCHEM_ATOM_UDEF_STEREO_COUNT>
0

> <PUBCHEM_BOND_DEF_STEREO_COUNT>
0

> <PUBCHEM_BOND_UDEF_STEREO_COUNT>
0

> <PUBCHEM_ISOTOPIC_ATOM_COUNT>
0

> <PUBCHEM_COMPONENT_COUNT>
1

> <PUBCHEM_CACTVS_TAUTO_COUNT>
6

> <PUBCHEM_COORDINATE_TYPE>
1
5
255

> <PUBCHEM_BONDANNOTATIONS>
11  12  8
3  11  8
3  4  8
4  5  8
4  6  8
5  7  8
5  8  8
6  9  8
7  10  8
8  12  8
9  10  8

$$$$

