23757122
  -OEChem-07051213123D

 38 39  0     0  0  0  0  0  0999 V2000
   -0.8009    1.9794   -0.3512 O   0  0  0  0  0  0  0  0  0  0  0  0
   -0.3151   -1.1982   -2.2436 O   0  0  0  0  0  0  0  0  0  0  0  0
    0.3958   -1.9066    1.3620 O   0  0  0  0  0  0  0  0  0  0  0  0
    1.7465    0.9227   -2.2720 O   0  0  0  0  0  0  0  0  0  0  0  0
    4.7434    0.0400    1.3243 O   0  0  0  0  0  0  0  0  0  0  0  0
   -5.0758    0.8157    1.3979 O   0  0  0  0  0  0  0  0  0  0  0  0
   -1.5375   -0.3025   -0.4620 C   0  0  0  0  0  0  0  0  0  0  0  0
   -2.5184   -1.2583   -0.1972 C   0  0  0  0  0  0  0  0  0  0  0  0
    1.0391   -0.4964   -0.4704 C   0  0  0  0  0  0  0  0  0  0  0  0
   -0.2920   -0.6896   -1.1154 C   0  0  0  0  0  0  0  0  0  0  0  0
   -1.7457    1.0289   -0.1020 C   0  0  0  0  0  0  0  0  0  0  0  0
   -3.7074   -0.8825    0.4279 C   0  0  0  0  0  0  0  0  0  0  0  0
    1.3216   -1.1184    0.7458 C   0  0  0  0  0  0  0  0  0  0  0  0
    2.0014    0.3058   -1.0834 C   0  0  0  0  0  0  0  0  0  0  0  0
   -2.9347    1.4046    0.5230 C   0  0  0  0  0  0  0  0  0  0  0  0
   -3.9156    0.4489    0.7881 C   0  0  0  0  0  0  0  0  0  0  0  0
   -2.3239   -2.6917   -0.5718 C   0  0  0  0  0  0  0  0  0  0  0  0
    2.5664   -0.9381    1.3488 C   0  0  0  0  0  0  0  0  0  0  0  0
    3.2461    0.4862   -0.4804 C   0  0  0  0  0  0  0  0  0  0  0  0
    3.5287   -0.1358    0.7358 C   0  0  0  0  0  0  0  0  0  0  0  0
   -1.1025    3.3132    0.0527 C   0  0  0  0  0  0  0  0  0  0  0  0
    5.6804    0.8729    0.6431 C   0  0  0  0  0  0  0  0  0  0  0  0
   -4.4751   -1.6244    0.6345 H   0  0  0  0  0  0  0  0  0  0  0  0
   -3.1619    2.4201    0.8294 H   0  0  0  0  0  0  0  0  0  0  0  0
   -2.4400   -2.8194   -1.6529 H   0  0  0  0  0  0  0  0  0  0  0  0
   -1.3407   -3.0621   -0.2684 H   0  0  0  0  0  0  0  0  0  0  0  0
   -3.0621   -3.3369   -0.0821 H   0  0  0  0  0  0  0  0  0  0  0  0
    2.7947   -1.4192    2.2968 H   0  0  0  0  0  0  0  0  0  0  0  0
    3.9523    1.1212   -1.0054 H   0  0  0  0  0  0  0  0  0  0  0  0
    0.7704   -2.2488    2.1916 H   0  0  0  0  0  0  0  0  0  0  0  0
    0.8434    0.7278   -2.5697 H   0  0  0  0  0  0  0  0  0  0  0  0
   -0.2428    3.9334   -0.2223 H   0  0  0  0  0  0  0  0  0  0  0  0
   -1.2135    3.3917    1.1396 H   0  0  0  0  0  0  0  0  0  0  0  0
   -1.9669    3.7142   -0.4875 H   0  0  0  0  0  0  0  0  0  0  0  0
   -5.6391    0.0298    1.5034 H   0  0  0  0  0  0  0  0  0  0  0  0
    6.5899    0.9011    1.2521 H   0  0  0  0  0  0  0  0  0  0  0  0
    5.3184    1.9035    0.5620 H   0  0  0  0  0  0  0  0  0  0  0  0
    5.9601    0.4528   -0.3290 H   0  0  0  0  0  0  0  0  0  0  0  0
  1 11  1  0  0  0  0
  1 21  1  0  0  0  0
  2 10  2  0  0  0  0
  3 13  1  0  0  0  0
  3 30  1  0  0  0  0
  4 14  1  0  0  0  0
  4 31  1  0  0  0  0
  5 20  1  0  0  0  0
  5 22  1  0  0  0  0
  6 16  1  0  0  0  0
  6 35  1  0  0  0  0
  7  8  1  0  0  0  0
  7 10  1  0  0  0  0
  7 11  2  0  0  0  0
  8 12  2  0  0  0  0
  8 17  1  0  0  0  0
  9 10  1  0  0  0  0
  9 13  2  0  0  0  0
  9 14  1  0  0  0  0
 11 15  1  0  0  0  0
 12 16  1  0  0  0  0
 12 23  1  0  0  0  0
 13 18  1  0  0  0  0
 14 19  2  0  0  0  0
 15 16  2  0  0  0  0
 15 24  1  0  0  0  0
 17 25  1  0  0  0  0
 17 26  1  0  0  0  0
 17 27  1  0  0  0  0
 18 20  2  0  0  0  0
 18 28  1  0  0  0  0
 19 20  1  0  0  0  0
 19 29  1  0  0  0  0
 21 32  1  0  0  0  0
 21 33  1  0  0  0  0
 21 34  1  0  0  0  0
 22 36  1  0  0  0  0
 22 37  1  0  0  0  0
 22 38  1  0  0  0  0
M  END
> <PUBCHEM_COMPOUND_CID>
23757122

> <PUBCHEM_CONFORMER_RMSD>
0.6

> <PUBCHEM_CONFORMER_DIVERSEORDER>
1
13
11
18
21
17
22
16
7
23
9
15
20
10
4
19
6
3
14
8
5
12
2

> <PUBCHEM_MMFF94_PARTIAL_CHARGES>
29
1 -0.36
10 0.4
11 0.08
12 -0.15
13 0.08
14 0.08
15 -0.15
16 0.08
17 0.14
18 -0.15
19 -0.15
2 -0.57
20 0.08
21 0.28
22 0.28
23 0.15
24 0.15
28 0.15
29 0.15
3 -0.53
30 0.45
31 0.45
35 0.45
4 -0.53
5 -0.36
6 -0.53
7 0.09
8 -0.14
9 0.09

> <PUBCHEM_EFFECTIVE_ROTOR_COUNT>
4

> <PUBCHEM_PHARMACOPHORE_FEATURES>
8
1 1 acceptor
1 2 acceptor
1 3 donor
1 4 donor
1 5 acceptor
1 6 donor
6 7 8 11 12 15 16 rings
6 9 13 14 18 19 20 rings

> <PUBCHEM_HEAVY_ATOM_COUNT>
22

> <PUBCHEM_ATOM_DEF_STEREO_COUNT>
0

> <PUBCHEM_ATOM_UDEF_STEREO_COUNT>
0

> <PUBCHEM_BOND_DEF_STEREO_COUNT>
0

> <PUBCHEM_BOND_UDEF_STEREO_COUNT>
0

> <PUBCHEM_ISOTOPIC_ATOM_COUNT>
0

> <PUBCHEM_COMPONENT_COUNT>
1

> <PUBCHEM_CACTVS_TAUTO_COUNT>
78

> <PUBCHEM_CONFORMER_ID>
016A814200000001

> <PUBCHEM_MMFF94_ENERGY>
90.8925

> <PUBCHEM_FEATURE_SELFOVERLAP>
40.594

> <PUBCHEM_SHAPE_FINGERPRINT>
10165383 225 17022617576503809019
11132069 177 18260821614267038797
12236239 1 18201723929099030958
12507560 40 18266462186137120756
13140716 1 18337388215217347025
13965767 371 17621301872745842465
14341114 328 18342730797782084688
14787075 74 18200033932835940064
15209289 33 18273220776992208714
15209294 21 18413395332394610474
15375462 189 18131060511937183393
15375462 478 18343868835334902228
16945 1 18409165541000396077
1813 80 17203041989247300646
19784866 170 18333728035191468131
200 152 17845951644559064487
20600515 1 18260819372278565461
20715895 44 17770225178574279813
22112679 90 18338797806256201679
23402539 116 18262809470896979566
23419403 2 16885599655140686357
23557571 272 17894906278867735926
23559900 14 18116128121371113023
26918003 58 17131832066844311625
34934 24 18411706508430698617
392239 28 18201431420383018752
7097593 13 17985552401068218666
7471813 234 17829907433679836087
90316 7 18412543240953532445

> <PUBCHEM_SHAPE_MULTIPOLES>
417.53
8.58
2.33
1.54
5.33
0.9
-0.5
1.72
4.21
-1.92
-0.08
0.59
-0.25
-0.83

> <PUBCHEM_SHAPE_SELFOVERLAP>
905.73

> <PUBCHEM_SHAPE_VOLUME>
230

> <PUBCHEM_COORDINATE_TYPE>
2
5
10

$$$$

