123861
  -OEChem-07051213043D

 43 45  0     1  0  0  0  0  0999 V2000
   -3.2926   -1.2614   -2.6124 F   0  0  0  0  0  0  0  0  0  0  0  0
   -3.6337   -2.8311   -1.1465 F   0  0  0  0  0  0  0  0  0  0  0  0
    3.6399   -2.3862    0.0569 O   0  0  0  0  0  0  0  0  0  0  0  0
   -0.9553    2.5224    0.2444 O   0  0  0  0  0  0  0  0  0  0  0  0
   -1.8076   -1.5069   -0.9503 O   0  0  0  0  0  0  0  0  0  0  0  0
    1.5063   -3.1787   -0.3110 O   0  0  0  0  0  0  0  0  0  0  0  0
   -0.6871    2.4255   -2.0530 O   0  0  0  0  0  0  0  0  0  0  0  0
    3.1830    1.1863   -0.1095 N   0  0  0  0  0  0  0  0  0  0  0  0
    0.6614   -0.1478   -0.4822 C   0  0  2  0  0  0  0  0  0  0  0  0
    1.9734   -0.8383   -0.2465 C   0  0  0  0  0  0  0  0  0  0  0  0
    0.8552    1.3841   -0.5852 C   0  0  0  0  0  0  0  0  0  0  0  0
    3.1143   -0.1766   -0.0694 C   0  0  0  0  0  0  0  0  0  0  0  0
   -0.3030   -0.4885    0.6132 C   0  0  0  0  0  0  0  0  0  0  0  0
    2.0677    1.9711   -0.3932 C   0  0  0  0  0  0  0  0  0  0  0  0
    4.2478   -1.0846    0.1423 C   0  0  0  0  0  0  0  0  0  0  0  0
    2.2956   -2.2602   -0.1786 C   0  0  0  0  0  0  0  0  0  0  0  0
   -1.4925   -1.1524    0.3271 C   0  0  0  0  0  0  0  0  0  0  0  0
   -0.3467    2.1689   -0.9131 C   0  0  0  0  0  0  0  0  0  0  0  0
    2.3468    3.4466   -0.4973 C   0  0  0  0  0  0  0  0  0  0  0  0
    0.0073   -0.1317    1.9225 C   0  0  0  0  0  0  0  0  0  0  0  0
   -2.3790   -1.4620    1.3585 C   0  0  0  0  0  0  0  0  0  0  0  0
   -0.8793   -0.4413    2.9539 C   0  0  0  0  0  0  0  0  0  0  0  0
   -2.0724   -1.1064    2.6720 C   0  0  0  0  0  0  0  0  0  0  0  0
   -2.1497    3.2960    0.0900 C   0  0  0  0  0  0  0  0  0  0  0  0
   -3.1870   -1.5594   -1.2916 C   0  0  0  0  0  0  0  0  0  0  0  0
   -2.7124    3.6129    1.4592 C   0  0  0  0  0  0  0  0  0  0  0  0
    0.2961   -0.4830   -1.4614 H   0  0  0  0  0  0  0  0  0  0  0  0
    4.0807    1.6374    0.0148 H   0  0  0  0  0  0  0  0  0  0  0  0
    5.0102   -0.9974   -0.6369 H   0  0  0  0  0  0  0  0  0  0  0  0
    4.7024   -0.9688    1.1302 H   0  0  0  0  0  0  0  0  0  0  0  0
    2.7387    3.8235    0.4535 H   0  0  0  0  0  0  0  0  0  0  0  0
    1.4568    4.0332   -0.7418 H   0  0  0  0  0  0  0  0  0  0  0  0
    3.0916    3.6368   -1.2775 H   0  0  0  0  0  0  0  0  0  0  0  0
    0.9285    0.3880    2.1709 H   0  0  0  0  0  0  0  0  0  0  0  0
   -3.3046   -2.0036    1.1885 H   0  0  0  0  0  0  0  0  0  0  0  0
   -0.6404   -0.1652    3.9768 H   0  0  0  0  0  0  0  0  0  0  0  0
   -2.7594   -1.3527    3.4765 H   0  0  0  0  0  0  0  0  0  0  0  0
   -1.9165    4.2266   -0.4394 H   0  0  0  0  0  0  0  0  0  0  0  0
   -2.8833    2.7224   -0.4877 H   0  0  0  0  0  0  0  0  0  0  0  0
   -3.8221   -0.8568   -0.7405 H   0  0  0  0  0  0  0  0  0  0  0  0
   -3.6287    4.2040    1.3786 H   0  0  0  0  0  0  0  0  0  0  0  0
   -2.9329    2.6907    2.0071 H   0  0  0  0  0  0  0  0  0  0  0  0
   -1.9827    4.1700    2.0560 H   0  0  0  0  0  0  0  0  0  0  0  0
  1 25  1  0  0  0  0
  2 25  1  0  0  0  0
  3 15  1  0  0  0  0
  3 16  1  0  0  0  0
  4 18  1  0  0  0  0
  4 24  1  0  0  0  0
  5 17  1  0  0  0  0
  5 25  1  0  0  0  0
  6 16  2  0  0  0  0
  7 18  2  0  0  0  0
  8 12  1  0  0  0  0
  8 14  1  0  0  0  0
  8 28  1  0  0  0  0
  9 10  1  0  0  0  0
  9 11  1  0  0  0  0
  9 13  1  0  0  0  0
  9 27  1  0  0  0  0
 10 12  2  0  0  0  0
 10 16  1  0  0  0  0
 11 14  2  0  0  0  0
 11 18  1  0  0  0  0
 12 15  1  0  0  0  0
 13 17  1  0  0  0  0
 13 20  2  0  0  0  0
 14 19  1  0  0  0  0
 15 29  1  0  0  0  0
 15 30  1  0  0  0  0
 17 21  2  0  0  0  0
 19 31  1  0  0  0  0
 19 32  1  0  0  0  0
 19 33  1  0  0  0  0
 20 22  1  0  0  0  0
 20 34  1  0  0  0  0
 21 23  1  0  0  0  0
 21 35  1  0  0  0  0
 22 23  2  0  0  0  0
 22 36  1  0  0  0  0
 23 37  1  0  0  0  0
 24 26  1  0  0  0  0
 24 38  1  0  0  0  0
 24 39  1  0  0  0  0
 25 40  1  0  0  0  0
 26 41  1  0  0  0  0
 26 42  1  0  0  0  0
 26 43  1  0  0  0  0
M  END
> <PUBCHEM_COMPOUND_CID>
123861

> <PUBCHEM_CONFORMER_RMSD>
0.8

> <PUBCHEM_CONFORMER_DIVERSEORDER>
1
17
27
35
50
26
42
14
12
44
5
11
49
22
51
48
24
13
40
46
21
15
32
53
20
30
8
47
36
43
25
33
41
34
4
18
2
52
10
9
37
23
7
31
38
28
3
19
16
6
39
45
29

> <PUBCHEM_MMFF94_PARTIAL_CHARGES>
30
1 -0.34
10 -0.12
11 -0.12
12 -0.04
13 -0.14
14 -0.04
15 0.42
16 0.71
17 0.08
18 0.71
19 0.14
2 -0.34
20 -0.15
21 -0.15
22 -0.15
23 -0.15
24 0.28
25 0.96
28 0.4
3 -0.43
34 0.15
35 0.15
36 0.15
37 0.15
4 -0.43
5 -0.36
6 -0.57
7 -0.57
8 -0.6
9 0.42

> <PUBCHEM_EFFECTIVE_ROTOR_COUNT>
6.8

> <PUBCHEM_PHARMACOPHORE_FEATURES>
8
1 5 acceptor
1 6 acceptor
1 7 acceptor
1 8 cation
1 8 donor
5 3 10 12 15 16 rings
6 13 17 20 21 22 23 rings
6 8 9 10 11 12 14 rings

> <PUBCHEM_HEAVY_ATOM_COUNT>
26

> <PUBCHEM_ATOM_DEF_STEREO_COUNT>
0

> <PUBCHEM_ATOM_UDEF_STEREO_COUNT>
1

> <PUBCHEM_BOND_DEF_STEREO_COUNT>
0

> <PUBCHEM_BOND_UDEF_STEREO_COUNT>
0

> <PUBCHEM_ISOTOPIC_ATOM_COUNT>
0

> <PUBCHEM_COMPONENT_COUNT>
1

> <PUBCHEM_CACTVS_TAUTO_COUNT>
4

> <PUBCHEM_CONFORMER_ID>
0001E3D500000001

> <PUBCHEM_MMFF94_ENERGY>
62.8241

> <PUBCHEM_FEATURE_SELFOVERLAP>
40.671

> <PUBCHEM_SHAPE_FINGERPRINT>
10076449 9 17331356237164352406
11578080 2 17749689435896380912
11640471 11 17536274143040158961
12035758 1 17838596101117030920
12422481 6 17831823054056224441
12553582 1 18340189831280501822
12715332 25 17762060243368592362
13140716 1 17692801602788409152
13911987 19 17550654527050981972
13965767 371 17395236569826109545
14251757 17 17702963430484984855
16945 1 18267292145854770160
17357779 13 18343861104757766302
19777482 4 18408879625127767105
19930381 70 17979362949847493471
21197605 99 18194941137269477497
23419403 2 17261378682802748848
23526113 38 17701834180324283627
23558518 356 18202285809727369668
238 59 17335632907809676311
2748010 2 17986103016223653836
3380486 145 18192139624274766914
3383291 50 16759155099986412458
6438718 38 18266449000429312153
81228 2 18202569505128033404
9925002 15 16617907369505061651

> <PUBCHEM_SHAPE_MULTIPOLES>
486.19
5.71
4.38
2.11
2.46
3
0.59
-2.04
-0.63
-1.53
-0.76
-2.68
-0.82
-1.21

> <PUBCHEM_SHAPE_SELFOVERLAP>
1055.016

> <PUBCHEM_SHAPE_VOLUME>
268.3

> <PUBCHEM_COORDINATE_TYPE>
2
5
10

$$$$

