441866
  -OEChem-07051212563D

 84 89  0     1  0  0  0  0  0999 V2000
   -3.5316    2.7160   -1.5984 O   0  0  0  0  0  0  0  0  0  0  0  0
   -3.5063    1.9721    2.0351 O   0  0  0  0  0  0  0  0  0  0  0  0
   -2.0483   -0.8832    2.1750 O   0  0  0  0  0  0  0  0  0  0  0  0
    3.5311   -0.4296    0.6171 O   0  0  0  0  0  0  0  0  0  0  0  0
   -7.4081   -2.0995    0.9294 O   0  0  0  0  0  0  0  0  0  0  0  0
    5.1863   -1.9259   -0.0685 O   0  0  0  0  0  0  0  0  0  0  0  0
   -8.8444   -2.5114   -0.8207 O   0  0  0  0  0  0  0  0  0  0  0  0
    5.2032    1.7355   -0.1480 O   0  0  0  0  0  0  0  0  0  0  0  0
    8.0211    1.0893   -0.0619 O   0  0  0  0  0  0  0  0  0  0  0  0
    7.8455   -1.5167    0.8907 O   0  0  0  0  0  0  0  0  0  0  0  0
   -3.0662    1.4732   -1.0482 C   0  0  1  0  0  0  0  0  0  0  0  0
   -1.7072    1.7898   -0.3618 C   0  0  1  0  0  0  0  0  0  0  0  0
   -4.1435    0.8603   -0.0639 C   0  0  1  0  0  0  0  0  0  0  0  0
   -1.1560    0.6040    0.4796 C   0  0  1  0  0  0  0  0  0  0  0  0
    0.1994    0.9588    1.1993 C   0  0  2  0  0  0  0  0  0  0  0  0
    1.2262    1.4950    0.1435 C   0  0  2  0  0  0  0  0  0  0  0  0
   -4.4272   -0.5531   -0.6793 C   0  0  2  0  0  0  0  0  0  0  0  0
   -2.9476    0.4723   -2.2225 C   0  0  0  0  0  0  0  0  0  0  0  0
   -0.6610    2.3127   -1.3648 C   0  0  0  0  0  0  0  0  0  0  0  0
   -3.6155    0.7163    1.3832 C   0  0  1  0  0  0  0  0  0  0  0  0
    0.6598    2.6573   -0.6857 C   0  0  0  0  0  0  0  0  0  0  0  0
   -2.2440    0.0726    1.4223 C   0  0  0  0  0  0  0  0  0  0  0  0
   -4.2314   -0.3430   -2.1775 C   0  0  0  0  0  0  0  0  0  0  0  0
    0.8639   -0.2517    1.9216 C   0  0  0  0  0  0  0  0  0  0  0  0
    1.7492    0.3818   -0.7986 C   0  0  0  0  0  0  0  0  0  0  0  0
   -5.4372    1.7169   -0.0170 C   0  0  0  0  0  0  0  0  0  0  0  0
   -0.0342    2.0326    2.2937 C   0  0  0  0  0  0  0  0  0  0  0  0
    1.3456   -1.3543    0.9817 C   0  0  0  0  0  0  0  0  0  0  0  0
    2.3297   -0.8138   -0.0485 C   0  0  2  0  0  0  0  0  0  0  0  0
   -5.7391   -1.1843   -0.3426 C   0  0  0  0  0  0  0  0  0  0  0  0
   -6.1000   -1.5300    1.0473 C   0  0  0  0  0  0  0  0  0  0  0  0
   -6.7139   -1.5091   -1.1877 C   0  0  0  0  0  0  0  0  0  0  0  0
    4.6704   -0.6047   -0.2245 C   0  0  2  0  0  0  0  0  0  0  0  0
   -7.7858   -2.0958   -0.3820 C   0  0  0  0  0  0  0  0  0  0  0  0
    5.7137    0.4417    0.1736 C   0  0  1  0  0  0  0  0  0  0  0  0
    7.0228    0.2155   -0.5820 C   0  0  2  0  0  0  0  0  0  0  0  0
    6.3428   -2.1767   -0.8768 C   0  0  1  0  0  0  0  0  0  0  0  0
    7.4816   -1.2382   -0.4629 C   0  0  2  0  0  0  0  0  0  0  0  0
    6.7098   -3.6459   -0.7029 C   0  0  0  0  0  0  0  0  0  0  0  0
    9.2465    0.9532   -0.7662 C   0  0  0  0  0  0  0  0  0  0  0  0
   -1.9009    2.6374    0.3081 H   0  0  0  0  0  0  0  0  0  0  0  0
   -0.9726   -0.2268   -0.2114 H   0  0  0  0  0  0  0  0  0  0  0  0
    2.0971    1.8887    0.6861 H   0  0  0  0  0  0  0  0  0  0  0  0
   -3.6488   -1.2579   -0.3533 H   0  0  0  0  0  0  0  0  0  0  0  0
   -2.8334    0.9653   -3.1938 H   0  0  0  0  0  0  0  0  0  0  0  0
   -2.1015   -0.2102   -2.0913 H   0  0  0  0  0  0  0  0  0  0  0  0
   -1.0364    3.2138   -1.8646 H   0  0  0  0  0  0  0  0  0  0  0  0
   -0.4837    1.5780   -2.1571 H   0  0  0  0  0  0  0  0  0  0  0  0
   -4.2845    0.1106    1.9951 H   0  0  0  0  0  0  0  0  0  0  0  0
    0.5155    3.5338   -0.0429 H   0  0  0  0  0  0  0  0  0  0  0  0
    1.3876    2.9640   -1.4471 H   0  0  0  0  0  0  0  0  0  0  0  0
   -4.1225   -1.2847   -2.7261 H   0  0  0  0  0  0  0  0  0  0  0  0
   -5.0477    0.2292   -2.6341 H   0  0  0  0  0  0  0  0  0  0  0  0
    0.2034   -0.6832    2.6785 H   0  0  0  0  0  0  0  0  0  0  0  0
    1.7332    0.1096    2.4896 H   0  0  0  0  0  0  0  0  0  0  0  0
    2.5102    0.8171   -1.4572 H   0  0  0  0  0  0  0  0  0  0  0  0
    0.9460    0.0192   -1.4490 H   0  0  0  0  0  0  0  0  0  0  0  0
   -6.1504    1.3482    0.7261 H   0  0  0  0  0  0  0  0  0  0  0  0
   -5.2172    2.7549    0.2580 H   0  0  0  0  0  0  0  0  0  0  0  0
   -5.9517    1.7352   -0.9837 H   0  0  0  0  0  0  0  0  0  0  0  0
   -0.4925    2.9462    1.9081 H   0  0  0  0  0  0  0  0  0  0  0  0
    0.9130    2.3262    2.7613 H   0  0  0  0  0  0  0  0  0  0  0  0
   -0.6821    1.6513    3.0906 H   0  0  0  0  0  0  0  0  0  0  0  0
    1.8334   -2.1322    1.5817 H   0  0  0  0  0  0  0  0  0  0  0  0
    0.4915   -1.8225    0.4804 H   0  0  0  0  0  0  0  0  0  0  0  0
    2.5398   -1.6269   -0.7563 H   0  0  0  0  0  0  0  0  0  0  0  0
   -4.2621    2.5288   -2.2116 H   0  0  0  0  0  0  0  0  0  0  0  0
   -3.2849    1.8034    2.9670 H   0  0  0  0  0  0  0  0  0  0  0  0
   -6.1889   -0.6699    1.7109 H   0  0  0  0  0  0  0  0  0  0  0  0
   -5.4251   -2.2734    1.4813 H   0  0  0  0  0  0  0  0  0  0  0  0
   -6.7611   -1.3909   -2.2561 H   0  0  0  0  0  0  0  0  0  0  0  0
    4.3930   -0.4472   -1.2760 H   0  0  0  0  0  0  0  0  0  0  0  0
    5.8895    0.4328    1.2560 H   0  0  0  0  0  0  0  0  0  0  0  0
    6.8609    0.4734   -1.6379 H   0  0  0  0  0  0  0  0  0  0  0  0
    6.0791   -2.0076   -1.9288 H   0  0  0  0  0  0  0  0  0  0  0  0
    8.3593   -1.4421   -1.0836 H   0  0  0  0  0  0  0  0  0  0  0  0
    4.3774    1.8536    0.3512 H   0  0  0  0  0  0  0  0  0  0  0  0
    6.8800   -3.8971    0.3495 H   0  0  0  0  0  0  0  0  0  0  0  0
    7.6045   -3.9028   -1.2780 H   0  0  0  0  0  0  0  0  0  0  0  0
    5.8849   -4.2823   -1.0418 H   0  0  0  0  0  0  0  0  0  0  0  0
    7.0373   -1.5172    1.4306 H   0  0  0  0  0  0  0  0  0  0  0  0
    9.8040    0.0779   -0.4214 H   0  0  0  0  0  0  0  0  0  0  0  0
    9.0950    0.9187   -1.8500 H   0  0  0  0  0  0  0  0  0  0  0  0
    9.8579    1.8322   -0.5404 H   0  0  0  0  0  0  0  0  0  0  0  0
  1 11  1  0  0  0  0
  1 67  1  0  0  0  0
  2 20  1  0  0  0  0
  2 68  1  0  0  0  0
  3 22  2  0  0  0  0
  4 29  1  0  0  0  0
  4 33  1  0  0  0  0
  5 31  1  0  0  0  0
  5 34  1  0  0  0  0
  6 33  1  0  0  0  0
  6 37  1  0  0  0  0
  7 34  2  0  0  0  0
  8 35  1  0  0  0  0
  8 77  1  0  0  0  0
  9 36  1  0  0  0  0
  9 40  1  0  0  0  0
 10 38  1  0  0  0  0
 10 81  1  0  0  0  0
 11 12  1  0  0  0  0
 11 13  1  0  0  0  0
 11 18  1  0  0  0  0
 12 14  1  0  0  0  0
 12 19  1  0  0  0  0
 12 41  1  0  0  0  0
 13 17  1  0  0  0  0
 13 20  1  0  0  0  0
 13 26  1  0  0  0  0
 14 15  1  0  0  0  0
 14 22  1  0  0  0  0
 14 42  1  0  0  0  0
 15 16  1  0  0  0  0
 15 24  1  0  0  0  0
 15 27  1  0  0  0  0
 16 21  1  0  0  0  0
 16 25  1  0  0  0  0
 16 43  1  0  0  0  0
 17 23  1  0  0  0  0
 17 30  1  0  0  0  0
 17 44  1  0  0  0  0
 18 23  1  0  0  0  0
 18 45  1  0  0  0  0
 18 46  1  0  0  0  0
 19 21  1  0  0  0  0
 19 47  1  0  0  0  0
 19 48  1  0  0  0  0
 20 22  1  0  0  0  0
 20 49  1  0  0  0  0
 21 50  1  0  0  0  0
 21 51  1  0  0  0  0
 23 52  1  0  0  0  0
 23 53  1  0  0  0  0
 24 28  1  0  0  0  0
 24 54  1  0  0  0  0
 24 55  1  0  0  0  0
 25 29  1  0  0  0  0
 25 56  1  0  0  0  0
 25 57  1  0  0  0  0
 26 58  1  0  0  0  0
 26 59  1  0  0  0  0
 26 60  1  0  0  0  0
 27 61  1  0  0  0  0
 27 62  1  0  0  0  0
 27 63  1  0  0  0  0
 28 29  1  0  0  0  0
 28 64  1  0  0  0  0
 28 65  1  0  0  0  0
 29 66  1  0  0  0  0
 30 31  1  0  0  0  0
 30 32  2  0  0  0  0
 31 69  1  0  0  0  0
 31 70  1  0  0  0  0
 32 34  1  0  0  0  0
 32 71  1  0  0  0  0
 33 35  1  0  0  0  0
 33 72  1  0  0  0  0
 35 36  1  0  0  0  0
 35 73  1  0  0  0  0
 36 38  1  0  0  0  0
 36 74  1  0  0  0  0
 37 38  1  0  0  0  0
 37 39  1  0  0  0  0
 37 75  1  0  0  0  0
 38 76  1  0  0  0  0
 39 78  1  0  0  0  0
 39 79  1  0  0  0  0
 39 80  1  0  0  0  0
 40 82  1  0  0  0  0
 40 83  1  0  0  0  0
 40 84  1  0  0  0  0
M  END
> <PUBCHEM_COMPOUND_CID>
441866

> <PUBCHEM_CONFORMER_RMSD>
1

> <PUBCHEM_CONFORMER_DIVERSEORDER>
11
6
36
27
17
20
32
37
25
24
22
13
21
39
19
35
14
34
7
9
38
23
30
28
29
4
26
2
15
16
18
33
31
12
5
3
10
1
8

> <PUBCHEM_MMFF94_PARTIAL_CHARGES>
31
1 -0.68
10 -0.68
11 0.28
14 0.06
17 0.14
2 -0.68
20 0.34
22 0.45
29 0.28
3 -0.57
30 -0.28
31 0.42
32 -0.14
33 0.56
34 0.71
35 0.28
36 0.28
37 0.28
38 0.28
4 -0.56
40 0.28
5 -0.43
6 -0.56
67 0.4
68 0.4
7 -0.57
71 0.15
77 0.4
8 -0.68
81 0.4
9 -0.56

> <PUBCHEM_EFFECTIVE_ROTOR_COUNT>
7.6

> <PUBCHEM_PHARMACOPHORE_FEATURES>
19
1 1 acceptor
1 1 donor
1 10 acceptor
1 10 donor
1 2 acceptor
1 2 donor
1 3 acceptor
1 4 acceptor
1 6 acceptor
1 7 acceptor
1 8 acceptor
1 8 donor
1 9 acceptor
5 11 13 17 18 23 rings
5 5 30 31 32 34 rings
6 11 12 13 14 20 22 rings
6 12 14 15 16 19 21 rings
6 15 16 24 25 28 29 rings
6 6 33 35 36 37 38 rings

> <PUBCHEM_HEAVY_ATOM_COUNT>
40

> <PUBCHEM_ATOM_DEF_STEREO_COUNT>
14

> <PUBCHEM_ATOM_UDEF_STEREO_COUNT>
0

> <PUBCHEM_BOND_DEF_STEREO_COUNT>
0

> <PUBCHEM_BOND_UDEF_STEREO_COUNT>
0

> <PUBCHEM_ISOTOPIC_ATOM_COUNT>
0

> <PUBCHEM_COMPONENT_COUNT>
1

> <PUBCHEM_CACTVS_TAUTO_COUNT>
4

> <PUBCHEM_CONFORMER_ID>
0006BE0A0000000B

> <PUBCHEM_MMFF94_ENERGY>
136.7249

> <PUBCHEM_FEATURE_SELFOVERLAP>
96.748

> <PUBCHEM_SHAPE_FINGERPRINT>
10 15 6266902372064677323
10076449 9 18334011661936199243
10190108 129 15791725304810346590
12013929 27 18264485260495485238
12082328 90 18410294739378902919
12422481 6 6266890295106913920
13673619 4 18334017173001894513
13690498 29 18409457994441328389
13782708 43 18263364845182179258
13811026 1 18342176674012888822
14856354 85 16877949316978824277
14931854 50 17275111643389722027
150020 25 17917717868342393767
15082195 135 17416671472111901356
15183329 4 15626221334356350510
15320295 40 16558755603089375622
15324884 4 16126386824617060849
15439362 3 10375606909720932313
15444296 7 18271805654093318182
18335252 98 18408604756417607470
18603816 31 17822297826201641703
19958102 18 16845289497044999330
20105231 36 14923937947622336900
21057603 130 18335977576464363611
21130935 74 18188207732266110674
21403212 168 9439413427524362196
21792938 703 18127969712101792531
23522609 53 17823112650074705760
23559900 14 17846211143000777500
23569917 315 18189051058118002398
23569943 247 17907294709024346378
23576562 1 14979380756559427119
2838139 119 12895074024367673239
335507 130 18335143064492597110
3383291 50 18060415781582877699
3552219 110 16443342049476138784
397638 26 6916260736894712462
4461854 278 18114455665808089791
44880568 143 17560802173504005628
484989 97 16916213357524807363
5381727 24 9583519815871916973
54039377 194 18113616751531208471
563151 74 7204504324861776805
9896288 288 16951674978031021475
999808 66 18334856109027372695

> <PUBCHEM_SHAPE_MULTIPOLES>
764.49
24.76
2.97
1.81
24.64
0.76
-0.32
17.73
5.66
-0.26
0.48
-1.99
-0.46
0.09

> <PUBCHEM_SHAPE_SELFOVERLAP>
1646.422

> <PUBCHEM_SHAPE_VOLUME>
417.4

> <PUBCHEM_COORDINATE_TYPE>
2
5
10

$$$$

