13904
  -OEChem-07051213132D

 29 29  0     0  0  0  0  0  0999 V2000
    5.4641    1.5600    0.0000 S   0  0  0  0  0  0  0  0  0  0  0  0
    3.7320   -1.4400    0.0000 N   0  0  0  0  0  0  0  0  0  0  0  0
    5.4641   -1.4400    0.0000 N   0  0  0  0  0  0  0  0  0  0  0  0
    4.5981    0.0600    0.0000 N   0  0  0  0  0  0  0  0  0  0  0  0
    7.1962   -1.4400    0.0000 N   0  0  0  0  0  0  0  0  0  0  0  0
    6.3301    0.0600    0.0000 N   0  0  0  0  0  0  0  0  0  0  0  0
    2.8660   -0.9400    0.0000 C   0  0  0  0  0  0  0  0  0  0  0  0
    2.0000   -1.4400    0.0000 C   0  0  0  0  0  0  0  0  0  0  0  0
    2.8660    0.0600    0.0000 C   0  0  0  0  0  0  0  0  0  0  0  0
    4.5981   -0.9400    0.0000 C   0  0  0  0  0  0  0  0  0  0  0  0
    6.3301   -0.9400    0.0000 C   0  0  0  0  0  0  0  0  0  0  0  0
    5.4641    0.5600    0.0000 C   0  0  0  0  0  0  0  0  0  0  0  0
    8.0622   -0.9400    0.0000 C   0  0  0  0  0  0  0  0  0  0  0  0
    6.3301    2.0600    0.0000 C   0  0  0  0  0  0  0  0  0  0  0  0
    3.4030   -0.6300    0.0000 H   0  0  0  0  0  0  0  0  0  0  0  0
    3.7320   -2.0600    0.0000 H   0  0  0  0  0  0  0  0  0  0  0  0
    1.6900   -0.9031    0.0000 H   0  0  0  0  0  0  0  0  0  0  0  0
    1.4631   -1.7500    0.0000 H   0  0  0  0  0  0  0  0  0  0  0  0
    3.4860    0.0600    0.0000 H   0  0  0  0  0  0  0  0  0  0  0  0
    2.8660    0.6800    0.0000 H   0  0  0  0  0  0  0  0  0  0  0  0
    2.2460    0.0600    0.0000 H   0  0  0  0  0  0  0  0  0  0  0  0
    2.3100   -1.9769    0.0000 H   0  0  0  0  0  0  0  0  0  0  0  0
    7.1962   -2.0600    0.0000 H   0  0  0  0  0  0  0  0  0  0  0  0
    8.3722   -1.4769    0.0000 H   0  0  0  0  0  0  0  0  0  0  0  0
    8.5991   -0.6300    0.0000 H   0  0  0  0  0  0  0  0  0  0  0  0
    7.7522   -0.4031    0.0000 H   0  0  0  0  0  0  0  0  0  0  0  0
    6.6401    1.5231    0.0000 H   0  0  0  0  0  0  0  0  0  0  0  0
    6.8671    2.3700    0.0000 H   0  0  0  0  0  0  0  0  0  0  0  0
    6.0201    2.5969    0.0000 H   0  0  0  0  0  0  0  0  0  0  0  0
  1 12  1  0  0  0  0
  1 14  1  0  0  0  0
  2  7  1  0  0  0  0
  2 10  1  0  0  0  0
  2 16  1  0  0  0  0
  3 10  1  0  0  0  0
  3 11  2  0  0  0  0
  4 10  2  0  0  0  0
  4 12  1  0  0  0  0
  5 11  1  0  0  0  0
  5 13  1  0  0  0  0
  5 23  1  0  0  0  0
  6 11  1  0  0  0  0
  6 12  2  0  0  0  0
  7  8  1  0  0  0  0
  7  9  1  0  0  0  0
  7 15  1  0  0  0  0
  8 17  1  0  0  0  0
  8 18  1  0  0  0  0
  8 22  1  0  0  0  0
  9 19  1  0  0  0  0
  9 20  1  0  0  0  0
  9 21  1  0  0  0  0
 13 24  1  0  0  0  0
 13 25  1  0  0  0  0
 13 26  1  0  0  0  0
 14 27  1  0  0  0  0
 14 28  1  0  0  0  0
 14 29  1  0  0  0  0
M  END
> <PUBCHEM_COMPOUND_CID>
13904

> <PUBCHEM_COMPOUND_CANONICALIZED>
1

> <PUBCHEM_CACTVS_COMPLEXITY>
166

> <PUBCHEM_CACTVS_HBOND_ACCEPTOR>
6

> <PUBCHEM_CACTVS_HBOND_DONOR>
2

> <PUBCHEM_CACTVS_ROTATABLE_BOND>
4

> <PUBCHEM_CACTVS_SUBSKEYS>
AAADccBzgABAAAAAAAAAAAAAAAAAAAAAAAAsAAAAAAAAAAABgAAAHAQQAAAACCjBAASDEAbIEAggAAAAJAAAUAlAAIABAIAIAACACAAACAAAAAAIEAIAAAAAAAAAAAAAAAAAAAAAAAAAAAAAAAAAAAAAAA==

> <PUBCHEM_IUPAC_OPENEYE_NAME>
N2-isopropyl-N4-methyl-6-methylsulfanyl-1,3,5-triazine-2,4-diamine

> <PUBCHEM_IUPAC_CAS_NAME>
N4-methyl-6-(methylthio)-N2-propan-2-yl-1,3,5-triazine-2,4-diamine

> <PUBCHEM_IUPAC_NAME>
4-N-methyl-6-methylsulfanyl-2-N-propan-2-yl-1,3,5-triazine-2,4-diamine

> <PUBCHEM_IUPAC_SYSTEMATIC_NAME>
N4-methyl-6-methylsulfanyl-N2-propan-2-yl-1,3,5-triazine-2,4-diamine

> <PUBCHEM_IUPAC_TRADITIONAL_NAME>
isopropyl-[4-(methylamino)-6-(methylthio)-s-triazin-2-yl]amine

> <PUBCHEM_IUPAC_INCHI>
InChI=1S/C8H15N5S/c1-5(2)10-7-11-6(9-3)12-8(13-7)14-4/h5H,1-4H3,(H2,9,10,11,12,13)

> <PUBCHEM_IUPAC_INCHIKEY>
HCRWJJJUKUVORR-UHFFFAOYSA-N

> <PUBCHEM_XLOGP3>
2.7

> <PUBCHEM_EXACT_MASS>
213.104817

> <PUBCHEM_MOLECULAR_FORMULA>
C8H15N5S

> <PUBCHEM_MOLECULAR_WEIGHT>
213.3032

> <PUBCHEM_OPENEYE_CAN_SMILES>
CC(C)NC1=NC(=NC(=N1)NC)SC

> <PUBCHEM_OPENEYE_ISO_SMILES>
CC(C)NC1=NC(=NC(=N1)NC)SC

> <PUBCHEM_CACTVS_TPSA>
88

> <PUBCHEM_MONOISOTOPIC_WEIGHT>
213.104817

> <PUBCHEM_TOTAL_CHARGE>
0

> <PUBCHEM_HEAVY_ATOM_COUNT>
14

> <PUBCHEM_ATOM_DEF_STEREO_COUNT>
0

> <PUBCHEM_ATOM_UDEF_STEREO_COUNT>
0

> <PUBCHEM_BOND_DEF_STEREO_COUNT>
0

> <PUBCHEM_BOND_UDEF_STEREO_COUNT>
0

> <PUBCHEM_ISOTOPIC_ATOM_COUNT>
0

> <PUBCHEM_COMPONENT_COUNT>
1

> <PUBCHEM_CACTVS_TAUTO_COUNT>
9

> <PUBCHEM_COORDINATE_TYPE>
1
5
255

> <PUBCHEM_BONDANNOTATIONS>
3  10  8
3  11  8
4  10  8
4  12  8
6  11  8
6  12  8

$$$$

