440138
  -OEChem-07051212483D

 29 30  0     1  0  0  0  0  0999 V2000
    1.3072   -0.6577   -0.7153 O   0  0  0  0  0  0  0  0  0  0  0  0
   -2.1519    1.9953   -0.3095 O   0  0  0  0  0  0  0  0  0  0  0  0
    3.1589    0.5028   -0.1455 O   0  0  0  0  0  0  0  0  0  0  0  0
   -0.7124   -0.6448    0.7048 C   0  0  0  0  0  0  0  0  0  0  0  0
   -0.1488   -0.7778   -0.7266 C   0  0  1  0  0  0  0  0  0  0  0  0
   -0.3624    0.8526    0.9086 C   0  0  2  0  0  0  0  0  0  0  0  0
   -0.8085    1.5398   -0.4037 C   0  0  1  0  0  0  0  0  0  0  0  0
   -0.7044    0.4492   -1.4809 C   0  0  0  0  0  0  0  0  0  0  0  0
    1.1520    1.0291    1.0518 C   0  0  0  0  0  0  0  0  0  0  0  0
   -2.2172   -0.9559    0.8176 C   0  0  0  0  0  0  0  0  0  0  0  0
    0.0001   -1.5443    1.7393 C   0  0  0  0  0  0  0  0  0  0  0  0
   -0.4700   -2.0829   -1.4433 C   0  0  0  0  0  0  0  0  0  0  0  0
    1.9575    0.2946    0.0026 C   0  0  0  0  0  0  0  0  0  0  0  0
   -0.8758    1.2727    1.7808 H   0  0  0  0  0  0  0  0  0  0  0  0
   -0.1924    2.4081   -0.6610 H   0  0  0  0  0  0  0  0  0  0  0  0
   -1.6827    0.2462   -1.9309 H   0  0  0  0  0  0  0  0  0  0  0  0
   -0.0204    0.7652   -2.2768 H   0  0  0  0  0  0  0  0  0  0  0  0
    1.4836    0.6790    2.0355 H   0  0  0  0  0  0  0  0  0  0  0  0
    1.4052    2.0939    0.9853 H   0  0  0  0  0  0  0  0  0  0  0  0
   -2.4127   -2.0279    0.7027 H   0  0  0  0  0  0  0  0  0  0  0  0
   -2.5984   -0.6549    1.8001 H   0  0  0  0  0  0  0  0  0  0  0  0
   -2.8179   -0.4412    0.0634 H   0  0  0  0  0  0  0  0  0  0  0  0
   -0.2669   -1.2430    2.7588 H   0  0  0  0  0  0  0  0  0  0  0  0
   -0.3062   -2.5899    1.6158 H   0  0  0  0  0  0  0  0  0  0  0  0
    1.0902   -1.5433    1.6682 H   0  0  0  0  0  0  0  0  0  0  0  0
   -0.0608   -2.9393   -0.8967 H   0  0  0  0  0  0  0  0  0  0  0  0
   -1.5461   -2.2333   -1.5708 H   0  0  0  0  0  0  0  0  0  0  0  0
   -0.0061   -2.1002   -2.4363 H   0  0  0  0  0  0  0  0  0  0  0  0
   -2.1887    2.6456    0.4125 H   0  0  0  0  0  0  0  0  0  0  0  0
  1  5  1  0  0  0  0
  1 13  1  0  0  0  0
  2  7  1  0  0  0  0
  2 29  1  0  0  0  0
  3 13  2  0  0  0  0
  4  5  1  0  0  0  0
  4  6  1  0  0  0  0
  4 10  1  0  0  0  0
  4 11  1  0  0  0  0
  5  8  1  0  0  0  0
  5 12  1  0  0  0  0
  6  7  1  0  0  0  0
  6  9  1  0  0  0  0
  6 14  1  0  0  0  0
  7  8  1  0  0  0  0
  7 15  1  0  0  0  0
  8 16  1  0  0  0  0
  8 17  1  0  0  0  0
  9 13  1  0  0  0  0
  9 18  1  0  0  0  0
  9 19  1  0  0  0  0
 10 20  1  0  0  0  0
 10 21  1  0  0  0  0
 10 22  1  0  0  0  0
 11 23  1  0  0  0  0
 11 24  1  0  0  0  0
 11 25  1  0  0  0  0
 12 26  1  0  0  0  0
 12 27  1  0  0  0  0
 12 28  1  0  0  0  0
M  END
> <PUBCHEM_COMPOUND_CID>
440138

> <PUBCHEM_CONFORMER_RMSD>
0.4

> <PUBCHEM_CONFORMER_DIVERSEORDER>
2
1

> <PUBCHEM_MMFF94_PARTIAL_CHARGES>
8
1 -0.43
13 0.66
2 -0.68
29 0.4
3 -0.57
5 0.28
7 0.28
9 0.06

> <PUBCHEM_EFFECTIVE_ROTOR_COUNT>
1

> <PUBCHEM_PHARMACOPHORE_FEATURES>
5
1 2 acceptor
1 2 donor
1 3 acceptor
3 4 10 11 hydrophobe
8 1 4 5 6 7 8 9 13 rings

> <PUBCHEM_HEAVY_ATOM_COUNT>
13

> <PUBCHEM_ATOM_DEF_STEREO_COUNT>
1

> <PUBCHEM_ATOM_UDEF_STEREO_COUNT>
2

> <PUBCHEM_BOND_DEF_STEREO_COUNT>
0

> <PUBCHEM_BOND_UDEF_STEREO_COUNT>
0

> <PUBCHEM_ISOTOPIC_ATOM_COUNT>
0

> <PUBCHEM_COMPONENT_COUNT>
1

> <PUBCHEM_CACTVS_TAUTO_COUNT>
1

> <PUBCHEM_CONFORMER_ID>
0006B74A00000002

> <PUBCHEM_MMFF94_ENERGY>
51.421

> <PUBCHEM_FEATURE_SELFOVERLAP>
25.371

> <PUBCHEM_SHAPE_FINGERPRINT>
10702982 57 17915201201921440864
12138202 97 18341331196957973445
12423570 1 5287624999433698429
13024252 1 17703231711195489970
137420 1 8240936338659039035
14817 1 15588030871106137903
15557651 10 18408891728118877241
16945 1 18270945865447800539
22344851 12 10654896203190807651
22344851 262 17323801058808921067
23419403 2 17327406748246838979
2748010 2 18042670870742972502
369184 2 17561090163803333944
430814 3 17844259625076265412
5084963 1 18341879827442885400
528886 8 17605288456428009205

> <PUBCHEM_SHAPE_MULTIPOLES>
249.93
2.56
1.94
1.54
1.6
0.2
0.07
0.29
0.12
-0.93
-0.27
-0.32
-0.55
0.25

> <PUBCHEM_SHAPE_SELFOVERLAP>
528.213

> <PUBCHEM_SHAPE_VOLUME>
142.8

> <PUBCHEM_COORDINATE_TYPE>
2
5
10

$$$$

