17134
  -OEChem-07051212543D

 35 36  0     0  0  0  0  0  0999 V2000
    1.5093   -2.1522   -0.0341 S   0  0  0  0  0  0  0  0  0  0  0  0
    2.3819   -2.7871    0.9466 O   0  0  0  0  0  0  0  0  0  0  0  0
    1.4753   -2.6828   -1.3915 O   0  0  0  0  0  0  0  0  0  0  0  0
   -1.1711    0.1724    1.8797 O   0  0  0  0  0  0  0  0  0  0  0  0
   -3.0361    1.6849    0.4896 O   0  0  0  0  0  0  0  0  0  0  0  0
   -0.0874   -2.1200    0.6124 N   0  0  0  0  0  0  0  0  0  0  0  0
   -1.4186   -1.6464   -1.2682 N   0  0  0  0  0  0  0  0  0  0  0  0
    2.9504    3.6116   -0.2782 N   0  0  0  0  0  0  0  0  0  0  0  0
   -2.8932    0.2588   -1.3262 N   0  0  0  0  0  0  0  0  0  0  0  0
    1.9321   -0.4598   -0.1058 C   0  0  0  0  0  0  0  0  0  0  0  0
   -1.0593   -1.2739   -0.0263 C   0  0  0  0  0  0  0  0  0  0  0  0
    2.5527    0.1508    0.9843 C   0  0  0  0  0  0  0  0  0  0  0  0
    1.6497    0.2819   -1.2530 C   0  0  0  0  0  0  0  0  0  0  0  0
   -1.5569   -0.1717    0.6289 C   0  0  0  0  0  0  0  0  0  0  0  0
    2.8904    1.5029    0.9272 C   0  0  0  0  0  0  0  0  0  0  0  0
    1.9876    1.6341   -1.3099 C   0  0  0  0  0  0  0  0  0  0  0  0
    2.6079    2.2445   -0.2198 C   0  0  0  0  0  0  0  0  0  0  0  0
   -2.4828    0.5675   -0.0787 C   0  0  0  0  0  0  0  0  0  0  0  0
   -2.3290   -0.8447   -1.8531 C   0  0  0  0  0  0  0  0  0  0  0  0
   -1.9196   -0.3707    2.9708 C   0  0  0  0  0  0  0  0  0  0  0  0
   -3.9833    2.3999   -0.2948 C   0  0  0  0  0  0  0  0  0  0  0  0
   -0.1362   -2.1175    1.6394 H   0  0  0  0  0  0  0  0  0  0  0  0
    2.7750   -0.4049    1.8909 H   0  0  0  0  0  0  0  0  0  0  0  0
    1.1668   -0.1718   -2.1138 H   0  0  0  0  0  0  0  0  0  0  0  0
    3.3718    1.9678    1.7838 H   0  0  0  0  0  0  0  0  0  0  0  0
    1.7617    2.2014   -2.2092 H   0  0  0  0  0  0  0  0  0  0  0  0
   -2.6397   -1.1158   -2.8546 H   0  0  0  0  0  0  0  0  0  0  0  0
    3.3988    4.0552    0.5124 H   0  0  0  0  0  0  0  0  0  0  0  0
    2.7439    4.1501   -1.1089 H   0  0  0  0  0  0  0  0  0  0  0  0
   -1.4261   -0.0782    3.9015 H   0  0  0  0  0  0  0  0  0  0  0  0
   -1.9534   -1.4633    2.9193 H   0  0  0  0  0  0  0  0  0  0  0  0
   -2.9361    0.0353    2.9698 H   0  0  0  0  0  0  0  0  0  0  0  0
   -4.3284    3.2559    0.2927 H   0  0  0  0  0  0  0  0  0  0  0  0
   -4.8540    1.7766   -0.5249 H   0  0  0  0  0  0  0  0  0  0  0  0
   -3.5243    2.7842   -1.2119 H   0  0  0  0  0  0  0  0  0  0  0  0
  1  2  2  0  0  0  0
  1  3  2  0  0  0  0
  1  6  1  0  0  0  0
  1 10  1  0  0  0  0
  4 14  1  0  0  0  0
  4 20  1  0  0  0  0
  5 18  1  0  0  0  0
  5 21  1  0  0  0  0
  6 11  1  0  0  0  0
  6 22  1  0  0  0  0
  7 11  1  0  0  0  0
  7 19  2  0  0  0  0
  8 17  1  0  0  0  0
  8 28  1  0  0  0  0
  8 29  1  0  0  0  0
  9 18  2  0  0  0  0
  9 19  1  0  0  0  0
 10 12  2  0  0  0  0
 10 13  1  0  0  0  0
 11 14  2  0  0  0  0
 12 15  1  0  0  0  0
 12 23  1  0  0  0  0
 13 16  2  0  0  0  0
 13 24  1  0  0  0  0
 14 18  1  0  0  0  0
 15 17  2  0  0  0  0
 15 25  1  0  0  0  0
 16 17  1  0  0  0  0
 16 26  1  0  0  0  0
 19 27  1  0  0  0  0
 20 30  1  0  0  0  0
 20 31  1  0  0  0  0
 20 32  1  0  0  0  0
 21 33  1  0  0  0  0
 21 34  1  0  0  0  0
 21 35  1  0  0  0  0
M  END
> <PUBCHEM_COMPOUND_CID>
17134

> <PUBCHEM_CONFORMER_RMSD>
0.8

> <PUBCHEM_CONFORMER_DIVERSEORDER>
1
18
21
19
10
2
24
4
16
3
11
12
23
30
25
29
8
27
9
13
26
17
22
7
20
14
5
28
6
15

> <PUBCHEM_MMFF94_PARTIAL_CHARGES>
29
1 1.45
10 -0.01
11 0.51
12 -0.15
13 -0.15
14 0.08
15 -0.15
16 -0.15
17 0.1
18 0.39
19 0.47
2 -0.65
20 0.28
21 0.28
22 0.42
23 0.15
24 0.15
25 0.15
26 0.15
27 0.15
28 0.4
29 0.4
3 -0.65
4 -0.36
5 -0.36
6 -0.76
7 -0.62
8 -0.9
9 -0.62

> <PUBCHEM_EFFECTIVE_ROTOR_COUNT>
5

> <PUBCHEM_PHARMACOPHORE_FEATURES>
9
1 2 acceptor
1 3 acceptor
1 4 acceptor
1 6 donor
1 8 cation
1 8 donor
3 7 9 19 cation
6 10 12 13 15 16 17 rings
6 7 9 11 14 18 19 rings

> <PUBCHEM_HEAVY_ATOM_COUNT>
21

> <PUBCHEM_ATOM_DEF_STEREO_COUNT>
0

> <PUBCHEM_ATOM_UDEF_STEREO_COUNT>
0

> <PUBCHEM_BOND_DEF_STEREO_COUNT>
0

> <PUBCHEM_BOND_UDEF_STEREO_COUNT>
0

> <PUBCHEM_ISOTOPIC_ATOM_COUNT>
0

> <PUBCHEM_COMPONENT_COUNT>
1

> <PUBCHEM_CACTVS_TAUTO_COUNT>
3

> <PUBCHEM_CONFORMER_ID>
000042EE00000001

> <PUBCHEM_MMFF94_ENERGY>
73.4092

> <PUBCHEM_FEATURE_SELFOVERLAP>
45.687

> <PUBCHEM_SHAPE_FINGERPRINT>
10165383 225 17548924045977264988
11640471 11 18186803577689904161
12507560 18 16912552253522115363
12633257 1 16558750096213782033
128993 33 18046878564161424136
13134695 92 18054513779184365750
13693222 7 18187915158275839912
14115302 16 17242189048270836855
14142880 1 17615386087786391291
15295992 7 18058719346804567753
15664445 248 13840850832757326091
16945 1 18058471896553539910
17492 54 15002520944796004376
17980427 23 17753084783806312682
18522851 12 9294744162903040148
18981168 100 18269816671332774746
192875 21 18048344174569828028
19765921 60 18188216398766146715
20510252 161 17619631281023064574
21475661 188 17629208379641884301
21524375 3 18119517752953880466
23175994 123 17413298427677147882
3286 77 17702094971007808019
474 4 18342470239459609861
49207404 50 18129078118321430041
5262128 65 15574993901685203672
5845 1 11310677657326586038
5939293 188 18194684997460235412
6992083 37 17318444667434112354
7832392 63 18263934412978382623
81228 2 17112952086549063962
9981440 41 18125174748515464144

> <PUBCHEM_SHAPE_MULTIPOLES>
392.62
5.68
3.34
1.92
1.92
0.58
-0.91
4.23
0.17
-2.22
0.46
1.12
-0.47
-0.26

> <PUBCHEM_SHAPE_SELFOVERLAP>
819.693

> <PUBCHEM_SHAPE_VOLUME>
223.9

> <PUBCHEM_COORDINATE_TYPE>
2
5
10

$$$$

