6252910
  -OEChem-07051213143D

 38 39  0     0  0  0  0  0  0999 V2000
   -3.7292   -0.9599   -0.0858 O   0  0  0  0  0  0  0  0  0  0  0  0
    3.5069   -1.1642   -0.2286 O   0  0  0  0  0  0  0  0  0  0  0  0
   -6.4588   -3.1424    0.0386 O   0  5  0  0  0  0  0  0  0  0  0  0
    6.3267   -3.2050   -0.5644 O   0  5  0  0  0  0  0  0  0  0  0  0
   -4.3027   -3.5121   -0.1441 O   0  0  0  0  0  0  0  0  0  0  0  0
    4.8980   -2.4362   -2.0432 O   0  0  0  0  0  0  0  0  0  0  0  0
   -5.2727   -2.7050   -0.0357 N   0  3  0  0  0  0  0  0  0  0  0  0
    5.2964   -2.5236   -0.8442 N   0  3  0  0  0  0  0  0  0  0  0  0
   -0.0883    2.6842   -0.1785 N   0  0  0  0  0  0  0  0  0  0  0  0
    1.1565    3.3004   -0.2353 N   0  0  0  0  0  0  0  0  0  0  0  0
    2.1137    5.4979   -0.2223 N   0  0  0  0  0  0  0  0  0  0  0  0
   -0.1519    5.2270   -0.0900 N   0  0  0  0  0  0  0  0  0  0  0  0
   -3.7227    0.3876   -0.0325 C   0  0  0  0  0  0  0  0  0  0  0  0
    2.9869   -0.6185    0.8903 C   0  0  0  0  0  0  0  0  0  0  0  0
   -2.4991    1.1319   -0.0982 C   0  0  0  0  0  0  0  0  0  0  0  0
    1.8127    0.2012    0.8461 C   0  0  0  0  0  0  0  0  0  0  0  0
   -4.9812    0.8987    0.0868 C   0  0  0  0  0  0  0  0  0  0  0  0
    3.7095   -0.9483    1.9995 C   0  0  0  0  0  0  0  0  0  0  0  0
   -0.0431    1.3885   -0.2238 C   0  0  0  0  0  0  0  0  0  0  0  0
   -1.2888    0.5569   -0.1741 C   0  0  0  0  0  0  0  0  0  0  0  0
    1.1764    0.5252   -0.2891 C   0  0  0  0  0  0  0  0  0  0  0  0
   -5.0337   -1.3299    0.0016 C   0  0  0  0  0  0  0  0  0  0  0  0
    4.5983   -1.8678    0.1715 C   0  0  0  0  0  0  0  0  0  0  0  0
   -5.8435   -0.2233    0.1094 C   0  0  0  0  0  0  0  0  0  0  0  0
    4.7658   -1.7666    1.5330 C   0  0  0  0  0  0  0  0  0  0  0  0
    1.0682    4.6033   -0.1871 C   0  0  0  0  0  0  0  0  0  0  0  0
   -2.5906    2.2147   -0.0734 H   0  0  0  0  0  0  0  0  0  0  0  0
    1.4389    0.5835    1.7934 H   0  0  0  0  0  0  0  0  0  0  0  0
   -5.2633    1.9404    0.1508 H   0  0  0  0  0  0  0  0  0  0  0  0
    3.5173   -0.6487    3.0204 H   0  0  0  0  0  0  0  0  0  0  0  0
   -1.1740   -0.5230   -0.1971 H   0  0  0  0  0  0  0  0  0  0  0  0
    1.4814    0.1764   -1.2693 H   0  0  0  0  0  0  0  0  0  0  0  0
   -6.9211   -0.2186    0.1940 H   0  0  0  0  0  0  0  0  0  0  0  0
    5.5488   -2.2230    2.1220 H   0  0  0  0  0  0  0  0  0  0  0  0
    1.9560    6.4989   -0.1804 H   0  0  0  0  0  0  0  0  0  0  0  0
    3.0738    5.1789   -0.2929 H   0  0  0  0  0  0  0  0  0  0  0  0
   -0.2282    6.2376   -0.0528 H   0  0  0  0  0  0  0  0  0  0  0  0
   -1.0137    4.6934   -0.0540 H   0  0  0  0  0  0  0  0  0  0  0  0
  1 13  1  0  0  0  0
  1 22  1  0  0  0  0
  2 14  1  0  0  0  0
  2 23  1  0  0  0  0
  3  7  1  0  0  0  0
  4  8  1  0  0  0  0
  5  7  2  0  0  0  0
  6  8  2  0  0  0  0
  7 22  1  0  0  0  0
  8 23  1  0  0  0  0
  9 10  1  0  0  0  0
  9 19  2  0  0  0  0
 10 26  2  0  0  0  0
 11 26  1  0  0  0  0
 11 35  1  0  0  0  0
 11 36  1  0  0  0  0
 12 26  1  0  0  0  0
 12 37  1  0  0  0  0
 12 38  1  0  0  0  0
 13 15  1  0  0  0  0
 13 17  2  0  0  0  0
 14 16  1  0  0  0  0
 14 18  2  0  0  0  0
 15 20  2  0  0  0  0
 15 27  1  0  0  0  0
 16 21  2  0  0  0  0
 16 28  1  0  0  0  0
 17 24  1  0  0  0  0
 17 29  1  0  0  0  0
 18 25  1  0  0  0  0
 18 30  1  0  0  0  0
 19 20  1  0  0  0  0
 19 21  1  0  0  0  0
 20 31  1  0  0  0  0
 21 32  1  0  0  0  0
 22 24  2  0  0  0  0
 23 25  2  0  0  0  0
 24 33  1  0  0  0  0
 25 34  1  0  0  0  0
M  CHG  4   3  -1   4  -1   7   1   8   1
M  END
> <PUBCHEM_COMPOUND_CID>
6252910

> <PUBCHEM_CONFORMER_RMSD>
0.8

> <PUBCHEM_CONFORMER_DIVERSEORDER>
1
60
40
38
52
46
35
61
34
47
30
54
10
16
27
20
63
49
37
51
55
9
5
26
56
53
25
8
11
62
50
39
7
17
59
28
44
24
43
15
3
32
6
21
48
33
45
12
4
29
19
18
58
14
42
36
57
41
13
23
22
2
31

> <PUBCHEM_MMFF94_PARTIAL_CHARGES>
38
1 -0.28
10 -0.45
11 -0.85
12 -0.85
13 0.09
14 0.09
15 -0.11
16 -0.11
17 -0.15
18 -0.15
19 0.42
2 -0.28
20 -0.14
21 -0.14
22 0.22
23 0.22
24 -0.15
25 -0.15
26 0.55
27 0.15
28 0.15
29 0.15
3 -0.52
30 0.15
31 0.15
32 0.15
33 0.15
34 0.15
35 0.4
36 0.4
37 0.4
38 0.4
4 -0.52
5 -0.52
6 -0.52
7 0.96
8 0.96
9 -0.45

> <PUBCHEM_EFFECTIVE_ROTOR_COUNT>
7

> <PUBCHEM_PHARMACOPHORE_FEATURES>
14
1 1 acceptor
1 11 donor
1 12 donor
1 2 acceptor
1 3 acceptor
1 3 anion
1 4 acceptor
1 4 anion
1 5 acceptor
1 6 acceptor
1 9 acceptor
4 10 11 12 26 cation
5 1 13 17 22 24 rings
5 2 14 18 23 25 rings

> <PUBCHEM_HEAVY_ATOM_COUNT>
26

> <PUBCHEM_ATOM_DEF_STEREO_COUNT>
0

> <PUBCHEM_ATOM_UDEF_STEREO_COUNT>
0

> <PUBCHEM_BOND_DEF_STEREO_COUNT>
2

> <PUBCHEM_BOND_UDEF_STEREO_COUNT>
0

> <PUBCHEM_ISOTOPIC_ATOM_COUNT>
0

> <PUBCHEM_COMPONENT_COUNT>
1

> <PUBCHEM_CACTVS_TAUTO_COUNT>
2

> <PUBCHEM_CONFORMER_ID>
005F696E00000001

> <PUBCHEM_MMFF94_ENERGY>
65.541

> <PUBCHEM_FEATURE_SELFOVERLAP>
71.281

> <PUBCHEM_SHAPE_FINGERPRINT>
10050765 1 18340489942610699317
11056379 131 18051129499774458900
11763715 3 18198323239057183220
12107183 9 18409725201906180921
12342043 65 17678177303544073998
12516196 113 18413111671152893688
12788726 201 17985545804204128616
13009979 54 18186792600191820369
13533116 47 18126850400716446643
13673619 4 17750516346746314498
13690498 29 18060134388357640845
13785724 45 18409163337587896441
13955234 65 18123188992188341425
14251740 57 18335987488895461322
14251764 30 18336547226356127110
14420673 8 18336825390192737851
15537594 2 18060138799294874395
17492 89 18338235939156933899
1813 80 18335702775460915108
18222031 100 18412263973425968568
20028762 73 17906456519774551024
20286276 3 18341048494269637745
21424621 283 9583225141959519638
22849341 161 18339063987018518857
22950370 63 18411416245581615724
23559900 14 18338526248860358057
249999 5 18194688055324807441
2916195 48 10663804283011190126
3004659 81 18059854004081304222
4409770 3 17841163460995319005
5104073 3 18262511478446369577
613672 6 18266202653858233663
621550 5 18041569160430090816
6700243 42 17682089387411079004
77188 2 18411139155936300348
7970288 3 18339926029646159018

> <PUBCHEM_SHAPE_MULTIPOLES>
469.97
15.15
6.37
1.09
6.2
10.14
-0.1
-22.09
0.69
-2.31
1.23
-2.18
-0.76
0.67

> <PUBCHEM_SHAPE_SELFOVERLAP>
1001.014

> <PUBCHEM_SHAPE_VOLUME>
260

> <PUBCHEM_COORDINATE_TYPE>
2
5
10

$$$$

