117898
  -OEChem-07051212592D

 28 30  0     0  0  0  0  0  0999 V2000
    3.9412    1.4264    0.0000 O   0  0  0  0  0  0  0  0  0  0  0  0
    2.1290   -1.7125    0.0000 O   0  0  0  0  0  0  0  0  0  0  0  0
    5.4641   -1.5454    0.0000 O   0  0  0  0  0  0  0  0  0  0  0  0
    2.0000    0.4546    0.0000 O   0  0  0  0  0  0  0  0  0  0  0  0
    3.7320   -1.5454    0.0000 C   0  0  0  0  0  0  0  0  0  0  0  0
    4.5981   -0.0454    0.0000 C   0  0  0  0  0  0  0  0  0  0  0  0
    3.7320    0.4546    0.0000 C   0  0  0  0  0  0  0  0  0  0  0  0
    2.8660   -1.0454    0.0000 C   0  0  0  0  0  0  0  0  0  0  0  0
    4.5981   -1.0454    0.0000 C   0  0  0  0  0  0  0  0  0  0  0  0
    3.5228   -2.5172    0.0000 C   0  0  0  0  0  0  0  0  0  0  0  0
    2.8660   -0.0454    0.0000 C   0  0  0  0  0  0  0  0  0  0  0  0
    5.3351    0.6217    0.0000 C   0  0  0  0  0  0  0  0  0  0  0  0
    4.9300    1.5295    0.0000 C   0  0  0  0  0  0  0  0  0  0  0  0
    2.5341   -2.6203    0.0000 C   0  0  0  0  0  0  0  0  0  0  0  0
    4.1907   -3.2615    0.0000 C   0  0  0  0  0  0  0  0  0  0  0  0
    5.4300    2.3955    0.0000 C   0  0  0  0  0  0  0  0  0  0  0  0
    4.9300    3.2615    0.0000 C   0  0  0  0  0  0  0  0  0  0  0  0
    6.4300    2.3955    0.0000 C   0  0  0  0  0  0  0  0  0  0  0  0
    5.9418    0.4938    0.0000 H   0  0  0  0  0  0  0  0  0  0  0  0
    2.2241   -3.1572    0.0000 H   0  0  0  0  0  0  0  0  0  0  0  0
    3.7292   -3.6756    0.0000 H   0  0  0  0  0  0  0  0  0  0  0  0
    4.6048   -3.7230    0.0000 H   0  0  0  0  0  0  0  0  0  0  0  0
    4.6522   -2.8475    0.0000 H   0  0  0  0  0  0  0  0  0  0  0  0
    5.4669    3.5715    0.0000 H   0  0  0  0  0  0  0  0  0  0  0  0
    4.6200    3.7985    0.0000 H   0  0  0  0  0  0  0  0  0  0  0  0
    4.3930    2.9515    0.0000 H   0  0  0  0  0  0  0  0  0  0  0  0
    6.7400    1.8586    0.0000 H   0  0  0  0  0  0  0  0  0  0  0  0
    6.7400    2.9324    0.0000 H   0  0  0  0  0  0  0  0  0  0  0  0
  1  7  1  0  0  0  0
  1 13  1  0  0  0  0
  2  8  1  0  0  0  0
  2 14  1  0  0  0  0
  3  9  2  0  0  0  0
  4 11  2  0  0  0  0
  5  8  2  0  0  0  0
  5  9  1  0  0  0  0
  5 10  1  0  0  0  0
  6  7  2  0  0  0  0
  6  9  1  0  0  0  0
  6 12  1  0  0  0  0
  7 11  1  0  0  0  0
  8 11  1  0  0  0  0
 10 14  2  0  0  0  0
 10 15  1  0  0  0  0
 12 13  2  0  0  0  0
 12 19  1  0  0  0  0
 13 16  1  0  0  0  0
 14 20  1  0  0  0  0
 15 21  1  0  0  0  0
 15 22  1  0  0  0  0
 15 23  1  0  0  0  0
 16 17  1  0  0  0  0
 16 18  2  0  0  0  0
 17 24  1  0  0  0  0
 17 25  1  0  0  0  0
 17 26  1  0  0  0  0
 18 27  1  0  0  0  0
 18 28  1  0  0  0  0
M  END
> <PUBCHEM_COMPOUND_CID>
117898

> <PUBCHEM_COMPOUND_CANONICALIZED>
1

> <PUBCHEM_CACTVS_COMPLEXITY>
428

> <PUBCHEM_CACTVS_HBOND_ACCEPTOR>
4

> <PUBCHEM_CACTVS_HBOND_DONOR>
0

> <PUBCHEM_CACTVS_ROTATABLE_BOND>
1

> <PUBCHEM_CACTVS_SUBSKEYS>
AAADccBwOAAAAAAAAAAAAAAAAAAAASJAAAAwAAAAAAAAAEgB4AAAGgAAAAAADASgmAIyBIAABECIAqhSgAICCAAkIAAAiAFGCMgMJjaMNR6COWCl4BEIqYeL7vzugAAAAAAAAABAAAQQABAAAAAAAAAAAA==

> <PUBCHEM_IUPAC_OPENEYE_NAME>
2-isopropenyl-5-methyl-furo[3,2-f]benzofuran-4,8-dione

> <PUBCHEM_IUPAC_CAS_NAME>
5-methyl-2-(1-methylethenyl)furo[3,2-f]benzofuran-4,8-dione

> <PUBCHEM_IUPAC_NAME>
5-methyl-2-prop-1-en-2-ylfuro[3,2-f][1]benzofuran-4,8-dione

> <PUBCHEM_IUPAC_SYSTEMATIC_NAME>
5-methyl-2-prop-1-en-2-yl-furo[3,2-f][1]benzofuran-4,8-dione

> <PUBCHEM_IUPAC_TRADITIONAL_NAME>
2-isopropenyl-5-methyl-furo[3,2-f]benzofuran-4,8-quinone

> <PUBCHEM_IUPAC_INCHI>
InChI=1S/C14H10O4/c1-6(2)9-4-8-11(15)10-7(3)5-17-14(10)12(16)13(8)18-9/h4-5H,1H2,2-3H3

> <PUBCHEM_IUPAC_INCHIKEY>
KFMPVUGBZZOSGH-UHFFFAOYSA-N

> <PUBCHEM_XLOGP3_AA>
3.5

> <PUBCHEM_EXACT_MASS>
242.057909

> <PUBCHEM_MOLECULAR_FORMULA>
C14H10O4

> <PUBCHEM_MOLECULAR_WEIGHT>
242.2268

> <PUBCHEM_OPENEYE_CAN_SMILES>
CC1=COC2=C1C(=O)C3=C(C2=O)OC(=C3)C(=C)C

> <PUBCHEM_OPENEYE_ISO_SMILES>
CC1=COC2=C1C(=O)C3=C(C2=O)OC(=C3)C(=C)C

> <PUBCHEM_CACTVS_TPSA>
60.4

> <PUBCHEM_MONOISOTOPIC_WEIGHT>
242.057909

> <PUBCHEM_TOTAL_CHARGE>
0

> <PUBCHEM_HEAVY_ATOM_COUNT>
18

> <PUBCHEM_ATOM_DEF_STEREO_COUNT>
0

> <PUBCHEM_ATOM_UDEF_STEREO_COUNT>
0

> <PUBCHEM_BOND_DEF_STEREO_COUNT>
0

> <PUBCHEM_BOND_UDEF_STEREO_COUNT>
0

> <PUBCHEM_ISOTOPIC_ATOM_COUNT>
0

> <PUBCHEM_COMPONENT_COUNT>
1

> <PUBCHEM_CACTVS_TAUTO_COUNT>
1

> <PUBCHEM_COORDINATE_TYPE>
1
5
255

> <PUBCHEM_BONDANNOTATIONS>
1  13  8
1  7  8
10  14  8
12  13  8
2  14  8
2  8  8
5  10  8
5  8  8
6  12  8
6  7  8

$$$$

