130313
  -OEChem-07051212542D

 26 27  0     1  0  0  0  0  0999 V2000
    4.6650    1.4754    0.0000 S   0  0  0  0  0  0  0  0  0  0  0  0
    4.3560    2.4265    0.0000 O   0  0  0  0  0  0  0  0  0  0  0  0
    5.4740    2.0632    0.0000 O   0  0  0  0  0  0  0  0  0  0  0  0
    2.0000   -0.5463    0.0000 O   0  0  0  0  0  0  0  0  0  0  0  0
    4.3049   -1.8368    0.0000 O   0  0  0  0  0  0  0  0  0  0  0  0
    5.9521   -1.3016    0.0000 O   0  0  0  0  0  0  0  0  0  0  0  0
    3.7139    0.1664    0.0000 N   0  0  0  0  0  0  0  0  0  0  0  0
    5.2528    0.6664    0.0000 C   0  0  0  0  0  0  0  0  0  0  0  0
    3.7139    1.1664    0.0000 C   0  0  1  0  0  0  0  0  0  0  0  0
    4.6650   -0.1426    0.0000 C   0  0  2  0  0  0  0  0  0  0  0  0
    2.7056    1.1705    0.0000 C   0  0  0  0  0  0  0  0  0  0  0  0
    2.7056    0.1623    0.0000 C   0  0  0  0  0  0  0  0  0  0  0  0
    6.0618    0.0786    0.0000 C   0  0  0  0  0  0  0  0  0  0  0  0
    6.0618    1.2542    0.0000 C   0  0  0  0  0  0  0  0  0  0  0  0
    4.9740   -1.0937    0.0000 C   0  0  0  0  0  0  0  0  0  0  0  0
    3.5827    2.0062    0.0000 H   0  0  0  0  0  0  0  0  0  0  0  0
    4.2266   -0.5810    0.0000 H   0  0  0  0  0  0  0  0  0  0  0  0
    2.7074    1.7905    0.0000 H   0  0  0  0  0  0  0  0  0  0  0  0
    2.0856    1.1714    0.0000 H   0  0  0  0  0  0  0  0  0  0  0  0
    5.6974   -0.4230    0.0000 H   0  0  0  0  0  0  0  0  0  0  0  0
    6.5634   -0.2858    0.0000 H   0  0  0  0  0  0  0  0  0  0  0  0
    6.4262    0.5802    0.0000 H   0  0  0  0  0  0  0  0  0  0  0  0
    6.4262    0.7526    0.0000 H   0  0  0  0  0  0  0  0  0  0  0  0
    6.5634    1.6186    0.0000 H   0  0  0  0  0  0  0  0  0  0  0  0
    5.6974    1.7558    0.0000 H   0  0  0  0  0  0  0  0  0  0  0  0
    4.4965   -2.4265    0.0000 H   0  0  0  0  0  0  0  0  0  0  0  0
  1  2  2  0  0  0  0
  1  3  2  0  0  0  0
  1  8  1  0  0  0  0
  1  9  1  0  0  0  0
  4 12  2  0  0  0  0
  5 15  1  0  0  0  0
  5 26  1  0  0  0  0
  6 15  2  0  0  0  0
  7  9  1  0  0  0  0
  7 10  1  0  0  0  0
  7 12  1  0  0  0  0
  8 10  1  0  0  0  0
  8 13  1  0  0  0  0
  8 14  1  0  0  0  0
  9 11  1  0  0  0  0
  9 16  1  6  0  0  0
 10 15  1  6  0  0  0
 10 17  1  0  0  0  0
 11 12  1  0  0  0  0
 11 18  1  0  0  0  0
 11 19  1  0  0  0  0
 13 20  1  0  0  0  0
 13 21  1  0  0  0  0
 13 22  1  0  0  0  0
 14 23  1  0  0  0  0
 14 24  1  0  0  0  0
 14 25  1  0  0  0  0
M  END
> <PUBCHEM_COMPOUND_CID>
130313

> <PUBCHEM_COMPOUND_CANONICALIZED>
1

> <PUBCHEM_CACTVS_COMPLEXITY>
446

> <PUBCHEM_CACTVS_HBOND_ACCEPTOR>
5

> <PUBCHEM_CACTVS_HBOND_DONOR>
1

> <PUBCHEM_CACTVS_ROTATABLE_BOND>
1

> <PUBCHEM_CACTVS_SUBSKEYS>
AAADccByOABAAAAAAAAAAAAAAABYAWAAAAAAAAAABYAAAAAAAAAAHgQACAAADCjFwASCCAMAAgoIAAGQGHBIAABAABAAAAGIAAACABggACAEQAAEBgCwAAAAAAAIAAAAAAAAAAAAAAAAAAAAAAAAAAAAAA==

> <PUBCHEM_IUPAC_OPENEYE_NAME>
(2S,5R)-3,3-dimethyl-4,4,7-trioxo-4$l^{6}-thia-1-azabicyclo[3.2.0]heptane-2-carboxylic acid

> <PUBCHEM_IUPAC_CAS_NAME>
(2S,5R)-3,3-dimethyl-4,4,7-trioxo-4$l^{6}-thia-1-azabicyclo[3.2.0]heptane-2-carboxylic acid

> <PUBCHEM_IUPAC_NAME>
(2S,5R)-3,3-dimethyl-4,4,7-trioxo-4$l^{6}-thia-1-azabicyclo[3.2.0]heptane-2-carboxylic acid

> <PUBCHEM_IUPAC_SYSTEMATIC_NAME>
(2S,5R)-3,3-dimethyl-4,4,7-tris(oxidanylidene)-4$l^{6}-thia-1-azabicyclo[3.2.0]heptane-2-carboxylic acid

> <PUBCHEM_IUPAC_TRADITIONAL_NAME>
(2S,5R)-4,4,7-triketo-3,3-dimethyl-4$l^{6}-thia-1-azabicyclo[3.2.0]heptane-2-carboxylic acid

> <PUBCHEM_IUPAC_INCHI>
InChI=1S/C8H11NO5S/c1-8(2)6(7(11)12)9-4(10)3-5(9)15(8,13)14/h5-6H,3H2,1-2H3,(H,11,12)/t5-,6+/m1/s1

> <PUBCHEM_IUPAC_INCHIKEY>
FKENQMMABCRJMK-RITPCOANSA-N

> <PUBCHEM_XLOGP3_AA>
-1

> <PUBCHEM_EXACT_MASS>
233.035793

> <PUBCHEM_MOLECULAR_FORMULA>
C8H11NO5S

> <PUBCHEM_MOLECULAR_WEIGHT>
233.24164

> <PUBCHEM_OPENEYE_CAN_SMILES>
CC1(C(N2C(S1(=O)=O)CC2=O)C(=O)O)C

> <PUBCHEM_OPENEYE_ISO_SMILES>
CC1([C@@H](N2[C@H](S1(=O)=O)CC2=O)C(=O)O)C

> <PUBCHEM_CACTVS_TPSA>
100

> <PUBCHEM_MONOISOTOPIC_WEIGHT>
233.035793

> <PUBCHEM_TOTAL_CHARGE>
0

> <PUBCHEM_HEAVY_ATOM_COUNT>
15

> <PUBCHEM_ATOM_DEF_STEREO_COUNT>
2

> <PUBCHEM_ATOM_UDEF_STEREO_COUNT>
0

> <PUBCHEM_BOND_DEF_STEREO_COUNT>
0

> <PUBCHEM_BOND_UDEF_STEREO_COUNT>
0

> <PUBCHEM_ISOTOPIC_ATOM_COUNT>
0

> <PUBCHEM_COMPONENT_COUNT>
1

> <PUBCHEM_CACTVS_TAUTO_COUNT>
2

> <PUBCHEM_COORDINATE_TYPE>
1
5
255

> <PUBCHEM_BONDANNOTATIONS>
10  15  6
9  16  6

$$$$

