23724608
  -OEChem-07051213082D

100100  0     1  0  0  0  0  0999 V2000
    3.8660  -10.9050    0.0000 O   0  0  0  0  0  0  0  0  0  0  0  0
    5.5981   -9.9050    0.0000 O   0  0  0  0  0  0  0  0  0  0  0  0
   15.1244   10.5950    0.0000 O   0  0  0  0  0  0  0  0  0  0  0  0
   12.5263   10.0950    0.0000 O   0  0  0  0  0  0  0  0  0  0  0  0
    3.0000   -8.4050    0.0000 C   0  0  0  0  0  0  0  0  0  0  0  0
    3.0000   -9.4050    0.0000 C   0  0  0  0  0  0  0  0  0  0  0  0
    3.8660   -9.9050    0.0000 C   0  0  1  0  0  0  0  0  0  0  0  0
    3.8660   -7.9050    0.0000 C   0  0  0  0  0  0  0  0  0  0  0  0
    4.7320   -9.4050    0.0000 C   0  0  3  0  0  0  0  0  0  0  0  0
    4.7320   -8.4050    0.0000 C   0  0  0  0  0  0  0  0  0  0  0  0
    2.0000   -8.4050    0.0000 C   0  0  0  0  0  0  0  0  0  0  0  0
    2.5000   -7.5390    0.0000 C   0  0  0  0  0  0  0  0  0  0  0  0
    3.8660   -6.9050    0.0000 C   0  0  0  0  0  0  0  0  0  0  0  0
    5.5981   -7.9050    0.0000 C   0  0  0  0  0  0  0  0  0  0  0  0
    4.7320   -6.4050    0.0000 C   0  0  0  0  0  0  0  0  0  0  0  0
    4.7320   -5.4050    0.0000 C   0  0  0  0  0  0  0  0  0  0  0  0
    3.8660   -4.9050    0.0000 C   0  0  0  0  0  0  0  0  0  0  0  0
    5.5981   -4.9050    0.0000 C   0  0  0  0  0  0  0  0  0  0  0  0
    5.5981   -3.9050    0.0000 C   0  0  0  0  0  0  0  0  0  0  0  0
    6.4641   -3.4050    0.0000 C   0  0  0  0  0  0  0  0  0  0  0  0
   14.2583   10.0950    0.0000 C   0  0  0  0  0  0  0  0  0  0  0  0
   13.3923    9.5950    0.0000 C   0  0  2  0  0  0  0  0  0  0  0  0
   13.7583   10.9610    0.0000 C   0  0  0  0  0  0  0  0  0  0  0  0
   14.7583    9.2290    0.0000 C   0  0  0  0  0  0  0  0  0  0  0  0
    6.4641   -2.4050    0.0000 C   0  0  0  0  0  0  0  0  0  0  0  0
   13.3923    8.5950    0.0000 C   0  0  0  0  0  0  0  0  0  0  0  0
    5.5981   -1.9050    0.0000 C   0  0  0  0  0  0  0  0  0  0  0  0
   12.5263    8.0950    0.0000 C   0  0  0  0  0  0  0  0  0  0  0  0
    7.3301   -1.9050    0.0000 C   0  0  0  0  0  0  0  0  0  0  0  0
   12.5263    7.0950    0.0000 C   0  0  0  0  0  0  0  0  0  0  0  0
    7.3301   -0.9050    0.0000 C   0  0  0  0  0  0  0  0  0  0  0  0
   13.3923    6.5950    0.0000 C   0  0  0  0  0  0  0  0  0  0  0  0
   11.6603    6.5950    0.0000 C   0  0  0  0  0  0  0  0  0  0  0  0
   11.6603    5.5950    0.0000 C   0  0  0  0  0  0  0  0  0  0  0  0
    8.1962   -0.4050    0.0000 C   0  0  0  0  0  0  0  0  0  0  0  0
   10.7942    5.0950    0.0000 C   0  0  0  0  0  0  0  0  0  0  0  0
    8.1962    0.5950    0.0000 C   0  0  0  0  0  0  0  0  0  0  0  0
   10.7942    4.0950    0.0000 C   0  0  0  0  0  0  0  0  0  0  0  0
    9.0622    1.0950    0.0000 C   0  0  0  0  0  0  0  0  0  0  0  0
    9.9282    3.5950    0.0000 C   0  0  0  0  0  0  0  0  0  0  0  0
   11.6603    3.5950    0.0000 C   0  0  0  0  0  0  0  0  0  0  0  0
    9.0622    2.0950    0.0000 C   0  0  0  0  0  0  0  0  0  0  0  0
    9.9282    2.5950    0.0000 C   0  0  0  0  0  0  0  0  0  0  0  0
    9.9282    0.5950    0.0000 C   0  0  0  0  0  0  0  0  0  0  0  0
    2.3894   -9.2973    0.0000 H   0  0  0  0  0  0  0  0  0  0  0  0
    2.7880   -9.9876    0.0000 H   0  0  0  0  0  0  0  0  0  0  0  0
    4.4030  -10.2150    0.0000 H   0  0  0  0  0  0  0  0  0  0  0  0
    4.7320  -10.0250    0.0000 H   0  0  0  0  0  0  0  0  0  0  0  0
    2.0000   -7.7850    0.0000 H   0  0  0  0  0  0  0  0  0  0  0  0
    3.0369   -7.2290    0.0000 H   0  0  0  0  0  0  0  0  0  0  0  0
    2.1900   -7.0020    0.0000 H   0  0  0  0  0  0  0  0  0  0  0  0
    1.9631   -7.8490    0.0000 H   0  0  0  0  0  0  0  0  0  0  0  0
    1.3800   -8.4050    0.0000 H   0  0  0  0  0  0  0  0  0  0  0  0
    2.0000   -9.0250    0.0000 H   0  0  0  0  0  0  0  0  0  0  0  0
    3.3291   -6.5950    0.0000 H   0  0  0  0  0  0  0  0  0  0  0  0
    5.9081   -8.4419    0.0000 H   0  0  0  0  0  0  0  0  0  0  0  0
    6.1350   -7.5950    0.0000 H   0  0  0  0  0  0  0  0  0  0  0  0
    5.2881   -7.3681    0.0000 H   0  0  0  0  0  0  0  0  0  0  0  0
    3.3291  -11.2150    0.0000 H   0  0  0  0  0  0  0  0  0  0  0  0
    5.5981  -10.5250    0.0000 H   0  0  0  0  0  0  0  0  0  0  0  0
    5.2690   -6.7150    0.0000 H   0  0  0  0  0  0  0  0  0  0  0  0
    4.1760   -4.3681    0.0000 H   0  0  0  0  0  0  0  0  0  0  0  0
    3.3291   -4.5950    0.0000 H   0  0  0  0  0  0  0  0  0  0  0  0
    3.5560   -5.4419    0.0000 H   0  0  0  0  0  0  0  0  0  0  0  0
    6.1350   -5.2150    0.0000 H   0  0  0  0  0  0  0  0  0  0  0  0
    5.0611   -3.5950    0.0000 H   0  0  0  0  0  0  0  0  0  0  0  0
    7.0010   -3.7150    0.0000 H   0  0  0  0  0  0  0  0  0  0  0  0
   12.8554    9.2850    0.0000 H   0  0  0  0  0  0  0  0  0  0  0  0
   14.2214    8.9190    0.0000 H   0  0  0  0  0  0  0  0  0  0  0  0
   15.0683    8.6920    0.0000 H   0  0  0  0  0  0  0  0  0  0  0  0
   15.2953    9.5390    0.0000 H   0  0  0  0  0  0  0  0  0  0  0  0
   14.2953   11.2710    0.0000 H   0  0  0  0  0  0  0  0  0  0  0  0
   13.4483   11.4980    0.0000 H   0  0  0  0  0  0  0  0  0  0  0  0
   13.2214   10.6510    0.0000 H   0  0  0  0  0  0  0  0  0  0  0  0
   13.9292    8.2850    0.0000 H   0  0  0  0  0  0  0  0  0  0  0  0
   15.1244   11.2150    0.0000 H   0  0  0  0  0  0  0  0  0  0  0  0
   12.5263   10.7150    0.0000 H   0  0  0  0  0  0  0  0  0  0  0  0
    5.9081   -1.3681    0.0000 H   0  0  0  0  0  0  0  0  0  0  0  0
    5.0611   -1.5950    0.0000 H   0  0  0  0  0  0  0  0  0  0  0  0
    5.2881   -2.4419    0.0000 H   0  0  0  0  0  0  0  0  0  0  0  0
   11.9893    8.4050    0.0000 H   0  0  0  0  0  0  0  0  0  0  0  0
    7.8671   -2.2150    0.0000 H   0  0  0  0  0  0  0  0  0  0  0  0
   13.0823    6.0581    0.0000 H   0  0  0  0  0  0  0  0  0  0  0  0
   13.9292    6.2850    0.0000 H   0  0  0  0  0  0  0  0  0  0  0  0
   13.7023    7.1319    0.0000 H   0  0  0  0  0  0  0  0  0  0  0  0
    6.7932   -0.5950    0.0000 H   0  0  0  0  0  0  0  0  0  0  0  0
   11.1233    6.9050    0.0000 H   0  0  0  0  0  0  0  0  0  0  0  0
   12.1972    5.2850    0.0000 H   0  0  0  0  0  0  0  0  0  0  0  0
    8.7331   -0.7150    0.0000 H   0  0  0  0  0  0  0  0  0  0  0  0
   10.2573    5.4050    0.0000 H   0  0  0  0  0  0  0  0  0  0  0  0
    7.6592    0.9050    0.0000 H   0  0  0  0  0  0  0  0  0  0  0  0
    9.3913    3.9050    0.0000 H   0  0  0  0  0  0  0  0  0  0  0  0
   11.3503    3.0581    0.0000 H   0  0  0  0  0  0  0  0  0  0  0  0
   12.1972    3.2850    0.0000 H   0  0  0  0  0  0  0  0  0  0  0  0
   11.9703    4.1319    0.0000 H   0  0  0  0  0  0  0  0  0  0  0  0
    8.5252    2.4050    0.0000 H   0  0  0  0  0  0  0  0  0  0  0  0
   10.4651    2.2850    0.0000 H   0  0  0  0  0  0  0  0  0  0  0  0
    9.6182    0.0581    0.0000 H   0  0  0  0  0  0  0  0  0  0  0  0
   10.4651    0.2850    0.0000 H   0  0  0  0  0  0  0  0  0  0  0  0
   10.2382    1.1319    0.0000 H   0  0  0  0  0  0  0  0  0  0  0  0
  7  1  1  1  0  0  0
  1 59  1  0  0  0  0
  2  9  1  0  0  0  0
  2 60  1  0  0  0  0
  3 21  1  0  0  0  0
  3 76  1  0  0  0  0
 22  4  1  6  0  0  0
  4 77  1  0  0  0  0
  5  6  1  0  0  0  0
  5  8  1  0  0  0  0
  5 11  1  0  0  0  0
  5 12  1  0  0  0  0
  6  7  1  0  0  0  0
  6 45  1  0  0  0  0
  6 46  1  0  0  0  0
  7  9  1  0  0  0  0
  7 47  1  0  0  0  0
  8 10  2  0  0  0  0
  8 13  1  0  0  0  0
  9 10  1  0  0  0  0
  9 48  1  0  0  0  0
 10 14  1  0  0  0  0
 11 49  1  0  0  0  0
 11 53  1  0  0  0  0
 11 54  1  0  0  0  0
 12 50  1  0  0  0  0
 12 51  1  0  0  0  0
 12 52  1  0  0  0  0
 13 15  2  0  0  0  0
 13 55  1  0  0  0  0
 14 56  1  0  0  0  0
 14 57  1  0  0  0  0
 14 58  1  0  0  0  0
 15 16  1  0  0  0  0
 15 61  1  0  0  0  0
 16 17  1  0  0  0  0
 16 18  2  0  0  0  0
 17 62  1  0  0  0  0
 17 63  1  0  0  0  0
 17 64  1  0  0  0  0
 18 19  1  0  0  0  0
 18 65  1  0  0  0  0
 19 20  2  0  0  0  0
 19 66  1  0  0  0  0
 20 25  1  0  0  0  0
 20 67  1  0  0  0  0
 21 22  1  0  0  0  0
 21 23  1  0  0  0  0
 21 24  1  0  0  0  0
 22 26  1  0  0  0  0
 22 68  1  0  0  0  0
 23 72  1  0  0  0  0
 23 73  1  0  0  0  0
 23 74  1  0  0  0  0
 24 69  1  0  0  0  0
 24 70  1  0  0  0  0
 24 71  1  0  0  0  0
 25 27  1  0  0  0  0
 25 29  2  0  0  0  0
 26 28  2  0  0  0  0
 26 75  1  0  0  0  0
 27 78  1  0  0  0  0
 27 79  1  0  0  0  0
 27 80  1  0  0  0  0
 28 30  1  0  0  0  0
 28 81  1  0  0  0  0
 29 31  1  0  0  0  0
 29 82  1  0  0  0  0
 30 32  1  0  0  0  0
 30 33  2  0  0  0  0
 31 35  2  0  0  0  0
 31 86  1  0  0  0  0
 32 83  1  0  0  0  0
 32 84  1  0  0  0  0
 32 85  1  0  0  0  0
 33 34  1  0  0  0  0
 33 87  1  0  0  0  0
 34 36  2  0  0  0  0
 34 88  1  0  0  0  0
 35 37  1  0  0  0  0
 35 89  1  0  0  0  0
 36 38  1  0  0  0  0
 36 90  1  0  0  0  0
 37 39  2  0  0  0  0
 37 91  1  0  0  0  0
 38 40  2  0  0  0  0
 38 41  1  0  0  0  0
 39 42  1  0  0  0  0
 39 44  1  0  0  0  0
 40 43  1  0  0  0  0
 40 92  1  0  0  0  0
 41 93  1  0  0  0  0
 41 94  1  0  0  0  0
 41 95  1  0  0  0  0
 42 43  2  0  0  0  0
 42 96  1  0  0  0  0
 43 97  1  0  0  0  0
 44 98  1  0  0  0  0
 44 99  1  0  0  0  0
 44100  1  0  0  0  0
M  END
> <PUBCHEM_COMPOUND_CID>
23724608

> <PUBCHEM_COMPOUND_CANONICALIZED>
1

> <PUBCHEM_CACTVS_COMPLEXITY>
1330

> <PUBCHEM_CACTVS_HBOND_ACCEPTOR>
4

> <PUBCHEM_CACTVS_HBOND_DONOR>
4

> <PUBCHEM_CACTVS_ROTATABLE_BOND>
13

> <PUBCHEM_CACTVS_SUBSKEYS>
AAADcfB8OAAAAAAAAAAAAAAAAAAAAAAAAAAgAAAAAAAAAAAAAAAAGgAACAAADlSggAICAAAAAgCAAiBCAAAAAAAgAAAICAAAAAgJFAIAAQAAUAAEwAAJkAOAwMAPAAAAAAAAAAAAAAAAAAAAAAAAAAAAAA==

> <PUBCHEM_IUPAC_OPENEYE_NAME>
(1S)-4-[(1E,3E,5E,7E,9E,11E,13E,15E,17E,19E,21E,23S)-23,24-dihydroxy-3,7,12,16,20,24-hexamethyl-pentacosa-1,3,5,7,9,11,13,15,17,19,21-undecaenyl]-3,5,5-trimethyl-cyclohex-3-ene-1,2-diol

> <PUBCHEM_IUPAC_CAS_NAME>
(1S)-4-[(1E,3E,5E,7E,9E,11E,13E,15E,17E,19E,21E,23S)-23,24-dihydroxy-3,7,12,16,20,24-hexamethylpentacosa-1,3,5,7,9,11,13,15,17,19,21-undecaenyl]-3,5,5-trimethylcyclohex-3-ene-1,2-diol

> <PUBCHEM_IUPAC_NAME>
(1S)-4-[(1E,3E,5E,7E,9E,11E,13E,15E,17E,19E,21E,23S)-23,24-dihydroxy-3,7,12,16,20,24-hexamethylpentacosa-1,3,5,7,9,11,13,15,17,19,21-undecaenyl]-3,5,5-trimethylcyclohex-3-ene-1,2-diol

> <PUBCHEM_IUPAC_SYSTEMATIC_NAME>
(1S)-4-[(1E,3E,5E,7E,9E,11E,13E,15E,17E,19E,21E,23S)-3,7,12,16,20,24-hexamethyl-23,24-bis(oxidanyl)pentacosa-1,3,5,7,9,11,13,15,17,19,21-undecaenyl]-3,5,5-trimethyl-cyclohex-3-ene-1,2-diol

> <PUBCHEM_IUPAC_TRADITIONAL_NAME>
(1S)-4-[(1E,3E,5E,7E,9E,11E,13E,15E,17E,19E,21E,23S)-23,24-dihydroxy-3,7,12,16,20,24-hexamethyl-pentacosa-1,3,5,7,9,11,13,15,17,19,21-undecaenyl]-3,5,5-trimethyl-cyclohex-3-ene-1,2-diol

> <PUBCHEM_IUPAC_INCHI>
InChI=1S/C40H56O4/c1-29(18-13-20-31(3)21-15-23-33(5)25-27-37(42)40(9,10)44)16-11-12-17-30(2)19-14-22-32(4)24-26-35-34(6)38(43)36(41)28-39(35,7)8/h11-27,36-38,41-44H,28H2,1-10H3/b12-11+,18-13+,19-14+,21-15+,26-24+,27-25+,29-16+,30-17+,31-20+,32-22+,33-23+/t36-,37-,38?/m0/s1

> <PUBCHEM_IUPAC_INCHIKEY>
BOVRCQYBOHNUIF-GPAYNWNWSA-N

> <PUBCHEM_XLOGP3_AA>
9.6

> <PUBCHEM_EXACT_MASS>
600.41786

> <PUBCHEM_MOLECULAR_FORMULA>
C40H56O4

> <PUBCHEM_MOLECULAR_WEIGHT>
600.87024

> <PUBCHEM_OPENEYE_CAN_SMILES>
CC1=C(C(CC(C1O)O)(C)C)C=CC(=CC=CC(=CC=CC=C(C)C=CC=C(C)C=CC=C(C)C=CC(C(C)(C)O)O)C)C

> <PUBCHEM_OPENEYE_ISO_SMILES>
CC1=C(C(C[C@@H](C1O)O)(C)C)/C=C/C(=C/C=C/C(=C/C=C/C=C(\C)/C=C/C=C(\C)/C=C/C=C(\C)/C=C/[C@@H](C(C)(C)O)O)/C)/C

> <PUBCHEM_CACTVS_TPSA>
80.9

> <PUBCHEM_MONOISOTOPIC_WEIGHT>
600.41786

> <PUBCHEM_TOTAL_CHARGE>
0

> <PUBCHEM_HEAVY_ATOM_COUNT>
44

> <PUBCHEM_ATOM_DEF_STEREO_COUNT>
2

> <PUBCHEM_ATOM_UDEF_STEREO_COUNT>
1

> <PUBCHEM_BOND_DEF_STEREO_COUNT>
11

> <PUBCHEM_BOND_UDEF_STEREO_COUNT>
0

> <PUBCHEM_ISOTOPIC_ATOM_COUNT>
0

> <PUBCHEM_COMPONENT_COUNT>
1

> <PUBCHEM_CACTVS_TAUTO_COUNT>
1

> <PUBCHEM_COORDINATE_TYPE>
1
5
255

> <PUBCHEM_BONDANNOTATIONS>
7  1  5
9  2  3
22  4  6

$$$$

