42619
  -OEChem-07051213012D

 44 46  0     0  0  0  0  0  0999 V2000
    2.0000   -0.0818    0.0000 Cl  0  0  0  0  0  0  0  0  0  0  0  0
    3.7320   -3.0818    0.0000 Cl  0  0  0  0  0  0  0  0  0  0  0  0
    6.6706   -0.2757    0.0000 S   0  0  0  0  0  0  0  0  0  0  0  0
    5.7195    0.0333    0.0000 O   0  0  0  0  0  0  0  0  0  0  0  0
    6.3616   -1.2268    0.0000 O   0  0  0  0  0  0  0  0  0  0  0  0
    6.9796    0.6753    0.0000 O   0  0  0  0  0  0  0  0  0  0  0  0
    2.8660    1.4182    0.0000 O   0  0  0  0  0  0  0  0  0  0  0  0
    6.1808    1.7546    0.0000 N   0  0  0  0  0  0  0  0  0  0  0  0
    5.6808    2.6206    0.0000 N   0  0  0  0  0  0  0  0  0  0  0  0
    4.5981    1.4182    0.0000 C   0  0  0  0  0  0  0  0  0  0  0  0
    5.5116    1.0114    0.0000 C   0  0  0  0  0  0  0  0  0  0  0  0
    4.7026    2.4127    0.0000 C   0  0  0  0  0  0  0  0  0  0  0  0
    3.7320    0.9182    0.0000 C   0  0  0  0  0  0  0  0  0  0  0  0
    7.6216   -0.5847    0.0000 C   0  0  0  0  0  0  0  0  0  0  0  0
    3.7320   -0.0818    0.0000 C   0  0  0  0  0  0  0  0  0  0  0  0
    3.9595    3.0818    0.0000 C   0  0  0  0  0  0  0  0  0  0  0  0
    7.1753    1.6500    0.0000 C   0  0  0  0  0  0  0  0  0  0  0  0
    7.8296   -1.5629    0.0000 C   0  0  0  0  0  0  0  0  0  0  0  0
    8.3648    0.0844    0.0000 C   0  0  0  0  0  0  0  0  0  0  0  0
    9.5238   -1.2028    0.0000 C   0  0  0  0  0  0  0  0  0  0  0  0
    8.7806   -1.8719    0.0000 C   0  0  0  0  0  0  0  0  0  0  0  0
    9.3158   -0.2246    0.0000 C   0  0  0  0  0  0  0  0  0  0  0  0
    2.8660   -0.5818    0.0000 C   0  0  0  0  0  0  0  0  0  0  0  0
    4.5981   -0.5818    0.0000 C   0  0  0  0  0  0  0  0  0  0  0  0
   10.4748   -1.5118    0.0000 C   0  0  0  0  0  0  0  0  0  0  0  0
    2.8660   -1.5818    0.0000 C   0  0  0  0  0  0  0  0  0  0  0  0
    4.5981   -1.5818    0.0000 C   0  0  0  0  0  0  0  0  0  0  0  0
    3.7320   -2.0818    0.0000 C   0  0  0  0  0  0  0  0  0  0  0  0
    4.3743    3.5426    0.0000 H   0  0  0  0  0  0  0  0  0  0  0  0
    3.4987    3.4967    0.0000 H   0  0  0  0  0  0  0  0  0  0  0  0
    3.5446    2.6211    0.0000 H   0  0  0  0  0  0  0  0  0  0  0  0
    7.1105    1.0334    0.0000 H   0  0  0  0  0  0  0  0  0  0  0  0
    7.7919    1.5852    0.0000 H   0  0  0  0  0  0  0  0  0  0  0  0
    7.2401    2.2667    0.0000 H   0  0  0  0  0  0  0  0  0  0  0  0
    7.3688   -1.9778    0.0000 H   0  0  0  0  0  0  0  0  0  0  0  0
    8.2359    0.6908    0.0000 H   0  0  0  0  0  0  0  0  0  0  0  0
    8.9095   -2.4784    0.0000 H   0  0  0  0  0  0  0  0  0  0  0  0
    9.7766    0.1902    0.0000 H   0  0  0  0  0  0  0  0  0  0  0  0
    5.1350   -0.2718    0.0000 H   0  0  0  0  0  0  0  0  0  0  0  0
   10.2832   -2.1014    0.0000 H   0  0  0  0  0  0  0  0  0  0  0  0
   11.0645   -1.7034    0.0000 H   0  0  0  0  0  0  0  0  0  0  0  0
   10.6664   -0.9221    0.0000 H   0  0  0  0  0  0  0  0  0  0  0  0
    2.3291   -1.8918    0.0000 H   0  0  0  0  0  0  0  0  0  0  0  0
    5.1350   -1.8918    0.0000 H   0  0  0  0  0  0  0  0  0  0  0  0
  1 23  1  0  0  0  0
  2 28  1  0  0  0  0
  3  4  1  0  0  0  0
  3  5  2  0  0  0  0
  3  6  2  0  0  0  0
  3 14  1  0  0  0  0
  4 11  1  0  0  0  0
  7 13  2  0  0  0  0
  8  9  1  0  0  0  0
  8 11  1  0  0  0  0
  8 17  1  0  0  0  0
  9 12  2  0  0  0  0
 10 11  2  0  0  0  0
 10 12  1  0  0  0  0
 10 13  1  0  0  0  0
 12 16  1  0  0  0  0
 13 15  1  0  0  0  0
 14 18  2  0  0  0  0
 14 19  1  0  0  0  0
 15 23  2  0  0  0  0
 15 24  1  0  0  0  0
 16 29  1  0  0  0  0
 16 30  1  0  0  0  0
 16 31  1  0  0  0  0
 17 32  1  0  0  0  0
 17 33  1  0  0  0  0
 17 34  1  0  0  0  0
 18 21  1  0  0  0  0
 18 35  1  0  0  0  0
 19 22  2  0  0  0  0
 19 36  1  0  0  0  0
 20 21  2  0  0  0  0
 20 22  1  0  0  0  0
 20 25  1  0  0  0  0
 21 37  1  0  0  0  0
 22 38  1  0  0  0  0
 23 26  1  0  0  0  0
 24 27  2  0  0  0  0
 24 39  1  0  0  0  0
 25 40  1  0  0  0  0
 25 41  1  0  0  0  0
 25 42  1  0  0  0  0
 26 28  2  0  0  0  0
 26 43  1  0  0  0  0
 27 28  1  0  0  0  0
 27 44  1  0  0  0  0
M  END
> <PUBCHEM_COMPOUND_CID>
42619

> <PUBCHEM_COMPOUND_CANONICALIZED>
1

> <PUBCHEM_CACTVS_COMPLEXITY>
663

> <PUBCHEM_CACTVS_HBOND_ACCEPTOR>
5

> <PUBCHEM_CACTVS_HBOND_DONOR>
0

> <PUBCHEM_CACTVS_ROTATABLE_BOND>
5

> <PUBCHEM_CACTVS_SUBSKEYS>
AAADceB7OABGAAAAAAAAAAAAAAAAAWAAAAAwYAAAAAAAAAAB0AAAHgYIAAAADA6B3iQyhZIIAAKqA6RyRHDSBEAlpQAY2Dk8TtgIJj7B19KEtchmqBhIzceYyOCOFAAAAACBAAAoAAAAAQIAAAAAAAAAAA==

> <PUBCHEM_IUPAC_OPENEYE_NAME>
[4-(2,4-dichlorobenzoyl)-2,5-dimethyl-pyrazol-3-yl] 4-methylbenzenesulfonate

> <PUBCHEM_IUPAC_CAS_NAME>
4-methylbenzenesulfonic acid [4-[(2,4-dichlorophenyl)-oxomethyl]-2,5-dimethyl-3-pyrazolyl] ester

> <PUBCHEM_IUPAC_NAME>
[4-(2,4-dichlorobenzoyl)-2,5-dimethylpyrazol-3-yl] 4-methylbenzenesulfonate

> <PUBCHEM_IUPAC_SYSTEMATIC_NAME>
[4-(2,4-dichlorophenyl)carbonyl-2,5-dimethyl-pyrazol-3-yl] 4-methylbenzenesulfonate

> <PUBCHEM_IUPAC_TRADITIONAL_NAME>
4-methylbenzenesulfonic acid [4-(2,4-dichlorobenzoyl)-2,5-dimethyl-pyrazol-3-yl] ester

> <PUBCHEM_IUPAC_INCHI>
InChI=1S/C19H16Cl2N2O4S/c1-11-4-7-14(8-5-11)28(25,26)27-19-17(12(2)22-23(19)3)18(24)15-9-6-13(20)10-16(15)21/h4-10H,1-3H3

> <PUBCHEM_IUPAC_INCHIKEY>
ASRAWSBMDXVNLX-UHFFFAOYSA-N

> <PUBCHEM_XLOGP3>
3.8

> <PUBCHEM_EXACT_MASS>
438.020783

> <PUBCHEM_MOLECULAR_FORMULA>
C19H16Cl2N2O4S

> <PUBCHEM_MOLECULAR_WEIGHT>
439.31234

> <PUBCHEM_OPENEYE_CAN_SMILES>
CC1=CC=C(C=C1)S(=O)(=O)OC2=C(C(=NN2C)C)C(=O)C3=C(C=C(C=C3)Cl)Cl

> <PUBCHEM_OPENEYE_ISO_SMILES>
CC1=CC=C(C=C1)S(=O)(=O)OC2=C(C(=NN2C)C)C(=O)C3=C(C=C(C=C3)Cl)Cl

> <PUBCHEM_CACTVS_TPSA>
86.6

> <PUBCHEM_MONOISOTOPIC_WEIGHT>
438.020783

> <PUBCHEM_TOTAL_CHARGE>
0

> <PUBCHEM_HEAVY_ATOM_COUNT>
28

> <PUBCHEM_ATOM_DEF_STEREO_COUNT>
0

> <PUBCHEM_ATOM_UDEF_STEREO_COUNT>
0

> <PUBCHEM_BOND_DEF_STEREO_COUNT>
0

> <PUBCHEM_BOND_UDEF_STEREO_COUNT>
0

> <PUBCHEM_ISOTOPIC_ATOM_COUNT>
0

> <PUBCHEM_COMPONENT_COUNT>
1

> <PUBCHEM_CACTVS_TAUTO_COUNT>
1

> <PUBCHEM_COORDINATE_TYPE>
1
5
255

> <PUBCHEM_BONDANNOTATIONS>
10  11  8
10  12  8
14  18  8
14  19  8
15  23  8
15  24  8
18  21  8
19  22  8
20  21  8
20  22  8
23  26  8
24  27  8
26  28  8
27  28  8
8  11  8
8  9  8
9  12  8

$$$$

