51090946
  -OEChem-06241223013D

 50 53  0     0  0  0  0  0  0999 V2000
   -0.2328    3.4281   -0.1841 O   0  0  0  0  0  0  0  0  0  0  0  0
   -3.0853    0.7362   -1.5007 O   0  0  0  0  0  0  0  0  0  0  0  0
    4.4228   -0.5752   -0.1366 N   0  0  0  0  0  0  0  0  0  0  0  0
    0.8201    1.4948    0.6040 N   0  0  0  0  0  0  0  0  0  0  0  0
   -1.9198    1.4920   -1.5375 N   0  0  0  0  0  0  0  0  0  0  0  0
    3.3155    0.0363    0.5978 C   0  0  0  0  0  0  0  0  0  0  0  0
    1.9910   -0.6352    0.2083 C   0  0  0  0  0  0  0  0  0  0  0  0
    3.2621    1.5435    0.3117 C   0  0  0  0  0  0  0  0  0  0  0  0
    4.5142   -2.0093    0.1714 C   0  0  0  0  0  0  0  0  0  0  0  0
    5.6842    0.1148    0.1674 C   0  0  0  0  0  0  0  0  0  0  0  0
    0.8112    0.0542    0.8916 C   0  0  0  0  0  0  0  0  0  0  0  0
    2.0510    2.1867    0.9866 C   0  0  0  0  0  0  0  0  0  0  0  0
    6.8452   -0.4811   -0.6302 C   0  0  0  0  0  0  0  0  0  0  0  0
    5.6368   -2.6747   -0.6264 C   0  0  0  0  0  0  0  0  0  0  0  0
    6.9729   -1.9807   -0.3877 C   0  0  0  0  0  0  0  0  0  0  0  0
   -0.2395    2.2218    0.0570 C   0  0  0  0  0  0  0  0  0  0  0  0
   -1.4738    1.5010   -0.2781 C   0  0  0  0  0  0  0  0  0  0  0  0
   -2.3086    0.7749    0.5889 C   0  0  0  0  0  0  0  0  0  0  0  0
   -3.3063    0.3149   -0.2293 C   0  0  0  0  0  0  0  0  0  0  0  0
   -4.4827   -0.4821   -0.0348 C   0  0  0  0  0  0  0  0  0  0  0  0
   -4.7971   -0.9628    1.2362 C   0  0  0  0  0  0  0  0  0  0  0  0
   -5.3123   -0.7763   -1.1167 C   0  0  0  0  0  0  0  0  0  0  0  0
   -5.9414   -1.7379    1.4255 C   0  0  0  0  0  0  0  0  0  0  0  0
   -6.4565   -1.5514   -0.9276 C   0  0  0  0  0  0  0  0  0  0  0  0
   -6.7710   -2.0323    0.3434 C   0  0  0  0  0  0  0  0  0  0  0  0
    3.4644   -0.0980    1.6794 H   0  0  0  0  0  0  0  0  0  0  0  0
    4.1325    2.0762    0.7065 H   0  0  0  0  0  0  0  0  0  0  0  0
    3.2122    1.7252   -0.7699 H   0  0  0  0  0  0  0  0  0  0  0  0
    1.8525   -0.5979   -0.8803 H   0  0  0  0  0  0  0  0  0  0  0  0
    1.9468   -1.6839    0.5161 H   0  0  0  0  0  0  0  0  0  0  0  0
    3.6099   -2.5509   -0.1174 H   0  0  0  0  0  0  0  0  0  0  0  0
    4.6749   -2.1740    1.2448 H   0  0  0  0  0  0  0  0  0  0  0  0
    5.9106    0.0758    1.2408 H   0  0  0  0  0  0  0  0  0  0  0  0
    5.6643    1.1646   -0.1370 H   0  0  0  0  0  0  0  0  0  0  0  0
    0.8670   -0.0647    1.9800 H   0  0  0  0  0  0  0  0  0  0  0  0
   -0.1015   -0.4331    0.5513 H   0  0  0  0  0  0  0  0  0  0  0  0
    1.9987    3.2478    0.7222 H   0  0  0  0  0  0  0  0  0  0  0  0
    2.1379    2.1238    2.0779 H   0  0  0  0  0  0  0  0  0  0  0  0
    6.6897   -0.2972   -1.7011 H   0  0  0  0  0  0  0  0  0  0  0  0
    7.7809    0.0178   -0.3532 H   0  0  0  0  0  0  0  0  0  0  0  0
    5.7154   -3.7314   -0.3462 H   0  0  0  0  0  0  0  0  0  0  0  0
    5.3961   -2.6446   -1.6968 H   0  0  0  0  0  0  0  0  0  0  0  0
    7.2982   -2.1580    0.6448 H   0  0  0  0  0  0  0  0  0  0  0  0
    7.7401   -2.4045   -1.0449 H   0  0  0  0  0  0  0  0  0  0  0  0
   -2.1977    0.6190    1.6524 H   0  0  0  0  0  0  0  0  0  0  0  0
   -4.1703   -0.7504    2.0984 H   0  0  0  0  0  0  0  0  0  0  0  0
   -5.1015   -0.4204   -2.1219 H   0  0  0  0  0  0  0  0  0  0  0  0
   -6.1866   -2.1125    2.4150 H   0  0  0  0  0  0  0  0  0  0  0  0
   -7.1029   -1.7808   -1.7697 H   0  0  0  0  0  0  0  0  0  0  0  0
   -7.6618   -2.6358    0.4906 H   0  0  0  0  0  0  0  0  0  0  0  0
  1 16  2  0  0  0  0
  2  5  1  0  0  0  0
  2 19  1  0  0  0  0
  3  6  1  0  0  0  0
  3  9  1  0  0  0  0
  3 10  1  0  0  0  0
  4 11  1  0  0  0  0
  4 12  1  0  0  0  0
  4 16  1  0  0  0  0
  5 17  2  0  0  0  0
  6  7  1  0  0  0  0
  6  8  1  0  0  0  0
  6 26  1  0  0  0  0
  7 11  1  0  0  0  0
  7 29  1  0  0  0  0
  7 30  1  0  0  0  0
  8 12  1  0  0  0  0
  8 27  1  0  0  0  0
  8 28  1  0  0  0  0
  9 14  1  0  0  0  0
  9 31  1  0  0  0  0
  9 32  1  0  0  0  0
 10 13  1  0  0  0  0
 10 33  1  0  0  0  0
 10 34  1  0  0  0  0
 11 35  1  0  0  0  0
 11 36  1  0  0  0  0
 12 37  1  0  0  0  0
 12 38  1  0  0  0  0
 13 15  1  0  0  0  0
 13 39  1  0  0  0  0
 13 40  1  0  0  0  0
 14 15  1  0  0  0  0
 14 41  1  0  0  0  0
 14 42  1  0  0  0  0
 15 43  1  0  0  0  0
 15 44  1  0  0  0  0
 16 17  1  0  0  0  0
 17 18  1  0  0  0  0
 18 19  2  0  0  0  0
 18 45  1  0  0  0  0
 19 20  1  0  0  0  0
 20 21  2  0  0  0  0
 20 22  1  0  0  0  0
 21 23  1  0  0  0  0
 21 46  1  0  0  0  0
 22 24  2  0  0  0  0
 22 47  1  0  0  0  0
 23 25  2  0  0  0  0
 23 48  1  0  0  0  0
 24 25  1  0  0  0  0
 24 49  1  0  0  0  0
 25 50  1  0  0  0  0
M  END
> <PUBCHEM_COMPOUND_CID>
51090946

> <PUBCHEM_CONFORMER_RMSD>
0.8

> <PUBCHEM_CONFORMER_DIVERSEORDER>
1
21
33
25
23
45
7
32
40
39
41
15
8
18
47
43
26
37
48
3
13
42
29
16
30
28
12
9
19
14
17
35
49
44
6
10
24
34
2
5
31
27
22
46
4
36
11
20
38

> <PUBCHEM_MMFF94_PARTIAL_CHARGES>
26
1 -0.57
10 0.27
11 0.3
12 0.3
16 0.72
17 0.2
18 -0.15
19 0.09
2 -0.02
20 0.05
21 -0.15
22 -0.15
23 -0.15
24 -0.15
25 -0.15
3 -0.81
4 -0.66
45 0.15
46 0.15
47 0.15
48 0.15
49 0.15
5 -0.41
50 0.15
6 0.27
9 0.27

> <PUBCHEM_EFFECTIVE_ROTOR_COUNT>
6.4

> <PUBCHEM_PHARMACOPHORE_FEATURES>
7
1 1 acceptor
1 3 cation
1 5 acceptor
5 2 5 17 18 19 rings
6 20 21 22 23 24 25 rings
6 3 9 10 13 14 15 rings
6 4 6 7 8 11 12 rings

> <PUBCHEM_HEAVY_ATOM_COUNT>
25

> <PUBCHEM_ATOM_DEF_STEREO_COUNT>
0

> <PUBCHEM_ATOM_UDEF_STEREO_COUNT>
0

> <PUBCHEM_BOND_DEF_STEREO_COUNT>
0

> <PUBCHEM_BOND_UDEF_STEREO_COUNT>
0

> <PUBCHEM_ISOTOPIC_ATOM_COUNT>
0

> <PUBCHEM_COMPONENT_COUNT>
1

> <PUBCHEM_CACTVS_TAUTO_COUNT>
1

> <PUBCHEM_CONFORMER_ID>
030B960200000001

> <PUBCHEM_MMFF94_ENERGY>
46.0365

> <PUBCHEM_FEATURE_SELFOVERLAP>
35.522

> <PUBCHEM_SHAPE_FINGERPRINT>
10076449 9 18187076257654793290
10319926 262 13840264737141036125
10692045 39 6050183094117566740
10740516 88 18057309610312579163
11089746 13 12175617370014637738
11809386 21 18198631132065981984
11963148 33 18336835272707362174
12107183 9 18188197810907611769
12166972 35 17846493729893470364
12403259 118 6483055388844310793
12592606 108 18334580114903633487
12596602 18 16660365831687735771
12623949 98 18041270058991701078
12633257 1 15719399399580520837
12760667 363 18409166606658732939
13103583 49 15719402723885026252
13402501 40 18413669097710424139
13533116 47 18115026299008843833
13540713 4 18264510479768278992
13673619 4 18408603660314885881
13685833 64 18334857208042751490
13690498 29 18272376390664145661
13757389 114 17701546344981992237
13782708 43 18342742922511749506
13911852 28 18335141990355263509
13955234 65 18043538200808463576
14123256 34 18409445890532436855
14251764 30 18335139795199804815
14350574 20 18411138030632912328
14931854 50 17775571961115717059
15238133 3 5978100280553337520
15352257 5 18334856112747586798
15510800 12 18058162835535293723
15519825 34 14780129484482892455
17134984 74 17846500327259084378
17492 89 18120372318692558758
18335252 98 18409728448848266818
19246450 95 17750778009302471395
19784866 240 18411979140222961481
20028762 73 17967816037383324614
20165401 70 18117842106298624495
20281389 69 7997970176005205142
20567600 254 6338963231110797515
20621476 21 18201434732351559531
20715895 44 10015579515507766462
21033650 10 16773522178414073469
21049683 271 18336542734437910328
21150785 3 17418368091694246158
21196832 93 17917137300365182794
21267235 1 18408882923398860579
21307412 95 18059577945828993779
21344244 246 17916573238511065340
21365058 113 17988359278572138013
21585481 104 15123243198821422375
21585483 132 17629492062670083906
21623969 137 18113334236924674414
21682296 61 18408884027865104943
21774942 28 13254531885038203446
221357 26 18412829088116909466
22149856 69 18114455747696181016
22288116 15 14189281631019831467
22765269 38 9151177545424874667
229767 8 17753880920968639870
23522609 53 18045467937935601816
23559900 14 17632016351839177829
270888 7 9871745793280486390
2748736 6 10159697980005671110
2838139 119 9871754572325735907
2916195 48 7997974578989956439
3004659 81 17988928850921458680
3089732 80 18413387618407013195
314194 84 18335140839261739257
329604 57 18342172289320414238
34797466 226 16988280859609194629
3737641 26 17896032316308783254
3862424 121 17344606160097233747
393628 179 11599717325581763214
4107672 100 17703513315565071989
437815 12 18412544293373098161
439807 62 18343301504525687126
46194498 28 17988647359408834476
465052 167 18187363220929795588
474113 269 17604161333600278255
50009960 94 17840037565689846994
5104073 3 17822294612653111048
54039377 194 18261387880415553374
543368 44 11167950156584317271
5470011 282 17775562035804836246
5718773 13 18339082713503223018
636775 8 18335691798405683086
6608658 132 14907910409188972927
7970288 3 18334861614547822167
8217 86 18342174488201257854
8863177 126 18337110064234106555
9980921 7 17773862140522973212
999808 66 18410849962960965275

> <PUBCHEM_SHAPE_MULTIPOLES>
487.81
19.5
2.9
1.16
1.57
0.79
-0.07
-18.83
-1.68
1.33
-0.07
-1.39
-0.05
1.5

> <PUBCHEM_SHAPE_SELFOVERLAP>
1043.4

> <PUBCHEM_SHAPE_VOLUME>
268.9

> <PUBCHEM_COORDINATE_TYPE>
2
5
10

$$$$

