5719
  -OEChem-07051212533D

 38 40  0     0  0  0  0  0  0999 V2000
   -2.3117    2.4669   -0.1697 O   0  0  0  0  0  0  0  0  0  0  0  0
   -3.6728    0.5603    0.1170 N   0  0  0  0  0  0  0  0  0  0  0  0
    1.9691   -0.1876    0.1911 N   0  0  0  0  0  0  0  0  0  0  0  0
    1.8928    0.4912    1.3705 N   0  0  0  0  0  0  0  0  0  0  0  0
    3.5533   -0.6351   -1.5712 N   0  0  0  0  0  0  0  0  0  0  0  0
    6.4393    1.4665    0.1742 N   0  0  0  0  0  0  0  0  0  0  0  0
   -0.3753   -1.0991    0.1551 C   0  0  0  0  0  0  0  0  0  0  0  0
   -2.6568   -0.3471    0.4187 C   0  0  0  0  0  0  0  0  0  0  0  0
    0.9620   -0.9358   -0.4427 C   0  0  0  0  0  0  0  0  0  0  0  0
   -1.3910   -0.1914   -0.1464 C   0  0  0  0  0  0  0  0  0  0  0  0
   -5.0778    0.0539    0.0323 C   0  0  0  0  0  0  0  0  0  0  0  0
   -0.6264   -2.1626    1.0225 C   0  0  0  0  0  0  0  0  0  0  0  0
   -2.9074   -1.4106    1.2859 C   0  0  0  0  0  0  0  0  0  0  0  0
    3.2377   -0.0517   -0.3812 C   0  0  0  0  0  0  0  0  0  0  0  0
   -1.8922   -2.3183    1.5878 C   0  0  0  0  0  0  0  0  0  0  0  0
    1.2315   -1.5281   -1.6183 C   0  0  0  0  0  0  0  0  0  0  0  0
   -3.4265    1.9399   -0.2044 C   0  0  0  0  0  0  0  0  0  0  0  0
   -5.3582   -0.4780   -1.3601 C   0  0  0  0  0  0  0  0  0  0  0  0
    3.9739    0.7305    0.4789 C   0  0  0  0  0  0  0  0  0  0  0  0
    2.6068   -1.3189   -2.1353 C   0  0  0  0  0  0  0  0  0  0  0  0
    3.0995    1.0311    1.5296 C   0  0  0  0  0  0  0  0  0  0  0  0
   -4.5960    2.7897   -0.6461 C   0  0  0  0  0  0  0  0  0  0  0  0
    5.3261    1.1342    0.3117 C   0  0  0  0  0  0  0  0  0  0  0  0
   -1.1776    0.5913   -0.8685 H   0  0  0  0  0  0  0  0  0  0  0  0
   -5.7783    0.8614    0.2593 H   0  0  0  0  0  0  0  0  0  0  0  0
   -5.2939   -0.7128    0.7768 H   0  0  0  0  0  0  0  0  0  0  0  0
    0.1552   -2.8767    1.2703 H   0  0  0  0  0  0  0  0  0  0  0  0
   -3.8537   -1.5563    1.7938 H   0  0  0  0  0  0  0  0  0  0  0  0
   -2.0831   -3.1401    2.2719 H   0  0  0  0  0  0  0  0  0  0  0  0
    0.5344   -2.1284   -2.1877 H   0  0  0  0  0  0  0  0  0  0  0  0
   -6.4080   -0.7755   -1.4469 H   0  0  0  0  0  0  0  0  0  0  0  0
   -4.7428   -1.3595   -1.5701 H   0  0  0  0  0  0  0  0  0  0  0  0
   -5.1477    0.2569   -2.1415 H   0  0  0  0  0  0  0  0  0  0  0  0
    2.8161   -1.8092   -3.1002 H   0  0  0  0  0  0  0  0  0  0  0  0
    3.2851    1.6256    2.4132 H   0  0  0  0  0  0  0  0  0  0  0  0
   -4.2242    3.7678   -0.9695 H   0  0  0  0  0  0  0  0  0  0  0  0
   -5.1231    2.3466   -1.4908 H   0  0  0  0  0  0  0  0  0  0  0  0
   -5.2770    2.9562    0.1924 H   0  0  0  0  0  0  0  0  0  0  0  0
  1 17  2  0  0  0  0
  2  8  1  0  0  0  0
  2 11  1  0  0  0  0
  2 17  1  0  0  0  0
  3  4  1  0  0  0  0
  3  9  1  0  0  0  0
  3 14  1  0  0  0  0
  4 21  2  0  0  0  0
  5 14  1  0  0  0  0
  5 20  2  0  0  0  0
  6 23  3  0  0  0  0
  7  9  1  0  0  0  0
  7 10  2  0  0  0  0
  7 12  1  0  0  0  0
  8 10  1  0  0  0  0
  8 13  2  0  0  0  0
  9 16  2  0  0  0  0
 10 24  1  0  0  0  0
 11 18  1  0  0  0  0
 11 25  1  0  0  0  0
 11 26  1  0  0  0  0
 12 15  2  0  0  0  0
 12 27  1  0  0  0  0
 13 15  1  0  0  0  0
 13 28  1  0  0  0  0
 14 19  2  0  0  0  0
 15 29  1  0  0  0  0
 16 20  1  0  0  0  0
 16 30  1  0  0  0  0
 17 22  1  0  0  0  0
 18 31  1  0  0  0  0
 18 32  1  0  0  0  0
 18 33  1  0  0  0  0
 19 21  1  0  0  0  0
 19 23  1  0  0  0  0
 20 34  1  0  0  0  0
 21 35  1  0  0  0  0
 22 36  1  0  0  0  0
 22 37  1  0  0  0  0
 22 38  1  0  0  0  0
M  END
> <PUBCHEM_COMPOUND_CID>
5719

> <PUBCHEM_CONFORMER_RMSD>
0.6

> <PUBCHEM_CONFORMER_DIVERSEORDER>
1
47
22
16
80
48
21
13
49
41
62
3
38
20
55
71
6
85
39
73
36
64
83
9
50
33
69
11
7
52
60
23
18
58
42
17
25
81
68
51
46
8
82
5
24
26
29
34
37
59
76
72
56
14
40
10
54
44
27
2
84
19
86
15
57
75
70
4
45
12
74
28
53
63
61
43
32
79
67
65
78
87
77
66
35
30
88
31

> <PUBCHEM_MMFF94_PARTIAL_CHARGES>
29
1 -0.57
10 -0.15
11 0.3
12 -0.15
13 -0.15
14 -0.03
15 -0.15
16 -0.14
17 0.57
19 0.02
2 -0.48
20 0.38
21 0.14
22 0.06
23 0.54
24 0.15
27 0.15
28 0.15
29 0.15
3 0.6
30 0.15
34 0.06
35 0.15
4 -0.71
5 -0.58
6 -0.56
7 0.03
8 0.12
9 -0.06

> <PUBCHEM_EFFECTIVE_ROTOR_COUNT>
4

> <PUBCHEM_PHARMACOPHORE_FEATURES>
7
1 1 acceptor
1 4 acceptor
1 5 acceptor
1 6 acceptor
5 3 4 14 19 21 rings
6 3 5 9 14 16 20 rings
6 7 8 10 12 13 15 rings

> <PUBCHEM_HEAVY_ATOM_COUNT>
23

> <PUBCHEM_ATOM_DEF_STEREO_COUNT>
0

> <PUBCHEM_ATOM_UDEF_STEREO_COUNT>
0

> <PUBCHEM_BOND_DEF_STEREO_COUNT>
0

> <PUBCHEM_BOND_UDEF_STEREO_COUNT>
0

> <PUBCHEM_ISOTOPIC_ATOM_COUNT>
0

> <PUBCHEM_COMPONENT_COUNT>
1

> <PUBCHEM_CACTVS_TAUTO_COUNT>
1

> <PUBCHEM_CONFORMER_ID>
0000165700000001

> <PUBCHEM_MMFF94_ENERGY>
73.8373

> <PUBCHEM_FEATURE_SELFOVERLAP>
35.647

> <PUBCHEM_SHAPE_FINGERPRINT>
10366900 7 18260832566059123513
10498660 4 18269556212090356261
11640471 11 16845278441397973043
11725454 13 18261967300666435243
12107183 9 17843418507819136850
12236239 1 16558752274057294938
12403259 415 18337661018575562831
12596602 18 16845290484528664272
12670546 177 17676492743970744335
13257819 101 18260269621070829348
13402501 40 18335144180441087720
13583140 156 18335981965699809938
13911987 19 17314500445054008128
13965767 371 17130431404673103037
14178342 30 17917703570170048722
14251764 38 18412543176276082021
15537594 2 6122505705133823565
15961568 22 18411419488351412452
17349148 13 17917994966979798095
19930381 70 17169005378380217993
200 152 15864066572463242083
20600515 1 18060409222856300957
20645477 70 17385996317340776150
21033648 29 18199734986006115657
23402539 116 18342184310733792455
235170 7 17604152622746971861
23557571 272 18338510816647374179
23559900 14 18200293520796928406
26918003 58 12319459895859095405
2838139 119 18335430036658681108
341906 21 18131628989133738981
3633792 109 17202228341868233971
4325135 7 17313106311538447007
495365 180 18114750442107994066
5104073 3 18057880436944701649
7808743 9 18272651238089859536
7970288 3 7060075779930083085
9849439 229 17843405343803260205
9981440 41 18059853995797331987

> <PUBCHEM_SHAPE_MULTIPOLES>
442.55
11.89
2.44
1.58
3.87
0.77
-0.37
7.21
-1.23
-2.2
0.22
0.66
-0.8
2.01

> <PUBCHEM_SHAPE_SELFOVERLAP>
958.688

> <PUBCHEM_SHAPE_VOLUME>
239.2

> <PUBCHEM_COORDINATE_TYPE>
2
5
10

$$$$

