5656
  -OEChem-07051212533D

 47 48  0     1  0  0  0  0  0999 V2000
   -1.3927    0.8058   -1.4661 O   0  0  0  0  0  0  0  0  0  0  0  0
    4.4969    1.3236    0.2106 O   0  0  0  0  0  0  0  0  0  0  0  0
    0.0477   -3.0183   -0.0507 N   0  0  0  0  0  0  0  0  0  0  0  0
   -1.7711    0.3789   -0.1540 C   0  0  0  0  0  0  0  0  0  0  0  0
   -0.7728   -0.6898    0.2947 C   0  0  1  0  0  0  0  0  0  0  0  0
   -1.7062    1.5986    0.7781 C   0  0  0  0  0  0  0  0  0  0  0  0
   -3.1962   -0.1955   -0.2056 C   0  0  0  0  0  0  0  0  0  0  0  0
   -2.7527    2.6566    0.4237 C   0  0  0  0  0  0  0  0  0  0  0  0
   -4.2368    0.8680   -0.5593 C   0  0  0  0  0  0  0  0  0  0  0  0
   -4.1581    2.0656    0.3820 C   0  0  0  0  0  0  0  0  0  0  0  0
   -0.8659   -1.9878   -0.5357 C   0  0  0  0  0  0  0  0  0  0  0  0
    0.6500   -0.1464    0.2719 C   0  0  0  0  0  0  0  0  0  0  0  0
    1.3498   -0.0639    1.4573 C   0  0  0  0  0  0  0  0  0  0  0  0
    1.1931    0.2459   -0.9336 C   0  0  0  0  0  0  0  0  0  0  0  0
   -0.0169   -4.2049   -0.9044 C   0  0  0  0  0  0  0  0  0  0  0  0
   -0.2642   -3.3703    1.3350 C   0  0  0  0  0  0  0  0  0  0  0  0
    2.6525    0.4340    1.4364 C   0  0  0  0  0  0  0  0  0  0  0  0
    2.4960    0.7437   -0.9546 C   0  0  0  0  0  0  0  0  0  0  0  0
    3.2259    0.8377    0.2305 C   0  0  0  0  0  0  0  0  0  0  0  0
    5.0217    1.7183   -1.0561 C   0  0  0  0  0  0  0  0  0  0  0  0
   -1.0465   -0.9229    1.3321 H   0  0  0  0  0  0  0  0  0  0  0  0
   -0.7287    2.0915    0.7228 H   0  0  0  0  0  0  0  0  0  0  0  0
   -1.8587    1.2867    1.8193 H   0  0  0  0  0  0  0  0  0  0  0  0
   -3.4582   -0.6482    0.7588 H   0  0  0  0  0  0  0  0  0  0  0  0
   -3.2912   -0.9679   -0.9762 H   0  0  0  0  0  0  0  0  0  0  0  0
   -2.5140    3.1023   -0.5496 H   0  0  0  0  0  0  0  0  0  0  0  0
   -2.7175    3.4677    1.1600 H   0  0  0  0  0  0  0  0  0  0  0  0
   -5.2402    0.4294   -0.5118 H   0  0  0  0  0  0  0  0  0  0  0  0
   -4.0873    1.2046   -1.5925 H   0  0  0  0  0  0  0  0  0  0  0  0
   -4.4532    1.7552    1.3919 H   0  0  0  0  0  0  0  0  0  0  0  0
   -4.8719    2.8333    0.0627 H   0  0  0  0  0  0  0  0  0  0  0  0
   -1.8830   -2.3935   -0.5047 H   0  0  0  0  0  0  0  0  0  0  0  0
   -0.6460   -1.7808   -1.5901 H   0  0  0  0  0  0  0  0  0  0  0  0
   -1.6630    0.1238   -2.1036 H   0  0  0  0  0  0  0  0  0  0  0  0
    0.9133   -0.3663    2.4039 H   0  0  0  0  0  0  0  0  0  0  0  0
    0.6980    0.1257   -1.8893 H   0  0  0  0  0  0  0  0  0  0  0  0
    0.2476   -3.9519   -1.9373 H   0  0  0  0  0  0  0  0  0  0  0  0
   -1.0132   -4.6620   -0.9048 H   0  0  0  0  0  0  0  0  0  0  0  0
    0.7076   -4.9573   -0.5736 H   0  0  0  0  0  0  0  0  0  0  0  0
    0.3324   -4.2366    1.6468 H   0  0  0  0  0  0  0  0  0  0  0  0
   -1.3198   -3.6328    1.4717 H   0  0  0  0  0  0  0  0  0  0  0  0
    0.0008   -2.5830    2.0439 H   0  0  0  0  0  0  0  0  0  0  0  0
    3.2154    0.5069    2.3630 H   0  0  0  0  0  0  0  0  0  0  0  0
    2.8862    1.0244   -1.9270 H   0  0  0  0  0  0  0  0  0  0  0  0
    5.0976    0.8681   -1.7424 H   0  0  0  0  0  0  0  0  0  0  0  0
    6.0400    2.0826   -0.8848 H   0  0  0  0  0  0  0  0  0  0  0  0
    4.4528    2.5497   -1.4862 H   0  0  0  0  0  0  0  0  0  0  0  0
  1  4  1  0  0  0  0
  1 34  1  0  0  0  0
  2 19  1  0  0  0  0
  2 20  1  0  0  0  0
  3 11  1  0  0  0  0
  3 15  1  0  0  0  0
  3 16  1  0  0  0  0
  4  5  1  0  0  0  0
  4  6  1  0  0  0  0
  4  7  1  0  0  0  0
  5 11  1  0  0  0  0
  5 12  1  0  0  0  0
  5 21  1  0  0  0  0
  6  8  1  0  0  0  0
  6 22  1  0  0  0  0
  6 23  1  0  0  0  0
  7  9  1  0  0  0  0
  7 24  1  0  0  0  0
  7 25  1  0  0  0  0
  8 10  1  0  0  0  0
  8 26  1  0  0  0  0
  8 27  1  0  0  0  0
  9 10  1  0  0  0  0
  9 28  1  0  0  0  0
  9 29  1  0  0  0  0
 10 30  1  0  0  0  0
 10 31  1  0  0  0  0
 11 32  1  0  0  0  0
 11 33  1  0  0  0  0
 12 13  2  0  0  0  0
 12 14  1  0  0  0  0
 13 17  1  0  0  0  0
 13 35  1  0  0  0  0
 14 18  2  0  0  0  0
 14 36  1  0  0  0  0
 15 37  1  0  0  0  0
 15 38  1  0  0  0  0
 15 39  1  0  0  0  0
 16 40  1  0  0  0  0
 16 41  1  0  0  0  0
 16 42  1  0  0  0  0
 17 19  2  0  0  0  0
 17 43  1  0  0  0  0
 18 19  1  0  0  0  0
 18 44  1  0  0  0  0
 20 45  1  0  0  0  0
 20 46  1  0  0  0  0
 20 47  1  0  0  0  0
M  END
> <PUBCHEM_COMPOUND_CID>
5656

> <PUBCHEM_CONFORMER_RMSD>
0.8

> <PUBCHEM_CONFORMER_DIVERSEORDER>
1
9
13
7
3
4
8
6
11
10
2
12
5

> <PUBCHEM_MMFF94_PARTIAL_CHARGES>
20
1 -0.68
11 0.27
12 -0.14
13 -0.15
14 -0.15
15 0.27
16 0.27
17 -0.15
18 -0.15
19 0.08
2 -0.36
20 0.28
3 -0.81
34 0.4
35 0.15
36 0.15
4 0.28
43 0.15
44 0.15
5 0.14

> <PUBCHEM_EFFECTIVE_ROTOR_COUNT>
6.2

> <PUBCHEM_PHARMACOPHORE_FEATURES>
6
1 1 acceptor
1 1 donor
1 2 acceptor
1 3 cation
6 12 13 14 17 18 19 rings
6 4 6 7 8 9 10 rings

> <PUBCHEM_HEAVY_ATOM_COUNT>
20

> <PUBCHEM_ATOM_DEF_STEREO_COUNT>
0

> <PUBCHEM_ATOM_UDEF_STEREO_COUNT>
1

> <PUBCHEM_BOND_DEF_STEREO_COUNT>
0

> <PUBCHEM_BOND_UDEF_STEREO_COUNT>
0

> <PUBCHEM_ISOTOPIC_ATOM_COUNT>
0

> <PUBCHEM_COMPONENT_COUNT>
1

> <PUBCHEM_CACTVS_TAUTO_COUNT>
1

> <PUBCHEM_CONFORMER_ID>
0000161800000001

> <PUBCHEM_MMFF94_ENERGY>
69.2294

> <PUBCHEM_FEATURE_SELFOVERLAP>
30.446

> <PUBCHEM_SHAPE_FINGERPRINT>
10498660 4 18261678181001937369
11582403 64 15796574125139934314
11725454 13 16445921494679546402
12173636 292 18336554845258591884
12236239 1 17989211421178354105
12500047 106 18335702689967276894
12788726 201 18054515694745542106
13140716 1 18269553995370143563
133893 2 18053393381194023691
13681431 1 17544771478106010959
15309172 13 18272373091738871549
15906896 17 18199187282743944931
16752209 62 18195821673461720107
16945 1 18188222987108646675
1741750 31 18411982429851223880
17539 30 17901393290013432550
1813 80 17402893817731066219
18186145 218 16877947130850857241
18785283 64 18196929100655966714
204376 136 18342175578928045053
20510252 161 18335135341656147353
20600515 1 17259110257080450679
20645476 183 18341333292748928870
20671657 1 17976814612590771053
212916 134 18261972802962504128
21524375 3 18340774813814284323
2255824 54 18049724319540221963
23366157 5 17981324804956433515
23402539 116 18261683583758974940
23419403 2 14211442343200398435
23526113 38 17531514452072728270
23557571 272 17901112915028150648
23559900 14 17756720989535118083
23566358 27 18119248608976028399
23598288 3 17982999056096251366
298252 57 18342454829095619280
305870 269 18265617761027738161
3091708 16 9266434942586236547
3729539 64 17978203261823895550
3759504 43 18341328911797910402
394222 165 18272094958236201106
458136 41 18263919002946856971
474 4 18269556198936052249
474229 33 18339921520399399131
6138700 20 17976252762582540302
633830 44 18261392316367579797
6442390 28 18334568032442971251
7364860 26 17974010849281747683
81228 2 17979654333008060635
81539 233 18340494490221235167
84936 182 18115870887163453169
9981440 41 18410857689511607809

> <PUBCHEM_SHAPE_MULTIPOLES>
394.87
7.32
3.8
1.28
2.99
5.39
-0.15
-8.05
1.07
-0.89
0.1
0.59
0.16
-0.63

> <PUBCHEM_SHAPE_SELFOVERLAP>
815.385

> <PUBCHEM_SHAPE_VOLUME>
226.8

> <PUBCHEM_COORDINATE_TYPE>
2
5
10

$$$$

