4904
  -OEChem-06261200243D

 47 49  0     0  0  0  0  0  0999 V2000
    0.6847   -0.1968   -1.9910 O   0  0  0  0  0  0  0  0  0  0  0  0
   -2.9789   -0.0301    0.1556 N   0  0  0  0  0  0  0  0  0  0  0  0
   -3.3241   -1.3769   -0.3210 C   0  0  0  0  0  0  0  0  0  0  0  0
   -4.0467    0.9319   -0.1513 C   0  0  0  0  0  0  0  0  0  0  0  0
   -1.7114    0.4095   -0.4271 C   0  0  0  0  0  0  0  0  0  0  0  0
   -4.6228   -1.8721    0.3174 C   0  0  0  0  0  0  0  0  0  0  0  0
   -5.3691    0.5122    0.4923 C   0  0  0  0  0  0  0  0  0  0  0  0
   -0.5769   -0.5344    0.0032 C   0  0  0  0  0  0  0  0  0  0  0  0
   -5.7687   -0.8974    0.0707 C   0  0  0  0  0  0  0  0  0  0  0  0
    0.8255   -0.1440   -0.5585 C   0  0  0  0  0  0  0  0  0  0  0  0
    1.9473   -1.1303   -0.1935 C   0  0  0  0  0  0  0  0  0  0  0  0
    1.2067    1.2767   -0.1172 C   0  0  0  0  0  0  0  0  0  0  0  0
    3.1936   -0.9268   -0.7311 C   0  0  0  0  0  0  0  0  0  0  0  0
    1.4432    1.5053    1.2161 C   0  0  0  0  0  0  0  0  0  0  0  0
    1.6516   -2.1688    0.6536 C   0  0  0  0  0  0  0  0  0  0  0  0
    1.2951    2.2567   -1.0753 C   0  0  0  0  0  0  0  0  0  0  0  0
    4.2114   -1.8213   -0.3999 C   0  0  0  0  0  0  0  0  0  0  0  0
    1.7897    2.7955    1.6169 C   0  0  0  0  0  0  0  0  0  0  0  0
    2.6696   -3.0631    0.9848 C   0  0  0  0  0  0  0  0  0  0  0  0
    1.6417    3.5471   -0.6744 C   0  0  0  0  0  0  0  0  0  0  0  0
    3.9495   -2.8893    0.4579 C   0  0  0  0  0  0  0  0  0  0  0  0
    1.8890    3.8163    0.6717 C   0  0  0  0  0  0  0  0  0  0  0  0
   -1.7775    0.4581   -1.5213 H   0  0  0  0  0  0  0  0  0  0  0  0
   -1.4929    1.4211   -0.0672 H   0  0  0  0  0  0  0  0  0  0  0  0
   -2.5802   -2.1235   -0.0338 H   0  0  0  0  0  0  0  0  0  0  0  0
   -3.4159   -1.3979   -1.4147 H   0  0  0  0  0  0  0  0  0  0  0  0
   -4.1816    1.0328   -1.2364 H   0  0  0  0  0  0  0  0  0  0  0  0
   -3.7790    1.9221    0.2372 H   0  0  0  0  0  0  0  0  0  0  0  0
   -4.4778   -1.9986    1.3980 H   0  0  0  0  0  0  0  0  0  0  0  0
   -4.8835   -2.8567   -0.0873 H   0  0  0  0  0  0  0  0  0  0  0  0
   -6.1580    1.2192    0.2122 H   0  0  0  0  0  0  0  0  0  0  0  0
   -5.2754    0.5540    1.5850 H   0  0  0  0  0  0  0  0  0  0  0  0
   -0.5650   -0.5790    1.1001 H   0  0  0  0  0  0  0  0  0  0  0  0
   -0.7782   -1.5384   -0.3829 H   0  0  0  0  0  0  0  0  0  0  0  0
   -6.0291   -0.9007   -0.9949 H   0  0  0  0  0  0  0  0  0  0  0  0
   -6.6600   -1.2167    0.6217 H   0  0  0  0  0  0  0  0  0  0  0  0
    0.6138   -1.1298   -2.2572 H   0  0  0  0  0  0  0  0  0  0  0  0
    3.4103   -0.1042   -1.4049 H   0  0  0  0  0  0  0  0  0  0  0  0
    1.3663    0.7228    1.9640 H   0  0  0  0  0  0  0  0  0  0  0  0
    0.6806   -2.3500    1.0958 H   0  0  0  0  0  0  0  0  0  0  0  0
    1.1073    2.0857   -2.1293 H   0  0  0  0  0  0  0  0  0  0  0  0
    5.2076   -1.6870   -0.8113 H   0  0  0  0  0  0  0  0  0  0  0  0
    1.9812    3.0056    2.6651 H   0  0  0  0  0  0  0  0  0  0  0  0
    2.4670   -3.8945    1.6538 H   0  0  0  0  0  0  0  0  0  0  0  0
    1.7184    4.3427   -1.4098 H   0  0  0  0  0  0  0  0  0  0  0  0
    4.7420   -3.5857    0.7158 H   0  0  0  0  0  0  0  0  0  0  0  0
    2.1584    4.8211    0.9839 H   0  0  0  0  0  0  0  0  0  0  0  0
  1 10  1  0  0  0  0
  1 37  1  0  0  0  0
  2  3  1  0  0  0  0
  2  4  1  0  0  0  0
  2  5  1  0  0  0  0
  3  6  1  0  0  0  0
  3 25  1  0  0  0  0
  3 26  1  0  0  0  0
  4  7  1  0  0  0  0
  4 27  1  0  0  0  0
  4 28  1  0  0  0  0
  5  8  1  0  0  0  0
  5 23  1  0  0  0  0
  5 24  1  0  0  0  0
  6  9  1  0  0  0  0
  6 29  1  0  0  0  0
  6 30  1  0  0  0  0
  7  9  1  0  0  0  0
  7 31  1  0  0  0  0
  7 32  1  0  0  0  0
  8 10  1  0  0  0  0
  8 33  1  0  0  0  0
  8 34  1  0  0  0  0
  9 35  1  0  0  0  0
  9 36  1  0  0  0  0
 10 11  1  0  0  0  0
 10 12  1  0  0  0  0
 11 13  2  0  0  0  0
 11 15  1  0  0  0  0
 12 14  2  0  0  0  0
 12 16  1  0  0  0  0
 13 17  1  0  0  0  0
 13 38  1  0  0  0  0
 14 18  1  0  0  0  0
 14 39  1  0  0  0  0
 15 19  2  0  0  0  0
 15 40  1  0  0  0  0
 16 20  2  0  0  0  0
 16 41  1  0  0  0  0
 17 21  2  0  0  0  0
 17 42  1  0  0  0  0
 18 22  2  0  0  0  0
 18 43  1  0  0  0  0
 19 21  1  0  0  0  0
 19 44  1  0  0  0  0
 20 22  1  0  0  0  0
 20 45  1  0  0  0  0
 21 46  1  0  0  0  0
 22 47  1  0  0  0  0
M  END
> <PUBCHEM_COMPOUND_CID>
4904

> <PUBCHEM_CONFORMER_RMSD>
0.8

> <PUBCHEM_CONFORMER_DIVERSEORDER>
1
18
16
8
9
17
14
12
5
6
3
15
7
19
4
2
11
10
13

> <PUBCHEM_MMFF94_PARTIAL_CHARGES>
29
1 -0.68
10 0.57
11 -0.14
12 -0.14
13 -0.15
14 -0.15
15 -0.15
16 -0.15
17 -0.15
18 -0.15
19 -0.15
2 -0.81
20 -0.15
21 -0.15
22 -0.15
3 0.27
37 0.4
38 0.15
39 0.15
4 0.27
40 0.15
41 0.15
42 0.15
43 0.15
44 0.15
45 0.15
46 0.15
47 0.15
5 0.27

> <PUBCHEM_EFFECTIVE_ROTOR_COUNT>
6.2

> <PUBCHEM_PHARMACOPHORE_FEATURES>
6
1 1 acceptor
1 1 donor
1 2 cation
6 11 13 15 17 19 21 rings
6 12 14 16 18 20 22 rings
6 2 3 4 6 7 9 rings

> <PUBCHEM_HEAVY_ATOM_COUNT>
22

> <PUBCHEM_ATOM_DEF_STEREO_COUNT>
0

> <PUBCHEM_ATOM_UDEF_STEREO_COUNT>
0

> <PUBCHEM_BOND_DEF_STEREO_COUNT>
0

> <PUBCHEM_BOND_UDEF_STEREO_COUNT>
0

> <PUBCHEM_ISOTOPIC_ATOM_COUNT>
0

> <PUBCHEM_COMPONENT_COUNT>
1

> <PUBCHEM_CACTVS_TAUTO_COUNT>
1

> <PUBCHEM_CONFORMER_ID>
0000132800000001

> <PUBCHEM_MMFF94_ENERGY>
58.7897

> <PUBCHEM_FEATURE_SELFOVERLAP>
30.446

> <PUBCHEM_SHAPE_FINGERPRINT>
11265709 11 18266455593299121842
11405975 8 18409162208833696683
11578080 2 17988378064505805292
11582403 64 16737211652893930840
12107183 9 18192141810687381865
12516196 113 18337392750718778642
12549972 3 17987784238427534377
12553582 1 18267033914740574751
12616971 3 17822009797072519159
12788726 201 17401794288970315494
13004483 165 18051702332162921890
13134695 92 18334866051264687932
13140716 1 18049451340029733584
13533116 47 18339922620180188539
13955234 65 18266454317720351985
14178342 30 17908427948560149359
14466204 15 17976536436534546601
14787075 74 18342734118493411438
14866123 147 16752970364517977643
14950920 106 18193525988542137019
14955137 171 18040709281996338622
15042514 8 17905889532414117310
15927050 60 17975696083364844694
17349148 13 17458347463935209031
17492 89 18340205190220812891
17868525 174 18338801225319558241
17980427 23 17168729473390261117
17980427 26 18118696417746995940
1813 80 18188482605192168526
18785283 64 18270124487708162112
19078846 21 18261945375227472409
20369508 70 18411138047749672879
20600515 1 18044930427004207484
20681677 274 18409730643238886627
20832881 197 18271805795621490483
21033648 29 16299522762665841787
21041028 32 18188776170364985264
21049683 271 18271515442952647252
21065198 57 18410855443755459667
21250096 35 18268430303081914979
21524375 3 17755295678235582268
221490 88 18271235028780292787
2255824 54 18411133593636368007
23366157 5 18270684164511083125
23419403 2 17899444096737385472
23558518 356 17759252790919870038
23559900 14 18413395324126364115
283562 15 18053940942659808690
312423 11 18188197729154935339
314173 41 18338229470155769799
314194 84 18343016735536290747
3411729 13 18187089399759243552
3421961 26 18411984658649015641
345986 75 17770511033705060330
4409770 3 17479462682323896029
474 4 18197218036349611965
5104073 3 18262225644056962339
5895379 119 16589403462836997113
6442390 28 17762896563352740273
6443956 14 18410292527729318616
7164475 11 17908982459230005046
7364860 26 18336265643688242244
7495541 125 18412822495342252847
77188 2 18338517564193742836
81228 2 17759789739051350432
9709674 26 18271242699860993371
9841814 1 18335413582200938334
9981440 41 17835244445867020441
9999458 23 18267021652914718140

> <PUBCHEM_SHAPE_MULTIPOLES>
441.9
9.63
4.32
1.18
16.9
2.69
0.03
-6.19
-0.9
-5.81
-1.09
-0.74
0.44
0.02

> <PUBCHEM_SHAPE_SELFOVERLAP>
939.846

> <PUBCHEM_SHAPE_VOLUME>
245.2

> <PUBCHEM_COORDINATE_TYPE>
2
5
10

$$$$

