189666
  -OEChem-07051212523D

 15 15  0     0  0  0  0  0  0999 V2000
    2.7437   -1.4108    0.0003 Cl  0  0  0  0  0  0  0  0  0  0  0  0
   -2.4883    1.2660    0.0005 O   0  0  0  0  0  0  0  0  0  0  0  0
   -2.3277   -1.5088    0.0000 O   0  0  0  0  0  0  0  0  0  0  0  0
    2.2572    1.5560    0.0001 O   0  0  0  0  0  0  0  0  0  0  0  0
   -1.2771    0.6427   -0.0002 C   0  0  0  0  0  0  0  0  0  0  0  0
   -1.1964   -0.7499   -0.0002 C   0  0  0  0  0  0  0  0  0  0  0  0
    1.1347    0.7825   -0.0002 C   0  0  0  0  0  0  0  0  0  0  0  0
   -0.1116    1.4089   -0.0002 C   0  0  0  0  0  0  0  0  0  0  0  0
    0.0499   -1.3764    0.0000 C   0  0  0  0  0  0  0  0  0  0  0  0
    1.2156   -0.6101    0.0000 C   0  0  0  0  0  0  0  0  0  0  0  0
   -0.1835    2.4938   -0.0001 H   0  0  0  0  0  0  0  0  0  0  0  0
    0.1109   -2.4624    0.0002 H   0  0  0  0  0  0  0  0  0  0  0  0
   -3.1830    0.5847    0.0006 H   0  0  0  0  0  0  0  0  0  0  0  0
   -2.0792   -2.4491    0.0000 H   0  0  0  0  0  0  0  0  0  0  0  0
    1.9991    2.4937   -0.0001 H   0  0  0  0  0  0  0  0  0  0  0  0
  1 10  1  0  0  0  0
  2  5  1  0  0  0  0
  2 13  1  0  0  0  0
  3  6  1  0  0  0  0
  3 14  1  0  0  0  0
  4  7  1  0  0  0  0
  4 15  1  0  0  0  0
  5  6  1  0  0  0  0
  5  8  2  0  0  0  0
  6  9  2  0  0  0  0
  7  8  1  0  0  0  0
  7 10  2  0  0  0  0
  8 11  1  0  0  0  0
  9 10  1  0  0  0  0
  9 12  1  0  0  0  0
M  END
> <PUBCHEM_COMPOUND_CID>
189666

> <PUBCHEM_CONFORMER_RMSD>
0.4

> <PUBCHEM_CONFORMER_DIVERSEORDER>
1

> <PUBCHEM_MMFF94_PARTIAL_CHARGES>
15
1 -0.18
10 0.18
11 0.15
12 0.15
13 0.45
14 0.45
15 0.45
2 -0.53
3 -0.53
4 -0.53
5 0.08
6 0.08
7 0.08
8 -0.15
9 -0.15

> <PUBCHEM_EFFECTIVE_ROTOR_COUNT>
0

> <PUBCHEM_PHARMACOPHORE_FEATURES>
4
1 2 donor
1 3 donor
1 4 donor
6 5 6 7 8 9 10 rings

> <PUBCHEM_HEAVY_ATOM_COUNT>
10

> <PUBCHEM_ATOM_DEF_STEREO_COUNT>
0

> <PUBCHEM_ATOM_UDEF_STEREO_COUNT>
0

> <PUBCHEM_BOND_DEF_STEREO_COUNT>
0

> <PUBCHEM_BOND_UDEF_STEREO_COUNT>
0

> <PUBCHEM_ISOTOPIC_ATOM_COUNT>
0

> <PUBCHEM_COMPONENT_COUNT>
1

> <PUBCHEM_CACTVS_TAUTO_COUNT>
16

> <PUBCHEM_CONFORMER_ID>
0002E4E200000001

> <PUBCHEM_MMFF94_ENERGY>
21.1676

> <PUBCHEM_FEATURE_SELFOVERLAP>
20.302

> <PUBCHEM_SHAPE_FINGERPRINT>
12423570 1 6411297931368775178
14128692 85 18410568509485042670
16945 1 18194683893511234758
18185500 45 18196936792910628250
193761 8 18410856529590849252
19973954 147 18410855447264371912
21040471 1 18410856542481285732
21501502 16 18410291397783492086
23402655 69 17546184342760194029
23552423 10 18272086080660027718
241688 4 18413389855942055936
2748010 2 18410856546765443830
29004967 10 18054787286843625243
5084963 1 18260267447126254914

> <PUBCHEM_SHAPE_MULTIPOLES>
190.06
3.41
1.93
0.59
0.48
0.09
0
-0.48
0
0.1
0
0.04
-0.02
0

> <PUBCHEM_SHAPE_SELFOVERLAP>
392.55

> <PUBCHEM_SHAPE_VOLUME>
110.3

> <PUBCHEM_COORDINATE_TYPE>
2
5
10

$$$$

