68499
  -OEChem-07051212503D

 21 21  0     0  0  0  0  0  0999 V2000
    0.5541    1.5350   -0.9847 O   0  0  0  0  0  0  0  0  0  0  0  0
    2.6330    0.0108    1.5062 O   0  0  0  0  0  0  0  0  0  0  0  0
    4.5670    0.0070    0.3201 O   0  0  0  0  0  0  0  0  0  0  0  0
    1.1138   -0.6644   -0.5091 N   0  0  0  0  0  0  0  0  0  0  0  0
   -3.2848    0.9617    0.5860 N   0  0  0  0  0  0  0  0  0  0  0  0
   -1.1706    0.1310   -0.2415 C   0  0  0  0  0  0  0  0  0  0  0  0
    2.5209   -0.5501   -0.8189 C   0  0  0  0  0  0  0  0  0  0  0  0
    0.2076    0.3987   -0.6128 C   0  0  0  0  0  0  0  0  0  0  0  0
   -1.7041   -1.1492   -0.3405 C   0  0  0  0  0  0  0  0  0  0  0  0
   -1.9951    1.1429    0.2231 C   0  0  0  0  0  0  0  0  0  0  0  0
   -3.0270   -1.3752    0.0233 C   0  0  0  0  0  0  0  0  0  0  0  0
    3.3536   -0.1523    0.3725 C   0  0  0  0  0  0  0  0  0  0  0  0
   -3.7684   -0.2959    0.4763 C   0  0  0  0  0  0  0  0  0  0  0  0
    2.6565    0.1988   -1.6046 H   0  0  0  0  0  0  0  0  0  0  0  0
    2.8563   -1.5304   -1.1684 H   0  0  0  0  0  0  0  0  0  0  0  0
    0.8075   -1.5552   -0.1323 H   0  0  0  0  0  0  0  0  0  0  0  0
   -1.1312   -1.9895   -0.7211 H   0  0  0  0  0  0  0  0  0  0  0  0
   -1.6417    2.1642    0.3287 H   0  0  0  0  0  0  0  0  0  0  0  0
   -3.4662   -2.3634   -0.0514 H   0  0  0  0  0  0  0  0  0  0  0  0
   -4.8054   -0.4190    0.7708 H   0  0  0  0  0  0  0  0  0  0  0  0
    3.1970    0.2688    2.2662 H   0  0  0  0  0  0  0  0  0  0  0  0
  1  8  2  0  0  0  0
  2 12  1  0  0  0  0
  2 21  1  0  0  0  0
  3 12  2  0  0  0  0
  4  7  1  0  0  0  0
  4  8  1  0  0  0  0
  4 16  1  0  0  0  0
  5 10  1  0  0  0  0
  5 13  2  0  0  0  0
  6  8  1  0  0  0  0
  6  9  1  0  0  0  0
  6 10  2  0  0  0  0
  7 12  1  0  0  0  0
  7 14  1  0  0  0  0
  7 15  1  0  0  0  0
  9 11  2  0  0  0  0
  9 17  1  0  0  0  0
 10 18  1  0  0  0  0
 11 13  1  0  0  0  0
 11 19  1  0  0  0  0
 13 20  1  0  0  0  0
M  END
> <PUBCHEM_COMPOUND_CID>
68499

> <PUBCHEM_CONFORMER_RMSD>
0.6

> <PUBCHEM_CONFORMER_DIVERSEORDER>
2
12
26
19
13
9
24
5
16
7
23
4
20
15
25
14
8
21
3
17
10
6
11
1
22
18

> <PUBCHEM_MMFF94_PARTIAL_CHARGES>
19
1 -0.57
10 0.16
11 -0.15
12 0.66
13 0.16
16 0.37
17 0.15
18 0.15
19 0.15
2 -0.65
20 0.15
21 0.5
3 -0.57
4 -0.73
5 -0.62
6 0.09
7 0.36
8 0.54
9 -0.15

> <PUBCHEM_EFFECTIVE_ROTOR_COUNT>
4

> <PUBCHEM_PHARMACOPHORE_FEATURES>
7
1 1 acceptor
1 2 acceptor
1 3 acceptor
1 4 donor
1 5 acceptor
3 2 3 12 anion
6 5 6 9 10 11 13 rings

> <PUBCHEM_HEAVY_ATOM_COUNT>
13

> <PUBCHEM_ATOM_DEF_STEREO_COUNT>
0

> <PUBCHEM_ATOM_UDEF_STEREO_COUNT>
0

> <PUBCHEM_BOND_DEF_STEREO_COUNT>
0

> <PUBCHEM_BOND_UDEF_STEREO_COUNT>
0

> <PUBCHEM_ISOTOPIC_ATOM_COUNT>
0

> <PUBCHEM_COMPONENT_COUNT>
1

> <PUBCHEM_CACTVS_TAUTO_COUNT>
2

> <PUBCHEM_CONFORMER_ID>
00010B9300000002

> <PUBCHEM_MMFF94_ENERGY>
28.9068

> <PUBCHEM_FEATURE_SELFOVERLAP>
35.579

> <PUBCHEM_SHAPE_FINGERPRINT>
10149128 111 5473142950609386762
10857977 72 18408606958917938300
11031198 65 7060386937176881813
11132069 177 18410853282606181655
12251169 10 18408886226334290708
12500047 106 18114184163475374791
12932764 1 17561083605071697268
13705890 14 13758352267680459862
14144814 61 18272646848685608183
15219456 202 17531239603898246150
15375462 189 17632860828118877088
18186145 218 14345788344989118004
200 152 15841555175785860998
20279233 1 17894344497118993599
20281407 28 16630529522436279151
20361792 2 17346601854619326791
20528008 55 17967255308064332807
20645464 45 17240196630074430599
20645477 70 14405191681156638346
20671657 53 14908184196311288390
20711985 327 18131068221081914980
21119208 17 9655577404786332259
21501925 9 18338515244710754687
22485316 2 16917071048733001707
23402539 116 18114188532200777309
23559900 14 18042116708435180686
2748010 2 17836352019506924949
449060 50 17894910724353858164
75552 356 18409167701353303255
93112 12 10879986956555709546

> <PUBCHEM_SHAPE_MULTIPOLES>
239.96
7.29
1.25
0.96
3.83
0.06
0.11
-0.73
2.07
-0.89
-0.15
0.52
0.09
-0.05

> <PUBCHEM_SHAPE_SELFOVERLAP>
496.325

> <PUBCHEM_SHAPE_VOLUME>
135.6

> <PUBCHEM_COORDINATE_TYPE>
2
5
10

$$$$

