9919
  -OEChem-06261204112D

 46 48  0     1  0  0  0  0  0999 V2000
    1.7320    1.1692    0.0000 S   0  0  0  0  0  0  0  0  0  0  0  0
    0.0000    1.1758    0.0000 Na  0  3  0  0  0  0  0  0  0  0  0  0
    9.2461    4.9734    0.0000 O   0  0  0  0  0  0  0  0  0  0  0  0
    2.5961    0.6658    0.0000 O   0  0  0  0  0  0  0  0  0  0  0  0
    0.8679    1.6725    0.0000 O   0  5  0  0  0  0  0  0  0  0  0  0
    2.2354    2.0333    0.0000 O   0  0  0  0  0  0  0  0  0  0  0  0
    1.2287    0.3051    0.0000 O   0  0  0  0  0  0  0  0  0  0  0  0
    7.9892    2.7182    0.0000 C   0  0  2  0  0  0  0  0  0  0  0  0
    7.9892    3.7182    0.0000 C   0  0  2  0  0  0  0  0  0  0  0  0
    7.1232    2.2182    0.0000 C   0  0  1  0  0  0  0  0  0  0  0  0
    6.2572    2.7182    0.0000 C   0  0  2  0  0  0  0  0  0  0  0  0
    7.1232    4.2182    0.0000 C   0  0  0  0  0  0  0  0  0  0  0  0
    8.9354    2.4134    0.0000 C   0  0  0  0  0  0  0  0  0  0  0  0
    6.2572    3.7182    0.0000 C   0  0  0  0  0  0  0  0  0  0  0  0
    7.1392    1.1767    0.0000 C   0  0  0  0  0  0  0  0  0  0  0  0
    8.9354    4.0229    0.0000 C   0  0  0  0  0  0  0  0  0  0  0  0
    9.5190    3.2182    0.0000 C   0  0  0  0  0  0  0  0  0  0  0  0
    7.9892    4.7182    0.0000 C   0  0  0  0  0  0  0  0  0  0  0  0
    5.3472    2.2113    0.0000 C   0  0  0  0  0  0  0  0  0  0  0  0
    6.2412    0.6489    0.0000 C   0  0  0  0  0  0  0  0  0  0  0  0
    5.3391    1.1697    0.0000 C   0  0  0  0  0  0  0  0  0  0  0  0
    4.4203    2.7754    0.0000 C   0  0  0  0  0  0  0  0  0  0  0  0
    4.4037    0.6200    0.0000 C   0  0  0  0  0  0  0  0  0  0  0  0
    3.4724    2.2475    0.0000 C   0  0  0  0  0  0  0  0  0  0  0  0
    3.4641    1.1625    0.0000 C   0  0  0  0  0  0  0  0  0  0  0  0
    8.0739    1.9227    0.0000 H   0  0  0  0  0  0  0  0  0  0  0  0
    7.8191    1.8235    0.0000 H   0  0  0  0  0  0  0  0  0  0  0  0
    6.9500    3.1182    0.0000 H   0  0  0  0  0  0  0  0  0  0  0  0
    7.5217    4.6931    0.0000 H   0  0  0  0  0  0  0  0  0  0  0  0
    6.7247    4.6931    0.0000 H   0  0  0  0  0  0  0  0  0  0  0  0
    8.6844    1.8465    0.0000 H   0  0  0  0  0  0  0  0  0  0  0  0
    9.4728    2.1042    0.0000 H   0  0  0  0  0  0  0  0  0  0  0  0
    6.0451    4.3008    0.0000 H   0  0  0  0  0  0  0  0  0  0  0  0
    5.6466    3.6105    0.0000 H   0  0  0  0  0  0  0  0  0  0  0  0
    7.3573    0.5963    0.0000 H   0  0  0  0  0  0  0  0  0  0  0  0
    7.7484    1.2922    0.0000 H   0  0  0  0  0  0  0  0  0  0  0  0
    9.9799    2.8034    0.0000 H   0  0  0  0  0  0  0  0  0  0  0  0
    9.9799    3.6329    0.0000 H   0  0  0  0  0  0  0  0  0  0  0  0
    8.6092    4.7182    0.0000 H   0  0  0  0  0  0  0  0  0  0  0  0
    7.9892    5.3382    0.0000 H   0  0  0  0  0  0  0  0  0  0  0  0
    7.3692    4.7182    0.0000 H   0  0  0  0  0  0  0  0  0  0  0  0
    5.8439    0.1729    0.0000 H   0  0  0  0  0  0  0  0  0  0  0  0
    6.6422    0.1760    0.0000 H   0  0  0  0  0  0  0  0  0  0  0  0
    4.4323    3.3953    0.0000 H   0  0  0  0  0  0  0  0  0  0  0  0
    4.4061    0.0000    0.0000 H   0  0  0  0  0  0  0  0  0  0  0  0
    2.9391    2.5636    0.0000 H   0  0  0  0  0  0  0  0  0  0  0  0
  1  4  1  0  0  0  0
  1  5  1  0  0  0  0
  1  6  2  0  0  0  0
  1  7  2  0  0  0  0
  3 16  2  0  0  0  0
  4 25  1  0  0  0  0
  8  9  1  0  0  0  0
  8 10  1  0  0  0  0
  8 13  1  0  0  0  0
  8 26  1  6  0  0  0
  9 12  1  0  0  0  0
  9 16  1  0  0  0  0
  9 18  1  1  0  0  0
 10 11  1  0  0  0  0
 10 15  1  0  0  0  0
 10 27  1  1  0  0  0
 11 14  1  0  0  0  0
 11 19  1  0  0  0  0
 11 28  1  6  0  0  0
 12 14  1  0  0  0  0
 12 29  1  0  0  0  0
 12 30  1  0  0  0  0
 13 17  1  0  0  0  0
 13 31  1  0  0  0  0
 13 32  1  0  0  0  0
 14 33  1  0  0  0  0
 14 34  1  0  0  0  0
 15 20  1  0  0  0  0
 15 35  1  0  0  0  0
 15 36  1  0  0  0  0
 16 17  1  0  0  0  0
 17 37  1  0  0  0  0
 17 38  1  0  0  0  0
 18 39  1  0  0  0  0
 18 40  1  0  0  0  0
 18 41  1  0  0  0  0
 19 21  2  0  0  0  0
 19 22  1  0  0  0  0
 20 21  1  0  0  0  0
 20 42  1  0  0  0  0
 20 43  1  0  0  0  0
 21 23  1  0  0  0  0
 22 24  2  0  0  0  0
 22 44  1  0  0  0  0
 23 25  2  0  0  0  0
 23 45  1  0  0  0  0
 24 25  1  0  0  0  0
 24 46  1  0  0  0  0
M  CHG  2   2   1   5  -1
M  END
> <PUBCHEM_COMPOUND_CID>
9919

> <PUBCHEM_COMPOUND_CANONICALIZED>
1

> <PUBCHEM_CACTVS_COMPLEXITY>
611

> <PUBCHEM_CACTVS_HBOND_ACCEPTOR>
5

> <PUBCHEM_CACTVS_HBOND_DONOR>
0

> <PUBCHEM_CACTVS_ROTATABLE_BOND>
1

> <PUBCHEM_CACTVS_SUBSKEYS>
AAADceB4OCBAAAAAAAAAAAAAAAAAAYAAAAAwYMAAAAAAAGDBAAAAGgAAAAAADwSAmAAyBoAAAACIAqBSADACAAAgIAAIiAEGCIgIJjKAERKAMAAkwBEIiAeIyPCPoAABAAAQAADAAAYAACAAAAAACAAAAA==

> <PUBCHEM_IUPAC_OPENEYE_NAME>
sodium [(8R,9S,13S,14S)-13-methyl-17-oxo-7,8,9,11,12,14,15,16-octahydro-6H-cyclopenta[a]phenanthren-3-yl] sulfate

> <PUBCHEM_IUPAC_CAS_NAME>
sodium [(8R,9S,13S,14S)-13-methyl-17-oxo-7,8,9,11,12,14,15,16-octahydro-6H-cyclopenta[a]phenanthren-3-yl] sulfate

> <PUBCHEM_IUPAC_NAME>
sodium [(8R,9S,13S,14S)-13-methyl-17-oxo-7,8,9,11,12,14,15,16-octahydro-6H-cyclopenta[a]phenanthren-3-yl] sulfate

> <PUBCHEM_IUPAC_SYSTEMATIC_NAME>
sodium [(8R,9S,13S,14S)-13-methyl-17-oxidanylidene-7,8,9,11,12,14,15,16-octahydro-6H-cyclopenta[a]phenanthren-3-yl] sulfate

> <PUBCHEM_IUPAC_TRADITIONAL_NAME>
sodium [(8R,9S,13S,14S)-17-keto-13-methyl-7,8,9,11,12,14,15,16-octahydro-6H-cyclopenta[a]phenanthren-3-yl] sulfate

> <PUBCHEM_IUPAC_INCHI>
InChI=1S/C18H22O5S.Na/c1-18-9-8-14-13-5-3-12(23-24(20,21)22)10-11(13)2-4-15(14)16(18)6-7-17(18)19;/h3,5,10,14-16H,2,4,6-9H2,1H3,(H,20,21,22);/q;+1/p-1/t14-,15-,16+,18+;/m1./s1

> <PUBCHEM_IUPAC_INCHIKEY>
VUCAHVBMSFIGAI-ZFINNJDLSA-M

> <PUBCHEM_EXACT_MASS>
372.100739

> <PUBCHEM_MOLECULAR_FORMULA>
C18H21NaO5S

> <PUBCHEM_MOLECULAR_WEIGHT>
372.411109

> <PUBCHEM_OPENEYE_CAN_SMILES>
CC12CCC3C(C1CCC2=O)CCC4=C3C=CC(=C4)OS(=O)(=O)[O-].[Na+]

> <PUBCHEM_OPENEYE_ISO_SMILES>
C[C@]12CC[C@H]3[C@H]([C@@H]1CCC2=O)CCC4=C3C=CC(=C4)OS(=O)(=O)[O-].[Na+]

> <PUBCHEM_CACTVS_TPSA>
91.9

> <PUBCHEM_MONOISOTOPIC_WEIGHT>
372.100739

> <PUBCHEM_TOTAL_CHARGE>
0

> <PUBCHEM_HEAVY_ATOM_COUNT>
25

> <PUBCHEM_ATOM_DEF_STEREO_COUNT>
4

> <PUBCHEM_ATOM_UDEF_STEREO_COUNT>
0

> <PUBCHEM_BOND_DEF_STEREO_COUNT>
0

> <PUBCHEM_BOND_UDEF_STEREO_COUNT>
0

> <PUBCHEM_ISOTOPIC_ATOM_COUNT>
0

> <PUBCHEM_COMPONENT_COUNT>
2

> <PUBCHEM_CACTVS_TAUTO_COUNT>
2

> <PUBCHEM_COORDINATE_TYPE>
1
5
255

> <PUBCHEM_BONDANNOTATIONS>
10  27  5
11  28  6
19  21  8
19  22  8
21  23  8
22  24  8
23  25  8
24  25  8
8  26  6
9  18  5

$$$$

