92304
  -OEChem-07051213132D

 34 35  0     0  0  0  0  0  0999 V2000
    2.0000   -1.5000    0.0000 Cl  0  0  0  0  0  0  0  0  0  0  0  0
    7.1962    1.5000    0.0000 Cl  0  0  0  0  0  0  0  0  0  0  0  0
    3.7320   -4.5000    0.0000 Cl  0  0  0  0  0  0  0  0  0  0  0  0
    5.4641    4.5000    0.0000 Cl  0  0  0  0  0  0  0  0  0  0  0  0
    4.5981    0.0000    0.0000 P   0  0  0  0  0  0  0  0  0  0  0  0
    3.7320   -0.5000    0.0000 O   0  0  0  0  0  0  0  0  0  0  0  0
    5.4641    0.5000    0.0000 O   0  0  0  0  0  0  0  0  0  0  0  0
    4.0981    0.8660    0.0000 O   0  0  0  0  0  0  0  0  0  0  0  0
    5.0981   -0.8660    0.0000 O   0  0  0  0  0  0  0  0  0  0  0  0
    3.7320   -1.5000    0.0000 C   0  0  0  0  0  0  0  0  0  0  0  0
    5.4641    1.5000    0.0000 C   0  0  0  0  0  0  0  0  0  0  0  0
    3.0981    0.8660    0.0000 C   0  0  0  0  0  0  0  0  0  0  0  0
    2.8660   -2.0000    0.0000 C   0  0  0  0  0  0  0  0  0  0  0  0
    6.3301    2.0000    0.0000 C   0  0  0  0  0  0  0  0  0  0  0  0
    4.5981   -2.0000    0.0000 C   0  0  0  0  0  0  0  0  0  0  0  0
    4.5981    2.0000    0.0000 C   0  0  0  0  0  0  0  0  0  0  0  0
    2.5981    1.7320    0.0000 C   0  0  0  0  0  0  0  0  0  0  0  0
    2.8660   -3.0000    0.0000 C   0  0  0  0  0  0  0  0  0  0  0  0
    6.3301    3.0000    0.0000 C   0  0  0  0  0  0  0  0  0  0  0  0
    4.5981   -3.0000    0.0000 C   0  0  0  0  0  0  0  0  0  0  0  0
    4.5981    3.0000    0.0000 C   0  0  0  0  0  0  0  0  0  0  0  0
    3.7320   -3.5000    0.0000 C   0  0  0  0  0  0  0  0  0  0  0  0
    5.4641    3.5000    0.0000 C   0  0  0  0  0  0  0  0  0  0  0  0
    2.5155    0.6540    0.0000 H   0  0  0  0  0  0  0  0  0  0  0  0
    3.2057    0.2554    0.0000 H   0  0  0  0  0  0  0  0  0  0  0  0
    5.1350   -1.6900    0.0000 H   0  0  0  0  0  0  0  0  0  0  0  0
    4.0611    1.6900    0.0000 H   0  0  0  0  0  0  0  0  0  0  0  0
    3.1350    2.0420    0.0000 H   0  0  0  0  0  0  0  0  0  0  0  0
    2.2881    2.2690    0.0000 H   0  0  0  0  0  0  0  0  0  0  0  0
    2.0611    1.4220    0.0000 H   0  0  0  0  0  0  0  0  0  0  0  0
    2.3291   -3.3100    0.0000 H   0  0  0  0  0  0  0  0  0  0  0  0
    6.8671    3.3100    0.0000 H   0  0  0  0  0  0  0  0  0  0  0  0
    5.1350   -3.3100    0.0000 H   0  0  0  0  0  0  0  0  0  0  0  0
    4.0611    3.3100    0.0000 H   0  0  0  0  0  0  0  0  0  0  0  0
  1 13  1  0  0  0  0
  2 14  1  0  0  0  0
  3 22  1  0  0  0  0
  4 23  1  0  0  0  0
  5  6  1  0  0  0  0
  5  7  1  0  0  0  0
  5  8  1  0  0  0  0
  5  9  2  0  0  0  0
  6 10  1  0  0  0  0
  7 11  1  0  0  0  0
  8 12  1  0  0  0  0
 10 13  2  0  0  0  0
 10 15  1  0  0  0  0
 11 14  2  0  0  0  0
 11 16  1  0  0  0  0
 12 17  1  0  0  0  0
 12 24  1  0  0  0  0
 12 25  1  0  0  0  0
 13 18  1  0  0  0  0
 14 19  1  0  0  0  0
 15 20  2  0  0  0  0
 15 26  1  0  0  0  0
 16 21  2  0  0  0  0
 16 27  1  0  0  0  0
 17 28  1  0  0  0  0
 17 29  1  0  0  0  0
 17 30  1  0  0  0  0
 18 22  2  0  0  0  0
 18 31  1  0  0  0  0
 19 23  2  0  0  0  0
 19 32  1  0  0  0  0
 20 22  1  0  0  0  0
 20 33  1  0  0  0  0
 21 23  1  0  0  0  0
 21 34  1  0  0  0  0
M  END
> <PUBCHEM_COMPOUND_CID>
92304

> <PUBCHEM_COMPOUND_CANONICALIZED>
1

> <PUBCHEM_CACTVS_COMPLEXITY>
396

> <PUBCHEM_CACTVS_HBOND_ACCEPTOR>
4

> <PUBCHEM_CACTVS_HBOND_DONOR>
0

> <PUBCHEM_CACTVS_ROTATABLE_BOND>
6

> <PUBCHEM_CACTVS_SUBSKEYS>
AAADccBwOAIHAAAAAAAAAAAAAAAAAAAAAAAwYAAAAAAAAAABQAAAGgIAACAACAagkCIyBoAAARCAQCBCAIACAAAgJUAIiAAGC4gIJiKBExKAMAAkwBEIiAeAQAAAACAAAACACAAAQAAAAQAQAAAAAAAAAA==

> <PUBCHEM_IUPAC_OPENEYE_NAME>
bis(2,4-dichlorophenyl) ethyl phosphate

> <PUBCHEM_IUPAC_CAS_NAME>
phosphoric acid bis(2,4-dichlorophenyl) ethyl ester

> <PUBCHEM_IUPAC_NAME>
bis(2,4-dichlorophenyl) ethyl phosphate

> <PUBCHEM_IUPAC_SYSTEMATIC_NAME>
bis(2,4-dichlorophenyl) ethyl phosphate

> <PUBCHEM_IUPAC_TRADITIONAL_NAME>
phosphoric acid bis(2,4-dichlorophenyl) ethyl ester

> <PUBCHEM_IUPAC_INCHI>
InChI=1S/C14H11Cl4O4P/c1-2-20-23(19,21-13-5-3-9(15)7-11(13)17)22-14-6-4-10(16)8-12(14)18/h3-8H,2H2,1H3

> <PUBCHEM_IUPAC_INCHIKEY>
HEMINMLPKZELPP-UHFFFAOYSA-N

> <PUBCHEM_XLOGP3_AA>
6

> <PUBCHEM_EXACT_MASS>
415.911956

> <PUBCHEM_MOLECULAR_FORMULA>
C14H11Cl4O4P

> <PUBCHEM_MOLECULAR_WEIGHT>
416.020502

> <PUBCHEM_OPENEYE_CAN_SMILES>
CCOP(=O)(OC1=C(C=C(C=C1)Cl)Cl)OC2=C(C=C(C=C2)Cl)Cl

> <PUBCHEM_OPENEYE_ISO_SMILES>
CCOP(=O)(OC1=C(C=C(C=C1)Cl)Cl)OC2=C(C=C(C=C2)Cl)Cl

> <PUBCHEM_CACTVS_TPSA>
44.8

> <PUBCHEM_MONOISOTOPIC_WEIGHT>
413.914906

> <PUBCHEM_TOTAL_CHARGE>
0

> <PUBCHEM_HEAVY_ATOM_COUNT>
23

> <PUBCHEM_ATOM_DEF_STEREO_COUNT>
0

> <PUBCHEM_ATOM_UDEF_STEREO_COUNT>
0

> <PUBCHEM_BOND_DEF_STEREO_COUNT>
0

> <PUBCHEM_BOND_UDEF_STEREO_COUNT>
0

> <PUBCHEM_ISOTOPIC_ATOM_COUNT>
0

> <PUBCHEM_COMPONENT_COUNT>
1

> <PUBCHEM_CACTVS_TAUTO_COUNT>
1

> <PUBCHEM_COORDINATE_TYPE>
1
5
255

> <PUBCHEM_BONDANNOTATIONS>
10  13  8
10  15  8
11  14  8
11  16  8
13  18  8
14  19  8
15  20  8
16  21  8
18  22  8
19  23  8
20  22  8
21  23  8

$$$$

