11939
  -OEChem-06261206183D

 30 32  0     0  0  0  0  0  0999 V2000
   -1.3030   -0.5492   -0.0004 C   0  0  0  0  0  0  0  0  0  0  0  0
    1.3029    0.5493   -0.0001 C   0  0  0  0  0  0  0  0  0  0  0  0
   -1.1285    0.8520   -0.0003 C   0  0  0  0  0  0  0  0  0  0  0  0
    1.1284   -0.8520   -0.0004 C   0  0  0  0  0  0  0  0  0  0  0  0
   -0.1722   -1.3830   -0.0005 C   0  0  0  0  0  0  0  0  0  0  0  0
    0.1722    1.3831   -0.0001 C   0  0  0  0  0  0  0  0  0  0  0  0
   -2.6038   -1.0795   -0.0005 C   0  0  0  0  0  0  0  0  0  0  0  0
    2.6038    1.0795    0.0001 C   0  0  0  0  0  0  0  0  0  0  0  0
   -2.2596    1.6851   -0.0003 C   0  0  0  0  0  0  0  0  0  0  0  0
    2.2596   -1.6850   -0.0002 C   0  0  0  0  0  0  0  0  0  0  0  0
   -3.7166   -0.2382   -0.0006 C   0  0  0  0  0  0  0  0  0  0  0  0
    3.7166    0.2382    0.0002 C   0  0  0  0  0  0  0  0  0  0  0  0
   -3.5447    1.1423   -0.0005 C   0  0  0  0  0  0  0  0  0  0  0  0
    3.5447   -1.1423    0.0000 C   0  0  0  0  0  0  0  0  0  0  0  0
   -5.0904   -0.8190    0.0025 C   0  0  0  0  0  0  0  0  0  0  0  0
    5.0906    0.8187    0.0011 C   0  0  0  0  0  0  0  0  0  0  0  0
   -0.3067   -2.4648   -0.0006 H   0  0  0  0  0  0  0  0  0  0  0  0
    0.3067    2.4649    0.0001 H   0  0  0  0  0  0  0  0  0  0  0  0
   -2.7491   -2.1586    0.0017 H   0  0  0  0  0  0  0  0  0  0  0  0
    2.7492    2.1586   -0.0015 H   0  0  0  0  0  0  0  0  0  0  0  0
   -2.1486    2.7675    0.0004 H   0  0  0  0  0  0  0  0  0  0  0  0
    2.1486   -2.7674   -0.0008 H   0  0  0  0  0  0  0  0  0  0  0  0
   -4.4027    1.8094    0.0019 H   0  0  0  0  0  0  0  0  0  0  0  0
    4.4026   -1.8094   -0.0018 H   0  0  0  0  0  0  0  0  0  0  0  0
   -5.4100   -1.0223    1.0294 H   0  0  0  0  0  0  0  0  0  0  0  0
   -5.8119   -0.1363   -0.4592 H   0  0  0  0  0  0  0  0  0  0  0  0
   -5.1234   -1.7532   -0.5684 H   0  0  0  0  0  0  0  0  0  0  0  0
    5.1233    1.7497    0.5773 H   0  0  0  0  0  0  0  0  0  0  0  0
    5.8118    0.1334    0.4593 H   0  0  0  0  0  0  0  0  0  0  0  0
    5.4106    1.0276   -1.0245 H   0  0  0  0  0  0  0  0  0  0  0  0
  1  3  2  0  0  0  0
  1  5  1  0  0  0  0
  1  7  1  0  0  0  0
  2  4  1  0  0  0  0
  2  6  2  0  0  0  0
  2  8  1  0  0  0  0
  3  6  1  0  0  0  0
  3  9  1  0  0  0  0
  4  5  2  0  0  0  0
  4 10  1  0  0  0  0
  5 17  1  0  0  0  0
  6 18  1  0  0  0  0
  7 11  2  0  0  0  0
  7 19  1  0  0  0  0
  8 12  2  0  0  0  0
  8 20  1  0  0  0  0
  9 13  2  0  0  0  0
  9 21  1  0  0  0  0
 10 14  2  0  0  0  0
 10 22  1  0  0  0  0
 11 13  1  0  0  0  0
 11 15  1  0  0  0  0
 12 14  1  0  0  0  0
 12 16  1  0  0  0  0
 13 23  1  0  0  0  0
 14 24  1  0  0  0  0
 15 25  1  0  0  0  0
 15 26  1  0  0  0  0
 15 27  1  0  0  0  0
 16 28  1  0  0  0  0
 16 29  1  0  0  0  0
 16 30  1  0  0  0  0
M  END
> <PUBCHEM_COMPOUND_CID>
11939

> <PUBCHEM_CONFORMER_RMSD>
0.4

> <PUBCHEM_CONFORMER_DIVERSEORDER>
1

> <PUBCHEM_MMFF94_PARTIAL_CHARGES>
20
10 -0.15
11 -0.14
12 -0.14
13 -0.15
14 -0.15
15 0.14
16 0.14
17 0.15
18 0.15
19 0.15
20 0.15
21 0.15
22 0.15
23 0.15
24 0.15
5 -0.15
6 -0.15
7 -0.15
8 -0.15
9 -0.15

> <PUBCHEM_EFFECTIVE_ROTOR_COUNT>
0

> <PUBCHEM_PHARMACOPHORE_FEATURES>
3
6 1 2 3 4 5 6 rings
6 1 3 7 9 11 13 rings
6 2 4 8 10 12 14 rings

> <PUBCHEM_HEAVY_ATOM_COUNT>
16

> <PUBCHEM_ATOM_DEF_STEREO_COUNT>
0

> <PUBCHEM_ATOM_UDEF_STEREO_COUNT>
0

> <PUBCHEM_BOND_DEF_STEREO_COUNT>
0

> <PUBCHEM_BOND_UDEF_STEREO_COUNT>
0

> <PUBCHEM_ISOTOPIC_ATOM_COUNT>
0

> <PUBCHEM_COMPONENT_COUNT>
1

> <PUBCHEM_CACTVS_TAUTO_COUNT>
1

> <PUBCHEM_CONFORMER_ID>
00002EA300000001

> <PUBCHEM_MMFF94_ENERGY>
49.1417

> <PUBCHEM_FEATURE_SELFOVERLAP>
15.274

> <PUBCHEM_SHAPE_FINGERPRINT>
10411042 1 15456213038705118657
10608611 8 18410859901203843940
10616163 171 18336826390250166023
10967382 1 18410856542475770630
11132069 177 18411422825381933440
11401426 45 18410015411801365989
11471102 20 18410858763274621078
11806522 49 18412263917675874071
12032990 46 18409726296135955479
13140716 1 18050568443421262177
13221675 6 18410293609691792454
13380535 76 18412543202150990818
13862211 1 18410299085875548967
14144814 61 18410575123317784698
14325111 11 18410855498856902368
15196674 1 18410855503077834757
15219456 202 18409166653244003182
15442244 35 18122344850525096818
15536298 74 18335138730512041638
16945 1 18338517426200641542
17802600 8 18410296899689599153
18186145 218 18130506447912602718
18522853 276 18409729556058350673
200 152 18187089451356548253
20510252 161 18260828245432975425
20645477 70 18334856168903778862
21029758 11 18335425655860552585
21267235 1 18410566292907572838
21501502 16 18338516468422947640
23402539 116 18409456855858101071
23402655 69 18335707177870679725
23463225 33 18412544344501190452
23559900 14 18119817064972235694
26918003 58 17989207014874094659
2748010 2 18338516446948098261
2871803 45 18343306980825085455
335352 9 17978229692234203574
34934 24 18410863156794231639
3545911 37 18410572877440285414
4214541 1 18410855503178366849
474 4 17345746375039863732
4990 188 18040424525949164604
5104073 3 18338516442653131720
537710 114 18410288095085770156
69090 78 18333735706129873831
7364860 26 18264769870154502456
77779 3 18409728499364397062
8809292 202 18201152157657486251
9709674 26 18410849979808486078

> <PUBCHEM_SHAPE_MULTIPOLES>
329.27
9.01
1.74
0.62
0
0
0
0
0
0
0
0
0
0

> <PUBCHEM_SHAPE_SELFOVERLAP>
737.444

> <PUBCHEM_SHAPE_VOLUME>
162.2

> <PUBCHEM_COORDINATE_TYPE>
2
5
10

$$$$

