53174
  -OEChem-07051213092D

 35 36  0     0  0  0  0  0  0999 V2000
    4.5981    0.9330    0.0000 S   0  0  0  0  0  0  0  0  0  0  0  0
    4.0981    0.0670    0.0000 O   0  0  0  0  0  0  0  0  0  0  0  0
    5.0981    1.7990    0.0000 O   0  0  0  0  0  0  0  0  0  0  0  0
   11.2260   -0.9330    0.0000 O   0  0  0  0  0  0  0  0  0  0  0  0
    9.7260   -1.7990    0.0000 O   0  0  0  0  0  0  0  0  0  0  0  0
    8.1424    0.7377    0.0000 N   0  0  0  0  0  0  0  0  0  0  0  0
    8.1424   -0.8717    0.0000 N   0  0  0  0  0  0  0  0  0  0  0  0
    9.7260   -0.0670    0.0000 N   0  0  0  0  0  0  0  0  0  0  0  0
    3.7320    1.4330    0.0000 C   0  0  0  0  0  0  0  0  0  0  0  0
    5.4641    0.4330    0.0000 C   0  0  0  0  0  0  0  0  0  0  0  0
    2.8660    0.9330    0.0000 C   0  0  0  0  0  0  0  0  0  0  0  0
    7.1962    0.4330    0.0000 C   0  0  0  0  0  0  0  0  0  0  0  0
    6.3301    0.9330    0.0000 C   0  0  0  0  0  0  0  0  0  0  0  0
    7.1962   -0.5670    0.0000 C   0  0  0  0  0  0  0  0  0  0  0  0
    5.4641   -0.5670    0.0000 C   0  0  0  0  0  0  0  0  0  0  0  0
    6.3301   -1.0670    0.0000 C   0  0  0  0  0  0  0  0  0  0  0  0
    2.0000    1.4330    0.0000 C   0  0  0  0  0  0  0  0  0  0  0  0
    8.7260   -0.0670    0.0000 C   0  0  0  0  0  0  0  0  0  0  0  0
   10.2260   -0.9330    0.0000 C   0  0  0  0  0  0  0  0  0  0  0  0
   11.7260   -1.7990    0.0000 C   0  0  0  0  0  0  0  0  0  0  0  0
    4.1306    1.9080    0.0000 H   0  0  0  0  0  0  0  0  0  0  0  0
    3.3335    1.9080    0.0000 H   0  0  0  0  0  0  0  0  0  0  0  0
    2.4675    0.4581    0.0000 H   0  0  0  0  0  0  0  0  0  0  0  0
    3.2646    0.4581    0.0000 H   0  0  0  0  0  0  0  0  0  0  0  0
    6.3301    1.5530    0.0000 H   0  0  0  0  0  0  0  0  0  0  0  0
    4.9272   -0.8770    0.0000 H   0  0  0  0  0  0  0  0  0  0  0  0
    6.3301   -1.6870    0.0000 H   0  0  0  0  0  0  0  0  0  0  0  0
    8.3350    1.3271    0.0000 H   0  0  0  0  0  0  0  0  0  0  0  0
    2.3100    1.9700    0.0000 H   0  0  0  0  0  0  0  0  0  0  0  0
    1.4631    1.7430    0.0000 H   0  0  0  0  0  0  0  0  0  0  0  0
    1.6900    0.8961    0.0000 H   0  0  0  0  0  0  0  0  0  0  0  0
   10.0360    0.4699    0.0000 H   0  0  0  0  0  0  0  0  0  0  0  0
   11.1890   -2.1090    0.0000 H   0  0  0  0  0  0  0  0  0  0  0  0
   12.0360   -2.3360    0.0000 H   0  0  0  0  0  0  0  0  0  0  0  0
   12.2629   -1.4890    0.0000 H   0  0  0  0  0  0  0  0  0  0  0  0
  1  2  2  0  0  0  0
  1  3  2  0  0  0  0
  1  9  1  0  0  0  0
  1 10  1  0  0  0  0
  4 19  1  0  0  0  0
  4 20  1  0  0  0  0
  5 19  2  0  0  0  0
  6 12  1  0  0  0  0
  6 18  1  0  0  0  0
  6 28  1  0  0  0  0
  7 14  1  0  0  0  0
  7 18  2  0  0  0  0
  8 18  1  0  0  0  0
  8 19  1  0  0  0  0
  8 32  1  0  0  0  0
  9 11  1  0  0  0  0
  9 21  1  0  0  0  0
  9 22  1  0  0  0  0
 10 13  2  0  0  0  0
 10 15  1  0  0  0  0
 11 17  1  0  0  0  0
 11 23  1  0  0  0  0
 11 24  1  0  0  0  0
 12 13  1  0  0  0  0
 12 14  2  0  0  0  0
 13 25  1  0  0  0  0
 14 16  1  0  0  0  0
 15 16  2  0  0  0  0
 15 26  1  0  0  0  0
 16 27  1  0  0  0  0
 17 29  1  0  0  0  0
 17 30  1  0  0  0  0
 17 31  1  0  0  0  0
 20 33  1  0  0  0  0
 20 34  1  0  0  0  0
 20 35  1  0  0  0  0
M  END
> <PUBCHEM_COMPOUND_CID>
53174

> <PUBCHEM_COMPOUND_CANONICALIZED>
1

> <PUBCHEM_CACTVS_COMPLEXITY>
448

> <PUBCHEM_CACTVS_HBOND_ACCEPTOR>
5

> <PUBCHEM_CACTVS_HBOND_DONOR>
2

> <PUBCHEM_CACTVS_ROTATABLE_BOND>
5

> <PUBCHEM_CACTVS_SUBSKEYS>
AAADccBzOABAAAAAAAAAAAAAAAAAAWAAAAAwAAAAAAAAAFgB8AAAHgQQAAAACAiFVgKz2bbJlAqoASRifHDCgC2hGrAJmTgwdJmIaKLgmZGUIAxokQJoyCcQAAAAAAQAACAAACAACAAAQAAAQAAAAAAAAA==

> <PUBCHEM_IUPAC_OPENEYE_NAME>
methyl N-(6-propylsulfonyl-1H-benzimidazol-2-yl)carbamate

> <PUBCHEM_IUPAC_CAS_NAME>
N-(6-propylsulfonyl-1H-benzimidazol-2-yl)carbamic acid methyl ester

> <PUBCHEM_IUPAC_NAME>
methyl N-(6-propylsulfonyl-1H-benzimidazol-2-yl)carbamate

> <PUBCHEM_IUPAC_SYSTEMATIC_NAME>
methyl N-(6-propylsulfonyl-1H-benzimidazol-2-yl)carbamate

> <PUBCHEM_IUPAC_TRADITIONAL_NAME>
N-(6-propylsulfonyl-1H-benzimidazol-2-yl)carbamic acid methyl ester

> <PUBCHEM_IUPAC_INCHI>
InChI=1S/C12H15N3O4S/c1-3-6-20(17,18)8-4-5-9-10(7-8)14-11(13-9)15-12(16)19-2/h4-5,7H,3,6H2,1-2H3,(H2,13,14,15,16)

> <PUBCHEM_IUPAC_INCHIKEY>
CLSJYOLYMZNKJB-UHFFFAOYSA-N

> <PUBCHEM_XLOGP3>
1.6

> <PUBCHEM_EXACT_MASS>
297.078327

> <PUBCHEM_MOLECULAR_FORMULA>
C12H15N3O4S

> <PUBCHEM_MOLECULAR_WEIGHT>
297.3302

> <PUBCHEM_OPENEYE_CAN_SMILES>
CCCS(=O)(=O)C1=CC2=C(C=C1)N=C(N2)NC(=O)OC

> <PUBCHEM_OPENEYE_ISO_SMILES>
CCCS(=O)(=O)C1=CC2=C(C=C1)N=C(N2)NC(=O)OC

> <PUBCHEM_CACTVS_TPSA>
110

> <PUBCHEM_MONOISOTOPIC_WEIGHT>
297.078327

> <PUBCHEM_TOTAL_CHARGE>
0

> <PUBCHEM_HEAVY_ATOM_COUNT>
20

> <PUBCHEM_ATOM_DEF_STEREO_COUNT>
0

> <PUBCHEM_ATOM_UDEF_STEREO_COUNT>
0

> <PUBCHEM_BOND_DEF_STEREO_COUNT>
0

> <PUBCHEM_BOND_UDEF_STEREO_COUNT>
0

> <PUBCHEM_ISOTOPIC_ATOM_COUNT>
0

> <PUBCHEM_COMPONENT_COUNT>
1

> <PUBCHEM_CACTVS_TAUTO_COUNT>
5

> <PUBCHEM_COORDINATE_TYPE>
1
5
255

> <PUBCHEM_BONDANNOTATIONS>
10  13  8
10  15  8
12  13  8
12  14  8
14  16  8
15  16  8
6  12  8
6  18  8
7  14  8
7  18  8

$$$$

