14271
  -OEChem-06241222422D

 13 13  0     0  0  0  0  0  0999 V2000
    2.8090    0.0380    0.0000 O   0  0  0  0  0  0  0  0  0  0  0  0
    5.7281   -0.9704    0.0000 O   0  0  0  0  0  0  0  0  0  0  0  0
    4.7770   -0.6614    0.0000 N   0  0  0  0  0  0  0  0  0  0  0  0
    3.6180    0.6258    0.0000 C   0  0  0  0  0  0  0  0  0  0  0  0
    3.3090    1.5768    0.0000 C   0  0  0  0  0  0  0  0  0  0  0  0
    2.3090    1.5768    0.0000 C   0  0  0  0  0  0  0  0  0  0  0  0
    2.0000    0.6258    0.0000 C   0  0  0  0  0  0  0  0  0  0  0  0
    4.5691    0.3168    0.0000 C   0  0  0  0  0  0  0  0  0  0  0  0
    3.6734    2.0784    0.0000 H   0  0  0  0  0  0  0  0  0  0  0  0
    1.9446    2.0784    0.0000 H   0  0  0  0  0  0  0  0  0  0  0  0
    1.4103    0.4342    0.0000 H   0  0  0  0  0  0  0  0  0  0  0  0
    5.0298    0.7316    0.0000 H   0  0  0  0  0  0  0  0  0  0  0  0
    5.8570   -1.5768    0.0000 H   0  0  0  0  0  0  0  0  0  0  0  0
  1  4  1  0  0  0  0
  1  7  1  0  0  0  0
  2  3  1  0  0  0  0
  2 13  1  0  0  0  0
  3  8  2  3  0  0  0
  4  5  2  0  0  0  0
  4  8  1  0  0  0  0
  5  6  1  0  0  0  0
  5  9  1  0  0  0  0
  6  7  2  0  0  0  0
  6 10  1  0  0  0  0
  7 11  1  0  0  0  0
  8 12  1  0  0  0  0
M  END
> <PUBCHEM_COMPOUND_CID>
14271

> <PUBCHEM_COMPOUND_CANONICALIZED>
1

> <PUBCHEM_CACTVS_COMPLEXITY>
92.4

> <PUBCHEM_CACTVS_HBOND_ACCEPTOR>
3

> <PUBCHEM_CACTVS_HBOND_DONOR>
1

> <PUBCHEM_CACTVS_ROTATABLE_BOND>
1

> <PUBCHEM_CACTVS_SUBSKEYS>
AAADcYBiMAAAAAAAAAAAAAAAAAAAASAAAAAAAAAAAAAAAAABgAAAHgAECAAACAThkAYwBIAQBECoALhzgAQCCAAkIAAIiAEmCNgMJrKENRqCGSCkwBEIqYaIAAAAAAAAAAAAAAAAAAAAAAAAAAAAAAAAAA==

> <PUBCHEM_IUPAC_OPENEYE_NAME>
furan-2-carbaldehyde oxime

> <PUBCHEM_IUPAC_CAS_NAME>
2-furancarboxaldehyde oxime

> <PUBCHEM_IUPAC_NAME>
N-(furan-2-ylmethylidene)hydroxylamine

> <PUBCHEM_IUPAC_SYSTEMATIC_NAME>
N-(furan-2-ylmethylidene)hydroxylamine

> <PUBCHEM_IUPAC_TRADITIONAL_NAME>
furan-2-carbaldehyde oxime

> <PUBCHEM_IUPAC_INCHI>
InChI=1S/C5H5NO2/c7-6-4-5-2-1-3-8-5/h1-4,7H

> <PUBCHEM_IUPAC_INCHIKEY>
UYTMLDBQFLIQJA-UHFFFAOYSA-N

> <PUBCHEM_XLOGP3>
0.7

> <PUBCHEM_EXACT_MASS>
111.032028

> <PUBCHEM_MOLECULAR_FORMULA>
C5H5NO2

> <PUBCHEM_MOLECULAR_WEIGHT>
111.0987

> <PUBCHEM_OPENEYE_CAN_SMILES>
C1=COC(=C1)C=NO

> <PUBCHEM_OPENEYE_ISO_SMILES>
C1=COC(=C1)C=NO

> <PUBCHEM_CACTVS_TPSA>
45.7

> <PUBCHEM_MONOISOTOPIC_WEIGHT>
111.032028

> <PUBCHEM_TOTAL_CHARGE>
0

> <PUBCHEM_HEAVY_ATOM_COUNT>
8

> <PUBCHEM_ATOM_DEF_STEREO_COUNT>
0

> <PUBCHEM_ATOM_UDEF_STEREO_COUNT>
0

> <PUBCHEM_BOND_DEF_STEREO_COUNT>
0

> <PUBCHEM_BOND_UDEF_STEREO_COUNT>
1

> <PUBCHEM_ISOTOPIC_ATOM_COUNT>
0

> <PUBCHEM_COMPONENT_COUNT>
1

> <PUBCHEM_CACTVS_TAUTO_COUNT>
2

> <PUBCHEM_COORDINATE_TYPE>
1
5
255

> <PUBCHEM_BONDANNOTATIONS>
1  4  8
1  7  8
3  8  1
4  5  8
4  8  1
5  6  8
6  7  8

$$$$

