56928070
  -OEChem-07051212523D

 46 47  0     1  0  0  0  0  0999 V2000
   -2.9765   -1.6845   -0.0931 O   0  0  0  0  0  0  0  0  0  0  0  0
   -6.1143    0.8314    0.9202 O   0  0  0  0  0  0  0  0  0  0  0  0
   -0.4748    1.4477    1.2820 O   0  0  0  0  0  0  0  0  0  0  0  0
    1.6624    3.3094   -1.3903 O   0  0  0  0  0  0  0  0  0  0  0  0
    2.2368    2.9137    0.7684 O   0  0  0  0  0  0  0  0  0  0  0  0
    2.7170   -0.9369   -1.6627 O   0  0  0  0  0  0  0  0  0  0  0  0
   -4.5784   -0.0689   -0.6280 N   0  0  0  0  0  0  0  0  0  0  0  0
    1.9419    0.2039    0.2016 N   0  0  0  0  0  0  0  0  0  0  0  0
    3.4717   -3.0121   -0.0397 N   0  0  0  0  0  0  0  0  0  0  0  0
   -4.3364   -1.5164   -0.5612 C   0  0  2  0  0  0  0  0  0  0  0  0
   -2.4142   -0.3743    0.1970 C   0  0  2  0  0  0  0  0  0  0  0  0
   -3.3204    0.6455   -0.5240 C   0  0  0  0  0  0  0  0  0  0  0  0
   -5.5031   -1.5980    0.4369 C   0  0  0  0  0  0  0  0  0  0  0  0
   -0.9742   -0.3260   -0.2726 C   0  0  0  0  0  0  0  0  0  0  0  0
   -5.5513   -0.0626    0.3300 C   0  0  0  0  0  0  0  0  0  0  0  0
   -0.3539    1.0656   -0.0883 C   0  0  2  0  0  0  0  0  0  0  0  0
    1.1203    1.1584   -0.5061 C   0  0  1  0  0  0  0  0  0  0  0  0
    1.7224    2.5345   -0.2759 C   0  0  0  0  0  0  0  0  0  0  0  0
    3.4553   -1.6630    0.5311 C   0  0  2  0  0  0  0  0  0  0  0  0
    2.6813   -0.7766   -0.4437 C   0  0  0  0  0  0  0  0  0  0  0  0
    4.8896   -1.1549    0.8110 C   0  0  0  0  0  0  0  0  0  0  0  0
    4.9435    0.2327    1.4599 C   0  0  0  0  0  0  0  0  0  0  0  0
    5.7552   -1.1687   -0.4526 C   0  0  0  0  0  0  0  0  0  0  0  0
   -4.5031   -2.0187   -1.5189 H   0  0  0  0  0  0  0  0  0  0  0  0
   -2.4864   -0.2414    1.2830 H   0  0  0  0  0  0  0  0  0  0  0  0
   -3.4310    1.5739    0.0432 H   0  0  0  0  0  0  0  0  0  0  0  0
   -2.9855    0.8530   -1.5448 H   0  0  0  0  0  0  0  0  0  0  0  0
   -5.2453   -1.9646    1.4335 H   0  0  0  0  0  0  0  0  0  0  0  0
   -6.4016   -2.0986    0.0680 H   0  0  0  0  0  0  0  0  0  0  0  0
   -0.4146   -1.0787    0.2969 H   0  0  0  0  0  0  0  0  0  0  0  0
   -0.9054   -0.6324   -1.3239 H   0  0  0  0  0  0  0  0  0  0  0  0
   -0.9150    1.8083   -0.6661 H   0  0  0  0  0  0  0  0  0  0  0  0
    1.1928    0.9421   -1.5790 H   0  0  0  0  0  0  0  0  0  0  0  0
    2.0082    0.2903    1.2116 H   0  0  0  0  0  0  0  0  0  0  0  0
   -0.0052    0.7862    1.8179 H   0  0  0  0  0  0  0  0  0  0  0  0
    2.9074   -1.7106    1.4805 H   0  0  0  0  0  0  0  0  0  0  0  0
    5.3495   -1.8529    1.5248 H   0  0  0  0  0  0  0  0  0  0  0  0
    5.9678    0.4756    1.7629 H   0  0  0  0  0  0  0  0  0  0  0  0
    5.8135   -2.1660   -0.8993 H   0  0  0  0  0  0  0  0  0  0  0  0
    6.7810   -0.8661   -0.2127 H   0  0  0  0  0  0  0  0  0  0  0  0
    5.3797   -0.4734   -1.2103 H   0  0  0  0  0  0  0  0  0  0  0  0
    4.3142    0.2669    2.3551 H   0  0  0  0  0  0  0  0  0  0  0  0
    4.6085    1.0149    0.7716 H   0  0  0  0  0  0  0  0  0  0  0  0
    2.5188   -3.3698   -0.0984 H   0  0  0  0  0  0  0  0  0  0  0  0
    3.9727   -3.6412    0.5865 H   0  0  0  0  0  0  0  0  0  0  0  0
    2.0663    4.1913   -1.2443 H   0  0  0  0  0  0  0  0  0  0  0  0
  1 10  1  0  0  0  0
  1 11  1  0  0  0  0
  2 15  2  0  0  0  0
  3 16  1  0  0  0  0
  3 35  1  0  0  0  0
  4 18  1  0  0  0  0
  4 46  1  0  0  0  0
  5 18  2  0  0  0  0
  6 20  2  0  0  0  0
  7 10  1  0  0  0  0
  7 12  1  0  0  0  0
  7 15  1  0  0  0  0
  8 17  1  0  0  0  0
  8 20  1  0  0  0  0
  8 34  1  0  0  0  0
  9 19  1  0  0  0  0
  9 44  1  0  0  0  0
  9 45  1  0  0  0  0
 10 13  1  0  0  0  0
 10 24  1  0  0  0  0
 11 12  1  0  0  0  0
 11 14  1  0  0  0  0
 11 25  1  0  0  0  0
 12 26  1  0  0  0  0
 12 27  1  0  0  0  0
 13 15  1  0  0  0  0
 13 28  1  0  0  0  0
 13 29  1  0  0  0  0
 14 16  1  0  0  0  0
 14 30  1  0  0  0  0
 14 31  1  0  0  0  0
 16 17  1  0  0  0  0
 16 32  1  0  0  0  0
 17 18  1  0  0  0  0
 17 33  1  0  0  0  0
 19 20  1  0  0  0  0
 19 21  1  0  0  0  0
 19 36  1  0  0  0  0
 21 22  1  0  0  0  0
 21 23  1  0  0  0  0
 21 37  1  0  0  0  0
 22 38  1  0  0  0  0
 22 42  1  0  0  0  0
 22 43  1  0  0  0  0
 23 39  1  0  0  0  0
 23 40  1  0  0  0  0
 23 41  1  0  0  0  0
M  END
> <PUBCHEM_COMPOUND_CID>
56928070

> <PUBCHEM_CONFORMER_RMSD>
1

> <PUBCHEM_CONFORMER_DIVERSEORDER>
1
68
19
97
55
96
21
224
100
25
225
102
188
31
147
81
72
145
146
60
230
51
228
50
207
173
104
12
115
197
214
88
142
59
34
178
124
122
53
176
237
170
8
205
135
95
167
211
23
111
63
92
138
161
209
120
98
83
190
82
20
105
79
107
71
18
150
2
112
152
143
14
168
110
144
165
202
75
114
22
158
77
45
42
222
87
148
217
151
204
227
85
182
125
215
57
149
131
10
76
133
172
166
4
119
156
117
103
35
181
223
67
159
185
48
16
62
118
234
194
70
69
29
90
121
74
49
101
231
123
226
192
206
183
113
130
238
191
116
134
218
203
43
200
33
232
64
28
26
137
229
41
44
235
46
128
186
141
196
164
140
236
189
127
93
199
54
208
94
24
177
155
132
171
99
174
126
163
30
38
198
78
220
187
65
184
73
129
157
180
52
7
56
36
160
13
27
40
3
154
221
39
139
212
153
80
108
6
84
9
210
32
193
5
136
109
47
11
169
233
179
15
201
17
213
37
106
162
91
58
219
195
66
61
175
86
216
89

> <PUBCHEM_MMFF94_PARTIAL_CHARGES>
24
1 -0.54
10 0.48
11 0.28
12 0.3
13 0.05
15 0.58
16 0.28
17 0.36
18 0.66
19 0.33
2 -0.57
20 0.57
3 -0.68
34 0.37
35 0.4
4 -0.65
44 0.36
45 0.36
46 0.5
5 -0.57
6 -0.57
7 -0.59
8 -0.73
9 -0.99

> <PUBCHEM_EFFECTIVE_ROTOR_COUNT>
8.8

> <PUBCHEM_PHARMACOPHORE_FEATURES>
13
1 1 acceptor
1 2 acceptor
1 3 acceptor
1 3 donor
1 4 acceptor
1 5 acceptor
1 6 acceptor
1 8 donor
1 9 cation
1 9 donor
3 21 22 23 hydrophobe
3 4 5 18 anion
7 1 7 10 11 12 13 15 rings

> <PUBCHEM_HEAVY_ATOM_COUNT>
23

> <PUBCHEM_ATOM_DEF_STEREO_COUNT>
2

> <PUBCHEM_ATOM_UDEF_STEREO_COUNT>
3

> <PUBCHEM_BOND_DEF_STEREO_COUNT>
0

> <PUBCHEM_BOND_UDEF_STEREO_COUNT>
0

> <PUBCHEM_ISOTOPIC_ATOM_COUNT>
0

> <PUBCHEM_COMPONENT_COUNT>
1

> <PUBCHEM_CACTVS_TAUTO_COUNT>
4

> <PUBCHEM_CONFORMER_ID>
0364A74600000001

> <PUBCHEM_MMFF94_ENERGY>
53.8483

> <PUBCHEM_FEATURE_SELFOVERLAP>
66.028

> <PUBCHEM_SHAPE_FINGERPRINT>
10670039 82 9079124383751849402
11265709 11 18410572920284703652
11405975 8 18410852127950978035
12107183 9 18336538435048371265
12516196 113 18411139151814587754
12553582 1 18268407166335444178
12596602 18 17313109622304708571
12616971 3 18260265205918217439
12633257 1 18408600353738636015
13004483 165 18266472077557969618
13685833 64 18341610400266535427
13899415 180 17988658384020060604
13955234 65 18267302019447130920
14251751 18 18342460335391664611
14251764 18 18187363212809456547
14341114 176 18260267438662726074
15142383 8 18130510837717429837
15183329 4 18343021120976643261
15250474 111 18189623739754776815
15927050 60 17758682144902096708
17818456 19 18040988596847241921
17844677 252 18341605998156951009
17980427 26 17608951780228017764
1813 80 18273214226750370324
18222031 100 18410008858425070862
18785283 64 18200595770181958628
20369508 70 18342457023887236702
20645477 70 18272091539383989459
20832881 197 18271524294748284491
21033648 29 17169007709940694099
21250096 35 18411141371985827050
21267235 1 18409725197157324526
21859007 373 17986414345872026061
23559900 14 18340492162074745233
239999 70 18187363238579617782
25147074 1 18263623169578815656
3004659 81 18335413548168130869
314173 41 18342736338469432830
3411729 13 18264492776656396144
3421961 26 18411704266183580456
5104073 3 18335974265297598075
7495541 125 18060133215578497343
8863177 126 17844513428069442115
9709674 26 18056478357566185923
9841814 1 18341895182183129264

> <PUBCHEM_SHAPE_MULTIPOLES>
423.17
13.93
2.81
1.1
9.29
1.51
0
-6.99
-2.56
-2.59
0.34
-0.71
0.24
-0.15

> <PUBCHEM_SHAPE_SELFOVERLAP>
862.231

> <PUBCHEM_SHAPE_VOLUME>
244.5

> <PUBCHEM_COORDINATE_TYPE>
2
5
10

$$$$

