4631
  -OEChem-06261200152D

 42 42  0     1  0  0  0  0  0999 V2000
    6.3301   -0.7500    0.0000 O   0  0  0  0  0  0  0  0  0  0  0  0
    6.3301    1.2500    0.0000 O   0  0  0  0  0  0  0  0  0  0  0  0
    4.5981   -1.7500    0.0000 O   0  0  0  0  0  0  0  0  0  0  0  0
    8.0622    2.2500    0.0000 N   0  0  0  0  0  0  0  0  0  0  0  0
    8.0622    1.2500    0.0000 C   0  0  0  0  0  0  0  0  0  0  0  0
    7.1962    0.7500    0.0000 C   0  0  3  0  0  0  0  0  0  0  0  0
    8.9282    2.7500    0.0000 C   0  0  0  0  0  0  0  0  0  0  0  0
    7.1962   -0.2500    0.0000 C   0  0  0  0  0  0  0  0  0  0  0  0
    8.9282    3.7500    0.0000 C   0  0  0  0  0  0  0  0  0  0  0  0
    9.7942    2.2500    0.0000 C   0  0  0  0  0  0  0  0  0  0  0  0
    6.3301   -1.7500    0.0000 C   0  0  0  0  0  0  0  0  0  0  0  0
    5.4641   -2.2500    0.0000 C   0  0  0  0  0  0  0  0  0  0  0  0
    7.1962   -2.2500    0.0000 C   0  0  0  0  0  0  0  0  0  0  0  0
    5.4641   -3.2500    0.0000 C   0  0  0  0  0  0  0  0  0  0  0  0
    7.1962   -3.2500    0.0000 C   0  0  0  0  0  0  0  0  0  0  0  0
    6.3301   -3.7500    0.0000 C   0  0  0  0  0  0  0  0  0  0  0  0
    3.7320   -2.2500    0.0000 C   0  0  0  0  0  0  0  0  0  0  0  0
    2.8660   -1.7500    0.0000 C   0  0  0  0  0  0  0  0  0  0  0  0
    2.0000   -2.2500    0.0000 C   0  0  0  0  0  0  0  0  0  0  0  0
    8.2742    0.6674    0.0000 H   0  0  0  0  0  0  0  0  0  0  0  0
    8.6728    1.3577    0.0000 H   0  0  0  0  0  0  0  0  0  0  0  0
    6.6592    0.4400    0.0000 H   0  0  0  0  0  0  0  0  0  0  0  0
    8.9282    2.1300    0.0000 H   0  0  0  0  0  0  0  0  0  0  0  0
    7.5252    2.5600    0.0000 H   0  0  0  0  0  0  0  0  0  0  0  0
    7.4082   -0.8326    0.0000 H   0  0  0  0  0  0  0  0  0  0  0  0
    7.8067   -0.1423    0.0000 H   0  0  0  0  0  0  0  0  0  0  0  0
    9.5482    3.7500    0.0000 H   0  0  0  0  0  0  0  0  0  0  0  0
    9.4842    1.7131    0.0000 H   0  0  0  0  0  0  0  0  0  0  0  0
   10.3312    1.9400    0.0000 H   0  0  0  0  0  0  0  0  0  0  0  0
   10.1042    2.7869    0.0000 H   0  0  0  0  0  0  0  0  0  0  0  0
    8.9282    4.3700    0.0000 H   0  0  0  0  0  0  0  0  0  0  0  0
    8.3082    3.7500    0.0000 H   0  0  0  0  0  0  0  0  0  0  0  0
    6.3301    1.8700    0.0000 H   0  0  0  0  0  0  0  0  0  0  0  0
    7.7331   -1.9400    0.0000 H   0  0  0  0  0  0  0  0  0  0  0  0
    4.9272   -3.5600    0.0000 H   0  0  0  0  0  0  0  0  0  0  0  0
    7.7331   -3.5600    0.0000 H   0  0  0  0  0  0  0  0  0  0  0  0
    6.3301   -4.3700    0.0000 H   0  0  0  0  0  0  0  0  0  0  0  0
    3.3335   -2.7250    0.0000 H   0  0  0  0  0  0  0  0  0  0  0  0
    4.1306   -2.7250    0.0000 H   0  0  0  0  0  0  0  0  0  0  0  0
    2.8660   -1.1300    0.0000 H   0  0  0  0  0  0  0  0  0  0  0  0
    1.4631   -1.9400    0.0000 H   0  0  0  0  0  0  0  0  0  0  0  0
    2.0000   -2.8700    0.0000 H   0  0  0  0  0  0  0  0  0  0  0  0
  1  8  1  0  0  0  0
  1 11  1  0  0  0  0
  2  6  1  0  0  0  0
  2 33  1  0  0  0  0
  3 12  1  0  0  0  0
  3 17  1  0  0  0  0
  4  5  1  0  0  0  0
  4  7  1  0  0  0  0
  4 24  1  0  0  0  0
  5  6  1  0  0  0  0
  5 20  1  0  0  0  0
  5 21  1  0  0  0  0
  6  8  1  0  0  0  0
  6 22  1  0  0  0  0
  7  9  1  0  0  0  0
  7 10  1  0  0  0  0
  7 23  1  0  0  0  0
  8 25  1  0  0  0  0
  8 26  1  0  0  0  0
  9 27  1  0  0  0  0
  9 31  1  0  0  0  0
  9 32  1  0  0  0  0
 10 28  1  0  0  0  0
 10 29  1  0  0  0  0
 10 30  1  0  0  0  0
 11 12  1  0  0  0  0
 11 13  2  0  0  0  0
 12 14  2  0  0  0  0
 13 15  1  0  0  0  0
 13 34  1  0  0  0  0
 14 16  1  0  0  0  0
 14 35  1  0  0  0  0
 15 16  2  0  0  0  0
 15 36  1  0  0  0  0
 16 37  1  0  0  0  0
 17 18  1  0  0  0  0
 17 38  1  0  0  0  0
 17 39  1  0  0  0  0
 18 19  2  0  0  0  0
 18 40  1  0  0  0  0
 19 41  1  0  0  0  0
 19 42  1  0  0  0  0
M  END
> <PUBCHEM_COMPOUND_CID>
4631

> <PUBCHEM_COMPOUND_CANONICALIZED>
1

> <PUBCHEM_CACTVS_COMPLEXITY>
246

> <PUBCHEM_CACTVS_HBOND_ACCEPTOR>
4

> <PUBCHEM_CACTVS_HBOND_DONOR>
2

> <PUBCHEM_CACTVS_ROTATABLE_BOND>
9

> <PUBCHEM_CACTVS_SUBSKEYS>
AAADceByMAAAAAAAAAAAAAAAAAAAAAAAAAAwAAAAAAAAAAABAAAAHgAQCAAACDzhkAYyBoLABgCAACBCAAACCAAgIAAIiIAOiIgPNiKEMRqGOCKm0BGbqAeAQAAAAAAAAAAAQAAAAAAAAACAAAAAAAAAAA==

> <PUBCHEM_IUPAC_OPENEYE_NAME>
1-(2-allyloxyphenoxy)-3-(isopropylamino)propan-2-ol

> <PUBCHEM_IUPAC_CAS_NAME>
1-(propan-2-ylamino)-3-(2-prop-2-enoxyphenoxy)-2-propanol

> <PUBCHEM_IUPAC_NAME>
1-(propan-2-ylamino)-3-(2-prop-2-enoxyphenoxy)propan-2-ol

> <PUBCHEM_IUPAC_SYSTEMATIC_NAME>
1-(propan-2-ylamino)-3-(2-prop-2-enoxyphenoxy)propan-2-ol

> <PUBCHEM_IUPAC_TRADITIONAL_NAME>
1-(2-allyloxyphenoxy)-3-(isopropylamino)propan-2-ol

> <PUBCHEM_IUPAC_INCHI>
InChI=1S/C15H23NO3/c1-4-9-18-14-7-5-6-8-15(14)19-11-13(17)10-16-12(2)3/h4-8,12-13,16-17H,1,9-11H2,2-3H3

> <PUBCHEM_IUPAC_INCHIKEY>
CEMAWMOMDPGJMB-UHFFFAOYSA-N

> <PUBCHEM_XLOGP3>
2.1

> <PUBCHEM_EXACT_MASS>
265.167794

> <PUBCHEM_MOLECULAR_FORMULA>
C15H23NO3

> <PUBCHEM_MOLECULAR_WEIGHT>
265.34802

> <PUBCHEM_OPENEYE_CAN_SMILES>
CC(C)NCC(COC1=CC=CC=C1OCC=C)O

> <PUBCHEM_OPENEYE_ISO_SMILES>
CC(C)NCC(COC1=CC=CC=C1OCC=C)O

> <PUBCHEM_CACTVS_TPSA>
50.7

> <PUBCHEM_MONOISOTOPIC_WEIGHT>
265.167794

> <PUBCHEM_TOTAL_CHARGE>
0

> <PUBCHEM_HEAVY_ATOM_COUNT>
19

> <PUBCHEM_ATOM_DEF_STEREO_COUNT>
0

> <PUBCHEM_ATOM_UDEF_STEREO_COUNT>
1

> <PUBCHEM_BOND_DEF_STEREO_COUNT>
0

> <PUBCHEM_BOND_UDEF_STEREO_COUNT>
0

> <PUBCHEM_ISOTOPIC_ATOM_COUNT>
0

> <PUBCHEM_COMPONENT_COUNT>
1

> <PUBCHEM_CACTVS_TAUTO_COUNT>
1

> <PUBCHEM_COORDINATE_TYPE>
1
5
255

> <PUBCHEM_BONDANNOTATIONS>
11  12  8
11  13  8
12  14  8
13  15  8
14  16  8
15  16  8
6  2  3

$$$$

