46173703
  -OEChem-07051212443D

 64 67  0     1  0  0  0  0  0999 V2000
    0.9776   -3.5491   -0.7581 P   0  0  2  0  0  0  0  0  0  0  0  0
   -1.6922   -2.8181    0.2397 P   0  0  1  0  0  0  0  0  0  0  0  0
    3.7624   -0.2595   -0.4856 O   0  0  0  0  0  0  0  0  0  0  0  0
   -3.4476   -0.0629   -0.4301 O   0  0  0  0  0  0  0  0  0  0  0  0
    4.4279    1.5763    2.5420 O   0  0  0  0  0  0  0  0  0  0  0  0
    5.9059   -0.5601    1.6341 O   0  0  0  0  0  0  0  0  0  0  0  0
    2.3325   -2.6698   -0.6679 O   0  0  0  0  0  0  0  0  0  0  0  0
   -2.1636   -1.4668    0.9844 O   0  0  0  0  0  0  0  0  0  0  0  0
   -2.8406    2.5443    2.7138 O   0  0  0  0  0  0  0  0  0  0  0  0
   -5.4403    1.3913    2.3090 O   0  0  0  0  0  0  0  0  0  0  0  0
   -0.7162    0.7619    1.8862 O   0  0  0  0  0  0  0  0  0  0  0  0
   -0.1373   -2.5654   -0.1238 O   0  0  0  0  0  0  0  0  0  0  0  0
   -5.8967   -0.9626   -1.2328 O   0  0  0  0  0  0  0  0  0  0  0  0
    1.1662   -4.6730    0.3899 O   0  0  0  0  0  0  0  0  0  0  0  0
   -1.6224   -3.9286    1.4141 O   0  0  0  0  0  0  0  0  0  0  0  0
    0.6375   -4.0835   -2.1186 O   0  0  0  0  0  0  0  0  0  0  0  0
   -2.5426   -3.2102   -0.9336 O   0  0  0  0  0  0  0  0  0  0  0  0
   -0.8041    4.0055   -2.0403 O   0  0  0  0  0  0  0  0  0  0  0  0
    2.7657    1.9476   -0.1813 N   0  0  0  0  0  0  0  0  0  0  0  0
    1.4881    0.6629   -1.8038 N   0  0  0  0  0  0  0  0  0  0  0  0
    1.5416    3.8271   -0.2627 N   0  0  0  0  0  0  0  0  0  0  0  0
   -0.3887    1.8345   -2.7375 N   0  0  0  0  0  0  0  0  0  0  0  0
    0.1390   -0.3754   -3.3660 N   0  0  0  0  0  0  0  0  0  0  0  0
    3.7991    0.6214    1.7107 C   0  0  2  0  0  0  0  0  0  0  0  0
    4.4919   -0.7267    1.7274 C   0  0  1  0  0  0  0  0  0  0  0  0
    3.8570    0.9886    0.2315 C   0  0  1  0  0  0  0  0  0  0  0  0
    4.0058   -1.3533    0.4269 C   0  0  1  0  0  0  0  0  0  0  0  0
   -3.0598    1.2715    2.1011 C   0  0  1  0  0  0  0  0  0  0  0  0
   -4.3901    1.3247    1.3472 C   0  0  1  0  0  0  0  0  0  0  0  0
   -1.9096    0.9747    1.1408 C   0  0  2  0  0  0  0  0  0  0  0  0
   -4.5680    0.0936    0.4482 C   0  0  1  0  0  0  0  0  0  0  0  0
    2.7099   -2.1360    0.5892 C   0  0  0  0  0  0  0  0  0  0  0  0
   -2.2084   -0.2392    0.2595 C   0  0  2  0  0  0  0  0  0  0  0  0
    1.7667    1.7439   -1.0708 C   0  0  0  0  0  0  0  0  0  0  0  0
   -5.8113    0.2006   -0.4306 C   0  0  0  0  0  0  0  0  0  0  0  0
    2.5872    3.2309    0.2852 C   0  0  0  0  0  0  0  0  0  0  0  0
    1.0277    2.8900   -1.1143 C   0  0  0  0  0  0  0  0  0  0  0  0
   -0.1269    2.9862   -1.9849 C   0  0  0  0  0  0  0  0  0  0  0  0
    0.3764    0.7628   -2.6381 C   0  0  0  0  0  0  0  0  0  0  0  0
    2.7569    0.5136    2.0361 H   0  0  0  0  0  0  0  0  0  0  0  0
    4.2811   -1.3123    2.6267 H   0  0  0  0  0  0  0  0  0  0  0  0
    4.7898    1.4925   -0.0494 H   0  0  0  0  0  0  0  0  0  0  0  0
    4.7655   -1.9889   -0.0420 H   0  0  0  0  0  0  0  0  0  0  0  0
   -3.0904    0.5385    2.9156 H   0  0  0  0  0  0  0  0  0  0  0  0
   -4.4373    2.2422    0.7481 H   0  0  0  0  0  0  0  0  0  0  0  0
   -1.7481    1.8549    0.5059 H   0  0  0  0  0  0  0  0  0  0  0  0
   -4.6639   -0.8179    1.0532 H   0  0  0  0  0  0  0  0  0  0  0  0
    2.8603   -2.9485    1.3056 H   0  0  0  0  0  0  0  0  0  0  0  0
    1.9053   -1.4853    0.9457 H   0  0  0  0  0  0  0  0  0  0  0  0
   -1.4287   -0.2899   -0.5073 H   0  0  0  0  0  0  0  0  0  0  0  0
    4.4396    1.2141    3.4443 H   0  0  0  0  0  0  0  0  0  0  0  0
    6.3024   -1.4478    1.6120 H   0  0  0  0  0  0  0  0  0  0  0  0
   -5.7413    1.0639   -1.1008 H   0  0  0  0  0  0  0  0  0  0  0  0
   -6.7207    0.2830    0.1722 H   0  0  0  0  0  0  0  0  0  0  0  0
    3.2493    3.6746    1.0158 H   0  0  0  0  0  0  0  0  0  0  0  0
   -2.7950    3.2151    2.0113 H   0  0  0  0  0  0  0  0  0  0  0  0
   -5.4301    0.5653    2.8221 H   0  0  0  0  0  0  0  0  0  0  0  0
   -0.0047    0.5689    1.2520 H   0  0  0  0  0  0  0  0  0  0  0  0
    2.0338   -0.1920   -1.7718 H   0  0  0  0  0  0  0  0  0  0  0  0
   -6.6916   -0.8725   -1.7855 H   0  0  0  0  0  0  0  0  0  0  0  0
    1.2665   -4.3998    1.3261 H   0  0  0  0  0  0  0  0  0  0  0  0
   -1.4817   -4.8682    1.1699 H   0  0  0  0  0  0  0  0  0  0  0  0
    0.7293   -1.1950   -3.2739 H   0  0  0  0  0  0  0  0  0  0  0  0
   -0.6417   -0.4328   -4.0106 H   0  0  0  0  0  0  0  0  0  0  0  0
  1  7  1  0  0  0  0
  1 12  1  0  0  0  0
  1 14  1  0  0  0  0
  1 16  2  0  0  0  0
  2  8  1  0  0  0  0
  2 12  1  0  0  0  0
  2 15  1  0  0  0  0
  2 17  2  0  0  0  0
  3 26  1  0  0  0  0
  3 27  1  0  0  0  0
  4 31  1  0  0  0  0
  4 33  1  0  0  0  0
  5 24  1  0  0  0  0
  5 51  1  0  0  0  0
  6 25  1  0  0  0  0
  6 52  1  0  0  0  0
  7 32  1  0  0  0  0
  8 33  1  0  0  0  0
  9 28  1  0  0  0  0
  9 56  1  0  0  0  0
 10 29  1  0  0  0  0
 10 57  1  0  0  0  0
 11 30  1  0  0  0  0
 11 58  1  0  0  0  0
 13 35  1  0  0  0  0
 13 60  1  0  0  0  0
 14 61  1  0  0  0  0
 15 62  1  0  0  0  0
 18 38  2  0  0  0  0
 19 26  1  0  0  0  0
 19 34  1  0  0  0  0
 19 36  1  0  0  0  0
 20 34  1  0  0  0  0
 20 39  1  0  0  0  0
 20 59  1  0  0  0  0
 21 36  2  0  0  0  0
 21 37  1  0  0  0  0
 22 38  1  0  0  0  0
 22 39  2  0  0  0  0
 23 39  1  0  0  0  0
 23 63  1  0  0  0  0
 23 64  1  0  0  0  0
 24 25  1  0  0  0  0
 24 26  1  0  0  0  0
 24 40  1  0  0  0  0
 25 27  1  0  0  0  0
 25 41  1  0  0  0  0
 26 42  1  0  0  0  0
 27 32  1  0  0  0  0
 27 43  1  0  0  0  0
 28 29  1  0  0  0  0
 28 30  1  0  0  0  0
 28 44  1  0  0  0  0
 29 31  1  0  0  0  0
 29 45  1  0  0  0  0
 30 33  1  0  0  0  0
 30 46  1  0  0  0  0
 31 35  1  0  0  0  0
 31 47  1  0  0  0  0
 32 48  1  0  0  0  0
 32 49  1  0  0  0  0
 33 50  1  0  0  0  0
 34 37  2  0  0  0  0
 35 53  1  0  0  0  0
 35 54  1  0  0  0  0
 36 55  1  0  0  0  0
 37 38  1  0  0  0  0
M  END
> <PUBCHEM_COMPOUND_CID>
46173703

> <PUBCHEM_CONFORMER_RMSD>
1.6

> <PUBCHEM_CONFORMER_DIVERSEORDER>
1
205
219
38
213
92
235
24
96
63
74
123
32
150
180
46
157
129
185
202
116
6
201
207
155
60
113
115
107
172
187
214
13
118
174
221
48
112
179
181
5
230
182
218
73
228
109
53
128
161
39
82
166
78
11
215
4
199
164
110
208
126
186
59
196
233
100
163
231
28
94
159
45
152
70
33
64
72
176
135
75
8
226
184
99
200
119
225
54
71
105
49
229
42
26
55
178
108
81
237
122
111
194
211
117
212
238
79
37
132
171
69
220
97
169
30
131
83
50
217
234
188
10
192
138
25
44
68
43
206
151
41
145
222
190
203
47
29
139
144
77
197
168
121
133
51
125
232
216
40
209
175
36
114
127
86
227
136
16
15
160
167
3
80
104
61
137
146
58
67
87
224
140
57
106
62
148
210
153
130
156
7
195
204
165
65
170
173
23
90
95
198
84
101
31
93
66
21
162
154
120
158
102
193
189
103
177
56
22
183
191
147
14
236
223
142
20
76
149
18
17
35
134
52
124
89
34
143
9
141
91
27
12
88
98
2
19
85

> <PUBCHEM_MMFF94_PARTIAL_CHARGES>
51
1 1.51
10 -0.68
11 -0.68
12 -0.54
13 -0.68
14 -0.77
15 -0.77
16 -0.7
17 -0.7
18 -0.57
19 0.05
2 1.51
20 -0.53
21 -0.57
22 -0.66
23 -0.85
24 0.28
25 0.28
26 0.54
27 0.28
28 0.28
29 0.28
3 -0.56
30 0.28
31 0.28
32 0.28
33 0.56
34 -0.07
35 0.28
36 0.04
37 0.14
38 0.87
39 0.55
4 -0.56
5 -0.68
51 0.4
52 0.4
55 0.15
56 0.4
57 0.4
58 0.4
59 0.4
6 -0.68
60 0.4
61 0.5
62 0.5
63 0.4
64 0.4
7 -0.55
8 -0.55
9 -0.68

> <PUBCHEM_EFFECTIVE_ROTOR_COUNT>
11.2

> <PUBCHEM_PHARMACOPHORE_FEATURES>
27
1 10 acceptor
1 10 donor
1 11 acceptor
1 11 donor
1 13 acceptor
1 13 donor
1 14 acceptor
1 15 acceptor
1 16 acceptor
1 17 acceptor
1 18 acceptor
1 20 donor
1 22 donor
1 23 donor
1 3 acceptor
1 4 acceptor
1 5 acceptor
1 5 donor
1 6 acceptor
1 6 donor
1 9 acceptor
1 9 donor
3 19 21 36 cation
5 19 21 34 36 37 rings
5 3 24 25 26 27 rings
6 20 22 34 37 38 39 rings
6 4 28 29 30 31 33 rings

> <PUBCHEM_HEAVY_ATOM_COUNT>
39

> <PUBCHEM_ATOM_DEF_STEREO_COUNT>
8

> <PUBCHEM_ATOM_UDEF_STEREO_COUNT>
1

> <PUBCHEM_BOND_DEF_STEREO_COUNT>
0

> <PUBCHEM_BOND_UDEF_STEREO_COUNT>
0

> <PUBCHEM_ISOTOPIC_ATOM_COUNT>
0

> <PUBCHEM_COMPONENT_COUNT>
1

> <PUBCHEM_CACTVS_TAUTO_COUNT>
9

> <PUBCHEM_CONFORMER_ID>
02C08E0700000001

> <PUBCHEM_MMFF94_ENERGY>
62.3787

> <PUBCHEM_FEATURE_SELFOVERLAP>
137.302

> <PUBCHEM_SHAPE_FINGERPRINT>
10675989 125 16901018995533712255
10708813 3 18125437514809474076
12422481 6 18200883962365888987
12633257 1 18413112745005532628
12788726 201 17542493947264334391
13692115 46 14079778446649447943
13965767 371 18339084890692705922
14117953 113 18411707616242357942
14840074 17 18130776859533567916
15420108 30 18196084440056989040
15840311 113 17826500361500780481
17974551 9 18196653999426378952
20764821 26 18045206160231940891
3493558 16 18267589013884311835
35225 105 17392190725143366014
6287921 2 17971744725826139315

> <PUBCHEM_SHAPE_MULTIPOLES>
691.49
9.94
5.43
2.78
5.53
3.17
-0.68
-0.78
6.27
-1.42
-1.73
0.28
-1.43
-0.98

> <PUBCHEM_SHAPE_SELFOVERLAP>
1438.389

> <PUBCHEM_SHAPE_VOLUME>
394.6

> <PUBCHEM_COORDINATE_TYPE>
2
5
10

$$$$

