151725
  -OEChem-07051212503D

 20 20  0     1  0  0  0  0  0999 V2000
    2.4580   -0.2478   -1.4649 O   0  0  0  0  0  0  0  0  0  0  0  0
   -1.9915    2.1259   -0.2234 O   0  0  0  0  0  0  0  0  0  0  0  0
   -3.5925   -0.1051    0.2078 O   0  0  0  0  0  0  0  0  0  0  0  0
    3.5171    1.0338    0.6764 O   0  0  0  0  0  0  0  0  0  0  0  0
    0.5286   -0.5183   -0.0813 C   0  0  0  0  0  0  0  0  0  0  0  0
    2.0085   -0.6715   -0.1837 C   0  0  2  0  0  0  0  0  0  0  0  0
   -0.0520    0.7444   -0.2006 C   0  0  0  0  0  0  0  0  0  0  0  0
   -0.2750   -1.6378    0.1347 C   0  0  0  0  0  0  0  0  0  0  0  0
   -1.4361    0.8876   -0.1040 C   0  0  0  0  0  0  0  0  0  0  0  0
   -1.6591   -1.4946    0.2315 C   0  0  0  0  0  0  0  0  0  0  0  0
   -2.2396   -0.2319    0.1120 C   0  0  0  0  0  0  0  0  0  0  0  0
    2.7336    0.1153    0.8954 C   0  0  0  0  0  0  0  0  0  0  0  0
    2.3029   -1.7206   -0.0645 H   0  0  0  0  0  0  0  0  0  0  0  0
    0.5656    1.6229   -0.3718 H   0  0  0  0  0  0  0  0  0  0  0  0
    0.1623   -2.6281    0.2301 H   0  0  0  0  0  0  0  0  0  0  0  0
   -2.2734   -2.3752    0.4000 H   0  0  0  0  0  0  0  0  0  0  0  0
    2.5228   -0.2035    1.9316 H   0  0  0  0  0  0  0  0  0  0  0  0
    3.4009   -0.4759   -1.5338 H   0  0  0  0  0  0  0  0  0  0  0  0
   -2.9562    2.0385   -0.1312 H   0  0  0  0  0  0  0  0  0  0  0  0
   -3.9831   -0.9833    0.3571 H   0  0  0  0  0  0  0  0  0  0  0  0
  1  6  1  0  0  0  0
  1 18  1  0  0  0  0
  2  9  1  0  0  0  0
  2 19  1  0  0  0  0
  3 11  1  0  0  0  0
  3 20  1  0  0  0  0
  4 12  2  0  0  0  0
  5  6  1  0  0  0  0
  5  7  2  0  0  0  0
  5  8  1  0  0  0  0
  6 12  1  0  0  0  0
  6 13  1  0  0  0  0
  7  9  1  0  0  0  0
  7 14  1  0  0  0  0
  8 10  2  0  0  0  0
  8 15  1  0  0  0  0
  9 11  2  0  0  0  0
 10 11  1  0  0  0  0
 10 16  1  0  0  0  0
 12 17  1  0  0  0  0
M  END
> <PUBCHEM_COMPOUND_CID>
151725

> <PUBCHEM_CONFORMER_RMSD>
0.6

> <PUBCHEM_CONFORMER_DIVERSEORDER>
3
8
5
9
1
6
7
2
4

> <PUBCHEM_MMFF94_PARTIAL_CHARGES>
19
1 -0.68
10 -0.15
11 0.08
12 0.45
14 0.15
15 0.15
16 0.15
17 0.06
18 0.4
19 0.45
2 -0.53
20 0.45
3 -0.53
4 -0.57
5 -0.14
6 0.48
7 -0.15
8 -0.15
9 0.08

> <PUBCHEM_EFFECTIVE_ROTOR_COUNT>
2

> <PUBCHEM_PHARMACOPHORE_FEATURES>
6
1 1 acceptor
1 1 donor
1 2 donor
1 3 donor
1 4 acceptor
6 5 7 8 9 10 11 rings

> <PUBCHEM_HEAVY_ATOM_COUNT>
12

> <PUBCHEM_ATOM_DEF_STEREO_COUNT>
0

> <PUBCHEM_ATOM_UDEF_STEREO_COUNT>
1

> <PUBCHEM_BOND_DEF_STEREO_COUNT>
0

> <PUBCHEM_BOND_UDEF_STEREO_COUNT>
0

> <PUBCHEM_ISOTOPIC_ATOM_COUNT>
0

> <PUBCHEM_COMPONENT_COUNT>
1

> <PUBCHEM_CACTVS_TAUTO_COUNT>
57

> <PUBCHEM_CONFORMER_ID>
000250AD00000003

> <PUBCHEM_MMFF94_ENERGY>
21.5129

> <PUBCHEM_FEATURE_SELFOVERLAP>
30.457

> <PUBCHEM_SHAPE_FINGERPRINT>
10857977 72 18412264995459490371
11031198 65 16805601439318245488
12716758 59 18338510945190223246
12932764 1 18260542359466829222
13538477 17 17703501091470760426
13839132 238 18335140942293611572
14325111 11 18339083790705862752
15219456 202 18113899386006371694
15310529 11 15213013873331529147
15775835 57 18413110558745827602
16945 1 18342170059926633767
17846911 113 18410582777171104329
18186145 218 17969215797162507497
20510252 161 18335421296168060633
20645464 45 18187086152410331674
20871998 184 18189614951850495791
21028194 46 18338232785928174158
21040471 1 18269551813484279623
23402539 116 18337127682379586127
23552423 10 17627782024848638261
2748010 2 18125715944733558127
3248919 1 17346593092902042322
369184 2 18410018736143164842
5084963 1 18336532928024487190
6333449 129 18262244326146581055
7364860 26 18192436492061266922

> <PUBCHEM_SHAPE_MULTIPOLES>
223.48
4.9
1.6
0.85
1.34
0.22
-0.14
0.97
0.66
-0.78
0.02
0.63
-0.01
0.38

> <PUBCHEM_SHAPE_SELFOVERLAP>
467.856

> <PUBCHEM_SHAPE_VOLUME>
126.3

> <PUBCHEM_COORDINATE_TYPE>
2
5
10

$$$$

