444
  -OEChem-07051212523D

 34 34  0     1  0  0  0  0  0999 V2000
   -3.0766    2.9472   -0.1114 Cl  0  0  0  0  0  0  0  0  0  0  0  0
    0.1193   -2.2961    0.7907 O   0  0  0  0  0  0  0  0  0  0  0  0
    2.0392   -0.0989    0.6779 N   0  0  0  0  0  0  0  0  0  0  0  0
    3.1953    0.6385    0.1576 C   0  0  0  0  0  0  0  0  0  0  0  0
    1.1375   -0.4630   -0.4018 C   0  0  1  0  0  0  0  0  0  0  0  0
    3.6897    1.6008    1.2429 C   0  0  0  0  0  0  0  0  0  0  0  0
    4.2967   -0.3668   -0.1952 C   0  0  0  0  0  0  0  0  0  0  0  0
    2.7780    1.4230   -1.0918 C   0  0  0  0  0  0  0  0  0  0  0  0
    1.8685   -1.3505   -1.4006 C   0  0  0  0  0  0  0  0  0  0  0  0
   -0.0339   -1.2181    0.2169 C   0  0  0  0  0  0  0  0  0  0  0  0
   -1.4113   -0.6518    0.1141 C   0  0  0  0  0  0  0  0  0  0  0  0
   -1.5603    0.7148    0.0585 C   0  0  0  0  0  0  0  0  0  0  0  0
   -2.4784   -1.5198    0.0780 C   0  0  0  0  0  0  0  0  0  0  0  0
   -2.8476    1.2430   -0.0388 C   0  0  0  0  0  0  0  0  0  0  0  0
   -3.7657   -0.9919   -0.0192 C   0  0  0  0  0  0  0  0  0  0  0  0
   -3.9503    0.3896   -0.0777 C   0  0  0  0  0  0  0  0  0  0  0  0
    1.5283    0.4890    1.3374 H   0  0  0  0  0  0  0  0  0  0  0  0
    0.7134    0.3755   -0.9551 H   0  0  0  0  0  0  0  0  0  0  0  0
    3.9806    1.0608    2.1517 H   0  0  0  0  0  0  0  0  0  0  0  0
    4.5638    2.1681    0.9030 H   0  0  0  0  0  0  0  0  0  0  0  0
    2.9163    2.3274    1.5190 H   0  0  0  0  0  0  0  0  0  0  0  0
    4.2574   -0.7841   -1.2015 H   0  0  0  0  0  0  0  0  0  0  0  0
    4.3404   -1.1929    0.5251 H   0  0  0  0  0  0  0  0  0  0  0  0
    5.2768    0.1262   -0.1444 H   0  0  0  0  0  0  0  0  0  0  0  0
    1.9421    2.1034   -0.8788 H   0  0  0  0  0  0  0  0  0  0  0  0
    3.6088    2.0972   -1.3503 H   0  0  0  0  0  0  0  0  0  0  0  0
    2.5834    0.9194   -2.0332 H   0  0  0  0  0  0  0  0  0  0  0  0
    1.1102   -1.8951   -1.9831 H   0  0  0  0  0  0  0  0  0  0  0  0
    2.4902   -0.9019   -2.1694 H   0  0  0  0  0  0  0  0  0  0  0  0
    2.4321   -2.1483   -0.8998 H   0  0  0  0  0  0  0  0  0  0  0  0
   -0.7208    1.3988    0.1301 H   0  0  0  0  0  0  0  0  0  0  0  0
   -2.3494   -2.5971    0.1165 H   0  0  0  0  0  0  0  0  0  0  0  0
   -4.6243   -1.6563   -0.0510 H   0  0  0  0  0  0  0  0  0  0  0  0
   -4.9593    0.7867   -0.1538 H   0  0  0  0  0  0  0  0  0  0  0  0
  1 14  1  0  0  0  0
  2 10  2  0  0  0  0
  3  4  1  0  0  0  0
  3  5  1  0  0  0  0
  3 17  1  0  0  0  0
  4  6  1  0  0  0  0
  4  7  1  0  0  0  0
  4  8  1  0  0  0  0
  5  9  1  0  0  0  0
  5 10  1  0  0  0  0
  5 18  1  0  0  0  0
  6 19  1  0  0  0  0
  6 20  1  0  0  0  0
  6 21  1  0  0  0  0
  7 22  1  0  0  0  0
  7 23  1  0  0  0  0
  7 24  1  0  0  0  0
  8 25  1  0  0  0  0
  8 26  1  0  0  0  0
  8 27  1  0  0  0  0
  9 28  1  0  0  0  0
  9 29  1  0  0  0  0
  9 30  1  0  0  0  0
 10 11  1  0  0  0  0
 11 12  2  0  0  0  0
 11 13  1  0  0  0  0
 12 14  1  0  0  0  0
 12 31  1  0  0  0  0
 13 15  2  0  0  0  0
 13 32  1  0  0  0  0
 14 16  2  0  0  0  0
 15 16  1  0  0  0  0
 15 33  1  0  0  0  0
 16 34  1  0  0  0  0
M  END
> <PUBCHEM_COMPOUND_CID>
444

> <PUBCHEM_CONFORMER_RMSD>
0.6

> <PUBCHEM_CONFORMER_DIVERSEORDER>
3
25
24
22
13
2
29
26
5
28
11
15
21
31
18
27
30
19
6
12
23
1
20
17
7
9
16
4
14
10
8

> <PUBCHEM_MMFF94_PARTIAL_CHARGES>
17
1 -0.18
10 0.42
11 0.09
12 -0.15
13 -0.15
14 0.18
15 -0.15
16 -0.15
17 0.36
2 -0.57
3 -0.9
31 0.15
32 0.15
33 0.15
34 0.15
4 0.27
5 0.33

> <PUBCHEM_EFFECTIVE_ROTOR_COUNT>
4

> <PUBCHEM_PHARMACOPHORE_FEATURES>
5
1 2 acceptor
1 3 cation
1 3 donor
4 4 6 7 8 hydrophobe
6 11 12 13 14 15 16 rings

> <PUBCHEM_HEAVY_ATOM_COUNT>
16

> <PUBCHEM_ATOM_DEF_STEREO_COUNT>
0

> <PUBCHEM_ATOM_UDEF_STEREO_COUNT>
1

> <PUBCHEM_BOND_DEF_STEREO_COUNT>
0

> <PUBCHEM_BOND_UDEF_STEREO_COUNT>
0

> <PUBCHEM_ISOTOPIC_ATOM_COUNT>
0

> <PUBCHEM_COMPONENT_COUNT>
1

> <PUBCHEM_CACTVS_TAUTO_COUNT>
2

> <PUBCHEM_CONFORMER_ID>
000001BC00000003

> <PUBCHEM_MMFF94_ENERGY>
55.7207

> <PUBCHEM_FEATURE_SELFOVERLAP>
25.371

> <PUBCHEM_SHAPE_FINGERPRINT>
10498660 4 18339647840630334981
10608611 8 18334576862436763185
10646746 165 18410575110665173196
10871710 139 16387905471624944840
11132069 177 18411704244545213669
11615756 256 18410283739894298365
11715629 250 18259987063123796525
12006461 19 10087634914226503857
12162725 195 18343580716012097100
12173636 292 18337392746755679349
12403259 415 18259702285676191296
12403260 363 18412551993874835428
12596602 18 17059784295381226856
12788726 201 16982640227599320202
13081056 2 18333731299366632672
14614273 12 17988651830421855319
14739800 52 18053388700313420928
15219456 202 18187077381934295022
15775835 57 18202282532460886417
1741750 31 18264488567318998401
17802600 8 18408608041292167648
18186145 218 18188195602444750494
19107657 47 16056889008815432148
192875 21 18200039438699190133
200 152 16877941646061549431
20281475 54 9151179748605966884
20510252 161 18408319969572569425
20645477 56 18336822100147133549
20645477 70 16950271923889927062
20671657 1 17908985748884569635
20671657 53 16881016005533357318
21069387 34 11743549939347744971
21524375 3 18410292514549179858
22182937 141 18189327034765836729
23402539 116 18338526239484414071
23557571 272 18337660924265909935
23559900 14 18043813302090285374
305870 269 18201722915397260379
351380 180 18335708217194625944
4028521 119 18411987983418030549
474 4 17988920093683628093
5104073 3 18410009948698171779
5281201 14 18040986388690382014
6333272 397 18201152165835593571
69090 78 18114184103224851447
7364860 26 18193557993589295451
9709674 26 18335695039992836655
9925002 15 17031920304053032575

> <PUBCHEM_SHAPE_MULTIPOLES>
320.29
8.11
2.39
0.98
1.45
0.98
-0.09
2.84
0.18
-1.4
0.07
0.86
0.03
0.63

> <PUBCHEM_SHAPE_SELFOVERLAP>
648.343

> <PUBCHEM_SHAPE_VOLUME>
189.3

> <PUBCHEM_COORDINATE_TYPE>
2
5
10

$$$$

