854242
  -OEChem-06241222473D

 41 43  0     0  0  0  0  0  0999 V2000
   -1.4988    0.8202    0.0003 S   0  0  0  0  0  0  0  0  0  0  0  0
    4.1085    2.0596   -0.0004 O   0  0  0  0  0  0  0  0  0  0  0  0
    5.1222   -2.4475   -0.0002 O   0  0  0  0  0  0  0  0  0  0  0  0
    1.1972    1.2152    0.0002 N   0  0  0  0  0  0  0  0  0  0  0  0
    2.8533   -1.8778    0.0002 N   0  0  0  0  0  0  0  0  0  0  0  0
    0.5776   -0.9287    0.0004 N   0  0  0  0  0  0  0  0  0  0  0  0
    4.5774   -0.2095   -0.0006 N   0  0  0  0  0  0  0  0  0  0  0  0
    1.1095    2.6589   -0.0001 C   0  0  0  0  0  0  0  0  0  0  0  0
    2.3496    0.4846   -0.0002 C   0  0  0  0  0  0  0  0  0  0  0  0
    1.9422   -0.8250   -0.0001 C   0  0  0  0  0  0  0  0  0  0  0  0
    0.1577    0.3201    0.0005 C   0  0  0  0  0  0  0  0  0  0  0  0
    0.4354    3.1916    1.2658 C   0  0  0  0  0  0  0  0  0  0  0  0
    0.4338    3.1910   -1.2653 C   0  0  0  0  0  0  0  0  0  0  0  0
    3.7154    0.8971   -0.0003 C   0  0  0  0  0  0  0  0  0  0  0  0
    4.2383   -1.5861   -0.0001 C   0  0  0  0  0  0  0  0  0  0  0  0
    2.3827   -3.2555    0.0007 C   0  0  0  0  0  0  0  0  0  0  0  0
   -2.3517   -0.7825    0.0001 C   0  0  0  0  0  0  0  0  0  0  0  0
   -3.8477   -0.6292    0.0000 C   0  0  0  0  0  0  0  0  0  0  0  0
   -4.5292   -0.5593   -1.2081 C   0  0  0  0  0  0  0  0  0  0  0  0
   -4.5293   -0.5590    1.2079 C   0  0  0  0  0  0  0  0  0  0  0  0
   -5.9168   -0.4166   -1.2082 C   0  0  0  0  0  0  0  0  0  0  0  0
   -5.9169   -0.4165    1.2078 C   0  0  0  0  0  0  0  0  0  0  0  0
   -6.6106   -0.3452   -0.0002 C   0  0  0  0  0  0  0  0  0  0  0  0
    2.1217    3.0628   -0.0008 H   0  0  0  0  0  0  0  0  0  0  0  0
   -0.6514    3.0884    1.2681 H   0  0  0  0  0  0  0  0  0  0  0  0
    0.6393    4.2643    1.3657 H   0  0  0  0  0  0  0  0  0  0  0  0
    0.8282    2.6989    2.1623 H   0  0  0  0  0  0  0  0  0  0  0  0
    0.8242    2.6969   -2.1621 H   0  0  0  0  0  0  0  0  0  0  0  0
    0.6390    4.2633   -1.3667 H   0  0  0  0  0  0  0  0  0  0  0  0
   -0.6531    3.0896   -1.2654 H   0  0  0  0  0  0  0  0  0  0  0  0
    5.5719    0.0008   -0.0010 H   0  0  0  0  0  0  0  0  0  0  0  0
    3.2170   -3.9616    0.0009 H   0  0  0  0  0  0  0  0  0  0  0  0
    1.7756   -3.4245   -0.8940 H   0  0  0  0  0  0  0  0  0  0  0  0
    1.7758   -3.4238    0.8956 H   0  0  0  0  0  0  0  0  0  0  0  0
   -2.0410   -1.3604    0.8790 H   0  0  0  0  0  0  0  0  0  0  0  0
   -2.0408   -1.3602   -0.8787 H   0  0  0  0  0  0  0  0  0  0  0  0
   -3.9990   -0.6127   -2.1549 H   0  0  0  0  0  0  0  0  0  0  0  0
   -3.9992   -0.6123    2.1548 H   0  0  0  0  0  0  0  0  0  0  0  0
   -6.4571   -0.3608   -2.1488 H   0  0  0  0  0  0  0  0  0  0  0  0
   -6.4572   -0.3605    2.1483 H   0  0  0  0  0  0  0  0  0  0  0  0
   -7.6909   -0.2339   -0.0003 H   0  0  0  0  0  0  0  0  0  0  0  0
  1 11  1  0  0  0  0
  1 17  1  0  0  0  0
  2 14  2  0  0  0  0
  3 15  2  0  0  0  0
  4  8  1  0  0  0  0
  4  9  1  0  0  0  0
  4 11  1  0  0  0  0
  5 10  1  0  0  0  0
  5 15  1  0  0  0  0
  5 16  1  0  0  0  0
  6 10  1  0  0  0  0
  6 11  2  0  0  0  0
  7 14  1  0  0  0  0
  7 15  1  0  0  0  0
  7 31  1  0  0  0  0
  8 12  1  0  0  0  0
  8 13  1  0  0  0  0
  8 24  1  0  0  0  0
  9 10  2  0  0  0  0
  9 14  1  0  0  0  0
 12 25  1  0  0  0  0
 12 26  1  0  0  0  0
 12 27  1  0  0  0  0
 13 28  1  0  0  0  0
 13 29  1  0  0  0  0
 13 30  1  0  0  0  0
 16 32  1  0  0  0  0
 16 33  1  0  0  0  0
 16 34  1  0  0  0  0
 17 18  1  0  0  0  0
 17 35  1  0  0  0  0
 17 36  1  0  0  0  0
 18 19  2  0  0  0  0
 18 20  1  0  0  0  0
 19 21  1  0  0  0  0
 19 37  1  0  0  0  0
 20 22  2  0  0  0  0
 20 38  1  0  0  0  0
 21 23  2  0  0  0  0
 21 39  1  0  0  0  0
 22 23  1  0  0  0  0
 22 40  1  0  0  0  0
 23 41  1  0  0  0  0
M  END
> <PUBCHEM_COMPOUND_CID>
854242

> <PUBCHEM_CONFORMER_RMSD>
0.6

> <PUBCHEM_CONFORMER_DIVERSEORDER>
1
4
5
13
20
19
12
8
2
9
3
11
10
16
18
15
17
14
7
6

> <PUBCHEM_MMFF94_PARTIAL_CHARGES>
27
1 -0.29
10 0.29
11 0.24
14 0.71
15 0.69
16 0.3
17 0.37
18 -0.14
19 -0.15
2 -0.57
20 -0.15
21 -0.15
22 -0.15
23 -0.15
3 -0.57
31 0.37
37 0.15
38 0.15
39 0.15
4 0.05
40 0.15
41 0.15
5 -0.42
6 -0.57
7 -0.49
8 0.26
9 -0.24

> <PUBCHEM_EFFECTIVE_ROTOR_COUNT>
4

> <PUBCHEM_PHARMACOPHORE_FEATURES>
8
1 2 acceptor
1 3 acceptor
1 7 donor
3 4 6 11 cation
3 8 12 13 hydrophobe
5 4 6 9 10 11 rings
6 18 19 20 21 22 23 rings
6 5 7 9 10 14 15 rings

> <PUBCHEM_HEAVY_ATOM_COUNT>
23

> <PUBCHEM_ATOM_DEF_STEREO_COUNT>
0

> <PUBCHEM_ATOM_UDEF_STEREO_COUNT>
0

> <PUBCHEM_BOND_DEF_STEREO_COUNT>
0

> <PUBCHEM_BOND_UDEF_STEREO_COUNT>
0

> <PUBCHEM_ISOTOPIC_ATOM_COUNT>
0

> <PUBCHEM_COMPONENT_COUNT>
1

> <PUBCHEM_CACTVS_TAUTO_COUNT>
3

> <PUBCHEM_CONFORMER_ID>
000D08E200000001

> <PUBCHEM_MMFF94_ENERGY>
49.704

> <PUBCHEM_FEATURE_SELFOVERLAP>
40.711

> <PUBCHEM_SHAPE_FINGERPRINT>
10411042 1 18267022946201001202
10673678 19 17129560373022070196
10688039 33 18202282536882941829
11265709 11 18335700593442994329
11421498 54 13038922044203192173
11545043 162 17418088785839264705
11796584 16 17561368365877887219
12107183 9 17828754377137307971
12236239 1 17894347761953462775
12516196 113 18334297573798872875
12596602 18 16877667846349932075
12616971 3 17967808315959689635
13134695 92 18261675887441564609
13402501 40 18131632275179703547
13533116 47 18261110764007351323
13544653 18 18410291428133346645
14170010 4 18411139096022262961
14341114 176 18412257320964719097
14386348 63 17846497020118012851
14790565 3 17620466918477080532
15081414 286 18342736286745319661
15475509 35 14707476054011236902
17492 89 18050852422982046002
17844677 252 18412259562948379173
17980427 26 17462869587361706748
1813 80 18261661675394289015
18222031 100 18334582364363819890
20028762 73 18187086195582467094
20511986 3 17749120971784939529
20645477 70 18413393145950658719
21033648 29 17988380182620760581
21033650 10 16083021102221345985
21267235 1 18337385032778429862
21279426 13 18270969063109686893
21285901 2 17917998299278002997
21478907 32 18267024049374216824
21641784 216 18058148674595329612
221357 26 18342747334075996549
22289505 5 18412834589991309717
23559900 14 18271247115113331553
239999 70 17918273147410566130
2871803 45 18272936054651119282
3004659 81 18130508621282235298
314194 84 18408323276665946299
3421961 26 18410856559682104680
345986 75 18188779477605471779
34797466 226 16630515216095655263
3882209 13 16976495503778261643
4015057 19 18339083679949388347
4073 2 18129940066950556555
46194498 28 17632015252190654157
5104073 3 18338521948922953096
7471813 234 18040438776450764201
8863177 126 17988066795847520243
9971528 1 18335146366763570473

> <PUBCHEM_SHAPE_MULTIPOLES>
445.52
13.49
3.23
1.02
17.27
1.31
0
-6.72
0
-4.93
0
1.32
0.35
0

> <PUBCHEM_SHAPE_SELFOVERLAP>
944.224

> <PUBCHEM_SHAPE_VOLUME>
252.4

> <PUBCHEM_COORDINATE_TYPE>
2
5
10

$$$$

