16822
  -OEChem-07051212593D

 27 27  0     0  0  0  0  0  0999 V2000
   -2.4581    1.6291    0.1126 O   0  0  0  0  0  0  0  0  0  0  0  0
    4.4259    1.0735   -0.2366 O   0  0  0  0  0  0  0  0  0  0  0  0
   -3.6165   -0.8884    0.3213 O   0  0  0  0  0  0  0  0  0  0  0  0
    1.9290   -0.3892   -0.5970 C   0  0  0  0  0  0  0  0  0  0  0  0
    2.7310   -0.3297    0.7090 C   0  0  0  0  0  0  0  0  0  0  0  0
    0.4633   -0.5178   -0.3543 C   0  0  0  0  0  0  0  0  0  0  0  0
   -0.3262    0.6256   -0.2318 C   0  0  0  0  0  0  0  0  0  0  0  0
    4.2216   -0.1487    0.4588 C   0  0  0  0  0  0  0  0  0  0  0  0
   -0.1182   -1.7814   -0.2493 C   0  0  0  0  0  0  0  0  0  0  0  0
   -1.6973    0.5053   -0.0044 C   0  0  0  0  0  0  0  0  0  0  0  0
   -1.4891   -1.9017   -0.0219 C   0  0  0  0  0  0  0  0  0  0  0  0
   -2.2786   -0.7584    0.1005 C   0  0  0  0  0  0  0  0  0  0  0  0
   -1.7867    2.8818   -0.0069 C   0  0  0  0  0  0  0  0  0  0  0  0
    2.1172    0.5050   -1.2048 H   0  0  0  0  0  0  0  0  0  0  0  0
    2.2787   -1.2330   -1.2061 H   0  0  0  0  0  0  0  0  0  0  0  0
    2.5696   -1.2437    1.2928 H   0  0  0  0  0  0  0  0  0  0  0  0
    2.3665    0.5103    1.3144 H   0  0  0  0  0  0  0  0  0  0  0  0
    0.1813    1.5804   -0.3196 H   0  0  0  0  0  0  0  0  0  0  0  0
    4.7646   -0.1065    1.4079 H   0  0  0  0  0  0  0  0  0  0  0  0
    4.6216   -0.9701   -0.1441 H   0  0  0  0  0  0  0  0  0  0  0  0
    0.4865   -2.6799   -0.3409 H   0  0  0  0  0  0  0  0  0  0  0  0
   -1.9289   -2.8922    0.0581 H   0  0  0  0  0  0  0  0  0  0  0  0
    5.3835    1.1632   -0.3800 H   0  0  0  0  0  0  0  0  0  0  0  0
   -3.8398   -1.8340    0.3646 H   0  0  0  0  0  0  0  0  0  0  0  0
   -1.3490    3.0122   -1.0026 H   0  0  0  0  0  0  0  0  0  0  0  0
   -1.0536    3.0252    0.7942 H   0  0  0  0  0  0  0  0  0  0  0  0
   -2.5430    3.6648    0.1117 H   0  0  0  0  0  0  0  0  0  0  0  0
  1 10  1  0  0  0  0
  1 13  1  0  0  0  0
  2  8  1  0  0  0  0
  2 23  1  0  0  0  0
  3 12  1  0  0  0  0
  3 24  1  0  0  0  0
  4  5  1  0  0  0  0
  4  6  1  0  0  0  0
  4 14  1  0  0  0  0
  4 15  1  0  0  0  0
  5  8  1  0  0  0  0
  5 16  1  0  0  0  0
  5 17  1  0  0  0  0
  6  7  2  0  0  0  0
  6  9  1  0  0  0  0
  7 10  1  0  0  0  0
  7 18  1  0  0  0  0
  8 19  1  0  0  0  0
  8 20  1  0  0  0  0
  9 11  2  0  0  0  0
  9 21  1  0  0  0  0
 10 12  2  0  0  0  0
 11 12  1  0  0  0  0
 11 22  1  0  0  0  0
 13 25  1  0  0  0  0
 13 26  1  0  0  0  0
 13 27  1  0  0  0  0
M  END
> <PUBCHEM_COMPOUND_CID>
16822

> <PUBCHEM_CONFORMER_RMSD>
0.6

> <PUBCHEM_CONFORMER_DIVERSEORDER>
17
5
15
28
20
26
14
25
9
12
19
16
1
8
22
27
23
10
21
11
18
24
4
6
2
13
7
3

> <PUBCHEM_MMFF94_PARTIAL_CHARGES>
17
1 -0.36
10 0.08
11 -0.15
12 0.08
13 0.28
18 0.15
2 -0.68
21 0.15
22 0.15
23 0.4
24 0.45
3 -0.53
4 0.14
6 -0.14
7 -0.15
8 0.28
9 -0.15

> <PUBCHEM_EFFECTIVE_ROTOR_COUNT>
4

> <PUBCHEM_PHARMACOPHORE_FEATURES>
5
1 1 acceptor
1 2 acceptor
1 2 donor
1 3 donor
6 6 7 9 10 11 12 rings

> <PUBCHEM_HEAVY_ATOM_COUNT>
13

> <PUBCHEM_ATOM_DEF_STEREO_COUNT>
0

> <PUBCHEM_ATOM_UDEF_STEREO_COUNT>
0

> <PUBCHEM_BOND_DEF_STEREO_COUNT>
0

> <PUBCHEM_BOND_UDEF_STEREO_COUNT>
0

> <PUBCHEM_ISOTOPIC_ATOM_COUNT>
0

> <PUBCHEM_COMPONENT_COUNT>
1

> <PUBCHEM_CACTVS_TAUTO_COUNT>
3

> <PUBCHEM_CONFORMER_ID>
000041B600000011

> <PUBCHEM_MMFF94_ENERGY>
35.9152

> <PUBCHEM_FEATURE_SELFOVERLAP>
25.371

> <PUBCHEM_SHAPE_FINGERPRINT>
10608611 8 18334296500383953460
12932764 1 17458357329274744742
13024252 1 12319744678245668455
13296909 8 18341617035426375468
13839132 238 18262516034446580774
13897977 58 18341045216755754404
14325111 11 18410012182360622686
15219456 202 18041274478201928790
15669948 3 18337117769822140902
16945 1 18411408506230260335
17834072 32 18339079414340682956
18186145 218 17896308298259237566
19422 9 18131073762059166610
20510252 161 18334855038910135425
20645464 45 18040432204776014366
20871998 184 18334011670721624623
21524375 3 18118415174228727813
21652331 79 18338235943161958800
23402539 116 18262246538513824223
23559900 14 18044090383858816862
2748010 2 18122329444672650015
3071541 12 17543347614953518223
43471831 8 18271810171776998738
6333449 129 18336269028201605773

> <PUBCHEM_SHAPE_MULTIPOLES>
249.93
6.4
2.25
0.71
7.11
1.23
0.01
1.29
0.91
-2.07
-0.05
0.23
-0.04
-0.03

> <PUBCHEM_SHAPE_SELFOVERLAP>
507.806

> <PUBCHEM_SHAPE_VOLUME>
146.2

> <PUBCHEM_COORDINATE_TYPE>
2
5
10

$$$$

