441853
  -OEChem-07051212563D

 83 88  0     1  0  0  0  0  0999 V2000
   -3.5607   -2.4902    1.9015 O   0  0  0  0  0  0  0  0  0  0  0  0
    2.3304   -2.2122   -0.7981 O   0  0  0  0  0  0  0  0  0  0  0  0
    3.4688    0.3356   -0.9191 O   0  0  0  0  0  0  0  0  0  0  0  0
    0.1386   -2.3685   -3.3359 O   0  0  0  0  0  0  0  0  0  0  0  0
   -6.9838    2.6649   -1.0189 O   0  0  0  0  0  0  0  0  0  0  0  0
    5.0849    1.9625   -0.4469 O   0  0  0  0  0  0  0  0  0  0  0  0
   -8.7593    2.4859    0.4341 O   0  0  0  0  0  0  0  0  0  0  0  0
    6.7868   -0.2475    1.6979 O   0  0  0  0  0  0  0  0  0  0  0  0
    8.5393    1.6990    0.8097 O   0  0  0  0  0  0  0  0  0  0  0  0
   -3.0460   -1.3649    1.1731 C   0  0  1  0  0  0  0  0  0  0  0  0
   -1.7322   -1.8288    0.4707 C   0  0  1  0  0  0  0  0  0  0  0  0
   -4.1337   -0.7991    0.1821 C   0  0  1  0  0  0  0  0  0  0  0  0
   -1.2078   -0.7842   -0.5486 C   0  0  1  0  0  0  0  0  0  0  0  0
    0.1534   -1.2013   -1.2123 C   0  0  2  0  0  0  0  0  0  0  0  0
    1.2079   -1.6072   -0.1351 C   0  0  1  0  0  0  0  0  0  0  0  0
   -4.2716    0.6985    0.6057 C   0  0  2  0  0  0  0  0  0  0  0  0
   -3.6898   -0.9311   -1.2872 C   0  0  0  0  0  0  0  0  0  0  0  0
   -2.2899   -0.4008   -1.5878 C   0  0  0  0  0  0  0  0  0  0  0  0
   -2.8307   -0.2510    2.2274 C   0  0  0  0  0  0  0  0  0  0  0  0
   -0.6577   -2.2348    1.4994 C   0  0  0  0  0  0  0  0  0  0  0  0
    0.6537   -2.6522    0.8497 C   0  0  0  0  0  0  0  0  0  0  0  0
   -4.0453    0.6582    2.1132 C   0  0  0  0  0  0  0  0  0  0  0  0
    0.7370   -0.0760   -2.1133 C   0  0  0  0  0  0  0  0  0  0  0  0
    1.7397   -0.3701    0.6371 C   0  0  0  0  0  0  0  0  0  0  0  0
   -5.4890   -1.5420    0.3150 C   0  0  0  0  0  0  0  0  0  0  0  0
    1.2451    1.1355   -1.3327 C   0  0  0  0  0  0  0  0  0  0  0  0
    2.2665    0.7444   -0.2718 C   0  0  2  0  0  0  0  0  0  0  0  0
   -0.0996   -2.3847   -2.1327 C   0  0  0  0  0  0  0  0  0  0  0  0
   -5.5339    1.3978    0.2195 C   0  0  0  0  0  0  0  0  0  0  0  0
   -5.6408    2.1698   -1.0353 C   0  0  0  0  0  0  0  0  0  0  0  0
   -6.6753    1.4291    0.9022 C   0  0  0  0  0  0  0  0  0  0  0  0
    4.6151    0.6513   -0.1340 C   0  0  2  0  0  0  0  0  0  0  0  0
   -7.6087    2.2383    0.1170 C   0  0  0  0  0  0  0  0  0  0  0  0
    5.6951   -0.3879   -0.4440 C   0  0  0  0  0  0  0  0  0  0  0  0
    6.9900   -0.0660    0.2958 C   0  0  1  0  0  0  0  0  0  0  0  0
    6.2321    2.3422    0.3233 C   0  0  1  0  0  0  0  0  0  0  0  0
    7.3958    1.3855    0.0251 C   0  0  1  0  0  0  0  0  0  0  0  0
    6.5629    3.7855   -0.0431 C   0  0  0  0  0  0  0  0  0  0  0  0
    6.4124   -1.5834    1.9973 C   0  0  0  0  0  0  0  0  0  0  0  0
   -1.9820   -2.7493   -0.0756 H   0  0  0  0  0  0  0  0  0  0  0  0
   -1.0121    0.1309    0.0229 H   0  0  0  0  0  0  0  0  0  0  0  0
   -3.4402    1.2836    0.1896 H   0  0  0  0  0  0  0  0  0  0  0  0
   -4.4062   -0.4426   -1.9570 H   0  0  0  0  0  0  0  0  0  0  0  0
   -3.7097   -1.9935   -1.5683 H   0  0  0  0  0  0  0  0  0  0  0  0
   -2.0286   -0.7480   -2.5934 H   0  0  0  0  0  0  0  0  0  0  0  0
   -2.3222    0.6931   -1.6696 H   0  0  0  0  0  0  0  0  0  0  0  0
   -2.7266   -0.6359    3.2477 H   0  0  0  0  0  0  0  0  0  0  0  0
   -1.9400    0.3473    2.0064 H   0  0  0  0  0  0  0  0  0  0  0  0
   -0.4598   -1.4169    2.1995 H   0  0  0  0  0  0  0  0  0  0  0  0
   -1.0246   -3.0701    2.1083 H   0  0  0  0  0  0  0  0  0  0  0  0
    1.3989   -2.8601    1.6289 H   0  0  0  0  0  0  0  0  0  0  0  0
    0.5175   -3.6137    0.3383 H   0  0  0  0  0  0  0  0  0  0  0  0
   -3.8454    1.6496    2.5334 H   0  0  0  0  0  0  0  0  0  0  0  0
   -4.8851    0.2200    2.6637 H   0  0  0  0  0  0  0  0  0  0  0  0
    1.5684   -0.4580   -2.7212 H   0  0  0  0  0  0  0  0  0  0  0  0
   -0.0062    0.2707   -2.8414 H   0  0  0  0  0  0  0  0  0  0  0  0
    2.5461   -0.6996    1.3038 H   0  0  0  0  0  0  0  0  0  0  0  0
    0.9524    0.0535    1.2697 H   0  0  0  0  0  0  0  0  0  0  0  0
   -5.9295   -1.4380    1.3115 H   0  0  0  0  0  0  0  0  0  0  0  0
   -5.3657   -2.6136    0.1177 H   0  0  0  0  0  0  0  0  0  0  0  0
   -6.2211   -1.1787   -0.4151 H   0  0  0  0  0  0  0  0  0  0  0  0
    0.4019    1.6549   -0.8637 H   0  0  0  0  0  0  0  0  0  0  0  0
    1.6994    1.8391   -2.0410 H   0  0  0  0  0  0  0  0  0  0  0  0
    2.4614    1.6415    0.3317 H   0  0  0  0  0  0  0  0  0  0  0  0
   -4.2508   -2.1808    2.5119 H   0  0  0  0  0  0  0  0  0  0  0  0
   -0.5160   -3.2948   -1.6725 H   0  0  0  0  0  0  0  0  0  0  0  0
    2.7839   -1.5423   -1.3341 H   0  0  0  0  0  0  0  0  0  0  0  0
   -5.5070    1.5540   -1.9274 H   0  0  0  0  0  0  0  0  0  0  0  0
   -4.9501    3.0176   -1.0612 H   0  0  0  0  0  0  0  0  0  0  0  0
   -6.9191    0.9681    1.8433 H   0  0  0  0  0  0  0  0  0  0  0  0
    4.3723    0.6062    0.9357 H   0  0  0  0  0  0  0  0  0  0  0  0
    5.3139   -1.3962   -0.2569 H   0  0  0  0  0  0  0  0  0  0  0  0
    5.9023   -0.3567   -1.5229 H   0  0  0  0  0  0  0  0  0  0  0  0
    7.8004   -0.7334   -0.0234 H   0  0  0  0  0  0  0  0  0  0  0  0
    5.9754    2.3220    1.3904 H   0  0  0  0  0  0  0  0  0  0  0  0
    7.6741    1.4794   -1.0325 H   0  0  0  0  0  0  0  0  0  0  0  0
    5.7005    4.4337    0.1472 H   0  0  0  0  0  0  0  0  0  0  0  0
    7.4136    4.1615    0.5327 H   0  0  0  0  0  0  0  0  0  0  0  0
    6.7934    3.8753   -1.1105 H   0  0  0  0  0  0  0  0  0  0  0  0
    9.2417    1.0706    0.5708 H   0  0  0  0  0  0  0  0  0  0  0  0
    5.3371   -1.7290    1.8605 H   0  0  0  0  0  0  0  0  0  0  0  0
    6.9857   -2.3151    1.4188 H   0  0  0  0  0  0  0  0  0  0  0  0
    6.6234   -1.7557    3.0573 H   0  0  0  0  0  0  0  0  0  0  0  0
  1 10  1  0  0  0  0
  1 65  1  0  0  0  0
  2 15  1  0  0  0  0
  2 67  1  0  0  0  0
  3 27  1  0  0  0  0
  3 32  1  0  0  0  0
  4 28  2  0  0  0  0
  5 30  1  0  0  0  0
  5 33  1  0  0  0  0
  6 32  1  0  0  0  0
  6 36  1  0  0  0  0
  7 33  2  0  0  0  0
  8 35  1  0  0  0  0
  8 39  1  0  0  0  0
  9 37  1  0  0  0  0
  9 80  1  0  0  0  0
 10 11  1  0  0  0  0
 10 12  1  0  0  0  0
 10 19  1  0  0  0  0
 11 13  1  0  0  0  0
 11 20  1  0  0  0  0
 11 40  1  0  0  0  0
 12 16  1  0  0  0  0
 12 17  1  0  0  0  0
 12 25  1  0  0  0  0
 13 14  1  0  0  0  0
 13 18  1  0  0  0  0
 13 41  1  0  0  0  0
 14 15  1  0  0  0  0
 14 23  1  0  0  0  0
 14 28  1  0  0  0  0
 15 21  1  0  0  0  0
 15 24  1  0  0  0  0
 16 22  1  0  0  0  0
 16 29  1  0  0  0  0
 16 42  1  0  0  0  0
 17 18  1  0  0  0  0
 17 43  1  0  0  0  0
 17 44  1  0  0  0  0
 18 45  1  0  0  0  0
 18 46  1  0  0  0  0
 19 22  1  0  0  0  0
 19 47  1  0  0  0  0
 19 48  1  0  0  0  0
 20 21  1  0  0  0  0
 20 49  1  0  0  0  0
 20 50  1  0  0  0  0
 21 51  1  0  0  0  0
 21 52  1  0  0  0  0
 22 53  1  0  0  0  0
 22 54  1  0  0  0  0
 23 26  1  0  0  0  0
 23 55  1  0  0  0  0
 23 56  1  0  0  0  0
 24 27  1  0  0  0  0
 24 57  1  0  0  0  0
 24 58  1  0  0  0  0
 25 59  1  0  0  0  0
 25 60  1  0  0  0  0
 25 61  1  0  0  0  0
 26 27  1  0  0  0  0
 26 62  1  0  0  0  0
 26 63  1  0  0  0  0
 27 64  1  0  0  0  0
 28 66  1  0  0  0  0
 29 30  1  0  0  0  0
 29 31  2  0  0  0  0
 30 68  1  0  0  0  0
 30 69  1  0  0  0  0
 31 33  1  0  0  0  0
 31 70  1  0  0  0  0
 32 34  1  0  0  0  0
 32 71  1  0  0  0  0
 34 35  1  0  0  0  0
 34 72  1  0  0  0  0
 34 73  1  0  0  0  0
 35 37  1  0  0  0  0
 35 74  1  0  0  0  0
 36 37  1  0  0  0  0
 36 38  1  0  0  0  0
 36 75  1  0  0  0  0
 37 76  1  0  0  0  0
 38 77  1  0  0  0  0
 38 78  1  0  0  0  0
 38 79  1  0  0  0  0
 39 81  1  0  0  0  0
 39 82  1  0  0  0  0
 39 83  1  0  0  0  0
M  END
> <PUBCHEM_COMPOUND_CID>
441853

> <PUBCHEM_CONFORMER_RMSD>
1

> <PUBCHEM_CONFORMER_DIVERSEORDER>
1
24
15
17
27
12
25
19
22
3
29
4
23
14
13
16
5
6
7
26
21
11
18
28
20
2
30
8
9
10

> <PUBCHEM_MMFF94_PARTIAL_CHARGES>
29
1 -0.68
10 0.28
14 0.06
15 0.28
16 0.14
2 -0.68
27 0.28
28 0.45
29 -0.28
3 -0.56
30 0.42
31 -0.14
32 0.56
33 0.71
35 0.28
36 0.28
37 0.28
39 0.28
4 -0.57
5 -0.43
6 -0.56
65 0.4
66 0.06
67 0.4
7 -0.57
70 0.15
8 -0.56
80 0.4
9 -0.68

> <PUBCHEM_EFFECTIVE_ROTOR_COUNT>
8.8

> <PUBCHEM_PHARMACOPHORE_FEATURES>
17
1 1 acceptor
1 1 donor
1 2 acceptor
1 2 donor
1 3 acceptor
1 4 acceptor
1 6 acceptor
1 7 acceptor
1 8 acceptor
1 9 acceptor
1 9 donor
5 10 12 16 19 22 rings
5 5 29 30 31 33 rings
6 10 11 12 13 17 18 rings
6 11 13 14 15 20 21 rings
6 14 15 23 24 26 27 rings
6 6 32 34 35 36 37 rings

> <PUBCHEM_HEAVY_ATOM_COUNT>
39

> <PUBCHEM_ATOM_DEF_STEREO_COUNT>
12

> <PUBCHEM_ATOM_UDEF_STEREO_COUNT>
0

> <PUBCHEM_BOND_DEF_STEREO_COUNT>
0

> <PUBCHEM_BOND_UDEF_STEREO_COUNT>
0

> <PUBCHEM_ISOTOPIC_ATOM_COUNT>
0

> <PUBCHEM_COMPONENT_COUNT>
1

> <PUBCHEM_CACTVS_TAUTO_COUNT>
1

> <PUBCHEM_CONFORMER_ID>
0006BDFD00000001

> <PUBCHEM_MMFF94_ENERGY>
138.2389

> <PUBCHEM_FEATURE_SELFOVERLAP>
86.582

> <PUBCHEM_SHAPE_FINGERPRINT>
10 15 18131348635122776781
10006869 2 18339366374306531048
10190108 129 15267062592588773416
10554248 39 17022891394102691572
10764073 3 17988926703865579278
11672396 43 16629390347514285899
117089 54 7563897301309126229
12422481 6 16845574206137494798
13150687 139 17168135767503120134
13383668 362 17059475405986650275
13673619 4 10303805476406763071
13782708 43 10231491687712118548
13811026 1 18408038511401155171
13911987 19 17312819390611750323
14394314 77 18343301474672458273
14415361 349 8789724067441487945
14931854 50 4751158480575604869
15183329 4 15357695297495896012
15392192 104 16701721779802206378
15840311 113 18335979865375769732
16728433 281 15287593877048474681
16758388 162 18130234834708630296
19302320 297 18272926120244765909
19958102 18 14707196713433240380
20511986 3 18187650146784403442
21033648 29 18060129947076898991
21130935 74 18131634461239254906
23522609 53 16629378291461133246
255183 451 8070016762553767347
2838139 119 18335703793251671661
312425 54 17560802109042202018
3918712 181 17894634729993580960
4093350 32 18188773975826783206
504843 32 17968095270429318191
5104073 3 17988926630872006946
5372103 7 18338241582944986565
54039377 194 11023822885900450521
5470011 282 7493281140643229552
563151 74 18060419157558722435
6009941 240 18272366447793710832
6036956 94 18335406933845818129
6058803 2 15578063970621903019
6086070 43 17531256019236871352
9896288 288 13685476705758462423
999808 66 9727632809029664817

> <PUBCHEM_SHAPE_MULTIPOLES>
749.78
22.41
3.32
2.05
12
1.13
-0.52
22.43
7.2
-0.24
-0.1
-0.51
-1.27
0.16

> <PUBCHEM_SHAPE_SELFOVERLAP>
1614.114

> <PUBCHEM_SHAPE_VOLUME>
408.8

> <PUBCHEM_COORDINATE_TYPE>
2
5
10

$$$$

