442770
  -OEChem-07051212593D

 45 47  0     1  0  0  0  0  0999 V2000
    1.0036    0.6023    0.8334 O   0  0  0  0  0  0  0  0  0  0  0  0
   -1.4893   -2.4054   -0.4373 O   0  0  0  0  0  0  0  0  0  0  0  0
    4.8396   -2.0141   -0.1811 O   0  0  0  0  0  0  0  0  0  0  0  0
   -3.5085   -0.1521    2.4137 O   0  0  0  0  0  0  0  0  0  0  0  0
   -6.5386    1.0776   -1.0533 O   0  0  0  0  0  0  0  0  0  0  0  0
   -1.2821   -0.2290    0.6067 C   0  0  2  0  0  0  0  0  0  0  0  0
   -0.2973    0.9040    0.3173 C   0  0  0  0  0  0  0  0  0  0  0  0
   -0.7642   -1.4966   -0.0488 C   0  0  0  0  0  0  0  0  0  0  0  0
    0.7080   -1.6188   -0.1304 C   0  0  0  0  0  0  0  0  0  0  0  0
    1.5083   -0.5705    0.3342 C   0  0  0  0  0  0  0  0  0  0  0  0
   -2.6915    0.1189    0.1766 C   0  0  0  0  0  0  0  0  0  0  0  0
    2.8976   -0.7043    0.3324 C   0  0  0  0  0  0  0  0  0  0  0  0
    1.2949   -2.7853   -0.6284 C   0  0  0  0  0  0  0  0  0  0  0  0
    3.7652    0.4001    0.8478 C   0  0  0  0  0  0  0  0  0  0  0  0
    3.4845   -1.8689   -0.1628 C   0  0  0  0  0  0  0  0  0  0  0  0
   -3.7350    0.1406    1.1025 C   0  0  0  0  0  0  0  0  0  0  0  0
   -2.9417    0.4201   -1.1624 C   0  0  0  0  0  0  0  0  0  0  0  0
    2.6850   -2.9048   -0.6464 C   0  0  0  0  0  0  0  0  0  0  0  0
    4.1556    1.3851   -0.2244 C   0  0  0  0  0  0  0  0  0  0  0  0
   -5.0278    0.4630    0.6894 C   0  0  0  0  0  0  0  0  0  0  0  0
   -4.2342    0.7423   -1.5755 C   0  0  0  0  0  0  0  0  0  0  0  0
   -5.2773    0.7638   -0.6497 C   0  0  0  0  0  0  0  0  0  0  0  0
    3.9231    2.7112   -0.2575 C   0  0  0  0  0  0  0  0  0  0  0  0
    4.3422    3.6383   -1.3630 C   0  0  0  0  0  0  0  0  0  0  0  0
    3.1799    3.3824    0.8668 C   0  0  0  0  0  0  0  0  0  0  0  0
   -1.2498   -0.4397    1.6839 H   0  0  0  0  0  0  0  0  0  0  0  0
   -0.2039    1.1305   -0.7532 H   0  0  0  0  0  0  0  0  0  0  0  0
   -0.6285    1.8267    0.8083 H   0  0  0  0  0  0  0  0  0  0  0  0
    3.3056    0.8541    1.7286 H   0  0  0  0  0  0  0  0  0  0  0  0
    4.6953   -0.0205    1.2540 H   0  0  0  0  0  0  0  0  0  0  0  0
    0.6908   -3.6105   -0.9946 H   0  0  0  0  0  0  0  0  0  0  0  0
   -2.1457    0.4012   -1.9019 H   0  0  0  0  0  0  0  0  0  0  0  0
    3.1323   -3.8167   -1.0333 H   0  0  0  0  0  0  0  0  0  0  0  0
    4.7054    0.9568   -1.0623 H   0  0  0  0  0  0  0  0  0  0  0  0
   -5.8419    0.4796    1.4101 H   0  0  0  0  0  0  0  0  0  0  0  0
   -4.4230    0.9738   -2.6202 H   0  0  0  0  0  0  0  0  0  0  0  0
    5.0612   -2.8826   -0.5583 H   0  0  0  0  0  0  0  0  0  0  0  0
   -4.3461   -0.0867    2.9035 H   0  0  0  0  0  0  0  0  0  0  0  0
    4.8884    3.1063   -2.1489 H   0  0  0  0  0  0  0  0  0  0  0  0
    3.4663    4.1067   -1.8230 H   0  0  0  0  0  0  0  0  0  0  0  0
    4.9972    4.4243   -0.9737 H   0  0  0  0  0  0  0  0  0  0  0  0
    2.6730    2.7165    1.5638 H   0  0  0  0  0  0  0  0  0  0  0  0
    3.8684    4.0103    1.4423 H   0  0  0  0  0  0  0  0  0  0  0  0
    2.3991    4.0322    0.4544 H   0  0  0  0  0  0  0  0  0  0  0  0
   -7.1335    1.0441   -0.2846 H   0  0  0  0  0  0  0  0  0  0  0  0
  1  7  1  0  0  0  0
  1 10  1  0  0  0  0
  2  8  2  0  0  0  0
  3 15  1  0  0  0  0
  3 37  1  0  0  0  0
  4 16  1  0  0  0  0
  4 38  1  0  0  0  0
  5 22  1  0  0  0  0
  5 45  1  0  0  0  0
  6  7  1  0  0  0  0
  6  8  1  0  0  0  0
  6 11  1  0  0  0  0
  6 26  1  0  0  0  0
  7 27  1  0  0  0  0
  7 28  1  0  0  0  0
  8  9  1  0  0  0  0
  9 10  2  0  0  0  0
  9 13  1  0  0  0  0
 10 12  1  0  0  0  0
 11 16  2  0  0  0  0
 11 17  1  0  0  0  0
 12 14  1  0  0  0  0
 12 15  2  0  0  0  0
 13 18  2  0  0  0  0
 13 31  1  0  0  0  0
 14 19  1  0  0  0  0
 14 29  1  0  0  0  0
 14 30  1  0  0  0  0
 15 18  1  0  0  0  0
 16 20  1  0  0  0  0
 17 21  2  0  0  0  0
 17 32  1  0  0  0  0
 18 33  1  0  0  0  0
 19 23  2  0  0  0  0
 19 34  1  0  0  0  0
 20 22  2  0  0  0  0
 20 35  1  0  0  0  0
 21 22  1  0  0  0  0
 21 36  1  0  0  0  0
 23 24  1  0  0  0  0
 23 25  1  0  0  0  0
 24 39  1  0  0  0  0
 24 40  1  0  0  0  0
 24 41  1  0  0  0  0
 25 42  1  0  0  0  0
 25 43  1  0  0  0  0
 25 44  1  0  0  0  0
M  END
> <PUBCHEM_COMPOUND_CID>
442770

> <PUBCHEM_CONFORMER_RMSD>
0.8

> <PUBCHEM_CONFORMER_DIVERSEORDER>
5
40
53
13
24
28
49
32
34
39
15
51
23
46
21
20
17
27
41
44
14
3
47
36
26
35
45
48
25
31
12
33
52
19
7
42
10
29
37
1
16
38
50
43
30
6
11
8
9
18
4
22
2

> <PUBCHEM_MMFF94_PARTIAL_CHARGES>
34
1 -0.36
10 0.08
11 -0.14
12 -0.14
13 -0.15
14 0.28
15 0.08
16 0.08
17 -0.15
18 -0.15
19 -0.29
2 -0.57
20 -0.15
21 -0.15
22 0.08
23 -0.28
24 0.14
25 0.14
3 -0.53
31 0.15
32 0.15
33 0.15
34 0.15
35 0.15
36 0.15
37 0.45
38 0.45
4 -0.53
45 0.45
5 -0.53
6 0.2
7 0.28
8 0.42
9 0.09

> <PUBCHEM_EFFECTIVE_ROTOR_COUNT>
3.6

> <PUBCHEM_PHARMACOPHORE_FEATURES>
9
1 1 acceptor
1 2 acceptor
1 3 donor
1 4 donor
1 5 donor
3 23 24 25 hydrophobe
6 1 6 7 8 9 10 rings
6 11 16 17 20 21 22 rings
6 9 10 12 13 15 18 rings

> <PUBCHEM_HEAVY_ATOM_COUNT>
25

> <PUBCHEM_ATOM_DEF_STEREO_COUNT>
0

> <PUBCHEM_ATOM_UDEF_STEREO_COUNT>
1

> <PUBCHEM_BOND_DEF_STEREO_COUNT>
0

> <PUBCHEM_BOND_UDEF_STEREO_COUNT>
0

> <PUBCHEM_ISOTOPIC_ATOM_COUNT>
0

> <PUBCHEM_COMPONENT_COUNT>
1

> <PUBCHEM_CACTVS_TAUTO_COUNT>
106

> <PUBCHEM_CONFORMER_ID>
0006C19200000005

> <PUBCHEM_MMFF94_ENERGY>
67.0861

> <PUBCHEM_FEATURE_SELFOVERLAP>
45.699

> <PUBCHEM_SHAPE_FINGERPRINT>
10411042 1 17832425676227639998
10763959 59 18270119140230993364
10937287 8 18049442539953194676
12173636 292 17687470066504627270
12236239 1 17240773929919782651
12403259 415 18131625703947955283
12422481 6 17703240507473726772
13140716 1 18336548231462825378
13583140 156 17846502572920169194
13878862 14 18270139970601099596
14251764 38 18272374225705859189
14790565 3 18050559647719162408
14848178 96 18335702681092947568
15342168 16 18411420570534685317
15961568 22 17632294540797286020
17844677 252 18338232786382017365
17980427 23 17971788547936389402
1813 80 17607232449184749406
20612939 158 18334858346040175845
20645477 70 18410859896840116611
21033648 29 17918279757228071621
21033650 10 15502915498514980330
22149856 69 18187639190386693707
23227448 37 18341334375080811239
23557571 272 17202757236967592631
23559900 14 18334017194445206074
328310 1195 18270133416697387445
335352 9 18408041828013005646
397830 11 18130772431796722185
46194498 28 18339366369631580957
474 4 18335703831990883762
6034566 193 18054217727009836812
9999458 23 18343584075109578422

> <PUBCHEM_SHAPE_MULTIPOLES>
485.14
12.03
3.57
1.3
10.84
0.89
-0.2
6.97
1.98
-6.95
1.04
1.19
0.45
0.29

> <PUBCHEM_SHAPE_SELFOVERLAP>
1055.11

> <PUBCHEM_SHAPE_VOLUME>
263.3

> <PUBCHEM_COORDINATE_TYPE>
2
5
10

$$$$

