5281156
  -OEChem-07051212553D

 30 30  0     0  0  0  0  0  0999 V2000
    0.0506    1.0738   -0.0185 O   0  0  0  0  0  0  0  0  0  0  0  0
    3.3523    2.3152    0.0135 O   0  0  0  0  0  0  0  0  0  0  0  0
   -3.7512   -2.1972   -0.2759 O   0  0  0  0  0  0  0  0  0  0  0  0
   -4.9311   -0.2577   -0.0521 O   0  0  0  0  0  0  0  0  0  0  0  0
   -1.1290    1.7464    0.0369 C   0  0  0  0  0  0  0  0  0  0  0  0
    0.9932    2.0237    0.0263 C   0  0  0  0  0  0  0  0  0  0  0  0
   -0.9090    3.1019    0.1150 C   0  0  0  0  0  0  0  0  0  0  0  0
    0.4957    3.2731    0.1074 C   0  0  0  0  0  0  0  0  0  0  0  0
    0.7935   -3.0082   -0.1693 C   0  0  0  0  0  0  0  0  0  0  0  0
   -2.3755    1.0794    0.0134 C   0  0  0  0  0  0  0  0  0  0  0  0
    2.3841    1.5620   -0.0194 C   0  0  0  0  0  0  0  0  0  0  0  0
    0.3266   -2.9572    1.2773 C   0  0  0  0  0  0  0  0  0  0  0  0
    2.2542   -3.3391   -0.2615 C   0  0  0  0  0  0  0  0  0  0  0  0
   -2.5206   -0.2598   -0.1039 C   0  0  0  0  0  0  0  0  0  0  0  0
    3.2252   -2.4156   -0.2652 C   0  0  0  0  0  0  0  0  0  0  0  0
    2.6810    0.1439   -0.1079 C   0  0  0  0  0  0  0  0  0  0  0  0
    2.9322   -1.0284   -0.1801 C   0  0  0  0  0  0  0  0  0  0  0  0
   -3.8721   -0.8563   -0.1360 C   0  0  0  0  0  0  0  0  0  0  0  0
   -1.6602    3.8778    0.1710 H   0  0  0  0  0  0  0  0  0  0  0  0
    1.0440    4.2029    0.1559 H   0  0  0  0  0  0  0  0  0  0  0  0
    0.2316   -3.7837   -0.7037 H   0  0  0  0  0  0  0  0  0  0  0  0
    0.5521   -2.0671   -0.6752 H   0  0  0  0  0  0  0  0  0  0  0  0
   -3.2640    1.7024    0.0882 H   0  0  0  0  0  0  0  0  0  0  0  0
    0.8167   -2.1479    1.8286 H   0  0  0  0  0  0  0  0  0  0  0  0
   -0.7536   -2.7860    1.3199 H   0  0  0  0  0  0  0  0  0  0  0  0
    0.5368   -3.8990    1.7957 H   0  0  0  0  0  0  0  0  0  0  0  0
    2.5281   -4.3896   -0.3110 H   0  0  0  0  0  0  0  0  0  0  0  0
   -1.6668   -0.9224   -0.1892 H   0  0  0  0  0  0  0  0  0  0  0  0
    4.2638   -2.7227   -0.3268 H   0  0  0  0  0  0  0  0  0  0  0  0
   -4.6242   -2.6440   -0.3028 H   0  0  0  0  0  0  0  0  0  0  0  0
  1  5  1  0  0  0  0
  1  6  1  0  0  0  0
  2 11  2  0  0  0  0
  3 18  1  0  0  0  0
  3 30  1  0  0  0  0
  4 18  2  0  0  0  0
  5  7  2  0  0  0  0
  5 10  1  0  0  0  0
  6  8  2  0  0  0  0
  6 11  1  0  0  0  0
  7  8  1  0  0  0  0
  7 19  1  0  0  0  0
  8 20  1  0  0  0  0
  9 12  1  0  0  0  0
  9 13  1  0  0  0  0
  9 21  1  0  0  0  0
  9 22  1  0  0  0  0
 10 14  2  0  0  0  0
 10 23  1  0  0  0  0
 11 16  1  0  0  0  0
 12 24  1  0  0  0  0
 12 25  1  0  0  0  0
 12 26  1  0  0  0  0
 13 15  2  0  0  0  0
 13 27  1  0  0  0  0
 14 18  1  0  0  0  0
 14 28  1  0  0  0  0
 15 17  1  0  0  0  0
 15 29  1  0  0  0  0
 16 17  3  0  0  0  0
M  END
> <PUBCHEM_COMPOUND_CID>
5281156

> <PUBCHEM_CONFORMER_RMSD>
0.6

> <PUBCHEM_CONFORMER_DIVERSEORDER>
1
26
31
27
32
10
30
23
2
37
38
21
12
25
11
36
35
24
5
19
34
22
28
13
33
9
18
20
6
17
29
16
8
14
7
15
4
3

> <PUBCHEM_MMFF94_PARTIAL_CHARGES>
24
1 -0.28
10 -0.11
11 0.76
13 -0.29
14 -0.14
15 -0.09
16 -0.1
17 -0.06
18 0.71
19 0.15
2 -0.57
20 0.15
23 0.15
27 0.15
28 0.15
29 0.15
3 -0.65
30 0.5
4 -0.57
5 0.09
6 0.05
7 -0.15
8 -0.15
9 0.14

> <PUBCHEM_EFFECTIVE_ROTOR_COUNT>
4

> <PUBCHEM_PHARMACOPHORE_FEATURES>
7
1 1 acceptor
1 12 hydrophobe
1 2 acceptor
1 3 acceptor
1 4 acceptor
3 3 4 18 anion
5 1 5 6 7 8 rings

> <PUBCHEM_HEAVY_ATOM_COUNT>
18

> <PUBCHEM_ATOM_DEF_STEREO_COUNT>
0

> <PUBCHEM_ATOM_UDEF_STEREO_COUNT>
0

> <PUBCHEM_BOND_DEF_STEREO_COUNT>
2

> <PUBCHEM_BOND_UDEF_STEREO_COUNT>
0

> <PUBCHEM_ISOTOPIC_ATOM_COUNT>
0

> <PUBCHEM_COMPONENT_COUNT>
1

> <PUBCHEM_CACTVS_TAUTO_COUNT>
1

> <PUBCHEM_CONFORMER_ID>
0050958400000001

> <PUBCHEM_MMFF94_ENERGY>
16.1493

> <PUBCHEM_FEATURE_SELFOVERLAP>
35.576

> <PUBCHEM_SHAPE_FINGERPRINT>
10616163 171 17976536440396802214
10967382 1 18338516331184454150
12038231 1 18410292506080837463
12553582 1 18194680603550585275
12596599 1 17751060612732356530
13140716 1 18264211472977204472
138480 1 18410011065431787918
14178342 30 18121512507670460104
1420 336 17475512154013909442
14251705 54 18338236088810869806
14251757 5 16678076021627105646
14790565 3 18050560746920093180
14863182 85 18268985402235851188
14916288 52 18048595125124321246
17093844 170 18338522945497439336
19930381 70 18411139095800983203
20291156 8 18337389473347047215
20645477 70 18342184332403489349
20905425 154 18191585465618285862
21197605 99 17474659556394880099
23184049 29 18120934164047457782
23559900 14 18265908019450524072
2871803 45 18411419539658014719
3014063 31 18339080518289072743
33824 294 18338518530017799120
6443956 14 18412543232352756173
8199 65 18339361864268973964

> <PUBCHEM_SHAPE_MULTIPOLES>
346.95
6.78
5.05
0.71
4.39
0.15
-0.12
-4.66
0.8
-1.56
-0.36
-0.11
-0.31
-0.12

> <PUBCHEM_SHAPE_SELFOVERLAP>
717.243

> <PUBCHEM_SHAPE_VOLUME>
198

> <PUBCHEM_COORDINATE_TYPE>
2
5
10

$$$$

