11954181
  -OEChem-07051213072D

 41 42  0     1  0  0  0  0  0999 V2000
    4.5981    4.4050    0.0000 F   0  0  0  0  0  0  0  0  0  0  0  0
    3.7320   -4.0950    0.0000 O   0  0  0  0  0  0  0  0  0  0  0  0
    3.7320   -0.0950    0.0000 C   0  0  2  0  0  0  0  0  0  0  0  0
    4.5981    0.4050    0.0000 C   0  0  1  0  0  0  0  0  0  0  0  0
    2.8660    0.4050    0.0000 C   0  0  0  0  0  0  0  0  0  0  0  0
    5.4641   -0.0950    0.0000 C   0  0  0  0  0  0  0  0  0  0  0  0
    3.7320   -1.0950    0.0000 C   0  0  0  0  0  0  0  0  0  0  0  0
    4.5981    1.4050    0.0000 C   0  0  0  0  0  0  0  0  0  0  0  0
    2.0000   -0.0950    0.0000 C   0  0  0  0  0  0  0  0  0  0  0  0
    6.3301    0.4050    0.0000 C   0  0  0  0  0  0  0  0  0  0  0  0
    2.8660   -1.5950    0.0000 C   0  0  0  0  0  0  0  0  0  0  0  0
    4.5981   -1.5950    0.0000 C   0  0  0  0  0  0  0  0  0  0  0  0
    5.4641    1.9050    0.0000 C   0  0  0  0  0  0  0  0  0  0  0  0
    3.7320    1.9050    0.0000 C   0  0  0  0  0  0  0  0  0  0  0  0
    2.8660   -2.5950    0.0000 C   0  0  0  0  0  0  0  0  0  0  0  0
    4.5981   -2.5950    0.0000 C   0  0  0  0  0  0  0  0  0  0  0  0
    5.4641    2.9050    0.0000 C   0  0  0  0  0  0  0  0  0  0  0  0
    3.7320    2.9050    0.0000 C   0  0  0  0  0  0  0  0  0  0  0  0
    3.7320   -3.0950    0.0000 C   0  0  0  0  0  0  0  0  0  0  0  0
    4.5981    3.4050    0.0000 C   0  0  0  0  0  0  0  0  0  0  0  0
    3.7320    0.5250    0.0000 H   0  0  0  0  0  0  0  0  0  0  0  0
    4.5981   -0.2150    0.0000 H   0  0  0  0  0  0  0  0  0  0  0  0
    3.2646    0.8799    0.0000 H   0  0  0  0  0  0  0  0  0  0  0  0
    2.4675    0.8799    0.0000 H   0  0  0  0  0  0  0  0  0  0  0  0
    5.0656   -0.5699    0.0000 H   0  0  0  0  0  0  0  0  0  0  0  0
    5.8626   -0.5699    0.0000 H   0  0  0  0  0  0  0  0  0  0  0  0
    1.6900    0.4419    0.0000 H   0  0  0  0  0  0  0  0  0  0  0  0
    1.4631   -0.4050    0.0000 H   0  0  0  0  0  0  0  0  0  0  0  0
    2.3100   -0.6319    0.0000 H   0  0  0  0  0  0  0  0  0  0  0  0
    6.6401   -0.1319    0.0000 H   0  0  0  0  0  0  0  0  0  0  0  0
    6.8671    0.7150    0.0000 H   0  0  0  0  0  0  0  0  0  0  0  0
    6.0201    0.9419    0.0000 H   0  0  0  0  0  0  0  0  0  0  0  0
    2.3291   -1.2850    0.0000 H   0  0  0  0  0  0  0  0  0  0  0  0
    5.1350   -1.2850    0.0000 H   0  0  0  0  0  0  0  0  0  0  0  0
    6.0010    1.5950    0.0000 H   0  0  0  0  0  0  0  0  0  0  0  0
    3.1951    1.5950    0.0000 H   0  0  0  0  0  0  0  0  0  0  0  0
    2.3291   -2.9050    0.0000 H   0  0  0  0  0  0  0  0  0  0  0  0
    5.1350   -2.9050    0.0000 H   0  0  0  0  0  0  0  0  0  0  0  0
    6.0010    3.2150    0.0000 H   0  0  0  0  0  0  0  0  0  0  0  0
    3.1951    3.2150    0.0000 H   0  0  0  0  0  0  0  0  0  0  0  0
    3.1951   -4.4050    0.0000 H   0  0  0  0  0  0  0  0  0  0  0  0
  1 20  1  0  0  0  0
  2 19  1  0  0  0  0
  2 41  1  0  0  0  0
  3  4  1  0  0  0  0
  3  5  1  1  0  0  0
  3  7  1  0  0  0  0
  3 21  1  0  0  0  0
  4  6  1  6  0  0  0
  4  8  1  0  0  0  0
  4 22  1  0  0  0  0
  5  9  1  0  0  0  0
  5 23  1  0  0  0  0
  5 24  1  0  0  0  0
  6 10  1  0  0  0  0
  6 25  1  0  0  0  0
  6 26  1  0  0  0  0
  7 11  2  0  0  0  0
  7 12  1  0  0  0  0
  8 13  2  0  0  0  0
  8 14  1  0  0  0  0
  9 27  1  0  0  0  0
  9 28  1  0  0  0  0
  9 29  1  0  0  0  0
 10 30  1  0  0  0  0
 10 31  1  0  0  0  0
 10 32  1  0  0  0  0
 11 15  1  0  0  0  0
 11 33  1  0  0  0  0
 12 16  2  0  0  0  0
 12 34  1  0  0  0  0
 13 17  1  0  0  0  0
 13 35  1  0  0  0  0
 14 18  2  0  0  0  0
 14 36  1  0  0  0  0
 15 19  2  0  0  0  0
 15 37  1  0  0  0  0
 16 19  1  0  0  0  0
 16 38  1  0  0  0  0
 17 20  2  0  0  0  0
 17 39  1  0  0  0  0
 18 20  1  0  0  0  0
 18 40  1  0  0  0  0
M  END
> <PUBCHEM_COMPOUND_CID>
11954181

> <PUBCHEM_COMPOUND_CANONICALIZED>
1

> <PUBCHEM_CACTVS_COMPLEXITY>
265

> <PUBCHEM_CACTVS_HBOND_ACCEPTOR>
2

> <PUBCHEM_CACTVS_HBOND_DONOR>
1

> <PUBCHEM_CACTVS_ROTATABLE_BOND>
5

> <PUBCHEM_CACTVS_SUBSKEYS>
AAADceB4IQAAAAAAAAAAAAAAAAAAAAAAAAAwYAAAAAAAAAABQAAAGwAACAAADQSAmAgyBoAAAgCAAiBCAAACAAAgIAAIiAAGCIgIJiKCERKAcAAkwBEImAeAwPAOoAAAAAAAAABAAAAAAAAAAAAAAAAAAA==

> <PUBCHEM_IUPAC_OPENEYE_NAME>
4-[(1S,2R)-1-ethyl-2-(4-fluorophenyl)butyl]phenol

> <PUBCHEM_IUPAC_CAS_NAME>
4-[(3S,4R)-4-(4-fluorophenyl)hexan-3-yl]phenol

> <PUBCHEM_IUPAC_NAME>
4-[(3S,4R)-4-(4-fluorophenyl)hexan-3-yl]phenol

> <PUBCHEM_IUPAC_SYSTEMATIC_NAME>
4-[(3S,4R)-4-(4-fluorophenyl)hexan-3-yl]phenol

> <PUBCHEM_IUPAC_TRADITIONAL_NAME>
4-[(1S,2R)-1-ethyl-2-(4-fluorophenyl)butyl]phenol

> <PUBCHEM_IUPAC_INCHI>
InChI=1S/C18H21FO/c1-3-17(13-5-9-15(19)10-6-13)18(4-2)14-7-11-16(20)12-8-14/h5-12,17-18,20H,3-4H2,1-2H3/t17-,18+/m0/s1

> <PUBCHEM_IUPAC_INCHIKEY>
IPXYROUXWHVCDA-ZWKOTPCHSA-N

> <PUBCHEM_XLOGP3_AA>
5.6

> <PUBCHEM_EXACT_MASS>
272.157644

> <PUBCHEM_MOLECULAR_FORMULA>
C18H21FO

> <PUBCHEM_MOLECULAR_WEIGHT>
272.357143

> <PUBCHEM_OPENEYE_CAN_SMILES>
CCC(C1=CC=C(C=C1)O)C(CC)C2=CC=C(C=C2)F

> <PUBCHEM_OPENEYE_ISO_SMILES>
CC[C@H](C1=CC=C(C=C1)O)[C@@H](CC)C2=CC=C(C=C2)F

> <PUBCHEM_CACTVS_TPSA>
20.2

> <PUBCHEM_MONOISOTOPIC_WEIGHT>
272.157644

> <PUBCHEM_TOTAL_CHARGE>
0

> <PUBCHEM_HEAVY_ATOM_COUNT>
20

> <PUBCHEM_ATOM_DEF_STEREO_COUNT>
2

> <PUBCHEM_ATOM_UDEF_STEREO_COUNT>
0

> <PUBCHEM_BOND_DEF_STEREO_COUNT>
0

> <PUBCHEM_BOND_UDEF_STEREO_COUNT>
0

> <PUBCHEM_ISOTOPIC_ATOM_COUNT>
0

> <PUBCHEM_COMPONENT_COUNT>
1

> <PUBCHEM_CACTVS_TAUTO_COUNT>
2

> <PUBCHEM_COORDINATE_TYPE>
1
5
255

> <PUBCHEM_BONDANNOTATIONS>
11  15  8
12  16  8
13  17  8
14  18  8
15  19  8
16  19  8
17  20  8
18  20  8
3  5  5
4  6  6
7  11  8
7  12  8
8  13  8
8  14  8

$$$$

