38479
  -OEChem-07051213002D

 39 39  0     0  0  0  0  0  0999 V2000
    2.0000   -0.8227    0.0000 O   0  5  0  0  0  0  0  0  0  0  0  0
    2.8660    0.6773    0.0000 O   0  0  0  0  0  0  0  0  0  0  0  0
    6.7909   -1.9361    0.0000 O   0  5  0  0  0  0  0  0  0  0  0  0
    7.0917   -0.2303    0.0000 O   0  0  0  0  0  0  0  0  0  0  0  0
    4.5981    0.6773    0.0000 N   0  0  0  0  0  0  0  0  0  0  0  0
    2.8660   -0.3227    0.0000 N   0  3  0  0  0  0  0  0  0  0  0  0
    6.4489   -0.9964    0.0000 N   0  3  0  0  0  0  0  0  0  0  0  0
    4.9401    1.6170    0.0000 C   0  0  0  0  0  0  0  0  0  0  0  0
    4.2973    2.3830    0.0000 C   0  0  0  0  0  0  0  0  0  0  0  0
    5.9249    1.7906    0.0000 C   0  0  0  0  0  0  0  0  0  0  0  0
    4.5981   -0.3227    0.0000 C   0  0  0  0  0  0  0  0  0  0  0  0
    3.7320   -0.8227    0.0000 C   0  0  0  0  0  0  0  0  0  0  0  0
    5.4641   -0.8227    0.0000 C   0  0  0  0  0  0  0  0  0  0  0  0
    3.7320   -1.8227    0.0000 C   0  0  0  0  0  0  0  0  0  0  0  0
    6.2669    2.7303    0.0000 C   0  0  0  0  0  0  0  0  0  0  0  0
    4.6393    3.3227    0.0000 C   0  0  0  0  0  0  0  0  0  0  0  0
    4.5981   -2.3227    0.0000 C   0  0  0  0  0  0  0  0  0  0  0  0
    5.4641   -1.8227    0.0000 C   0  0  0  0  0  0  0  0  0  0  0  0
    2.8660   -2.3227    0.0000 C   0  0  0  0  0  0  0  0  0  0  0  0
    4.5981   -3.3227    0.0000 C   0  0  0  0  0  0  0  0  0  0  0  0
    4.3295    1.5093    0.0000 H   0  0  0  0  0  0  0  0  0  0  0  0
    5.9249    1.1706    0.0000 H   0  0  0  0  0  0  0  0  0  0  0  0
    6.5355    1.6830    0.0000 H   0  0  0  0  0  0  0  0  0  0  0  0
    3.7604    2.6930    0.0000 H   0  0  0  0  0  0  0  0  0  0  0  0
    3.8988    1.9081    0.0000 H   0  0  0  0  0  0  0  0  0  0  0  0
    4.0611    0.9873    0.0000 H   0  0  0  0  0  0  0  0  0  0  0  0
    5.2219    3.1107    0.0000 H   0  0  0  0  0  0  0  0  0  0  0  0
    6.8495    2.5183    0.0000 H   0  0  0  0  0  0  0  0  0  0  0  0
    6.4790    3.3129    0.0000 H   0  0  0  0  0  0  0  0  0  0  0  0
    5.6843    2.9424    0.0000 H   0  0  0  0  0  0  0  0  0  0  0  0
    4.8514    3.9053    0.0000 H   0  0  0  0  0  0  0  0  0  0  0  0
    4.0567    3.5348    0.0000 H   0  0  0  0  0  0  0  0  0  0  0  0
    6.0010   -2.1327    0.0000 H   0  0  0  0  0  0  0  0  0  0  0  0
    2.5560   -1.7858    0.0000 H   0  0  0  0  0  0  0  0  0  0  0  0
    2.3291   -2.6327    0.0000 H   0  0  0  0  0  0  0  0  0  0  0  0
    3.1760   -2.8596    0.0000 H   0  0  0  0  0  0  0  0  0  0  0  0
    3.9781   -3.3227    0.0000 H   0  0  0  0  0  0  0  0  0  0  0  0
    4.5981   -3.9427    0.0000 H   0  0  0  0  0  0  0  0  0  0  0  0
    5.2181   -3.3227    0.0000 H   0  0  0  0  0  0  0  0  0  0  0  0
  1  6  1  0  0  0  0
  2  6  2  0  0  0  0
  3  7  1  0  0  0  0
  4  7  2  0  0  0  0
  5  8  1  0  0  0  0
  5 11  1  0  0  0  0
  5 26  1  0  0  0  0
  6 12  1  0  0  0  0
  7 13  1  0  0  0  0
  8  9  1  0  0  0  0
  8 10  1  0  0  0  0
  8 21  1  0  0  0  0
  9 16  1  0  0  0  0
  9 24  1  0  0  0  0
  9 25  1  0  0  0  0
 10 15  1  0  0  0  0
 10 22  1  0  0  0  0
 10 23  1  0  0  0  0
 11 12  1  0  0  0  0
 11 13  2  0  0  0  0
 12 14  2  0  0  0  0
 13 18  1  0  0  0  0
 14 17  1  0  0  0  0
 14 19  1  0  0  0  0
 15 28  1  0  0  0  0
 15 29  1  0  0  0  0
 15 30  1  0  0  0  0
 16 27  1  0  0  0  0
 16 31  1  0  0  0  0
 16 32  1  0  0  0  0
 17 18  2  0  0  0  0
 17 20  1  0  0  0  0
 18 33  1  0  0  0  0
 19 34  1  0  0  0  0
 19 35  1  0  0  0  0
 19 36  1  0  0  0  0
 20 37  1  0  0  0  0
 20 38  1  0  0  0  0
 20 39  1  0  0  0  0
M  CHG  4   1  -1   3  -1   6   1   7   1
M  END
> <PUBCHEM_COMPOUND_CID>
38479

> <PUBCHEM_COMPOUND_CANONICALIZED>
1

> <PUBCHEM_CACTVS_COMPLEXITY>
349

> <PUBCHEM_CACTVS_HBOND_ACCEPTOR>
5

> <PUBCHEM_CACTVS_HBOND_DONOR>
1

> <PUBCHEM_CACTVS_ROTATABLE_BOND>
4

> <PUBCHEM_CACTVS_SUBSKEYS>
AAADceBzOAAAAAAAAAAAAAAAAAAAAAAAAAAwAAAAAAAAAAABAAAAHAAUAAAADCjBGAQywILQQACBAiRCQwCCAAAhAgAgiIAIdIoIYCLA0dGUIAhgkIDIyAcQgIAOiAAAQAQSACAQAACACCQAQAAAAAAAAA==

> <PUBCHEM_IUPAC_OPENEYE_NAME>
N-(1-ethylpropyl)-3,4-dimethyl-2,6-dinitro-aniline

> <PUBCHEM_IUPAC_CAS_NAME>
3,4-dimethyl-2,6-dinitro-N-pentan-3-ylaniline

> <PUBCHEM_IUPAC_NAME>
3,4-dimethyl-2,6-dinitro-N-pentan-3-ylaniline

> <PUBCHEM_IUPAC_SYSTEMATIC_NAME>
3,4-dimethyl-2,6-dinitro-N-pentan-3-yl-aniline

> <PUBCHEM_IUPAC_TRADITIONAL_NAME>
(3,4-dimethyl-2,6-dinitro-phenyl)-(1-ethylpropyl)amine

> <PUBCHEM_IUPAC_INCHI>
InChI=1S/C13H19N3O4/c1-5-10(6-2)14-12-11(15(17)18)7-8(3)9(4)13(12)16(19)20/h7,10,14H,5-6H2,1-4H3

> <PUBCHEM_IUPAC_INCHIKEY>
CHIFOSRWCNZCFN-UHFFFAOYSA-N

> <PUBCHEM_XLOGP3>
5.2

> <PUBCHEM_EXACT_MASS>
281.137556

> <PUBCHEM_MOLECULAR_FORMULA>
C13H19N3O4

> <PUBCHEM_MOLECULAR_WEIGHT>
281.30766

> <PUBCHEM_OPENEYE_CAN_SMILES>
CCC(CC)NC1=C(C=C(C(=C1[N+](=O)[O-])C)C)[N+](=O)[O-]

> <PUBCHEM_OPENEYE_ISO_SMILES>
CCC(CC)NC1=C(C=C(C(=C1[N+](=O)[O-])C)C)[N+](=O)[O-]

> <PUBCHEM_CACTVS_TPSA>
104

> <PUBCHEM_MONOISOTOPIC_WEIGHT>
281.137556

> <PUBCHEM_TOTAL_CHARGE>
0

> <PUBCHEM_HEAVY_ATOM_COUNT>
20

> <PUBCHEM_ATOM_DEF_STEREO_COUNT>
0

> <PUBCHEM_ATOM_UDEF_STEREO_COUNT>
0

> <PUBCHEM_BOND_DEF_STEREO_COUNT>
0

> <PUBCHEM_BOND_UDEF_STEREO_COUNT>
0

> <PUBCHEM_ISOTOPIC_ATOM_COUNT>
0

> <PUBCHEM_COMPONENT_COUNT>
1

> <PUBCHEM_CACTVS_TAUTO_COUNT>
1

> <PUBCHEM_COORDINATE_TYPE>
1
5
255

> <PUBCHEM_BONDANNOTATIONS>
11  12  8
11  13  8
12  14  8
13  18  8
14  17  8
17  18  8

$$$$

