443424
  -OEChem-07051213023D

 12 11  0     1  0  0  0  0  0999 V2000
   -0.8749   -1.5282   -0.4943 O   0  0  0  0  0  0  0  0  0  0  0  0
   -1.8290    0.1843    0.6480 O   0  0  0  0  0  0  0  0  0  0  0  0
    1.7031   -0.9704    0.5760 O   0  0  0  0  0  0  0  0  0  0  0  0
    0.1139    1.9265   -0.0047 N   0  0  0  0  0  0  0  0  0  0  0  0
    0.2419    0.5808   -0.5501 C   0  0  2  0  0  0  0  0  0  0  0  0
   -0.9334   -0.2377   -0.0722 C   0  0  0  0  0  0  0  0  0  0  0  0
    1.5785    0.0449   -0.1027 C   0  0  0  0  0  0  0  0  0  0  0  0
    0.2166    0.6213   -1.6432 H   0  0  0  0  0  0  0  0  0  0  0  0
    0.8736    2.5151   -0.3443 H   0  0  0  0  0  0  0  0  0  0  0  0
    0.1961    1.9057    1.0113 H   0  0  0  0  0  0  0  0  0  0  0  0
    2.4652    0.6065   -0.4455 H   0  0  0  0  0  0  0  0  0  0  0  0
   -1.6323   -2.0559   -0.1622 H   0  0  0  0  0  0  0  0  0  0  0  0
  1  6  1  0  0  0  0
  1 12  1  0  0  0  0
  2  6  2  0  0  0  0
  3  7  2  0  0  0  0
  4  5  1  0  0  0  0
  4  9  1  0  0  0  0
  4 10  1  0  0  0  0
  5  6  1  0  0  0  0
  5  7  1  0  0  0  0
  5  8  1  0  0  0  0
  7 11  1  0  0  0  0
M  END
> <PUBCHEM_COMPOUND_CID>
443424

> <PUBCHEM_CONFORMER_RMSD>
0.4

> <PUBCHEM_CONFORMER_DIVERSEORDER>
1
8
6
5
4
9
2
3
7

> <PUBCHEM_MMFF94_PARTIAL_CHARGES>
11
1 -0.65
10 0.36
11 0.06
12 0.5
2 -0.57
3 -0.57
4 -0.99
5 0.39
6 0.66
7 0.45
9 0.36

> <PUBCHEM_EFFECTIVE_ROTOR_COUNT>
2

> <PUBCHEM_PHARMACOPHORE_FEATURES>
7
1 1 acceptor
1 2 acceptor
1 3 acceptor
1 4 cation
1 4 donor
1 5 anion
3 1 2 6 anion

> <PUBCHEM_HEAVY_ATOM_COUNT>
7

> <PUBCHEM_ATOM_DEF_STEREO_COUNT>
1

> <PUBCHEM_ATOM_UDEF_STEREO_COUNT>
0

> <PUBCHEM_BOND_DEF_STEREO_COUNT>
0

> <PUBCHEM_BOND_UDEF_STEREO_COUNT>
0

> <PUBCHEM_ISOTOPIC_ATOM_COUNT>
0

> <PUBCHEM_COMPONENT_COUNT>
1

> <PUBCHEM_CACTVS_TAUTO_COUNT>
5

> <PUBCHEM_CONFORMER_ID>
0006C42000000001

> <PUBCHEM_MMFF94_ENERGY>
7.6919

> <PUBCHEM_FEATURE_SELFOVERLAP>
35.839

> <PUBCHEM_SHAPE_FINGERPRINT>
137420 1 10585506780196967428
139733 1 7925911491193036740
16714656 1 18264474239012492046
18185500 45 18339645533852744502
20096714 4 18120076300196499773
21040471 1 18188477081805949861
24536 1 17459174197377954213
29004967 10 17132106927323505224
5943 1 9430892444284675924

> <PUBCHEM_SHAPE_MULTIPOLES>
121.47
1.99
1.5
0.73
0.1
0.35
-0.01
-0.46
0.37
0.04
-0.06
-0.03
-0.05
-0.26

> <PUBCHEM_SHAPE_SELFOVERLAP>
228.915

> <PUBCHEM_SHAPE_VOLUME>
74.6

> <PUBCHEM_COORDINATE_TYPE>
2
5
10

$$$$

