8280
  -OEChem-06261202423D

 22 22  0     1  0  0  0  0  0999 V2000
   -0.0913    1.2664    0.4908 O   0  0  0  0  0  0  0  0  0  0  0  0
   -0.4794   -2.1614   -0.0580 O   0  0  0  0  0  0  0  0  0  0  0  0
    2.1337    1.6017    0.1331 O   0  0  0  0  0  0  0  0  0  0  0  0
    1.1496   -0.4916   -0.0749 N   0  0  0  0  0  0  0  0  0  0  0  0
   -1.0021    0.1542    0.4526 C   0  0  1  0  0  0  0  0  0  0  0  0
   -2.0531    0.4072   -0.6176 C   0  0  0  0  0  0  0  0  0  0  0  0
   -0.1100   -1.0042    0.0781 C   0  0  0  0  0  0  0  0  0  0  0  0
   -1.6080   -0.0415    1.8337 C   0  0  0  0  0  0  0  0  0  0  0  0
    1.1715    0.8471    0.1744 C   0  0  0  0  0  0  0  0  0  0  0  0
   -1.4188    0.7025   -1.9655 C   0  0  0  0  0  0  0  0  0  0  0  0
    2.3079   -1.2804   -0.4468 C   0  0  0  0  0  0  0  0  0  0  0  0
   -2.6676    1.2715   -0.3372 H   0  0  0  0  0  0  0  0  0  0  0  0
   -2.7231   -0.4553   -0.7133 H   0  0  0  0  0  0  0  0  0  0  0  0
   -2.1487    0.8559    2.1535 H   0  0  0  0  0  0  0  0  0  0  0  0
   -2.2967   -0.8925    1.8544 H   0  0  0  0  0  0  0  0  0  0  0  0
   -0.8276   -0.2214    2.5825 H   0  0  0  0  0  0  0  0  0  0  0  0
   -0.7880    1.5963   -1.9379 H   0  0  0  0  0  0  0  0  0  0  0  0
   -0.8228   -0.1368   -2.3363 H   0  0  0  0  0  0  0  0  0  0  0  0
   -2.2051    0.8884   -2.7055 H   0  0  0  0  0  0  0  0  0  0  0  0
    2.0534   -1.9045   -1.3083 H   0  0  0  0  0  0  0  0  0  0  0  0
    2.5591   -1.9370    0.3914 H   0  0  0  0  0  0  0  0  0  0  0  0
    3.1596   -0.6376   -0.6814 H   0  0  0  0  0  0  0  0  0  0  0  0
  1  5  1  0  0  0  0
  1  9  1  0  0  0  0
  2  7  2  0  0  0  0
  3  9  2  0  0  0  0
  4  7  1  0  0  0  0
  4  9  1  0  0  0  0
  4 11  1  0  0  0  0
  5  6  1  0  0  0  0
  5  7  1  0  0  0  0
  5  8  1  0  0  0  0
  6 10  1  0  0  0  0
  6 12  1  0  0  0  0
  6 13  1  0  0  0  0
  8 14  1  0  0  0  0
  8 15  1  0  0  0  0
  8 16  1  0  0  0  0
 10 17  1  0  0  0  0
 10 18  1  0  0  0  0
 10 19  1  0  0  0  0
 11 20  1  0  0  0  0
 11 21  1  0  0  0  0
 11 22  1  0  0  0  0
M  END
> <PUBCHEM_COMPOUND_CID>
8280

> <PUBCHEM_CONFORMER_RMSD>
0.4

> <PUBCHEM_CONFORMER_DIVERSEORDER>
1
4
6
3
2
5

> <PUBCHEM_MMFF94_PARTIAL_CHARGES>
8
1 -0.43
11 0.3
2 -0.57
3 -0.57
4 -0.42
5 0.34
7 0.57
9 0.78

> <PUBCHEM_EFFECTIVE_ROTOR_COUNT>
1.6

> <PUBCHEM_PHARMACOPHORE_FEATURES>
4
1 10 hydrophobe
1 2 acceptor
1 3 acceptor
5 1 4 5 7 9 rings

> <PUBCHEM_HEAVY_ATOM_COUNT>
11

> <PUBCHEM_ATOM_DEF_STEREO_COUNT>
0

> <PUBCHEM_ATOM_UDEF_STEREO_COUNT>
1

> <PUBCHEM_BOND_DEF_STEREO_COUNT>
0

> <PUBCHEM_BOND_UDEF_STEREO_COUNT>
0

> <PUBCHEM_ISOTOPIC_ATOM_COUNT>
0

> <PUBCHEM_COMPONENT_COUNT>
1

> <PUBCHEM_CACTVS_TAUTO_COUNT>
1

> <PUBCHEM_CONFORMER_ID>
0000205800000001

> <PUBCHEM_MMFF94_ENERGY>
13.7005

> <PUBCHEM_FEATURE_SELFOVERLAP>
20.297

> <PUBCHEM_SHAPE_FINGERPRINT>
12423570 1 5752023337666264936
13024252 1 15480453463743841928
137420 1 6475977566324317255
14128692 85 17388007319295792991
16945 1 17461975933341360897
18185500 45 17755313592564941615
21040471 1 18337678511798134872
2748010 2 18411979152442926302
5084963 1 17894915190803360987

> <PUBCHEM_SHAPE_MULTIPOLES>
203.79
2.7
1.64
1.41
0.87
0.26
0.08
-0.18
0.35
0.58
0.08
-1.01
-0.17
0.62

> <PUBCHEM_SHAPE_SELFOVERLAP>
416.988

> <PUBCHEM_SHAPE_VOLUME>
121.3

> <PUBCHEM_COORDINATE_TYPE>
2
5
10

$$$$

