259027
  -OEChem-07051213063D

 51 54  0     1  0  0  0  0  0999 V2000
    5.6692    0.4388    1.3059 O   0  0  0  0  0  0  0  0  0  0  0  0
   -2.4340   -2.9103    0.4037 O   0  0  0  0  0  0  0  0  0  0  0  0
   -5.7696    0.8545    0.3681 O   0  0  0  0  0  0  0  0  0  0  0  0
    2.6908    0.3859   -0.0445 C   0  0  1  0  0  0  0  0  0  0  0  0
    1.8995   -0.8602   -0.4966 C   0  0  1  0  0  0  0  0  0  0  0  0
    4.1171   -0.0588   -0.4348 C   0  0  2  0  0  0  0  0  0  0  0  0
    2.7107   -2.0140    0.0935 C   0  0  0  0  0  0  0  0  0  0  0  0
    2.1444    1.5646   -0.8554 C   0  0  0  0  0  0  0  0  0  0  0  0
    4.1712   -1.5489   -0.0424 C   0  0  0  0  0  0  0  0  0  0  0  0
    0.4210   -0.7370   -0.2493 C   0  0  0  0  0  0  0  0  0  0  0  0
    2.5885    0.6767    1.4759 C   0  0  0  0  0  0  0  0  0  0  0  0
    0.6439    1.7844   -0.5934 C   0  0  0  0  0  0  0  0  0  0  0  0
   -0.2011    0.5339   -0.3543 C   0  0  0  0  0  0  0  0  0  0  0  0
    5.2084    0.7411    0.2062 C   0  0  0  0  0  0  0  0  0  0  0  0
   -0.3570   -1.8708   -0.0053 C   0  0  0  0  0  0  0  0  0  0  0  0
   -1.6132    0.6515   -0.1753 C   0  0  0  0  0  0  0  0  0  0  0  0
    5.7158    1.9313   -0.5622 C   0  0  0  0  0  0  0  0  0  0  0  0
   -2.3726   -0.5177    0.0833 C   0  0  0  0  0  0  0  0  0  0  0  0
   -1.7343   -1.7607    0.1629 C   0  0  0  0  0  0  0  0  0  0  0  0
   -2.3137    1.8794   -0.2362 C   0  0  0  0  0  0  0  0  0  0  0  0
   -3.7638   -0.4331    0.2615 C   0  0  0  0  0  0  0  0  0  0  0  0
   -3.6971    1.9483   -0.0560 C   0  0  0  0  0  0  0  0  0  0  0  0
   -4.4222    0.7919    0.1918 C   0  0  0  0  0  0  0  0  0  0  0  0
   -2.9251   -3.6144   -0.7326 C   0  0  0  0  0  0  0  0  0  0  0  0
   -6.3768    2.1434    0.2855 C   0  0  0  0  0  0  0  0  0  0  0  0
    1.9858   -0.9575   -1.5922 H   0  0  0  0  0  0  0  0  0  0  0  0
    4.2505   -0.0011   -1.5239 H   0  0  0  0  0  0  0  0  0  0  0  0
    2.5407   -2.9546   -0.4411 H   0  0  0  0  0  0  0  0  0  0  0  0
    2.4608   -2.1871    1.1467 H   0  0  0  0  0  0  0  0  0  0  0  0
    2.2877    1.3752   -1.9278 H   0  0  0  0  0  0  0  0  0  0  0  0
    2.6855    2.4909   -0.6350 H   0  0  0  0  0  0  0  0  0  0  0  0
    4.7125   -1.7490    0.8880 H   0  0  0  0  0  0  0  0  0  0  0  0
    4.6788   -2.1193   -0.8295 H   0  0  0  0  0  0  0  0  0  0  0  0
    3.0501   -0.1083    2.0836 H   0  0  0  0  0  0  0  0  0  0  0  0
    3.0896    1.6195    1.7236 H   0  0  0  0  0  0  0  0  0  0  0  0
    1.5541    0.7689    1.8199 H   0  0  0  0  0  0  0  0  0  0  0  0
    0.2366    2.3379   -1.4483 H   0  0  0  0  0  0  0  0  0  0  0  0
    0.5448    2.4249    0.2927 H   0  0  0  0  0  0  0  0  0  0  0  0
    0.1055   -2.8533    0.0489 H   0  0  0  0  0  0  0  0  0  0  0  0
    6.0030    1.6280   -1.5720 H   0  0  0  0  0  0  0  0  0  0  0  0
    4.9511    2.7081   -0.6029 H   0  0  0  0  0  0  0  0  0  0  0  0
    6.6000    2.3364   -0.0613 H   0  0  0  0  0  0  0  0  0  0  0  0
   -1.7879    2.8126   -0.4257 H   0  0  0  0  0  0  0  0  0  0  0  0
   -4.3600   -1.3201    0.4667 H   0  0  0  0  0  0  0  0  0  0  0  0
   -4.1386    2.9368   -0.1224 H   0  0  0  0  0  0  0  0  0  0  0  0
   -3.5360   -4.4500   -0.3800 H   0  0  0  0  0  0  0  0  0  0  0  0
   -2.0925   -4.0152   -1.3195 H   0  0  0  0  0  0  0  0  0  0  0  0
   -3.5468   -2.9692   -1.3613 H   0  0  0  0  0  0  0  0  0  0  0  0
   -6.2592    2.5802   -0.7120 H   0  0  0  0  0  0  0  0  0  0  0  0
   -6.0146    2.8099    1.0756 H   0  0  0  0  0  0  0  0  0  0  0  0
   -7.4505    2.0061    0.4500 H   0  0  0  0  0  0  0  0  0  0  0  0
  1 14  2  0  0  0  0
  2 19  1  0  0  0  0
  2 24  1  0  0  0  0
  3 23  1  0  0  0  0
  3 25  1  0  0  0  0
  4  5  1  0  0  0  0
  4  6  1  0  0  0  0
  4  8  1  0  0  0  0
  4 11  1  0  0  0  0
  5  7  1  0  0  0  0
  5 10  1  0  0  0  0
  5 26  1  0  0  0  0
  6  9  1  0  0  0  0
  6 14  1  0  0  0  0
  6 27  1  0  0  0  0
  7  9  1  0  0  0  0
  7 28  1  0  0  0  0
  7 29  1  0  0  0  0
  8 12  1  0  0  0  0
  8 30  1  0  0  0  0
  8 31  1  0  0  0  0
  9 32  1  0  0  0  0
  9 33  1  0  0  0  0
 10 13  1  0  0  0  0
 10 15  2  0  0  0  0
 11 34  1  0  0  0  0
 11 35  1  0  0  0  0
 11 36  1  0  0  0  0
 12 13  1  0  0  0  0
 12 37  1  0  0  0  0
 12 38  1  0  0  0  0
 13 16  2  0  0  0  0
 14 17  1  0  0  0  0
 15 19  1  0  0  0  0
 15 39  1  0  0  0  0
 16 18  1  0  0  0  0
 16 20  1  0  0  0  0
 17 40  1  0  0  0  0
 17 41  1  0  0  0  0
 17 42  1  0  0  0  0
 18 19  2  0  0  0  0
 18 21  1  0  0  0  0
 20 22  2  0  0  0  0
 20 43  1  0  0  0  0
 21 23  2  0  0  0  0
 21 44  1  0  0  0  0
 22 23  1  0  0  0  0
 22 45  1  0  0  0  0
 24 46  1  0  0  0  0
 24 47  1  0  0  0  0
 24 48  1  0  0  0  0
 25 49  1  0  0  0  0
 25 50  1  0  0  0  0
 25 51  1  0  0  0  0
M  END
> <PUBCHEM_COMPOUND_CID>
259027

> <PUBCHEM_CONFORMER_RMSD>
0.8

> <PUBCHEM_CONFORMER_DIVERSEORDER>
1
2

> <PUBCHEM_MMFF94_PARTIAL_CHARGES>
22
1 -0.57
10 -0.14
12 0.14
13 -0.14
14 0.45
15 -0.15
17 0.06
19 0.08
2 -0.36
20 -0.15
21 -0.15
22 -0.15
23 0.08
24 0.28
25 0.28
3 -0.36
39 0.15
43 0.15
44 0.15
45 0.15
5 0.14
6 0.06

> <PUBCHEM_EFFECTIVE_ROTOR_COUNT>
4

> <PUBCHEM_PHARMACOPHORE_FEATURES>
7
1 1 acceptor
1 2 acceptor
1 3 acceptor
5 4 5 6 7 9 rings
6 10 13 15 16 18 19 rings
6 16 18 20 21 22 23 rings
6 4 5 8 10 12 13 rings

> <PUBCHEM_HEAVY_ATOM_COUNT>
25

> <PUBCHEM_ATOM_DEF_STEREO_COUNT>
3

> <PUBCHEM_ATOM_UDEF_STEREO_COUNT>
0

> <PUBCHEM_BOND_DEF_STEREO_COUNT>
0

> <PUBCHEM_BOND_UDEF_STEREO_COUNT>
0

> <PUBCHEM_ISOTOPIC_ATOM_COUNT>
0

> <PUBCHEM_COMPONENT_COUNT>
1

> <PUBCHEM_CACTVS_TAUTO_COUNT>
3

> <PUBCHEM_CONFORMER_ID>
0003F3D300000001

> <PUBCHEM_MMFF94_ENERGY>
106.8575

> <PUBCHEM_FEATURE_SELFOVERLAP>
35.627

> <PUBCHEM_SHAPE_FINGERPRINT>
10 15 18202841045829648840
10319926 262 18263944189299842978
10366900 7 17385723612154364929
10411042 1 17833830465836286583
10493431 412 18411417341199170357
10616163 171 18338513036881728510
10906281 52 18188193382279169325
1100329 8 18340204098766207201
11578080 2 17604722032051586267
12107183 9 18197506323234268322
12236239 1 17846780689316674496
12403259 415 18199750421986838965
12616971 3 17203329979535963606
12633257 1 18272094876684562620
12838862 33 18340785809395396293
13140716 1 18268991990409643457
13533116 47 17895756334420826094
13583140 156 17603872139459494910
14178342 30 18340218383843251682
14341114 176 18411693322390716905
14341114 328 17988931037909145064
14790565 3 18266171932284836393
15042514 8 18341324493178961291
15131766 46 15839553957054104902
15196674 1 18411697703225651863
15788980 27 15769783455055926596
1601671 61 18411138013912160876
17980427 23 17916583125245484830
1813 80 16773792619445156044
19141452 34 18412263934665910775
19591789 44 18052537969537108095
20642791 178 17986380101855019332
20681677 155 18342737399072699419
21033648 29 18264503925943220841
21236236 1 18335703798021769415
21267235 1 18269265932356601838
21421861 104 17845385495514410746
21859007 373 17488477441006084165
23227448 37 18409729534593986095
23402539 116 18335425673187920221
23557571 272 18114457842970691039
23558518 356 17771619049293748059
23559900 14 18334857264610783246
25147074 1 17986948561755161069
3178227 256 18341035386256421185
335352 9 18339920519017956799
34934 24 18412545409663863174
350125 39 18338231540651298507
3545911 37 18409727383095029748
4340502 62 18409732893611994960
495365 180 17458921404382951802
5104073 3 18413387657034962442
7808743 9 18411702066975858160
9709674 26 18334852827060481062

> <PUBCHEM_SHAPE_MULTIPOLES>
496.88
12.56
3.02
0.88
0.48
2.12
0.14
-6.7
1.73
2.56
-0.44
-0.6
-0.1
-0.46

> <PUBCHEM_SHAPE_SELFOVERLAP>
1088.676

> <PUBCHEM_SHAPE_VOLUME>
272.2

> <PUBCHEM_COORDINATE_TYPE>
2
5
10

$$$$

