583308
  -OEChem-06241222452D

 20 21  0     0  0  0  0  0  0999 V2000
    2.9230    1.0676    0.0000 N   0  0  0  0  0  0  0  0  0  0  0  0
    4.5411    1.0676    0.0000 N   0  0  0  0  0  0  0  0  0  0  0  0
    3.2320    2.0186    0.0000 N   0  0  0  0  0  0  0  0  0  0  0  0
    4.2320    2.0186    0.0000 N   0  0  0  0  0  0  0  0  0  0  0  0
    3.7320   -0.5202    0.0000 C   0  0  0  0  0  0  0  0  0  0  0  0
    2.8660   -2.0202    0.0000 C   0  0  0  0  0  0  0  0  0  0  0  0
    2.8660   -1.0202    0.0000 C   0  0  0  0  0  0  0  0  0  0  0  0
    4.5981   -1.0202    0.0000 C   0  0  0  0  0  0  0  0  0  0  0  0
    3.7320   -2.5202    0.0000 C   0  0  0  0  0  0  0  0  0  0  0  0
    3.7320    0.4798    0.0000 C   0  0  0  0  0  0  0  0  0  0  0  0
    4.5981   -2.0202    0.0000 C   0  0  0  0  0  0  0  0  0  0  0  0
    2.0000   -2.5202    0.0000 C   0  0  0  0  0  0  0  0  0  0  0  0
    2.3291   -0.7102    0.0000 H   0  0  0  0  0  0  0  0  0  0  0  0
    5.1350   -0.7102    0.0000 H   0  0  0  0  0  0  0  0  0  0  0  0
    3.7320   -3.1402    0.0000 H   0  0  0  0  0  0  0  0  0  0  0  0
    5.1350   -2.3302    0.0000 H   0  0  0  0  0  0  0  0  0  0  0  0
    1.6900   -1.9833    0.0000 H   0  0  0  0  0  0  0  0  0  0  0  0
    1.4631   -2.8302    0.0000 H   0  0  0  0  0  0  0  0  0  0  0  0
    2.3100   -3.0572    0.0000 H   0  0  0  0  0  0  0  0  0  0  0  0
    2.8676    2.5202    0.0000 H   0  0  0  0  0  0  0  0  0  0  0  0
  1  3  1  0  0  0  0
  1 10  2  0  0  0  0
  2  4  2  0  0  0  0
  2 10  1  0  0  0  0
  3  4  1  0  0  0  0
  3 20  1  0  0  0  0
  5  7  1  0  0  0  0
  5  8  2  0  0  0  0
  5 10  1  0  0  0  0
  6  7  2  0  0  0  0
  6  9  1  0  0  0  0
  6 12  1  0  0  0  0
  7 13  1  0  0  0  0
  8 11  1  0  0  0  0
  8 14  1  0  0  0  0
  9 11  2  0  0  0  0
  9 15  1  0  0  0  0
 11 16  1  0  0  0  0
 12 17  1  0  0  0  0
 12 18  1  0  0  0  0
 12 19  1  0  0  0  0
M  END
> <PUBCHEM_COMPOUND_CID>
583308

> <PUBCHEM_COMPOUND_CANONICALIZED>
1

> <PUBCHEM_CACTVS_COMPLEXITY>
150

> <PUBCHEM_CACTVS_HBOND_ACCEPTOR>
3

> <PUBCHEM_CACTVS_HBOND_DONOR>
1

> <PUBCHEM_CACTVS_ROTATABLE_BOND>
1

> <PUBCHEM_CACTVS_SUBSKEYS>
AAADccBzgAAAAAAAAAAAAAAAAAAAAWAAAAAwAAAAAAAAAAABwAAAHAAYAAAADACBGwAzEIQCAACiAiJiIACCAAIgAAAcqCAgBJgIIKKAkRGAIABggAAIiAcQgEAOAAACAAAAAAAAAAQAAAAAAAAAAAAAAA==

> <PUBCHEM_IUPAC_OPENEYE_NAME>
5-(m-tolyl)-2H-tetrazole

> <PUBCHEM_IUPAC_CAS_NAME>
5-(3-methylphenyl)-2H-tetrazole

> <PUBCHEM_IUPAC_NAME>
5-(3-methylphenyl)-2H-tetrazole

> <PUBCHEM_IUPAC_SYSTEMATIC_NAME>
5-(3-methylphenyl)-2H-1,2,3,4-tetrazole

> <PUBCHEM_IUPAC_TRADITIONAL_NAME>
5-(m-tolyl)-2H-tetrazole

> <PUBCHEM_IUPAC_INCHI>
InChI=1S/C8H8N4/c1-6-3-2-4-7(5-6)8-9-11-12-10-8/h2-5H,1H3,(H,9,10,11,12)

> <PUBCHEM_IUPAC_INCHIKEY>
GWZNHKMUSLKULV-UHFFFAOYSA-N

> <PUBCHEM_XLOGP3_AA>
1.5

> <PUBCHEM_EXACT_MASS>
160.074896

> <PUBCHEM_MOLECULAR_FORMULA>
C8H8N4

> <PUBCHEM_MOLECULAR_WEIGHT>
160.17592

> <PUBCHEM_OPENEYE_CAN_SMILES>
CC1=CC=CC(=C1)C2=NNN=N2

> <PUBCHEM_OPENEYE_ISO_SMILES>
CC1=CC=CC(=C1)C2=NNN=N2

> <PUBCHEM_CACTVS_TPSA>
54.5

> <PUBCHEM_MONOISOTOPIC_WEIGHT>
160.074896

> <PUBCHEM_TOTAL_CHARGE>
0

> <PUBCHEM_HEAVY_ATOM_COUNT>
12

> <PUBCHEM_ATOM_DEF_STEREO_COUNT>
0

> <PUBCHEM_ATOM_UDEF_STEREO_COUNT>
0

> <PUBCHEM_BOND_DEF_STEREO_COUNT>
0

> <PUBCHEM_BOND_UDEF_STEREO_COUNT>
0

> <PUBCHEM_ISOTOPIC_ATOM_COUNT>
0

> <PUBCHEM_COMPONENT_COUNT>
1

> <PUBCHEM_CACTVS_TAUTO_COUNT>
2

> <PUBCHEM_COORDINATE_TYPE>
1
5
255

> <PUBCHEM_BONDANNOTATIONS>
1  10  8
1  3  8
2  10  8
2  4  8
3  4  8
5  7  8
5  8  8
6  7  8
6  9  8
8  11  8
9  11  8

$$$$

