441840
  -OEChem-07051212563D

 81 87  0     1  0  0  0  0  0999 V2000
    2.4839    2.1259   -0.6796 O   0  0  0  0  0  0  0  0  0  0  0  0
   -3.7380   -0.4967   -0.5738 O   0  0  0  0  0  0  0  0  0  0  0  0
    7.7936   -2.2895   -0.0262 O   0  0  0  0  0  0  0  0  0  0  0  0
   -5.5464   -1.7123    0.2857 O   0  0  0  0  0  0  0  0  0  0  0  0
    9.7126   -1.0800    0.3621 O   0  0  0  0  0  0  0  0  0  0  0  0
   -8.0293    1.5916   -0.0516 O   0  0  0  0  0  0  0  0  0  0  0  0
   -8.1929   -1.0891   -0.6898 O   0  0  0  0  0  0  0  0  0  0  0  0
    3.1558    1.3204    0.2981 C   0  0  1  0  0  0  0  0  0  0  0  0
    1.6394    1.2878    0.1163 C   0  0  2  0  0  0  0  0  0  0  0  0
    4.0753    0.2531   -0.2688 C   0  0  1  0  0  0  0  0  0  0  0  0
    1.0113    0.0816   -0.5667 C   0  0  1  0  0  0  0  0  0  0  0  0
   -0.3165    0.4756   -1.3153 C   0  0  2  0  0  0  0  0  0  0  0  0
    3.8137    2.0490    1.4339 C   0  0  0  0  0  0  0  0  0  0  0  0
    0.7382    2.0610    1.0378 C   0  0  0  0  0  0  0  0  0  0  0  0
    5.0435    0.0260    0.9389 C   0  0  2  0  0  0  0  0  0  0  0  0
    3.2934   -1.0262   -0.6135 C   0  0  0  0  0  0  0  0  0  0  0  0
    2.0208   -0.7218   -1.4126 C   0  0  0  0  0  0  0  0  0  0  0  0
   -1.2672    1.2398   -0.3282 C   0  0  2  0  0  0  0  0  0  0  0  0
    5.2181    1.4410    1.5159 C   0  0  0  0  0  0  0  0  0  0  0  0
   -0.5676    2.4386    0.3423 C   0  0  0  0  0  0  0  0  0  0  0  0
    4.8248    0.7786   -1.5166 C   0  0  0  0  0  0  0  0  0  0  0  0
   -1.0719   -0.7677   -1.8677 C   0  0  0  0  0  0  0  0  0  0  0  0
   -1.8832    0.3140    0.7471 C   0  0  0  0  0  0  0  0  0  0  0  0
   -0.0183    1.3757   -2.5420 C   0  0  0  0  0  0  0  0  0  0  0  0
    6.3404   -0.6506    0.6395 C   0  0  0  0  0  0  0  0  0  0  0  0
   -1.6570   -1.6748   -0.7867 C   0  0  0  0  0  0  0  0  0  0  0  0
   -2.5805   -0.9066    0.1515 C   0  0  2  0  0  0  0  0  0  0  0  0
    6.3930   -2.0319    0.1192 C   0  0  0  0  0  0  0  0  0  0  0  0
    7.5621   -0.1453    0.7872 C   0  0  0  0  0  0  0  0  0  0  0  0
    8.4984   -1.1877    0.3637 C   0  0  0  0  0  0  0  0  0  0  0  0
   -4.8861   -0.4460    0.2674 C   0  0  2  0  0  0  0  0  0  0  0  0
   -5.8185    0.6330   -0.2760 C   0  0  0  0  0  0  0  0  0  0  0  0
   -7.1113    0.6762    0.5326 C   0  0  2  0  0  0  0  0  0  0  0  0
   -6.7086   -1.7251    1.1273 C   0  0  1  0  0  0  0  0  0  0  0  0
   -7.7454   -0.7141    0.6143 C   0  0  2  0  0  0  0  0  0  0  0  0
   -7.2356   -3.1549    1.1513 C   0  0  0  0  0  0  0  0  0  0  0  0
   -9.2442    1.6515    0.6829 C   0  0  0  0  0  0  0  0  0  0  0  0
    0.7373   -0.5900    0.2577 H   0  0  0  0  0  0  0  0  0  0  0  0
    3.2761    1.8536    2.3684 H   0  0  0  0  0  0  0  0  0  0  0  0
    3.8602    3.1312    1.2772 H   0  0  0  0  0  0  0  0  0  0  0  0
    0.5365    1.4593    1.9309 H   0  0  0  0  0  0  0  0  0  0  0  0
    1.2202    2.9815    1.3880 H   0  0  0  0  0  0  0  0  0  0  0  0
    4.5275   -0.5701    1.7065 H   0  0  0  0  0  0  0  0  0  0  0  0
    3.9046   -1.7149   -1.2032 H   0  0  0  0  0  0  0  0  0  0  0  0
    3.0086   -1.5627    0.3007 H   0  0  0  0  0  0  0  0  0  0  0  0
    1.5769   -1.6779   -1.7101 H   0  0  0  0  0  0  0  0  0  0  0  0
    2.2774   -0.1929   -2.3347 H   0  0  0  0  0  0  0  0  0  0  0  0
   -2.1064    1.6476   -0.9100 H   0  0  0  0  0  0  0  0  0  0  0  0
    5.9018    2.0536    0.9160 H   0  0  0  0  0  0  0  0  0  0  0  0
    5.5908    1.4352    2.5458 H   0  0  0  0  0  0  0  0  0  0  0  0
   -1.2416    2.9101    1.0679 H   0  0  0  0  0  0  0  0  0  0  0  0
   -0.3595    3.2037   -0.4155 H   0  0  0  0  0  0  0  0  0  0  0  0
    5.4041    1.6810   -1.2948 H   0  0  0  0  0  0  0  0  0  0  0  0
    5.5115    0.0299   -1.9239 H   0  0  0  0  0  0  0  0  0  0  0  0
    4.1345    1.0479   -2.3228 H   0  0  0  0  0  0  0  0  0  0  0  0
   -0.4252   -1.3598   -2.5244 H   0  0  0  0  0  0  0  0  0  0  0  0
   -1.8981   -0.4287   -2.5085 H   0  0  0  0  0  0  0  0  0  0  0  0
   -2.5958    0.9011    1.3388 H   0  0  0  0  0  0  0  0  0  0  0  0
   -1.1135   -0.0334    1.4447 H   0  0  0  0  0  0  0  0  0  0  0  0
   -0.9498    1.7139   -3.0115 H   0  0  0  0  0  0  0  0  0  0  0  0
    0.5453    0.8355   -3.3097 H   0  0  0  0  0  0  0  0  0  0  0  0
    0.5502    2.2721   -2.2847 H   0  0  0  0  0  0  0  0  0  0  0  0
   -2.2189   -2.4788   -1.2775 H   0  0  0  0  0  0  0  0  0  0  0  0
   -0.8505   -2.1487   -0.2164 H   0  0  0  0  0  0  0  0  0  0  0  0
   -2.8705   -1.5943    0.9574 H   0  0  0  0  0  0  0  0  0  0  0  0
    5.9405   -2.1442   -0.8662 H   0  0  0  0  0  0  0  0  0  0  0  0
    5.9658   -2.7583    0.8163 H   0  0  0  0  0  0  0  0  0  0  0  0
    7.8653    0.8232    1.1442 H   0  0  0  0  0  0  0  0  0  0  0  0
   -4.6034   -0.1787    1.2946 H   0  0  0  0  0  0  0  0  0  0  0  0
   -5.3241    1.6124   -0.2601 H   0  0  0  0  0  0  0  0  0  0  0  0
   -6.0394    0.4495   -1.3356 H   0  0  0  0  0  0  0  0  0  0  0  0
   -6.8662    1.0270    1.5445 H   0  0  0  0  0  0  0  0  0  0  0  0
   -6.4016   -1.4569    2.1465 H   0  0  0  0  0  0  0  0  0  0  0  0
   -8.6165   -0.7346    1.2759 H   0  0  0  0  0  0  0  0  0  0  0  0
   -6.4736   -3.8319    1.5531 H   0  0  0  0  0  0  0  0  0  0  0  0
   -7.4669   -3.5132    0.1425 H   0  0  0  0  0  0  0  0  0  0  0  0
   -8.1341   -3.2362    1.7702 H   0  0  0  0  0  0  0  0  0  0  0  0
   -7.4143   -1.3098   -1.2283 H   0  0  0  0  0  0  0  0  0  0  0  0
   -9.0698    1.6895    1.7631 H   0  0  0  0  0  0  0  0  0  0  0  0
   -9.9056    0.8213    0.4200 H   0  0  0  0  0  0  0  0  0  0  0  0
   -9.7590    2.5731    0.3944 H   0  0  0  0  0  0  0  0  0  0  0  0
  1  8  1  0  0  0  0
  1  9  1  0  0  0  0
  2 27  1  0  0  0  0
  2 31  1  0  0  0  0
  3 28  1  0  0  0  0
  3 30  1  0  0  0  0
  4 31  1  0  0  0  0
  4 34  1  0  0  0  0
  5 30  2  0  0  0  0
  6 33  1  0  0  0  0
  6 37  1  0  0  0  0
  7 35  1  0  0  0  0
  7 78  1  0  0  0  0
  8  9  1  0  0  0  0
  8 10  1  0  0  0  0
  8 13  1  0  0  0  0
  9 11  1  0  0  0  0
  9 14  1  0  0  0  0
 10 15  1  0  0  0  0
 10 16  1  0  0  0  0
 10 21  1  0  0  0  0
 11 12  1  0  0  0  0
 11 17  1  0  0  0  0
 11 38  1  0  0  0  0
 12 18  1  0  0  0  0
 12 22  1  0  0  0  0
 12 24  1  0  0  0  0
 13 19  1  0  0  0  0
 13 39  1  0  0  0  0
 13 40  1  0  0  0  0
 14 20  1  0  0  0  0
 14 41  1  0  0  0  0
 14 42  1  0  0  0  0
 15 19  1  0  0  0  0
 15 25  1  0  0  0  0
 15 43  1  0  0  0  0
 16 17  1  0  0  0  0
 16 44  1  0  0  0  0
 16 45  1  0  0  0  0
 17 46  1  0  0  0  0
 17 47  1  0  0  0  0
 18 20  1  0  0  0  0
 18 23  1  0  0  0  0
 18 48  1  0  0  0  0
 19 49  1  0  0  0  0
 19 50  1  0  0  0  0
 20 51  1  0  0  0  0
 20 52  1  0  0  0  0
 21 53  1  0  0  0  0
 21 54  1  0  0  0  0
 21 55  1  0  0  0  0
 22 26  1  0  0  0  0
 22 56  1  0  0  0  0
 22 57  1  0  0  0  0
 23 27  1  0  0  0  0
 23 58  1  0  0  0  0
 23 59  1  0  0  0  0
 24 60  1  0  0  0  0
 24 61  1  0  0  0  0
 24 62  1  0  0  0  0
 25 28  1  0  0  0  0
 25 29  2  0  0  0  0
 26 27  1  0  0  0  0
 26 63  1  0  0  0  0
 26 64  1  0  0  0  0
 27 65  1  0  0  0  0
 28 66  1  0  0  0  0
 28 67  1  0  0  0  0
 29 30  1  0  0  0  0
 29 68  1  0  0  0  0
 31 32  1  0  0  0  0
 31 69  1  0  0  0  0
 32 33  1  0  0  0  0
 32 70  1  0  0  0  0
 32 71  1  0  0  0  0
 33 35  1  0  0  0  0
 33 72  1  0  0  0  0
 34 35  1  0  0  0  0
 34 36  1  0  0  0  0
 34 73  1  0  0  0  0
 35 74  1  0  0  0  0
 36 75  1  0  0  0  0
 36 76  1  0  0  0  0
 36 77  1  0  0  0  0
 37 79  1  0  0  0  0
 37 80  1  0  0  0  0
 37 81  1  0  0  0  0
M  END
> <PUBCHEM_COMPOUND_CID>
441840

> <PUBCHEM_CONFORMER_RMSD>
1

> <PUBCHEM_CONFORMER_DIVERSEORDER>
1
9
10
13
6
20
11
3
7
18
25
22
15
12
24
27
26
21
29
28
14
2
19
30
32
4
5
16
17
31
8
23

> <PUBCHEM_MMFF94_PARTIAL_CHARGES>
26
1 -0.3
10 0.09
11 0.09
13 0.09
14 0.09
15 0.14
2 -0.56
25 -0.28
27 0.28
28 0.42
29 -0.14
3 -0.43
30 0.71
31 0.56
33 0.28
34 0.28
35 0.28
37 0.28
4 -0.56
5 -0.57
6 -0.56
68 0.15
7 -0.68
78 0.4
8 -0.04
9 -0.04

> <PUBCHEM_EFFECTIVE_ROTOR_COUNT>
8

> <PUBCHEM_PHARMACOPHORE_FEATURES>
13
1 1 acceptor
1 2 acceptor
1 4 acceptor
1 5 acceptor
1 6 acceptor
1 7 acceptor
1 7 donor
5 3 25 28 29 30 rings
5 8 10 13 15 19 rings
6 12 18 22 23 26 27 rings
6 4 31 32 33 34 35 rings
6 9 11 12 14 18 20 rings
7 1 8 9 10 11 16 17 rings

> <PUBCHEM_HEAVY_ATOM_COUNT>
37

> <PUBCHEM_ATOM_DEF_STEREO_COUNT>
12

> <PUBCHEM_ATOM_UDEF_STEREO_COUNT>
0

> <PUBCHEM_BOND_DEF_STEREO_COUNT>
0

> <PUBCHEM_BOND_UDEF_STEREO_COUNT>
0

> <PUBCHEM_ISOTOPIC_ATOM_COUNT>
0

> <PUBCHEM_COMPONENT_COUNT>
1

> <PUBCHEM_CACTVS_TAUTO_COUNT>
1

> <PUBCHEM_CONFORMER_ID>
0006BDF000000001

> <PUBCHEM_MMFF94_ENERGY>
108.3929

> <PUBCHEM_FEATURE_SELFOVERLAP>
66.177

> <PUBCHEM_SHAPE_FINGERPRINT>
10 15 17531248336078299256
10076449 9 16056879147702447980
10162869 55 15719402732691465925
10299344 5 17704070689822318987
10533779 47 17822836659017091155
10674148 151 17989209243883071928
11115154 58 16343984723691378780
11456790 92 17313099748153354986
11607047 74 17199937861088517149
12013929 2 18337112362690105545
12539745 222 18341896337192221916
12592606 108 18413110541566295971
12741549 16 18341615940928003716
12758862 56 18411426089530744432
13150687 139 12103565329928782120
13673619 4 17418097611348478084
13782708 43 18059577928237193779
13811026 1 18259982682811133447
13947947 74 12175617382867982678
14294032 229 14201398326166614601
14347424 109 18113622248904854728
14675019 173 17917993867294441957
14856354 85 16343702111255033995
15064986 96 17531524407986769342
15131766 46 17317343713399348640
15183329 4 18410848851038929569
15198563 99 16271661052403223559
15347591 1 18194120716177773891
16994733 274 6555423011229138739
18335252 98 11024104369519888865
19301679 30 18042402616462050078
19841028 212 18129384963960862426
20105231 36 14836400333635176537
20505436 4 7637398502532219580
20554085 129 5256403903502578478
21049683 271 11383826069904870735
21057603 130 17846497046346642046
21130935 74 18337392630491167787
21150785 3 12535626085482883824
21267235 1 18408604777960775088
21403212 168 17385444340479961903
21585481 151 18202001006108800563
21781051 124 18339913849561662310
21792934 111 18186806902068730361
21792938 703 16055742141590433587
22149856 69 18334018268782830448
23576562 1 9871164138628804283
24771293 8 6050450310150910187
25269216 80 16917068906304061126
3178227 256 18113902659124885614
335507 130 9655566414777327513
3383291 50 18409445873511531659
3504750 166 18340491054949577343
397638 26 18260268534486320795
4093350 32 14056990651292648668
439807 62 18413108390425503512
5028188 123 13901903398302913939
5381727 24 7060377016472692004
54039377 194 18342174480075845886
6009941 240 18342176674872394169
6058803 2 16519652421067138988
6081469 158 18272089413391171308
6691757 9 15864072040642627167
9831232 110 18272931652457801950
99344 41 18040155128326278903

> <PUBCHEM_SHAPE_MULTIPOLES>
720.36
27.89
2.48
1.48
15.58
0.35
-0.59
11.89
9.89
1.14
0.6
-0.4
-0.26
0.95

> <PUBCHEM_SHAPE_SELFOVERLAP>
1558.445

> <PUBCHEM_SHAPE_VOLUME>
394.9

> <PUBCHEM_COORDINATE_TYPE>
2
5
10

$$$$

