5281730
  -OEChem-07051212593D

 42 45  0     0  0  0  0  0  0999 V2000
    1.3677   -1.2966   -0.0467 O   0  0  0  0  0  0  0  0  0  0  0  0
   -1.0046    2.9161    0.0034 O   0  0  0  0  0  0  0  0  0  0  0  0
   -0.9326   -2.6103   -0.1321 O   0  0  0  0  0  0  0  0  0  0  0  0
    1.5431    2.7887    0.0590 O   0  0  0  0  0  0  0  0  0  0  0  0
    6.0951   -1.6474    0.0471 O   0  0  0  0  0  0  0  0  0  0  0  0
   -5.9039   -1.2695   -0.2132 O   0  0  0  0  0  0  0  0  0  0  0  0
   -3.5048   -2.5336   -0.1910 O   0  0  0  0  0  0  0  0  0  0  0  0
   -3.5546    2.8075   -0.0577 O   0  0  0  0  0  0  0  0  0  0  0  0
    0.2069    0.8512   -0.0200 C   0  0  0  0  0  0  0  0  0  0  0  0
    0.2200   -0.5419   -0.0542 C   0  0  0  0  0  0  0  0  0  0  0  0
    2.7078    0.7428    0.0333 C   0  0  0  0  0  0  0  0  0  0  0  0
   -2.2093    0.8443   -0.0758 C   0  0  0  0  0  0  0  0  0  0  0  0
   -2.2019   -0.5522   -0.1103 C   0  0  0  0  0  0  0  0  0  0  0  0
   -1.0025    1.5523   -0.0304 C   0  0  0  0  0  0  0  0  0  0  0  0
    1.4908    1.5686    0.0271 C   0  0  0  0  0  0  0  0  0  0  0  0
   -0.9857   -1.2463   -0.0994 C   0  0  0  0  0  0  0  0  0  0  0  0
    2.5753   -0.6448   -0.0040 C   0  0  0  0  0  0  0  0  0  0  0  0
    3.9729    1.3344    0.0751 C   0  0  0  0  0  0  0  0  0  0  0  0
   -3.4691   -1.3090   -0.1584 C   0  0  0  0  0  0  0  0  0  0  0  0
   -3.4854    1.5848   -0.0867 C   0  0  0  0  0  0  0  0  0  0  0  0
    3.7172   -1.4483    0.0005 C   0  0  0  0  0  0  0  0  0  0  0  0
    5.1102    0.5264    0.0792 C   0  0  0  0  0  0  0  0  0  0  0  0
    4.9829   -0.8623    0.0419 C   0  0  0  0  0  0  0  0  0  0  0  0
   -4.7351   -0.5363   -0.1678 C   0  0  0  0  0  0  0  0  0  0  0  0
   -4.7348    0.7982   -0.1348 C   0  0  0  0  0  0  0  0  0  0  0  0
    4.2005    2.8110    0.1166 C   0  0  0  0  0  0  0  0  0  0  0  0
    5.8931   -3.0592    0.0076 C   0  0  0  0  0  0  0  0  0  0  0  0
   -6.3590   -1.5685    1.0918 C   0  0  0  0  0  0  0  0  0  0  0  0
    3.5572   -2.5212   -0.0294 H   0  0  0  0  0  0  0  0  0  0  0  0
    6.1054    0.9637    0.1114 H   0  0  0  0  0  0  0  0  0  0  0  0
   -5.6668    1.3543   -0.1435 H   0  0  0  0  0  0  0  0  0  0  0  0
    5.2683    3.0582    0.1458 H   0  0  0  0  0  0  0  0  0  0  0  0
    3.7990    3.2933   -0.7805 H   0  0  0  0  0  0  0  0  0  0  0  0
    3.7603    3.2488    1.0183 H   0  0  0  0  0  0  0  0  0  0  0  0
   -1.8877    3.2628    0.1976 H   0  0  0  0  0  0  0  0  0  0  0  0
   -1.8213   -2.9941   -0.1553 H   0  0  0  0  0  0  0  0  0  0  0  0
    5.3631   -3.4154    0.8975 H   0  0  0  0  0  0  0  0  0  0  0  0
    6.8829   -3.5273    0.0174 H   0  0  0  0  0  0  0  0  0  0  0  0
    5.4025   -3.3701   -0.9211 H   0  0  0  0  0  0  0  0  0  0  0  0
   -5.6229   -2.1580    1.6496 H   0  0  0  0  0  0  0  0  0  0  0  0
   -7.2717   -2.1657    1.0059 H   0  0  0  0  0  0  0  0  0  0  0  0
   -6.6056   -0.6558    1.6456 H   0  0  0  0  0  0  0  0  0  0  0  0
  1 10  1  0  0  0  0
  1 17  1  0  0  0  0
  2 14  1  0  0  0  0
  2 35  1  0  0  0  0
  3 16  1  0  0  0  0
  3 36  1  0  0  0  0
  4 15  2  0  0  0  0
  5 23  1  0  0  0  0
  5 27  1  0  0  0  0
  6 24  1  0  0  0  0
  6 28  1  0  0  0  0
  7 19  2  0  0  0  0
  8 20  2  0  0  0  0
  9 10  1  0  0  0  0
  9 14  2  0  0  0  0
  9 15  1  0  0  0  0
 10 16  2  0  0  0  0
 11 15  1  0  0  0  0
 11 17  2  0  0  0  0
 11 18  1  0  0  0  0
 12 13  2  0  0  0  0
 12 14  1  0  0  0  0
 12 20  1  0  0  0  0
 13 16  1  0  0  0  0
 13 19  1  0  0  0  0
 17 21  1  0  0  0  0
 18 22  2  0  0  0  0
 18 26  1  0  0  0  0
 19 24  1  0  0  0  0
 20 25  1  0  0  0  0
 21 23  2  0  0  0  0
 21 29  1  0  0  0  0
 22 23  1  0  0  0  0
 22 30  1  0  0  0  0
 24 25  2  0  0  0  0
 25 31  1  0  0  0  0
 26 32  1  0  0  0  0
 26 33  1  0  0  0  0
 26 34  1  0  0  0  0
 27 37  1  0  0  0  0
 27 38  1  0  0  0  0
 27 39  1  0  0  0  0
 28 40  1  0  0  0  0
 28 41  1  0  0  0  0
 28 42  1  0  0  0  0
M  END
> <PUBCHEM_COMPOUND_CID>
5281730

> <PUBCHEM_CONFORMER_RMSD>
0.6

> <PUBCHEM_CONFORMER_DIVERSEORDER>
1
2

> <PUBCHEM_MMFF94_PARTIAL_CHARGES>
33
1 -0.17
10 0.08
11 0.09
12 0.09
13 0.09
14 0.08
15 0.4
16 0.08
17 0.08
18 -0.14
19 0.47
2 -0.53
20 0.47
21 -0.15
22 -0.15
23 0.08
24 0.09
25 -0.14
26 0.14
27 0.28
28 0.28
29 0.15
3 -0.53
30 0.15
31 0.15
35 0.45
36 0.45
4 -0.57
5 -0.36
6 -0.36
7 -0.57
8 -0.57
9 0.09

> <PUBCHEM_EFFECTIVE_ROTOR_COUNT>
2

> <PUBCHEM_PHARMACOPHORE_FEATURES>
12
1 1 acceptor
1 2 donor
1 3 donor
1 4 acceptor
1 5 acceptor
1 6 acceptor
1 7 acceptor
1 8 acceptor
6 1 9 10 11 15 17 rings
6 11 17 18 21 22 23 rings
6 12 13 19 20 24 25 rings
6 9 10 12 13 14 16 rings

> <PUBCHEM_HEAVY_ATOM_COUNT>
28

> <PUBCHEM_ATOM_DEF_STEREO_COUNT>
0

> <PUBCHEM_ATOM_UDEF_STEREO_COUNT>
0

> <PUBCHEM_BOND_DEF_STEREO_COUNT>
0

> <PUBCHEM_BOND_UDEF_STEREO_COUNT>
0

> <PUBCHEM_ISOTOPIC_ATOM_COUNT>
0

> <PUBCHEM_COMPONENT_COUNT>
1

> <PUBCHEM_CACTVS_TAUTO_COUNT>
14

> <PUBCHEM_CONFORMER_ID>
005097C200000001

> <PUBCHEM_MMFF94_ENERGY>
110.2835

> <PUBCHEM_FEATURE_SELFOVERLAP>
60.978

> <PUBCHEM_SHAPE_FINGERPRINT>
10622 236 17390810877201956255
10675989 125 16466718026922715461
10693767 8 17827380799515846935
1100329 8 18337672039525292400
11578080 2 16808151099266620506
11756154 67 18266737073293895806
12107183 9 18120087548668603160
12166972 35 17989201547222478148
12236239 1 17917710218646936758
12403259 226 18409736148754678289
12788726 201 17603854611666708440
13073987 5 18408040710614776264
13140716 1 18337949099476102305
13402501 40 18410575072231916175
13533116 47 18336547131940147512
13782708 43 17917714616714969250
13862211 1 18409168818013307703
14341114 176 18340765957855444387
14790565 3 18410289216098725041
15042514 8 18338516446974790125
15196674 1 18410576188580762116
17492 89 18410857620866515994
17844677 252 18409724075727521224
1813 80 17275108314594973884
18681886 176 18335146410325231722
19591789 44 18410858771547966508
20028762 73 18260552229318091230
21130935 74 18334573500026471251
21236236 1 18408604799045331889
21267235 1 18411131446263580526
21279426 13 18339928220047071844
21682296 61 18337103561775049967
21792934 111 18335991921649948641
22393880 68 18130798909257407429
23402539 116 18335146435245430118
23522609 53 18121466194542903849
23559900 14 18408895039818536072
3004659 81 18272370897727949606
335352 9 18338237183948428892
3383291 50 18342742922660196834
350125 39 18410008823844150145
4073 2 18130504116220329370
4214541 1 18410294747926905549
465052 167 18408317765932774910
5104073 3 18335140907807448792
559249 180 18339646762160689091
6138700 20 18267584783346585610
9709674 26 18340767031607967426

> <PUBCHEM_SHAPE_MULTIPOLES>
529.27
13.96
3.32
0.64
0.06
0.54
0.05
-7.11
1.22
1.51
0.04
-0.29
-0.07
0.39

> <PUBCHEM_SHAPE_SELFOVERLAP>
1202.185

> <PUBCHEM_SHAPE_VOLUME>
275.6

> <PUBCHEM_COORDINATE_TYPE>
2
5
10

$$$$

