440386
  -OEChem-07051212493D

 31 31  0     1  0  0  0  0  0999 V2000
    0.3990    0.4044    0.0490 O   0  0  0  0  0  0  0  0  0  0  0  0
    2.1139   -2.0558    0.5238 O   0  0  0  0  0  0  0  0  0  0  0  0
    2.0161    1.3873   -1.2694 O   0  0  0  0  0  0  0  0  0  0  0  0
    2.6292    0.3017    0.8208 C   0  0  1  0  0  0  0  0  0  0  0  0
    3.1773   -1.1066    0.5331 C   0  0  2  0  0  0  0  0  0  0  0  0
    3.7518    1.3302    0.9696 C   0  0  0  0  0  0  0  0  0  0  0  0
    1.6759    0.7676   -0.2697 C   0  0  0  0  0  0  0  0  0  0  0  0
    3.9386   -1.1944   -0.7849 C   0  0  0  0  0  0  0  0  0  0  0  0
   -0.6066    0.7985   -0.8897 C   0  0  0  0  0  0  0  0  0  0  0  0
   -1.9449    0.3287   -0.3999 C   0  0  0  0  0  0  0  0  0  0  0  0
   -2.4116   -0.9276   -0.7703 C   0  0  0  0  0  0  0  0  0  0  0  0
   -2.7066    1.1541    0.4199 C   0  0  0  0  0  0  0  0  0  0  0  0
   -3.6559   -1.3640   -0.3152 C   0  0  0  0  0  0  0  0  0  0  0  0
   -3.9507    0.7176    0.8752 C   0  0  0  0  0  0  0  0  0  0  0  0
   -4.4254   -0.5415    0.5078 C   0  0  0  0  0  0  0  0  0  0  0  0
    2.0663    0.2818    1.7634 H   0  0  0  0  0  0  0  0  0  0  0  0
    3.8500   -1.4007    1.3467 H   0  0  0  0  0  0  0  0  0  0  0  0
    4.3020    1.4940    0.0376 H   0  0  0  0  0  0  0  0  0  0  0  0
    4.4652    1.0190    1.7397 H   0  0  0  0  0  0  0  0  0  0  0  0
    3.3392    2.3005    1.2692 H   0  0  0  0  0  0  0  0  0  0  0  0
    4.8091   -0.5342   -0.8087 H   0  0  0  0  0  0  0  0  0  0  0  0
    4.2946   -2.2203   -0.9361 H   0  0  0  0  0  0  0  0  0  0  0  0
    3.2968   -0.9724   -1.6434 H   0  0  0  0  0  0  0  0  0  0  0  0
   -0.3876    0.3611   -1.8719 H   0  0  0  0  0  0  0  0  0  0  0  0
   -0.6045    1.8903   -0.9985 H   0  0  0  0  0  0  0  0  0  0  0  0
    1.5392   -1.8598   -0.2354 H   0  0  0  0  0  0  0  0  0  0  0  0
   -1.8194   -1.5773   -1.4088 H   0  0  0  0  0  0  0  0  0  0  0  0
   -2.3457    2.1358    0.7140 H   0  0  0  0  0  0  0  0  0  0  0  0
   -4.0253   -2.3446   -0.6008 H   0  0  0  0  0  0  0  0  0  0  0  0
   -4.5496    1.3578    1.5164 H   0  0  0  0  0  0  0  0  0  0  0  0
   -5.3940   -0.8815    0.8626 H   0  0  0  0  0  0  0  0  0  0  0  0
  1  7  1  0  0  0  0
  1  9  1  0  0  0  0
  2  5  1  0  0  0  0
  2 26  1  0  0  0  0
  3  7  2  0  0  0  0
  4  5  1  0  0  0  0
  4  6  1  0  0  0  0
  4  7  1  0  0  0  0
  4 16  1  0  0  0  0
  5  8  1  0  0  0  0
  5 17  1  0  0  0  0
  6 18  1  0  0  0  0
  6 19  1  0  0  0  0
  6 20  1  0  0  0  0
  8 21  1  0  0  0  0
  8 22  1  0  0  0  0
  8 23  1  0  0  0  0
  9 10  1  0  0  0  0
  9 24  1  0  0  0  0
  9 25  1  0  0  0  0
 10 11  2  0  0  0  0
 10 12  1  0  0  0  0
 11 13  1  0  0  0  0
 11 27  1  0  0  0  0
 12 14  2  0  0  0  0
 12 28  1  0  0  0  0
 13 15  2  0  0  0  0
 13 29  1  0  0  0  0
 14 15  1  0  0  0  0
 14 30  1  0  0  0  0
 15 31  1  0  0  0  0
M  END
> <PUBCHEM_COMPOUND_CID>
440386

> <PUBCHEM_CONFORMER_RMSD>
0.6

> <PUBCHEM_CONFORMER_DIVERSEORDER>
2
139
8
128
21
42
23
141
87
81
90
7
143
69
71
82
6
58
33
104
113
50
115
4
73
103
136
13
17
137
110
5
107
37
44
9
62
14
70
67
74
68
94
1
126
118
43
138
31
129
106
59
85
76
10
119
75
30
63
24
98
15
39
41
45
77
99
102
57
121
84
54
91
78
66
92
105
40
32
64
36
65
47
93
140
96
48
79
72
83
20
100
55
52
29
16
145
120
53
49
89
35
86
11
135
117
22
38
116
109
18
46
122
56
3
112
27
134
144
19
51
60
80
34
114
12
131
26
101
125
95
28
97
61
127
111
25
130
88
124
147
148
108
142
133
146
123
132

> <PUBCHEM_MMFF94_PARTIAL_CHARGES>
19
1 -0.43
10 -0.14
11 -0.15
12 -0.15
13 -0.15
14 -0.15
15 -0.15
2 -0.68
26 0.4
27 0.15
28 0.15
29 0.15
3 -0.57
30 0.15
31 0.15
4 0.06
5 0.28
7 0.66
9 0.42

> <PUBCHEM_EFFECTIVE_ROTOR_COUNT>
5

> <PUBCHEM_PHARMACOPHORE_FEATURES>
5
1 2 acceptor
1 2 donor
1 3 acceptor
1 6 hydrophobe
6 10 11 12 13 14 15 rings

> <PUBCHEM_HEAVY_ATOM_COUNT>
15

> <PUBCHEM_ATOM_DEF_STEREO_COUNT>
2

> <PUBCHEM_ATOM_UDEF_STEREO_COUNT>
0

> <PUBCHEM_BOND_DEF_STEREO_COUNT>
0

> <PUBCHEM_BOND_UDEF_STEREO_COUNT>
0

> <PUBCHEM_ISOTOPIC_ATOM_COUNT>
0

> <PUBCHEM_COMPONENT_COUNT>
1

> <PUBCHEM_CACTVS_TAUTO_COUNT>
1

> <PUBCHEM_CONFORMER_ID>
0006B84200000002

> <PUBCHEM_MMFF94_ENERGY>
29.2032

> <PUBCHEM_FEATURE_SELFOVERLAP>
25.371

> <PUBCHEM_SHAPE_FINGERPRINT>
10799339 124 18408884074777215145
11543360 7 11959724967244159785
12251169 10 18334296440022497685
12363563 72 16630533946289822564
12553582 1 17989486333376140054
12616999 72 17131824396254604490
12670546 56 18187368740036740649
12707595 3 16774078462029352076
13296908 3 18130798887861705292
13533116 47 18114188540448242503
13675066 3 18412262844002810313
14144814 61 18408889533564571137
14252887 29 18131074831279247896
14289901 80 18187651249710309753
15239191 94 18272089421944227859
15375462 189 18270401710482529586
15536298 74 18407761434560808354
18186145 218 18412548729594227810
19050596 39 18335424551578866193
19422 9 18412257320669365453
20279233 1 15841558444192884273
20281475 54 18201719561080250791
20442098 301 18335147491818278511
20645477 70 18262817249003475822
20671657 53 15985109599999488797
21065199 12 18113621179098859881
22169311 14 17748829634993585553
22485316 2 18410860949481591929
2255824 54 18130499748022031972
22646028 28 18342738507443416759
23048698 100 18040434399372278176
23463225 33 18411980273745953839
23557571 272 15625682582042758942
23559900 14 17458890609108964468
42 15 18260828215267658841
5104073 3 18334296465692062571
5281201 14 10591764315476431520
5374978 207 17967531264229666329
581208 293 18201722825471550064
77779 3 18187364328625221336
90316 7 18335412491976064841
94968 8 18130785694170642690

> <PUBCHEM_SHAPE_MULTIPOLES>
291.09
9.18
1.68
1.07
1.78
0.4
-0.1
1.43
1.87
-0.76
0.08
-0.34
-0.14
-0.21

> <PUBCHEM_SHAPE_SELFOVERLAP>
589.367

> <PUBCHEM_SHAPE_VOLUME>
169.9

> <PUBCHEM_COORDINATE_TYPE>
2
5
10

$$$$

