443809
  -OEChem-07051213032D

 43 46  0     1  0  0  0  0  0999 V2000
    2.5405    0.8941    0.0000 O   0  0  0  0  0  0  0  0  0  0  0  0
    2.5247   -1.1541    0.0000 O   0  0  0  0  0  0  0  0  0  0  0  0
    7.0009   -0.6545    0.0000 O   0  0  0  0  0  0  0  0  0  0  0  0
    3.4446    2.3910    0.0000 O   0  0  0  0  0  0  0  0  0  0  0  0
    6.9088    0.3910    0.0000 O   0  0  0  0  0  0  0  0  0  0  0  0
    4.2889    3.9224    0.0000 O   0  0  0  0  0  0  0  0  0  0  0  0
    6.0978   -4.3024    0.0000 O   0  0  0  0  0  0  0  0  0  0  0  0
    3.4007    0.3841    0.0000 C   0  0  1  0  0  0  0  0  0  0  0  0
    3.3926   -0.6575    0.0000 C   0  0  1  0  0  0  0  0  0  0  0  0
    4.3107    0.8910    0.0000 C   0  0  0  0  0  0  0  0  0  0  0  0
    4.2947   -1.1783    0.0000 C   0  0  0  0  0  0  0  0  0  0  0  0
    5.1767    0.3910    0.0000 C   0  0  0  0  0  0  0  0  0  0  0  0
    5.1928   -0.6505    0.0000 C   0  0  0  0  0  0  0  0  0  0  0  0
    4.3107    1.8910    0.0000 C   0  0  0  0  0  0  0  0  0  0  0  0
    6.0427    0.8910    0.0000 C   0  0  0  0  0  0  0  0  0  0  0  0
    5.1767    2.3910    0.0000 C   0  0  0  0  0  0  0  0  0  0  0  0
    4.2864   -2.2632    0.0000 C   0  0  0  0  0  0  0  0  0  0  0  0
    6.0427    1.8910    0.0000 C   0  0  0  0  0  0  0  0  0  0  0  0
    6.1447   -1.1711    0.0000 C   0  0  0  0  0  0  0  0  0  0  0  0
    5.2260   -2.8057    0.0000 C   0  0  0  0  0  0  0  0  0  0  0  0
    6.1614   -2.2560    0.0000 C   0  0  0  0  0  0  0  0  0  0  0  0
    5.1606    3.4325    0.0000 C   0  0  0  0  0  0  0  0  0  0  0  0
    6.9527    2.3978    0.0000 C   0  0  0  0  0  0  0  0  0  0  0  0
    5.2298   -3.8057    0.0000 C   0  0  0  0  0  0  0  0  0  0  0  0
    6.0587    3.9602    0.0000 C   0  0  0  0  0  0  0  0  0  0  0  0
    6.9608    3.4394    0.0000 C   0  0  0  0  0  0  0  0  0  0  0  0
    4.2773    4.9224    0.0000 C   0  0  0  0  0  0  0  0  0  0  0  0
    2.8608    0.0793    0.0000 H   0  0  0  0  0  0  0  0  0  0  0  0
    2.8575   -0.3444    0.0000 H   0  0  0  0  0  0  0  0  0  0  0  0
    3.7482   -2.5712    0.0000 H   0  0  0  0  0  0  0  0  0  0  0  0
    6.7019   -2.5598    0.0000 H   0  0  0  0  0  0  0  0  0  0  0  0
    2.0000    0.5904    0.0000 H   0  0  0  0  0  0  0  0  0  0  0  0
    2.5223   -1.7741    0.0000 H   0  0  0  0  0  0  0  0  0  0  0  0
    7.4860    2.0816    0.0000 H   0  0  0  0  0  0  0  0  0  0  0  0
    4.6188   -3.7004    0.0000 H   0  0  0  0  0  0  0  0  0  0  0  0
    5.0200   -4.3892    0.0000 H   0  0  0  0  0  0  0  0  0  0  0  0
    6.0563    4.5802    0.0000 H   0  0  0  0  0  0  0  0  0  0  0  0
    7.4989    3.7474    0.0000 H   0  0  0  0  0  0  0  0  0  0  0  0
    7.5437   -0.9541    0.0000 H   0  0  0  0  0  0  0  0  0  0  0  0
    6.1002   -4.9224    0.0000 H   0  0  0  0  0  0  0  0  0  0  0  0
    4.8973    4.9296    0.0000 H   0  0  0  0  0  0  0  0  0  0  0  0
    4.2702    5.5423    0.0000 H   0  0  0  0  0  0  0  0  0  0  0  0
    3.6574    4.9152    0.0000 H   0  0  0  0  0  0  0  0  0  0  0  0
  8  1  1  6  0  0  0
  1 32  1  0  0  0  0
  9  2  1  1  0  0  0
  2 33  1  0  0  0  0
  3 19  1  0  0  0  0
  3 39  1  0  0  0  0
  4 14  2  0  0  0  0
  5 15  2  0  0  0  0
  6 22  1  0  0  0  0
  6 27  1  0  0  0  0
  7 24  1  0  0  0  0
  7 40  1  0  0  0  0
  8  9  1  0  0  0  0
  8 10  1  0  0  0  0
  8 28  1  0  0  0  0
  9 11  1  0  0  0  0
  9 29  1  0  0  0  0
 10 12  2  0  0  0  0
 10 14  1  0  0  0  0
 11 13  1  0  0  0  0
 11 17  2  0  0  0  0
 12 13  1  0  0  0  0
 12 15  1  0  0  0  0
 13 19  2  0  0  0  0
 14 16  1  0  0  0  0
 15 18  1  0  0  0  0
 16 18  2  0  0  0  0
 16 22  1  0  0  0  0
 17 20  1  0  0  0  0
 17 30  1  0  0  0  0
 18 23  1  0  0  0  0
 19 21  1  0  0  0  0
 20 21  2  0  0  0  0
 20 24  1  0  0  0  0
 21 31  1  0  0  0  0
 22 25  2  0  0  0  0
 23 26  2  0  0  0  0
 23 34  1  0  0  0  0
 24 35  1  0  0  0  0
 24 36  1  0  0  0  0
 25 26  1  0  0  0  0
 25 37  1  0  0  0  0
 26 38  1  0  0  0  0
 27 41  1  0  0  0  0
 27 42  1  0  0  0  0
 27 43  1  0  0  0  0
M  END
> <PUBCHEM_COMPOUND_CID>
443809

> <PUBCHEM_COMPOUND_CANONICALIZED>
1

> <PUBCHEM_CACTVS_COMPLEXITY>
671

> <PUBCHEM_CACTVS_HBOND_ACCEPTOR>
7

> <PUBCHEM_CACTVS_HBOND_DONOR>
4

> <PUBCHEM_CACTVS_ROTATABLE_BOND>
2

> <PUBCHEM_CACTVS_SUBSKEYS>
AAADceB4OAAAAAAAAAAAAAAAAAAAAAAAAAAwYIEAAAAAAADBQAAAGgAACAAADBSgmAIyBoAABgCIAqBSAAACCAAkIAAIiAEGCMgNNjaGNRqAcWAk4BEJuYfL7PzOwAADAAAYAACAAAYAADAAAAAAAAAAAA==

> <PUBCHEM_IUPAC_OPENEYE_NAME>
(5R,6R)-1,5,6-trihydroxy-3-(hydroxymethyl)-8-methoxy-5,6-dihydrobenzo[a]anthracene-7,12-dione

> <PUBCHEM_IUPAC_CAS_NAME>
(5R,6R)-1,5,6-trihydroxy-3-(hydroxymethyl)-8-methoxy-5,6-dihydrobenzo[a]anthracene-7,12-dione

> <PUBCHEM_IUPAC_NAME>
(5R,6R)-1,5,6-trihydroxy-3-(hydroxymethyl)-8-methoxy-5,6-dihydrobenzo[a]anthracene-7,12-dione

> <PUBCHEM_IUPAC_SYSTEMATIC_NAME>
(5R,6R)-3-(hydroxymethyl)-8-methoxy-1,5,6-tris(oxidanyl)-5,6-dihydrobenzo[a]anthracene-7,12-dione

> <PUBCHEM_IUPAC_TRADITIONAL_NAME>
(5R,6R)-1,5,6-trihydroxy-8-methoxy-3-methylol-5,6-dihydrobenz[a]anthracene-7,12-quinone

> <PUBCHEM_IUPAC_INCHI>
InChI=1S/C20H16O7/c1-27-12-4-2-3-9-14(12)19(25)16-15(17(9)23)13-10(18(24)20(16)26)5-8(7-21)6-11(13)22/h2-6,18,20-22,24,26H,7H2,1H3/t18-,20-/m1/s1

> <PUBCHEM_IUPAC_INCHIKEY>
ZJSLMQLVFYXGOW-UYAOXDASSA-N

> <PUBCHEM_XLOGP3_AA>
-0.1

> <PUBCHEM_EXACT_MASS>
368.089603

> <PUBCHEM_MOLECULAR_FORMULA>
C20H16O7

> <PUBCHEM_MOLECULAR_WEIGHT>
368.33684

> <PUBCHEM_OPENEYE_CAN_SMILES>
COC1=CC=CC2=C1C(=O)C3=C(C2=O)C4=C(C=C(C=C4C(C3O)O)CO)O

> <PUBCHEM_OPENEYE_ISO_SMILES>
COC1=CC=CC2=C1C(=O)C3=C(C2=O)C4=C(C=C(C=C4[C@H]([C@@H]3O)O)CO)O

> <PUBCHEM_CACTVS_TPSA>
124

> <PUBCHEM_MONOISOTOPIC_WEIGHT>
368.089603

> <PUBCHEM_TOTAL_CHARGE>
0

> <PUBCHEM_HEAVY_ATOM_COUNT>
27

> <PUBCHEM_ATOM_DEF_STEREO_COUNT>
2

> <PUBCHEM_ATOM_UDEF_STEREO_COUNT>
0

> <PUBCHEM_BOND_DEF_STEREO_COUNT>
0

> <PUBCHEM_BOND_UDEF_STEREO_COUNT>
0

> <PUBCHEM_ISOTOPIC_ATOM_COUNT>
0

> <PUBCHEM_COMPONENT_COUNT>
1

> <PUBCHEM_CACTVS_TAUTO_COUNT>
6

> <PUBCHEM_COORDINATE_TYPE>
1
5
255

> <PUBCHEM_BONDANNOTATIONS>
8  1  6
11  13  8
11  17  8
13  19  8
16  18  8
16  22  8
17  20  8
18  23  8
19  21  8
9  2  5
20  21  8
22  25  8
23  26  8
25  26  8

$$$$

