439828
  -OEChem-07051212472D

 83 86  0     1  0  0  0  0  0999 V2000
    7.7610   -1.0216    0.0000 O   0  0  0  0  0  0  0  0  0  0  0  0
    6.0010    1.0131    0.0000 O   0  0  0  0  0  0  0  0  0  0  0  0
    9.5312   -1.0111    0.0000 O   0  0  0  0  0  0  0  0  0  0  0  0
    4.2690    1.0131    0.0000 O   0  0  0  0  0  0  0  0  0  0  0  0
    6.0010   -1.9869    0.0000 O   0  0  0  0  0  0  0  0  0  0  0  0
    7.7953   -2.0044    0.0000 O   0  0  0  0  0  0  0  0  0  0  0  0
    5.1350    2.5131    0.0000 O   0  0  0  0  0  0  0  0  0  0  0  0
    7.7876   -4.0044    0.0000 O   0  0  0  0  0  0  0  0  0  0  0  0
    2.5369    2.0131    0.0000 O   0  0  0  0  0  0  0  0  0  0  0  0
    2.5369    4.0131    0.0000 O   0  0  0  0  0  0  0  0  0  0  0  0
    6.8671    3.5131    0.0000 O   0  0  0  0  0  0  0  0  0  0  0  0
   12.9914   -2.0244    0.0000 O   0  0  0  0  0  0  0  0  0  0  0  0
    4.2690   -0.9869    0.0000 N   0  0  0  0  0  0  0  0  0  0  0  0
    9.5312    1.0372    0.0000 N   0  0  0  0  0  0  0  0  0  0  0  0
   11.2593   -2.0177    0.0000 N   0  0  0  0  0  0  0  0  0  0  0  0
    9.5158   -5.0110    0.0000 N   0  0  0  0  0  0  0  0  0  0  0  0
    4.2690    5.0131    0.0000 N   0  0  0  0  0  0  0  0  0  0  0  0
    6.8671   -0.4869    0.0000 C   0  0  3  0  0  0  0  0  0  0  0  0
    6.8671    0.5131    0.0000 C   0  0  3  0  0  0  0  0  0  0  0  0
    6.0010   -0.9869    0.0000 C   0  0  3  0  0  0  0  0  0  0  0  0
    7.7610    1.0478    0.0000 C   0  0  0  0  0  0  0  0  0  0  0  0
    8.6671    0.5339    0.0000 C   0  0  3  0  0  0  0  0  0  0  0  0
    5.1350   -0.4869    0.0000 C   0  0  3  0  0  0  0  0  0  0  0  0
    8.6671   -0.5077    0.0000 C   0  0  3  0  0  0  0  0  0  0  0  0
    9.5273   -2.0110    0.0000 C   0  0  3  0  0  0  0  0  0  0  0  0
    5.1350    0.5131    0.0000 C   0  0  3  0  0  0  0  0  0  0  0  0
   10.3914   -2.5144    0.0000 C   0  0  3  0  0  0  0  0  0  0  0  0
    8.6594   -2.5077    0.0000 C   0  0  3  0  0  0  0  0  0  0  0  0
   10.3875   -3.5144    0.0000 C   0  0  0  0  0  0  0  0  0  0  0  0
    8.6555   -3.5077    0.0000 C   0  0  3  0  0  0  0  0  0  0  0  0
    9.5196   -4.0110    0.0000 C   0  0  3  0  0  0  0  0  0  0  0  0
    4.2690    2.0131    0.0000 C   0  0  3  0  0  0  0  0  0  0  0  0
    3.4030    2.5131    0.0000 C   0  0  3  0  0  0  0  0  0  0  0  0
    3.4030    3.5131    0.0000 C   0  0  3  0  0  0  0  0  0  0  0  0
    4.2690    4.0131    0.0000 C   0  0  3  0  0  0  0  0  0  0  0  0
    5.1350    3.5131    0.0000 C   0  0  3  0  0  0  0  0  0  0  0  0
    4.2690   -1.9869    0.0000 C   0  0  0  0  0  0  0  0  0  0  0  0
   12.1234   -2.5211    0.0000 C   0  0  0  0  0  0  0  0  0  0  0  0
    6.0010    4.0131    0.0000 C   0  0  0  0  0  0  0  0  0  0  0  0
   12.1196   -3.5210    0.0000 C   0  0  0  0  0  0  0  0  0  0  0  0
    6.8623   -1.1069    0.0000 H   0  0  0  0  0  0  0  0  0  0  0  0
    6.8623    1.1331    0.0000 H   0  0  0  0  0  0  0  0  0  0  0  0
    6.5380   -1.2969    0.0000 H   0  0  0  0  0  0  0  0  0  0  0  0
    8.1546    1.5268    0.0000 H   0  0  0  0  0  0  0  0  0  0  0  0
    7.3564    1.5175    0.0000 H   0  0  0  0  0  0  0  0  0  0  0  0
    8.6635    1.1539    0.0000 H   0  0  0  0  0  0  0  0  0  0  0  0
    5.1350   -1.1069    0.0000 H   0  0  0  0  0  0  0  0  0  0  0  0
    8.6635   -1.1277    0.0000 H   0  0  0  0  0  0  0  0  0  0  0  0
    8.9916   -1.6990    0.0000 H   0  0  0  0  0  0  0  0  0  0  0  0
    5.1350    1.1331    0.0000 H   0  0  0  0  0  0  0  0  0  0  0  0
   10.3938   -1.8944    0.0000 H   0  0  0  0  0  0  0  0  0  0  0  0
    8.1212   -2.8156    0.0000 H   0  0  0  0  0  0  0  0  0  0  0  0
   10.5974   -4.0978    0.0000 H   0  0  0  0  0  0  0  0  0  0  0  0
   10.9985   -3.4091    0.0000 H   0  0  0  0  0  0  0  0  0  0  0  0
    8.1198   -3.1956    0.0000 H   0  0  0  0  0  0  0  0  0  0  0  0
   10.0553   -4.3231    0.0000 H   0  0  0  0  0  0  0  0  0  0  0  0
    3.7320   -0.6769    0.0000 H   0  0  0  0  0  0  0  0  0  0  0  0
    3.7320    1.7031    0.0000 H   0  0  0  0  0  0  0  0  0  0  0  0
    9.5288    1.6572    0.0000 H   0  0  0  0  0  0  0  0  0  0  0  0
   10.0693    0.7293    0.0000 H   0  0  0  0  0  0  0  0  0  0  0  0
    3.4030    1.8931    0.0000 H   0  0  0  0  0  0  0  0  0  0  0  0
   11.2617   -1.3977    0.0000 H   0  0  0  0  0  0  0  0  0  0  0  0
    5.4641   -2.2969    0.0000 H   0  0  0  0  0  0  0  0  0  0  0  0
    3.4030    4.1331    0.0000 H   0  0  0  0  0  0  0  0  0  0  0  0
    4.8059    4.3231    0.0000 H   0  0  0  0  0  0  0  0  0  0  0  0
    5.6720    3.2031    0.0000 H   0  0  0  0  0  0  0  0  0  0  0  0
   10.0515   -5.3231    0.0000 H   0  0  0  0  0  0  0  0  0  0  0  0
    8.9776   -5.3190    0.0000 H   0  0  0  0  0  0  0  0  0  0  0  0
    7.2571   -2.3123    0.0000 H   0  0  0  0  0  0  0  0  0  0  0  0
    7.7852   -4.6244    0.0000 H   0  0  0  0  0  0  0  0  0  0  0  0
    3.6490   -1.9869    0.0000 H   0  0  0  0  0  0  0  0  0  0  0  0
    4.2690   -2.6069    0.0000 H   0  0  0  0  0  0  0  0  0  0  0  0
    4.8890   -1.9869    0.0000 H   0  0  0  0  0  0  0  0  0  0  0  0
    6.3996    4.4880    0.0000 H   0  0  0  0  0  0  0  0  0  0  0  0
    5.6025    4.4880    0.0000 H   0  0  0  0  0  0  0  0  0  0  0  0
    3.7320    5.3231    0.0000 H   0  0  0  0  0  0  0  0  0  0  0  0
    4.8059    5.3231    0.0000 H   0  0  0  0  0  0  0  0  0  0  0  0
    2.0000    2.3231    0.0000 H   0  0  0  0  0  0  0  0  0  0  0  0
    2.0000    3.7031    0.0000 H   0  0  0  0  0  0  0  0  0  0  0  0
   11.4996   -3.5187    0.0000 H   0  0  0  0  0  0  0  0  0  0  0  0
   12.1172   -4.1410    0.0000 H   0  0  0  0  0  0  0  0  0  0  0  0
   12.7396   -3.5234    0.0000 H   0  0  0  0  0  0  0  0  0  0  0  0
    7.4040    3.8231    0.0000 H   0  0  0  0  0  0  0  0  0  0  0  0
  1 18  1  0  0  0  0
  1 24  1  0  0  0  0
  2 19  1  0  0  0  0
  2 26  1  0  0  0  0
  3 24  1  0  0  0  0
  3 25  1  0  0  0  0
  4 26  1  0  0  0  0
  4 32  1  0  0  0  0
  5 20  1  0  0  0  0
  5 63  1  0  0  0  0
  6 28  1  0  0  0  0
  6 69  1  0  0  0  0
  7 32  1  0  0  0  0
  7 36  1  0  0  0  0
  8 30  1  0  0  0  0
  8 70  1  0  0  0  0
  9 33  1  0  0  0  0
  9 78  1  0  0  0  0
 10 34  1  0  0  0  0
 10 79  1  0  0  0  0
 11 39  1  0  0  0  0
 11 83  1  0  0  0  0
 12 38  2  0  0  0  0
 13 23  1  0  0  0  0
 13 37  1  0  0  0  0
 13 57  1  0  0  0  0
 14 22  1  0  0  0  0
 14 59  1  0  0  0  0
 14 60  1  0  0  0  0
 15 27  1  0  0  0  0
 15 38  1  0  0  0  0
 15 62  1  0  0  0  0
 16 31  1  0  0  0  0
 16 67  1  0  0  0  0
 16 68  1  0  0  0  0
 17 35  1  0  0  0  0
 17 76  1  0  0  0  0
 17 77  1  0  0  0  0
 18 19  1  0  0  0  0
 18 20  1  0  0  0  0
 18 41  1  0  0  0  0
 19 21  1  0  0  0  0
 19 42  1  0  0  0  0
 20 23  1  0  0  0  0
 20 43  1  0  0  0  0
 21 22  1  0  0  0  0
 21 44  1  0  0  0  0
 21 45  1  0  0  0  0
 22 24  1  0  0  0  0
 22 46  1  0  0  0  0
 23 26  1  0  0  0  0
 23 47  1  0  0  0  0
 24 48  1  0  0  0  0
 25 27  1  0  0  0  0
 25 28  1  0  0  0  0
 25 49  1  0  0  0  0
 26 50  1  0  0  0  0
 27 29  1  0  0  0  0
 27 51  1  0  0  0  0
 28 30  1  0  0  0  0
 28 52  1  0  0  0  0
 29 31  1  0  0  0  0
 29 53  1  0  0  0  0
 29 54  1  0  0  0  0
 30 31  1  0  0  0  0
 30 55  1  0  0  0  0
 31 56  1  0  0  0  0
 32 33  1  0  0  0  0
 32 58  1  0  0  0  0
 33 34  1  0  0  0  0
 33 61  1  0  0  0  0
 34 35  1  0  0  0  0
 34 64  1  0  0  0  0
 35 36  1  0  0  0  0
 35 65  1  0  0  0  0
 36 39  1  0  0  0  0
 36 66  1  0  0  0  0
 37 71  1  0  0  0  0
 37 72  1  0  0  0  0
 37 73  1  0  0  0  0
 38 40  1  0  0  0  0
 39 74  1  0  0  0  0
 39 75  1  0  0  0  0
 40 80  1  0  0  0  0
 40 81  1  0  0  0  0
 40 82  1  0  0  0  0
M  END
> <PUBCHEM_COMPOUND_CID>
439828

> <PUBCHEM_COMPOUND_CANONICALIZED>
1

> <PUBCHEM_CACTVS_COMPLEXITY>
863

> <PUBCHEM_CACTVS_HBOND_ACCEPTOR>
16

> <PUBCHEM_CACTVS_HBOND_DONOR>
11

> <PUBCHEM_CACTVS_ROTATABLE_BOND>
7

> <PUBCHEM_CACTVS_SUBSKEYS>
AAADcfB7vAAAAAAAAAAAAAAAAAAAAAAAAAA0SJEAAAAAAACQAAAAHgAQCAAACDzxgAcCCALABgAIAAEQEAAAAAAAAAAAAIAIAAATEAIAwAAnQAAHFgCXAAHw8K8AAAAAAAAAAAAAgAAUCACgAAAAAAAAAA==

> <PUBCHEM_IUPAC_OPENEYE_NAME>
N-[5-amino-2-[[7-amino-2-[5-amino-3,4-dihydroxy-6-(hydroxymethyl)tetrahydropyran-2-yl]oxy-4-hydroxy-3-(methylamino)-2,3,4,4a,6,7,8,8a-octahydropyrano[3,2-b]pyran-6-yl]oxy]-3,4-dihydroxy-cyclohexyl]acetamide

> <PUBCHEM_IUPAC_CAS_NAME>
N-[5-amino-2-[[7-amino-2-[[5-amino-3,4-dihydroxy-6-(hydroxymethyl)-2-oxanyl]oxy]-4-hydroxy-3-(methylamino)-2,3,4,4a,6,7,8,8a-octahydropyrano[3,2-b]pyran-6-yl]oxy]-3,4-dihydroxycyclohexyl]acetamide

> <PUBCHEM_IUPAC_NAME>
N-[5-amino-2-[[7-amino-2-[5-amino-3,4-dihydroxy-6-(hydroxymethyl)oxan-2-yl]oxy-4-hydroxy-3-(methylamino)-2,3,4,4a,6,7,8,8a-octahydropyrano[3,2-b]pyran-6-yl]oxy]-3,4-dihydroxycyclohexyl]acetamide

> <PUBCHEM_IUPAC_SYSTEMATIC_NAME>
N-[5-azanyl-2-[[7-azanyl-2-[5-azanyl-6-(hydroxymethyl)-3,4-bis(oxidanyl)oxan-2-yl]oxy-3-(methylamino)-4-oxidanyl-2,3,4,4a,6,7,8,8a-octahydropyrano[3,2-b]pyran-6-yl]oxy]-3,4-bis(oxidanyl)cyclohexyl]ethanamide

> <PUBCHEM_IUPAC_TRADITIONAL_NAME>
N-[5-amino-2-[[7-amino-2-(5-amino-3,4-dihydroxy-6-methylol-tetrahydropyran-2-yl)oxy-4-hydroxy-3-(methylamino)-2,3,4,4a,6,7,8,8a-octahydropyrano[3,2-b]pyran-6-yl]oxy]-3,4-dihydroxy-cyclohexyl]acetamide

> <PUBCHEM_IUPAC_INCHI>
InChI=1S/C23H43N5O12/c1-6(30)28-9-3-7(24)14(31)17(34)19(9)38-21-8(25)4-10-20(39-21)16(33)13(27-2)22(36-10)40-23-18(35)15(32)12(26)11(5-29)37-23/h7-23,27,29,31-35H,3-5,24-26H2,1-2H3,(H,28,30)

> <PUBCHEM_IUPAC_INCHIKEY>
WPYGZUFJDVMACM-UHFFFAOYSA-N

> <PUBCHEM_XLOGP3_AA>
-6.8

> <PUBCHEM_EXACT_MASS>
581.290822

> <PUBCHEM_MOLECULAR_FORMULA>
C23H43N5O12

> <PUBCHEM_MOLECULAR_WEIGHT>
581.61382

> <PUBCHEM_OPENEYE_CAN_SMILES>
CC(=O)NC1CC(C(C(C1OC2C(CC3C(O2)C(C(C(O3)OC4C(C(C(C(O4)CO)N)O)O)NC)O)N)O)O)N

> <PUBCHEM_OPENEYE_ISO_SMILES>
CC(=O)NC1CC(C(C(C1OC2C(CC3C(O2)C(C(C(O3)OC4C(C(C(C(O4)CO)N)O)O)NC)O)N)O)O)N

> <PUBCHEM_CACTVS_TPSA>
287

> <PUBCHEM_MONOISOTOPIC_WEIGHT>
581.290822

> <PUBCHEM_TOTAL_CHARGE>
0

> <PUBCHEM_HEAVY_ATOM_COUNT>
40

> <PUBCHEM_ATOM_DEF_STEREO_COUNT>
0

> <PUBCHEM_ATOM_UDEF_STEREO_COUNT>
17

> <PUBCHEM_BOND_DEF_STEREO_COUNT>
0

> <PUBCHEM_BOND_UDEF_STEREO_COUNT>
0

> <PUBCHEM_ISOTOPIC_ATOM_COUNT>
0

> <PUBCHEM_COMPONENT_COUNT>
1

> <PUBCHEM_CACTVS_TAUTO_COUNT>
2

> <PUBCHEM_COORDINATE_TYPE>
1
5
255

> <PUBCHEM_BONDANNOTATIONS>
18  1  3
34  10  3
23  13  3
22  14  3
27  15  3
31  16  3
35  17  3
19  21  3
24  3  3
25  3  3
36  39  3
26  4  3
32  4  3
20  5  3
28  6  3
30  8  3
33  9  3

$$$$

