247747
  -OEChem-07051213053D

 49 52  0     1  0  0  0  0  0999 V2000
    4.7584    0.5677    0.7582 O   0  0  0  0  0  0  0  0  0  0  0  0
   -1.9774   -0.9373    2.0572 O   0  0  0  0  0  0  0  0  0  0  0  0
   -5.3542    1.1895   -1.3986 O   0  0  0  0  0  0  0  0  0  0  0  0
    1.5199   -0.6811   -0.4423 C   0  0  2  0  0  0  0  0  0  0  0  0
    2.3213    0.1174    0.6114 C   0  0  2  0  0  0  0  0  0  0  0  0
    0.1216   -1.0729    0.0449 C   0  0  1  0  0  0  0  0  0  0  0  0
   -0.6812    0.2352    0.3817 C   0  0  2  0  0  0  0  0  0  0  0  0
    1.5528    1.4172    0.9138 C   0  0  0  0  0  0  0  0  0  0  0  0
    3.6904    0.2578   -0.1251 C   0  0  2  0  0  0  0  0  0  0  0  0
    2.4860   -1.7853   -0.8652 C   0  0  0  0  0  0  0  0  0  0  0  0
    0.1043    1.1431    1.3615 C   0  0  0  0  0  0  0  0  0  0  0  0
   -2.1130   -0.1300    0.8769 C   0  0  1  0  0  0  0  0  0  0  0  0
    3.8853   -1.1410   -0.7713 C   0  0  0  0  0  0  0  0  0  0  0  0
   -0.6267   -1.9356   -0.9911 C   0  0  0  0  0  0  0  0  0  0  0  0
    2.5220   -0.6504    1.9510 C   0  0  0  0  0  0  0  0  0  0  0  0
   -2.0631   -2.2419   -0.5581 C   0  0  0  0  0  0  0  0  0  0  0  0
   -2.7673   -0.9518   -0.2261 C   0  0  0  0  0  0  0  0  0  0  0  0
   -2.9997    1.0634    1.2805 C   0  0  0  0  0  0  0  0  0  0  0  0
    3.6827    1.2927   -1.1784 C   0  0  0  0  0  0  0  0  0  0  0  0
   -3.5715    1.8019    0.0852 C   0  0  0  0  0  0  0  0  0  0  0  0
   -3.8171   -0.5334   -0.9511 C   0  0  0  0  0  0  0  0  0  0  0  0
   -4.3506    0.8407   -0.7806 C   0  0  0  0  0  0  0  0  0  0  0  0
    3.6767    2.1342   -2.0344 C   0  0  0  0  0  0  0  0  0  0  0  0
    1.3683   -0.0477   -1.3308 H   0  0  0  0  0  0  0  0  0  0  0  0
    0.2134   -1.6823    0.9518 H   0  0  0  0  0  0  0  0  0  0  0  0
   -0.7820    0.8075   -0.5535 H   0  0  0  0  0  0  0  0  0  0  0  0
    1.5005    2.0569    0.0253 H   0  0  0  0  0  0  0  0  0  0  0  0
    2.0722    2.0007    1.6836 H   0  0  0  0  0  0  0  0  0  0  0  0
    2.2803   -2.1366   -1.8817 H   0  0  0  0  0  0  0  0  0  0  0  0
    2.4223   -2.6519   -0.1976 H   0  0  0  0  0  0  0  0  0  0  0  0
    0.1086    0.7126    2.3678 H   0  0  0  0  0  0  0  0  0  0  0  0
   -0.3964    2.1140    1.4463 H   0  0  0  0  0  0  0  0  0  0  0  0
    4.5431   -1.7798   -0.1698 H   0  0  0  0  0  0  0  0  0  0  0  0
    4.3433   -1.0780   -1.7659 H   0  0  0  0  0  0  0  0  0  0  0  0
   -0.0960   -2.8822   -1.1461 H   0  0  0  0  0  0  0  0  0  0  0  0
   -0.6412   -1.4186   -1.9599 H   0  0  0  0  0  0  0  0  0  0  0  0
    3.0857   -1.5795    1.8213 H   0  0  0  0  0  0  0  0  0  0  0  0
    3.0751   -0.0330    2.6686 H   0  0  0  0  0  0  0  0  0  0  0  0
    1.5805   -0.9219    2.4347 H   0  0  0  0  0  0  0  0  0  0  0  0
   -2.0648   -2.9040    0.3156 H   0  0  0  0  0  0  0  0  0  0  0  0
   -2.5726   -2.7851   -1.3628 H   0  0  0  0  0  0  0  0  0  0  0  0
   -2.4698    1.7579    1.9402 H   0  0  0  0  0  0  0  0  0  0  0  0
   -3.8352    0.6896    1.8918 H   0  0  0  0  0  0  0  0  0  0  0  0
    4.9637   -0.2171    1.2929 H   0  0  0  0  0  0  0  0  0  0  0  0
   -2.7873    2.2692   -0.5189 H   0  0  0  0  0  0  0  0  0  0  0  0
   -4.2521    2.5858    0.4346 H   0  0  0  0  0  0  0  0  0  0  0  0
   -1.7097   -0.3628    2.7938 H   0  0  0  0  0  0  0  0  0  0  0  0
   -4.2504   -1.1372   -1.7407 H   0  0  0  0  0  0  0  0  0  0  0  0
    3.6704    2.8808   -2.7937 H   0  0  0  0  0  0  0  0  0  0  0  0
  1  9  1  0  0  0  0
  1 44  1  0  0  0  0
  2 12  1  0  0  0  0
  2 47  1  0  0  0  0
  3 22  2  0  0  0  0
  4  5  1  0  0  0  0
  4  6  1  0  0  0  0
  4 10  1  0  0  0  0
  4 24  1  0  0  0  0
  5  8  1  0  0  0  0
  5  9  1  0  0  0  0
  5 15  1  0  0  0  0
  6  7  1  0  0  0  0
  6 14  1  0  0  0  0
  6 25  1  0  0  0  0
  7 11  1  0  0  0  0
  7 12  1  0  0  0  0
  7 26  1  0  0  0  0
  8 11  1  0  0  0  0
  8 27  1  0  0  0  0
  8 28  1  0  0  0  0
  9 13  1  0  0  0  0
  9 19  1  0  0  0  0
 10 13  1  0  0  0  0
 10 29  1  0  0  0  0
 10 30  1  0  0  0  0
 11 31  1  0  0  0  0
 11 32  1  0  0  0  0
 12 17  1  0  0  0  0
 12 18  1  0  0  0  0
 13 33  1  0  0  0  0
 13 34  1  0  0  0  0
 14 16  1  0  0  0  0
 14 35  1  0  0  0  0
 14 36  1  0  0  0  0
 15 37  1  0  0  0  0
 15 38  1  0  0  0  0
 15 39  1  0  0  0  0
 16 17  1  0  0  0  0
 16 40  1  0  0  0  0
 16 41  1  0  0  0  0
 17 21  2  0  0  0  0
 18 20  1  0  0  0  0
 18 42  1  0  0  0  0
 18 43  1  0  0  0  0
 19 23  3  0  0  0  0
 20 22  1  0  0  0  0
 20 45  1  0  0  0  0
 20 46  1  0  0  0  0
 21 22  1  0  0  0  0
 21 48  1  0  0  0  0
 23 49  1  0  0  0  0
M  END
> <PUBCHEM_COMPOUND_CID>
247747

> <PUBCHEM_CONFORMER_RMSD>
0.6

> <PUBCHEM_CONFORMER_DIVERSEORDER>
1

> <PUBCHEM_MMFF94_PARTIAL_CHARGES>
16
1 -0.68
12 0.42
16 0.14
17 -0.28
19 -0.2
2 -0.68
20 0.06
21 -0.14
22 0.49
23 -0.18
3 -0.57
44 0.4
47 0.4
48 0.15
49 0.18
9 0.48

> <PUBCHEM_EFFECTIVE_ROTOR_COUNT>
1.8

> <PUBCHEM_PHARMACOPHORE_FEATURES>
10
1 1 acceptor
1 1 donor
1 2 acceptor
1 2 donor
1 23 hydrophobe
1 3 acceptor
5 4 5 9 10 13 rings
6 12 17 18 20 21 22 rings
6 4 5 6 7 8 11 rings
6 6 7 12 14 16 17 rings

> <PUBCHEM_HEAVY_ATOM_COUNT>
23

> <PUBCHEM_ATOM_DEF_STEREO_COUNT>
6

> <PUBCHEM_ATOM_UDEF_STEREO_COUNT>
0

> <PUBCHEM_BOND_DEF_STEREO_COUNT>
0

> <PUBCHEM_BOND_UDEF_STEREO_COUNT>
0

> <PUBCHEM_ISOTOPIC_ATOM_COUNT>
0

> <PUBCHEM_COMPONENT_COUNT>
1

> <PUBCHEM_CACTVS_TAUTO_COUNT>
5

> <PUBCHEM_CONFORMER_ID>
0003C7C300000001

> <PUBCHEM_MMFF94_ENERGY>
71.9262

> <PUBCHEM_FEATURE_SELFOVERLAP>
50.855

> <PUBCHEM_SHAPE_FINGERPRINT>
10366900 7 16226052158778754522
10498660 4 18187923937347469204
11089746 13 17274830155010995612
12236239 1 18272097071956046602
12553582 1 17822836624677614256
12633257 1 16630257930580568192
13140716 1 17463980055165848203
13224815 77 18335133181060802498
13544653 18 8069734179417120729
13583140 156 17489582381308432721
14790565 3 17679566003614627377
15196674 1 18040434420847231218
15375358 24 17749398044188043898
15788980 27 18131069333715606842
16752209 62 18113900510876463889
16945 1 18040993995024910474
17349148 13 17604152626493481267
18186145 218 17131540666330028920
19862831 5 18040999552765325743
200 152 16153433843991274563
20715895 44 18268999858927068605
21069387 34 14634866418656634557
21503847 285 17774997995114013228
22182313 1 17605562037165113882
22907989 373 17969209050175087165
23227448 37 17703782575206126581
23493267 7 18272079500606814754
23503953 91 13686292483172294421
23559900 14 17967253105152389362
2748010 2 17391362809730130435
2838139 119 17129889316267356733
296302 2 17917710197193082211
3004659 81 18335422426008190342
3286 77 15936700379551062730
3472631 163 17775010119980919277
4028521 119 18186806880889013487
4280585 95 16448955300421616870
474 4 18131632283236465900
5104073 3 10880001241838535086
633830 44 17632291234167663822
9709674 26 17895486812596719023

> <PUBCHEM_SHAPE_MULTIPOLES>
455.72
9.2
2.1
1.69
1.99
0.34
0.14
-3.1
-3.47
0.09
-0.61
-0.49
-0.49
-0.46

> <PUBCHEM_SHAPE_SELFOVERLAP>
984.627

> <PUBCHEM_SHAPE_VOLUME>
247.1

> <PUBCHEM_COORDINATE_TYPE>
2
5
10

$$$$

