12859
  -OEChem-06261207282D

 15 15  0     0  0  0  0  0  0999 V2000
    2.0000   -1.5670    0.0000 F   0  0  0  0  0  0  0  0  0  0  0  0
    2.3660   -0.2010    0.0000 F   0  0  0  0  0  0  0  0  0  0  0  0
    3.3660   -1.9330    0.0000 F   0  0  0  0  0  0  0  0  0  0  0  0
    7.1962   -1.5670    0.0000 F   0  0  0  0  0  0  0  0  0  0  0  0
    6.8301   -0.2010    0.0000 F   0  0  0  0  0  0  0  0  0  0  0  0
    5.8301   -1.9330    0.0000 F   0  0  0  0  0  0  0  0  0  0  0  0
    4.5981    1.9330    0.0000 F   0  0  0  0  0  0  0  0  0  0  0  0
    4.5981   -1.0670    0.0000 N   0  0  0  0  0  0  0  0  0  0  0  0
    5.4641    0.4330    0.0000 N   0  0  0  0  0  0  0  0  0  0  0  0
    3.7320    0.4330    0.0000 N   0  0  0  0  0  0  0  0  0  0  0  0
    3.7320   -0.5670    0.0000 C   0  0  0  0  0  0  0  0  0  0  0  0
    5.4641   -0.5670    0.0000 C   0  0  0  0  0  0  0  0  0  0  0  0
    2.8660   -1.0670    0.0000 C   0  0  0  0  0  0  0  0  0  0  0  0
    6.3301   -1.0670    0.0000 C   0  0  0  0  0  0  0  0  0  0  0  0
    4.5981    0.9330    0.0000 C   0  0  0  0  0  0  0  0  0  0  0  0
  1 13  1  0  0  0  0
  2 13  1  0  0  0  0
  3 13  1  0  0  0  0
  4 14  1  0  0  0  0
  5 14  1  0  0  0  0
  6 14  1  0  0  0  0
  7 15  1  0  0  0  0
  8 11  2  0  0  0  0
  8 12  1  0  0  0  0
  9 12  2  0  0  0  0
  9 15  1  0  0  0  0
 10 11  1  0  0  0  0
 10 15  2  0  0  0  0
 11 13  1  0  0  0  0
 12 14  1  0  0  0  0
M  END
> <PUBCHEM_COMPOUND_CID>
12859

> <PUBCHEM_COMPOUND_CANONICALIZED>
1

> <PUBCHEM_CACTVS_COMPLEXITY>
202

> <PUBCHEM_CACTVS_HBOND_ACCEPTOR>
10

> <PUBCHEM_CACTVS_HBOND_DONOR>
0

> <PUBCHEM_CACTVS_ROTATABLE_BOND>
0

> <PUBCHEM_CACTVS_SUBSKEYS>
AAADcQBjAcAAAAAAAAAAAAAAAAAAAAAAAAAsAAAAAAAAAAABgAAADQAAAAAAAAABAxABEAYIEAAgAAIgJAAAgAkAAKABAAAAAACACAAACAAAAAAIAAKAAAAAAAAAAAAAAAAAAAAAAAAAAAAAAAAAAAAAAA==

> <PUBCHEM_IUPAC_OPENEYE_NAME>
2-fluoro-4,6-bis(trifluoromethyl)-1,3,5-triazine

> <PUBCHEM_IUPAC_CAS_NAME>
2-fluoro-4,6-bis(trifluoromethyl)-1,3,5-triazine

> <PUBCHEM_IUPAC_NAME>
2-fluoro-4,6-bis(trifluoromethyl)-1,3,5-triazine

> <PUBCHEM_IUPAC_SYSTEMATIC_NAME>
2-fluoranyl-4,6-bis(trifluoromethyl)-1,3,5-triazine

> <PUBCHEM_IUPAC_TRADITIONAL_NAME>
2-fluoro-4,6-bis(trifluoromethyl)-s-triazine

> <PUBCHEM_IUPAC_INCHI>
InChI=1S/C5F7N3/c6-3-14-1(4(7,8)9)13-2(15-3)5(10,11)12

> <PUBCHEM_IUPAC_INCHIKEY>
OLMSSZNPDRXUIX-UHFFFAOYSA-N

> <PUBCHEM_XLOGP3_AA>
2.2

> <PUBCHEM_EXACT_MASS>
234.998045

> <PUBCHEM_MOLECULAR_FORMULA>
C5F7N3

> <PUBCHEM_MOLECULAR_WEIGHT>
235.062422

> <PUBCHEM_OPENEYE_CAN_SMILES>
C1(=NC(=NC(=N1)F)C(F)(F)F)C(F)(F)F

> <PUBCHEM_OPENEYE_ISO_SMILES>
C1(=NC(=NC(=N1)F)C(F)(F)F)C(F)(F)F

> <PUBCHEM_CACTVS_TPSA>
38.7

> <PUBCHEM_MONOISOTOPIC_WEIGHT>
234.998045

> <PUBCHEM_TOTAL_CHARGE>
0

> <PUBCHEM_HEAVY_ATOM_COUNT>
15

> <PUBCHEM_ATOM_DEF_STEREO_COUNT>
0

> <PUBCHEM_ATOM_UDEF_STEREO_COUNT>
0

> <PUBCHEM_BOND_DEF_STEREO_COUNT>
0

> <PUBCHEM_BOND_UDEF_STEREO_COUNT>
0

> <PUBCHEM_ISOTOPIC_ATOM_COUNT>
0

> <PUBCHEM_COMPONENT_COUNT>
1

> <PUBCHEM_CACTVS_TAUTO_COUNT>
1

> <PUBCHEM_COORDINATE_TYPE>
1
5
255

> <PUBCHEM_BONDANNOTATIONS>
10  11  8
10  15  8
8  11  8
8  12  8
9  12  8
9  15  8

$$$$

