228579
  -OEChem-07051213063D

 53 56  0     1  0  0  0  0  0999 V2000
   -5.2294   -1.1043   -0.0839 O   0  0  0  0  0  0  0  0  0  0  0  0
   -0.6558    0.7983    0.1930 C   0  0  2  0  0  0  0  0  0  0  0  0
    0.1526   -0.4340   -0.3236 C   0  0  1  0  0  0  0  0  0  0  0  0
   -2.0796    0.7168   -0.3680 C   0  0  1  0  0  0  0  0  0  0  0  0
   -2.8157   -0.5683    0.0583 C   0  0  2  0  0  0  0  0  0  0  0  0
    1.6458   -0.4063    0.1668 C   0  0  2  0  0  0  0  0  0  0  0  0
    2.2755    0.9539   -0.2670 C   0  0  1  0  0  0  0  0  0  0  0  0
   -0.5824   -1.7742   -0.0542 C   0  0  0  0  0  0  0  0  0  0  0  0
   -2.0513   -1.7687   -0.5153 C   0  0  0  0  0  0  0  0  0  0  0  0
    0.0289    2.1122   -0.2085 C   0  0  0  0  0  0  0  0  0  0  0  0
   -3.0752    1.8250   -0.0349 C   0  0  0  0  0  0  0  0  0  0  0  0
   -4.1840   -0.3025   -0.5986 C   0  0  2  0  0  0  0  0  0  0  0  0
    1.4858    2.1658    0.2420 C   0  0  0  0  0  0  0  0  0  0  0  0
   -4.4485    1.1903   -0.3210 C   0  0  0  0  0  0  0  0  0  0  0  0
    2.4627   -1.5365   -0.5276 C   0  0  0  0  0  0  0  0  0  0  0  0
   -2.9785   -0.7419    1.5899 C   0  0  0  0  0  0  0  0  0  0  0  0
    1.7333   -0.6097    1.7027 C   0  0  0  0  0  0  0  0  0  0  0  0
    3.7633    1.0676    0.1183 C   0  0  0  0  0  0  0  0  0  0  0  0
    3.9537   -1.3470   -0.4811 C   0  0  0  0  0  0  0  0  0  0  0  0
    4.5530   -0.1831   -0.1774 C   0  0  0  0  0  0  0  0  0  0  0  0
    6.0459   -0.0534   -0.1100 C   0  0  0  0  0  0  0  0  0  0  0  0
   -0.7030    0.7762    1.2868 H   0  0  0  0  0  0  0  0  0  0  0  0
    0.1869   -0.3389   -1.4209 H   0  0  0  0  0  0  0  0  0  0  0  0
   -1.9863    0.7146   -1.4673 H   0  0  0  0  0  0  0  0  0  0  0  0
    2.2351    0.9940   -1.3674 H   0  0  0  0  0  0  0  0  0  0  0  0
   -0.5475   -2.0236    1.0102 H   0  0  0  0  0  0  0  0  0  0  0  0
   -0.0703   -2.5900   -0.5769 H   0  0  0  0  0  0  0  0  0  0  0  0
   -2.0715   -1.7386   -1.6124 H   0  0  0  0  0  0  0  0  0  0  0  0
   -2.5331   -2.7097   -0.2238 H   0  0  0  0  0  0  0  0  0  0  0  0
   -0.5062    2.9644    0.2264 H   0  0  0  0  0  0  0  0  0  0  0  0
   -0.0140    2.2363   -1.2982 H   0  0  0  0  0  0  0  0  0  0  0  0
   -2.9149    2.7184   -0.6467 H   0  0  0  0  0  0  0  0  0  0  0  0
   -3.0048    2.1256    1.0164 H   0  0  0  0  0  0  0  0  0  0  0  0
   -4.1307   -0.4706   -1.6817 H   0  0  0  0  0  0  0  0  0  0  0  0
    1.9396    3.0892   -0.1386 H   0  0  0  0  0  0  0  0  0  0  0  0
    1.5323    2.2268    1.3354 H   0  0  0  0  0  0  0  0  0  0  0  0
   -5.1295    1.3403    0.5244 H   0  0  0  0  0  0  0  0  0  0  0  0
   -4.9185    1.6564   -1.1944 H   0  0  0  0  0  0  0  0  0  0  0  0
    2.1766   -1.6172   -1.5841 H   0  0  0  0  0  0  0  0  0  0  0  0
    2.2275   -2.5029   -0.0648 H   0  0  0  0  0  0  0  0  0  0  0  0
   -2.0214   -0.7730    2.1170 H   0  0  0  0  0  0  0  0  0  0  0  0
   -3.5632    0.0653    2.0424 H   0  0  0  0  0  0  0  0  0  0  0  0
   -3.4975   -1.6804    1.8174 H   0  0  0  0  0  0  0  0  0  0  0  0
    1.1684    0.1440    2.2571 H   0  0  0  0  0  0  0  0  0  0  0  0
    1.3477   -1.5906    1.9987 H   0  0  0  0  0  0  0  0  0  0  0  0
    2.7637   -0.5671    2.0688 H   0  0  0  0  0  0  0  0  0  0  0  0
    3.8689    1.3095    1.1831 H   0  0  0  0  0  0  0  0  0  0  0  0
    4.1990    1.9073   -0.4385 H   0  0  0  0  0  0  0  0  0  0  0  0
    4.5577   -2.2215   -0.7091 H   0  0  0  0  0  0  0  0  0  0  0  0
   -6.0569   -0.8091   -0.5007 H   0  0  0  0  0  0  0  0  0  0  0  0
    6.3971    0.6811   -0.8418 H   0  0  0  0  0  0  0  0  0  0  0  0
    6.5530   -1.0012   -0.3188 H   0  0  0  0  0  0  0  0  0  0  0  0
    6.3526    0.2757    0.8882 H   0  0  0  0  0  0  0  0  0  0  0  0
  1 12  1  0  0  0  0
  1 50  1  0  0  0  0
  2  3  1  0  0  0  0
  2  4  1  0  0  0  0
  2 10  1  0  0  0  0
  2 22  1  0  0  0  0
  3  6  1  0  0  0  0
  3  8  1  0  0  0  0
  3 23  1  0  0  0  0
  4  5  1  0  0  0  0
  4 11  1  0  0  0  0
  4 24  1  0  0  0  0
  5  9  1  0  0  0  0
  5 12  1  0  0  0  0
  5 16  1  0  0  0  0
  6  7  1  0  0  0  0
  6 15  1  0  0  0  0
  6 17  1  0  0  0  0
  7 13  1  0  0  0  0
  7 18  1  0  0  0  0
  7 25  1  0  0  0  0
  8  9  1  0  0  0  0
  8 26  1  0  0  0  0
  8 27  1  0  0  0  0
  9 28  1  0  0  0  0
  9 29  1  0  0  0  0
 10 13  1  0  0  0  0
 10 30  1  0  0  0  0
 10 31  1  0  0  0  0
 11 14  1  0  0  0  0
 11 32  1  0  0  0  0
 11 33  1  0  0  0  0
 12 14  1  0  0  0  0
 12 34  1  0  0  0  0
 13 35  1  0  0  0  0
 13 36  1  0  0  0  0
 14 37  1  0  0  0  0
 14 38  1  0  0  0  0
 15 19  1  0  0  0  0
 15 39  1  0  0  0  0
 15 40  1  0  0  0  0
 16 41  1  0  0  0  0
 16 42  1  0  0  0  0
 16 43  1  0  0  0  0
 17 44  1  0  0  0  0
 17 45  1  0  0  0  0
 17 46  1  0  0  0  0
 18 20  1  0  0  0  0
 18 47  1  0  0  0  0
 18 48  1  0  0  0  0
 19 20  2  0  0  0  0
 19 49  1  0  0  0  0
 20 21  1  0  0  0  0
 21 51  1  0  0  0  0
 21 52  1  0  0  0  0
 21 53  1  0  0  0  0
M  END
> <PUBCHEM_COMPOUND_CID>
228579

> <PUBCHEM_CONFORMER_RMSD>
0.6

> <PUBCHEM_CONFORMER_DIVERSEORDER>
1

> <PUBCHEM_MMFF94_PARTIAL_CHARGES>
9
1 -0.68
12 0.28
15 0.14
18 0.14
19 -0.29
20 -0.28
21 0.14
49 0.15
50 0.4

> <PUBCHEM_EFFECTIVE_ROTOR_COUNT>
1.8

> <PUBCHEM_PHARMACOPHORE_FEATURES>
6
1 1 acceptor
1 1 donor
5 4 5 11 12 14 rings
6 2 3 4 5 8 9 rings
6 2 3 6 7 10 13 rings
6 6 7 15 18 19 20 rings

> <PUBCHEM_HEAVY_ATOM_COUNT>
21

> <PUBCHEM_ATOM_DEF_STEREO_COUNT>
7

> <PUBCHEM_ATOM_UDEF_STEREO_COUNT>
0

> <PUBCHEM_BOND_DEF_STEREO_COUNT>
0

> <PUBCHEM_BOND_UDEF_STEREO_COUNT>
0

> <PUBCHEM_ISOTOPIC_ATOM_COUNT>
0

> <PUBCHEM_COMPONENT_COUNT>
1

> <PUBCHEM_CACTVS_TAUTO_COUNT>
1

> <PUBCHEM_CONFORMER_ID>
00037CE300000001

> <PUBCHEM_MMFF94_ENERGY>
68.339

> <PUBCHEM_FEATURE_SELFOVERLAP>
30.538

> <PUBCHEM_SHAPE_FINGERPRINT>
10 15 18339652140488541840
10366900 7 17632581535001357601
10906281 52 18338496600574181820
10967382 1 18409730664070125398
11132069 177 18408610244895058264
12011746 2 18412832395299704381
12236239 1 17918276471936604214
12403259 226 18335989662502613589
12403259 415 18113627785059417009
12788726 201 18266182922773942016
13140716 1 18191862319020054579
13221675 6 18413389821587501146
13224815 77 18202004330291459801
13288520 33 18335419071174196724
13862211 1 18410296917354752038
14790565 3 18338509845816148332
15099037 51 18410575093289950007
15196674 1 18409730689813594412
15375358 24 18408604781580710694
15536298 74 18334579018689784776
15788980 27 18411980265224538862
15848702 151 17822565105313776406
1601671 61 18409449219496049172
16945 1 18266453200770307317
17349148 13 17749391455592193199
17804303 29 18408885126875683309
18186145 218 17917998290883240133
19141452 34 18187364298602940783
19591789 44 18338518650340485870
19862831 5 18344144808389895796
200 152 18040155123466204501
20645477 70 18340209591786467540
21029758 11 18333734632261520681
21033648 29 17676785235221837641
21267235 1 18410004425349109806
21279426 13 18194682789709921494
21421861 104 17843972674570043618
21452121 103 18188784846905695016
221357 26 18409172112611809557
221490 88 18268706112985628138
23402539 116 18408047320806314998
23493267 7 18131349730365434651
23557571 272 18260823826380781788
23559900 14 18260557692500270952
2748010 2 18411705399928469613
3004659 81 18271523208797077494
335352 9 18409730681287210532
34797466 226 17458899345858395332
34934 24 18411985788568448686
350125 39 18409164420578856153
3545911 37 18407759226852594774
4214541 1 18409449202136819021
4340502 62 16486683770528051033
474 4 17489018246197394796
4921388 177 16271633512819628641
5104073 3 18409729594639100186
542803 24 14333127489869595334
633830 44 17775005644360992284
69090 78 18334297556445040919
7364860 26 18261959518465393240
9709674 26 18340769217857058315

> <PUBCHEM_SHAPE_MULTIPOLES>
426.3
10.2
2.07
0.96
3.37
0.48
0.4
-0.86
-0.98
-0.4
-0.14
-0.15
-0.22
0.3

> <PUBCHEM_SHAPE_SELFOVERLAP>
905.083

> <PUBCHEM_SHAPE_VOLUME>
236.1

> <PUBCHEM_COORDINATE_TYPE>
2
5
10

$$$$

