3035456
  -OEChem-07051212513D

 23 22  0     1  0  0  0  0  0999 V2000
   -0.6213    1.3007   -1.1411 O   0  0  0  0  0  0  0  0  0  0  0  0
   -2.1408   -1.3161    0.9023 O   0  0  0  0  0  0  0  0  0  0  0  0
    0.1253    1.3058    1.5818 O   0  0  0  0  0  0  0  0  0  0  0  0
   -4.4592   -0.2314   -0.2422 O   0  0  0  0  0  0  0  0  0  0  0  0
    2.2985    1.5086   -0.0951 O   0  0  0  0  0  0  0  0  0  0  0  0
    3.8012   -0.4274   -0.6584 O   0  0  0  0  0  0  0  0  0  0  0  0
    2.1799   -1.9199   -0.0201 O   0  0  0  0  0  0  0  0  0  0  0  0
   -0.6807    0.1094   -0.3520 C   0  0  2  0  0  0  0  0  0  0  0  0
   -2.1068   -0.0679    0.2000 C   0  0  1  0  0  0  0  0  0  0  0  0
    0.4011    0.2038    0.7334 C   0  0  1  0  0  0  0  0  0  0  0  0
   -3.1903   -0.0953   -0.8761 C   0  0  0  0  0  0  0  0  0  0  0  0
    1.7831    0.4241    0.1370 C   0  0  0  0  0  0  0  0  0  0  0  0
    2.6099   -0.7942   -0.1695 C   0  0  0  0  0  0  0  0  0  0  0  0
   -0.4371   -0.7294   -1.0152 H   0  0  0  0  0  0  0  0  0  0  0  0
   -2.3408    0.7224    0.9231 H   0  0  0  0  0  0  0  0  0  0  0  0
    0.4157   -0.6891    1.3653 H   0  0  0  0  0  0  0  0  0  0  0  0
   -3.2003    0.8187   -1.4767 H   0  0  0  0  0  0  0  0  0  0  0  0
   -3.0638   -0.9566   -1.5393 H   0  0  0  0  0  0  0  0  0  0  0  0
   -1.0149    2.0250   -0.6260 H   0  0  0  0  0  0  0  0  0  0  0  0
   -3.0398   -1.4252    1.2566 H   0  0  0  0  0  0  0  0  0  0  0  0
    0.1170    2.1141    1.0422 H   0  0  0  0  0  0  0  0  0  0  0  0
   -4.5891    0.5492    0.3230 H   0  0  0  0  0  0  0  0  0  0  0  0
    4.3605   -1.1985   -0.8929 H   0  0  0  0  0  0  0  0  0  0  0  0
  1  8  1  0  0  0  0
  1 19  1  0  0  0  0
  2  9  1  0  0  0  0
  2 20  1  0  0  0  0
  3 10  1  0  0  0  0
  3 21  1  0  0  0  0
  4 11  1  0  0  0  0
  4 22  1  0  0  0  0
  5 12  2  0  0  0  0
  6 13  1  0  0  0  0
  6 23  1  0  0  0  0
  7 13  2  0  0  0  0
  8  9  1  0  0  0  0
  8 10  1  0  0  0  0
  8 14  1  0  0  0  0
  9 11  1  0  0  0  0
  9 15  1  0  0  0  0
 10 12  1  0  0  0  0
 10 16  1  0  0  0  0
 11 17  1  0  0  0  0
 11 18  1  0  0  0  0
 12 13  1  0  0  0  0
M  END
> <PUBCHEM_COMPOUND_CID>
3035456

> <PUBCHEM_CONFORMER_RMSD>
0.6

> <PUBCHEM_CONFORMER_DIVERSEORDER>
4
54
20
21
3
11
51
32
6
41
22
35
26
36
40
8
16
5
33
30
15
52
24
2
37
53
38
46
25
39
10
29
28
27
45
50
7
48
42
19
13
47
18
14
23
43
49
44
34
1
9
17
12
31

> <PUBCHEM_MMFF94_PARTIAL_CHARGES>
18
1 -0.68
10 0.34
11 0.28
12 0.51
13 0.72
19 0.4
2 -0.68
20 0.4
21 0.4
22 0.4
23 0.5
3 -0.68
4 -0.68
5 -0.57
6 -0.65
7 -0.57
8 0.28
9 0.28

> <PUBCHEM_EFFECTIVE_ROTOR_COUNT>
5

> <PUBCHEM_PHARMACOPHORE_FEATURES>
12
1 1 acceptor
1 1 donor
1 2 acceptor
1 2 donor
1 3 acceptor
1 3 donor
1 4 acceptor
1 4 donor
1 5 acceptor
1 6 acceptor
1 7 acceptor
3 6 7 13 anion

> <PUBCHEM_HEAVY_ATOM_COUNT>
13

> <PUBCHEM_ATOM_DEF_STEREO_COUNT>
3

> <PUBCHEM_ATOM_UDEF_STEREO_COUNT>
0

> <PUBCHEM_BOND_DEF_STEREO_COUNT>
0

> <PUBCHEM_BOND_UDEF_STEREO_COUNT>
0

> <PUBCHEM_ISOTOPIC_ATOM_COUNT>
0

> <PUBCHEM_COMPONENT_COUNT>
1

> <PUBCHEM_CACTVS_TAUTO_COUNT>
41

> <PUBCHEM_CONFORMER_ID>
002E514000000004

> <PUBCHEM_MMFF94_ENERGY>
22.8446

> <PUBCHEM_FEATURE_SELFOVERLAP>
60.984

> <PUBCHEM_SHAPE_FINGERPRINT>
10130415 120 17967532389210320153
12251169 10 5617243811180816830
12897270 3 18131632283458063902
12932764 1 17604156926246192573
14251717 144 18260554432846920719
14993402 34 16371002958205940837
16945 1 18341891904806493360
200 152 18260268577029538822
20201158 50 18411980282193833754
20279233 1 18272653424169827122
20281407 28 18409731763639957211
20361792 2 17240493514998361700
20645477 70 18259704488741161343
20671657 53 18337667620093232364
21293036 1 17132396124814834111
23402539 116 16630527306787165862
3248919 1 18412268306926826377
581208 293 18335992973415613406

> <PUBCHEM_SHAPE_MULTIPOLES>
226.45
6.06
1.38
1.03
2.64
0.11
0.15
1.63
-1.41
-0.79
0.13
0.23
-0.23
0.3

> <PUBCHEM_SHAPE_SELFOVERLAP>
441.805

> <PUBCHEM_SHAPE_VOLUME>
134.8

> <PUBCHEM_COORDINATE_TYPE>
2
5
10

$$$$

