13437
  -OEChem-06261214133D

 25 25  0     0  0  0  0  0  0999 V2000
    0.1353    0.4834    0.9081 S   0  0  0  0  0  0  0  0  0  0  0  0
    2.6969    1.6260   -1.1541 F   0  0  0  0  0  0  0  0  0  0  0  0
    2.8701   -2.4654   -0.6043 F   0  0  0  0  0  0  0  0  0  0  0  0
    1.1684   -0.3503   -0.0540 O   0  0  0  0  0  0  0  0  0  0  0  0
    0.3692    1.9066    0.7137 O   0  0  0  0  0  0  0  0  0  0  0  0
    0.2074   -0.1073    2.2374 O   0  0  0  0  0  0  0  0  0  0  0  0
    2.5635   -0.2909    0.2007 C   0  0  0  0  0  0  0  0  0  0  0  0
   -1.4501    0.1431    0.2608 C   0  0  0  0  0  0  0  0  0  0  0  0
    2.9982    1.1601    0.0886 C   0  0  0  0  0  0  0  0  0  0  0  0
    3.2878   -1.1828   -0.7931 C   0  0  0  0  0  0  0  0  0  0  0  0
   -2.1759   -0.9506    0.7328 C   0  0  0  0  0  0  0  0  0  0  0  0
   -1.9904    0.9638   -0.7292 C   0  0  0  0  0  0  0  0  0  0  0  0
   -3.4420   -1.2236    0.2149 C   0  0  0  0  0  0  0  0  0  0  0  0
   -3.2564    0.6908   -1.2472 C   0  0  0  0  0  0  0  0  0  0  0  0
   -3.9821   -0.4029   -0.7752 C   0  0  0  0  0  0  0  0  0  0  0  0
    2.7499   -0.6678    1.2128 H   0  0  0  0  0  0  0  0  0  0  0  0
    2.5943    1.8340    0.8429 H   0  0  0  0  0  0  0  0  0  0  0  0
    4.0874    1.2232    0.1916 H   0  0  0  0  0  0  0  0  0  0  0  0
    4.3718   -1.1559   -0.6521 H   0  0  0  0  0  0  0  0  0  0  0  0
    3.0470   -0.9163   -1.8266 H   0  0  0  0  0  0  0  0  0  0  0  0
   -1.7723   -1.6079    1.4978 H   0  0  0  0  0  0  0  0  0  0  0  0
   -1.4407    1.8160   -1.1186 H   0  0  0  0  0  0  0  0  0  0  0  0
   -4.0065   -2.0763    0.5809 H   0  0  0  0  0  0  0  0  0  0  0  0
   -3.6764    1.3284   -2.0196 H   0  0  0  0  0  0  0  0  0  0  0  0
   -4.9674   -0.6160   -1.1792 H   0  0  0  0  0  0  0  0  0  0  0  0
  1  4  1  0  0  0  0
  1  5  2  0  0  0  0
  1  6  2  0  0  0  0
  1  8  1  0  0  0  0
  2  9  1  0  0  0  0
  3 10  1  0  0  0  0
  4  7  1  0  0  0  0
  7  9  1  0  0  0  0
  7 10  1  0  0  0  0
  7 16  1  0  0  0  0
  8 11  2  0  0  0  0
  8 12  1  0  0  0  0
  9 17  1  0  0  0  0
  9 18  1  0  0  0  0
 10 19  1  0  0  0  0
 10 20  1  0  0  0  0
 11 13  1  0  0  0  0
 11 21  1  0  0  0  0
 12 14  2  0  0  0  0
 12 22  1  0  0  0  0
 13 15  2  0  0  0  0
 13 23  1  0  0  0  0
 14 15  1  0  0  0  0
 14 24  1  0  0  0  0
 15 25  1  0  0  0  0
M  END
> <PUBCHEM_COMPOUND_CID>
13437

> <PUBCHEM_CONFORMER_RMSD>
0.6

> <PUBCHEM_CONFORMER_DIVERSEORDER>
2
8
6
10
9
7
5
11
12
3
4
1

> <PUBCHEM_MMFF94_PARTIAL_CHARGES>
20
1 1.49
10 0.34
11 -0.15
12 -0.15
13 -0.15
14 -0.15
15 -0.15
2 -0.34
21 0.15
22 0.15
23 0.15
24 0.15
25 0.15
3 -0.34
4 -0.46
5 -0.65
6 -0.65
7 0.28
8 -0.01
9 0.34

> <PUBCHEM_EFFECTIVE_ROTOR_COUNT>
5

> <PUBCHEM_PHARMACOPHORE_FEATURES>
3
1 5 acceptor
1 6 acceptor
6 8 11 12 13 14 15 rings

> <PUBCHEM_HEAVY_ATOM_COUNT>
15

> <PUBCHEM_ATOM_DEF_STEREO_COUNT>
0

> <PUBCHEM_ATOM_UDEF_STEREO_COUNT>
0

> <PUBCHEM_BOND_DEF_STEREO_COUNT>
0

> <PUBCHEM_BOND_UDEF_STEREO_COUNT>
0

> <PUBCHEM_ISOTOPIC_ATOM_COUNT>
0

> <PUBCHEM_COMPONENT_COUNT>
1

> <PUBCHEM_CACTVS_TAUTO_COUNT>
1

> <PUBCHEM_CONFORMER_ID>
0000347D00000002

> <PUBCHEM_MMFF94_ENERGY>
21.2389

> <PUBCHEM_FEATURE_SELFOVERLAP>
15.24

> <PUBCHEM_SHAPE_FINGERPRINT>
10498660 4 17131849672136895349
10799339 124 6411304545807827869
11137873 295 18335133249970410495
11715629 250 17131565984956575789
12251169 10 6844199861443513803
12616999 72 18338232661669372500
12932764 1 17489587904441111801
13296908 3 18408603673241680407
13705890 14 18409169896155262698
15375462 189 16877944910231406786
16945 1 18041561325776356401
17834069 15 6411029650710633849
17834072 14 18336837497631153306
18186145 218 17917708023892287705
18522851 268 18342738494326445679
19107657 9 15123509246042951327
200 152 18113616811423055174
20201158 50 18410856555445263490
20281407 28 17749394745558169347
20281475 54 18187363203797678139
20361792 2 16805609165706123625
20645477 70 18261112988758595951
20671657 53 18264765635522145902
21524375 3 13470682637784164673
21947302 44 17632013044667062700
22485316 2 17822016389066466567
2255824 54 16806460101759177808
22802520 49 18131344219906640593
23402539 116 17488757657345794836
23526113 38 18343016653598875626
23557571 272 17344895326694803899
23559900 14 18341621451174917090
4990 188 18272379663508144543
5262128 65 18272640273164719780
90316 7 14056995040480595915
93112 12 18272933846868981343

> <PUBCHEM_SHAPE_MULTIPOLES>
280.39
6.92
1.72
1.32
0.74
0.28
0.4
1.59
-2.66
-1.22
-0.31
0.05
-0.07
0.72

> <PUBCHEM_SHAPE_SELFOVERLAP>
561.768

> <PUBCHEM_SHAPE_VOLUME>
165.3

> <PUBCHEM_COORDINATE_TYPE>
2
5
10

$$$$

