5283142
  -OEChem-07051213063D

 58 57  0     1  0  0  0  0  0999 V2000
   -2.3751   -1.8830   -3.0775 O   0  0  0  0  0  0  0  0  0  0  0  0
   -2.1862   -2.2701   -0.2400 O   0  0  0  0  0  0  0  0  0  0  0  0
   -0.0827    3.9971   -1.4236 O   0  0  0  0  0  0  0  0  0  0  0  0
   -1.3752    3.5161    0.3862 O   0  0  0  0  0  0  0  0  0  0  0  0
   -1.8694   -0.8858   -2.1933 C   0  0  2  0  0  0  0  0  0  0  0  0
   -1.1963   -1.5745   -0.9948 C   0  0  2  0  0  0  0  0  0  0  0  0
   -2.9997    0.0871   -1.8100 C   0  0  0  0  0  0  0  0  0  0  0  0
   -2.5498    1.2601   -0.9277 C   0  0  0  0  0  0  0  0  0  0  0  0
   -0.0561   -2.5418   -1.3661 C   0  0  0  0  0  0  0  0  0  0  0  0
   -1.5454    2.1683   -1.6395 C   0  0  0  0  0  0  0  0  0  0  0  0
    0.8768   -2.8578   -0.2297 C   0  0  0  0  0  0  0  0  0  0  0  0
    0.0244    0.6168    2.6102 C   0  0  0  0  0  0  0  0  0  0  0  0
   -0.5690   -0.6901    3.1534 C   0  0  0  0  0  0  0  0  0  0  0  0
    1.4905    0.5448    2.1667 C   0  0  0  0  0  0  0  0  0  0  0  0
   -2.0153   -0.6087    3.6464 C   0  0  0  0  0  0  0  0  0  0  0  0
    2.1847   -2.5611   -0.2400 C   0  0  0  0  0  0  0  0  0  0  0  0
   -1.0297    3.2832   -0.7622 C   0  0  0  0  0  0  0  0  0  0  0  0
    2.8833   -1.8795   -1.3800 C   0  0  0  0  0  0  0  0  0  0  0  0
    2.0151    1.8662    1.6860 C   0  0  0  0  0  0  0  0  0  0  0  0
   -2.5358   -1.9190    4.2155 C   0  0  0  0  0  0  0  0  0  0  0  0
    2.5533    1.0042   -0.6033 C   0  0  0  0  0  0  0  0  0  0  0  0
    4.0060   -1.0162   -0.8863 C   0  0  0  0  0  0  0  0  0  0  0  0
    2.4901    2.0721    0.4486 C   0  0  0  0  0  0  0  0  0  0  0  0
    3.8614    0.2716   -0.5389 C   0  0  0  0  0  0  0  0  0  0  0  0
   -1.1014   -0.3513   -2.7618 H   0  0  0  0  0  0  0  0  0  0  0  0
   -0.7811   -0.7974   -0.3432 H   0  0  0  0  0  0  0  0  0  0  0  0
   -3.7999   -0.4632   -1.2994 H   0  0  0  0  0  0  0  0  0  0  0  0
   -3.4615    0.4779   -2.7261 H   0  0  0  0  0  0  0  0  0  0  0  0
   -2.1419    0.8959    0.0198 H   0  0  0  0  0  0  0  0  0  0  0  0
   -3.4343    1.8527   -0.6612 H   0  0  0  0  0  0  0  0  0  0  0  0
   -0.4969   -3.4980   -1.6796 H   0  0  0  0  0  0  0  0  0  0  0  0
    0.4646   -2.1614   -2.2467 H   0  0  0  0  0  0  0  0  0  0  0  0
   -0.6687    1.5920   -1.9511 H   0  0  0  0  0  0  0  0  0  0  0  0
   -2.0116    2.6149   -2.5245 H   0  0  0  0  0  0  0  0  0  0  0  0
    0.4647   -3.3744    0.6327 H   0  0  0  0  0  0  0  0  0  0  0  0
   -2.7550   -1.4280   -3.8483 H   0  0  0  0  0  0  0  0  0  0  0  0
   -1.7636   -2.6084    0.5671 H   0  0  0  0  0  0  0  0  0  0  0  0
   -0.5869    0.9505    1.7638 H   0  0  0  0  0  0  0  0  0  0  0  0
   -0.0763    1.3895    3.3838 H   0  0  0  0  0  0  0  0  0  0  0  0
    0.0635   -1.0389    3.9797 H   0  0  0  0  0  0  0  0  0  0  0  0
   -0.5036   -1.4562    2.3716 H   0  0  0  0  0  0  0  0  0  0  0  0
    1.5992   -0.2601    1.4395 H   0  0  0  0  0  0  0  0  0  0  0  0
    2.0999    0.2446    3.0287 H   0  0  0  0  0  0  0  0  0  0  0  0
   -2.0915    0.1674    4.4171 H   0  0  0  0  0  0  0  0  0  0  0  0
   -2.6611   -0.2977    2.8166 H   0  0  0  0  0  0  0  0  0  0  0  0
    2.7828   -2.8728    0.6136 H   0  0  0  0  0  0  0  0  0  0  0  0
    3.3172   -2.6483   -2.0315 H   0  0  0  0  0  0  0  0  0  0  0  0
    2.2260   -1.2813   -2.0149 H   0  0  0  0  0  0  0  0  0  0  0  0
    2.0160    2.6931    2.3911 H   0  0  0  0  0  0  0  0  0  0  0  0
   -1.9342   -2.2393    5.0719 H   0  0  0  0  0  0  0  0  0  0  0  0
   -3.5715   -1.8040    4.5496 H   0  0  0  0  0  0  0  0  0  0  0  0
   -2.5066   -2.7105    3.4599 H   0  0  0  0  0  0  0  0  0  0  0  0
    1.6739    0.3567   -0.5628 H   0  0  0  0  0  0  0  0  0  0  0  0
    2.4952    1.5093   -1.5764 H   0  0  0  0  0  0  0  0  0  0  0  0
    4.9915   -1.4692   -0.8125 H   0  0  0  0  0  0  0  0  0  0  0  0
    2.8657    3.0586    0.1893 H   0  0  0  0  0  0  0  0  0  0  0  0
    4.7481    0.8204   -0.2296 H   0  0  0  0  0  0  0  0  0  0  0  0
    0.2836    4.7193   -0.8700 H   0  0  0  0  0  0  0  0  0  0  0  0
  1  5  1  0  0  0  0
  1 36  1  0  0  0  0
  2  6  1  0  0  0  0
  2 37  1  0  0  0  0
  3 17  1  0  0  0  0
  3 58  1  0  0  0  0
  4 17  2  0  0  0  0
  5  6  1  0  0  0  0
  5  7  1  0  0  0  0
  5 25  1  0  0  0  0
  6  9  1  0  0  0  0
  6 26  1  0  0  0  0
  7  8  1  0  0  0  0
  7 27  1  0  0  0  0
  7 28  1  0  0  0  0
  8 10  1  0  0  0  0
  8 29  1  0  0  0  0
  8 30  1  0  0  0  0
  9 11  1  0  0  0  0
  9 31  1  0  0  0  0
  9 32  1  0  0  0  0
 10 17  1  0  0  0  0
 10 33  1  0  0  0  0
 10 34  1  0  0  0  0
 11 16  2  0  0  0  0
 11 35  1  0  0  0  0
 12 13  1  0  0  0  0
 12 14  1  0  0  0  0
 12 38  1  0  0  0  0
 12 39  1  0  0  0  0
 13 15  1  0  0  0  0
 13 40  1  0  0  0  0
 13 41  1  0  0  0  0
 14 19  1  0  0  0  0
 14 42  1  0  0  0  0
 14 43  1  0  0  0  0
 15 20  1  0  0  0  0
 15 44  1  0  0  0  0
 15 45  1  0  0  0  0
 16 18  1  0  0  0  0
 16 46  1  0  0  0  0
 18 22  1  0  0  0  0
 18 47  1  0  0  0  0
 18 48  1  0  0  0  0
 19 23  2  0  0  0  0
 19 49  1  0  0  0  0
 20 50  1  0  0  0  0
 20 51  1  0  0  0  0
 20 52  1  0  0  0  0
 21 23  1  0  0  0  0
 21 24  1  0  0  0  0
 21 53  1  0  0  0  0
 21 54  1  0  0  0  0
 22 24  2  0  0  0  0
 22 55  1  0  0  0  0
 23 56  1  0  0  0  0
 24 57  1  0  0  0  0
M  END
> <PUBCHEM_COMPOUND_CID>
5283142

> <PUBCHEM_CONFORMER_RMSD>
1.6

> <PUBCHEM_CONFORMER_DIVERSEORDER>
2
62
122
7
144
5
133
136
101
102
81
107
109
111
80
113
24
104
127
117
71
135
125
39
53
40
67
134
139
96
31
76
130
60
19
65
13
15
97
148
27
116
17
82
118
75
3
89
57
93
91
38
137
46
140
63
143
84
16
33
74
1
147
6
70
85
146
72
87
66
45
79
121
106
90
92
4
32
69
129
52
86
9
141
55
51
11
68
26
115
94
131
50
78
100
21
54
145
8
44
112
12
114
37
23
64
61
20
42
108
36
28
95
59
47
142
120
10
126
132
56
49
35
124
123
110
88
119
73
43
58
83
18
138
98
128
41
48
99
105
29
25
22
77
14
103
34
30

> <PUBCHEM_MMFF94_PARTIAL_CHARGES>
27
1 -0.68
10 0.06
11 -0.29
14 0.14
16 -0.29
17 0.66
18 0.28
19 -0.29
2 -0.68
21 0.28
22 -0.29
23 -0.29
24 -0.29
3 -0.65
35 0.15
36 0.4
37 0.4
4 -0.57
46 0.15
49 0.15
5 0.28
55 0.15
56 0.15
57 0.15
58 0.5
6 0.28
9 0.14

> <PUBCHEM_EFFECTIVE_ROTOR_COUNT>
15

> <PUBCHEM_PHARMACOPHORE_FEATURES>
9
1 1 acceptor
1 1 donor
1 2 acceptor
1 2 donor
1 20 hydrophobe
1 3 acceptor
1 4 acceptor
3 3 4 17 anion
5 12 13 14 15 19 hydrophobe

> <PUBCHEM_HEAVY_ATOM_COUNT>
24

> <PUBCHEM_ATOM_DEF_STEREO_COUNT>
0

> <PUBCHEM_ATOM_UDEF_STEREO_COUNT>
2

> <PUBCHEM_BOND_DEF_STEREO_COUNT>
3

> <PUBCHEM_BOND_UDEF_STEREO_COUNT>
0

> <PUBCHEM_ISOTOPIC_ATOM_COUNT>
0

> <PUBCHEM_COMPONENT_COUNT>
1

> <PUBCHEM_CACTVS_TAUTO_COUNT>
1

> <PUBCHEM_CONFORMER_ID>
00509D4600000002

> <PUBCHEM_MMFF94_ENERGY>
21.305

> <PUBCHEM_FEATURE_SELFOVERLAP>
45.731

> <PUBCHEM_SHAPE_FINGERPRINT>
11244481 83 4810894701982263083
11578080 2 10339614882190919450
12156800 1 10511034551287275318
12539745 222 13607252749986926120
13122387 1 8702338284457385356
14251757 17 7666346968189176314
15322687 12 17541399258753508924
20397935 3 9725392188598632600
20600515 1 8332874198238860666
20905425 154 15964874960937640140
23419403 2 16840205101663783995
35225 105 16773506741858058171
3524813 1 17246136028668421862
6438718 38 14396948741062142826

> <PUBCHEM_SHAPE_MULTIPOLES>
470.43
5.3
4.39
4.19
3.86
3.02
3.15
-0.98
-0.76
-1.34
-0.47
-4.35
-2.73
2.45

> <PUBCHEM_SHAPE_SELFOVERLAP>
889.373

> <PUBCHEM_SHAPE_VOLUME>
288.6

> <PUBCHEM_COORDINATE_TYPE>
2
5
10

$$$$

