17109
  -OEChem-07051213053D

 21 23  0     0  0  0  0  0  0999 V2000
   -2.8112    1.5756    0.0006 S   0  0  0  0  0  0  0  0  0  0  0  0
   -3.0083   -1.3802    0.0003 S   0  0  0  0  0  0  0  0  0  0  0  0
   -5.0862    0.2428    0.0008 O   0  0  0  0  0  0  0  0  0  0  0  0
   -0.0979    1.3088   -0.0006 N   0  0  0  0  0  0  0  0  0  0  0  0
   -0.2837   -1.4762   -0.0005 N   0  0  0  0  0  0  0  0  0  0  0  0
    1.0082    0.5430   -0.0007 C   0  0  0  0  0  0  0  0  0  0  0  0
    0.9143   -0.8641   -0.0007 C   0  0  0  0  0  0  0  0  0  0  0  0
    3.4311    0.3694    0.0007 C   0  0  0  0  0  0  0  0  0  0  0  0
    2.2676    1.1368   -0.0003 C   0  0  0  0  0  0  0  0  0  0  0  0
   -1.2823    0.6764   -0.0003 C   0  0  0  0  0  0  0  0  0  0  0  0
    2.0835   -1.6203    0.0000 C   0  0  0  0  0  0  0  0  0  0  0  0
   -1.3735   -0.6920   -0.0003 C   0  0  0  0  0  0  0  0  0  0  0  0
    3.3387   -1.0145    0.0010 C   0  0  0  0  0  0  0  0  0  0  0  0
    4.7661    1.0329    0.0002 C   0  0  0  0  0  0  0  0  0  0  0  0
   -3.8665    0.1614   -0.0001 C   0  0  0  0  0  0  0  0  0  0  0  0
    2.3430    2.2232    0.0013 H   0  0  0  0  0  0  0  0  0  0  0  0
    2.0263   -2.7070    0.0007 H   0  0  0  0  0  0  0  0  0  0  0  0
    4.2305   -1.6349    0.0035 H   0  0  0  0  0  0  0  0  0  0  0  0
    5.0630    1.2807    1.0242 H   0  0  0  0  0  0  0  0  0  0  0  0
    5.5332    0.3851   -0.4377 H   0  0  0  0  0  0  0  0  0  0  0  0
    4.7465    1.9528   -0.5940 H   0  0  0  0  0  0  0  0  0  0  0  0
  1 10  1  0  0  0  0
  1 15  1  0  0  0  0
  2 12  1  0  0  0  0
  2 15  1  0  0  0  0
  3 15  2  0  0  0  0
  4  6  1  0  0  0  0
  4 10  2  0  0  0  0
  5  7  1  0  0  0  0
  5 12  2  0  0  0  0
  6  7  2  0  0  0  0
  6  9  1  0  0  0  0
  7 11  1  0  0  0  0
  8  9  2  0  0  0  0
  8 13  1  0  0  0  0
  8 14  1  0  0  0  0
  9 16  1  0  0  0  0
 10 12  1  0  0  0  0
 11 13  2  0  0  0  0
 11 17  1  0  0  0  0
 13 18  1  0  0  0  0
 14 19  1  0  0  0  0
 14 20  1  0  0  0  0
 14 21  1  0  0  0  0
M  END
> <PUBCHEM_COMPOUND_CID>
17109

> <PUBCHEM_CONFORMER_RMSD>
0.4

> <PUBCHEM_CONFORMER_DIVERSEORDER>
1

> <PUBCHEM_MMFF94_PARTIAL_CHARGES>
18
1 -0.24
10 0.41
11 -0.15
12 0.41
13 -0.15
14 0.14
15 0.85
16 0.15
17 0.15
18 0.15
2 -0.24
3 -0.57
4 -0.62
5 -0.62
6 0.31
7 0.31
8 -0.14
9 -0.15

> <PUBCHEM_EFFECTIVE_ROTOR_COUNT>
0

> <PUBCHEM_PHARMACOPHORE_FEATURES>
5
1 4 acceptor
1 5 acceptor
5 1 2 10 12 15 rings
6 4 5 6 7 10 12 rings
6 6 7 8 9 11 13 rings

> <PUBCHEM_HEAVY_ATOM_COUNT>
15

> <PUBCHEM_ATOM_DEF_STEREO_COUNT>
0

> <PUBCHEM_ATOM_UDEF_STEREO_COUNT>
0

> <PUBCHEM_BOND_DEF_STEREO_COUNT>
0

> <PUBCHEM_BOND_UDEF_STEREO_COUNT>
0

> <PUBCHEM_ISOTOPIC_ATOM_COUNT>
0

> <PUBCHEM_COMPONENT_COUNT>
1

> <PUBCHEM_CACTVS_TAUTO_COUNT>
1

> <PUBCHEM_CONFORMER_ID>
000042D500000001

> <PUBCHEM_MMFF94_ENERGY>
32.4845

> <PUBCHEM_FEATURE_SELFOVERLAP>
25.467

> <PUBCHEM_SHAPE_FINGERPRINT>
10608611 8 18411140268005132716
10967382 1 18410575106148510374
11132069 177 18410858750131132913
11401426 45 18408889507641767041
11471102 20 18410014346802509422
11806522 49 18411420579456896527
12032990 46 18410568513468786487
13214271 11 18410856512696115663
13221675 6 18410011026634618431
13380535 76 18411698781331190298
14144814 61 18410574015247903361
14325111 11 18410855485982524000
14897335 6 18410012134952374174
15196674 1 18410574023821981063
15219456 202 18411138068981571926
15375358 24 18343019982166997939
15442244 35 18194120956548424906
15536298 74 18334857246882112366
15775835 57 18408039606623083966
16945 1 18338797793318610310
18186145 218 18341330110141232988
18522853 276 18408886239235185761
200 152 18040438776497697471
20510252 161 18261109733463509953
20645477 70 18335139842550323702
21267235 1 18338507629449207402
21501502 16 18338801220538923842
23402539 116 18335990774255201591
23402655 69 18335144228054447429
23463225 33 18413107281479987126
23559900 14 18263367065559062382
2748010 2 18410571824841027646
3312278 4 18409164385717594251
335352 9 18050286173891465078
34934 24 18410580569420991267
3545911 37 18411135831303578164
449060 62 18408040719246531890
474 4 17632007538561239348
4990 188 17968365823778077764
5104073 3 18411136978075658395
537710 114 18409444786794484996
53812653 166 18334580118306829912
69090 78 18334580144198017815
7364860 26 18263081171008334670
77779 3 18410291432196016959
8809292 202 18272365352571976731
9709674 26 18410568479009250142

> <PUBCHEM_SHAPE_MULTIPOLES>
300.56
8.43
1.73
0.61
1.2
0.16
0
-1.49
0
-0.03
0
0
0
0

> <PUBCHEM_SHAPE_SELFOVERLAP>
642.802

> <PUBCHEM_SHAPE_VOLUME>
168.7

> <PUBCHEM_COORDINATE_TYPE>
2
5
10

$$$$

