5281658
  -OEChem-07051212583D

 27 29  0     0  0  0  0  0  0999 V2000
   -0.2264   -1.7621    0.0003 O   0  0  0  0  0  0  0  0  0  0  0  0
    0.2781    2.2984    0.0023 O   0  0  0  0  0  0  0  0  0  0  0  0
    2.8625    1.9869   -0.0006 O   0  0  0  0  0  0  0  0  0  0  0  0
   -2.3145    2.6294   -0.0014 O   0  0  0  0  0  0  0  0  0  0  0  0
    4.9389    0.2058   -0.0007 O   0  0  0  0  0  0  0  0  0  0  0  0
   -4.9470   -1.3196   -0.0002 O   0  0  0  0  0  0  0  0  0  0  0  0
    1.2748    0.1640    0.0001 C   0  0  0  0  0  0  0  0  0  0  0  0
   -1.2090    0.4735    0.0002 C   0  0  0  0  0  0  0  0  0  0  0  0
   -1.3090   -0.9175    0.0002 C   0  0  0  0  0  0  0  0  0  0  0  0
    1.0305   -1.2089    0.0002 C   0  0  0  0  0  0  0  0  0  0  0  0
    0.1285    1.0856    0.0004 C   0  0  0  0  0  0  0  0  0  0  0  0
    2.5842    0.6521   -0.0001 C   0  0  0  0  0  0  0  0  0  0  0  0
   -2.3586    1.2680    0.0000 C   0  0  0  0  0  0  0  0  0  0  0  0
   -2.5688   -1.5197    0.0000 C   0  0  0  0  0  0  0  0  0  0  0  0
    2.1041   -2.1019    0.0001 C   0  0  0  0  0  0  0  0  0  0  0  0
    3.6526   -0.2449   -0.0002 C   0  0  0  0  0  0  0  0  0  0  0  0
   -3.6144    0.6605   -0.0003 C   0  0  0  0  0  0  0  0  0  0  0  0
   -3.7196   -0.7305   -0.0003 C   0  0  0  0  0  0  0  0  0  0  0  0
    3.4133   -1.6192   -0.0001 C   0  0  0  0  0  0  0  0  0  0  0  0
   -2.6558   -2.6035    0.0001 H   0  0  0  0  0  0  0  0  0  0  0  0
    1.9288   -3.1744    0.0001 H   0  0  0  0  0  0  0  0  0  0  0  0
   -4.5103    1.2770   -0.0007 H   0  0  0  0  0  0  0  0  0  0  0  0
    4.2434   -2.3206   -0.0003 H   0  0  0  0  0  0  0  0  0  0  0  0
    3.7249    2.1402    0.4189 H   0  0  0  0  0  0  0  0  0  0  0  0
   -1.3961    2.9395   -0.0026 H   0  0  0  0  0  0  0  0  0  0  0  0
    4.9675    1.1041   -0.3683 H   0  0  0  0  0  0  0  0  0  0  0  0
   -5.6295   -0.6266   -0.0003 H   0  0  0  0  0  0  0  0  0  0  0  0
  1  9  1  0  0  0  0
  1 10  1  0  0  0  0
  2 11  2  0  0  0  0
  3 12  1  0  0  0  0
  3 24  1  0  0  0  0
  4 13  1  0  0  0  0
  4 25  1  0  0  0  0
  5 16  1  0  0  0  0
  5 26  1  0  0  0  0
  6 18  1  0  0  0  0
  6 27  1  0  0  0  0
  7 10  2  0  0  0  0
  7 11  1  0  0  0  0
  7 12  1  0  0  0  0
  8  9  1  0  0  0  0
  8 11  1  0  0  0  0
  8 13  2  0  0  0  0
  9 14  2  0  0  0  0
 10 15  1  0  0  0  0
 12 16  2  0  0  0  0
 13 17  1  0  0  0  0
 14 18  1  0  0  0  0
 14 20  1  0  0  0  0
 15 19  2  0  0  0  0
 15 21  1  0  0  0  0
 16 19  1  0  0  0  0
 17 18  2  0  0  0  0
 17 22  1  0  0  0  0
 19 23  1  0  0  0  0
M  END
> <PUBCHEM_COMPOUND_CID>
5281658

> <PUBCHEM_CONFORMER_RMSD>
0.4

> <PUBCHEM_CONFORMER_DIVERSEORDER>
1

> <PUBCHEM_MMFF94_PARTIAL_CHARGES>
27
1 -0.17
10 0.08
11 0.4
12 0.08
13 0.08
14 -0.15
15 -0.15
16 0.08
17 -0.15
18 0.08
19 -0.15
2 -0.57
20 0.15
21 0.15
22 0.15
23 0.15
24 0.45
25 0.45
26 0.45
27 0.45
3 -0.53
4 -0.53
5 -0.53
6 -0.53
7 0.09
8 0.09
9 0.08

> <PUBCHEM_EFFECTIVE_ROTOR_COUNT>
0

> <PUBCHEM_PHARMACOPHORE_FEATURES>
9
1 1 acceptor
1 2 acceptor
1 3 donor
1 4 donor
1 5 donor
1 6 donor
6 1 7 8 9 10 11 rings
6 7 10 12 15 16 19 rings
6 8 9 13 14 17 18 rings

> <PUBCHEM_HEAVY_ATOM_COUNT>
19

> <PUBCHEM_ATOM_DEF_STEREO_COUNT>
0

> <PUBCHEM_ATOM_UDEF_STEREO_COUNT>
0

> <PUBCHEM_BOND_DEF_STEREO_COUNT>
0

> <PUBCHEM_BOND_UDEF_STEREO_COUNT>
0

> <PUBCHEM_ISOTOPIC_ATOM_COUNT>
0

> <PUBCHEM_COMPONENT_COUNT>
1

> <PUBCHEM_CACTVS_TAUTO_COUNT>
114

> <PUBCHEM_CONFORMER_ID>
0050977A00000001

> <PUBCHEM_MMFF94_ENERGY>
60.7978

> <PUBCHEM_FEATURE_SELFOVERLAP>
45.732

> <PUBCHEM_SHAPE_FINGERPRINT>
10608611 8 18410577322393969548
10616163 171 18409164411361037791
10967382 1 18338517413321020903
11132069 177 18410298029255201752
11471102 20 18411422786732645486
11806522 49 18412545396836912151
12032990 46 18410007762459557935
12403259 226 18410580608107520840
13140716 1 17978232651482559683
13221675 6 18410012143315689334
13583140 156 14201395027885107343
138480 1 15240040264548805897
13862211 1 18410579444366633903
14144814 61 18410293652641368066
14790565 3 17619618095410967853
15196674 1 18410856607005944006
15230672 131 13370786999456994619
15442244 35 18194965368730882954
15536298 74 18334575771900204862
16945 1 18338798892608549095
17492 89 18338799038812510947
17802600 8 18409733949693726488
17804303 29 18407757036508996465
18522853 276 18409449180556338027
19591789 44 18410292544656298390
200 152 18186810175429473527
20510252 161 18261673769885057297
21029758 11 18407764733449087081
21267235 1 18410565180505872350
21501502 16 18339359780967099394
221490 88 18412255147289670466
2334 1 18410575106143209639
23402539 116 18335991904100788223
23463225 33 18411699911007504118
23557571 272 18188201087455604350
23559900 14 17974857477831146606
238 59 16044815572627396805
2748010 2 18410294756458493199
2871803 45 18341899592966992023
335352 9 17906171003011302646
34934 24 18339368564212266339
350125 39 18410571790455259673
4214541 1 18338799021436592385
474 4 17345745275533341836
5104073 3 18337674221252466026
69090 78 18333734602307525943
7364860 26 18263926548951578040
8809292 202 18200871773407302931
9709674 26 18410568509121532934

> <PUBCHEM_SHAPE_MULTIPOLES>
355.8
7.86
2.38
0.59
0.1
0.61
0
-1.34
0
0.21
0
0
-0.02
0

> <PUBCHEM_SHAPE_SELFOVERLAP>
810.175

> <PUBCHEM_SHAPE_VOLUME>
184.2

> <PUBCHEM_COORDINATE_TYPE>
2
5
10

$$$$

