266046
  -OEChem-07051213003D

 40 43  0     0  0  0  0  0  0999 V2000
   -3.1477    0.1949    0.0335 O   0  0  0  0  0  0  0  0  0  0  0  0
   -2.4695    2.7800    0.1305 O   0  0  0  0  0  0  0  0  0  0  0  0
    1.5656   -2.3161    0.0256 O   0  0  0  0  0  0  0  0  0  0  0  0
    4.4358    1.2613    0.1452 O   0  0  0  0  0  0  0  0  0  0  0  0
    2.1225    1.8275    0.1418 N   0  0  0  0  0  0  0  0  0  0  0  0
   -3.5804   -1.1714    0.1698 C   0  0  0  0  0  0  0  0  0  0  0  0
   -0.7944   -0.4838    0.0345 C   0  0  0  0  0  0  0  0  0  0  0  0
   -1.8108    0.4777    0.0649 C   0  0  0  0  0  0  0  0  0  0  0  0
    0.5729   -0.0671    0.0623 C   0  0  0  0  0  0  0  0  0  0  0  0
   -2.4940   -2.2030    0.0285 C   0  0  0  0  0  0  0  0  0  0  0  0
   -1.1985   -1.8887   -0.0407 C   0  0  0  0  0  0  0  0  0  0  0  0
    0.8827    1.3187    0.1129 C   0  0  0  0  0  0  0  0  0  0  0  0
   -4.6318   -1.3920   -0.9246 C   0  0  0  0  0  0  0  0  0  0  0  0
   -4.2371   -1.3000    1.5491 C   0  0  0  0  0  0  0  0  0  0  0  0
   -1.4921    1.8294    0.1082 C   0  0  0  0  0  0  0  0  0  0  0  0
    1.6723   -0.9603    0.0451 C   0  0  0  0  0  0  0  0  0  0  0  0
   -0.1600    2.2316    0.1330 C   0  0  0  0  0  0  0  0  0  0  0  0
    2.9774   -0.4516    0.0749 C   0  0  0  0  0  0  0  0  0  0  0  0
    3.1137    0.9259    0.1214 C   0  0  0  0  0  0  0  0  0  0  0  0
    4.2910   -0.9821    0.0714 C   0  0  0  0  0  0  0  0  0  0  0  0
    5.1395    0.0995    0.1145 C   0  0  0  0  0  0  0  0  0  0  0  0
   -2.9245    3.2696   -1.1287 C   0  0  0  0  0  0  0  0  0  0  0  0
    2.1675   -3.0000   -1.0731 C   0  0  0  0  0  0  0  0  0  0  0  0
   -2.7838   -3.2503   -0.0152 H   0  0  0  0  0  0  0  0  0  0  0  0
   -0.5168   -2.7106   -0.1605 H   0  0  0  0  0  0  0  0  0  0  0  0
   -5.0775   -2.3915   -0.8717 H   0  0  0  0  0  0  0  0  0  0  0  0
   -5.4371   -0.6519   -0.8470 H   0  0  0  0  0  0  0  0  0  0  0  0
   -4.1913   -1.2635   -1.9208 H   0  0  0  0  0  0  0  0  0  0  0  0
   -5.0380   -0.5610    1.6701 H   0  0  0  0  0  0  0  0  0  0  0  0
   -4.6610   -2.2973    1.7101 H   0  0  0  0  0  0  0  0  0  0  0  0
   -3.5126   -1.1014    2.3481 H   0  0  0  0  0  0  0  0  0  0  0  0
    0.0622    3.2980    0.1707 H   0  0  0  0  0  0  0  0  0  0  0  0
    4.6023   -2.0158    0.0539 H   0  0  0  0  0  0  0  0  0  0  0  0
    6.2143    0.2048    0.1319 H   0  0  0  0  0  0  0  0  0  0  0  0
   -3.3421    2.4574   -1.7320 H   0  0  0  0  0  0  0  0  0  0  0  0
   -2.1063    3.7562   -1.6690 H   0  0  0  0  0  0  0  0  0  0  0  0
   -3.7100    4.0079   -0.9457 H   0  0  0  0  0  0  0  0  0  0  0  0
    1.4685   -3.7711   -1.4115 H   0  0  0  0  0  0  0  0  0  0  0  0
    3.0794   -3.5030   -0.7417 H   0  0  0  0  0  0  0  0  0  0  0  0
    2.3773   -2.3411   -1.9231 H   0  0  0  0  0  0  0  0  0  0  0  0
  1  6  1  0  0  0  0
  1  8  1  0  0  0  0
  2 15  1  0  0  0  0
  2 22  1  0  0  0  0
  3 16  1  0  0  0  0
  3 23  1  0  0  0  0
  4 19  1  0  0  0  0
  4 21  1  0  0  0  0
  5 12  1  0  0  0  0
  5 19  2  0  0  0  0
  6 10  1  0  0  0  0
  6 13  1  0  0  0  0
  6 14  1  0  0  0  0
  7  8  1  0  0  0  0
  7  9  2  0  0  0  0
  7 11  1  0  0  0  0
  8 15  2  0  0  0  0
  9 12  1  0  0  0  0
  9 16  1  0  0  0  0
 10 11  2  0  0  0  0
 10 24  1  0  0  0  0
 11 25  1  0  0  0  0
 12 17  2  0  0  0  0
 13 26  1  0  0  0  0
 13 27  1  0  0  0  0
 13 28  1  0  0  0  0
 14 29  1  0  0  0  0
 14 30  1  0  0  0  0
 14 31  1  0  0  0  0
 15 17  1  0  0  0  0
 16 18  2  0  0  0  0
 17 32  1  0  0  0  0
 18 19  1  0  0  0  0
 18 20  1  0  0  0  0
 20 21  2  0  0  0  0
 20 33  1  0  0  0  0
 21 34  1  0  0  0  0
 22 35  1  0  0  0  0
 22 36  1  0  0  0  0
 22 37  1  0  0  0  0
 23 38  1  0  0  0  0
 23 39  1  0  0  0  0
 23 40  1  0  0  0  0
M  END
> <PUBCHEM_COMPOUND_CID>
266046

> <PUBCHEM_CONFORMER_RMSD>
0.6

> <PUBCHEM_CONFORMER_DIVERSEORDER>
2
1

> <PUBCHEM_MMFF94_PARTIAL_CHARGES>
24
1 -0.36
10 -0.29
11 -0.18
12 0.31
15 0.08
16 0.08
17 -0.15
19 0.4
2 -0.36
20 -0.15
21 -0.01
22 0.28
23 0.28
24 0.15
25 0.15
3 -0.36
32 0.15
33 0.15
34 0.15
4 -0.28
5 -0.57
6 0.42
7 0.03
8 0.08

> <PUBCHEM_EFFECTIVE_ROTOR_COUNT>
2.4

> <PUBCHEM_PHARMACOPHORE_FEATURES>
8
1 1 acceptor
1 2 acceptor
1 3 acceptor
3 6 13 14 hydrophobe
5 4 18 19 20 21 rings
6 1 6 7 8 10 11 rings
6 5 9 12 16 18 19 rings
6 7 8 9 12 15 17 rings

> <PUBCHEM_HEAVY_ATOM_COUNT>
23

> <PUBCHEM_ATOM_DEF_STEREO_COUNT>
0

> <PUBCHEM_ATOM_UDEF_STEREO_COUNT>
0

> <PUBCHEM_BOND_DEF_STEREO_COUNT>
0

> <PUBCHEM_BOND_UDEF_STEREO_COUNT>
0

> <PUBCHEM_ISOTOPIC_ATOM_COUNT>
0

> <PUBCHEM_COMPONENT_COUNT>
1

> <PUBCHEM_CACTVS_TAUTO_COUNT>
1

> <PUBCHEM_CONFORMER_ID>
00040F3E00000002

> <PUBCHEM_MMFF94_ENERGY>
95.1409

> <PUBCHEM_FEATURE_SELFOVERLAP>
40.777

> <PUBCHEM_SHAPE_FINGERPRINT>
10319926 262 18192737690344680328
10411042 1 17978792307392120418
10616163 171 18410011048394382462
10688039 33 18130785616977126533
10906281 52 18268410383028370771
10967382 1 18265615377220694538
11578080 2 17129876160339540502
11680986 33 18119526785116973782
12236239 1 17676482797032377139
12403259 226 18336834082504684792
12403259 415 18187088343482177336
12553582 1 18338787910646309031
12730499 353 17408247327732420021
12788726 201 18343031003601504721
12839892 36 18337408127113161850
13140716 1 18121212078543986763
138480 1 15889124820660309869
13862211 1 18409735023752548786
14178342 30 18339090401230523184
14223421 5 18337387248622598590
14790565 3 17403167098063598357
15196674 1 18410575119650649256
16752209 62 18340783601570579545
16945 1 18410008819021291845
17357779 13 18339658754178774541
17492 89 18340207504823395034
1813 80 17632006473071304629
19591789 44 18408040710846553318
200 152 18114186294058812951
20510252 161 18334856142769634001
20739085 24 18054205654178404169
20905425 154 18263077867940899526
21236236 1 18410012156675273432
21267235 1 18338508651651436914
21421861 104 18200030771413300914
21641784 216 18130773543191523460
221490 88 18265043807806350646
22182313 1 18189888880569381766
2334 1 17689153413868290923
23402539 116 18334863783859266807
23557571 272 18334005116870335340
23558518 356 18200866391860506811
23559900 14 17974292316053853502
23566358 2 18337112392317001063
2748010 2 18265330801409387103
2871803 45 18412268319859213782
335352 9 18410293614371868941
34934 24 18409735036695518391
350125 39 18338514141115766720
352729 6 18048037668544626801
4214541 1 18411419544391123992
5104073 3 18338238266870875776
8809292 202 18200029530088468266
9709674 26 18337388352519130894

> <PUBCHEM_SHAPE_MULTIPOLES>
444.87
8.8
3.35
0.87
3.11
1.06
0.01
-1.72
0.32
-1.87
-0.82
-0.7
-0.16
0.96

> <PUBCHEM_SHAPE_SELFOVERLAP>
1000.011

> <PUBCHEM_SHAPE_VOLUME>
237.2

> <PUBCHEM_COORDINATE_TYPE>
2
5
10

$$$$

