11829
  -OEChem-06261206103D

 19 20  0     0  0  0  0  0  0999 V2000
   -3.3458   -0.3941    0.0006 O   0  5  0  0  0  0  0  0  0  0  0  0
   -1.8564   -2.0068   -0.0003 O   0  0  0  0  0  0  0  0  0  0  0  0
    2.5592    0.4827    0.0002 N   0  0  0  0  0  0  0  0  0  0  0  0
   -2.1587   -0.7918    0.0002 N   0  3  0  0  0  0  0  0  0  0  0  0
    0.2453   -0.1907   -0.0002 C   0  0  0  0  0  0  0  0  0  0  0  0
    1.2504    0.7992    0.0000 C   0  0  0  0  0  0  0  0  0  0  0  0
   -1.1113    0.1755   -0.0003 C   0  0  0  0  0  0  0  0  0  0  0  0
    0.6428   -1.5345   -0.0002 C   0  0  0  0  0  0  0  0  0  0  0  0
    0.8551    2.1339    0.0001 C   0  0  0  0  0  0  0  0  0  0  0  0
   -1.4784    1.5182   -0.0003 C   0  0  0  0  0  0  0  0  0  0  0  0
   -0.4937    2.4983   -0.0001 C   0  0  0  0  0  0  0  0  0  0  0  0
    1.9906   -1.8637    0.0000 C   0  0  0  0  0  0  0  0  0  0  0  0
    2.9008   -0.8262    0.0002 C   0  0  0  0  0  0  0  0  0  0  0  0
    0.0467   -2.4294   -0.0005 H   0  0  0  0  0  0  0  0  0  0  0  0
    1.6071    2.9209    0.0003 H   0  0  0  0  0  0  0  0  0  0  0  0
   -2.5146    1.8455   -0.0003 H   0  0  0  0  0  0  0  0  0  0  0  0
   -0.7704    3.5486    0.0000 H   0  0  0  0  0  0  0  0  0  0  0  0
    2.3199   -2.8965   -0.0001 H   0  0  0  0  0  0  0  0  0  0  0  0
    3.9679   -1.0227    0.0004 H   0  0  0  0  0  0  0  0  0  0  0  0
  1  4  1  0  0  0  0
  2  4  2  0  0  0  0
  3  6  1  0  0  0  0
  3 13  2  0  0  0  0
  4  7  1  0  0  0  0
  5  6  2  0  0  0  0
  5  7  1  0  0  0  0
  5  8  1  0  0  0  0
  6  9  1  0  0  0  0
  7 10  2  0  0  0  0
  8 12  2  0  0  0  0
  8 14  1  0  0  0  0
  9 11  2  0  0  0  0
  9 15  1  0  0  0  0
 10 11  1  0  0  0  0
 10 16  1  0  0  0  0
 11 17  1  0  0  0  0
 12 13  1  0  0  0  0
 12 18  1  0  0  0  0
 13 19  1  0  0  0  0
M  CHG  2   1  -1   4   1
M  END
> <PUBCHEM_COMPOUND_CID>
11829

> <PUBCHEM_CONFORMER_RMSD>
0.4

> <PUBCHEM_CONFORMER_DIVERSEORDER>
1

> <PUBCHEM_MMFF94_PARTIAL_CHARGES>
18
1 -0.52
10 -0.15
11 -0.15
12 -0.15
13 0.16
14 0.15
15 0.15
16 0.15
17 0.15
18 0.15
19 0.15
2 -0.52
3 -0.62
4 0.91
6 0.31
7 0.13
8 -0.15
9 -0.15

> <PUBCHEM_EFFECTIVE_ROTOR_COUNT>
1

> <PUBCHEM_PHARMACOPHORE_FEATURES>
6
1 1 acceptor
1 1 anion
1 2 acceptor
1 3 acceptor
6 3 5 6 8 12 13 rings
6 5 6 7 9 10 11 rings

> <PUBCHEM_HEAVY_ATOM_COUNT>
13

> <PUBCHEM_ATOM_DEF_STEREO_COUNT>
0

> <PUBCHEM_ATOM_UDEF_STEREO_COUNT>
0

> <PUBCHEM_BOND_DEF_STEREO_COUNT>
0

> <PUBCHEM_BOND_UDEF_STEREO_COUNT>
0

> <PUBCHEM_ISOTOPIC_ATOM_COUNT>
0

> <PUBCHEM_COMPONENT_COUNT>
1

> <PUBCHEM_CACTVS_TAUTO_COUNT>
1

> <PUBCHEM_CONFORMER_ID>
00002E3500000001

> <PUBCHEM_MMFF94_ENERGY>
56.2533

> <PUBCHEM_FEATURE_SELFOVERLAP>
30.559

> <PUBCHEM_SHAPE_FINGERPRINT>
10967382 1 18338798896887672647
11206711 2 18340766052096851020
12423570 1 6690045144574835152
161256 15 18408606954739275256
16945 1 18410856555434616484
17990270 104 18196656185559509507
193761 8 18338797926447058052
20201158 50 18413111636687867827
20645477 70 18051703144502844247
20871998 184 18043536220479561558
21040471 1 17689998259900461632
21501502 16 18266738172145633560
22802520 49 17609770169055156942
2334 1 17762056545095684936
23552423 10 18200024170269540668
23559900 14 17036412329477932454
241688 4 18339642346976520192
2748010 2 18266179628564952956
528886 8 18337394833455598746
66348 1 18410011005212412514
7364860 26 18190741920998167849
81228 2 18267297827526953153

> <PUBCHEM_SHAPE_MULTIPOLES>
245.83
3.77
2.56
0.59
0.09
0.6
0
-1.47
0
-0.57
0
0.04
0.03
0

> <PUBCHEM_SHAPE_SELFOVERLAP>
544.56

> <PUBCHEM_SHAPE_VOLUME>
131.3

> <PUBCHEM_COORDINATE_TYPE>
2
5
10

$$$$

