17395734
  -OEChem-06241222523D

 47 49  0     0  0  0  0  0  0999 V2000
    0.5464   -0.9363    1.1986 O   0  0  0  0  0  0  0  0  0  0  0  0
    4.1290    2.7014    0.9436 O   0  0  0  0  0  0  0  0  0  0  0  0
   -3.8401   -1.2631    0.7286 N   0  0  0  0  0  0  0  0  0  0  0  0
    1.8738   -2.1555   -0.2645 N   0  0  0  0  0  0  0  0  0  0  0  0
   -1.7306   -1.1580   -0.4411 C   0  0  0  0  0  0  0  0  0  0  0  0
   -2.0319    0.1286   -0.8639 C   0  0  0  0  0  0  0  0  0  0  0  0
   -3.2429    0.7277   -0.4912 C   0  0  0  0  0  0  0  0  0  0  0  0
   -0.4499   -1.8208   -0.8235 C   0  0  0  0  0  0  0  0  0  0  0  0
   -2.6610   -1.8050    0.3469 C   0  0  0  0  0  0  0  0  0  0  0  0
   -4.1297   -0.0142    0.3168 C   0  0  0  0  0  0  0  0  0  0  0  0
   -1.0373    0.8542   -1.7195 C   0  0  0  0  0  0  0  0  0  0  0  0
    0.6862   -1.5767    0.1597 C   0  0  0  0  0  0  0  0  0  0  0  0
   -3.5776    2.0289   -0.9029 C   0  0  0  0  0  0  0  0  0  0  0  0
   -2.4016   -3.1915    0.8378 C   0  0  0  0  0  0  0  0  0  0  0  0
   -5.3325    0.5813    0.6866 C   0  0  0  0  0  0  0  0  0  0  0  0
    3.0995   -2.0612    0.4935 C   0  0  0  0  0  0  0  0  0  0  0  0
    3.8586   -0.8409    0.0697 C   0  0  0  0  0  0  0  0  0  0  0  0
   -4.7873    2.5999   -0.5183 C   0  0  0  0  0  0  0  0  0  0  0  0
   -5.6655    1.8750    0.2775 C   0  0  0  0  0  0  0  0  0  0  0  0
    3.6389    0.3769    0.7135 C   0  0  0  0  0  0  0  0  0  0  0  0
    4.7835   -0.9225   -0.9714 C   0  0  0  0  0  0  0  0  0  0  0  0
    4.3443    1.5130    0.3166 C   0  0  0  0  0  0  0  0  0  0  0  0
    5.4888    0.2135   -1.3687 C   0  0  0  0  0  0  0  0  0  0  0  0
    5.2693    1.4312   -0.7243 C   0  0  0  0  0  0  0  0  0  0  0  0
    3.1694    2.7141    1.9996 C   0  0  0  0  0  0  0  0  0  0  0  0
   -0.5816   -2.9064   -0.9090 H   0  0  0  0  0  0  0  0  0  0  0  0
   -0.1292   -1.5331   -1.8317 H   0  0  0  0  0  0  0  0  0  0  0  0
   -1.0006    1.9236   -1.4904 H   0  0  0  0  0  0  0  0  0  0  0  0
   -1.2833    0.7237   -2.7780 H   0  0  0  0  0  0  0  0  0  0  0  0
   -0.0036    0.5375   -1.5571 H   0  0  0  0  0  0  0  0  0  0  0  0
   -2.9357    2.6279   -1.5410 H   0  0  0  0  0  0  0  0  0  0  0  0
   -1.4581   -3.2491    1.3892 H   0  0  0  0  0  0  0  0  0  0  0  0
   -3.1934   -3.5100    1.5253 H   0  0  0  0  0  0  0  0  0  0  0  0
   -2.3908   -3.9030    0.0063 H   0  0  0  0  0  0  0  0  0  0  0  0
    2.8750   -2.0315    1.5659 H   0  0  0  0  0  0  0  0  0  0  0  0
    3.6808   -2.9707    0.3065 H   0  0  0  0  0  0  0  0  0  0  0  0
   -6.0378    0.0342    1.3094 H   0  0  0  0  0  0  0  0  0  0  0  0
    1.8970   -2.6544   -1.1493 H   0  0  0  0  0  0  0  0  0  0  0  0
   -5.0453    3.6037   -0.8419 H   0  0  0  0  0  0  0  0  0  0  0  0
   -6.6122    2.3123    0.5814 H   0  0  0  0  0  0  0  0  0  0  0  0
    2.9142    0.3849    1.5202 H   0  0  0  0  0  0  0  0  0  0  0  0
    4.9621   -1.8648   -1.4825 H   0  0  0  0  0  0  0  0  0  0  0  0
    6.2083    0.1502   -2.1797 H   0  0  0  0  0  0  0  0  0  0  0  0
    5.8213    2.3128   -1.0384 H   0  0  0  0  0  0  0  0  0  0  0  0
    2.1665    2.4658    1.6357 H   0  0  0  0  0  0  0  0  0  0  0  0
    3.4795    2.0749    2.8331 H   0  0  0  0  0  0  0  0  0  0  0  0
    3.1248    3.7389    2.3829 H   0  0  0  0  0  0  0  0  0  0  0  0
  1 12  2  0  0  0  0
  2 22  1  0  0  0  0
  2 25  1  0  0  0  0
  3  9  2  0  0  0  0
  3 10  1  0  0  0  0
  4 12  1  0  0  0  0
  4 16  1  0  0  0  0
  4 38  1  0  0  0  0
  5  6  2  0  0  0  0
  5  8  1  0  0  0  0
  5  9  1  0  0  0  0
  6  7  1  0  0  0  0
  6 11  1  0  0  0  0
  7 10  1  0  0  0  0
  7 13  2  0  0  0  0
  8 12  1  0  0  0  0
  8 26  1  0  0  0  0
  8 27  1  0  0  0  0
  9 14  1  0  0  0  0
 10 15  2  0  0  0  0
 11 28  1  0  0  0  0
 11 29  1  0  0  0  0
 11 30  1  0  0  0  0
 13 18  1  0  0  0  0
 13 31  1  0  0  0  0
 14 32  1  0  0  0  0
 14 33  1  0  0  0  0
 14 34  1  0  0  0  0
 15 19  1  0  0  0  0
 15 37  1  0  0  0  0
 16 17  1  0  0  0  0
 16 35  1  0  0  0  0
 16 36  1  0  0  0  0
 17 20  2  0  0  0  0
 17 21  1  0  0  0  0
 18 19  2  0  0  0  0
 18 39  1  0  0  0  0
 19 40  1  0  0  0  0
 20 22  1  0  0  0  0
 20 41  1  0  0  0  0
 21 23  2  0  0  0  0
 21 42  1  0  0  0  0
 22 24  2  0  0  0  0
 23 24  1  0  0  0  0
 23 43  1  0  0  0  0
 24 44  1  0  0  0  0
 25 45  1  0  0  0  0
 25 46  1  0  0  0  0
 25 47  1  0  0  0  0
M  END
> <PUBCHEM_COMPOUND_CID>
17395734

> <PUBCHEM_CONFORMER_RMSD>
0.8

> <PUBCHEM_CONFORMER_DIVERSEORDER>
21
95
5
105
151
73
76
30
80
180
98
153
178
164
117
57
115
191
173
94
103
46
12
100
58
72
187
4
99
41
118
171
93
139
56
26
168
55
130
25
10
14
143
119
148
162
104
172
48
152
184
13
165
51
78
60
62
32
132
81
144
176
33
91
52
87
29
125
106
188
61
23
86
177
185
179
189
88
109
126
67
69
7
116
159
34
129
107
110
141
54
150
8
31
169
140
27
128
101
146
138
135
11
66
68
84
156
124
1
83
53
6
147
134
37
59
136
182
154
186
85
28
123
170
167
155
137
19
75
133
92
47
174
2
17
127
190
193
16
77
35
63
195
49
18
145
3
40
192
163
70
45
111
114
149
183
43
22
113
142
9
161
42
64
65
74
181
158
82
44
108
122
39
175
120
89
131
194
71
20
102
121
90
38
96
166
36
15
79
160
157
97
112
50
24

> <PUBCHEM_MMFF94_PARTIAL_CHARGES>
33
1 -0.57
10 0.31
11 0.14
12 0.57
13 -0.15
14 0.14
15 -0.15
16 0.44
17 -0.14
18 -0.15
19 -0.15
2 -0.36
20 -0.15
21 -0.15
22 0.08
23 -0.15
24 -0.15
25 0.28
3 -0.62
31 0.15
37 0.15
38 0.37
39 0.15
4 -0.73
40 0.15
41 0.15
42 0.15
43 0.15
44 0.15
5 -0.14
6 -0.14
8 0.2
9 0.17

> <PUBCHEM_EFFECTIVE_ROTOR_COUNT>
6

> <PUBCHEM_PHARMACOPHORE_FEATURES>
7
1 1 acceptor
1 2 acceptor
1 3 acceptor
1 4 donor
6 17 20 21 22 23 24 rings
6 3 5 6 7 9 10 rings
6 7 10 13 15 18 19 rings

> <PUBCHEM_HEAVY_ATOM_COUNT>
25

> <PUBCHEM_ATOM_DEF_STEREO_COUNT>
0

> <PUBCHEM_ATOM_UDEF_STEREO_COUNT>
0

> <PUBCHEM_BOND_DEF_STEREO_COUNT>
0

> <PUBCHEM_BOND_UDEF_STEREO_COUNT>
0

> <PUBCHEM_ISOTOPIC_ATOM_COUNT>
0

> <PUBCHEM_COMPONENT_COUNT>
1

> <PUBCHEM_CACTVS_TAUTO_COUNT>
2

> <PUBCHEM_CONFORMER_ID>
0109701600000015

> <PUBCHEM_MMFF94_ENERGY>
80.3725

> <PUBCHEM_FEATURE_SELFOVERLAP>
35.552

> <PUBCHEM_SHAPE_FINGERPRINT>
10693767 8 9438245686764274353
11045977 3 18410007758169690238
11405975 8 18272940452982954554
11595378 159 16487265395241991612
11720765 8 17895748617545964748
11796584 16 8142091926928252559
12390115 104 18338505439506159091
12788726 201 17750513060421399288
12925494 130 18338519741895779505
13878862 14 18055095369116393925
14341114 328 17203608168715064430
14429115 67 10519984893733296744
14790565 3 18196650920293887221
14848178 5 9223229645899119508
15183329 4 5689593853673191021
15238133 3 18340775914212369570
17868525 174 18056211408380003578
1813 80 15913320316931730703
21033648 29 18335705984254776384
21864079 5 18262533502405646918
22122407 14 17968365849463921233
22289505 5 18259697913894979340
23227448 37 18410857637929951071
23559900 14 18192436487666319706
2747138 104 17985253085182930795
2838139 119 18336837488787920125
34797466 226 17967525788146481143
4371632 12 17535785943093929833
508706 21 18340773624092505913
5104073 3 18059858389047917122
5252454 2 18272658960783604942
7808743 9 18343864407097207762
960060 61 13912327867591995418

> <PUBCHEM_SHAPE_MULTIPOLES>
492.79
13.93
3.31
1.34
2.85
0.05
0.07
8.29
-0.32
-0.48
0.95
0.84
0.55
1.73

> <PUBCHEM_SHAPE_SELFOVERLAP>
1067.964

> <PUBCHEM_SHAPE_VOLUME>
269.9

> <PUBCHEM_COORDINATE_TYPE>
2
5
10

$$$$

