11954075
  -OEChem-07051213062D

 39 40  0     1  0  0  0  0  0999 V2000
    7.6811    0.6095    0.0000 S   0  0  0  0  0  0  0  0  0  0  0  0
    4.2690   -0.3025    0.0000 O   0  0  0  0  0  0  0  0  0  0  0  0
    8.6130    3.4610    0.0000 O   0  0  0  0  0  0  0  0  0  0  0  0
    7.3239    2.3043    0.0000 O   0  0  0  0  0  0  0  0  0  0  0  0
    9.5916    3.6673    0.0000 O   0  0  0  0  0  0  0  0  0  0  0  0
    6.0812   -1.4978    0.0000 N   0  0  0  0  0  0  0  0  0  0  0  0
    6.0812   -3.1072    0.0000 N   0  0  0  0  0  0  0  0  0  0  0  0
    4.2690   -3.3025    0.0000 N   0  0  0  0  0  0  0  0  0  0  0  0
    9.9487    1.9724    0.0000 N   0  0  0  0  0  0  0  0  0  0  0  0
    3.4030   -1.8025    0.0000 N   0  0  0  0  0  0  0  0  0  0  0  0
    2.5369   -3.3025    0.0000 N   0  0  0  0  0  0  0  0  0  0  0  0
    6.3919   -0.5473    0.0000 C   0  0  0  0  0  0  0  0  0  0  0  0
    7.3704   -0.3410    0.0000 C   0  0  0  0  0  0  0  0  0  0  0  0
    5.1350   -1.8025    0.0000 C   0  0  0  0  0  0  0  0  0  0  0  0
    8.9702    1.7662    0.0000 C   0  0  1  0  0  0  0  0  0  0  0  0
    8.6596    0.8157    0.0000 C   0  0  0  0  0  0  0  0  0  0  0  0
    5.1350   -2.8025    0.0000 C   0  0  0  0  0  0  0  0  0  0  0  0
    6.6648   -2.3025    0.0000 C   0  0  0  0  0  0  0  0  0  0  0  0
    4.2690   -1.3025    0.0000 C   0  0  0  0  0  0  0  0  0  0  0  0
    8.3024    2.5105    0.0000 C   0  0  0  0  0  0  0  0  0  0  0  0
    3.4030   -2.8025    0.0000 C   0  0  0  0  0  0  0  0  0  0  0  0
   10.2594    2.9230    0.0000 C   0  0  0  0  0  0  0  0  0  0  0  0
   11.2379    3.1292    0.0000 C   0  0  0  0  0  0  0  0  0  0  0  0
    6.3713    0.0724    0.0000 H   0  0  0  0  0  0  0  0  0  0  0  0
    5.7781   -0.4599    0.0000 H   0  0  0  0  0  0  0  0  0  0  0  0
    7.3910   -0.9607    0.0000 H   0  0  0  0  0  0  0  0  0  0  0  0
    7.9842   -0.4284    0.0000 H   0  0  0  0  0  0  0  0  0  0  0  0
    9.3843    1.3048    0.0000 H   0  0  0  0  0  0  0  0  0  0  0  0
    8.6801    0.1960    0.0000 H   0  0  0  0  0  0  0  0  0  0  0  0
    9.2734    0.7284    0.0000 H   0  0  0  0  0  0  0  0  0  0  0  0
    7.2848   -2.3025    0.0000 H   0  0  0  0  0  0  0  0  0  0  0  0
    4.2690   -3.9225    0.0000 H   0  0  0  0  0  0  0  0  0  0  0  0
   10.3628    1.5110    0.0000 H   0  0  0  0  0  0  0  0  0  0  0  0
   11.3658    2.5225    0.0000 H   0  0  0  0  0  0  0  0  0  0  0  0
   11.8446    3.2570    0.0000 H   0  0  0  0  0  0  0  0  0  0  0  0
   11.1100    3.7358    0.0000 H   0  0  0  0  0  0  0  0  0  0  0  0
    2.0000   -2.9925    0.0000 H   0  0  0  0  0  0  0  0  0  0  0  0
    2.5369   -3.9225    0.0000 H   0  0  0  0  0  0  0  0  0  0  0  0
    8.1990    3.9225    0.0000 H   0  0  0  0  0  0  0  0  0  0  0  0
  1 13  1  0  0  0  0
  1 16  1  0  0  0  0
  2 19  2  0  0  0  0
  3 20  1  0  0  0  0
  3 39  1  0  0  0  0
  4 20  2  0  0  0  0
  5 22  2  0  0  0  0
  6 12  1  0  0  0  0
  6 14  1  0  0  0  0
  6 18  1  0  0  0  0
  7 17  1  0  0  0  0
  7 18  2  0  0  0  0
  8 17  1  0  0  0  0
  8 21  1  0  0  0  0
  8 32  1  0  0  0  0
 15  9  1  1  0  0  0
  9 22  1  0  0  0  0
  9 33  1  0  0  0  0
 10 19  1  0  0  0  0
 10 21  2  0  0  0  0
 11 21  1  0  0  0  0
 11 37  1  0  0  0  0
 11 38  1  0  0  0  0
 12 13  1  0  0  0  0
 12 24  1  0  0  0  0
 12 25  1  0  0  0  0
 13 26  1  0  0  0  0
 13 27  1  0  0  0  0
 14 17  2  0  0  0  0
 14 19  1  0  0  0  0
 15 16  1  0  0  0  0
 15 20  1  0  0  0  0
 15 28  1  0  0  0  0
 16 29  1  0  0  0  0
 16 30  1  0  0  0  0
 18 31  1  0  0  0  0
 22 23  1  0  0  0  0
 23 34  1  0  0  0  0
 23 35  1  0  0  0  0
 23 36  1  0  0  0  0
M  END
> <PUBCHEM_COMPOUND_CID>
11954075

> <PUBCHEM_COMPOUND_CANONICALIZED>
1

> <PUBCHEM_CACTVS_COMPLEXITY>
528

> <PUBCHEM_CACTVS_HBOND_ACCEPTOR>
6

> <PUBCHEM_CACTVS_HBOND_DONOR>
4

> <PUBCHEM_CACTVS_ROTATABLE_BOND>
7

> <PUBCHEM_CACTVS_SUBSKEYS>
AAADceBzuABAAAAAAAAAAAAAAAAAAWAAAAAgAAAAAAAAAEABgAAAHgQQCAAACCjF1gSHuBfMEgioAQfxfACAgC0XELABUIGoVECCSAhgSCAUQIAIFgLwAGAAAAAAAAAAAAAAAAAAAAAAAAAAAAAAAAAAAA==

> <PUBCHEM_IUPAC_OPENEYE_NAME>
(2R)-2-acetamido-3-[2-(2-amino-6-oxo-3H-purin-7-yl)ethylsulfanyl]propanoic acid

> <PUBCHEM_IUPAC_CAS_NAME>
(2R)-2-acetamido-3-[2-(2-amino-6-oxo-3H-purin-7-yl)ethylthio]propanoic acid

> <PUBCHEM_IUPAC_NAME>
(2R)-2-acetamido-3-[2-(2-amino-6-oxo-3H-purin-7-yl)ethylsulfanyl]propanoic acid

> <PUBCHEM_IUPAC_SYSTEMATIC_NAME>
(2R)-2-acetamido-3-[2-(2-azanyl-6-oxidanylidene-3H-purin-7-yl)ethylsulfanyl]propanoic acid

> <PUBCHEM_IUPAC_TRADITIONAL_NAME>
(2R)-2-acetamido-3-[2-(2-amino-6-keto-3H-purin-7-yl)ethylthio]propionic acid

> <PUBCHEM_IUPAC_INCHI>
InChI=1S/C12H16N6O4S/c1-6(19)15-7(11(21)22)4-23-3-2-18-5-14-9-8(18)10(20)17-12(13)16-9/h5,7H,2-4H2,1H3,(H,15,19)(H,21,22)(H3,13,16,17,20)/t7-/m0/s1

> <PUBCHEM_IUPAC_INCHIKEY>
QTHQULFDYKSQCN-ZETCQYMHSA-N

> <PUBCHEM_XLOGP3_AA>
-1.6

> <PUBCHEM_EXACT_MASS>
340.095374

> <PUBCHEM_MOLECULAR_FORMULA>
C12H16N6O4S

> <PUBCHEM_MOLECULAR_WEIGHT>
340.35824

> <PUBCHEM_OPENEYE_CAN_SMILES>
CC(=O)NC(CSCCN1C=NC2=C1C(=O)N=C(N2)N)C(=O)O

> <PUBCHEM_OPENEYE_ISO_SMILES>
CC(=O)N[C@@H](CSCCN1C=NC2=C1C(=O)N=C(N2)N)C(=O)O

> <PUBCHEM_CACTVS_TPSA>
177

> <PUBCHEM_MONOISOTOPIC_WEIGHT>
340.095374

> <PUBCHEM_TOTAL_CHARGE>
0

> <PUBCHEM_HEAVY_ATOM_COUNT>
23

> <PUBCHEM_ATOM_DEF_STEREO_COUNT>
1

> <PUBCHEM_ATOM_UDEF_STEREO_COUNT>
0

> <PUBCHEM_BOND_DEF_STEREO_COUNT>
0

> <PUBCHEM_BOND_UDEF_STEREO_COUNT>
0

> <PUBCHEM_ISOTOPIC_ATOM_COUNT>
0

> <PUBCHEM_COMPONENT_COUNT>
1

> <PUBCHEM_CACTVS_TAUTO_COUNT>
18

> <PUBCHEM_COORDINATE_TYPE>
1
5
255

> <PUBCHEM_BONDANNOTATIONS>
10  19  8
10  21  8
14  17  8
14  19  8
6  14  8
6  18  8
7  17  8
7  18  8
8  17  8
8  21  8
15  9  5

$$$$

