47205771
  -OEChem-06241223003D

 39 39  0     0  0  0  0  0  0999 V2000
   -4.1364   -1.4398   -0.0435 S   0  0  0  0  0  0  0  0  0  0  0  0
    0.9820   -1.8565   -1.4750 O   0  0  0  0  0  0  0  0  0  0  0  0
    3.0577   -2.0538    1.5250 O   0  0  0  0  0  0  0  0  0  0  0  0
    2.1027   -0.2342   -0.2447 N   0  0  0  0  0  0  0  0  0  0  0  0
    4.9901   -2.4070    0.3305 N   0  0  0  0  0  0  0  0  0  0  0  0
    2.1064    0.9856    0.5607 C   0  0  0  0  0  0  0  0  0  0  0  0
    2.2382    2.2444   -0.2901 C   0  0  0  0  0  0  0  0  0  0  0  0
    2.2701    3.5222    0.5514 C   0  0  0  0  0  0  0  0  0  0  0  0
    3.4133   -0.8079   -0.5209 C   0  0  0  0  0  0  0  0  0  0  0  0
    0.9616   -0.8439   -0.7740 C   0  0  0  0  0  0  0  0  0  0  0  0
    2.4625    4.7549   -0.3182 C   0  0  0  0  0  0  0  0  0  0  0  0
    3.7633   -1.8176    0.5480 C   0  0  0  0  0  0  0  0  0  0  0  0
   -0.3395   -0.1776   -0.4716 C   0  0  0  0  0  0  0  0  0  0  0  0
   -1.4550   -0.9169   -0.3805 C   0  0  0  0  0  0  0  0  0  0  0  0
   -2.7993   -0.3730   -0.1191 C   0  0  0  0  0  0  0  0  0  0  0  0
   -3.1707    0.9370    0.0894 C   0  0  0  0  0  0  0  0  0  0  0  0
   -5.2176   -0.1491    0.2686 C   0  0  0  0  0  0  0  0  0  0  0  0
   -4.5717    1.0668    0.3141 C   0  0  0  0  0  0  0  0  0  0  0  0
   -6.6576   -0.4337    0.4499 C   0  0  0  0  0  0  0  0  0  0  0  0
    1.1958    1.0337    1.1667 H   0  0  0  0  0  0  0  0  0  0  0  0
    2.9367    0.9245    1.2753 H   0  0  0  0  0  0  0  0  0  0  0  0
    1.4129    2.3019   -1.0097 H   0  0  0  0  0  0  0  0  0  0  0  0
    3.1569    2.1844   -0.8871 H   0  0  0  0  0  0  0  0  0  0  0  0
    3.0864    3.4665    1.2808 H   0  0  0  0  0  0  0  0  0  0  0  0
    1.3351    3.6177    1.1153 H   0  0  0  0  0  0  0  0  0  0  0  0
    3.3959   -1.3212   -1.4888 H   0  0  0  0  0  0  0  0  0  0  0  0
    4.1726   -0.0200   -0.5597 H   0  0  0  0  0  0  0  0  0  0  0  0
    1.6470    4.8556   -1.0415 H   0  0  0  0  0  0  0  0  0  0  0  0
    2.4801    5.6567    0.3017 H   0  0  0  0  0  0  0  0  0  0  0  0
    3.4068    4.7032   -0.8694 H   0  0  0  0  0  0  0  0  0  0  0  0
   -0.3643    0.8985   -0.3628 H   0  0  0  0  0  0  0  0  0  0  0  0
   -1.3890   -1.9961   -0.5043 H   0  0  0  0  0  0  0  0  0  0  0  0
   -2.4876    1.7769    0.0861 H   0  0  0  0  0  0  0  0  0  0  0  0
   -5.0752    2.0072    0.4992 H   0  0  0  0  0  0  0  0  0  0  0  0
    5.3605   -3.0953    0.9774 H   0  0  0  0  0  0  0  0  0  0  0  0
    5.5632   -2.1849   -0.4773 H   0  0  0  0  0  0  0  0  0  0  0  0
   -7.2201    0.4863    0.6418 H   0  0  0  0  0  0  0  0  0  0  0  0
   -6.8207   -1.1045    1.3001 H   0  0  0  0  0  0  0  0  0  0  0  0
   -7.0811   -0.8995   -0.4462 H   0  0  0  0  0  0  0  0  0  0  0  0
  1 15  1  0  0  0  0
  1 17  1  0  0  0  0
  2 10  2  0  0  0  0
  3 12  2  0  0  0  0
  4  6  1  0  0  0  0
  4  9  1  0  0  0  0
  4 10  1  0  0  0  0
  5 12  1  0  0  0  0
  5 35  1  0  0  0  0
  5 36  1  0  0  0  0
  6  7  1  0  0  0  0
  6 20  1  0  0  0  0
  6 21  1  0  0  0  0
  7  8  1  0  0  0  0
  7 22  1  0  0  0  0
  7 23  1  0  0  0  0
  8 11  1  0  0  0  0
  8 24  1  0  0  0  0
  8 25  1  0  0  0  0
  9 12  1  0  0  0  0
  9 26  1  0  0  0  0
  9 27  1  0  0  0  0
 10 13  1  0  0  0  0
 11 28  1  0  0  0  0
 11 29  1  0  0  0  0
 11 30  1  0  0  0  0
 13 14  2  0  0  0  0
 13 31  1  0  0  0  0
 14 15  1  0  0  0  0
 14 32  1  0  0  0  0
 15 16  2  0  0  0  0
 16 18  1  0  0  0  0
 16 33  1  0  0  0  0
 17 18  2  0  0  0  0
 17 19  1  0  0  0  0
 18 34  1  0  0  0  0
 19 37  1  0  0  0  0
 19 38  1  0  0  0  0
 19 39  1  0  0  0  0
M  END
> <PUBCHEM_COMPOUND_CID>
47205771

> <PUBCHEM_CONFORMER_RMSD>
1

> <PUBCHEM_CONFORMER_DIVERSEORDER>
1
82
72
57
8
45
75
47
60
38
51
30
62
73
67
70
79
32
65
31
29
20
19
68
64
59
18
56
49
78
42
7
61
81
22
5
43
83
12
76
2
52
63
77
40
36
10
9
41
28
4
55
50
69
48
14
24
23
80
16
15
3
35
37
27
34
66
46
39
11
58
13
33
21
71
74
26
54
53
44
6
25
17

> <PUBCHEM_MMFF94_PARTIAL_CHARGES>
22
1 -0.08
10 0.62
12 0.57
13 -0.14
14 -0.11
15 -0.01
16 -0.15
17 -0.14
18 -0.15
19 0.18
2 -0.57
3 -0.57
31 0.15
32 0.15
33 0.15
34 0.15
35 0.37
36 0.37
4 -0.66
5 -0.8
6 0.3
9 0.36

> <PUBCHEM_EFFECTIVE_ROTOR_COUNT>
8

> <PUBCHEM_PHARMACOPHORE_FEATURES>
5
1 11 hydrophobe
1 2 acceptor
1 3 acceptor
1 5 donor
5 1 15 16 17 18 rings

> <PUBCHEM_HEAVY_ATOM_COUNT>
19

> <PUBCHEM_ATOM_DEF_STEREO_COUNT>
0

> <PUBCHEM_ATOM_UDEF_STEREO_COUNT>
0

> <PUBCHEM_BOND_DEF_STEREO_COUNT>
0

> <PUBCHEM_BOND_UDEF_STEREO_COUNT>
1

> <PUBCHEM_ISOTOPIC_ATOM_COUNT>
0

> <PUBCHEM_COMPONENT_COUNT>
1

> <PUBCHEM_CACTVS_TAUTO_COUNT>
2

> <PUBCHEM_CONFORMER_ID>
02D04D8B00000001

> <PUBCHEM_MMFF94_ENERGY>
32.6346

> <PUBCHEM_FEATURE_SELFOVERLAP>
25.371

> <PUBCHEM_SHAPE_FINGERPRINT>
10937287 8 17617942430931413172
11405975 8 18410008819633494723
12166972 35 18040997366574062635
12403259 118 18113619032322164841
12403260 363 18333453149353829637
12507557 5 18335424607772104561
12516196 113 18340490070990388882
12616971 3 18186241719533778663
12617007 42 17822554084955131516
12633257 1 18336540637955091649
12788726 201 17911801585610802842
13533116 47 18271804588920172835
13583140 156 18272077267498101483
13878862 14 18268732570665264877
13955234 65 18340485552173006400
14341114 176 18409728473842714747
14466204 15 18194403518283639441
14849402 71 18341328886593044336
15342168 16 18193556658344908373
15842332 3 17824844251083982974
17868525 174 18269846456978835145
17980427 23 17169294597092986700
18785283 64 18410011001012670276
20369508 70 18343304785917501186
20671657 1 18339078181742428908
20739085 24 18334297595748430432
21065198 57 18411136914178785651
21315763 129 18336828684574591517
21315764 268 18342179960485822709
21709351 56 18334019406242301871
2255824 54 18409730621526770742
23558518 356 17762903160955302870
23559900 14 18411984641759556771
25147074 1 17896895265342860943
31174 14 18343028778465748636
3286 77 18343582970927904469
345986 75 17556596644527803986
351380 180 18410293631773329411
4409770 3 17551805037104632132
465052 167 18411415141675489054
474 4 18267585702332300553
5104073 3 18337943507839938731
7495541 125 18342452651420781039
77188 2 18339644559596944252
9841814 1 18341618126817391658
9981440 41 17763187942772131520

> <PUBCHEM_SHAPE_MULTIPOLES>
373.16
12.15
3.96
0.94
16.39
5.5
-0.02
-2.63
-2.6
-8.01
-0.18
-0.51
-0.36
-0.74

> <PUBCHEM_SHAPE_SELFOVERLAP>
733.594

> <PUBCHEM_SHAPE_VOLUME>
224.3

> <PUBCHEM_COORDINATE_TYPE>
2
5
10

$$$$

