113918
  -OEChem-07051213103D

 39 41  0     1  0  0  0  0  0999 V2000
   -1.6679   -1.4695    1.6521 S   0  0  0  0  0  0  0  0  0  0  0  0
    0.6694    2.3172   -1.1943 O   0  0  0  0  0  0  0  0  0  0  0  0
   -0.0549    0.2118   -0.4151 N   0  0  0  0  0  0  0  0  0  0  0  0
    2.5113    1.9974    0.8982 N   0  0  0  0  0  0  0  0  0  0  0  0
    2.3021    1.0030   -0.1376 C   0  0  1  0  0  0  0  0  0  0  0  0
    0.8988    1.2225   -0.6716 C   0  0  0  0  0  0  0  0  0  0  0  0
   -1.4596    0.5349   -0.2762 C   0  0  0  0  0  0  0  0  0  0  0  0
    0.2836   -1.1866   -0.3043 C   0  0  0  0  0  0  0  0  0  0  0  0
   -2.2935   -0.1692    0.6135 C   0  0  0  0  0  0  0  0  0  0  0  0
   -0.3801   -2.0517    0.5803 C   0  0  0  0  0  0  0  0  0  0  0  0
    3.3061    1.1546   -1.2598 C   0  0  0  0  0  0  0  0  0  0  0  0
   -2.0451    1.5676   -1.0325 C   0  0  0  0  0  0  0  0  0  0  0  0
    1.2629   -1.7407   -1.1503 C   0  0  0  0  0  0  0  0  0  0  0  0
    3.8500    1.8690    1.4830 C   0  0  0  0  0  0  0  0  0  0  0  0
    1.4926    1.8822    1.9467 C   0  0  0  0  0  0  0  0  0  0  0  0
   -3.6487    0.1732    0.7515 C   0  0  0  0  0  0  0  0  0  0  0  0
   -0.0208   -3.4068    0.6576 C   0  0  0  0  0  0  0  0  0  0  0  0
   -3.3964    1.8994   -0.8969 C   0  0  0  0  0  0  0  0  0  0  0  0
    1.6116   -3.0912   -1.0773 C   0  0  0  0  0  0  0  0  0  0  0  0
   -4.1976    1.2055   -0.0014 C   0  0  0  0  0  0  0  0  0  0  0  0
    0.9761   -3.9228   -0.1655 C   0  0  0  0  0  0  0  0  0  0  0  0
    2.4176    0.0095    0.3026 H   0  0  0  0  0  0  0  0  0  0  0  0
    3.4506    2.2060   -1.5386 H   0  0  0  0  0  0  0  0  0  0  0  0
    4.2836    0.7406   -0.9899 H   0  0  0  0  0  0  0  0  0  0  0  0
    2.9817    0.6429   -2.1714 H   0  0  0  0  0  0  0  0  0  0  0  0
   -1.4902    2.1129   -1.7886 H   0  0  0  0  0  0  0  0  0  0  0  0
    1.7464   -1.1379   -1.9118 H   0  0  0  0  0  0  0  0  0  0  0  0
    4.6354    2.1137    0.7608 H   0  0  0  0  0  0  0  0  0  0  0  0
    4.0345    0.8649    1.8820 H   0  0  0  0  0  0  0  0  0  0  0  0
    3.9785    2.5856    2.3030 H   0  0  0  0  0  0  0  0  0  0  0  0
    1.7170    2.5709    2.7704 H   0  0  0  0  0  0  0  0  0  0  0  0
    1.4394    0.8708    2.3664 H   0  0  0  0  0  0  0  0  0  0  0  0
    0.4980    2.1777    1.5987 H   0  0  0  0  0  0  0  0  0  0  0  0
   -4.2910   -0.3600    1.4494 H   0  0  0  0  0  0  0  0  0  0  0  0
   -0.5189   -4.0771    1.3550 H   0  0  0  0  0  0  0  0  0  0  0  0
   -3.8210    2.6957   -1.5016 H   0  0  0  0  0  0  0  0  0  0  0  0
    2.3723   -3.4912   -1.7413 H   0  0  0  0  0  0  0  0  0  0  0  0
   -5.2468    1.4624    0.1067 H   0  0  0  0  0  0  0  0  0  0  0  0
    1.2443   -4.9731   -0.1046 H   0  0  0  0  0  0  0  0  0  0  0  0
  1  9  1  0  0  0  0
  1 10  1  0  0  0  0
  2  6  2  0  0  0  0
  3  6  1  0  0  0  0
  3  7  1  0  0  0  0
  3  8  1  0  0  0  0
  4  5  1  0  0  0  0
  4 14  1  0  0  0  0
  4 15  1  0  0  0  0
  5  6  1  0  0  0  0
  5 11  1  0  0  0  0
  5 22  1  0  0  0  0
  7  9  1  0  0  0  0
  7 12  2  0  0  0  0
  8 10  1  0  0  0  0
  8 13  2  0  0  0  0
  9 16  2  0  0  0  0
 10 17  2  0  0  0  0
 11 23  1  0  0  0  0
 11 24  1  0  0  0  0
 11 25  1  0  0  0  0
 12 18  1  0  0  0  0
 12 26  1  0  0  0  0
 13 19  1  0  0  0  0
 13 27  1  0  0  0  0
 14 28  1  0  0  0  0
 14 29  1  0  0  0  0
 14 30  1  0  0  0  0
 15 31  1  0  0  0  0
 15 32  1  0  0  0  0
 15 33  1  0  0  0  0
 16 20  1  0  0  0  0
 16 34  1  0  0  0  0
 17 21  1  0  0  0  0
 17 35  1  0  0  0  0
 18 20  2  0  0  0  0
 18 36  1  0  0  0  0
 19 21  2  0  0  0  0
 19 37  1  0  0  0  0
 20 38  1  0  0  0  0
 21 39  1  0  0  0  0
M  END
> <PUBCHEM_COMPOUND_CID>
113918

> <PUBCHEM_CONFORMER_RMSD>
0.6

> <PUBCHEM_CONFORMER_DIVERSEORDER>
1
8
10
16
7
14
15
3
9
2
4
5
13
12
11
6

> <PUBCHEM_MMFF94_PARTIAL_CHARGES>
28
1 -0.2
10 0.1
12 -0.15
13 -0.15
14 0.27
15 0.27
16 -0.15
17 -0.15
18 -0.15
19 -0.15
2 -0.57
20 -0.15
21 -0.15
26 0.15
27 0.15
3 -0.29
34 0.15
35 0.15
36 0.15
37 0.15
38 0.15
39 0.15
4 -0.81
5 0.33
6 0.57
7 0.12
8 0.12
9 0.1

> <PUBCHEM_EFFECTIVE_ROTOR_COUNT>
3.4

> <PUBCHEM_PHARMACOPHORE_FEATURES>
5
1 2 acceptor
1 4 cation
6 1 3 7 8 9 10 rings
6 7 9 12 16 18 20 rings
6 8 10 13 17 19 21 rings

> <PUBCHEM_HEAVY_ATOM_COUNT>
21

> <PUBCHEM_ATOM_DEF_STEREO_COUNT>
0

> <PUBCHEM_ATOM_UDEF_STEREO_COUNT>
1

> <PUBCHEM_BOND_DEF_STEREO_COUNT>
0

> <PUBCHEM_BOND_UDEF_STEREO_COUNT>
0

> <PUBCHEM_ISOTOPIC_ATOM_COUNT>
0

> <PUBCHEM_COMPONENT_COUNT>
1

> <PUBCHEM_CACTVS_TAUTO_COUNT>
1

> <PUBCHEM_CONFORMER_ID>
0001BCFE00000001

> <PUBCHEM_MMFF94_ENERGY>
94.6508

> <PUBCHEM_FEATURE_SELFOVERLAP>
25.41

> <PUBCHEM_SHAPE_FINGERPRINT>
10165383 225 17976783598257653281
10764073 3 16336150874957205448
107951 10 17416947496796068722
1100329 8 17039223784281792960
12553582 1 17331953332155022367
12716301 132 18127677262908009822
12788726 201 17550388432277869538
12839892 36 18340495443820344603
13134695 92 17829057845987523735
13140716 1 18411425028784812306
13533116 47 18263639744827879353
13681431 1 17974567210502071054
14022347 108 16828939423969204838
14178342 30 18411976949768613009
15230672 131 18411981331447410940
15852999 172 18343308058835470505
16945 1 18040999591309151276
19049666 15 18126278881844470333
20028762 73 18046901577292957375
20600515 1 17048255147106437098
20642791 239 17192605604937588100
20691752 17 17202476866013754433
20775438 99 18125189180597713031
20905425 154 18048876587221249140
21524375 3 18262524688731952391
21731228 192 18337401430578190968
22112679 90 16971383341300705748
22182313 1 17988356083653987021
23419403 2 17480810546045300067
23559900 14 18129373972579472869
23728640 28 18123490284043370354
25222932 49 15690921864132987187
2748010 2 18127666319511064435
352729 6 18055341454042483349
4663303 62 18265337381483868305
495365 180 18267875054611120709
5265222 85 18196915709955273108
5895379 119 16012675666784387529
633830 44 17749381555487471145
7364860 26 18264491869890230167
7471813 234 17681853026285684085
81228 2 17543354856178838374
84936 182 18188769573426892961
84936 31 17752227198874878647
90316 7 17402046695545427290
9862522 239 18269563753493226018

> <PUBCHEM_SHAPE_MULTIPOLES>
420.19
5.6
4.2
1.55
2.95
4.04
0.44
-4.54
0.37
-2.8
0.05
-0.62
-0.47
1.8

> <PUBCHEM_SHAPE_SELFOVERLAP>
894.207

> <PUBCHEM_SHAPE_VOLUME>
235.3

> <PUBCHEM_COORDINATE_TYPE>
2
5
10

$$$$

