254630
  -OEChem-07051213063D

 45 47  0     0  0  0  0  0  0999 V2000
    1.4556   -1.7410   -0.3344 O   0  0  0  0  0  0  0  0  0  0  0  0
    5.9063   -0.1982    0.0579 O   0  0  0  0  0  0  0  0  0  0  0  0
   -6.0428    0.4739   -0.2471 O   0  0  0  0  0  0  0  0  0  0  0  0
    0.0824   -1.5946    0.0968 C   0  0  0  0  0  0  0  0  0  0  0  0
   -0.4594   -0.1729   -0.0770 C   0  0  0  0  0  0  0  0  0  0  0  0
    0.3574    0.9015   -0.1517 C   0  0  0  0  0  0  0  0  0  0  0  0
    1.8112    0.6443   -0.0593 C   0  0  0  0  0  0  0  0  0  0  0  0
   -0.6715   -2.6325   -0.7559 C   0  0  0  0  0  0  0  0  0  0  0  0
    0.0272   -2.0347    1.5709 C   0  0  0  0  0  0  0  0  0  0  0  0
    2.2821   -0.6684   -0.1601 C   0  0  0  0  0  0  0  0  0  0  0  0
   -1.9278   -0.0025   -0.1224 C   0  0  0  0  0  0  0  0  0  0  0  0
   -0.0964    2.3322   -0.2995 C   0  0  0  0  0  0  0  0  0  0  0  0
    2.7590    1.6699    0.0962 C   0  0  0  0  0  0  0  0  0  0  0  0
    3.6519   -0.9521   -0.1346 C   0  0  0  0  0  0  0  0  0  0  0  0
   -2.5896   -0.0257   -1.3464 C   0  0  0  0  0  0  0  0  0  0  0  0
   -2.6385    0.1796    1.0604 C   0  0  0  0  0  0  0  0  0  0  0  0
    4.5746    0.0771    0.0211 C   0  0  0  0  0  0  0  0  0  0  0  0
    4.1277    1.3882    0.1401 C   0  0  0  0  0  0  0  0  0  0  0  0
   -3.9745    0.1349   -1.3882 C   0  0  0  0  0  0  0  0  0  0  0  0
   -4.0235    0.3401    1.0186 C   0  0  0  0  0  0  0  0  0  0  0  0
   -4.6916    0.3177   -0.2057 C   0  0  0  0  0  0  0  0  0  0  0  0
    6.7944    0.9068    0.2214 C   0  0  0  0  0  0  0  0  0  0  0  0
   -6.7141    0.6565    0.9988 C   0  0  0  0  0  0  0  0  0  0  0  0
   -1.7171   -2.7487   -0.4526 H   0  0  0  0  0  0  0  0  0  0  0  0
   -0.6390   -2.3644   -1.8185 H   0  0  0  0  0  0  0  0  0  0  0  0
   -0.1938   -3.6171   -0.6781 H   0  0  0  0  0  0  0  0  0  0  0  0
    0.5572   -1.3258    2.2179 H   0  0  0  0  0  0  0  0  0  0  0  0
   -1.0005   -2.1266    1.9362 H   0  0  0  0  0  0  0  0  0  0  0  0
    0.5234   -3.0033    1.7059 H   0  0  0  0  0  0  0  0  0  0  0  0
    0.3924    2.8037   -1.1594 H   0  0  0  0  0  0  0  0  0  0  0  0
    0.1416    2.9062    0.6026 H   0  0  0  0  0  0  0  0  0  0  0  0
   -1.1721    2.4357   -0.4646 H   0  0  0  0  0  0  0  0  0  0  0  0
    2.4566    2.7102    0.1860 H   0  0  0  0  0  0  0  0  0  0  0  0
    3.9972   -1.9788   -0.2300 H   0  0  0  0  0  0  0  0  0  0  0  0
   -2.0444   -0.1636   -2.2767 H   0  0  0  0  0  0  0  0  0  0  0  0
   -2.1312    0.2048    2.0216 H   0  0  0  0  0  0  0  0  0  0  0  0
    4.7864    2.2412    0.2642 H   0  0  0  0  0  0  0  0  0  0  0  0
   -4.4893    0.1174   -2.3449 H   0  0  0  0  0  0  0  0  0  0  0  0
   -4.5180    0.4791    1.9740 H   0  0  0  0  0  0  0  0  0  0  0  0
    6.7308    1.6020   -0.6226 H   0  0  0  0  0  0  0  0  0  0  0  0
    7.8128    0.5049    0.2291 H   0  0  0  0  0  0  0  0  0  0  0  0
    6.6404    1.4074    1.1833 H   0  0  0  0  0  0  0  0  0  0  0  0
   -6.3957    1.5791    1.4959 H   0  0  0  0  0  0  0  0  0  0  0  0
   -6.6080   -0.2212    1.6453 H   0  0  0  0  0  0  0  0  0  0  0  0
   -7.7811    0.7640    0.7783 H   0  0  0  0  0  0  0  0  0  0  0  0
  1  4  1  0  0  0  0
  1 10  1  0  0  0  0
  2 17  1  0  0  0  0
  2 22  1  0  0  0  0
  3 21  1  0  0  0  0
  3 23  1  0  0  0  0
  4  5  1  0  0  0  0
  4  8  1  0  0  0  0
  4  9  1  0  0  0  0
  5  6  2  0  0  0  0
  5 11  1  0  0  0  0
  6  7  1  0  0  0  0
  6 12  1  0  0  0  0
  7 10  2  0  0  0  0
  7 13  1  0  0  0  0
  8 24  1  0  0  0  0
  8 25  1  0  0  0  0
  8 26  1  0  0  0  0
  9 27  1  0  0  0  0
  9 28  1  0  0  0  0
  9 29  1  0  0  0  0
 10 14  1  0  0  0  0
 11 15  2  0  0  0  0
 11 16  1  0  0  0  0
 12 30  1  0  0  0  0
 12 31  1  0  0  0  0
 12 32  1  0  0  0  0
 13 18  2  0  0  0  0
 13 33  1  0  0  0  0
 14 17  2  0  0  0  0
 14 34  1  0  0  0  0
 15 19  1  0  0  0  0
 15 35  1  0  0  0  0
 16 20  2  0  0  0  0
 16 36  1  0  0  0  0
 17 18  1  0  0  0  0
 18 37  1  0  0  0  0
 19 21  2  0  0  0  0
 19 38  1  0  0  0  0
 20 21  1  0  0  0  0
 20 39  1  0  0  0  0
 22 40  1  0  0  0  0
 22 41  1  0  0  0  0
 22 42  1  0  0  0  0
 23 43  1  0  0  0  0
 23 44  1  0  0  0  0
 23 45  1  0  0  0  0
M  END
> <PUBCHEM_COMPOUND_CID>
254630

> <PUBCHEM_CONFORMER_RMSD>
0.6

> <PUBCHEM_CONFORMER_DIVERSEORDER>
1
4
2
3

> <PUBCHEM_MMFF94_PARTIAL_CHARGES>
28
1 -0.36
10 0.08
11 0.03
12 0.14
13 -0.15
14 -0.15
15 -0.15
16 -0.15
17 0.08
18 -0.15
19 -0.15
2 -0.36
20 -0.15
21 0.08
22 0.28
23 0.28
3 -0.36
33 0.15
34 0.15
35 0.15
36 0.15
37 0.15
38 0.15
39 0.15
4 0.42
5 -0.17
6 -0.17
7 0.03

> <PUBCHEM_EFFECTIVE_ROTOR_COUNT>
3.4

> <PUBCHEM_PHARMACOPHORE_FEATURES>
7
1 1 acceptor
1 2 acceptor
1 3 acceptor
3 4 8 9 hydrophobe
6 1 4 5 6 7 10 rings
6 11 15 16 19 20 21 rings
6 7 10 13 14 17 18 rings

> <PUBCHEM_HEAVY_ATOM_COUNT>
23

> <PUBCHEM_ATOM_DEF_STEREO_COUNT>
0

> <PUBCHEM_ATOM_UDEF_STEREO_COUNT>
0

> <PUBCHEM_BOND_DEF_STEREO_COUNT>
0

> <PUBCHEM_BOND_UDEF_STEREO_COUNT>
0

> <PUBCHEM_ISOTOPIC_ATOM_COUNT>
0

> <PUBCHEM_COMPONENT_COUNT>
1

> <PUBCHEM_CACTVS_TAUTO_COUNT>
1

> <PUBCHEM_CONFORMER_ID>
0003E2A600000001

> <PUBCHEM_MMFF94_ENERGY>
99.286

> <PUBCHEM_FEATURE_SELFOVERLAP>
35.549

> <PUBCHEM_SHAPE_FINGERPRINT>
10 15 17846221013004247008
10411042 1 17760645167715218478
10906281 52 18335686227405416068
11578080 2 17170412710345460946
11646440 116 18408597054992892745
11796584 16 15140681371300788092
12011746 2 18411415120806677452
12035758 1 17917422108352065905
12236239 1 17749108911453384357
12403259 415 18272663336917897460
12838862 33 18338254703668810928
12969540 114 18272103685493708031
13140716 1 18268146453604994064
13533116 47 17530963635782012078
13583140 156 16629983052377893716
14790565 3 18409443708826733204
15048467 5 17022903462406742321
15099037 51 18411420588168092060
15131766 46 15982829102068563092
15196674 1 18338518517623455758
16945 1 18409733997329036246
18681886 176 18041009397394766699
200 152 18041002851247519996
21033648 144 18191320294722786772
21033648 29 18059311893183018556
21033650 10 16444720862489614936
21236236 1 18338518521908620591
21267235 1 18340486785799239250
21279426 13 18127134301653282668
22224240 67 18131350795992207467
23184049 59 18412823573141595932
23402539 116 18113904840171732692
23536379 177 16443061712122155764
23557571 272 16415197936038555919
23559900 14 18115878404232102816
23569943 247 17680130057406629878
3178227 256 18272362075295548273
335352 9 18409448068903548780
34797466 226 15357696349198933544
34934 24 18412550886285300762
350125 39 18336265725293316040
404807 14 15364125430363455454
4340502 62 16630526249935061226
474 4 18408038494379600145
5104073 3 18268438928119453480
6669772 16 18341331179905685386
69090 78 18334861601863003486
7495541 125 16343690011788822677
9999458 23 17918273138873158230

> <PUBCHEM_SHAPE_MULTIPOLES>
455.72
13.4
1.97
1.07
0.08
0.69
0.06
-4.95
1.67
-0.85
0
1.18
0.22
-0.1

> <PUBCHEM_SHAPE_SELFOVERLAP>
989.401

> <PUBCHEM_SHAPE_VOLUME>
251.5

> <PUBCHEM_COORDINATE_TYPE>
2
5
10

$$$$

