2126
  -OEChem-07051213073D

 51 53  0     0  0  0  0  0  0999 V2000
   -0.8421   -1.6401   -0.7024 O   0  0  0  0  0  0  0  0  0  0  0  0
   -7.8105    1.0410    0.5066 O   0  0  0  0  0  0  0  0  0  0  0  0
   -7.7974   -1.1368   -0.1440 O   0  0  0  0  0  0  0  0  0  0  0  0
   -1.5713    0.4849   -0.0259 N   0  0  0  0  0  0  0  0  0  0  0  0
    4.2246   -1.6216    0.2940 C   0  0  0  0  0  0  0  0  0  0  0  0
    4.9061    1.3469   -0.0065 C   0  0  0  0  0  0  0  0  0  0  0  0
    5.6454   -1.0835    0.0135 C   0  0  0  0  0  0  0  0  0  0  0  0
    5.8585    0.2978    0.6091 C   0  0  0  0  0  0  0  0  0  0  0  0
    3.1537   -0.5551    0.0316 C   0  0  0  0  0  0  0  0  0  0  0  0
    3.4682    0.8202   -0.0994 C   0  0  0  0  0  0  0  0  0  0  0  0
    4.1172   -2.0795    1.7654 C   0  0  0  0  0  0  0  0  0  0  0  0
    4.0397   -2.8603   -0.6149 C   0  0  0  0  0  0  0  0  0  0  0  0
    5.0029    2.6042    0.8904 C   0  0  0  0  0  0  0  0  0  0  0  0
    5.3873    1.7249   -1.4250 C   0  0  0  0  0  0  0  0  0  0  0  0
    1.7982   -0.9467   -0.0461 C   0  0  0  0  0  0  0  0  0  0  0  0
    2.4190    1.7294   -0.3624 C   0  0  0  0  0  0  0  0  0  0  0  0
    0.7805   -0.0259   -0.2869 C   0  0  0  0  0  0  0  0  0  0  0  0
    1.0922    1.3132   -0.4536 C   0  0  0  0  0  0  0  0  0  0  0  0
   -0.6022   -0.4689   -0.3671 C   0  0  0  0  0  0  0  0  0  0  0  0
   -2.9796    0.3367    0.0123 C   0  0  0  0  0  0  0  0  0  0  0  0
   -3.5407   -0.8847   -0.3191 C   0  0  0  0  0  0  0  0  0  0  0  0
   -3.7629    1.4171    0.3802 C   0  0  0  0  0  0  0  0  0  0  0  0
   -4.9276   -1.0299   -0.2816 C   0  0  0  0  0  0  0  0  0  0  0  0
   -5.1497    1.2719    0.4179 C   0  0  0  0  0  0  0  0  0  0  0  0
   -5.7320    0.0482    0.0869 C   0  0  0  0  0  0  0  0  0  0  0  0
   -7.1777   -0.1031    0.1272 C   0  0  0  0  0  0  0  0  0  0  0  0
    5.8316   -1.0442   -1.0672 H   0  0  0  0  0  0  0  0  0  0  0  0
    6.3976   -1.7718    0.4203 H   0  0  0  0  0  0  0  0  0  0  0  0
    5.7194    0.2482    1.6964 H   0  0  0  0  0  0  0  0  0  0  0  0
    6.9029    0.5994    0.4561 H   0  0  0  0  0  0  0  0  0  0  0  0
    3.1592   -2.5742    1.9645 H   0  0  0  0  0  0  0  0  0  0  0  0
    4.9094   -2.7943    2.0159 H   0  0  0  0  0  0  0  0  0  0  0  0
    4.1912   -1.2383    2.4634 H   0  0  0  0  0  0  0  0  0  0  0  0
    4.8722   -3.5636   -0.4920 H   0  0  0  0  0  0  0  0  0  0  0  0
    3.1241   -3.4161   -0.3875 H   0  0  0  0  0  0  0  0  0  0  0  0
    3.9983   -2.5730   -1.6722 H   0  0  0  0  0  0  0  0  0  0  0  0
    6.0479    2.9058    1.0302 H   0  0  0  0  0  0  0  0  0  0  0  0
    4.4816    3.4666    0.4620 H   0  0  0  0  0  0  0  0  0  0  0  0
    4.5734    2.4174    1.8817 H   0  0  0  0  0  0  0  0  0  0  0  0
    6.4359    2.0437   -1.4149 H   0  0  0  0  0  0  0  0  0  0  0  0
    5.2980    0.8874   -2.1254 H   0  0  0  0  0  0  0  0  0  0  0  0
    4.8008    2.5520   -1.8421 H   0  0  0  0  0  0  0  0  0  0  0  0
    1.5354   -1.9920    0.0990 H   0  0  0  0  0  0  0  0  0  0  0  0
    2.6270    2.7854   -0.5159 H   0  0  0  0  0  0  0  0  0  0  0  0
    0.3486    2.0673   -0.6925 H   0  0  0  0  0  0  0  0  0  0  0  0
   -1.2566    1.4018    0.2790 H   0  0  0  0  0  0  0  0  0  0  0  0
   -2.9878   -1.7640   -0.6135 H   0  0  0  0  0  0  0  0  0  0  0  0
   -3.3193    2.3743    0.6394 H   0  0  0  0  0  0  0  0  0  0  0  0
   -5.3630   -1.9911   -0.5426 H   0  0  0  0  0  0  0  0  0  0  0  0
   -5.7381    2.1371    0.7103 H   0  0  0  0  0  0  0  0  0  0  0  0
   -8.7847    0.9283    0.5311 H   0  0  0  0  0  0  0  0  0  0  0  0
  1 19  2  0  0  0  0
  2 26  1  0  0  0  0
  2 51  1  0  0  0  0
  3 26  2  0  0  0  0
  4 19  1  0  0  0  0
  4 20  1  0  0  0  0
  4 46  1  0  0  0  0
  5  7  1  0  0  0  0
  5  9  1  0  0  0  0
  5 11  1  0  0  0  0
  5 12  1  0  0  0  0
  6  8  1  0  0  0  0
  6 10  1  0  0  0  0
  6 13  1  0  0  0  0
  6 14  1  0  0  0  0
  7  8  1  0  0  0  0
  7 27  1  0  0  0  0
  7 28  1  0  0  0  0
  8 29  1  0  0  0  0
  8 30  1  0  0  0  0
  9 10  2  0  0  0  0
  9 15  1  0  0  0  0
 10 16  1  0  0  0  0
 11 31  1  0  0  0  0
 11 32  1  0  0  0  0
 11 33  1  0  0  0  0
 12 34  1  0  0  0  0
 12 35  1  0  0  0  0
 12 36  1  0  0  0  0
 13 37  1  0  0  0  0
 13 38  1  0  0  0  0
 13 39  1  0  0  0  0
 14 40  1  0  0  0  0
 14 41  1  0  0  0  0
 14 42  1  0  0  0  0
 15 17  2  0  0  0  0
 15 43  1  0  0  0  0
 16 18  2  0  0  0  0
 16 44  1  0  0  0  0
 17 18  1  0  0  0  0
 17 19  1  0  0  0  0
 18 45  1  0  0  0  0
 20 21  2  0  0  0  0
 20 22  1  0  0  0  0
 21 23  1  0  0  0  0
 21 47  1  0  0  0  0
 22 24  2  0  0  0  0
 22 48  1  0  0  0  0
 23 25  2  0  0  0  0
 23 49  1  0  0  0  0
 24 25  1  0  0  0  0
 24 50  1  0  0  0  0
 25 26  1  0  0  0  0
M  END
> <PUBCHEM_COMPOUND_CID>
2126

> <PUBCHEM_CONFORMER_RMSD>
0.8

> <PUBCHEM_CONFORMER_DIVERSEORDER>
1
2
3
4
5

> <PUBCHEM_MMFF94_PARTIAL_CHARGES>
29
1 -0.57
10 -0.14
15 -0.15
16 -0.15
17 0.09
18 -0.15
19 0.54
2 -0.65
20 0.12
21 -0.15
22 -0.15
23 -0.15
24 -0.15
25 0.09
26 0.63
3 -0.57
4 -0.55
43 0.15
44 0.15
45 0.15
46 0.37
47 0.15
48 0.15
49 0.15
5 0.14
50 0.15
51 0.5
6 0.14
9 -0.14

> <PUBCHEM_EFFECTIVE_ROTOR_COUNT>
4.8

> <PUBCHEM_PHARMACOPHORE_FEATURES>
10
1 1 acceptor
1 2 acceptor
1 3 acceptor
1 4 donor
3 2 3 26 anion
3 5 11 12 hydrophobe
3 6 13 14 hydrophobe
6 20 21 22 23 24 25 rings
6 5 6 7 8 9 10 rings
6 9 10 15 16 17 18 rings

> <PUBCHEM_HEAVY_ATOM_COUNT>
26

> <PUBCHEM_ATOM_DEF_STEREO_COUNT>
0

> <PUBCHEM_ATOM_UDEF_STEREO_COUNT>
0

> <PUBCHEM_BOND_DEF_STEREO_COUNT>
0

> <PUBCHEM_BOND_UDEF_STEREO_COUNT>
0

> <PUBCHEM_ISOTOPIC_ATOM_COUNT>
0

> <PUBCHEM_COMPONENT_COUNT>
1

> <PUBCHEM_CACTVS_TAUTO_COUNT>
3

> <PUBCHEM_CONFORMER_ID>
0000084E00000001

> <PUBCHEM_MMFF94_ENERGY>
96.6998

> <PUBCHEM_FEATURE_SELFOVERLAP>
50.82

> <PUBCHEM_SHAPE_FINGERPRINT>
10165383 225 18342174407462737964
10299344 5 18407758132390191299
10411042 1 18049723216530601710
10595046 47 18335139782636597857
10673678 19 17201055021407039676
11719270 70 18040999574710024895
11724838 91 18409452461821726983
12107183 9 17760082217365151840
12166972 35 18409728461164119329
12236239 1 18408885140282447749
125118 31 18341893030631912989
12516196 113 13039188091688770431
13073987 5 18410575115039469761
13167372 99 18334573590241662409
13533116 47 18411419531163162066
13685833 64 17917711318559432611
13785724 45 17758110780575564318
14170010 4 18273214179410998860
14251764 18 18408885123076217927
14341114 176 18413385445400915893
14461889 52 18271244906851509930
14933364 13 18409165519815845989
15183329 4 18408317796192542785
15250474 111 18187942633150880943
15475509 35 17059789926373223410
1577012 14 18333167276531210885
17844677 252 18337385053804691473
1813 80 16917066680994030964
19427546 62 18270116791432300390
20157964 124 18409446985975723314
20281389 69 18410012143859222657
21033648 29 17489321788288752589
21065198 48 18408317817767826969
21130935 74 18408601479305170427
21267235 1 18339359768989753750
21315764 268 18410298016645379469
21344244 78 18189350107619697568
21421861 104 18059026068216261834
21792934 111 18337121149528905968
21859007 373 17844822566993602125
23081809 10 18113902667646144607
23522609 53 18193809683311044073
23559900 14 18339084779361003673
23569943 247 17343792757225024235
239999 70 18341330076620816554
255183 451 18044929319942382502
3004659 81 18411698820412949506
335352 9 18411695488135558646
3411729 13 18337394838684554456
34797466 226 17095517366605888532
350125 39 18408041806153040517
3545911 37 18411417293596035445
3663271 9 18407755950472932921
397830 11 16772653426683584385
4073 2 18059850606630395643
4340502 62 17418096503362992546
5104073 3 18411698802926983043

> <PUBCHEM_SHAPE_MULTIPOLES>
512.48
20.19
2.38
0.94
33.25
0.3
0.11
-1.17
2.14
-3.85
0.11
-1.09
0.06
-0.96

> <PUBCHEM_SHAPE_SELFOVERLAP>
1107.48

> <PUBCHEM_SHAPE_VOLUME>
280.5

> <PUBCHEM_COORDINATE_TYPE>
2
5
10

$$$$

