443688
  -OEChem-07051213033D

 38 42  0     1  0  0  0  0  0999 V2000
   -3.3821   -0.3377    2.4112 O   0  0  0  0  0  0  0  0  0  0  0  0
   -4.6405   -1.7390   -0.6347 O   0  0  0  0  0  0  0  0  0  0  0  0
    4.0789   -1.7841   -0.2103 O   0  0  0  0  0  0  0  0  0  0  0  0
    4.5808    0.1671    1.1116 O   0  0  0  0  0  0  0  0  0  0  0  0
   -1.1323    1.9771   -0.4924 N   0  0  2  0  0  0  0  0  0  0  0  0
   -1.7901    0.8772    0.2782 C   0  0  2  0  0  0  0  0  0  0  0  0
   -0.4068   -0.0479   -1.4772 C   0  0  1  0  0  0  0  0  0  0  0  0
   -1.5015   -0.3741   -0.5059 C   0  0  0  0  0  0  0  0  0  0  0  0
   -0.8766    1.3718   -1.8306 C   0  0  0  0  0  0  0  0  0  0  0  0
   -3.3031    1.0525    0.4485 C   0  0  0  0  0  0  0  0  0  0  0  0
    0.2016    2.2932    0.1004 C   0  0  0  0  0  0  0  0  0  0  0  0
    0.9417    0.0274   -0.7929 C   0  0  0  0  0  0  0  0  0  0  0  0
   -3.9028   -0.2156    1.0864 C   0  0  1  0  0  0  0  0  0  0  0  0
    1.2293    1.1747    0.0027 C   0  0  0  0  0  0  0  0  0  0  0  0
   -2.2945   -1.4522   -0.5038 C   0  0  0  0  0  0  0  0  0  0  0  0
   -3.5749   -1.4995    0.2893 C   0  0  2  0  0  0  0  0  0  0  0  0
    1.8673   -1.0169   -0.8961 C   0  0  0  0  0  0  0  0  0  0  0  0
    2.4561    1.2811    0.6682 C   0  0  0  0  0  0  0  0  0  0  0  0
    3.0628   -0.8779   -0.2212 C   0  0  0  0  0  0  0  0  0  0  0  0
    3.3491    0.2369    0.5355 C   0  0  0  0  0  0  0  0  0  0  0  0
    5.0375   -1.1142    0.6332 C   0  0  0  0  0  0  0  0  0  0  0  0
   -1.3395    0.7929    1.2765 H   0  0  0  0  0  0  0  0  0  0  0  0
   -0.3891   -0.6912   -2.3624 H   0  0  0  0  0  0  0  0  0  0  0  0
   -0.1472    1.9447   -2.4171 H   0  0  0  0  0  0  0  0  0  0  0  0
   -1.8107    1.3556   -2.4090 H   0  0  0  0  0  0  0  0  0  0  0  0
   -3.4944    1.9242    1.0862 H   0  0  0  0  0  0  0  0  0  0  0  0
   -3.7876    1.2391   -0.5187 H   0  0  0  0  0  0  0  0  0  0  0  0
    0.0689    2.5857    1.1496 H   0  0  0  0  0  0  0  0  0  0  0  0
    0.6043    3.1709   -0.4214 H   0  0  0  0  0  0  0  0  0  0  0  0
   -4.9890   -0.0959    1.1754 H   0  0  0  0  0  0  0  0  0  0  0  0
   -2.0733   -2.2851   -1.1653 H   0  0  0  0  0  0  0  0  0  0  0  0
   -3.5364   -2.3567    0.9718 H   0  0  0  0  0  0  0  0  0  0  0  0
    1.6556   -1.9027   -1.4847 H   0  0  0  0  0  0  0  0  0  0  0  0
    2.6969    2.1512    1.2692 H   0  0  0  0  0  0  0  0  0  0  0  0
   -3.6301    0.4658    2.8994 H   0  0  0  0  0  0  0  0  0  0  0  0
   -4.4761   -2.5970   -1.0625 H   0  0  0  0  0  0  0  0  0  0  0  0
    5.9629   -0.9669    0.0645 H   0  0  0  0  0  0  0  0  0  0  0  0
    5.2532   -1.7544    1.4964 H   0  0  0  0  0  0  0  0  0  0  0  0
  1 13  1  0  0  0  0
  1 35  1  0  0  0  0
  2 16  1  0  0  0  0
  2 36  1  0  0  0  0
  3 19  1  0  0  0  0
  3 21  1  0  0  0  0
  4 20  1  0  0  0  0
  4 21  1  0  0  0  0
  5  6  1  0  0  0  0
  5  9  1  0  0  0  0
  5 11  1  0  0  0  0
  6  8  1  0  0  0  0
  6 10  1  0  0  0  0
  6 22  1  0  0  0  0
  7  8  1  0  0  0  0
  7  9  1  0  0  0  0
  7 12  1  0  0  0  0
  7 23  1  0  0  0  0
  8 15  2  0  0  0  0
  9 24  1  0  0  0  0
  9 25  1  0  0  0  0
 10 13  1  0  0  0  0
 10 26  1  0  0  0  0
 10 27  1  0  0  0  0
 11 14  1  0  0  0  0
 11 28  1  0  0  0  0
 11 29  1  0  0  0  0
 12 14  1  0  0  0  0
 12 17  2  0  0  0  0
 13 16  1  0  0  0  0
 13 30  1  0  0  0  0
 14 18  2  0  0  0  0
 15 16  1  0  0  0  0
 15 31  1  0  0  0  0
 16 32  1  0  0  0  0
 17 19  1  0  0  0  0
 17 33  1  0  0  0  0
 18 20  1  0  0  0  0
 18 34  1  0  0  0  0
 19 20  2  0  0  0  0
 21 37  1  0  0  0  0
 21 38  1  0  0  0  0
M  END
> <PUBCHEM_COMPOUND_CID>
443688

> <PUBCHEM_CONFORMER_RMSD>
0.6

> <PUBCHEM_CONFORMER_DIVERSEORDER>
1

> <PUBCHEM_MMFF94_PARTIAL_CHARGES>
25
1 -0.68
11 0.41
12 -0.14
13 0.28
14 -0.14
15 -0.29
16 0.42
17 -0.15
18 -0.15
19 0.08
2 -0.68
20 0.08
21 0.56
3 -0.36
31 0.15
33 0.15
34 0.15
35 0.4
36 0.4
4 -0.36
5 -0.81
6 0.41
7 0.28
8 -0.28
9 0.27

> <PUBCHEM_EFFECTIVE_ROTOR_COUNT>
1.6

> <PUBCHEM_PHARMACOPHORE_FEATURES>
11
1 1 acceptor
1 1 donor
1 2 acceptor
1 2 donor
1 3 acceptor
1 4 acceptor
1 5 cation
5 3 4 19 20 21 rings
6 12 14 17 18 19 20 rings
6 6 8 10 13 15 16 rings
8 5 6 7 8 9 11 12 14 rings

> <PUBCHEM_HEAVY_ATOM_COUNT>
21

> <PUBCHEM_ATOM_DEF_STEREO_COUNT>
4

> <PUBCHEM_ATOM_UDEF_STEREO_COUNT>
0

> <PUBCHEM_BOND_DEF_STEREO_COUNT>
0

> <PUBCHEM_BOND_UDEF_STEREO_COUNT>
0

> <PUBCHEM_ISOTOPIC_ATOM_COUNT>
0

> <PUBCHEM_COMPONENT_COUNT>
1

> <PUBCHEM_CACTVS_TAUTO_COUNT>
1

> <PUBCHEM_CONFORMER_ID>
0006C52800000001

> <PUBCHEM_MMFF94_ENERGY>
59.0527

> <PUBCHEM_FEATURE_SELFOVERLAP>
55.986

> <PUBCHEM_SHAPE_FINGERPRINT>
10618630 7 18273213092799752820
11046707 91 18131914870615104319
11132069 177 18334572468774857895
11370993 144 17751068309429646186
11543360 7 13758068576231761546
11552529 35 17531537472712936862
11578080 2 17560813095089218949
11640471 11 14201399438336238677
11796584 16 17060346201509739723
12251169 10 18113899333976088869
12363563 72 17988918946906183243
12403259 415 5400537795707366377
12507560 40 16298374777704535423
12553582 1 18270101462050735391
12596602 18 17313386695155991530
12633257 1 18040985259245878041
12670546 177 12175623975178460746
12714826 92 17774725354257393300
12788726 201 14404367069016222631
12892183 10 17168139044225692523
13140716 1 18333452053446553377
13464514 151 9511193957464219084
13544653 18 18273213075540801292
13583140 156 17095251323509469395
13675066 3 17313107479595380280
14178342 30 17823396302351382159
14787075 74 18272369729364976424
14790565 3 17761772867218665128
15163728 17 5472318257123036091
15209289 33 18201996646690289922
15209294 21 16950281810414051002
15309172 13 17168150056706222292
15375462 189 18272089426555738986
15375462 478 17748825181444893477
15653759 3 18340490062115221220
16752209 62 16199887123469253725
16945 1 18260254261903827325
17349148 13 17822292332520900335
17980427 23 17095237008900936761
1813 80 17846774100704824700
19141452 34 18408322198776679139
193927 3 17703497844248573170
19784866 34 8790895081299035957
19862831 5 12967134912481616062
200 152 14333123100618818404
20281475 54 18341328916177267524
20361792 2 17275383175290133613
20645477 56 6555404353568879902
20671657 53 16128371562667195116
21033648 29 13984653776389301410
21065199 12 18113902675724512730
21637258 2 16702015353685692795
21756936 100 16083073771732714760
22079108 93 6555415362071375751
22393880 68 11672063043167923280
231179 274 5761655858663793354
23227448 37 5183762498232814034
23382010 3 10807932630840175077
23402655 69 11671791476290607902
23557571 272 17131288882230660348
23559900 14 18266462203697012726
24859131 72 18260547818681316975
2838139 119 4677978203392262043
3082319 5 11743846841403766619
3286 77 18334298617301768000
5104073 3 18189350107651339450
6786 2 16406497701811724844
7097593 13 18188209775789412993
83771 10 18342177760839788924
90316 7 18335693975194309905

> <PUBCHEM_SHAPE_MULTIPOLES>
403.71
8.75
1.98
1.4
3.6
0.34
0.15
-4.79
3.54
-0.36
-0.22
-0.8
0.08
0.15

> <PUBCHEM_SHAPE_SELFOVERLAP>
913.336

> <PUBCHEM_SHAPE_VOLUME>
213.3

> <PUBCHEM_COORDINATE_TYPE>
2
5
10

$$$$

