6451457
  -OEChem-07051213092D

 36 38  0     1  0  0  0  0  0999 V2000
    6.4783   -1.5374    0.0000 O   0  0  0  0  0  0  0  0  0  0  0  0
    9.0619   -0.7327    0.0000 O   0  0  0  0  0  0  0  0  0  0  0  0
    4.6660    1.2673    0.0000 O   0  0  0  0  0  0  0  0  0  0  0  0
    4.6660   -1.7327    0.0000 N   0  0  0  0  0  0  0  0  0  0  0  0
    7.0619   -0.7327    0.0000 C   0  0  1  0  0  0  0  0  0  0  0  0
    8.0619   -0.7327    0.0000 C   0  0  0  0  0  0  0  0  0  0  0  0
    6.4783    0.0721    0.0000 C   0  0  0  0  0  0  0  0  0  0  0  0
    5.5321   -0.2327    0.0000 C   0  0  0  0  0  0  0  0  0  0  0  0
    5.5321   -1.2327    0.0000 C   0  0  0  0  0  0  0  0  0  0  0  0
    8.0619   -1.7327    0.0000 C   0  0  0  0  0  0  0  0  0  0  0  0
    8.0619    0.2673    0.0000 C   0  0  0  0  0  0  0  0  0  0  0  0
    4.6660    0.2673    0.0000 C   0  0  0  0  0  0  0  0  0  0  0  0
    3.8000   -0.2327    0.0000 C   0  0  0  0  0  0  0  0  0  0  0  0
    3.8000   -1.2327    0.0000 C   0  0  0  0  0  0  0  0  0  0  0  0
    2.9061    0.3020    0.0000 C   0  0  0  0  0  0  0  0  0  0  0  0
    2.9061   -1.7673    0.0000 C   0  0  0  0  0  0  0  0  0  0  0  0
    2.0000   -0.2119    0.0000 C   0  0  0  0  0  0  0  0  0  0  0  0
    2.0000   -1.2535    0.0000 C   0  0  0  0  0  0  0  0  0  0  0  0
    3.8000    1.7673    0.0000 C   0  0  0  0  0  0  0  0  0  0  0  0
    7.4481   -1.4899    0.0000 H   0  0  0  0  0  0  0  0  0  0  0  0
    7.0157    0.3813    0.0000 H   0  0  0  0  0  0  0  0  0  0  0  0
    6.2272    0.6390    0.0000 H   0  0  0  0  0  0  0  0  0  0  0  0
    7.4419   -1.7327    0.0000 H   0  0  0  0  0  0  0  0  0  0  0  0
    8.0619   -2.3527    0.0000 H   0  0  0  0  0  0  0  0  0  0  0  0
    8.6819   -1.7327    0.0000 H   0  0  0  0  0  0  0  0  0  0  0  0
    8.6819    0.2673    0.0000 H   0  0  0  0  0  0  0  0  0  0  0  0
    8.0619    0.8873    0.0000 H   0  0  0  0  0  0  0  0  0  0  0  0
    7.4419    0.2673    0.0000 H   0  0  0  0  0  0  0  0  0  0  0  0
    9.3719   -1.2696    0.0000 H   0  0  0  0  0  0  0  0  0  0  0  0
    2.9132    0.9220    0.0000 H   0  0  0  0  0  0  0  0  0  0  0  0
    2.9132   -2.3873    0.0000 H   0  0  0  0  0  0  0  0  0  0  0  0
    1.4643    0.1002    0.0000 H   0  0  0  0  0  0  0  0  0  0  0  0
    1.4643   -1.5656    0.0000 H   0  0  0  0  0  0  0  0  0  0  0  0
    4.1100    2.3043    0.0000 H   0  0  0  0  0  0  0  0  0  0  0  0
    3.2631    2.0773    0.0000 H   0  0  0  0  0  0  0  0  0  0  0  0
    3.4900    1.2304    0.0000 H   0  0  0  0  0  0  0  0  0  0  0  0
  1  5  1  0  0  0  0
  1  9  1  0  0  0  0
  2  6  1  0  0  0  0
  2 29  1  0  0  0  0
  3 12  1  0  0  0  0
  3 19  1  0  0  0  0
  4  9  2  0  0  0  0
  4 14  1  0  0  0  0
  5  6  1  0  0  0  0
  5  7  1  0  0  0  0
  5 20  1  1  0  0  0
  6 10  1  0  0  0  0
  6 11  1  0  0  0  0
  7  8  1  0  0  0  0
  7 21  1  0  0  0  0
  7 22  1  0  0  0  0
  8  9  1  0  0  0  0
  8 12  2  0  0  0  0
 10 23  1  0  0  0  0
 10 24  1  0  0  0  0
 10 25  1  0  0  0  0
 11 26  1  0  0  0  0
 11 27  1  0  0  0  0
 11 28  1  0  0  0  0
 12 13  1  0  0  0  0
 13 14  1  0  0  0  0
 13 15  2  0  0  0  0
 14 16  2  0  0  0  0
 15 17  1  0  0  0  0
 15 30  1  0  0  0  0
 16 18  1  0  0  0  0
 16 31  1  0  0  0  0
 17 18  2  0  0  0  0
 17 32  1  0  0  0  0
 18 33  1  0  0  0  0
 19 34  1  0  0  0  0
 19 35  1  0  0  0  0
 19 36  1  0  0  0  0
M  END
> <PUBCHEM_COMPOUND_CID>
6451457

> <PUBCHEM_COMPOUND_CANONICALIZED>
1

> <PUBCHEM_CACTVS_COMPLEXITY>
333

> <PUBCHEM_CACTVS_HBOND_ACCEPTOR>
4

> <PUBCHEM_CACTVS_HBOND_DONOR>
1

> <PUBCHEM_CACTVS_ROTATABLE_BOND>
2

> <PUBCHEM_CACTVS_SUBSKEYS>
AAADceByMAAAAAAAAAAAAAAAAAAAASAAAAA8QAAAAAAAAFix8AAAHgAACAAADFyhngIyxvIIFgCgAyRiRACCiCAhIiAImCA0bJgNJ+LEsZuOeCjnwB3L6Afw8P8OAAAAAAACAAAAAAAAAAQAAAAAAAAAAA==

> <PUBCHEM_IUPAC_OPENEYE_NAME>
2-[(2R)-4-methoxy-2,3-dihydrofuro[2,3-b]quinolin-2-yl]propan-2-ol

> <PUBCHEM_IUPAC_CAS_NAME>
2-[(2R)-4-methoxy-2,3-dihydrofuro[2,3-b]quinolin-2-yl]-2-propanol

> <PUBCHEM_IUPAC_NAME>
2-[(2R)-4-methoxy-2,3-dihydrofuro[2,3-b]quinolin-2-yl]propan-2-ol

> <PUBCHEM_IUPAC_SYSTEMATIC_NAME>
2-[(2R)-4-methoxy-2,3-dihydrofuro[2,3-b]quinolin-2-yl]propan-2-ol

> <PUBCHEM_IUPAC_TRADITIONAL_NAME>
2-[(2R)-4-methoxy-2,3-dihydrofuro[2,3-b]quinolin-2-yl]propan-2-ol

> <PUBCHEM_IUPAC_INCHI>
InChI=1S/C15H17NO3/c1-15(2,17)12-8-10-13(18-3)9-6-4-5-7-11(9)16-14(10)19-12/h4-7,12,17H,8H2,1-3H3/t12-/m1/s1

> <PUBCHEM_IUPAC_INCHIKEY>
OYGWMFMSZPRSPD-GFCCVEGCSA-N

> <PUBCHEM_XLOGP3_AA>
2.5

> <PUBCHEM_EXACT_MASS>
259.120843

> <PUBCHEM_MOLECULAR_FORMULA>
C15H17NO3

> <PUBCHEM_MOLECULAR_WEIGHT>
259.30038

> <PUBCHEM_OPENEYE_CAN_SMILES>
CC(C)(C1CC2=C(C3=CC=CC=C3N=C2O1)OC)O

> <PUBCHEM_OPENEYE_ISO_SMILES>
CC(C)([C@H]1CC2=C(C3=CC=CC=C3N=C2O1)OC)O

> <PUBCHEM_CACTVS_TPSA>
51.6

> <PUBCHEM_MONOISOTOPIC_WEIGHT>
259.120843

> <PUBCHEM_TOTAL_CHARGE>
0

> <PUBCHEM_HEAVY_ATOM_COUNT>
19

> <PUBCHEM_ATOM_DEF_STEREO_COUNT>
1

> <PUBCHEM_ATOM_UDEF_STEREO_COUNT>
0

> <PUBCHEM_BOND_DEF_STEREO_COUNT>
0

> <PUBCHEM_BOND_UDEF_STEREO_COUNT>
0

> <PUBCHEM_ISOTOPIC_ATOM_COUNT>
0

> <PUBCHEM_COMPONENT_COUNT>
1

> <PUBCHEM_CACTVS_TAUTO_COUNT>
1

> <PUBCHEM_COORDINATE_TYPE>
1
5
255

> <PUBCHEM_BONDANNOTATIONS>
12  13  8
13  14  8
13  15  8
14  16  8
15  17  8
16  18  8
17  18  8
4  14  8
4  9  8
5  20  5
8  12  8
8  9  8

$$$$

