656555
  -OEChem-07051212553D

 48 49  0     1  0  0  0  0  0999 V2000
    0.5220   -1.1446    1.7334 S   0  0  0  0  0  0  0  0  0  0  0  0
   -0.2819    3.7858    0.3943 S   0  0  0  0  0  0  0  0  0  0  0  0
    1.8473   -0.5372   -0.5066 O   0  0  0  0  0  0  0  0  0  0  0  0
    5.2853   -2.5790    0.4418 O   0  0  0  0  0  0  0  0  0  0  0  0
    5.2909   -0.6271   -1.7422 O   0  0  0  0  0  0  0  0  0  0  0  0
    3.4774   -1.7742    2.5406 O   0  0  0  0  0  0  0  0  0  0  0  0
    1.5539    1.1037   -2.6888 O   0  0  0  0  0  0  0  0  0  0  0  0
   -0.9357    2.3155    0.6769 O   0  0  0  0  0  0  0  0  0  0  0  0
   -1.5812    4.7416    0.1475 O   0  0  0  0  0  0  0  0  0  0  0  0
    0.4734    3.7270   -0.8435 O   0  0  0  0  0  0  0  0  0  0  0  0
    0.3583    4.2239    1.6205 O   0  0  0  0  0  0  0  0  0  0  0  0
    0.0329    1.3802    1.0519 N   0  0  0  0  0  0  0  0  0  0  0  0
    4.4305   -1.4368    0.3628 C   0  0  1  0  0  0  0  0  0  0  0  0
    4.1216   -1.1326   -1.1037 C   0  0  1  0  0  0  0  0  0  0  0  0
    3.1540   -1.7473    1.1508 C   0  0  2  0  0  0  0  0  0  0  0  0
    3.0046   -0.0917   -1.2147 C   0  0  1  0  0  0  0  0  0  0  0  0
    2.0811   -0.6844    0.8939 C   0  0  2  0  0  0  0  0  0  0  0  0
    2.5930    0.1421   -2.6648 C   0  0  0  0  0  0  0  0  0  0  0  0
   -0.4948    0.2178    1.2738 C   0  0  0  0  0  0  0  0  0  0  0  0
   -1.9715   -0.1228    1.1624 C   0  0  0  0  0  0  0  0  0  0  0  0
   -2.3416   -0.6868   -0.2136 C   0  0  0  0  0  0  0  0  0  0  0  0
   -3.7834   -1.1177   -0.3174 C   0  0  0  0  0  0  0  0  0  0  0  0
   -4.1295   -2.4201    0.0086 C   0  0  0  0  0  0  0  0  0  0  0  0
   -4.7383   -0.2040   -0.7368 C   0  0  0  0  0  0  0  0  0  0  0  0
   -5.4628   -2.8187   -0.0872 C   0  0  0  0  0  0  0  0  0  0  0  0
   -6.0716   -0.6027   -0.8323 C   0  0  0  0  0  0  0  0  0  0  0  0
   -6.4338   -1.9100   -0.5076 C   0  0  0  0  0  0  0  0  0  0  0  0
    4.9813   -0.6047    0.8188 H   0  0  0  0  0  0  0  0  0  0  0  0
    3.8348   -2.0587   -1.6178 H   0  0  0  0  0  0  0  0  0  0  0  0
    2.7994   -2.7472    0.8673 H   0  0  0  0  0  0  0  0  0  0  0  0
    3.3253    0.8699   -0.7910 H   0  0  0  0  0  0  0  0  0  0  0  0
    2.4043    0.2747    1.3176 H   0  0  0  0  0  0  0  0  0  0  0  0
    2.1976   -0.7749   -3.1132 H   0  0  0  0  0  0  0  0  0  0  0  0
    3.4235    0.5047   -3.2777 H   0  0  0  0  0  0  0  0  0  0  0  0
    5.4537   -2.7519    1.3840 H   0  0  0  0  0  0  0  0  0  0  0  0
    5.9922   -1.2920   -1.6330 H   0  0  0  0  0  0  0  0  0  0  0  0
    2.6550   -1.9582    3.0258 H   0  0  0  0  0  0  0  0  0  0  0  0
   -2.5780    0.7628    1.3838 H   0  0  0  0  0  0  0  0  0  0  0  0
   -2.2272   -0.8515    1.9428 H   0  0  0  0  0  0  0  0  0  0  0  0
    1.9053    1.9290   -2.3135 H   0  0  0  0  0  0  0  0  0  0  0  0
   -1.6935   -1.5376   -0.4616 H   0  0  0  0  0  0  0  0  0  0  0  0
   -2.1255    0.0625   -0.9871 H   0  0  0  0  0  0  0  0  0  0  0  0
   -3.3807   -3.1342    0.3392 H   0  0  0  0  0  0  0  0  0  0  0  0
   -4.4660    0.8167   -0.9897 H   0  0  0  0  0  0  0  0  0  0  0  0
   -5.7449   -3.8364    0.1662 H   0  0  0  0  0  0  0  0  0  0  0  0
   -6.8280    0.1050   -1.1591 H   0  0  0  0  0  0  0  0  0  0  0  0
   -7.4720   -2.2202   -0.5818 H   0  0  0  0  0  0  0  0  0  0  0  0
   -2.3082    4.6424    0.8061 H   0  0  0  0  0  0  0  0  0  0  0  0
  1 17  1  0  0  0  0
  1 19  1  0  0  0  0
  2  8  1  0  0  0  0
  2  9  1  0  0  0  0
  2 10  2  0  0  0  0
  2 11  2  0  0  0  0
  3 16  1  0  0  0  0
  3 17  1  0  0  0  0
  4 13  1  0  0  0  0
  4 35  1  0  0  0  0
  5 14  1  0  0  0  0
  5 36  1  0  0  0  0
  6 15  1  0  0  0  0
  6 37  1  0  0  0  0
  7 18  1  0  0  0  0
  7 40  1  0  0  0  0
  8 12  1  0  0  0  0
  9 48  1  0  0  0  0
 12 19  2  0  0  0  0
 13 14  1  0  0  0  0
 13 15  1  0  0  0  0
 13 28  1  0  0  0  0
 14 16  1  0  0  0  0
 14 29  1  0  0  0  0
 15 17  1  0  0  0  0
 15 30  1  0  0  0  0
 16 18  1  0  0  0  0
 16 31  1  0  0  0  0
 17 32  1  0  0  0  0
 18 33  1  0  0  0  0
 18 34  1  0  0  0  0
 19 20  1  0  0  0  0
 20 21  1  0  0  0  0
 20 38  1  0  0  0  0
 20 39  1  0  0  0  0
 21 22  1  0  0  0  0
 21 41  1  0  0  0  0
 21 42  1  0  0  0  0
 22 23  2  0  0  0  0
 22 24  1  0  0  0  0
 23 25  1  0  0  0  0
 23 43  1  0  0  0  0
 24 26  2  0  0  0  0
 24 44  1  0  0  0  0
 25 27  2  0  0  0  0
 25 45  1  0  0  0  0
 26 27  1  0  0  0  0
 26 46  1  0  0  0  0
 27 47  1  0  0  0  0
M  END
> <PUBCHEM_COMPOUND_CID>
656555

> <PUBCHEM_CONFORMER_RMSD>
1

> <PUBCHEM_CONFORMER_DIVERSEORDER>
1
185
18
78
150
93
165
134
49
61
140
147
136
63
87
66
54
25
91
118
112
3
67
99
12
157
133
19
128
101
175
77
184
102
178
160
177
146
9
59
13
144
50
7
103
42
186
32
8
120
100
53
106
45
131
95
86
182
114
181
105
58
137
81
142
62
151
88
183
89
57
37
179
113
111
116
107
124
169
90
27
47
16
170
123
5
125
2
188
122
168
97
104
109
167
135
152
28
10
43
38
156
30
154
172
23
162
74
108
39
129
29
94
21
14
98
26
117
76
52
158
40
126
159
17
166
69
6
130
164
35
75
143
161
60
4
80
176
31
51
36
79
46
149
71
24
84
132
110
155
34
174
20
96
171
33
44
73
15
22
163
65
148
127
41
72
48
121
68
173
153
187
82
119
64
180
92
115
56
138
145
11
139
85
70
141
83
55

> <PUBCHEM_MMFF94_PARTIAL_CHARGES>
37
1 -0.37
10 -0.65
11 -0.65
12 -0.51
13 0.28
14 0.28
15 0.28
16 0.28
17 0.51
18 0.28
19 0.53
2 1.67
20 0.06
21 0.14
22 -0.14
23 -0.15
24 -0.15
25 -0.15
26 -0.15
27 -0.15
3 -0.56
35 0.4
36 0.4
37 0.4
4 -0.68
40 0.4
43 0.15
44 0.15
45 0.15
46 0.15
47 0.15
48 0.5
5 -0.68
6 -0.68
7 -0.68
8 -0.12
9 -0.68

> <PUBCHEM_EFFECTIVE_ROTOR_COUNT>
9.2

> <PUBCHEM_PHARMACOPHORE_FEATURES>
16
1 10 acceptor
1 11 acceptor
1 12 acceptor
1 3 acceptor
1 4 acceptor
1 4 donor
1 5 acceptor
1 5 donor
1 6 acceptor
1 6 donor
1 7 acceptor
1 7 donor
1 9 acceptor
4 2 9 10 11 anion
6 22 23 24 25 26 27 rings
6 3 13 14 15 16 17 rings

> <PUBCHEM_HEAVY_ATOM_COUNT>
27

> <PUBCHEM_ATOM_DEF_STEREO_COUNT>
5

> <PUBCHEM_ATOM_UDEF_STEREO_COUNT>
0

> <PUBCHEM_BOND_DEF_STEREO_COUNT>
0

> <PUBCHEM_BOND_UDEF_STEREO_COUNT>
1

> <PUBCHEM_ISOTOPIC_ATOM_COUNT>
0

> <PUBCHEM_COMPONENT_COUNT>
1

> <PUBCHEM_CACTVS_TAUTO_COUNT>
1

> <PUBCHEM_CONFORMER_ID>
000A04AB00000001

> <PUBCHEM_MMFF94_ENERGY>
57.0846

> <PUBCHEM_FEATURE_SELFOVERLAP>
81.267

> <PUBCHEM_SHAPE_FINGERPRINT>
10721379 63 18119519947661355897
12166972 35 18131914857730397647
12788726 201 18341610485727765251
13583140 156 17244167100181576426
14068700 675 18272376407912514490
14251757 5 18269281325862373165
15664445 248 18260822670406974414
1813 80 18186798059063045811
19026451 147 18338228263601723598
20388580 30 18115582643787496395
20775438 99 17764042263618753163
21033648 29 17022628598102443339
2132832 1 18130789009906416256
21859007 373 4676888678344833539
221357 26 16558758939667729799
23557571 272 18115874172792055945
23559900 14 18264501594361047667
23598288 3 18054492871136006193
3004659 81 18202571686876877211
340366 18 18042413439468471551
6438754 60 18272649034913671645
6669772 16 17907013976216387221
7164475 11 18196936780210401322
7471813 234 18343578560334198956
9841814 1 18336270024834492035

> <PUBCHEM_SHAPE_MULTIPOLES>
505.54
12.54
4.53
2.06
12.32
8.29
0.61
-13.94
4.42
0.4
-1.42
-2.73
0.03
-1.16

> <PUBCHEM_SHAPE_SELFOVERLAP>
1012.889

> <PUBCHEM_SHAPE_VOLUME>
297.3

> <PUBCHEM_COORDINATE_TYPE>
2
5
10

$$$$

