91754
  -OEChem-07051213123D

 49 50  0     0  0  0  0  0  0999 V2000
    1.8999    2.7800    0.3243 Cl  0  0  0  0  0  0  0  0  0  0  0  0
    0.0905    0.1405    1.1988 S   0  0  0  0  0  0  0  0  0  0  0  0
    4.6041    1.9397   -0.3352 O   0  0  0  0  0  0  0  0  0  0  0  0
    4.4085   -0.3371    0.0271 N   0  0  0  0  0  0  0  0  0  0  0  0
    3.6533   -1.4156    0.3883 N   0  0  0  0  0  0  0  0  0  0  0  0
   -6.4572   -0.1304   -0.0307 C   0  0  0  0  0  0  0  0  0  0  0  0
    5.7821   -0.6500   -0.3230 C   0  0  0  0  0  0  0  0  0  0  0  0
   -4.9691   -0.1179   -0.1289 C   0  0  0  0  0  0  0  0  0  0  0  0
   -7.1033   -1.5373    0.1972 C   0  0  0  0  0  0  0  0  0  0  0  0
   -6.9535    0.7513    1.1570 C   0  0  0  0  0  0  0  0  0  0  0  0
   -7.1148    0.4221   -1.3333 C   0  0  0  0  0  0  0  0  0  0  0  0
    6.0472   -0.2183   -1.7700 C   0  0  0  0  0  0  0  0  0  0  0  0
    6.0031   -2.1598   -0.1833 C   0  0  0  0  0  0  0  0  0  0  0  0
    6.7291    0.1025    0.6189 C   0  0  0  0  0  0  0  0  0  0  0  0
   -4.2936    1.0856   -0.3307 C   0  0  0  0  0  0  0  0  0  0  0  0
   -4.2529   -1.3099   -0.0194 C   0  0  0  0  0  0  0  0  0  0  0  0
   -2.1982   -0.0950   -0.3125 C   0  0  0  0  0  0  0  0  0  0  0  0
   -2.9018    1.0971   -0.4231 C   0  0  0  0  0  0  0  0  0  0  0  0
   -2.8612   -1.2984   -0.1115 C   0  0  0  0  0  0  0  0  0  0  0  0
    3.9225    0.9665   -0.0101 C   0  0  0  0  0  0  0  0  0  0  0  0
   -0.6976   -0.0823   -0.4118 C   0  0  0  0  0  0  0  0  0  0  0  0
    1.7468    0.1074    0.7282 C   0  0  0  0  0  0  0  0  0  0  0  0
    2.4927    1.1559    0.3734 C   0  0  0  0  0  0  0  0  0  0  0  0
    2.4234   -1.1967    0.7102 C   0  0  0  0  0  0  0  0  0  0  0  0
   -8.1960   -1.4646    0.2588 H   0  0  0  0  0  0  0  0  0  0  0  0
   -6.8742   -2.2229   -0.6270 H   0  0  0  0  0  0  0  0  0  0  0  0
   -6.7593   -1.9903    1.1343 H   0  0  0  0  0  0  0  0  0  0  0  0
   -6.6699    1.8022    1.0331 H   0  0  0  0  0  0  0  0  0  0  0  0
   -8.0455    0.7200    1.2479 H   0  0  0  0  0  0  0  0  0  0  0  0
   -6.5266    0.4032    2.1050 H   0  0  0  0  0  0  0  0  0  0  0  0
   -8.2088    0.3870   -1.2736 H   0  0  0  0  0  0  0  0  0  0  0  0
   -6.8350    1.4643   -1.5226 H   0  0  0  0  0  0  0  0  0  0  0  0
   -6.8060   -0.1667   -2.2051 H   0  0  0  0  0  0  0  0  0  0  0  0
    6.0241    0.8656   -1.9131 H   0  0  0  0  0  0  0  0  0  0  0  0
    5.3086   -0.6550   -2.4527 H   0  0  0  0  0  0  0  0  0  0  0  0
    7.0380   -0.5545   -2.0981 H   0  0  0  0  0  0  0  0  0  0  0  0
    5.3596   -2.7404   -0.8557 H   0  0  0  0  0  0  0  0  0  0  0  0
    5.8449   -2.5122    0.8433 H   0  0  0  0  0  0  0  0  0  0  0  0
    7.0368   -2.4193   -0.4437 H   0  0  0  0  0  0  0  0  0  0  0  0
    7.7669   -0.2112    0.4550 H   0  0  0  0  0  0  0  0  0  0  0  0
    6.4853   -0.1020    1.6682 H   0  0  0  0  0  0  0  0  0  0  0  0
    6.7078    1.1874    0.4837 H   0  0  0  0  0  0  0  0  0  0  0  0
   -4.8260    2.0282   -0.4195 H   0  0  0  0  0  0  0  0  0  0  0  0
   -4.7268   -2.2725    0.1378 H   0  0  0  0  0  0  0  0  0  0  0  0
   -2.3855    2.0402   -0.5793 H   0  0  0  0  0  0  0  0  0  0  0  0
   -2.3126   -2.2322   -0.0238 H   0  0  0  0  0  0  0  0  0  0  0  0
   -0.3501   -1.0203   -0.8618 H   0  0  0  0  0  0  0  0  0  0  0  0
   -0.3808    0.7185   -1.0909 H   0  0  0  0  0  0  0  0  0  0  0  0
    1.8123   -2.0675    1.0018 H   0  0  0  0  0  0  0  0  0  0  0  0
  1 23  1  0  0  0  0
  2 21  1  0  0  0  0
  2 22  1  0  0  0  0
  3 20  2  0  0  0  0
  4  5  1  0  0  0  0
  4  7  1  0  0  0  0
  4 20  1  0  0  0  0
  5 24  2  0  0  0  0
  6  8  1  0  0  0  0
  6  9  1  0  0  0  0
  6 10  1  0  0  0  0
  6 11  1  0  0  0  0
  7 12  1  0  0  0  0
  7 13  1  0  0  0  0
  7 14  1  0  0  0  0
  8 15  2  0  0  0  0
  8 16  1  0  0  0  0
  9 25  1  0  0  0  0
  9 26  1  0  0  0  0
  9 27  1  0  0  0  0
 10 28  1  0  0  0  0
 10 29  1  0  0  0  0
 10 30  1  0  0  0  0
 11 31  1  0  0  0  0
 11 32  1  0  0  0  0
 11 33  1  0  0  0  0
 12 34  1  0  0  0  0
 12 35  1  0  0  0  0
 12 36  1  0  0  0  0
 13 37  1  0  0  0  0
 13 38  1  0  0  0  0
 13 39  1  0  0  0  0
 14 40  1  0  0  0  0
 14 41  1  0  0  0  0
 14 42  1  0  0  0  0
 15 18  1  0  0  0  0
 15 43  1  0  0  0  0
 16 19  2  0  0  0  0
 16 44  1  0  0  0  0
 17 18  2  0  0  0  0
 17 19  1  0  0  0  0
 17 21  1  0  0  0  0
 18 45  1  0  0  0  0
 19 46  1  0  0  0  0
 20 23  1  0  0  0  0
 21 47  1  0  0  0  0
 21 48  1  0  0  0  0
 22 23  2  0  0  0  0
 22 24  1  0  0  0  0
 24 49  1  0  0  0  0
M  END
> <PUBCHEM_COMPOUND_CID>
91754

> <PUBCHEM_CONFORMER_RMSD>
0.8

> <PUBCHEM_CONFORMER_DIVERSEORDER>
1
8
9
2
11
7
3
4
10
5
6

> <PUBCHEM_MMFF94_PARTIAL_CHARGES>
23
1 -0.14
15 -0.15
16 -0.15
17 -0.14
18 -0.15
19 -0.15
2 -0.33
20 0.62
21 0.37
22 0.12
23 0.15
24 0.38
3 -0.57
4 -0.3
43 0.15
44 0.15
45 0.15
46 0.15
49 0.06
5 -0.51
6 0.14
7 0.3
8 -0.14

> <PUBCHEM_EFFECTIVE_ROTOR_COUNT>
5

> <PUBCHEM_PHARMACOPHORE_FEATURES>
6
1 3 acceptor
1 5 acceptor
4 6 9 10 11 hydrophobe
4 7 12 13 14 hydrophobe
6 4 5 20 22 23 24 rings
6 8 15 16 17 18 19 rings

> <PUBCHEM_HEAVY_ATOM_COUNT>
24

> <PUBCHEM_ATOM_DEF_STEREO_COUNT>
0

> <PUBCHEM_ATOM_UDEF_STEREO_COUNT>
0

> <PUBCHEM_BOND_DEF_STEREO_COUNT>
0

> <PUBCHEM_BOND_UDEF_STEREO_COUNT>
0

> <PUBCHEM_ISOTOPIC_ATOM_COUNT>
0

> <PUBCHEM_COMPONENT_COUNT>
1

> <PUBCHEM_CACTVS_TAUTO_COUNT>
1

> <PUBCHEM_CONFORMER_ID>
0001666A00000001

> <PUBCHEM_MMFF94_ENERGY>
79.6692

> <PUBCHEM_FEATURE_SELFOVERLAP>
30.446

> <PUBCHEM_SHAPE_FINGERPRINT>
10299344 5 18408038516197418955
10968037 39 17988924475209691955
11315181 36 18334575733857195289
11524674 6 16732984207095374743
11796584 16 17676205741366024430
12166972 35 18341890783868287933
12236239 1 17967532376151442433
12516196 113 17822014211544590456
12730499 353 17775564251928677434
13533116 47 10879724182067468580
13668630 136 17749103391919626135
13685833 64 18333732429190905802
13782708 43 17168710709448719927
13914758 101 5256413769100836587
14170010 4 18408890616371460472
14251752 14 17458623449795990209
14251764 18 17894912923124055521
14251764 46 18040155119741020895
14341114 176 18411698768757485733
14617045 38 18342173384078664931
14933364 13 18343301466303218773
15183329 4 18408881853999535152
15475509 35 14635139197242346246
17093844 174 7276834585478681175
17844677 252 18410569591548178553
18608769 82 17560792200690125235
20567600 234 7781508222702640058
21150785 3 16415479333859140815
21267235 1 18409444804000468152
21315759 40 16774081786729431416
221357 26 18413673521568689972
22224240 67 9367340419281422988
2297311 6 18410291424197082013
23035841 295 18202565077317132899
23198884 109 18113335315277385697
23522609 53 18116969166748207641
23536379 177 18407759244000711625
23559900 14 18337961091003459969
249057 3 18410012108955840711
29717793 49 17822005411272541268
3004659 81 18411983568096626664
34797466 226 17095241407094945896
3545911 37 18343586235250787649
4073 2 18059572421698912522
4325135 7 17632858633142857358
46194498 28 18060137639758920204
465052 167 18186800266349156062

> <PUBCHEM_SHAPE_MULTIPOLES>
483.8
21.87
1.91
1.06
10.98
0.5
0.15
-4.48
2.83
-1.52
-0.1
-0.11
0.05
0.22

> <PUBCHEM_SHAPE_SELFOVERLAP>
988.232

> <PUBCHEM_SHAPE_VOLUME>
286

> <PUBCHEM_COORDINATE_TYPE>
2
5
10

$$$$

