46173943
  -OEChem-07051213102D

112111  0     1  0  0  0  0  0999 V2000
   17.5885    2.0000    0.0000 O   0  0  0  0  0  0  0  0  0  0  0  0
   20.1865    1.5000    0.0000 O   0  0  0  0  0  0  0  0  0  0  0  0
   16.7224    0.5000    0.0000 O   0  0  0  0  0  0  0  0  0  0  0  0
   21.0526    3.0000    0.0000 O   0  0  0  0  0  0  0  0  0  0  0  0
   12.3923    2.0000    0.0000 C   0  0  0  0  0  0  0  0  0  0  0  0
   11.5263    1.5000    0.0000 C   0  0  0  0  0  0  0  0  0  0  0  0
   13.2583    1.5000    0.0000 C   0  0  0  0  0  0  0  0  0  0  0  0
   10.6603    2.0000    0.0000 C   0  0  0  0  0  0  0  0  0  0  0  0
   14.1244    2.0000    0.0000 C   0  0  0  0  0  0  0  0  0  0  0  0
    9.7942    1.5000    0.0000 C   0  0  0  0  0  0  0  0  0  0  0  0
   14.9904    1.5000    0.0000 C   0  0  0  0  0  0  0  0  0  0  0  0
   24.5167    2.0000    0.0000 C   0  0  0  0  0  0  0  0  0  0  0  0
   25.3827    1.5000    0.0000 C   0  0  0  0  0  0  0  0  0  0  0  0
   23.6506    1.5000    0.0000 C   0  0  0  0  0  0  0  0  0  0  0  0
    8.9282    2.0000    0.0000 C   0  0  0  0  0  0  0  0  0  0  0  0
   15.8564    2.0000    0.0000 C   0  0  0  0  0  0  0  0  0  0  0  0
   26.2487    2.0000    0.0000 C   0  0  0  0  0  0  0  0  0  0  0  0
   22.7846    2.0000    0.0000 C   0  0  0  0  0  0  0  0  0  0  0  0
   21.9186    1.5000    0.0000 C   0  0  0  0  0  0  0  0  0  0  0  0
   27.1147    1.5000    0.0000 C   0  0  0  0  0  0  0  0  0  0  0  0
   18.4545    1.5000    0.0000 C   0  0  2  0  0  0  0  0  0  0  0  0
   19.3205    2.0000    0.0000 C   0  0  1  0  0  0  0  0  0  0  0  0
    8.0622    1.5000    0.0000 C   0  0  0  0  0  0  0  0  0  0  0  0
   16.7224    1.5000    0.0000 C   0  0  0  0  0  0  0  0  0  0  0  0
    5.4641    2.0000    0.0000 C   0  0  0  0  0  0  0  0  0  0  0  0
    6.3301    1.5000    0.0000 C   0  0  0  0  0  0  0  0  0  0  0  0
    4.5981    1.5000    0.0000 C   0  0  0  0  0  0  0  0  0  0  0  0
   29.7128    0.0000    0.0000 C   0  0  0  0  0  0  0  0  0  0  0  0
    7.1962    2.0000    0.0000 C   0  0  0  0  0  0  0  0  0  0  0  0
   29.7128   -1.0000    0.0000 C   0  0  0  0  0  0  0  0  0  0  0  0
   28.8468    0.5000    0.0000 C   0  0  0  0  0  0  0  0  0  0  0  0
   21.0526    2.0000    0.0000 C   0  0  0  0  0  0  0  0  0  0  0  0
   27.9808    2.0000    0.0000 C   0  0  0  0  0  0  0  0  0  0  0  0
    3.7320    2.0000    0.0000 C   0  0  0  0  0  0  0  0  0  0  0  0
   30.5788   -1.5000    0.0000 C   0  0  0  0  0  0  0  0  0  0  0  0
   18.4545    0.5000    0.0000 C   0  0  0  0  0  0  0  0  0  0  0  0
   19.3205    3.0000    0.0000 C   0  0  0  0  0  0  0  0  0  0  0  0
   28.8468    1.5000    0.0000 C   0  0  0  0  0  0  0  0  0  0  0  0
    2.8660    1.5000    0.0000 C   0  0  0  0  0  0  0  0  0  0  0  0
   30.5788   -2.5000    0.0000 C   0  0  0  0  0  0  0  0  0  0  0  0
    2.0000    2.0000    0.0000 C   0  0  0  0  0  0  0  0  0  0  0  0
   31.4449   -3.0000    0.0000 C   0  0  0  0  0  0  0  0  0  0  0  0
   12.7908    2.4750    0.0000 H   0  0  0  0  0  0  0  0  0  0  0  0
   11.9938    2.4750    0.0000 H   0  0  0  0  0  0  0  0  0  0  0  0
   11.1278    1.0250    0.0000 H   0  0  0  0  0  0  0  0  0  0  0  0
   11.9248    1.0250    0.0000 H   0  0  0  0  0  0  0  0  0  0  0  0
   12.8598    1.0250    0.0000 H   0  0  0  0  0  0  0  0  0  0  0  0
   13.6569    1.0250    0.0000 H   0  0  0  0  0  0  0  0  0  0  0  0
   11.0588    2.4750    0.0000 H   0  0  0  0  0  0  0  0  0  0  0  0
   10.2617    2.4750    0.0000 H   0  0  0  0  0  0  0  0  0  0  0  0
   14.5229    2.4750    0.0000 H   0  0  0  0  0  0  0  0  0  0  0  0
   13.7258    2.4750    0.0000 H   0  0  0  0  0  0  0  0  0  0  0  0
    9.3957    1.0250    0.0000 H   0  0  0  0  0  0  0  0  0  0  0  0
   10.1928    1.0250    0.0000 H   0  0  0  0  0  0  0  0  0  0  0  0
   14.5919    1.0250    0.0000 H   0  0  0  0  0  0  0  0  0  0  0  0
   15.3889    1.0250    0.0000 H   0  0  0  0  0  0  0  0  0  0  0  0
   24.9152    2.4750    0.0000 H   0  0  0  0  0  0  0  0  0  0  0  0
   24.1181    2.4750    0.0000 H   0  0  0  0  0  0  0  0  0  0  0  0
   24.9842    1.0250    0.0000 H   0  0  0  0  0  0  0  0  0  0  0  0
   25.7812    1.0250    0.0000 H   0  0  0  0  0  0  0  0  0  0  0  0
   23.2521    1.0250    0.0000 H   0  0  0  0  0  0  0  0  0  0  0  0
   24.0492    1.0250    0.0000 H   0  0  0  0  0  0  0  0  0  0  0  0
    9.3267    2.4750    0.0000 H   0  0  0  0  0  0  0  0  0  0  0  0
    8.5297    2.4750    0.0000 H   0  0  0  0  0  0  0  0  0  0  0  0
   16.2549    2.4750    0.0000 H   0  0  0  0  0  0  0  0  0  0  0  0
   15.4579    2.4750    0.0000 H   0  0  0  0  0  0  0  0  0  0  0  0
   26.6472    2.4750    0.0000 H   0  0  0  0  0  0  0  0  0  0  0  0
   25.8502    2.4750    0.0000 H   0  0  0  0  0  0  0  0  0  0  0  0
   23.1831    2.4750    0.0000 H   0  0  0  0  0  0  0  0  0  0  0  0
   22.3861    2.4750    0.0000 H   0  0  0  0  0  0  0  0  0  0  0  0
   21.5201    1.0250    0.0000 H   0  0  0  0  0  0  0  0  0  0  0  0
   22.3171    1.0250    0.0000 H   0  0  0  0  0  0  0  0  0  0  0  0
   26.7162    1.0250    0.0000 H   0  0  0  0  0  0  0  0  0  0  0  0
   27.5133    1.0250    0.0000 H   0  0  0  0  0  0  0  0  0  0  0  0
   18.4545    2.1200    0.0000 H   0  0  0  0  0  0  0  0  0  0  0  0
   19.8574    2.3100    0.0000 H   0  0  0  0  0  0  0  0  0  0  0  0
    8.0622    0.8800    0.0000 H   0  0  0  0  0  0  0  0  0  0  0  0
    5.8626    2.4750    0.0000 H   0  0  0  0  0  0  0  0  0  0  0  0
    5.0656    2.4750    0.0000 H   0  0  0  0  0  0  0  0  0  0  0  0
    5.9316    1.0250    0.0000 H   0  0  0  0  0  0  0  0  0  0  0  0
    6.7287    1.0250    0.0000 H   0  0  0  0  0  0  0  0  0  0  0  0
    4.1996    1.0250    0.0000 H   0  0  0  0  0  0  0  0  0  0  0  0
    4.9966    1.0250    0.0000 H   0  0  0  0  0  0  0  0  0  0  0  0
   30.3234   -0.1077    0.0000 H   0  0  0  0  0  0  0  0  0  0  0  0
   29.9249    0.5826    0.0000 H   0  0  0  0  0  0  0  0  0  0  0  0
   29.1022   -0.8923    0.0000 H   0  0  0  0  0  0  0  0  0  0  0  0
   29.5008   -1.5826    0.0000 H   0  0  0  0  0  0  0  0  0  0  0  0
    7.1962    2.6200    0.0000 H   0  0  0  0  0  0  0  0  0  0  0  0
   28.2362    0.6077    0.0000 H   0  0  0  0  0  0  0  0  0  0  0  0
   28.6347   -0.0826    0.0000 H   0  0  0  0  0  0  0  0  0  0  0  0
   27.9808    2.6200    0.0000 H   0  0  0  0  0  0  0  0  0  0  0  0
    4.1306    2.4750    0.0000 H   0  0  0  0  0  0  0  0  0  0  0  0
    3.3335    2.4750    0.0000 H   0  0  0  0  0  0  0  0  0  0  0  0
   31.1894   -1.6077    0.0000 H   0  0  0  0  0  0  0  0  0  0  0  0
   30.7909   -0.9174    0.0000 H   0  0  0  0  0  0  0  0  0  0  0  0
   17.8345    0.5000    0.0000 H   0  0  0  0  0  0  0  0  0  0  0  0
   18.4545   -0.1200    0.0000 H   0  0  0  0  0  0  0  0  0  0  0  0
   19.0745    0.5000    0.0000 H   0  0  0  0  0  0  0  0  0  0  0  0
   19.9405    3.0000    0.0000 H   0  0  0  0  0  0  0  0  0  0  0  0
   19.3205    3.6200    0.0000 H   0  0  0  0  0  0  0  0  0  0  0  0
   18.7005    3.0000    0.0000 H   0  0  0  0  0  0  0  0  0  0  0  0
   29.3837    1.8100    0.0000 H   0  0  0  0  0  0  0  0  0  0  0  0
    2.4675    1.0250    0.0000 H   0  0  0  0  0  0  0  0  0  0  0  0
    3.2646    1.0250    0.0000 H   0  0  0  0  0  0  0  0  0  0  0  0
   29.9683   -2.3923    0.0000 H   0  0  0  0  0  0  0  0  0  0  0  0
   30.3668   -3.0826    0.0000 H   0  0  0  0  0  0  0  0  0  0  0  0
    2.3100    2.5369    0.0000 H   0  0  0  0  0  0  0  0  0  0  0  0
    1.4631    2.3100    0.0000 H   0  0  0  0  0  0  0  0  0  0  0  0
    1.6900    1.4631    0.0000 H   0  0  0  0  0  0  0  0  0  0  0  0
   31.1349   -3.5369    0.0000 H   0  0  0  0  0  0  0  0  0  0  0  0
   31.9818   -3.3100    0.0000 H   0  0  0  0  0  0  0  0  0  0  0  0
   31.7549   -2.4631    0.0000 H   0  0  0  0  0  0  0  0  0  0  0  0
 21  1  1  6  0  0  0
  1 24  1  0  0  0  0
 22  2  1  1  0  0  0
  2 32  1  0  0  0  0
  3 24  2  0  0  0  0
  4 32  2  0  0  0  0
  5  6  1  0  0  0  0
  5  7  1  0  0  0  0
  5 43  1  0  0  0  0
  5 44  1  0  0  0  0
  6  8  1  0  0  0  0
  6 45  1  0  0  0  0
  6 46  1  0  0  0  0
  7  9  1  0  0  0  0
  7 47  1  0  0  0  0
  7 48  1  0  0  0  0
  8 10  1  0  0  0  0
  8 49  1  0  0  0  0
  8 50  1  0  0  0  0
  9 11  1  0  0  0  0
  9 51  1  0  0  0  0
  9 52  1  0  0  0  0
 10 15  1  0  0  0  0
 10 53  1  0  0  0  0
 10 54  1  0  0  0  0
 11 16  1  0  0  0  0
 11 55  1  0  0  0  0
 11 56  1  0  0  0  0
 12 13  1  0  0  0  0
 12 14  1  0  0  0  0
 12 57  1  0  0  0  0
 12 58  1  0  0  0  0
 13 17  1  0  0  0  0
 13 59  1  0  0  0  0
 13 60  1  0  0  0  0
 14 18  1  0  0  0  0
 14 61  1  0  0  0  0
 14 62  1  0  0  0  0
 15 23  1  0  0  0  0
 15 63  1  0  0  0  0
 15 64  1  0  0  0  0
 16 24  1  0  0  0  0
 16 65  1  0  0  0  0
 16 66  1  0  0  0  0
 17 20  1  0  0  0  0
 17 67  1  0  0  0  0
 17 68  1  0  0  0  0
 18 19  1  0  0  0  0
 18 69  1  0  0  0  0
 18 70  1  0  0  0  0
 19 32  1  0  0  0  0
 19 71  1  0  0  0  0
 19 72  1  0  0  0  0
 20 33  1  0  0  0  0
 20 73  1  0  0  0  0
 20 74  1  0  0  0  0
 21 22  1  0  0  0  0
 21 36  1  0  0  0  0
 21 75  1  0  0  0  0
 22 37  1  0  0  0  0
 22 76  1  0  0  0  0
 23 29  2  0  0  0  0
 23 77  1  0  0  0  0
 25 26  1  0  0  0  0
 25 27  1  0  0  0  0
 25 78  1  0  0  0  0
 25 79  1  0  0  0  0
 26 29  1  0  0  0  0
 26 80  1  0  0  0  0
 26 81  1  0  0  0  0
 27 34  1  0  0  0  0
 27 82  1  0  0  0  0
 27 83  1  0  0  0  0
 28 30  1  0  0  0  0
 28 31  1  0  0  0  0
 28 84  1  0  0  0  0
 28 85  1  0  0  0  0
 29 88  1  0  0  0  0
 30 35  1  0  0  0  0
 30 86  1  0  0  0  0
 30 87  1  0  0  0  0
 31 38  1  0  0  0  0
 31 89  1  0  0  0  0
 31 90  1  0  0  0  0
 33 38  2  0  0  0  0
 33 91  1  0  0  0  0
 34 39  1  0  0  0  0
 34 92  1  0  0  0  0
 34 93  1  0  0  0  0
 35 40  1  0  0  0  0
 35 94  1  0  0  0  0
 35 95  1  0  0  0  0
 36 96  1  0  0  0  0
 36 97  1  0  0  0  0
 36 98  1  0  0  0  0
 37 99  1  0  0  0  0
 37100  1  0  0  0  0
 37101  1  0  0  0  0
 38102  1  0  0  0  0
 39 41  1  0  0  0  0
 39103  1  0  0  0  0
 39104  1  0  0  0  0
 40 42  1  0  0  0  0
 40105  1  0  0  0  0
 40106  1  0  0  0  0
 41107  1  0  0  0  0
 41108  1  0  0  0  0
 41109  1  0  0  0  0
 42110  1  0  0  0  0
 42111  1  0  0  0  0
 42112  1  0  0  0  0
M  END
> <PUBCHEM_COMPOUND_CID>
46173943

> <PUBCHEM_COMPOUND_CANONICALIZED>
1

> <PUBCHEM_CACTVS_COMPLEXITY>
654

> <PUBCHEM_CACTVS_HBOND_ACCEPTOR>
4

> <PUBCHEM_CACTVS_HBOND_DONOR>
0

> <PUBCHEM_CACTVS_ROTATABLE_BOND>
33

> <PUBCHEM_CACTVS_SUBSKEYS>
AAADcfB8OAAAAAAAAAAAAAAAAAAAAAAAAAAAAAAAAAAAAAAAAAAAGgAAAAAACBSggAICCAAABACIACDSCAAAAAAgAAAICAEAAAgBABIAAQACAAAEgAAKAAOIyKCAAAAAAAAAAAAAAAAAAAAAAAAAAAAAAA==

> <PUBCHEM_IUPAC_OPENEYE_NAME>
[(1S,2R)-2-[(Z)-hexadec-9-enoyl]oxy-1-methyl-propyl] (E)-octadec-11-enoate

> <PUBCHEM_IUPAC_CAS_NAME>
(E)-11-octadecenoic acid [(2S,3R)-3-[(Z)-1-oxohexadec-9-enoxy]butan-2-yl] ester

> <PUBCHEM_IUPAC_NAME>
[(2S,3R)-3-[(Z)-hexadec-9-enoyl]oxybutan-2-yl] (E)-octadec-11-enoate

> <PUBCHEM_IUPAC_SYSTEMATIC_NAME>
[(2S,3R)-3-[(Z)-hexadec-9-enoyl]oxybutan-2-yl] (E)-octadec-11-enoate

> <PUBCHEM_IUPAC_TRADITIONAL_NAME>
(E)-octadec-11-enoic acid [(1S,2R)-2-[(Z)-hexadec-9-enoyl]oxy-1-methyl-propyl] ester

> <PUBCHEM_IUPAC_INCHI>
InChI=1S/C38H70O4/c1-5-7-9-11-13-15-17-19-20-22-24-26-28-30-32-34-38(40)42-36(4)35(3)41-37(39)33-31-29-27-25-23-21-18-16-14-12-10-8-6-2/h15-18,35-36H,5-14,19-34H2,1-4H3/b17-15+,18-16-/t35-,36+/m1/s1

> <PUBCHEM_IUPAC_INCHIKEY>
DPQCZNIGGNJGTD-MVCBGFDASA-N

> <PUBCHEM_XLOGP3_AA>
14.7

> <PUBCHEM_EXACT_MASS>
590.527411

> <PUBCHEM_MOLECULAR_FORMULA>
C38H70O4

> <PUBCHEM_MOLECULAR_WEIGHT>
590.96

> <PUBCHEM_OPENEYE_CAN_SMILES>
CCCCCCC=CCCCCCCCCCC(=O)OC(C)C(C)OC(=O)CCCCCCCC=CCCCCCC

> <PUBCHEM_OPENEYE_ISO_SMILES>
CCCCCC/C=C/CCCCCCCCCC(=O)O[C@@H](C)[C@@H](C)OC(=O)CCCCCCC/C=C\CCCCCC

> <PUBCHEM_CACTVS_TPSA>
52.6

> <PUBCHEM_MONOISOTOPIC_WEIGHT>
590.527411

> <PUBCHEM_TOTAL_CHARGE>
0

> <PUBCHEM_HEAVY_ATOM_COUNT>
42

> <PUBCHEM_ATOM_DEF_STEREO_COUNT>
2

> <PUBCHEM_ATOM_UDEF_STEREO_COUNT>
0

> <PUBCHEM_BOND_DEF_STEREO_COUNT>
2

> <PUBCHEM_BOND_UDEF_STEREO_COUNT>
0

> <PUBCHEM_ISOTOPIC_ATOM_COUNT>
0

> <PUBCHEM_COMPONENT_COUNT>
1

> <PUBCHEM_CACTVS_TAUTO_COUNT>
1

> <PUBCHEM_COORDINATE_TYPE>
1
5
255

> <PUBCHEM_BONDANNOTATIONS>
21  1  6
22  2  5

$$$$

