8489
  -OEChem-07051213143D

 14 14  0     0  0  0  0  0  0999 V2000
   -2.9898    1.6032   -0.0002 Cl  0  0  0  0  0  0  0  0  0  0  0  0
    2.9027   -0.5188   -0.0001 O   0  5  0  0  0  0  0  0  0  0  0  0
    2.2433    1.5750   -0.0001 O   0  0  0  0  0  0  0  0  0  0  0  0
    1.9930    0.3454    0.0001 N   0  3  0  0  0  0  0  0  0  0  0  0
    0.6387   -0.0812    0.0001 C   0  0  0  0  0  0  0  0  0  0  0  0
   -0.3898    0.8611    0.0002 C   0  0  0  0  0  0  0  0  0  0  0  0
    0.3370   -1.4430    0.0000 C   0  0  0  0  0  0  0  0  0  0  0  0
   -1.7200    0.4415    0.0001 C   0  0  0  0  0  0  0  0  0  0  0  0
   -0.9933   -1.8626   -0.0001 C   0  0  0  0  0  0  0  0  0  0  0  0
   -2.0218   -0.9204    0.0000 C   0  0  0  0  0  0  0  0  0  0  0  0
   -0.1771    1.9280    0.0002 H   0  0  0  0  0  0  0  0  0  0  0  0
    1.1119   -2.2054   -0.0002 H   0  0  0  0  0  0  0  0  0  0  0  0
   -1.2286   -2.9229   -0.0002 H   0  0  0  0  0  0  0  0  0  0  0  0
   -3.0537   -1.2621   -0.0001 H   0  0  0  0  0  0  0  0  0  0  0  0
  1  8  1  0  0  0  0
  2  4  1  0  0  0  0
  3  4  2  0  0  0  0
  4  5  1  0  0  0  0
  5  6  2  0  0  0  0
  5  7  1  0  0  0  0
  6  8  1  0  0  0  0
  6 11  1  0  0  0  0
  7  9  2  0  0  0  0
  7 12  1  0  0  0  0
  8 10  2  0  0  0  0
  9 10  1  0  0  0  0
  9 13  1  0  0  0  0
 10 14  1  0  0  0  0
M  CHG  2   2  -1   4   1
M  END
> <PUBCHEM_COMPOUND_CID>
8489

> <PUBCHEM_CONFORMER_RMSD>
0.4

> <PUBCHEM_CONFORMER_DIVERSEORDER>
1

> <PUBCHEM_MMFF94_PARTIAL_CHARGES>
14
1 -0.18
10 -0.15
11 0.15
12 0.15
13 0.15
14 0.15
2 -0.52
3 -0.52
4 0.91
5 0.13
6 -0.15
7 -0.15
8 0.18
9 -0.15

> <PUBCHEM_EFFECTIVE_ROTOR_COUNT>
1

> <PUBCHEM_PHARMACOPHORE_FEATURES>
4
1 2 acceptor
1 2 anion
1 3 acceptor
6 5 6 7 8 9 10 rings

> <PUBCHEM_HEAVY_ATOM_COUNT>
10

> <PUBCHEM_ATOM_DEF_STEREO_COUNT>
0

> <PUBCHEM_ATOM_UDEF_STEREO_COUNT>
0

> <PUBCHEM_BOND_DEF_STEREO_COUNT>
0

> <PUBCHEM_BOND_UDEF_STEREO_COUNT>
0

> <PUBCHEM_ISOTOPIC_ATOM_COUNT>
0

> <PUBCHEM_COMPONENT_COUNT>
1

> <PUBCHEM_CACTVS_TAUTO_COUNT>
1

> <PUBCHEM_CONFORMER_ID>
0000212900000001

> <PUBCHEM_MMFF94_ENERGY>
26.2115

> <PUBCHEM_FEATURE_SELFOVERLAP>
20.379

> <PUBCHEM_SHAPE_FINGERPRINT>
13380535 76 18338520858322876063
14325111 11 18410575084668529057
16945 1 18338799038685033351
19973954 147 18338796693722638492
20653085 51 18411688894247610904
20871998 184 18116707405280540583
21040471 1 18410574006795157635
23235685 24 18337960107165792017
23402655 69 18120108427470213933
23552423 10 18200313208694423398
241688 4 16391552122139052091
2748010 2 18410008810447181653
369184 2 18335139726496074394
5084963 1 18187646877349108683

> <PUBCHEM_SHAPE_MULTIPOLES>
190.95
3.9
1.9
0.59
0.53
0.29
0
-1.74
0
-0.48
0
-0.08
0.01
0

> <PUBCHEM_SHAPE_SELFOVERLAP>
390.231

> <PUBCHEM_SHAPE_VOLUME>
112

> <PUBCHEM_COORDINATE_TYPE>
2
5
10

$$$$

