5281397
  -OEChem-07051212573D

 98104  0     1  0  0  0  0  0999 V2000
    2.7900   -0.1084   -2.1332 O   0  0  0  0  0  0  0  0  0  0  0  0
    0.1160    0.4544   -0.4646 O   0  0  0  0  0  0  0  0  0  0  0  0
    0.9016    2.4746   -1.4067 O   0  0  0  0  0  0  0  0  0  0  0  0
   -0.5078    2.5844    0.3712 O   0  0  0  0  0  0  0  0  0  0  0  0
    3.6540   -0.8820    1.6994 O   0  0  0  0  0  0  0  0  0  0  0  0
    5.4221   -1.7338   -0.1303 O   0  0  0  0  0  0  0  0  0  0  0  0
    3.9526   -3.6924    1.5517 O   0  0  0  0  0  0  0  0  0  0  0  0
    6.0999    0.7662   -1.9923 O   0  0  0  0  0  0  0  0  0  0  0  0
    1.2672    0.2690    0.4103 C   0  0  2  0  0  0  0  0  0  0  0  0
    2.4144    1.2474   -0.0483 C   0  0  1  0  0  0  0  0  0  0  0  0
    1.6578   -1.2508    0.2481 C   0  0  1  0  0  0  0  0  0  0  0  0
    3.2414    0.9232   -1.2631 C   0  0  1  0  0  0  0  0  0  0  0  0
    4.0480   -0.3349   -1.4590 C   0  0  1  0  0  0  0  0  0  0  0  0
    1.7644    2.6366   -0.2717 C   0  0  2  0  0  0  0  0  0  0  0  0
    3.1246   -1.6086    0.6073 C   0  0  1  0  0  0  0  0  0  0  0  0
    0.8734    0.6990    1.9033 C   0  0  1  0  0  0  0  0  0  0  0  0
    4.0767   -1.5570   -0.5983 C   0  0  2  0  0  0  0  0  0  0  0  0
    0.7807    3.0190    0.8481 C   0  0  2  0  0  0  0  0  0  0  0  0
    0.7978   -2.3115    0.9943 C   0  0  2  0  0  0  0  0  0  0  0  0
    1.0675    2.2339    2.1268 C   0  0  0  0  0  0  0  0  0  0  0  0
   -0.2122    1.8218   -0.7935 C   0  0  2  0  0  0  0  0  0  0  0  0
    1.6250   -3.6059    0.9102 C   0  0  1  0  0  0  0  0  0  0  0  0
    3.0149   -3.0512    1.0908 C   0  0  0  0  0  0  0  0  0  0  0  0
    5.1875   -0.2361   -2.4296 C   0  0  0  0  0  0  0  0  0  0  0  0
   -0.5512    0.3360    2.3726 C   0  0  0  0  0  0  0  0  0  0  0  0
   -0.6457   -2.4683    0.4704 C   0  0  0  0  0  0  0  0  0  0  0  0
    0.7283    4.4948    1.0753 C   0  0  0  0  0  0  0  0  0  0  0  0
    1.2552   -4.6326    1.9661 C   0  0  0  0  0  0  0  0  0  0  0  0
   -1.3382    1.7759   -1.7856 C   0  0  0  0  0  0  0  0  0  0  0  0
   -0.8003   -3.1657   -0.8869 C   0  0  0  0  0  0  0  0  0  0  0  0
    0.4501    5.3405   -0.1318 C   0  0  0  0  0  0  0  0  0  0  0  0
    0.9184    5.0326    2.2894 C   0  0  0  0  0  0  0  0  0  0  0  0
   -2.1643   -2.9282   -1.5470 C   0  0  0  0  0  0  0  0  0  0  0  0
   -2.5689    2.3104   -1.7502 C   0  0  0  0  0  0  0  0  0  0  0  0
   -3.3560   -3.2763   -0.6528 C   0  0  0  0  0  0  0  0  0  0  0  0
   -3.1962    3.1849   -0.7054 C   0  0  0  0  0  0  0  0  0  0  0  0
   -4.6737   -3.2064   -1.4319 C   0  0  0  0  0  0  0  0  0  0  0  0
   -3.9633    2.4122    0.3724 C   0  0  0  0  0  0  0  0  0  0  0  0
   -5.9028   -3.4087   -0.5381 C   0  0  0  0  0  0  0  0  0  0  0  0
   -5.1250    1.5818   -0.1840 C   0  0  0  0  0  0  0  0  0  0  0  0
   -6.2415   -2.2053    0.3511 C   0  0  0  0  0  0  0  0  0  0  0  0
   -5.9407    0.9387    0.9420 C   0  0  0  0  0  0  0  0  0  0  0  0
   -6.8706   -1.0490   -0.4337 C   0  0  0  0  0  0  0  0  0  0  0  0
   -7.1713    0.1756    0.4372 C   0  0  0  0  0  0  0  0  0  0  0  0
    3.1434    1.3480    0.7650 H   0  0  0  0  0  0  0  0  0  0  0  0
    1.5095   -1.5046   -0.8086 H   0  0  0  0  0  0  0  0  0  0  0  0
    3.6335    1.8232   -1.7252 H   0  0  0  0  0  0  0  0  0  0  0  0
    2.5291    3.3927   -0.4809 H   0  0  0  0  0  0  0  0  0  0  0  0
    1.5577    0.2184    2.6085 H   0  0  0  0  0  0  0  0  0  0  0  0
    3.8709   -2.4166   -1.2500 H   0  0  0  0  0  0  0  0  0  0  0  0
    0.7589   -2.0364    2.0534 H   0  0  0  0  0  0  0  0  0  0  0  0
    0.4039    2.5359    2.9456 H   0  0  0  0  0  0  0  0  0  0  0  0
    2.0944    2.4184    2.4710 H   0  0  0  0  0  0  0  0  0  0  0  0
    1.5906   -4.0541   -0.0885 H   0  0  0  0  0  0  0  0  0  0  0  0
    4.8478    0.0346   -3.4367 H   0  0  0  0  0  0  0  0  0  0  0  0
    5.7375   -1.1772   -2.5324 H   0  0  0  0  0  0  0  0  0  0  0  0
   -0.6761   -0.7278    2.5650 H   0  0  0  0  0  0  0  0  0  0  0  0
   -0.7846    0.8194    3.3285 H   0  0  0  0  0  0  0  0  0  0  0  0
   -1.3221    0.6357    1.6609 H   0  0  0  0  0  0  0  0  0  0  0  0
   -1.1276   -1.4891    0.4184 H   0  0  0  0  0  0  0  0  0  0  0  0
   -1.2137   -3.0405    1.2150 H   0  0  0  0  0  0  0  0  0  0  0  0
    3.1169   -1.0729    2.4860 H   0  0  0  0  0  0  0  0  0  0  0  0
    5.6100   -1.0125    0.4949 H   0  0  0  0  0  0  0  0  0  0  0  0
    0.2232   -4.9736    1.8407 H   0  0  0  0  0  0  0  0  0  0  0  0
    1.9093   -5.5086    1.8983 H   0  0  0  0  0  0  0  0  0  0  0  0
    1.3627   -4.2249    2.9772 H   0  0  0  0  0  0  0  0  0  0  0  0
   -1.1121    1.1855   -2.6752 H   0  0  0  0  0  0  0  0  0  0  0  0
   -0.6551   -4.2450   -0.7577 H   0  0  0  0  0  0  0  0  0  0  0  0
   -0.0317   -2.8243   -1.5880 H   0  0  0  0  0  0  0  0  0  0  0  0
    1.2728    5.2936   -0.8512 H   0  0  0  0  0  0  0  0  0  0  0  0
   -0.4699    5.0296   -0.6338 H   0  0  0  0  0  0  0  0  0  0  0  0
    0.3227    6.3952    0.1374 H   0  0  0  0  0  0  0  0  0  0  0  0
    5.7175    1.6338   -2.2053 H   0  0  0  0  0  0  0  0  0  0  0  0
    0.8710    6.1113    2.4148 H   0  0  0  0  0  0  0  0  0  0  0  0
    1.1395    4.4823    3.1936 H   0  0  0  0  0  0  0  0  0  0  0  0
   -2.2076   -3.5226   -2.4679 H   0  0  0  0  0  0  0  0  0  0  0  0
   -2.2373   -1.8756   -1.8489 H   0  0  0  0  0  0  0  0  0  0  0  0
   -3.2115    2.0993   -2.6048 H   0  0  0  0  0  0  0  0  0  0  0  0
   -3.3846   -2.5832    0.1934 H   0  0  0  0  0  0  0  0  0  0  0  0
   -3.2308   -4.2856   -0.2425 H   0  0  0  0  0  0  0  0  0  0  0  0
   -2.4520    3.8280   -0.2291 H   0  0  0  0  0  0  0  0  0  0  0  0
   -3.8831    3.8760   -1.2109 H   0  0  0  0  0  0  0  0  0  0  0  0
   -4.6674   -3.9970   -2.1928 H   0  0  0  0  0  0  0  0  0  0  0  0
   -4.7435   -2.2566   -1.9722 H   0  0  0  0  0  0  0  0  0  0  0  0
   -3.2771    1.7560    0.9196 H   0  0  0  0  0  0  0  0  0  0  0  0
   -4.3525    3.1363    1.0990 H   0  0  0  0  0  0  0  0  0  0  0  0
   -5.7402   -4.2865    0.0993 H   0  0  0  0  0  0  0  0  0  0  0  0
   -6.7683   -3.6405   -1.1708 H   0  0  0  0  0  0  0  0  0  0  0  0
   -5.7782    2.2230   -0.7878 H   0  0  0  0  0  0  0  0  0  0  0  0
   -4.7286    0.8031   -0.8436 H   0  0  0  0  0  0  0  0  0  0  0  0
   -5.3497   -1.8714    0.8881 H   0  0  0  0  0  0  0  0  0  0  0  0
   -6.9583   -2.5339    1.1142 H   0  0  0  0  0  0  0  0  0  0  0  0
   -5.2997    0.2803    1.5381 H   0  0  0  0  0  0  0  0  0  0  0  0
   -6.2892    1.7273    1.6210 H   0  0  0  0  0  0  0  0  0  0  0  0
   -7.8172   -1.3995   -0.8646 H   0  0  0  0  0  0  0  0  0  0  0  0
   -6.2414   -0.7604   -1.2801 H   0  0  0  0  0  0  0  0  0  0  0  0
   -7.7704   -0.1375    1.3012 H   0  0  0  0  0  0  0  0  0  0  0  0
   -7.7996    0.8660   -0.1394 H   0  0  0  0  0  0  0  0  0  0  0  0
  1 12  1  0  0  0  0
  1 13  1  0  0  0  0
  2  9  1  0  0  0  0
  2 21  1  0  0  0  0
  3 14  1  0  0  0  0
  3 21  1  0  0  0  0
  4 18  1  0  0  0  0
  4 21  1  0  0  0  0
  5 15  1  0  0  0  0
  5 62  1  0  0  0  0
  6 17  1  0  0  0  0
  6 63  1  0  0  0  0
  7 23  2  0  0  0  0
  8 24  1  0  0  0  0
  8 73  1  0  0  0  0
  9 10  1  0  0  0  0
  9 11  1  0  0  0  0
  9 16  1  0  0  0  0
 10 12  1  0  0  0  0
 10 14  1  0  0  0  0
 10 45  1  0  0  0  0
 11 15  1  0  0  0  0
 11 19  1  0  0  0  0
 11 46  1  0  0  0  0
 12 13  1  0  0  0  0
 12 47  1  0  0  0  0
 13 17  1  0  0  0  0
 13 24  1  0  0  0  0
 14 18  1  0  0  0  0
 14 48  1  0  0  0  0
 15 17  1  0  0  0  0
 15 23  1  0  0  0  0
 16 20  1  0  0  0  0
 16 25  1  0  0  0  0
 16 49  1  0  0  0  0
 17 50  1  0  0  0  0
 18 20  1  0  0  0  0
 18 27  1  0  0  0  0
 19 22  1  0  0  0  0
 19 26  1  0  0  0  0
 19 51  1  0  0  0  0
 20 52  1  0  0  0  0
 20 53  1  0  0  0  0
 21 29  1  0  0  0  0
 22 23  1  0  0  0  0
 22 28  1  0  0  0  0
 22 54  1  0  0  0  0
 24 55  1  0  0  0  0
 24 56  1  0  0  0  0
 25 57  1  0  0  0  0
 25 58  1  0  0  0  0
 25 59  1  0  0  0  0
 26 30  1  0  0  0  0
 26 60  1  0  0  0  0
 26 61  1  0  0  0  0
 27 31  1  0  0  0  0
 27 32  2  0  0  0  0
 28 64  1  0  0  0  0
 28 65  1  0  0  0  0
 28 66  1  0  0  0  0
 29 34  2  0  0  0  0
 29 67  1  0  0  0  0
 30 33  1  0  0  0  0
 30 68  1  0  0  0  0
 30 69  1  0  0  0  0
 31 70  1  0  0  0  0
 31 71  1  0  0  0  0
 31 72  1  0  0  0  0
 32 74  1  0  0  0  0
 32 75  1  0  0  0  0
 33 35  1  0  0  0  0
 33 76  1  0  0  0  0
 33 77  1  0  0  0  0
 34 36  1  0  0  0  0
 34 78  1  0  0  0  0
 35 37  1  0  0  0  0
 35 79  1  0  0  0  0
 35 80  1  0  0  0  0
 36 38  1  0  0  0  0
 36 81  1  0  0  0  0
 36 82  1  0  0  0  0
 37 39  1  0  0  0  0
 37 83  1  0  0  0  0
 37 84  1  0  0  0  0
 38 40  1  0  0  0  0
 38 85  1  0  0  0  0
 38 86  1  0  0  0  0
 39 41  1  0  0  0  0
 39 87  1  0  0  0  0
 39 88  1  0  0  0  0
 40 42  1  0  0  0  0
 40 89  1  0  0  0  0
 40 90  1  0  0  0  0
 41 43  1  0  0  0  0
 41 91  1  0  0  0  0
 41 92  1  0  0  0  0
 42 44  1  0  0  0  0
 42 93  1  0  0  0  0
 42 94  1  0  0  0  0
 43 44  1  0  0  0  0
 43 95  1  0  0  0  0
 43 96  1  0  0  0  0
 44 97  1  0  0  0  0
 44 98  1  0  0  0  0
M  END
> <PUBCHEM_COMPOUND_CID>
5281397

> <PUBCHEM_CONFORMER_RMSD>
1

> <PUBCHEM_CONFORMER_DIVERSEORDER>
1

> <PUBCHEM_MMFF94_PARTIAL_CHARGES>
34
1 -0.3
10 0.09
12 -0.05
13 -0.04
14 0.28
15 0.34
17 0.38
18 0.42
2 -0.56
21 0.98
22 0.06
23 0.45
24 0.38
27 -0.28
29 -0.29
3 -0.56
31 0.14
32 -0.3
34 -0.29
36 0.14
4 -0.56
47 0.1
5 -0.68
6 -0.68
62 0.4
63 0.4
67 0.15
7 -0.57
73 0.4
74 0.15
75 0.15
78 0.15
8 -0.68
9 0.28

> <PUBCHEM_EFFECTIVE_ROTOR_COUNT>
6.2

> <PUBCHEM_PHARMACOPHORE_FEATURES>
14
1 1 acceptor
1 2 acceptor
1 3 acceptor
1 4 acceptor
1 5 acceptor
1 5 donor
1 6 acceptor
1 6 donor
1 7 acceptor
1 8 acceptor
1 8 donor
10 2 3 4 9 10 14 16 18 20 21 rings
5 11 15 19 22 23 rings
7 9 10 11 12 13 15 17 rings

> <PUBCHEM_HEAVY_ATOM_COUNT>
44

> <PUBCHEM_ATOM_DEF_STEREO_COUNT>
12

> <PUBCHEM_ATOM_UDEF_STEREO_COUNT>
1

> <PUBCHEM_BOND_DEF_STEREO_COUNT>
1

> <PUBCHEM_BOND_UDEF_STEREO_COUNT>
0

> <PUBCHEM_ISOTOPIC_ATOM_COUNT>
0

> <PUBCHEM_COMPONENT_COUNT>
1

> <PUBCHEM_CACTVS_TAUTO_COUNT>
2

> <PUBCHEM_CONFORMER_ID>
0050967500000001

> <PUBCHEM_MMFF94_ENERGY>
134.5165

> <PUBCHEM_FEATURE_SELFOVERLAP>
71.225

> <PUBCHEM_SHAPE_FINGERPRINT>
10169797 241 18194962946574894483
10190108 129 18200580403443003587
10290309 65 13512070948741941987
10675989 125 17977392633563588531
11421498 54 18120367911201551216
11479125 193 15552173469437159743
11513181 2 17681836203167863695
11578080 2 18041569018389929040
12156800 1 18268734765498417488
12633046 712 18197230354479750629
12788726 201 17972318692413009188
131258 38 18130238089835190019
13383661 66 17824241912165058871
140371 6 17186726559393280205
15001296 14 18195818371517638087
15975801 100 18202278143468826757
19319366 153 18201718495944802630
20764821 26 18267327445632092578
21033648 29 15518959198884360512
21792965 302 18336256835291054412
463206 1 18266751357900999565
4918855 1 18412824686060651143
508180 173 18263912272322121970
513532 50 17831870044634201502
5776283 40 18052244112254371692
6086070 43 18334303050536543663

> <PUBCHEM_SHAPE_MULTIPOLES>
858.54
12.41
7.09
2.16
18.88
2.55
-0.08
-7.56
3.73
0.33
-2.46
-1.94
0.24
-1.41

> <PUBCHEM_SHAPE_SELFOVERLAP>
1826.781

> <PUBCHEM_SHAPE_VOLUME>
469.5

> <PUBCHEM_COORDINATE_TYPE>
2
5
10

$$$$

