5281901
  -OEChem-07051213012D

129131  0     1  0  0  0  0  0999 V2000
    7.7331   -2.6900    0.0000 O   0  0  0  0  0  0  0  0  0  0  0  0
    7.7331   -3.6900    0.0000 O   0  0  0  0  0  0  0  0  0  0  0  0
    5.1350   -1.1900    0.0000 O   0  0  0  0  0  0  0  0  0  0  0  0
    9.4651   -6.6900    0.0000 O   0  0  0  0  0  0  0  0  0  0  0  0
    6.0010    0.3100    0.0000 O   0  0  0  0  0  0  0  0  0  0  0  0
    2.5369    3.3100    0.0000 O   0  0  0  0  0  0  0  0  0  0  0  0
    4.2690    6.3100    0.0000 O   0  0  0  0  0  0  0  0  0  0  0  0
    9.4651    6.3100    0.0000 O   0  0  0  0  0  0  0  0  0  0  0  0
    3.4030    4.8100    0.0000 O   0  0  0  0  0  0  0  0  0  0  0  0
    6.8671    4.8100    0.0000 O   0  0  0  0  0  0  0  0  0  0  0  0
    6.8671   -3.1900    0.0000 C   0  0  2  0  0  0  0  0  0  0  0  0
    6.0010   -2.6900    0.0000 C   0  0  1  0  0  0  0  0  0  0  0  0
    6.0010   -1.6900    0.0000 C   0  0  2  0  0  0  0  0  0  0  0  0
    6.8671   -1.1900    0.0000 C   0  0  2  0  0  0  0  0  0  0  0  0
    6.0010   -3.6900    0.0000 C   0  0  0  0  0  0  0  0  0  0  0  0
    7.7331   -1.6900    0.0000 C   0  0  1  0  0  0  0  0  0  0  0  0
    6.8671   -5.1900    0.0000 C   0  0  1  0  0  0  0  0  0  0  0  0
    7.7331   -4.6900    0.0000 C   0  0  1  0  0  0  0  0  0  0  0  0
    6.0010   -4.6900    0.0000 C   0  0  0  0  0  0  0  0  0  0  0  0
    8.5991   -1.1900    0.0000 C   0  0  0  0  0  0  0  0  0  0  0  0
    5.1350   -3.1900    0.0000 C   0  0  0  0  0  0  0  0  0  0  0  0
    6.8671   -0.1900    0.0000 C   0  0  0  0  0  0  0  0  0  0  0  0
    8.5991   -5.1900    0.0000 C   0  0  0  0  0  0  0  0  0  0  0  0
    6.8671   -6.1900    0.0000 C   0  0  0  0  0  0  0  0  0  0  0  0
    8.5991   -0.1900    0.0000 C   0  0  0  0  0  0  0  0  0  0  0  0
    8.5991   -6.1900    0.0000 C   0  0  2  0  0  0  0  0  0  0  0  0
    9.4651    0.3100    0.0000 C   0  0  2  0  0  0  0  0  0  0  0  0
    5.1350   -0.1900    0.0000 C   0  0  0  0  0  0  0  0  0  0  0  0
   10.3312   -0.1900    0.0000 C   0  0  0  0  0  0  0  0  0  0  0  0
    7.7331   -6.6900    0.0000 C   0  0  0  0  0  0  0  0  0  0  0  0
    9.4651    1.3100    0.0000 C   0  0  0  0  0  0  0  0  0  0  0  0
    4.2690    0.3100    0.0000 C   0  0  0  0  0  0  0  0  0  0  0  0
   10.3312   -1.1900    0.0000 C   0  0  0  0  0  0  0  0  0  0  0  0
   10.3312    1.8100    0.0000 C   0  0  0  0  0  0  0  0  0  0  0  0
    4.2690    1.3100    0.0000 C   0  0  0  0  0  0  0  0  0  0  0  0
    3.4030    1.8100    0.0000 C   0  0  2  0  0  0  0  0  0  0  0  0
    3.4030    2.8100    0.0000 C   0  0  1  0  0  0  0  0  0  0  0  0
    4.2690    3.3100    0.0000 C   0  0  2  0  0  0  0  0  0  0  0  0
   10.3312    2.8100    0.0000 C   0  0  0  0  0  0  0  0  0  0  0  0
    2.5369    1.3100    0.0000 C   0  0  0  0  0  0  0  0  0  0  0  0
    5.1350    4.8100    0.0000 C   0  0  1  0  0  0  0  0  0  0  0  0
    5.1350    5.8100    0.0000 C   0  0  1  0  0  0  0  0  0  0  0  0
    4.2690    4.3100    0.0000 C   0  0  0  0  0  0  0  0  0  0  0  0
    6.0010    6.3100    0.0000 C   0  0  2  0  0  0  0  0  0  0  0  0
    8.5991    4.8100    0.0000 C   0  0  2  0  0  0  0  0  0  0  0  0
    8.5991    5.8100    0.0000 C   0  0  2  0  0  0  0  0  0  0  0  0
    7.7331    6.3100    0.0000 C   0  0  2  0  0  0  0  0  0  0  0  0
    9.4651    3.3100    0.0000 C   0  0  0  0  0  0  0  0  0  0  0  0
    9.4651    4.3100    0.0000 C   0  0  0  0  0  0  0  0  0  0  0  0
    6.8671    5.8100    0.0000 C   0  0  0  0  0  0  0  0  0  0  0  0
    5.1350    2.8100    0.0000 C   0  0  0  0  0  0  0  0  0  0  0  0
    6.0010    4.3100    0.0000 C   0  0  0  0  0  0  0  0  0  0  0  0
    6.0010    7.3100    0.0000 C   0  0  0  0  0  0  0  0  0  0  0  0
    7.7331    4.3100    0.0000 C   0  0  0  0  0  0  0  0  0  0  0  0
    7.7331    7.3100    0.0000 C   0  0  0  0  0  0  0  0  0  0  0  0
    5.4641   -2.3800    0.0000 H   0  0  0  0  0  0  0  0  0  0  0  0
    5.2649   -2.1150    0.0000 H   0  0  0  0  0  0  0  0  0  0  0  0
    6.3301   -0.8800    0.0000 H   0  0  0  0  0  0  0  0  0  0  0  0
    5.7890   -3.1074    0.0000 H   0  0  0  0  0  0  0  0  0  0  0  0
    5.3905   -3.7977    0.0000 H   0  0  0  0  0  0  0  0  0  0  0  0
    8.4692   -2.1150    0.0000 H   0  0  0  0  0  0  0  0  0  0  0  0
    6.3301   -5.5000    0.0000 H   0  0  0  0  0  0  0  0  0  0  0  0
    8.2700   -4.3800    0.0000 H   0  0  0  0  0  0  0  0  0  0  0  0
    5.3905   -4.5823    0.0000 H   0  0  0  0  0  0  0  0  0  0  0  0
    5.7890   -5.2726    0.0000 H   0  0  0  0  0  0  0  0  0  0  0  0
    8.8112   -1.7726    0.0000 H   0  0  0  0  0  0  0  0  0  0  0  0
    9.2097   -1.0823    0.0000 H   0  0  0  0  0  0  0  0  0  0  0  0
    4.8250   -2.6531    0.0000 H   0  0  0  0  0  0  0  0  0  0  0  0
    4.5981   -3.5000    0.0000 H   0  0  0  0  0  0  0  0  0  0  0  0
    5.4450   -3.7269    0.0000 H   0  0  0  0  0  0  0  0  0  0  0  0
    7.4871   -0.1900    0.0000 H   0  0  0  0  0  0  0  0  0  0  0  0
    6.8671    0.4300    0.0000 H   0  0  0  0  0  0  0  0  0  0  0  0
    6.2471   -0.1900    0.0000 H   0  0  0  0  0  0  0  0  0  0  0  0
    9.2097   -5.2977    0.0000 H   0  0  0  0  0  0  0  0  0  0  0  0
    8.8112   -4.6074    0.0000 H   0  0  0  0  0  0  0  0  0  0  0  0
    6.2471   -6.1900    0.0000 H   0  0  0  0  0  0  0  0  0  0  0  0
    6.8671   -6.8100    0.0000 H   0  0  0  0  0  0  0  0  0  0  0  0
    7.4871   -6.1900    0.0000 H   0  0  0  0  0  0  0  0  0  0  0  0
    8.3871    0.3926    0.0000 H   0  0  0  0  0  0  0  0  0  0  0  0
    7.9885   -0.2977    0.0000 H   0  0  0  0  0  0  0  0  0  0  0  0
    8.5991   -6.8100    0.0000 H   0  0  0  0  0  0  0  0  0  0  0  0
   10.0021    0.6200    0.0000 H   0  0  0  0  0  0  0  0  0  0  0  0
   10.9417   -0.2977    0.0000 H   0  0  0  0  0  0  0  0  0  0  0  0
   10.5432    0.3926    0.0000 H   0  0  0  0  0  0  0  0  0  0  0  0
    7.4231   -6.1531    0.0000 H   0  0  0  0  0  0  0  0  0  0  0  0
    7.1962   -7.0000    0.0000 H   0  0  0  0  0  0  0  0  0  0  0  0
    8.0431   -7.2269    0.0000 H   0  0  0  0  0  0  0  0  0  0  0  0
    8.9282    1.6200    0.0000 H   0  0  0  0  0  0  0  0  0  0  0  0
    9.4651   -7.3100    0.0000 H   0  0  0  0  0  0  0  0  0  0  0  0
    3.7320    0.0000    0.0000 H   0  0  0  0  0  0  0  0  0  0  0  0
    9.7112   -1.1900    0.0000 H   0  0  0  0  0  0  0  0  0  0  0  0
   10.3312   -1.8100    0.0000 H   0  0  0  0  0  0  0  0  0  0  0  0
   10.9512   -1.1900    0.0000 H   0  0  0  0  0  0  0  0  0  0  0  0
   10.8681    1.5000    0.0000 H   0  0  0  0  0  0  0  0  0  0  0  0
    4.8059    1.6200    0.0000 H   0  0  0  0  0  0  0  0  0  0  0  0
    3.4030    1.1900    0.0000 H   0  0  0  0  0  0  0  0  0  0  0  0
    3.4030    3.4300    0.0000 H   0  0  0  0  0  0  0  0  0  0  0  0
    4.2690    2.6900    0.0000 H   0  0  0  0  0  0  0  0  0  0  0  0
   10.8681    3.1200    0.0000 H   0  0  0  0  0  0  0  0  0  0  0  0
    2.2269    1.8469    0.0000 H   0  0  0  0  0  0  0  0  0  0  0  0
    2.0000    1.0000    0.0000 H   0  0  0  0  0  0  0  0  0  0  0  0
    2.8469    0.7731    0.0000 H   0  0  0  0  0  0  0  0  0  0  0  0
    5.1350    4.1900    0.0000 H   0  0  0  0  0  0  0  0  0  0  0  0
    5.1350    6.4300    0.0000 H   0  0  0  0  0  0  0  0  0  0  0  0
    6.5380    6.6200    0.0000 H   0  0  0  0  0  0  0  0  0  0  0  0
    8.5991    4.1900    0.0000 H   0  0  0  0  0  0  0  0  0  0  0  0
    8.5991    6.4300    0.0000 H   0  0  0  0  0  0  0  0  0  0  0  0
    8.2700    6.6200    0.0000 H   0  0  0  0  0  0  0  0  0  0  0  0
    8.9282    3.0000    0.0000 H   0  0  0  0  0  0  0  0  0  0  0  0
   10.0757    4.2023    0.0000 H   0  0  0  0  0  0  0  0  0  0  0  0
    9.6772    4.8926    0.0000 H   0  0  0  0  0  0  0  0  0  0  0  0
    4.8250    2.2731    0.0000 H   0  0  0  0  0  0  0  0  0  0  0  0
    5.6720    2.5000    0.0000 H   0  0  0  0  0  0  0  0  0  0  0  0
    5.4450    3.3469    0.0000 H   0  0  0  0  0  0  0  0  0  0  0  0
    2.0000    3.0000    0.0000 H   0  0  0  0  0  0  0  0  0  0  0  0
    5.6910    3.7731    0.0000 H   0  0  0  0  0  0  0  0  0  0  0  0
    6.5380    4.0000    0.0000 H   0  0  0  0  0  0  0  0  0  0  0  0
    6.3110    4.8469    0.0000 H   0  0  0  0  0  0  0  0  0  0  0  0
    6.6210    7.3100    0.0000 H   0  0  0  0  0  0  0  0  0  0  0  0
    6.0010    7.9300    0.0000 H   0  0  0  0  0  0  0  0  0  0  0  0
    5.3810    7.3100    0.0000 H   0  0  0  0  0  0  0  0  0  0  0  0
    7.4231    4.8469    0.0000 H   0  0  0  0  0  0  0  0  0  0  0  0
    7.1962    4.0000    0.0000 H   0  0  0  0  0  0  0  0  0  0  0  0
    8.0431    3.7731    0.0000 H   0  0  0  0  0  0  0  0  0  0  0  0
    8.3531    7.3100    0.0000 H   0  0  0  0  0  0  0  0  0  0  0  0
    7.7331    7.9300    0.0000 H   0  0  0  0  0  0  0  0  0  0  0  0
    7.1131    7.3100    0.0000 H   0  0  0  0  0  0  0  0  0  0  0  0
    4.2690    6.9300    0.0000 H   0  0  0  0  0  0  0  0  0  0  0  0
    9.4651    6.9300    0.0000 H   0  0  0  0  0  0  0  0  0  0  0  0
  1 11  1  0  0  0  0
  1 16  1  0  0  0  0
 11  2  1  6  0  0  0
  2 18  1  0  0  0  0
  3 13  1  0  0  0  0
  3 28  1  0  0  0  0
 26  4  1  1  0  0  0
  4 89  1  0  0  0  0
  5 28  2  0  0  0  0
 37  6  1  6  0  0  0
  6115  1  0  0  0  0
 42  7  1  6  0  0  0
  7128  1  0  0  0  0
 46  8  1  6  0  0  0
  8129  1  0  0  0  0
  9 43  2  0  0  0  0
 10 50  2  0  0  0  0
 11 12  1  0  0  0  0
 11 15  1  0  0  0  0
 12 13  1  0  0  0  0
 12 21  1  6  0  0  0
 12 56  1  0  0  0  0
 13 14  1  0  0  0  0
 13 57  1  6  0  0  0
 14 16  1  0  0  0  0
 14 22  1  1  0  0  0
 14 58  1  0  0  0  0
 15 19  1  0  0  0  0
 15 59  1  0  0  0  0
 15 60  1  0  0  0  0
 16 20  1  0  0  0  0
 16 61  1  6  0  0  0
 17 18  1  0  0  0  0
 17 19  1  0  0  0  0
 17 24  1  6  0  0  0
 17 62  1  0  0  0  0
 18 23  1  6  0  0  0
 18 63  1  0  0  0  0
 19 64  1  0  0  0  0
 19 65  1  0  0  0  0
 20 25  1  0  0  0  0
 20 66  1  0  0  0  0
 20 67  1  0  0  0  0
 21 68  1  0  0  0  0
 21 69  1  0  0  0  0
 21 70  1  0  0  0  0
 22 71  1  0  0  0  0
 22 72  1  0  0  0  0
 22 73  1  0  0  0  0
 23 26  1  0  0  0  0
 23 74  1  0  0  0  0
 23 75  1  0  0  0  0
 24 76  1  0  0  0  0
 24 77  1  0  0  0  0
 24 78  1  0  0  0  0
 25 27  1  0  0  0  0
 25 79  1  0  0  0  0
 25 80  1  0  0  0  0
 26 30  1  0  0  0  0
 26 81  1  0  0  0  0
 27 29  1  1  0  0  0
 27 31  1  0  0  0  0
 27 82  1  0  0  0  0
 28 32  1  0  0  0  0
 29 33  1  0  0  0  0
 29 83  1  0  0  0  0
 29 84  1  0  0  0  0
 30 85  1  0  0  0  0
 30 86  1  0  0  0  0
 30 87  1  0  0  0  0
 31 34  2  0  0  0  0
 31 88  1  0  0  0  0
 32 35  2  0  0  0  0
 32 90  1  0  0  0  0
 33 91  1  0  0  0  0
 33 92  1  0  0  0  0
 33 93  1  0  0  0  0
 34 39  1  0  0  0  0
 34 94  1  0  0  0  0
 35 36  1  0  0  0  0
 35 95  1  0  0  0  0
 36 37  1  0  0  0  0
 36 40  1  1  0  0  0
 36 96  1  0  0  0  0
 37 38  1  0  0  0  0
 37 97  1  0  0  0  0
 38 43  1  0  0  0  0
 38 51  1  6  0  0  0
 38 98  1  0  0  0  0
 39 48  2  0  0  0  0
 39 99  1  0  0  0  0
 40100  1  0  0  0  0
 40101  1  0  0  0  0
 40102  1  0  0  0  0
 41 42  1  0  0  0  0
 41 43  1  0  0  0  0
 41 52  1  6  0  0  0
 41103  1  0  0  0  0
 42 44  1  0  0  0  0
 42104  1  0  0  0  0
 44 50  1  0  0  0  0
 44 53  1  1  0  0  0
 44105  1  0  0  0  0
 45 46  1  0  0  0  0
 45 49  1  0  0  0  0
 45 54  1  6  0  0  0
 45106  1  0  0  0  0
 46 47  1  0  0  0  0
 46107  1  0  0  0  0
 47 50  1  0  0  0  0
 47 55  1  6  0  0  0
 47108  1  0  0  0  0
 48 49  1  0  0  0  0
 48109  1  0  0  0  0
 49110  1  0  0  0  0
 49111  1  0  0  0  0
 51112  1  0  0  0  0
 51113  1  0  0  0  0
 51114  1  0  0  0  0
 52116  1  0  0  0  0
 52117  1  0  0  0  0
 52118  1  0  0  0  0
 53119  1  0  0  0  0
 53120  1  0  0  0  0
 53121  1  0  0  0  0
 54122  1  0  0  0  0
 54123  1  0  0  0  0
 54124  1  0  0  0  0
 55125  1  0  0  0  0
 55126  1  0  0  0  0
 55127  1  0  0  0  0
M  END
> <PUBCHEM_COMPOUND_CID>
5281901

> <PUBCHEM_COMPOUND_CANONICALIZED>
1

> <PUBCHEM_CACTVS_COMPLEXITY>
1340

> <PUBCHEM_CACTVS_HBOND_ACCEPTOR>
10

> <PUBCHEM_CACTVS_HBOND_DONOR>
4

> <PUBCHEM_CACTVS_ROTATABLE_BOND>
3

> <PUBCHEM_CACTVS_SUBSKEYS>
AAADcfB8PAAAAAAAAAAAAAAAAAAAAAAAAAAkSAAAAAAAAAAAAAAAGgAACAAADRSggAICCAAABgCIAKDSCAAAAAAgAAAICAEAAEgYFBYAIQAiUAAF4AAMoYOI6uyuAAAAAAAAAAAAAAAAAAAAAAAAAAAAAA==

> <PUBCHEM_IUPAC_OPENEYE_NAME>
(1R,4S,5E,5'R,6'R,7E,10S,11R,12R,14R,15R,16S,18R,19S,20R,21E,25S,26R,27S,29S)-4-ethyl-11,15,19-trihydroxy-6'-[(2S)-2-hydroxypropyl]-5',10,12,14,16,18,20,26,29-nonamethyl-spiro[24,28-dioxabicyclo[23.3.1]nonacosa-5,7,21-triene-27,2'-tetrahydropyran]-13,17,23-trione

> <PUBCHEM_IUPAC_CAS_NAME>
(1R,4S,5E,5'R,6'R,7E,10S,11R,12R,14R,15R,16S,18R,19S,20R,21E,25S,26R,27S,29S)-4-ethyl-11,15,19-trihydroxy-6'-[(2S)-2-hydroxypropyl]-5',10,12,14,16,18,20,26,29-nonamethylspiro[24,28-dioxabicyclo[23.3.1]nonacosa-5,7,21-triene-27,2'-oxane]-13,17,23-trione

> <PUBCHEM_IUPAC_NAME>
(1R,4S,5E,5'R,6'R,7E,10S,11R,12R,14R,15R,16S,18R,19S,20R,21E,25S,26R,27S,29S)-4-ethyl-11,15,19-trihydroxy-6'-[(2S)-2-hydroxypropyl]-5',10,12,14,16,18,20,26,29-nonamethylspiro[24,28-dioxabicyclo[23.3.1]nonacosa-5,7,21-triene-27,2'-oxane]-13,17,23-trione

> <PUBCHEM_IUPAC_SYSTEMATIC_NAME>
(1R,4S,5E,5'R,6'R,7E,10S,11R,12R,14R,15R,16S,18R,19S,20R,21E,25S,26R,27S,29S)-4-ethyl-5',10,12,14,16,18,20,26,29-nonamethyl-11,15,19-tris(oxidanyl)-6'-[(2S)-2-oxidanylpropyl]spiro[24,28-dioxabicyclo[23.3.1]nonacosa-5,7,21-triene-27,2'-oxane]-13,17,23-trione

> <PUBCHEM_IUPAC_TRADITIONAL_NAME>
(1R,4S,5E,5'R,6'R,7E,10S,11R,12R,14R,15R,16S,18R,19S,20R,21E,25S,26R,27S,29S)-4-ethyl-11,15,19-trihydroxy-6'-[(2S)-2-hydroxypropyl]-5',10,12,14,16,18,20,26,29-nonamethyl-spiro[24,28-dioxabicyclo[23.3.1]nonacosa-5,7,21-triene-27,2'-tetrahydropyran]-13,17,23-trione

> <PUBCHEM_IUPAC_INCHI>
InChI=1S/C45H74O10/c1-12-35-17-15-13-14-16-26(3)39(48)30(7)41(50)32(9)43(52)33(10)42(51)31(8)40(49)27(4)18-21-38(47)53-44-29(6)36(20-19-35)54-45(34(44)11)23-22-25(2)37(55-45)24-28(5)46/h13-15,17-18,21,25-37,39-40,43-44,46,48-49,52H,12,16,19-20,22-24H2,1-11H3/b14-13+,17-15+,21-18+/t25-,26+,27-,28+,29+,30-,31-,32+,33-,34-,35-,36-,37-,39-,40+,43-,44+,45-/m1/s1

> <PUBCHEM_IUPAC_INCHIKEY>
CMMLZMMKTYEOKV-JEKNLLRFSA-N

> <PUBCHEM_XLOGP3_AA>
8

> <PUBCHEM_EXACT_MASS>
774.528199

> <PUBCHEM_MOLECULAR_FORMULA>
C45H74O10

> <PUBCHEM_MOLECULAR_WEIGHT>
775.06306

> <PUBCHEM_OPENEYE_CAN_SMILES>
CCC1CCC2C(C(C(C3(O2)CCC(C(O3)CC(C)O)C)C)OC(=O)C=CC(C(C(C(=O)C(C(C(C(=O)C(C(C(CC=CC=C1)C)O)C)C)O)C)C)O)C)C

> <PUBCHEM_OPENEYE_ISO_SMILES>
CC[C@H]\1CC[C@@H]2[C@@H]([C@@H]([C@H]([C@@]3(O2)CC[C@H]([C@H](O3)C[C@H](C)O)C)C)OC(=O)/C=C/[C@H]([C@@H]([C@H](C(=O)[C@H]([C@@H]([C@H](C(=O)[C@@H]([C@@H]([C@H](C/C=C/C=C1)C)O)C)C)O)C)C)O)C)C

> <PUBCHEM_CACTVS_TPSA>
160

> <PUBCHEM_MONOISOTOPIC_WEIGHT>
774.528199

> <PUBCHEM_TOTAL_CHARGE>
0

> <PUBCHEM_HEAVY_ATOM_COUNT>
55

> <PUBCHEM_ATOM_DEF_STEREO_COUNT>
18

> <PUBCHEM_ATOM_UDEF_STEREO_COUNT>
0

> <PUBCHEM_BOND_DEF_STEREO_COUNT>
3

> <PUBCHEM_BOND_UDEF_STEREO_COUNT>
0

> <PUBCHEM_ISOTOPIC_ATOM_COUNT>
0

> <PUBCHEM_COMPONENT_COUNT>
1

> <PUBCHEM_CACTVS_TAUTO_COUNT>
9

> <PUBCHEM_COORDINATE_TYPE>
1
5
255

> <PUBCHEM_BONDANNOTATIONS>
12  21  6
13  57  6
14  22  5
16  61  6
17  24  6
18  23  6
11  2  6
27  29  5
36  40  5
38  51  6
26  4  5
41  52  6
44  53  5
45  54  6
47  55  6
37  6  6
42  7  6
46  8  6

$$$$

