22266653
  -OEChem-07051213103D

 23 22  0     0  0  0  0  0  0999 V2000
    4.6674   -0.0920    0.5415 S   0  0  0  0  0  0  0  0  0  0  0  0
   -2.0565    1.5493   -0.3112 O   0  0  0  0  0  0  0  0  0  0  0  0
   -4.2336    0.2718   -0.3164 O   0  0  0  0  0  0  0  0  0  0  0  0
   -3.1382   -1.6585    0.2648 O   0  0  0  0  0  0  0  0  0  0  0  0
    0.5987    0.5796    0.1328 C   0  0  0  0  0  0  0  0  0  0  0  0
    1.9201   -0.1651    0.3574 C   0  0  0  0  0  0  0  0  0  0  0  0
   -0.6157   -0.3422    0.2376 C   0  0  0  0  0  0  0  0  0  0  0  0
    3.1048    0.7943    0.2762 C   0  0  0  0  0  0  0  0  0  0  0  0
   -1.9214    0.3634   -0.0499 C   0  0  0  0  0  0  0  0  0  0  0  0
    4.8383   -0.8200   -1.1039 C   0  0  0  0  0  0  0  0  0  0  0  0
   -3.1639   -0.4806   -0.0291 C   0  0  0  0  0  0  0  0  0  0  0  0
    0.6125    1.0549   -0.8562 H   0  0  0  0  0  0  0  0  0  0  0  0
    0.5024    1.3900    0.8664 H   0  0  0  0  0  0  0  0  0  0  0  0
    2.0061   -0.9563   -0.3959 H   0  0  0  0  0  0  0  0  0  0  0  0
    1.8951   -0.6507    1.3410 H   0  0  0  0  0  0  0  0  0  0  0  0
   -0.6712   -0.7644    1.2472 H   0  0  0  0  0  0  0  0  0  0  0  0
   -0.5120   -1.1634   -0.4807 H   0  0  0  0  0  0  0  0  0  0  0  0
    3.0186    1.5544    1.0602 H   0  0  0  0  0  0  0  0  0  0  0  0
    3.1324    1.3192   -0.6843 H   0  0  0  0  0  0  0  0  0  0  0  0
    5.7984   -1.3400   -1.1631 H   0  0  0  0  0  0  0  0  0  0  0  0
    4.8222   -0.0436   -1.8731 H   0  0  0  0  0  0  0  0  0  0  0  0
    4.0467   -1.5480   -1.2956 H   0  0  0  0  0  0  0  0  0  0  0  0
   -5.0685   -0.2424   -0.2883 H   0  0  0  0  0  0  0  0  0  0  0  0
  1  8  1  0  0  0  0
  1 10  1  0  0  0  0
  2  9  2  0  0  0  0
  3 11  1  0  0  0  0
  3 23  1  0  0  0  0
  4 11  2  0  0  0  0
  5  6  1  0  0  0  0
  5  7  1  0  0  0  0
  5 12  1  0  0  0  0
  5 13  1  0  0  0  0
  6  8  1  0  0  0  0
  6 14  1  0  0  0  0
  6 15  1  0  0  0  0
  7  9  1  0  0  0  0
  7 16  1  0  0  0  0
  7 17  1  0  0  0  0
  8 18  1  0  0  0  0
  8 19  1  0  0  0  0
  9 11  1  0  0  0  0
 10 20  1  0  0  0  0
 10 21  1  0  0  0  0
 10 22  1  0  0  0  0
M  END
> <PUBCHEM_COMPOUND_CID>
22266653

> <PUBCHEM_CONFORMER_RMSD>
0.6

> <PUBCHEM_CONFORMER_DIVERSEORDER>
1
180
132
87
75
155
21
162
19
167
82
136
178
14
140
121
161
2
59
18
168
11
41
120
126
4
16
179
117
66
22
143
102
181
13
23
33
156
145
3
81
169
91
141
6
137
15
27
144
115
130
166
24
148
39
12
94
116
127
70
134
7
68
138
99
170
90
26
17
146
69
63
119
36
58
142
72
149
131
157
20
32
8
47
128
80
100
38
103
109
76
107
28
43
56
42
106
67
129
44
83
61
176
104
147
158
118
49
52
108
57
31
74
135
40
150
112
165
175
114
29
50
163
92
46
9
139
110
86
78
173
97
89
5
93
113
65
45
177
79
151
53
34
124
25
88
98
37
62
154
174
111
122
30
55
123
64
95
125
60
171
164
10
152
71
159
105
96
160
133
73
85
101
48
84
54
77
35
51
153
172

> <PUBCHEM_MMFF94_PARTIAL_CHARGES>
10
1 -0.46
10 0.23
11 0.72
2 -0.57
23 0.5
3 -0.65
4 -0.57
7 0.06
8 0.23
9 0.51

> <PUBCHEM_EFFECTIVE_ROTOR_COUNT>
6

> <PUBCHEM_PHARMACOPHORE_FEATURES>
6
1 10 hydrophobe
1 2 acceptor
1 3 acceptor
1 4 acceptor
3 3 4 11 anion
5 1 5 6 7 8 hydrophobe

> <PUBCHEM_HEAVY_ATOM_COUNT>
11

> <PUBCHEM_ATOM_DEF_STEREO_COUNT>
0

> <PUBCHEM_ATOM_UDEF_STEREO_COUNT>
0

> <PUBCHEM_BOND_DEF_STEREO_COUNT>
0

> <PUBCHEM_BOND_UDEF_STEREO_COUNT>
0

> <PUBCHEM_ISOTOPIC_ATOM_COUNT>
0

> <PUBCHEM_COMPONENT_COUNT>
1

> <PUBCHEM_CACTVS_TAUTO_COUNT>
2

> <PUBCHEM_CONFORMER_ID>
0153C31D00000001

> <PUBCHEM_MMFF94_ENERGY>
12.1539

> <PUBCHEM_FEATURE_SELFOVERLAP>
30.516

> <PUBCHEM_SHAPE_FINGERPRINT>
10680689 15 18272646861454530624
11062470 55 10952054463472998360
11987891 38 18334010592964290958
12032990 46 18333446534845769944
14123238 8 17894915109837259752
14251718 22 18341888559781298356
14252887 29 17167859795007333766
14325111 11 18412830178938343384
14455015 7 17749097912111062094
15242439 84 18408325496810409076
17834072 33 17561358449067289110
17834074 16 18333730217436093094
17834076 25 15841554080331823689
190213 19 18186239524372863072
1986462 14 18412544340459489260
20279233 1 18040712563161318559
20432913 95 16805038532367465678
20645477 70 17530961428289888302
20828058 21 18341895203826640732
21119208 17 18131354106836901476
22485316 2 17530687593505985366
23402539 116 18342186548042170295
23557571 272 18335977679121891028
42 15 16515681165471373582

> <PUBCHEM_SHAPE_MULTIPOLES>
212.62
10.15
1.17
0.79
4.96
0.07
0.08
2.06
1.15
-0.51
0.06
0.67
0.09
0.73

> <PUBCHEM_SHAPE_SELFOVERLAP>
384.4

> <PUBCHEM_SHAPE_VOLUME>
136.7

> <PUBCHEM_COORDINATE_TYPE>
2
5
10

$$$$

