5470965
  -OEChem-07051213072D

 54 55  0     1  0  0  0  0  0999 V2000
   11.5504   -2.4829    0.0000 S   0  0  0  0  0  0  0  0  0  0  0  0
    8.9813   -0.2718    0.0000 S   0  0  0  0  0  0  0  0  0  0  0  0
    4.8191   -2.1499    0.0000 O   0  0  0  0  0  0  0  0  0  0  0  0
    3.1249   -1.7898    0.0000 O   0  0  0  0  0  0  0  0  0  0  0  0
    2.0544    1.5048    0.0000 O   0  0  0  0  0  0  0  0  0  0  0  0
    3.7486    1.1447    0.0000 O   0  0  0  0  0  0  0  0  0  0  0  0
   11.0504   -0.9441    0.0000 N   0  0  0  0  0  0  0  0  0  0  0  0
    8.4813   -1.8106    0.0000 N   0  0  0  0  0  0  0  0  0  0  0  0
    4.2839   -0.5026    0.0000 C   0  0  1  0  0  0  0  0  0  0  0  0
    5.0270   -1.1718    0.0000 C   0  0  2  0  0  0  0  0  0  0  0  0
    4.4918    0.4755    0.0000 C   0  0  0  0  0  0  0  0  0  0  0  0
    3.3328   -0.8116    0.0000 C   0  0  0  0  0  0  0  0  0  0  0  0
    5.9781   -0.8627    0.0000 C   0  0  0  0  0  0  0  0  0  0  0  0
   12.8104   -1.2228    0.0000 C   0  0  0  0  0  0  0  0  0  0  0  0
    6.7212   -1.5319    0.0000 C   0  0  0  0  0  0  0  0  0  0  0  0
    2.5896   -0.1425    0.0000 C   0  0  0  0  0  0  0  0  0  0  0  0
   11.8594   -1.5319    0.0000 C   0  0  0  0  0  0  0  0  0  0  0  0
    7.6723   -1.2228    0.0000 C   0  0  0  0  0  0  0  0  0  0  0  0
    3.8680   -2.4589    0.0000 C   0  0  0  0  0  0  0  0  0  0  0  0
   13.5536   -1.8920    0.0000 C   0  0  0  0  0  0  0  0  0  0  0  0
   13.0184   -0.2447    0.0000 C   0  0  0  0  0  0  0  0  0  0  0  0
   10.2413   -1.5319    0.0000 C   0  0  0  0  0  0  0  0  0  0  0  0
    9.2903   -1.2228    0.0000 C   0  0  0  0  0  0  0  0  0  0  0  0
    7.9813   -0.2718    0.0000 C   0  0  0  0  0  0  0  0  0  0  0  0
   10.5504   -2.4829    0.0000 C   0  0  0  0  0  0  0  0  0  0  0  0
    2.7976    0.8356    0.0000 C   0  0  0  0  0  0  0  0  0  0  0  0
    2.1738   -2.0988    0.0000 C   0  0  0  0  0  0  0  0  0  0  0  0
    2.2623    2.4829    0.0000 C   0  0  0  0  0  0  0  0  0  0  0  0
    4.8735   -0.3110    0.0000 H   0  0  0  0  0  0  0  0  0  0  0  0
    5.4878   -1.5866    0.0000 H   0  0  0  0  0  0  0  0  0  0  0  0
    5.0982    0.3466    0.0000 H   0  0  0  0  0  0  0  0  0  0  0  0
    4.6207    1.0820    0.0000 H   0  0  0  0  0  0  0  0  0  0  0  0
    3.8853    0.6044    0.0000 H   0  0  0  0  0  0  0  0  0  0  0  0
    6.1070   -0.2563    0.0000 H   0  0  0  0  0  0  0  0  0  0  0  0
   13.4001   -1.0313    0.0000 H   0  0  0  0  0  0  0  0  0  0  0  0
    6.5923   -2.1383    0.0000 H   0  0  0  0  0  0  0  0  0  0  0  0
    2.0000   -0.3341    0.0000 H   0  0  0  0  0  0  0  0  0  0  0  0
   13.1387   -2.3527    0.0000 H   0  0  0  0  0  0  0  0  0  0  0  0
   14.0143   -2.3068    0.0000 H   0  0  0  0  0  0  0  0  0  0  0  0
   13.9684   -1.4312    0.0000 H   0  0  0  0  0  0  0  0  0  0  0  0
   13.6248   -0.3736    0.0000 H   0  0  0  0  0  0  0  0  0  0  0  0
   13.1473    0.3618    0.0000 H   0  0  0  0  0  0  0  0  0  0  0  0
   12.4119   -0.1158    0.0000 H   0  0  0  0  0  0  0  0  0  0  0  0
    3.6764   -1.8693    0.0000 H   0  0  0  0  0  0  0  0  0  0  0  0
    3.2784   -2.6505    0.0000 H   0  0  0  0  0  0  0  0  0  0  0  0
    4.0596   -3.0486    0.0000 H   0  0  0  0  0  0  0  0  0  0  0  0
    7.6168    0.2298    0.0000 H   0  0  0  0  0  0  0  0  0  0  0  0
   10.1859   -2.9845    0.0000 H   0  0  0  0  0  0  0  0  0  0  0  0
    1.9822   -1.5092    0.0000 H   0  0  0  0  0  0  0  0  0  0  0  0
    1.5842   -2.2904    0.0000 H   0  0  0  0  0  0  0  0  0  0  0  0
    2.3654   -2.6885    0.0000 H   0  0  0  0  0  0  0  0  0  0  0  0
    2.8688    2.3540    0.0000 H   0  0  0  0  0  0  0  0  0  0  0  0
    2.3912    3.0894    0.0000 H   0  0  0  0  0  0  0  0  0  0  0  0
    1.6559    2.6118    0.0000 H   0  0  0  0  0  0  0  0  0  0  0  0
  1 17  1  0  0  0  0
  1 25  1  0  0  0  0
  2 23  1  0  0  0  0
  2 24  1  0  0  0  0
 10  3  1  6  0  0  0
  3 19  1  0  0  0  0
  4 12  1  0  0  0  0
  4 27  1  0  0  0  0
  5 26  1  0  0  0  0
  5 28  1  0  0  0  0
  6 26  2  0  0  0  0
  7 17  2  0  0  0  0
  7 22  1  0  0  0  0
  8 18  1  0  0  0  0
  8 23  2  0  0  0  0
  9 10  1  0  0  0  0
  9 11  1  6  0  0  0
  9 12  1  0  0  0  0
  9 29  1  0  0  0  0
 10 13  1  0  0  0  0
 10 30  1  0  0  0  0
 11 31  1  0  0  0  0
 11 32  1  0  0  0  0
 11 33  1  0  0  0  0
 12 16  2  0  0  0  0
 13 15  2  0  0  0  0
 13 34  1  0  0  0  0
 14 17  1  0  0  0  0
 14 20  1  0  0  0  0
 14 21  1  0  0  0  0
 14 35  1  0  0  0  0
 15 18  1  0  0  0  0
 15 36  1  0  0  0  0
 16 26  1  0  0  0  0
 16 37  1  0  0  0  0
 18 24  2  0  0  0  0
 19 44  1  0  0  0  0
 19 45  1  0  0  0  0
 19 46  1  0  0  0  0
 20 38  1  0  0  0  0
 20 39  1  0  0  0  0
 20 40  1  0  0  0  0
 21 41  1  0  0  0  0
 21 42  1  0  0  0  0
 21 43  1  0  0  0  0
 22 23  1  0  0  0  0
 22 25  2  0  0  0  0
 24 47  1  0  0  0  0
 25 48  1  0  0  0  0
 27 49  1  0  0  0  0
 27 50  1  0  0  0  0
 27 51  1  0  0  0  0
 28 52  1  0  0  0  0
 28 53  1  0  0  0  0
 28 54  1  0  0  0  0
M  END
> <PUBCHEM_COMPOUND_CID>
5470965

> <PUBCHEM_COMPOUND_CANONICALIZED>
1

> <PUBCHEM_CACTVS_COMPLEXITY>
570

> <PUBCHEM_CACTVS_HBOND_ACCEPTOR>
8

> <PUBCHEM_CACTVS_HBOND_DONOR>
0

> <PUBCHEM_CACTVS_ROTATABLE_BOND>
10

> <PUBCHEM_CACTVS_SUBSKEYS>
AAADceB7OABgAAAAAAAAAAAAAAAAAWLAAAAAAAAAAAAAAAAB4AAAHgQAAAAADRyl1gKiiRIIFAisASTyTACC+KBhKjgIiDQwJFgIRICgIQAUEAgFwACooQYAAAAIAAAAAAAAAAAAAAAAAAAAAAAAAAAAAA==

> <PUBCHEM_IUPAC_OPENEYE_NAME>
methyl (2E,4R,5S,6E)-7-[2-(2-isopropylthiazol-4-yl)thiazol-4-yl]-3,5-dimethoxy-4-methyl-hepta-2,6-dienoate

> <PUBCHEM_IUPAC_CAS_NAME>
(2E,4R,5S,6E)-3,5-dimethoxy-4-methyl-7-[2-(2-propan-2-yl-4-thiazolyl)-4-thiazolyl]hepta-2,6-dienoic acid methyl ester

> <PUBCHEM_IUPAC_NAME>
methyl (2E,4R,5S,6E)-3,5-dimethoxy-4-methyl-7-[2-(2-propan-2-yl-1,3-thiazol-4-yl)-1,3-thiazol-4-yl]hepta-2,6-dienoate

> <PUBCHEM_IUPAC_SYSTEMATIC_NAME>
methyl (2E,4R,5S,6E)-3,5-dimethoxy-4-methyl-7-[2-(2-propan-2-yl-1,3-thiazol-4-yl)-1,3-thiazol-4-yl]hepta-2,6-dienoate

> <PUBCHEM_IUPAC_TRADITIONAL_NAME>
(2E,4R,5S,6E)-7-[2-(2-isopropylthiazol-4-yl)thiazol-4-yl]-3,5-dimethoxy-4-methyl-hepta-2,6-dienoic acid methyl ester

> <PUBCHEM_IUPAC_INCHI>
InChI=1S/C20H26N2O4S2/c1-12(2)19-22-15(11-28-19)20-21-14(10-27-20)7-8-16(24-4)13(3)17(25-5)9-18(23)26-6/h7-13,16H,1-6H3/b8-7+,17-9+/t13-,16+/m1/s1

> <PUBCHEM_IUPAC_INCHIKEY>
LRTJMINIVSPVMX-ZVJWTWILSA-N

> <PUBCHEM_XLOGP3_AA>
3.9

> <PUBCHEM_EXACT_MASS>
422.133399

> <PUBCHEM_MOLECULAR_FORMULA>
C20H26N2O4S2

> <PUBCHEM_MOLECULAR_WEIGHT>
422.56144

> <PUBCHEM_OPENEYE_CAN_SMILES>
CC(C)C1=NC(=CS1)C2=NC(=CS2)C=CC(C(C)C(=CC(=O)OC)OC)OC

> <PUBCHEM_OPENEYE_ISO_SMILES>
C[C@H]([C@H](/C=C/C1=CSC(=N1)C2=CSC(=N2)C(C)C)OC)/C(=C\C(=O)OC)/OC

> <PUBCHEM_CACTVS_TPSA>
127

> <PUBCHEM_MONOISOTOPIC_WEIGHT>
422.133399

> <PUBCHEM_TOTAL_CHARGE>
0

> <PUBCHEM_HEAVY_ATOM_COUNT>
28

> <PUBCHEM_ATOM_DEF_STEREO_COUNT>
2

> <PUBCHEM_ATOM_UDEF_STEREO_COUNT>
0

> <PUBCHEM_BOND_DEF_STEREO_COUNT>
2

> <PUBCHEM_BOND_UDEF_STEREO_COUNT>
0

> <PUBCHEM_ISOTOPIC_ATOM_COUNT>
0

> <PUBCHEM_COMPONENT_COUNT>
1

> <PUBCHEM_CACTVS_TAUTO_COUNT>
2

> <PUBCHEM_COORDINATE_TYPE>
1
5
255

> <PUBCHEM_BONDANNOTATIONS>
1  17  8
1  25  8
18  24  8
2  23  8
2  24  8
22  25  8
10  3  6
7  17  8
7  22  8
8  18  8
8  23  8
9  11  6

$$$$

