440188
  -OEChem-07051212493D

 44 45  0     1  0  0  0  0  0999 V2000
    2.1136   -0.8929    0.0251 O   0  0  0  0  0  0  0  0  0  0  0  0
    0.1918    0.4141    0.2303 O   0  0  0  0  0  0  0  0  0  0  0  0
    4.5096    2.2053    1.2611 O   0  0  0  0  0  0  0  0  0  0  0  0
    5.6785   -0.0621   -0.0985 O   0  0  0  0  0  0  0  0  0  0  0  0
    1.8015    2.7416    0.2317 O   0  0  0  0  0  0  0  0  0  0  0  0
    3.0599   -3.2615   -0.9999 O   0  0  0  0  0  0  0  0  0  0  0  0
   -5.1836    1.1622   -0.6241 O   0  0  0  0  0  0  0  0  0  0  0  0
   -2.7834    0.5048   -2.9335 O   0  0  0  0  0  0  0  0  0  0  0  0
   -3.6397   -1.2863    1.5952 N   0  0  0  0  0  0  0  0  0  0  0  0
    3.8108    1.4072    0.3044 C   0  0  1  0  0  0  0  0  0  0  0  0
    4.3443   -0.0222    0.4011 C   0  0  1  0  0  0  0  0  0  0  0  0
    2.3112    1.4591    0.5964 C   0  0  2  0  0  0  0  0  0  0  0  0
    3.4717   -0.9836   -0.4092 C   0  0  1  0  0  0  0  0  0  0  0  0
    1.5524    0.3980   -0.2006 C   0  0  1  0  0  0  0  0  0  0  0  0
    3.9148   -2.4327   -0.2338 C   0  0  0  0  0  0  0  0  0  0  0  0
   -0.5817   -0.5494   -0.4676 C   0  0  0  0  0  0  0  0  0  0  0  0
   -1.9984   -0.4889    0.0234 C   0  0  0  0  0  0  0  0  0  0  0  0
   -2.9366    0.3415   -0.5658 C   0  0  0  0  0  0  0  0  0  0  0  0
   -2.3865   -1.2768    1.0880 C   0  0  0  0  0  0  0  0  0  0  0  0
   -4.2364    0.3596   -0.0721 C   0  0  0  0  0  0  0  0  0  0  0  0
   -2.5642    1.2137   -1.7213 C   0  0  0  0  0  0  0  0  0  0  0  0
   -4.5343   -0.4658    1.0003 C   0  0  0  0  0  0  0  0  0  0  0  0
   -5.9151   -0.4850    1.5697 C   0  0  0  0  0  0  0  0  0  0  0  0
    4.0276    1.8422   -0.6791 H   0  0  0  0  0  0  0  0  0  0  0  0
    4.3793   -0.3276    1.4541 H   0  0  0  0  0  0  0  0  0  0  0  0
    2.1289    1.3395    1.6711 H   0  0  0  0  0  0  0  0  0  0  0  0
    3.5111   -0.7441   -1.4806 H   0  0  0  0  0  0  0  0  0  0  0  0
    1.5733    0.6331   -1.2736 H   0  0  0  0  0  0  0  0  0  0  0  0
    3.8402   -2.7510    0.8113 H   0  0  0  0  0  0  0  0  0  0  0  0
    4.9419   -2.5865   -0.5768 H   0  0  0  0  0  0  0  0  0  0  0  0
    5.4583    2.1405    1.0568 H   0  0  0  0  0  0  0  0  0  0  0  0
    5.6566    0.2004   -1.0346 H   0  0  0  0  0  0  0  0  0  0  0  0
    1.9532    2.8667   -0.7207 H   0  0  0  0  0  0  0  0  0  0  0  0
   -0.1925   -1.5577   -0.2757 H   0  0  0  0  0  0  0  0  0  0  0  0
   -0.5150   -0.4007   -1.5512 H   0  0  0  0  0  0  0  0  0  0  0  0
    2.1502   -3.1127   -0.6897 H   0  0  0  0  0  0  0  0  0  0  0  0
   -1.6916   -1.9437    1.5883 H   0  0  0  0  0  0  0  0  0  0  0  0
   -3.1696    2.1267   -1.7454 H   0  0  0  0  0  0  0  0  0  0  0  0
   -1.5263    1.5573   -1.6865 H   0  0  0  0  0  0  0  0  0  0  0  0
   -6.1919    0.5031    1.9511 H   0  0  0  0  0  0  0  0  0  0  0  0
   -6.6415   -0.8080    0.8170 H   0  0  0  0  0  0  0  0  0  0  0  0
   -5.9787   -1.1880    2.4077 H   0  0  0  0  0  0  0  0  0  0  0  0
   -6.0364    1.0638   -0.1733 H   0  0  0  0  0  0  0  0  0  0  0  0
   -3.6597    0.0854   -2.8907 H   0  0  0  0  0  0  0  0  0  0  0  0
  1 13  1  0  0  0  0
  1 14  1  0  0  0  0
  2 14  1  0  0  0  0
  2 16  1  0  0  0  0
  3 10  1  0  0  0  0
  3 31  1  0  0  0  0
  4 11  1  0  0  0  0
  4 32  1  0  0  0  0
  5 12  1  0  0  0  0
  5 33  1  0  0  0  0
  6 15  1  0  0  0  0
  6 36  1  0  0  0  0
  7 20  1  0  0  0  0
  7 43  1  0  0  0  0
  8 21  1  0  0  0  0
  8 44  1  0  0  0  0
  9 19  1  0  0  0  0
  9 22  2  0  0  0  0
 10 11  1  0  0  0  0
 10 12  1  0  0  0  0
 10 24  1  0  0  0  0
 11 13  1  0  0  0  0
 11 25  1  0  0  0  0
 12 14  1  0  0  0  0
 12 26  1  0  0  0  0
 13 15  1  0  0  0  0
 13 27  1  0  0  0  0
 14 28  1  0  0  0  0
 15 29  1  0  0  0  0
 15 30  1  0  0  0  0
 16 17  1  0  0  0  0
 16 34  1  0  0  0  0
 16 35  1  0  0  0  0
 17 18  1  0  0  0  0
 17 19  2  0  0  0  0
 18 20  2  0  0  0  0
 18 21  1  0  0  0  0
 19 37  1  0  0  0  0
 20 22  1  0  0  0  0
 21 38  1  0  0  0  0
 21 39  1  0  0  0  0
 22 23  1  0  0  0  0
 23 40  1  0  0  0  0
 23 41  1  0  0  0  0
 23 42  1  0  0  0  0
M  END
> <PUBCHEM_COMPOUND_CID>
440188

> <PUBCHEM_CONFORMER_RMSD>
0.8

> <PUBCHEM_CONFORMER_DIVERSEORDER>
1
37
46
21
55
53
58
30
41
72
64
26
56
22
9
31
29
51
65
5
69
50
47
68
34
36
40
54
38
35
52
44
66
67
13
45
3
4
59
19
27
20
15
60
10
33
57
63
61
24
71
7
2
28
73
18
43
42
39
70
49
16
32
14
25
23
48
11
6
17
8
62
12

> <PUBCHEM_MMFF94_PARTIAL_CHARGES>
30
1 -0.56
10 0.28
11 0.28
12 0.28
13 0.28
14 0.56
15 0.28
16 0.42
17 -0.14
18 -0.14
19 0.16
2 -0.56
20 0.08
21 0.42
22 0.17
23 0.14
3 -0.68
31 0.4
32 0.4
33 0.4
36 0.4
37 0.15
4 -0.68
43 0.45
44 0.4
5 -0.68
6 -0.68
7 -0.53
8 -0.68
9 -0.62

> <PUBCHEM_EFFECTIVE_ROTOR_COUNT>
6.2

> <PUBCHEM_PHARMACOPHORE_FEATURES>
16
1 1 acceptor
1 2 acceptor
1 3 acceptor
1 3 donor
1 4 acceptor
1 4 donor
1 5 acceptor
1 5 donor
1 6 acceptor
1 6 donor
1 7 donor
1 8 acceptor
1 8 donor
1 9 acceptor
6 1 10 11 12 13 14 rings
6 9 17 18 19 20 22 rings

> <PUBCHEM_HEAVY_ATOM_COUNT>
23

> <PUBCHEM_ATOM_DEF_STEREO_COUNT>
5

> <PUBCHEM_ATOM_UDEF_STEREO_COUNT>
0

> <PUBCHEM_BOND_DEF_STEREO_COUNT>
0

> <PUBCHEM_BOND_UDEF_STEREO_COUNT>
0

> <PUBCHEM_ISOTOPIC_ATOM_COUNT>
0

> <PUBCHEM_COMPONENT_COUNT>
1

> <PUBCHEM_CACTVS_TAUTO_COUNT>
3

> <PUBCHEM_CONFORMER_ID>
0006B77C00000001

> <PUBCHEM_MMFF94_ENERGY>
65.6542

> <PUBCHEM_FEATURE_SELFOVERLAP>
81.251

> <PUBCHEM_SHAPE_FINGERPRINT>
10369192 42 17984977103822839364
10912923 1 17240205430509938247
11089746 13 16805042900359612608
11370993 144 18338790208770245809
11552529 35 17969781865800827427
11595378 159 15410622509690648957
12107183 9 17610040635961973747
12236239 1 16805041813453226902
12403259 415 18344148089718679101
12507560 40 18341892983096511617
12616971 3 17530687602148693492
13402501 40 18272928336431540130
13533116 47 18260820527466499763
13583140 156 17677335992053268395
13675066 3 18272089383273483523
13955234 65 18261114084756017290
14251757 17 18271811284246569424
14341114 176 18271801289784260273
14386348 63 18343579646554729842
14866123 147 17328860409961487762
15961568 22 16916498134983521292
17844677 252 18334569179046284297
1813 80 15984819303407651183
20511986 3 16805333196893272104
20645477 56 18272654536761554991
20645477 70 18335424607851687174
21033648 29 18341629112916973293
21033650 10 16485839410602651004
21065201 7 17346601910432964778
21279426 13 18196933494729042965
21792961 116 18272088344819923406
22122407 14 17677312966955291121
22182313 1 18130514110023333375
2297311 6 17561358487495134901
23402539 116 5112005015583222665
23557571 272 17846779628290850284
23559900 14 18059851804936768478
239999 70 18130785647089195274
268830 7 16878234077679440608
2838139 119 17823979146957933209
3421961 26 18335979869982440682
345986 75 17531809207157156962
3545911 37 18410288090706147170
46194498 28 17846207835574799188
5104073 3 18341896345787107193
542803 24 16877940520764235320
602551 16 17060059207431118128
6049 1 18130790061767163677
8272917 22 18186794794951418742
9995097 60 18411982451067474106

> <PUBCHEM_SHAPE_MULTIPOLES>
421.39
12.87
2.29
1.52
2.26
0.55
-0.74
0.62
3.04
-3.15
-0.11
1.85
-0.2
2.75

> <PUBCHEM_SHAPE_SELFOVERLAP>
878.442

> <PUBCHEM_SHAPE_VOLUME>
236.4

> <PUBCHEM_COORDINATE_TYPE>
2
5
10

$$$$

