17396647
  -OEChem-06241222573D

 45 46  0     0  0  0  0  0  0999 V2000
    5.2646    1.8202    0.4105 S   0  0  0  0  0  0  0  0  0  0  0  0
    5.8880   -1.0784   -0.1229 O   0  0  0  0  0  0  0  0  0  0  0  0
    4.5974    2.8654    1.1719 O   0  0  0  0  0  0  0  0  0  0  0  0
    6.5054    1.2420    0.9043 O   0  0  0  0  0  0  0  0  0  0  0  0
   -0.5377   -2.0179   -0.4414 O   0  0  0  0  0  0  0  0  0  0  0  0
    0.4412    0.0754   -0.0257 N   0  0  0  0  0  0  0  0  0  0  0  0
    5.5117    2.3710   -1.1872 N   0  0  0  0  0  0  0  0  0  0  0  0
    4.1212    0.5242    0.1397 C   0  0  0  0  0  0  0  0  0  0  0  0
    1.8280   -0.2123   -0.0496 C   0  0  0  0  0  0  0  0  0  0  0  0
    2.7556    0.8075    0.1633 C   0  0  0  0  0  0  0  0  0  0  0  0
   -5.3523   -0.6738    0.7314 C   0  0  0  0  0  0  0  0  0  0  0  0
   -4.4152   -0.2233   -0.1983 C   0  0  0  0  0  0  0  0  0  0  0  0
    4.5592   -0.7788   -0.0968 C   0  0  0  0  0  0  0  0  0  0  0  0
   -6.9568    0.9236   -0.1115 C   0  0  0  0  0  0  0  0  0  0  0  0
    2.2661   -1.5153   -0.2862 C   0  0  0  0  0  0  0  0  0  0  0  0
   -6.6231   -0.1004    0.7749 C   0  0  0  0  0  0  0  0  0  0  0  0
    3.6316   -1.7986   -0.3098 C   0  0  0  0  0  0  0  0  0  0  0  0
   -4.7490    0.8007   -1.0848 C   0  0  0  0  0  0  0  0  0  0  0  0
   -6.0198    1.3742   -1.0414 C   0  0  0  0  0  0  0  0  0  0  0  0
   -3.0803   -0.8031   -0.2691 C   0  0  0  0  0  0  0  0  0  0  0  0
   -5.0283   -1.7686    1.6971 C   0  0  0  0  0  0  0  0  0  0  0  0
   -0.6073   -0.8152   -0.2171 C   0  0  0  0  0  0  0  0  0  0  0  0
   -1.9262   -0.1186   -0.1145 C   0  0  0  0  0  0  0  0  0  0  0  0
   -8.3151    1.5378   -0.0648 C   0  0  0  0  0  0  0  0  0  0  0  0
    6.2410   -2.4376   -0.3720 C   0  0  0  0  0  0  0  0  0  0  0  0
    2.4030    1.8207    0.3392 H   0  0  0  0  0  0  0  0  0  0  0  0
    1.6095   -2.3562   -0.4595 H   0  0  0  0  0  0  0  0  0  0  0  0
   -7.3587   -0.4489    1.4962 H   0  0  0  0  0  0  0  0  0  0  0  0
    3.8968   -2.8330   -0.4992 H   0  0  0  0  0  0  0  0  0  0  0  0
   -4.0360    1.1638   -1.8214 H   0  0  0  0  0  0  0  0  0  0  0  0
    0.2143    1.0514    0.1536 H   0  0  0  0  0  0  0  0  0  0  0  0
   -6.2686    2.1693   -1.7393 H   0  0  0  0  0  0  0  0  0  0  0  0
   -3.0583   -1.8752   -0.4498 H   0  0  0  0  0  0  0  0  0  0  0  0
   -5.8492   -1.9473    2.4004 H   0  0  0  0  0  0  0  0  0  0  0  0
   -4.1472   -1.5104    2.2940 H   0  0  0  0  0  0  0  0  0  0  0  0
   -4.8455   -2.7079    1.1649 H   0  0  0  0  0  0  0  0  0  0  0  0
   -1.9358    0.9495    0.0797 H   0  0  0  0  0  0  0  0  0  0  0  0
   -9.0078    0.9655   -0.6897 H   0  0  0  0  0  0  0  0  0  0  0  0
   -8.7016    1.5605    0.9598 H   0  0  0  0  0  0  0  0  0  0  0  0
   -8.2954    2.5730   -0.4222 H   0  0  0  0  0  0  0  0  0  0  0  0
    5.1171    3.2843   -1.4434 H   0  0  0  0  0  0  0  0  0  0  0  0
    6.4196    2.1729   -1.6251 H   0  0  0  0  0  0  0  0  0  0  0  0
    5.8805   -3.1010    0.4216 H   0  0  0  0  0  0  0  0  0  0  0  0
    5.9208   -2.7627   -1.3678 H   0  0  0  0  0  0  0  0  0  0  0  0
    7.3346   -2.4930   -0.3578 H   0  0  0  0  0  0  0  0  0  0  0  0
  1  3  2  0  0  0  0
  1  4  2  0  0  0  0
  1  7  1  0  0  0  0
  1  8  1  0  0  0  0
  2 13  1  0  0  0  0
  2 25  1  0  0  0  0
  5 22  2  0  0  0  0
  6  9  1  0  0  0  0
  6 22  1  0  0  0  0
  6 31  1  0  0  0  0
  7 41  1  0  0  0  0
  7 42  1  0  0  0  0
  8 10  1  0  0  0  0
  8 13  2  0  0  0  0
  9 10  2  0  0  0  0
  9 15  1  0  0  0  0
 10 26  1  0  0  0  0
 11 12  2  0  0  0  0
 11 16  1  0  0  0  0
 11 21  1  0  0  0  0
 12 18  1  0  0  0  0
 12 20  1  0  0  0  0
 13 17  1  0  0  0  0
 14 16  2  0  0  0  0
 14 19  1  0  0  0  0
 14 24  1  0  0  0  0
 15 17  2  0  0  0  0
 15 27  1  0  0  0  0
 16 28  1  0  0  0  0
 17 29  1  0  0  0  0
 18 19  2  0  0  0  0
 18 30  1  0  0  0  0
 19 32  1  0  0  0  0
 20 23  2  0  0  0  0
 20 33  1  0  0  0  0
 21 34  1  0  0  0  0
 21 35  1  0  0  0  0
 21 36  1  0  0  0  0
 22 23  1  0  0  0  0
 23 37  1  0  0  0  0
 24 38  1  0  0  0  0
 24 39  1  0  0  0  0
 24 40  1  0  0  0  0
 25 43  1  0  0  0  0
 25 44  1  0  0  0  0
 25 45  1  0  0  0  0
M  END
> <PUBCHEM_COMPOUND_CID>
17396647

> <PUBCHEM_CONFORMER_RMSD>
0.8

> <PUBCHEM_CONFORMER_DIVERSEORDER>
1
43
76
55
85
66
8
48
28
60
64
65
12
83
73
13
75
79
41
27
29
59
47
5
21
82
80
67
3
38
45
22
17
24
20
61
40
39
70
9
34
52
16
62
6
44
30
84
63
18
37
19
77
23
15
50
74
32
56
78
33
71
7
11
10
68
53
46
26
69
14
72
35
4
49
58
57
42
54
51
2
25
81
36
31

> <PUBCHEM_MMFF94_PARTIAL_CHARGES>
36
1 1.45
10 -0.15
11 -0.14
12 0.03
13 0.08
14 -0.14
15 -0.15
16 -0.15
17 -0.15
18 -0.15
19 -0.15
2 -0.36
20 -0.18
21 0.14
22 0.62
23 -0.14
24 0.14
25 0.28
26 0.15
27 0.15
28 0.15
29 0.15
3 -0.65
30 0.15
31 0.37
32 0.15
33 0.15
37 0.15
4 -0.65
41 0.42
42 0.42
5 -0.57
6 -0.55
7 -0.98
8 -0.01
9 0.12

> <PUBCHEM_EFFECTIVE_ROTOR_COUNT>
6

> <PUBCHEM_PHARMACOPHORE_FEATURES>
8
1 2 acceptor
1 3 acceptor
1 4 acceptor
1 5 acceptor
1 6 donor
1 7 donor
6 11 12 14 16 18 19 rings
6 8 9 10 13 15 17 rings

> <PUBCHEM_HEAVY_ATOM_COUNT>
25

> <PUBCHEM_ATOM_DEF_STEREO_COUNT>
0

> <PUBCHEM_ATOM_UDEF_STEREO_COUNT>
0

> <PUBCHEM_BOND_DEF_STEREO_COUNT>
1

> <PUBCHEM_BOND_UDEF_STEREO_COUNT>
0

> <PUBCHEM_ISOTOPIC_ATOM_COUNT>
0

> <PUBCHEM_COMPONENT_COUNT>
1

> <PUBCHEM_CACTVS_TAUTO_COUNT>
2

> <PUBCHEM_CONFORMER_ID>
010973A700000001

> <PUBCHEM_MMFF94_ENERGY>
67.165

> <PUBCHEM_FEATURE_SELFOVERLAP>
40.623

> <PUBCHEM_SHAPE_FINGERPRINT>
10 15 17918273130489127145
10066227 112 18408605864244850025
10411042 1 17829889086355598550
10554248 39 17748826332227000252
10638233 991 17458061543335194073
10835480 77 18410577279898048857
11315181 36 15357706288670978611
12236239 1 17821451252901118143
125118 31 18412823603433603589
12596602 18 18131632262051819321
12616971 3 18040724666579800966
13167372 99 18114177579121867721
13533116 47 18261110786141667938
13878862 14 18189072974417481652
14933364 13 18272086110882982981
15183329 4 15357694189109626941
15348495 7 18200872885808808603
15475509 35 17059511746069146906
15483637 11 18046907357675788336
1577012 14 18040722437164544727
17134984 74 7997971276065784428
17844677 252 18411975884257839125
20157964 124 18260548943757111110
20281389 69 18342459266187453157
21033648 29 18340216193335805049
21033650 10 4678275200587112099
21150785 3 17385448692210234533
21792934 111 18335148630306346176
22224240 67 17988926674312244323
22956985 138 14043806480262549224
23081809 10 16298381379338502259
23559900 14 18131630114631850963
249057 3 18259703407248432606
255183 451 17388243813998736222
29717793 49 17458061595016985838
312425 54 17418096511942423395
3383291 50 17131540641251693243
3545911 37 18131068281807516767
397830 11 18271237219213574923
4073 2 18059850636969635683
4340502 62 17418097624175545962
44555599 121 18040427837195545857
504843 32 17822295631072557071
5104073 3 18202283632447502347
5364581 5 17844521111871344509
9995097 60 18413388735209000439

> <PUBCHEM_SHAPE_MULTIPOLES>
484.9
23.45
2.41
1.01
16.22
0.48
-0.16
7.62
-1.34
-3.82
-0.14
0.6
0.11
2.27

> <PUBCHEM_SHAPE_SELFOVERLAP>
1015.598

> <PUBCHEM_SHAPE_VOLUME>
275.1

> <PUBCHEM_COORDINATE_TYPE>
2
5
10

$$$$

