11954074
  -OEChem-07051213062D

 42 41  0     1  0  0  0  0  0999 V2000
    7.7331   -0.4050    0.0000 S   0  0  0  0  0  0  0  0  0  0  0  0
    6.8671    0.0950    0.0000 O   0  0  0  0  0  0  0  0  0  0  0  0
    9.4651    2.5950    0.0000 O   0  0  0  0  0  0  0  0  0  0  0  0
    2.5369    1.5950    0.0000 O   0  0  0  0  0  0  0  0  0  0  0  0
    3.4030    0.0950    0.0000 O   0  0  0  0  0  0  0  0  0  0  0  0
   12.9292    1.5950    0.0000 O   0  0  0  0  0  0  0  0  0  0  0  0
   12.0632    0.0950    0.0000 O   0  0  0  0  0  0  0  0  0  0  0  0
    6.8671   -2.9050    0.0000 O   0  0  0  0  0  0  0  0  0  0  0  0
    7.7331    1.5950    0.0000 N   0  0  0  0  0  0  0  0  0  0  0  0
   10.3312    1.0950    0.0000 N   0  0  0  0  0  0  0  0  0  0  0  0
    4.2690    2.5950    0.0000 N   0  0  0  0  0  0  0  0  0  0  0  0
    8.5991    1.0950    0.0000 C   0  0  1  0  0  0  0  0  0  0  0  0
    5.1350    1.0950    0.0000 C   0  0  0  0  0  0  0  0  0  0  0  0
    6.0010    1.5950    0.0000 C   0  0  0  0  0  0  0  0  0  0  0  0
    4.2690    1.5950    0.0000 C   0  0  1  0  0  0  0  0  0  0  0  0
    8.5991    0.0950    0.0000 C   0  0  0  0  0  0  0  0  0  0  0  0
    6.8671    1.0950    0.0000 C   0  0  0  0  0  0  0  0  0  0  0  0
    9.4651    1.5950    0.0000 C   0  0  0  0  0  0  0  0  0  0  0  0
    3.4030    1.0950    0.0000 C   0  0  0  0  0  0  0  0  0  0  0  0
   11.1972    1.5950    0.0000 C   0  0  0  0  0  0  0  0  0  0  0  0
    7.7331   -1.4050    0.0000 C   0  0  0  0  0  0  0  0  0  0  0  0
   12.0632    1.0950    0.0000 C   0  0  0  0  0  0  0  0  0  0  0  0
    6.8671   -1.9050    0.0000 C   0  0  0  0  0  0  0  0  0  0  0  0
    8.5991    1.7150    0.0000 H   0  0  0  0  0  0  0  0  0  0  0  0
    4.7365    0.6201    0.0000 H   0  0  0  0  0  0  0  0  0  0  0  0
    5.5335    0.6201    0.0000 H   0  0  0  0  0  0  0  0  0  0  0  0
    6.3996    2.0700    0.0000 H   0  0  0  0  0  0  0  0  0  0  0  0
    5.6025    2.0700    0.0000 H   0  0  0  0  0  0  0  0  0  0  0  0
    4.8059    1.9050    0.0000 H   0  0  0  0  0  0  0  0  0  0  0  0
    7.7331    2.2150    0.0000 H   0  0  0  0  0  0  0  0  0  0  0  0
    8.8112   -0.4876    0.0000 H   0  0  0  0  0  0  0  0  0  0  0  0
    9.2097    0.2027    0.0000 H   0  0  0  0  0  0  0  0  0  0  0  0
   10.3312    0.4750    0.0000 H   0  0  0  0  0  0  0  0  0  0  0  0
    3.7320    2.9050    0.0000 H   0  0  0  0  0  0  0  0  0  0  0  0
    4.8059    2.9050    0.0000 H   0  0  0  0  0  0  0  0  0  0  0  0
   11.5957    2.0700    0.0000 H   0  0  0  0  0  0  0  0  0  0  0  0
   10.7987    2.0700    0.0000 H   0  0  0  0  0  0  0  0  0  0  0  0
    7.9451   -1.9876    0.0000 H   0  0  0  0  0  0  0  0  0  0  0  0
    8.3437   -1.2973    0.0000 H   0  0  0  0  0  0  0  0  0  0  0  0
    2.0000    1.2850    0.0000 H   0  0  0  0  0  0  0  0  0  0  0  0
    6.3301   -1.5950    0.0000 H   0  0  0  0  0  0  0  0  0  0  0  0
   13.4662    1.2850    0.0000 H   0  0  0  0  0  0  0  0  0  0  0  0
  1 16  1  0  0  0  0
  1 21  1  0  0  0  0
  2 17  2  0  0  0  0
  3 18  2  0  0  0  0
  4 19  1  0  0  0  0
  4 40  1  0  0  0  0
  5 19  2  0  0  0  0
  6 22  1  0  0  0  0
  6 42  1  0  0  0  0
  7 22  2  0  0  0  0
  8 23  2  0  0  0  0
 12  9  1  6  0  0  0
  9 17  1  0  0  0  0
  9 30  1  0  0  0  0
 10 18  1  0  0  0  0
 10 20  1  0  0  0  0
 10 33  1  0  0  0  0
 15 11  1  1  0  0  0
 11 34  1  0  0  0  0
 11 35  1  0  0  0  0
 12 16  1  0  0  0  0
 12 18  1  0  0  0  0
 12 24  1  0  0  0  0
 13 14  1  0  0  0  0
 13 15  1  0  0  0  0
 13 25  1  0  0  0  0
 13 26  1  0  0  0  0
 14 17  1  0  0  0  0
 14 27  1  0  0  0  0
 14 28  1  0  0  0  0
 15 19  1  0  0  0  0
 15 29  1  0  0  0  0
 16 31  1  0  0  0  0
 16 32  1  0  0  0  0
 20 22  1  0  0  0  0
 20 36  1  0  0  0  0
 20 37  1  0  0  0  0
 21 23  1  0  0  0  0
 21 38  1  0  0  0  0
 21 39  1  0  0  0  0
 23 41  1  0  0  0  0
M  END
> <PUBCHEM_COMPOUND_CID>
11954074

> <PUBCHEM_COMPOUND_CANONICALIZED>
1

> <PUBCHEM_CACTVS_COMPLEXITY>
458

> <PUBCHEM_CACTVS_HBOND_ACCEPTOR>
9

> <PUBCHEM_CACTVS_HBOND_DONOR>
5

> <PUBCHEM_CACTVS_ROTATABLE_BOND>
12

> <PUBCHEM_CACTVS_SUBSKEYS>
AAADceBzOABAAAAAAAAAAAAAAAAAAAAAAAAAAAAAAAAAAAAAAAAAHgQQCAAACCjlwAaACALAAggIAAmQmAAAAAAAABAAAIGIAAACQBIggCAUQAAEFgCwAACcFwIAAAAAAAAAAAAAAAAAAAAAAAAAAAAAAA==

> <PUBCHEM_IUPAC_OPENEYE_NAME>
(2S)-2-amino-5-[[(1R)-2-(carboxymethylamino)-2-oxo-1-(2-oxoethylsulfanylmethyl)ethyl]amino]-5-oxo-pentanoic acid

> <PUBCHEM_IUPAC_CAS_NAME>
(2S)-2-amino-5-[[(2R)-1-(carboxymethylamino)-1-oxo-3-(2-oxoethylthio)propan-2-yl]amino]-5-oxopentanoic acid

> <PUBCHEM_IUPAC_NAME>
(2S)-2-amino-5-[[(2R)-1-(carboxymethylamino)-1-oxo-3-(2-oxoethylsulfanyl)propan-2-yl]amino]-5-oxopentanoic acid

> <PUBCHEM_IUPAC_SYSTEMATIC_NAME>
(2S)-2-azanyl-5-[[(2R)-1-(2-hydroxy-2-oxoethylamino)-1-oxidanylidene-3-(2-oxidanylideneethylsulfanyl)propan-2-yl]amino]-5-oxidanylidene-pentanoic acid

> <PUBCHEM_IUPAC_TRADITIONAL_NAME>
(2S)-2-amino-5-[[(1R)-2-(carboxymethylamino)-2-keto-1-[(2-ketoethylthio)methyl]ethyl]amino]-5-keto-valeric acid

> <PUBCHEM_IUPAC_INCHI>
InChI=1S/C12H19N3O7S/c13-7(12(21)22)1-2-9(17)15-8(6-23-4-3-16)11(20)14-5-10(18)19/h3,7-8H,1-2,4-6,13H2,(H,14,20)(H,15,17)(H,18,19)(H,21,22)/t7-,8-/m0/s1

> <PUBCHEM_IUPAC_INCHIKEY>
VKLQBAQSSOPXGF-YUMQZZPRSA-N

> <PUBCHEM_XLOGP3_AA>
-4.6

> <PUBCHEM_EXACT_MASS>
349.094371

> <PUBCHEM_MOLECULAR_FORMULA>
C12H19N3O7S

> <PUBCHEM_MOLECULAR_WEIGHT>
349.36016

> <PUBCHEM_OPENEYE_CAN_SMILES>
C(CC(=O)NC(CSCC=O)C(=O)NCC(=O)O)C(C(=O)O)N

> <PUBCHEM_OPENEYE_ISO_SMILES>
C(CC(=O)N[C@@H](CSCC=O)C(=O)NCC(=O)O)[C@@H](C(=O)O)N

> <PUBCHEM_CACTVS_TPSA>
201

> <PUBCHEM_MONOISOTOPIC_WEIGHT>
349.094371

> <PUBCHEM_TOTAL_CHARGE>
0

> <PUBCHEM_HEAVY_ATOM_COUNT>
23

> <PUBCHEM_ATOM_DEF_STEREO_COUNT>
2

> <PUBCHEM_ATOM_UDEF_STEREO_COUNT>
0

> <PUBCHEM_BOND_DEF_STEREO_COUNT>
0

> <PUBCHEM_BOND_UDEF_STEREO_COUNT>
0

> <PUBCHEM_ISOTOPIC_ATOM_COUNT>
0

> <PUBCHEM_COMPONENT_COUNT>
1

> <PUBCHEM_CACTVS_TAUTO_COUNT>
8

> <PUBCHEM_COORDINATE_TYPE>
1
5
255

> <PUBCHEM_BONDANNOTATIONS>
15  11  5
12  9  6

$$$$

