11670
  -OEChem-06261205582D

 21 20  0     0  0  0  0  0  0999 V2000
    2.5369   -0.8170    0.0000 O   0  0  0  0  0  0  0  0  0  0  0  0
    3.4030   -0.3170    0.0000 C   0  0  0  0  0  0  0  0  0  0  0  0
    4.2690    0.1830    0.0000 C   0  0  0  0  0  0  0  0  0  0  0  0
    2.9030    0.5490    0.0000 C   0  0  0  0  0  0  0  0  0  0  0  0
    3.9030   -1.1830    0.0000 C   0  0  0  0  0  0  0  0  0  0  0  0
    5.1350   -0.3170    0.0000 C   0  0  0  0  0  0  0  0  0  0  0  0
    4.2690    1.1830    0.0000 C   0  0  0  0  0  0  0  0  0  0  0  0
    4.2690   -0.4370    0.0000 H   0  0  0  0  0  0  0  0  0  0  0  0
    3.3660   -1.4930    0.0000 H   0  0  0  0  0  0  0  0  0  0  0  0
    4.2130   -1.7200    0.0000 H   0  0  0  0  0  0  0  0  0  0  0  0
    4.4399   -0.8730    0.0000 H   0  0  0  0  0  0  0  0  0  0  0  0
    3.4399    0.8590    0.0000 H   0  0  0  0  0  0  0  0  0  0  0  0
    2.5930    1.0860    0.0000 H   0  0  0  0  0  0  0  0  0  0  0  0
    2.3660    0.2390    0.0000 H   0  0  0  0  0  0  0  0  0  0  0  0
    4.8250   -0.8539    0.0000 H   0  0  0  0  0  0  0  0  0  0  0  0
    5.6720   -0.6270    0.0000 H   0  0  0  0  0  0  0  0  0  0  0  0
    5.4450    0.2199    0.0000 H   0  0  0  0  0  0  0  0  0  0  0  0
    4.8890    1.1830    0.0000 H   0  0  0  0  0  0  0  0  0  0  0  0
    4.2690    1.8030    0.0000 H   0  0  0  0  0  0  0  0  0  0  0  0
    3.6490    1.1830    0.0000 H   0  0  0  0  0  0  0  0  0  0  0  0
    2.0000   -0.5070    0.0000 H   0  0  0  0  0  0  0  0  0  0  0  0
  1  2  1  0  0  0  0
  1 21  1  0  0  0  0
  2  3  1  0  0  0  0
  2  4  1  0  0  0  0
  2  5  1  0  0  0  0
  3  6  1  0  0  0  0
  3  7  1  0  0  0  0
  3  8  1  0  0  0  0
  4 12  1  0  0  0  0
  4 13  1  0  0  0  0
  4 14  1  0  0  0  0
  5  9  1  0  0  0  0
  5 10  1  0  0  0  0
  5 11  1  0  0  0  0
  6 15  1  0  0  0  0
  6 16  1  0  0  0  0
  6 17  1  0  0  0  0
  7 18  1  0  0  0  0
  7 19  1  0  0  0  0
  7 20  1  0  0  0  0
M  END
> <PUBCHEM_COMPOUND_CID>
11670

> <PUBCHEM_COMPOUND_CANONICALIZED>
1

> <PUBCHEM_CACTVS_COMPLEXITY>
55.2

> <PUBCHEM_CACTVS_HBOND_ACCEPTOR>
1

> <PUBCHEM_CACTVS_HBOND_DONOR>
1

> <PUBCHEM_CACTVS_ROTATABLE_BOND>
1

> <PUBCHEM_CACTVS_SUBSKEYS>
AAADccBgIAAAAAAAAAAAAAAAAAAAAAAAAAAAAAAAAAAAAAAAAAAAGgAACAAADUSAgAACAAAAAgAAAAAAAAAAAAAAAAAAAAAAAAAAAAAAAAAAQAAAAAAAAAAAAAAIgAAAAAAAAAAAAAAAAAAAAAAAAAAAAA==

> <PUBCHEM_IUPAC_OPENEYE_NAME>
2,3-dimethylbutan-2-ol

> <PUBCHEM_IUPAC_CAS_NAME>
2,3-dimethyl-2-butanol

> <PUBCHEM_IUPAC_NAME>
2,3-dimethylbutan-2-ol

> <PUBCHEM_IUPAC_SYSTEMATIC_NAME>
2,3-dimethylbutan-2-ol

> <PUBCHEM_IUPAC_TRADITIONAL_NAME>
2,3-dimethylbutan-2-ol

> <PUBCHEM_IUPAC_INCHI>
InChI=1S/C6H14O/c1-5(2)6(3,4)7/h5,7H,1-4H3

> <PUBCHEM_IUPAC_INCHIKEY>
IKECULIHBUCAKR-UHFFFAOYSA-N

> <PUBCHEM_XLOGP3_AA>
1.5

> <PUBCHEM_EXACT_MASS>
102.104465

> <PUBCHEM_MOLECULAR_FORMULA>
C6H14O

> <PUBCHEM_MOLECULAR_WEIGHT>
102.17476

> <PUBCHEM_OPENEYE_CAN_SMILES>
CC(C)C(C)(C)O

> <PUBCHEM_OPENEYE_ISO_SMILES>
CC(C)C(C)(C)O

> <PUBCHEM_CACTVS_TPSA>
20.2

> <PUBCHEM_MONOISOTOPIC_WEIGHT>
102.104465

> <PUBCHEM_TOTAL_CHARGE>
0

> <PUBCHEM_HEAVY_ATOM_COUNT>
7

> <PUBCHEM_ATOM_DEF_STEREO_COUNT>
0

> <PUBCHEM_ATOM_UDEF_STEREO_COUNT>
0

> <PUBCHEM_BOND_DEF_STEREO_COUNT>
0

> <PUBCHEM_BOND_UDEF_STEREO_COUNT>
0

> <PUBCHEM_ISOTOPIC_ATOM_COUNT>
0

> <PUBCHEM_COMPONENT_COUNT>
1

> <PUBCHEM_CACTVS_TAUTO_COUNT>
1

> <PUBCHEM_COORDINATE_TYPE>
1
5
255

$$$$

