5281117
  -OEChem-07051212553D

 53 52  0     1  0  0  0  0  0999 V2000
    4.0051   -3.1228   -0.5129 O   0  0  0  0  0  0  0  0  0  0  0  0
   -4.9644    1.1118    0.5691 O   0  0  0  0  0  0  0  0  0  0  0  0
   -4.2833   -0.1359   -1.2044 O   0  0  0  0  0  0  0  0  0  0  0  0
   -0.8387   -2.4859    0.2727 C   0  0  0  0  0  0  0  0  0  0  0  0
    0.5292   -1.8020    0.2776 C   0  0  0  0  0  0  0  0  0  0  0  0
   -1.9434   -1.4968    0.6523 C   0  0  0  0  0  0  0  0  0  0  0  0
    1.6889   -2.7361   -0.0784 C   0  0  0  0  0  0  0  0  0  0  0  0
   -3.3241   -2.1564    0.6146 C   0  0  0  0  0  0  0  0  0  0  0  0
    3.0797   -2.0911   -0.1662 C   0  0  2  0  0  0  0  0  0  0  0  0
   -4.4434   -1.1812    0.9674 C   0  0  0  0  0  0  0  0  0  0  0  0
    3.1370   -0.9468   -1.1447 C   0  0  0  0  0  0  0  0  0  0  0  0
   -0.0741    2.3221    0.9944 C   0  0  0  0  0  0  0  0  0  0  0  0
   -0.0086    2.1335   -0.5246 C   0  0  0  0  0  0  0  0  0  0  0  0
    1.2326    1.9603    1.7091 C   0  0  0  0  0  0  0  0  0  0  0  0
   -1.3341    2.4321   -1.2308 C   0  0  0  0  0  0  0  0  0  0  0  0
    3.4952    0.3174   -0.8716 C   0  0  0  0  0  0  0  0  0  0  0  0
    3.9028    0.7792    0.4983 C   0  0  0  0  0  0  0  0  0  0  0  0
    2.4237    2.7277    1.2112 C   0  0  0  0  0  0  0  0  0  0  0  0
   -4.5453   -0.0394   -0.0125 C   0  0  0  0  0  0  0  0  0  0  0  0
    3.5636    2.2261    0.7102 C   0  0  0  0  0  0  0  0  0  0  0  0
   -1.2984    2.1842   -2.7309 C   0  0  0  0  0  0  0  0  0  0  0  0
   -0.8339   -3.3244    0.9792 H   0  0  0  0  0  0  0  0  0  0  0  0
   -1.0372   -2.9004   -0.7230 H   0  0  0  0  0  0  0  0  0  0  0  0
    0.7162   -1.3641    1.2647 H   0  0  0  0  0  0  0  0  0  0  0  0
    0.4997   -0.9831   -0.4447 H   0  0  0  0  0  0  0  0  0  0  0  0
   -1.7536   -1.1011    1.6576 H   0  0  0  0  0  0  0  0  0  0  0  0
   -1.9086   -0.6472   -0.0382 H   0  0  0  0  0  0  0  0  0  0  0  0
    1.7241   -3.5536    0.6546 H   0  0  0  0  0  0  0  0  0  0  0  0
    1.4681   -3.2283   -1.0360 H   0  0  0  0  0  0  0  0  0  0  0  0
   -3.3474   -2.9931    1.3230 H   0  0  0  0  0  0  0  0  0  0  0  0
   -3.5012   -2.5777   -0.3826 H   0  0  0  0  0  0  0  0  0  0  0  0
    3.3627   -1.7738    0.8397 H   0  0  0  0  0  0  0  0  0  0  0  0
   -5.4079   -1.6998    0.9784 H   0  0  0  0  0  0  0  0  0  0  0  0
   -4.2650   -0.7753    1.9699 H   0  0  0  0  0  0  0  0  0  0  0  0
    2.8826   -1.1859   -2.1756 H   0  0  0  0  0  0  0  0  0  0  0  0
   -0.8807    1.7024    1.4049 H   0  0  0  0  0  0  0  0  0  0  0  0
   -0.3342    3.3648    1.2160 H   0  0  0  0  0  0  0  0  0  0  0  0
    0.2946    1.1098   -0.7548 H   0  0  0  0  0  0  0  0  0  0  0  0
    0.7597    2.7906   -0.9491 H   0  0  0  0  0  0  0  0  0  0  0  0
    1.3900    0.8818    1.6226 H   0  0  0  0  0  0  0  0  0  0  0  0
    1.1147    2.1682    2.7794 H   0  0  0  0  0  0  0  0  0  0  0  0
   -2.1254    1.8146   -0.7916 H   0  0  0  0  0  0  0  0  0  0  0  0
   -1.6123    3.4772   -1.0501 H   0  0  0  0  0  0  0  0  0  0  0  0
    3.5331    1.0302   -1.6920 H   0  0  0  0  0  0  0  0  0  0  0  0
    4.9896    0.6710    0.5985 H   0  0  0  0  0  0  0  0  0  0  0  0
    3.4579    0.1900    1.3032 H   0  0  0  0  0  0  0  0  0  0  0  0
    3.9620   -3.8051    0.1787 H   0  0  0  0  0  0  0  0  0  0  0  0
    2.3483    3.8112    1.2873 H   0  0  0  0  0  0  0  0  0  0  0  0
    4.3245    2.9388    0.3956 H   0  0  0  0  0  0  0  0  0  0  0  0
   -1.0638    1.1369   -2.9465 H   0  0  0  0  0  0  0  0  0  0  0  0
   -2.2701    2.4153   -3.1781 H   0  0  0  0  0  0  0  0  0  0  0  0
   -0.5420    2.8121   -3.2120 H   0  0  0  0  0  0  0  0  0  0  0  0
   -5.0251    1.8472   -0.0773 H   0  0  0  0  0  0  0  0  0  0  0  0
  1  9  1  0  0  0  0
  1 47  1  0  0  0  0
  2 19  1  0  0  0  0
  2 53  1  0  0  0  0
  3 19  2  0  0  0  0
  4  5  1  0  0  0  0
  4  6  1  0  0  0  0
  4 22  1  0  0  0  0
  4 23  1  0  0  0  0
  5  7  1  0  0  0  0
  5 24  1  0  0  0  0
  5 25  1  0  0  0  0
  6  8  1  0  0  0  0
  6 26  1  0  0  0  0
  6 27  1  0  0  0  0
  7  9  1  0  0  0  0
  7 28  1  0  0  0  0
  7 29  1  0  0  0  0
  8 10  1  0  0  0  0
  8 30  1  0  0  0  0
  8 31  1  0  0  0  0
  9 11  1  0  0  0  0
  9 32  1  0  0  0  0
 10 19  1  0  0  0  0
 10 33  1  0  0  0  0
 10 34  1  0  0  0  0
 11 16  2  0  0  0  0
 11 35  1  0  0  0  0
 12 13  1  0  0  0  0
 12 14  1  0  0  0  0
 12 36  1  0  0  0  0
 12 37  1  0  0  0  0
 13 15  1  0  0  0  0
 13 38  1  0  0  0  0
 13 39  1  0  0  0  0
 14 18  1  0  0  0  0
 14 40  1  0  0  0  0
 14 41  1  0  0  0  0
 15 21  1  0  0  0  0
 15 42  1  0  0  0  0
 15 43  1  0  0  0  0
 16 17  1  0  0  0  0
 16 44  1  0  0  0  0
 17 20  1  0  0  0  0
 17 45  1  0  0  0  0
 17 46  1  0  0  0  0
 18 20  2  0  0  0  0
 18 48  1  0  0  0  0
 20 49  1  0  0  0  0
 21 50  1  0  0  0  0
 21 51  1  0  0  0  0
 21 52  1  0  0  0  0
M  END
> <PUBCHEM_COMPOUND_CID>
5281117

> <PUBCHEM_CONFORMER_RMSD>
1.2

> <PUBCHEM_CONFORMER_DIVERSEORDER>
2
70
98
116
72
35
9
76
21
66
105
121
47
95
19
77
25
97
51
30
114
4
125
69
10
90
92
123
45
89
15
71
85
120
117
44
113
41
59
112
18
22
63
65
61
36
78
42
7
84
52
108
27
43
62
32
39
103
81
124
101
64
100
80
3
129
127
34
24
79
86
83
12
109
26
132
49
60
67
75
107
40
115
54
8
46
93
55
110
13
126
74
73
11
131
111
57
33
37
17
106
118
91
122
16
68
6
1
82
128
14
102
96
53
31
119
38
48
88
23
29
130
50
5
99
56
58
104
28
87
94
20

> <PUBCHEM_MMFF94_PARTIAL_CHARGES>
18
1 -0.68
10 0.06
11 -0.29
14 0.14
16 -0.29
17 0.28
18 -0.29
19 0.66
2 -0.65
20 -0.29
3 -0.57
35 0.15
44 0.15
47 0.4
48 0.15
49 0.15
53 0.5
9 0.42

> <PUBCHEM_EFFECTIVE_ROTOR_COUNT>
14

> <PUBCHEM_PHARMACOPHORE_FEATURES>
9
1 1 acceptor
1 1 donor
1 2 acceptor
1 21 hydrophobe
1 3 acceptor
3 2 3 19 anion
3 4 5 7 hydrophobe
3 6 8 10 hydrophobe
5 12 13 14 15 18 hydrophobe

> <PUBCHEM_HEAVY_ATOM_COUNT>
21

> <PUBCHEM_ATOM_DEF_STEREO_COUNT>
1

> <PUBCHEM_ATOM_UDEF_STEREO_COUNT>
0

> <PUBCHEM_BOND_DEF_STEREO_COUNT>
2

> <PUBCHEM_BOND_UDEF_STEREO_COUNT>
0

> <PUBCHEM_ISOTOPIC_ATOM_COUNT>
0

> <PUBCHEM_COMPONENT_COUNT>
1

> <PUBCHEM_CACTVS_TAUTO_COUNT>
1

> <PUBCHEM_CONFORMER_ID>
0050955D00000002

> <PUBCHEM_MMFF94_ENERGY>
8.8287

> <PUBCHEM_FEATURE_SELFOVERLAP>
45.727

> <PUBCHEM_SHAPE_FINGERPRINT>
1100329 8 17832137603747788808
12422481 6 18267891431147347936
12467345 10 17242460412941967207
12769317 202 18262238816030763634
13402501 40 18410857616597474376
14251757 17 18411703183915132289
15210252 30 17987217946900249460
17093844 170 18341052921732255352
20621476 13 18335135363104960858
21330990 113 18342178830223757737
21585483 110 17764588012687109465
3014063 31 18335695074562980458
350125 39 18341888619916394678
3524813 1 18411138013421264734
5047190 48 17764592018920866972
574716 61 17531253803413619543
6433294 58 18337670922590896826

> <PUBCHEM_SHAPE_MULTIPOLES>
414.56
9.13
4.36
1.64
7.09
0.73
-0.78
1.67
0.71
-2.4
-0.1
0.22
-1.47
2.4

> <PUBCHEM_SHAPE_SELFOVERLAP>
773.869

> <PUBCHEM_SHAPE_VOLUME>
257.6

> <PUBCHEM_COORDINATE_TYPE>
2
5
10

$$$$

