8703
  -OEChem-06261203012D

 24 24  0     0  0  0  0  0  0999 V2000
    5.4641    2.1900    0.0000 O   0  0  0  0  0  0  0  0  0  0  0  0
    3.7320    0.1900    0.0000 N   0  0  0  0  0  0  0  0  0  0  0  0
    3.7320   -0.8100    0.0000 C   0  0  0  0  0  0  0  0  0  0  0  0
    2.8660   -1.3100    0.0000 C   0  0  0  0  0  0  0  0  0  0  0  0
    4.5981    0.6900    0.0000 C   0  0  0  0  0  0  0  0  0  0  0  0
    4.5981   -1.3100    0.0000 C   0  0  0  0  0  0  0  0  0  0  0  0
    2.8660   -2.3100    0.0000 C   0  0  0  0  0  0  0  0  0  0  0  0
    4.5981    1.6900    0.0000 C   0  0  0  0  0  0  0  0  0  0  0  0
    2.0000   -0.8100    0.0000 C   0  0  0  0  0  0  0  0  0  0  0  0
    4.5981   -2.3100    0.0000 C   0  0  0  0  0  0  0  0  0  0  0  0
    3.7320   -2.8100    0.0000 C   0  0  0  0  0  0  0  0  0  0  0  0
    4.8101    0.1074    0.0000 H   0  0  0  0  0  0  0  0  0  0  0  0
    5.2087    0.7977    0.0000 H   0  0  0  0  0  0  0  0  0  0  0  0
    3.1951    0.5000    0.0000 H   0  0  0  0  0  0  0  0  0  0  0  0
    5.1350   -1.0000    0.0000 H   0  0  0  0  0  0  0  0  0  0  0  0
    2.3291   -2.6200    0.0000 H   0  0  0  0  0  0  0  0  0  0  0  0
    4.3860    2.2726    0.0000 H   0  0  0  0  0  0  0  0  0  0  0  0
    3.9875    1.5823    0.0000 H   0  0  0  0  0  0  0  0  0  0  0  0
    2.3100   -0.2731    0.0000 H   0  0  0  0  0  0  0  0  0  0  0  0
    1.4631   -0.5000    0.0000 H   0  0  0  0  0  0  0  0  0  0  0  0
    1.6900   -1.3469    0.0000 H   0  0  0  0  0  0  0  0  0  0  0  0
    5.1350   -2.6200    0.0000 H   0  0  0  0  0  0  0  0  0  0  0  0
    3.7320   -3.4300    0.0000 H   0  0  0  0  0  0  0  0  0  0  0  0
    5.4641    2.8100    0.0000 H   0  0  0  0  0  0  0  0  0  0  0  0
  1  8  1  0  0  0  0
  1 24  1  0  0  0  0
  2  3  1  0  0  0  0
  2  5  1  0  0  0  0
  2 14  1  0  0  0  0
  3  4  1  0  0  0  0
  3  6  2  0  0  0  0
  4  7  2  0  0  0  0
  4  9  1  0  0  0  0
  5  8  1  0  0  0  0
  5 12  1  0  0  0  0
  5 13  1  0  0  0  0
  6 10  1  0  0  0  0
  6 15  1  0  0  0  0
  7 11  1  0  0  0  0
  7 16  1  0  0  0  0
  8 17  1  0  0  0  0
  8 18  1  0  0  0  0
  9 19  1  0  0  0  0
  9 20  1  0  0  0  0
  9 21  1  0  0  0  0
 10 11  2  0  0  0  0
 10 22  1  0  0  0  0
 11 23  1  0  0  0  0
M  END
> <PUBCHEM_COMPOUND_CID>
8703

> <PUBCHEM_COMPOUND_CANONICALIZED>
1

> <PUBCHEM_CACTVS_COMPLEXITY>
106

> <PUBCHEM_CACTVS_HBOND_ACCEPTOR>
2

> <PUBCHEM_CACTVS_HBOND_DONOR>
2

> <PUBCHEM_CACTVS_ROTATABLE_BOND>
3

> <PUBCHEM_CACTVS_SUBSKEYS>
AAADccByIAAAAAAAAAAAAAAAAAAAAAAAAAAwAAAAAAAAAAABAAAAHgAQCAAADAjhmAYywILAAgCAAiRCQACCAAAhAgAIiIAIZIgKMCLAkZGEIAhgkADYyAcQgAAOAAAAAAACAAAAAAAAAAQAAAAAAAAAAA==

> <PUBCHEM_IUPAC_OPENEYE_NAME>
2-(2-methylanilino)ethanol

> <PUBCHEM_IUPAC_CAS_NAME>
2-(2-methylanilino)ethanol

> <PUBCHEM_IUPAC_NAME>
2-(2-methylanilino)ethanol

> <PUBCHEM_IUPAC_SYSTEMATIC_NAME>
2-[(2-methylphenyl)amino]ethanol

> <PUBCHEM_IUPAC_TRADITIONAL_NAME>
2-(o-toluidino)ethanol

> <PUBCHEM_IUPAC_INCHI>
InChI=1S/C9H13NO/c1-8-4-2-3-5-9(8)10-6-7-11/h2-5,10-11H,6-7H2,1H3

> <PUBCHEM_IUPAC_INCHIKEY>
DHZZPKMVVSTYLF-UHFFFAOYSA-N

> <PUBCHEM_XLOGP3>
1.5

> <PUBCHEM_EXACT_MASS>
151.099714

> <PUBCHEM_MOLECULAR_FORMULA>
C9H13NO

> <PUBCHEM_MOLECULAR_WEIGHT>
151.20562

> <PUBCHEM_OPENEYE_CAN_SMILES>
CC1=CC=CC=C1NCCO

> <PUBCHEM_OPENEYE_ISO_SMILES>
CC1=CC=CC=C1NCCO

> <PUBCHEM_CACTVS_TPSA>
32.3

> <PUBCHEM_MONOISOTOPIC_WEIGHT>
151.099714

> <PUBCHEM_TOTAL_CHARGE>
0

> <PUBCHEM_HEAVY_ATOM_COUNT>
11

> <PUBCHEM_ATOM_DEF_STEREO_COUNT>
0

> <PUBCHEM_ATOM_UDEF_STEREO_COUNT>
0

> <PUBCHEM_BOND_DEF_STEREO_COUNT>
0

> <PUBCHEM_BOND_UDEF_STEREO_COUNT>
0

> <PUBCHEM_ISOTOPIC_ATOM_COUNT>
0

> <PUBCHEM_COMPONENT_COUNT>
1

> <PUBCHEM_CACTVS_TAUTO_COUNT>
1

> <PUBCHEM_COORDINATE_TYPE>
1
5
255

> <PUBCHEM_BONDANNOTATIONS>
10  11  8
3  4  8
3  6  8
4  7  8
6  10  8
7  11  8

$$$$

