9431
  -OEChem-06261203422D

 44 46  0     0  0  0  0  0  0999 V2000
    4.6660   -0.2327    0.0000 N   0  0  0  0  0  0  0  0  0  0  0  0
    4.6660   -3.2327    0.0000 N   0  0  0  0  0  0  0  0  0  0  0  0
    5.5321   -1.7327    0.0000 C   0  0  0  0  0  0  0  0  0  0  0  0
    6.4260   -1.1980    0.0000 C   0  0  0  0  0  0  0  0  0  0  0  0
    7.3321   -1.7118    0.0000 C   0  0  0  0  0  0  0  0  0  0  0  0
    7.3321   -2.7535    0.0000 C   0  0  0  0  0  0  0  0  0  0  0  0
    6.4260   -3.2673    0.0000 C   0  0  0  0  0  0  0  0  0  0  0  0
    5.5321   -2.7327    0.0000 C   0  0  0  0  0  0  0  0  0  0  0  0
    4.6660   -1.2327    0.0000 C   0  0  0  0  0  0  0  0  0  0  0  0
    3.8000   -1.7327    0.0000 C   0  0  0  0  0  0  0  0  0  0  0  0
    3.8000   -2.7327    0.0000 C   0  0  0  0  0  0  0  0  0  0  0  0
    5.5321    0.2673    0.0000 C   0  0  0  0  0  0  0  0  0  0  0  0
    5.5321    1.2673    0.0000 C   0  0  0  0  0  0  0  0  0  0  0  0
    6.3981    1.7673    0.0000 C   0  0  0  0  0  0  0  0  0  0  0  0
    2.9061   -1.1980    0.0000 C   0  0  0  0  0  0  0  0  0  0  0  0
    2.9061   -3.2673    0.0000 C   0  0  0  0  0  0  0  0  0  0  0  0
    6.3981    2.7673    0.0000 C   0  0  0  0  0  0  0  0  0  0  0  0
    2.0000   -1.7118    0.0000 C   0  0  0  0  0  0  0  0  0  0  0  0
    2.0000   -2.7535    0.0000 C   0  0  0  0  0  0  0  0  0  0  0  0
    7.2641    3.2673    0.0000 C   0  0  0  0  0  0  0  0  0  0  0  0
    6.8196   -0.7190    0.0000 H   0  0  0  0  0  0  0  0  0  0  0  0
    6.0214   -0.7282    0.0000 H   0  0  0  0  0  0  0  0  0  0  0  0
    7.9429   -1.8180    0.0000 H   0  0  0  0  0  0  0  0  0  0  0  0
    7.5411   -1.1282    0.0000 H   0  0  0  0  0  0  0  0  0  0  0  0
    7.5411   -3.3372    0.0000 H   0  0  0  0  0  0  0  0  0  0  0  0
    7.9429   -2.6474    0.0000 H   0  0  0  0  0  0  0  0  0  0  0  0
    6.0214   -3.7371    0.0000 H   0  0  0  0  0  0  0  0  0  0  0  0
    6.8196   -3.7464    0.0000 H   0  0  0  0  0  0  0  0  0  0  0  0
    4.1291    0.0773    0.0000 H   0  0  0  0  0  0  0  0  0  0  0  0
    5.7441   -0.3153    0.0000 H   0  0  0  0  0  0  0  0  0  0  0  0
    6.1426    0.3750    0.0000 H   0  0  0  0  0  0  0  0  0  0  0  0
    5.3200    1.8499    0.0000 H   0  0  0  0  0  0  0  0  0  0  0  0
    4.9215    1.1597    0.0000 H   0  0  0  0  0  0  0  0  0  0  0  0
    6.6101    1.1847    0.0000 H   0  0  0  0  0  0  0  0  0  0  0  0
    7.0087    1.8750    0.0000 H   0  0  0  0  0  0  0  0  0  0  0  0
    2.9132   -0.5780    0.0000 H   0  0  0  0  0  0  0  0  0  0  0  0
    2.9132   -3.8873    0.0000 H   0  0  0  0  0  0  0  0  0  0  0  0
    6.1860    3.3499    0.0000 H   0  0  0  0  0  0  0  0  0  0  0  0
    5.7875    2.6597    0.0000 H   0  0  0  0  0  0  0  0  0  0  0  0
    1.4643   -1.3998    0.0000 H   0  0  0  0  0  0  0  0  0  0  0  0
    1.4643   -3.0656    0.0000 H   0  0  0  0  0  0  0  0  0  0  0  0
    7.5741    2.7304    0.0000 H   0  0  0  0  0  0  0  0  0  0  0  0
    7.8010    3.5773    0.0000 H   0  0  0  0  0  0  0  0  0  0  0  0
    6.9541    3.8043    0.0000 H   0  0  0  0  0  0  0  0  0  0  0  0
  1  9  1  0  0  0  0
  1 12  1  0  0  0  0
  1 29  1  0  0  0  0
  2  8  2  0  0  0  0
  2 11  1  0  0  0  0
  3  4  1  0  0  0  0
  3  8  1  0  0  0  0
  3  9  2  0  0  0  0
  4  5  1  0  0  0  0
  4 21  1  0  0  0  0
  4 22  1  0  0  0  0
  5  6  1  0  0  0  0
  5 23  1  0  0  0  0
  5 24  1  0  0  0  0
  6  7  1  0  0  0  0
  6 25  1  0  0  0  0
  6 26  1  0  0  0  0
  7  8  1  0  0  0  0
  7 27  1  0  0  0  0
  7 28  1  0  0  0  0
  9 10  1  0  0  0  0
 10 11  1  0  0  0  0
 10 15  2  0  0  0  0
 11 16  2  0  0  0  0
 12 13  1  0  0  0  0
 12 30  1  0  0  0  0
 12 31  1  0  0  0  0
 13 14  1  0  0  0  0
 13 32  1  0  0  0  0
 13 33  1  0  0  0  0
 14 17  1  0  0  0  0
 14 34  1  0  0  0  0
 14 35  1  0  0  0  0
 15 18  1  0  0  0  0
 15 36  1  0  0  0  0
 16 19  1  0  0  0  0
 16 37  1  0  0  0  0
 17 20  1  0  0  0  0
 17 38  1  0  0  0  0
 17 39  1  0  0  0  0
 18 19  2  0  0  0  0
 18 40  1  0  0  0  0
 19 41  1  0  0  0  0
 20 42  1  0  0  0  0
 20 43  1  0  0  0  0
 20 44  1  0  0  0  0
M  END
> <PUBCHEM_COMPOUND_CID>
9431

> <PUBCHEM_COMPOUND_CANONICALIZED>
1

> <PUBCHEM_CACTVS_COMPLEXITY>
291

> <PUBCHEM_CACTVS_HBOND_ACCEPTOR>
2

> <PUBCHEM_CACTVS_HBOND_DONOR>
1

> <PUBCHEM_CACTVS_ROTATABLE_BOND>
5

> <PUBCHEM_CACTVS_SUBSKEYS>
AAADceB7AAAAAAAAAAAAAAAAAAAAAAAAAAA8YIAAAAAAAACx8AAAHAAQAAAADAjBHgQywPLIEACgAyRiRACCgCAhAiAImKA4ZJgIIOLA0dGEJAhgkADIyAcQgMAOAAAAAAACAAAAAAAAAAQAAAAAAAAAAA==

> <PUBCHEM_IUPAC_OPENEYE_NAME>
N-pentyl-1,2,3,4-tetrahydroacridin-9-amine

> <PUBCHEM_IUPAC_CAS_NAME>
N-pentyl-1,2,3,4-tetrahydroacridin-9-amine

> <PUBCHEM_IUPAC_NAME>
N-pentyl-1,2,3,4-tetrahydroacridin-9-amine

> <PUBCHEM_IUPAC_SYSTEMATIC_NAME>
N-pentyl-1,2,3,4-tetrahydroacridin-9-amine

> <PUBCHEM_IUPAC_TRADITIONAL_NAME>
amyl(1,2,3,4-tetrahydroacridin-9-yl)amine

> <PUBCHEM_IUPAC_INCHI>
InChI=1S/C18H24N2/c1-2-3-8-13-19-18-14-9-4-6-11-16(14)20-17-12-7-5-10-15(17)18/h4,6,9,11H,2-3,5,7-8,10,12-13H2,1H3,(H,19,20)

> <PUBCHEM_IUPAC_INCHIKEY>
KPBXUHIQUPUXJA-UHFFFAOYSA-N

> <PUBCHEM_XLOGP3>
5.2

> <PUBCHEM_EXACT_MASS>
268.193949

> <PUBCHEM_MOLECULAR_FORMULA>
C18H24N2

> <PUBCHEM_MOLECULAR_WEIGHT>
268.39656

> <PUBCHEM_OPENEYE_CAN_SMILES>
CCCCCNC1=C2CCCCC2=NC3=CC=CC=C31

> <PUBCHEM_OPENEYE_ISO_SMILES>
CCCCCNC1=C2CCCCC2=NC3=CC=CC=C31

> <PUBCHEM_CACTVS_TPSA>
24.9

> <PUBCHEM_MONOISOTOPIC_WEIGHT>
268.193949

> <PUBCHEM_TOTAL_CHARGE>
0

> <PUBCHEM_HEAVY_ATOM_COUNT>
20

> <PUBCHEM_ATOM_DEF_STEREO_COUNT>
0

> <PUBCHEM_ATOM_UDEF_STEREO_COUNT>
0

> <PUBCHEM_BOND_DEF_STEREO_COUNT>
0

> <PUBCHEM_BOND_UDEF_STEREO_COUNT>
0

> <PUBCHEM_ISOTOPIC_ATOM_COUNT>
0

> <PUBCHEM_COMPONENT_COUNT>
1

> <PUBCHEM_CACTVS_TAUTO_COUNT>
6

> <PUBCHEM_COORDINATE_TYPE>
1
5
255

> <PUBCHEM_BONDANNOTATIONS>
10  11  8
10  15  8
11  16  8
15  18  8
16  19  8
18  19  8
2  11  8
2  8  8
3  8  8
3  9  8
9  10  8

$$$$

