439329
  -OEChem-07051212453D

 49 53  0     1  0  0  0  0  0999 V2000
    0.8386   -1.6231   -0.4912 O   0  0  0  0  0  0  0  0  0  0  0  0
   -3.9466   -1.2290   -1.5639 O   0  0  0  0  0  0  0  0  0  0  0  0
    4.1347    0.5166    1.1510 O   0  0  0  0  0  0  0  0  0  0  0  0
    2.1473   -1.5926   -2.3852 O   0  0  0  0  0  0  0  0  0  0  0  0
    0.2349    3.5483   -0.9737 O   0  0  0  0  0  0  0  0  0  0  0  0
   -0.0017    3.0465    1.2372 O   0  0  0  0  0  0  0  0  0  0  0  0
   -1.1493    0.4926    0.0079 C   0  0  1  0  0  0  0  0  0  0  0  0
    0.7673   -0.8215    0.7003 C   0  0  2  0  0  0  0  0  0  0  0  0
   -0.6682   -0.4992    1.1136 C   0  0  2  0  0  0  0  0  0  0  0  0
    1.3130    0.5347    0.2699 C   0  0  2  0  0  0  0  0  0  0  0  0
    0.1242    1.2719   -0.4008 C   0  0  2  0  0  0  0  0  0  0  0  0
    2.4779    0.0543   -0.5964 C   0  0  1  0  0  0  0  0  0  0  0  0
   -1.7705   -0.2278   -1.2030 C   0  0  0  0  0  0  0  0  0  0  0  0
   -3.0112   -0.8468   -0.5738 C   0  0  2  0  0  0  0  0  0  0  0  0
   -2.3818    1.2871    0.4953 C   0  0  0  0  0  0  0  0  0  0  0  0
   -1.5904   -1.7003    1.3799 C   0  0  0  0  0  0  0  0  0  0  0  0
    1.6729   -1.4351    1.7754 C   0  0  0  0  0  0  0  0  0  0  0  0
   -2.5700   -2.0566    0.2582 C   0  0  0  0  0  0  0  0  0  0  0  0
    3.5991   -0.5154    0.3217 C   0  0  2  0  0  0  0  0  0  0  0  0
   -3.5121    0.3043    0.2737 C   0  0  0  0  0  0  0  0  0  0  0  0
    3.1049   -1.6474    1.2488 C   0  0  0  0  0  0  0  0  0  0  0  0
    1.8318   -1.1236   -1.3041 C   0  0  0  0  0  0  0  0  0  0  0  0
    0.1097    2.6951    0.0720 C   0  0  0  0  0  0  0  0  0  0  0  0
    2.9976    1.1103   -1.5643 C   0  0  0  0  0  0  0  0  0  0  0  0
   -4.7522    0.4566    0.7516 C   0  0  0  0  0  0  0  0  0  0  0  0
   -0.5981    0.0571    2.0615 H   0  0  0  0  0  0  0  0  0  0  0  0
    1.6608    1.1203    1.1288 H   0  0  0  0  0  0  0  0  0  0  0  0
    0.2242    1.2676   -1.4918 H   0  0  0  0  0  0  0  0  0  0  0  0
   -1.1308   -0.9774   -1.6756 H   0  0  0  0  0  0  0  0  0  0  0  0
   -2.0397    0.4804   -2.0002 H   0  0  0  0  0  0  0  0  0  0  0  0
   -2.5524    2.1743   -0.1258 H   0  0  0  0  0  0  0  0  0  0  0  0
   -2.3033    1.5878    1.5448 H   0  0  0  0  0  0  0  0  0  0  0  0
   -2.1950   -1.4528    2.2638 H   0  0  0  0  0  0  0  0  0  0  0  0
   -1.0180   -2.5890    1.6670 H   0  0  0  0  0  0  0  0  0  0  0  0
    1.2827   -2.4058    2.1011 H   0  0  0  0  0  0  0  0  0  0  0  0
    1.7005   -0.7860    2.6590 H   0  0  0  0  0  0  0  0  0  0  0  0
   -2.1010   -2.7959   -0.4051 H   0  0  0  0  0  0  0  0  0  0  0  0
   -3.4441   -2.5697    0.6798 H   0  0  0  0  0  0  0  0  0  0  0  0
    4.4285   -0.8967   -0.2856 H   0  0  0  0  0  0  0  0  0  0  0  0
    3.7852   -1.7811    2.0983 H   0  0  0  0  0  0  0  0  0  0  0  0
    3.1211   -2.5887    0.6841 H   0  0  0  0  0  0  0  0  0  0  0  0
    3.2635    2.0333   -1.0385 H   0  0  0  0  0  0  0  0  0  0  0  0
    3.8924    0.7512   -2.0855 H   0  0  0  0  0  0  0  0  0  0  0  0
    2.2665    1.3573   -2.3405 H   0  0  0  0  0  0  0  0  0  0  0  0
   -3.5159   -1.8761   -2.1483 H   0  0  0  0  0  0  0  0  0  0  0  0
   -5.5228   -0.2816    0.5590 H   0  0  0  0  0  0  0  0  0  0  0  0
   -5.0176    1.3227    1.3479 H   0  0  0  0  0  0  0  0  0  0  0  0
    3.5375    0.6592    1.9034 H   0  0  0  0  0  0  0  0  0  0  0  0
    0.2264    4.4856   -0.6846 H   0  0  0  0  0  0  0  0  0  0  0  0
  1  8  1  0  0  0  0
  1 22  1  0  0  0  0
  2 14  1  0  0  0  0
  2 45  1  0  0  0  0
  3 19  1  0  0  0  0
  3 48  1  0  0  0  0
  4 22  2  0  0  0  0
  5 23  1  0  0  0  0
  5 49  1  0  0  0  0
  6 23  2  0  0  0  0
  7  9  1  0  0  0  0
  7 11  1  0  0  0  0
  7 13  1  0  0  0  0
  7 15  1  0  0  0  0
  8  9  1  0  0  0  0
  8 10  1  0  0  0  0
  8 17  1  0  0  0  0
  9 16  1  0  0  0  0
  9 26  1  0  0  0  0
 10 11  1  0  0  0  0
 10 12  1  0  0  0  0
 10 27  1  0  0  0  0
 11 23  1  0  0  0  0
 11 28  1  0  0  0  0
 12 19  1  0  0  0  0
 12 22  1  0  0  0  0
 12 24  1  0  0  0  0
 13 14  1  0  0  0  0
 13 29  1  0  0  0  0
 13 30  1  0  0  0  0
 14 18  1  0  0  0  0
 14 20  1  0  0  0  0
 15 20  1  0  0  0  0
 15 31  1  0  0  0  0
 15 32  1  0  0  0  0
 16 18  1  0  0  0  0
 16 33  1  0  0  0  0
 16 34  1  0  0  0  0
 17 21  1  0  0  0  0
 17 35  1  0  0  0  0
 17 36  1  0  0  0  0
 18 37  1  0  0  0  0
 18 38  1  0  0  0  0
 19 21  1  0  0  0  0
 19 39  1  0  0  0  0
 20 25  2  0  0  0  0
 21 40  1  0  0  0  0
 21 41  1  0  0  0  0
 24 42  1  0  0  0  0
 24 43  1  0  0  0  0
 24 44  1  0  0  0  0
 25 46  1  0  0  0  0
 25 47  1  0  0  0  0
M  END
> <PUBCHEM_COMPOUND_CID>
439329

> <PUBCHEM_CONFORMER_RMSD>
0.6

> <PUBCHEM_CONFORMER_DIVERSEORDER>
1
2

> <PUBCHEM_MMFF94_PARTIAL_CHARGES>
21
1 -0.43
11 0.06
12 0.06
14 0.42
15 0.14
19 0.28
2 -0.68
20 -0.28
22 0.66
23 0.66
25 -0.3
3 -0.68
4 -0.57
45 0.4
46 0.15
47 0.15
48 0.4
49 0.5
5 -0.65
6 -0.57
8 0.28

> <PUBCHEM_EFFECTIVE_ROTOR_COUNT>
2.8

> <PUBCHEM_PHARMACOPHORE_FEATURES>
11
1 2 acceptor
1 2 donor
1 3 acceptor
1 3 donor
1 4 acceptor
1 5 acceptor
1 6 acceptor
3 5 6 23 anion
5 7 8 9 10 11 rings
8 1 8 10 12 17 19 21 22 rings
8 7 9 13 14 15 16 18 20 rings

> <PUBCHEM_HEAVY_ATOM_COUNT>
25

> <PUBCHEM_ATOM_DEF_STEREO_COUNT>
7

> <PUBCHEM_ATOM_UDEF_STEREO_COUNT>
1

> <PUBCHEM_BOND_DEF_STEREO_COUNT>
0

> <PUBCHEM_BOND_UDEF_STEREO_COUNT>
0

> <PUBCHEM_ISOTOPIC_ATOM_COUNT>
0

> <PUBCHEM_COMPONENT_COUNT>
1

> <PUBCHEM_CACTVS_TAUTO_COUNT>
1

> <PUBCHEM_CONFORMER_ID>
0006B42100000001

> <PUBCHEM_MMFF94_ENERGY>
100.3674

> <PUBCHEM_FEATURE_SELFOVERLAP>
56.046

> <PUBCHEM_SHAPE_FINGERPRINT>
10863032 1 17345469280586558918
10906281 52 18337659845812478032
11578080 2 17773903989091583229
12553582 1 18412259545362301965
12788726 201 18265038305446985408
13140716 1 18197212538707070969
13224815 77 18409163311828116058
13681431 1 18336537205780583805
14022347 108 18195784457690945367
14115302 16 17632849841297400995
14289901 80 16877944936011818651
14787075 74 18129108836017097704
15238133 3 17987506177944886081
15375462 189 18273214209712770137
1601671 61 18186795898531140865
16752209 62 17981321502073763821
16945 1 17489595584037919778
17349148 13 18059580221591442018
17492 54 18267584594088093236
17980427 23 18262248711313627456
18186145 218 17775559823585305750
19868273 325 18409168826597766129
20600515 1 18413668006803976920
20691752 17 17488192499974297393
20715895 44 17483973940257971565
20905425 154 17547839764113759482
22112679 90 18338233872639322305
23402539 116 18337682995754534826
23419403 2 16334206758089837840
23557571 272 18261674886803381312
23559900 14 17022900198532349078
238 59 17978508629175509557
2748010 2 18262784250785616478
296302 2 17894916221606263011
34934 24 18410009940155735033
5845 1 9978002498130827280
7364860 26 18043813083020455993
7495541 125 17845647046042584075
81228 2 18193257809803310160
9981440 41 17327474523211182737

> <PUBCHEM_SHAPE_MULTIPOLES>
479.27
6.48
2.67
1.64
2.42
2.13
0.46
-1.44
0.02
-0.18
-0.31
-0.69
-0.47
-0.58

> <PUBCHEM_SHAPE_SELFOVERLAP>
1079.287

> <PUBCHEM_SHAPE_VOLUME>
254.2

> <PUBCHEM_COORDINATE_TYPE>
2
5
10

$$$$

