9547192
  -OEChem-07051213102D

146145  0     0  0  0  0  0  0999 V2000
   33.1769    6.4400    0.0000 O   0  0  0  0  0  0  0  0  0  0  0  0
   20.1865   -1.0600    0.0000 C   0  0  0  0  0  0  0  0  0  0  0  0
   17.5885   -2.5600    0.0000 C   0  0  0  0  0  0  0  0  0  0  0  0
   14.9904   -4.0600    0.0000 C   0  0  0  0  0  0  0  0  0  0  0  0
   22.7846    0.4400    0.0000 C   0  0  0  0  0  0  0  0  0  0  0  0
   19.3205   -1.5600    0.0000 C   0  0  0  0  0  0  0  0  0  0  0  0
   16.7224   -3.0600    0.0000 C   0  0  0  0  0  0  0  0  0  0  0  0
   21.9186   -0.0600    0.0000 C   0  0  0  0  0  0  0  0  0  0  0  0
   14.1244   -4.5600    0.0000 C   0  0  0  0  0  0  0  0  0  0  0  0
   18.4545   -3.0600    0.0000 C   0  0  0  0  0  0  0  0  0  0  0  0
   12.3923   -5.5600    0.0000 C   0  0  0  0  0  0  0  0  0  0  0  0
   20.1865   -0.0600    0.0000 C   0  0  0  0  0  0  0  0  0  0  0  0
   14.9904   -3.0600    0.0000 C   0  0  0  0  0  0  0  0  0  0  0  0
   25.3827    1.9400    0.0000 C   0  0  0  0  0  0  0  0  0  0  0  0
   24.5167    1.4400    0.0000 C   0  0  0  0  0  0  0  0  0  0  0  0
   23.6506   -0.0600    0.0000 C   0  0  0  0  0  0  0  0  0  0  0  0
   11.5263   -6.0600    0.0000 C   0  0  0  0  0  0  0  0  0  0  0  0
   13.2583   -6.0600    0.0000 C   0  0  0  0  0  0  0  0  0  0  0  0
   19.3205   -2.5600    0.0000 C   0  0  0  0  0  0  0  0  0  0  0  0
   15.8564   -2.5600    0.0000 C   0  0  0  0  0  0  0  0  0  0  0  0
   21.0526    0.4400    0.0000 C   0  0  0  0  0  0  0  0  0  0  0  0
   25.3827    2.9400    0.0000 C   0  0  0  0  0  0  0  0  0  0  0  0
   14.1244   -5.5600    0.0000 C   0  0  0  0  0  0  0  0  0  0  0  0
   24.5167    0.4400    0.0000 C   0  0  0  0  0  0  0  0  0  0  0  0
    8.9282   -5.5600    0.0000 C   0  0  0  0  0  0  0  0  0  0  0  0
   27.1147    2.9400    0.0000 C   0  0  0  0  0  0  0  0  0  0  0  0
    9.7942   -6.0600    0.0000 C   0  0  0  0  0  0  0  0  0  0  0  0
   27.9808    3.4400    0.0000 C   0  0  0  0  0  0  0  0  0  0  0  0
   10.6603   -5.5600    0.0000 C   0  0  0  0  0  0  0  0  0  0  0  0
    8.0622   -6.0600    0.0000 C   0  0  0  0  0  0  0  0  0  0  0  0
   26.2487    3.4400    0.0000 C   0  0  0  0  0  0  0  0  0  0  0  0
   28.8468    2.9400    0.0000 C   0  0  0  0  0  0  0  0  0  0  0  0
   18.4545   -4.0600    0.0000 C   0  0  0  0  0  0  0  0  0  0  0  0
   19.3205    0.4400    0.0000 C   0  0  0  0  0  0  0  0  0  0  0  0
   14.1244   -2.5600    0.0000 C   0  0  0  0  0  0  0  0  0  0  0  0
   23.6506   -1.0600    0.0000 C   0  0  0  0  0  0  0  0  0  0  0  0
   13.2583   -7.0600    0.0000 C   0  0  0  0  0  0  0  0  0  0  0  0
    7.1962   -5.5600    0.0000 C   0  0  0  0  0  0  0  0  0  0  0  0
    6.3301   -6.0600    0.0000 C   0  0  0  0  0  0  0  0  0  0  0  0
   24.5167    3.4400    0.0000 C   0  0  0  0  0  0  0  0  0  0  0  0
    5.4641   -5.5600    0.0000 C   0  0  0  0  0  0  0  0  0  0  0  0
   29.7128    4.4400    0.0000 C   0  0  0  0  0  0  0  0  0  0  0  0
   29.7128    3.4400    0.0000 C   0  0  0  0  0  0  0  0  0  0  0  0
    9.7942   -7.0600    0.0000 C   0  0  0  0  0  0  0  0  0  0  0  0
   30.5788    4.9400    0.0000 C   0  0  0  0  0  0  0  0  0  0  0  0
    4.5981   -6.0600    0.0000 C   0  0  0  0  0  0  0  0  0  0  0  0
   28.8468    1.9400    0.0000 C   0  0  0  0  0  0  0  0  0  0  0  0
    6.3301   -7.0600    0.0000 C   0  0  0  0  0  0  0  0  0  0  0  0
   30.5788    5.9400    0.0000 C   0  0  0  0  0  0  0  0  0  0  0  0
    3.7320   -5.5600    0.0000 C   0  0  0  0  0  0  0  0  0  0  0  0
   29.7128    6.4400    0.0000 C   0  0  0  0  0  0  0  0  0  0  0  0
    2.8660   -6.0600    0.0000 C   0  0  0  0  0  0  0  0  0  0  0  0
   31.4449    6.4400    0.0000 C   0  0  0  0  0  0  0  0  0  0  0  0
   32.3109    5.9400    0.0000 C   0  0  0  0  0  0  0  0  0  0  0  0
    2.0000   -5.5600    0.0000 C   0  0  0  0  0  0  0  0  0  0  0  0
    2.8660   -7.0600    0.0000 C   0  0  0  0  0  0  0  0  0  0  0  0
   20.3986   -1.6426    0.0000 H   0  0  0  0  0  0  0  0  0  0  0  0
   20.7971   -0.9523    0.0000 H   0  0  0  0  0  0  0  0  0  0  0  0
   17.9870   -2.0850    0.0000 H   0  0  0  0  0  0  0  0  0  0  0  0
   17.1899   -2.0850    0.0000 H   0  0  0  0  0  0  0  0  0  0  0  0
   15.2024   -4.6426    0.0000 H   0  0  0  0  0  0  0  0  0  0  0  0
   15.6010   -3.9523    0.0000 H   0  0  0  0  0  0  0  0  0  0  0  0
   23.1831    0.9149    0.0000 H   0  0  0  0  0  0  0  0  0  0  0  0
   22.3861    0.9149    0.0000 H   0  0  0  0  0  0  0  0  0  0  0  0
   19.1085   -0.9774    0.0000 H   0  0  0  0  0  0  0  0  0  0  0  0
   18.7099   -1.6677    0.0000 H   0  0  0  0  0  0  0  0  0  0  0  0
   16.3239   -3.5350    0.0000 H   0  0  0  0  0  0  0  0  0  0  0  0
   17.1210   -3.5350    0.0000 H   0  0  0  0  0  0  0  0  0  0  0  0
   21.5201   -0.5349    0.0000 H   0  0  0  0  0  0  0  0  0  0  0  0
   22.3171   -0.5349    0.0000 H   0  0  0  0  0  0  0  0  0  0  0  0
   13.9123   -3.9774    0.0000 H   0  0  0  0  0  0  0  0  0  0  0  0
   13.5138   -4.6677    0.0000 H   0  0  0  0  0  0  0  0  0  0  0  0
   12.7908   -5.0850    0.0000 H   0  0  0  0  0  0  0  0  0  0  0  0
   11.9938   -5.0850    0.0000 H   0  0  0  0  0  0  0  0  0  0  0  0
   25.5947    1.3574    0.0000 H   0  0  0  0  0  0  0  0  0  0  0  0
   25.9933    2.0477    0.0000 H   0  0  0  0  0  0  0  0  0  0  0  0
   24.3046    2.0226    0.0000 H   0  0  0  0  0  0  0  0  0  0  0  0
   23.9061    1.3323    0.0000 H   0  0  0  0  0  0  0  0  0  0  0  0
   11.1278   -6.5350    0.0000 H   0  0  0  0  0  0  0  0  0  0  0  0
   11.9248   -6.5350    0.0000 H   0  0  0  0  0  0  0  0  0  0  0  0
   19.8574   -2.8700    0.0000 H   0  0  0  0  0  0  0  0  0  0  0  0
   15.8564   -1.9400    0.0000 H   0  0  0  0  0  0  0  0  0  0  0  0
   21.0526    1.0600    0.0000 H   0  0  0  0  0  0  0  0  0  0  0  0
   14.6613   -5.8700    0.0000 H   0  0  0  0  0  0  0  0  0  0  0  0
   25.0536    0.1300    0.0000 H   0  0  0  0  0  0  0  0  0  0  0  0
    9.3267   -5.0850    0.0000 H   0  0  0  0  0  0  0  0  0  0  0  0
    8.5297   -5.0850    0.0000 H   0  0  0  0  0  0  0  0  0  0  0  0
   26.7162    2.4651    0.0000 H   0  0  0  0  0  0  0  0  0  0  0  0
   27.5133    2.4651    0.0000 H   0  0  0  0  0  0  0  0  0  0  0  0
   28.3793    3.9150    0.0000 H   0  0  0  0  0  0  0  0  0  0  0  0
   27.5822    3.9150    0.0000 H   0  0  0  0  0  0  0  0  0  0  0  0
   10.6603   -4.9400    0.0000 H   0  0  0  0  0  0  0  0  0  0  0  0
    7.6636   -6.5350    0.0000 H   0  0  0  0  0  0  0  0  0  0  0  0
    8.4607   -6.5350    0.0000 H   0  0  0  0  0  0  0  0  0  0  0  0
   26.2487    4.0600    0.0000 H   0  0  0  0  0  0  0  0  0  0  0  0
   17.8345   -4.0600    0.0000 H   0  0  0  0  0  0  0  0  0  0  0  0
   18.4545   -4.6800    0.0000 H   0  0  0  0  0  0  0  0  0  0  0  0
   19.0745   -4.0600    0.0000 H   0  0  0  0  0  0  0  0  0  0  0  0
   19.6305    0.9769    0.0000 H   0  0  0  0  0  0  0  0  0  0  0  0
   18.7836    0.7500    0.0000 H   0  0  0  0  0  0  0  0  0  0  0  0
   19.0105   -0.0969    0.0000 H   0  0  0  0  0  0  0  0  0  0  0  0
   14.4344   -2.0231    0.0000 H   0  0  0  0  0  0  0  0  0  0  0  0
   13.5874   -2.2500    0.0000 H   0  0  0  0  0  0  0  0  0  0  0  0
   13.8144   -3.0969    0.0000 H   0  0  0  0  0  0  0  0  0  0  0  0
   23.0306   -1.0600    0.0000 H   0  0  0  0  0  0  0  0  0  0  0  0
   23.6506   -1.6800    0.0000 H   0  0  0  0  0  0  0  0  0  0  0  0
   24.2706   -1.0600    0.0000 H   0  0  0  0  0  0  0  0  0  0  0  0
   12.6383   -7.0600    0.0000 H   0  0  0  0  0  0  0  0  0  0  0  0
   13.2583   -7.6800    0.0000 H   0  0  0  0  0  0  0  0  0  0  0  0
   13.8783   -7.0600    0.0000 H   0  0  0  0  0  0  0  0  0  0  0  0
    7.1962   -4.9400    0.0000 H   0  0  0  0  0  0  0  0  0  0  0  0
   24.8267    3.9769    0.0000 H   0  0  0  0  0  0  0  0  0  0  0  0
   23.9797    3.7500    0.0000 H   0  0  0  0  0  0  0  0  0  0  0  0
   24.2067    2.9031    0.0000 H   0  0  0  0  0  0  0  0  0  0  0  0
    5.8626   -5.0850    0.0000 H   0  0  0  0  0  0  0  0  0  0  0  0
    5.0656   -5.0850    0.0000 H   0  0  0  0  0  0  0  0  0  0  0  0
   29.5008    5.0226    0.0000 H   0  0  0  0  0  0  0  0  0  0  0  0
   29.1022    4.3323    0.0000 H   0  0  0  0  0  0  0  0  0  0  0  0
   30.2497    3.1300    0.0000 H   0  0  0  0  0  0  0  0  0  0  0  0
    9.1742   -7.0600    0.0000 H   0  0  0  0  0  0  0  0  0  0  0  0
    9.7942   -7.6800    0.0000 H   0  0  0  0  0  0  0  0  0  0  0  0
   10.4142   -7.0600    0.0000 H   0  0  0  0  0  0  0  0  0  0  0  0
   30.7909    4.3574    0.0000 H   0  0  0  0  0  0  0  0  0  0  0  0
   31.1894    5.0477    0.0000 H   0  0  0  0  0  0  0  0  0  0  0  0
    4.1996   -6.5350    0.0000 H   0  0  0  0  0  0  0  0  0  0  0  0
    4.9966   -6.5350    0.0000 H   0  0  0  0  0  0  0  0  0  0  0  0
   28.2268    1.9400    0.0000 H   0  0  0  0  0  0  0  0  0  0  0  0
   28.8468    1.3200    0.0000 H   0  0  0  0  0  0  0  0  0  0  0  0
   29.4668    1.9400    0.0000 H   0  0  0  0  0  0  0  0  0  0  0  0
    5.7101   -7.0600    0.0000 H   0  0  0  0  0  0  0  0  0  0  0  0
    6.3301   -7.6800    0.0000 H   0  0  0  0  0  0  0  0  0  0  0  0
    6.9501   -7.0600    0.0000 H   0  0  0  0  0  0  0  0  0  0  0  0
    3.7320   -4.9400    0.0000 H   0  0  0  0  0  0  0  0  0  0  0  0
   30.0228    6.9769    0.0000 H   0  0  0  0  0  0  0  0  0  0  0  0
   29.1759    6.7500    0.0000 H   0  0  0  0  0  0  0  0  0  0  0  0
   29.4028    5.9031    0.0000 H   0  0  0  0  0  0  0  0  0  0  0  0
   31.4449    7.0600    0.0000 H   0  0  0  0  0  0  0  0  0  0  0  0
   31.9124    5.4650    0.0000 H   0  0  0  0  0  0  0  0  0  0  0  0
   32.7094    5.4650    0.0000 H   0  0  0  0  0  0  0  0  0  0  0  0
    2.3100   -5.0231    0.0000 H   0  0  0  0  0  0  0  0  0  0  0  0
    1.4631   -5.2500    0.0000 H   0  0  0  0  0  0  0  0  0  0  0  0
    1.6900   -6.0969    0.0000 H   0  0  0  0  0  0  0  0  0  0  0  0
    2.2460   -7.0600    0.0000 H   0  0  0  0  0  0  0  0  0  0  0  0
    2.8660   -7.6800    0.0000 H   0  0  0  0  0  0  0  0  0  0  0  0
    3.4860   -7.0600    0.0000 H   0  0  0  0  0  0  0  0  0  0  0  0
   33.7139    6.1300    0.0000 H   0  0  0  0  0  0  0  0  0  0  0  0
  1 54  1  0  0  0  0
  1146  1  0  0  0  0
  2  6  1  0  0  0  0
  2 12  1  0  0  0  0
  2 57  1  0  0  0  0
  2 58  1  0  0  0  0
  3  7  1  0  0  0  0
  3 10  1  0  0  0  0
  3 59  1  0  0  0  0
  3 60  1  0  0  0  0
  4  9  1  0  0  0  0
  4 13  1  0  0  0  0
  4 61  1  0  0  0  0
  4 62  1  0  0  0  0
  5  8  1  0  0  0  0
  5 16  1  0  0  0  0
  5 63  1  0  0  0  0
  5 64  1  0  0  0  0
  6 19  1  0  0  0  0
  6 65  1  0  0  0  0
  6 66  1  0  0  0  0
  7 20  1  0  0  0  0
  7 67  1  0  0  0  0
  7 68  1  0  0  0  0
  8 21  1  0  0  0  0
  8 69  1  0  0  0  0
  8 70  1  0  0  0  0
  9 23  1  0  0  0  0
  9 71  1  0  0  0  0
  9 72  1  0  0  0  0
 10 19  2  0  0  0  0
 10 33  1  0  0  0  0
 11 17  1  0  0  0  0
 11 18  1  0  0  0  0
 11 73  1  0  0  0  0
 11 74  1  0  0  0  0
 12 21  2  0  0  0  0
 12 34  1  0  0  0  0
 13 20  2  0  0  0  0
 13 35  1  0  0  0  0
 14 15  1  0  0  0  0
 14 22  1  0  0  0  0
 14 75  1  0  0  0  0
 14 76  1  0  0  0  0
 15 24  1  0  0  0  0
 15 77  1  0  0  0  0
 15 78  1  0  0  0  0
 16 24  2  0  0  0  0
 16 36  1  0  0  0  0
 17 29  1  0  0  0  0
 17 79  1  0  0  0  0
 17 80  1  0  0  0  0
 18 23  2  0  0  0  0
 18 37  1  0  0  0  0
 19 81  1  0  0  0  0
 20 82  1  0  0  0  0
 21 83  1  0  0  0  0
 22 31  2  0  0  0  0
 22 40  1  0  0  0  0
 23 84  1  0  0  0  0
 24 85  1  0  0  0  0
 25 27  1  0  0  0  0
 25 30  1  0  0  0  0
 25 86  1  0  0  0  0
 25 87  1  0  0  0  0
 26 28  1  0  0  0  0
 26 31  1  0  0  0  0
 26 88  1  0  0  0  0
 26 89  1  0  0  0  0
 27 29  2  0  0  0  0
 27 44  1  0  0  0  0
 28 32  1  0  0  0  0
 28 90  1  0  0  0  0
 28 91  1  0  0  0  0
 29 92  1  0  0  0  0
 30 38  1  0  0  0  0
 30 93  1  0  0  0  0
 30 94  1  0  0  0  0
 31 95  1  0  0  0  0
 32 43  2  0  0  0  0
 32 47  1  0  0  0  0
 33 96  1  0  0  0  0
 33 97  1  0  0  0  0
 33 98  1  0  0  0  0
 34 99  1  0  0  0  0
 34100  1  0  0  0  0
 34101  1  0  0  0  0
 35102  1  0  0  0  0
 35103  1  0  0  0  0
 35104  1  0  0  0  0
 36105  1  0  0  0  0
 36106  1  0  0  0  0
 36107  1  0  0  0  0
 37108  1  0  0  0  0
 37109  1  0  0  0  0
 37110  1  0  0  0  0
 38 39  2  0  0  0  0
 38111  1  0  0  0  0
 39 41  1  0  0  0  0
 39 48  1  0  0  0  0
 40112  1  0  0  0  0
 40113  1  0  0  0  0
 40114  1  0  0  0  0
 41 46  1  0  0  0  0
 41115  1  0  0  0  0
 41116  1  0  0  0  0
 42 43  1  0  0  0  0
 42 45  1  0  0  0  0
 42117  1  0  0  0  0
 42118  1  0  0  0  0
 43119  1  0  0  0  0
 44120  1  0  0  0  0
 44121  1  0  0  0  0
 44122  1  0  0  0  0
 45 49  1  0  0  0  0
 45123  1  0  0  0  0
 45124  1  0  0  0  0
 46 50  1  0  0  0  0
 46125  1  0  0  0  0
 46126  1  0  0  0  0
 47127  1  0  0  0  0
 47128  1  0  0  0  0
 47129  1  0  0  0  0
 48130  1  0  0  0  0
 48131  1  0  0  0  0
 48132  1  0  0  0  0
 49 51  1  0  0  0  0
 49 53  2  0  0  0  0
 50 52  2  0  0  0  0
 50133  1  0  0  0  0
 51134  1  0  0  0  0
 51135  1  0  0  0  0
 51136  1  0  0  0  0
 52 55  1  0  0  0  0
 52 56  1  0  0  0  0
 53 54  1  0  0  0  0
 53137  1  0  0  0  0
 54138  1  0  0  0  0
 54139  1  0  0  0  0
 55140  1  0  0  0  0
 55141  1  0  0  0  0
 55142  1  0  0  0  0
 56143  1  0  0  0  0
 56144  1  0  0  0  0
 56145  1  0  0  0  0
M  END
> <PUBCHEM_COMPOUND_CID>
9547192

> <PUBCHEM_COMPOUND_CANONICALIZED>
1

> <PUBCHEM_CACTVS_COMPLEXITY>
1410

> <PUBCHEM_CACTVS_HBOND_ACCEPTOR>
1

> <PUBCHEM_CACTVS_HBOND_DONOR>
1

> <PUBCHEM_CACTVS_ROTATABLE_BOND>
31

> <PUBCHEM_CACTVS_SUBSKEYS>
AAADcfB8IAAAAAAAAAAAAAAAAAAAAAAAAAAAAAAAAAAAAAAAAAAAGgAACAAADACggAICAAAAAgCAAiBCAAAAAAAgAAAACAAAAAgAFAIAAQAAEAAAgAAIEAIAAAAAAAAAAAAAAAAAAAAAAAAAAAAAAAAAAA==

> <PUBCHEM_IUPAC_OPENEYE_NAME>
(2Z,6Z,10Z,14Z,18Z,22Z,26Z,30Z,34E,38E)-3,7,11,15,19,23,27,31,35,39,43-undecamethyltetratetraconta-2,6,10,14,18,22,26,30,34,38,42-undecaen-1-ol

> <PUBCHEM_IUPAC_CAS_NAME>
(2Z,6Z,10Z,14Z,18Z,22Z,26Z,30Z,34E,38E)-3,7,11,15,19,23,27,31,35,39,43-undecamethyl-1-tetratetraconta-2,6,10,14,18,22,26,30,34,38,42-undecaenol

> <PUBCHEM_IUPAC_NAME>
(2Z,6Z,10Z,14Z,18Z,22Z,26Z,30Z,34E,38E)-3,7,11,15,19,23,27,31,35,39,43-undecamethyltetratetraconta-2,6,10,14,18,22,26,30,34,38,42-undecaen-1-ol

> <PUBCHEM_IUPAC_SYSTEMATIC_NAME>
(2Z,6Z,10Z,14Z,18Z,22Z,26Z,30Z,34E,38E)-3,7,11,15,19,23,27,31,35,39,43-undecamethyltetratetraconta-2,6,10,14,18,22,26,30,34,38,42-undecaen-1-ol

> <PUBCHEM_IUPAC_TRADITIONAL_NAME>
(2Z,6Z,10Z,14Z,18Z,22Z,26Z,30Z,34E,38E)-3,7,11,15,19,23,27,31,35,39,43-undecamethyltetratetraconta-2,6,10,14,18,22,26,30,34,38,42-undecaen-1-ol

> <PUBCHEM_IUPAC_INCHI>
InChI=1S/C55H90O/c1-45(2)23-13-24-46(3)25-14-26-47(4)27-15-28-48(5)29-16-30-49(6)31-17-32-50(7)33-18-34-51(8)35-19-36-52(9)37-20-38-53(10)39-21-40-54(11)41-22-42-55(12)43-44-56/h23,25,27,29,31,33,35,37,39,41,43,56H,13-22,24,26,28,30,32,34,36,38,40,42,44H2,1-12H3/b46-25+,47-27+,48-29-,49-31-,50-33-,51-35-,52-37-,53-39-,54-41-,55-43-

> <PUBCHEM_IUPAC_INCHIKEY>
TXKJNHBRVLCYFX-NTDVEAECSA-N

> <PUBCHEM_XLOGP3_AA>
19.6

> <PUBCHEM_EXACT_MASS>
766.699168

> <PUBCHEM_MOLECULAR_FORMULA>
C55H90O

> <PUBCHEM_MOLECULAR_WEIGHT>
767.3025

> <PUBCHEM_OPENEYE_CAN_SMILES>
CC(=CCCC(=CCCC(=CCCC(=CCCC(=CCCC(=CCCC(=CCCC(=CCCC(=CCCC(=CCCC(=CCO)C)C)C)C)C)C)C)C)C)C)C

> <PUBCHEM_OPENEYE_ISO_SMILES>
CC(=CCC/C(=C/CC/C(=C/CC/C(=C\CC/C(=C\CC/C(=C\CC/C(=C\CC/C(=C\CC/C(=C\CC/C(=C\CC/C(=C\CO)/C)/C)/C)/C)/C)/C)/C)/C)/C)/C)C

> <PUBCHEM_CACTVS_TPSA>
20.2

> <PUBCHEM_MONOISOTOPIC_WEIGHT>
766.699168

> <PUBCHEM_TOTAL_CHARGE>
0

> <PUBCHEM_HEAVY_ATOM_COUNT>
56

> <PUBCHEM_ATOM_DEF_STEREO_COUNT>
0

> <PUBCHEM_ATOM_UDEF_STEREO_COUNT>
0

> <PUBCHEM_BOND_DEF_STEREO_COUNT>
10

> <PUBCHEM_BOND_UDEF_STEREO_COUNT>
0

> <PUBCHEM_ISOTOPIC_ATOM_COUNT>
0

> <PUBCHEM_COMPONENT_COUNT>
1

> <PUBCHEM_CACTVS_TAUTO_COUNT>
1

> <PUBCHEM_COORDINATE_TYPE>
1
5
255

$$$$

