9849
  -OEChem-06261204073D

 23 22  0     0  0  0  0  0  0999 V2000
    2.9385    1.2609   -0.3426 F   0  0  0  0  0  0  0  0  0  0  0  0
    3.8898   -0.6712   -0.0362 F   0  0  0  0  0  0  0  0  0  0  0  0
   -0.9725   -0.4944   -0.1735 C   0  0  0  0  0  0  0  0  0  0  0  0
    0.3095    0.2072    0.2808 C   0  0  0  0  0  0  0  0  0  0  0  0
   -2.2474    0.2726    0.1889 C   0  0  0  0  0  0  0  0  0  0  0  0
    1.5465   -0.6168   -0.0764 C   0  0  0  0  0  0  0  0  0  0  0  0
   -3.5294   -0.4404   -0.2432 C   0  0  0  0  0  0  0  0  0  0  0  0
    2.8262    0.0880    0.3284 C   0  0  0  0  0  0  0  0  0  0  0  0
   -4.7612    0.3940    0.0738 C   0  0  0  0  0  0  0  0  0  0  0  0
   -0.9395   -0.6416   -1.2602 H   0  0  0  0  0  0  0  0  0  0  0  0
   -1.0174   -1.4926    0.2797 H   0  0  0  0  0  0  0  0  0  0  0  0
    0.3699    1.1949   -0.1917 H   0  0  0  0  0  0  0  0  0  0  0  0
    0.2761    0.3685    1.3650 H   0  0  0  0  0  0  0  0  0  0  0  0
   -2.2738    0.4355    1.2736 H   0  0  0  0  0  0  0  0  0  0  0  0
   -2.2087    1.2645   -0.2785 H   0  0  0  0  0  0  0  0  0  0  0  0
    1.5049   -1.6007    0.4047 H   0  0  0  0  0  0  0  0  0  0  0  0
    1.5686   -0.7952   -1.1581 H   0  0  0  0  0  0  0  0  0  0  0  0
   -3.4981   -0.6395   -1.3206 H   0  0  0  0  0  0  0  0  0  0  0  0
   -3.6045   -1.4088    0.2645 H   0  0  0  0  0  0  0  0  0  0  0  0
    2.8823    0.2842    1.4028 H   0  0  0  0  0  0  0  0  0  0  0  0
   -4.7296    1.3552   -0.4490 H   0  0  0  0  0  0  0  0  0  0  0  0
   -4.8367    0.5890    1.1484 H   0  0  0  0  0  0  0  0  0  0  0  0
   -5.6671   -0.1337   -0.2404 H   0  0  0  0  0  0  0  0  0  0  0  0
  1  8  1  0  0  0  0
  2  8  1  0  0  0  0
  3  4  1  0  0  0  0
  3  5  1  0  0  0  0
  3 10  1  0  0  0  0
  3 11  1  0  0  0  0
  4  6  1  0  0  0  0
  4 12  1  0  0  0  0
  4 13  1  0  0  0  0
  5  7  1  0  0  0  0
  5 14  1  0  0  0  0
  5 15  1  0  0  0  0
  6  8  1  0  0  0  0
  6 16  1  0  0  0  0
  6 17  1  0  0  0  0
  7  9  1  0  0  0  0
  7 18  1  0  0  0  0
  7 19  1  0  0  0  0
  8 20  1  0  0  0  0
  9 21  1  0  0  0  0
  9 22  1  0  0  0  0
  9 23  1  0  0  0  0
M  END
> <PUBCHEM_COMPOUND_CID>
9849

> <PUBCHEM_CONFORMER_RMSD>
0.6

> <PUBCHEM_CONFORMER_DIVERSEORDER>
1
68
67
44
54
2
15
53
50
73
32
31
30
71
46
21
16
77
29
8
41
43
10
17
14
55
62
76
24
59
19
22
35
63
70
7
74
36
64
11
69
6
42
33
58
12
66
60
27
57
51
61
9
45
37
28
72
3
49
5
75
47
56
40
39
65
18
25
38
52
13
26
48
23
4
20
34

> <PUBCHEM_MMFF94_PARTIAL_CHARGES>
3
1 -0.34
2 -0.34
8 0.68

> <PUBCHEM_EFFECTIVE_ROTOR_COUNT>
5

> <PUBCHEM_PHARMACOPHORE_FEATURES>
2
1 9 hydrophobe
5 3 4 5 6 7 hydrophobe

> <PUBCHEM_HEAVY_ATOM_COUNT>
9

> <PUBCHEM_ATOM_DEF_STEREO_COUNT>
0

> <PUBCHEM_ATOM_UDEF_STEREO_COUNT>
0

> <PUBCHEM_BOND_DEF_STEREO_COUNT>
0

> <PUBCHEM_BOND_UDEF_STEREO_COUNT>
0

> <PUBCHEM_ISOTOPIC_ATOM_COUNT>
0

> <PUBCHEM_COMPONENT_COUNT>
1

> <PUBCHEM_CACTVS_TAUTO_COUNT>
1

> <PUBCHEM_CONFORMER_ID>
0000267900000001

> <PUBCHEM_MMFF94_ENERGY>
-0.9159

> <PUBCHEM_FEATURE_SELFOVERLAP>
10.149

> <PUBCHEM_SHAPE_FINGERPRINT>
11062470 55 18342176670060468475
12932764 1 16988577778866145691
14325111 11 18410293597081184147
17834076 25 16343702149181524663
190213 19 17894630353057161523
20645477 70 18263364844760530703
20719005 15 18409730660244727827
21119208 17 18333731329505178751
22485316 2 8358257034236035117
23402539 116 17531256079645949037

> <PUBCHEM_SHAPE_MULTIPOLES>
170.67
8.58
0.88
0.64
3.34
0.08
-0.01
0.61
0.16
-0.33
0.06
0.02
0.02
-0.18

> <PUBCHEM_SHAPE_SELFOVERLAP>
303.31

> <PUBCHEM_SHAPE_VOLUME>
111.6

> <PUBCHEM_COORDINATE_TYPE>
2
5
10

$$$$

