91758
  -OEChem-07051213113D

 34 34  0     1  0  0  0  0  0999 V2000
    1.5594    0.9057    0.2733 S   0  0  0  0  0  0  0  0  0  0  0  0
   -3.4562    1.6839    0.9891 S   0  0  0  0  0  0  0  0  0  0  0  0
   -0.0083   -0.1787   -0.6178 P   0  0  2  0  0  0  0  0  0  0  0  0
   -0.1420   -1.6453    0.0724 O   0  0  0  0  0  0  0  0  0  0  0  0
    0.2479   -0.3065   -2.0982 O   0  0  0  0  0  0  0  0  0  0  0  0
   -1.3528    0.5006    2.0461 O   0  0  0  0  0  0  0  0  0  0  0  0
   -1.4944    0.6130   -0.2899 N   0  0  0  0  0  0  0  0  0  0  0  0
   -2.3191    1.2171   -1.3153 C   0  0  0  0  0  0  0  0  0  0  0  0
    3.0603   -0.0090   -0.1321 C   0  0  1  0  0  0  0  0  0  0  0  0
   -3.7247    1.3536   -0.7712 C   0  0  0  0  0  0  0  0  0  0  0  0
    4.3199    0.6938    0.3955 C   0  0  0  0  0  0  0  0  0  0  0  0
   -1.9148    0.8295    1.0121 C   0  0  0  0  0  0  0  0  0  0  0  0
    2.9438   -1.4184    0.4438 C   0  0  0  0  0  0  0  0  0  0  0  0
    4.5087    2.1073   -0.1416 C   0  0  0  0  0  0  0  0  0  0  0  0
   -1.1691   -2.5333   -0.3332 C   0  0  0  0  0  0  0  0  0  0  0  0
   -1.0586   -3.8135    0.4670 C   0  0  0  0  0  0  0  0  0  0  0  0
   -2.3029    0.5975   -2.2167 H   0  0  0  0  0  0  0  0  0  0  0  0
   -1.8854    2.1947   -1.5557 H   0  0  0  0  0  0  0  0  0  0  0  0
    3.1305   -0.0793   -1.2236 H   0  0  0  0  0  0  0  0  0  0  0  0
   -4.2889    2.1513   -1.2607 H   0  0  0  0  0  0  0  0  0  0  0  0
   -4.2747    0.4121   -0.8680 H   0  0  0  0  0  0  0  0  0  0  0  0
    4.3115    0.7250    1.4926 H   0  0  0  0  0  0  0  0  0  0  0  0
    5.1990    0.1016    0.1110 H   0  0  0  0  0  0  0  0  0  0  0  0
    3.9034   -1.9417    0.3560 H   0  0  0  0  0  0  0  0  0  0  0  0
    2.2251   -2.0253   -0.1114 H   0  0  0  0  0  0  0  0  0  0  0  0
    2.6722   -1.4182    1.5053 H   0  0  0  0  0  0  0  0  0  0  0  0
    4.4668    2.1214   -1.2354 H   0  0  0  0  0  0  0  0  0  0  0  0
    3.7565    2.8002    0.2462 H   0  0  0  0  0  0  0  0  0  0  0  0
    5.4888    2.4910    0.1613 H   0  0  0  0  0  0  0  0  0  0  0  0
   -2.1448   -2.0689   -0.1628 H   0  0  0  0  0  0  0  0  0  0  0  0
   -1.0607   -2.7433   -1.4016 H   0  0  0  0  0  0  0  0  0  0  0  0
   -1.8367   -4.5246    0.1763 H   0  0  0  0  0  0  0  0  0  0  0  0
   -0.0791   -4.2791    0.3157 H   0  0  0  0  0  0  0  0  0  0  0  0
   -1.1505   -3.6070    1.5384 H   0  0  0  0  0  0  0  0  0  0  0  0
  1  3  1  0  0  0  0
  1  9  1  0  0  0  0
  2 10  1  0  0  0  0
  2 12  1  0  0  0  0
  3  4  1  0  0  0  0
  3  5  2  0  0  0  0
  3  7  1  0  0  0  0
  4 15  1  0  0  0  0
  6 12  2  0  0  0  0
  7  8  1  0  0  0  0
  7 12  1  0  0  0  0
  8 10  1  0  0  0  0
  8 17  1  0  0  0  0
  8 18  1  0  0  0  0
  9 11  1  0  0  0  0
  9 13  1  0  0  0  0
  9 19  1  0  0  0  0
 10 20  1  0  0  0  0
 10 21  1  0  0  0  0
 11 14  1  0  0  0  0
 11 22  1  0  0  0  0
 11 23  1  0  0  0  0
 13 24  1  0  0  0  0
 13 25  1  0  0  0  0
 13 26  1  0  0  0  0
 14 27  1  0  0  0  0
 14 28  1  0  0  0  0
 14 29  1  0  0  0  0
 15 16  1  0  0  0  0
 15 30  1  0  0  0  0
 15 31  1  0  0  0  0
 16 32  1  0  0  0  0
 16 33  1  0  0  0  0
 16 34  1  0  0  0  0
M  END
> <PUBCHEM_COMPOUND_CID>
91758

> <PUBCHEM_CONFORMER_RMSD>
0.8

> <PUBCHEM_CONFORMER_DIVERSEORDER>
1
21
88
145
157
89
79
73
189
149
33
153
156
57
120
44
143
64
139
110
106
178
127
85
151
116
123
155
137
74
160
185
45
118
4
109
61
154
174
136
164
112
77
87
76
170
101
147
32
146
96
62
133
42
58
65
34
78
81
36
173
69
99
165
131
49
130
59
35
166
67
141
152
168
191
138
30
55
25
10
102
135
39
148
82
84
159
37
52
12
56
104
43
93
9
75
71
31
19
100
98
48
184
119
95
5
172
50
3
125
70
68
171
128
181
27
134
114
140
142
182
117
40
177
41
105
179
161
26
158
13
108
122
72
91
86
163
190
167
20
132
54
53
129
38
17
103
186
180
90
63
92
2
60
94
8
121
150
16
162
111
51
47
97
24
126
144
28
15
29
23
187
46
175
115
66
183
124
6
18
113
7
11
22
192
80
107
176
14
83
188
169

> <PUBCHEM_MMFF94_PARTIAL_CHARGES>
12
1 -0.48
10 0.23
12 0.77
15 0.28
2 -0.37
3 1.48
4 -0.55
5 -0.7
6 -0.57
7 -0.62
8 0.3
9 0.23

> <PUBCHEM_EFFECTIVE_ROTOR_COUNT>
6.8

> <PUBCHEM_PHARMACOPHORE_FEATURES>
3
1 13 hydrophobe
1 14 hydrophobe
5 2 7 8 10 12 rings

> <PUBCHEM_HEAVY_ATOM_COUNT>
16

> <PUBCHEM_ATOM_DEF_STEREO_COUNT>
0

> <PUBCHEM_ATOM_UDEF_STEREO_COUNT>
2

> <PUBCHEM_BOND_DEF_STEREO_COUNT>
0

> <PUBCHEM_BOND_UDEF_STEREO_COUNT>
0

> <PUBCHEM_ISOTOPIC_ATOM_COUNT>
0

> <PUBCHEM_COMPONENT_COUNT>
1

> <PUBCHEM_CACTVS_TAUTO_COUNT>
1

> <PUBCHEM_CONFORMER_ID>
0001666E00000001

> <PUBCHEM_MMFF94_ENERGY>
8.5648

> <PUBCHEM_FEATURE_SELFOVERLAP>
15.223

> <PUBCHEM_SHAPE_FINGERPRINT>
11725454 13 16915127206986154357
12119455 92 18130797814162033757
12500047 106 18411707560602818608
12592029 89 18197224865310579067
12788726 201 17971776396598852654
14178342 30 18268728116831053616
14787075 74 18186809050158714823
15309172 13 18341331196731171793
15775835 57 18114184172028736896
16945 1 17240777206373181069
1741750 31 18334861593494342144
18186145 218 18262799695709494020
19765921 60 17896319289012099977
204376 136 18411418444689312821
20645476 183 18334863800770181924
21524375 3 18041568051689776045
23419403 2 6011684119952255703
23557571 272 18189606147546951004
283562 15 17980204089286308722
474 4 18041837453550405784
633830 44 18042680783306237981
68419 9 17627479689110588062
81228 2 18125168134360740899

> <PUBCHEM_SHAPE_MULTIPOLES>
318.23
7.24
3.11
1.39
6.13
3.97
0.07
-5.74
-0.56
-1.07
-0.38
-0.95
-0.3
-0.15

> <PUBCHEM_SHAPE_SELFOVERLAP>
572.376

> <PUBCHEM_SHAPE_VOLUME>
207.2

> <PUBCHEM_COORDINATE_TYPE>
2
5
10

$$$$

