440970
  -OEChem-07051212513D

 29 29  0     1  0  0  0  0  0999 V2000
   -3.7039    0.1103   -0.0117 P   0  0  0  0  0  0  0  0  0  0  0  0
    1.2205    1.0648    0.2600 O   0  0  0  0  0  0  0  0  0  0  0  0
    2.7724   -2.1931    0.1266 O   0  0  0  0  0  0  0  0  0  0  0  0
    0.2501   -1.6381   -0.8353 O   0  0  0  0  0  0  0  0  0  0  0  0
    2.4577    0.0304   -1.4502 O   0  0  0  0  0  0  0  0  0  0  0  0
   -2.2089   -0.1575    0.5476 O   0  0  0  0  0  0  0  0  0  0  0  0
    3.8228    2.1118   -0.2433 O   0  0  0  0  0  0  0  0  0  0  0  0
   -3.5248    0.0764   -1.6185 O   0  0  0  0  0  0  0  0  0  0  0  0
   -3.9306    1.6800    0.3042 O   0  0  0  0  0  0  0  0  0  0  0  0
   -4.7594   -0.8053    0.5358 O   0  0  0  0  0  0  0  0  0  0  0  0
    2.0648   -1.0934    0.6565 C   0  0  2  0  0  0  0  0  0  0  0  0
    0.5632   -1.2173    0.4867 C   0  0  1  0  0  0  0  0  0  0  0  0
    2.3597    0.2341   -0.0410 C   0  0  2  0  0  0  0  0  0  0  0  0
    0.1406    0.2293    0.7375 C   0  0  2  0  0  0  0  0  0  0  0  0
   -1.1543    0.6665    0.0780 C   0  0  0  0  0  0  0  0  0  0  0  0
    3.6301    0.9010    0.4671 C   0  0  0  0  0  0  0  0  0  0  0  0
    2.2950   -1.0125    1.7271 H   0  0  0  0  0  0  0  0  0  0  0  0
    0.1143   -1.9301    1.1851 H   0  0  0  0  0  0  0  0  0  0  0  0
    0.0752    0.3931    1.8208 H   0  0  0  0  0  0  0  0  0  0  0  0
   -1.0790    0.6104   -1.0133 H   0  0  0  0  0  0  0  0  0  0  0  0
   -1.3584    1.7129    0.3303 H   0  0  0  0  0  0  0  0  0  0  0  0
    4.5096    0.2704    0.3028 H   0  0  0  0  0  0  0  0  0  0  0  0
    3.5565    1.1473    1.5306 H   0  0  0  0  0  0  0  0  0  0  0  0
    2.4372   -2.9946    0.5633 H   0  0  0  0  0  0  0  0  0  0  0  0
   -0.7136   -1.7574   -0.8835 H   0  0  0  0  0  0  0  0  0  0  0  0
    1.9453   -0.7587   -1.6911 H   0  0  0  0  0  0  0  0  0  0  0  0
    3.8822    1.8915   -1.1887 H   0  0  0  0  0  0  0  0  0  0  0  0
   -4.3211    0.1499   -2.1864 H   0  0  0  0  0  0  0  0  0  0  0  0
   -4.8133    2.0747    0.1390 H   0  0  0  0  0  0  0  0  0  0  0  0
  1  6  1  0  0  0  0
  1  8  1  0  0  0  0
  1  9  1  0  0  0  0
  1 10  2  0  0  0  0
  2 13  1  0  0  0  0
  2 14  1  0  0  0  0
  3 11  1  0  0  0  0
  3 24  1  0  0  0  0
  4 12  1  0  0  0  0
  4 25  1  0  0  0  0
  5 13  1  0  0  0  0
  5 26  1  0  0  0  0
  6 15  1  0  0  0  0
  7 16  1  0  0  0  0
  7 27  1  0  0  0  0
  8 28  1  0  0  0  0
  9 29  1  0  0  0  0
 11 12  1  0  0  0  0
 11 13  1  0  0  0  0
 11 17  1  0  0  0  0
 12 14  1  0  0  0  0
 12 18  1  0  0  0  0
 13 16  1  0  0  0  0
 14 15  1  0  0  0  0
 14 19  1  0  0  0  0
 15 20  1  0  0  0  0
 15 21  1  0  0  0  0
 16 22  1  0  0  0  0
 16 23  1  0  0  0  0
M  END
> <PUBCHEM_COMPOUND_CID>
440970

> <PUBCHEM_CONFORMER_RMSD>
0.6

> <PUBCHEM_CONFORMER_DIVERSEORDER>
2
43
32
22
49
39
45
33
9
15
10
50
42
48
28
13
41
46
29
3
47
7
25
51
44
38
24
8
27
34
37
14
31
40
12
23
17
36
19
4
5
26
6
20
1
35
16
21
18
30
11

> <PUBCHEM_MMFF94_PARTIAL_CHARGES>
22
1 1.51
10 -0.7
11 0.28
12 0.28
13 0.56
14 0.28
15 0.28
16 0.28
2 -0.56
24 0.4
25 0.4
26 0.4
27 0.4
28 0.5
29 0.5
3 -0.68
4 -0.68
5 -0.68
6 -0.55
7 -0.68
8 -0.77
9 -0.77

> <PUBCHEM_EFFECTIVE_ROTOR_COUNT>
5

> <PUBCHEM_PHARMACOPHORE_FEATURES>
14
1 10 acceptor
1 2 acceptor
1 3 acceptor
1 3 donor
1 4 acceptor
1 4 donor
1 5 acceptor
1 5 donor
1 7 acceptor
1 7 donor
1 8 acceptor
1 9 acceptor
4 1 8 9 10 anion
5 2 11 12 13 14 rings

> <PUBCHEM_HEAVY_ATOM_COUNT>
16

> <PUBCHEM_ATOM_DEF_STEREO_COUNT>
3

> <PUBCHEM_ATOM_UDEF_STEREO_COUNT>
1

> <PUBCHEM_BOND_DEF_STEREO_COUNT>
0

> <PUBCHEM_BOND_UDEF_STEREO_COUNT>
0

> <PUBCHEM_ISOTOPIC_ATOM_COUNT>
0

> <PUBCHEM_COMPONENT_COUNT>
1

> <PUBCHEM_CACTVS_TAUTO_COUNT>
1

> <PUBCHEM_CONFORMER_ID>
0006BA8A00000002

> <PUBCHEM_MMFF94_ENERGY>
8.1444

> <PUBCHEM_FEATURE_SELFOVERLAP>
71.158

> <PUBCHEM_SHAPE_FINGERPRINT>
11543360 7 15864350186444565896
124424 183 8790892878276127707
12932764 1 17458356238458325937
13296908 3 18272651285740324403
14144814 61 18409167740340195161
14325111 11 18410293631446126033
14415576 193 18336825393912282945
14897335 6 18410859824210742506
15219456 202 18130793386245761407
15775835 57 18408605837910387982
16945 1 18341881979448289248
18186145 218 17632013164836209843
19422 9 18334294314161242923
20645477 70 18410293657084483067
21499 59 18411422765268098620
23402539 116 17967538969417046744
23402655 69 18260551147307494377
23557571 272 17275106150242439461
449060 62 18410008827869910384
4990 188 17895182312395033436
5104073 3 18341048609880191449
633830 44 18261670458581258069
7364860 26 18336546109949220042
77779 3 18411416246051159849
81539 233 18202003201184598322

> <PUBCHEM_SHAPE_MULTIPOLES>
280.3
8.05
1.73
0.99
6.89
0.14
-0.34
-2.03
-0.22
-1.36
0.03
0.19
0.06
-0.09

> <PUBCHEM_SHAPE_SELFOVERLAP>
551.481

> <PUBCHEM_SHAPE_VOLUME>
169.4

> <PUBCHEM_COORDINATE_TYPE>
2
5
10

$$$$

