62103
  -OEChem-07051213143D

 22 22  0     0  0  0  0  0  0999 V2000
    2.3321    1.0188   -0.4135 O   0  0  0  0  0  0  0  0  0  0  0  0
    2.7832   -0.8835    0.8264 O   0  0  0  0  0  0  0  0  0  0  0  0
   -3.5971    1.1835    0.6330 O   0  0  0  0  0  0  0  0  0  0  0  0
   -1.7632    0.3506    0.0930 N   0  0  0  0  0  0  0  0  0  0  0  0
   -2.5945    1.3522   -0.0679 N   0  0  0  0  0  0  0  0  0  0  0  0
   -2.0993   -0.8601   -0.6687 C   0  0  0  0  0  0  0  0  0  0  0  0
   -1.2428   -2.0513   -0.2102 C   0  0  0  0  0  0  0  0  0  0  0  0
   -0.3517    0.7356   -0.0876 C   0  0  0  0  0  0  0  0  0  0  0  0
    0.6011   -0.4209    0.0253 C   0  0  0  0  0  0  0  0  0  0  0  0
    0.2019   -1.6990   -0.0133 C   0  0  0  0  0  0  0  0  0  0  0  0
    2.0280   -0.1491    0.2079 C   0  0  0  0  0  0  0  0  0  0  0  0
    3.7022    1.4231   -0.3243 C   0  0  0  0  0  0  0  0  0  0  0  0
   -1.9502   -0.6892   -1.7445 H   0  0  0  0  0  0  0  0  0  0  0  0
   -3.1538   -1.1369   -0.5357 H   0  0  0  0  0  0  0  0  0  0  0  0
   -1.3216   -2.8521   -0.9543 H   0  0  0  0  0  0  0  0  0  0  0  0
   -1.6322   -2.4469    0.7357 H   0  0  0  0  0  0  0  0  0  0  0  0
   -0.0928    1.4800    0.6780 H   0  0  0  0  0  0  0  0  0  0  0  0
   -0.2110    1.2074   -1.0708 H   0  0  0  0  0  0  0  0  0  0  0  0
    0.9038   -2.5210    0.0911 H   0  0  0  0  0  0  0  0  0  0  0  0
    3.9840    1.5772    0.7217 H   0  0  0  0  0  0  0  0  0  0  0  0
    3.8132    2.3691   -0.8609 H   0  0  0  0  0  0  0  0  0  0  0  0
    4.3489    0.6751   -0.7928 H   0  0  0  0  0  0  0  0  0  0  0  0
  1 11  1  0  0  0  0
  1 12  1  0  0  0  0
  2 11  2  0  0  0  0
  3  5  2  0  0  0  0
  4  5  1  0  0  0  0
  4  6  1  0  0  0  0
  4  8  1  0  0  0  0
  6  7  1  0  0  0  0
  6 13  1  0  0  0  0
  6 14  1  0  0  0  0
  7 10  1  0  0  0  0
  7 15  1  0  0  0  0
  7 16  1  0  0  0  0
  8  9  1  0  0  0  0
  8 17  1  0  0  0  0
  8 18  1  0  0  0  0
  9 10  2  0  0  0  0
  9 11  1  0  0  0  0
 10 19  1  0  0  0  0
 12 20  1  0  0  0  0
 12 21  1  0  0  0  0
 12 22  1  0  0  0  0
M  END
> <PUBCHEM_COMPOUND_CID>
62103

> <PUBCHEM_CONFORMER_RMSD>
0.6

> <PUBCHEM_CONFORMER_DIVERSEORDER>
1
18
10
8
15
6
3
9
17
12
16
5
11
4
2
20
7
13
19
21
14

> <PUBCHEM_MMFF94_PARTIAL_CHARGES>
13
1 -0.43
10 -0.29
11 0.71
12 0.28
19 0.15
2 -0.57
3 -0.16
4 -0.36
5 -0.01
6 0.27
7 0.14
8 0.41
9 -0.12

> <PUBCHEM_EFFECTIVE_ROTOR_COUNT>
3.8

> <PUBCHEM_PHARMACOPHORE_FEATURES>
2
1 2 acceptor
6 4 6 7 8 9 10 rings

> <PUBCHEM_HEAVY_ATOM_COUNT>
12

> <PUBCHEM_ATOM_DEF_STEREO_COUNT>
0

> <PUBCHEM_ATOM_UDEF_STEREO_COUNT>
0

> <PUBCHEM_BOND_DEF_STEREO_COUNT>
0

> <PUBCHEM_BOND_UDEF_STEREO_COUNT>
0

> <PUBCHEM_ISOTOPIC_ATOM_COUNT>
0

> <PUBCHEM_COMPONENT_COUNT>
1

> <PUBCHEM_CACTVS_TAUTO_COUNT>
1

> <PUBCHEM_CONFORMER_ID>
0000F29700000001

> <PUBCHEM_MMFF94_ENERGY>
22.3163

> <PUBCHEM_FEATURE_SELFOVERLAP>
10.148

> <PUBCHEM_SHAPE_FINGERPRINT>
12491281 212 18341610378406245664
12932764 1 17417820568778022750
13380535 21 18340760473282609598
13380535 76 18335707186555813063
14325111 11 18410856563955881876
14897335 6 18411424990266918724
15775835 57 18413103953023056300
16945 1 18198633322114479614
1741750 31 18333731286793032248
20653085 51 18336818762445900202
20711983 171 18334013874007815644
20871998 184 18116145567744787015
21040471 1 18335707164722111407
21501502 16 18410299086091787870
21524375 3 18335146439878169623
23552423 10 18342185470369927850
23559900 14 18113614574494362172
3248919 1 18337687342467270718
6333449 129 18335985246685032436
8030462 33 18265908964242686814

> <PUBCHEM_SHAPE_MULTIPOLES>
219.38
5.32
1.91
0.72
1.86
0.4
0
-2.9
-0.17
-0.71
0.01
0.03
0.03
-0.72

> <PUBCHEM_SHAPE_SELFOVERLAP>
441.816

> <PUBCHEM_SHAPE_VOLUME>
128.7

> <PUBCHEM_COORDINATE_TYPE>
2
5
10

$$$$

