13481
  -OEChem-06261214402D

 45 45  0     1  0  0  0  0  0999 V2000
    3.0000    0.5950    0.0000 S   0  0  0  0  0  0  0  0  0  0  0  0
    9.9282    1.5950    0.0000 O   0  0  0  0  0  0  0  0  0  0  0  0
    9.0622    3.0950    0.0000 O   0  0  0  0  0  0  0  0  0  0  0  0
    4.0000    0.5950    0.0000 O   0  0  0  0  0  0  0  0  0  0  0  0
    2.0000    0.5950    0.0000 O   0  0  0  0  0  0  0  0  0  0  0  0
    8.1962    0.5950    0.0000 N   0  0  0  0  0  0  0  0  0  0  0  0
    4.7320    1.5950    0.0000 N   0  0  0  0  0  0  0  0  0  0  0  0
    3.0000    1.5950    0.0000 N   0  0  0  0  0  0  0  0  0  0  0  0
    3.8660    3.0950    0.0000 N   0  0  0  0  0  0  0  0  0  0  0  0
    7.3301    2.0950    0.0000 C   0  0  0  0  0  0  0  0  0  0  0  0
    6.4641    1.5950    0.0000 C   0  0  0  0  0  0  0  0  0  0  0  0
    8.1962    1.5950    0.0000 C   0  0  3  0  0  0  0  0  0  0  0  0
    5.5981    2.0950    0.0000 C   0  0  0  0  0  0  0  0  0  0  0  0
    9.0622    2.0950    0.0000 C   0  0  0  0  0  0  0  0  0  0  0  0
    3.0000   -0.4050    0.0000 C   0  0  0  0  0  0  0  0  0  0  0  0
    3.8660    2.0950    0.0000 C   0  0  0  0  0  0  0  0  0  0  0  0
    2.1340   -0.9050    0.0000 C   0  0  0  0  0  0  0  0  0  0  0  0
    3.8660   -0.9050    0.0000 C   0  0  0  0  0  0  0  0  0  0  0  0
    3.0000   -2.4050    0.0000 C   0  0  0  0  0  0  0  0  0  0  0  0
    2.1340   -1.9050    0.0000 C   0  0  0  0  0  0  0  0  0  0  0  0
    3.8660   -1.9050    0.0000 C   0  0  0  0  0  0  0  0  0  0  0  0
    3.0000   -3.4050    0.0000 C   0  0  0  0  0  0  0  0  0  0  0  0
   10.7942    2.0950    0.0000 C   0  0  0  0  0  0  0  0  0  0  0  0
    7.7287    2.5700    0.0000 H   0  0  0  0  0  0  0  0  0  0  0  0
    6.9316    2.5700    0.0000 H   0  0  0  0  0  0  0  0  0  0  0  0
    6.0656    1.1200    0.0000 H   0  0  0  0  0  0  0  0  0  0  0  0
    6.8626    1.1200    0.0000 H   0  0  0  0  0  0  0  0  0  0  0  0
    8.9323    1.1700    0.0000 H   0  0  0  0  0  0  0  0  0  0  0  0
    5.9966    2.5700    0.0000 H   0  0  0  0  0  0  0  0  0  0  0  0
    5.1996    2.5700    0.0000 H   0  0  0  0  0  0  0  0  0  0  0  0
    8.7331    0.2850    0.0000 H   0  0  0  0  0  0  0  0  0  0  0  0
    7.6592    0.2850    0.0000 H   0  0  0  0  0  0  0  0  0  0  0  0
    2.4631    1.9050    0.0000 H   0  0  0  0  0  0  0  0  0  0  0  0
    1.5970   -0.5950    0.0000 H   0  0  0  0  0  0  0  0  0  0  0  0
    4.4030   -0.5950    0.0000 H   0  0  0  0  0  0  0  0  0  0  0  0
    1.5970   -2.2150    0.0000 H   0  0  0  0  0  0  0  0  0  0  0  0
    4.4030   -2.2150    0.0000 H   0  0  0  0  0  0  0  0  0  0  0  0
    2.3800   -3.4050    0.0000 H   0  0  0  0  0  0  0  0  0  0  0  0
    3.0000   -4.0250    0.0000 H   0  0  0  0  0  0  0  0  0  0  0  0
    3.6200   -3.4050    0.0000 H   0  0  0  0  0  0  0  0  0  0  0  0
    4.4030    3.4050    0.0000 H   0  0  0  0  0  0  0  0  0  0  0  0
    3.3291    3.4050    0.0000 H   0  0  0  0  0  0  0  0  0  0  0  0
   11.1042    1.5581    0.0000 H   0  0  0  0  0  0  0  0  0  0  0  0
   11.3312    2.4050    0.0000 H   0  0  0  0  0  0  0  0  0  0  0  0
   10.4842    2.6319    0.0000 H   0  0  0  0  0  0  0  0  0  0  0  0
  1  4  2  0  0  0  0
  1  5  2  0  0  0  0
  1  8  1  0  0  0  0
  1 15  1  0  0  0  0
  2 14  1  0  0  0  0
  2 23  1  0  0  0  0
  3 14  2  0  0  0  0
  6 12  1  0  0  0  0
  6 31  1  0  0  0  0
  6 32  1  0  0  0  0
  7 13  1  0  0  0  0
  7 16  2  0  0  0  0
  8 16  1  0  0  0  0
  8 33  1  0  0  0  0
  9 16  1  0  0  0  0
  9 41  1  0  0  0  0
  9 42  1  0  0  0  0
 10 11  1  0  0  0  0
 10 12  1  0  0  0  0
 10 24  1  0  0  0  0
 10 25  1  0  0  0  0
 11 13  1  0  0  0  0
 11 26  1  0  0  0  0
 11 27  1  0  0  0  0
 12 14  1  0  0  0  0
 12 28  1  0  0  0  0
 13 29  1  0  0  0  0
 13 30  1  0  0  0  0
 15 17  2  0  0  0  0
 15 18  1  0  0  0  0
 17 20  1  0  0  0  0
 17 34  1  0  0  0  0
 18 21  2  0  0  0  0
 18 35  1  0  0  0  0
 19 20  2  0  0  0  0
 19 21  1  0  0  0  0
 19 22  1  0  0  0  0
 20 36  1  0  0  0  0
 21 37  1  0  0  0  0
 22 38  1  0  0  0  0
 22 39  1  0  0  0  0
 22 40  1  0  0  0  0
 23 43  1  0  0  0  0
 23 44  1  0  0  0  0
 23 45  1  0  0  0  0
M  END
> <PUBCHEM_COMPOUND_CID>
13481

> <PUBCHEM_COMPOUND_CANONICALIZED>
1

> <PUBCHEM_CACTVS_COMPLEXITY>
507

> <PUBCHEM_CACTVS_HBOND_ACCEPTOR>
6

> <PUBCHEM_CACTVS_HBOND_DONOR>
3

> <PUBCHEM_CACTVS_ROTATABLE_BOND>
9

> <PUBCHEM_CACTVS_SUBSKEYS>
AAADceBzuABAAAAAAAAAAAAAAAAAAAAAAAAwAAAAAAAAAAABAAAAHgQQQAAADCjB2AYzCYJABAKoAiDSLHBCABEgAAAIiJmAAIgKIDKAkRCBIAAkkAAIiAeYkQAOEAAAAAAAAAAgAAAAAAAAAAAAAAAAAA==

> <PUBCHEM_IUPAC_OPENEYE_NAME>
methyl 2-amino-5-[[amino-(p-tolylsulfonylamino)methylene]amino]pentanoate

> <PUBCHEM_IUPAC_CAS_NAME>
2-amino-5-[[amino-[(4-methylphenyl)sulfonylamino]methylidene]amino]pentanoic acid methyl ester

> <PUBCHEM_IUPAC_NAME>
methyl 2-amino-5-[[amino-[(4-methylphenyl)sulfonylamino]methylidene]amino]pentanoate

> <PUBCHEM_IUPAC_SYSTEMATIC_NAME>
methyl 2-azanyl-5-[[azanyl-[(4-methylphenyl)sulfonylamino]methylidene]amino]pentanoate

> <PUBCHEM_IUPAC_TRADITIONAL_NAME>
2-amino-5-[[amino-(tosylamino)methylene]amino]valeric acid methyl ester

> <PUBCHEM_IUPAC_INCHI>
InChI=1S/C14H22N4O4S/c1-10-5-7-11(8-6-10)23(20,21)18-14(16)17-9-3-4-12(15)13(19)22-2/h5-8,12H,3-4,9,15H2,1-2H3,(H3,16,17,18)

> <PUBCHEM_IUPAC_INCHIKEY>
GIGVCLWIEMFWBF-UHFFFAOYSA-N

> <PUBCHEM_XLOGP3_AA>
0.3

> <PUBCHEM_EXACT_MASS>
342.136176

> <PUBCHEM_MOLECULAR_FORMULA>
C14H22N4O4S

> <PUBCHEM_MOLECULAR_WEIGHT>
342.41388

> <PUBCHEM_OPENEYE_CAN_SMILES>
CC1=CC=C(C=C1)S(=O)(=O)NC(=NCCCC(C(=O)OC)N)N

> <PUBCHEM_OPENEYE_ISO_SMILES>
CC1=CC=C(C=C1)S(=O)(=O)NC(=NCCCC(C(=O)OC)N)N

> <PUBCHEM_CACTVS_TPSA>
145

> <PUBCHEM_MONOISOTOPIC_WEIGHT>
342.136176

> <PUBCHEM_TOTAL_CHARGE>
0

> <PUBCHEM_HEAVY_ATOM_COUNT>
23

> <PUBCHEM_ATOM_DEF_STEREO_COUNT>
0

> <PUBCHEM_ATOM_UDEF_STEREO_COUNT>
1

> <PUBCHEM_BOND_DEF_STEREO_COUNT>
0

> <PUBCHEM_BOND_UDEF_STEREO_COUNT>
0

> <PUBCHEM_ISOTOPIC_ATOM_COUNT>
0

> <PUBCHEM_COMPONENT_COUNT>
1

> <PUBCHEM_CACTVS_TAUTO_COUNT>
3

> <PUBCHEM_COORDINATE_TYPE>
1
5
255

> <PUBCHEM_BONDANNOTATIONS>
12  28  3
15  17  8
15  18  8
17  20  8
18  21  8
19  20  8
19  21  8

$$$$

