8336
  -OEChem-06261202452D

 28 29  0     0  0  0  0  0  0999 V2000
    5.3700   -2.1687    0.0000 S   0  0  0  0  0  0  0  0  0  0  0  0
    3.1200    1.7377    0.0000 S   0  0  0  0  0  0  0  0  0  0  0  0
    5.8599   -3.0404    0.0000 O   0  0  0  0  0  0  0  0  0  0  0  0
    3.1200    2.7377    0.0000 O   0  0  0  0  0  0  0  0  0  0  0  0
    6.2416   -1.6788    0.0000 O   0  0  0  0  0  0  0  0  0  0  0  0
    4.4981   -2.6587    0.0000 O   0  0  0  0  0  0  0  0  0  0  0  0
    2.1200    1.7377    0.0000 O   0  0  0  0  0  0  0  0  0  0  0  0
    4.1200    1.7377    0.0000 O   0  0  0  0  0  0  0  0  0  0  0  0
    2.6200   -2.1284    0.0000 N   0  0  0  0  0  0  0  0  0  0  0  0
    3.9860   -0.7623    0.0000 C   0  0  0  0  0  0  0  0  0  0  0  0
    3.9860    0.2377    0.0000 C   0  0  0  0  0  0  0  0  0  0  0  0
    4.8799   -1.2970    0.0000 C   0  0  0  0  0  0  0  0  0  0  0  0
    3.1200    0.7377    0.0000 C   0  0  0  0  0  0  0  0  0  0  0  0
    3.1200   -1.2623    0.0000 C   0  0  0  0  0  0  0  0  0  0  0  0
    4.8799    0.7723    0.0000 C   0  0  0  0  0  0  0  0  0  0  0  0
    2.2539    0.2377    0.0000 C   0  0  0  0  0  0  0  0  0  0  0  0
    5.7860   -0.7832    0.0000 C   0  0  0  0  0  0  0  0  0  0  0  0
    2.2539   -0.7623    0.0000 C   0  0  0  0  0  0  0  0  0  0  0  0
    5.7860    0.2585    0.0000 C   0  0  0  0  0  0  0  0  0  0  0  0
    4.8728    1.3923    0.0000 H   0  0  0  0  0  0  0  0  0  0  0  0
    1.7170    0.5477    0.0000 H   0  0  0  0  0  0  0  0  0  0  0  0
    6.3217   -1.0952    0.0000 H   0  0  0  0  0  0  0  0  0  0  0  0
    1.7170   -1.0723    0.0000 H   0  0  0  0  0  0  0  0  0  0  0  0
    6.3217    0.5705    0.0000 H   0  0  0  0  0  0  0  0  0  0  0  0
    2.0000   -2.1284    0.0000 H   0  0  0  0  0  0  0  0  0  0  0  0
    2.9300   -2.6653    0.0000 H   0  0  0  0  0  0  0  0  0  0  0  0
    6.4798   -3.0477    0.0000 H   0  0  0  0  0  0  0  0  0  0  0  0
    2.5830    3.0477    0.0000 H   0  0  0  0  0  0  0  0  0  0  0  0
  1  3  1  0  0  0  0
  1  5  2  0  0  0  0
  1  6  2  0  0  0  0
  1 12  1  0  0  0  0
  2  4  1  0  0  0  0
  2  7  2  0  0  0  0
  2  8  2  0  0  0  0
  2 13  1  0  0  0  0
  3 27  1  0  0  0  0
  4 28  1  0  0  0  0
  9 14  1  0  0  0  0
  9 25  1  0  0  0  0
  9 26  1  0  0  0  0
 10 11  1  0  0  0  0
 10 12  1  0  0  0  0
 10 14  2  0  0  0  0
 11 13  2  0  0  0  0
 11 15  1  0  0  0  0
 12 17  2  0  0  0  0
 13 16  1  0  0  0  0
 14 18  1  0  0  0  0
 15 19  2  0  0  0  0
 15 20  1  0  0  0  0
 16 18  2  0  0  0  0
 16 21  1  0  0  0  0
 17 19  1  0  0  0  0
 17 22  1  0  0  0  0
 18 23  1  0  0  0  0
 19 24  1  0  0  0  0
M  END
> <PUBCHEM_COMPOUND_CID>
8336

> <PUBCHEM_COMPOUND_CANONICALIZED>
1

> <PUBCHEM_CACTVS_COMPLEXITY>
531

> <PUBCHEM_CACTVS_HBOND_ACCEPTOR>
7

> <PUBCHEM_CACTVS_HBOND_DONOR>
3

> <PUBCHEM_CACTVS_ROTATABLE_BOND>
2

> <PUBCHEM_CACTVS_SUBSKEYS>
AAADccByOABgAAAAAAAAAAAAAAAAAAAAAAAwYAAAAAAAAADBUAAAHAQQCAAADAiBWAAwwcBAAIKAAiRCQHDCAEAgAgAIiBgAZIgIICKAkZGAIARgkAAIyAcQgIAOgAQAwAAWAAAACAGAACwAAAAAAAAAAA==

> <PUBCHEM_IUPAC_OPENEYE_NAME>
4-aminonaphthalene-1,5-disulfonic acid

> <PUBCHEM_IUPAC_CAS_NAME>
4-aminonaphthalene-1,5-disulfonic acid

> <PUBCHEM_IUPAC_NAME>
4-aminonaphthalene-1,5-disulfonic acid

> <PUBCHEM_IUPAC_SYSTEMATIC_NAME>
4-azanylnaphthalene-1,5-disulfonic acid

> <PUBCHEM_IUPAC_TRADITIONAL_NAME>
4-aminonaphthalene-1,5-disulfonic acid

> <PUBCHEM_IUPAC_INCHI>
InChI=1S/C10H9NO6S2/c11-7-4-5-8(18(12,13)14)6-2-1-3-9(10(6)7)19(15,16)17/h1-5H,11H2,(H,12,13,14)(H,15,16,17)

> <PUBCHEM_IUPAC_INCHIKEY>
PHZVGKMVVKFBCX-UHFFFAOYSA-N

> <PUBCHEM_XLOGP3_AA>
0

> <PUBCHEM_EXACT_MASS>
302.987129

> <PUBCHEM_MOLECULAR_FORMULA>
C10H9NO6S2

> <PUBCHEM_MOLECULAR_WEIGHT>
303.31156

> <PUBCHEM_OPENEYE_CAN_SMILES>
C1=CC2=C(C=CC(=C2C(=C1)S(=O)(=O)O)N)S(=O)(=O)O

> <PUBCHEM_OPENEYE_ISO_SMILES>
C1=CC2=C(C=CC(=C2C(=C1)S(=O)(=O)O)N)S(=O)(=O)O

> <PUBCHEM_CACTVS_TPSA>
152

> <PUBCHEM_MONOISOTOPIC_WEIGHT>
302.987129

> <PUBCHEM_TOTAL_CHARGE>
0

> <PUBCHEM_HEAVY_ATOM_COUNT>
19

> <PUBCHEM_ATOM_DEF_STEREO_COUNT>
0

> <PUBCHEM_ATOM_UDEF_STEREO_COUNT>
0

> <PUBCHEM_BOND_DEF_STEREO_COUNT>
0

> <PUBCHEM_BOND_UDEF_STEREO_COUNT>
0

> <PUBCHEM_ISOTOPIC_ATOM_COUNT>
0

> <PUBCHEM_COMPONENT_COUNT>
1

> <PUBCHEM_CACTVS_TAUTO_COUNT>
1

> <PUBCHEM_COORDINATE_TYPE>
1
5
255

> <PUBCHEM_BONDANNOTATIONS>
10  11  8
10  12  8
10  14  8
11  13  8
11  15  8
12  17  8
13  16  8
14  18  8
15  19  8
16  18  8
17  19  8

$$$$

