54675781
  -OEChem-07051212512D

 44 47  0     1  0  0  0  0  0999 V2000
    6.0678    1.3204    0.0000 O   0  0  0  0  0  0  0  0  0  0  0  0
    6.9338    1.8204    0.0000 O   0  0  0  0  0  0  0  0  0  0  0  0
    5.1854   -2.2142    0.0000 O   0  0  0  0  0  0  0  0  0  0  0  0
    4.6839    1.7268    0.0000 O   0  0  0  0  0  0  0  0  0  0  0  0
    8.6822    1.8550    0.0000 O   0  0  0  0  0  0  0  0  0  0  0  0
    3.4037   -1.2038    0.0000 O   0  0  0  0  0  0  0  0  0  0  0  0
   10.5194    1.8980    0.0000 O   0  0  0  0  0  0  0  0  0  0  0  0
    3.4075    1.8445    0.0000 O   0  0  0  0  0  0  0  0  0  0  0  0
    2.5357    0.3479    0.0000 N   0  0  0  0  0  0  0  0  0  0  0  0
    6.0678   -0.6796    0.0000 C   0  0  1  0  0  0  0  0  0  0  0  0
    6.0678    0.3204    0.0000 C   0  0  1  0  0  0  0  0  0  0  0  0
    6.9338   -1.1796    0.0000 C   0  0  0  0  0  0  0  0  0  0  0  0
    7.7998   -0.6796    0.0000 C   0  0  0  0  0  0  0  0  0  0  0  0
    7.7998    0.3204    0.0000 C   0  0  0  0  0  0  0  0  0  0  0  0
    6.9338    0.8204    0.0000 C   0  0  0  0  0  0  0  0  0  0  0  0
    5.1738   -1.2143    0.0000 C   0  0  0  0  0  0  0  0  0  0  0  0
    5.1738    0.8550    0.0000 C   0  0  0  0  0  0  0  0  0  0  0  0
    8.6938   -1.2143    0.0000 C   0  0  0  0  0  0  0  0  0  0  0  0
    8.6938    0.8550    0.0000 C   0  0  0  0  0  0  0  0  0  0  0  0
    4.2678    0.3412    0.0000 C   0  0  0  0  0  0  0  0  0  0  0  0
    4.2678   -0.7004    0.0000 C   0  0  0  0  0  0  0  0  0  0  0  0
    9.5998   -0.7004    0.0000 C   0  0  0  0  0  0  0  0  0  0  0  0
    9.5998    0.3412    0.0000 C   0  0  0  0  0  0  0  0  0  0  0  0
    8.6822   -2.2142    0.0000 C   0  0  0  0  0  0  0  0  0  0  0  0
   10.5310   -1.2574    0.0000 C   0  0  0  0  0  0  0  0  0  0  0  0
   10.5310    0.8981    0.0000 C   0  0  0  0  0  0  0  0  0  0  0  0
    3.4037    0.8445    0.0000 C   0  0  0  0  0  0  0  0  0  0  0  0
   11.4748   -0.7221    0.0000 C   0  0  0  0  0  0  0  0  0  0  0  0
   11.4748    0.3629    0.0000 C   0  0  0  0  0  0  0  0  0  0  0  0
    6.0743   -1.5296    0.0000 H   0  0  0  0  0  0  0  0  0  0  0  0
    6.5353   -1.6546    0.0000 H   0  0  0  0  0  0  0  0  0  0  0  0
    7.3323   -1.6546    0.0000 H   0  0  0  0  0  0  0  0  0  0  0  0
    5.7578    1.8573    0.0000 H   0  0  0  0  0  0  0  0  0  0  0  0
    8.0622   -2.2071    0.0000 H   0  0  0  0  0  0  0  0  0  0  0  0
    8.6750   -2.8342    0.0000 H   0  0  0  0  0  0  0  0  0  0  0  0
    9.3022   -2.2214    0.0000 H   0  0  0  0  0  0  0  0  0  0  0  0
   10.5238   -1.8773    0.0000 H   0  0  0  0  0  0  0  0  0  0  0  0
    9.2155    2.1712    0.0000 H   0  0  0  0  0  0  0  0  0  0  0  0
   12.0105   -1.0342    0.0000 H   0  0  0  0  0  0  0  0  0  0  0  0
    3.4061   -1.8238    0.0000 H   0  0  0  0  0  0  0  0  0  0  0  0
   12.0105    0.6749    0.0000 H   0  0  0  0  0  0  0  0  0  0  0  0
    2.0000    0.6599    0.0000 H   0  0  0  0  0  0  0  0  0  0  0  0
    2.5334   -0.2721    0.0000 H   0  0  0  0  0  0  0  0  0  0  0  0
   11.0528    2.2142    0.0000 H   0  0  0  0  0  0  0  0  0  0  0  0
 11  1  1  6  0  0  0
  1 33  1  0  0  0  0
  2 15  2  0  0  0  0
  3 16  2  0  0  0  0
  4 17  2  0  0  0  0
  5 19  1  0  0  0  0
  5 38  1  0  0  0  0
  6 21  1  0  0  0  0
  6 40  1  0  0  0  0
  7 26  1  0  0  0  0
  7 44  1  0  0  0  0
  8 27  2  0  0  0  0
  9 27  1  0  0  0  0
  9 42  1  0  0  0  0
  9 43  1  0  0  0  0
 10 11  1  0  0  0  0
 10 12  1  0  0  0  0
 10 16  1  0  0  0  0
 10 30  1  6  0  0  0
 11 15  1  0  0  0  0
 11 17  1  0  0  0  0
 12 13  1  0  0  0  0
 12 31  1  0  0  0  0
 12 32  1  0  0  0  0
 13 14  2  0  0  0  0
 13 18  1  0  0  0  0
 14 15  1  0  0  0  0
 14 19  1  0  0  0  0
 16 21  1  0  0  0  0
 17 20  1  0  0  0  0
 18 22  2  0  0  0  0
 18 24  1  0  0  0  0
 19 23  2  0  0  0  0
 20 21  2  0  0  0  0
 20 27  1  0  0  0  0
 22 23  1  0  0  0  0
 22 25  1  0  0  0  0
 23 26  1  0  0  0  0
 24 34  1  0  0  0  0
 24 35  1  0  0  0  0
 24 36  1  0  0  0  0
 25 28  2  0  0  0  0
 25 37  1  0  0  0  0
 26 29  2  0  0  0  0
 28 29  1  0  0  0  0
 28 39  1  0  0  0  0
 29 41  1  0  0  0  0
M  END
> <PUBCHEM_COMPOUND_CID>
54675781

> <PUBCHEM_COMPOUND_CANONICALIZED>
1

> <PUBCHEM_CACTVS_COMPLEXITY>
849

> <PUBCHEM_CACTVS_HBOND_ACCEPTOR>
8

> <PUBCHEM_CACTVS_HBOND_DONOR>
5

> <PUBCHEM_CACTVS_ROTATABLE_BOND>
1

> <PUBCHEM_CACTVS_SUBSKEYS>
AAADccB6PAAAAAAAAAAAAAAAAAAAAAAAAAAwYMEAAAAAAADBUAAAHgAQCAAADUSBmAAyBsBAAgCIAqFSEAKCAAAkIAAIiAFGCMgIJz6KlRKAcUAl4BUImQf7z/Du4AADAAAYAADAAAYAADAAAAAAAAAAAA==

> <PUBCHEM_IUPAC_OPENEYE_NAME>
(4aR,12aS)-3,10,11,12a-tetrahydroxy-6-methyl-1,4,12-trioxo-4a,5-dihydrotetracene-2-carboxamide

> <PUBCHEM_IUPAC_CAS_NAME>
(4aR,12aS)-3,10,11,12a-tetrahydroxy-6-methyl-1,4,12-trioxo-4a,5-dihydrotetracene-2-carboxamide

> <PUBCHEM_IUPAC_NAME>
(4aR,12aS)-3,10,11,12a-tetrahydroxy-6-methyl-1,4,12-trioxo-4a,5-dihydrotetracene-2-carboxamide

> <PUBCHEM_IUPAC_SYSTEMATIC_NAME>
(4aR,12aS)-6-methyl-3,10,11,12a-tetrakis(oxidanyl)-1,4,12-tris(oxidanylidene)-4a,5-dihydrotetracene-2-carboxamide

> <PUBCHEM_IUPAC_TRADITIONAL_NAME>
(4aR,12aS)-3,10,11,12a-tetrahydroxy-1,4,12-triketo-6-methyl-4a,5-dihydrotetracene-2-carboxamide

> <PUBCHEM_IUPAC_INCHI>
InChI=1S/C20H15NO8/c1-6-7-3-2-4-10(22)11(7)15(24)12-8(6)5-9-14(23)16(25)13(19(21)28)18(27)20(9,29)17(12)26/h2-4,9,22,24-25,29H,5H2,1H3,(H2,21,28)/t9-,20-/m0/s1

> <PUBCHEM_IUPAC_INCHIKEY>
OJQSYBOSDDVFNO-LXGOIASLSA-N

> <PUBCHEM_XLOGP3_AA>
2.2

> <PUBCHEM_EXACT_MASS>
397.079766

> <PUBCHEM_MOLECULAR_FORMULA>
C20H15NO8

> <PUBCHEM_MOLECULAR_WEIGHT>
397.335

> <PUBCHEM_OPENEYE_CAN_SMILES>
CC1=C2CC3C(=O)C(=C(C(=O)C3(C(=O)C2=C(C4=C1C=CC=C4O)O)O)C(=O)N)O

> <PUBCHEM_OPENEYE_ISO_SMILES>
CC1=C2C[C@H]3C(=O)C(=C(C(=O)[C@]3(C(=O)C2=C(C4=C1C=CC=C4O)O)O)C(=O)N)O

> <PUBCHEM_CACTVS_TPSA>
175

> <PUBCHEM_MONOISOTOPIC_WEIGHT>
397.079766

> <PUBCHEM_TOTAL_CHARGE>
0

> <PUBCHEM_HEAVY_ATOM_COUNT>
29

> <PUBCHEM_ATOM_DEF_STEREO_COUNT>
2

> <PUBCHEM_ATOM_UDEF_STEREO_COUNT>
0

> <PUBCHEM_BOND_DEF_STEREO_COUNT>
0

> <PUBCHEM_BOND_UDEF_STEREO_COUNT>
0

> <PUBCHEM_ISOTOPIC_ATOM_COUNT>
0

> <PUBCHEM_COMPONENT_COUNT>
1

> <PUBCHEM_CACTVS_TAUTO_COUNT>
999

> <PUBCHEM_COORDINATE_TYPE>
1
5
255

> <PUBCHEM_BONDANNOTATIONS>
11  1  6
10  30  6
13  14  8
13  18  8
14  19  8
18  22  8
19  23  8
22  23  8
22  25  8
23  26  8
25  28  8
26  29  8
28  29  8

$$$$

