5450
  -OEChem-06261200413D

 44 46  0     0  0  0  0  0  0999 V2000
   -1.4684    1.5324   -1.7651 S   0  0  0  0  0  0  0  0  0  0  0  0
   -0.1429    0.9262    0.4147 N   0  0  0  0  0  0  0  0  0  0  0  0
   -2.4910    0.4406    0.3653 N   0  0  0  0  0  0  0  0  0  0  0  0
    5.1531   -0.0603    0.8068 N   0  0  0  0  0  0  0  0  0  0  0  0
    5.6328   -1.2830   -0.9841 N   0  0  0  0  0  0  0  0  0  0  0  0
    2.6785    0.3901    0.6073 C   0  0  0  0  0  0  0  0  0  0  0  0
    1.6248   -0.6885    0.9187 C   0  0  0  0  0  0  0  0  0  0  0  0
    2.1148    1.4201   -0.3887 C   0  0  0  0  0  0  0  0  0  0  0  0
   -3.6725    0.5412   -0.5027 C   0  0  0  0  0  0  0  0  0  0  0  0
    0.3161   -0.0570    1.3935 C   0  0  0  0  0  0  0  0  0  0  0  0
    0.7951    2.0054    0.1137 C   0  0  0  0  0  0  0  0  0  0  0  0
   -3.7755   -0.7200   -1.3613 C   0  0  0  0  0  0  0  0  0  0  0  0
   -4.9134    0.7504    0.3659 C   0  0  0  0  0  0  0  0  0  0  0  0
   -4.1593   -1.9572   -0.5502 C   0  0  0  0  0  0  0  0  0  0  0  0
   -5.2912   -0.4954    1.1668 C   0  0  0  0  0  0  0  0  0  0  0  0
   -5.4231   -1.7230    0.2714 C   0  0  0  0  0  0  0  0  0  0  0  0
    3.9880   -0.2135    0.1242 C   0  0  0  0  0  0  0  0  0  0  0  0
   -1.3826    0.8796   -0.1242 C   0  0  0  0  0  0  0  0  0  0  0  0
    4.2976   -0.9658   -0.9731 C   0  0  0  0  0  0  0  0  0  0  0  0
    6.1190   -0.7223    0.1010 C   0  0  0  0  0  0  0  0  0  0  0  0
    2.8887    0.9230    1.5466 H   0  0  0  0  0  0  0  0  0  0  0  0
    2.0007   -1.3765    1.6857 H   0  0  0  0  0  0  0  0  0  0  0  0
    1.4306   -1.2904    0.0209 H   0  0  0  0  0  0  0  0  0  0  0  0
    1.9592    0.9483   -1.3674 H   0  0  0  0  0  0  0  0  0  0  0  0
    2.8393    2.2295   -0.5406 H   0  0  0  0  0  0  0  0  0  0  0  0
   -3.7204    1.4357   -1.1307 H   0  0  0  0  0  0  0  0  0  0  0  0
   -0.4284   -0.8482    1.5399 H   0  0  0  0  0  0  0  0  0  0  0  0
    0.4590    0.4335    2.3637 H   0  0  0  0  0  0  0  0  0  0  0  0
    0.9865    2.5530    1.0466 H   0  0  0  0  0  0  0  0  0  0  0  0
    0.4359    2.7711   -0.5791 H   0  0  0  0  0  0  0  0  0  0  0  0
   -2.8466   -0.9374   -1.8984 H   0  0  0  0  0  0  0  0  0  0  0  0
   -4.5451   -0.5584   -2.1277 H   0  0  0  0  0  0  0  0  0  0  0  0
   -5.7622    1.0182   -0.2772 H   0  0  0  0  0  0  0  0  0  0  0  0
   -4.7596    1.5903    1.0543 H   0  0  0  0  0  0  0  0  0  0  0  0
   -3.3337   -2.2321    0.1175 H   0  0  0  0  0  0  0  0  0  0  0  0
   -4.3147   -2.8052   -1.2271 H   0  0  0  0  0  0  0  0  0  0  0  0
   -6.2369   -0.3204    1.6921 H   0  0  0  0  0  0  0  0  0  0  0  0
   -4.5324   -0.6840    1.9361 H   0  0  0  0  0  0  0  0  0  0  0  0
   -6.2783   -1.5928   -0.4032 H   0  0  0  0  0  0  0  0  0  0  0  0
   -5.6325   -2.6062    0.8852 H   0  0  0  0  0  0  0  0  0  0  0  0
    5.2875    0.4456    1.6724 H   0  0  0  0  0  0  0  0  0  0  0  0
    3.6369   -1.3004   -1.7597 H   0  0  0  0  0  0  0  0  0  0  0  0
   -0.2233    1.2214   -2.1504 H   0  0  0  0  0  0  0  0  0  0  0  0
    7.1479   -0.7573    0.4296 H   0  0  0  0  0  0  0  0  0  0  0  0
  1 18  1  0  0  0  0
  1 43  1  0  0  0  0
  2 10  1  0  0  0  0
  2 11  1  0  0  0  0
  2 18  1  0  0  0  0
  3  9  1  0  0  0  0
  3 18  2  0  0  0  0
  4 17  1  0  0  0  0
  4 20  1  0  0  0  0
  4 41  1  0  0  0  0
  5 19  1  0  0  0  0
  5 20  2  0  0  0  0
  6  7  1  0  0  0  0
  6  8  1  0  0  0  0
  6 17  1  0  0  0  0
  6 21  1  0  0  0  0
  7 10  1  0  0  0  0
  7 22  1  0  0  0  0
  7 23  1  0  0  0  0
  8 11  1  0  0  0  0
  8 24  1  0  0  0  0
  8 25  1  0  0  0  0
  9 12  1  0  0  0  0
  9 13  1  0  0  0  0
  9 26  1  0  0  0  0
 10 27  1  0  0  0  0
 10 28  1  0  0  0  0
 11 29  1  0  0  0  0
 11 30  1  0  0  0  0
 12 14  1  0  0  0  0
 12 31  1  0  0  0  0
 12 32  1  0  0  0  0
 13 15  1  0  0  0  0
 13 33  1  0  0  0  0
 13 34  1  0  0  0  0
 14 16  1  0  0  0  0
 14 35  1  0  0  0  0
 14 36  1  0  0  0  0
 15 16  1  0  0  0  0
 15 37  1  0  0  0  0
 15 38  1  0  0  0  0
 16 39  1  0  0  0  0
 16 40  1  0  0  0  0
 17 19  2  0  0  0  0
 19 42  1  0  0  0  0
 20 44  1  0  0  0  0
M  END
> <PUBCHEM_COMPOUND_CID>
5450

> <PUBCHEM_CONFORMER_RMSD>
0.8

> <PUBCHEM_CONFORMER_DIVERSEORDER>
1
33
4
29
34
16
17
25
40
22
11
30
9
31
28
10
19
37
36
24
21
5
27
12
14
2
39
3
18
6
20
38
23
26
32
8
35
13
7
15

> <PUBCHEM_MMFF94_PARTIAL_CHARGES>
17
1 -0.32
10 0.37
11 0.37
17 -0.33
18 0.64
19 0.08
2 -0.79
20 0.04
3 -0.7
4 0.03
41 0.27
42 0.15
43 0.18
44 0.15
5 -0.57
6 0.18
9 0.25

> <PUBCHEM_EFFECTIVE_ROTOR_COUNT>
5.4

> <PUBCHEM_PHARMACOPHORE_FEATURES>
6
1 4 donor
3 2 3 18 cation
3 4 5 20 cation
5 4 5 17 19 20 rings
6 2 6 7 8 10 11 rings
6 9 12 13 14 15 16 rings

> <PUBCHEM_HEAVY_ATOM_COUNT>
20

> <PUBCHEM_ATOM_DEF_STEREO_COUNT>
0

> <PUBCHEM_ATOM_UDEF_STEREO_COUNT>
0

> <PUBCHEM_BOND_DEF_STEREO_COUNT>
0

> <PUBCHEM_BOND_UDEF_STEREO_COUNT>
0

> <PUBCHEM_ISOTOPIC_ATOM_COUNT>
0

> <PUBCHEM_COMPONENT_COUNT>
1

> <PUBCHEM_CACTVS_TAUTO_COUNT>
4

> <PUBCHEM_CONFORMER_ID>
0000154A00000001

> <PUBCHEM_MMFF94_ENERGY>
47.3378

> <PUBCHEM_FEATURE_SELFOVERLAP>
30.446

> <PUBCHEM_SHAPE_FINGERPRINT>
10042902 136 18269837515231426023
11089746 13 11240002243967412270
11128504 68 17131827651427936356
117890 112 8286203842223048554
11796584 16 17748826345075283614
12166972 35 14979948177473200358
12507557 5 7493280058727974595
12553582 1 18272384065717708817
12596602 18 4678808471994621950
12633257 1 13840272472092000424
12670546 177 15554447379663218911
13103583 49 16008747979078689127
13288520 33 18410855464913810945
13740256 8 18410292484473619001
13862211 1 18202850958946113834
14123255 352 10159701295793945223
14251751 18 18187081728388522574
14251764 18 15285361700190516705
14251764 30 18411980256503196679
14251764 38 11527941279107624367
14341114 176 17022902350321481832
14350574 20 18272650138567363824
14466204 15 4967621537911755443
14528608 73 11887955436594066376
14576447 43 18202569483937747986
14739800 52 10447653427016267470
15142383 8 17240760730683669600
15188451 53 16154283706750995663
15209294 21 8430317939245316393
15537594 2 18202284731927630731
15788980 27 17676209061143284385
17780758 139 17676486146990408099
17844677 252 18333728018101783249
1813 80 18341040882733170916
193927 3 18339919329681105019
19489759 90 9151168757869059063
19784866 240 18333723624238982153
200 152 18342739632624784176
20281389 69 9943802283944498558
20621476 21 18335129882542438694
20871999 31 16343989104779293037
21150785 3 16056591024380230218
21267235 1 18272646819333026323
21298829 104 8285939960235028603
21315763 191 18333725806240546279
21623969 137 17240479213021212030
21637258 2 18114472209562105422
21709351 56 17847065484508833701
22950370 63 18408882932052280581
23035841 295 18410292531723716075
23379529 103 18267018354037326335
23402539 116 17132116870040972301
23522609 53 18056447703989663828
23559900 14 18335994064801991737
26918003 58 17095243635227975952
2767999 5 8935001460133353434
2838139 119 11815903344367553574
33382 64 17967810583175355970
34797466 226 13686291396186904923
351380 180 11095879371741766574
351380 3 18411983563385161706
3737641 26 18262796409928111494
4325135 7 15123786289046039603
5104073 3 14274035272358803759
559249 180 18261112985317800423
5924683 9 15864647055095385783
7226269 152 6411297931421535603
9981440 41 8214145179202949557

> <PUBCHEM_SHAPE_MULTIPOLES>
395.52
14.47
1.76
1.3
5.87
0.17
-0.24
-7.86
-0.69
-1.02
-0.41
-0.33
-0.01
0.42

> <PUBCHEM_SHAPE_SELFOVERLAP>
812.958

> <PUBCHEM_SHAPE_VOLUME>
229.8

> <PUBCHEM_COORDINATE_TYPE>
2
5
10

$$$$

