582786
  -OEChem-06241222442D

 67 71  0     1  0  0  0  0  0999 V2000
    8.4073   -1.4241    0.0000 O   0  0  0  0  0  0  0  0  0  0  0  0
    2.0000    3.9551    0.0000 O   0  0  0  0  0  0  0  0  0  0  0  0
   11.2969   -3.7343    0.0000 O   0  0  0  0  0  0  0  0  0  0  0  0
   12.0027   -2.1526    0.0000 O   0  0  0  0  0  0  0  0  0  0  0  0
    7.3399    0.8107    0.0000 C   0  0  3  0  0  0  0  0  0  0  0  0
    6.4739    0.3107    0.0000 C   0  0  3  0  0  0  0  0  0  0  0  0
    5.6079    0.8107    0.0000 C   0  0  3  0  0  0  0  0  0  0  0  0
    8.0770    0.1436    0.0000 C   0  0  3  0  0  0  0  0  0  0  0  0
    5.6079    1.8107    0.0000 C   0  0  3  0  0  0  0  0  0  0  0  0
    7.6718   -0.7642    0.0000 C   0  0  3  0  0  0  0  0  0  0  0  0
    4.7140    2.3454    0.0000 C   0  0  3  0  0  0  0  0  0  0  0  0
    6.6831   -0.6611    0.0000 C   0  0  0  0  0  0  0  0  0  0  0  0
    7.3399    1.8107    0.0000 C   0  0  0  0  0  0  0  0  0  0  0  0
    6.4739    2.3107    0.0000 C   0  0  0  0  0  0  0  0  0  0  0  0
    9.0594    0.0369    0.0000 C   0  0  3  0  0  0  0  0  0  0  0  0
    4.7140    0.2760    0.0000 C   0  0  0  0  0  0  0  0  0  0  0  0
    3.8079    1.8315    0.0000 C   0  0  3  0  0  0  0  0  0  0  0  0
    3.8079    0.7899    0.0000 C   0  0  0  0  0  0  0  0  0  0  0  0
    8.2060    1.3107    0.0000 C   0  0  0  0  0  0  0  0  0  0  0  0
    9.2632   -0.9300    0.0000 C   0  0  3  0  0  0  0  0  0  0  0  0
    4.7390    3.4301    0.0000 C   0  0  0  0  0  0  0  0  0  0  0  0
    5.5838    2.8387    0.0000 C   0  0  0  0  0  0  0  0  0  0  0  0
    2.8641    2.3668    0.0000 C   0  0  0  0  0  0  0  0  0  0  0  0
    9.7304    0.7783    0.0000 C   0  0  0  0  0  0  0  0  0  0  0  0
    3.8079    3.9870    0.0000 C   0  0  0  0  0  0  0  0  0  0  0  0
   10.1763   -1.3376    0.0000 C   0  0  0  0  0  0  0  0  0  0  0  0
    2.8641    3.4517    0.0000 C   0  0  0  0  0  0  0  0  0  0  0  0
   10.2800   -2.3322    0.0000 C   0  0  0  0  0  0  0  0  0  0  0  0
   11.1932   -2.7397    0.0000 C   0  0  0  0  0  0  0  0  0  0  0  0
    5.7869   -0.1898    0.0000 H   0  0  0  0  0  0  0  0  0  0  0  0
    5.6144   -0.0393    0.0000 H   0  0  0  0  0  0  0  0  0  0  0  0
    8.4250    0.9191    0.0000 H   0  0  0  0  0  0  0  0  0  0  0  0
    6.3440    1.3857    0.0000 H   0  0  0  0  0  0  0  0  0  0  0  0
    7.3271   -1.5411    0.0000 H   0  0  0  0  0  0  0  0  0  0  0  0
    6.0666   -0.7272    0.0000 H   0  0  0  0  0  0  0  0  0  0  0  0
    6.6840   -1.2811    0.0000 H   0  0  0  0  0  0  0  0  0  0  0  0
    7.9505    1.7030    0.0000 H   0  0  0  0  0  0  0  0  0  0  0  0
    7.5520    2.3933    0.0000 H   0  0  0  0  0  0  0  0  0  0  0  0
    6.8724    2.7856    0.0000 H   0  0  0  0  0  0  0  0  0  0  0  0
    6.0754    2.7856    0.0000 H   0  0  0  0  0  0  0  0  0  0  0  0
    8.7572    0.8314    0.0000 H   0  0  0  0  0  0  0  0  0  0  0  0
    4.3203   -0.2030    0.0000 H   0  0  0  0  0  0  0  0  0  0  0  0
    5.1185   -0.1938    0.0000 H   0  0  0  0  0  0  0  0  0  0  0  0
    3.0734    1.4037    0.0000 H   0  0  0  0  0  0  0  0  0  0  0  0
    3.1970    0.8960    0.0000 H   0  0  0  0  0  0  0  0  0  0  0  0
    3.5988    0.2062    0.0000 H   0  0  0  0  0  0  0  0  0  0  0  0
    8.5160    0.7738    0.0000 H   0  0  0  0  0  0  0  0  0  0  0  0
    8.7429    1.6207    0.0000 H   0  0  0  0  0  0  0  0  0  0  0  0
    7.8960    1.8476    0.0000 H   0  0  0  0  0  0  0  0  0  0  0  0
    9.3073   -1.7789    0.0000 H   0  0  0  0  0  0  0  0  0  0  0  0
    5.3473    3.3099    0.0000 H   0  0  0  0  0  0  0  0  0  0  0  0
    4.9615    4.0088    0.0000 H   0  0  0  0  0  0  0  0  0  0  0  0
    5.8896    2.2994    0.0000 H   0  0  0  0  0  0  0  0  0  0  0  0
    6.1231    3.1445    0.0000 H   0  0  0  0  0  0  0  0  0  0  0  0
    5.2780    3.3780    0.0000 H   0  0  0  0  0  0  0  0  0  0  0  0
    2.2532    2.4728    0.0000 H   0  0  0  0  0  0  0  0  0  0  0  0
    2.6550    1.7831    0.0000 H   0  0  0  0  0  0  0  0  0  0  0  0
   10.1901    0.3623    0.0000 H   0  0  0  0  0  0  0  0  0  0  0  0
   10.1465    1.2380    0.0000 H   0  0  0  0  0  0  0  0  0  0  0  0
    9.2708    1.1944    0.0000 H   0  0  0  0  0  0  0  0  0  0  0  0
    4.2125    4.4568    0.0000 H   0  0  0  0  0  0  0  0  0  0  0  0
    3.4142    4.4660    0.0000 H   0  0  0  0  0  0  0  0  0  0  0  0
   10.7948   -1.3814    0.0000 H   0  0  0  0  0  0  0  0  0  0  0  0
   10.3269   -0.7361    0.0000 H   0  0  0  0  0  0  0  0  0  0  0  0
    9.6616   -2.2884    0.0000 H   0  0  0  0  0  0  0  0  0  0  0  0
   10.1295   -2.9336    0.0000 H   0  0  0  0  0  0  0  0  0  0  0  0
   11.8631   -3.9870    0.0000 H   0  0  0  0  0  0  0  0  0  0  0  0
  1 10  1  0  0  0  0
  1 20  1  0  0  0  0
  2 27  2  0  0  0  0
  3 29  1  0  0  0  0
  3 67  1  0  0  0  0
  4 29  2  0  0  0  0
  5  6  1  0  0  0  0
  5  8  1  0  0  0  0
  5 13  1  0  0  0  0
  5 19  1  0  0  0  0
  6  7  1  0  0  0  0
  6 12  1  0  0  0  0
  6 30  1  0  0  0  0
  7  9  1  0  0  0  0
  7 16  1  0  0  0  0
  7 31  1  0  0  0  0
  8 10  1  0  0  0  0
  8 15  1  0  0  0  0
  8 32  1  0  0  0  0
  9 11  1  0  0  0  0
  9 14  1  0  0  0  0
  9 33  1  0  0  0  0
 10 12  1  0  0  0  0
 10 34  1  0  0  0  0
 11 17  1  0  0  0  0
 11 21  1  0  0  0  0
 11 22  1  0  0  0  0
 12 35  1  0  0  0  0
 12 36  1  0  0  0  0
 13 14  1  0  0  0  0
 13 37  1  0  0  0  0
 13 38  1  0  0  0  0
 14 39  1  0  0  0  0
 14 40  1  0  0  0  0
 15 20  1  0  0  0  0
 15 24  1  0  0  0  0
 15 41  1  0  0  0  0
 16 18  1  0  0  0  0
 16 42  1  0  0  0  0
 16 43  1  0  0  0  0
 17 18  1  0  0  0  0
 17 23  1  0  0  0  0
 17 44  1  0  0  0  0
 18 45  1  0  0  0  0
 18 46  1  0  0  0  0
 19 47  1  0  0  0  0
 19 48  1  0  0  0  0
 19 49  1  0  0  0  0
 20 26  1  0  0  0  0
 20 50  1  0  0  0  0
 21 25  1  0  0  0  0
 21 51  1  0  0  0  0
 21 52  1  0  0  0  0
 22 53  1  0  0  0  0
 22 54  1  0  0  0  0
 22 55  1  0  0  0  0
 23 27  1  0  0  0  0
 23 56  1  0  0  0  0
 23 57  1  0  0  0  0
 24 58  1  0  0  0  0
 24 59  1  0  0  0  0
 24 60  1  0  0  0  0
 25 27  1  0  0  0  0
 25 61  1  0  0  0  0
 25 62  1  0  0  0  0
 26 28  1  0  0  0  0
 26 63  1  0  0  0  0
 26 64  1  0  0  0  0
 28 29  1  0  0  0  0
 28 65  1  0  0  0  0
 28 66  1  0  0  0  0
M  END
> <PUBCHEM_COMPOUND_CID>
582786

> <PUBCHEM_COMPOUND_CANONICALIZED>
1

> <PUBCHEM_CACTVS_COMPLEXITY>
703

> <PUBCHEM_CACTVS_HBOND_ACCEPTOR>
4

> <PUBCHEM_CACTVS_HBOND_DONOR>
1

> <PUBCHEM_CACTVS_ROTATABLE_BOND>
3

> <PUBCHEM_CACTVS_SUBSKEYS>
AAADcfB4OAAAAAAAAAAAAAAAAAAAAaIAAAAwYMAAAAASAGDAAAAAGgAACAAADxSggAICCAAABgAIAICQCAAAAAAAAAAAAAEAAAAAABIAAAACQAAEAAAAAAHKyPCPgAAAAAAAAACAAAQAACAAAYAADAAAAA==

> <PUBCHEM_IUPAC_INCHI>
InChI=1S/C25H38O4/c1-14-20(6-7-22(27)28)29-21-13-19-17-5-4-15-12-16(26)8-10-24(15,2)18(17)9-11-25(19,3)23(14)21/h14-15,17-21,23H,4-13H2,1-3H3,(H,27,28)

> <PUBCHEM_IUPAC_INCHIKEY>
LOJFHDKWAHBTAC-UHFFFAOYSA-N

> <PUBCHEM_XLOGP3_AA>
4.9

> <PUBCHEM_EXACT_MASS>
402.27701

> <PUBCHEM_MOLECULAR_FORMULA>
C25H38O4

> <PUBCHEM_MOLECULAR_WEIGHT>
402.56682

> <PUBCHEM_OPENEYE_CAN_SMILES>
CC1C(OC2C1C3(CCC4C(C3C2)CCC5C4(CCC(=O)C5)C)C)CCC(=O)O

> <PUBCHEM_OPENEYE_ISO_SMILES>
CC1C(OC2C1C3(CCC4C(C3C2)CCC5C4(CCC(=O)C5)C)C)CCC(=O)O

> <PUBCHEM_CACTVS_TPSA>
63.6

> <PUBCHEM_MONOISOTOPIC_WEIGHT>
402.27701

> <PUBCHEM_TOTAL_CHARGE>
0

> <PUBCHEM_HEAVY_ATOM_COUNT>
29

> <PUBCHEM_ATOM_DEF_STEREO_COUNT>
0

> <PUBCHEM_ATOM_UDEF_STEREO_COUNT>
10

> <PUBCHEM_BOND_DEF_STEREO_COUNT>
0

> <PUBCHEM_BOND_UDEF_STEREO_COUNT>
0

> <PUBCHEM_ISOTOPIC_ATOM_COUNT>
0

> <PUBCHEM_COMPONENT_COUNT>
1

> <PUBCHEM_CACTVS_TAUTO_COUNT>
3

> <PUBCHEM_COORDINATE_TYPE>
1
5
255

> <PUBCHEM_BONDANNOTATIONS>
10  34  3
11  22  3
15  41  3
17  44  3
20  50  3
5  19  3
6  30  3
7  31  3
8  32  3
9  33  3

$$$$

