441173
  -OEChem-07051212523D

 64 68  0     1  0  0  0  0  0999 V2000
   -0.1687    4.0941   -1.1841 O   0  0  0  0  0  0  0  0  0  0  0  0
    0.9015    3.6293    2.2651 O   0  0  0  0  0  0  0  0  0  0  0  0
   -3.0243    3.1444    0.1632 O   0  0  0  0  0  0  0  0  0  0  0  0
    0.2207   -1.2804    0.2761 O   0  0  0  0  0  0  0  0  0  0  0  0
    2.0591   -0.7625   -1.1127 O   0  0  0  0  0  0  0  0  0  0  0  0
   -4.9788    1.5529    0.1243 O   0  0  0  0  0  0  0  0  0  0  0  0
   -1.7452   -2.6943   -0.0847 O   0  0  0  0  0  0  0  0  0  0  0  0
    5.0474   -0.4562   -2.0997 O   0  0  0  0  0  0  0  0  0  0  0  0
   -7.0699    0.0704    0.1010 O   0  0  0  0  0  0  0  0  0  0  0  0
   -6.4058   -4.6160   -0.0872 O   0  0  0  0  0  0  0  0  0  0  0  0
    5.0456   -3.4255    1.5658 O   0  0  0  0  0  0  0  0  0  0  0  0
    6.6535   -4.5899    0.4825 O   0  0  0  0  0  0  0  0  0  0  0  0
    5.2538   -1.2904    0.0539 N   0  0  0  0  0  0  0  0  0  0  0  0
   -0.2769    3.6257    0.1586 C   0  0  2  0  0  0  0  0  0  0  0  0
    1.0917    3.6970    0.8513 C   0  0  2  0  0  0  0  0  0  0  0  0
   -0.8319    2.2205    0.1110 C   0  0  0  0  0  0  0  0  0  0  0  0
    0.0417    1.1132    0.0274 C   0  0  0  0  0  0  0  0  0  0  0  0
    2.0250    2.5955    0.3967 C   0  0  0  0  0  0  0  0  0  0  0  0
    1.5075    1.3406   -0.0001 C   0  0  0  0  0  0  0  0  0  0  0  0
   -2.2252    2.0364    0.1166 C   0  0  0  0  0  0  0  0  0  0  0  0
   -0.5341   -0.1715   -0.0099 C   0  0  0  0  0  0  0  0  0  0  0  0
   -2.7707    0.7522    0.0661 C   0  0  0  0  0  0  0  0  0  0  0  0
   -1.9261   -0.3519    0.0079 C   0  0  0  0  0  0  0  0  0  0  0  0
    2.4275    0.3614   -0.4190 C   0  0  0  0  0  0  0  0  0  0  0  0
    3.4103    2.8289    0.4054 C   0  0  0  0  0  0  0  0  0  0  0  0
    4.2956    1.8369   -0.0024 C   0  0  0  0  0  0  0  0  0  0  0  0
    3.8041    0.6062   -0.4193 C   0  0  0  0  0  0  0  0  0  0  0  0
   -4.2376    0.5789    0.0786 C   0  0  0  0  0  0  0  0  0  0  0  0
   -2.4855   -1.7198   -0.0360 C   0  0  0  0  0  0  0  0  0  0  0  0
   -4.7978   -0.7868    0.0345 C   0  0  0  0  0  0  0  0  0  0  0  0
   -3.9521   -1.8963   -0.0204 C   0  0  0  0  0  0  0  0  0  0  0  0
    5.7605    2.1291    0.0079 C   0  0  0  0  0  0  0  0  0  0  0  0
    4.7353   -0.4121   -0.9001 C   0  0  0  0  0  0  0  0  0  0  0  0
   -6.1862   -0.9666    0.0480 C   0  0  0  0  0  0  0  0  0  0  0  0
   -4.4947   -3.1863   -0.0615 C   0  0  0  0  0  0  0  0  0  0  0  0
   -3.4034    3.7172   -1.0844 C   0  0  0  0  0  0  0  0  0  0  0  0
   -5.8788   -3.3613   -0.0477 C   0  0  0  0  0  0  0  0  0  0  0  0
   -6.7227   -2.2538    0.0069 C   0  0  0  0  0  0  0  0  0  0  0  0
    6.2023   -2.3344   -0.2609 C   0  0  1  0  0  0  0  0  0  0  0  0
    7.6276   -1.8172   -0.1378 C   0  0  0  0  0  0  0  0  0  0  0  0
    6.0056   -3.5575    0.6192 C   0  0  0  0  0  0  0  0  0  0  0  0
   -0.9609    4.2972    0.6897 H   0  0  0  0  0  0  0  0  0  0  0  0
    1.5513    4.6674    0.6235 H   0  0  0  0  0  0  0  0  0  0  0  0
    3.7857    3.7966    0.7309 H   0  0  0  0  0  0  0  0  0  0  0  0
    0.3045    3.4281   -1.7114 H   0  0  0  0  0  0  0  0  0  0  0  0
    0.3587    4.3929    2.5256 H   0  0  0  0  0  0  0  0  0  0  0  0
    5.9706    3.1472    0.3537 H   0  0  0  0  0  0  0  0  0  0  0  0
    6.2851    1.4448    0.6827 H   0  0  0  0  0  0  0  0  0  0  0  0
    6.1794    2.0381   -0.9997 H   0  0  0  0  0  0  0  0  0  0  0  0
    0.9232   -1.0310    0.8994 H   0  0  0  0  0  0  0  0  0  0  0  0
    2.7392   -1.4519   -1.0442 H   0  0  0  0  0  0  0  0  0  0  0  0
   -3.8466   -4.0583   -0.1043 H   0  0  0  0  0  0  0  0  0  0  0  0
   -3.3174    3.0076   -1.9146 H   0  0  0  0  0  0  0  0  0  0  0  0
   -2.7840    4.5950   -1.2866 H   0  0  0  0  0  0  0  0  0  0  0  0
   -4.4441    4.0459   -1.0116 H   0  0  0  0  0  0  0  0  0  0  0  0
    4.9678   -1.1808    1.0231 H   0  0  0  0  0  0  0  0  0  0  0  0
   -7.7996   -2.4058    0.0171 H   0  0  0  0  0  0  0  0  0  0  0  0
    6.0151   -2.6560   -1.2922 H   0  0  0  0  0  0  0  0  0  0  0  0
   -7.9793   -0.2740    0.1012 H   0  0  0  0  0  0  0  0  0  0  0  0
    8.3541   -2.5926   -0.4032 H   0  0  0  0  0  0  0  0  0  0  0  0
    7.7930   -0.9570   -0.7954 H   0  0  0  0  0  0  0  0  0  0  0  0
    7.8436   -1.4977    0.8882 H   0  0  0  0  0  0  0  0  0  0  0  0
   -5.6801   -5.2627   -0.1224 H   0  0  0  0  0  0  0  0  0  0  0  0
    4.9490   -4.2384    2.1062 H   0  0  0  0  0  0  0  0  0  0  0  0
  1 14  1  0  0  0  0
  1 45  1  0  0  0  0
  2 15  1  0  0  0  0
  2 46  1  0  0  0  0
  3 20  1  0  0  0  0
  3 36  1  0  0  0  0
  4 21  1  0  0  0  0
  4 50  1  0  0  0  0
  5 24  1  0  0  0  0
  5 51  1  0  0  0  0
  6 28  2  0  0  0  0
  7 29  2  0  0  0  0
  8 33  2  0  0  0  0
  9 34  1  0  0  0  0
  9 59  1  0  0  0  0
 10 37  1  0  0  0  0
 10 63  1  0  0  0  0
 11 41  1  0  0  0  0
 11 64  1  0  0  0  0
 12 41  2  0  0  0  0
 13 33  1  0  0  0  0
 13 39  1  0  0  0  0
 13 56  1  0  0  0  0
 14 15  1  0  0  0  0
 14 16  1  0  0  0  0
 14 42  1  0  0  0  0
 15 18  1  0  0  0  0
 15 43  1  0  0  0  0
 16 17  2  0  0  0  0
 16 20  1  0  0  0  0
 17 19  1  0  0  0  0
 17 21  1  0  0  0  0
 18 19  2  0  0  0  0
 18 25  1  0  0  0  0
 19 24  1  0  0  0  0
 20 22  2  0  0  0  0
 21 23  2  0  0  0  0
 22 23  1  0  0  0  0
 22 28  1  0  0  0  0
 23 29  1  0  0  0  0
 24 27  2  0  0  0  0
 25 26  2  0  0  0  0
 25 44  1  0  0  0  0
 26 27  1  0  0  0  0
 26 32  1  0  0  0  0
 27 33  1  0  0  0  0
 28 30  1  0  0  0  0
 29 31  1  0  0  0  0
 30 31  2  0  0  0  0
 30 34  1  0  0  0  0
 31 35  1  0  0  0  0
 32 47  1  0  0  0  0
 32 48  1  0  0  0  0
 32 49  1  0  0  0  0
 34 38  2  0  0  0  0
 35 37  2  0  0  0  0
 35 52  1  0  0  0  0
 36 53  1  0  0  0  0
 36 54  1  0  0  0  0
 36 55  1  0  0  0  0
 37 38  1  0  0  0  0
 38 57  1  0  0  0  0
 39 40  1  0  0  0  0
 39 41  1  0  0  0  0
 39 58  1  0  0  0  0
 40 60  1  0  0  0  0
 40 61  1  0  0  0  0
 40 62  1  0  0  0  0
M  END
> <PUBCHEM_COMPOUND_CID>
441173

> <PUBCHEM_CONFORMER_RMSD>
1

> <PUBCHEM_CONFORMER_DIVERSEORDER>
1
4
2
3

> <PUBCHEM_MMFF94_PARTIAL_CHARGES>
49
1 -0.68
10 -0.53
11 -0.65
12 -0.57
13 -0.73
14 0.42
15 0.42
16 -0.14
18 -0.14
2 -0.68
20 0.08
21 0.08
22 0.09
23 0.09
24 0.08
25 -0.15
26 -0.14
27 0.09
28 0.4
29 0.4
3 -0.36
30 0.09
31 0.09
32 0.14
33 0.54
34 0.08
35 -0.15
36 0.28
37 0.08
38 -0.15
39 0.36
4 -0.53
41 0.66
44 0.15
45 0.4
46 0.4
5 -0.53
50 0.45
51 0.45
52 0.15
56 0.37
57 0.15
59 0.45
6 -0.57
63 0.45
64 0.5
7 -0.57
8 -0.57
9 -0.53

> <PUBCHEM_EFFECTIVE_ROTOR_COUNT>
5.4

> <PUBCHEM_PHARMACOPHORE_FEATURES>
21
1 1 acceptor
1 1 donor
1 10 donor
1 11 acceptor
1 12 acceptor
1 13 donor
1 2 acceptor
1 2 donor
1 3 acceptor
1 4 donor
1 5 donor
1 6 acceptor
1 7 acceptor
1 8 acceptor
1 9 donor
3 11 12 41 anion
6 14 15 16 17 18 19 rings
6 16 17 20 21 22 23 rings
6 18 19 24 25 26 27 rings
6 22 23 28 29 30 31 rings
6 30 31 34 35 37 38 rings

> <PUBCHEM_HEAVY_ATOM_COUNT>
41

> <PUBCHEM_ATOM_DEF_STEREO_COUNT>
2

> <PUBCHEM_ATOM_UDEF_STEREO_COUNT>
1

> <PUBCHEM_BOND_DEF_STEREO_COUNT>
0

> <PUBCHEM_BOND_UDEF_STEREO_COUNT>
0

> <PUBCHEM_ISOTOPIC_ATOM_COUNT>
0

> <PUBCHEM_COMPONENT_COUNT>
1

> <PUBCHEM_CACTVS_TAUTO_COUNT>
994

> <PUBCHEM_CONFORMER_ID>
0006BB5500000001

> <PUBCHEM_MMFF94_ENERGY>
160.3115

> <PUBCHEM_FEATURE_SELFOVERLAP>
106.764

> <PUBCHEM_SHAPE_FINGERPRINT>
10050765 1 18410856585948358592
10622 236 18057612160556179922
11456790 92 18261098700283046089
11578080 2 5398594903375397929
117089 54 18411131425063629098
11756154 67 18410570708450198198
11963148 33 18265056821293598206
12107183 9 18261943137797535617
12166972 35 18060414694697156252
12645989 146 18335980883220345279
13402501 40 18335980848997542269
1361 4 18411136913978552886
13782708 43 18413388713776238663
13811026 1 18409454660971673940
14068700 675 18114178627594820521
14347332 77 18412263947408628135
14394314 77 18410289246379527488
14866123 147 18263637532476740465
15320467 1 17473544646940030478
15347591 1 18412263960942811876
15351339 4 18272939327817444610
15448158 6 18410579444107736012
15890870 6 18049156671858839492
16628084 112 18413390938390528127
16992752 21 18336818810882953086
17492 89 18411139151993747488
18393751 57 17468497918754629912
19311894 1 18337953514275403209
21130935 74 18262516988156602667
21703447 108 18410582747776337360
21792965 20 18045252477074982235
22311459 1 18049725423320475736
23522609 53 18050248631609788981
23559900 14 18264775363955439065
23569914 152 18048352039267105135
23569943 247 18341048618360239515
24771750 20 17264962897578442605
32027 91 18336272267055456765
335352 9 18265895766588862717
350125 39 18263923229374719153
3886686 26 17400642018482052078
4046055 25 18201718461743262268
4073 2 18053942857576587866
4144715 1 18124307204467421979
4440575 13 17842847887445411314
4756088 132 18265907864463267758
50009960 94 18268731483959637946
5104073 3 18113052749004896904
6057620 51 18271515422179242484
6201320 77 17272537626734989915
6697151 62 18041860449101130133
9831232 110 18126004854525855919

> <PUBCHEM_SHAPE_MULTIPOLES>
768.35
18.28
6.21
0.98
3.52
1.02
-0.03
22.56
0.4
1.46
-1.02
0.97
-0.37
-0.24

> <PUBCHEM_SHAPE_SELFOVERLAP>
1733.068

> <PUBCHEM_SHAPE_VOLUME>
399.1

> <PUBCHEM_COORDINATE_TYPE>
2
5
10

$$$$

