17396118
  -OEChem-06241222542D

 54 56  0     1  0  0  0  0  0999 V2000
    8.0622    0.7306    0.0000 S   0  0  0  0  0  0  0  0  0  0  0  0
    9.0622    0.7306    0.0000 O   0  0  0  0  0  0  0  0  0  0  0  0
    7.0622    0.7306    0.0000 O   0  0  0  0  0  0  0  0  0  0  0  0
    6.3301   -3.2694    0.0000 O   0  0  0  0  0  0  0  0  0  0  0  0
    4.5981   -0.2694    0.0000 O   0  0  0  0  0  0  0  0  0  0  0  0
    8.0622    1.7306    0.0000 N   0  0  0  0  0  0  0  0  0  0  0  0
    5.4641   -1.7694    0.0000 N   0  0  0  0  0  0  0  0  0  0  0  0
    8.8712    2.3184    0.0000 C   0  0  0  0  0  0  0  0  0  0  0  0
    7.2532    2.3184    0.0000 C   0  0  0  0  0  0  0  0  0  0  0  0
    8.5622    3.2694    0.0000 C   0  0  0  0  0  0  0  0  0  0  0  0
    7.5622    3.2694    0.0000 C   0  0  0  0  0  0  0  0  0  0  0  0
    8.0622   -0.2694    0.0000 C   0  0  0  0  0  0  0  0  0  0  0  0
    7.1962   -0.7694    0.0000 C   0  0  0  0  0  0  0  0  0  0  0  0
    8.9282   -0.7694    0.0000 C   0  0  0  0  0  0  0  0  0  0  0  0
    7.1962   -1.7694    0.0000 C   0  0  0  0  0  0  0  0  0  0  0  0
    8.0622   -2.2694    0.0000 C   0  0  0  0  0  0  0  0  0  0  0  0
    8.9282   -1.7694    0.0000 C   0  0  0  0  0  0  0  0  0  0  0  0
    4.5981   -2.2694    0.0000 C   0  0  3  0  0  0  0  0  0  0  0  0
    6.3301   -2.2694    0.0000 C   0  0  0  0  0  0  0  0  0  0  0  0
    3.7320   -1.7694    0.0000 C   0  0  0  0  0  0  0  0  0  0  0  0
    8.0622   -3.2694    0.0000 C   0  0  0  0  0  0  0  0  0  0  0  0
    4.5981   -3.2694    0.0000 C   0  0  0  0  0  0  0  0  0  0  0  0
    3.7320   -0.7694    0.0000 C   0  0  0  0  0  0  0  0  0  0  0  0
    2.8660   -2.2694    0.0000 C   0  0  0  0  0  0  0  0  0  0  0  0
    2.8660   -0.2694    0.0000 C   0  0  0  0  0  0  0  0  0  0  0  0
    2.0000   -1.7694    0.0000 C   0  0  0  0  0  0  0  0  0  0  0  0
    2.0000   -0.7694    0.0000 C   0  0  0  0  0  0  0  0  0  0  0  0
    4.5981    0.7306    0.0000 C   0  0  0  0  0  0  0  0  0  0  0  0
    6.6868    2.5705    0.0000 H   0  0  0  0  0  0  0  0  0  0  0  0
    6.9432    1.7814    0.0000 H   0  0  0  0  0  0  0  0  0  0  0  0
    9.1812    1.7814    0.0000 H   0  0  0  0  0  0  0  0  0  0  0  0
    9.4376    2.5705    0.0000 H   0  0  0  0  0  0  0  0  0  0  0  0
    7.6270    3.8860    0.0000 H   0  0  0  0  0  0  0  0  0  0  0  0
    6.9557    3.3983    0.0000 H   0  0  0  0  0  0  0  0  0  0  0  0
    9.1686    3.3983    0.0000 H   0  0  0  0  0  0  0  0  0  0  0  0
    8.4974    3.8860    0.0000 H   0  0  0  0  0  0  0  0  0  0  0  0
    6.6592   -0.4594    0.0000 H   0  0  0  0  0  0  0  0  0  0  0  0
    9.4651   -0.4594    0.0000 H   0  0  0  0  0  0  0  0  0  0  0  0
    9.4651   -2.0794    0.0000 H   0  0  0  0  0  0  0  0  0  0  0  0
    4.5981   -1.6494    0.0000 H   0  0  0  0  0  0  0  0  0  0  0  0
    5.4641   -1.1494    0.0000 H   0  0  0  0  0  0  0  0  0  0  0  0
    7.4422   -3.2694    0.0000 H   0  0  0  0  0  0  0  0  0  0  0  0
    8.0622   -3.8894    0.0000 H   0  0  0  0  0  0  0  0  0  0  0  0
    8.6822   -3.2694    0.0000 H   0  0  0  0  0  0  0  0  0  0  0  0
    3.9781   -3.2694    0.0000 H   0  0  0  0  0  0  0  0  0  0  0  0
    4.5981   -3.8894    0.0000 H   0  0  0  0  0  0  0  0  0  0  0  0
    5.2181   -3.2694    0.0000 H   0  0  0  0  0  0  0  0  0  0  0  0
    2.8660   -2.8894    0.0000 H   0  0  0  0  0  0  0  0  0  0  0  0
    2.8660    0.3506    0.0000 H   0  0  0  0  0  0  0  0  0  0  0  0
    1.4631   -2.0794    0.0000 H   0  0  0  0  0  0  0  0  0  0  0  0
    1.4631   -0.4594    0.0000 H   0  0  0  0  0  0  0  0  0  0  0  0
    5.2181    0.7306    0.0000 H   0  0  0  0  0  0  0  0  0  0  0  0
    4.5981    1.3506    0.0000 H   0  0  0  0  0  0  0  0  0  0  0  0
    3.9781    0.7306    0.0000 H   0  0  0  0  0  0  0  0  0  0  0  0
  1  2  2  0  0  0  0
  1  3  2  0  0  0  0
  1  6  1  0  0  0  0
  1 12  1  0  0  0  0
  4 19  2  0  0  0  0
  5 23  1  0  0  0  0
  5 28  1  0  0  0  0
  6  8  1  0  0  0  0
  6  9  1  0  0  0  0
  7 18  1  0  0  0  0
  7 19  1  0  0  0  0
  7 41  1  0  0  0  0
  8 10  1  0  0  0  0
  8 31  1  0  0  0  0
  8 32  1  0  0  0  0
  9 11  1  0  0  0  0
  9 29  1  0  0  0  0
  9 30  1  0  0  0  0
 10 11  1  0  0  0  0
 10 35  1  0  0  0  0
 10 36  1  0  0  0  0
 11 33  1  0  0  0  0
 11 34  1  0  0  0  0
 12 13  2  0  0  0  0
 12 14  1  0  0  0  0
 13 15  1  0  0  0  0
 13 37  1  0  0  0  0
 14 17  2  0  0  0  0
 14 38  1  0  0  0  0
 15 16  2  0  0  0  0
 15 19  1  0  0  0  0
 16 17  1  0  0  0  0
 16 21  1  0  0  0  0
 17 39  1  0  0  0  0
 18 20  1  0  0  0  0
 18 22  1  0  0  0  0
 18 40  1  0  0  0  0
 20 23  1  0  0  0  0
 20 24  2  0  0  0  0
 21 42  1  0  0  0  0
 21 43  1  0  0  0  0
 21 44  1  0  0  0  0
 22 45  1  0  0  0  0
 22 46  1  0  0  0  0
 22 47  1  0  0  0  0
 23 25  2  0  0  0  0
 24 26  1  0  0  0  0
 24 48  1  0  0  0  0
 25 27  1  0  0  0  0
 25 49  1  0  0  0  0
 26 27  2  0  0  0  0
 26 50  1  0  0  0  0
 27 51  1  0  0  0  0
 28 52  1  0  0  0  0
 28 53  1  0  0  0  0
 28 54  1  0  0  0  0
M  END
> <PUBCHEM_COMPOUND_CID>
17396118

> <PUBCHEM_COMPOUND_CANONICALIZED>
1

> <PUBCHEM_CACTVS_COMPLEXITY>
627

> <PUBCHEM_CACTVS_HBOND_ACCEPTOR>
5

> <PUBCHEM_CACTVS_HBOND_DONOR>
1

> <PUBCHEM_CACTVS_ROTATABLE_BOND>
6

> <PUBCHEM_CACTVS_SUBSKEYS>
AAADceB7OABAAAAAAAAAAAAAAAAAAWAAAAAwYAAAAAAAAAABQAAAHgQQQAAADCzB2AYyB4LABAKIAiFSEHDCCBAkIAAIiJkODMgMJjKEtRuEMShm1hGIqYeYyKCOkAAAgAAYAAAgAAEAADAAAAAAAAAAAA==

> <PUBCHEM_IUPAC_OPENEYE_NAME>
N-[1-(2-methoxyphenyl)ethyl]-2-methyl-5-pyrrolidin-1-ylsulfonyl-benzamide

> <PUBCHEM_IUPAC_CAS_NAME>
N-[1-(2-methoxyphenyl)ethyl]-2-methyl-5-(1-pyrrolidinylsulfonyl)benzamide

> <PUBCHEM_IUPAC_NAME>
N-[1-(2-methoxyphenyl)ethyl]-2-methyl-5-pyrrolidin-1-ylsulfonylbenzamide

> <PUBCHEM_IUPAC_SYSTEMATIC_NAME>
N-[1-(2-methoxyphenyl)ethyl]-2-methyl-5-pyrrolidin-1-ylsulfonyl-benzamide

> <PUBCHEM_IUPAC_TRADITIONAL_NAME>
N-[1-(2-methoxyphenyl)ethyl]-2-methyl-5-pyrrolidinosulfonyl-benzamide

> <PUBCHEM_IUPAC_INCHI>
InChI=1S/C21H26N2O4S/c1-15-10-11-17(28(25,26)23-12-6-7-13-23)14-19(15)21(24)22-16(2)18-8-4-5-9-20(18)27-3/h4-5,8-11,14,16H,6-7,12-13H2,1-3H3,(H,22,24)

> <PUBCHEM_IUPAC_INCHIKEY>
FTPGHCUTALOSTM-UHFFFAOYSA-N

> <PUBCHEM_XLOGP3_AA>
3.1

> <PUBCHEM_EXACT_MASS>
402.161328

> <PUBCHEM_MOLECULAR_FORMULA>
C21H26N2O4S

> <PUBCHEM_MOLECULAR_WEIGHT>
402.50714

> <PUBCHEM_OPENEYE_CAN_SMILES>
CC1=C(C=C(C=C1)S(=O)(=O)N2CCCC2)C(=O)NC(C)C3=CC=CC=C3OC

> <PUBCHEM_OPENEYE_ISO_SMILES>
CC1=C(C=C(C=C1)S(=O)(=O)N2CCCC2)C(=O)NC(C)C3=CC=CC=C3OC

> <PUBCHEM_CACTVS_TPSA>
84.1

> <PUBCHEM_MONOISOTOPIC_WEIGHT>
402.161328

> <PUBCHEM_TOTAL_CHARGE>
0

> <PUBCHEM_HEAVY_ATOM_COUNT>
28

> <PUBCHEM_ATOM_DEF_STEREO_COUNT>
0

> <PUBCHEM_ATOM_UDEF_STEREO_COUNT>
1

> <PUBCHEM_BOND_DEF_STEREO_COUNT>
0

> <PUBCHEM_BOND_UDEF_STEREO_COUNT>
0

> <PUBCHEM_ISOTOPIC_ATOM_COUNT>
0

> <PUBCHEM_COMPONENT_COUNT>
1

> <PUBCHEM_CACTVS_TAUTO_COUNT>
2

> <PUBCHEM_COORDINATE_TYPE>
1
5
255

> <PUBCHEM_BONDANNOTATIONS>
12  13  8
12  14  8
13  15  8
14  17  8
15  16  8
16  17  8
18  22  3
20  23  8
20  24  8
23  25  8
24  26  8
25  27  8
26  27  8

$$$$

