8568
  -OEChem-06261202552D

 13 12  0     0  0  0  0  0  0999 V2000
    3.7321   -2.2500    0.0000 Cl  0  0  0  0  0  0  0  0  0  0  0  0
    2.0000   -1.2500    0.0000 Cl  0  0  0  0  0  0  0  0  0  0  0  0
    5.4641   -1.2500    0.0000 Cl  0  0  0  0  0  0  0  0  0  0  0  0
    5.4641    0.7500    0.0000 Cl  0  0  0  0  0  0  0  0  0  0  0  0
    2.0000    0.7500    0.0000 Cl  0  0  0  0  0  0  0  0  0  0  0  0
    4.5981    2.2500    0.0000 Na  0  3  0  0  0  0  0  0  0  0  0  0
    3.7321    1.7500    0.0000 O   0  5  0  0  0  0  0  0  0  0  0  0
    3.7321   -1.2500    0.0000 C   0  0  0  0  0  0  0  0  0  0  0  0
    2.8660   -0.7500    0.0000 C   0  0  0  0  0  0  0  0  0  0  0  0
    4.5981   -0.7500    0.0000 C   0  0  0  0  0  0  0  0  0  0  0  0
    4.5981    0.2500    0.0000 C   0  0  0  0  0  0  0  0  0  0  0  0
    2.8660    0.2500    0.0000 C   0  0  0  0  0  0  0  0  0  0  0  0
    3.7321    0.7500    0.0000 C   0  0  0  0  0  0  0  0  0  0  0  0
  1  8  1  0  0  0  0
  2  9  1  0  0  0  0
  3 10  1  0  0  0  0
  4 11  1  0  0  0  0
  5 12  1  0  0  0  0
  7 13  1  0  0  0  0
  8  9  2  0  0  0  0
  8 10  1  0  0  0  0
  9 12  1  0  0  0  0
 10 11  2  0  0  0  0
 11 13  1  0  0  0  0
 12 13  2  0  0  0  0
M  CHG  2   6   1   7  -1
M  END
> <PUBCHEM_COMPOUND_CID>
8568

> <PUBCHEM_COMPOUND_CANONICALIZED>
1

> <PUBCHEM_CACTVS_COMPLEXITY>
150

> <PUBCHEM_CACTVS_HBOND_ACCEPTOR>
1

> <PUBCHEM_CACTVS_HBOND_DONOR>
0

> <PUBCHEM_CACTVS_ROTATABLE_BOND>
0

> <PUBCHEM_CACTVS_SUBSKEYS>
AAADcQBgICAHAAAAAAAAAAAAAAAAAAAAAAAwAAAAAAAAAAABAAAACgIAAAAACAYAkCAABoAAAACAAABAAAACAAAgJEAAikAEC4gIJiKBEhKAMAAkwBEIiAeAQAAAACAQAQCACAQAQCACAQAQCAAAAAAAAA==

> <PUBCHEM_IUPAC_OPENEYE_NAME>
sodium 2,3,4,5,6-pentachlorophenolate

> <PUBCHEM_IUPAC_CAS_NAME>
sodium 2,3,4,5,6-pentachlorophenolate

> <PUBCHEM_IUPAC_NAME>
sodium 2,3,4,5,6-pentachlorophenolate

> <PUBCHEM_IUPAC_SYSTEMATIC_NAME>
sodium 2,3,4,5,6-pentakis(chloranyl)phenolate

> <PUBCHEM_IUPAC_TRADITIONAL_NAME>
sodium 2,3,4,5,6-pentachlorophenolate

> <PUBCHEM_IUPAC_INCHI>
InChI=1S/C6HCl5O.Na/c7-1-2(8)4(10)6(12)5(11)3(1)9;/h12H;/q;+1/p-1

> <PUBCHEM_IUPAC_INCHIKEY>
HCJLVWUMMKIQIM-UHFFFAOYSA-M

> <PUBCHEM_EXACT_MASS>
287.825997

> <PUBCHEM_MOLECULAR_FORMULA>
C6Cl5NaO

> <PUBCHEM_MOLECULAR_WEIGHT>
288.318369

> <PUBCHEM_OPENEYE_CAN_SMILES>
C1(=C(C(=C(C(=C1Cl)Cl)Cl)Cl)Cl)[O-].[Na+]

> <PUBCHEM_OPENEYE_ISO_SMILES>
C1(=C(C(=C(C(=C1Cl)Cl)Cl)Cl)Cl)[O-].[Na+]

> <PUBCHEM_CACTVS_TPSA>
23.1

> <PUBCHEM_MONOISOTOPIC_WEIGHT>
285.828947

> <PUBCHEM_TOTAL_CHARGE>
0

> <PUBCHEM_HEAVY_ATOM_COUNT>
13

> <PUBCHEM_ATOM_DEF_STEREO_COUNT>
0

> <PUBCHEM_ATOM_UDEF_STEREO_COUNT>
0

> <PUBCHEM_BOND_DEF_STEREO_COUNT>
0

> <PUBCHEM_BOND_UDEF_STEREO_COUNT>
0

> <PUBCHEM_ISOTOPIC_ATOM_COUNT>
0

> <PUBCHEM_COMPONENT_COUNT>
2

> <PUBCHEM_CACTVS_TAUTO_COUNT>
1

> <PUBCHEM_COORDINATE_TYPE>
1
5
255

> <PUBCHEM_BONDANNOTATIONS>
10  11  8
11  13  8
12  13  8
8  10  8
8  9  8
9  12  8

$$$$

