8687
  -OEChem-06261203002D

 31 29  0     0  0  0  0  0  0999 V2000
    5.7331    3.5369    0.0000 S   0  5  0  0  0  0  0  0  0  0  0  0
    4.8671    5.0369    0.0000 S   0  0  0  0  0  0  0  0  0  0  0  0
    6.5991    4.0369    0.0000 Na  0  3  0  0  0  0  0  0  0  0  0  0
    4.0010    3.5369    0.0000 N   0  0  0  0  0  0  0  0  0  0  0  0
    3.1350    4.0369    0.0000 C   0  0  0  0  0  0  0  0  0  0  0  0
    4.0010    2.5369    0.0000 C   0  0  0  0  0  0  0  0  0  0  0  0
    2.2690    3.5369    0.0000 C   0  0  0  0  0  0  0  0  0  0  0  0
    3.1350    2.0369    0.0000 C   0  0  0  0  0  0  0  0  0  0  0  0
    1.4030    4.0369    0.0000 C   0  0  0  0  0  0  0  0  0  0  0  0
    3.1350    1.0369    0.0000 C   0  0  0  0  0  0  0  0  0  0  0  0
    0.5369    3.5369    0.0000 C   0  0  0  0  0  0  0  0  0  0  0  0
    2.2690    0.5369    0.0000 C   0  0  0  0  0  0  0  0  0  0  0  0
    4.8671    4.0369    0.0000 C   0  0  0  0  0  0  0  0  0  0  0  0
    2.7365    4.5119    0.0000 H   0  0  0  0  0  0  0  0  0  0  0  0
    3.5335    4.5119    0.0000 H   0  0  0  0  0  0  0  0  0  0  0  0
    4.6116    2.6446    0.0000 H   0  0  0  0  0  0  0  0  0  0  0  0
    4.2131    1.9543    0.0000 H   0  0  0  0  0  0  0  0  0  0  0  0
    1.8705    3.0620    0.0000 H   0  0  0  0  0  0  0  0  0  0  0  0
    2.6675    3.0620    0.0000 H   0  0  0  0  0  0  0  0  0  0  0  0
    2.9230    2.6195    0.0000 H   0  0  0  0  0  0  0  0  0  0  0  0
    2.5244    1.9293    0.0000 H   0  0  0  0  0  0  0  0  0  0  0  0
    1.8015    4.5119    0.0000 H   0  0  0  0  0  0  0  0  0  0  0  0
    1.0044    4.5119    0.0000 H   0  0  0  0  0  0  0  0  0  0  0  0
    3.3471    0.4543    0.0000 H   0  0  0  0  0  0  0  0  0  0  0  0
    3.7456    1.1446    0.0000 H   0  0  0  0  0  0  0  0  0  0  0  0
    0.2269    4.0739    0.0000 H   0  0  0  0  0  0  0  0  0  0  0  0
    0.0000    3.2269    0.0000 H   0  0  0  0  0  0  0  0  0  0  0  0
    0.8469    3.0000    0.0000 H   0  0  0  0  0  0  0  0  0  0  0  0
    1.9590    1.0739    0.0000 H   0  0  0  0  0  0  0  0  0  0  0  0
    1.7321    0.2269    0.0000 H   0  0  0  0  0  0  0  0  0  0  0  0
    2.5790    0.0000    0.0000 H   0  0  0  0  0  0  0  0  0  0  0  0
  1 13  1  0  0  0  0
  2 13  2  0  0  0  0
  4  5  1  0  0  0  0
  4  6  1  0  0  0  0
  4 13  1  0  0  0  0
  5  7  1  0  0  0  0
  5 14  1  0  0  0  0
  5 15  1  0  0  0  0
  6  8  1  0  0  0  0
  6 16  1  0  0  0  0
  6 17  1  0  0  0  0
  7  9  1  0  0  0  0
  7 18  1  0  0  0  0
  7 19  1  0  0  0  0
  8 10  1  0  0  0  0
  8 20  1  0  0  0  0
  8 21  1  0  0  0  0
  9 11  1  0  0  0  0
  9 22  1  0  0  0  0
  9 23  1  0  0  0  0
 10 12  1  0  0  0  0
 10 24  1  0  0  0  0
 10 25  1  0  0  0  0
 11 26  1  0  0  0  0
 11 27  1  0  0  0  0
 11 28  1  0  0  0  0
 12 29  1  0  0  0  0
 12 30  1  0  0  0  0
 12 31  1  0  0  0  0
M  CHG  2   1  -1   3   1
M  END
> <PUBCHEM_COMPOUND_CID>
8687

> <PUBCHEM_COMPOUND_CANONICALIZED>
1

> <PUBCHEM_CACTVS_COMPLEXITY>
112

> <PUBCHEM_CACTVS_HBOND_ACCEPTOR>
2

> <PUBCHEM_CACTVS_HBOND_DONOR>
0

> <PUBCHEM_CACTVS_ROTATABLE_BOND>
6

> <PUBCHEM_CACTVS_SUBSKEYS>
AAADceByACBgAAAAAAAAAAAAAAAAAAAAAAAAAAAAAAAAAAAAAAAAHAQAAAAACADBAAQCAAMAAAAEAAAAAAAAAAAAAAgAAAAIAAAAAAAAgAAEAAAAAACAAAAAAAAAAAAAAAAAAAAAAAAAAAAAAAAAAAAAAA==

> <PUBCHEM_IUPAC_OPENEYE_NAME>
sodium N,N-dibutylcarbamodithioate

> <PUBCHEM_IUPAC_CAS_NAME>
sodium N,N-dibutylcarbamodithioate

> <PUBCHEM_IUPAC_NAME>
sodium N,N-dibutylcarbamodithioate

> <PUBCHEM_IUPAC_SYSTEMATIC_NAME>
sodium N,N-dibutylcarbamodithioate

> <PUBCHEM_IUPAC_TRADITIONAL_NAME>
sodium N,N-dibutylcarbamodithioate

> <PUBCHEM_IUPAC_INCHI>
InChI=1S/C9H19NS2.Na/c1-3-5-7-10(9(11)12)8-6-4-2;/h3-8H2,1-2H3,(H,11,12);/q;+1/p-1

> <PUBCHEM_IUPAC_INCHIKEY>
HUMLQUKVJARKRN-UHFFFAOYSA-M

> <PUBCHEM_EXACT_MASS>
227.077836

> <PUBCHEM_MOLECULAR_FORMULA>
C9H18NNaS2

> <PUBCHEM_MOLECULAR_WEIGHT>
227.365689

> <PUBCHEM_OPENEYE_CAN_SMILES>
CCCCN(CCCC)C(=S)[S-].[Na+]

> <PUBCHEM_OPENEYE_ISO_SMILES>
CCCCN(CCCC)C(=S)[S-].[Na+]

> <PUBCHEM_CACTVS_TPSA>
36.3

> <PUBCHEM_MONOISOTOPIC_WEIGHT>
227.077836

> <PUBCHEM_TOTAL_CHARGE>
0

> <PUBCHEM_HEAVY_ATOM_COUNT>
13

> <PUBCHEM_ATOM_DEF_STEREO_COUNT>
0

> <PUBCHEM_ATOM_UDEF_STEREO_COUNT>
0

> <PUBCHEM_BOND_DEF_STEREO_COUNT>
0

> <PUBCHEM_BOND_UDEF_STEREO_COUNT>
0

> <PUBCHEM_ISOTOPIC_ATOM_COUNT>
0

> <PUBCHEM_COMPONENT_COUNT>
2

> <PUBCHEM_CACTVS_TAUTO_COUNT>
1

> <PUBCHEM_COORDINATE_TYPE>
1
5
255

$$$$

