17395848
  -OEChem-06241222522D

 44 46  0     1  0  0  0  0  0999 V2000
    9.3007    0.3660    0.0000 S   0  0  0  0  0  0  0  0  0  0  0  0
    4.6783   -0.0727    0.0000 S   0  0  0  0  0  0  0  0  0  0  0  0
    2.8660    2.7320    0.0000 F   0  0  0  0  0  0  0  0  0  0  0  0
   10.3007    0.3660    0.0000 O   0  0  0  0  0  0  0  0  0  0  0  0
    9.6097    1.3171    0.0000 O   0  0  0  0  0  0  0  0  0  0  0  0
    6.7619    1.5981    0.0000 O   0  0  0  0  0  0  0  0  0  0  0  0
    6.7619   -0.1340    0.0000 N   0  0  0  0  0  0  0  0  0  0  0  0
    7.7619   -0.1340    0.0000 C   0  0  3  0  0  0  0  0  0  0  0  0
    8.3497    0.6750    0.0000 C   0  0  0  0  0  0  0  0  0  0  0  0
    8.3497   -0.9430    0.0000 C   0  0  0  0  0  0  0  0  0  0  0  0
    9.3007   -0.6340    0.0000 C   0  0  0  0  0  0  0  0  0  0  0  0
    6.2619   -1.0000    0.0000 C   0  0  0  0  0  0  0  0  0  0  0  0
    6.2619    0.7321    0.0000 C   0  0  0  0  0  0  0  0  0  0  0  0
    6.7619   -1.8660    0.0000 C   0  0  0  0  0  0  0  0  0  0  0  0
    5.2619    0.7321    0.0000 C   0  0  0  0  0  0  0  0  0  0  0  0
    4.6783    1.5368    0.0000 C   0  0  0  0  0  0  0  0  0  0  0  0
    6.2619   -2.7320    0.0000 C   0  0  0  0  0  0  0  0  0  0  0  0
    3.7320    1.2320    0.0000 C   0  0  0  0  0  0  0  0  0  0  0  0
    3.7320    0.2321    0.0000 C   0  0  0  0  0  0  0  0  0  0  0  0
    4.9889    2.4873    0.0000 C   0  0  0  0  0  0  0  0  0  0  0  0
    2.8660    1.7320    0.0000 C   0  0  0  0  0  0  0  0  0  0  0  0
    2.8660   -0.2679    0.0000 C   0  0  0  0  0  0  0  0  0  0  0  0
    2.0000    1.2320    0.0000 C   0  0  0  0  0  0  0  0  0  0  0  0
    2.0000    0.2321    0.0000 C   0  0  0  0  0  0  0  0  0  0  0  0
    7.4804    0.4184    0.0000 H   0  0  0  0  0  0  0  0  0  0  0  0
    8.6018    1.2414    0.0000 H   0  0  0  0  0  0  0  0  0  0  0  0
    7.8127    0.9850    0.0000 H   0  0  0  0  0  0  0  0  0  0  0  0
    7.8127   -1.2530    0.0000 H   0  0  0  0  0  0  0  0  0  0  0  0
    8.6018   -1.5094    0.0000 H   0  0  0  0  0  0  0  0  0  0  0  0
    9.4296   -1.2404    0.0000 H   0  0  0  0  0  0  0  0  0  0  0  0
    9.9173   -0.5692    0.0000 H   0  0  0  0  0  0  0  0  0  0  0  0
    5.7869   -0.6015    0.0000 H   0  0  0  0  0  0  0  0  0  0  0  0
    5.7869   -1.3985    0.0000 H   0  0  0  0  0  0  0  0  0  0  0  0
    7.2368   -2.2646    0.0000 H   0  0  0  0  0  0  0  0  0  0  0  0
    7.2368   -1.4675    0.0000 H   0  0  0  0  0  0  0  0  0  0  0  0
    5.7249   -2.4220    0.0000 H   0  0  0  0  0  0  0  0  0  0  0  0
    5.9519   -3.2690    0.0000 H   0  0  0  0  0  0  0  0  0  0  0  0
    6.7988   -3.0420    0.0000 H   0  0  0  0  0  0  0  0  0  0  0  0
    5.5783    2.2947    0.0000 H   0  0  0  0  0  0  0  0  0  0  0  0
    5.1815    3.0766    0.0000 H   0  0  0  0  0  0  0  0  0  0  0  0
    4.3996    2.6799    0.0000 H   0  0  0  0  0  0  0  0  0  0  0  0
    2.8660   -0.8879    0.0000 H   0  0  0  0  0  0  0  0  0  0  0  0
    1.4631    1.5420    0.0000 H   0  0  0  0  0  0  0  0  0  0  0  0
    1.4631   -0.0779    0.0000 H   0  0  0  0  0  0  0  0  0  0  0  0
  1  4  2  0  0  0  0
  1  5  2  0  0  0  0
  1  9  1  0  0  0  0
  1 11  1  0  0  0  0
  2 15  1  0  0  0  0
  2 19  1  0  0  0  0
  3 21  1  0  0  0  0
  6 13  2  0  0  0  0
  7  8  1  0  0  0  0
  7 12  1  0  0  0  0
  7 13  1  0  0  0  0
  8  9  1  0  0  0  0
  8 10  1  0  0  0  0
  8 25  1  0  0  0  0
  9 26  1  0  0  0  0
  9 27  1  0  0  0  0
 10 11  1  0  0  0  0
 10 28  1  0  0  0  0
 10 29  1  0  0  0  0
 11 30  1  0  0  0  0
 11 31  1  0  0  0  0
 12 14  1  0  0  0  0
 12 32  1  0  0  0  0
 12 33  1  0  0  0  0
 13 15  1  0  0  0  0
 14 17  1  0  0  0  0
 14 34  1  0  0  0  0
 14 35  1  0  0  0  0
 15 16  2  0  0  0  0
 16 18  1  0  0  0  0
 16 20  1  0  0  0  0
 17 36  1  0  0  0  0
 17 37  1  0  0  0  0
 17 38  1  0  0  0  0
 18 19  1  0  0  0  0
 18 21  2  0  0  0  0
 19 22  2  0  0  0  0
 20 39  1  0  0  0  0
 20 40  1  0  0  0  0
 20 41  1  0  0  0  0
 21 23  1  0  0  0  0
 22 24  1  0  0  0  0
 22 42  1  0  0  0  0
 23 24  2  0  0  0  0
 23 43  1  0  0  0  0
 24 44  1  0  0  0  0
M  END
> <PUBCHEM_COMPOUND_CID>
17395848

> <PUBCHEM_COMPOUND_CANONICALIZED>
1

> <PUBCHEM_CACTVS_COMPLEXITY>
577

> <PUBCHEM_CACTVS_HBOND_ACCEPTOR>
5

> <PUBCHEM_CACTVS_HBOND_DONOR>
0

> <PUBCHEM_CACTVS_ROTATABLE_BOND>
4

> <PUBCHEM_CACTVS_SUBSKEYS>
AAADceB6MQBgAAAAAAAAAAAAAAAAASJAAAAwAAAAAAAAAEgB8AAAHwQAAAAADCjF2AyyAcMAAAqMAiFSEHDDAIAkCBBIiBkIBMgIIDKglRGEIQhghgCoiQcYiMCOgAAAAAAEAAAAAAAAAAgAAAAAAAAAAA==

> <PUBCHEM_IUPAC_OPENEYE_NAME>
N-(1,1-dioxothiolan-3-yl)-4-fluoro-3-methyl-N-propyl-benzothiophene-2-carboxamide

> <PUBCHEM_IUPAC_CAS_NAME>
N-(1,1-dioxo-3-thiolanyl)-4-fluoro-3-methyl-N-propyl-1-benzothiophene-2-carboxamide

> <PUBCHEM_IUPAC_NAME>
N-(1,1-dioxothiolan-3-yl)-4-fluoro-3-methyl-N-propyl-1-benzothiophene-2-carboxamide

> <PUBCHEM_IUPAC_SYSTEMATIC_NAME>
N-[1,1-bis(oxidanylidene)thiolan-3-yl]-4-fluoranyl-3-methyl-N-propyl-1-benzothiophene-2-carboxamide

> <PUBCHEM_IUPAC_TRADITIONAL_NAME>
N-(1,1-diketothiolan-3-yl)-4-fluoro-3-methyl-N-propyl-benzothiophene-2-carboxamide

> <PUBCHEM_IUPAC_INCHI>
InChI=1S/C17H20FNO3S2/c1-3-8-19(12-7-9-24(21,22)10-12)17(20)16-11(2)15-13(18)5-4-6-14(15)23-16/h4-6,12H,3,7-10H2,1-2H3

> <PUBCHEM_IUPAC_INCHIKEY>
KDNMIYUKFGSNKU-UHFFFAOYSA-N

> <PUBCHEM_XLOGP3_AA>
3.7

> <PUBCHEM_EXACT_MASS>
369.086864

> <PUBCHEM_MOLECULAR_FORMULA>
C17H20FNO3S2

> <PUBCHEM_MOLECULAR_WEIGHT>
369.474003

> <PUBCHEM_OPENEYE_CAN_SMILES>
CCCN(C1CCS(=O)(=O)C1)C(=O)C2=C(C3=C(C=CC=C3S2)F)C

> <PUBCHEM_OPENEYE_ISO_SMILES>
CCCN(C1CCS(=O)(=O)C1)C(=O)C2=C(C3=C(C=CC=C3S2)F)C

> <PUBCHEM_CACTVS_TPSA>
91.1

> <PUBCHEM_MONOISOTOPIC_WEIGHT>
369.086864

> <PUBCHEM_TOTAL_CHARGE>
0

> <PUBCHEM_HEAVY_ATOM_COUNT>
24

> <PUBCHEM_ATOM_DEF_STEREO_COUNT>
0

> <PUBCHEM_ATOM_UDEF_STEREO_COUNT>
1

> <PUBCHEM_BOND_DEF_STEREO_COUNT>
0

> <PUBCHEM_BOND_UDEF_STEREO_COUNT>
0

> <PUBCHEM_ISOTOPIC_ATOM_COUNT>
0

> <PUBCHEM_COMPONENT_COUNT>
1

> <PUBCHEM_CACTVS_TAUTO_COUNT>
1

> <PUBCHEM_COORDINATE_TYPE>
1
5
255

> <PUBCHEM_BONDANNOTATIONS>
15  16  8
16  18  8
18  19  8
18  21  8
19  22  8
2  15  8
2  19  8
21  23  8
22  24  8
23  24  8
8  7  3

$$$$

