15406
  -OEChem-07051212472D

 29 30  0     1  0  0  0  0  0999 V2000
    3.1748   -1.8770    0.0000 O   0  0  0  0  0  0  0  0  0  0  0  0
    5.1656    0.0889    0.0000 C   0  0  3  0  0  0  0  0  0  0  0  0
    5.4244    1.0548    0.0000 C   0  0  3  0  0  0  0  0  0  0  0  0
    2.9336   -0.0450    0.0000 C   0  0  0  0  0  0  0  0  0  0  0  0
    3.4336   -0.9111    0.0000 C   0  0  3  0  0  0  0  0  0  0  0  0
    4.6878    2.0375    0.0000 C   0  0  0  0  0  0  0  0  0  0  0  0
    6.9976   -0.6699    0.0000 C   0  0  0  0  0  0  0  0  0  0  0  0
    7.2564    0.2960    0.0000 C   0  0  0  0  0  0  0  0  0  0  0  0
    4.9068   -0.8770    0.0000 C   0  0  0  0  0  0  0  0  0  0  0  0
    2.3043    0.7321    0.0000 C   0  0  0  0  0  0  0  0  0  0  0  0
    2.0000   -0.4034    0.0000 C   0  0  0  0  0  0  0  0  0  0  0  0
    5.4316    0.4349    0.0000 H   0  0  0  0  0  0  0  0  0  0  0  0
    3.9255   -1.2885    0.0000 H   0  0  0  0  0  0  0  0  0  0  0  0
    5.0056    2.5698    0.0000 H   0  0  0  0  0  0  0  0  0  0  0  0
    4.0747    2.1294    0.0000 H   0  0  0  0  0  0  0  0  0  0  0  0
    6.7855   -1.2525    0.0000 H   0  0  0  0  0  0  0  0  0  0  0  0
    7.5889   -0.8563    0.0000 H   0  0  0  0  0  0  0  0  0  0  0  0
    7.8477    0.1096    0.0000 H   0  0  0  0  0  0  0  0  0  0  0  0
    7.4684    0.8786    0.0000 H   0  0  0  0  0  0  0  0  0  0  0  0
    4.3079   -0.7165    0.0000 H   0  0  0  0  0  0  0  0  0  0  0  0
    4.7463   -1.4759    0.0000 H   0  0  0  0  0  0  0  0  0  0  0  0
    5.5057   -1.0375    0.0000 H   0  0  0  0  0  0  0  0  0  0  0  0
    2.7861    1.1223    0.0000 H   0  0  0  0  0  0  0  0  0  0  0  0
    1.9141    1.2139    0.0000 H   0  0  0  0  0  0  0  0  0  0  0  0
    1.8224    0.3419    0.0000 H   0  0  0  0  0  0  0  0  0  0  0  0
    1.7778    0.1754    0.0000 H   0  0  0  0  0  0  0  0  0  0  0  0
    1.4212   -0.6256    0.0000 H   0  0  0  0  0  0  0  0  0  0  0  0
    2.2222   -0.9822    0.0000 H   0  0  0  0  0  0  0  0  0  0  0  0
    2.5759   -2.0375    0.0000 H   0  0  0  0  0  0  0  0  0  0  0  0
  1  5  1  0  0  0  0
  1 29  1  0  0  0  0
  2  5  1  0  0  0  0
  2  6  1  0  0  0  0
  2  7  1  0  0  0  0
  2  9  1  0  0  0  0
  3  4  1  0  0  0  0
  3  6  1  0  0  0  0
  3  8  1  0  0  0  0
  3 12  1  0  0  0  0
  4  5  1  0  0  0  0
  4 10  1  0  0  0  0
  4 11  1  0  0  0  0
  5 13  1  0  0  0  0
  6 14  1  0  0  0  0
  6 15  1  0  0  0  0
  7  8  1  0  0  0  0
  7 16  1  0  0  0  0
  7 17  1  0  0  0  0
  8 18  1  0  0  0  0
  8 19  1  0  0  0  0
  9 20  1  0  0  0  0
  9 21  1  0  0  0  0
  9 22  1  0  0  0  0
 10 23  1  0  0  0  0
 10 24  1  0  0  0  0
 10 25  1  0  0  0  0
 11 26  1  0  0  0  0
 11 27  1  0  0  0  0
 11 28  1  0  0  0  0
M  END
> <PUBCHEM_COMPOUND_CID>
15406

> <PUBCHEM_COMPOUND_CANONICALIZED>
1

> <PUBCHEM_CACTVS_COMPLEXITY>
185

> <PUBCHEM_CACTVS_HBOND_ACCEPTOR>
1

> <PUBCHEM_CACTVS_HBOND_DONOR>
1

> <PUBCHEM_CACTVS_ROTATABLE_BOND>
0

> <PUBCHEM_CACTVS_SUBSKEYS>
AAADceBwIAAAAAAAAAAAAAAAAAAAAYMAAAAwAAAAAAAAAAAAAAAAGgAACAAADxSggAICAAAAAgAAAAAAAAAAAAAAAAAAAAAAAAAAEAIAAAAAQAAEAAAAAAGAwPAPgAAAAAAAAACAAAYAADAAAYAADAAAAA==

> <PUBCHEM_IUPAC_OPENEYE_NAME>
1,3,3-trimethylnorbornan-2-ol

> <PUBCHEM_IUPAC_CAS_NAME>
2,2,4-trimethyl-3-bicyclo[2.2.1]heptanol

> <PUBCHEM_IUPAC_NAME>
2,2,4-trimethylbicyclo[2.2.1]heptan-3-ol

> <PUBCHEM_IUPAC_SYSTEMATIC_NAME>
2,2,4-trimethylbicyclo[2.2.1]heptan-3-ol

> <PUBCHEM_IUPAC_TRADITIONAL_NAME>
1,3,3-trimethylnorbornan-2-ol

> <PUBCHEM_IUPAC_INCHI>
InChI=1S/C10H18O/c1-9(2)7-4-5-10(3,6-7)8(9)11/h7-8,11H,4-6H2,1-3H3

> <PUBCHEM_IUPAC_INCHIKEY>
IAIHUHQCLTYTSF-UHFFFAOYSA-N

> <PUBCHEM_XLOGP3_AA>
2.5

> <PUBCHEM_EXACT_MASS>
154.135765

> <PUBCHEM_MOLECULAR_FORMULA>
C10H18O

> <PUBCHEM_MOLECULAR_WEIGHT>
154.24932

> <PUBCHEM_OPENEYE_CAN_SMILES>
CC1(C2CCC(C2)(C1O)C)C

> <PUBCHEM_OPENEYE_ISO_SMILES>
CC1(C2CCC(C2)(C1O)C)C

> <PUBCHEM_CACTVS_TPSA>
20.2

> <PUBCHEM_MONOISOTOPIC_WEIGHT>
154.135765

> <PUBCHEM_TOTAL_CHARGE>
0

> <PUBCHEM_HEAVY_ATOM_COUNT>
11

> <PUBCHEM_ATOM_DEF_STEREO_COUNT>
0

> <PUBCHEM_ATOM_UDEF_STEREO_COUNT>
3

> <PUBCHEM_BOND_DEF_STEREO_COUNT>
0

> <PUBCHEM_BOND_UDEF_STEREO_COUNT>
0

> <PUBCHEM_ISOTOPIC_ATOM_COUNT>
0

> <PUBCHEM_COMPONENT_COUNT>
1

> <PUBCHEM_CACTVS_TAUTO_COUNT>
1

> <PUBCHEM_COORDINATE_TYPE>
1
5
255

> <PUBCHEM_BONDANNOTATIONS>
5  1  3
2  9  3
3  4  3

$$$$

