23724733
  -OEChem-07051213083D

 69 73  0     1  0  0  0  0  0999 V2000
    2.1661    1.2822    0.0274 O   0  0  0  0  0  0  0  0  0  0  0  0
    2.8556   -0.4618    1.4155 O   0  0  0  0  0  0  0  0  0  0  0  0
    3.0492    4.8335   -0.1209 O   0  0  0  0  0  0  0  0  0  0  0  0
    5.3269    3.6317    1.1921 O   0  0  0  0  0  0  0  0  0  0  0  0
    4.4748    1.3561    2.8583 O   0  0  0  0  0  0  0  0  0  0  0  0
    0.0609    2.1733   -1.4990 O   0  0  0  0  0  0  0  0  0  0  0  0
    0.3657   -2.6652   -0.2068 O   0  3  0  0  0  0  0  0  0  0  0  0
   -1.0750    4.0013   -0.6587 O   0  0  0  0  0  0  0  0  0  0  0  0
   -1.7530   -0.6268    3.6608 O   0  0  0  0  0  0  0  0  0  0  0  0
   -4.2215   -3.5639    0.8480 O   0  0  0  0  0  0  0  0  0  0  0  0
    5.9441   -2.9996   -3.2133 O   0  0  0  0  0  0  0  0  0  0  0  0
   -8.1086   -0.6876   -0.9690 O   0  0  0  0  0  0  0  0  0  0  0  0
    3.2867    3.4304   -0.0432 C   0  0  1  0  0  0  0  0  0  0  0  0
    3.9993    3.1103    1.2710 C   0  0  1  0  0  0  0  0  0  0  0  0
    1.9526    2.6857   -0.1330 C   0  0  1  0  0  0  0  0  0  0  0  0
    4.0584    1.6024    1.5154 C   0  0  2  0  0  0  0  0  0  0  0  0
    2.6901    0.9520    1.3116 C   0  0  1  0  0  0  0  0  0  0  0  0
    1.2779    2.8967   -1.4847 C   0  0  0  0  0  0  0  0  0  0  0  0
    1.6637   -1.1254    1.2363 C   0  0  0  0  0  0  0  0  0  0  0  0
    1.4875   -2.0691    0.0872 C   0  0  0  0  0  0  0  0  0  0  0  0
    0.5981   -0.9353    2.0249 C   0  0  0  0  0  0  0  0  0  0  0  0
   -0.6630   -1.6146    1.7506 C   0  0  0  0  0  0  0  0  0  0  0  0
   -1.0434    2.8482   -1.0580 C   0  0  0  0  0  0  0  0  0  0  0  0
   -0.7437   -2.4515    0.6328 C   0  0  0  0  0  0  0  0  0  0  0  0
    2.6622   -2.3132   -0.7822 C   0  0  0  0  0  0  0  0  0  0  0  0
   -1.7862   -1.4358    2.5634 C   0  0  0  0  0  0  0  0  0  0  0  0
   -1.9383   -3.1059    0.3296 C   0  0  0  0  0  0  0  0  0  0  0  0
   -2.2072    1.9369   -1.1448 C   0  0  0  0  0  0  0  0  0  0  0  0
    3.5385   -3.3489   -0.4789 C   0  0  0  0  0  0  0  0  0  0  0  0
    2.8769   -1.5053   -1.8932 C   0  0  0  0  0  0  0  0  0  0  0  0
   -2.9799   -2.0924    2.2586 C   0  0  0  0  0  0  0  0  0  0  0  0
   -3.0559   -2.9258    1.1428 C   0  0  0  0  0  0  0  0  0  0  0  0
    4.6443   -3.5797   -1.2974 C   0  0  0  0  0  0  0  0  0  0  0  0
    3.9826   -1.7362   -2.7116 C   0  0  0  0  0  0  0  0  0  0  0  0
    4.8662   -2.7734   -2.4137 C   0  0  0  0  0  0  0  0  0  0  0  0
   -3.4189    2.3759   -0.7758 C   0  0  0  0  0  0  0  0  0  0  0  0
   -4.6518    1.5703   -0.8261 C   0  0  0  0  0  0  0  0  0  0  0  0
   -4.5582    0.1888   -0.8698 C   0  0  0  0  0  0  0  0  0  0  0  0
   -5.8804    2.2106   -0.8292 C   0  0  0  0  0  0  0  0  0  0  0  0
   -5.7255   -0.5734   -0.9181 C   0  0  0  0  0  0  0  0  0  0  0  0
   -7.0476    1.4482   -0.8772 C   0  0  0  0  0  0  0  0  0  0  0  0
   -6.9702    0.0563   -0.9218 C   0  0  0  0  0  0  0  0  0  0  0  0
    3.9394    3.1546   -0.8817 H   0  0  0  0  0  0  0  0  0  0  0  0
    3.5177    3.6238    2.1113 H   0  0  0  0  0  0  0  0  0  0  0  0
    1.2678    3.0276    0.6545 H   0  0  0  0  0  0  0  0  0  0  0  0
    4.8060    1.1412    0.8581 H   0  0  0  0  0  0  0  0  0  0  0  0
    2.0112    1.3064    2.0992 H   0  0  0  0  0  0  0  0  0  0  0  0
    1.1147    3.9541   -1.7190 H   0  0  0  0  0  0  0  0  0  0  0  0
    1.8985    2.4786   -2.2854 H   0  0  0  0  0  0  0  0  0  0  0  0
    2.8471    5.0508   -1.0462 H   0  0  0  0  0  0  0  0  0  0  0  0
    5.7870    3.1796    0.4644 H   0  0  0  0  0  0  0  0  0  0  0  0
    4.4865    0.3922    2.9873 H   0  0  0  0  0  0  0  0  0  0  0  0
    0.6812   -0.2831    2.8847 H   0  0  0  0  0  0  0  0  0  0  0  0
   -1.9836   -3.7532   -0.5419 H   0  0  0  0  0  0  0  0  0  0  0  0
   -2.0223    0.9415   -1.5312 H   0  0  0  0  0  0  0  0  0  0  0  0
    3.3728   -3.9824    0.3883 H   0  0  0  0  0  0  0  0  0  0  0  0
    2.1922   -0.6969   -2.1350 H   0  0  0  0  0  0  0  0  0  0  0  0
   -3.8537   -1.9526    2.8905 H   0  0  0  0  0  0  0  0  0  0  0  0
    5.3251   -4.3912   -1.0547 H   0  0  0  0  0  0  0  0  0  0  0  0
    4.1496   -1.1049   -3.5801 H   0  0  0  0  0  0  0  0  0  0  0  0
   -3.5445    3.3959   -0.4194 H   0  0  0  0  0  0  0  0  0  0  0  0
   -1.0919    0.0729    3.5458 H   0  0  0  0  0  0  0  0  0  0  0  0
   -4.0965   -4.0914    0.0405 H   0  0  0  0  0  0  0  0  0  0  0  0
    6.4459   -3.7541   -2.8596 H   0  0  0  0  0  0  0  0  0  0  0  0
   -3.6128   -0.3431   -0.8495 H   0  0  0  0  0  0  0  0  0  0  0  0
   -5.9572    3.2941   -0.7964 H   0  0  0  0  0  0  0  0  0  0  0  0
   -5.6528   -1.6570   -0.9502 H   0  0  0  0  0  0  0  0  0  0  0  0
   -8.0143    1.9444   -0.8802 H   0  0  0  0  0  0  0  0  0  0  0  0
   -7.8686   -1.6298   -0.9952 H   0  0  0  0  0  0  0  0  0  0  0  0
  1 15  1  0  0  0  0
  1 17  1  0  0  0  0
  2 17  1  0  0  0  0
  2 19  1  0  0  0  0
  3 13  1  0  0  0  0
  3 50  1  0  0  0  0
  4 14  1  0  0  0  0
  4 51  1  0  0  0  0
  5 16  1  0  0  0  0
  5 52  1  0  0  0  0
  6 18  1  0  0  0  0
  6 23  1  0  0  0  0
  7 20  2  0  0  0  0
  7 24  1  0  0  0  0
  8 23  2  0  0  0  0
  9 26  1  0  0  0  0
  9 62  1  0  0  0  0
 10 32  1  0  0  0  0
 10 63  1  0  0  0  0
 11 35  1  0  0  0  0
 11 64  1  0  0  0  0
 12 42  1  0  0  0  0
 12 69  1  0  0  0  0
 13 14  1  0  0  0  0
 13 15  1  0  0  0  0
 13 43  1  0  0  0  0
 14 16  1  0  0  0  0
 14 44  1  0  0  0  0
 15 18  1  0  0  0  0
 15 45  1  0  0  0  0
 16 17  1  0  0  0  0
 16 46  1  0  0  0  0
 17 47  1  0  0  0  0
 18 48  1  0  0  0  0
 18 49  1  0  0  0  0
 19 20  1  0  0  0  0
 19 21  2  0  0  0  0
 20 25  1  0  0  0  0
 21 22  1  0  0  0  0
 21 53  1  0  0  0  0
 22 24  1  0  0  0  0
 22 26  2  0  0  0  0
 23 28  1  0  0  0  0
 24 27  2  0  0  0  0
 25 29  2  0  0  0  0
 25 30  1  0  0  0  0
 26 31  1  0  0  0  0
 27 32  1  0  0  0  0
 27 54  1  0  0  0  0
 28 36  2  0  0  0  0
 28 55  1  0  0  0  0
 29 33  1  0  0  0  0
 29 56  1  0  0  0  0
 30 34  2  0  0  0  0
 30 57  1  0  0  0  0
 31 32  2  0  0  0  0
 31 58  1  0  0  0  0
 33 35  2  0  0  0  0
 33 59  1  0  0  0  0
 34 35  1  0  0  0  0
 34 60  1  0  0  0  0
 36 37  1  0  0  0  0
 36 61  1  0  0  0  0
 37 38  2  0  0  0  0
 37 39  1  0  0  0  0
 38 40  1  0  0  0  0
 38 65  1  0  0  0  0
 39 41  2  0  0  0  0
 39 66  1  0  0  0  0
 40 42  2  0  0  0  0
 40 67  1  0  0  0  0
 41 42  1  0  0  0  0
 41 68  1  0  0  0  0
M  CHG  1   7   1
M  END
> <PUBCHEM_COMPOUND_CID>
23724733

> <PUBCHEM_CONFORMER_RMSD>
1.2

> <PUBCHEM_CONFORMER_DIVERSEORDER>
1
7
85
3
74
174
202
101
27
179
177
165
140
182
81
112
107
60
155
204
19
186
80
121
119
180
181
39
21
63
131
88
116
41
123
160
209
162
59
216
215
97
136
178
56
185
108
223
8
26
29
86
198
197
71
193
152
184
55
33
93
195
171
219
10
159
48
154
18
11
151
133
170
221
125
141
205
175
9
102
99
22
13
87
147
42
111
79
190
103
43
132
58
157
172
45
46
176
208
30
50
68
189
109
53
32
211
17
199
214
139
115
158
169
217
110
194
5
161
2
137
188
187
73
44
130
16
67
95
98
72
37
128
66
222
84
25
38
117
12
96
156
91
124
40
200
64
47
28
54
142
118
196
105
106
69
23
14
203
144
134
51
213
183
100
57
220
218
89
113
20
65
146
150
77
206
167
61
90
35
126
127
49
153
120
70
164
92
210
191
34
129
78
212
6
62
31
207
52
104
76
163
166
4
143
201
75
94
168
24
135
138
173
192
114
122
83
36
149
82
15
145
148

> <PUBCHEM_MMFF94_PARTIAL_CHARGES>
62
1 -0.56
10 -0.53
11 -0.53
12 -0.53
13 0.28
14 0.28
15 0.28
16 0.28
17 0.56
18 0.28
19 0.09
2 -0.36
20 0.85
21 -0.18
22 0.03
23 0.71
24 0.92
25 0.09
26 0.08
27 -0.15
28 -0.14
29 -0.15
3 -0.68
30 -0.15
31 -0.15
32 0.08
33 -0.15
34 -0.15
35 0.08
36 -0.18
37 0.03
38 -0.15
39 -0.15
4 -0.68
40 -0.15
41 -0.15
42 0.08
5 -0.68
50 0.4
51 0.4
52 0.4
53 0.15
54 0.15
55 0.15
56 0.15
57 0.15
58 0.15
59 0.15
6 -0.43
60 0.15
61 0.15
62 0.45
63 0.45
64 0.45
65 0.15
66 0.15
67 0.15
68 0.15
69 0.45
7 -0.87
8 -0.57
9 -0.53

> <PUBCHEM_EFFECTIVE_ROTOR_COUNT>
9.2

> <PUBCHEM_PHARMACOPHORE_FEATURES>
18
1 1 acceptor
1 10 donor
1 11 donor
1 12 donor
1 2 acceptor
1 3 acceptor
1 3 donor
1 4 acceptor
1 4 donor
1 5 acceptor
1 5 donor
1 8 acceptor
1 9 donor
6 1 13 14 15 16 17 rings
6 22 24 26 27 31 32 rings
6 25 29 30 33 34 35 rings
6 37 38 39 40 41 42 rings
6 7 19 20 21 22 24 rings

> <PUBCHEM_HEAVY_ATOM_COUNT>
42

> <PUBCHEM_ATOM_DEF_STEREO_COUNT>
5

> <PUBCHEM_ATOM_UDEF_STEREO_COUNT>
0

> <PUBCHEM_BOND_DEF_STEREO_COUNT>
1

> <PUBCHEM_BOND_UDEF_STEREO_COUNT>
0

> <PUBCHEM_ISOTOPIC_ATOM_COUNT>
0

> <PUBCHEM_COMPONENT_COUNT>
1

> <PUBCHEM_CACTVS_TAUTO_COUNT>
82

> <PUBCHEM_CONFORMER_ID>
016A02BD00000001

> <PUBCHEM_MMFF94_ENERGY>
131.5217

> <PUBCHEM_FEATURE_SELFOVERLAP>
91.424

> <PUBCHEM_SHAPE_FINGERPRINT>
10032420 55 17771061884788213461
10169797 241 18271520987475728169
10864689 126 18055361490365599885
11411753 29 18198605688881109659
11513181 2 18263649467884894879
11578080 2 18409729530325950822
12156800 1 16987701429639443992
13751561 76 18341615927699157890
14068700 675 17896881169154492177
15219648 60 17988922331383533803
15721738 202 17313671562898058524
15968369 153 18271803459781656259
15975801 100 17059212733738523366
17909252 39 18189901009388116583
20764821 26 18200858609274076767
20775438 99 18337689528785382335
21197605 99 18199477580147327785
238918 7 18194682558172317500
24941158 1 17968085396636522716
3388396 114 17676758790950590512
437795 70 18341042034127401343
5081480 168 18190716761137802718
508180 173 18267292325753072003
513532 50 18409735070896488294
5171179 24 18338504283785735166
5776283 40 18341040908650583286
6086070 43 18411693322602434762
6823239 73 18120668073538528501

> <PUBCHEM_SHAPE_MULTIPOLES>
793.91
14.61
6.14
2.8
20.56
3.06
-0.8
-0.3
7.78
-5.98
0.64
-2.82
-1.54
6.59

> <PUBCHEM_SHAPE_SELFOVERLAP>
1739.535

> <PUBCHEM_SHAPE_VOLUME>
425

> <PUBCHEM_COORDINATE_TYPE>
2
5
10

$$$$

