17396310
  -OEChem-06241222552D

 39 41  0     0  0  0  0  0  0999 V2000
    6.3301   -1.7500    0.0000 O   0  0  0  0  0  0  0  0  0  0  0  0
    9.7942    2.2500    0.0000 O   0  0  0  0  0  0  0  0  0  0  0  0
    9.7942   -0.7500    0.0000 N   0  0  0  0  0  0  0  0  0  0  0  0
    8.9282    0.7500    0.0000 N   0  0  0  0  0  0  0  0  0  0  0  0
    5.4641   -0.2500    0.0000 N   0  0  0  0  0  0  0  0  0  0  0  0
    3.7320   -0.2500    0.0000 N   0  0  0  0  0  0  0  0  0  0  0  0
    8.0622   -0.7500    0.0000 C   0  0  0  0  0  0  0  0  0  0  0  0
    8.9282   -0.2500    0.0000 C   0  0  0  0  0  0  0  0  0  0  0  0
    7.1962   -0.2500    0.0000 C   0  0  0  0  0  0  0  0  0  0  0  0
   10.6603   -0.2500    0.0000 C   0  0  0  0  0  0  0  0  0  0  0  0
   10.6603    0.7500    0.0000 C   0  0  0  0  0  0  0  0  0  0  0  0
    6.3301   -0.7500    0.0000 C   0  0  0  0  0  0  0  0  0  0  0  0
    9.7942    1.2500    0.0000 C   0  0  0  0  0  0  0  0  0  0  0  0
   11.5542   -0.7847    0.0000 C   0  0  0  0  0  0  0  0  0  0  0  0
   11.5542    1.2847    0.0000 C   0  0  0  0  0  0  0  0  0  0  0  0
   12.4603   -0.2708    0.0000 C   0  0  0  0  0  0  0  0  0  0  0  0
   12.4603    0.7708    0.0000 C   0  0  0  0  0  0  0  0  0  0  0  0
    4.5981   -0.7500    0.0000 C   0  0  0  0  0  0  0  0  0  0  0  0
    4.5981   -1.7500    0.0000 C   0  0  0  0  0  0  0  0  0  0  0  0
    2.8660   -0.7500    0.0000 C   0  0  0  0  0  0  0  0  0  0  0  0
    3.7320   -2.2500    0.0000 C   0  0  0  0  0  0  0  0  0  0  0  0
    2.8660   -1.7500    0.0000 C   0  0  0  0  0  0  0  0  0  0  0  0
    2.0000   -0.2500    0.0000 C   0  0  0  0  0  0  0  0  0  0  0  0
    7.6636   -1.2250    0.0000 H   0  0  0  0  0  0  0  0  0  0  0  0
    8.4607   -1.2250    0.0000 H   0  0  0  0  0  0  0  0  0  0  0  0
    7.5947    0.2249    0.0000 H   0  0  0  0  0  0  0  0  0  0  0  0
    6.7976    0.2249    0.0000 H   0  0  0  0  0  0  0  0  0  0  0  0
    9.7942   -1.3700    0.0000 H   0  0  0  0  0  0  0  0  0  0  0  0
   11.5470   -1.4046    0.0000 H   0  0  0  0  0  0  0  0  0  0  0  0
   11.5470    1.9046    0.0000 H   0  0  0  0  0  0  0  0  0  0  0  0
    5.4641    0.3700    0.0000 H   0  0  0  0  0  0  0  0  0  0  0  0
   12.9960   -0.5829    0.0000 H   0  0  0  0  0  0  0  0  0  0  0  0
   12.9960    1.0829    0.0000 H   0  0  0  0  0  0  0  0  0  0  0  0
    5.1350   -2.0600    0.0000 H   0  0  0  0  0  0  0  0  0  0  0  0
    3.7320   -2.8700    0.0000 H   0  0  0  0  0  0  0  0  0  0  0  0
    2.3291   -2.0600    0.0000 H   0  0  0  0  0  0  0  0  0  0  0  0
    2.3100    0.2869    0.0000 H   0  0  0  0  0  0  0  0  0  0  0  0
    1.4631    0.0600    0.0000 H   0  0  0  0  0  0  0  0  0  0  0  0
    1.6900   -0.7869    0.0000 H   0  0  0  0  0  0  0  0  0  0  0  0
  1 12  2  0  0  0  0
  2 13  2  0  0  0  0
  3  8  1  0  0  0  0
  3 10  1  0  0  0  0
  3 28  1  0  0  0  0
  4  8  2  0  0  0  0
  4 13  1  0  0  0  0
  5 12  1  0  0  0  0
  5 18  1  0  0  0  0
  5 31  1  0  0  0  0
  6 18  1  0  0  0  0
  6 20  2  0  0  0  0
  7  8  1  0  0  0  0
  7  9  1  0  0  0  0
  7 24  1  0  0  0  0
  7 25  1  0  0  0  0
  9 12  1  0  0  0  0
  9 26  1  0  0  0  0
  9 27  1  0  0  0  0
 10 11  1  0  0  0  0
 10 14  2  0  0  0  0
 11 13  1  0  0  0  0
 11 15  2  0  0  0  0
 14 16  1  0  0  0  0
 14 29  1  0  0  0  0
 15 17  1  0  0  0  0
 15 30  1  0  0  0  0
 16 17  2  0  0  0  0
 16 32  1  0  0  0  0
 17 33  1  0  0  0  0
 18 19  2  0  0  0  0
 19 21  1  0  0  0  0
 19 34  1  0  0  0  0
 20 22  1  0  0  0  0
 20 23  1  0  0  0  0
 21 22  2  0  0  0  0
 21 35  1  0  0  0  0
 22 36  1  0  0  0  0
 23 37  1  0  0  0  0
 23 38  1  0  0  0  0
 23 39  1  0  0  0  0
M  END
> <PUBCHEM_COMPOUND_CID>
17396310

> <PUBCHEM_COMPOUND_CANONICALIZED>
1

> <PUBCHEM_CACTVS_COMPLEXITY>
491

> <PUBCHEM_CACTVS_HBOND_ACCEPTOR>
3

> <PUBCHEM_CACTVS_HBOND_DONOR>
2

> <PUBCHEM_CACTVS_ROTATABLE_BOND>
4

> <PUBCHEM_CACTVS_SUBSKEYS>
AAADceB7sAAAAAAAAAAAAAAAAAAAAAAAAAA8QIAAAAAAAACBwAAAHgAQAAAADAiBngAz8JLIEACoAydydACCgCklAiAJmCEwZNiIIPrA3ZGEIYholQLIyecciACOAAAAAAACAAAAAAAAAAQAAAAAAAAAAA==

> <PUBCHEM_IUPAC_OPENEYE_NAME>
N-(6-methyl-2-pyridyl)-3-(4-oxo-1H-quinazolin-2-yl)propanamide

> <PUBCHEM_IUPAC_CAS_NAME>
N-(6-methyl-2-pyridinyl)-3-(4-oxo-1H-quinazolin-2-yl)propanamide

> <PUBCHEM_IUPAC_NAME>
N-(6-methylpyridin-2-yl)-3-(4-oxo-1H-quinazolin-2-yl)propanamide

> <PUBCHEM_IUPAC_SYSTEMATIC_NAME>
N-(6-methylpyridin-2-yl)-3-(4-oxidanylidene-1H-quinazolin-2-yl)propanamide

> <PUBCHEM_IUPAC_TRADITIONAL_NAME>
3-(4-keto-1H-quinazolin-2-yl)-N-(6-methyl-2-pyridyl)propionamide

> <PUBCHEM_IUPAC_INCHI>
InChI=1S/C17H16N4O2/c1-11-5-4-8-14(18-11)20-16(22)10-9-15-19-13-7-3-2-6-12(13)17(23)21-15/h2-8H,9-10H2,1H3,(H,18,20,22)(H,19,21,23)

> <PUBCHEM_IUPAC_INCHIKEY>
KDFXPPMJCJJTES-UHFFFAOYSA-N

> <PUBCHEM_XLOGP3_AA>
1.1

> <PUBCHEM_EXACT_MASS>
308.127326

> <PUBCHEM_MOLECULAR_FORMULA>
C17H16N4O2

> <PUBCHEM_MOLECULAR_WEIGHT>
308.33454

> <PUBCHEM_OPENEYE_CAN_SMILES>
CC1=NC(=CC=C1)NC(=O)CCC2=NC(=O)C3=CC=CC=C3N2

> <PUBCHEM_OPENEYE_ISO_SMILES>
CC1=NC(=CC=C1)NC(=O)CCC2=NC(=O)C3=CC=CC=C3N2

> <PUBCHEM_CACTVS_TPSA>
83.4

> <PUBCHEM_MONOISOTOPIC_WEIGHT>
308.127326

> <PUBCHEM_TOTAL_CHARGE>
0

> <PUBCHEM_HEAVY_ATOM_COUNT>
23

> <PUBCHEM_ATOM_DEF_STEREO_COUNT>
0

> <PUBCHEM_ATOM_UDEF_STEREO_COUNT>
0

> <PUBCHEM_BOND_DEF_STEREO_COUNT>
0

> <PUBCHEM_BOND_UDEF_STEREO_COUNT>
0

> <PUBCHEM_ISOTOPIC_ATOM_COUNT>
0

> <PUBCHEM_COMPONENT_COUNT>
1

> <PUBCHEM_CACTVS_TAUTO_COUNT>
132

> <PUBCHEM_COORDINATE_TYPE>
1
5
255

> <PUBCHEM_BONDANNOTATIONS>
10  11  8
10  14  8
11  13  8
11  15  8
14  16  8
15  17  8
16  17  8
18  19  8
19  21  8
20  22  8
21  22  8
3  10  8
3  8  8
4  13  8
4  8  8
6  18  8
6  20  8

$$$$

