442788
  -OEChem-07051212593D

 39 41  0     1  0  0  0  0  0999 V2000
    1.7875   -1.1460   -1.7354 O   0  0  0  0  0  0  0  0  0  0  0  0
    0.3147    0.7327    1.6077 O   0  0  0  0  0  0  0  0  0  0  0  0
   -2.2185   -2.4260    0.6578 O   0  0  0  0  0  0  0  0  0  0  0  0
    2.6904    1.5828    2.1828 O   0  0  0  0  0  0  0  0  0  0  0  0
   -5.5823    0.8424   -0.1885 O   0  0  0  0  0  0  0  0  0  0  0  0
    6.2099    0.2040   -0.6865 O   0  0  0  0  0  0  0  0  0  0  0  0
   -0.1330   -0.7017   -0.2927 C   0  0  2  0  0  0  0  0  0  0  0  0
    0.4428   -0.6557   -1.7084 C   0  0  0  0  0  0  0  0  0  0  0  0
   -1.5928   -0.3016   -0.2590 C   0  0  0  0  0  0  0  0  0  0  0  0
    0.7332    0.1613    0.6074 C   0  0  0  0  0  0  0  0  0  0  0  0
    2.1676    0.2194    0.2499 C   0  0  0  0  0  0  0  0  0  0  0  0
    2.6164   -0.4547   -0.8900 C   0  0  0  0  0  0  0  0  0  0  0  0
   -2.5632   -1.1842    0.2156 C   0  0  0  0  0  0  0  0  0  0  0  0
   -1.9635    0.9656   -0.7094 C   0  0  0  0  0  0  0  0  0  0  0  0
    3.0726    0.9055    1.0643 C   0  0  0  0  0  0  0  0  0  0  0  0
    3.9781   -0.4710   -1.1957 C   0  0  0  0  0  0  0  0  0  0  0  0
   -3.9040   -0.7999    0.2395 C   0  0  0  0  0  0  0  0  0  0  0  0
   -3.3040    1.3500   -0.6854 C   0  0  0  0  0  0  0  0  0  0  0  0
    4.4303    0.9023    0.7420 C   0  0  0  0  0  0  0  0  0  0  0  0
   -4.2743    0.4672   -0.2109 C   0  0  0  0  0  0  0  0  0  0  0  0
    4.8828    0.2116   -0.3824 C   0  0  0  0  0  0  0  0  0  0  0  0
   -1.8999   -2.5556    2.0419 C   0  0  0  0  0  0  0  0  0  0  0  0
   -5.8908    2.1516   -0.6646 C   0  0  0  0  0  0  0  0  0  0  0  0
    0.0008   -1.7230    0.0851 H   0  0  0  0  0  0  0  0  0  0  0  0
   -0.1445   -1.2981   -2.3752 H   0  0  0  0  0  0  0  0  0  0  0  0
    0.4294    0.3516   -2.1456 H   0  0  0  0  0  0  0  0  0  0  0  0
   -1.2224    1.6712   -1.0750 H   0  0  0  0  0  0  0  0  0  0  0  0
    4.3280   -1.0087   -2.0738 H   0  0  0  0  0  0  0  0  0  0  0  0
   -4.6613   -1.4873    0.6080 H   0  0  0  0  0  0  0  0  0  0  0  0
   -3.5217    2.3487   -1.0480 H   0  0  0  0  0  0  0  0  0  0  0  0
    5.1475    1.4301    1.3664 H   0  0  0  0  0  0  0  0  0  0  0  0
    3.4706    1.9846    2.6018 H   0  0  0  0  0  0  0  0  0  0  0  0
   -2.7911   -2.3798    2.6524 H   0  0  0  0  0  0  0  0  0  0  0  0
   -1.1062   -1.8607    2.3329 H   0  0  0  0  0  0  0  0  0  0  0  0
   -1.5516   -3.5769    2.2186 H   0  0  0  0  0  0  0  0  0  0  0  0
    6.3454   -0.3205   -1.4943 H   0  0  0  0  0  0  0  0  0  0  0  0
   -5.4243    2.9252   -0.0452 H   0  0  0  0  0  0  0  0  0  0  0  0
   -6.9744    2.2811   -0.5751 H   0  0  0  0  0  0  0  0  0  0  0  0
   -5.6421    2.2630   -1.7255 H   0  0  0  0  0  0  0  0  0  0  0  0
  1  8  1  0  0  0  0
  1 12  1  0  0  0  0
  2 10  2  0  0  0  0
  3 13  1  0  0  0  0
  3 22  1  0  0  0  0
  4 15  1  0  0  0  0
  4 32  1  0  0  0  0
  5 20  1  0  0  0  0
  5 23  1  0  0  0  0
  6 21  1  0  0  0  0
  6 36  1  0  0  0  0
  7  8  1  0  0  0  0
  7  9  1  0  0  0  0
  7 10  1  0  0  0  0
  7 24  1  0  0  0  0
  8 25  1  0  0  0  0
  8 26  1  0  0  0  0
  9 13  2  0  0  0  0
  9 14  1  0  0  0  0
 10 11  1  0  0  0  0
 11 12  1  0  0  0  0
 11 15  2  0  0  0  0
 12 16  2  0  0  0  0
 13 17  1  0  0  0  0
 14 18  2  0  0  0  0
 14 27  1  0  0  0  0
 15 19  1  0  0  0  0
 16 21  1  0  0  0  0
 16 28  1  0  0  0  0
 17 20  2  0  0  0  0
 17 29  1  0  0  0  0
 18 20  1  0  0  0  0
 18 30  1  0  0  0  0
 19 21  2  0  0  0  0
 19 31  1  0  0  0  0
 22 33  1  0  0  0  0
 22 34  1  0  0  0  0
 22 35  1  0  0  0  0
 23 37  1  0  0  0  0
 23 38  1  0  0  0  0
 23 39  1  0  0  0  0
M  END
> <PUBCHEM_COMPOUND_CID>
442788

> <PUBCHEM_CONFORMER_RMSD>
0.6

> <PUBCHEM_CONFORMER_DIVERSEORDER>
1
18
22
28
8
15
26
17
25
27
16
5
31
13
30
7
20
29
10
4
19
21
12
24
11
3
23
14
6
2
9

> <PUBCHEM_MMFF94_PARTIAL_CHARGES>
30
1 -0.36
10 0.42
11 0.09
12 0.08
13 0.08
14 -0.15
15 0.08
16 -0.15
17 -0.15
18 -0.15
19 -0.15
2 -0.57
20 0.08
21 0.08
22 0.28
23 0.28
27 0.15
28 0.15
29 0.15
3 -0.36
30 0.15
31 0.15
32 0.45
36 0.45
4 -0.53
5 -0.36
6 -0.53
7 0.2
8 0.28
9 -0.14

> <PUBCHEM_EFFECTIVE_ROTOR_COUNT>
3.6

> <PUBCHEM_PHARMACOPHORE_FEATURES>
9
1 1 acceptor
1 2 acceptor
1 3 acceptor
1 4 donor
1 5 acceptor
1 6 donor
6 1 7 8 10 11 12 rings
6 11 12 15 16 19 21 rings
6 9 13 14 17 18 20 rings

> <PUBCHEM_HEAVY_ATOM_COUNT>
23

> <PUBCHEM_ATOM_DEF_STEREO_COUNT>
0

> <PUBCHEM_ATOM_UDEF_STEREO_COUNT>
1

> <PUBCHEM_BOND_DEF_STEREO_COUNT>
0

> <PUBCHEM_BOND_UDEF_STEREO_COUNT>
0

> <PUBCHEM_ISOTOPIC_ATOM_COUNT>
0

> <PUBCHEM_COMPONENT_COUNT>
1

> <PUBCHEM_CACTVS_TAUTO_COUNT>
21

> <PUBCHEM_CONFORMER_ID>
0006C1A400000001

> <PUBCHEM_MMFF94_ENERGY>
88.1832

> <PUBCHEM_FEATURE_SELFOVERLAP>
45.699

> <PUBCHEM_SHAPE_FINGERPRINT>
10366900 7 18260828206661912998
10693767 8 15936966470250111564
11471102 20 17313104150916669644
11796584 16 18343298176686006578
12011746 2 17748823029866835884
12166972 35 14851614275543130353
12236239 1 16702303455554321637
12403259 415 18114182986474896817
12553582 1 14620523289904891414
12596602 18 16702010963786491437
12616971 3 15554452864558027974
12633257 1 18059588961401664993
12730499 353 18113335332257074031
12788726 201 18187928455400195617
13402501 40 18187367644351094845
13583140 156 18334574608006570998
13911987 19 17458617874928641324
14294032 229 17845946225497085549
14341114 328 16128369411548326217
14386348 63 18259979358047477894
15375358 24 18259983768952536663
15537594 2 15482674567784907026
17349148 13 15068618284094555342
1813 80 15051453868451306478
200 152 15719110271135320211
20554085 129 18271821167705055569
20612939 158 16950567657957924760
20645477 56 18272088309943194325
20645477 70 17385438851870531902
20681677 155 17989485212511112082
21033648 29 18187937135861071952
212916 134 18202289121505194803
21792961 116 18188194478133795830
221357 26 17458348584289183793
22289505 5 17822014254399642344
23402539 116 18342461434966349607
23493267 7 18411140233998510770
23557571 272 18339917134852473231
23559900 14 18341044198859353886
23598288 3 17201616884549040187
4072396 5 17749682886793959542
495365 180 17749122100744302843
5265222 85 18126828427716923990
542803 24 16989126452400996732
602551 16 18130787798472587402
633830 44 18339092479767593972
77492 1 16630529496819663991

> <PUBCHEM_SHAPE_MULTIPOLES>
438.11
11.75
1.88
1.58
0.24
1.09
0.32
-5.69
-0.77
3.08
0.63
-1.59
0.09
1.27

> <PUBCHEM_SHAPE_SELFOVERLAP>
961.759

> <PUBCHEM_SHAPE_VOLUME>
235.8

> <PUBCHEM_COORDINATE_TYPE>
2
5
10

$$$$

