3313
  -OEChem-06251223203D

 46 47  0     1  0  0  0  0  0999 V2000
   -0.2118   -0.8669    0.6092 O   0  0  0  0  0  0  0  0  0  0  0  0
   -0.6814   -2.4168   -1.0329 O   0  0  0  0  0  0  0  0  0  0  0  0
   -3.2995   -2.3944   -0.4039 O   0  0  0  0  0  0  0  0  0  0  0  0
    3.3923    0.1475    0.7584 N   0  0  2  0  0  0  0  0  0  0  0  0
    3.5698    0.5309   -0.6741 C   0  0  0  0  0  0  0  0  0  0  0  0
    1.9694    0.0372    1.1809 C   0  0  1  0  0  0  0  0  0  0  0  0
    2.7701   -0.4417   -1.5799 C   0  0  0  0  0  0  0  0  0  0  0  0
    1.1719   -0.9140    0.2624 C   0  0  2  0  0  0  0  0  0  0  0  0
    1.3045   -0.5342   -1.2029 C   0  0  0  0  0  0  0  0  0  0  0  0
    5.0519    0.3709   -1.1010 C   0  0  0  0  0  0  0  0  0  0  0  0
    3.1498    1.9889   -0.9718 C   0  0  0  0  0  0  0  0  0  0  0  0
    1.8246   -0.4650    2.6336 C   0  0  0  0  0  0  0  0  0  0  0  0
    4.1631    0.9877    1.6841 C   0  0  0  0  0  0  0  0  0  0  0  0
   -1.0352   -1.6755   -0.1248 C   0  0  0  0  0  0  0  0  0  0  0  0
   -2.4718   -1.5015    0.3276 C   0  0  1  0  0  0  0  0  0  0  0  0
   -2.9798   -0.0952    0.1248 C   0  0  0  0  0  0  0  0  0  0  0  0
   -3.9439    0.4099    0.9832 C   0  0  0  0  0  0  0  0  0  0  0  0
   -2.4736    0.6669   -0.9164 C   0  0  0  0  0  0  0  0  0  0  0  0
   -4.4136    1.7098    0.7956 C   0  0  0  0  0  0  0  0  0  0  0  0
   -2.9433    1.9669   -1.1041 C   0  0  0  0  0  0  0  0  0  0  0  0
   -3.9133    2.4884   -0.2480 C   0  0  0  0  0  0  0  0  0  0  0  0
    1.4937    1.0268    1.1505 H   0  0  0  0  0  0  0  0  0  0  0  0
    3.2099   -1.4474   -1.5218 H   0  0  0  0  0  0  0  0  0  0  0  0
    2.8487   -0.1332   -2.6307 H   0  0  0  0  0  0  0  0  0  0  0  0
    1.5339   -1.9410    0.4135 H   0  0  0  0  0  0  0  0  0  0  0  0
    0.7965    0.4190   -1.3933 H   0  0  0  0  0  0  0  0  0  0  0  0
    0.8603   -1.2404   -1.9043 H   0  0  0  0  0  0  0  0  0  0  0  0
    5.1568    0.4550   -2.1897 H   0  0  0  0  0  0  0  0  0  0  0  0
    5.7001    1.1396   -0.6683 H   0  0  0  0  0  0  0  0  0  0  0  0
    5.4453   -0.6103   -0.8102 H   0  0  0  0  0  0  0  0  0  0  0  0
    2.1136    2.1949   -0.6883 H   0  0  0  0  0  0  0  0  0  0  0  0
    3.7854    2.7093   -0.4452 H   0  0  0  0  0  0  0  0  0  0  0  0
    3.2408    2.2074   -2.0425 H   0  0  0  0  0  0  0  0  0  0  0  0
    0.7761   -0.6493    2.8911 H   0  0  0  0  0  0  0  0  0  0  0  0
    2.3739   -1.4008    2.7855 H   0  0  0  0  0  0  0  0  0  0  0  0
    2.1884    0.2725    3.3559 H   0  0  0  0  0  0  0  0  0  0  0  0
    4.2270    0.5237    2.6735 H   0  0  0  0  0  0  0  0  0  0  0  0
    3.7269    1.9857    1.7991 H   0  0  0  0  0  0  0  0  0  0  0  0
    5.2060    1.1025    1.3781 H   0  0  0  0  0  0  0  0  0  0  0  0
   -2.5189   -1.7948    1.3826 H   0  0  0  0  0  0  0  0  0  0  0  0
   -3.3917   -2.0579   -1.3117 H   0  0  0  0  0  0  0  0  0  0  0  0
   -4.3405   -0.1896    1.7975 H   0  0  0  0  0  0  0  0  0  0  0  0
   -1.7381    0.2819   -1.6154 H   0  0  0  0  0  0  0  0  0  0  0  0
   -5.1694    2.1157    1.4616 H   0  0  0  0  0  0  0  0  0  0  0  0
   -2.5581    2.5712   -1.9202 H   0  0  0  0  0  0  0  0  0  0  0  0
   -4.2800    3.5000   -0.3950 H   0  0  0  0  0  0  0  0  0  0  0  0
  1  8  1  0  0  0  0
  1 14  1  0  0  0  0
  2 14  2  0  0  0  0
  3 15  1  0  0  0  0
  3 41  1  0  0  0  0
  4  5  1  0  0  0  0
  4  6  1  0  0  0  0
  4 13  1  0  0  0  0
  5  7  1  0  0  0  0
  5 10  1  0  0  0  0
  5 11  1  0  0  0  0
  6  8  1  0  0  0  0
  6 12  1  0  0  0  0
  6 22  1  0  0  0  0
  7  9  1  0  0  0  0
  7 23  1  0  0  0  0
  7 24  1  0  0  0  0
  8  9  1  0  0  0  0
  8 25  1  0  0  0  0
  9 26  1  0  0  0  0
  9 27  1  0  0  0  0
 10 28  1  0  0  0  0
 10 29  1  0  0  0  0
 10 30  1  0  0  0  0
 11 31  1  0  0  0  0
 11 32  1  0  0  0  0
 11 33  1  0  0  0  0
 12 34  1  0  0  0  0
 12 35  1  0  0  0  0
 12 36  1  0  0  0  0
 13 37  1  0  0  0  0
 13 38  1  0  0  0  0
 13 39  1  0  0  0  0
 14 15  1  0  0  0  0
 15 16  1  0  0  0  0
 15 40  1  0  0  0  0
 16 17  2  0  0  0  0
 16 18  1  0  0  0  0
 17 19  1  0  0  0  0
 17 42  1  0  0  0  0
 18 20  2  0  0  0  0
 18 43  1  0  0  0  0
 19 21  2  0  0  0  0
 19 44  1  0  0  0  0
 20 21  1  0  0  0  0
 20 45  1  0  0  0  0
 21 46  1  0  0  0  0
M  END
> <PUBCHEM_COMPOUND_CID>
3313

> <PUBCHEM_CONFORMER_RMSD>
0.8

> <PUBCHEM_CONFORMER_DIVERSEORDER>
1
194
3
49
93
170
219
272
6
125
76
176
71
181
139
144
223
129
244
192
103
44
13
42
254
195
282
52
274
217
27
96
63
115
155
64
56
231
197
230
32
57
29
131
276
136
14
37
117
175
127
182
227
251
5
264
98
260
158
150
70
203
133
262
106
46
212
83
86
237
177
8
140
35
236
241
198
196
31
207
82
74
164
26
190
186
247
128
141
134
58
18
11
10
250
256
253
124
157
211
279
215
232
67
12
238
167
147
17
138
216
235
85
50
43
201
183
221
24
268
72
114
248
48
179
55
280
41
214
148
224
154
23
180
269
188
185
163
137
77
59
97
265
20
110
16
22
171
258
66
120
225
263
45
240
261
200
270
220
184
246
189
62
234
33
142
61
121
105
73
275
78
112
249
4
34
109
143
126
89
68
281
165
88
122
209
132
21
123
116
162
108
222
204
60
168
202
107
40
173
277
84
130
135
206
80
210
245
119
259
160
79
278
187
233
146
36
252
7
19
191
255
102
218
92
239
113
271
228
169
95
47
100
267
2
69
38
193
242
104
273
118
90
178
54
87
145
205
161
15
65
208
159
99
111
257
172
39
81
174
266
53
226
153
25
51
213
94
152
75
243
91
101
28
199
149
156
229
9
30
151
166

> <PUBCHEM_MMFF94_PARTIAL_CHARGES>
22
1 -0.43
13 0.27
14 0.66
15 0.48
16 -0.14
17 -0.15
18 -0.15
19 -0.15
2 -0.57
20 -0.15
21 -0.15
3 -0.68
4 -0.81
41 0.4
42 0.15
43 0.15
44 0.15
45 0.15
46 0.15
5 0.27
6 0.27
8 0.28

> <PUBCHEM_EFFECTIVE_ROTOR_COUNT>
5.2

> <PUBCHEM_PHARMACOPHORE_FEATURES>
7
1 2 acceptor
1 3 acceptor
1 3 donor
1 4 cation
3 5 10 11 hydrophobe
6 16 17 18 19 20 21 rings
6 4 5 6 7 8 9 rings

> <PUBCHEM_HEAVY_ATOM_COUNT>
21

> <PUBCHEM_ATOM_DEF_STEREO_COUNT>
0

> <PUBCHEM_ATOM_UDEF_STEREO_COUNT>
3

> <PUBCHEM_BOND_DEF_STEREO_COUNT>
0

> <PUBCHEM_BOND_UDEF_STEREO_COUNT>
0

> <PUBCHEM_ISOTOPIC_ATOM_COUNT>
0

> <PUBCHEM_COMPONENT_COUNT>
1

> <PUBCHEM_CACTVS_TAUTO_COUNT>
1

> <PUBCHEM_CONFORMER_ID>
00000CF100000001

> <PUBCHEM_MMFF94_ENERGY>
51.2161

> <PUBCHEM_FEATURE_SELFOVERLAP>
35.527

> <PUBCHEM_SHAPE_FINGERPRINT>
10165383 225 18042666421478815163
10366900 7 17274816922433209953
10498660 4 18334017232957519393
10646746 165 18408041793109577740
10759866 29 17916864745961270392
11595378 159 17775565338407573317
12173636 292 18260548944152561719
12403259 415 17894625916545868338
12596602 18 16988268790439836633
12633257 1 18272096001950533908
12788726 201 18057608655567623531
12892183 10 16271639100677783089
13134695 92 16515963765782211320
13224815 77 17346880048267546181
13257819 101 17387712517911841128
13965767 371 17987246714084873317
14251757 17 17749109954719111320
14251764 30 14202837463056398797
14252887 29 12967126112568445228
14341114 328 17346588699472499009
14739800 52 18054237523221343032
14957384 54 18130516322026722037
15342168 16 18192990637906510409
1741750 31 18408324414784644611
1798214 55 18335985375808611177
18186145 218 17748828535508403107
19078846 21 18202291281968924068
19862831 5 4678813939376803861
200 152 14418127439715596362
20261772 1 18060134357813165892
20645477 56 18261101976842068347
20645477 70 15791723084343682076
20671657 53 6843909564778388507
20715895 44 17125943284783783141
20739085 24 15913330230238456118
21427221 339 17702678794159123872
21503847 285 17703787063568055568
21756936 100 17631719488073643388
21864079 5 18202560644547126972
22646028 28 8358253731174114917
23557571 272 18261380118681421583
23559900 14 18115015412005181262
238 59 16298395655593302126
25 1 17603860156527138967
2637199 183 18272640273270006532
27216 239 18272645771234509385
312423 11 17918001576412363859
3268164 11 18187937127461119463
341906 21 18411147917426101208
38570 142 16915063315474873492
392239 28 17058061330658859113
463206 1 8501497002625450997
474 4 16845283904696555084
5161694 15 17749380486150754348
5281201 14 17895465939102841044
5895379 119 18409726249382510260
6049 1 17459191785316803131
633830 44 17561072601777142686
7097593 13 17201655560486499619
7399639 24 17245000228635407410
7615 1 17845393114190196963
7808743 9 18411975871215019517

> <PUBCHEM_SHAPE_MULTIPOLES>
409.58
9.72
2.32
1.76
0.69
0.05
0.81
5.19
0.4
-2.51
-0.59
1.68
-0.08
-0.36

> <PUBCHEM_SHAPE_SELFOVERLAP>
847.978

> <PUBCHEM_SHAPE_VOLUME>
234.5

> <PUBCHEM_COORDINATE_TYPE>
2
5
10

$$$$

