461204
  -OEChem-07051213073D

 90 93  0     1  0  0  0  0  0999 V2000
    3.8817   -3.3710   -1.3733 S   0  0  0  0  0  0  0  0  0  0  0  0
   -0.9642    1.4395    3.2701 O   0  0  0  0  0  0  0  0  0  0  0  0
    2.4380    1.8452   -0.6785 O   0  0  0  0  0  0  0  0  0  0  0  0
   -2.1720   -0.9987   -0.5206 O   0  0  0  0  0  0  0  0  0  0  0  0
   -4.8152   -1.4701   -0.7145 O   0  0  0  0  0  0  0  0  0  0  0  0
    1.5197   -0.2656    1.0827 N   0  0  1  0  0  0  0  0  0  0  0  0
    3.8645    2.2222    1.1221 N   0  0  0  0  0  0  0  0  0  0  0  0
   -2.5142    0.9631    0.6808 N   0  0  0  0  0  0  0  0  0  0  0  0
    8.4205   -3.3192   -0.7385 N   0  0  0  0  0  0  0  0  0  0  0  0
    2.9345    0.0384    0.8011 C   0  0  1  0  0  0  0  0  0  0  0  0
    3.5046   -0.8535   -0.3136 C   0  0  0  0  0  0  0  0  0  0  0  0
    3.3175   -2.3335    0.0148 C   0  0  1  0  0  0  0  0  0  0  0  0
    1.3434   -1.6876    1.4276 C   0  0  0  0  0  0  0  0  0  0  0  0
    1.8480   -2.6145    0.3197 C   0  0  0  0  0  0  0  0  0  0  0  0
    0.9877    0.5586    2.1752 C   0  0  0  0  0  0  0  0  0  0  0  0
   -0.5430    0.6759    2.1368 C   0  0  2  0  0  0  0  0  0  0  0  0
    3.0319    1.4567    0.3239 C   0  0  0  0  0  0  0  0  0  0  0  0
   -1.1233    1.3230    0.8596 C   0  0  2  0  0  0  0  0  0  0  0  0
    4.1447    3.6162    0.8638 C   0  0  0  0  0  0  0  0  0  0  0  0
   -0.9649    2.8566    0.8880 C   0  0  0  0  0  0  0  0  0  0  0  0
    5.6523   -3.3502   -1.1253 C   0  0  0  0  0  0  0  0  0  0  0  0
    2.8346    4.4117    0.9006 C   0  0  0  0  0  0  0  0  0  0  0  0
    4.7935    3.7490   -0.5179 C   0  0  0  0  0  0  0  0  0  0  0  0
    5.0991    4.1487    1.9387 C   0  0  0  0  0  0  0  0  0  0  0  0
   -1.5267    3.5289   -0.3431 C   0  0  0  0  0  0  0  0  0  0  0  0
   -2.9173   -0.1741    0.0016 C   0  0  0  0  0  0  0  0  0  0  0  0
    6.4897   -2.8471   -2.1148 C   0  0  0  0  0  0  0  0  0  0  0  0
    6.1973   -3.8379    0.0572 C   0  0  0  0  0  0  0  0  0  0  0  0
   -0.7126    3.7379   -1.4564 C   0  0  0  0  0  0  0  0  0  0  0  0
   -2.8595    3.9400   -0.3667 C   0  0  0  0  0  0  0  0  0  0  0  0
   -4.4257   -0.2985   -0.0298 C   0  0  0  0  0  0  0  0  0  0  0  0
   -1.2311    4.3582   -2.5931 C   0  0  0  0  0  0  0  0  0  0  0  0
   -3.3779    4.5602   -1.5035 C   0  0  0  0  0  0  0  0  0  0  0  0
    7.8544   -2.8539   -1.8746 C   0  0  0  0  0  0  0  0  0  0  0  0
    7.5749   -3.8006    0.2003 C   0  0  0  0  0  0  0  0  0  0  0  0
   -2.5636    4.7693   -2.6167 C   0  0  0  0  0  0  0  0  0  0  0  0
   -5.9902   -2.0659   -0.3208 C   0  0  0  0  0  0  0  0  0  0  0  0
   -7.1943   -1.6983   -0.9215 C   0  0  0  0  0  0  0  0  0  0  0  0
   -5.9781   -3.0377    0.6798 C   0  0  0  0  0  0  0  0  0  0  0  0
   -8.3863   -2.3022   -0.5215 C   0  0  0  0  0  0  0  0  0  0  0  0
   -7.1702   -3.6418    1.0798 C   0  0  0  0  0  0  0  0  0  0  0  0
   -7.2280   -0.6596   -1.9939 C   0  0  0  0  0  0  0  0  0  0  0  0
   -4.6997   -3.4440    1.3356 C   0  0  0  0  0  0  0  0  0  0  0  0
   -8.3742   -3.2739    0.4790 C   0  0  0  0  0  0  0  0  0  0  0  0
    3.5315   -0.1160    1.7098 H   0  0  0  0  0  0  0  0  0  0  0  0
    4.5694   -0.6205   -0.4469 H   0  0  0  0  0  0  0  0  0  0  0  0
    3.0142   -0.6183   -1.2693 H   0  0  0  0  0  0  0  0  0  0  0  0
    3.8976   -2.5792    0.9112 H   0  0  0  0  0  0  0  0  0  0  0  0
    0.2839   -1.9195    1.5796 H   0  0  0  0  0  0  0  0  0  0  0  0
    1.8651   -1.9298    2.3634 H   0  0  0  0  0  0  0  0  0  0  0  0
    1.2293   -2.4683   -0.5762 H   0  0  0  0  0  0  0  0  0  0  0  0
    1.7154   -3.6561    0.6377 H   0  0  0  0  0  0  0  0  0  0  0  0
    1.3107    0.1821    3.1561 H   0  0  0  0  0  0  0  0  0  0  0  0
    1.3769    1.5822    2.1466 H   0  0  0  0  0  0  0  0  0  0  0  0
   -0.9778   -0.3207    2.2729 H   0  0  0  0  0  0  0  0  0  0  0  0
   -0.5915    0.9279   -0.0149 H   0  0  0  0  0  0  0  0  0  0  0  0
    4.3069    1.7928    1.9295 H   0  0  0  0  0  0  0  0  0  0  0  0
    0.0913    3.1271    0.9912 H   0  0  0  0  0  0  0  0  0  0  0  0
   -1.4694    3.2905    1.7613 H   0  0  0  0  0  0  0  0  0  0  0  0
   -3.2169    1.5263    1.1511 H   0  0  0  0  0  0  0  0  0  0  0  0
   -1.9368    1.4415    3.2739 H   0  0  0  0  0  0  0  0  0  0  0  0
    2.1604    4.1567    0.0789 H   0  0  0  0  0  0  0  0  0  0  0  0
    2.2941    4.2406    1.8389 H   0  0  0  0  0  0  0  0  0  0  0  0
    3.0310    5.4875    0.8230 H   0  0  0  0  0  0  0  0  0  0  0  0
    4.1197    3.4790   -1.3367 H   0  0  0  0  0  0  0  0  0  0  0  0
    5.6811    3.1105   -0.6002 H   0  0  0  0  0  0  0  0  0  0  0  0
    5.1117    4.7823   -0.6995 H   0  0  0  0  0  0  0  0  0  0  0  0
    4.6605    4.0536    2.9389 H   0  0  0  0  0  0  0  0  0  0  0  0
    6.0418    3.5890    1.9426 H   0  0  0  0  0  0  0  0  0  0  0  0
    5.3368    5.2057    1.7749 H   0  0  0  0  0  0  0  0  0  0  0  0
    6.1041   -2.4568   -3.0509 H   0  0  0  0  0  0  0  0  0  0  0  0
    5.5846   -4.2510    0.8516 H   0  0  0  0  0  0  0  0  0  0  0  0
    0.3251    3.4191   -1.4540 H   0  0  0  0  0  0  0  0  0  0  0  0
   -3.5049    3.7909    0.4946 H   0  0  0  0  0  0  0  0  0  0  0  0
   -4.7941   -0.2942    1.0039 H   0  0  0  0  0  0  0  0  0  0  0  0
   -4.8334    0.5739   -0.5527 H   0  0  0  0  0  0  0  0  0  0  0  0
   -0.5974    4.5200   -3.4602 H   0  0  0  0  0  0  0  0  0  0  0  0
   -4.4152    4.8817   -1.5216 H   0  0  0  0  0  0  0  0  0  0  0  0
    8.5504   -2.4722   -2.6142 H   0  0  0  0  0  0  0  0  0  0  0  0
    8.0499   -4.1716    1.1025 H   0  0  0  0  0  0  0  0  0  0  0  0
   -2.9674    5.2522   -3.5016 H   0  0  0  0  0  0  0  0  0  0  0  0
   -9.3327   -2.0250   -0.9783 H   0  0  0  0  0  0  0  0  0  0  0  0
   -7.1780   -4.3991    1.8592 H   0  0  0  0  0  0  0  0  0  0  0  0
   -6.4152   -0.8095   -2.7123 H   0  0  0  0  0  0  0  0  0  0  0  0
   -8.1634   -0.6997   -2.5627 H   0  0  0  0  0  0  0  0  0  0  0  0
   -7.1412    0.3396   -1.5557 H   0  0  0  0  0  0  0  0  0  0  0  0
   -3.9239   -3.6405    0.5879 H   0  0  0  0  0  0  0  0  0  0  0  0
   -4.3538   -2.6576    2.0138 H   0  0  0  0  0  0  0  0  0  0  0  0
   -4.8190   -4.3633    1.9194 H   0  0  0  0  0  0  0  0  0  0  0  0
   -9.3025   -3.7435    0.7911 H   0  0  0  0  0  0  0  0  0  0  0  0
  1 12  1  0  0  0  0
  1 21  1  0  0  0  0
  2 16  1  0  0  0  0
  2 61  1  0  0  0  0
  3 17  2  0  0  0  0
  4 26  2  0  0  0  0
  5 31  1  0  0  0  0
  5 37  1  0  0  0  0
  6 10  1  0  0  0  0
  6 13  1  0  0  0  0
  6 15  1  0  0  0  0
  7 17  1  0  0  0  0
  7 19  1  0  0  0  0
  7 57  1  0  0  0  0
  8 18  1  0  0  0  0
  8 26  1  0  0  0  0
  8 60  1  0  0  0  0
  9 34  2  0  0  0  0
  9 35  1  0  0  0  0
 10 11  1  0  0  0  0
 10 17  1  0  0  0  0
 10 45  1  0  0  0  0
 11 12  1  0  0  0  0
 11 46  1  0  0  0  0
 11 47  1  0  0  0  0
 12 14  1  0  0  0  0
 12 48  1  0  0  0  0
 13 14  1  0  0  0  0
 13 49  1  0  0  0  0
 13 50  1  0  0  0  0
 14 51  1  0  0  0  0
 14 52  1  0  0  0  0
 15 16  1  0  0  0  0
 15 53  1  0  0  0  0
 15 54  1  0  0  0  0
 16 18  1  0  0  0  0
 16 55  1  0  0  0  0
 18 20  1  0  0  0  0
 18 56  1  0  0  0  0
 19 22  1  0  0  0  0
 19 23  1  0  0  0  0
 19 24  1  0  0  0  0
 20 25  1  0  0  0  0
 20 58  1  0  0  0  0
 20 59  1  0  0  0  0
 21 27  2  0  0  0  0
 21 28  1  0  0  0  0
 22 62  1  0  0  0  0
 22 63  1  0  0  0  0
 22 64  1  0  0  0  0
 23 65  1  0  0  0  0
 23 66  1  0  0  0  0
 23 67  1  0  0  0  0
 24 68  1  0  0  0  0
 24 69  1  0  0  0  0
 24 70  1  0  0  0  0
 25 29  2  0  0  0  0
 25 30  1  0  0  0  0
 26 31  1  0  0  0  0
 27 34  1  0  0  0  0
 27 71  1  0  0  0  0
 28 35  2  0  0  0  0
 28 72  1  0  0  0  0
 29 32  1  0  0  0  0
 29 73  1  0  0  0  0
 30 33  2  0  0  0  0
 30 74  1  0  0  0  0
 31 75  1  0  0  0  0
 31 76  1  0  0  0  0
 32 36  2  0  0  0  0
 32 77  1  0  0  0  0
 33 36  1  0  0  0  0
 33 78  1  0  0  0  0
 34 79  1  0  0  0  0
 35 80  1  0  0  0  0
 36 81  1  0  0  0  0
 37 38  2  0  0  0  0
 37 39  1  0  0  0  0
 38 40  1  0  0  0  0
 38 42  1  0  0  0  0
 39 41  2  0  0  0  0
 39 43  1  0  0  0  0
 40 44  2  0  0  0  0
 40 82  1  0  0  0  0
 41 44  1  0  0  0  0
 41 83  1  0  0  0  0
 42 84  1  0  0  0  0
 42 85  1  0  0  0  0
 42 86  1  0  0  0  0
 43 87  1  0  0  0  0
 43 88  1  0  0  0  0
 43 89  1  0  0  0  0
 44 90  1  0  0  0  0
M  END
> <PUBCHEM_COMPOUND_CID>
461204

> <PUBCHEM_CONFORMER_RMSD>
1.4

> <PUBCHEM_CONFORMER_DIVERSEORDER>
1
57
78
8
86
157
168
118
46
150
135
54
85
144
139
94
52
33
74
138
107
173
123
35
162
25
156
5
149
66
45
55
106
175
159
32
148
141
117
12
129
43
97
160
102
28
77
88
101
11
153
31
178
124
126
137
61
163
98
71
2
38
83
70
142
108
143
82
48
176
73
172
167
79
164
9
36
68
127
7
87
19
24
155
165
90
27
147
60
29
65
104
18
51
122
133
128
177
4
81
22
140
49
75
110
111
44
95
116
16
161
171
125
69
105
114
121
63
59
37
100
91
154
166
14
50
47
112
72
174
151
169
120
109
26
21
170
17
145
158
146
80
115
53
113
130
56
136
42
89
134
152
58
39
132
99
84
20
67
13
10
15
40
6
23
96
119
76
62
41
64
3
30
34
93
131
103
92

> <PUBCHEM_MMFF94_PARTIAL_CHARGES>
54
1 -0.33
10 0.33
12 0.23
13 0.27
15 0.27
16 0.28
17 0.57
18 0.3
19 0.3
2 -0.68
20 0.14
21 0.1
25 -0.14
26 0.57
27 -0.15
28 -0.15
29 -0.15
3 -0.57
30 -0.15
31 0.34
32 -0.15
33 -0.15
34 0.16
35 0.16
36 -0.15
37 0.08
38 -0.14
39 -0.14
4 -0.57
40 -0.15
41 -0.15
42 0.14
43 0.14
44 -0.15
5 -0.36
57 0.37
6 -0.81
60 0.37
61 0.4
7 -0.73
71 0.15
72 0.15
73 0.15
74 0.15
77 0.15
78 0.15
79 0.15
8 -0.73
80 0.15
81 0.15
82 0.15
83 0.15
9 -0.62
90 0.15

> <PUBCHEM_EFFECTIVE_ROTOR_COUNT>
16.2

> <PUBCHEM_PHARMACOPHORE_FEATURES>
14
1 2 acceptor
1 2 donor
1 3 acceptor
1 4 acceptor
1 5 acceptor
1 6 cation
1 7 donor
1 8 donor
1 9 acceptor
4 19 22 23 24 hydrophobe
6 25 29 30 32 33 36 rings
6 37 38 39 40 41 44 rings
6 6 10 11 12 13 14 rings
6 9 21 27 28 34 35 rings

> <PUBCHEM_HEAVY_ATOM_COUNT>
44

> <PUBCHEM_ATOM_DEF_STEREO_COUNT>
4

> <PUBCHEM_ATOM_UDEF_STEREO_COUNT>
0

> <PUBCHEM_BOND_DEF_STEREO_COUNT>
0

> <PUBCHEM_BOND_UDEF_STEREO_COUNT>
0

> <PUBCHEM_ISOTOPIC_ATOM_COUNT>
0

> <PUBCHEM_COMPONENT_COUNT>
1

> <PUBCHEM_CACTVS_TAUTO_COUNT>
4

> <PUBCHEM_CONFORMER_ID>
0007099400000001

> <PUBCHEM_MMFF94_ENERGY>
118.516

> <PUBCHEM_FEATURE_SELFOVERLAP>
71.049

> <PUBCHEM_SHAPE_FINGERPRINT>
11297750 10 18334863826381522891
13560911 43 18408323315300215522
13690498 29 18337392754918768271
14918310 93 18115580448822254365
15448158 91 18337376245085750010
18393751 57 17830467081199604272
19311894 1 17831007297532041626
21344244 246 18335134272884446010
24180151 248 18411420574761431388
3388396 114 17771590565413936316
4066623 53 18412537704529711014

> <PUBCHEM_SHAPE_MULTIPOLES>
865.95
22.42
8.78
2.24
10.07
6.66
0.04
-36.89
7.12
-4.52
2.69
-0.31
1.63
7.08

> <PUBCHEM_SHAPE_SELFOVERLAP>
1800.456

> <PUBCHEM_SHAPE_VOLUME>
495.6

> <PUBCHEM_COORDINATE_TYPE>
2
5
10

$$$$

