5484726
  -OEChem-07051213152D

 32 36  0     1  0  0  0  0  0999 V2000
    3.5229   -1.7794    0.0000 O   0  0  0  0  0  0  0  0  0  0  0  0
    2.0000   -0.6676    0.0000 O   0  0  0  0  0  0  0  0  0  0  0  0
    5.3191    1.0669    0.0000 O   0  0  0  0  0  0  0  0  0  0  0  0
    7.0672   -1.9746    0.0000 O   0  0  0  0  0  0  0  0  0  0  0  0
    8.4252    2.3317    0.0000 O   0  0  0  0  0  0  0  0  0  0  0  0
    6.2133    2.5946    0.0000 O   0  0  0  0  0  0  0  0  0  0  0  0
    3.5229   -0.1699    0.0000 C   0  0  1  0  0  0  0  0  0  0  0  0
    4.4691   -0.4746    0.0000 C   0  0  0  0  0  0  0  0  0  0  0  0
    2.9393   -0.9746    0.0000 C   0  0  1  0  0  0  0  0  0  0  0  0
    5.3351    0.0254    0.0000 C   0  0  0  0  0  0  0  0  0  0  0  0
    6.2012   -0.4746    0.0000 C   0  0  0  0  0  0  0  0  0  0  0  0
    4.4691   -1.4746    0.0000 C   0  0  0  0  0  0  0  0  0  0  0  0
    7.1112    0.0322    0.0000 C   0  0  0  0  0  0  0  0  0  0  0  0
    8.0943   -0.2928    0.0000 C   0  0  0  0  0  0  0  0  0  0  0  0
    2.9393    0.6276    0.0000 C   0  0  0  0  0  0  0  0  0  0  0  0
    7.1192    1.0738    0.0000 C   0  0  0  0  0  0  0  0  0  0  0  0
    8.7087    0.5407    0.0000 C   0  0  0  0  0  0  0  0  0  0  0  0
    6.2012   -1.4746    0.0000 C   0  0  0  0  0  0  0  0  0  0  0  0
    5.3351   -1.9746    0.0000 C   0  0  0  0  0  0  0  0  0  0  0  0
    8.1072    1.3836    0.0000 C   0  0  0  0  0  0  0  0  0  0  0  0
    2.0000    0.3206    0.0000 C   0  0  0  0  0  0  0  0  0  0  0  0
    6.2171    1.5946    0.0000 C   0  0  0  0  0  0  0  0  0  0  0  0
    4.0204    0.5193    0.0000 H   0  0  0  0  0  0  0  0  0  0  0  0
    2.4388   -1.6616    0.0000 H   0  0  0  0  0  0  0  0  0  0  0  0
    7.8389   -0.8577    0.0000 H   0  0  0  0  0  0  0  0  0  0  0  0
    8.6293   -0.6061    0.0000 H   0  0  0  0  0  0  0  0  0  0  0  0
    3.1294    1.2177    0.0000 H   0  0  0  0  0  0  0  0  0  0  0  0
    9.1663    0.1225    0.0000 H   0  0  0  0  0  0  0  0  0  0  0  0
    9.1727    0.9519    0.0000 H   0  0  0  0  0  0  0  0  0  0  0  0
    5.3351   -2.5946    0.0000 H   0  0  0  0  0  0  0  0  0  0  0  0
    1.4981    0.6846    0.0000 H   0  0  0  0  0  0  0  0  0  0  0  0
    7.0672   -2.5946    0.0000 H   0  0  0  0  0  0  0  0  0  0  0  0
  1  9  1  0  0  0  0
  1 12  1  0  0  0  0
  2  9  1  0  0  0  0
  2 21  1  0  0  0  0
  3 10  1  0  0  0  0
  3 22  1  0  0  0  0
  4 18  1  0  0  0  0
  4 32  1  0  0  0  0
  5 20  2  0  0  0  0
  6 22  2  0  0  0  0
  7  8  1  0  0  0  0
  7  9  1  0  0  0  0
  7 15  1  0  0  0  0
  7 23  1  6  0  0  0
  8 10  1  0  0  0  0
  8 12  2  0  0  0  0
  9 24  1  6  0  0  0
 10 11  2  0  0  0  0
 11 13  1  0  0  0  0
 11 18  1  0  0  0  0
 12 19  1  0  0  0  0
 13 14  1  0  0  0  0
 13 16  2  0  0  0  0
 14 17  1  0  0  0  0
 14 25  1  0  0  0  0
 14 26  1  0  0  0  0
 15 21  2  0  0  0  0
 15 27  1  0  0  0  0
 16 20  1  0  0  0  0
 16 22  1  0  0  0  0
 17 20  1  0  0  0  0
 17 28  1  0  0  0  0
 17 29  1  0  0  0  0
 18 19  2  0  0  0  0
 19 30  1  0  0  0  0
 21 31  1  0  0  0  0
M  END
> <PUBCHEM_COMPOUND_CID>
5484726

> <PUBCHEM_COMPOUND_CANONICALIZED>
1

> <PUBCHEM_CACTVS_COMPLEXITY>
635

> <PUBCHEM_CACTVS_HBOND_ACCEPTOR>
6

> <PUBCHEM_CACTVS_HBOND_DONOR>
1

> <PUBCHEM_CACTVS_ROTATABLE_BOND>
0

> <PUBCHEM_CACTVS_SUBSKEYS>
AAADccB4OAAAAAAAAAAAAAAAAAAAASIEAAAwQAAAAAAQAEiBAAAAGgAACAAADQSwmAMwDoAABgCIAqDSCAACCAAgIAAIiAEGCMgcJzaOMRqieiCl4BUMuQfI6PyOoAACCAAIAABAAAQQABAAAAAAAAAAAA==

> <PUBCHEM_IUPAC_INCHI>
InChI=1S/C16H10O6/c17-8-2-1-6-11-9(18)5-10-13(7-3-4-20-16(7)21-10)14(11)22-15(19)12(6)8/h3-5,7,16,18H,1-2H2/t7-,16+/m0/s1

> <PUBCHEM_IUPAC_INCHIKEY>
NRCXNPKDOMYPPJ-HYORBCNSSA-N

> <PUBCHEM_XLOGP3_AA>
1.3

> <PUBCHEM_EXACT_MASS>
298.047738

> <PUBCHEM_MOLECULAR_FORMULA>
C16H10O6

> <PUBCHEM_MOLECULAR_WEIGHT>
298.247

> <PUBCHEM_OPENEYE_CAN_SMILES>
C1CC(=O)C2=C1C3=C(C=C4C(=C3OC2=O)C5C=COC5O4)O

> <PUBCHEM_OPENEYE_ISO_SMILES>
C1CC(=O)C2=C1C3=C(C=C4C(=C3OC2=O)[C@@H]5C=CO[C@@H]5O4)O

> <PUBCHEM_CACTVS_TPSA>
82.1

> <PUBCHEM_MONOISOTOPIC_WEIGHT>
298.047738

> <PUBCHEM_TOTAL_CHARGE>
0

> <PUBCHEM_HEAVY_ATOM_COUNT>
22

> <PUBCHEM_ATOM_DEF_STEREO_COUNT>
2

> <PUBCHEM_ATOM_UDEF_STEREO_COUNT>
0

> <PUBCHEM_BOND_DEF_STEREO_COUNT>
0

> <PUBCHEM_BOND_UDEF_STEREO_COUNT>
0

> <PUBCHEM_ISOTOPIC_ATOM_COUNT>
0

> <PUBCHEM_COMPONENT_COUNT>
1

> <PUBCHEM_CACTVS_TAUTO_COUNT>
45

> <PUBCHEM_COORDINATE_TYPE>
1
5
255

> <PUBCHEM_BONDANNOTATIONS>
10  11  8
11  13  8
11  18  8
12  19  8
13  16  8
16  22  8
18  19  8
3  10  8
3  22  8
7  23  6
8  10  8
8  12  8
9  24  6

$$$$

