17395900
  -OEChem-06241222532D

 46 47  0     0  0  0  0  0  0999 V2000
    6.2293   -2.5929    0.0000 S   0  0  0  0  0  0  0  0  0  0  0  0
    2.4896   -0.3536    0.0000 O   0  0  0  0  0  0  0  0  0  0  0  0
    6.0988   -3.5844    0.0000 O   0  0  0  0  0  0  0  0  0  0  0  0
    6.3598   -1.6015    0.0000 O   0  0  0  0  0  0  0  0  0  0  0  0
    4.0898    0.3092    0.0000 N   0  0  0  0  0  0  0  0  0  0  0  0
    7.2207   -2.7234    0.0000 N   0  0  0  0  0  0  0  0  0  0  0  0
    3.7071    1.2331    0.0000 C   0  0  0  0  0  0  0  0  0  0  0  0
    2.7071    1.2331    0.0000 C   0  0  0  0  0  0  0  0  0  0  0  0
    4.4142    1.9402    0.0000 C   0  0  0  0  0  0  0  0  0  0  0  0
    2.0000    1.9402    0.0000 C   0  0  0  0  0  0  0  0  0  0  0  0
    4.4142    2.9402    0.0000 C   0  0  0  0  0  0  0  0  0  0  0  0
    2.0000    2.9402    0.0000 C   0  0  0  0  0  0  0  0  0  0  0  0
    3.7071    3.6473    0.0000 C   0  0  0  0  0  0  0  0  0  0  0  0
    2.7071    3.6473    0.0000 C   0  0  0  0  0  0  0  0  0  0  0  0
    3.4810   -0.4841    0.0000 C   0  0  0  0  0  0  0  0  0  0  0  0
    3.8637   -1.4080    0.0000 C   0  0  0  0  0  0  0  0  0  0  0  0
    4.8552   -1.5385    0.0000 C   0  0  0  0  0  0  0  0  0  0  0  0
    3.2550   -2.2014    0.0000 C   0  0  0  0  0  0  0  0  0  0  0  0
    5.2378   -2.4624    0.0000 C   0  0  0  0  0  0  0  0  0  0  0  0
    3.6376   -3.1252    0.0000 C   0  0  0  0  0  0  0  0  0  0  0  0
    4.6291   -3.2558    0.0000 C   0  0  0  0  0  0  0  0  0  0  0  0
    7.6034   -3.6473    0.0000 C   0  0  0  0  0  0  0  0  0  0  0  0
    3.3626    0.7176    0.0000 H   0  0  0  0  0  0  0  0  0  0  0  0
    4.7242    1.4033    0.0000 H   0  0  0  0  0  0  0  0  0  0  0  0
    5.0131    2.1007    0.0000 H   0  0  0  0  0  0  0  0  0  0  0  0
    2.1702    0.9231    0.0000 H   0  0  0  0  0  0  0  0  0  0  0  0
    2.8676    0.6342    0.0000 H   0  0  0  0  0  0  0  0  0  0  0  0
    5.0131    2.7798    0.0000 H   0  0  0  0  0  0  0  0  0  0  0  0
    4.7242    3.4772    0.0000 H   0  0  0  0  0  0  0  0  0  0  0  0
    1.4011    2.1007    0.0000 H   0  0  0  0  0  0  0  0  0  0  0  0
    1.6900    1.4033    0.0000 H   0  0  0  0  0  0  0  0  0  0  0  0
    4.2440    3.9573    0.0000 H   0  0  0  0  0  0  0  0  0  0  0  0
    3.5466    4.2462    0.0000 H   0  0  0  0  0  0  0  0  0  0  0  0
    1.6900    3.4772    0.0000 H   0  0  0  0  0  0  0  0  0  0  0  0
    1.4011    2.7798    0.0000 H   0  0  0  0  0  0  0  0  0  0  0  0
    2.8676    4.2462    0.0000 H   0  0  0  0  0  0  0  0  0  0  0  0
    2.1702    3.9573    0.0000 H   0  0  0  0  0  0  0  0  0  0  0  0
    4.7045    0.2283    0.0000 H   0  0  0  0  0  0  0  0  0  0  0  0
    5.2326   -1.0466    0.0000 H   0  0  0  0  0  0  0  0  0  0  0  0
    2.6402   -2.1204    0.0000 H   0  0  0  0  0  0  0  0  0  0  0  0
    4.8663   -3.8286    0.0000 H   0  0  0  0  0  0  0  0  0  0  0  0
    3.2602   -3.6171    0.0000 H   0  0  0  0  0  0  0  0  0  0  0  0
    7.5982   -2.2316    0.0000 H   0  0  0  0  0  0  0  0  0  0  0  0
    7.0306   -3.8846    0.0000 H   0  0  0  0  0  0  0  0  0  0  0  0
    7.8407   -4.2201    0.0000 H   0  0  0  0  0  0  0  0  0  0  0  0
    8.1762   -3.4101    0.0000 H   0  0  0  0  0  0  0  0  0  0  0  0
  1  3  2  0  0  0  0
  1  4  2  0  0  0  0
  1  6  1  0  0  0  0
  1 19  1  0  0  0  0
  2 15  2  0  0  0  0
  5  7  1  0  0  0  0
  5 15  1  0  0  0  0
  5 38  1  0  0  0  0
  6 22  1  0  0  0  0
  6 43  1  0  0  0  0
  7  8  1  0  0  0  0
  7  9  1  0  0  0  0
  7 23  1  0  0  0  0
  8 10  1  0  0  0  0
  8 26  1  0  0  0  0
  8 27  1  0  0  0  0
  9 11  1  0  0  0  0
  9 24  1  0  0  0  0
  9 25  1  0  0  0  0
 10 12  1  0  0  0  0
 10 30  1  0  0  0  0
 10 31  1  0  0  0  0
 11 13  1  0  0  0  0
 11 28  1  0  0  0  0
 11 29  1  0  0  0  0
 12 14  1  0  0  0  0
 12 34  1  0  0  0  0
 12 35  1  0  0  0  0
 13 14  1  0  0  0  0
 13 32  1  0  0  0  0
 13 33  1  0  0  0  0
 14 36  1  0  0  0  0
 14 37  1  0  0  0  0
 15 16  1  0  0  0  0
 16 17  2  0  0  0  0
 16 18  1  0  0  0  0
 17 19  1  0  0  0  0
 17 39  1  0  0  0  0
 18 20  2  0  0  0  0
 18 40  1  0  0  0  0
 19 21  2  0  0  0  0
 20 21  1  0  0  0  0
 20 42  1  0  0  0  0
 21 41  1  0  0  0  0
 22 44  1  0  0  0  0
 22 45  1  0  0  0  0
 22 46  1  0  0  0  0
M  END
> <PUBCHEM_COMPOUND_CID>
17395900

> <PUBCHEM_COMPOUND_CANONICALIZED>
1

> <PUBCHEM_CACTVS_COMPLEXITY>
451

> <PUBCHEM_CACTVS_HBOND_ACCEPTOR>
4

> <PUBCHEM_CACTVS_HBOND_DONOR>
2

> <PUBCHEM_CACTVS_ROTATABLE_BOND>
4

> <PUBCHEM_CACTVS_SUBSKEYS>
AAADceB7MABAAAAAAAAAAAAAAAAAAAAAAAAwAAAAAAAYAAABAAAAHgQQQAAADCjB2AQyAYLAAAKIAiFSEHDCABAkAAAIiJkIBMgIIDKAlRGEIQhglgCIiYcYiICOAAAAgAAAAAAAAAEAAAAAAAAAAAAAAA==

> <PUBCHEM_IUPAC_OPENEYE_NAME>
N-cyclooctyl-3-(methylsulfamoyl)benzamide

> <PUBCHEM_IUPAC_CAS_NAME>
N-cyclooctyl-3-(methylsulfamoyl)benzamide

> <PUBCHEM_IUPAC_NAME>
N-cyclooctyl-3-(methylsulfamoyl)benzamide

> <PUBCHEM_IUPAC_SYSTEMATIC_NAME>
N-cyclooctyl-3-(methylsulfamoyl)benzamide

> <PUBCHEM_IUPAC_TRADITIONAL_NAME>
N-cyclooctyl-3-(methylsulfamoyl)benzamide

> <PUBCHEM_IUPAC_INCHI>
InChI=1S/C16H24N2O3S/c1-17-22(20,21)15-11-7-8-13(12-15)16(19)18-14-9-5-3-2-4-6-10-14/h7-8,11-12,14,17H,2-6,9-10H2,1H3,(H,18,19)

> <PUBCHEM_IUPAC_INCHIKEY>
QVOPZKKLCWGTGH-UHFFFAOYSA-N

> <PUBCHEM_XLOGP3_AA>
3.1

> <PUBCHEM_EXACT_MASS>
324.150764

> <PUBCHEM_MOLECULAR_FORMULA>
C16H24N2O3S

> <PUBCHEM_MOLECULAR_WEIGHT>
324.43836

> <PUBCHEM_OPENEYE_CAN_SMILES>
CNS(=O)(=O)C1=CC=CC(=C1)C(=O)NC2CCCCCCC2

> <PUBCHEM_OPENEYE_ISO_SMILES>
CNS(=O)(=O)C1=CC=CC(=C1)C(=O)NC2CCCCCCC2

> <PUBCHEM_CACTVS_TPSA>
83.6

> <PUBCHEM_MONOISOTOPIC_WEIGHT>
324.150764

> <PUBCHEM_TOTAL_CHARGE>
0

> <PUBCHEM_HEAVY_ATOM_COUNT>
22

> <PUBCHEM_ATOM_DEF_STEREO_COUNT>
0

> <PUBCHEM_ATOM_UDEF_STEREO_COUNT>
0

> <PUBCHEM_BOND_DEF_STEREO_COUNT>
0

> <PUBCHEM_BOND_UDEF_STEREO_COUNT>
0

> <PUBCHEM_ISOTOPIC_ATOM_COUNT>
0

> <PUBCHEM_COMPONENT_COUNT>
1

> <PUBCHEM_CACTVS_TAUTO_COUNT>
2

> <PUBCHEM_COORDINATE_TYPE>
1
5
255

> <PUBCHEM_BONDANNOTATIONS>
16  17  8
16  18  8
17  19  8
18  20  8
19  21  8
20  21  8

$$$$

