5281595
  -OEChem-07051212583D

 76 79  0     1  0  0  0  0  0999 V2000
   -0.3889    1.6241   -0.8407 O   0  0  0  0  0  0  0  0  0  0  0  0
   -2.6050   -2.2520    1.0672 O   0  0  0  0  0  0  0  0  0  0  0  0
    1.2370   -0.3167    1.9477 O   0  0  0  0  0  0  0  0  0  0  0  0
    5.7023   -1.5597    0.6641 O   0  0  0  0  0  0  0  0  0  0  0  0
   -1.2725   -0.3187    1.0097 N   0  0  0  0  0  0  0  0  0  0  0  0
   -2.5770    1.0419    2.2899 N   0  0  2  0  0  0  0  0  0  0  0  0
    2.0811   -1.4597    0.1163 N   0  0  0  0  0  0  0  0  0  0  0  0
    4.2926    0.2329    0.2886 N   0  0  0  0  0  0  0  0  0  0  0  0
   -3.0424   -0.3346    2.5136 C   0  0  2  0  0  0  0  0  0  0  0  0
   -0.2492   -0.6912    0.0570 C   0  0  1  0  0  0  0  0  0  0  0  0
   -1.2418    0.9387    1.7054 C   0  0  0  0  0  0  0  0  0  0  0  0
   -2.3205   -1.1222    1.4343 C   0  0  0  0  0  0  0  0  0  0  0  0
   -4.5512   -0.4579    2.3767 C   0  0  0  0  0  0  0  0  0  0  0  0
   -0.2558    0.2233   -1.1935 C   0  0  1  0  0  0  0  0  0  0  0  0
   -5.0319    0.0322    1.0109 C   0  0  0  0  0  0  0  0  0  0  0  0
    1.0906   -0.7709    0.8132 C   0  0  0  0  0  0  0  0  0  0  0  0
   -2.5878    1.8566    3.4969 C   0  0  0  0  0  0  0  0  0  0  0  0
   -1.4494   -0.0852   -2.0444 C   0  0  0  0  0  0  0  0  0  0  0  0
   -6.5452   -0.1251    0.8645 C   0  0  0  0  0  0  0  0  0  0  0  0
    3.3125   -1.9559    0.7447 C   0  0  1  0  0  0  0  0  0  0  0  0
    3.5590   -3.3975    0.3080 C   0  0  0  0  0  0  0  0  0  0  0  0
   -2.6444    0.5956   -1.8316 C   0  0  0  0  0  0  0  0  0  0  0  0
   -1.3558   -1.0511   -3.0419 C   0  0  0  0  0  0  0  0  0  0  0  0
   -7.0228    0.3299   -0.5052 C   0  0  0  0  0  0  0  0  0  0  0  0
    4.5706   -1.0998    0.5114 C   0  0  0  0  0  0  0  0  0  0  0  0
    0.8302    2.2404   -0.7366 C   0  0  0  0  0  0  0  0  0  0  0  0
    3.9474   -3.4533   -1.1681 C   0  0  0  0  0  0  0  0  0  0  0  0
    2.3244   -4.2573    0.5707 C   0  0  0  0  0  0  0  0  0  0  0  0
   -3.7559    0.3079   -2.6238 C   0  0  0  0  0  0  0  0  0  0  0  0
   -2.4672   -1.3387   -3.8341 C   0  0  0  0  0  0  0  0  0  0  0  0
   -3.6672   -0.6592   -3.6251 C   0  0  0  0  0  0  0  0  0  0  0  0
    1.6776    2.3504   -1.8404 C   0  0  0  0  0  0  0  0  0  0  0  0
    1.2347    2.6645    0.5277 C   0  0  0  0  0  0  0  0  0  0  0  0
    3.4801    2.8563   -0.3268 C   0  0  0  0  0  0  0  0  0  0  0  0
    3.0168    2.6521   -1.6336 C   0  0  0  0  0  0  0  0  0  0  0  0
    2.5745    2.9704    0.7380 C   0  0  0  0  0  0  0  0  0  0  0  0
    5.2185    1.2560    0.2259 C   0  0  0  0  0  0  0  0  0  0  0  0
    4.8822    2.5338   -0.0368 C   0  0  0  0  0  0  0  0  0  0  0  0
   -2.7015   -0.7287    3.4799 H   0  0  0  0  0  0  0  0  0  0  0  0
   -0.4569   -1.7232   -0.2606 H   0  0  0  0  0  0  0  0  0  0  0  0
   -1.1951    1.8041    1.0669 H   0  0  0  0  0  0  0  0  0  0  0  0
   -0.4801    0.9468    2.4852 H   0  0  0  0  0  0  0  0  0  0  0  0
   -5.0502    0.1106    3.1707 H   0  0  0  0  0  0  0  0  0  0  0  0
   -4.8453   -1.5070    2.5069 H   0  0  0  0  0  0  0  0  0  0  0  0
    0.6464    0.0432   -1.7918 H   0  0  0  0  0  0  0  0  0  0  0  0
   -4.7722    1.0868    0.8633 H   0  0  0  0  0  0  0  0  0  0  0  0
   -4.5521   -0.5398    0.2106 H   0  0  0  0  0  0  0  0  0  0  0  0
   -2.2330    2.8694    3.2764 H   0  0  0  0  0  0  0  0  0  0  0  0
   -1.9578    1.4372    4.2897 H   0  0  0  0  0  0  0  0  0  0  0  0
   -3.6061    1.9570    3.8867 H   0  0  0  0  0  0  0  0  0  0  0  0
   -6.8302   -1.1730    1.0144 H   0  0  0  0  0  0  0  0  0  0  0  0
   -7.0543    0.4634    1.6366 H   0  0  0  0  0  0  0  0  0  0  0  0
    3.1509   -1.9403    1.8309 H   0  0  0  0  0  0  0  0  0  0  0  0
    1.9267   -1.6598   -0.8666 H   0  0  0  0  0  0  0  0  0  0  0  0
    4.3912   -3.8128    0.8912 H   0  0  0  0  0  0  0  0  0  0  0  0
   -2.7550    1.3479   -1.0564 H   0  0  0  0  0  0  0  0  0  0  0  0
   -0.4271   -1.5888   -3.2125 H   0  0  0  0  0  0  0  0  0  0  0  0
   -6.5941   -0.2940   -1.2952 H   0  0  0  0  0  0  0  0  0  0  0  0
   -8.1127    0.2517   -0.5702 H   0  0  0  0  0  0  0  0  0  0  0  0
   -6.7451    1.3716   -0.6948 H   0  0  0  0  0  0  0  0  0  0  0  0
    3.1527   -3.0882   -1.8261 H   0  0  0  0  0  0  0  0  0  0  0  0
    4.1478   -4.4912   -1.4596 H   0  0  0  0  0  0  0  0  0  0  0  0
    4.8562   -2.8864   -1.3882 H   0  0  0  0  0  0  0  0  0  0  0  0
    2.0037   -4.1760    1.6148 H   0  0  0  0  0  0  0  0  0  0  0  0
    2.5512   -5.3119    0.3780 H   0  0  0  0  0  0  0  0  0  0  0  0
    1.4792   -3.9878   -0.0713 H   0  0  0  0  0  0  0  0  0  0  0  0
   -4.6877    0.8416   -2.4655 H   0  0  0  0  0  0  0  0  0  0  0  0
   -2.3984   -2.0920   -4.6134 H   0  0  0  0  0  0  0  0  0  0  0  0
    3.3166    0.4745    0.1545 H   0  0  0  0  0  0  0  0  0  0  0  0
   -4.5324   -0.8821   -4.2425 H   0  0  0  0  0  0  0  0  0  0  0  0
    1.3369    2.0764   -2.8348 H   0  0  0  0  0  0  0  0  0  0  0  0
    0.5818    2.6899    1.3871 H   0  0  0  0  0  0  0  0  0  0  0  0
    3.7109    2.5722   -2.4670 H   0  0  0  0  0  0  0  0  0  0  0  0
    2.9247    3.1470    1.7521 H   0  0  0  0  0  0  0  0  0  0  0  0
    6.2520    0.9829    0.4072 H   0  0  0  0  0  0  0  0  0  0  0  0
    5.6172    3.3281   -0.0803 H   0  0  0  0  0  0  0  0  0  0  0  0
  1 14  1  0  0  0  0
  1 26  1  0  0  0  0
  2 12  2  0  0  0  0
  3 16  2  0  0  0  0
  4 25  2  0  0  0  0
  5 10  1  0  0  0  0
  5 11  1  0  0  0  0
  5 12  1  0  0  0  0
  6  9  1  0  0  0  0
  6 11  1  0  0  0  0
  6 17  1  0  0  0  0
  7 16  1  0  0  0  0
  7 20  1  0  0  0  0
  7 54  1  0  0  0  0
  8 25  1  0  0  0  0
  8 37  1  0  0  0  0
  8 69  1  0  0  0  0
  9 12  1  0  0  0  0
  9 13  1  0  0  0  0
  9 39  1  0  0  0  0
 10 14  1  0  0  0  0
 10 16  1  0  0  0  0
 10 40  1  0  0  0  0
 11 41  1  0  0  0  0
 11 42  1  0  0  0  0
 13 15  1  0  0  0  0
 13 43  1  0  0  0  0
 13 44  1  0  0  0  0
 14 18  1  0  0  0  0
 14 45  1  0  0  0  0
 15 19  1  0  0  0  0
 15 46  1  0  0  0  0
 15 47  1  0  0  0  0
 17 48  1  0  0  0  0
 17 49  1  0  0  0  0
 17 50  1  0  0  0  0
 18 22  2  0  0  0  0
 18 23  1  0  0  0  0
 19 24  1  0  0  0  0
 19 51  1  0  0  0  0
 19 52  1  0  0  0  0
 20 21  1  0  0  0  0
 20 25  1  0  0  0  0
 20 53  1  0  0  0  0
 21 27  1  0  0  0  0
 21 28  1  0  0  0  0
 21 55  1  0  0  0  0
 22 29  1  0  0  0  0
 22 56  1  0  0  0  0
 23 30  2  0  0  0  0
 23 57  1  0  0  0  0
 24 58  1  0  0  0  0
 24 59  1  0  0  0  0
 24 60  1  0  0  0  0
 26 32  2  0  0  0  0
 26 33  1  0  0  0  0
 27 61  1  0  0  0  0
 27 62  1  0  0  0  0
 27 63  1  0  0  0  0
 28 64  1  0  0  0  0
 28 65  1  0  0  0  0
 28 66  1  0  0  0  0
 29 31  2  0  0  0  0
 29 67  1  0  0  0  0
 30 31  1  0  0  0  0
 30 68  1  0  0  0  0
 31 70  1  0  0  0  0
 32 35  1  0  0  0  0
 32 71  1  0  0  0  0
 33 36  2  0  0  0  0
 33 72  1  0  0  0  0
 34 35  2  0  0  0  0
 34 36  1  0  0  0  0
 34 38  1  0  0  0  0
 35 73  1  0  0  0  0
 36 74  1  0  0  0  0
 37 38  2  0  0  0  0
 37 75  1  0  0  0  0
 38 76  1  0  0  0  0
M  END
> <PUBCHEM_COMPOUND_CID>
5281595

> <PUBCHEM_CONFORMER_RMSD>
1

> <PUBCHEM_CONFORMER_DIVERSEORDER>
1
11
8
5
7
3
6
9
14
4
12
2
13
10

> <PUBCHEM_MMFF94_PARTIAL_CHARGES>
44
1 -0.36
10 0.36
11 0.57
12 0.57
14 0.42
16 0.57
17 0.27
18 -0.14
2 -0.57
20 0.36
22 -0.15
23 -0.15
25 0.57
26 0.08
29 -0.15
3 -0.57
30 -0.15
31 -0.15
32 -0.15
33 -0.15
34 0.03
35 -0.15
36 -0.15
37 -0.04
38 -0.18
4 -0.57
5 -0.66
54 0.37
56 0.15
57 0.15
6 -0.81
67 0.15
68 0.15
69 0.37
7 -0.73
70 0.15
71 0.15
72 0.15
73 0.15
74 0.15
75 0.15
76 0.15
8 -0.54
9 0.33

> <PUBCHEM_EFFECTIVE_ROTOR_COUNT>
8

> <PUBCHEM_PHARMACOPHORE_FEATURES>
12
1 1 acceptor
1 2 acceptor
1 24 hydrophobe
1 3 acceptor
1 4 acceptor
1 6 cation
1 7 donor
1 8 donor
3 21 27 28 hydrophobe
5 5 6 9 11 12 rings
6 18 22 23 29 30 31 rings
6 26 32 33 34 35 36 rings

> <PUBCHEM_HEAVY_ATOM_COUNT>
38

> <PUBCHEM_ATOM_DEF_STEREO_COUNT>
3

> <PUBCHEM_ATOM_UDEF_STEREO_COUNT>
1

> <PUBCHEM_BOND_DEF_STEREO_COUNT>
1

> <PUBCHEM_BOND_UDEF_STEREO_COUNT>
0

> <PUBCHEM_ISOTOPIC_ATOM_COUNT>
0

> <PUBCHEM_COMPONENT_COUNT>
1

> <PUBCHEM_CACTVS_TAUTO_COUNT>
4

> <PUBCHEM_CONFORMER_ID>
0050973B00000001

> <PUBCHEM_MMFF94_ENERGY>
134.1467

> <PUBCHEM_FEATURE_SELFOVERLAP>
60.896

> <PUBCHEM_SHAPE_FINGERPRINT>
11578080 2 17704066304745346565
11763715 3 17386303024833476370
12128747 34 18201434831041011069
12156800 1 16250196635250332884
12422481 6 17203041868845524845
13149001 5 17416984969731293431
13583140 156 18117267069700005641
13617811 41 14620798193729423087
14004853 49 16227428859586011555
14415360 78 17835242247245593756
15328829 1 17894352159382750101
15968369 153 18339375131423808756
16090146 7 17676780807211289175
17980427 23 17897712387630142009
20511986 3 17895197658017997297
22182313 1 17632584833219807637
23419403 2 17917990589790555325
23559900 14 18411411817644830187
244849 19 17988649622634527141
3633792 109 18412823612597960633
404807 14 17692246752758738715
508706 21 16486988271030105247
77296 10 18340478972958225179

> <PUBCHEM_SHAPE_MULTIPOLES>
738.62
12
3.86
3.49
5.98
1.6
-1.8
0.71
1.88
-7.07
0.13
5.58
0.27
-2.45

> <PUBCHEM_SHAPE_SELFOVERLAP>
1567.487

> <PUBCHEM_SHAPE_VOLUME>
410.3

> <PUBCHEM_COORDINATE_TYPE>
2
5
10

$$$$

