443632
  -OEChem-07051213023D

 61 67  0     1  0  0  0  0  0999 V2000
   -0.0225   -4.4705   -0.2147 O   0  0  0  0  0  0  0  0  0  0  0  0
   -1.9981   -4.2703   -1.3208 O   0  0  0  0  0  0  0  0  0  0  0  0
   -5.8928    2.5559    1.7289 O   0  0  0  0  0  0  0  0  0  0  0  0
    7.7853   -0.5535    0.7014 O   0  0  0  0  0  0  0  0  0  0  0  0
    6.9794    0.5130   -1.1370 O   0  0  0  0  0  0  0  0  0  0  0  0
    1.8302    0.1580    0.1253 N   0  0  0  0  0  0  0  0  0  0  0  0
    4.3258    1.2515   -0.5617 N   0  0  0  0  0  0  0  0  0  0  0  0
   -3.0450    0.5785    0.1538 N   0  0  0  0  0  0  0  0  0  0  0  0
   -3.3002   -2.1058   -0.3395 N   0  0  0  0  0  0  0  0  0  0  0  0
   -0.4859    1.8697    0.3593 C   0  0  2  0  0  0  0  0  0  0  0  0
   -0.6421    0.3702    0.1255 C   0  0  0  0  0  0  0  0  0  0  0  0
    0.8249    2.3986   -0.1794 C   0  0  0  0  0  0  0  0  0  0  0  0
    1.9493    1.5584   -0.2179 C   0  0  0  0  0  0  0  0  0  0  0  0
    0.5174   -0.4390    0.0233 C   0  0  0  0  0  0  0  0  0  0  0  0
    3.1987    2.0814   -0.6150 C   0  0  0  0  0  0  0  0  0  0  0  0
    3.0481   -0.5676    0.4353 C   0  0  0  0  0  0  0  0  0  0  0  0
   -1.9396   -0.1802    0.0210 C   0  0  0  0  0  0  0  0  0  0  0  0
   -0.6160    2.1961    1.8518 C   0  0  0  0  0  0  0  0  0  0  0  0
    4.2938   -0.0230    0.0279 C   0  0  0  0  0  0  0  0  0  0  0  0
    0.3284   -1.7909   -0.2804 C   0  0  0  0  0  0  0  0  0  0  0  0
    0.9478    3.7383   -0.5730 C   0  0  0  0  0  0  0  0  0  0  0  0
   -2.0849   -1.5455   -0.2321 C   0  0  0  0  0  0  0  0  0  0  0  0
   -0.9530   -2.3293   -0.3913 C   0  0  0  0  0  0  0  0  0  0  0  0
    3.3016    3.4175   -1.0131 C   0  0  0  0  0  0  0  0  0  0  0  0
    2.1771    4.2401   -0.9985 C   0  0  0  0  0  0  0  0  0  0  0  0
    3.0654   -1.7602    1.1780 C   0  0  0  0  0  0  0  0  0  0  0  0
    5.4883   -0.7128    0.2765 C   0  0  0  0  0  0  0  0  0  0  0  0
   -4.2631    0.0251    0.0497 C   0  0  0  0  0  0  0  0  0  0  0  0
   -4.3929   -1.3415   -0.2009 C   0  0  0  0  0  0  0  0  0  0  0  0
    4.2628   -2.4361    1.4283 C   0  0  0  0  0  0  0  0  0  0  0  0
    5.4696   -1.9223    0.9646 C   0  0  0  0  0  0  0  0  0  0  0  0
   -5.4100    0.8038    0.1895 C   0  0  0  0  0  0  0  0  0  0  0  0
   -1.0701   -3.7514   -0.6976 C   0  0  0  0  0  0  0  0  0  0  0  0
   -5.2995    2.2720    0.4586 C   0  0  1  0  0  0  0  0  0  0  0  0
   -5.6668   -1.8968   -0.3060 C   0  0  0  0  0  0  0  0  0  0  0  0
    6.7830   -0.1869   -0.1411 C   0  0  0  0  0  0  0  0  0  0  0  0
   -6.6819    0.2443    0.0837 C   0  0  0  0  0  0  0  0  0  0  0  0
   -6.8110   -1.1137   -0.1655 C   0  0  0  0  0  0  0  0  0  0  0  0
   -6.0011    3.1248   -0.5968 C   0  0  0  0  0  0  0  0  0  0  0  0
   -1.2846    2.3839   -0.1922 H   0  0  0  0  0  0  0  0  0  0  0  0
   -0.5414    3.2752    2.0280 H   0  0  0  0  0  0  0  0  0  0  0  0
   -1.5801    1.8624    2.2508 H   0  0  0  0  0  0  0  0  0  0  0  0
    0.1702    1.7104    2.4422 H   0  0  0  0  0  0  0  0  0  0  0  0
    1.1882   -2.4199   -0.4923 H   0  0  0  0  0  0  0  0  0  0  0  0
    0.0866    4.4010   -0.5407 H   0  0  0  0  0  0  0  0  0  0  0  0
    5.2039    1.6205   -0.8992 H   0  0  0  0  0  0  0  0  0  0  0  0
    4.2588    3.8286   -1.3234 H   0  0  0  0  0  0  0  0  0  0  0  0
    2.2621    5.2798   -1.3013 H   0  0  0  0  0  0  0  0  0  0  0  0
    2.1558   -2.1793    1.5987 H   0  0  0  0  0  0  0  0  0  0  0  0
    4.2500   -3.3650    1.9918 H   0  0  0  0  0  0  0  0  0  0  0  0
    6.3770   -2.4855    1.1658 H   0  0  0  0  0  0  0  0  0  0  0  0
   -4.2572    2.6002    0.5223 H   0  0  0  0  0  0  0  0  0  0  0  0
   -5.7795   -2.9614   -0.5010 H   0  0  0  0  0  0  0  0  0  0  0  0
   -7.5791    0.8445    0.2030 H   0  0  0  0  0  0  0  0  0  0  0  0
   -7.7949   -1.5652   -0.2481 H   0  0  0  0  0  0  0  0  0  0  0  0
   -7.0870    2.9815   -0.5909 H   0  0  0  0  0  0  0  0  0  0  0  0
   -5.6245    2.9069   -1.6015 H   0  0  0  0  0  0  0  0  0  0  0  0
   -5.8355    4.1884   -0.3908 H   0  0  0  0  0  0  0  0  0  0  0  0
   -0.1064   -5.4250   -0.4246 H   0  0  0  0  0  0  0  0  0  0  0  0
   -5.7978    3.5101    1.8909 H   0  0  0  0  0  0  0  0  0  0  0  0
    8.6527   -0.1963    0.4146 H   0  0  0  0  0  0  0  0  0  0  0  0
  1 33  1  0  0  0  0
  1 59  1  0  0  0  0
  2 33  2  0  0  0  0
  3 34  1  0  0  0  0
  3 60  1  0  0  0  0
  4 36  1  0  0  0  0
  4 61  1  0  0  0  0
  5 36  2  0  0  0  0
  6 13  1  0  0  0  0
  6 14  1  0  0  0  0
  6 16  1  0  0  0  0
  7 15  1  0  0  0  0
  7 19  1  0  0  0  0
  7 46  1  0  0  0  0
  8 17  2  0  0  0  0
  8 28  1  0  0  0  0
  9 22  2  0  0  0  0
  9 29  1  0  0  0  0
 10 11  1  0  0  0  0
 10 12  1  0  0  0  0
 10 18  1  0  0  0  0
 10 40  1  0  0  0  0
 11 14  2  0  0  0  0
 11 17  1  0  0  0  0
 12 13  2  0  0  0  0
 12 21  1  0  0  0  0
 13 15  1  0  0  0  0
 14 20  1  0  0  0  0
 15 24  2  0  0  0  0
 16 19  1  0  0  0  0
 16 26  2  0  0  0  0
 17 22  1  0  0  0  0
 18 41  1  0  0  0  0
 18 42  1  0  0  0  0
 18 43  1  0  0  0  0
 19 27  2  0  0  0  0
 20 23  2  0  0  0  0
 20 44  1  0  0  0  0
 21 25  2  0  0  0  0
 21 45  1  0  0  0  0
 22 23  1  0  0  0  0
 23 33  1  0  0  0  0
 24 25  1  0  0  0  0
 24 47  1  0  0  0  0
 25 48  1  0  0  0  0
 26 30  1  0  0  0  0
 26 49  1  0  0  0  0
 27 31  1  0  0  0  0
 27 36  1  0  0  0  0
 28 29  1  0  0  0  0
 28 32  2  0  0  0  0
 29 35  2  0  0  0  0
 30 31  2  0  0  0  0
 30 50  1  0  0  0  0
 31 51  1  0  0  0  0
 32 34  1  0  0  0  0
 32 37  1  0  0  0  0
 34 39  1  0  0  0  0
 34 52  1  0  0  0  0
 35 38  1  0  0  0  0
 35 53  1  0  0  0  0
 37 38  2  0  0  0  0
 37 54  1  0  0  0  0
 38 55  1  0  0  0  0
 39 56  1  0  0  0  0
 39 57  1  0  0  0  0
 39 58  1  0  0  0  0
M  END
> <PUBCHEM_COMPOUND_CID>
443632

> <PUBCHEM_CONFORMER_RMSD>
0.8

> <PUBCHEM_CONFORMER_DIVERSEORDER>
3
2
1
4

> <PUBCHEM_MMFF94_PARTIAL_CHARGES>
51
1 -0.65
10 0.29
11 -0.14
12 -0.14
13 0.1
14 0.1
15 0.1
16 0.1
17 0.31
19 0.1
2 -0.57
20 -0.15
21 -0.15
22 0.31
23 0.09
24 -0.15
25 -0.15
26 -0.15
27 0.09
28 0.31
29 0.31
3 -0.68
30 -0.15
31 -0.15
32 -0.14
33 0.63
34 0.42
35 -0.15
36 0.63
37 -0.15
38 -0.15
4 -0.65
44 0.15
45 0.15
46 0.4
47 0.15
48 0.15
49 0.15
5 -0.57
50 0.15
51 0.15
53 0.15
54 0.15
55 0.15
59 0.5
6 -0.3
60 0.4
61 0.5
7 -0.6
8 -0.62
9 -0.62

> <PUBCHEM_EFFECTIVE_ROTOR_COUNT>
3.4

> <PUBCHEM_PHARMACOPHORE_FEATURES>
20
1 1 acceptor
1 2 acceptor
1 3 acceptor
1 3 donor
1 4 acceptor
1 5 acceptor
1 6 cation
1 7 cation
1 7 donor
1 8 acceptor
1 9 acceptor
3 1 2 33 anion
3 4 5 36 anion
6 11 14 17 20 22 23 rings
6 12 13 15 21 24 25 rings
6 16 19 26 27 30 31 rings
6 28 29 32 35 37 38 rings
6 6 10 11 12 13 14 rings
6 6 7 13 15 16 19 rings
6 8 9 17 22 28 29 rings

> <PUBCHEM_HEAVY_ATOM_COUNT>
39

> <PUBCHEM_ATOM_DEF_STEREO_COUNT>
0

> <PUBCHEM_ATOM_UDEF_STEREO_COUNT>
2

> <PUBCHEM_BOND_DEF_STEREO_COUNT>
0

> <PUBCHEM_BOND_UDEF_STEREO_COUNT>
0

> <PUBCHEM_ISOTOPIC_ATOM_COUNT>
0

> <PUBCHEM_COMPONENT_COUNT>
1

> <PUBCHEM_CACTVS_TAUTO_COUNT>
2

> <PUBCHEM_CONFORMER_ID>
0006C4F000000003

> <PUBCHEM_MMFF94_ENERGY>
158.4851

> <PUBCHEM_FEATURE_SELFOVERLAP>
101.811

> <PUBCHEM_SHAPE_FINGERPRINT>
10050765 1 18050285869233837774
10439779 11 18191031109858137416
10940486 97 18336831883465202407
1100329 8 18339080385171583722
11135609 187 17984131562502098148
11445158 3 18272653428918372063
11578080 2 17388833976262759018
12107183 9 18411420609110119914
12166972 35 18335422344119079345
12236239 1 18342458170675374210
12422481 6 18129664231017621669
12788726 201 17895740829626162137
13004483 165 18270694185344855808
13782708 43 16702027508084795443
14020679 6 17918270943918485091
14068700 675 18407760339713887544
14117953 113 18193557989341190828
14394314 77 18411418444911554296
14415361 349 17967814925656663166
14466204 15 18337674221705912043
14790565 3 18410007715758067789
14849402 71 18272645727715331949
15021287 119 17847056692758608773
15183329 4 18342741818916040421
15297060 5 17895190055968140435
15444296 121 18342172254444029747
15849732 13 18333171665428624910
16087824 20 18269275831871753581
16090146 7 18042105635725285306
16628084 112 18128260189177052122
18681886 176 18409736144575229897
19302320 297 18340757243995328145
20642791 178 18410004451646473337
21033648 29 17968961749915690611
21133410 171 16744860959758163342
21583282 1 17702652247140406548
21703447 108 17031644335367092323
21781055 127 17314203654213240635
21792964 463 17201899635410535356
21814621 53 14563347624693903951
22311459 1 18411139121412661414
23522609 53 18127102321206360836
23559900 14 18191594051611111000
23569917 315 18333725815169241127
23576562 1 18198614433059172860
24771293 8 18193291693966217048
249057 3 18411137996289011334
3004659 81 18410856534239400432
3178227 256 18411971456542456139
335352 9 18410573955113106310
3383291 50 18335422322702739075
350125 39 18412265059847303789
3680242 22 18340200907573455339
4017518 198 17749104504965626806
4073 2 17845367756655626986
4144715 1 18271798039037420779
463206 1 18271243803777948674
5265222 85 18335419007129859046
6086070 43 18057348217624909013
6371009 1 18335995203268368823

> <PUBCHEM_SHAPE_MULTIPOLES>
753.33
16.87
5.05
1.08
0.56
0.25
-0.28
0.4
-1.25
0.76
1.34
-0.26
0.18
-2.9

> <PUBCHEM_SHAPE_SELFOVERLAP>
1731.05

> <PUBCHEM_SHAPE_VOLUME>
383.9

> <PUBCHEM_COORDINATE_TYPE>
2
5
10

$$$$

