441648
  -OEChem-07051212553D

 32 34  0     0  0  0  0  0  0999 V2000
    0.0310    0.7639   -0.0054 O   0  3  0  0  0  0  0  0  0  0  0  0
    1.1065   -2.7596   -0.0701 O   0  0  0  0  0  0  0  0  0  0  0  0
   -3.8610   -2.1603    0.0250 O   0  0  0  0  0  0  0  0  0  0  0  0
   -5.4955    0.2511    0.0191 O   0  0  0  0  0  0  0  0  0  0  0  0
   -4.3458    2.6505   -0.0128 O   0  0  0  0  0  0  0  0  0  0  0  0
    6.3967    0.8821    0.0090 O   0  0  0  0  0  0  0  0  0  0  0  0
   -1.9133   -0.7782    0.0030 C   0  0  0  0  0  0  0  0  0  0  0  0
   -1.2529    0.5615   -0.0055 C   0  0  0  0  0  0  0  0  0  0  0  0
    0.9084   -0.3473    0.0062 C   0  0  0  0  0  0  0  0  0  0  0  0
   -1.0429   -1.7968   -0.0012 C   0  0  0  0  0  0  0  0  0  0  0  0
    0.3849   -1.5889   -0.0135 C   0  0  0  0  0  0  0  0  0  0  0  0
   -3.3611   -0.8770    0.0123 C   0  0  0  0  0  0  0  0  0  0  0  0
    2.3432   -0.0262    0.0063 C   0  0  0  0  0  0  0  0  0  0  0  0
   -2.1756    1.7297   -0.0133 C   0  0  0  0  0  0  0  0  0  0  0  0
   -4.1187    0.2386    0.0087 C   0  0  0  0  0  0  0  0  0  0  0  0
   -3.5032    1.5549   -0.0063 C   0  0  0  0  0  0  0  0  0  0  0  0
    3.0232    0.1482   -1.2008 C   0  0  0  0  0  0  0  0  0  0  0  0
    3.0309    0.1057    1.2147 C   0  0  0  0  0  0  0  0  0  0  0  0
    4.3844    0.4529   -1.1998 C   0  0  0  0  0  0  0  0  0  0  0  0
    4.3920    0.4106    1.2160 C   0  0  0  0  0  0  0  0  0  0  0  0
    5.0689    0.5844    0.0086 C   0  0  0  0  0  0  0  0  0  0  0  0
   -1.3881   -2.8271    0.0020 H   0  0  0  0  0  0  0  0  0  0  0  0
   -1.7244    2.7152   -0.0234 H   0  0  0  0  0  0  0  0  0  0  0  0
    2.5032    0.0496   -2.1508 H   0  0  0  0  0  0  0  0  0  0  0  0
    2.5169   -0.0262    2.1640 H   0  0  0  0  0  0  0  0  0  0  0  0
    4.9001    0.5858   -2.1471 H   0  0  0  0  0  0  0  0  0  0  0  0
    4.9198    0.5117    2.1604 H   0  0  0  0  0  0  0  0  0  0  0  0
    2.0533   -2.5409   -0.0834 H   0  0  0  0  0  0  0  0  0  0  0  0
   -4.8321   -2.0962    0.0302 H   0  0  0  0  0  0  0  0  0  0  0  0
   -5.8043    1.0044   -0.5120 H   0  0  0  0  0  0  0  0  0  0  0  0
   -5.1707    2.4100    0.4411 H   0  0  0  0  0  0  0  0  0  0  0  0
    6.7010    0.9670   -0.9109 H   0  0  0  0  0  0  0  0  0  0  0  0
  1  8  2  0  0  0  0
  1  9  1  0  0  0  0
  2 11  1  0  0  0  0
  2 28  1  0  0  0  0
  3 12  1  0  0  0  0
  3 29  1  0  0  0  0
  4 15  1  0  0  0  0
  4 30  1  0  0  0  0
  5 16  1  0  0  0  0
  5 31  1  0  0  0  0
  6 21  1  0  0  0  0
  6 32  1  0  0  0  0
  7  8  1  0  0  0  0
  7 10  2  0  0  0  0
  7 12  1  0  0  0  0
  8 14  1  0  0  0  0
  9 11  2  0  0  0  0
  9 13  1  0  0  0  0
 10 11  1  0  0  0  0
 10 22  1  0  0  0  0
 12 15  2  0  0  0  0
 13 17  2  0  0  0  0
 13 18  1  0  0  0  0
 14 16  2  0  0  0  0
 14 23  1  0  0  0  0
 15 16  1  0  0  0  0
 17 19  1  0  0  0  0
 17 24  1  0  0  0  0
 18 20  2  0  0  0  0
 18 25  1  0  0  0  0
 19 21  2  0  0  0  0
 19 26  1  0  0  0  0
 20 21  1  0  0  0  0
 20 27  1  0  0  0  0
M  CHG  1   1   1
M  END
> <PUBCHEM_COMPOUND_CID>
441648

> <PUBCHEM_CONFORMER_RMSD>
0.6

> <PUBCHEM_CONFORMER_DIVERSEORDER>
1
2

> <PUBCHEM_MMFF94_PARTIAL_CHARGES>
32
1 -0.86
10 -0.15
11 0.08
12 0.08
13 0.03
14 -0.14
15 0.08
16 0.08
17 -0.15
18 -0.15
19 -0.15
2 -0.53
20 -0.15
21 0.08
22 0.15
23 0.15
24 0.15
25 0.15
26 0.15
27 0.15
28 0.45
29 0.45
3 -0.53
30 0.45
31 0.45
32 0.45
4 -0.53
5 -0.53
6 -0.53
7 0.01
8 0.92
9 0.88

> <PUBCHEM_EFFECTIVE_ROTOR_COUNT>
1

> <PUBCHEM_PHARMACOPHORE_FEATURES>
8
1 2 donor
1 3 donor
1 4 donor
1 5 donor
1 6 donor
6 1 7 8 9 10 11 rings
6 13 17 18 19 20 21 rings
6 7 8 12 14 15 16 rings

> <PUBCHEM_HEAVY_ATOM_COUNT>
21

> <PUBCHEM_ATOM_DEF_STEREO_COUNT>
0

> <PUBCHEM_ATOM_UDEF_STEREO_COUNT>
0

> <PUBCHEM_BOND_DEF_STEREO_COUNT>
0

> <PUBCHEM_BOND_UDEF_STEREO_COUNT>
0

> <PUBCHEM_ISOTOPIC_ATOM_COUNT>
0

> <PUBCHEM_COMPONENT_COUNT>
1

> <PUBCHEM_CACTVS_TAUTO_COUNT>
368

> <PUBCHEM_CONFORMER_ID>
0006BD3000000001

> <PUBCHEM_MMFF94_ENERGY>
62.3815

> <PUBCHEM_FEATURE_SELFOVERLAP>
40.633

> <PUBCHEM_SHAPE_FINGERPRINT>
10411042 1 17690279313950343631
10498660 4 18336264638592477248
10646746 165 18335423469531970040
10670039 82 18270950358427035804
11132069 177 18412824707192193221
11963148 33 18269560446907920755
12107183 9 17624992903336101208
12236239 1 17846501401052992578
12390115 104 18115577288180121513
12403259 415 17967818206705032808
12403814 3 17561368400448680317
12596602 18 17203325572578069976
12633257 1 15841548548967931936
12788726 201 17340668735753800114
12916748 109 18411131429194201816
12969540 114 17386016082358136085
13140716 1 18051971425075855403
14341114 328 17704076196207711328
15042514 8 18194961829641563787
15196674 1 18338516447027433703
15536298 74 18264205975112895983
1601671 61 18341894112741800652
17980427 23 17988638575593773453
18186145 218 17748823016565157114
19489759 90 18410857646266521960
19784866 170 18412543232183853563
200 152 15841561755601886028
20645477 56 18186519882246723934
20645477 70 16588294030182537158
21033648 29 17603598416956737544
21267235 1 18338231545526975711
23366157 5 17986670587493956970
23402539 116 18336270050567352902
23557571 272 18187639189378676444
23559900 14 18261386806483415870
2916195 48 18187371982927180816
3004659 81 18411415155694163774
3268164 11 18334304140872239277
34934 24 18411143571531055719
3545911 37 18408038532817943437
4028521 119 18040434408014992504
474 4 17703784829847516426
4990 188 17822005432710396246
5104073 3 18269268148770405651
542803 24 17917711284321020012
573450 72 18272942621650548064
9981440 41 18343861125932436163

> <PUBCHEM_SHAPE_MULTIPOLES>
396.95
11.8
2.07
0.89
5.71
0.5
-0.01
-4.69
-0.09
-2.39
0.03
1.13
-0.08
0.01

> <PUBCHEM_SHAPE_SELFOVERLAP>
882.891

> <PUBCHEM_SHAPE_VOLUME>
209.8

> <PUBCHEM_COORDINATE_TYPE>
2
5
10

$$$$

