439943
  -OEChem-07051212483D

 22 21  0     1  0  0  0  0  0999 V2000
    2.0988    1.6952   -0.1396 O   0  0  0  0  0  0  0  0  0  0  0  0
   -2.1254    1.6798    0.0804 O   0  0  0  0  0  0  0  0  0  0  0  0
    1.9218    0.1871    1.5364 O   0  0  0  0  0  0  0  0  0  0  0  0
   -1.9543    0.1069   -1.5354 O   0  0  0  0  0  0  0  0  0  0  0  0
    0.0168   -1.2270    0.0059 N   0  0  0  0  0  0  0  0  0  0  0  0
    1.0296   -0.4227   -0.6258 C   0  0  2  0  0  0  0  0  0  0  0  0
   -1.0138   -0.3997    0.6330 C   0  0  2  0  0  0  0  0  0  0  0  0
    2.0472   -1.3096   -1.3272 C   0  0  0  0  0  0  0  0  0  0  0  0
   -2.0042   -1.2725    1.3889 C   0  0  0  0  0  0  0  0  0  0  0  0
    1.7234    0.4960    0.3662 C   0  0  0  0  0  0  0  0  0  0  0  0
   -1.7400    0.4665   -0.3827 C   0  0  0  0  0  0  0  0  0  0  0  0
    0.5881    0.2146   -1.4012 H   0  0  0  0  0  0  0  0  0  0  0  0
   -0.5678    0.2711    1.3755 H   0  0  0  0  0  0  0  0  0  0  0  0
   -0.4110   -1.8597   -0.6697 H   0  0  0  0  0  0  0  0  0  0  0  0
    2.5538   -1.9751   -0.6184 H   0  0  0  0  0  0  0  0  0  0  0  0
    1.5735   -1.9275   -2.0978 H   0  0  0  0  0  0  0  0  0  0  0  0
    2.8217   -0.7044   -1.8117 H   0  0  0  0  0  0  0  0  0  0  0  0
   -2.5242   -1.9638    0.7156 H   0  0  0  0  0  0  0  0  0  0  0  0
   -1.5017   -1.8622    2.1633 H   0  0  0  0  0  0  0  0  0  0  0  0
   -2.7699   -0.6588    1.8764 H   0  0  0  0  0  0  0  0  0  0  0  0
    2.5365    2.2568    0.5351 H   0  0  0  0  0  0  0  0  0  0  0  0
   -2.5842    2.2063   -0.6085 H   0  0  0  0  0  0  0  0  0  0  0  0
  1 10  1  0  0  0  0
  1 21  1  0  0  0  0
  2 11  1  0  0  0  0
  2 22  1  0  0  0  0
  3 10  2  0  0  0  0
  4 11  2  0  0  0  0
  5  6  1  0  0  0  0
  5  7  1  0  0  0  0
  5 14  1  0  0  0  0
  6  8  1  0  0  0  0
  6 10  1  0  0  0  0
  6 12  1  0  0  0  0
  7  9  1  0  0  0  0
  7 11  1  0  0  0  0
  7 13  1  0  0  0  0
  8 15  1  0  0  0  0
  8 16  1  0  0  0  0
  8 17  1  0  0  0  0
  9 18  1  0  0  0  0
  9 19  1  0  0  0  0
  9 20  1  0  0  0  0
M  END
> <PUBCHEM_COMPOUND_CID>
439943

> <PUBCHEM_CONFORMER_RMSD>
0.6

> <PUBCHEM_CONFORMER_DIVERSEORDER>
3
17
10
4
2
18
1
14
11
7
20
9
19
12
13
16
15
5
6
8

> <PUBCHEM_MMFF94_PARTIAL_CHARGES>
12
1 -0.65
10 0.66
11 0.66
14 0.36
2 -0.65
21 0.5
22 0.5
3 -0.57
4 -0.57
5 -0.9
6 0.33
7 0.33

> <PUBCHEM_EFFECTIVE_ROTOR_COUNT>
4

> <PUBCHEM_PHARMACOPHORE_FEATURES>
8
1 1 acceptor
1 2 acceptor
1 3 acceptor
1 4 acceptor
1 5 cation
1 5 donor
3 1 3 10 anion
3 2 4 11 anion

> <PUBCHEM_HEAVY_ATOM_COUNT>
11

> <PUBCHEM_ATOM_DEF_STEREO_COUNT>
0

> <PUBCHEM_ATOM_UDEF_STEREO_COUNT>
2

> <PUBCHEM_BOND_DEF_STEREO_COUNT>
0

> <PUBCHEM_BOND_UDEF_STEREO_COUNT>
0

> <PUBCHEM_ISOTOPIC_ATOM_COUNT>
0

> <PUBCHEM_COMPONENT_COUNT>
1

> <PUBCHEM_CACTVS_TAUTO_COUNT>
1

> <PUBCHEM_CONFORMER_ID>
0006B68700000003

> <PUBCHEM_MMFF94_ENERGY>
13.1471

> <PUBCHEM_FEATURE_SELFOVERLAP>
40.716

> <PUBCHEM_SHAPE_FINGERPRINT>
12897270 3 17314533472824740317
12932741 1 18343013398008493935
13839132 238 18343014493357016740
15775835 57 17312824857398476768
19973954 147 18411130338040614413
20653085 51 17969218013740276001
21040471 1 17702945984153774519
21930827 45 18058153081057252795
24536 1 18411136935110205665
369184 2 17346050978008904289
5084963 1 17822015259379343454

> <PUBCHEM_SHAPE_MULTIPOLES>
197.92
3.5
1.54
1.41
0.01
0.28
-0.02
0.37
0.04
-0.03
0
0.03
-0.28
0.91

> <PUBCHEM_SHAPE_SELFOVERLAP>
379.018

> <PUBCHEM_SHAPE_VOLUME>
121.3

> <PUBCHEM_COORDINATE_TYPE>
2
5
10

$$$$

