5280468
  -OEChem-07051212462D

101105  0     1  0  0  0  0  0999 V2000
    3.6480    1.2691    0.0000 O   0  0  0  0  0  0  0  0  0  0  0  0
    6.9091    1.4759    0.0000 O   0  0  0  0  0  0  0  0  0  0  0  0
    7.8518    3.7688    0.0000 O   0  0  0  0  0  0  0  0  0  0  0  0
    3.2892   -0.8219    0.0000 O   0  0  0  0  0  0  0  0  0  0  0  0
    6.7332   -2.0445    0.0000 O   0  0  0  0  0  0  0  0  0  0  0  0
    6.2593   -2.5575    0.0000 O   0  0  0  0  0  0  0  0  0  0  0  0
    9.3525   -2.4107    0.0000 O   0  0  0  0  0  0  0  0  0  0  0  0
   10.9705   -2.4107    0.0000 O   0  0  0  0  0  0  0  0  0  0  0  0
    3.2856    2.9628    0.0000 O   0  0  0  0  0  0  0  0  0  0  0  0
    8.8650   -3.6106    0.0000 O   0  0  0  0  0  0  0  0  0  0  0  0
    9.0531    0.9703    0.0000 O   0  0  0  0  0  0  0  0  0  0  0  0
   10.5035    1.1168    0.0000 O   0  0  0  0  0  0  0  0  0  0  0  0
   11.2493   -4.1708    0.0000 O   0  0  0  0  0  0  0  0  0  0  0  0
   12.6743    0.8120    0.0000 O   0  0  0  0  0  0  0  0  0  0  0  0
   10.9478    0.6739    0.0000 N   0  0  0  0  0  0  0  0  0  0  0  0
    5.0288    1.8645    0.0000 C   0  0  2  0  0  0  0  0  0  0  0  0
    6.0256    1.9442    0.0000 C   0  0  1  0  0  0  0  0  0  0  0  0
    4.5994    0.9613    0.0000 C   0  0  1  0  0  0  0  0  0  0  0  0
    6.6740    2.7055    0.0000 C   0  0  1  0  0  0  0  0  0  0  0  0
    4.9345    0.0191    0.0000 C   0  0  1  0  0  0  0  0  0  0  0  0
    7.6708    2.7853    0.0000 C   0  0  2  0  0  0  0  0  0  0  0  0
    5.2097    2.8480    0.0000 C   0  0  0  0  0  0  0  0  0  0  0  0
    4.2860   -0.7421    0.0000 C   0  0  2  0  0  0  0  0  0  0  0  0
    8.2383    1.9619    0.0000 C   0  0  1  0  0  0  0  0  0  0  0  0
    6.4648    3.6834    0.0000 C   0  0  0  0  0  0  0  0  0  0  0  0
    5.8376   -0.4102    0.0000 C   0  0  0  0  0  0  0  0  0  0  0  0
    7.8090    1.0587    0.0000 C   0  0  0  0  0  0  0  0  0  0  0  0
    4.6211   -1.6843    0.0000 C   0  0  0  0  0  0  0  0  0  0  0  0
    9.0617    2.5294    0.0000 C   0  0  0  0  0  0  0  0  0  0  0  0
    9.2955   -1.3229    0.0000 C   0  0  0  0  0  0  0  0  0  0  0  0
    7.1624   -2.9868    0.0000 C   0  0  2  0  0  0  0  0  0  0  0  0
   10.1615   -1.8229    0.0000 C   0  0  3  0  0  0  0  0  0  0  0  0
    8.4015   -1.8576    0.0000 C   0  0  0  0  0  0  0  0  0  0  0  0
    2.9779    2.0114    0.0000 C   0  0  0  0  0  0  0  0  0  0  0  0
    7.4955   -1.3438    0.0000 C   0  0  0  0  0  0  0  0  0  0  0  0
    8.1914   -2.8715    0.0000 C   0  0  0  0  0  0  0  0  0  0  0  0
    9.2955   -0.3229    0.0000 C   0  0  0  0  0  0  0  0  0  0  0  0
    5.6046   -1.8653    0.0000 C   0  0  0  0  0  0  0  0  0  0  0  0
    7.4955   -0.3021    0.0000 C   0  0  0  0  0  0  0  0  0  0  0  0
    9.9649    2.1000    0.0000 C   0  0  0  0  0  0  0  0  0  0  0  0
   11.0275   -1.3229    0.0000 C   0  0  0  0  0  0  0  0  0  0  0  0
    8.4015    0.2117    0.0000 C   0  0  0  0  0  0  0  0  0  0  0  0
    2.8599   -1.7250    0.0000 C   0  0  0  0  0  0  0  0  0  0  0  0
    6.9971   -3.9730    0.0000 C   0  0  0  0  0  0  0  0  0  0  0  0
   10.1615    0.1771    0.0000 C   0  0  0  0  0  0  0  0  0  0  0  0
   11.0275   -0.3229    0.0000 C   0  0  0  0  0  0  0  0  0  0  0  0
    2.0000    1.8022    0.0000 C   0  0  0  0  0  0  0  0  0  0  0  0
    9.6615   -3.3618    0.0000 C   0  0  0  0  0  0  0  0  0  0  0  0
    6.6314    0.2012    0.0000 C   0  0  0  0  0  0  0  0  0  0  0  0
   10.7882    2.6675    0.0000 C   0  0  0  0  0  0  0  0  0  0  0  0
   10.6615   -3.3618    0.0000 C   0  0  0  0  0  0  0  0  0  0  0  0
   11.6914    2.2382    0.0000 C   0  0  0  0  0  0  0  0  0  0  0  0
   11.7712    1.2414    0.0000 C   0  0  0  0  0  0  0  0  0  0  0  0
   12.5148    2.8057    0.0000 C   0  0  0  0  0  0  0  0  0  0  0  0
    4.5568    2.2665    0.0000 H   0  0  0  0  0  0  0  0  0  0  0  0
    6.1553    1.3380    0.0000 H   0  0  0  0  0  0  0  0  0  0  0  0
    4.0740    0.6322    0.0000 H   0  0  0  0  0  0  0  0  0  0  0  0
    6.1262    2.9959    0.0000 H   0  0  0  0  0  0  0  0  0  0  0  0
    5.4450    0.3710    0.0000 H   0  0  0  0  0  0  0  0  0  0  0  0
    8.2101    3.0913    0.0000 H   0  0  0  0  0  0  0  0  0  0  0  0
    5.8195    2.7358    0.0000 H   0  0  0  0  0  0  0  0  0  0  0  0
    5.3219    3.4577    0.0000 H   0  0  0  0  0  0  0  0  0  0  0  0
    4.6000    2.9602    0.0000 H   0  0  0  0  0  0  0  0  0  0  0  0
    3.8509   -0.3005    0.0000 H   0  0  0  0  0  0  0  0  0  0  0  0
    8.6735    1.5202    0.0000 H   0  0  0  0  0  0  0  0  0  0  0  0
    7.0711    3.8131    0.0000 H   0  0  0  0  0  0  0  0  0  0  0  0
    6.3351    4.2897    0.0000 H   0  0  0  0  0  0  0  0  0  0  0  0
    5.8586    3.5537    0.0000 H   0  0  0  0  0  0  0  0  0  0  0  0
    5.5714   -0.9702    0.0000 H   0  0  0  0  0  0  0  0  0  0  0  0
    6.3976   -0.6764    0.0000 H   0  0  0  0  0  0  0  0  0  0  0  0
    6.1038    0.1498    0.0000 H   0  0  0  0  0  0  0  0  0  0  0  0
    7.4345    1.8052    0.0000 H   0  0  0  0  0  0  0  0  0  0  0  0
    7.2490    1.3249    0.0000 H   0  0  0  0  0  0  0  0  0  0  0  0
    7.5428    0.4988    0.0000 H   0  0  0  0  0  0  0  0  0  0  0  0
    8.3690    0.7925    0.0000 H   0  0  0  0  0  0  0  0  0  0  0  0
    4.2190   -2.1563    0.0000 H   0  0  0  0  0  0  0  0  0  0  0  0
    7.3798    4.1708    0.0000 H   0  0  0  0  0  0  0  0  0  0  0  0
    9.0123    3.1474    0.0000 H   0  0  0  0  0  0  0  0  0  0  0  0
    5.9399   -1.3438    0.0000 H   0  0  0  0  0  0  0  0  0  0  0  0
   10.0143    1.4820    0.0000 H   0  0  0  0  0  0  0  0  0  0  0  0
   11.5645   -1.6329    0.0000 H   0  0  0  0  0  0  0  0  0  0  0  0
    2.2999   -1.4588    0.0000 H   0  0  0  0  0  0  0  0  0  0  0  0
    2.5937   -2.2850    0.0000 H   0  0  0  0  0  0  0  0  0  0  0  0
    3.4198   -1.9912    0.0000 H   0  0  0  0  0  0  0  0  0  0  0  0
    6.3856   -3.8705    0.0000 H   0  0  0  0  0  0  0  0  0  0  0  0
    6.8946   -4.5845    0.0000 H   0  0  0  0  0  0  0  0  0  0  0  0
    7.6086   -4.0755    0.0000 H   0  0  0  0  0  0  0  0  0  0  0  0
    1.8703    2.4085    0.0000 H   0  0  0  0  0  0  0  0  0  0  0  0
    1.3937    1.6725    0.0000 H   0  0  0  0  0  0  0  0  0  0  0  0
    2.1297    1.1959    0.0000 H   0  0  0  0  0  0  0  0  0  0  0  0
    9.0551   -3.4907    0.0000 H   0  0  0  0  0  0  0  0  0  0  0  0
    9.7263   -3.9784    0.0000 H   0  0  0  0  0  0  0  0  0  0  0  0
    6.9434    0.7370    0.0000 H   0  0  0  0  0  0  0  0  0  0  0  0
    6.0956    0.5133    0.0000 H   0  0  0  0  0  0  0  0  0  0  0  0
    6.3193   -0.3345    0.0000 H   0  0  0  0  0  0  0  0  0  0  0  0
   10.7388    3.2855    0.0000 H   0  0  0  0  0  0  0  0  0  0  0  0
   11.1127    1.2716    0.0000 H   0  0  0  0  0  0  0  0  0  0  0  0
    9.6624    0.8556    0.0000 H   0  0  0  0  0  0  0  0  0  0  0  0
   12.8666    2.2952    0.0000 H   0  0  0  0  0  0  0  0  0  0  0  0
   13.0253    3.1575    0.0000 H   0  0  0  0  0  0  0  0  0  0  0  0
   12.1629    3.3162    0.0000 H   0  0  0  0  0  0  0  0  0  0  0  0
 18  1  1  1  0  0  0
  1 34  1  0  0  0  0
 17  2  1  1  0  0  0
  2 72  1  0  0  0  0
 21  3  1  1  0  0  0
  3 77  1  0  0  0  0
 23  4  1  6  0  0  0
  4 43  1  0  0  0  0
  5 31  1  0  0  0  0
  5 35  1  0  0  0  0
  6 31  1  0  0  0  0
  6 38  1  0  0  0  0
  7 32  1  0  0  0  0
  7 48  1  0  0  0  0
  8 32  1  0  0  0  0
  8 51  1  0  0  0  0
  9 34  2  0  0  0  0
 10 36  2  0  0  0  0
 11 42  1  0  0  0  0
 11 98  1  0  0  0  0
 12 45  2  0  0  0  0
 13 51  2  0  0  0  0
 14 53  2  0  0  0  0
 15 46  1  0  0  0  0
 15 53  1  0  0  0  0
 15 97  1  0  0  0  0
 16 17  1  0  0  0  0
 16 18  1  0  0  0  0
 16 22  1  6  0  0  0
 16 55  1  0  0  0  0
 17 19  1  0  0  0  0
 17 56  1  0  0  0  0
 18 20  1  0  0  0  0
 18 57  1  0  0  0  0
 19 21  1  0  0  0  0
 19 25  1  6  0  0  0
 19 58  1  0  0  0  0
 20 23  1  0  0  0  0
 20 26  1  6  0  0  0
 20 59  1  0  0  0  0
 21 24  1  0  0  0  0
 21 60  1  0  0  0  0
 22 61  1  0  0  0  0
 22 62  1  0  0  0  0
 22 63  1  0  0  0  0
 23 28  1  0  0  0  0
 23 64  1  0  0  0  0
 24 27  1  6  0  0  0
 24 29  1  0  0  0  0
 24 65  1  0  0  0  0
 25 66  1  0  0  0  0
 25 67  1  0  0  0  0
 25 68  1  0  0  0  0
 26 69  1  0  0  0  0
 26 70  1  0  0  0  0
 26 71  1  0  0  0  0
 27 73  1  0  0  0  0
 27 74  1  0  0  0  0
 27 75  1  0  0  0  0
 28 38  2  0  0  0  0
 28 76  1  0  0  0  0
 29 40  2  0  0  0  0
 29 78  1  0  0  0  0
 30 32  1  0  0  0  0
 30 33  1  0  0  0  0
 30 37  2  0  0  0  0
 31 36  1  0  0  0  0
 31 44  1  6  0  0  0
 32 41  1  0  0  0  0
 33 35  2  0  0  0  0
 33 36  1  0  0  0  0
 34 47  1  0  0  0  0
 35 39  1  0  0  0  0
 37 42  1  0  0  0  0
 37 45  1  0  0  0  0
 38 79  1  0  0  0  0
 39 42  2  0  0  0  0
 39 49  1  0  0  0  0
 40 50  1  0  0  0  0
 40 80  1  0  0  0  0
 41 46  2  0  0  0  0
 41 81  1  0  0  0  0
 43 82  1  0  0  0  0
 43 83  1  0  0  0  0
 43 84  1  0  0  0  0
 44 85  1  0  0  0  0
 44 86  1  0  0  0  0
 44 87  1  0  0  0  0
 45 46  1  0  0  0  0
 47 88  1  0  0  0  0
 47 89  1  0  0  0  0
 47 90  1  0  0  0  0
 48 51  1  0  0  0  0
 48 91  1  0  0  0  0
 48 92  1  0  0  0  0
 49 93  1  0  0  0  0
 49 94  1  0  0  0  0
 49 95  1  0  0  0  0
 50 52  2  0  0  0  0
 50 96  1  0  0  0  0
 52 53  1  0  0  0  0
 52 54  1  0  0  0  0
 54 99  1  0  0  0  0
 54100  1  0  0  0  0
 54101  1  0  0  0  0
M  END
> <PUBCHEM_COMPOUND_CID>
5280468

> <PUBCHEM_COMPOUND_CANONICALIZED>
1

> <PUBCHEM_CACTVS_COMPLEXITY>
1640

> <PUBCHEM_CACTVS_HBOND_ACCEPTOR>
14

> <PUBCHEM_CACTVS_HBOND_DONOR>
4

> <PUBCHEM_CACTVS_ROTATABLE_BOND>
3

> <PUBCHEM_CACTVS_SUBSKEYS>
AAADcfB+PAAAAAAAAAAAAAAAAAAAASJAAAAwQAAAAAAAAAABAAAAHgAQCAAADRyhmAICDoLABgCIAqXSWAKCCAAkIgAIiAHECMgdNzaGtT+meWCl5BWOuYf6/v7u4AADCAAYAADAAAYQADAAAAAAAAAAAA==

> <PUBCHEM_IUPAC_INCHI>
InChI=1S/C39H47NO14/c1-17-11-10-12-18(2)37(48)40-24-15-39(51-16-26(42)53-39)29-27(33(24)46)32(45)22(6)35-28(29)36(47)38(8,54-35)50-14-13-25(49-9)19(3)34(52-23(7)41)21(5)31(44)20(4)30(17)43/h10-15,17,19-21,25,30-31,34,43-45H,16H2,1-9H3,(H,40,48)/b11-10+,14-13+,18-12-/t17-,19+,20+,21+,25-,30-,31+,34+,38-,39?/m0/s1

> <PUBCHEM_IUPAC_INCHIKEY>
RAFHKEAPVIWLJC-KQOHHTLASA-N

> <PUBCHEM_XLOGP3_AA>
4.5

> <PUBCHEM_EXACT_MASS>
753.299655

> <PUBCHEM_MOLECULAR_FORMULA>
C39H47NO14

> <PUBCHEM_MOLECULAR_WEIGHT>
753.78878

> <PUBCHEM_OPENEYE_CAN_SMILES>
CC1C=CC=C(C(=O)NC2=CC3(C4=C5C(=C(C(=C4C2=O)O)C)OC(C5=O)(OC=CC(C(C(C(C(C(C1O)C)O)C)OC(=O)C)C)OC)C)OCC(=O)O3)C

> <PUBCHEM_OPENEYE_ISO_SMILES>
C[C@H]1/C=C/C=C(\C(=O)NC2=CC3(C4=C5C(=C(C(=C4C2=O)O)C)O[C@@](C5=O)(O/C=C/[C@@H]([C@H]([C@H]([C@@H]([C@@H]([C@@H]([C@H]1O)C)O)C)OC(=O)C)C)OC)C)OCC(=O)O3)/C

> <PUBCHEM_CACTVS_TPSA>
213

> <PUBCHEM_MONOISOTOPIC_WEIGHT>
753.299655

> <PUBCHEM_TOTAL_CHARGE>
0

> <PUBCHEM_HEAVY_ATOM_COUNT>
54

> <PUBCHEM_ATOM_DEF_STEREO_COUNT>
9

> <PUBCHEM_ATOM_UDEF_STEREO_COUNT>
1

> <PUBCHEM_BOND_DEF_STEREO_COUNT>
3

> <PUBCHEM_BOND_UDEF_STEREO_COUNT>
0

> <PUBCHEM_ISOTOPIC_ATOM_COUNT>
0

> <PUBCHEM_COMPONENT_COUNT>
1

> <PUBCHEM_CACTVS_TAUTO_COUNT>
60

> <PUBCHEM_COORDINATE_TYPE>
1
5
255

> <PUBCHEM_BONDANNOTATIONS>
18  1  5
16  22  6
19  25  6
17  2  5
20  26  6
24  27  6
21  3  5
30  33  8
30  37  8
31  44  6
32  41  3
33  35  8
35  39  8
37  42  8
39  42  8
23  4  6

$$$$

