3036
  -OEChem-07051212493D

 28 29  0     0  0  0  0  0  0999 V2000
   -0.2142   -2.4318   -1.8683 Cl  0  0  0  0  0  0  0  0  0  0  0  0
   -1.4199   -3.2973    0.6082 Cl  0  0  0  0  0  0  0  0  0  0  0  0
    1.4577   -3.3014    0.3574 Cl  0  0  0  0  0  0  0  0  0  0  0  0
   -4.9625    2.3468   -0.4653 Cl  0  0  0  0  0  0  0  0  0  0  0  0
    5.0269    2.2637   -0.2446 Cl  0  0  0  0  0  0  0  0  0  0  0  0
   -0.0139   -0.9042    0.5193 C   0  0  0  0  0  0  0  0  0  0  0  0
   -1.2439   -0.0970    0.2741 C   0  0  0  0  0  0  0  0  0  0  0  0
    1.2880   -0.0870    0.3227 C   0  0  0  0  0  0  0  0  0  0  0  0
   -0.0232   -2.3700   -0.0865 C   0  0  0  0  0  0  0  0  0  0  0  0
   -1.3382    0.7019   -0.8652 C   0  0  0  0  0  0  0  0  0  0  0  0
    1.6111    0.8397    1.2738 C   0  0  0  0  0  0  0  0  0  0  0  0
   -2.2996   -0.1404    1.1849 C   0  0  0  0  0  0  0  0  0  0  0  0
    2.0388   -0.3387   -0.7914 C   0  0  0  0  0  0  0  0  0  0  0  0
   -2.4881    1.4576   -1.0940 C   0  0  0  0  0  0  0  0  0  0  0  0
    2.7823    1.5761    1.0962 C   0  0  0  0  0  0  0  0  0  0  0  0
   -3.4496    0.6152    0.9562 C   0  0  0  0  0  0  0  0  0  0  0  0
    3.2101    0.3976   -0.9691 C   0  0  0  0  0  0  0  0  0  0  0  0
   -3.5439    1.4142   -0.1833 C   0  0  0  0  0  0  0  0  0  0  0  0
    3.5820    1.3550   -0.0252 C   0  0  0  0  0  0  0  0  0  0  0  0
    0.0065   -1.0938    1.6074 H   0  0  0  0  0  0  0  0  0  0  0  0
   -0.5384    0.7494   -1.5982 H   0  0  0  0  0  0  0  0  0  0  0  0
    0.9929    1.0163    2.1478 H   0  0  0  0  0  0  0  0  0  0  0  0
   -2.2416   -0.7471    2.0846 H   0  0  0  0  0  0  0  0  0  0  0  0
    1.8122   -1.0483   -1.5662 H   0  0  0  0  0  0  0  0  0  0  0  0
   -2.5487    2.0740   -1.9872 H   0  0  0  0  0  0  0  0  0  0  0  0
    3.0594    2.3190    1.8398 H   0  0  0  0  0  0  0  0  0  0  0  0
   -4.2632    0.5736    1.6758 H   0  0  0  0  0  0  0  0  0  0  0  0
    3.8228    0.2175   -1.8488 H   0  0  0  0  0  0  0  0  0  0  0  0
  1  9  1  0  0  0  0
  2  9  1  0  0  0  0
  3  9  1  0  0  0  0
  4 18  1  0  0  0  0
  5 19  1  0  0  0  0
  6  7  1  0  0  0  0
  6  8  1  0  0  0  0
  6  9  1  0  0  0  0
  6 20  1  0  0  0  0
  7 10  2  0  0  0  0
  7 12  1  0  0  0  0
  8 11  2  0  0  0  0
  8 13  1  0  0  0  0
 10 14  1  0  0  0  0
 10 21  1  0  0  0  0
 11 15  1  0  0  0  0
 11 22  1  0  0  0  0
 12 16  2  0  0  0  0
 12 23  1  0  0  0  0
 13 17  2  0  0  0  0
 13 24  1  0  0  0  0
 14 18  2  0  0  0  0
 14 25  1  0  0  0  0
 15 19  2  0  0  0  0
 15 26  1  0  0  0  0
 16 18  1  0  0  0  0
 16 27  1  0  0  0  0
 17 19  1  0  0  0  0
 17 28  1  0  0  0  0
M  END
> <PUBCHEM_COMPOUND_CID>
3036

> <PUBCHEM_CONFORMER_RMSD>
0.6

> <PUBCHEM_CONFORMER_DIVERSEORDER>
1
2

> <PUBCHEM_MMFF94_PARTIAL_CHARGES>
27
1 -0.29
10 -0.15
11 -0.15
12 -0.15
13 -0.15
14 -0.15
15 -0.15
16 -0.15
17 -0.15
18 0.18
19 0.18
2 -0.29
21 0.15
22 0.15
23 0.15
24 0.15
25 0.15
26 0.15
27 0.15
28 0.15
3 -0.29
4 -0.18
5 -0.18
6 0.29
7 -0.14
8 -0.14
9 0.87

> <PUBCHEM_EFFECTIVE_ROTOR_COUNT>
3

> <PUBCHEM_PHARMACOPHORE_FEATURES>
2
6 7 10 12 14 16 18 rings
6 8 11 13 15 17 19 rings

> <PUBCHEM_HEAVY_ATOM_COUNT>
19

> <PUBCHEM_ATOM_DEF_STEREO_COUNT>
0

> <PUBCHEM_ATOM_UDEF_STEREO_COUNT>
0

> <PUBCHEM_BOND_DEF_STEREO_COUNT>
0

> <PUBCHEM_BOND_UDEF_STEREO_COUNT>
0

> <PUBCHEM_ISOTOPIC_ATOM_COUNT>
0

> <PUBCHEM_COMPONENT_COUNT>
1

> <PUBCHEM_CACTVS_TAUTO_COUNT>
1

> <PUBCHEM_CONFORMER_ID>
00000BDC00000001

> <PUBCHEM_MMFF94_ENERGY>
59.0887

> <PUBCHEM_FEATURE_SELFOVERLAP>
10.149

> <PUBCHEM_SHAPE_FINGERPRINT>
10165383 225 18337655452092589537
10498660 4 18411982472738229781
12173636 292 18268149747428152764
12403259 415 18339909485289021457
12500047 106 18263925449967243512
12532896 13 18410577249627594886
12730499 353 18338791329920402769
12788726 201 18050302370287504075
13134695 92 17835533990960958446
13140716 1 18200032988022444835
13294875 104 18115605832368837786
13583140 156 16701752539994164837
13681431 1 17613717437041626423
13955234 65 18125718135251262387
14123255 52 18412263930339470180
14142880 1 18269564835941023109
15309172 13 18411978057448071881
16945 1 18271803458953552795
17134986 127 18410014351108045692
17357779 13 17682973089242690695
1813 80 17101994838476116646
18186145 218 18113891676155128936
18219364 16 18335972091274279225
18222031 100 11743832573301188568
18785283 64 18199186376484168250
20600515 1 9799692618763808590
20645477 56 18265324015762278432
20645477 70 18116998990894641517
21524375 3 18335143098050845390
21756936 100 16772089351839089460
2255824 54 18048039863536931919
23227448 37 18124027936481669148
23402539 116 17904766570534456870
23419403 2 17392708788151516511
23557571 272 17974554811622824260
23559900 14 17487322988214126991
238 59 18190184666535144271
25 1 18040708182342181728
2748010 2 18115295675342139074
283562 15 18051139090104530778
3060560 45 18114187496174837549
350125 39 18411978053005872850
3729539 64 18049696784942887510
458136 41 18338225063745774779
474 4 18409450323292464985
495365 180 18195258925730087673
5845 1 17106518865083666047
633830 44 17823397452906836489
6442390 28 18412255125999372403
7364860 26 18123192565194462123
7808743 9 18270961224610281204
81228 2 17832152618964193330
8272917 22 18045501065550293333
84936 182 18190745438755907073

> <PUBCHEM_SHAPE_MULTIPOLES>
400.36
7.7
3.64
1.34
0.19
3.33
0.21
-9.35
0.51
-0.09
0.2
-0.11
0.23
0.65

> <PUBCHEM_SHAPE_SELFOVERLAP>
807.142

> <PUBCHEM_SHAPE_VOLUME>
225.1

> <PUBCHEM_COORDINATE_TYPE>
2
5
10

$$$$

