4711
  -OEChem-06261200183D

 22 22  0     1  0  0  0  0  0999 V2000
   -4.7979   -0.7153   -0.3523 I   0  0  0  0  0  0  0  0  0  0  0  0
    3.8757    1.2337   -0.0564 S   0  0  0  0  0  0  0  0  0  0  0  0
    1.4407   -1.5308   -1.2083 O   0  0  0  0  0  0  0  0  0  0  0  0
    2.9690   -1.5832    0.4639 O   0  0  0  0  0  0  0  0  0  0  0  0
    1.1980    1.1481    0.6510 C   0  0  0  0  0  0  0  0  0  0  0  0
   -0.2079    0.7105    0.4157 C   0  0  0  0  0  0  0  0  0  0  0  0
    2.1983    0.5768   -0.3733 C   0  0  2  0  0  0  0  0  0  0  0  0
   -1.0447    1.4660   -0.4057 C   0  0  0  0  0  0  0  0  0  0  0  0
   -0.6864   -0.4540    1.0164 C   0  0  0  0  0  0  0  0  0  0  0  0
    2.2554   -0.9394   -0.2949 C   0  0  0  0  0  0  0  0  0  0  0  0
   -2.3600    1.0574   -0.6262 C   0  0  0  0  0  0  0  0  0  0  0  0
   -2.0016   -0.8628    0.7956 C   0  0  0  0  0  0  0  0  0  0  0  0
   -2.8385   -0.1071   -0.0255 C   0  0  0  0  0  0  0  0  0  0  0  0
    1.2354    2.2462    0.6374 H   0  0  0  0  0  0  0  0  0  0  0  0
    1.4910    0.8580    1.6700 H   0  0  0  0  0  0  0  0  0  0  0  0
    1.9287    0.8705   -1.3939 H   0  0  0  0  0  0  0  0  0  0  0  0
   -0.6830    2.3739   -0.8814 H   0  0  0  0  0  0  0  0  0  0  0  0
   -0.0476   -1.0508    1.6620 H   0  0  0  0  0  0  0  0  0  0  0  0
   -2.9950    1.6607   -1.2700 H   0  0  0  0  0  0  0  0  0  0  0  0
   -2.3544   -1.7729    1.2741 H   0  0  0  0  0  0  0  0  0  0  0  0
    3.9977    0.7591    1.1923 H   0  0  0  0  0  0  0  0  0  0  0  0
    1.4922   -2.5093   -1.1643 H   0  0  0  0  0  0  0  0  0  0  0  0
  1 13  1  0  0  0  0
  2  7  1  0  0  0  0
  2 21  1  0  0  0  0
  3 10  1  0  0  0  0
  3 22  1  0  0  0  0
  4 10  2  0  0  0  0
  5  6  1  0  0  0  0
  5  7  1  0  0  0  0
  5 14  1  0  0  0  0
  5 15  1  0  0  0  0
  6  8  2  0  0  0  0
  6  9  1  0  0  0  0
  7 10  1  0  0  0  0
  7 16  1  0  0  0  0
  8 11  1  0  0  0  0
  8 17  1  0  0  0  0
  9 12  2  0  0  0  0
  9 18  1  0  0  0  0
 11 13  2  0  0  0  0
 11 19  1  0  0  0  0
 12 13  1  0  0  0  0
 12 20  1  0  0  0  0
M  END
> <PUBCHEM_COMPOUND_CID>
4711

> <PUBCHEM_CONFORMER_RMSD>
0.6

> <PUBCHEM_CONFORMER_DIVERSEORDER>
3
1
10
13
15
4
11
12
7
2
5
8
14
9
6

> <PUBCHEM_MMFF94_PARTIAL_CHARGES>
19
1 -0.08
10 0.66
11 -0.15
12 -0.15
13 0.08
17 0.15
18 0.15
19 0.15
2 -0.41
20 0.15
21 0.18
22 0.5
3 -0.65
4 -0.57
5 0.14
6 -0.14
7 0.29
8 -0.15
9 -0.15

> <PUBCHEM_EFFECTIVE_ROTOR_COUNT>
3

> <PUBCHEM_PHARMACOPHORE_FEATURES>
5
1 1 hydrophobe
1 3 acceptor
1 4 acceptor
3 3 4 10 anion
6 6 8 9 11 12 13 rings

> <PUBCHEM_HEAVY_ATOM_COUNT>
13

> <PUBCHEM_ATOM_DEF_STEREO_COUNT>
0

> <PUBCHEM_ATOM_UDEF_STEREO_COUNT>
1

> <PUBCHEM_BOND_DEF_STEREO_COUNT>
0

> <PUBCHEM_BOND_UDEF_STEREO_COUNT>
0

> <PUBCHEM_ISOTOPIC_ATOM_COUNT>
0

> <PUBCHEM_COMPONENT_COUNT>
1

> <PUBCHEM_CACTVS_TAUTO_COUNT>
1

> <PUBCHEM_CONFORMER_ID>
0000126700000003

> <PUBCHEM_MMFF94_ENERGY>
28.4703

> <PUBCHEM_FEATURE_SELFOVERLAP>
25.431

> <PUBCHEM_SHAPE_FINGERPRINT>
11769659 78 18040723532972016087
12032990 46 18201435853485339899
14251717 144 18187082845401779319
15219456 202 18412545422411569528
15375358 24 18201157650651313977
15775835 57 18114462266871005942
16945 1 18271232816460542192
18186145 218 18059574758166116557
200 152 18113336401223811049
20201158 50 18412259519365553928
20279233 1 18201434753208788649
20344682 1 18339644442841523804
20645476 183 15482670148321569131
20645477 70 18408605881113671407
21293036 1 17846503604176173029
21501502 16 18337386148995114745
22485316 2 18335141969027990287
23402539 116 17916877811061588285
23402655 69 18409736166561723525
23557571 272 17775574142964261285
23559900 14 18131913750272147018
4990 188 18273220781492897527
581208 293 18261675878545168160
69090 78 18341616997072382387

> <PUBCHEM_SHAPE_MULTIPOLES>
271.58
7.61
1.62
0.97
3.41
0.19
0
0.86
-1.1
-0.84
-0.17
0.09
0.15
0.32

> <PUBCHEM_SHAPE_SELFOVERLAP>
526.285

> <PUBCHEM_SHAPE_VOLUME>
168.2

> <PUBCHEM_COORDINATE_TYPE>
2
5
10

$$$$

