582723
  -OEChem-06241222432D

 42 44  0     1  0  0  0  0  0999 V2000
    5.6103    0.7901    0.0000 O   0  0  0  0  0  0  0  0  0  0  0  0
    8.4993    4.0541    0.0000 O   0  0  0  0  0  0  0  0  0  0  0  0
    4.6783   -3.6710    0.0000 N   0  0  0  0  0  0  0  0  0  0  0  0
    6.6353   -1.6491    0.0000 N   0  0  0  0  0  0  0  0  0  0  0  0
    7.2566    0.2520    0.0000 N   0  0  0  0  0  0  0  0  0  0  0  0
    4.9889   -1.1110    0.0000 C   0  0  0  0  0  0  0  0  0  0  0  0
    4.6783   -2.0615    0.0000 C   0  0  0  0  0  0  0  0  0  0  0  0
    5.9674   -0.9048    0.0000 C   0  0  3  0  0  0  0  0  0  0  0  0
    3.7320   -2.3662    0.0000 C   0  0  0  0  0  0  0  0  0  0  0  0
    3.7320   -3.3662    0.0000 C   0  0  0  0  0  0  0  0  0  0  0  0
    5.2619   -2.8662    0.0000 C   0  0  0  0  0  0  0  0  0  0  0  0
    6.2781    0.0458    0.0000 C   0  0  0  0  0  0  0  0  0  0  0  0
    2.8660   -1.8662    0.0000 C   0  0  0  0  0  0  0  0  0  0  0  0
    2.8660   -3.8662    0.0000 C   0  0  0  0  0  0  0  0  0  0  0  0
    2.0000   -2.3662    0.0000 C   0  0  0  0  0  0  0  0  0  0  0  0
    2.0000   -3.3662    0.0000 C   0  0  0  0  0  0  0  0  0  0  0  0
    7.5673    1.2025    0.0000 C   0  0  0  0  0  0  0  0  0  0  0  0
    8.5458    1.4087    0.0000 C   0  0  0  0  0  0  0  0  0  0  0  0
    6.8994    1.9468    0.0000 C   0  0  0  0  0  0  0  0  0  0  0  0
    8.8564    2.3592    0.0000 C   0  0  0  0  0  0  0  0  0  0  0  0
    7.2101    2.8973    0.0000 C   0  0  0  0  0  0  0  0  0  0  0  0
    8.1886    3.1035    0.0000 C   0  0  0  0  0  0  0  0  0  0  0  0
    9.4778    4.2603    0.0000 C   0  0  0  0  0  0  0  0  0  0  0  0
    4.9684   -0.4913    0.0000 H   0  0  0  0  0  0  0  0  0  0  0  0
    4.3751   -1.0236    0.0000 H   0  0  0  0  0  0  0  0  0  0  0  0
    5.7748   -1.4941    0.0000 H   0  0  0  0  0  0  0  0  0  0  0  0
    5.8819   -2.8662    0.0000 H   0  0  0  0  0  0  0  0  0  0  0  0
    4.8709   -4.2603    0.0000 H   0  0  0  0  0  0  0  0  0  0  0  0
    2.8660   -1.2462    0.0000 H   0  0  0  0  0  0  0  0  0  0  0  0
    2.8660   -4.4862    0.0000 H   0  0  0  0  0  0  0  0  0  0  0  0
    7.2420   -1.5212    0.0000 H   0  0  0  0  0  0  0  0  0  0  0  0
    6.4427   -2.2384    0.0000 H   0  0  0  0  0  0  0  0  0  0  0  0
    1.4631   -2.0562    0.0000 H   0  0  0  0  0  0  0  0  0  0  0  0
    7.6707   -0.2095    0.0000 H   0  0  0  0  0  0  0  0  0  0  0  0
    1.4631   -3.6762    0.0000 H   0  0  0  0  0  0  0  0  0  0  0  0
    8.9598    0.9473    0.0000 H   0  0  0  0  0  0  0  0  0  0  0  0
    6.2928    1.8190    0.0000 H   0  0  0  0  0  0  0  0  0  0  0  0
    9.4631    2.4871    0.0000 H   0  0  0  0  0  0  0  0  0  0  0  0
    6.7960    3.3588    0.0000 H   0  0  0  0  0  0  0  0  0  0  0  0
    9.6056    3.6536    0.0000 H   0  0  0  0  0  0  0  0  0  0  0  0
   10.0844    4.3881    0.0000 H   0  0  0  0  0  0  0  0  0  0  0  0
    9.3499    4.8670    0.0000 H   0  0  0  0  0  0  0  0  0  0  0  0
  1 12  2  0  0  0  0
  2 22  1  0  0  0  0
  2 23  1  0  0  0  0
  3 10  1  0  0  0  0
  3 11  1  0  0  0  0
  3 28  1  0  0  0  0
  4  8  1  0  0  0  0
  4 31  1  0  0  0  0
  4 32  1  0  0  0  0
  5 12  1  0  0  0  0
  5 17  1  0  0  0  0
  5 34  1  0  0  0  0
  6  7  1  0  0  0  0
  6  8  1  0  0  0  0
  6 24  1  0  0  0  0
  6 25  1  0  0  0  0
  7  9  1  0  0  0  0
  7 11  2  0  0  0  0
  8 12  1  0  0  0  0
  8 26  1  0  0  0  0
  9 10  1  0  0  0  0
  9 13  2  0  0  0  0
 10 14  2  0  0  0  0
 11 27  1  0  0  0  0
 13 15  1  0  0  0  0
 13 29  1  0  0  0  0
 14 16  1  0  0  0  0
 14 30  1  0  0  0  0
 15 16  2  0  0  0  0
 15 33  1  0  0  0  0
 16 35  1  0  0  0  0
 17 18  2  0  0  0  0
 17 19  1  0  0  0  0
 18 20  1  0  0  0  0
 18 36  1  0  0  0  0
 19 21  2  0  0  0  0
 19 37  1  0  0  0  0
 20 22  2  0  0  0  0
 20 38  1  0  0  0  0
 21 22  1  0  0  0  0
 21 39  1  0  0  0  0
 23 40  1  0  0  0  0
 23 41  1  0  0  0  0
 23 42  1  0  0  0  0
M  END
> <PUBCHEM_COMPOUND_CID>
582723

> <PUBCHEM_COMPOUND_CANONICALIZED>
1

> <PUBCHEM_CACTVS_COMPLEXITY>
396

> <PUBCHEM_CACTVS_HBOND_ACCEPTOR>
3

> <PUBCHEM_CACTVS_HBOND_DONOR>
3

> <PUBCHEM_CACTVS_ROTATABLE_BOND>
5

> <PUBCHEM_CACTVS_SUBSKEYS>
AAADceB7MAAAAAAAAAAAAAAAAAAAAWAAAAAwYAAAAAAAAFgB9AAAHgAQAAAADCzBngY+xvLJlACoAzV3VACCiCAxIiAI2aG+bJgMZvLEsZuUMChk1BHI6Ae4ycCOgEAAAAACAAAAgAAAAAQAAAAAAAAAAA==

> <PUBCHEM_IUPAC_OPENEYE_NAME>
2-amino-3-(1H-indol-3-yl)-N-(4-methoxyphenyl)propanamide

> <PUBCHEM_IUPAC_CAS_NAME>
2-amino-3-(1H-indol-3-yl)-N-(4-methoxyphenyl)propanamide

> <PUBCHEM_IUPAC_NAME>
2-amino-3-(1H-indol-3-yl)-N-(4-methoxyphenyl)propanamide

> <PUBCHEM_IUPAC_SYSTEMATIC_NAME>
2-azanyl-3-(1H-indol-3-yl)-N-(4-methoxyphenyl)propanamide

> <PUBCHEM_IUPAC_TRADITIONAL_NAME>
2-amino-3-(1H-indol-3-yl)-N-(4-methoxyphenyl)propionamide

> <PUBCHEM_IUPAC_INCHI>
InChI=1S/C18H19N3O2/c1-23-14-8-6-13(7-9-14)21-18(22)16(19)10-12-11-20-17-5-3-2-4-15(12)17/h2-9,11,16,20H,10,19H2,1H3,(H,21,22)

> <PUBCHEM_IUPAC_INCHIKEY>
PMOGDVNFBDYZBB-UHFFFAOYSA-N

> <PUBCHEM_XLOGP3>
2.5

> <PUBCHEM_EXACT_MASS>
309.147727

> <PUBCHEM_MOLECULAR_FORMULA>
C18H19N3O2

> <PUBCHEM_MOLECULAR_WEIGHT>
309.36236

> <PUBCHEM_OPENEYE_CAN_SMILES>
COC1=CC=C(C=C1)NC(=O)C(CC2=CNC3=CC=CC=C32)N

> <PUBCHEM_OPENEYE_ISO_SMILES>
COC1=CC=C(C=C1)NC(=O)C(CC2=CNC3=CC=CC=C32)N

> <PUBCHEM_CACTVS_TPSA>
80.1

> <PUBCHEM_MONOISOTOPIC_WEIGHT>
309.147727

> <PUBCHEM_TOTAL_CHARGE>
0

> <PUBCHEM_HEAVY_ATOM_COUNT>
23

> <PUBCHEM_ATOM_DEF_STEREO_COUNT>
0

> <PUBCHEM_ATOM_UDEF_STEREO_COUNT>
1

> <PUBCHEM_BOND_DEF_STEREO_COUNT>
0

> <PUBCHEM_BOND_UDEF_STEREO_COUNT>
0

> <PUBCHEM_ISOTOPIC_ATOM_COUNT>
0

> <PUBCHEM_COMPONENT_COUNT>
1

> <PUBCHEM_CACTVS_TAUTO_COUNT>
5

> <PUBCHEM_COORDINATE_TYPE>
1
5
255

> <PUBCHEM_BONDANNOTATIONS>
10  14  8
13  15  8
14  16  8
15  16  8
17  18  8
17  19  8
18  20  8
19  21  8
20  22  8
21  22  8
3  10  8
3  11  8
8  4  3
7  11  8
7  9  8
9  10  8
9  13  8

$$$$

