11953994
  -OEChem-07051213022D

 64 66  0     0  0  0  0  0  0999 V2000
   10.2272    2.1976    0.0000 O   0  0  0  0  0  0  0  0  0  0  0  0
    8.9163    2.6030    0.0000 N   0  0  0  0  0  0  0  0  0  0  0  0
   11.3150    4.5454    0.0000 N   0  0  0  0  0  0  0  0  0  0  0  0
   13.3841    5.2177    0.0000 N   0  0  0  0  0  0  0  0  0  0  0  0
    5.4769   -1.3562    0.0000 C   0  0  0  0  0  0  0  0  0  0  0  0
    5.6848   -0.3781    0.0000 C   0  0  0  0  0  0  0  0  0  0  0  0
    4.5258   -1.6652    0.0000 C   0  0  0  0  0  0  0  0  0  0  0  0
    6.6359   -0.0690    0.0000 C   0  0  0  0  0  0  0  0  0  0  0  0
    4.3179   -2.6434    0.0000 C   0  0  0  0  0  0  0  0  0  0  0  0
    6.8438    0.9091    0.0000 C   0  0  0  0  0  0  0  0  0  0  0  0
    3.3669   -2.9524    0.0000 C   0  0  0  0  0  0  0  0  0  0  0  0
    7.7948    1.2181    0.0000 C   0  0  0  0  0  0  0  0  0  0  0  0
    3.1590   -3.9305    0.0000 C   0  0  0  0  0  0  0  0  0  0  0  0
    8.0028    2.1963    0.0000 C   0  0  0  0  0  0  0  0  0  0  0  0
    2.2079   -4.2396    0.0000 C   0  0  0  0  0  0  0  0  0  0  0  0
    7.3336    2.9394    0.0000 C   0  0  0  0  0  0  0  0  0  0  0  0
    8.8118    3.5975    0.0000 C   0  0  0  0  0  0  0  0  0  0  0  0
    7.8336    3.8054    0.0000 C   0  0  0  0  0  0  0  0  0  0  0  0
    2.0000   -5.2177    0.0000 C   0  0  0  0  0  0  0  0  0  0  0  0
    9.5549    4.2666    0.0000 C   0  0  0  0  0  0  0  0  0  0  0  0
   10.5060    3.9576    0.0000 C   0  0  0  0  0  0  0  0  0  0  0  0
   10.8150    3.0066    0.0000 C   0  0  0  0  0  0  0  0  0  0  0  0
   12.1240    3.9576    0.0000 C   0  0  0  0  0  0  0  0  0  0  0  0
   11.8150    3.0066    0.0000 C   0  0  0  0  0  0  0  0  0  0  0  0
   13.0751    4.2666    0.0000 C   0  0  0  0  0  0  0  0  0  0  0  0
   13.8841    3.6789    0.0000 C   0  0  0  0  0  0  0  0  0  0  0  0
   14.6931    4.2666    0.0000 C   0  0  0  0  0  0  0  0  0  0  0  0
   10.6339    1.2840    0.0000 C   0  0  0  0  0  0  0  0  0  0  0  0
   14.3841    5.2177    0.0000 C   0  0  0  0  0  0  0  0  0  0  0  0
    5.5632   -1.9702    0.0000 H   0  0  0  0  0  0  0  0  0  0  0  0
    6.0965   -1.3778    0.0000 H   0  0  0  0  0  0  0  0  0  0  0  0
    5.5985    0.2359    0.0000 H   0  0  0  0  0  0  0  0  0  0  0  0
    5.0652   -0.3564    0.0000 H   0  0  0  0  0  0  0  0  0  0  0  0
    4.4396   -1.0513    0.0000 H   0  0  0  0  0  0  0  0  0  0  0  0
    3.9062   -1.6436    0.0000 H   0  0  0  0  0  0  0  0  0  0  0  0
    6.7222   -0.6830    0.0000 H   0  0  0  0  0  0  0  0  0  0  0  0
    7.2555   -0.0907    0.0000 H   0  0  0  0  0  0  0  0  0  0  0  0
    4.4042   -3.2574    0.0000 H   0  0  0  0  0  0  0  0  0  0  0  0
    4.9376   -2.6650    0.0000 H   0  0  0  0  0  0  0  0  0  0  0  0
    6.7575    1.5231    0.0000 H   0  0  0  0  0  0  0  0  0  0  0  0
    6.2242    0.9307    0.0000 H   0  0  0  0  0  0  0  0  0  0  0  0
    3.2806   -2.3384    0.0000 H   0  0  0  0  0  0  0  0  0  0  0  0
    2.7473   -2.9308    0.0000 H   0  0  0  0  0  0  0  0  0  0  0  0
    7.8811    0.6041    0.0000 H   0  0  0  0  0  0  0  0  0  0  0  0
    8.4145    1.1965    0.0000 H   0  0  0  0  0  0  0  0  0  0  0  0
    3.2453   -4.5445    0.0000 H   0  0  0  0  0  0  0  0  0  0  0  0
    3.7786   -3.9522    0.0000 H   0  0  0  0  0  0  0  0  0  0  0  0
    2.1216   -3.6256    0.0000 H   0  0  0  0  0  0  0  0  0  0  0  0
    1.5883   -4.2179    0.0000 H   0  0  0  0  0  0  0  0  0  0  0  0
    9.4532    2.2930    0.0000 H   0  0  0  0  0  0  0  0  0  0  0  0
    6.7170    2.8746    0.0000 H   0  0  0  0  0  0  0  0  0  0  0  0
    7.5814    4.3718    0.0000 H   0  0  0  0  0  0  0  0  0  0  0  0
    1.3936   -5.0888    0.0000 H   0  0  0  0  0  0  0  0  0  0  0  0
    1.8711   -5.8242    0.0000 H   0  0  0  0  0  0  0  0  0  0  0  0
    2.6064   -5.3466    0.0000 H   0  0  0  0  0  0  0  0  0  0  0  0
    9.4260    4.8731    0.0000 H   0  0  0  0  0  0  0  0  0  0  0  0
   11.3150    5.1654    0.0000 H   0  0  0  0  0  0  0  0  0  0  0  0
   12.1794    2.5050    0.0000 H   0  0  0  0  0  0  0  0  0  0  0  0
   13.8841    3.0589    0.0000 H   0  0  0  0  0  0  0  0  0  0  0  0
   15.2828    4.0751    0.0000 H   0  0  0  0  0  0  0  0  0  0  0  0
   10.0675    1.0318    0.0000 H   0  0  0  0  0  0  0  0  0  0  0  0
   10.8861    0.7176    0.0000 H   0  0  0  0  0  0  0  0  0  0  0  0
   11.2003    1.5362    0.0000 H   0  0  0  0  0  0  0  0  0  0  0  0
   14.7485    5.7193    0.0000 H   0  0  0  0  0  0  0  0  0  0  0  0
  1 22  1  0  0  0  0
  1 28  1  0  0  0  0
  2 14  1  0  0  0  0
  2 17  1  0  0  0  0
  2 50  1  0  0  0  0
  3 21  1  0  0  0  0
  3 23  1  0  0  0  0
  3 57  1  0  0  0  0
  4 25  1  0  0  0  0
  4 29  2  0  0  0  0
  5  6  1  0  0  0  0
  5  7  1  0  0  0  0
  5 30  1  0  0  0  0
  5 31  1  0  0  0  0
  6  8  1  0  0  0  0
  6 32  1  0  0  0  0
  6 33  1  0  0  0  0
  7  9  1  0  0  0  0
  7 34  1  0  0  0  0
  7 35  1  0  0  0  0
  8 10  1  0  0  0  0
  8 36  1  0  0  0  0
  8 37  1  0  0  0  0
  9 11  1  0  0  0  0
  9 38  1  0  0  0  0
  9 39  1  0  0  0  0
 10 12  1  0  0  0  0
 10 40  1  0  0  0  0
 10 41  1  0  0  0  0
 11 13  1  0  0  0  0
 11 42  1  0  0  0  0
 11 43  1  0  0  0  0
 12 14  1  0  0  0  0
 12 44  1  0  0  0  0
 12 45  1  0  0  0  0
 13 15  1  0  0  0  0
 13 46  1  0  0  0  0
 13 47  1  0  0  0  0
 14 16  2  0  0  0  0
 15 19  1  0  0  0  0
 15 48  1  0  0  0  0
 15 49  1  0  0  0  0
 16 18  1  0  0  0  0
 16 51  1  0  0  0  0
 17 18  2  0  0  0  0
 17 20  1  0  0  0  0
 18 52  1  0  0  0  0
 19 53  1  0  0  0  0
 19 54  1  0  0  0  0
 19 55  1  0  0  0  0
 20 21  2  0  0  0  0
 20 56  1  0  0  0  0
 21 22  1  0  0  0  0
 22 24  2  0  0  0  0
 23 24  1  0  0  0  0
 23 25  2  0  0  0  0
 24 58  1  0  0  0  0
 25 26  1  0  0  0  0
 26 27  2  0  0  0  0
 26 59  1  0  0  0  0
 27 29  1  0  0  0  0
 27 60  1  0  0  0  0
 28 61  1  0  0  0  0
 28 62  1  0  0  0  0
 28 63  1  0  0  0  0
 29 64  1  0  0  0  0
M  END
> <PUBCHEM_COMPOUND_CID>
11953994

> <PUBCHEM_COMPOUND_CANONICALIZED>
1

> <PUBCHEM_CACTVS_COMPLEXITY>
672

> <PUBCHEM_CACTVS_HBOND_ACCEPTOR>
3

> <PUBCHEM_CACTVS_HBOND_DONOR>
2

> <PUBCHEM_CACTVS_ROTATABLE_BOND>
12

> <PUBCHEM_CACTVS_SUBSKEYS>
AAADcfB7IAAAAAAAAAAAAAAAAAAAAWIEAAAAAAAAAAAAAAABgAAAHgAQAAAACAzBlgYygJLJlACgATRjRACCiCAhIiAImSAwZJgKJOLAsZGFEAhgkADY6AcQgIAAAAAAAAAAAAAAAAAAAAAAAAAAAAAAAA==

> <PUBCHEM_IUPAC_OPENEYE_NAME>
(2E,5Z)-3-methoxy-5-pyrrol-2-ylidene-2-[(5-undecyl-1H-pyrrol-2-yl)methylene]pyrrole

> <PUBCHEM_IUPAC_CAS_NAME>
(2E,5Z)-3-methoxy-5-(2-pyrrolylidene)-2-[(5-undecyl-1H-pyrrol-2-yl)methylidene]pyrrole

> <PUBCHEM_IUPAC_NAME>
(2E,5Z)-3-methoxy-5-pyrrol-2-ylidene-2-[(5-undecyl-1H-pyrrol-2-yl)methylidene]pyrrole

> <PUBCHEM_IUPAC_SYSTEMATIC_NAME>
(2E,5Z)-3-methoxy-5-pyrrol-2-ylidene-2-[(5-undecyl-1H-pyrrol-2-yl)methylidene]pyrrole

> <PUBCHEM_IUPAC_TRADITIONAL_NAME>
(2E,5Z)-3-methoxy-5-pyrrol-2-ylidene-2-[(5-undecyl-1H-pyrrol-2-yl)methylene]-3-pyrroline

> <PUBCHEM_IUPAC_INCHI>
InChI=1S/C25H35N3O/c1-3-4-5-6-7-8-9-10-11-13-20-15-16-21(27-20)18-24-25(29-2)19-23(28-24)22-14-12-17-26-22/h12,14-19,27-28H,3-11,13H2,1-2H3/b23-22-,24-18+

> <PUBCHEM_IUPAC_INCHIKEY>
ISFCPXILUVJVOC-PSNBQBPLSA-N

> <PUBCHEM_XLOGP3_AA>
6.7

> <PUBCHEM_EXACT_MASS>
393.278013

> <PUBCHEM_MOLECULAR_FORMULA>
C25H35N3O

> <PUBCHEM_MOLECULAR_WEIGHT>
393.5649

> <PUBCHEM_OPENEYE_CAN_SMILES>
CCCCCCCCCCCC1=CC=C(N1)C=C2C(=CC(=C3C=CC=N3)N2)OC

> <PUBCHEM_OPENEYE_ISO_SMILES>
CCCCCCCCCCCC1=CC=C(N1)/C=C/2\C(=C/C(=C/3\C=CC=N3)/N2)OC

> <PUBCHEM_CACTVS_TPSA>
49.4

> <PUBCHEM_MONOISOTOPIC_WEIGHT>
393.278013

> <PUBCHEM_TOTAL_CHARGE>
0

> <PUBCHEM_HEAVY_ATOM_COUNT>
29

> <PUBCHEM_ATOM_DEF_STEREO_COUNT>
0

> <PUBCHEM_ATOM_UDEF_STEREO_COUNT>
0

> <PUBCHEM_BOND_DEF_STEREO_COUNT>
2

> <PUBCHEM_BOND_UDEF_STEREO_COUNT>
0

> <PUBCHEM_ISOTOPIC_ATOM_COUNT>
0

> <PUBCHEM_COMPONENT_COUNT>
1

> <PUBCHEM_CACTVS_TAUTO_COUNT>
9

> <PUBCHEM_COORDINATE_TYPE>
1
5
255

> <PUBCHEM_BONDANNOTATIONS>
14  16  8
16  18  8
17  18  8
2  14  8
2  17  8
21  22  8
22  24  8
23  24  8
3  21  8
3  23  8

$$$$

