24941628
  -OEChem-07051213153D

 34 36  0     1  0  0  0  0  0999 V2000
    2.7696   -0.9248   -0.9046 O   0  0  0  0  0  0  0  0  0  0  0  0
    1.6464    0.7969   -1.9980 O   0  0  0  0  0  0  0  0  0  0  0  0
   -4.2152   -0.4526   -0.3660 O   0  0  0  0  0  0  0  0  0  0  0  0
    0.3308    1.3278    0.5294 N   0  0  0  0  0  0  0  0  0  0  0  0
   -0.1941   -2.0710   -0.4092 N   0  0  0  0  0  0  0  0  0  0  0  0
    1.0349   -1.0161    1.1864 N   0  0  0  0  0  0  0  0  0  0  0  0
   -2.0273    1.0893    0.1996 N   0  0  0  0  0  0  0  0  0  0  0  0
   -1.1395    3.1218    0.8280 N   0  0  0  0  0  0  0  0  0  0  0  0
    0.6641   -3.3805    1.3184 N   0  0  0  0  0  0  0  0  0  0  0  0
    0.6856   -0.0281    0.0941 C   0  0  1  0  0  0  0  0  0  0  0  0
   -0.4788   -0.6815   -0.6871 C   0  0  2  0  0  0  0  0  0  0  0  0
    1.9835    0.2402   -0.7295 C   0  0  0  0  0  0  0  0  0  0  0  0
    2.6789    1.2805    0.1500 C   0  0  0  0  0  0  0  0  0  0  0  0
    1.5261    2.1788    0.5972 C   0  0  0  0  0  0  0  0  0  0  0  0
   -1.8476   -0.3404   -0.0673 C   0  0  2  0  0  0  0  0  0  0  0  0
   -0.9781    1.7923    0.5088 C   0  0  0  0  0  0  0  0  0  0  0  0
    0.5480   -2.1533    0.7378 C   0  0  0  0  0  0  0  0  0  0  0  0
   -2.9873   -0.7793   -0.9880 C   0  0  0  0  0  0  0  0  0  0  0  0
   -0.4560   -0.4630   -1.7590 H   0  0  0  0  0  0  0  0  0  0  0  0
    3.4472    1.8513   -0.3814 H   0  0  0  0  0  0  0  0  0  0  0  0
    3.1589    0.8060    1.0145 H   0  0  0  0  0  0  0  0  0  0  0  0
    1.6887    2.5620    1.6093 H   0  0  0  0  0  0  0  0  0  0  0  0
    1.4313    3.0227   -0.0958 H   0  0  0  0  0  0  0  0  0  0  0  0
   -1.9826   -0.8544    0.8949 H   0  0  0  0  0  0  0  0  0  0  0  0
   -0.7450   -2.8310   -0.7904 H   0  0  0  0  0  0  0  0  0  0  0  0
   -2.9610   -1.8589   -1.1659 H   0  0  0  0  0  0  0  0  0  0  0  0
   -2.9402   -0.2584   -1.9505 H   0  0  0  0  0  0  0  0  0  0  0  0
    3.6986   -0.6487   -0.9792 H   0  0  0  0  0  0  0  0  0  0  0  0
    2.3888    1.3524   -2.2889 H   0  0  0  0  0  0  0  0  0  0  0  0
   -2.0620    3.5441    0.8258 H   0  0  0  0  0  0  0  0  0  0  0  0
   -0.3704    3.7089    1.1286 H   0  0  0  0  0  0  0  0  0  0  0  0
    1.1839   -3.5087    2.1798 H   0  0  0  0  0  0  0  0  0  0  0  0
    0.2439   -4.2039    0.9015 H   0  0  0  0  0  0  0  0  0  0  0  0
   -4.9257   -0.7379   -0.9655 H   0  0  0  0  0  0  0  0  0  0  0  0
  1 12  1  0  0  0  0
  1 28  1  0  0  0  0
  2 12  1  0  0  0  0
  2 29  1  0  0  0  0
  3 18  1  0  0  0  0
  3 34  1  0  0  0  0
  4 10  1  0  0  0  0
  4 14  1  0  0  0  0
  4 16  1  0  0  0  0
  5 11  1  0  0  0  0
  5 17  1  0  0  0  0
  5 25  1  0  0  0  0
  6 10  1  0  0  0  0
  6 17  2  0  0  0  0
  7 15  1  0  0  0  0
  7 16  2  0  0  0  0
  8 16  1  0  0  0  0
  8 30  1  0  0  0  0
  8 31  1  0  0  0  0
  9 17  1  0  0  0  0
  9 32  1  0  0  0  0
  9 33  1  0  0  0  0
 10 11  1  0  0  0  0
 10 12  1  0  0  0  0
 11 15  1  0  0  0  0
 11 19  1  0  0  0  0
 12 13  1  0  0  0  0
 13 14  1  0  0  0  0
 13 20  1  0  0  0  0
 13 21  1  0  0  0  0
 14 22  1  0  0  0  0
 14 23  1  0  0  0  0
 15 18  1  0  0  0  0
 15 24  1  0  0  0  0
 18 26  1  0  0  0  0
 18 27  1  0  0  0  0
M  END
> <PUBCHEM_COMPOUND_CID>
24941628

> <PUBCHEM_CONFORMER_RMSD>
0.6

> <PUBCHEM_CONFORMER_DIVERSEORDER>
1
4
2
3

> <PUBCHEM_MMFF94_PARTIAL_CHARGES>
25
1 -0.68
10 0.62
11 0.37
12 0.56
14 0.37
15 0.25
16 0.55
17 0.55
18 0.28
2 -0.68
25 0.4
28 0.4
29 0.4
3 -0.68
30 0.4
31 0.4
32 0.4
33 0.4
34 0.4
4 -0.79
5 -0.82
6 -0.7
7 -0.7
8 -0.85
9 -0.85

> <PUBCHEM_EFFECTIVE_ROTOR_COUNT>
2

> <PUBCHEM_PHARMACOPHORE_FEATURES>
14
1 1 acceptor
1 1 donor
1 2 acceptor
1 2 donor
1 3 acceptor
1 3 donor
1 5 donor
1 8 donor
1 9 donor
4 4 7 8 16 cation
4 5 6 9 17 cation
5 4 10 12 13 14 rings
5 5 6 10 11 17 rings
6 4 7 10 11 15 16 rings

> <PUBCHEM_HEAVY_ATOM_COUNT>
18

> <PUBCHEM_ATOM_DEF_STEREO_COUNT>
3

> <PUBCHEM_ATOM_UDEF_STEREO_COUNT>
0

> <PUBCHEM_BOND_DEF_STEREO_COUNT>
0

> <PUBCHEM_BOND_UDEF_STEREO_COUNT>
0

> <PUBCHEM_ISOTOPIC_ATOM_COUNT>
0

> <PUBCHEM_COMPONENT_COUNT>
1

> <PUBCHEM_CACTVS_TAUTO_COUNT>
6

> <PUBCHEM_CONFORMER_ID>
017C943C00000001

> <PUBCHEM_MMFF94_ENERGY>
62.012

> <PUBCHEM_FEATURE_SELFOVERLAP>
71.455

> <PUBCHEM_SHAPE_FINGERPRINT>
10353120 184 18334568027900006157
10906281 52 18045206151294424696
10967382 1 18262521368796150501
12138202 97 17982449296097756550
12423570 1 14161387488947631502
12716301 132 17767695953198747283
13140716 1 18338803308061997563
13380535 76 18118973481697158904
13380536 167 18122345954051948035
13538477 17 18120655987885497325
13544592 271 17611474034094726776
14115302 16 18128530458367212332
14181834 199 17550383381211830260
14817 1 13452063920433597364
16945 1 18115581544017574580
193761 8 18120096336345627169
20511035 2 17476616046587617641
20559304 39 18266752439995615363
20588541 1 18047755892720018096
20645476 183 17630042659415371542
22112679 90 17904768026280118930
22182313 1 17180796364819765200
22344851 341 18262522605862815728
22802520 49 18043793330286234366
2334 1 18335139735318461953
23388829 49 18194705858016503066
23402539 116 18042699311926904804
23419403 2 16396100166166869750
23559900 14 18121781630780604608
25 1 18192719946874878717
2748010 2 16893990916750278881
3060560 45 17968386658627761023
353137 74 18408045104297553161
7364860 26 18338527437843774735
81228 2 18188752964788580096

> <PUBCHEM_SHAPE_MULTIPOLES>
322.94
3.98
3.04
1.2
2.94
0.47
-0.26
-0.55
-1.27
-0.28
1.59
-0.4
0.28
-0.21

> <PUBCHEM_SHAPE_SELFOVERLAP>
698.449

> <PUBCHEM_SHAPE_VOLUME>
175.2

> <PUBCHEM_COORDINATE_TYPE>
2
5
10

$$$$

