8235
  -OEChem-06261202403D

 79 83  0     0  0  0  0  0  0999 V2000
   -2.2033   -2.0007    2.6559 O   0  0  0  0  0  0  0  0  0  0  0  0
    7.2765    0.5465    0.4699 O   0  0  0  0  0  0  0  0  0  0  0  0
    4.3227    0.3900    3.3412 O   0  0  0  0  0  0  0  0  0  0  0  0
    7.2460    0.3840   -1.7932 O   0  0  0  0  0  0  0  0  0  0  0  0
    4.8501    2.4497    2.5483 O   0  0  0  0  0  0  0  0  0  0  0  0
   -4.3948   -1.2136   -0.6684 O   0  0  0  0  0  0  0  0  0  0  0  0
    0.8848   -0.8498   -1.5249 N   0  0  0  0  0  0  0  0  0  0  0  0
   -0.4231    2.1901   -1.2052 N   0  0  0  0  0  0  0  0  0  0  0  0
   -0.6649   -2.1474    0.8173 N   0  0  0  0  0  0  0  0  0  0  0  0
   -3.1168    0.7410   -0.4545 N   0  0  0  0  0  0  0  0  0  0  0  0
    1.9921   -0.0639   -1.7102 C   0  0  0  0  0  0  0  0  0  0  0  0
    1.8684    1.3948   -1.8933 C   0  0  0  0  0  0  0  0  0  0  0  0
    0.9084    2.0541   -0.9101 C   0  0  0  0  0  0  0  0  0  0  0  0
    3.0995   -0.8825   -1.6845 C   0  0  0  0  0  0  0  0  0  0  0  0
    1.1213    2.5954    0.3384 C   0  0  0  0  0  0  0  0  0  0  0  0
    2.6418   -2.2072   -1.4767 C   0  0  0  0  0  0  0  0  0  0  0  0
    1.2686   -2.1577   -1.3821 C   0  0  0  0  0  0  0  0  0  0  0  0
   -0.1260    3.0736    0.8106 C   0  0  0  0  0  0  0  0  0  0  0  0
    4.5044   -0.4545   -1.8460 C   0  0  0  0  0  0  0  0  0  0  0  0
   -1.0632    2.8096   -0.1635 C   0  0  0  0  0  0  0  0  0  0  0  0
    2.4137    2.6619    1.0513 C   0  0  0  0  0  0  0  0  0  0  0  0
    0.2451   -3.1394   -1.1793 C   0  0  0  0  0  0  0  0  0  0  0  0
   -0.6318   -3.1241   -0.1697 C   0  0  0  0  0  0  0  0  0  0  0  0
   -2.3464   -3.7408    1.1889 C   0  0  0  0  0  0  0  0  0  0  0  0
    3.4831   -3.4183   -1.3794 C   0  0  0  0  0  0  0  0  0  0  0  0
   -1.6956   -4.0994    0.0850 C   0  0  0  0  0  0  0  0  0  0  0  0
    5.2163   -0.0877   -0.5282 C   0  0  0  0  0  0  0  0  0  0  0  0
   -3.4126   -4.0425    2.1325 C   0  0  0  0  0  0  0  0  0  0  0  0
   -0.3749    3.7340    2.1091 C   0  0  0  0  0  0  0  0  0  0  0  0
    2.7150    1.4409    1.9436 C   0  0  0  0  0  0  0  0  0  0  0  0
   -2.4438    3.0366   -0.2814 C   0  0  0  0  0  0  0  0  0  0  0  0
   -1.6533   -2.5363    1.5505 C   0  0  0  0  0  0  0  0  0  0  0  0
   -3.3803   -2.7735    2.9929 C   0  0  0  0  0  0  0  0  0  0  0  0
   -3.3902    2.0768   -0.4157 C   0  0  0  0  0  0  0  0  0  0  0  0
   -1.9655   -5.2902   -0.7616 C   0  0  0  0  0  0  0  0  0  0  0  0
   -4.8328    2.2141   -0.5436 C   0  0  0  0  0  0  0  0  0  0  0  0
    6.6647    0.3082   -0.7200 C   0  0  0  0  0  0  0  0  0  0  0  0
    4.0622    1.5180    2.6294 C   0  0  0  0  0  0  0  0  0  0  0  0
   -5.3861    0.9870   -0.6544 C   0  0  0  0  0  0  0  0  0  0  0  0
   -4.2713   -0.0035   -0.5985 C   0  0  0  0  0  0  0  0  0  0  0  0
   -5.5880    3.4406   -0.5541 C   0  0  0  0  0  0  0  0  0  0  0  0
   -6.7912    0.5309   -0.8071 C   0  0  0  0  0  0  0  0  0  0  0  0
   -6.6287    3.6553   -1.3594 C   0  0  0  0  0  0  0  0  0  0  0  0
    1.5247    1.6001   -2.9157 H   0  0  0  0  0  0  0  0  0  0  0  0
    2.8447    1.8840   -1.8020 H   0  0  0  0  0  0  0  0  0  0  0  0
   -0.0705   -0.5187   -1.5083 H   0  0  0  0  0  0  0  0  0  0  0  0
    5.0743   -1.2495   -2.3450 H   0  0  0  0  0  0  0  0  0  0  0  0
    4.5594    0.4004   -2.5326 H   0  0  0  0  0  0  0  0  0  0  0  0
   -0.8602    1.8779   -2.0623 H   0  0  0  0  0  0  0  0  0  0  0  0
    2.4468    3.5676    1.6712 H   0  0  0  0  0  0  0  0  0  0  0  0
    3.2311    2.7889    0.3303 H   0  0  0  0  0  0  0  0  0  0  0  0
    0.2386   -3.9670   -1.8843 H   0  0  0  0  0  0  0  0  0  0  0  0
    3.9289   -3.6520   -2.3518 H   0  0  0  0  0  0  0  0  0  0  0  0
    4.2924   -3.2721   -0.6566 H   0  0  0  0  0  0  0  0  0  0  0  0
    2.9089   -4.2922   -1.0555 H   0  0  0  0  0  0  0  0  0  0  0  0
    5.1804   -0.9372    0.1630 H   0  0  0  0  0  0  0  0  0  0  0  0
    4.7048    0.7626   -0.0699 H   0  0  0  0  0  0  0  0  0  0  0  0
   -4.3885   -4.1828    1.6611 H   0  0  0  0  0  0  0  0  0  0  0  0
   -3.1744   -4.9232    2.7364 H   0  0  0  0  0  0  0  0  0  0  0  0
    0.1011    4.7196    2.1330 H   0  0  0  0  0  0  0  0  0  0  0  0
    0.0304    3.1366    2.9322 H   0  0  0  0  0  0  0  0  0  0  0  0
   -1.4435    3.8738    2.3012 H   0  0  0  0  0  0  0  0  0  0  0  0
    1.9467    1.3564    2.7209 H   0  0  0  0  0  0  0  0  0  0  0  0
    2.6910    0.5269    1.3400 H   0  0  0  0  0  0  0  0  0  0  0  0
   -2.7639    4.0738   -0.2125 H   0  0  0  0  0  0  0  0  0  0  0  0
   -4.2598   -2.1458    2.8107 H   0  0  0  0  0  0  0  0  0  0  0  0
   -3.3473   -3.0159    4.0601 H   0  0  0  0  0  0  0  0  0  0  0  0
   -1.0911   -5.9482   -0.7958 H   0  0  0  0  0  0  0  0  0  0  0  0
   -2.8056   -5.8752   -0.3722 H   0  0  0  0  0  0  0  0  0  0  0  0
   -2.2167   -4.9895   -1.7838 H   0  0  0  0  0  0  0  0  0  0  0  0
   -2.1878    0.3433   -0.3804 H   0  0  0  0  0  0  0  0  0  0  0  0
   -5.2654    4.2309    0.1174 H   0  0  0  0  0  0  0  0  0  0  0  0
   -7.0213    0.3447   -1.8604 H   0  0  0  0  0  0  0  0  0  0  0  0
   -7.5114    1.2494   -0.4066 H   0  0  0  0  0  0  0  0  0  0  0  0
   -6.9528   -0.4022   -0.2563 H   0  0  0  0  0  0  0  0  0  0  0  0
    8.2196    0.7899    0.3535 H   0  0  0  0  0  0  0  0  0  0  0  0
    5.2017    0.4269    3.7752 H   0  0  0  0  0  0  0  0  0  0  0  0
   -7.1489    4.6075   -1.3231 H   0  0  0  0  0  0  0  0  0  0  0  0
   -6.9796    2.9355   -2.0896 H   0  0  0  0  0  0  0  0  0  0  0  0
  1 32  1  0  0  0  0
  1 33  1  0  0  0  0
  2 37  1  0  0  0  0
  2 76  1  0  0  0  0
  3 38  1  0  0  0  0
  3 77  1  0  0  0  0
  4 37  2  0  0  0  0
  5 38  2  0  0  0  0
  6 40  2  0  0  0  0
  7 11  1  0  0  0  0
  7 17  1  0  0  0  0
  7 46  1  0  0  0  0
  8 13  1  0  0  0  0
  8 20  1  0  0  0  0
  8 49  1  0  0  0  0
  9 23  1  0  0  0  0
  9 32  2  0  0  0  0
 10 34  1  0  0  0  0
 10 40  1  0  0  0  0
 10 71  1  0  0  0  0
 11 12  1  0  0  0  0
 11 14  2  0  0  0  0
 12 13  1  0  0  0  0
 12 44  1  0  0  0  0
 12 45  1  0  0  0  0
 13 15  2  0  0  0  0
 14 16  1  0  0  0  0
 14 19  1  0  0  0  0
 15 18  1  0  0  0  0
 15 21  1  0  0  0  0
 16 17  2  0  0  0  0
 16 25  1  0  0  0  0
 17 22  1  0  0  0  0
 18 20  2  0  0  0  0
 18 29  1  0  0  0  0
 19 27  1  0  0  0  0
 19 47  1  0  0  0  0
 19 48  1  0  0  0  0
 20 31  1  0  0  0  0
 21 30  1  0  0  0  0
 21 50  1  0  0  0  0
 21 51  1  0  0  0  0
 22 23  2  0  0  0  0
 22 52  1  0  0  0  0
 23 26  1  0  0  0  0
 24 26  2  0  0  0  0
 24 28  1  0  0  0  0
 24 32  1  0  0  0  0
 25 53  1  0  0  0  0
 25 54  1  0  0  0  0
 25 55  1  0  0  0  0
 26 35  1  0  0  0  0
 27 37  1  0  0  0  0
 27 56  1  0  0  0  0
 27 57  1  0  0  0  0
 28 33  1  0  0  0  0
 28 58  1  0  0  0  0
 28 59  1  0  0  0  0
 29 60  1  0  0  0  0
 29 61  1  0  0  0  0
 29 62  1  0  0  0  0
 30 38  1  0  0  0  0
 30 63  1  0  0  0  0
 30 64  1  0  0  0  0
 31 34  2  0  0  0  0
 31 65  1  0  0  0  0
 33 66  1  0  0  0  0
 33 67  1  0  0  0  0
 34 36  1  0  0  0  0
 35 68  1  0  0  0  0
 35 69  1  0  0  0  0
 35 70  1  0  0  0  0
 36 39  2  0  0  0  0
 36 41  1  0  0  0  0
 39 40  1  0  0  0  0
 39 42  1  0  0  0  0
 41 43  2  0  0  0  0
 41 72  1  0  0  0  0
 42 73  1  0  0  0  0
 42 74  1  0  0  0  0
 42 75  1  0  0  0  0
 43 78  1  0  0  0  0
 43 79  1  0  0  0  0
M  END
> <PUBCHEM_COMPOUND_CID>
8235

> <PUBCHEM_CONFORMER_RMSD>
1.2

> <PUBCHEM_CONFORMER_DIVERSEORDER>
1
209
206
242
27
15
241
43
243
208
121
249
137
100
185
117
213
264
251
202
257
70
111
93
125
25
94
252
248
130
84
255
239
150
56
260
266
192
9
104
120
110
165
246
152
55
232
196
58
234
221
176
229
106
74
109
226
253
57
207
38
172
118
250
227
34
147
5
76
261
135
75
138
259
68
105
177
212
103
262
186
178
73
258
26
151
122
154
134
199
52
180
28
69
148
189
195
190
80
66
127
174
184
37
40
116
256
237
254
89
60
131
171
181
85
146
217
220
108
160
113
155
81
245
224
90
175
200
197
247
128
88
163
101
188
159
162
225
211
72
115
193
141
203
83
236
36
24
219
169
265
8
183
50
194
191
64
235
166
29
145
240
263
222
123
30
144
2
216
223
97
18
233
205
14
67
149
204
126
91
164
133
42
139
46
157
20
124
143
210
218
173
49
63
158
153
87
167
45
11
39
228
187
198
140
54
119
62
179
59
12
86
78
71
201
21
23
156
244
41
107
168
98
230
99
48
92
170
7
238
6
79
22
17
114
132
82
214
77
182
32
3
31
33
161
51
102
142
53
65
96
95
112
35
4
44
136
61
129
215
19
10
47
231
16
13

> <PUBCHEM_MMFF94_PARTIAL_CHARGES>
52
1 -0.43
10 -0.54
11 -0.33
12 0.36
13 -0.33
14 -0.18
15 -0.18
16 -0.18
17 -0.2
18 -0.18
19 0.18
2 -0.65
20 -0.2
21 0.18
22 -0.11
23 0.17
24 -0.12
25 0.18
26 -0.14
27 0.06
28 0.14
29 0.18
3 -0.65
30 0.06
31 -0.11
32 0.59
33 0.28
34 0.11
35 0.14
37 0.66
38 0.66
39 -0.12
4 -0.57
40 0.62
41 -0.15
42 0.14
43 -0.3
46 0.27
49 0.27
5 -0.57
52 0.15
6 -0.57
65 0.15
7 0.03
71 0.37
72 0.15
76 0.5
77 0.5
78 0.15
79 0.15
8 0.03
9 -0.62

> <PUBCHEM_EFFECTIVE_ROTOR_COUNT>
11.8

> <PUBCHEM_PHARMACOPHORE_FEATURES>
18
1 10 donor
1 2 acceptor
1 3 acceptor
1 4 acceptor
1 43 hydrophobe
1 5 acceptor
1 6 acceptor
1 7 cation
1 7 donor
1 8 cation
1 8 donor
3 2 4 37 anion
3 3 5 38 anion
5 1 24 28 32 33 rings
5 10 34 36 39 40 rings
5 7 11 14 16 17 rings
5 8 13 15 18 20 rings
5 9 23 24 26 32 rings

> <PUBCHEM_HEAVY_ATOM_COUNT>
43

> <PUBCHEM_ATOM_DEF_STEREO_COUNT>
0

> <PUBCHEM_ATOM_UDEF_STEREO_COUNT>
0

> <PUBCHEM_BOND_DEF_STEREO_COUNT>
0

> <PUBCHEM_BOND_UDEF_STEREO_COUNT>
2

> <PUBCHEM_ISOTOPIC_ATOM_COUNT>
0

> <PUBCHEM_COMPONENT_COUNT>
1

> <PUBCHEM_CACTVS_TAUTO_COUNT>
10

> <PUBCHEM_CONFORMER_ID>
0000202B00000001

> <PUBCHEM_MMFF94_ENERGY>
84.6363

> <PUBCHEM_FEATURE_SELFOVERLAP>
91.781

> <PUBCHEM_SHAPE_FINGERPRINT>
10032420 55 17907572880416026957
10675989 125 17622157288781887989
11028528 32 18199485276529243363
12156800 1 18202565051315169034
13751561 76 18409450297480288483
14004853 49 17843415217526813709
14040221 137 17171825552860071664
14040222 383 18410856586311978785
15351339 4 18265900340465431561
15781502 593 18201433649481665741
15968369 26 18411707607842606829
16993438 75 18270385119235017567
20764821 26 18122612860879626679
22223350 30 18342172310605899307
23559900 14 18334860558223712173
437795 96 18335137532037220730
508706 21 18340205177087627239
6376802 137 17537435498424892546
86090 222 18263651821489919353

> <PUBCHEM_SHAPE_MULTIPOLES>
829.78
14.03
6.75
2.7
4.5
5.4
-2.31
-8.74
3.4
-7.04
-1.67
2.11
0.39
5.39

> <PUBCHEM_SHAPE_SELFOVERLAP>
1808.373

> <PUBCHEM_SHAPE_VOLUME>
455.7

> <PUBCHEM_COORDINATE_TYPE>
2
5
10

$$$$

