854325
  -OEChem-06241222472D

 33 35  0     0  0  0  0  0  0999 V2000
    4.5981   -3.3100    0.0000 Cl  0  0  0  0  0  0  0  0  0  0  0  0
    2.8660    2.6900    0.0000 S   0  0  0  0  0  0  0  0  0  0  0  0
    4.5981    2.6900    0.0000 N   0  0  0  0  0  0  0  0  0  0  0  0
    2.0000    0.1900    0.0000 N   0  0  0  0  0  0  0  0  0  0  0  0
    6.3580    0.6553    0.0000 C   0  0  0  0  0  0  0  0  0  0  0  0
    7.2641    1.1692    0.0000 C   0  0  0  0  0  0  0  0  0  0  0  0
    5.4641    1.1900    0.0000 C   0  0  0  0  0  0  0  0  0  0  0  0
    7.2641    2.2108    0.0000 C   0  0  0  0  0  0  0  0  0  0  0  0
    6.3580    2.7247    0.0000 C   0  0  0  0  0  0  0  0  0  0  0  0
    5.4641    2.1900    0.0000 C   0  0  0  0  0  0  0  0  0  0  0  0
    4.5981    0.6900    0.0000 C   0  0  0  0  0  0  0  0  0  0  0  0
    3.7320    1.1900    0.0000 C   0  0  0  0  0  0  0  0  0  0  0  0
    4.5981   -0.3100    0.0000 C   0  0  0  0  0  0  0  0  0  0  0  0
    3.7320    2.1900    0.0000 C   0  0  0  0  0  0  0  0  0  0  0  0
    3.7320   -0.8100    0.0000 C   0  0  0  0  0  0  0  0  0  0  0  0
    5.4641   -0.8100    0.0000 C   0  0  0  0  0  0  0  0  0  0  0  0
    2.8660    0.6900    0.0000 C   0  0  0  0  0  0  0  0  0  0  0  0
    3.7320   -1.8100    0.0000 C   0  0  0  0  0  0  0  0  0  0  0  0
    5.4641   -1.8100    0.0000 C   0  0  0  0  0  0  0  0  0  0  0  0
    4.5981   -2.3100    0.0000 C   0  0  0  0  0  0  0  0  0  0  0  0
    5.9534    0.1856    0.0000 H   0  0  0  0  0  0  0  0  0  0  0  0
    6.7517    0.1763    0.0000 H   0  0  0  0  0  0  0  0  0  0  0  0
    7.4732    0.5855    0.0000 H   0  0  0  0  0  0  0  0  0  0  0  0
    7.8750    1.2753    0.0000 H   0  0  0  0  0  0  0  0  0  0  0  0
    7.8750    2.1047    0.0000 H   0  0  0  0  0  0  0  0  0  0  0  0
    7.4732    2.7945    0.0000 H   0  0  0  0  0  0  0  0  0  0  0  0
    6.7517    3.2037    0.0000 H   0  0  0  0  0  0  0  0  0  0  0  0
    5.9534    3.1944    0.0000 H   0  0  0  0  0  0  0  0  0  0  0  0
    4.5981    3.3100    0.0000 H   0  0  0  0  0  0  0  0  0  0  0  0
    3.1951   -0.5000    0.0000 H   0  0  0  0  0  0  0  0  0  0  0  0
    6.0010   -0.5000    0.0000 H   0  0  0  0  0  0  0  0  0  0  0  0
    3.1951   -2.1200    0.0000 H   0  0  0  0  0  0  0  0  0  0  0  0
    6.0010   -2.1200    0.0000 H   0  0  0  0  0  0  0  0  0  0  0  0
  1 20  1  0  0  0  0
  2 14  2  0  0  0  0
  3 10  1  0  0  0  0
  3 14  1  0  0  0  0
  3 29  1  0  0  0  0
  4 17  3  0  0  0  0
  5  6  1  0  0  0  0
  5  7  1  0  0  0  0
  5 21  1  0  0  0  0
  5 22  1  0  0  0  0
  6  8  1  0  0  0  0
  6 23  1  0  0  0  0
  6 24  1  0  0  0  0
  7 10  2  0  0  0  0
  7 11  1  0  0  0  0
  8  9  1  0  0  0  0
  8 25  1  0  0  0  0
  8 26  1  0  0  0  0
  9 10  1  0  0  0  0
  9 27  1  0  0  0  0
  9 28  1  0  0  0  0
 11 12  2  0  0  0  0
 11 13  1  0  0  0  0
 12 14  1  0  0  0  0
 12 17  1  0  0  0  0
 13 15  2  0  0  0  0
 13 16  1  0  0  0  0
 15 18  1  0  0  0  0
 15 30  1  0  0  0  0
 16 19  2  0  0  0  0
 16 31  1  0  0  0  0
 18 20  2  0  0  0  0
 18 32  1  0  0  0  0
 19 20  1  0  0  0  0
 19 33  1  0  0  0  0
M  END
> <PUBCHEM_COMPOUND_CID>
854325

> <PUBCHEM_COMPOUND_CANONICALIZED>
1

> <PUBCHEM_CACTVS_COMPLEXITY>
544

> <PUBCHEM_CACTVS_HBOND_ACCEPTOR>
2

> <PUBCHEM_CACTVS_HBOND_DONOR>
1

> <PUBCHEM_CACTVS_ROTATABLE_BOND>
1

> <PUBCHEM_CACTVS_SUBSKEYS>
AAADccB7AABEAAAAAAAAAAAAAAAAAAAAAAAwQIAAAAAAAACBAAAAHAYQAAAADAqBWCAwAILAAACUBiRCQACiAAAgBQkIiAAAAogIoCKBkxCEIAAgkACIiAcQgMAOBAAAAAAAAAAIAAAAAAAAAAAAAAAAAA==

> <PUBCHEM_IUPAC_OPENEYE_NAME>
4-(4-chlorophenyl)-2-thioxo-5,6,7,8-tetrahydro-1H-quinoline-3-carbonitrile

> <PUBCHEM_IUPAC_CAS_NAME>
4-(4-chlorophenyl)-2-sulfanylidene-5,6,7,8-tetrahydro-1H-quinoline-3-carbonitrile

> <PUBCHEM_IUPAC_NAME>
4-(4-chlorophenyl)-2-sulfanylidene-5,6,7,8-tetrahydro-1H-quinoline-3-carbonitrile

> <PUBCHEM_IUPAC_SYSTEMATIC_NAME>
4-(4-chlorophenyl)-2-sulfanylidene-5,6,7,8-tetrahydro-1H-quinoline-3-carbonitrile

> <PUBCHEM_IUPAC_TRADITIONAL_NAME>
4-(4-chlorophenyl)-2-thioxo-5,6,7,8-tetrahydro-1H-quinoline-3-carbonitrile

> <PUBCHEM_IUPAC_INCHI>
InChI=1S/C16H13ClN2S/c17-11-7-5-10(6-8-11)15-12-3-1-2-4-14(12)19-16(20)13(15)9-18/h5-8H,1-4H2,(H,19,20)

> <PUBCHEM_IUPAC_INCHIKEY>
XEMCDIRBQQZVAN-UHFFFAOYSA-N

> <PUBCHEM_XLOGP3_AA>
3.3

> <PUBCHEM_EXACT_MASS>
300.048797

> <PUBCHEM_MOLECULAR_FORMULA>
C16H13ClN2S

> <PUBCHEM_MOLECULAR_WEIGHT>
300.80582

> <PUBCHEM_OPENEYE_CAN_SMILES>
C1CCC2=C(C1)C(=C(C(=S)N2)C#N)C3=CC=C(C=C3)Cl

> <PUBCHEM_OPENEYE_ISO_SMILES>
C1CCC2=C(C1)C(=C(C(=S)N2)C#N)C3=CC=C(C=C3)Cl

> <PUBCHEM_CACTVS_TPSA>
67.9

> <PUBCHEM_MONOISOTOPIC_WEIGHT>
300.048797

> <PUBCHEM_TOTAL_CHARGE>
0

> <PUBCHEM_HEAVY_ATOM_COUNT>
20

> <PUBCHEM_ATOM_DEF_STEREO_COUNT>
0

> <PUBCHEM_ATOM_UDEF_STEREO_COUNT>
0

> <PUBCHEM_BOND_DEF_STEREO_COUNT>
0

> <PUBCHEM_BOND_UDEF_STEREO_COUNT>
0

> <PUBCHEM_ISOTOPIC_ATOM_COUNT>
0

> <PUBCHEM_COMPONENT_COUNT>
1

> <PUBCHEM_CACTVS_TAUTO_COUNT>
5

> <PUBCHEM_COORDINATE_TYPE>
1
5
255

> <PUBCHEM_BONDANNOTATIONS>
11  12  8
12  14  8
13  15  8
13  16  8
15  18  8
16  19  8
18  20  8
19  20  8
3  10  8
3  14  8
7  10  8
7  11  8

$$$$

