17395895
  -OEChem-06241222533D

 43 44  0     1  0  0  0  0  0999 V2000
    5.2099   -1.2062   -0.8300 F   0  0  0  0  0  0  0  0  0  0  0  0
    6.8815   -0.5738    0.4276 F   0  0  0  0  0  0  0  0  0  0  0  0
    6.1938    0.7422   -1.1759 F   0  0  0  0  0  0  0  0  0  0  0  0
   -1.3906   -0.9104    1.6179 O   0  0  0  0  0  0  0  0  0  0  0  0
   -3.0669   -2.8346   -1.4655 O   0  0  0  0  0  0  0  0  0  0  0  0
    4.8993    0.4737    0.6904 O   0  0  0  0  0  0  0  0  0  0  0  0
   -3.7171   -1.4123    0.2595 N   0  0  0  0  0  0  0  0  0  0  0  0
   -0.5708    0.1761   -0.2939 N   0  0  0  0  0  0  0  0  0  0  0  0
   -3.6090    1.0257    0.3071 C   0  0  0  0  0  0  0  0  0  0  0  0
   -2.8507    2.2754   -0.1292 C   0  0  0  0  0  0  0  0  0  0  0  0
   -4.9753    1.2322   -0.3388 C   0  0  0  0  0  0  0  0  0  0  0  0
   -3.8841    3.3927   -0.0227 C   0  0  0  0  0  0  0  0  0  0  0  0
   -5.2522    2.7196   -0.1457 C   0  0  0  0  0  0  0  0  0  0  0  0
   -2.9330   -0.2650   -0.1214 C   0  0  1  0  0  0  0  0  0  0  0  0
   -1.5495   -0.3957    0.5146 C   0  0  0  0  0  0  0  0  0  0  0  0
   -3.7165   -2.6043   -0.4489 C   0  0  0  0  0  0  0  0  0  0  0  0
    0.8203    0.2505   -0.0444 C   0  0  0  0  0  0  0  0  0  0  0  0
   -4.6030   -3.6456    0.1799 C   0  0  0  0  0  0  0  0  0  0  0  0
    1.6631    0.8664   -0.9698 C   0  0  0  0  0  0  0  0  0  0  0  0
    1.3486   -0.2909    1.1276 C   0  0  0  0  0  0  0  0  0  0  0  0
    3.0339    0.9408   -0.7232 C   0  0  0  0  0  0  0  0  0  0  0  0
    2.7194   -0.2165    1.3742 C   0  0  0  0  0  0  0  0  0  0  0  0
    3.5620    0.3992    0.4488 C   0  0  0  0  0  0  0  0  0  0  0  0
    5.7871   -0.1392   -0.2379 C   0  0  0  0  0  0  0  0  0  0  0  0
   -3.7244    1.0458    1.4005 H   0  0  0  0  0  0  0  0  0  0  0  0
   -1.9769    2.4851    0.4952 H   0  0  0  0  0  0  0  0  0  0  0  0
   -2.5175    2.1929   -1.1709 H   0  0  0  0  0  0  0  0  0  0  0  0
   -4.9419    0.9993   -1.4104 H   0  0  0  0  0  0  0  0  0  0  0  0
   -5.7558    0.6140    0.1156 H   0  0  0  0  0  0  0  0  0  0  0  0
   -3.8047    3.8962    0.9477 H   0  0  0  0  0  0  0  0  0  0  0  0
   -3.7320    4.1503   -0.7983 H   0  0  0  0  0  0  0  0  0  0  0  0
   -5.8348    3.1284   -0.9774 H   0  0  0  0  0  0  0  0  0  0  0  0
   -5.8293    2.8839    0.7716 H   0  0  0  0  0  0  0  0  0  0  0  0
   -2.8245   -0.2910   -1.2135 H   0  0  0  0  0  0  0  0  0  0  0  0
   -4.2353   -1.3653    1.1325 H   0  0  0  0  0  0  0  0  0  0  0  0
   -0.8649    0.5828   -1.1788 H   0  0  0  0  0  0  0  0  0  0  0  0
   -4.1099   -4.0548    1.0658 H   0  0  0  0  0  0  0  0  0  0  0  0
   -4.7880   -4.4515   -0.5357 H   0  0  0  0  0  0  0  0  0  0  0  0
   -5.5632   -3.2073    0.4670 H   0  0  0  0  0  0  0  0  0  0  0  0
    1.2640    1.2942   -1.8860 H   0  0  0  0  0  0  0  0  0  0  0  0
    0.7625   -0.7852    1.8891 H   0  0  0  0  0  0  0  0  0  0  0  0
    3.6778    1.4298   -1.4490 H   0  0  0  0  0  0  0  0  0  0  0  0
    3.1266   -0.6403    2.2884 H   0  0  0  0  0  0  0  0  0  0  0  0
  1 24  1  0  0  0  0
  2 24  1  0  0  0  0
  3 24  1  0  0  0  0
  4 15  2  0  0  0  0
  5 16  2  0  0  0  0
  6 23  1  0  0  0  0
  6 24  1  0  0  0  0
  7 14  1  0  0  0  0
  7 16  1  0  0  0  0
  7 35  1  0  0  0  0
  8 15  1  0  0  0  0
  8 17  1  0  0  0  0
  8 36  1  0  0  0  0
  9 10  1  0  0  0  0
  9 11  1  0  0  0  0
  9 14  1  0  0  0  0
  9 25  1  0  0  0  0
 10 12  1  0  0  0  0
 10 26  1  0  0  0  0
 10 27  1  0  0  0  0
 11 13  1  0  0  0  0
 11 28  1  0  0  0  0
 11 29  1  0  0  0  0
 12 13  1  0  0  0  0
 12 30  1  0  0  0  0
 12 31  1  0  0  0  0
 13 32  1  0  0  0  0
 13 33  1  0  0  0  0
 14 15  1  0  0  0  0
 14 34  1  0  0  0  0
 16 18  1  0  0  0  0
 17 19  2  0  0  0  0
 17 20  1  0  0  0  0
 18 37  1  0  0  0  0
 18 38  1  0  0  0  0
 18 39  1  0  0  0  0
 19 21  1  0  0  0  0
 19 40  1  0  0  0  0
 20 22  2  0  0  0  0
 20 41  1  0  0  0  0
 21 23  2  0  0  0  0
 21 42  1  0  0  0  0
 22 23  1  0  0  0  0
 22 43  1  0  0  0  0
M  END
> <PUBCHEM_COMPOUND_CID>
17395895

> <PUBCHEM_CONFORMER_RMSD>
1

> <PUBCHEM_CONFORMER_DIVERSEORDER>
1
28
44
49
21
39
14
48
34
17
18
31
20
36
33
10
50
8
47
45
42
46
26
4
38
5
19
32
9
7
22
3
24
2
12
25
23
13
16
6
40
43
15
41
29
35
27
11
37
30

> <PUBCHEM_MMFF94_PARTIAL_CHARGES>
25
1 -0.34
14 0.36
15 0.57
16 0.57
17 0.12
18 0.06
19 -0.15
2 -0.34
20 -0.15
21 -0.15
22 -0.15
23 0.08
24 1.3
3 -0.34
35 0.37
36 0.37
4 -0.57
40 0.15
41 0.15
42 0.15
43 0.15
5 -0.57
6 -0.36
7 -0.73
8 -0.55

> <PUBCHEM_EFFECTIVE_ROTOR_COUNT>
9

> <PUBCHEM_PHARMACOPHORE_FEATURES>
7
1 4 acceptor
1 5 acceptor
1 6 acceptor
1 7 donor
1 8 donor
5 9 10 11 12 13 rings
6 17 19 20 21 22 23 rings

> <PUBCHEM_HEAVY_ATOM_COUNT>
24

> <PUBCHEM_ATOM_DEF_STEREO_COUNT>
0

> <PUBCHEM_ATOM_UDEF_STEREO_COUNT>
1

> <PUBCHEM_BOND_DEF_STEREO_COUNT>
0

> <PUBCHEM_BOND_UDEF_STEREO_COUNT>
0

> <PUBCHEM_ISOTOPIC_ATOM_COUNT>
0

> <PUBCHEM_COMPONENT_COUNT>
1

> <PUBCHEM_CACTVS_TAUTO_COUNT>
4

> <PUBCHEM_CONFORMER_ID>
010970B700000001

> <PUBCHEM_MMFF94_ENERGY>
65.4094

> <PUBCHEM_FEATURE_SELFOVERLAP>
35.52

> <PUBCHEM_SHAPE_FINGERPRINT>
10291535 26 17531240712379968025
10319688 140 16391001688053660823
10411042 1 18122907522123724035
10595046 47 18342454786578586092
11056379 131 18410856521544740411
11545043 162 18186523176739770010
11796584 16 18260829341219523142
11809386 21 18341056237410299275
12107183 9 17910685580654274786
12236239 1 17917427652875432208
12403259 415 17967818210836450256
12616971 3 17060050458978485436
12788726 201 18198617736390422851
13583140 156 17676494929649947478
14347332 77 18337952281762032023
14573314 32 18261672679343314868
15042514 8 18338794521344724115
15183329 4 18341046441085073880
15250474 111 18272104811013146730
15439362 3 17903637724500854773
16087824 20 18411985776902112109
17844677 252 18336261250285130992
18927931 339 18337668625295297935
19489759 90 18334577961996052249
20101258 96 18268988688323312553
20645477 56 18335983155658646417
21033648 29 17749688332284912416
21065201 7 18334304144951097666
21426921 1 18410576163385640035
21709351 56 18202285779709448012
22393880 68 18408328778487319962
23081809 10 17917712388459820552
23402539 116 18272091582460276004
23557571 272 18187365420064041489
23559900 14 18259992582368074096
24771293 8 17916585333518954308
25147074 1 17916881208312447067
3545911 37 18409448124200325953
3610482 184 17916564506340814364
397830 11 17678191412474205522
4073 2 18272646840718419514
4214541 1 18410293613981582433
44062 13 18334576832588217975
497634 4 17917435280990499519
531348 171 18410572924374189778
559249 180 18410858776017474818
6327066 14 18127416868222353157
6328613 192 18059564802912615756
633830 44 17632285766558049988
7471813 234 18125727781589670597
7495541 125 17459469957843101072
7970288 3 17977105665345831655

> <PUBCHEM_SHAPE_MULTIPOLES>
444.52
14.94
3.29
1.09
19.97
1.24
-0.08
-0.87
1.89
-8.89
0.55
0.59
0.28
-0.52

> <PUBCHEM_SHAPE_SELFOVERLAP>
928.391

> <PUBCHEM_SHAPE_VOLUME>
252.5

> <PUBCHEM_COORDINATE_TYPE>
2
5
10

$$$$

