232313
  -OEChem-07051213073D

 52 55  0     1  0  0  0  0  0999 V2000
    4.9736    1.0736    0.5261 O   0  0  0  0  0  0  0  0  0  0  0  0
   -5.8650    0.2754    0.3563 O   0  0  0  0  0  0  0  0  0  0  0  0
    2.5699    0.5303    0.2350 C   0  0  1  0  0  0  0  0  0  0  0  0
    1.8912   -0.7699   -0.2393 C   0  0  2  0  0  0  0  0  0  0  0  0
    0.4259   -0.8838    0.2188 C   0  0  1  0  0  0  0  0  0  0  0  0
    4.0463    0.2689   -0.1982 C   0  0  2  0  0  0  0  0  0  0  0  0
   -1.8735    0.3736    0.1974 C   0  0  2  0  0  0  0  0  0  0  0  0
   -0.3393    0.4286   -0.0197 C   0  0  0  0  0  0  0  0  0  0  0  0
    2.8527   -1.8712    0.2021 C   0  0  0  0  0  0  0  0  0  0  0  0
   -2.4807   -0.9149   -0.4398 C   0  0  1  0  0  0  0  0  0  0  0  0
    1.8306    1.6948   -0.4482 C   0  0  0  0  0  0  0  0  0  0  0  0
    4.2518   -1.2338    0.1303 C   0  0  0  0  0  0  0  0  0  0  0  0
   -0.2450   -2.0691   -0.4867 C   0  0  0  0  0  0  0  0  0  0  0  0
   -1.7101   -2.1956   -0.0979 C   0  0  0  0  0  0  0  0  0  0  0  0
    0.3285    1.5663   -0.3250 C   0  0  0  0  0  0  0  0  0  0  0  0
    2.4862    0.7315    1.7769 C   0  0  0  0  0  0  0  0  0  0  0  0
   -2.6250    1.5900   -0.4373 C   0  0  0  0  0  0  0  0  0  0  0  0
   -3.9624   -1.1032   -0.0792 C   0  0  0  0  0  0  0  0  0  0  0  0
    4.3521    0.5296   -1.6787 C   0  0  0  0  0  0  0  0  0  0  0  0
   -2.0888    0.4181    1.7334 C   0  0  0  0  0  0  0  0  0  0  0  0
   -4.0909    1.3631   -0.8166 C   0  0  0  0  0  0  0  0  0  0  0  0
   -4.7281    0.1975   -0.1098 C   0  0  0  0  0  0  0  0  0  0  0  0
    1.8838   -0.7800   -1.3404 H   0  0  0  0  0  0  0  0  0  0  0  0
    0.4074   -1.0871    1.2976 H   0  0  0  0  0  0  0  0  0  0  0  0
    2.7847   -2.7510   -0.4461 H   0  0  0  0  0  0  0  0  0  0  0  0
    2.6422   -2.2011    1.2258 H   0  0  0  0  0  0  0  0  0  0  0  0
   -2.4225   -0.7955   -1.5332 H   0  0  0  0  0  0  0  0  0  0  0  0
    2.0531    1.7513   -1.5188 H   0  0  0  0  0  0  0  0  0  0  0  0
    2.1507    2.6479   -0.0102 H   0  0  0  0  0  0  0  0  0  0  0  0
    4.7740   -1.3759    1.0838 H   0  0  0  0  0  0  0  0  0  0  0  0
    4.8601   -1.7358   -0.6310 H   0  0  0  0  0  0  0  0  0  0  0  0
    0.2698   -3.0018   -0.2276 H   0  0  0  0  0  0  0  0  0  0  0  0
   -0.1686   -1.9577   -1.5762 H   0  0  0  0  0  0  0  0  0  0  0  0
   -2.1489   -3.0453   -0.6355 H   0  0  0  0  0  0  0  0  0  0  0  0
   -1.7914   -2.4273    0.9707 H   0  0  0  0  0  0  0  0  0  0  0  0
   -0.2060    2.5004   -0.4668 H   0  0  0  0  0  0  0  0  0  0  0  0
    2.9865    1.6612    2.0724 H   0  0  0  0  0  0  0  0  0  0  0  0
    1.4572    0.8072    2.1406 H   0  0  0  0  0  0  0  0  0  0  0  0
    2.9608   -0.0859    2.3289 H   0  0  0  0  0  0  0  0  0  0  0  0
   -2.1282    1.9006   -1.3661 H   0  0  0  0  0  0  0  0  0  0  0  0
   -2.5632    2.4564    0.2350 H   0  0  0  0  0  0  0  0  0  0  0  0
   -4.0657   -1.5247    0.9275 H   0  0  0  0  0  0  0  0  0  0  0  0
   -4.4327   -1.7934   -0.7885 H   0  0  0  0  0  0  0  0  0  0  0  0
    3.7007   -0.0298   -2.3554 H   0  0  0  0  0  0  0  0  0  0  0  0
    4.2743    1.5967   -1.9146 H   0  0  0  0  0  0  0  0  0  0  0  0
    5.3887    0.2531   -1.9075 H   0  0  0  0  0  0  0  0  0  0  0  0
   -1.5836    1.2866    2.1747 H   0  0  0  0  0  0  0  0  0  0  0  0
   -3.1448    0.5014    2.0072 H   0  0  0  0  0  0  0  0  0  0  0  0
   -1.6934   -0.4725    2.2323 H   0  0  0  0  0  0  0  0  0  0  0  0
   -4.1728    1.1674   -1.8926 H   0  0  0  0  0  0  0  0  0  0  0  0
   -4.6698    2.2703   -0.6107 H   0  0  0  0  0  0  0  0  0  0  0  0
    5.0142    0.7581    1.4439 H   0  0  0  0  0  0  0  0  0  0  0  0
  1  6  1  0  0  0  0
  1 52  1  0  0  0  0
  2 22  2  0  0  0  0
  3  4  1  0  0  0  0
  3  6  1  0  0  0  0
  3 11  1  0  0  0  0
  3 16  1  0  0  0  0
  4  5  1  0  0  0  0
  4  9  1  0  0  0  0
  4 23  1  0  0  0  0
  5  8  1  0  0  0  0
  5 13  1  0  0  0  0
  5 24  1  0  0  0  0
  6 12  1  0  0  0  0
  6 19  1  0  0  0  0
  7  8  1  0  0  0  0
  7 10  1  0  0  0  0
  7 17  1  0  0  0  0
  7 20  1  0  0  0  0
  8 15  2  0  0  0  0
  9 12  1  0  0  0  0
  9 25  1  0  0  0  0
  9 26  1  0  0  0  0
 10 14  1  0  0  0  0
 10 18  1  0  0  0  0
 10 27  1  0  0  0  0
 11 15  1  0  0  0  0
 11 28  1  0  0  0  0
 11 29  1  0  0  0  0
 12 30  1  0  0  0  0
 12 31  1  0  0  0  0
 13 14  1  0  0  0  0
 13 32  1  0  0  0  0
 13 33  1  0  0  0  0
 14 34  1  0  0  0  0
 14 35  1  0  0  0  0
 15 36  1  0  0  0  0
 16 37  1  0  0  0  0
 16 38  1  0  0  0  0
 16 39  1  0  0  0  0
 17 21  1  0  0  0  0
 17 40  1  0  0  0  0
 17 41  1  0  0  0  0
 18 22  1  0  0  0  0
 18 42  1  0  0  0  0
 18 43  1  0  0  0  0
 19 44  1  0  0  0  0
 19 45  1  0  0  0  0
 19 46  1  0  0  0  0
 20 47  1  0  0  0  0
 20 48  1  0  0  0  0
 20 49  1  0  0  0  0
 21 22  1  0  0  0  0
 21 50  1  0  0  0  0
 21 51  1  0  0  0  0
M  END
> <PUBCHEM_COMPOUND_CID>
232313

> <PUBCHEM_CONFORMER_RMSD>
0.6

> <PUBCHEM_CONFORMER_DIVERSEORDER>
1

> <PUBCHEM_MMFF94_PARTIAL_CHARGES>
13
1 -0.68
11 0.14
15 -0.29
18 0.06
2 -0.57
21 0.06
22 0.45
36 0.15
5 0.14
52 0.4
6 0.28
7 0.14
8 -0.28

> <PUBCHEM_EFFECTIVE_ROTOR_COUNT>
1.8

> <PUBCHEM_PHARMACOPHORE_FEATURES>
7
1 1 acceptor
1 1 donor
1 2 acceptor
5 3 4 6 9 12 rings
6 3 4 5 8 11 15 rings
6 5 7 8 10 13 14 rings
6 7 10 17 18 21 22 rings

> <PUBCHEM_HEAVY_ATOM_COUNT>
22

> <PUBCHEM_ATOM_DEF_STEREO_COUNT>
6

> <PUBCHEM_ATOM_UDEF_STEREO_COUNT>
0

> <PUBCHEM_BOND_DEF_STEREO_COUNT>
0

> <PUBCHEM_BOND_UDEF_STEREO_COUNT>
0

> <PUBCHEM_ISOTOPIC_ATOM_COUNT>
0

> <PUBCHEM_COMPONENT_COUNT>
1

> <PUBCHEM_CACTVS_TAUTO_COUNT>
3

> <PUBCHEM_CONFORMER_ID>
00038B7900000001

> <PUBCHEM_MMFF94_ENERGY>
81.0041

> <PUBCHEM_FEATURE_SELFOVERLAP>
35.615

> <PUBCHEM_SHAPE_FINGERPRINT>
10366900 7 17095522885580400098
10498660 4 18410573994031789596
10967382 1 18410857697901296022
11578080 2 17315366820997416627
12011746 2 18335134310800712334
12236239 1 18410011030908350283
12403259 415 18335146405545155929
12403814 3 17632582647271312949
12592029 89 18342457079938394947
12788726 201 17822284738344007673
13140716 1 18196095439108966392
13224815 77 18334575745861161466
13533116 47 17749108936675016671
13583140 156 14201404850085027438
14178342 30 18122366587560693666
14341114 176 18342170090202310499
14790565 3 18338228383961631901
15099037 51 18411419510009961975
15196674 1 18411140250867325223
15536298 74 18334579048796649966
15788980 27 17917992797393189145
1601671 61 18342458140494571612
16752209 62 18337400322540341271
16945 1 18267311936557849806
17349148 13 18040155128045995565
1813 80 16988562428758408588
18186145 218 17967537865362265625
19862831 5 18040156218809530565
200 152 17894353276453938085
20645477 70 18340486785076604758
21033648 29 18262533562424972065
21267235 1 18339636841139877614
21421861 104 17773894154138409474
23402539 116 17894918408081973519
23559900 14 18040438750691204568
296302 2 17203325598184057207
3004659 81 18271524299454890014
335352 9 18410576218534731399
34934 24 18411705353100385194
350125 39 18410570708835676993
3545911 37 18409448081060495494
474 4 16701447958604897460
495365 180 17313398794300195738
5104073 3 18412265068447502891
542803 24 17458061568988809801
633830 44 17060614504180124326
69090 78 18335144184988742711
9709674 26 18410008810516364103

> <PUBCHEM_SHAPE_MULTIPOLES>
441.01
10.06
2
1.13
2.8
0.59
0.26
-1.35
-0.72
-0.01
-0.26
-0.53
-0.29
0.03

> <PUBCHEM_SHAPE_SELFOVERLAP>
945.534

> <PUBCHEM_SHAPE_VOLUME>
242.9

> <PUBCHEM_COORDINATE_TYPE>
2
5
10

$$$$

