4634
  -OEChem-07051212532D

 57 58  0     1  0  0  0  0  0999 V2000
    2.3100    0.6651    0.0000 O   0  0  0  0  0  0  0  0  0  0  0  0
    4.8100   -0.2010    0.0000 O   0  0  0  0  0  0  0  0  0  0  0  0
    4.8100    1.5311    0.0000 O   0  0  0  0  0  0  0  0  0  0  0  0
    8.3100   -2.7990    0.0000 N   0  0  0  0  0  0  0  0  0  0  0  0
    3.3100   -0.3349    0.0000 C   0  0  0  0  0  0  0  0  0  0  0  0
    2.4440   -0.8349    0.0000 C   0  0  0  0  0  0  0  0  0  0  0  0
    4.1760   -0.8349    0.0000 C   0  0  0  0  0  0  0  0  0  0  0  0
    3.3100    0.6651    0.0000 C   0  0  3  0  0  0  0  0  0  0  0  0
    4.1760   -1.8349    0.0000 C   0  0  0  0  0  0  0  0  0  0  0  0
    2.4440   -1.8349    0.0000 C   0  0  0  0  0  0  0  0  0  0  0  0
    3.3100   -2.3349    0.0000 C   0  0  0  0  0  0  0  0  0  0  0  0
    3.3100    1.6651    0.0000 C   0  0  0  0  0  0  0  0  0  0  0  0
    4.3100    0.6651    0.0000 C   0  0  0  0  0  0  0  0  0  0  0  0
    4.1760    2.1651    0.0000 C   0  0  0  0  0  0  0  0  0  0  0  0
    2.4440    2.1651    0.0000 C   0  0  0  0  0  0  0  0  0  0  0  0
    4.1760    3.1651    0.0000 C   0  0  0  0  0  0  0  0  0  0  0  0
    2.4440    3.1651    0.0000 C   0  0  0  0  0  0  0  0  0  0  0  0
    3.3100    3.6651    0.0000 C   0  0  0  0  0  0  0  0  0  0  0  0
    5.8100   -0.2010    0.0000 C   0  0  0  0  0  0  0  0  0  0  0  0
    6.3100   -1.0670    0.0000 C   0  0  0  0  0  0  0  0  0  0  0  0
    7.3100   -2.7990    0.0000 C   0  0  0  0  0  0  0  0  0  0  0  0
    8.8100   -3.6651    0.0000 C   0  0  0  0  0  0  0  0  0  0  0  0
    8.8100   -1.9330    0.0000 C   0  0  0  0  0  0  0  0  0  0  0  0
    6.8100   -1.9330    0.0000 C   0  0  0  0  0  0  0  0  0  0  0  0
    9.8100   -1.9330    0.0000 C   0  0  0  0  0  0  0  0  0  0  0  0
    9.8100   -3.6651    0.0000 C   0  0  0  0  0  0  0  0  0  0  0  0
    3.8469   -0.0249    0.0000 H   0  0  0  0  0  0  0  0  0  0  0  0
    4.7866   -0.9426    0.0000 H   0  0  0  0  0  0  0  0  0  0  0  0
    4.3881   -0.2523    0.0000 H   0  0  0  0  0  0  0  0  0  0  0  0
    2.2319   -0.2523    0.0000 H   0  0  0  0  0  0  0  0  0  0  0  0
    1.8334   -0.9426    0.0000 H   0  0  0  0  0  0  0  0  0  0  0  0
    4.3881   -2.4176    0.0000 H   0  0  0  0  0  0  0  0  0  0  0  0
    4.7866   -1.7273    0.0000 H   0  0  0  0  0  0  0  0  0  0  0  0
    1.8334   -1.7273    0.0000 H   0  0  0  0  0  0  0  0  0  0  0  0
    2.2319   -2.4176    0.0000 H   0  0  0  0  0  0  0  0  0  0  0  0
    2.9115   -2.8099    0.0000 H   0  0  0  0  0  0  0  0  0  0  0  0
    3.7085   -2.8099    0.0000 H   0  0  0  0  0  0  0  0  0  0  0  0
    2.0000    1.2020    0.0000 H   0  0  0  0  0  0  0  0  0  0  0  0
    4.7130    1.8551    0.0000 H   0  0  0  0  0  0  0  0  0  0  0  0
    1.9070    1.8551    0.0000 H   0  0  0  0  0  0  0  0  0  0  0  0
    4.7130    3.4751    0.0000 H   0  0  0  0  0  0  0  0  0  0  0  0
    1.9070    3.4751    0.0000 H   0  0  0  0  0  0  0  0  0  0  0  0
    3.3100    4.2851    0.0000 H   0  0  0  0  0  0  0  0  0  0  0  0
    6.3926    0.0111    0.0000 H   0  0  0  0  0  0  0  0  0  0  0  0
    5.7023    0.4096    0.0000 H   0  0  0  0  0  0  0  0  0  0  0  0
    6.7274   -3.0111    0.0000 H   0  0  0  0  0  0  0  0  0  0  0  0
    7.4177   -3.4096    0.0000 H   0  0  0  0  0  0  0  0  0  0  0  0
    8.2274   -3.8771    0.0000 H   0  0  0  0  0  0  0  0  0  0  0  0
    8.9177   -4.2756    0.0000 H   0  0  0  0  0  0  0  0  0  0  0  0
    8.9177   -1.3224    0.0000 H   0  0  0  0  0  0  0  0  0  0  0  0
    8.2274   -1.7210    0.0000 H   0  0  0  0  0  0  0  0  0  0  0  0
    9.8100   -2.5530    0.0000 H   0  0  0  0  0  0  0  0  0  0  0  0
   10.4300   -1.9330    0.0000 H   0  0  0  0  0  0  0  0  0  0  0  0
    9.8100   -1.3130    0.0000 H   0  0  0  0  0  0  0  0  0  0  0  0
    9.8100   -4.2851    0.0000 H   0  0  0  0  0  0  0  0  0  0  0  0
   10.4300   -3.6651    0.0000 H   0  0  0  0  0  0  0  0  0  0  0  0
    9.8100   -3.0451    0.0000 H   0  0  0  0  0  0  0  0  0  0  0  0
  1  8  1  0  0  0  0
  1 38  1  0  0  0  0
  2 13  1  0  0  0  0
  2 19  1  0  0  0  0
  3 13  2  0  0  0  0
  4 21  1  0  0  0  0
  4 22  1  0  0  0  0
  4 23  1  0  0  0  0
  5  6  1  0  0  0  0
  5  7  1  0  0  0  0
  5  8  1  0  0  0  0
  5 27  1  0  0  0  0
  6 10  1  0  0  0  0
  6 30  1  0  0  0  0
  6 31  1  0  0  0  0
  7  9  1  0  0  0  0
  7 28  1  0  0  0  0
  7 29  1  0  0  0  0
  8 12  1  0  0  0  0
  8 13  1  0  0  0  0
  9 11  1  0  0  0  0
  9 32  1  0  0  0  0
  9 33  1  0  0  0  0
 10 11  1  0  0  0  0
 10 34  1  0  0  0  0
 10 35  1  0  0  0  0
 11 36  1  0  0  0  0
 11 37  1  0  0  0  0
 12 14  2  0  0  0  0
 12 15  1  0  0  0  0
 14 16  1  0  0  0  0
 14 39  1  0  0  0  0
 15 17  2  0  0  0  0
 15 40  1  0  0  0  0
 16 18  2  0  0  0  0
 16 41  1  0  0  0  0
 17 18  1  0  0  0  0
 17 42  1  0  0  0  0
 18 43  1  0  0  0  0
 19 20  1  0  0  0  0
 19 44  1  0  0  0  0
 19 45  1  0  0  0  0
 20 24  3  0  0  0  0
 21 24  1  0  0  0  0
 21 46  1  0  0  0  0
 21 47  1  0  0  0  0
 22 26  1  0  0  0  0
 22 48  1  0  0  0  0
 22 49  1  0  0  0  0
 23 25  1  0  0  0  0
 23 50  1  0  0  0  0
 23 51  1  0  0  0  0
 25 52  1  0  0  0  0
 25 53  1  0  0  0  0
 25 54  1  0  0  0  0
 26 55  1  0  0  0  0
 26 56  1  0  0  0  0
 26 57  1  0  0  0  0
M  END
> <PUBCHEM_COMPOUND_CID>
4634

> <PUBCHEM_COMPOUND_CANONICALIZED>
1

> <PUBCHEM_CACTVS_COMPLEXITY>
490

> <PUBCHEM_CACTVS_HBOND_ACCEPTOR>
4

> <PUBCHEM_CACTVS_HBOND_DONOR>
1

> <PUBCHEM_CACTVS_ROTATABLE_BOND>
8

> <PUBCHEM_CACTVS_SUBSKEYS>
AAADceB6MAAAAAAAAAAAAAAAAAAAAAAAAAAwYAAAAAAAAAABAAAAHgAACAAADUThmAYyCIMABgDIEiDSCAICAAAgAAAIiAFICIgJJjKAFRCCcAAkwAGLmAeIyOCOgAAAAAAAAAAAAAAAAAAAAAAAAAAAAA==

> <PUBCHEM_IUPAC_OPENEYE_NAME>
4-(diethylamino)but-2-ynyl 2-cyclohexyl-2-hydroxy-2-phenyl-acetate

> <PUBCHEM_IUPAC_CAS_NAME>
2-cyclohexyl-2-hydroxy-2-phenylacetic acid 4-(diethylamino)but-2-ynyl ester

> <PUBCHEM_IUPAC_NAME>
4-(diethylamino)but-2-ynyl 2-cyclohexyl-2-hydroxy-2-phenylacetate

> <PUBCHEM_IUPAC_SYSTEMATIC_NAME>
4-(diethylamino)but-2-ynyl 2-cyclohexyl-2-oxidanyl-2-phenyl-ethanoate

> <PUBCHEM_IUPAC_TRADITIONAL_NAME>
2-cyclohexyl-2-hydroxy-2-phenyl-acetic acid 4-(diethylamino)but-2-ynyl ester

> <PUBCHEM_IUPAC_INCHI>
InChI=1S/C22H31NO3/c1-3-23(4-2)17-11-12-18-26-21(24)22(25,19-13-7-5-8-14-19)20-15-9-6-10-16-20/h5,7-8,13-14,20,25H,3-4,6,9-10,15-18H2,1-2H3

> <PUBCHEM_IUPAC_INCHIKEY>
XIQVNETUBQGFHX-UHFFFAOYSA-N

> <PUBCHEM_XLOGP3_AA>
4.2

> <PUBCHEM_EXACT_MASS>
357.230394

> <PUBCHEM_MOLECULAR_FORMULA>
C22H31NO3

> <PUBCHEM_MOLECULAR_WEIGHT>
357.48644

> <PUBCHEM_OPENEYE_CAN_SMILES>
CCN(CC)CC#CCOC(=O)C(C1CCCCC1)(C2=CC=CC=C2)O

> <PUBCHEM_OPENEYE_ISO_SMILES>
CCN(CC)CC#CCOC(=O)C(C1CCCCC1)(C2=CC=CC=C2)O

> <PUBCHEM_CACTVS_TPSA>
49.8

> <PUBCHEM_MONOISOTOPIC_WEIGHT>
357.230394

> <PUBCHEM_TOTAL_CHARGE>
0

> <PUBCHEM_HEAVY_ATOM_COUNT>
26

> <PUBCHEM_ATOM_DEF_STEREO_COUNT>
0

> <PUBCHEM_ATOM_UDEF_STEREO_COUNT>
1

> <PUBCHEM_BOND_DEF_STEREO_COUNT>
0

> <PUBCHEM_BOND_UDEF_STEREO_COUNT>
0

> <PUBCHEM_ISOTOPIC_ATOM_COUNT>
0

> <PUBCHEM_COMPONENT_COUNT>
1

> <PUBCHEM_CACTVS_TAUTO_COUNT>
1

> <PUBCHEM_COORDINATE_TYPE>
1
5
255

> <PUBCHEM_BONDANNOTATIONS>
8  1  3
12  14  8
12  15  8
14  16  8
15  17  8
16  18  8
17  18  8

$$$$

