5387248
  -OEChem-07051213153D

 66 67  0     1  0  0  0  0  0999 V2000
    4.4867   -2.9000    0.2521 O   0  0  0  0  0  0  0  0  0  0  0  0
    3.2458   -2.2556    2.1490 O   0  0  0  0  0  0  0  0  0  0  0  0
    4.2465   -3.7181   -1.8850 O   0  0  0  0  0  0  0  0  0  0  0  0
   -3.2301   -1.6245   -0.9815 C   0  0  0  0  0  0  0  0  0  0  0  0
   -4.4327   -2.5245   -0.5922 C   0  0  0  0  0  0  0  0  0  0  0  0
   -2.7458   -0.7770    0.2133 C   0  0  0  0  0  0  0  0  0  0  0  0
   -4.2112   -3.2318    0.7346 C   0  0  0  0  0  0  0  0  0  0  0  0
   -4.0186   -2.2128    1.8488 C   0  0  0  0  0  0  0  0  0  0  0  0
   -3.1351   -1.0392    1.4854 C   0  0  0  0  0  0  0  0  0  0  0  0
   -1.8009    0.3574   -0.1181 C   0  0  0  0  0  0  0  0  0  0  0  0
   -2.0723   -2.5159   -1.4831 C   0  0  0  0  0  0  0  0  0  0  0  0
   -3.7023   -0.7317   -2.1500 C   0  0  0  0  0  0  0  0  0  0  0  0
   -2.5505    1.6707   -0.3625 C   0  0  0  0  0  0  0  0  0  0  0  0
   -2.7666   -0.1967    2.6814 C   0  0  0  0  0  0  0  0  0  0  0  0
   -1.6247    2.8046   -0.7632 C   0  0  0  0  0  0  0  0  0  0  0  0
   -1.1151    3.6220    0.1795 C   0  0  0  0  0  0  0  0  0  0  0  0
   -1.3681    2.9347   -2.2396 C   0  0  0  0  0  0  0  0  0  0  0  0
   -0.2082    4.8068   -0.0113 C   0  0  0  0  0  0  0  0  0  0  0  0
    1.1271    4.6530    0.7331 C   0  0  0  0  0  0  0  0  0  0  0  0
    1.9349    3.4404    0.3171 C   0  0  0  0  0  0  0  0  0  0  0  0
    3.1074    1.2077    0.8130 C   0  0  0  0  0  0  0  0  0  0  0  0
    2.2901    2.4287    1.1341 C   0  0  0  0  0  0  0  0  0  0  0  0
    2.2181    0.0527    0.3497 C   0  0  0  0  0  0  0  0  0  0  0  0
    2.3730    3.4247   -1.1259 C   0  0  0  0  0  0  0  0  0  0  0  0
    3.0157   -1.1616    0.0090 C   0  0  0  0  0  0  0  0  0  0  0  0
    3.9241   -1.8061    0.9852 C   0  0  2  0  0  0  0  0  0  0  0  0
    3.0394   -1.7958   -1.1607 C   0  0  0  0  0  0  0  0  0  0  0  0
    3.9738   -2.9120   -1.0123 C   0  0  0  0  0  0  0  0  0  0  0  0
   -4.6241   -3.2692   -1.3750 H   0  0  0  0  0  0  0  0  0  0  0  0
   -5.3464   -1.9188   -0.5157 H   0  0  0  0  0  0  0  0  0  0  0  0
   -5.0710   -3.8710    0.9669 H   0  0  0  0  0  0  0  0  0  0  0  0
   -3.3393   -3.8933    0.6757 H   0  0  0  0  0  0  0  0  0  0  0  0
   -4.9993   -1.8213    2.1487 H   0  0  0  0  0  0  0  0  0  0  0  0
   -3.6041   -2.7326    2.7213 H   0  0  0  0  0  0  0  0  0  0  0  0
   -1.1936    0.1038   -0.9943 H   0  0  0  0  0  0  0  0  0  0  0  0
   -1.0603    0.4888    0.6804 H   0  0  0  0  0  0  0  0  0  0  0  0
   -1.6380   -3.1138   -0.6744 H   0  0  0  0  0  0  0  0  0  0  0  0
   -1.2602   -1.9245   -1.9198 H   0  0  0  0  0  0  0  0  0  0  0  0
   -2.4158   -3.2078   -2.2609 H   0  0  0  0  0  0  0  0  0  0  0  0
   -4.0857   -1.3516   -2.9703 H   0  0  0  0  0  0  0  0  0  0  0  0
   -4.5219   -0.0710   -1.8472 H   0  0  0  0  0  0  0  0  0  0  0  0
   -2.8941   -0.1296   -2.5770 H   0  0  0  0  0  0  0  0  0  0  0  0
   -3.3317    1.5851   -1.1206 H   0  0  0  0  0  0  0  0  0  0  0  0
   -3.0898    1.9533    0.5520 H   0  0  0  0  0  0  0  0  0  0  0  0
   -2.1247   -0.7704    3.3582 H   0  0  0  0  0  0  0  0  0  0  0  0
   -2.2444    0.7300    2.4371 H   0  0  0  0  0  0  0  0  0  0  0  0
   -3.6716    0.0899    3.2283 H   0  0  0  0  0  0  0  0  0  0  0  0
   -1.3858    3.4297    1.2175 H   0  0  0  0  0  0  0  0  0  0  0  0
   -2.3185    3.0095   -2.7793 H   0  0  0  0  0  0  0  0  0  0  0  0
   -0.7809    3.8111   -2.5162 H   0  0  0  0  0  0  0  0  0  0  0  0
   -0.8360    2.0509   -2.6065 H   0  0  0  0  0  0  0  0  0  0  0  0
   -0.7244    5.6883    0.3900 H   0  0  0  0  0  0  0  0  0  0  0  0
   -0.0192    5.0337   -1.0630 H   0  0  0  0  0  0  0  0  0  0  0  0
    0.9307    4.6145    1.8128 H   0  0  0  0  0  0  0  0  0  0  0  0
    1.7325    5.5534    0.5692 H   0  0  0  0  0  0  0  0  0  0  0  0
    3.6439    0.9279    1.7289 H   0  0  0  0  0  0  0  0  0  0  0  0
    3.8897    1.4248    0.0781 H   0  0  0  0  0  0  0  0  0  0  0  0
    1.9450    2.4777    2.1663 H   0  0  0  0  0  0  0  0  0  0  0  0
    1.6265    0.3655   -0.5207 H   0  0  0  0  0  0  0  0  0  0  0  0
    1.4979   -0.2040    1.1369 H   0  0  0  0  0  0  0  0  0  0  0  0
    2.9383    4.3358   -1.3504 H   0  0  0  0  0  0  0  0  0  0  0  0
    3.0074    2.5810   -1.4029 H   0  0  0  0  0  0  0  0  0  0  0  0
    1.5079    3.3890   -1.7924 H   0  0  0  0  0  0  0  0  0  0  0  0
    4.7392   -1.1357    1.2781 H   0  0  0  0  0  0  0  0  0  0  0  0
    2.4936   -1.5605   -2.0580 H   0  0  0  0  0  0  0  0  0  0  0  0
    3.9023   -2.3008    2.8646 H   0  0  0  0  0  0  0  0  0  0  0  0
  1 26  1  0  0  0  0
  1 28  1  0  0  0  0
  2 26  1  0  0  0  0
  2 66  1  0  0  0  0
  3 28  2  0  0  0  0
  4  5  1  0  0  0  0
  4  6  1  0  0  0  0
  4 11  1  0  0  0  0
  4 12  1  0  0  0  0
  5  7  1  0  0  0  0
  5 29  1  0  0  0  0
  5 30  1  0  0  0  0
  6  9  2  0  0  0  0
  6 10  1  0  0  0  0
  7  8  1  0  0  0  0
  7 31  1  0  0  0  0
  7 32  1  0  0  0  0
  8  9  1  0  0  0  0
  8 33  1  0  0  0  0
  8 34  1  0  0  0  0
  9 14  1  0  0  0  0
 10 13  1  0  0  0  0
 10 35  1  0  0  0  0
 10 36  1  0  0  0  0
 11 37  1  0  0  0  0
 11 38  1  0  0  0  0
 11 39  1  0  0  0  0
 12 40  1  0  0  0  0
 12 41  1  0  0  0  0
 12 42  1  0  0  0  0
 13 15  1  0  0  0  0
 13 43  1  0  0  0  0
 13 44  1  0  0  0  0
 14 45  1  0  0  0  0
 14 46  1  0  0  0  0
 14 47  1  0  0  0  0
 15 16  2  0  0  0  0
 15 17  1  0  0  0  0
 16 18  1  0  0  0  0
 16 48  1  0  0  0  0
 17 49  1  0  0  0  0
 17 50  1  0  0  0  0
 17 51  1  0  0  0  0
 18 19  1  0  0  0  0
 18 52  1  0  0  0  0
 18 53  1  0  0  0  0
 19 20  1  0  0  0  0
 19 54  1  0  0  0  0
 19 55  1  0  0  0  0
 20 22  2  0  0  0  0
 20 24  1  0  0  0  0
 21 22  1  0  0  0  0
 21 23  1  0  0  0  0
 21 56  1  0  0  0  0
 21 57  1  0  0  0  0
 22 58  1  0  0  0  0
 23 25  1  0  0  0  0
 23 59  1  0  0  0  0
 23 60  1  0  0  0  0
 24 61  1  0  0  0  0
 24 62  1  0  0  0  0
 24 63  1  0  0  0  0
 25 26  1  0  0  0  0
 25 27  2  0  0  0  0
 26 64  1  0  0  0  0
 27 28  1  0  0  0  0
 27 65  1  0  0  0  0
M  END
> <PUBCHEM_COMPOUND_CID>
5387248

> <PUBCHEM_CONFORMER_RMSD>
1.4

> <PUBCHEM_CONFORMER_DIVERSEORDER>
3
63
47
72
8
64
71
104
50
36
89
57
150
84
77
100
133
6
131
59
141
16
68
134
13
139
146
23
43
130
12
7
79
75
93
30
53
121
69
45
120
112
34
147
111
5
49
108
90
24
42
95
62
96
2
32
118
15
145
114
18
137
98
1
37
88
61
41
14
10
20
35
22
39
119
128
38
60
101
86
106
82
126
46
51
29
26
97
123
48
110
142
91
148
115
52
87
80
4
116
17
125
66
144
102
136
70
138
149
21
85
135
132
27
28
122
54
78
124
67
76
127
140
58
65
81
99
109
113
74
143
103
105
19
94
25
56
107
44
129
117
55
33
73
92
40
9
83
31
11

> <PUBCHEM_MMFF94_PARTIAL_CHARGES>
28
1 -0.43
10 0.14
13 0.14
14 0.14
15 -0.28
16 -0.29
17 0.14
18 0.14
19 0.14
2 -0.68
20 -0.28
21 0.14
22 -0.29
23 0.14
24 0.14
25 -0.28
26 0.7
27 -0.14
28 0.71
3 -0.57
4 0.14
48 0.15
58 0.15
6 -0.28
65 0.15
66 0.4
8 0.14
9 -0.28

> <PUBCHEM_EFFECTIVE_ROTOR_COUNT>
10.2

> <PUBCHEM_PHARMACOPHORE_FEATURES>
9
1 17 hydrophobe
1 2 acceptor
1 2 donor
1 24 hydrophobe
1 3 acceptor
3 4 11 12 hydrophobe
4 16 18 19 20 hydrophobe
5 1 25 26 27 28 rings
6 4 5 6 7 8 9 rings

> <PUBCHEM_HEAVY_ATOM_COUNT>
28

> <PUBCHEM_ATOM_DEF_STEREO_COUNT>
0

> <PUBCHEM_ATOM_UDEF_STEREO_COUNT>
1

> <PUBCHEM_BOND_DEF_STEREO_COUNT>
2

> <PUBCHEM_BOND_UDEF_STEREO_COUNT>
0

> <PUBCHEM_ISOTOPIC_ATOM_COUNT>
0

> <PUBCHEM_COMPONENT_COUNT>
1

> <PUBCHEM_CACTVS_TAUTO_COUNT>
1

> <PUBCHEM_CONFORMER_ID>
005233F000000003

> <PUBCHEM_MMFF94_ENERGY>
32.6341

> <PUBCHEM_FEATURE_SELFOVERLAP>
45.687

> <PUBCHEM_SHAPE_FINGERPRINT>
10653451 467 18197488727396704289
11014199 57 18409165549748644408
12156800 1 15466828599083763689
12712778 12 17767142147779435930
12788726 201 18055927734353592011
1361 2 17474958623345566515
13941206 138 16970534003001749348
14251757 5 17832977622647850550
14659021 117 17977970173679338896
15322534 239 16532564471095023574
161222 619 17480567253381001131
16719943 64 17256806123280524966
19315092 285 16085072713430296053
19930381 70 18125448514299872995
20775530 9 18410575080553000856
21133410 230 16968813207481154577
21285901 2 17485394204401222597
21315764 371 17175746333440100969
23428019 142 17184456063603169678
3737641 26 18336811027637185068
404807 14 18261673791972453791
508706 21 18119527884360356335
5309563 4 18267306430383396081
86090 222 17764291861083740844

> <PUBCHEM_SHAPE_MULTIPOLES>
558.62
9.4
7.05
2.1
3.61
3.78
-0.19
-10.23
-0.86
-7.79
1.46
1.25
-0.68
1.41

> <PUBCHEM_SHAPE_SELFOVERLAP>
1128.16

> <PUBCHEM_SHAPE_VOLUME>
326.9

> <PUBCHEM_COORDINATE_TYPE>
2
5
10

$$$$

