3202
  -OEChem-07051212523D

 28 28  0     0  0  0  0  0  0999 V2000
   -2.8476   -1.6725   -0.3834 O   0  0  0  0  0  0  0  0  0  0  0  0
    1.6368    0.1678   -0.3146 N   0  3  0  0  0  0  0  0  0  0  0  0
    2.1128   -1.2579   -0.0436 C   0  0  0  0  0  0  0  0  0  0  0  0
    0.1288    0.3241   -0.1041 C   0  0  0  0  0  0  0  0  0  0  0  0
    2.3658    1.1030    0.6459 C   0  0  0  0  0  0  0  0  0  0  0  0
    1.9686    0.5116   -1.7640 C   0  0  0  0  0  0  0  0  0  0  0  0
    1.8200   -1.6157    1.3970 C   0  0  0  0  0  0  0  0  0  0  0  0
   -0.6410   -0.7632   -0.3488 C   0  0  0  0  0  0  0  0  0  0  0  0
   -0.3092    1.5380    0.3081 C   0  0  0  0  0  0  0  0  0  0  0  0
   -2.0152   -0.6197   -0.1578 C   0  0  0  0  0  0  0  0  0  0  0  0
   -1.6834    1.6817    0.4991 C   0  0  0  0  0  0  0  0  0  0  0  0
   -2.5364    0.6028    0.2662 C   0  0  0  0  0  0  0  0  0  0  0  0
    1.6760   -1.9513   -0.7680 H   0  0  0  0  0  0  0  0  0  0  0  0
    3.1969   -1.2773   -0.2155 H   0  0  0  0  0  0  0  0  0  0  0  0
    1.9369    1.0445    1.6515 H   0  0  0  0  0  0  0  0  0  0  0  0
    3.4199    0.8044    0.6771 H   0  0  0  0  0  0  0  0  0  0  0  0
    2.3367    2.1254    0.2546 H   0  0  0  0  0  0  0  0  0  0  0  0
    1.6380    1.5348   -1.9685 H   0  0  0  0  0  0  0  0  0  0  0  0
    3.0526    0.4362   -1.8934 H   0  0  0  0  0  0  0  0  0  0  0  0
    1.4561   -0.1967   -2.4226 H   0  0  0  0  0  0  0  0  0  0  0  0
    2.0491   -2.6779    1.5447 H   0  0  0  0  0  0  0  0  0  0  0  0
    2.4662   -1.0762    2.0969 H   0  0  0  0  0  0  0  0  0  0  0  0
    0.7848   -1.4775    1.7147 H   0  0  0  0  0  0  0  0  0  0  0  0
   -0.2890   -1.7188   -0.7109 H   0  0  0  0  0  0  0  0  0  0  0  0
    0.3022    2.4150    0.4697 H   0  0  0  0  0  0  0  0  0  0  0  0
   -2.0910    2.6355    0.8215 H   0  0  0  0  0  0  0  0  0  0  0  0
   -3.6053    0.7282    0.4173 H   0  0  0  0  0  0  0  0  0  0  0  0
   -3.7621   -1.3958   -0.2013 H   0  0  0  0  0  0  0  0  0  0  0  0
  1 10  1  0  0  0  0
  1 28  1  0  0  0  0
  2  3  1  0  0  0  0
  2  4  1  0  0  0  0
  2  5  1  0  0  0  0
  2  6  1  0  0  0  0
  3  7  1  0  0  0  0
  3 13  1  0  0  0  0
  3 14  1  0  0  0  0
  4  8  2  0  0  0  0
  4  9  1  0  0  0  0
  5 15  1  0  0  0  0
  5 16  1  0  0  0  0
  5 17  1  0  0  0  0
  6 18  1  0  0  0  0
  6 19  1  0  0  0  0
  6 20  1  0  0  0  0
  7 21  1  0  0  0  0
  7 22  1  0  0  0  0
  7 23  1  0  0  0  0
  8 10  1  0  0  0  0
  8 24  1  0  0  0  0
  9 11  2  0  0  0  0
  9 25  1  0  0  0  0
 10 12  2  0  0  0  0
 11 12  1  0  0  0  0
 11 26  1  0  0  0  0
 12 27  1  0  0  0  0
M  CHG  1   2   1
M  END
> <PUBCHEM_COMPOUND_CID>
3202

> <PUBCHEM_CONFORMER_RMSD>
0.6

> <PUBCHEM_CONFORMER_DIVERSEORDER>
11
12
3
1
2
4
8
7
6
9
5
10

> <PUBCHEM_MMFF94_PARTIAL_CHARGES>
16
1 -0.53
10 0.08
11 -0.15
12 -0.15
2 -0.87
24 0.15
25 0.15
26 0.15
27 0.15
28 0.45
3 0.5
4 0.36
5 0.5
6 0.5
8 -0.15
9 -0.15

> <PUBCHEM_EFFECTIVE_ROTOR_COUNT>
2

> <PUBCHEM_PHARMACOPHORE_FEATURES>
3
1 1 donor
1 2 cation
6 4 8 9 10 11 12 rings

> <PUBCHEM_HEAVY_ATOM_COUNT>
12

> <PUBCHEM_ATOM_DEF_STEREO_COUNT>
0

> <PUBCHEM_ATOM_UDEF_STEREO_COUNT>
0

> <PUBCHEM_BOND_DEF_STEREO_COUNT>
0

> <PUBCHEM_BOND_UDEF_STEREO_COUNT>
0

> <PUBCHEM_ISOTOPIC_ATOM_COUNT>
0

> <PUBCHEM_COMPONENT_COUNT>
1

> <PUBCHEM_CACTVS_TAUTO_COUNT>
3

> <PUBCHEM_CONFORMER_ID>
00000C820000000B

> <PUBCHEM_MMFF94_ENERGY>
53.5518

> <PUBCHEM_FEATURE_SELFOVERLAP>
15.223

> <PUBCHEM_SHAPE_FINGERPRINT>
10857977 72 17894918395075765105
12524768 44 18040429997205002765
12932764 1 18411691119204388801
13538477 17 18339920514933712725
14128692 85 18341891960894464002
14252887 29 17679851627318430215
15775835 57 18338788026436508752
16945 1 18269266864063564781
20361792 2 17058935669999225442
20645477 70 17467358816587590223
20653091 64 18272653480368392354
21040471 1 17973152117694220421
22445834 79 18198909303833261346
232386 152 18336830921767340486
23552423 10 18272929431631960423
23559900 14 17680415952326077206
2748010 2 18260266330672063277
3248919 1 17489868211255257161
369184 2 18336551598431978193
5084963 1 18059006314712114196
7364860 26 18261110820327261486
8030462 33 18342170064063209247

> <PUBCHEM_SHAPE_MULTIPOLES>
236.1
4
1.84
1.14
0.78
0.18
-0.21
0.67
0.07
0.21
0.35
-0.81
0.01
-0.72

> <PUBCHEM_SHAPE_SELFOVERLAP>
480.392

> <PUBCHEM_SHAPE_VOLUME>
139.8

> <PUBCHEM_COORDINATE_TYPE>
2
5
10

$$$$

