5460588
  -OEChem-07051213023D

 28 27  0     1  0  0  0  0  0999 V2000
    1.0198    1.6196   -0.0895 O   0  0  0  0  0  0  0  0  0  0  0  0
   -1.2277    0.8289   -1.6117 O   0  0  0  0  0  0  0  0  0  0  0  0
   -1.9076   -1.2767    1.3380 O   0  0  0  0  0  0  0  0  0  0  0  0
    3.2720   -1.6485   -0.0880 O   0  0  0  0  0  0  0  0  0  0  0  0
    0.4045    0.3418    0.1247 C   0  0  1  0  0  0  0  0  0  0  0  0
   -1.1048    0.4155   -0.2475 C   0  0  2  0  0  0  0  0  0  0  0  0
   -1.9265   -0.8731   -0.0278 C   0  0  2  0  0  0  0  0  0  0  0  0
    1.1764   -0.6636   -0.7548 C   0  0  0  0  0  0  0  0  0  0  0  0
    0.5989    0.0265    1.6128 C   0  0  0  0  0  0  0  0  0  0  0  0
   -3.3821   -0.7181   -0.4605 C   0  0  0  0  0  0  0  0  0  0  0  0
    2.6637   -0.6693   -0.5086 C   0  0  0  0  0  0  0  0  0  0  0  0
    0.4134    2.6170    0.7128 C   0  0  0  0  0  0  0  0  0  0  0  0
   -1.5942    1.1828    0.3614 H   0  0  0  0  0  0  0  0  0  0  0  0
   -1.4932   -1.6858   -0.6214 H   0  0  0  0  0  0  0  0  0  0  0  0
    1.0549   -0.4156   -1.8160 H   0  0  0  0  0  0  0  0  0  0  0  0
    0.8043   -1.6831   -0.6071 H   0  0  0  0  0  0  0  0  0  0  0  0
    0.5466   -1.0529    1.7961 H   0  0  0  0  0  0  0  0  0  0  0  0
   -0.1620    0.4865    2.2528 H   0  0  0  0  0  0  0  0  0  0  0  0
    1.5786    0.3608    1.9759 H   0  0  0  0  0  0  0  0  0  0  0  0
   -3.8651    0.1004    0.0843 H   0  0  0  0  0  0  0  0  0  0  0  0
   -3.4730   -0.5298   -1.5340 H   0  0  0  0  0  0  0  0  0  0  0  0
   -3.9499   -1.6260   -0.2285 H   0  0  0  0  0  0  0  0  0  0  0  0
   -2.1176    1.2010   -1.7312 H   0  0  0  0  0  0  0  0  0  0  0  0
    3.1966    0.2686   -0.7393 H   0  0  0  0  0  0  0  0  0  0  0  0
   -2.3887   -2.1190    1.4046 H   0  0  0  0  0  0  0  0  0  0  0  0
    1.0306    3.5156    0.5954 H   0  0  0  0  0  0  0  0  0  0  0  0
    0.4028    2.4171    1.7853 H   0  0  0  0  0  0  0  0  0  0  0  0
   -0.5744    2.9063    0.3459 H   0  0  0  0  0  0  0  0  0  0  0  0
  1  5  1  0  0  0  0
  1 12  1  0  0  0  0
  2  6  1  0  0  0  0
  2 23  1  0  0  0  0
  3  7  1  0  0  0  0
  3 25  1  0  0  0  0
  4 11  2  0  0  0  0
  5  6  1  0  0  0  0
  5  8  1  0  0  0  0
  5  9  1  0  0  0  0
  6  7  1  0  0  0  0
  6 13  1  0  0  0  0
  7 10  1  0  0  0  0
  7 14  1  0  0  0  0
  8 11  1  0  0  0  0
  8 15  1  0  0  0  0
  8 16  1  0  0  0  0
  9 17  1  0  0  0  0
  9 18  1  0  0  0  0
  9 19  1  0  0  0  0
 10 20  1  0  0  0  0
 10 21  1  0  0  0  0
 10 22  1  0  0  0  0
 11 24  1  0  0  0  0
 12 26  1  0  0  0  0
 12 27  1  0  0  0  0
 12 28  1  0  0  0  0
M  END
> <PUBCHEM_COMPOUND_CID>
5460588

> <PUBCHEM_CONFORMER_RMSD>
0.6

> <PUBCHEM_CONFORMER_DIVERSEORDER>
6
20
9
10
21
18
1
4
16
22
14
13
2
3
7
19
8
15
5
17
12
11

> <PUBCHEM_MMFF94_PARTIAL_CHARGES>
13
1 -0.56
11 0.45
12 0.28
2 -0.68
23 0.4
24 0.06
25 0.4
3 -0.68
4 -0.57
5 0.28
6 0.28
7 0.28
8 0.06

> <PUBCHEM_EFFECTIVE_ROTOR_COUNT>
5

> <PUBCHEM_PHARMACOPHORE_FEATURES>
6
1 1 acceptor
1 2 acceptor
1 2 donor
1 3 acceptor
1 3 donor
1 4 acceptor

> <PUBCHEM_HEAVY_ATOM_COUNT>
12

> <PUBCHEM_ATOM_DEF_STEREO_COUNT>
3

> <PUBCHEM_ATOM_UDEF_STEREO_COUNT>
0

> <PUBCHEM_BOND_DEF_STEREO_COUNT>
0

> <PUBCHEM_BOND_UDEF_STEREO_COUNT>
0

> <PUBCHEM_ISOTOPIC_ATOM_COUNT>
0

> <PUBCHEM_COMPONENT_COUNT>
1

> <PUBCHEM_CACTVS_TAUTO_COUNT>
2

> <PUBCHEM_CONFORMER_ID>
0053526C00000006

> <PUBCHEM_MMFF94_ENERGY>
41.324

> <PUBCHEM_FEATURE_SELFOVERLAP>
30.449

> <PUBCHEM_SHAPE_FINGERPRINT>
1 1 17902516978122718180
10702982 57 17403731645738598288
12138202 78 18338240340854931717
12423570 1 13299022965582712659
12716758 59 17986401198491069078
12897270 3 16917345935193242958
13024252 1 14547013330905578844
16945 1 18120926209678530000
20201158 50 18413386557434013934
20653085 51 15984243270873030910
20653091 64 17750507386584646531
20711978 78 18191603955494686661
20711985 344 18120381118373153560
21061003 4 18260540147753746586
22802520 49 17703497809994186627
29004967 10 18334008389397920890
305870 269 17608378943011409257
5084963 1 17386000625097755103
528862 383 17969222226913126940
81228 2 18047456005434664104

> <PUBCHEM_SHAPE_MULTIPOLES>
223.48
4.05
1.95
1.25
0.61
1.39
-0.22
-2.8
0.48
-0.95
-0.21
0.29
0.01
0.39

> <PUBCHEM_SHAPE_SELFOVERLAP>
423.507

> <PUBCHEM_SHAPE_VOLUME>
138.4

> <PUBCHEM_COORDINATE_TYPE>
2
5
10

$$$$

