5388883
  -OEChem-07051213042D

128127  0     1  0  0  0  0  0999 V2000
   10.6603    7.0000    0.0000 O   0  0  0  0  0  0  0  0  0  0  0  0
   13.2583    6.5000    0.0000 O   0  0  0  0  0  0  0  0  0  0  0  0
    9.7942    5.5000    0.0000 O   0  0  0  0  0  0  0  0  0  0  0  0
   14.1244    8.0000    0.0000 O   0  0  0  0  0  0  0  0  0  0  0  0
    9.7942    3.5000    0.0000 C   0  0  0  0  0  0  0  0  0  0  0  0
   10.6603    4.0000    0.0000 C   0  0  0  0  0  0  0  0  0  0  0  0
    9.7942    2.5000    0.0000 C   0  0  0  0  0  0  0  0  0  0  0  0
   10.6603    5.0000    0.0000 C   0  0  0  0  0  0  0  0  0  0  0  0
    8.9282    2.0000    0.0000 C   0  0  0  0  0  0  0  0  0  0  0  0
   11.5263    5.5000    0.0000 C   0  0  0  0  0  0  0  0  0  0  0  0
    8.9282    1.0000    0.0000 C   0  0  0  0  0  0  0  0  0  0  0  0
   11.5263    6.5000    0.0000 C   0  0  2  0  0  0  0  0  0  0  0  0
    8.0622    0.5000    0.0000 C   0  0  0  0  0  0  0  0  0  0  0  0
    8.0622   -0.5000    0.0000 C   0  0  0  0  0  0  0  0  0  0  0  0
    7.1962   -1.0000    0.0000 C   0  0  0  0  0  0  0  0  0  0  0  0
    7.1962   -2.0000    0.0000 C   0  0  0  0  0  0  0  0  0  0  0  0
   12.3923    7.0000    0.0000 C   0  0  2  0  0  0  0  0  0  0  0  0
    6.3301   -2.5000    0.0000 C   0  0  0  0  0  0  0  0  0  0  0  0
    6.3301   -3.5000    0.0000 C   0  0  0  0  0  0  0  0  0  0  0  0
    5.4641   -4.0000    0.0000 C   0  0  0  0  0  0  0  0  0  0  0  0
    5.4641   -5.0000    0.0000 C   0  0  0  0  0  0  0  0  0  0  0  0
   12.3923    8.0000    0.0000 C   0  0  0  0  0  0  0  0  0  0  0  0
    4.5981   -5.5000    0.0000 C   0  0  0  0  0  0  0  0  0  0  0  0
    8.0622    6.5000    0.0000 C   0  0  0  0  0  0  0  0  0  0  0  0
    8.9282    7.0000    0.0000 C   0  0  0  0  0  0  0  0  0  0  0  0
    4.5981   -6.5000    0.0000 C   0  0  0  0  0  0  0  0  0  0  0  0
    7.1962    7.0000    0.0000 C   0  0  0  0  0  0  0  0  0  0  0  0
    9.7942    6.5000    0.0000 C   0  0  0  0  0  0  0  0  0  0  0  0
    6.3301    6.5000    0.0000 C   0  0  0  0  0  0  0  0  0  0  0  0
   15.8564    7.0000    0.0000 C   0  0  0  0  0  0  0  0  0  0  0  0
   16.7224    6.5000    0.0000 C   0  0  0  0  0  0  0  0  0  0  0  0
    5.4641    7.0000    0.0000 C   0  0  0  0  0  0  0  0  0  0  0  0
   14.9904    6.5000    0.0000 C   0  0  0  0  0  0  0  0  0  0  0  0
   17.5885    7.0000    0.0000 C   0  0  0  0  0  0  0  0  0  0  0  0
   14.1244    7.0000    0.0000 C   0  0  0  0  0  0  0  0  0  0  0  0
   18.4545    6.5000    0.0000 C   0  0  0  0  0  0  0  0  0  0  0  0
    4.5981    6.5000    0.0000 C   0  0  0  0  0  0  0  0  0  0  0  0
    3.7320   -7.0000    0.0000 C   0  0  0  0  0  0  0  0  0  0  0  0
   19.3205    7.0000    0.0000 C   0  0  0  0  0  0  0  0  0  0  0  0
    3.7320    7.0000    0.0000 C   0  0  0  0  0  0  0  0  0  0  0  0
   20.1865    6.5000    0.0000 C   0  0  0  0  0  0  0  0  0  0  0  0
    2.8660    6.5000    0.0000 C   0  0  0  0  0  0  0  0  0  0  0  0
    3.7320   -8.0000    0.0000 C   0  0  0  0  0  0  0  0  0  0  0  0
   21.0526    7.0000    0.0000 C   0  0  0  0  0  0  0  0  0  0  0  0
    2.0000    7.0000    0.0000 C   0  0  0  0  0  0  0  0  0  0  0  0
   21.9186    6.5000    0.0000 C   0  0  0  0  0  0  0  0  0  0  0  0
    9.5822    4.0826    0.0000 H   0  0  0  0  0  0  0  0  0  0  0  0
    9.1836    3.3923    0.0000 H   0  0  0  0  0  0  0  0  0  0  0  0
   10.8723    3.4174    0.0000 H   0  0  0  0  0  0  0  0  0  0  0  0
   11.2708    4.1077    0.0000 H   0  0  0  0  0  0  0  0  0  0  0  0
   10.0063    1.9174    0.0000 H   0  0  0  0  0  0  0  0  0  0  0  0
   10.4048    2.6077    0.0000 H   0  0  0  0  0  0  0  0  0  0  0  0
   10.4482    5.5826    0.0000 H   0  0  0  0  0  0  0  0  0  0  0  0
   10.0497    4.8923    0.0000 H   0  0  0  0  0  0  0  0  0  0  0  0
    8.7162    2.5826    0.0000 H   0  0  0  0  0  0  0  0  0  0  0  0
    8.3176    1.8923    0.0000 H   0  0  0  0  0  0  0  0  0  0  0  0
   11.7383    4.9174    0.0000 H   0  0  0  0  0  0  0  0  0  0  0  0
   12.1369    5.6077    0.0000 H   0  0  0  0  0  0  0  0  0  0  0  0
    9.1403    0.4174    0.0000 H   0  0  0  0  0  0  0  0  0  0  0  0
    9.5388    1.1077    0.0000 H   0  0  0  0  0  0  0  0  0  0  0  0
   10.9893    6.1900    0.0000 H   0  0  0  0  0  0  0  0  0  0  0  0
    7.8501    1.0826    0.0000 H   0  0  0  0  0  0  0  0  0  0  0  0
    7.4516    0.3923    0.0000 H   0  0  0  0  0  0  0  0  0  0  0  0
    8.2742   -1.0826    0.0000 H   0  0  0  0  0  0  0  0  0  0  0  0
    8.6728   -0.3923    0.0000 H   0  0  0  0  0  0  0  0  0  0  0  0
    6.9841   -0.4174    0.0000 H   0  0  0  0  0  0  0  0  0  0  0  0
    6.5856   -1.1077    0.0000 H   0  0  0  0  0  0  0  0  0  0  0  0
    7.4082   -2.5826    0.0000 H   0  0  0  0  0  0  0  0  0  0  0  0
    7.8067   -1.8923    0.0000 H   0  0  0  0  0  0  0  0  0  0  0  0
   12.3923    6.3800    0.0000 H   0  0  0  0  0  0  0  0  0  0  0  0
    6.1181   -1.9174    0.0000 H   0  0  0  0  0  0  0  0  0  0  0  0
    5.7196   -2.6077    0.0000 H   0  0  0  0  0  0  0  0  0  0  0  0
    6.5422   -4.0826    0.0000 H   0  0  0  0  0  0  0  0  0  0  0  0
    6.9407   -3.3923    0.0000 H   0  0  0  0  0  0  0  0  0  0  0  0
    5.2520   -3.4174    0.0000 H   0  0  0  0  0  0  0  0  0  0  0  0
    4.8535   -4.1077    0.0000 H   0  0  0  0  0  0  0  0  0  0  0  0
    5.6762   -5.5826    0.0000 H   0  0  0  0  0  0  0  0  0  0  0  0
    6.0747   -4.8923    0.0000 H   0  0  0  0  0  0  0  0  0  0  0  0
   13.0123    8.0000    0.0000 H   0  0  0  0  0  0  0  0  0  0  0  0
   12.3923    8.6200    0.0000 H   0  0  0  0  0  0  0  0  0  0  0  0
   11.7723    8.0000    0.0000 H   0  0  0  0  0  0  0  0  0  0  0  0
    4.3860   -4.9174    0.0000 H   0  0  0  0  0  0  0  0  0  0  0  0
    3.9875   -5.6077    0.0000 H   0  0  0  0  0  0  0  0  0  0  0  0
    7.6636    6.0250    0.0000 H   0  0  0  0  0  0  0  0  0  0  0  0
    8.4607    6.0250    0.0000 H   0  0  0  0  0  0  0  0  0  0  0  0
    9.3267    7.4750    0.0000 H   0  0  0  0  0  0  0  0  0  0  0  0
    8.5297    7.4750    0.0000 H   0  0  0  0  0  0  0  0  0  0  0  0
    4.8101   -7.0826    0.0000 H   0  0  0  0  0  0  0  0  0  0  0  0
    5.2087   -6.3923    0.0000 H   0  0  0  0  0  0  0  0  0  0  0  0
    7.5947    7.4750    0.0000 H   0  0  0  0  0  0  0  0  0  0  0  0
    6.7976    7.4750    0.0000 H   0  0  0  0  0  0  0  0  0  0  0  0
    5.9316    6.0250    0.0000 H   0  0  0  0  0  0  0  0  0  0  0  0
    6.7287    6.0250    0.0000 H   0  0  0  0  0  0  0  0  0  0  0  0
   16.3239    6.0250    0.0000 H   0  0  0  0  0  0  0  0  0  0  0  0
   17.1210    6.0250    0.0000 H   0  0  0  0  0  0  0  0  0  0  0  0
   16.2549    7.4750    0.0000 H   0  0  0  0  0  0  0  0  0  0  0  0
   15.4579    7.4750    0.0000 H   0  0  0  0  0  0  0  0  0  0  0  0
    5.8626    7.4750    0.0000 H   0  0  0  0  0  0  0  0  0  0  0  0
    5.0656    7.4750    0.0000 H   0  0  0  0  0  0  0  0  0  0  0  0
   14.5919    6.0250    0.0000 H   0  0  0  0  0  0  0  0  0  0  0  0
   15.3889    6.0250    0.0000 H   0  0  0  0  0  0  0  0  0  0  0  0
   17.9870    7.4750    0.0000 H   0  0  0  0  0  0  0  0  0  0  0  0
   17.1899    7.4750    0.0000 H   0  0  0  0  0  0  0  0  0  0  0  0
   18.0560    6.0250    0.0000 H   0  0  0  0  0  0  0  0  0  0  0  0
   18.8530    6.0250    0.0000 H   0  0  0  0  0  0  0  0  0  0  0  0
    4.1996    6.0250    0.0000 H   0  0  0  0  0  0  0  0  0  0  0  0
    4.9966    6.0250    0.0000 H   0  0  0  0  0  0  0  0  0  0  0  0
    3.5200   -6.4174    0.0000 H   0  0  0  0  0  0  0  0  0  0  0  0
    3.1215   -7.1077    0.0000 H   0  0  0  0  0  0  0  0  0  0  0  0
   19.7190    7.4750    0.0000 H   0  0  0  0  0  0  0  0  0  0  0  0
   18.9220    7.4750    0.0000 H   0  0  0  0  0  0  0  0  0  0  0  0
    4.1306    7.4750    0.0000 H   0  0  0  0  0  0  0  0  0  0  0  0
    3.3335    7.4750    0.0000 H   0  0  0  0  0  0  0  0  0  0  0  0
   19.7880    6.0250    0.0000 H   0  0  0  0  0  0  0  0  0  0  0  0
   20.5851    6.0250    0.0000 H   0  0  0  0  0  0  0  0  0  0  0  0
    2.4675    6.0250    0.0000 H   0  0  0  0  0  0  0  0  0  0  0  0
    3.2646    6.0250    0.0000 H   0  0  0  0  0  0  0  0  0  0  0  0
    3.1120   -8.0000    0.0000 H   0  0  0  0  0  0  0  0  0  0  0  0
    3.7320   -8.6200    0.0000 H   0  0  0  0  0  0  0  0  0  0  0  0
    4.3520   -8.0000    0.0000 H   0  0  0  0  0  0  0  0  0  0  0  0
   21.4511    7.4750    0.0000 H   0  0  0  0  0  0  0  0  0  0  0  0
   20.6540    7.4750    0.0000 H   0  0  0  0  0  0  0  0  0  0  0  0
    2.3100    7.5369    0.0000 H   0  0  0  0  0  0  0  0  0  0  0  0
    1.4631    7.3100    0.0000 H   0  0  0  0  0  0  0  0  0  0  0  0
    1.6900    6.4631    0.0000 H   0  0  0  0  0  0  0  0  0  0  0  0
   21.6086    5.9631    0.0000 H   0  0  0  0  0  0  0  0  0  0  0  0
   22.4555    6.1900    0.0000 H   0  0  0  0  0  0  0  0  0  0  0  0
   22.2286    7.0369    0.0000 H   0  0  0  0  0  0  0  0  0  0  0  0
 12  1  1  1  0  0  0
  1 28  1  0  0  0  0
 17  2  1  6  0  0  0
  2 35  1  0  0  0  0
  3 28  2  0  0  0  0
  4 35  2  0  0  0  0
  5  6  1  0  0  0  0
  5  7  1  0  0  0  0
  5 47  1  0  0  0  0
  5 48  1  0  0  0  0
  6  8  1  0  0  0  0
  6 49  1  0  0  0  0
  6 50  1  0  0  0  0
  7  9  1  0  0  0  0
  7 51  1  0  0  0  0
  7 52  1  0  0  0  0
  8 10  1  0  0  0  0
  8 53  1  0  0  0  0
  8 54  1  0  0  0  0
  9 11  1  0  0  0  0
  9 55  1  0  0  0  0
  9 56  1  0  0  0  0
 10 12  1  0  0  0  0
 10 57  1  0  0  0  0
 10 58  1  0  0  0  0
 11 13  1  0  0  0  0
 11 59  1  0  0  0  0
 11 60  1  0  0  0  0
 12 17  1  0  0  0  0
 12 61  1  0  0  0  0
 13 14  1  0  0  0  0
 13 62  1  0  0  0  0
 13 63  1  0  0  0  0
 14 15  1  0  0  0  0
 14 64  1  0  0  0  0
 14 65  1  0  0  0  0
 15 16  1  0  0  0  0
 15 66  1  0  0  0  0
 15 67  1  0  0  0  0
 16 18  1  0  0  0  0
 16 68  1  0  0  0  0
 16 69  1  0  0  0  0
 17 22  1  0  0  0  0
 17 70  1  0  0  0  0
 18 19  1  0  0  0  0
 18 71  1  0  0  0  0
 18 72  1  0  0  0  0
 19 20  1  0  0  0  0
 19 73  1  0  0  0  0
 19 74  1  0  0  0  0
 20 21  1  0  0  0  0
 20 75  1  0  0  0  0
 20 76  1  0  0  0  0
 21 23  1  0  0  0  0
 21 77  1  0  0  0  0
 21 78  1  0  0  0  0
 22 79  1  0  0  0  0
 22 80  1  0  0  0  0
 22 81  1  0  0  0  0
 23 26  1  0  0  0  0
 23 82  1  0  0  0  0
 23 83  1  0  0  0  0
 24 25  1  0  0  0  0
 24 27  1  0  0  0  0
 24 84  1  0  0  0  0
 24 85  1  0  0  0  0
 25 28  1  0  0  0  0
 25 86  1  0  0  0  0
 25 87  1  0  0  0  0
 26 38  1  0  0  0  0
 26 88  1  0  0  0  0
 26 89  1  0  0  0  0
 27 29  1  0  0  0  0
 27 90  1  0  0  0  0
 27 91  1  0  0  0  0
 29 32  1  0  0  0  0
 29 92  1  0  0  0  0
 29 93  1  0  0  0  0
 30 31  1  0  0  0  0
 30 33  1  0  0  0  0
 30 96  1  0  0  0  0
 30 97  1  0  0  0  0
 31 34  1  0  0  0  0
 31 94  1  0  0  0  0
 31 95  1  0  0  0  0
 32 37  1  0  0  0  0
 32 98  1  0  0  0  0
 32 99  1  0  0  0  0
 33 35  1  0  0  0  0
 33100  1  0  0  0  0
 33101  1  0  0  0  0
 34 36  1  0  0  0  0
 34102  1  0  0  0  0
 34103  1  0  0  0  0
 36 39  1  0  0  0  0
 36104  1  0  0  0  0
 36105  1  0  0  0  0
 37 40  1  0  0  0  0
 37106  1  0  0  0  0
 37107  1  0  0  0  0
 38 43  1  0  0  0  0
 38108  1  0  0  0  0
 38109  1  0  0  0  0
 39 41  1  0  0  0  0
 39110  1  0  0  0  0
 39111  1  0  0  0  0
 40 42  1  0  0  0  0
 40112  1  0  0  0  0
 40113  1  0  0  0  0
 41 44  1  0  0  0  0
 41114  1  0  0  0  0
 41115  1  0  0  0  0
 42 45  1  0  0  0  0
 42116  1  0  0  0  0
 42117  1  0  0  0  0
 43118  1  0  0  0  0
 43119  1  0  0  0  0
 43120  1  0  0  0  0
 44 46  1  0  0  0  0
 44121  1  0  0  0  0
 44122  1  0  0  0  0
 45123  1  0  0  0  0
 45124  1  0  0  0  0
 45125  1  0  0  0  0
 46126  1  0  0  0  0
 46127  1  0  0  0  0
 46128  1  0  0  0  0
M  END
> <PUBCHEM_COMPOUND_CID>
5388883

> <PUBCHEM_COMPOUND_CANONICALIZED>
1

> <PUBCHEM_CACTVS_COMPLEXITY>
633

> <PUBCHEM_CACTVS_HBOND_ACCEPTOR>
4

> <PUBCHEM_CACTVS_HBOND_DONOR>
0

> <PUBCHEM_CACTVS_ROTATABLE_BOND>
39

> <PUBCHEM_CACTVS_SUBSKEYS>
AAADcfB8OAAAAAAAAAAAAAAAAAAAAAAAAAAAAAAAAAAAAAAAAAAAGgAAAAAACBSggAICCAAABAAIAACQCAAAAAAAAAAAAAEAAAABABIAAAACAAAEAAACAAGIyKCAAAAAAAAAAAAAAAAAAAAAAAAAAAAAAA==

> <PUBCHEM_IUPAC_OPENEYE_NAME>
[(1S,2R)-2-decanoyloxy-1-methyl-henicosyl] decanoate

> <PUBCHEM_IUPAC_CAS_NAME>
decanoic acid [(2S,3R)-3-(1-oxodecoxy)docosan-2-yl] ester

> <PUBCHEM_IUPAC_NAME>
[(2S,3R)-3-decanoyloxydocosan-2-yl] decanoate

> <PUBCHEM_IUPAC_SYSTEMATIC_NAME>
[(2S,3R)-3-decanoyloxydocosan-2-yl] decanoate

> <PUBCHEM_IUPAC_TRADITIONAL_NAME>
capric acid [(1S,2R)-2-capryloxy-1-methyl-heneicosyl] ester

> <PUBCHEM_IUPAC_INCHI>
InChI=1S/C42H82O4/c1-5-8-11-14-17-18-19-20-21-22-23-24-25-26-29-30-33-36-40(46-42(44)38-35-32-28-16-13-10-7-3)39(4)45-41(43)37-34-31-27-15-12-9-6-2/h39-40H,5-38H2,1-4H3/t39-,40+/m0/s1

> <PUBCHEM_IUPAC_INCHIKEY>
HUAWYSBBXLTGLE-IOLBBIBUSA-N

> <PUBCHEM_XLOGP3_AA>
18.6

> <PUBCHEM_EXACT_MASS>
650.621311

> <PUBCHEM_MOLECULAR_FORMULA>
C42H82O4

> <PUBCHEM_MOLECULAR_WEIGHT>
651.09808

> <PUBCHEM_OPENEYE_CAN_SMILES>
CCCCCCCCCCCCCCCCCCCC(C(C)OC(=O)CCCCCCCCC)OC(=O)CCCCCCCCC

> <PUBCHEM_OPENEYE_ISO_SMILES>
CCCCCCCCCCCCCCCCCCC[C@H]([C@H](C)OC(=O)CCCCCCCCC)OC(=O)CCCCCCCCC

> <PUBCHEM_CACTVS_TPSA>
52.6

> <PUBCHEM_MONOISOTOPIC_WEIGHT>
650.621311

> <PUBCHEM_TOTAL_CHARGE>
0

> <PUBCHEM_HEAVY_ATOM_COUNT>
46

> <PUBCHEM_ATOM_DEF_STEREO_COUNT>
2

> <PUBCHEM_ATOM_UDEF_STEREO_COUNT>
0

> <PUBCHEM_BOND_DEF_STEREO_COUNT>
0

> <PUBCHEM_BOND_UDEF_STEREO_COUNT>
0

> <PUBCHEM_ISOTOPIC_ATOM_COUNT>
0

> <PUBCHEM_COMPONENT_COUNT>
1

> <PUBCHEM_CACTVS_TAUTO_COUNT>
1

> <PUBCHEM_COORDINATE_TYPE>
1
5
255

> <PUBCHEM_BONDANNOTATIONS>
12  1  5
17  2  6

$$$$

