32326
  -OEChem-07051212532D

 35 36  0     1  0  0  0  0  0999 V2000
    6.0111    4.8753    0.0000 O   0  0  0  0  0  0  0  0  0  0  0  0
    8.3571    3.7834    0.0000 O   0  0  0  0  0  0  0  0  0  0  0  0
    8.3608    5.9590    0.0000 O   0  0  0  0  0  0  0  0  0  0  0  0
    6.9633    7.3769    0.0000 O   0  0  0  0  0  0  0  0  0  0  0  0
    0.5369    3.7337    0.0000 O   0  0  0  0  0  0  0  0  0  0  0  0
    6.2868    3.1147    0.0000 N   0  0  0  0  0  0  0  0  0  0  0  0
    6.2868    1.5053    0.0000 N   0  0  0  0  0  0  0  0  0  0  0  0
    4.4746    3.3100    0.0000 N   0  0  0  0  0  0  0  0  0  0  0  0
    3.6086    1.8100    0.0000 N   0  0  0  0  0  0  0  0  0  0  0  0
    4.4746    0.3100    0.0000 N   0  0  0  0  0  0  0  0  0  0  0  0
    7.5491    4.3726    0.0000 C   0  0  2  0  0  0  0  0  0  0  0  0
    6.5975    4.0652    0.0000 C   0  0  1  0  0  0  0  0  0  0  0  0
    7.5508    5.3726    0.0000 C   0  0  1  0  0  0  0  0  0  0  0  0
    6.6003    5.6833    0.0000 C   0  0  1  0  0  0  0  0  0  0  0  0
    6.2929    6.6349    0.0000 C   0  0  0  0  0  0  0  0  0  0  0  0
    5.3406    2.8100    0.0000 C   0  0  0  0  0  0  0  0  0  0  0  0
    6.8704    2.3100    0.0000 C   0  0  0  0  0  0  0  0  0  0  0  0
    5.3406    1.8100    0.0000 C   0  0  0  0  0  0  0  0  0  0  0  0
    4.4746    1.3100    0.0000 C   0  0  0  0  0  0  0  0  0  0  0  0
    3.6086    2.8100    0.0000 C   0  0  0  0  0  0  0  0  0  0  0  0
    8.1020    4.6531    0.0000 H   0  0  0  0  0  0  0  0  0  0  0  0
    7.0351    3.6261    0.0000 H   0  0  0  0  0  0  0  0  0  0  0  0
    8.1027    5.0902    0.0000 H   0  0  0  0  0  0  0  0  0  0  0  0
    5.9881    5.7813    0.0000 H   0  0  0  0  0  0  0  0  0  0  0  0
    5.9120    7.1241    0.0000 H   0  0  0  0  0  0  0  0  0  0  0  0
    5.7450    6.3448    0.0000 H   0  0  0  0  0  0  0  0  0  0  0  0
    8.9239    4.0346    0.0000 H   0  0  0  0  0  0  0  0  0  0  0  0
    8.9268    5.7058    0.0000 H   0  0  0  0  0  0  0  0  0  0  0  0
    7.4904    2.3100    0.0000 H   0  0  0  0  0  0  0  0  0  0  0  0
    6.7728    7.9668    0.0000 H   0  0  0  0  0  0  0  0  0  0  0  0
    3.0716    3.1200    0.0000 H   0  0  0  0  0  0  0  0  0  0  0  0
    3.9376    0.0000    0.0000 H   0  0  0  0  0  0  0  0  0  0  0  0
    5.0115    0.0000    0.0000 H   0  0  0  0  0  0  0  0  0  0  0  0
    1.0739    4.0437    0.0000 H   0  0  0  0  0  0  0  0  0  0  0  0
    0.0000    4.0437    0.0000 H   0  0  0  0  0  0  0  0  0  0  0  0
  1 12  1  0  0  0  0
  1 14  1  0  0  0  0
 11  2  1  6  0  0  0
  2 27  1  0  0  0  0
 13  3  1  1  0  0  0
  3 28  1  0  0  0  0
  4 15  1  0  0  0  0
  4 30  1  0  0  0  0
  5 34  1  0  0  0  0
  5 35  1  0  0  0  0
 12  6  1  6  0  0  0
  6 16  1  0  0  0  0
  6 17  1  0  0  0  0
  7 17  2  0  0  0  0
  7 18  1  0  0  0  0
  8 16  2  0  0  0  0
  8 20  1  0  0  0  0
  9 19  1  0  0  0  0
  9 20  2  0  0  0  0
 10 19  1  0  0  0  0
 10 32  1  0  0  0  0
 10 33  1  0  0  0  0
 11 12  1  0  0  0  0
 11 13  1  0  0  0  0
 11 21  1  0  0  0  0
 12 22  1  0  0  0  0
 13 14  1  0  0  0  0
 13 23  1  0  0  0  0
 14 15  1  6  0  0  0
 14 24  1  0  0  0  0
 15 25  1  0  0  0  0
 15 26  1  0  0  0  0
 16 18  1  0  0  0  0
 17 29  1  0  0  0  0
 18 19  2  0  0  0  0
 20 31  1  0  0  0  0
M  END
> <PUBCHEM_COMPOUND_CID>
32326

> <PUBCHEM_COMPOUND_CANONICALIZED>
1

> <PUBCHEM_CACTVS_COMPLEXITY>
335

> <PUBCHEM_CACTVS_HBOND_ACCEPTOR>
9

> <PUBCHEM_CACTVS_HBOND_DONOR>
5

> <PUBCHEM_CACTVS_ROTATABLE_BOND>
2

> <PUBCHEM_CACTVS_SUBSKEYS>
AAADccBzuAAAAAAAAAAAAAAAAAAAAWJAAAAsAAAAAAAAAFgB+AAAHgAQCAAACBzhlwYF8L9MFgCgAQZhZACAgC0REKABUCAoVBCDWAJAyEAeRAgPAALTACDwMAIAAAAAAAAAAAAAAAAAAAAAAAAAAAAAAA==

> <PUBCHEM_IUPAC_OPENEYE_NAME>
(2R,3S,4S,5R)-2-(6-aminopurin-9-yl)-5-(hydroxymethyl)tetrahydrofuran-3,4-diol hydrate

> <PUBCHEM_IUPAC_CAS_NAME>
(2R,3S,4S,5R)-2-(6-aminopurin-9-yl)-5-(hydroxymethyl)oxolane-3,4-diol hydrate

> <PUBCHEM_IUPAC_NAME>
(2R,3S,4S,5R)-2-(6-aminopurin-9-yl)-5-(hydroxymethyl)oxolane-3,4-diol hydrate

> <PUBCHEM_IUPAC_SYSTEMATIC_NAME>
(2R,3S,4S,5R)-2-(6-aminopurin-9-yl)-5-(hydroxymethyl)oxolane-3,4-diol hydrate

> <PUBCHEM_IUPAC_TRADITIONAL_NAME>
(2R,3S,4S,5R)-2-adenin-9-yl-5-methylol-tetrahydrofuran-3,4-diol hydrate

> <PUBCHEM_IUPAC_INCHI>
InChI=1S/C10H13N5O4.H2O/c11-8-5-9(13-2-12-8)15(3-14-5)10-7(18)6(17)4(1-16)19-10;/h2-4,6-7,10,16-18H,1H2,(H2,11,12,13);1H2/t4-,6-,7+,10-;/m1./s1

> <PUBCHEM_IUPAC_INCHIKEY>
ZTHWFVSEMLMLKT-CAMOTBBTSA-N

> <PUBCHEM_EXACT_MASS>
285.107319

> <PUBCHEM_MOLECULAR_FORMULA>
C10H15N5O5

> <PUBCHEM_MOLECULAR_WEIGHT>
285.2566

> <PUBCHEM_OPENEYE_CAN_SMILES>
C1=NC2=C(C(=N1)N)N=CN2C3C(C(C(O3)CO)O)O.O

> <PUBCHEM_OPENEYE_ISO_SMILES>
C1=NC2=C(C(=N1)N)N=CN2[C@H]3[C@H]([C@@H]([C@H](O3)CO)O)O.O

> <PUBCHEM_CACTVS_TPSA>
141

> <PUBCHEM_MONOISOTOPIC_WEIGHT>
285.107319

> <PUBCHEM_TOTAL_CHARGE>
0

> <PUBCHEM_HEAVY_ATOM_COUNT>
20

> <PUBCHEM_ATOM_DEF_STEREO_COUNT>
4

> <PUBCHEM_ATOM_UDEF_STEREO_COUNT>
0

> <PUBCHEM_BOND_DEF_STEREO_COUNT>
0

> <PUBCHEM_BOND_UDEF_STEREO_COUNT>
0

> <PUBCHEM_ISOTOPIC_ATOM_COUNT>
0

> <PUBCHEM_COMPONENT_COUNT>
2

> <PUBCHEM_CACTVS_TAUTO_COUNT>
3

> <PUBCHEM_COORDINATE_TYPE>
1
5
255

> <PUBCHEM_BONDANNOTATIONS>
14  15  6
16  18  8
18  19  8
11  2  6
13  3  5
12  6  6
6  16  8
6  17  8
7  17  8
7  18  8
8  16  8
8  20  8
9  19  8
9  20  8

$$$$

