442365
  -OEChem-07051212573D

 35 36  0     1  0  0  0  0  0999 V2000
   -4.0511   -1.3481   -0.2781 O   0  0  0  0  0  0  0  0  0  0  0  0
    0.5965   -1.4356   -0.6604 O   0  0  0  0  0  0  0  0  0  0  0  0
    0.7930    2.1303    0.1212 C   0  0  1  0  0  0  0  0  0  0  0  0
   -0.3917    2.9767    0.6120 C   0  0  0  0  0  0  0  0  0  0  0  0
   -1.6552    2.2141    0.2030 C   0  0  0  0  0  0  0  0  0  0  0  0
    0.1795    0.7630    0.0513 C   0  0  0  0  0  0  0  0  0  0  0  0
   -1.1586    0.8017    0.0992 C   0  0  0  0  0  0  0  0  0  0  0  0
    1.3128    2.5992   -1.2343 C   0  0  0  0  0  0  0  0  0  0  0  0
   -2.1221   -0.2515    0.0861 C   0  0  0  0  0  0  0  0  0  0  0  0
    0.9980   -0.4389   -0.0579 C   0  0  0  0  0  0  0  0  0  0  0  0
   -1.9857   -1.5717    0.5797 C   0  0  0  0  0  0  0  0  0  0  0  0
   -3.3970   -0.1665   -0.4256 C   0  0  0  0  0  0  0  0  0  0  0  0
    2.3463   -0.3461    0.5822 C   0  0  0  0  0  0  0  0  0  0  0  0
   -3.1854   -2.1980    0.3344 C   0  0  0  0  0  0  0  0  0  0  0  0
    3.4677   -0.9758    0.1855 C   0  0  0  0  0  0  0  0  0  0  0  0
    4.8228   -0.8821    0.8292 C   0  0  0  0  0  0  0  0  0  0  0  0
    3.4301   -1.8709   -1.0275 C   0  0  0  0  0  0  0  0  0  0  0  0
    1.5950    2.2121    0.8607 H   0  0  0  0  0  0  0  0  0  0  0  0
   -0.3867    3.9993    0.2197 H   0  0  0  0  0  0  0  0  0  0  0  0
   -0.3566    3.0520    1.7076 H   0  0  0  0  0  0  0  0  0  0  0  0
   -2.0284    2.5669   -0.7652 H   0  0  0  0  0  0  0  0  0  0  0  0
   -2.4375    2.3429    0.9582 H   0  0  0  0  0  0  0  0  0  0  0  0
    2.1409    1.9698   -1.5774 H   0  0  0  0  0  0  0  0  0  0  0  0
    0.5316    2.5729   -2.0024 H   0  0  0  0  0  0  0  0  0  0  0  0
    1.6816    3.6284   -1.1683 H   0  0  0  0  0  0  0  0  0  0  0  0
   -1.1435   -2.0233    1.0840 H   0  0  0  0  0  0  0  0  0  0  0  0
   -3.9654    0.6178   -0.9054 H   0  0  0  0  0  0  0  0  0  0  0  0
    2.4134    0.2985    1.4550 H   0  0  0  0  0  0  0  0  0  0  0  0
   -3.5651   -3.1898    0.5316 H   0  0  0  0  0  0  0  0  0  0  0  0
    5.1671   -1.8735    1.1405 H   0  0  0  0  0  0  0  0  0  0  0  0
    4.7978   -0.2421    1.7173 H   0  0  0  0  0  0  0  0  0  0  0  0
    5.5516   -0.4577    0.1314 H   0  0  0  0  0  0  0  0  0  0  0  0
    2.7597   -1.5023   -1.8094 H   0  0  0  0  0  0  0  0  0  0  0  0
    4.4208   -1.9262   -1.4938 H   0  0  0  0  0  0  0  0  0  0  0  0
    3.1396   -2.8872   -0.7430 H   0  0  0  0  0  0  0  0  0  0  0  0
  1 12  1  0  0  0  0
  1 14  1  0  0  0  0
  2 10  2  0  0  0  0
  3  4  1  0  0  0  0
  3  6  1  0  0  0  0
  3  8  1  0  0  0  0
  3 18  1  0  0  0  0
  4  5  1  0  0  0  0
  4 19  1  0  0  0  0
  4 20  1  0  0  0  0
  5  7  1  0  0  0  0
  5 21  1  0  0  0  0
  5 22  1  0  0  0  0
  6  7  2  0  0  0  0
  6 10  1  0  0  0  0
  7  9  1  0  0  0  0
  8 23  1  0  0  0  0
  8 24  1  0  0  0  0
  8 25  1  0  0  0  0
  9 11  1  0  0  0  0
  9 12  2  0  0  0  0
 10 13  1  0  0  0  0
 11 14  2  0  0  0  0
 11 26  1  0  0  0  0
 12 27  1  0  0  0  0
 13 15  2  0  0  0  0
 13 28  1  0  0  0  0
 14 29  1  0  0  0  0
 15 16  1  0  0  0  0
 15 17  1  0  0  0  0
 16 30  1  0  0  0  0
 16 31  1  0  0  0  0
 16 32  1  0  0  0  0
 17 33  1  0  0  0  0
 17 34  1  0  0  0  0
 17 35  1  0  0  0  0
M  END
> <PUBCHEM_COMPOUND_CID>
442365

> <PUBCHEM_CONFORMER_RMSD>
0.6

> <PUBCHEM_CONFORMER_DIVERSEORDER>
1
33
3
36
20
7
34
37
18
11
30
16
24
27
8
25
4
5
26
6
17
19
28
31
10
23
29
21
12
22
35
15
9
13
32
14
2

> <PUBCHEM_MMFF94_PARTIAL_CHARGES>
19
1 -0.28
10 0.54
11 -0.15
12 -0.01
13 -0.14
14 -0.01
15 -0.28
16 0.14
17 0.14
2 -0.57
26 0.15
27 0.15
28 0.15
29 0.15
3 0.14
5 0.14
6 -0.12
7 -0.09
9 -0.05

> <PUBCHEM_EFFECTIVE_ROTOR_COUNT>
3.6

> <PUBCHEM_PHARMACOPHORE_FEATURES>
5
1 1 acceptor
1 2 acceptor
3 15 16 17 hydrophobe
5 1 9 11 12 14 rings
5 3 4 5 6 7 rings

> <PUBCHEM_HEAVY_ATOM_COUNT>
17

> <PUBCHEM_ATOM_DEF_STEREO_COUNT>
1

> <PUBCHEM_ATOM_UDEF_STEREO_COUNT>
0

> <PUBCHEM_BOND_DEF_STEREO_COUNT>
0

> <PUBCHEM_BOND_UDEF_STEREO_COUNT>
0

> <PUBCHEM_ISOTOPIC_ATOM_COUNT>
0

> <PUBCHEM_COMPONENT_COUNT>
1

> <PUBCHEM_CACTVS_TAUTO_COUNT>
8

> <PUBCHEM_CONFORMER_ID>
0006BFFD00000001

> <PUBCHEM_MMFF94_ENERGY>
37.6298

> <PUBCHEM_FEATURE_SELFOVERLAP>
25.371

> <PUBCHEM_SHAPE_FINGERPRINT>
10319926 262 18047777042241726178
10493431 412 17974845378665707129
10906281 52 18335126640142349117
10967382 1 18121780530250053249
10989021 7 18410572855638537736
11132069 177 18265897054519921056
11265709 11 18412261735500145977
11578080 2 17345497971190058860
116883 192 18409165545459179293
12363563 72 18410285895967815859
12553582 1 18338779178724874499
13140716 1 18410004412817597161
13583140 156 13840556223343888238
14115302 16 18060131042504452351
14181834 199 18059005069593721948
14790565 3 17833544978832711249
15099037 37 18336273443733960770
16945 1 18265888236619804833
17357779 13 18263380194603770989
19591789 44 17186149873875729788
19868273 325 18340766060924246420
200 152 16415482700992103858
20510252 161 18189056554619937066
20645477 70 18196380213037609959
20671657 53 18131635573271104996
20871998 184 18114186396784399052
21029758 11 18408893935985222833
21296965 67 18409451379595346427
21339142 51 18341341083819753405
21452121 199 18339648828098065384
21501502 16 18339071589257968001
22112679 90 18189591943663140465
221490 88 18055348042132464635
22213442 358 18410575076231451882
2297311 6 18335412500644724350
2334 1 18266454296361410209
23366157 5 17916303836133372652
23402539 116 18338528537291891206
23419403 2 18125754255800062892
23557571 272 18189610708886485422
23559900 14 18119534482125928326
2748010 2 18336278880719744524
3071541 250 18338789018573824093
458136 41 17478309960583413137
5493415 88 18340489967420199555
5902787 121 18271813375874887834
7364860 26 18192994803185809728
81228 2 18194951061973014160
8809292 202 18342458140657997875
8863177 126 17700398201587099451
9709674 26 17972318683849390182

> <PUBCHEM_SHAPE_MULTIPOLES>
338.11
6.83
3.16
0.91
3.49
2
-0.12
-5.71
0.4
-0.74
-0.16
0.49
0.08
-0.03

> <PUBCHEM_SHAPE_SELFOVERLAP>
716.239

> <PUBCHEM_SHAPE_VOLUME>
193.3

> <PUBCHEM_COORDINATE_TYPE>
2
5
10

$$$$

