39185
  -OEChem-07051213052D

 30 33  0     0  0  0  0  0  0999 V2000
    2.8549   -3.4852    0.0000 O   0  5  0  0  0  0  0  0  0  0  0  0
    2.8549    3.4852    0.0000 O   0  5  0  0  0  0  0  0  0  0  0  0
    2.0000   -1.9789    0.0000 O   0  0  0  0  0  0  0  0  0  0  0  0
    2.0000    1.9789    0.0000 O   0  0  0  0  0  0  0  0  0  0  0  0
    2.8623    2.4853    0.0000 N   0  3  0  0  0  0  0  0  0  0  0  0
    2.8623   -2.4853    0.0000 N   0  3  0  0  0  0  0  0  0  0  0  0
    4.5993    0.5000    0.0000 C   0  0  0  0  0  0  0  0  0  0  0  0
    4.5993   -0.5000    0.0000 C   0  0  0  0  0  0  0  0  0  0  0  0
    3.7332    1.0000    0.0000 C   0  0  0  0  0  0  0  0  0  0  0  0
    3.7332   -1.0000    0.0000 C   0  0  0  0  0  0  0  0  0  0  0  0
    5.4932    1.0347    0.0000 C   0  0  0  0  0  0  0  0  0  0  0  0
    5.4932   -1.0347    0.0000 C   0  0  0  0  0  0  0  0  0  0  0  0
    2.8672    0.5000    0.0000 C   0  0  0  0  0  0  0  0  0  0  0  0
    2.8672   -0.5000    0.0000 C   0  0  0  0  0  0  0  0  0  0  0  0
    3.7320    1.9917    0.0000 C   0  0  0  0  0  0  0  0  0  0  0  0
    3.7320   -1.9917    0.0000 C   0  0  0  0  0  0  0  0  0  0  0  0
    6.3993   -0.5208    0.0000 C   0  0  0  0  0  0  0  0  0  0  0  0
    6.3993    0.5208    0.0000 C   0  0  0  0  0  0  0  0  0  0  0  0
    5.4554   -2.0256    0.0000 C   0  0  0  0  0  0  0  0  0  0  0  0
    5.4554    2.0256    0.0000 C   0  0  0  0  0  0  0  0  0  0  0  0
    4.5841    2.4991    0.0000 C   0  0  0  0  0  0  0  0  0  0  0  0
    4.5841   -2.4991    0.0000 C   0  0  0  0  0  0  0  0  0  0  0  0
    2.3303    0.8100    0.0000 H   0  0  0  0  0  0  0  0  0  0  0  0
    2.3303   -0.8100    0.0000 H   0  0  0  0  0  0  0  0  0  0  0  0
    6.9350    0.8329    0.0000 H   0  0  0  0  0  0  0  0  0  0  0  0
    6.9350   -0.8329    0.0000 H   0  0  0  0  0  0  0  0  0  0  0  0
    5.9822    2.3527    0.0000 H   0  0  0  0  0  0  0  0  0  0  0  0
    5.9822   -2.3527    0.0000 H   0  0  0  0  0  0  0  0  0  0  0  0
    4.5718    3.1190    0.0000 H   0  0  0  0  0  0  0  0  0  0  0  0
    4.5718   -3.1190    0.0000 H   0  0  0  0  0  0  0  0  0  0  0  0
  1  6  1  0  0  0  0
  2  5  1  0  0  0  0
  3  6  2  0  0  0  0
  4  5  2  0  0  0  0
  5 15  1  0  0  0  0
  6 16  1  0  0  0  0
  7  8  1  0  0  0  0
  7  9  1  0  0  0  0
  7 11  2  0  0  0  0
  8 10  1  0  0  0  0
  8 12  2  0  0  0  0
  9 13  1  0  0  0  0
  9 15  2  0  0  0  0
 10 14  1  0  0  0  0
 10 16  2  0  0  0  0
 11 18  1  0  0  0  0
 11 20  1  0  0  0  0
 12 17  1  0  0  0  0
 12 19  1  0  0  0  0
 13 14  2  0  0  0  0
 13 23  1  0  0  0  0
 14 24  1  0  0  0  0
 15 21  1  0  0  0  0
 16 22  1  0  0  0  0
 17 18  2  0  0  0  0
 17 26  1  0  0  0  0
 18 25  1  0  0  0  0
 19 22  2  0  0  0  0
 19 28  1  0  0  0  0
 20 21  2  0  0  0  0
 20 27  1  0  0  0  0
 21 29  1  0  0  0  0
 22 30  1  0  0  0  0
M  CHG  4   1  -1   2  -1   5   1   6   1
M  END
> <PUBCHEM_COMPOUND_CID>
39185

> <PUBCHEM_COMPOUND_CANONICALIZED>
1

> <PUBCHEM_CACTVS_COMPLEXITY>
442

> <PUBCHEM_CACTVS_HBOND_ACCEPTOR>
4

> <PUBCHEM_CACTVS_HBOND_DONOR>
0

> <PUBCHEM_CACTVS_ROTATABLE_BOND>
0

> <PUBCHEM_CACTVS_SUBSKEYS>
AAADccB7OAAAAAAAAAAAAAAAAAAAAAAAAAAwYMGAAAAAAADBVAAAHAAEAAAADAiBGAAwwMAQQACBAiRCQwCCAAAgAgAoiAAAZIoIICKAkZGAIABggAAIyAcQgMAOyAACQAASAACQAASAACQAAAAAAAAAAA==

> <PUBCHEM_IUPAC_OPENEYE_NAME>
1,8-dinitropyrene

> <PUBCHEM_IUPAC_CAS_NAME>
1,8-dinitropyrene

> <PUBCHEM_IUPAC_NAME>
1,8-dinitropyrene

> <PUBCHEM_IUPAC_SYSTEMATIC_NAME>
1,8-dinitropyrene

> <PUBCHEM_IUPAC_TRADITIONAL_NAME>
1,8-dinitropyrene

> <PUBCHEM_IUPAC_INCHI>
InChI=1S/C16H8N2O4/c19-17(20)13-7-3-9-1-2-10-4-8-14(18(21)22)12-6-5-11(13)15(9)16(10)12/h1-8H

> <PUBCHEM_IUPAC_INCHIKEY>
BLYXNIHKOMELAP-UHFFFAOYSA-N

> <PUBCHEM_XLOGP3_AA>
4.7

> <PUBCHEM_EXACT_MASS>
292.048407

> <PUBCHEM_MOLECULAR_FORMULA>
C16H8N2O4

> <PUBCHEM_MOLECULAR_WEIGHT>
292.24572

> <PUBCHEM_OPENEYE_CAN_SMILES>
C1=CC2=C3C(=C(C=C2)[N+](=O)[O-])C=CC4=C(C=CC1=C43)[N+](=O)[O-]

> <PUBCHEM_OPENEYE_ISO_SMILES>
C1=CC2=C3C(=C(C=C2)[N+](=O)[O-])C=CC4=C(C=CC1=C43)[N+](=O)[O-]

> <PUBCHEM_CACTVS_TPSA>
91.6

> <PUBCHEM_MONOISOTOPIC_WEIGHT>
292.048407

> <PUBCHEM_TOTAL_CHARGE>
0

> <PUBCHEM_HEAVY_ATOM_COUNT>
22

> <PUBCHEM_ATOM_DEF_STEREO_COUNT>
0

> <PUBCHEM_ATOM_UDEF_STEREO_COUNT>
0

> <PUBCHEM_BOND_DEF_STEREO_COUNT>
0

> <PUBCHEM_BOND_UDEF_STEREO_COUNT>
0

> <PUBCHEM_ISOTOPIC_ATOM_COUNT>
0

> <PUBCHEM_COMPONENT_COUNT>
1

> <PUBCHEM_CACTVS_TAUTO_COUNT>
1

> <PUBCHEM_COORDINATE_TYPE>
1
5
255

> <PUBCHEM_BONDANNOTATIONS>
10  14  8
10  16  8
11  18  8
11  20  8
12  17  8
12  19  8
13  14  8
15  21  8
16  22  8
17  18  8
19  22  8
20  21  8
7  11  8
7  8  8
7  9  8
8  10  8
8  12  8
9  13  8
9  15  8

$$$$

