854171
  -OEChem-06241222473D

 23 25  0     0  0  0  0  0  0999 V2000
    2.8682    1.3690    0.0199 S   0  0  0  0  0  0  0  0  0  0  0  0
   -0.0570    2.1256   -0.0704 S   0  0  0  0  0  0  0  0  0  0  0  0
    0.6703   -0.2811    0.0050 N   0  3  0  0  0  0  0  0  0  0  0  0
    1.4838   -1.5026    0.0582 C   0  0  0  0  0  0  0  0  0  0  0  0
    2.9176   -1.3296   -0.4262 C   0  0  0  0  0  0  0  0  0  0  0  0
   -0.7201   -0.3312    0.0144 C   0  0  0  0  0  0  0  0  0  0  0  0
    1.1783    0.9405   -0.0032 C   0  0  0  0  0  0  0  0  0  0  0  0
    3.6330   -0.2357    0.3441 C   0  0  0  0  0  0  0  0  0  0  0  0
   -1.2973    0.9341   -0.0345 C   0  0  0  0  0  0  0  0  0  0  0  0
   -1.5494   -1.4695    0.0702 C   0  0  0  0  0  0  0  0  0  0  0  0
   -2.6902    1.1093   -0.0445 C   0  0  0  0  0  0  0  0  0  0  0  0
   -2.9381   -1.3002    0.0628 C   0  0  0  0  0  0  0  0  0  0  0  0
   -3.4990   -0.0286    0.0042 C   0  0  0  0  0  0  0  0  0  0  0  0
    1.0145   -2.2710   -0.5664 H   0  0  0  0  0  0  0  0  0  0  0  0
    1.4743   -1.8585    1.0961 H   0  0  0  0  0  0  0  0  0  0  0  0
    3.4535   -2.2765   -0.2902 H   0  0  0  0  0  0  0  0  0  0  0  0
    2.9291   -1.1133   -1.5021 H   0  0  0  0  0  0  0  0  0  0  0  0
    3.6059   -0.4360    1.4205 H   0  0  0  0  0  0  0  0  0  0  0  0
    4.6837   -0.1856    0.0419 H   0  0  0  0  0  0  0  0  0  0  0  0
   -1.1398   -2.4737    0.1215 H   0  0  0  0  0  0  0  0  0  0  0  0
   -3.1338    2.0994   -0.0848 H   0  0  0  0  0  0  0  0  0  0  0  0
   -3.5844   -2.1730    0.1042 H   0  0  0  0  0  0  0  0  0  0  0  0
   -4.5802    0.0828   -0.0008 H   0  0  0  0  0  0  0  0  0  0  0  0
  1  7  1  0  0  0  0
  1  8  1  0  0  0  0
  2  7  1  0  0  0  0
  2  9  1  0  0  0  0
  3  4  1  0  0  0  0
  3  6  1  0  0  0  0
  3  7  2  0  0  0  0
  4  5  1  0  0  0  0
  4 14  1  0  0  0  0
  4 15  1  0  0  0  0
  5  8  1  0  0  0  0
  5 16  1  0  0  0  0
  5 17  1  0  0  0  0
  6  9  1  0  0  0  0
  6 10  2  0  0  0  0
  8 18  1  0  0  0  0
  8 19  1  0  0  0  0
  9 11  2  0  0  0  0
 10 12  1  0  0  0  0
 10 20  1  0  0  0  0
 11 13  1  0  0  0  0
 11 21  1  0  0  0  0
 12 13  2  0  0  0  0
 12 22  1  0  0  0  0
 13 23  1  0  0  0  0
M  CHG  1   3   1
M  END
> <PUBCHEM_COMPOUND_CID>
854171

> <PUBCHEM_CONFORMER_RMSD>
0.4

> <PUBCHEM_CONFORMER_DIVERSEORDER>
1

> <PUBCHEM_MMFF94_PARTIAL_CHARGES>
16
1 -0.29
10 -0.15
11 -0.15
12 -0.15
13 -0.15
2 -0.08
20 0.15
21 0.15
22 0.15
23 0.15
3 -0.18
4 0.51
6 0.33
7 0.43
8 0.23
9 0.04

> <PUBCHEM_EFFECTIVE_ROTOR_COUNT>
0.8

> <PUBCHEM_PHARMACOPHORE_FEATURES>
3
5 2 3 6 7 9 rings
6 1 3 4 5 7 8 rings
6 6 9 10 11 12 13 rings

> <PUBCHEM_HEAVY_ATOM_COUNT>
13

> <PUBCHEM_ATOM_DEF_STEREO_COUNT>
0

> <PUBCHEM_ATOM_UDEF_STEREO_COUNT>
0

> <PUBCHEM_BOND_DEF_STEREO_COUNT>
0

> <PUBCHEM_BOND_UDEF_STEREO_COUNT>
0

> <PUBCHEM_ISOTOPIC_ATOM_COUNT>
0

> <PUBCHEM_COMPONENT_COUNT>
1

> <PUBCHEM_CACTVS_TAUTO_COUNT>
1

> <PUBCHEM_CONFORMER_ID>
000D089B00000001

> <PUBCHEM_MMFF94_ENERGY>
22.3263

> <PUBCHEM_FEATURE_SELFOVERLAP>
15.334

> <PUBCHEM_SHAPE_FINGERPRINT>
10608611 8 18410579487047177572
10967382 1 18338797801718491438
11132069 177 18410300202693393352
11471102 20 18410579474183076061
11769659 78 18410297994858656927
11806522 49 18266745675411633071
12032990 46 18411131437567988507
12382932 28 18408886243482466056
12932764 1 17632582694384044840
13296908 3 18410853265415925162
13380535 76 18411140216470799914
14144814 61 18410573985193649323
14251717 144 18337115574671638726
14325111 11 18410856542507627016
15196674 1 18410856551055136224
15219456 202 18409450275741336944
15442244 35 18265613380282363650
15536298 74 18334011679590854428
16945 1 18267585895310046440
17844478 74 18060412530334370581
18186145 218 17918276462866654286
193761 8 4936088059685616393
200 152 18040727939539740783
20201158 50 18411138047549108762
20510252 161 18188772880451562065
20645477 70 18408045121656822815
20871998 184 18187646933442244047
21267235 1 18410846664040797610
21501502 16 18410854339147102237
21501925 9 18411146813756526202
22721475 48 18410570703938965744
2334 1 18411136892165755494
23402539 116 18336277815520038359
23463225 33 18413109442075526684
23552423 10 18272086080406696702
23559900 14 18264492961239412086
2748010 2 18410856551065679389
3312278 4 18410853274021482768
5104073 3 18410855451548797193
528886 8 18410017623857242618
53812653 166 18261676961051286208
69090 78 18334863818292916599
7364860 26 18263925427981061440
8809292 202 18272083890047618786
9709674 26 18409726244633777950

> <PUBCHEM_SHAPE_MULTIPOLES>
270.25
5.81
2.04
0.65
0.48
0.31
0
-0.94
0.13
0.23
-0.06
0.09
0
0.14

> <PUBCHEM_SHAPE_SELFOVERLAP>
564.245

> <PUBCHEM_SHAPE_VOLUME>
154.7

> <PUBCHEM_COORDINATE_TYPE>
2
5
10

$$$$

