17396385
  -OEChem-06241222562D

 44 46  0     0  0  0  0  0  0999 V2000
    5.4071    5.0194    0.0000 O   0  0  0  0  0  0  0  0  0  0  0  0
    6.2731    0.5194    0.0000 O   0  0  0  0  0  0  0  0  0  0  0  0
    2.8090   -0.4806    0.0000 O   0  0  0  0  0  0  0  0  0  0  0  0
    4.5411    3.5194    0.0000 N   0  0  0  0  0  0  0  0  0  0  0  0
    4.5411    2.5194    0.0000 N   0  0  0  0  0  0  0  0  0  0  0  0
    2.8090   -3.4806    0.0000 N   0  0  0  0  0  0  0  0  0  0  0  0
    4.5411    0.5194    0.0000 N   0  0  0  0  0  0  0  0  0  0  0  0
    4.5411   -0.4806    0.0000 N   0  0  0  0  0  0  0  0  0  0  0  0
    3.3090   -5.0194    0.0000 N   0  0  0  0  0  0  0  0  0  0  0  0
    6.2731    2.5194    0.0000 C   0  0  0  0  0  0  0  0  0  0  0  0
    6.2731    3.5194    0.0000 C   0  0  0  0  0  0  0  0  0  0  0  0
    5.4071    2.0194    0.0000 C   0  0  0  0  0  0  0  0  0  0  0  0
    5.4071    4.0194    0.0000 C   0  0  0  0  0  0  0  0  0  0  0  0
    2.8090   -2.4806    0.0000 C   0  0  0  0  0  0  0  0  0  0  0  0
    3.6750    4.0194    0.0000 C   0  0  0  0  0  0  0  0  0  0  0  0
    3.6750   -1.9806    0.0000 C   0  0  0  0  0  0  0  0  0  0  0  0
    7.1671    1.9848    0.0000 C   0  0  0  0  0  0  0  0  0  0  0  0
    7.1671    4.0541    0.0000 C   0  0  0  0  0  0  0  0  0  0  0  0
    5.4071    1.0194    0.0000 C   0  0  0  0  0  0  0  0  0  0  0  0
    3.6750   -0.9806    0.0000 C   0  0  0  0  0  0  0  0  0  0  0  0
    8.0731    2.4986    0.0000 C   0  0  0  0  0  0  0  0  0  0  0  0
    8.0731    3.5402    0.0000 C   0  0  0  0  0  0  0  0  0  0  0  0
    2.8090    3.5194    0.0000 C   0  0  0  0  0  0  0  0  0  0  0  0
    2.0000   -4.0684    0.0000 C   0  0  0  0  0  0  0  0  0  0  0  0
    3.6180   -4.0684    0.0000 C   0  0  0  0  0  0  0  0  0  0  0  0
    2.3090   -5.0194    0.0000 C   0  0  0  0  0  0  0  0  0  0  0  0
    2.5970   -1.8980    0.0000 H   0  0  0  0  0  0  0  0  0  0  0  0
    2.1984   -2.5882    0.0000 H   0  0  0  0  0  0  0  0  0  0  0  0
    4.0736    4.4944    0.0000 H   0  0  0  0  0  0  0  0  0  0  0  0
    3.2765    4.4944    0.0000 H   0  0  0  0  0  0  0  0  0  0  0  0
    3.8871   -2.5632    0.0000 H   0  0  0  0  0  0  0  0  0  0  0  0
    4.2856   -1.8729    0.0000 H   0  0  0  0  0  0  0  0  0  0  0  0
    7.1599    1.3648    0.0000 H   0  0  0  0  0  0  0  0  0  0  0  0
    7.1599    4.6740    0.0000 H   0  0  0  0  0  0  0  0  0  0  0  0
    8.6089    2.1865    0.0000 H   0  0  0  0  0  0  0  0  0  0  0  0
    8.6089    3.8523    0.0000 H   0  0  0  0  0  0  0  0  0  0  0  0
    2.4990    4.0564    0.0000 H   0  0  0  0  0  0  0  0  0  0  0  0
    2.2721    3.2094    0.0000 H   0  0  0  0  0  0  0  0  0  0  0  0
    3.1190    2.9825    0.0000 H   0  0  0  0  0  0  0  0  0  0  0  0
    4.0041    0.8294    0.0000 H   0  0  0  0  0  0  0  0  0  0  0  0
    5.0780   -0.7906    0.0000 H   0  0  0  0  0  0  0  0  0  0  0  0
    1.4103   -3.8768    0.0000 H   0  0  0  0  0  0  0  0  0  0  0  0
    4.2077   -3.8768    0.0000 H   0  0  0  0  0  0  0  0  0  0  0  0
    1.9446   -5.5210    0.0000 H   0  0  0  0  0  0  0  0  0  0  0  0
  1 13  2  0  0  0  0
  2 19  2  0  0  0  0
  3 20  2  0  0  0  0
  4  5  1  0  0  0  0
  4 13  1  0  0  0  0
  4 15  1  0  0  0  0
  5 12  2  0  0  0  0
  6 14  1  0  0  0  0
  6 24  1  0  0  0  0
  6 25  1  0  0  0  0
  7  8  1  0  0  0  0
  7 19  1  0  0  0  0
  7 40  1  0  0  0  0
  8 20  1  0  0  0  0
  8 41  1  0  0  0  0
  9 25  2  0  0  0  0
  9 26  1  0  0  0  0
 10 11  1  0  0  0  0
 10 12  1  0  0  0  0
 10 17  2  0  0  0  0
 11 13  1  0  0  0  0
 11 18  2  0  0  0  0
 12 19  1  0  0  0  0
 14 16  1  0  0  0  0
 14 27  1  0  0  0  0
 14 28  1  0  0  0  0
 15 23  1  0  0  0  0
 15 29  1  0  0  0  0
 15 30  1  0  0  0  0
 16 20  1  0  0  0  0
 16 31  1  0  0  0  0
 16 32  1  0  0  0  0
 17 21  1  0  0  0  0
 17 33  1  0  0  0  0
 18 22  1  0  0  0  0
 18 34  1  0  0  0  0
 21 22  2  0  0  0  0
 21 35  1  0  0  0  0
 22 36  1  0  0  0  0
 23 37  1  0  0  0  0
 23 38  1  0  0  0  0
 23 39  1  0  0  0  0
 24 26  2  0  0  0  0
 24 42  1  0  0  0  0
 25 43  1  0  0  0  0
 26 44  1  0  0  0  0
M  END
> <PUBCHEM_COMPOUND_CID>
17396385

> <PUBCHEM_COMPOUND_CANONICALIZED>
1

> <PUBCHEM_CACTVS_COMPLEXITY>
593

> <PUBCHEM_CACTVS_HBOND_ACCEPTOR>
5

> <PUBCHEM_CACTVS_HBOND_DONOR>
2

> <PUBCHEM_CACTVS_ROTATABLE_BOND>
5

> <PUBCHEM_CACTVS_SUBSKEYS>
AAADceB7sAAAAAAAAAAAAAAAAAAAAWAAAAAwQAAAAAAAAACBwAAAHgAYAAAADAjBmgQ/kJduEACoAzF3dACSgC01EqIb6AE4NNiIaLqA3RGUIQhongKIiacYi4COgAAAAAAQAAAAAAAAACAAAAAAAAAAAA==

> <PUBCHEM_IUPAC_OPENEYE_NAME>
3-ethyl-N'-(3-imidazol-1-ylpropanoyl)-4-oxo-phthalazine-1-carbohydrazide

> <PUBCHEM_IUPAC_CAS_NAME>
3-ethyl-N'-[3-(1-imidazolyl)-1-oxopropyl]-4-oxo-1-phthalazinecarbohydrazide

> <PUBCHEM_IUPAC_NAME>
3-ethyl-N'-(3-imidazol-1-ylpropanoyl)-4-oxophthalazine-1-carbohydrazide

> <PUBCHEM_IUPAC_SYSTEMATIC_NAME>
3-ethyl-N'-(3-imidazol-1-ylpropanoyl)-4-oxidanylidene-phthalazine-1-carbohydrazide

> <PUBCHEM_IUPAC_TRADITIONAL_NAME>
3-ethyl-N'-(3-imidazol-1-ylpropanoyl)-4-keto-phthalazine-1-carbohydrazide

> <PUBCHEM_IUPAC_INCHI>
InChI=1S/C17H18N6O3/c1-2-23-17(26)13-6-4-3-5-12(13)15(21-23)16(25)20-19-14(24)7-9-22-10-8-18-11-22/h3-6,8,10-11H,2,7,9H2,1H3,(H,19,24)(H,20,25)

> <PUBCHEM_IUPAC_INCHIKEY>
CLBSXPBFIHPNFI-UHFFFAOYSA-N

> <PUBCHEM_XLOGP3_AA>
0.1

> <PUBCHEM_EXACT_MASS>
354.144038

> <PUBCHEM_MOLECULAR_FORMULA>
C17H18N6O3

> <PUBCHEM_MOLECULAR_WEIGHT>
354.36322

> <PUBCHEM_OPENEYE_CAN_SMILES>
CCN1C(=O)C2=CC=CC=C2C(=N1)C(=O)NNC(=O)CCN3C=CN=C3

> <PUBCHEM_OPENEYE_ISO_SMILES>
CCN1C(=O)C2=CC=CC=C2C(=N1)C(=O)NNC(=O)CCN3C=CN=C3

> <PUBCHEM_CACTVS_TPSA>
109

> <PUBCHEM_MONOISOTOPIC_WEIGHT>
354.144038

> <PUBCHEM_TOTAL_CHARGE>
0

> <PUBCHEM_HEAVY_ATOM_COUNT>
26

> <PUBCHEM_ATOM_DEF_STEREO_COUNT>
0

> <PUBCHEM_ATOM_UDEF_STEREO_COUNT>
0

> <PUBCHEM_BOND_DEF_STEREO_COUNT>
0

> <PUBCHEM_BOND_UDEF_STEREO_COUNT>
0

> <PUBCHEM_ISOTOPIC_ATOM_COUNT>
0

> <PUBCHEM_COMPONENT_COUNT>
1

> <PUBCHEM_CACTVS_TAUTO_COUNT>
13

> <PUBCHEM_COORDINATE_TYPE>
1
5
255

> <PUBCHEM_BONDANNOTATIONS>
10  11  8
10  12  8
10  17  8
11  13  8
11  18  8
17  21  8
18  22  8
21  22  8
24  26  8
4  13  8
4  5  8
5  12  8
6  24  8
6  25  8
9  25  8
9  26  8

$$$$

