5282277
  -OEChem-07051213043D

 53 53  0     1  0  0  0  0  0999 V2000
   -3.5606   -2.7214    0.9094 O   0  0  0  0  0  0  0  0  0  0  0  0
    4.3326   -2.7200   -0.5174 O   0  0  0  0  0  0  0  0  0  0  0  0
    3.0184   -2.6439    1.3318 O   0  0  0  0  0  0  0  0  0  0  0  0
   -4.2535   -1.5543    0.4486 C   0  0  2  0  0  0  0  0  0  0  0  0
   -2.9448   -1.9795   -0.1513 C   0  0  1  0  0  0  0  0  0  0  0  0
   -4.3172   -0.4488    1.4319 C   0  0  0  0  0  0  0  0  0  0  0  0
   -1.6740   -1.2925    0.2496 C   0  0  0  0  0  0  0  0  0  0  0  0
   -4.3621    0.9228    0.7659 C   0  0  0  0  0  0  0  0  0  0  0  0
   -0.4240   -2.0166   -0.1613 C   0  0  0  0  0  0  0  0  0  0  0  0
    0.1899   -1.8373   -1.3405 C   0  0  0  0  0  0  0  0  0  0  0  0
   -0.2966   -0.8895   -2.3978 C   0  0  0  0  0  0  0  0  0  0  0  0
    0.7335    0.1559   -2.7184 C   0  0  0  0  0  0  0  0  0  0  0  0
    0.5227    1.4741   -2.5722 C   0  0  0  0  0  0  0  0  0  0  0  0
    2.6917    0.1239    1.2531 C   0  0  0  0  0  0  0  0  0  0  0  0
    2.6427    1.6511    1.1196 C   0  0  0  0  0  0  0  0  0  0  0  0
   -0.7241    2.1606   -2.0814 C   0  0  0  0  0  0  0  0  0  0  0  0
    3.5270   -0.5801    0.1842 C   0  0  0  0  0  0  0  0  0  0  0  0
    1.8550    2.3103    2.2141 C   0  0  0  0  0  0  0  0  0  0  0  0
   -0.2732    2.3467    0.8890 C   0  0  0  0  0  0  0  0  0  0  0  0
   -0.5102    3.4536   -1.3491 C   0  0  0  0  0  0  0  0  0  0  0  0
    0.5540    2.6201    2.1102 C   0  0  0  0  0  0  0  0  0  0  0  0
   -0.3092    3.5367   -0.0251 C   0  0  0  0  0  0  0  0  0  0  0  0
    3.5823   -2.0719    0.4072 C   0  0  0  0  0  0  0  0  0  0  0  0
   -5.1606   -1.6910   -0.1236 H   0  0  0  0  0  0  0  0  0  0  0  0
   -2.9534   -2.3848   -1.1534 H   0  0  0  0  0  0  0  0  0  0  0  0
   -5.2305   -0.5724    2.0268 H   0  0  0  0  0  0  0  0  0  0  0  0
   -3.4921   -0.4752    2.1512 H   0  0  0  0  0  0  0  0  0  0  0  0
   -1.6130   -1.1853    1.3400 H   0  0  0  0  0  0  0  0  0  0  0  0
   -1.6745   -0.2696   -0.1299 H   0  0  0  0  0  0  0  0  0  0  0  0
   -5.2312    1.0037    0.1044 H   0  0  0  0  0  0  0  0  0  0  0  0
   -4.4349    1.7099    1.5228 H   0  0  0  0  0  0  0  0  0  0  0  0
   -3.4696    1.1103    0.1636 H   0  0  0  0  0  0  0  0  0  0  0  0
   -0.0083   -2.7340    0.5413 H   0  0  0  0  0  0  0  0  0  0  0  0
    1.0828   -2.4194   -1.5555 H   0  0  0  0  0  0  0  0  0  0  0  0
   -0.4423   -1.4819   -3.3115 H   0  0  0  0  0  0  0  0  0  0  0  0
   -1.2829   -0.4713   -2.1953 H   0  0  0  0  0  0  0  0  0  0  0  0
    1.6899   -0.1795   -3.1122 H   0  0  0  0  0  0  0  0  0  0  0  0
    1.3350    2.1320   -2.8789 H   0  0  0  0  0  0  0  0  0  0  0  0
    1.6701   -0.2755    1.2325 H   0  0  0  0  0  0  0  0  0  0  0  0
    3.0924   -0.1307    2.2438 H   0  0  0  0  0  0  0  0  0  0  0  0
    3.6654    2.0475    1.1602 H   0  0  0  0  0  0  0  0  0  0  0  0
    2.2696    1.9257    0.1271 H   0  0  0  0  0  0  0  0  0  0  0  0
   -1.3454    1.5009   -1.4719 H   0  0  0  0  0  0  0  0  0  0  0  0
   -1.3363    2.3954   -2.9624 H   0  0  0  0  0  0  0  0  0  0  0  0
    4.5525   -0.1959    0.2075 H   0  0  0  0  0  0  0  0  0  0  0  0
    3.1005   -0.3932   -0.8058 H   0  0  0  0  0  0  0  0  0  0  0  0
    2.3759    2.5343    3.1409 H   0  0  0  0  0  0  0  0  0  0  0  0
   -1.2951    2.1380    1.2293 H   0  0  0  0  0  0  0  0  0  0  0  0
    0.0681    1.4398    0.3832 H   0  0  0  0  0  0  0  0  0  0  0  0
   -0.5217    4.3690   -1.9349 H   0  0  0  0  0  0  0  0  0  0  0  0
    0.0637    3.1042    2.9510 H   0  0  0  0  0  0  0  0  0  0  0  0
   -0.2011    4.5270    0.4119 H   0  0  0  0  0  0  0  0  0  0  0  0
    4.3601   -3.6869   -0.3543 H   0  0  0  0  0  0  0  0  0  0  0  0
  1  4  1  0  0  0  0
  1  5  1  0  0  0  0
  2 23  1  0  0  0  0
  2 53  1  0  0  0  0
  3 23  2  0  0  0  0
  4  5  1  0  0  0  0
  4  6  1  0  0  0  0
  4 24  1  0  0  0  0
  5  7  1  0  0  0  0
  5 25  1  0  0  0  0
  6  8  1  0  0  0  0
  6 26  1  0  0  0  0
  6 27  1  0  0  0  0
  7  9  1  0  0  0  0
  7 28  1  0  0  0  0
  7 29  1  0  0  0  0
  8 30  1  0  0  0  0
  8 31  1  0  0  0  0
  8 32  1  0  0  0  0
  9 10  2  0  0  0  0
  9 33  1  0  0  0  0
 10 11  1  0  0  0  0
 10 34  1  0  0  0  0
 11 12  1  0  0  0  0
 11 35  1  0  0  0  0
 11 36  1  0  0  0  0
 12 13  2  0  0  0  0
 12 37  1  0  0  0  0
 13 16  1  0  0  0  0
 13 38  1  0  0  0  0
 14 15  1  0  0  0  0
 14 17  1  0  0  0  0
 14 39  1  0  0  0  0
 14 40  1  0  0  0  0
 15 18  1  0  0  0  0
 15 41  1  0  0  0  0
 15 42  1  0  0  0  0
 16 20  1  0  0  0  0
 16 43  1  0  0  0  0
 16 44  1  0  0  0  0
 17 23  1  0  0  0  0
 17 45  1  0  0  0  0
 17 46  1  0  0  0  0
 18 21  2  0  0  0  0
 18 47  1  0  0  0  0
 19 21  1  0  0  0  0
 19 22  1  0  0  0  0
 19 48  1  0  0  0  0
 19 49  1  0  0  0  0
 20 22  2  0  0  0  0
 20 50  1  0  0  0  0
 21 51  1  0  0  0  0
 22 52  1  0  0  0  0
M  END
> <PUBCHEM_COMPOUND_CID>
5282277

> <PUBCHEM_CONFORMER_RMSD>
1.4

> <PUBCHEM_CONFORMER_DIVERSEORDER>
1
206
96
175
151
98
112
55
153
167
197
173
85
2
158
128
56
194
145
170
7
83
178
109
186
199
51
10
74
119
20
116
165
111
193
39
202
143
16
6
45
15
125
75
18
100
12
138
122
160
68
24
59
50
189
71
101
184
91
152
135
67
171
107
32
185
159
157
129
196
95
140
69
162
154
142
87
139
13
114
188
61
204
97
5
133
14
19
181
123
180
25
38
72
179
110
64
102
183
65
81
40
29
21
42
78
190
86
124
147
192
76
118
168
46
191
63
203
43
134
37
146
57
54
163
207
53
94
182
17
130
174
176
49
172
58
120
156
108
93
79
121
27
187
33
155
66
198
115
8
148
36
31
136
60
137
82
73
161
44
52
77
200
28
149
201
9
90
150
35
177
103
106
84
141
117
113
127
62
30
164
4
166
26
131
132
22
3
89
11
126
48
80
99
23
195
105
47
88
92
34
104
205
169
41
144
70

> <PUBCHEM_MMFF94_PARTIAL_CHARGES>
32
1 -0.3
10 -0.29
11 0.28
12 -0.29
13 -0.29
15 0.14
16 0.28
17 0.06
18 -0.29
19 0.28
2 -0.65
20 -0.29
21 -0.29
22 -0.29
23 0.66
24 0.1
25 0.1
3 -0.57
33 0.15
34 0.15
37 0.15
38 0.15
4 -0.05
47 0.15
5 -0.05
50 0.15
51 0.15
52 0.15
53 0.5
6 0.09
7 0.23
9 -0.29

> <PUBCHEM_EFFECTIVE_ROTOR_COUNT>
13.6

> <PUBCHEM_PHARMACOPHORE_FEATURES>
6
1 1 acceptor
1 2 acceptor
1 3 acceptor
1 8 hydrophobe
3 2 3 23 anion
4 14 15 17 18 hydrophobe

> <PUBCHEM_HEAVY_ATOM_COUNT>
23

> <PUBCHEM_ATOM_DEF_STEREO_COUNT>
2

> <PUBCHEM_ATOM_UDEF_STEREO_COUNT>
0

> <PUBCHEM_BOND_DEF_STEREO_COUNT>
4

> <PUBCHEM_BOND_UDEF_STEREO_COUNT>
0

> <PUBCHEM_ISOTOPIC_ATOM_COUNT>
0

> <PUBCHEM_COMPONENT_COUNT>
1

> <PUBCHEM_CACTVS_TAUTO_COUNT>
1

> <PUBCHEM_CONFORMER_ID>
005099E500000001

> <PUBCHEM_MMFF94_ENERGY>
20.3536

> <PUBCHEM_FEATURE_SELFOVERLAP>
30.504

> <PUBCHEM_SHAPE_FINGERPRINT>
10064457 181 17041207835950140848
10764073 3 17970623210927840485
11244481 83 15911361919176790585
12156800 1 17682360923332565676
12400797 292 10374223736724228065
12633257 1 18042679675457591193
13383661 66 13396341474197023344
13773456 73 18122899825589542667
14251764 3 6771035144990285839
17859628 37 18114742638030565257
20600515 1 18264188357457273315
23419403 2 18337408088014928821
35225 105 17909278214260526034
445580 2 18337410308655620853
445580 42 17763213584138293234
469060 322 17631726201366145858
7097593 13 18191872210572726523

> <PUBCHEM_SHAPE_MULTIPOLES>
455.72
7
4.62
2.67
4.22
1.72
1.6
-5.92
-4.41
-1.58
-0.35
-0.67
1.44
0.81

> <PUBCHEM_SHAPE_SELFOVERLAP>
878.168

> <PUBCHEM_SHAPE_VOLUME>
275.6

> <PUBCHEM_COORDINATE_TYPE>
2
5
10

$$$$

