100230
  -OEChem-07051212572D

 88 94  0     1  0  0  0  0  0999 V2000
    6.7295    1.6646    0.0000 O   0  0  0  0  0  0  0  0  0  0  0  0
    6.6941    2.5908    0.0000 O   0  0  0  0  0  0  0  0  0  0  0  0
    5.5084    0.4387    0.0000 O   0  0  0  0  0  0  0  0  0  0  0  0
    8.4261    3.5908    0.0000 O   0  0  0  0  0  0  0  0  0  0  0  0
    5.7658   -4.0908    0.0000 O   0  0  0  0  0  0  0  0  0  0  0  0
    5.1334   -3.2083    0.0000 O   0  0  0  0  0  0  0  0  0  0  0  0
    9.3081   -0.9785    0.0000 N   0  0  3  0  0  0  0  0  0  0  0  0
    3.4363   -0.6212    0.0000 N   0  0  3  0  0  0  0  0  0  0  0  0
    8.4101   -0.4507    0.0000 C   0  0  2  0  0  0  0  0  0  0  0  0
    2.5859   -0.0882    0.0000 C   0  0  2  0  0  0  0  0  0  0  0  0
    8.4261    0.5908    0.0000 C   0  0  0  0  0  0  0  0  0  0  0  0
   10.2102   -0.4577    0.0000 C   0  0  0  0  0  0  0  0  0  0  0  0
    9.2922    1.0908    0.0000 C   0  0  0  0  0  0  0  0  0  0  0  0
   10.2022    0.5839    0.0000 C   0  0  0  0  0  0  0  0  0  0  0  0
    3.0706    0.7974    0.0000 C   0  0  0  0  0  0  0  0  0  0  0  0
    8.4520   -1.4594    0.0000 C   0  0  0  0  0  0  0  0  0  0  0  0
    4.3548   -0.2164    0.0000 C   0  0  0  0  0  0  0  0  0  0  0  0
    3.8194    1.4744    0.0000 C   0  0  0  0  0  0  0  0  0  0  0  0
    4.5352    0.7709    0.0000 C   0  0  0  0  0  0  0  0  0  0  0  0
    2.4192   -1.0838    0.0000 C   0  0  0  0  0  0  0  0  0  0  0  0
    7.5601    1.0908    0.0000 C   0  0  0  0  0  0  0  0  0  0  0  0
    9.3043   -1.9785    0.0000 C   0  0  0  0  0  0  0  0  0  0  0  0
    9.2922    2.0908    0.0000 C   0  0  0  0  0  0  0  0  0  0  0  0
    4.7492    1.8677    0.0000 C   0  0  0  0  0  0  0  0  0  0  0  0
    4.0660    0.9025    0.0000 C   0  0  0  0  0  0  0  0  0  0  0  0
    5.7565    1.9335    0.0000 C   0  0  0  0  0  0  0  0  0  0  0  0
    8.1601   -2.4257    0.0000 C   0  0  0  0  0  0  0  0  0  0  0  0
    7.5601    2.0908    0.0000 C   0  0  0  0  0  0  0  0  0  0  0  0
    3.3640   -1.6185    0.0000 C   0  0  0  0  0  0  0  0  0  0  0  0
    4.9878    1.2925    0.0000 C   0  0  0  0  0  0  0  0  0  0  0  0
    8.4261    2.5908    0.0000 C   0  0  0  0  0  0  0  0  0  0  0  0
    2.5890   -2.0789    0.0000 C   0  0  0  0  0  0  0  0  0  0  0  0
    7.5668   -3.2425    0.0000 C   0  0  0  0  0  0  0  0  0  0  0  0
    7.3843   -1.7890    0.0000 C   0  0  0  0  0  0  0  0  0  0  0  0
    3.4958   -2.5026    0.0000 C   0  0  0  0  0  0  0  0  0  0  0  0
    3.0764   -2.9630    0.0000 C   0  0  0  0  0  0  0  0  0  0  0  0
    6.7380   -3.8188    0.0000 C   0  0  0  0  0  0  0  0  0  0  0  0
    6.4219   -2.0737    0.0000 C   0  0  0  0  0  0  0  0  0  0  0  0
    4.7583   -4.0281    0.0000 C   0  0  0  0  0  0  0  0  0  0  0  0
    6.1174   -3.0301    0.0000 C   0  0  0  0  0  0  0  0  0  0  0  0
    4.2403   -3.1716    0.0000 C   0  0  0  0  0  0  0  0  0  0  0  0
    3.8273   -3.6377    0.0000 C   0  0  0  0  0  0  0  0  0  0  0  0
    6.6941    3.5908    0.0000 C   0  0  0  0  0  0  0  0  0  0  0  0
    6.5082    0.4627    0.0000 C   0  0  0  0  0  0  0  0  0  0  0  0
    9.2922    4.0908    0.0000 C   0  0  0  0  0  0  0  0  0  0  0  0
    4.4870   -2.4453    0.0000 C   0  0  0  0  0  0  0  0  0  0  0  0
    7.5602   -0.4618    0.0000 H   0  0  0  0  0  0  0  0  0  0  0  0
    1.7827    0.1900    0.0000 H   0  0  0  0  0  0  0  0  0  0  0  0
   10.4237   -1.0397    0.0000 H   0  0  0  0  0  0  0  0  0  0  0  0
   10.8202   -0.3469    0.0000 H   0  0  0  0  0  0  0  0  0  0  0  0
   10.8138    0.4826    0.0000 H   0  0  0  0  0  0  0  0  0  0  0  0
   10.4067    1.1692    0.0000 H   0  0  0  0  0  0  0  0  0  0  0  0
    8.9241   -1.8613    0.0000 H   0  0  0  0  0  0  0  0  0  0  0  0
    7.8369   -1.3815    0.0000 H   0  0  0  0  0  0  0  0  0  0  0  0
    4.4879   -0.8220    0.0000 H   0  0  0  0  0  0  0  0  0  0  0  0
    4.9746   -0.2054    0.0000 H   0  0  0  0  0  0  0  0  0  0  0  0
    5.1111    0.5412    0.0000 H   0  0  0  0  0  0  0  0  0  0  0  0
    4.8740    1.2901    0.0000 H   0  0  0  0  0  0  0  0  0  0  0  0
    1.8998   -0.7451    0.0000 H   0  0  0  0  0  0  0  0  0  0  0  0
    3.0391   -1.0829    0.0000 H   0  0  0  0  0  0  0  0  0  0  0  0
    8.6843   -1.9761    0.0000 H   0  0  0  0  0  0  0  0  0  0  0  0
    9.3019   -2.5985    0.0000 H   0  0  0  0  0  0  0  0  0  0  0  0
    9.9242   -1.9809    0.0000 H   0  0  0  0  0  0  0  0  0  0  0  0
    9.8291    2.4008    0.0000 H   0  0  0  0  0  0  0  0  0  0  0  0
    4.6062    2.4709    0.0000 H   0  0  0  0  0  0  0  0  0  0  0  0
    4.2210    0.3022    0.0000 H   0  0  0  0  0  0  0  0  0  0  0  0
    2.7456   -1.5737    0.0000 H   0  0  0  0  0  0  0  0  0  0  0  0
    3.3192   -2.2369    0.0000 H   0  0  0  0  0  0  0  0  0  0  0  0
    3.9824   -1.6634    0.0000 H   0  0  0  0  0  0  0  0  0  0  0  0
    8.0007   -3.6854    0.0000 H   0  0  0  0  0  0  0  0  0  0  0  0
    7.5074   -1.1813    0.0000 H   0  0  0  0  0  0  0  0  0  0  0  0
    3.8379   -1.9856    0.0000 H   0  0  0  0  0  0  0  0  0  0  0  0
    2.5909   -3.3486    0.0000 H   0  0  0  0  0  0  0  0  0  0  0  0
    5.9880   -1.6308    0.0000 H   0  0  0  0  0  0  0  0  0  0  0  0
    4.7180   -2.7763    0.0000 H   0  0  0  0  0  0  0  0  0  0  0  0
    3.4956   -4.1615    0.0000 H   0  0  0  0  0  0  0  0  0  0  0  0
    7.3141    3.5908    0.0000 H   0  0  0  0  0  0  0  0  0  0  0  0
    6.6941    4.2108    0.0000 H   0  0  0  0  0  0  0  0  0  0  0  0
    6.0741    3.5908    0.0000 H   0  0  0  0  0  0  0  0  0  0  0  0
    6.5231   -0.1571    0.0000 H   0  0  0  0  0  0  0  0  0  0  0  0
    7.1280    0.4776    0.0000 H   0  0  0  0  0  0  0  0  0  0  0  0
    6.4933    1.0825    0.0000 H   0  0  0  0  0  0  0  0  0  0  0  0
    9.6022    3.5538    0.0000 H   0  0  0  0  0  0  0  0  0  0  0  0
    9.8291    4.4008    0.0000 H   0  0  0  0  0  0  0  0  0  0  0  0
    8.9822    4.6277    0.0000 H   0  0  0  0  0  0  0  0  0  0  0  0
    4.9601   -2.0446    0.0000 H   0  0  0  0  0  0  0  0  0  0  0  0
    4.0863   -1.9722    0.0000 H   0  0  0  0  0  0  0  0  0  0  0  0
    4.0140   -2.8460    0.0000 H   0  0  0  0  0  0  0  0  0  0  0  0
  1 21  1  0  0  0  0
  1 26  1  0  0  0  0
  2 28  1  0  0  0  0
  2 43  1  0  0  0  0
  3 30  1  0  0  0  0
  3 44  1  0  0  0  0
  4 31  1  0  0  0  0
  4 45  1  0  0  0  0
  5 37  1  0  0  0  0
  5 39  1  0  0  0  0
  6 40  1  0  0  0  0
  6 46  1  0  0  0  0
  7  9  1  0  0  0  0
  7 12  1  0  0  0  0
  7 22  1  0  0  0  0
  8 10  1  0  0  0  0
  8 17  1  0  0  0  0
  8 29  1  0  0  0  0
  9 11  1  0  0  0  0
  9 16  1  0  0  0  0
  9 47  1  6  0  0  0
 10 15  1  0  0  0  0
 10 20  1  0  0  0  0
 10 48  1  6  0  0  0
 11 13  1  0  0  0  0
 11 21  2  0  0  0  0
 12 14  1  0  0  0  0
 12 49  1  0  0  0  0
 12 50  1  0  0  0  0
 13 14  1  0  0  0  0
 13 23  2  0  0  0  0
 14 51  1  0  0  0  0
 14 52  1  0  0  0  0
 15 18  1  0  0  0  0
 15 25  2  0  0  0  0
 16 27  1  0  0  0  0
 16 53  1  0  0  0  0
 16 54  1  0  0  0  0
 17 19  1  0  0  0  0
 17 55  1  0  0  0  0
 17 56  1  0  0  0  0
 18 19  1  0  0  0  0
 18 24  2  0  0  0  0
 19 57  1  0  0  0  0
 19 58  1  0  0  0  0
 20 32  1  0  0  0  0
 20 59  1  0  0  0  0
 20 60  1  0  0  0  0
 21 28  1  0  0  0  0
 22 61  1  0  0  0  0
 22 62  1  0  0  0  0
 22 63  1  0  0  0  0
 23 31  1  0  0  0  0
 23 64  1  0  0  0  0
 24 26  1  0  0  0  0
 24 65  1  0  0  0  0
 25 30  1  0  0  0  0
 25 66  1  0  0  0  0
 26 30  2  0  0  0  0
 27 33  2  0  0  0  0
 27 34  1  0  0  0  0
 28 31  2  0  0  0  0
 29 67  1  0  0  0  0
 29 68  1  0  0  0  0
 29 69  1  0  0  0  0
 32 35  2  0  0  0  0
 32 36  1  0  0  0  0
 33 37  1  0  0  0  0
 33 70  1  0  0  0  0
 34 38  2  0  0  0  0
 34 71  1  0  0  0  0
 35 41  1  0  0  0  0
 35 72  1  0  0  0  0
 36 42  2  0  0  0  0
 36 73  1  0  0  0  0
 37 40  2  0  0  0  0
 38 40  1  0  0  0  0
 38 74  1  0  0  0  0
 39 41  2  0  0  0  0
 39 42  1  0  0  0  0
 41 75  1  0  0  0  0
 42 76  1  0  0  0  0
 43 77  1  0  0  0  0
 43 78  1  0  0  0  0
 43 79  1  0  0  0  0
 44 80  1  0  0  0  0
 44 81  1  0  0  0  0
 44 82  1  0  0  0  0
 45 83  1  0  0  0  0
 45 84  1  0  0  0  0
 45 85  1  0  0  0  0
 46 86  1  0  0  0  0
 46 87  1  0  0  0  0
 46 88  1  0  0  0  0
M  END
> <PUBCHEM_COMPOUND_CID>
100230

> <PUBCHEM_COMPOUND_CANONICALIZED>
1

> <PUBCHEM_CACTVS_COMPLEXITY>
979

> <PUBCHEM_CACTVS_HBOND_ACCEPTOR>
8

> <PUBCHEM_CACTVS_HBOND_DONOR>
0

> <PUBCHEM_CACTVS_ROTATABLE_BOND>
4

> <PUBCHEM_CACTVS_SUBSKEYS>
AAADcfB/OAAAAAAAAAAAAAAAAAAAAAAAAAA8eMGCAAAAAACxVAAAHgAAAAAADCzBmAYyBoMABACAAiBCAACCCAAgIAAIiAAOjIgNJyKEsRuGOCrnwBWKqAew8P8OoAABCAAYQABAAAIQADCAAAAAAAAAAA==

> <PUBCHEM_IUPAC_INCHI>
InChI=1S/C38H42N2O6/c1-39-15-13-25-20-34-32(42-4)22-28(25)29(39)17-23-7-10-27(11-8-23)45-33-19-24(9-12-31(33)41-3)18-30-36-26(14-16-40(30)2)21-35(43-5)37(44-6)38(36)46-34/h7-12,19-22,29-30H,13-18H2,1-6H3/t29-,30-/m0/s1

> <PUBCHEM_IUPAC_INCHIKEY>
UUURWWVPMHAACP-KYJUHHDHSA-N

> <PUBCHEM_XLOGP3_AA>
6.7

> <PUBCHEM_EXACT_MASS>
622.304287

> <PUBCHEM_MOLECULAR_FORMULA>
C38H42N2O6

> <PUBCHEM_MOLECULAR_WEIGHT>
622.74988

> <PUBCHEM_OPENEYE_CAN_SMILES>
CN1CCC2=CC3=C(C=C2C1CC4=CC=C(C=C4)OC5=C(C=CC(=C5)CC6C7=C(O3)C(=C(C=C7CCN6C)OC)OC)OC)OC

> <PUBCHEM_OPENEYE_ISO_SMILES>
CN1CCC2=CC3=C(C=C2[C@@H]1CC4=CC=C(C=C4)OC5=C(C=CC(=C5)C[C@H]6C7=C(O3)C(=C(C=C7CCN6C)OC)OC)OC)OC

> <PUBCHEM_CACTVS_TPSA>
61.9

> <PUBCHEM_MONOISOTOPIC_WEIGHT>
622.304287

> <PUBCHEM_TOTAL_CHARGE>
0

> <PUBCHEM_HEAVY_ATOM_COUNT>
46

> <PUBCHEM_ATOM_DEF_STEREO_COUNT>
2

> <PUBCHEM_ATOM_UDEF_STEREO_COUNT>
0

> <PUBCHEM_BOND_DEF_STEREO_COUNT>
0

> <PUBCHEM_BOND_UDEF_STEREO_COUNT>
0

> <PUBCHEM_ISOTOPIC_ATOM_COUNT>
0

> <PUBCHEM_COMPONENT_COUNT>
1

> <PUBCHEM_CACTVS_TAUTO_COUNT>
1

> <PUBCHEM_COORDINATE_TYPE>
1
5
255

> <PUBCHEM_BONDANNOTATIONS>
10  48  6
11  13  8
11  21  8
13  23  8
15  18  8
15  25  8
18  24  8
21  28  8
23  31  8
24  26  8
25  30  8
26  30  8
27  33  8
27  34  8
28  31  8
32  35  8
32  36  8
33  37  8
34  38  8
35  41  8
36  42  8
37  40  8
38  40  8
39  41  8
39  42  8
9  47  6

$$$$

