9437
  -OEChem-06261203423D

 29 31  0     0  0  0  0  0  0999 V2000
   -5.0662    1.2990    0.0007 F   0  0  0  0  0  0  0  0  0  0  0  0
   -5.5531   -0.5268   -1.0888 F   0  0  0  0  0  0  0  0  0  0  0  0
   -5.5559   -0.5234    1.0904 F   0  0  0  0  0  0  0  0  0  0  0  0
    1.6890   -2.6338   -0.0004 O   0  0  0  0  0  0  0  0  0  0  0  0
   -3.1127   -1.6174   -0.0031 O   0  0  0  0  0  0  0  0  0  0  0  0
   -2.6135    0.6860   -0.0001 N   0  0  0  0  0  0  0  0  0  0  0  0
    1.5618    0.8630   -0.0006 C   0  0  0  0  0  0  0  0  0  0  0  0
    0.8803   -0.3664   -0.0001 C   0  0  0  0  0  0  0  0  0  0  0  0
    2.9874    0.6155   -0.0003 C   0  0  0  0  0  0  0  0  0  0  0  0
    3.2145   -0.7717    0.0004 C   0  0  0  0  0  0  0  0  0  0  0  0
    1.8960   -1.4403    0.0006 C   0  0  0  0  0  0  0  0  0  0  0  0
   -0.4960   -0.4699    0.0000 C   0  0  0  0  0  0  0  0  0  0  0  0
    0.8408    2.0439   -0.0012 C   0  0  0  0  0  0  0  0  0  0  0  0
   -1.2183    0.7234   -0.0006 C   0  0  0  0  0  0  0  0  0  0  0  0
    4.0643    1.4842   -0.0002 C   0  0  0  0  0  0  0  0  0  0  0  0
   -0.5576    1.9670   -0.0013 C   0  0  0  0  0  0  0  0  0  0  0  0
    4.4753   -1.3331    0.0011 C   0  0  0  0  0  0  0  0  0  0  0  0
    5.3549    0.9402    0.0005 C   0  0  0  0  0  0  0  0  0  0  0  0
    5.5576   -0.4533    0.0012 C   0  0  0  0  0  0  0  0  0  0  0  0
   -3.4483   -0.4378    0.0007 C   0  0  0  0  0  0  0  0  0  0  0  0
   -4.9003   -0.0483    0.0010 C   0  0  0  0  0  0  0  0  0  0  0  0
   -0.9263   -1.4591    0.0009 H   0  0  0  0  0  0  0  0  0  0  0  0
    1.3326    3.0109   -0.0016 H   0  0  0  0  0  0  0  0  0  0  0  0
    3.9275    2.5604   -0.0006 H   0  0  0  0  0  0  0  0  0  0  0  0
   -1.1319    2.8912   -0.0016 H   0  0  0  0  0  0  0  0  0  0  0  0
    4.6263   -2.4060    0.0017 H   0  0  0  0  0  0  0  0  0  0  0  0
    6.2159    1.6039    0.0006 H   0  0  0  0  0  0  0  0  0  0  0  0
    6.5711   -0.8456    0.0017 H   0  0  0  0  0  0  0  0  0  0  0  0
   -3.0726    1.5945    0.0004 H   0  0  0  0  0  0  0  0  0  0  0  0
  1 21  1  0  0  0  0
  2 21  1  0  0  0  0
  3 21  1  0  0  0  0
  4 11  2  0  0  0  0
  5 20  2  0  0  0  0
  6 14  1  0  0  0  0
  6 20  1  0  0  0  0
  6 29  1  0  0  0  0
  7  8  2  0  0  0  0
  7  9  1  0  0  0  0
  7 13  1  0  0  0  0
  8 11  1  0  0  0  0
  8 12  1  0  0  0  0
  9 10  1  0  0  0  0
  9 15  2  0  0  0  0
 10 11  1  0  0  0  0
 10 17  2  0  0  0  0
 12 14  2  0  0  0  0
 12 22  1  0  0  0  0
 13 16  2  0  0  0  0
 13 23  1  0  0  0  0
 14 16  1  0  0  0  0
 15 18  1  0  0  0  0
 15 24  1  0  0  0  0
 16 25  1  0  0  0  0
 17 19  1  0  0  0  0
 17 26  1  0  0  0  0
 18 19  2  0  0  0  0
 18 27  1  0  0  0  0
 19 28  1  0  0  0  0
 20 21  1  0  0  0  0
M  END
> <PUBCHEM_COMPOUND_CID>
9437

> <PUBCHEM_CONFORMER_RMSD>
0.6

> <PUBCHEM_CONFORMER_DIVERSEORDER>
1
2
3
4

> <PUBCHEM_MMFF94_PARTIAL_CHARGES>
27
1 -0.34
10 0.09
11 0.4
12 -0.15
13 -0.15
14 0.12
15 -0.15
16 -0.15
17 -0.15
18 -0.15
19 -0.15
2 -0.34
20 0.57
21 1.08
22 0.15
23 0.15
24 0.15
25 0.15
26 0.15
27 0.15
28 0.15
29 0.37
3 -0.34
4 -0.57
5 -0.57
6 -0.55
8 0.09

> <PUBCHEM_EFFECTIVE_ROTOR_COUNT>
3

> <PUBCHEM_PHARMACOPHORE_FEATURES>
6
1 4 acceptor
1 5 acceptor
1 6 donor
5 7 8 9 10 11 rings
6 7 8 12 13 14 16 rings
6 9 10 15 17 18 19 rings

> <PUBCHEM_HEAVY_ATOM_COUNT>
21

> <PUBCHEM_ATOM_DEF_STEREO_COUNT>
0

> <PUBCHEM_ATOM_UDEF_STEREO_COUNT>
0

> <PUBCHEM_BOND_DEF_STEREO_COUNT>
0

> <PUBCHEM_BOND_UDEF_STEREO_COUNT>
0

> <PUBCHEM_ISOTOPIC_ATOM_COUNT>
0

> <PUBCHEM_COMPONENT_COUNT>
1

> <PUBCHEM_CACTVS_TAUTO_COUNT>
6

> <PUBCHEM_CONFORMER_ID>
000024DD00000001

> <PUBCHEM_MMFF94_ENERGY>
65.7268

> <PUBCHEM_FEATURE_SELFOVERLAP>
30.615

> <PUBCHEM_SHAPE_FINGERPRINT>
10090160 65 18272655640605157838
10447042 23 18340778108270634190
10906281 52 18269535235095074920
11471102 20 18411140220865753668
11806522 49 18411136948380307404
12107183 9 17541653259039951641
12236239 1 17749107785586487717
12516196 113 18114184120557545393
12596602 18 16950285079005586859
13533116 47 4678550031539157548
13685833 64 18342452622009995075
13862211 1 18410298016586824398
14251764 18 18259981579405439097
14528608 73 18408323263664831156
14790565 3 18409725123810655572
14863182 85 18337099142665120686
15196674 1 18410573972271843494
15375358 24 18272367568516450171
15788980 27 18130787841321675957
17492 89 18122909991281597882
17834072 33 18187086143677926821
19141452 34 18186802448308833831
200 152 18260268555501928913
20028762 73 18260835938263436110
20645477 70 18336265729624810494
21033650 10 15122383440641311342
21267235 1 18410003364850812270
21421861 104 17986395713638770586
21623969 137 18342162354945462715
21641784 216 18058996385112405876
221490 88 18198054777240178299
23402539 116 18334582334277735662
23559900 14 18411704244577063824
239999 70 18334571365638344878
26918003 58 18202562873592663275
2871803 45 18342177799578884014
3004659 81 18272933843133027084
314194 84 18334577936453017227
335352 9 18410575084689479102
33824 294 18412826906426724754
34797466 226 16226042237362251736
34934 24 18410579495858554327
350125 39 18410856564821467380
3545911 37 18410854348211706091
4072396 5 18271257070726191618
4073 2 18059850628052452155
4214541 1 18410575110987160389
42630746 31 18335421275194097926
4340502 62 16702307832642870592
4463277 17 18409729568859096800
465052 167 18334289864564685342
474229 33 18411419501541606338
5104073 3 18338800129686050104
5283173 99 17987527068360222957
542803 24 17418091022552030485
5486654 2 18410007707289407116
602551 16 15213596541590505589
7495541 125 14261339228893796661

> <PUBCHEM_SHAPE_MULTIPOLES>
393.63
12.56
1.98
0.67
9.49
0.12
0
1.15
0.01
-0.93
0
0.36
0.03
0

> <PUBCHEM_SHAPE_SELFOVERLAP>
884.18

> <PUBCHEM_SHAPE_VOLUME>
209.2

> <PUBCHEM_COORDINATE_TYPE>
2
5
10

$$$$

