1786
  -OEChem-07051212512D

 45 47  0     0  0  0  0  0  0999 V2000
    5.6859    0.6545    0.0000 O   0  0  0  0  0  0  0  0  0  0  0  0
    3.8968   -4.4333    0.0000 O   0  0  0  0  0  0  0  0  0  0  0  0
    6.4949    5.2423    0.0000 O   0  0  0  0  0  0  0  0  0  0  0  0
    3.5878   -5.3843    0.0000 N   0  0  0  0  0  0  0  0  0  0  0  0
    4.8768    5.2423    0.0000 N   0  0  0  0  0  0  0  0  0  0  0  0
    3.9538   -1.3455    0.0000 C   0  0  0  0  0  0  0  0  0  0  0  0
    3.9538   -2.3455    0.0000 C   0  0  0  0  0  0  0  0  0  0  0  0
    4.8198   -0.8455    0.0000 C   0  0  0  0  0  0  0  0  0  0  0  0
    3.0878   -2.8455    0.0000 C   0  0  0  0  0  0  0  0  0  0  0  0
    4.8198    0.1545    0.0000 C   0  0  0  0  0  0  0  0  0  0  0  0
    3.0878   -3.8455    0.0000 C   0  0  0  0  0  0  0  0  0  0  0  0
    2.2788   -4.4333    0.0000 C   0  0  0  0  0  0  0  0  0  0  0  0
    5.6859    1.6545    0.0000 C   0  0  0  0  0  0  0  0  0  0  0  0
    5.6859    3.6545    0.0000 C   0  0  0  0  0  0  0  0  0  0  0  0
    2.5878   -5.3843    0.0000 C   0  0  0  0  0  0  0  0  0  0  0  0
    5.6859    4.6545    0.0000 C   0  0  0  0  0  0  0  0  0  0  0  0
    6.5519    2.1545    0.0000 C   0  0  0  0  0  0  0  0  0  0  0  0
    4.8198    2.1545    0.0000 C   0  0  0  0  0  0  0  0  0  0  0  0
    6.5519    3.1545    0.0000 C   0  0  0  0  0  0  0  0  0  0  0  0
    4.8198    3.1545    0.0000 C   0  0  0  0  0  0  0  0  0  0  0  0
    6.1859    6.1934    0.0000 C   0  0  0  0  0  0  0  0  0  0  0  0
    5.1859    6.1934    0.0000 C   0  0  0  0  0  0  0  0  0  0  0  0
    2.0000   -6.1934    0.0000 C   0  0  0  0  0  0  0  0  0  0  0  0
    3.7418   -0.7629    0.0000 H   0  0  0  0  0  0  0  0  0  0  0  0
    3.3432   -1.4532    0.0000 H   0  0  0  0  0  0  0  0  0  0  0  0
    4.1659   -2.9281    0.0000 H   0  0  0  0  0  0  0  0  0  0  0  0
    4.5644   -2.2378    0.0000 H   0  0  0  0  0  0  0  0  0  0  0  0
    5.0319   -1.4281    0.0000 H   0  0  0  0  0  0  0  0  0  0  0  0
    5.4304   -0.7378    0.0000 H   0  0  0  0  0  0  0  0  0  0  0  0
    2.8757   -2.2629    0.0000 H   0  0  0  0  0  0  0  0  0  0  0  0
    2.4772   -2.9532    0.0000 H   0  0  0  0  0  0  0  0  0  0  0  0
    4.6078    0.7371    0.0000 H   0  0  0  0  0  0  0  0  0  0  0  0
    4.2093    0.0468    0.0000 H   0  0  0  0  0  0  0  0  0  0  0  0
    1.6891   -4.2417    0.0000 H   0  0  0  0  0  0  0  0  0  0  0  0
    7.0888    1.8445    0.0000 H   0  0  0  0  0  0  0  0  0  0  0  0
    4.2829    1.8445    0.0000 H   0  0  0  0  0  0  0  0  0  0  0  0
    6.7923    6.3223    0.0000 H   0  0  0  0  0  0  0  0  0  0  0  0
    6.1210    6.8100    0.0000 H   0  0  0  0  0  0  0  0  0  0  0  0
    5.2507    6.8100    0.0000 H   0  0  0  0  0  0  0  0  0  0  0  0
    4.5794    6.3223    0.0000 H   0  0  0  0  0  0  0  0  0  0  0  0
    7.0888    3.4645    0.0000 H   0  0  0  0  0  0  0  0  0  0  0  0
    4.2829    3.4645    0.0000 H   0  0  0  0  0  0  0  0  0  0  0  0
    1.4984   -5.8289    0.0000 H   0  0  0  0  0  0  0  0  0  0  0  0
    1.6356   -6.6949    0.0000 H   0  0  0  0  0  0  0  0  0  0  0  0
    2.5016   -6.5578    0.0000 H   0  0  0  0  0  0  0  0  0  0  0  0
  1 10  1  0  0  0  0
  1 13  1  0  0  0  0
  2  4  1  0  0  0  0
  2 11  1  0  0  0  0
  3 16  1  0  0  0  0
  3 21  1  0  0  0  0
  4 15  2  0  0  0  0
  5 16  2  0  0  0  0
  5 22  1  0  0  0  0
  6  7  1  0  0  0  0
  6  8  1  0  0  0  0
  6 24  1  0  0  0  0
  6 25  1  0  0  0  0
  7  9  1  0  0  0  0
  7 26  1  0  0  0  0
  7 27  1  0  0  0  0
  8 10  1  0  0  0  0
  8 28  1  0  0  0  0
  8 29  1  0  0  0  0
  9 11  1  0  0  0  0
  9 30  1  0  0  0  0
  9 31  1  0  0  0  0
 10 32  1  0  0  0  0
 10 33  1  0  0  0  0
 11 12  2  0  0  0  0
 12 15  1  0  0  0  0
 12 34  1  0  0  0  0
 13 17  2  0  0  0  0
 13 18  1  0  0  0  0
 14 16  1  0  0  0  0
 14 19  2  0  0  0  0
 14 20  1  0  0  0  0
 15 23  1  0  0  0  0
 17 19  1  0  0  0  0
 17 35  1  0  0  0  0
 18 20  2  0  0  0  0
 18 36  1  0  0  0  0
 19 41  1  0  0  0  0
 20 42  1  0  0  0  0
 21 22  1  0  0  0  0
 21 37  1  0  0  0  0
 21 38  1  0  0  0  0
 22 39  1  0  0  0  0
 22 40  1  0  0  0  0
 23 43  1  0  0  0  0
 23 44  1  0  0  0  0
 23 45  1  0  0  0  0
M  END
> <PUBCHEM_COMPOUND_CID>
1786

> <PUBCHEM_COMPOUND_CANONICALIZED>
1

> <PUBCHEM_CACTVS_COMPLEXITY>
381

> <PUBCHEM_CACTVS_HBOND_ACCEPTOR>
5

> <PUBCHEM_CACTVS_HBOND_DONOR>
0

> <PUBCHEM_CACTVS_ROTATABLE_BOND>
8

> <PUBCHEM_CACTVS_SUBSKEYS>
AAADceB7MAAAAAAAAAAAAAAAAAAAAWIAAAAwAAAAAAAAAAABwAAAHgAEAAAADAzhngYyhpIQBACpA6RyRgCCCAAkIgAomCE2bNoOJrqEsZqDOaDmwBkI6UeY6KwOIAAAAAAAAABAAAAAAAAAAAAAAAAAAA==

> <PUBCHEM_IUPAC_OPENEYE_NAME>
5-[5-[4-(4,5-dihydrooxazol-2-yl)phenoxy]pentyl]-3-methyl-isoxazole

> <PUBCHEM_IUPAC_CAS_NAME>
5-[5-[4-(4,5-dihydrooxazol-2-yl)phenoxy]pentyl]-3-methylisoxazole

> <PUBCHEM_IUPAC_NAME>
5-[5-[4-(4,5-dihydro-1,3-oxazol-2-yl)phenoxy]pentyl]-3-methyl-1,2-oxazole

> <PUBCHEM_IUPAC_SYSTEMATIC_NAME>
5-[5-[4-(4,5-dihydro-1,3-oxazol-2-yl)phenoxy]pentyl]-3-methyl-1,2-oxazole

> <PUBCHEM_IUPAC_TRADITIONAL_NAME>
3-methyl-5-[5-[4-(2-oxazolin-2-yl)phenoxy]pentyl]isoxazole

> <PUBCHEM_IUPAC_INCHI>
InChI=1S/C18H22N2O3/c1-14-13-17(23-20-14)5-3-2-4-11-21-16-8-6-15(7-9-16)18-19-10-12-22-18/h6-9,13H,2-5,10-12H2,1H3

> <PUBCHEM_IUPAC_INCHIKEY>
IWZDYGHUSXWPPM-UHFFFAOYSA-N

> <PUBCHEM_XLOGP3_AA>
3.3

> <PUBCHEM_EXACT_MASS>
314.163043

> <PUBCHEM_MOLECULAR_FORMULA>
C18H22N2O3

> <PUBCHEM_MOLECULAR_WEIGHT>
314.37888

> <PUBCHEM_OPENEYE_CAN_SMILES>
CC1=NOC(=C1)CCCCCOC2=CC=C(C=C2)C3=NCCO3

> <PUBCHEM_OPENEYE_ISO_SMILES>
CC1=NOC(=C1)CCCCCOC2=CC=C(C=C2)C3=NCCO3

> <PUBCHEM_CACTVS_TPSA>
56.8

> <PUBCHEM_MONOISOTOPIC_WEIGHT>
314.163043

> <PUBCHEM_TOTAL_CHARGE>
0

> <PUBCHEM_HEAVY_ATOM_COUNT>
23

> <PUBCHEM_ATOM_DEF_STEREO_COUNT>
0

> <PUBCHEM_ATOM_UDEF_STEREO_COUNT>
0

> <PUBCHEM_BOND_DEF_STEREO_COUNT>
0

> <PUBCHEM_BOND_UDEF_STEREO_COUNT>
0

> <PUBCHEM_ISOTOPIC_ATOM_COUNT>
0

> <PUBCHEM_COMPONENT_COUNT>
1

> <PUBCHEM_CACTVS_TAUTO_COUNT>
1

> <PUBCHEM_COORDINATE_TYPE>
1
5
255

> <PUBCHEM_BONDANNOTATIONS>
11  12  8
12  15  8
13  17  8
13  18  8
14  19  8
14  20  8
17  19  8
18  20  8
2  11  8
2  4  8
4  15  8

$$$$

