439659
  -OEChem-07051212463D

 24 23  0     1  0  0  0  0  0999 V2000
   -1.1195    1.0259    1.4324 O   0  0  0  0  0  0  0  0  0  0  0  0
    1.3398    2.3272   -1.1058 O   0  0  0  0  0  0  0  0  0  0  0  0
    1.9066    1.4946    0.9260 O   0  0  0  0  0  0  0  0  0  0  0  0
   -2.4512   -0.6023   -1.4517 O   0  0  0  0  0  0  0  0  0  0  0  0
   -2.8348   -0.9088    0.7671 O   0  0  0  0  0  0  0  0  0  0  0  0
    0.2383    0.3136   -0.4161 C   0  0  1  0  0  0  0  0  0  0  0  0
    0.6771   -1.0284    0.2051 C   0  0  0  0  0  0  0  0  0  0  0  0
   -1.1747    0.7224    0.0399 C   0  0  1  0  0  0  0  0  0  0  0  0
    2.0127   -1.5239   -0.3621 C   0  0  0  0  0  0  0  0  0  0  0  0
    1.2501    1.4138   -0.1041 C   0  0  0  0  0  0  0  0  0  0  0  0
    2.3866   -2.8840    0.2071 C   0  0  0  0  0  0  0  0  0  0  0  0
   -2.2309   -0.3500   -0.1378 C   0  0  0  0  0  0  0  0  0  0  0  0
    0.2274    0.1734   -1.5056 H   0  0  0  0  0  0  0  0  0  0  0  0
    0.7622   -0.9337    1.2950 H   0  0  0  0  0  0  0  0  0  0  0  0
   -0.0799   -1.7969    0.0103 H   0  0  0  0  0  0  0  0  0  0  0  0
   -1.5008    1.6328   -0.4757 H   0  0  0  0  0  0  0  0  0  0  0  0
    2.8172   -0.8163   -0.1351 H   0  0  0  0  0  0  0  0  0  0  0  0
    1.9463   -1.6006   -1.4536 H   0  0  0  0  0  0  0  0  0  0  0  0
    3.3409   -3.2202   -0.2103 H   0  0  0  0  0  0  0  0  0  0  0  0
    1.6271   -3.6339   -0.0360 H   0  0  0  0  0  0  0  0  0  0  0  0
    2.4890   -2.8382    1.2960 H   0  0  0  0  0  0  0  0  0  0  0  0
   -1.9746    1.4171    1.6807 H   0  0  0  0  0  0  0  0  0  0  0  0
    1.9859    3.0354   -0.8976 H   0  0  0  0  0  0  0  0  0  0  0  0
   -3.1411   -1.2874   -1.5824 H   0  0  0  0  0  0  0  0  0  0  0  0
  1  8  1  0  0  0  0
  1 22  1  0  0  0  0
  2 10  1  0  0  0  0
  2 23  1  0  0  0  0
  3 10  2  0  0  0  0
  4 12  1  0  0  0  0
  4 24  1  0  0  0  0
  5 12  2  0  0  0  0
  6  7  1  0  0  0  0
  6  8  1  0  0  0  0
  6 10  1  0  0  0  0
  6 13  1  0  0  0  0
  7  9  1  0  0  0  0
  7 14  1  0  0  0  0
  7 15  1  0  0  0  0
  8 12  1  0  0  0  0
  8 16  1  0  0  0  0
  9 11  1  0  0  0  0
  9 17  1  0  0  0  0
  9 18  1  0  0  0  0
 11 19  1  0  0  0  0
 11 20  1  0  0  0  0
 11 21  1  0  0  0  0
M  END
> <PUBCHEM_COMPOUND_CID>
439659

> <PUBCHEM_CONFORMER_RMSD>
0.6

> <PUBCHEM_CONFORMER_DIVERSEORDER>
1
29
63
59
46
60
65
48
40
66
28
47
49
73
9
67
32
69
53
74
23
33
56
52
70
17
54
18
62
38
72
19
68
71
55
43
30
64
25
61
39
8
26
2
50
51
57
6
10
45
34
36
21
41
5
35
20
22
31
24
4
58
42
12
15
27
14
44
11
13
16
7
37
3

> <PUBCHEM_MMFF94_PARTIAL_CHARGES>
12
1 -0.68
10 0.66
12 0.66
2 -0.65
22 0.4
23 0.5
24 0.5
3 -0.57
4 -0.65
5 -0.57
6 0.06
8 0.34

> <PUBCHEM_EFFECTIVE_ROTOR_COUNT>
5

> <PUBCHEM_PHARMACOPHORE_FEATURES>
9
1 1 acceptor
1 1 donor
1 11 hydrophobe
1 2 acceptor
1 3 acceptor
1 4 acceptor
1 5 acceptor
3 2 3 10 anion
3 4 5 12 anion

> <PUBCHEM_HEAVY_ATOM_COUNT>
12

> <PUBCHEM_ATOM_DEF_STEREO_COUNT>
1

> <PUBCHEM_ATOM_UDEF_STEREO_COUNT>
1

> <PUBCHEM_BOND_DEF_STEREO_COUNT>
0

> <PUBCHEM_BOND_UDEF_STEREO_COUNT>
0

> <PUBCHEM_ISOTOPIC_ATOM_COUNT>
0

> <PUBCHEM_COMPONENT_COUNT>
1

> <PUBCHEM_CACTVS_TAUTO_COUNT>
1

> <PUBCHEM_CONFORMER_ID>
0006B56B00000001

> <PUBCHEM_MMFF94_ENERGY>
9.2054

> <PUBCHEM_FEATURE_SELFOVERLAP>
45.795

> <PUBCHEM_SHAPE_FINGERPRINT>
1 1 18267867172966129604
12423570 1 11232471877596741636
13024252 1 16338043138705546154
14128692 85 18187083983362202478
16945 1 18338804394445889589
20645477 70 18341058424197544711
20653091 64 18337376219246646970
20711985 344 17622180369613830674
20871998 184 17471570400680980222
23211744 41 17201370555109993925
23552423 10 18410004412558926077
241688 4 18197498643441904416
2748010 2 18267595782535745614
5084963 1 18263070033641119540
528862 383 18337395950152597686
81228 2 17617941773906028442

> <PUBCHEM_SHAPE_MULTIPOLES>
217.61
3.74
2.55
1.08
0.19
0.6
0.01
-2.93
-0.06
-1.89
0.15
0.42
0.2
-0.2

> <PUBCHEM_SHAPE_SELFOVERLAP>
417.433

> <PUBCHEM_SHAPE_VOLUME>
132

> <PUBCHEM_COORDINATE_TYPE>
2
5
10

$$$$

