440470
  -OEChem-07051212513D

 40 41  0     1  0  0  0  0  0999 V2000
    0.5032    0.3145    0.4829 O   0  0  0  0  0  0  0  0  0  0  0  0
    3.2404    0.7905   -0.0642 O   0  0  0  0  0  0  0  0  0  0  0  0
    0.6288   -2.4201    0.0832 O   0  0  0  0  0  0  0  0  0  0  0  0
    3.4819   -2.7908    0.6655 O   0  0  0  0  0  0  0  0  0  0  0  0
   -1.5614   -0.5910   -0.1715 O   0  0  0  0  0  0  0  0  0  0  0  0
    4.8036   -0.3424    1.2501 O   0  0  0  0  0  0  0  0  0  0  0  0
   -1.3228    0.1740    2.5911 O   0  0  0  0  0  0  0  0  0  0  0  0
   -3.0809    2.7466    0.7471 O   0  0  0  0  0  0  0  0  0  0  0  0
    0.8945    2.1759   -2.3290 O   0  0  0  0  0  0  0  0  0  0  0  0
    2.1510    3.0941   -0.6635 O   0  0  0  0  0  0  0  0  0  0  0  0
   -2.8264   -2.3480   -1.5082 O   0  0  0  0  0  0  0  0  0  0  0  0
   -4.9000   -1.5372   -0.9851 O   0  0  0  0  0  0  0  0  0  0  0  0
    1.1212   -0.2008   -0.7003 C   0  0  2  0  0  0  0  0  0  0  0  0
    1.6794   -1.5951   -0.4119 C   0  0  1  0  0  0  0  0  0  0  0  0
    2.8259   -1.5246    0.6014 C   0  0  2  0  0  0  0  0  0  0  0  0
    2.2673    0.7230   -1.1010 C   0  0  1  0  0  0  0  0  0  0  0  0
    3.8600   -0.4714    0.1868 C   0  0  1  0  0  0  0  0  0  0  0  0
   -0.8783    0.5925    0.2635 C   0  0  1  0  0  0  0  0  0  0  0  0
   -1.4721    1.1531    1.5608 C   0  0  1  0  0  0  0  0  0  0  0  0
   -2.9575    1.4721    1.3721 C   0  0  2  0  0  0  0  0  0  0  0  0
    1.7903    2.1239   -1.3132 C   0  0  0  0  0  0  0  0  0  0  0  0
   -3.6300    0.4452    0.5086 C   0  0  0  0  0  0  0  0  0  0  0  0
   -2.9337   -0.4913   -0.1534 C   0  0  0  0  0  0  0  0  0  0  0  0
   -3.6842   -1.4929   -0.9118 C   0  0  0  0  0  0  0  0  0  0  0  0
    0.4034   -0.2712   -1.5284 H   0  0  0  0  0  0  0  0  0  0  0  0
    2.0416   -2.0584   -1.3381 H   0  0  0  0  0  0  0  0  0  0  0  0
    2.4240   -1.3218    1.6017 H   0  0  0  0  0  0  0  0  0  0  0  0
    2.7586    0.3892   -2.0237 H   0  0  0  0  0  0  0  0  0  0  0  0
    4.4229   -0.7857   -0.6997 H   0  0  0  0  0  0  0  0  0  0  0  0
   -0.9605    1.3515   -0.5260 H   0  0  0  0  0  0  0  0  0  0  0  0
   -0.9084    2.0375    1.8777 H   0  0  0  0  0  0  0  0  0  0  0  0
   -3.4687    1.5112    2.3407 H   0  0  0  0  0  0  0  0  0  0  0  0
   -0.0752   -2.4335   -0.5875 H   0  0  0  0  0  0  0  0  0  0  0  0
    4.2087   -2.7102    1.3066 H   0  0  0  0  0  0  0  0  0  0  0  0
   -4.7152    0.4827    0.4696 H   0  0  0  0  0  0  0  0  0  0  0  0
    4.3242   -0.3872    2.0941 H   0  0  0  0  0  0  0  0  0  0  0  0
   -1.7584   -0.6452    2.3019 H   0  0  0  0  0  0  0  0  0  0  0  0
   -2.6891    3.4057    1.3453 H   0  0  0  0  0  0  0  0  0  0  0  0
    0.5659    3.0874   -2.4816 H   0  0  0  0  0  0  0  0  0  0  0  0
   -3.2937   -3.0366   -2.0276 H   0  0  0  0  0  0  0  0  0  0  0  0
  1 13  1  0  0  0  0
  1 18  1  0  0  0  0
  2 16  1  0  0  0  0
  2 17  1  0  0  0  0
  3 14  1  0  0  0  0
  3 33  1  0  0  0  0
  4 15  1  0  0  0  0
  4 34  1  0  0  0  0
  5 18  1  0  0  0  0
  5 23  1  0  0  0  0
  6 17  1  0  0  0  0
  6 36  1  0  0  0  0
  7 19  1  0  0  0  0
  7 37  1  0  0  0  0
  8 20  1  0  0  0  0
  8 38  1  0  0  0  0
  9 21  1  0  0  0  0
  9 39  1  0  0  0  0
 10 21  2  0  0  0  0
 11 24  1  0  0  0  0
 11 40  1  0  0  0  0
 12 24  2  0  0  0  0
 13 14  1  0  0  0  0
 13 16  1  0  0  0  0
 13 25  1  0  0  0  0
 14 15  1  0  0  0  0
 14 26  1  0  0  0  0
 15 17  1  0  0  0  0
 15 27  1  0  0  0  0
 16 21  1  0  0  0  0
 16 28  1  0  0  0  0
 17 29  1  0  0  0  0
 18 19  1  0  0  0  0
 18 30  1  0  0  0  0
 19 20  1  0  0  0  0
 19 31  1  0  0  0  0
 20 22  1  0  0  0  0
 20 32  1  0  0  0  0
 22 23  2  0  0  0  0
 22 35  1  0  0  0  0
 23 24  1  0  0  0  0
M  END
> <PUBCHEM_COMPOUND_CID>
440470

> <PUBCHEM_CONFORMER_RMSD>
0.8

> <PUBCHEM_CONFORMER_DIVERSEORDER>
1
2
26
17
20
18
13
25
8
3
7
6
11
19
21
14
9
16
4
15
23
10
5
22
12
24

> <PUBCHEM_MMFF94_PARTIAL_CHARGES>
32
1 -0.56
10 -0.57
11 -0.65
12 -0.57
13 0.28
14 0.28
15 0.28
16 0.34
17 0.56
18 0.56
19 0.28
2 -0.56
20 0.42
21 0.66
22 -0.29
23 0.09
24 0.71
3 -0.68
33 0.4
34 0.4
35 0.15
36 0.4
37 0.4
38 0.4
39 0.5
4 -0.68
40 0.5
5 -0.36
6 -0.68
7 -0.68
8 -0.68
9 -0.65

> <PUBCHEM_EFFECTIVE_ROTOR_COUNT>
6

> <PUBCHEM_PHARMACOPHORE_FEATURES>
21
1 1 acceptor
1 10 acceptor
1 11 acceptor
1 12 acceptor
1 2 acceptor
1 3 acceptor
1 3 donor
1 4 acceptor
1 4 donor
1 5 acceptor
1 6 acceptor
1 6 donor
1 7 acceptor
1 7 donor
1 8 acceptor
1 8 donor
1 9 acceptor
3 11 12 24 anion
3 9 10 21 anion
6 2 13 14 15 16 17 rings
6 5 18 19 20 22 23 rings

> <PUBCHEM_HEAVY_ATOM_COUNT>
24

> <PUBCHEM_ATOM_DEF_STEREO_COUNT>
8

> <PUBCHEM_ATOM_UDEF_STEREO_COUNT>
0

> <PUBCHEM_BOND_DEF_STEREO_COUNT>
0

> <PUBCHEM_BOND_UDEF_STEREO_COUNT>
0

> <PUBCHEM_ISOTOPIC_ATOM_COUNT>
0

> <PUBCHEM_COMPONENT_COUNT>
1

> <PUBCHEM_CACTVS_TAUTO_COUNT>
1

> <PUBCHEM_CONFORMER_ID>
0006B89600000001

> <PUBCHEM_MMFF94_ENERGY>
56.1372

> <PUBCHEM_FEATURE_SELFOVERLAP>
106.812

> <PUBCHEM_SHAPE_FINGERPRINT>
10062212 137 18410289233463009505
11578080 2 18191616157376059353
11640471 11 18263341673068732785
12553582 1 17987786531813683206
12788726 201 17968363547503575747
13009979 54 18261104227220464818
13134695 92 17561083588250797252
13583140 156 17988066920422183257
13965767 371 17613135786906002904
14178342 30 18261955261930925418
14251764 3 16343434907710868515
14787075 74 17678472856948184408
16752209 62 17821721741794460919
17349148 13 18342740684770387538
17357779 13 17346320431388056124
17492 89 18334572473260619343
17980427 23 18333734611087312580
18186145 218 16630531709054771605
192875 21 18341616975286127616
20600515 1 17024026149741494856
20715895 44 18119811567794015613
21069387 34 18202844344322009243
23402539 116 17917435370947175640
23419403 2 17829937287897010364
23557571 272 16805871940321250949
23559900 14 17241598601952409734
23598291 2 18340197587416133455
312423 11 18338218398098865103
3380486 145 18128822034891088948
474 4 18200307698135383708
5161694 15 16200433550461954081
6992083 37 18121490512731246305
7471813 234 18189348895674151925
7615 1 18409439285131244013
81228 2 17124214869473115372
9981440 41 17766276475103375568

> <PUBCHEM_SHAPE_MULTIPOLES>
423.48
7.95
2.92
1.67
0.95
0.39
-0.14
-2.48
-0.57
-0.28
0.77
0.37
0.57
-2.65

> <PUBCHEM_SHAPE_SELFOVERLAP>
891.556

> <PUBCHEM_SHAPE_VOLUME>
231.3

> <PUBCHEM_COORDINATE_TYPE>
2
5
10

$$$$

