796857
  -OEChem-07051213022D

 22 22  0     0  0  0  0  0  0999 V2000
    2.8660   -2.8450    0.0000 O   0  0  0  0  0  0  0  0  0  0  0  0
    2.8660    3.1550    0.0000 O   0  0  0  0  0  0  0  0  0  0  0  0
    2.8660    0.1550    0.0000 C   0  0  0  0  0  0  0  0  0  0  0  0
    2.0000   -0.3450    0.0000 C   0  0  0  0  0  0  0  0  0  0  0  0
    3.7320   -0.3450    0.0000 C   0  0  0  0  0  0  0  0  0  0  0  0
    2.8660    1.1550    0.0000 C   0  0  0  0  0  0  0  0  0  0  0  0
    2.0000   -1.3450    0.0000 C   0  0  0  0  0  0  0  0  0  0  0  0
    3.7320   -1.3450    0.0000 C   0  0  0  0  0  0  0  0  0  0  0  0
    2.8660   -1.8450    0.0000 C   0  0  0  0  0  0  0  0  0  0  0  0
    3.7320    1.6550    0.0000 C   0  0  0  0  0  0  0  0  0  0  0  0
    3.7320    2.6550    0.0000 C   0  0  0  0  0  0  0  0  0  0  0  0
    4.5981    3.1550    0.0000 C   0  0  0  0  0  0  0  0  0  0  0  0
    1.4631   -0.0350    0.0000 H   0  0  0  0  0  0  0  0  0  0  0  0
    4.2690   -0.0350    0.0000 H   0  0  0  0  0  0  0  0  0  0  0  0
    2.3291    1.4650    0.0000 H   0  0  0  0  0  0  0  0  0  0  0  0
    1.4631   -1.6550    0.0000 H   0  0  0  0  0  0  0  0  0  0  0  0
    4.2690   -1.6550    0.0000 H   0  0  0  0  0  0  0  0  0  0  0  0
    4.2690    1.3450    0.0000 H   0  0  0  0  0  0  0  0  0  0  0  0
    4.9081    2.6181    0.0000 H   0  0  0  0  0  0  0  0  0  0  0  0
    5.1350    3.4650    0.0000 H   0  0  0  0  0  0  0  0  0  0  0  0
    4.2881    3.6919    0.0000 H   0  0  0  0  0  0  0  0  0  0  0  0
    2.3291   -3.1550    0.0000 H   0  0  0  0  0  0  0  0  0  0  0  0
  1  9  1  0  0  0  0
  1 22  1  0  0  0  0
  2 11  2  0  0  0  0
  3  4  2  0  0  0  0
  3  5  1  0  0  0  0
  3  6  1  0  0  0  0
  4  7  1  0  0  0  0
  4 13  1  0  0  0  0
  5  8  2  0  0  0  0
  5 14  1  0  0  0  0
  6 10  2  0  0  0  0
  6 15  1  0  0  0  0
  7  9  2  0  0  0  0
  7 16  1  0  0  0  0
  8  9  1  0  0  0  0
  8 17  1  0  0  0  0
 10 11  1  0  0  0  0
 10 18  1  0  0  0  0
 11 12  1  0  0  0  0
 12 19  1  0  0  0  0
 12 20  1  0  0  0  0
 12 21  1  0  0  0  0
M  END
> <PUBCHEM_COMPOUND_CID>
796857

> <PUBCHEM_COMPOUND_CANONICALIZED>
1

> <PUBCHEM_CACTVS_COMPLEXITY>
176

> <PUBCHEM_CACTVS_HBOND_ACCEPTOR>
2

> <PUBCHEM_CACTVS_HBOND_DONOR>
1

> <PUBCHEM_CACTVS_ROTATABLE_BOND>
2

> <PUBCHEM_CACTVS_SUBSKEYS>
AAADccBwMAAAAAAAAAAAAAAAAAAAAAAAAAAwAAAAAAAAAAABAAAAGgAACAAADASAmAAyBoAAAgCIAqBSAAACAAAgIAAIiAAGCMgIJiKCERKAcAAkwBEImYeAwAAOIAAAAAAAAABAAAAAAAAAAAAAAAAAAA==

> <PUBCHEM_IUPAC_OPENEYE_NAME>
(E)-4-(4-hydroxyphenyl)but-3-en-2-one

> <PUBCHEM_IUPAC_CAS_NAME>
(E)-4-(4-hydroxyphenyl)-3-buten-2-one

> <PUBCHEM_IUPAC_NAME>
(E)-4-(4-hydroxyphenyl)but-3-en-2-one

> <PUBCHEM_IUPAC_SYSTEMATIC_NAME>
(E)-4-(4-hydroxyphenyl)but-3-en-2-one

> <PUBCHEM_IUPAC_TRADITIONAL_NAME>
(E)-4-(4-hydroxyphenyl)but-3-en-2-one

> <PUBCHEM_IUPAC_INCHI>
InChI=1S/C10H10O2/c1-8(11)2-3-9-4-6-10(12)7-5-9/h2-7,12H,1H3/b3-2+

> <PUBCHEM_IUPAC_INCHIKEY>
OCNIKEFATSKIBE-NSCUHMNNSA-N

> <PUBCHEM_XLOGP3>
1.7

> <PUBCHEM_EXACT_MASS>
162.06808

> <PUBCHEM_MOLECULAR_FORMULA>
C10H10O2

> <PUBCHEM_MOLECULAR_WEIGHT>
162.1852

> <PUBCHEM_OPENEYE_CAN_SMILES>
CC(=O)C=CC1=CC=C(C=C1)O

> <PUBCHEM_OPENEYE_ISO_SMILES>
CC(=O)/C=C/C1=CC=C(C=C1)O

> <PUBCHEM_CACTVS_TPSA>
37.3

> <PUBCHEM_MONOISOTOPIC_WEIGHT>
162.06808

> <PUBCHEM_TOTAL_CHARGE>
0

> <PUBCHEM_HEAVY_ATOM_COUNT>
12

> <PUBCHEM_ATOM_DEF_STEREO_COUNT>
0

> <PUBCHEM_ATOM_UDEF_STEREO_COUNT>
0

> <PUBCHEM_BOND_DEF_STEREO_COUNT>
1

> <PUBCHEM_BOND_UDEF_STEREO_COUNT>
0

> <PUBCHEM_ISOTOPIC_ATOM_COUNT>
0

> <PUBCHEM_COMPONENT_COUNT>
1

> <PUBCHEM_CACTVS_TAUTO_COUNT>
9

> <PUBCHEM_COORDINATE_TYPE>
1
5
255

> <PUBCHEM_BONDANNOTATIONS>
3  4  8
3  5  8
4  7  8
5  8  8
7  9  8
8  9  8

$$$$

