5460111
  -OEChem-07051212513D

 30 30  0     1  0  0  0  0  0999 V2000
   -3.7360    0.0739    0.1429 P   0  0  0  0  0  0  0  0  0  0  0  0
    1.0232   -1.3910   -0.2071 O   0  0  0  0  0  0  0  0  0  0  0  0
    0.5038    1.1557   -1.3881 O   0  0  0  0  0  0  0  0  0  0  0  0
    2.5070    2.4691    0.0165 O   0  0  0  0  0  0  0  0  0  0  0  0
    3.1674   -2.2832   -0.3850 O   0  0  0  0  0  0  0  0  0  0  0  0
   -2.1610    0.1826    0.5030 O   0  0  0  0  0  0  0  0  0  0  0  0
   -4.0940   -1.4730    0.4500 O   0  0  0  0  0  0  0  0  0  0  0  0
   -3.7434    0.1437   -1.4727 O   0  0  0  0  0  0  0  0  0  0  0  0
   -4.6129    1.0830    0.8249 O   0  0  0  0  0  0  0  0  0  0  0  0
    4.2936    0.2176    0.5228 N   0  0  0  0  0  0  0  0  0  0  0  0
    0.5982    0.9862    0.0277 C   0  0  2  0  0  0  0  0  0  0  0  0
    2.0468    1.2012    0.4764 C   0  0  1  0  0  0  0  0  0  0  0  0
    2.9566    0.0910   -0.0649 C   0  0  2  0  0  0  0  0  0  0  0  0
    0.1455   -0.4310    0.3927 C   0  0  1  0  0  0  0  0  0  0  0  0
    2.3702   -1.2915    0.2604 C   0  0  1  0  0  0  0  0  0  0  0  0
   -1.2650   -0.7341   -0.0996 C   0  0  0  0  0  0  0  0  0  0  0  0
   -0.0454    1.7476    0.4808 H   0  0  0  0  0  0  0  0  0  0  0  0
    2.0734    1.2144    1.5741 H   0  0  0  0  0  0  0  0  0  0  0  0
    0.1725   -0.5521    1.4839 H   0  0  0  0  0  0  0  0  0  0  0  0
    3.0720    0.1992   -1.1509 H   0  0  0  0  0  0  0  0  0  0  0  0
    2.3908   -1.4867    1.3406 H   0  0  0  0  0  0  0  0  0  0  0  0
   -1.5382   -1.7579    0.1792 H   0  0  0  0  0  0  0  0  0  0  0  0
   -1.3271   -0.6709   -1.1912 H   0  0  0  0  0  0  0  0  0  0  0  0
    4.7274    1.0851    0.2112 H   0  0  0  0  0  0  0  0  0  0  0  0
    4.8881   -0.5364    0.1803 H   0  0  0  0  0  0  0  0  0  0  0  0
    0.9380    0.3990   -1.8165 H   0  0  0  0  0  0  0  0  0  0  0  0
    3.3816    2.6251    0.4106 H   0  0  0  0  0  0  0  0  0  0  0  0
    3.0558   -3.1088    0.1160 H   0  0  0  0  0  0  0  0  0  0  0  0
   -5.0256   -1.7693    0.3704 H   0  0  0  0  0  0  0  0  0  0  0  0
   -4.6037    0.1888   -1.9418 H   0  0  0  0  0  0  0  0  0  0  0  0
  1  6  1  0  0  0  0
  1  7  1  0  0  0  0
  1  8  1  0  0  0  0
  1  9  2  0  0  0  0
  2 14  1  0  0  0  0
  2 15  1  0  0  0  0
  3 11  1  0  0  0  0
  3 26  1  0  0  0  0
  4 12  1  0  0  0  0
  4 27  1  0  0  0  0
  5 15  1  0  0  0  0
  5 28  1  0  0  0  0
  6 16  1  0  0  0  0
  7 29  1  0  0  0  0
  8 30  1  0  0  0  0
 10 13  1  0  0  0  0
 10 24  1  0  0  0  0
 10 25  1  0  0  0  0
 11 12  1  0  0  0  0
 11 14  1  0  0  0  0
 11 17  1  0  0  0  0
 12 13  1  0  0  0  0
 12 18  1  0  0  0  0
 13 15  1  0  0  0  0
 13 20  1  0  0  0  0
 14 16  1  0  0  0  0
 14 19  1  0  0  0  0
 15 21  1  0  0  0  0
 16 22  1  0  0  0  0
 16 23  1  0  0  0  0
M  END
> <PUBCHEM_COMPOUND_CID>
5460111

> <PUBCHEM_CONFORMER_RMSD>
0.6

> <PUBCHEM_CONFORMER_DIVERSEORDER>
2
33
30
13
29
1
36
35
14
28
25
26
4
6
15
17
34
3
37
11
18
32
27
9
23
5
8
10
12
22
20
24
31
21
16
19
7

> <PUBCHEM_MMFF94_PARTIAL_CHARGES>
23
1 1.51
10 -0.99
11 0.28
12 0.28
13 0.27
14 0.28
15 0.56
16 0.28
2 -0.56
24 0.36
25 0.36
26 0.4
27 0.4
28 0.4
29 0.5
3 -0.68
30 0.5
4 -0.68
5 -0.68
6 -0.55
7 -0.77
8 -0.77
9 -0.7

> <PUBCHEM_EFFECTIVE_ROTOR_COUNT>
4.2

> <PUBCHEM_PHARMACOPHORE_FEATURES>
14
1 10 cation
1 10 donor
1 2 acceptor
1 3 acceptor
1 3 donor
1 4 acceptor
1 4 donor
1 5 acceptor
1 5 donor
1 7 acceptor
1 8 acceptor
1 9 acceptor
4 1 7 8 9 anion
6 2 11 12 13 14 15 rings

> <PUBCHEM_HEAVY_ATOM_COUNT>
16

> <PUBCHEM_ATOM_DEF_STEREO_COUNT>
4

> <PUBCHEM_ATOM_UDEF_STEREO_COUNT>
1

> <PUBCHEM_BOND_DEF_STEREO_COUNT>
0

> <PUBCHEM_BOND_UDEF_STEREO_COUNT>
0

> <PUBCHEM_ISOTOPIC_ATOM_COUNT>
0

> <PUBCHEM_COMPONENT_COUNT>
1

> <PUBCHEM_CACTVS_TAUTO_COUNT>
1

> <PUBCHEM_CONFORMER_ID>
0053508F00000002

> <PUBCHEM_MMFF94_ENERGY>
-3.5063

> <PUBCHEM_FEATURE_SELFOVERLAP>
71.138

> <PUBCHEM_SHAPE_FINGERPRINT>
10465860 228 18409724045541651833
10608611 8 18342178838998035865
10980938 120 18409169896202748448
11471102 20 18410578396425800998
12346645 6 18333731325553213302
12932764 1 17561369504365986515
13922767 16 18411139129901888592
14251717 144 18409172116595598814
14252887 29 18343017813551353058
14325111 11 18409728426808863129
15442244 35 18191300679089758809
15501101 241 18343301478824195452
16945 1 18409725149859592456
18186145 218 18202283628105042227
200 152 18186811262177570647
20645477 70 18336266833500204631
20871998 22 18265332996565229018
22854114 111 18337670815206197433
23402539 116 17167867465127990337
23402655 69 18261114101455558757
23557571 272 17703515424303907813
2748010 2 17979349768877503434
5104073 3 18410291415401420067
581208 293 18409172086630827112

> <PUBCHEM_SHAPE_MULTIPOLES>
281.19
8.19
1.86
0.9
6.85
0
-0.24
0.2
0.86
-1.52
-0.06
0.49
-0.15
0.11

> <PUBCHEM_SHAPE_SELFOVERLAP>
547.477

> <PUBCHEM_SHAPE_VOLUME>
170.3

> <PUBCHEM_COORDINATE_TYPE>
2
5
10

$$$$

