14414
  -OEChem-06241222433D

 49 50  0     1  0  0  0  0  0999 V2000
    0.2458   -0.3574   -1.7682 O   0  0  0  0  0  0  0  0  0  0  0  0
   -2.5226    2.7458    0.2619 O   0  0  0  0  0  0  0  0  0  0  0  0
    0.8866    0.8909    2.6641 O   0  0  0  0  0  0  0  0  0  0  0  0
    0.5448    0.1195    0.4882 N   0  0  0  0  0  0  0  0  0  0  0  0
   -0.8782    1.7206    1.4784 N   0  0  0  0  0  0  0  0  0  0  0  0
    4.2063   -0.5302    0.1197 N   0  0  0  0  0  0  0  0  0  0  0  0
   -1.6205    0.6546   -0.6011 C   0  0  2  0  0  0  0  0  0  0  0  0
   -2.0108    1.1767   -2.0064 C   0  0  0  0  0  0  0  0  0  0  0  0
   -0.1871    0.1083   -0.7111 C   0  0  0  0  0  0  0  0  0  0  0  0
   -2.6260   -0.4455   -0.1900 C   0  0  0  0  0  0  0  0  0  0  0  0
   -1.7223    1.8191    0.3868 C   0  0  0  0  0  0  0  0  0  0  0  0
    1.7961   -0.6292    0.5215 C   0  0  0  0  0  0  0  0  0  0  0  0
    2.9631    0.2268    0.0516 C   0  0  0  0  0  0  0  0  0  0  0  0
    0.2260    0.8879    1.6221 C   0  0  0  0  0  0  0  0  0  0  0  0
   -1.0416    2.2373   -2.4817 C   0  0  0  0  0  0  0  0  0  0  0  0
   -3.9824   -0.1503   -0.1398 C   0  0  0  0  0  0  0  0  0  0  0  0
   -2.1615   -1.7163    0.1240 C   0  0  0  0  0  0  0  0  0  0  0  0
    5.3342    0.2876   -0.3312 C   0  0  0  0  0  0  0  0  0  0  0  0
    4.1123   -1.7509   -0.6836 C   0  0  0  0  0  0  0  0  0  0  0  0
   -4.8897   -1.1428    0.2309 C   0  0  0  0  0  0  0  0  0  0  0  0
   -3.0690   -2.7088    0.4946 C   0  0  0  0  0  0  0  0  0  0  0  0
    5.4514    1.5611    0.4890 C   0  0  0  0  0  0  0  0  0  0  0  0
    5.3781   -2.5831   -0.5677 C   0  0  0  0  0  0  0  0  0  0  0  0
   -4.4330   -2.4219    0.5480 C   0  0  0  0  0  0  0  0  0  0  0  0
   -2.0334    0.3566   -2.7365 H   0  0  0  0  0  0  0  0  0  0  0  0
   -3.0159    1.6158   -2.0145 H   0  0  0  0  0  0  0  0  0  0  0  0
    1.9732   -0.9910    1.5418 H   0  0  0  0  0  0  0  0  0  0  0  0
    1.6297   -1.5041   -0.1118 H   0  0  0  0  0  0  0  0  0  0  0  0
    2.7763    0.5986   -0.9647 H   0  0  0  0  0  0  0  0  0  0  0  0
    2.9956    1.1009    0.7106 H   0  0  0  0  0  0  0  0  0  0  0  0
   -1.0310    2.3902    2.2274 H   0  0  0  0  0  0  0  0  0  0  0  0
   -1.3840    2.6261   -3.4478 H   0  0  0  0  0  0  0  0  0  0  0  0
   -0.0267    1.8677   -2.6458 H   0  0  0  0  0  0  0  0  0  0  0  0
   -0.9831    3.0942   -1.8046 H   0  0  0  0  0  0  0  0  0  0  0  0
   -4.3655    0.8380   -0.3735 H   0  0  0  0  0  0  0  0  0  0  0  0
   -1.1151   -1.9963    0.0948 H   0  0  0  0  0  0  0  0  0  0  0  0
    5.2563    0.5417   -1.3959 H   0  0  0  0  0  0  0  0  0  0  0  0
    6.2793   -0.2456   -0.1859 H   0  0  0  0  0  0  0  0  0  0  0  0
    3.8982   -1.5369   -1.7381 H   0  0  0  0  0  0  0  0  0  0  0  0
    3.3298   -2.4163   -0.3109 H   0  0  0  0  0  0  0  0  0  0  0  0
   -5.9517   -0.9194    0.2744 H   0  0  0  0  0  0  0  0  0  0  0  0
   -2.7143   -3.7055    0.7407 H   0  0  0  0  0  0  0  0  0  0  0  0
    6.4230    2.0309    0.2974 H   0  0  0  0  0  0  0  0  0  0  0  0
    5.3947    1.3602    1.5644 H   0  0  0  0  0  0  0  0  0  0  0  0
    4.6918    2.3027    0.2227 H   0  0  0  0  0  0  0  0  0  0  0  0
    5.1993   -3.5834   -0.9784 H   0  0  0  0  0  0  0  0  0  0  0  0
    5.6875   -2.7102    0.4755 H   0  0  0  0  0  0  0  0  0  0  0  0
    6.2111   -2.1592   -1.1371 H   0  0  0  0  0  0  0  0  0  0  0  0
   -5.1394   -3.1946    0.8368 H   0  0  0  0  0  0  0  0  0  0  0  0
  1  9  2  0  0  0  0
  2 11  2  0  0  0  0
  3 14  2  0  0  0  0
  4  9  1  0  0  0  0
  4 12  1  0  0  0  0
  4 14  1  0  0  0  0
  5 11  1  0  0  0  0
  5 14  1  0  0  0  0
  5 31  1  0  0  0  0
  6 13  1  0  0  0  0
  6 18  1  0  0  0  0
  6 19  1  0  0  0  0
  7  8  1  0  0  0  0
  7  9  1  0  0  0  0
  7 10  1  0  0  0  0
  7 11  1  0  0  0  0
  8 15  1  0  0  0  0
  8 25  1  0  0  0  0
  8 26  1  0  0  0  0
 10 16  2  0  0  0  0
 10 17  1  0  0  0  0
 12 13  1  0  0  0  0
 12 27  1  0  0  0  0
 12 28  1  0  0  0  0
 13 29  1  0  0  0  0
 13 30  1  0  0  0  0
 15 32  1  0  0  0  0
 15 33  1  0  0  0  0
 15 34  1  0  0  0  0
 16 20  1  0  0  0  0
 16 35  1  0  0  0  0
 17 21  2  0  0  0  0
 17 36  1  0  0  0  0
 18 22  1  0  0  0  0
 18 37  1  0  0  0  0
 18 38  1  0  0  0  0
 19 23  1  0  0  0  0
 19 39  1  0  0  0  0
 19 40  1  0  0  0  0
 20 24  2  0  0  0  0
 20 41  1  0  0  0  0
 21 24  1  0  0  0  0
 21 42  1  0  0  0  0
 22 43  1  0  0  0  0
 22 44  1  0  0  0  0
 22 45  1  0  0  0  0
 23 46  1  0  0  0  0
 23 47  1  0  0  0  0
 23 48  1  0  0  0  0
 24 49  1  0  0  0  0
M  END
> <PUBCHEM_COMPOUND_CID>
14414

> <PUBCHEM_CONFORMER_RMSD>
0.8

> <PUBCHEM_CONFORMER_DIVERSEORDER>
1
104
48
40
7
89
64
134
126
82
129
131
76
101
95
71
109
97
77
122
45
128
69
80
114
127
121
136
93
130
138
118
123
107
58
83
135
10
137
139
119
85
38
55
78
63
111
59
113
14
105
75
56
62
42
53
79
88
22
133
102
54
99
41
117
125
96
72
17
106
57
44
15
86
92
39
68
90
3
98
49
103
116
13
61
67
115
73
28
5
132
37
120
36
100
84
87
24
112
16
81
66
35
60
51
18
6
94
110
4
8
50
2
31
33
34
91
124
47
108
27
43
46
12
52
23
11
29
65
21
19
32
20
25
74
70
30
9
26

> <PUBCHEM_MMFF94_PARTIAL_CHARGES>
26
1 -0.57
10 -0.14
11 0.57
12 0.3
13 0.27
14 0.69
16 -0.15
17 -0.15
18 0.27
19 0.27
2 -0.57
20 -0.15
21 -0.15
24 -0.15
3 -0.57
31 0.37
35 0.15
36 0.15
4 -0.42
41 0.15
42 0.15
49 0.15
5 -0.49
6 -0.81
7 0.27
9 0.57

> <PUBCHEM_EFFECTIVE_ROTOR_COUNT>
7.6

> <PUBCHEM_PHARMACOPHORE_FEATURES>
8
1 1 acceptor
1 15 hydrophobe
1 2 acceptor
1 3 acceptor
1 5 donor
1 6 cation
6 10 16 17 20 21 24 rings
6 4 5 7 9 11 14 rings

> <PUBCHEM_HEAVY_ATOM_COUNT>
24

> <PUBCHEM_ATOM_DEF_STEREO_COUNT>
0

> <PUBCHEM_ATOM_UDEF_STEREO_COUNT>
1

> <PUBCHEM_BOND_DEF_STEREO_COUNT>
0

> <PUBCHEM_BOND_UDEF_STEREO_COUNT>
0

> <PUBCHEM_ISOTOPIC_ATOM_COUNT>
0

> <PUBCHEM_COMPONENT_COUNT>
1

> <PUBCHEM_CACTVS_TAUTO_COUNT>
3

> <PUBCHEM_CONFORMER_ID>
0000384E00000001

> <PUBCHEM_MMFF94_ENERGY>
61.6393

> <PUBCHEM_FEATURE_SELFOVERLAP>
40.594

> <PUBCHEM_SHAPE_FINGERPRINT>
10369192 42 17758695351542229144
12011746 2 18187652388504234463
121448 382 17561368370072523658
12553582 1 16370731443933304460
12633257 1 16878493528449017795
12714826 92 18339655489623898955
12760667 363 18259983803291702159
12916754 54 18341890835876542956
13103583 49 17459170925035563275
13544653 18 18338227176727545179
14251740 79 18342169020397427226
14251764 30 18335135345878034467
14910302 57 18272093837682421694
15537594 2 16732986401817874148
15961568 22 17631730453553049236
16945 1 18337653305283784829
17349148 13 15338844166258339136
17492 89 18188485891391165678
1813 80 17988639645241115759
192875 21 14764354829676686694
19930381 70 18122907521485829788
200 152 16343708715928037933
20600515 1 18268977727297897167
20723712 36 14635413958394044291
21033650 10 17202196507955459452
22393880 68 18058735839875045026
23352939 185 18272082743222967301
23402539 116 16558757797163515908
23557571 272 18202290173471800916
23559900 14 18410580560767629905
23598288 3 17241599697106033192
3759504 43 18120091947105653329
4058900 60 17542497692861718233
497634 4 18340197574921628316
5104073 3 18114463465789569114
531348 171 17414999346980920062

> <PUBCHEM_SHAPE_MULTIPOLES>
461.36
10.7
2.82
1.71
12.61
0.51
0.01
6.02
0.38
-1.2
0.36
-0.09
-1.15
1.54

> <PUBCHEM_SHAPE_SELFOVERLAP>
961.652

> <PUBCHEM_SHAPE_VOLUME>
260.5

> <PUBCHEM_COORDINATE_TYPE>
2
5
10

$$$$

