5227
  -OEChem-06261200353D

 28 27  0     0  0  0  0  0  0999 V2000
    2.2141    0.3823    0.9112 S   0  0  0  0  0  0  0  0  0  0  0  0
   -3.2268   -0.0593    0.4133 N   0  0  0  0  0  0  0  0  0  0  0  0
    4.6802    0.8477    0.1044 N   0  0  0  0  0  0  0  0  0  0  0  0
    3.8911   -1.3554   -0.2145 N   0  0  0  0  0  0  0  0  0  0  0  0
   -1.3684    0.2070   -1.1620 C   0  0  0  0  0  0  0  0  0  0  0  0
   -2.7772    0.6544   -0.7760 C   0  0  0  0  0  0  0  0  0  0  0  0
   -0.3722    0.4756   -0.0300 C   0  0  0  0  0  0  0  0  0  0  0  0
    1.0393    0.0596   -0.4350 C   0  0  0  0  0  0  0  0  0  0  0  0
   -3.2723   -1.5010    0.1629 C   0  0  0  0  0  0  0  0  0  0  0  0
   -4.5417    0.4237    0.8384 C   0  0  0  0  0  0  0  0  0  0  0  0
    3.7339   -0.1347    0.1871 C   0  0  0  0  0  0  0  0  0  0  0  0
   -1.0619    0.7878   -2.0421 H   0  0  0  0  0  0  0  0  0  0  0  0
   -1.3336   -0.8406   -1.4793 H   0  0  0  0  0  0  0  0  0  0  0  0
   -3.4560    0.4932   -1.6234 H   0  0  0  0  0  0  0  0  0  0  0  0
   -2.7597    1.7341   -0.5799 H   0  0  0  0  0  0  0  0  0  0  0  0
   -0.6612   -0.0766    0.8720 H   0  0  0  0  0  0  0  0  0  0  0  0
   -0.3899    1.5440    0.2205 H   0  0  0  0  0  0  0  0  0  0  0  0
    1.0563   -1.0071   -0.6804 H   0  0  0  0  0  0  0  0  0  0  0  0
    1.3599    0.6171   -1.3214 H   0  0  0  0  0  0  0  0  0  0  0  0
   -2.2732   -1.9380    0.0751 H   0  0  0  0  0  0  0  0  0  0  0  0
   -3.8539   -1.7516   -0.7319 H   0  0  0  0  0  0  0  0  0  0  0  0
   -3.7325   -2.0192    1.0132 H   0  0  0  0  0  0  0  0  0  0  0  0
   -4.8551   -0.0739    1.7629 H   0  0  0  0  0  0  0  0  0  0  0  0
   -5.3108    0.2540    0.0761 H   0  0  0  0  0  0  0  0  0  0  0  0
   -4.5048    1.4964    1.0590 H   0  0  0  0  0  0  0  0  0  0  0  0
    5.5948    0.6660   -0.2942 H   0  0  0  0  0  0  0  0  0  0  0  0
    4.4947    1.7874    0.4380 H   0  0  0  0  0  0  0  0  0  0  0  0
    3.0337   -1.8843   -0.0243 H   0  0  0  0  0  0  0  0  0  0  0  0
  1  8  1  0  0  0  0
  1 11  1  0  0  0  0
  2  6  1  0  0  0  0
  2  9  1  0  0  0  0
  2 10  1  0  0  0  0
  3 11  1  0  0  0  0
  3 26  1  0  0  0  0
  3 27  1  0  0  0  0
  4 11  2  0  0  0  0
  4 28  1  0  0  0  0
  5  6  1  0  0  0  0
  5  7  1  0  0  0  0
  5 12  1  0  0  0  0
  5 13  1  0  0  0  0
  6 14  1  0  0  0  0
  6 15  1  0  0  0  0
  7  8  1  0  0  0  0
  7 16  1  0  0  0  0
  7 17  1  0  0  0  0
  8 18  1  0  0  0  0
  8 19  1  0  0  0  0
  9 20  1  0  0  0  0
  9 21  1  0  0  0  0
  9 22  1  0  0  0  0
 10 23  1  0  0  0  0
 10 24  1  0  0  0  0
 10 25  1  0  0  0  0
M  END
> <PUBCHEM_COMPOUND_CID>
5227

> <PUBCHEM_CONFORMER_RMSD>
0.6

> <PUBCHEM_CONFORMER_DIVERSEORDER>
28
63
23
1
97
69
42
67
4
76
18
9
99
55
91
22
17
96
92
50
29
70
93
40
98
25
12
5
74
26
53
11
19
80
57
35
32
88
90
60
95
39
16
85
84
79
87
89
6
44
8
82
48
100
34
62
49
41
77
75
58
47
24
36
56
21
15
65
81
68
59
31
51
52
10
2
45
38
66
61
86
13
94
71
72
14
7
30
64
73
83
78
37
54
43
27
46
3
33
20

> <PUBCHEM_MMFF94_PARTIAL_CHARGES>
12
1 -0.37
10 0.27
11 0.64
2 -0.81
26 0.4
27 0.4
28 0.4
3 -0.85
4 -0.85
6 0.27
8 0.23
9 0.27

> <PUBCHEM_EFFECTIVE_ROTOR_COUNT>
6

> <PUBCHEM_PHARMACOPHORE_FEATURES>
5
1 2 cation
1 3 donor
1 4 donor
3 3 4 11 cation
4 1 5 7 8 hydrophobe

> <PUBCHEM_HEAVY_ATOM_COUNT>
11

> <PUBCHEM_ATOM_DEF_STEREO_COUNT>
0

> <PUBCHEM_ATOM_UDEF_STEREO_COUNT>
0

> <PUBCHEM_BOND_DEF_STEREO_COUNT>
0

> <PUBCHEM_BOND_UDEF_STEREO_COUNT>
0

> <PUBCHEM_ISOTOPIC_ATOM_COUNT>
0

> <PUBCHEM_COMPONENT_COUNT>
1

> <PUBCHEM_CACTVS_TAUTO_COUNT>
1

> <PUBCHEM_CONFORMER_ID>
0000146B0000001C

> <PUBCHEM_MMFF94_ENERGY>
16.4172

> <PUBCHEM_FEATURE_SELFOVERLAP>
25.41

> <PUBCHEM_SHAPE_FINGERPRINT>
10680689 15 17918276467277620725
114248 4 10231750081180866761
11987891 27 15626231216806910960
124424 183 17167865270468053169
12932764 1 17703525336349967833
14123238 8 17846499210324389532
14251717 144 13183022934348633032
14252887 29 18060135462099425336
17834072 8 5039957342751164072
17834074 16 18413107273043514026
18342897 14 17676204667317939752
190213 19 18273501182226682908
200 152 12967134903881105902
20300324 65 9295288331391562123
20645464 45 17968092023876315351
20645477 70 18114755948440489638
20671657 53 14620793799218250558
20828058 21 17704075113881201132
20828058 44 18413392025085189042
21061003 4 18412549799416027325
21293036 1 12175619577210999069
22169311 14 18186239515735403859
22485316 2 18343868822339230330
23402539 116 13398641553859024278
42 15 18260546744575398478
42627469 27 14634865319155556303
449060 50 18412829054094904612
53428517 58 13614520761994012264
6430166 295 15863789521249962401

> <PUBCHEM_SHAPE_MULTIPOLES>
215.28
9.95
1.11
0.99
3.31
0.41
0.03
0.55
-1.88
-0.1
0.01
-0.44
-0.12
0.28

> <PUBCHEM_SHAPE_SELFOVERLAP>
379.762

> <PUBCHEM_SHAPE_VOLUME>
142.6

> <PUBCHEM_COORDINATE_TYPE>
2
5
10

$$$$

