111253
  -OEChem-07051212472D

 78 82  0     1  0  0  0  0  0999 V2000
    4.7950    0.5289    0.0000 O   0  0  0  0  0  0  0  0  0  0  0  0
    2.0000   -3.0234    0.0000 O   0  0  0  0  0  0  0  0  0  0  0  0
   10.6830    3.0886    0.0000 O   0  0  0  0  0  0  0  0  0  0  0  0
    9.1731    3.9372    0.0000 O   0  0  0  0  0  0  0  0  0  0  0  0
    6.5271   -1.4710    0.0000 C   0  0  1  0  0  0  0  0  0  0  0  0
    7.3931   -0.9711    0.0000 C   0  0  1  0  0  0  0  0  0  0  0  0
    5.6610   -0.9711    0.0000 C   0  0  1  0  0  0  0  0  0  0  0  0
    4.7510   -1.4779    0.0000 C   0  0  2  0  0  0  0  0  0  0  0  0
    4.7430   -2.5195    0.0000 C   0  0  1  0  0  0  0  0  0  0  0  0
    6.5431   -2.5126    0.0000 C   0  0  0  0  0  0  0  0  0  0  0  0
    7.3931    0.0289    0.0000 C   0  0  0  0  0  0  0  0  0  0  0  0
    8.2870    0.5636    0.0000 C   0  0  1  0  0  0  0  0  0  0  0  0
    9.1931    0.0498    0.0000 C   0  0  1  0  0  0  0  0  0  0  0  0
    8.2870   -1.5057    0.0000 C   0  0  0  0  0  0  0  0  0  0  0  0
    5.6451   -3.0403    0.0000 C   0  0  0  0  0  0  0  0  0  0  0  0
    3.8076   -3.0692    0.0000 C   0  0  0  0  0  0  0  0  0  0  0  0
    9.1931   -0.9919    0.0000 C   0  0  0  0  0  0  0  0  0  0  0  0
    3.8242   -0.9138    0.0000 C   0  0  0  0  0  0  0  0  0  0  0  0
    7.1698   -2.2371    0.0000 C   0  0  0  0  0  0  0  0  0  0  0  0
    5.6610    0.0289    0.0000 C   0  0  0  0  0  0  0  0  0  0  0  0
    7.7352   -1.9107    0.0000 C   0  0  0  0  0  0  0  0  0  0  0  0
    8.2619    1.6483    0.0000 C   0  0  0  0  0  0  0  0  0  0  0  0
    6.5271    0.5289    0.0000 C   0  0  0  0  0  0  0  0  0  0  0  0
   10.1369    0.5850    0.0000 C   0  0  0  0  0  0  0  0  0  0  0  0
    4.7587   -0.4779    0.0000 C   0  0  0  0  0  0  0  0  0  0  0  0
    9.1931    2.2052    0.0000 C   0  0  1  0  0  0  0  0  0  0  0  0
    2.8763   -1.4418    0.0000 C   0  0  0  0  0  0  0  0  0  0  0  0
   10.1369    1.6700    0.0000 C   0  0  0  0  0  0  0  0  0  0  0  0
    2.8680   -2.5267    0.0000 C   0  0  0  0  0  0  0  0  0  0  0  0
   10.0629   -0.4435    0.0000 C   0  0  0  0  0  0  0  0  0  0  0  0
    3.3109   -3.9372    0.0000 C   0  0  0  0  0  0  0  0  0  0  0  0
    4.3109   -3.9333    0.0000 C   0  0  0  0  0  0  0  0  0  0  0  0
    8.6831    3.0654    0.0000 C   0  0  0  0  0  0  0  0  0  0  0  0
    9.6830    3.0770    0.0000 C   0  0  0  0  0  0  0  0  0  0  0  0
    6.3972   -0.5461    0.0000 H   0  0  0  0  0  0  0  0  0  0  0  0
    4.7463   -3.3695    0.0000 H   0  0  0  0  0  0  0  0  0  0  0  0
    6.7612   -3.0930    0.0000 H   0  0  0  0  0  0  0  0  0  0  0  0
    7.1523   -2.3971    0.0000 H   0  0  0  0  0  0  0  0  0  0  0  0
    9.0165    0.9999    0.0000 H   0  0  0  0  0  0  0  0  0  0  0  0
    7.8824   -1.9755    0.0000 H   0  0  0  0  0  0  0  0  0  0  0  0
    8.6806   -1.9847    0.0000 H   0  0  0  0  0  0  0  0  0  0  0  0
    5.2478   -3.5163    0.0000 H   0  0  0  0  0  0  0  0  0  0  0  0
    6.0460   -3.5132    0.0000 H   0  0  0  0  0  0  0  0  0  0  0  0
    9.4022   -1.5756    0.0000 H   0  0  0  0  0  0  0  0  0  0  0  0
    9.8040   -0.8858    0.0000 H   0  0  0  0  0  0  0  0  0  0  0  0
    4.2324   -0.4472    0.0000 H   0  0  0  0  0  0  0  0  0  0  0  0
    3.4343   -0.4318    0.0000 H   0  0  0  0  0  0  0  0  0  0  0  0
    6.6949   -2.6356    0.0000 H   0  0  0  0  0  0  0  0  0  0  0  0
    7.5684   -2.7120    0.0000 H   0  0  0  0  0  0  0  0  0  0  0  0
    7.6448   -1.8386    0.0000 H   0  0  0  0  0  0  0  0  0  0  0  0
    7.1526   -2.1228    0.0000 H   0  0  0  0  0  0  0  0  0  0  0  0
    7.9473   -2.4933    0.0000 H   0  0  0  0  0  0  0  0  0  0  0  0
    8.3178   -1.6986    0.0000 H   0  0  0  0  0  0  0  0  0  0  0  0
    8.0394    2.2270    0.0000 H   0  0  0  0  0  0  0  0  0  0  0  0
    7.6537    1.5281    0.0000 H   0  0  0  0  0  0  0  0  0  0  0  0
    6.5271    1.1490    0.0000 H   0  0  0  0  0  0  0  0  0  0  0  0
   10.3459    0.0013    0.0000 H   0  0  0  0  0  0  0  0  0  0  0  0
   10.7477    0.6911    0.0000 H   0  0  0  0  0  0  0  0  0  0  0  0
    5.3787   -0.4827    0.0000 H   0  0  0  0  0  0  0  0  0  0  0  0
    4.7635    0.1421    0.0000 H   0  0  0  0  0  0  0  0  0  0  0  0
    4.1388   -0.4731    0.0000 H   0  0  0  0  0  0  0  0  0  0  0  0
    2.6718   -0.8565    0.0000 H   0  0  0  0  0  0  0  0  0  0  0  0
    2.2647   -1.5431    0.0000 H   0  0  0  0  0  0  0  0  0  0  0  0
   10.7477    1.5639    0.0000 H   0  0  0  0  0  0  0  0  0  0  0  0
   10.3459    2.2537    0.0000 H   0  0  0  0  0  0  0  0  0  0  0  0
    9.7571   -0.9829    0.0000 H   0  0  0  0  0  0  0  0  0  0  0  0
   10.6023   -0.7494    0.0000 H   0  0  0  0  0  0  0  0  0  0  0  0
   10.3688    0.0958    0.0000 H   0  0  0  0  0  0  0  0  0  0  0  0
    2.7728   -3.6292    0.0000 H   0  0  0  0  0  0  0  0  0  0  0  0
    3.0030   -4.4753    0.0000 H   0  0  0  0  0  0  0  0  0  0  0  0
    3.8490   -4.2451    0.0000 H   0  0  0  0  0  0  0  0  0  0  0  0
    3.7752   -4.2454    0.0000 H   0  0  0  0  0  0  0  0  0  0  0  0
    4.6230   -4.4690    0.0000 H   0  0  0  0  0  0  0  0  0  0  0  0
    4.8466   -3.6212    0.0000 H   0  0  0  0  0  0  0  0  0  0  0  0
    9.2164    3.3816    0.0000 H   0  0  0  0  0  0  0  0  0  0  0  0
    8.3669    3.5987    0.0000 H   0  0  0  0  0  0  0  0  0  0  0  0
    8.1498    2.7492    0.0000 H   0  0  0  0  0  0  0  0  0  0  0  0
   10.9867    3.6290    0.0000 H   0  0  0  0  0  0  0  0  0  0  0  0
  1 20  2  0  0  0  0
  2 29  2  0  0  0  0
  3 34  1  0  0  0  0
  3 78  1  0  0  0  0
  4 34  2  0  0  0  0
  5  6  1  0  0  0  0
  5  7  1  0  0  0  0
  5 10  1  0  0  0  0
  5 19  1  1  0  0  0
  6 11  1  0  0  0  0
  6 14  1  0  0  0  0
  6 21  1  6  0  0  0
  7  8  1  0  0  0  0
  7 20  1  0  0  0  0
  7 35  1  6  0  0  0
  8  9  1  0  0  0  0
  8 18  1  0  0  0  0
  8 25  1  1  0  0  0
  9 15  1  0  0  0  0
  9 16  1  0  0  0  0
  9 36  1  6  0  0  0
 10 15  1  0  0  0  0
 10 37  1  0  0  0  0
 10 38  1  0  0  0  0
 11 12  1  0  0  0  0
 11 23  2  0  0  0  0
 12 13  1  0  0  0  0
 12 22  1  0  0  0  0
 12 39  1  1  0  0  0
 13 17  1  0  0  0  0
 13 24  1  0  0  0  0
 13 30  1  1  0  0  0
 14 17  1  0  0  0  0
 14 40  1  0  0  0  0
 14 41  1  0  0  0  0
 15 42  1  0  0  0  0
 15 43  1  0  0  0  0
 16 29  1  0  0  0  0
 16 31  1  0  0  0  0
 16 32  1  0  0  0  0
 17 44  1  0  0  0  0
 17 45  1  0  0  0  0
 18 27  1  0  0  0  0
 18 46  1  0  0  0  0
 18 47  1  0  0  0  0
 19 48  1  0  0  0  0
 19 49  1  0  0  0  0
 19 50  1  0  0  0  0
 20 23  1  0  0  0  0
 21 51  1  0  0  0  0
 21 52  1  0  0  0  0
 21 53  1  0  0  0  0
 22 26  1  0  0  0  0
 22 54  1  0  0  0  0
 22 55  1  0  0  0  0
 23 56  1  0  0  0  0
 24 28  1  0  0  0  0
 24 57  1  0  0  0  0
 24 58  1  0  0  0  0
 25 59  1  0  0  0  0
 25 60  1  0  0  0  0
 25 61  1  0  0  0  0
 26 28  1  0  0  0  0
 26 33  1  6  0  0  0
 26 34  1  0  0  0  0
 27 29  1  0  0  0  0
 27 62  1  0  0  0  0
 27 63  1  0  0  0  0
 28 64  1  0  0  0  0
 28 65  1  0  0  0  0
 30 66  1  0  0  0  0
 30 67  1  0  0  0  0
 30 68  1  0  0  0  0
 31 69  1  0  0  0  0
 31 70  1  0  0  0  0
 31 71  1  0  0  0  0
 32 72  1  0  0  0  0
 32 73  1  0  0  0  0
 32 74  1  0  0  0  0
 33 75  1  0  0  0  0
 33 76  1  0  0  0  0
 33 77  1  0  0  0  0
M  END
> <PUBCHEM_COMPOUND_CID>
111253

> <PUBCHEM_COMPOUND_CANONICALIZED>
1

> <PUBCHEM_CACTVS_COMPLEXITY>
1010

> <PUBCHEM_CACTVS_HBOND_ACCEPTOR>
4

> <PUBCHEM_CACTVS_HBOND_DONOR>
1

> <PUBCHEM_CACTVS_ROTATABLE_BOND>
1

> <PUBCHEM_CACTVS_SUBSKEYS>
AAADcfB4OAAAAAAAAAAAAAAAAAAAAAAAAAAwYMGCAAAAAADAAAAAGgAACAAADwSAgAACCAAAAgCIAqDSCAAAAAAgAAAACAEAAEgAABIAAQAAQAAEgAAIAQOIyPCPgAAAAAAAAACAAAQAACAAAAAAAAAAAA==

> <PUBCHEM_IUPAC_OPENEYE_NAME>
(2S,4aS,6aR,6aS,6bR,8aR,12aS,14bR)-2,4a,6a,6b,9,9,12a-heptamethyl-10,13-dioxo-1,3,4,5,6,6a,7,8,8a,11,12,14b-dodecahydropicene-2-carboxylic acid

> <PUBCHEM_IUPAC_CAS_NAME>
(2S,4aS,6aR,6aS,6bR,8aR,12aS,14bR)-2,4a,6a,6b,9,9,12a-heptamethyl-10,13-dioxo-1,3,4,5,6,6a,7,8,8a,11,12,14b-dodecahydropicene-2-carboxylic acid

> <PUBCHEM_IUPAC_NAME>
(2S,4aS,6aR,6aS,6bR,8aR,12aS,14bR)-2,4a,6a,6b,9,9,12a-heptamethyl-10,13-dioxo-1,3,4,5,6,6a,7,8,8a,11,12,14b-dodecahydropicene-2-carboxylic acid

> <PUBCHEM_IUPAC_SYSTEMATIC_NAME>
(2S,4aS,6aR,6aS,6bR,8aR,12aS,14bR)-2,4a,6a,6b,9,9,12a-heptamethyl-10,13-bis(oxidanylidene)-1,3,4,5,6,6a,7,8,8a,11,12,14b-dodecahydropicene-2-carboxylic acid

> <PUBCHEM_IUPAC_TRADITIONAL_NAME>
(2S,4aS,6aR,6aS,6bR,8aR,12aS,14bR)-10,13-diketo-2,4a,6a,6b,9,9,12a-heptamethyl-1,3,4,5,6,6a,7,8,8a,11,12,14b-dodecahydropicene-2-carboxylic acid

> <PUBCHEM_IUPAC_INCHI>
InChI=1S/C30H44O4/c1-25(2)21-8-11-30(7)23(28(21,5)10-9-22(25)32)20(31)16-18-19-17-27(4,24(33)34)13-12-26(19,3)14-15-29(18,30)6/h16,19,21,23H,8-15,17H2,1-7H3,(H,33,34)/t19-,21-,23+,26+,27-,28-,29+,30+/m0/s1

> <PUBCHEM_IUPAC_INCHIKEY>
QGWDYPREORDRIT-LPXJIFNVSA-N

> <PUBCHEM_XLOGP3_AA>
6.1

> <PUBCHEM_EXACT_MASS>
468.32396

> <PUBCHEM_MOLECULAR_FORMULA>
C30H44O4

> <PUBCHEM_MOLECULAR_WEIGHT>
468.66796

> <PUBCHEM_OPENEYE_CAN_SMILES>
CC1(C2CCC3(C(C2(CCC1=O)C)C(=O)C=C4C3(CCC5(C4CC(CC5)(C)C(=O)O)C)C)C)C

> <PUBCHEM_OPENEYE_ISO_SMILES>
C[C@]12CC[C@](C[C@H]1C3=CC(=O)[C@@H]4[C@]5(CCC(=O)C([C@@H]5CC[C@]4([C@@]3(CC2)C)C)(C)C)C)(C)C(=O)O

> <PUBCHEM_CACTVS_TPSA>
71.4

> <PUBCHEM_MONOISOTOPIC_WEIGHT>
468.32396

> <PUBCHEM_TOTAL_CHARGE>
0

> <PUBCHEM_HEAVY_ATOM_COUNT>
34

> <PUBCHEM_ATOM_DEF_STEREO_COUNT>
8

> <PUBCHEM_ATOM_UDEF_STEREO_COUNT>
0

> <PUBCHEM_BOND_DEF_STEREO_COUNT>
0

> <PUBCHEM_BOND_UDEF_STEREO_COUNT>
0

> <PUBCHEM_ISOTOPIC_ATOM_COUNT>
0

> <PUBCHEM_COMPONENT_COUNT>
1

> <PUBCHEM_CACTVS_TAUTO_COUNT>
10

> <PUBCHEM_COORDINATE_TYPE>
1
5
255

> <PUBCHEM_BONDANNOTATIONS>
12  39  5
13  30  5
26  33  6
5  19  5
6  21  6
7  35  6
8  25  5
9  36  6

$$$$

