9548789
  -OEChem-07051213083D

 35 34  0     0  0  0  0  0  0999 V2000
    5.9446    1.3174    0.8642 O   0  0  0  0  0  0  0  0  0  0  0  0
    5.1901    0.6472   -1.1689 O   0  0  0  0  0  0  0  0  0  0  0  0
   -6.3246    0.6722   -0.2525 O   0  0  0  0  0  0  0  0  0  0  0  0
    1.0081   -0.9824   -0.3925 C   0  0  0  0  0  0  0  0  0  0  0  0
   -0.1371    0.0335   -0.4182 C   0  0  0  0  0  0  0  0  0  0  0  0
    2.2932   -0.3515    0.1510 C   0  0  0  0  0  0  0  0  0  0  0  0
   -1.4444   -0.5336   -0.9844 C   0  0  0  0  0  0  0  0  0  0  0  0
    3.4876   -1.3137    0.1717 C   0  0  0  0  0  0  0  0  0  0  0  0
   -2.6237    0.4429   -1.0567 C   0  0  0  0  0  0  0  0  0  0  0  0
    4.7685   -0.7448    0.7840 C   0  0  0  0  0  0  0  0  0  0  0  0
   -2.9867    1.0414    0.2716 C   0  0  0  0  0  0  0  0  0  0  0  0
    5.3135    0.4486    0.0317 C   0  0  0  0  0  0  0  0  0  0  0  0
   -3.8934    0.5107    1.1056 C   0  0  0  0  0  0  0  0  0  0  0  0
   -4.6545   -0.7430    0.8148 C   0  0  0  0  0  0  0  0  0  0  0  0
   -5.9412   -0.4449    0.0786 C   0  0  0  0  0  0  0  0  0  0  0  0
    1.1863   -1.3601   -1.4064 H   0  0  0  0  0  0  0  0  0  0  0  0
    0.7265   -1.8406    0.2290 H   0  0  0  0  0  0  0  0  0  0  0  0
    0.1606    0.9016   -1.0192 H   0  0  0  0  0  0  0  0  0  0  0  0
   -0.3053    0.3970    0.6026 H   0  0  0  0  0  0  0  0  0  0  0  0
    2.1113    0.0104    1.1706 H   0  0  0  0  0  0  0  0  0  0  0  0
    2.5423    0.5272   -0.4554 H   0  0  0  0  0  0  0  0  0  0  0  0
   -1.2530   -0.9082   -1.9981 H   0  0  0  0  0  0  0  0  0  0  0  0
   -1.7346   -1.4068   -0.3867 H   0  0  0  0  0  0  0  0  0  0  0  0
    3.6929   -1.6427   -0.8549 H   0  0  0  0  0  0  0  0  0  0  0  0
    3.2083   -2.2115    0.7369 H   0  0  0  0  0  0  0  0  0  0  0  0
   -3.4814   -0.0564   -1.5209 H   0  0  0  0  0  0  0  0  0  0  0  0
   -2.3667    1.2652   -1.7365 H   0  0  0  0  0  0  0  0  0  0  0  0
    5.5498   -1.5120    0.8008 H   0  0  0  0  0  0  0  0  0  0  0  0
    4.5625   -0.4470    1.8188 H   0  0  0  0  0  0  0  0  0  0  0  0
   -2.4732    1.9523    0.5677 H   0  0  0  0  0  0  0  0  0  0  0  0
   -4.0960    1.0139    2.0473 H   0  0  0  0  0  0  0  0  0  0  0  0
   -4.0794   -1.4629    0.2259 H   0  0  0  0  0  0  0  0  0  0  0  0
   -4.9129   -1.2365    1.7578 H   0  0  0  0  0  0  0  0  0  0  0  0
    6.2868    2.1009    0.3833 H   0  0  0  0  0  0  0  0  0  0  0  0
   -6.5543   -1.3329   -0.1547 H   0  0  0  0  0  0  0  0  0  0  0  0
  1 12  1  0  0  0  0
  1 34  1  0  0  0  0
  2 12  2  0  0  0  0
  3 15  2  0  0  0  0
  4  5  1  0  0  0  0
  4  6  1  0  0  0  0
  4 16  1  0  0  0  0
  4 17  1  0  0  0  0
  5  7  1  0  0  0  0
  5 18  1  0  0  0  0
  5 19  1  0  0  0  0
  6  8  1  0  0  0  0
  6 20  1  0  0  0  0
  6 21  1  0  0  0  0
  7  9  1  0  0  0  0
  7 22  1  0  0  0  0
  7 23  1  0  0  0  0
  8 10  1  0  0  0  0
  8 24  1  0  0  0  0
  8 25  1  0  0  0  0
  9 11  1  0  0  0  0
  9 26  1  0  0  0  0
  9 27  1  0  0  0  0
 10 12  1  0  0  0  0
 10 28  1  0  0  0  0
 10 29  1  0  0  0  0
 11 13  2  0  0  0  0
 11 30  1  0  0  0  0
 13 14  1  0  0  0  0
 13 31  1  0  0  0  0
 14 15  1  0  0  0  0
 14 32  1  0  0  0  0
 14 33  1  0  0  0  0
 15 35  1  0  0  0  0
M  END
> <PUBCHEM_COMPOUND_CID>
9548789

> <PUBCHEM_CONFORMER_RMSD>
1

> <PUBCHEM_CONFORMER_DIVERSEORDER>
3
118
100
105
59
33
30
89
2
91
97
21
13
29
113
98
63
77
1
37
86
96
61
11
47
83
106
32
62
36
73
87
19
43
81
34
35
84
119
41
51
71
20
82
121
45
90
111
76
78
60
39
85
53
64
56
5
72
102
92
15
50
117
44
52
116
112
114
6
12
40
57
24
101
54
103
115
95
70
79
22
120
109
93
7
49
99
80
46
58
42
107
110
69
94
23
67
55
28
74
108
9
26
25
31
14
10
48
38
75
16
104
17
65
27
68
66
88
8
4
122
18

> <PUBCHEM_MMFF94_PARTIAL_CHARGES>
14
1 -0.65
10 0.06
11 -0.29
12 0.66
13 -0.29
14 0.2
15 0.45
2 -0.57
3 -0.57
30 0.15
31 0.15
34 0.5
35 0.06
9 0.14

> <PUBCHEM_EFFECTIVE_ROTOR_COUNT>
10

> <PUBCHEM_PHARMACOPHORE_FEATURES>
4
1 1 acceptor
1 2 acceptor
1 3 acceptor
3 1 2 12 anion

> <PUBCHEM_HEAVY_ATOM_COUNT>
15

> <PUBCHEM_ATOM_DEF_STEREO_COUNT>
0

> <PUBCHEM_ATOM_UDEF_STEREO_COUNT>
0

> <PUBCHEM_BOND_DEF_STEREO_COUNT>
1

> <PUBCHEM_BOND_UDEF_STEREO_COUNT>
0

> <PUBCHEM_ISOTOPIC_ATOM_COUNT>
0

> <PUBCHEM_COMPONENT_COUNT>
1

> <PUBCHEM_CACTVS_TAUTO_COUNT>
3

> <PUBCHEM_CONFORMER_ID>
0091B3F500000003

> <PUBCHEM_MMFF94_ENERGY>
5.7688

> <PUBCHEM_FEATURE_SELFOVERLAP>
20.356

> <PUBCHEM_SHAPE_FINGERPRINT>
100836 57 16877662361813415914
10354089 29 18408885131634607856
10613725 11 7276834575691195854
10803635 8 11887956536612135635
11858739 19 11240005559666412224
12596602 18 18410293631261666051
12815109 37 16773795900984915739
12916748 109 17603301570545041192
13237642 15 17847059991303385218
13533116 47 17987801933788304226
13668630 136 9943808906589072080
13955234 65 18336272340471386458
14123238 8 18334856129847750043
1420 363 16558750126399612434
14251732 16 18335984173054173131
14251752 14 10375878467865549831
14251764 46 17095522911561265174
14848160 23 14836403618514679762
15183329 4 7132442306300456827
17834072 33 18341612598698674247
17834072 8 6411297944759585288
17834076 25 16008467642320883806
18222031 100 13901904549048466718
200 152 11887954349925356879
20281389 69 16588026835492173890
20374829 77 14261345847854981515
20645477 56 15791735208946707373
20645477 70 6411304511701635172
20767249 213 17894914027225932795
21150785 3 5473136362720275266
21354914 41 6411293524932458007
22079108 93 18343867693153338698
22224240 67 18411702071814332731
23198884 109 6627748894862587319
23218964 4 9295291629641550331
23402539 116 15195565693604348315
23559900 14 14907609044324092149
29717793 49 10303816505956424498
3004659 81 8574712408265777586
328311 84 6843923892968460613
32948 21 14707203336430708530
347723 3 12823295711152790453
3545911 37 14490191613701340287
4325135 7 17489301980279267782
542803 24 16008468733079046634

> <PUBCHEM_SHAPE_MULTIPOLES>
291.09
17.03
1.16
1.06
2.19
0.02
0.04
-2.77
-3.01
0.69
-0.1
-0.07
-0.08
0.06

> <PUBCHEM_SHAPE_SELFOVERLAP>
542.524

> <PUBCHEM_SHAPE_VOLUME>
180.1

> <PUBCHEM_COORDINATE_TYPE>
2
5
10

$$$$

