10471123
  -OEChem-07051213103D

 41 43  0     1  0  0  0  0  0999 V2000
    1.4159    2.1929   -0.0952 O   0  0  0  0  0  0  0  0  0  0  0  0
    5.5630   -0.1347    0.1729 O   0  0  0  0  0  0  0  0  0  0  0  0
    4.0439   -2.2610   -0.3506 O   0  0  0  0  0  0  0  0  0  0  0  0
   -1.3481   -0.2389   -0.7681 O   0  0  0  0  0  0  0  0  0  0  0  0
    0.2452    2.2896   -2.0641 O   0  0  0  0  0  0  0  0  0  0  0  0
   -2.7872   -1.5727   -1.9720 O   0  0  0  0  0  0  0  0  0  0  0  0
    1.2973   -0.0993    0.3029 C   0  0  1  0  0  0  0  0  0  0  0  0
    2.0660    1.1622    0.6672 C   0  0  1  0  0  0  0  0  0  0  0  0
    0.9758    0.1410   -1.1703 C   0  0  2  0  0  0  0  0  0  0  0  0
    3.5488    1.1313    0.2878 C   0  0  0  0  0  0  0  0  0  0  0  0
    2.0244   -1.4035    0.6058 C   0  0  0  0  0  0  0  0  0  0  0  0
    4.2693   -0.1272    0.7654 C   0  0  1  0  0  0  0  0  0  0  0  0
    3.4979   -1.3426    0.2606 C   0  0  0  0  0  0  0  0  0  0  0  0
    0.8095    1.6429   -1.1952 C   0  0  0  0  0  0  0  0  0  0  0  0
   -0.2789   -0.5794   -1.6347 C   0  0  0  0  0  0  0  0  0  0  0  0
    4.4344   -0.1788    2.2824 C   0  0  0  0  0  0  0  0  0  0  0  0
   -2.5552   -0.8069   -1.0495 C   0  0  0  0  0  0  0  0  0  0  0  0
   -3.5862   -0.3709   -0.0741 C   0  0  0  0  0  0  0  0  0  0  0  0
   -4.6262   -1.2274    0.2245 C   0  0  0  0  0  0  0  0  0  0  0  0
   -3.4722    0.8769    0.5039 C   0  0  0  0  0  0  0  0  0  0  0  0
   -5.5946   -0.8180    1.1410 C   0  0  0  0  0  0  0  0  0  0  0  0
   -4.4408    1.2860    1.4205 C   0  0  0  0  0  0  0  0  0  0  0  0
   -5.5020    0.4386    1.7391 C   0  0  0  0  0  0  0  0  0  0  0  0
    0.3663   -0.0945    0.8857 H   0  0  0  0  0  0  0  0  0  0  0  0
    1.9482    1.3931    1.7315 H   0  0  0  0  0  0  0  0  0  0  0  0
    1.8225   -0.1135   -1.8184 H   0  0  0  0  0  0  0  0  0  0  0  0
    3.6547    1.2306   -0.8021 H   0  0  0  0  0  0  0  0  0  0  0  0
    4.0452    2.0302    0.6777 H   0  0  0  0  0  0  0  0  0  0  0  0
    1.5654   -2.2376    0.0646 H   0  0  0  0  0  0  0  0  0  0  0  0
    1.9512   -1.6347    1.6745 H   0  0  0  0  0  0  0  0  0  0  0  0
   -0.1200   -1.6635   -1.6140 H   0  0  0  0  0  0  0  0  0  0  0  0
   -0.5303   -0.2784   -2.6587 H   0  0  0  0  0  0  0  0  0  0  0  0
    4.9654   -1.0910    2.5790 H   0  0  0  0  0  0  0  0  0  0  0  0
    5.0396    0.6638    2.6353 H   0  0  0  0  0  0  0  0  0  0  0  0
    3.4781   -0.1639    2.8131 H   0  0  0  0  0  0  0  0  0  0  0  0
    5.4594   -0.0653   -0.7915 H   0  0  0  0  0  0  0  0  0  0  0  0
   -4.7072   -2.2095   -0.2319 H   0  0  0  0  0  0  0  0  0  0  0  0
   -2.6631    1.5600    0.2633 H   0  0  0  0  0  0  0  0  0  0  0  0
   -6.4206   -1.4781    1.3897 H   0  0  0  0  0  0  0  0  0  0  0  0
   -4.3705    2.2656    1.8842 H   0  0  0  0  0  0  0  0  0  0  0  0
   -6.2563    0.7575    2.4524 H   0  0  0  0  0  0  0  0  0  0  0  0
  1  8  1  0  0  0  0
  1 14  1  0  0  0  0
  2 12  1  0  0  0  0
  2 36  1  0  0  0  0
  3 13  2  0  0  0  0
  4 15  1  0  0  0  0
  4 17  1  0  0  0  0
  5 14  2  0  0  0  0
  6 17  2  0  0  0  0
  7  8  1  0  0  0  0
  7  9  1  0  0  0  0
  7 11  1  0  0  0  0
  7 24  1  0  0  0  0
  8 10  1  0  0  0  0
  8 25  1  0  0  0  0
  9 14  1  0  0  0  0
  9 15  1  0  0  0  0
  9 26  1  0  0  0  0
 10 12  1  0  0  0  0
 10 27  1  0  0  0  0
 10 28  1  0  0  0  0
 11 13  1  0  0  0  0
 11 29  1  0  0  0  0
 11 30  1  0  0  0  0
 12 13  1  0  0  0  0
 12 16  1  0  0  0  0
 15 31  1  0  0  0  0
 15 32  1  0  0  0  0
 16 33  1  0  0  0  0
 16 34  1  0  0  0  0
 16 35  1  0  0  0  0
 17 18  1  0  0  0  0
 18 19  2  0  0  0  0
 18 20  1  0  0  0  0
 19 21  1  0  0  0  0
 19 37  1  0  0  0  0
 20 22  2  0  0  0  0
 20 38  1  0  0  0  0
 21 23  2  0  0  0  0
 21 39  1  0  0  0  0
 22 23  1  0  0  0  0
 22 40  1  0  0  0  0
 23 41  1  0  0  0  0
M  END
> <PUBCHEM_COMPOUND_CID>
10471123

> <PUBCHEM_CONFORMER_RMSD>
0.8

> <PUBCHEM_CONFORMER_DIVERSEORDER>
1
96
23
57
108
53
87
10
22
46
55
54
60
86
36
97
101
17
81
72
89
13
52
111
34
92
104
106
107
84
109
56
8
39
65
68
19
59
27
51
110
4
38
25
90
26
14
42
94
28
18
98
50
32
35
100
105
9
103
78
45
7
91
15
6
88
12
69
70
5
83
79
77
93
63
3
82
99
58
102
95
61
37
49
40
30
66
62
74
75
41
21
85
44
33
43
11
71
76
2
80
16
48
20
47
64
31
73
67
24
29

> <PUBCHEM_MMFF94_PARTIAL_CHARGES>
26
1 -0.43
11 0.06
12 0.34
13 0.45
14 0.66
15 0.28
17 0.63
18 0.09
19 -0.15
2 -0.68
20 -0.15
21 -0.15
22 -0.15
23 -0.15
3 -0.57
36 0.4
37 0.15
38 0.15
39 0.15
4 -0.43
40 0.15
41 0.15
5 -0.57
6 -0.57
8 0.28
9 0.06

> <PUBCHEM_EFFECTIVE_ROTOR_COUNT>
5

> <PUBCHEM_PHARMACOPHORE_FEATURES>
8
1 2 acceptor
1 2 donor
1 3 acceptor
1 5 acceptor
1 6 acceptor
5 1 7 8 9 14 rings
6 18 19 20 21 22 23 rings
6 7 8 10 11 12 13 rings

> <PUBCHEM_HEAVY_ATOM_COUNT>
23

> <PUBCHEM_ATOM_DEF_STEREO_COUNT>
4

> <PUBCHEM_ATOM_UDEF_STEREO_COUNT>
0

> <PUBCHEM_BOND_DEF_STEREO_COUNT>
0

> <PUBCHEM_BOND_UDEF_STEREO_COUNT>
0

> <PUBCHEM_ISOTOPIC_ATOM_COUNT>
0

> <PUBCHEM_COMPONENT_COUNT>
1

> <PUBCHEM_CACTVS_TAUTO_COUNT>
4

> <PUBCHEM_CONFORMER_ID>
009FC6D300000001

> <PUBCHEM_MMFF94_ENERGY>
53.2137

> <PUBCHEM_FEATURE_SELFOVERLAP>
40.784

> <PUBCHEM_SHAPE_FINGERPRINT>
10366900 7 15410901730363443137
11552529 35 18120940508021044275
11796584 16 15553069786114499658
12035758 1 17846226493013024696
12107183 9 17679860689467407387
12236239 1 18040996224339634426
12422481 6 18190452943161964609
12467345 10 18187080684795677595
12553582 1 18202010944815766078
12596602 18 18335137574986387723
12633257 1 17989196024232249307
12670546 177 10447933862595093475
12670546 56 17458642085221152846
12714826 92 15841560677913287167
12892183 10 18187649128001662043
13103583 49 18273491295417735049
13464513 79 16558747888700389938
13544653 18 17060344049509181588
13583140 156 18413395337116761093
13914758 101 18272940445120266429
14123255 352 16225768523464947411
14251732 17 15574712508360135932
14251757 5 12247380277593429785
14251764 30 17917145112910557618
14341114 176 18409440397733469747
14386348 63 16773802484879649795
14528608 73 9151169844284990003
14739800 52 17243872142659303256
14849402 71 18118409449882231728
14951699 99 16951140443618569904
14957384 54 15141259688873975546
15188451 53 18201157638563471619
15238133 3 18113886161580852785
15475509 84 17242172573024041434
15527383 91 18343865515188175093
1601671 61 18186238429377800636
16752209 62 12823031772596088557
17980427 23 16660655007578107705
1813 80 17917708028493262540
18785283 64 17488454170746426644
20642791 268 17896333441056291424
20715895 44 17825375552378844737
20739085 24 18272932683323637180
20871999 31 12751246908633284127
21033648 29 18115605858044020889
21521239 73 11024110949684028192
21859007 373 18123182670508151949
22393880 68 9871466483262802715
22950370 63 18202560713530198254
23557571 272 14404922279164341238
23559900 14 13614241430718003895
23622692 88 18408602556935247215
2838139 119 4823211697498409803
329604 57 13901901215452010567
341906 21 16515404040906176395
3633792 109 18340222829983716559
3737641 26 17986393497604931282
38570 142 18050266099711053356
439807 62 11383535769303045513
5104073 3 17822870705544262762
633830 44 15647063642185893956
6669772 16 13899615240868947382
6786 2 15834188245916553940
7097593 13 18409448059949766543
7495541 125 16128655232646526262
8509985 295 17749106707887404409

> <PUBCHEM_SHAPE_MULTIPOLES>
438.11
12.36
1.9
1.83
6.48
0.07
0.26
-1.21
-7.79
-0.3
0.47
0.12
0.35
-1.08

> <PUBCHEM_SHAPE_SELFOVERLAP>
946.516

> <PUBCHEM_SHAPE_VOLUME>
239.5

> <PUBCHEM_COORDINATE_TYPE>
2
5
10

$$$$

