195578
  -OEChem-07051213022D

 18 17  0     1  0  0  0  0  0999 V2000
    3.4030   -0.2500    0.0000 P   0  0  0  0  0  0  0  0  0  0  0  0
    4.2690    0.2500    0.0000 O   0  0  0  0  0  0  0  0  0  0  0  0
    5.1350   -1.2500    0.0000 O   0  0  0  0  0  0  0  0  0  0  0  0
    2.5369   -0.7500    0.0000 O   0  0  0  0  0  0  0  0  0  0  0  0
    2.9030    0.6160    0.0000 O   0  0  0  0  0  0  0  0  0  0  0  0
    3.9030   -1.1160    0.0000 O   0  0  0  0  0  0  0  0  0  0  0  0
    6.8671   -0.2500    0.0000 N   0  0  0  0  0  0  0  0  0  0  0  0
    6.0010    0.2500    0.0000 C   0  0  2  0  0  0  0  0  0  0  0  0
    6.0010    1.2500    0.0000 C   0  0  0  0  0  0  0  0  0  0  0  0
    5.1350   -0.2500    0.0000 C   0  0  0  0  0  0  0  0  0  0  0  0
    6.5380    0.5600    0.0000 H   0  0  0  0  0  0  0  0  0  0  0  0
    6.6210    1.2500    0.0000 H   0  0  0  0  0  0  0  0  0  0  0  0
    6.0010    1.8700    0.0000 H   0  0  0  0  0  0  0  0  0  0  0  0
    5.3810    1.2500    0.0000 H   0  0  0  0  0  0  0  0  0  0  0  0
    7.4040    0.0600    0.0000 H   0  0  0  0  0  0  0  0  0  0  0  0
    6.8671   -0.8700    0.0000 H   0  0  0  0  0  0  0  0  0  0  0  0
    2.0000   -0.4400    0.0000 H   0  0  0  0  0  0  0  0  0  0  0  0
    3.2130    1.1530    0.0000 H   0  0  0  0  0  0  0  0  0  0  0  0
  1  2  1  0  0  0  0
  1  4  1  0  0  0  0
  1  5  1  0  0  0  0
  1  6  2  0  0  0  0
  2 10  1  0  0  0  0
  3 10  2  0  0  0  0
  4 17  1  0  0  0  0
  5 18  1  0  0  0  0
  8  7  1  1  0  0  0
  7 15  1  0  0  0  0
  7 16  1  0  0  0  0
  8  9  1  0  0  0  0
  8 10  1  0  0  0  0
  8 11  1  0  0  0  0
  9 12  1  0  0  0  0
  9 13  1  0  0  0  0
  9 14  1  0  0  0  0
M  END
> <PUBCHEM_COMPOUND_CID>
195578

> <PUBCHEM_COMPOUND_CANONICALIZED>
1

> <PUBCHEM_CACTVS_COMPLEXITY>
174

> <PUBCHEM_CACTVS_HBOND_ACCEPTOR>
6

> <PUBCHEM_CACTVS_HBOND_DONOR>
3

> <PUBCHEM_CACTVS_ROTATABLE_BOND>
3

> <PUBCHEM_CACTVS_SUBSKEYS>
AAADccBCOAIAAAAAAAAAAAAAAAAAAAAAAAAAAAAAAAAAAAAAAAAAHgAQCCAACCjBgAQCCABAARAIQACQCIAAAAAAAAAAAIGAAAACAAAAAAAAAAAAEAAAAAAAAAAAAAAAAAAAAAAAAAAAAAAAAAAAAAAAAA==

> <PUBCHEM_IUPAC_OPENEYE_NAME>
phosphono (2R)-2-aminopropanoate

> <PUBCHEM_IUPAC_CAS_NAME>
(2R)-2-aminopropanoic acid phosphono ester

> <PUBCHEM_IUPAC_NAME>
phosphono (2R)-2-aminopropanoate

> <PUBCHEM_IUPAC_SYSTEMATIC_NAME>
phosphono (2R)-2-azanylpropanoate

> <PUBCHEM_IUPAC_TRADITIONAL_NAME>
(2R)-2-aminopropionic acid phosphono ester

> <PUBCHEM_IUPAC_INCHI>
InChI=1S/C3H8NO5P/c1-2(4)3(5)9-10(6,7)8/h2H,4H2,1H3,(H2,6,7,8)/t2-/m1/s1

> <PUBCHEM_IUPAC_INCHIKEY>
HNBPGMZUKDCQEE-UWTATZPHSA-N

> <PUBCHEM_XLOGP3_AA>
-4.3

> <PUBCHEM_EXACT_MASS>
169.014009

> <PUBCHEM_MOLECULAR_FORMULA>
C3H8NO5P

> <PUBCHEM_MOLECULAR_WEIGHT>
169.073082

> <PUBCHEM_OPENEYE_CAN_SMILES>
CC(C(=O)OP(=O)(O)O)N

> <PUBCHEM_OPENEYE_ISO_SMILES>
C[C@H](C(=O)OP(=O)(O)O)N

> <PUBCHEM_CACTVS_TPSA>
110

> <PUBCHEM_MONOISOTOPIC_WEIGHT>
169.014009

> <PUBCHEM_TOTAL_CHARGE>
0

> <PUBCHEM_HEAVY_ATOM_COUNT>
10

> <PUBCHEM_ATOM_DEF_STEREO_COUNT>
1

> <PUBCHEM_ATOM_UDEF_STEREO_COUNT>
0

> <PUBCHEM_BOND_DEF_STEREO_COUNT>
0

> <PUBCHEM_BOND_UDEF_STEREO_COUNT>
0

> <PUBCHEM_ISOTOPIC_ATOM_COUNT>
0

> <PUBCHEM_COMPONENT_COUNT>
1

> <PUBCHEM_CACTVS_TAUTO_COUNT>
1

> <PUBCHEM_COORDINATE_TYPE>
1
5
255

> <PUBCHEM_BONDANNOTATIONS>
8  7  5

$$$$

