442188
  -OEChem-07051212572D

 48 51  0     1  0  0  0  0  0999 V2000
    5.6083   -1.5100    0.0000 O   0  0  0  0  0  0  0  0  0  0  0  0
    5.6405   -3.6015    0.0000 O   0  0  0  0  0  0  0  0  0  0  0  0
    6.4361    3.0806    0.0000 O   0  0  0  0  0  0  0  0  0  0  0  0
    4.6622    4.1047    0.0000 O   0  0  0  0  0  0  0  0  0  0  0  0
    2.9180    0.0355    0.0000 N   0  0  3  0  0  0  0  0  0  0  0  0
    3.7841   -0.4645    0.0000 C   0  0  1  0  0  0  0  0  0  0  0  0
    4.6501    0.0355    0.0000 C   0  0  0  0  0  0  0  0  0  0  0  0
    2.0080   -0.4714    0.0000 C   0  0  0  0  0  0  0  0  0  0  0  0
    3.8001   -1.5060    0.0000 C   0  0  0  0  0  0  0  0  0  0  0  0
    2.9180    1.0355    0.0000 C   0  0  0  0  0  0  0  0  0  0  0  0
    2.0000   -1.5130    0.0000 C   0  0  0  0  0  0  0  0  0  0  0  0
    2.9021   -2.0338    0.0000 C   0  0  0  0  0  0  0  0  0  0  0  0
    4.6501    1.0355    0.0000 C   0  0  0  0  0  0  0  0  0  0  0  0
    3.7841    1.5355    0.0000 C   0  0  0  0  0  0  0  0  0  0  0  0
    4.7520   -2.0266    0.0000 C   0  0  0  0  0  0  0  0  0  0  0  0
    2.8937   -3.1187    0.0000 C   0  0  0  0  0  0  0  0  0  0  0  0
    5.5601    1.5423    0.0000 C   0  0  0  0  0  0  0  0  0  0  0  0
    3.7680    2.5770    0.0000 C   0  0  0  0  0  0  0  0  0  0  0  0
    4.7688   -3.1115    0.0000 C   0  0  0  0  0  0  0  0  0  0  0  0
    3.8334   -3.6612    0.0000 C   0  0  0  0  0  0  0  0  0  0  0  0
    5.5681    2.5839    0.0000 C   0  0  0  0  0  0  0  0  0  0  0  0
    4.6660    3.1048    0.0000 C   0  0  0  0  0  0  0  0  0  0  0  0
    5.6521   -4.6014    0.0000 C   0  0  0  0  0  0  0  0  0  0  0  0
    7.3002    2.5772    0.0000 C   0  0  0  0  0  0  0  0  0  0  0  0
    3.7942    4.6014    0.0000 C   0  0  0  0  0  0  0  0  0  0  0  0
    4.5234   -0.8838    0.0000 H   0  0  0  0  0  0  0  0  0  0  0  0
    4.8621   -0.5471    0.0000 H   0  0  0  0  0  0  0  0  0  0  0  0
    5.2607    0.1431    0.0000 H   0  0  0  0  0  0  0  0  0  0  0  0
    1.8035    0.1139    0.0000 H   0  0  0  0  0  0  0  0  0  0  0  0
    1.3964   -0.5727    0.0000 H   0  0  0  0  0  0  0  0  0  0  0  0
    2.7060    1.6181    0.0000 H   0  0  0  0  0  0  0  0  0  0  0  0
    2.3074    0.9278    0.0000 H   0  0  0  0  0  0  0  0  0  0  0  0
    1.3900   -1.4022    0.0000 H   0  0  0  0  0  0  0  0  0  0  0  0
    1.7864   -2.0950    0.0000 H   0  0  0  0  0  0  0  0  0  0  0  0
    2.3556   -3.4267    0.0000 H   0  0  0  0  0  0  0  0  0  0  0  0
    6.0934    1.2261    0.0000 H   0  0  0  0  0  0  0  0  0  0  0  0
    3.2275    2.8808    0.0000 H   0  0  0  0  0  0  0  0  0  0  0  0
    3.8357   -4.2812    0.0000 H   0  0  0  0  0  0  0  0  0  0  0  0
    6.1511   -1.8096    0.0000 H   0  0  0  0  0  0  0  0  0  0  0  0
    5.0321   -4.6086    0.0000 H   0  0  0  0  0  0  0  0  0  0  0  0
    5.6592   -5.2214    0.0000 H   0  0  0  0  0  0  0  0  0  0  0  0
    6.2720   -4.5942    0.0000 H   0  0  0  0  0  0  0  0  0  0  0  0
    6.9881    2.0415    0.0000 H   0  0  0  0  0  0  0  0  0  0  0  0
    7.8359    2.2652    0.0000 H   0  0  0  0  0  0  0  0  0  0  0  0
    7.6122    3.1130    0.0000 H   0  0  0  0  0  0  0  0  0  0  0  0
    4.1022    5.1395    0.0000 H   0  0  0  0  0  0  0  0  0  0  0  0
    3.2561    4.9093    0.0000 H   0  0  0  0  0  0  0  0  0  0  0  0
    3.4863    4.0633    0.0000 H   0  0  0  0  0  0  0  0  0  0  0  0
  1 15  1  0  0  0  0
  1 39  1  0  0  0  0
  2 19  1  0  0  0  0
  2 23  1  0  0  0  0
  3 21  1  0  0  0  0
  3 24  1  0  0  0  0
  4 22  1  0  0  0  0
  4 25  1  0  0  0  0
  5  6  1  0  0  0  0
  5  8  1  0  0  0  0
  5 10  1  0  0  0  0
  6  7  1  0  0  0  0
  6  9  1  0  0  0  0
  6 26  1  6  0  0  0
  7 13  1  0  0  0  0
  7 27  1  0  0  0  0
  7 28  1  0  0  0  0
  8 11  1  0  0  0  0
  8 29  1  0  0  0  0
  8 30  1  0  0  0  0
  9 12  2  0  0  0  0
  9 15  1  0  0  0  0
 10 14  1  0  0  0  0
 10 31  1  0  0  0  0
 10 32  1  0  0  0  0
 11 12  1  0  0  0  0
 11 33  1  0  0  0  0
 11 34  1  0  0  0  0
 12 16  1  0  0  0  0
 13 14  1  0  0  0  0
 13 17  2  0  0  0  0
 14 18  2  0  0  0  0
 15 19  2  0  0  0  0
 16 20  2  0  0  0  0
 16 35  1  0  0  0  0
 17 21  1  0  0  0  0
 17 36  1  0  0  0  0
 18 22  1  0  0  0  0
 18 37  1  0  0  0  0
 19 20  1  0  0  0  0
 20 38  1  0  0  0  0
 21 22  2  0  0  0  0
 23 40  1  0  0  0  0
 23 41  1  0  0  0  0
 23 42  1  0  0  0  0
 24 43  1  0  0  0  0
 24 44  1  0  0  0  0
 24 45  1  0  0  0  0
 25 46  1  0  0  0  0
 25 47  1  0  0  0  0
 25 48  1  0  0  0  0
M  END
> <PUBCHEM_COMPOUND_CID>
442188

> <PUBCHEM_COMPOUND_CANONICALIZED>
1

> <PUBCHEM_CACTVS_COMPLEXITY>
461

> <PUBCHEM_CACTVS_HBOND_ACCEPTOR>
5

> <PUBCHEM_CACTVS_HBOND_DONOR>
1

> <PUBCHEM_CACTVS_ROTATABLE_BOND>
3

> <PUBCHEM_CACTVS_SUBSKEYS>
AAADceB6OAAAAAAAAAAAAAAAAAAAAAAAAAA8eIEAAAAAAACxQAAAHgAACAAADCzBmAYyBoMABgCAAiBCAACCCAAgIAAIiAAOjIgNJiKGsRuEcCtmwBGLuAew0PMOoAABAAAYQABAAAIAADCAAAAAAAAAAA==

> <PUBCHEM_IUPAC_OPENEYE_NAME>
(13aS)-2,10,11-trimethoxy-6,8,13,13a-tetrahydro-5H-isoquinolino[2,1-b]isoquinolin-1-ol

> <PUBCHEM_IUPAC_CAS_NAME>
(13aS)-2,10,11-trimethoxy-6,8,13,13a-tetrahydro-5H-isoquinolino[2,1-b]isoquinolin-1-ol

> <PUBCHEM_IUPAC_NAME>
(13aS)-2,10,11-trimethoxy-6,8,13,13a-tetrahydro-5H-isoquinolino[2,1-b]isoquinolin-1-ol

> <PUBCHEM_IUPAC_SYSTEMATIC_NAME>
(13aS)-2,10,11-trimethoxy-6,8,13,13a-tetrahydro-5H-isoquinolino[2,1-b]isoquinolin-1-ol

> <PUBCHEM_IUPAC_TRADITIONAL_NAME>
(13aS)-2,10,11-trimethoxy-6,8,13,13a-tetrahydro-5H-isoquinolin[2,1-b]isoquinolin-1-ol

> <PUBCHEM_IUPAC_INCHI>
InChI=1S/C20H23NO4/c1-23-16-5-4-12-6-7-21-11-14-10-18(25-3)17(24-2)9-13(14)8-15(21)19(12)20(16)22/h4-5,9-10,15,22H,6-8,11H2,1-3H3/t15-/m0/s1

> <PUBCHEM_IUPAC_INCHIKEY>
HXHKKYNHNQVAAX-HNNXBMFYSA-N

> <PUBCHEM_XLOGP3_AA>
2.9

> <PUBCHEM_EXACT_MASS>
341.162708

> <PUBCHEM_MOLECULAR_FORMULA>
C20H23NO4

> <PUBCHEM_MOLECULAR_WEIGHT>
341.40092

> <PUBCHEM_OPENEYE_CAN_SMILES>
COC1=C(C2=C(CCN3C2CC4=CC(=C(C=C4C3)OC)OC)C=C1)O

> <PUBCHEM_OPENEYE_ISO_SMILES>
COC1=C(C2=C(CCN3[C@H]2CC4=CC(=C(C=C4C3)OC)OC)C=C1)O

> <PUBCHEM_CACTVS_TPSA>
51.2

> <PUBCHEM_MONOISOTOPIC_WEIGHT>
341.162708

> <PUBCHEM_TOTAL_CHARGE>
0

> <PUBCHEM_HEAVY_ATOM_COUNT>
25

> <PUBCHEM_ATOM_DEF_STEREO_COUNT>
1

> <PUBCHEM_ATOM_UDEF_STEREO_COUNT>
0

> <PUBCHEM_BOND_DEF_STEREO_COUNT>
0

> <PUBCHEM_BOND_UDEF_STEREO_COUNT>
0

> <PUBCHEM_ISOTOPIC_ATOM_COUNT>
0

> <PUBCHEM_COMPONENT_COUNT>
1

> <PUBCHEM_CACTVS_TAUTO_COUNT>
9

> <PUBCHEM_COORDINATE_TYPE>
1
5
255

> <PUBCHEM_BONDANNOTATIONS>
12  16  8
13  14  8
13  17  8
14  18  8
15  19  8
16  20  8
17  21  8
18  22  8
19  20  8
21  22  8
6  26  6
9  12  8
9  15  8

$$$$

