14313
  -OEChem-06241222433D

 19 20  0     0  0  0  0  0  0999 V2000
   -2.3644    1.6262    0.0003 O   0  0  0  0  0  0  0  0  0  0  0  0
   -3.0667   -1.1599   -0.0003 O   0  0  0  0  0  0  0  0  0  0  0  0
   -0.7127   -1.4239    0.0001 N   0  0  0  0  0  0  0  0  0  0  0  0
    0.3541   -0.5224    0.0002 C   0  0  0  0  0  0  0  0  0  0  0  0
   -0.1015    0.7924    0.0001 C   0  0  0  0  0  0  0  0  0  0  0  0
    1.7025   -0.8125    0.0002 C   0  0  0  0  0  0  0  0  0  0  0  0
   -1.5611    0.7255   -0.0001 C   0  0  0  0  0  0  0  0  0  0  0  0
    0.7502    1.8752   -0.0001 C   0  0  0  0  0  0  0  0  0  0  0  0
   -1.9244   -0.7570    0.0000 C   0  0  0  0  0  0  0  0  0  0  0  0
    2.5910    0.2684   -0.0001 C   0  0  0  0  0  0  0  0  0  0  0  0
    2.1195    1.5981   -0.0002 C   0  0  0  0  0  0  0  0  0  0  0  0
    2.2134   -2.2101   -0.0001 C   0  0  0  0  0  0  0  0  0  0  0  0
   -0.5994   -2.4306    0.0000 H   0  0  0  0  0  0  0  0  0  0  0  0
    0.3847    2.8949   -0.0003 H   0  0  0  0  0  0  0  0  0  0  0  0
    3.6654    0.0985   -0.0003 H   0  0  0  0  0  0  0  0  0  0  0  0
    2.8341    2.4171   -0.0004 H   0  0  0  0  0  0  0  0  0  0  0  0
    1.8692   -2.7418   -0.8932 H   0  0  0  0  0  0  0  0  0  0  0  0
    3.3081   -2.2429    0.0020 H   0  0  0  0  0  0  0  0  0  0  0  0
    1.8661   -2.7434    0.8908 H   0  0  0  0  0  0  0  0  0  0  0  0
  1  7  2  0  0  0  0
  2  9  2  0  0  0  0
  3  4  1  0  0  0  0
  3  9  1  0  0  0  0
  3 13  1  0  0  0  0
  4  5  1  0  0  0  0
  4  6  2  0  0  0  0
  5  7  1  0  0  0  0
  5  8  2  0  0  0  0
  6 10  1  0  0  0  0
  6 12  1  0  0  0  0
  7  9  1  0  0  0  0
  8 11  1  0  0  0  0
  8 14  1  0  0  0  0
 10 11  2  0  0  0  0
 10 15  1  0  0  0  0
 11 16  1  0  0  0  0
 12 17  1  0  0  0  0
 12 18  1  0  0  0  0
 12 19  1  0  0  0  0
M  END
> <PUBCHEM_COMPOUND_CID>
14313

> <PUBCHEM_CONFORMER_RMSD>
0.4

> <PUBCHEM_CONFORMER_DIVERSEORDER>
1

> <PUBCHEM_MMFF94_PARTIAL_CHARGES>
16
1 -0.57
10 -0.15
11 -0.15
12 0.14
13 0.37
14 0.15
15 0.15
16 0.15
2 -0.57
3 -0.55
4 0.12
5 0.09
6 -0.14
7 0.48
8 -0.15
9 0.63

> <PUBCHEM_EFFECTIVE_ROTOR_COUNT>
0.2

> <PUBCHEM_PHARMACOPHORE_FEATURES>
5
1 1 acceptor
1 2 acceptor
1 3 donor
5 3 4 5 7 9 rings
6 4 5 6 8 10 11 rings

> <PUBCHEM_HEAVY_ATOM_COUNT>
12

> <PUBCHEM_ATOM_DEF_STEREO_COUNT>
0

> <PUBCHEM_ATOM_UDEF_STEREO_COUNT>
0

> <PUBCHEM_BOND_DEF_STEREO_COUNT>
0

> <PUBCHEM_BOND_UDEF_STEREO_COUNT>
0

> <PUBCHEM_ISOTOPIC_ATOM_COUNT>
0

> <PUBCHEM_COMPONENT_COUNT>
1

> <PUBCHEM_CACTVS_TAUTO_COUNT>
5

> <PUBCHEM_CONFORMER_ID>
000037E900000001

> <PUBCHEM_MMFF94_ENERGY>
33.4091

> <PUBCHEM_FEATURE_SELFOVERLAP>
25.467

> <PUBCHEM_SHAPE_FINGERPRINT>
10967382 1 18266741268548061095
11206711 2 18412260606039928381
11471102 20 18339084766037985407
12423570 1 8822542143934541122
12524768 44 18191302891092894118
12897270 3 18267022756356893749
13380535 21 18339910597648679837
13380535 76 18196939876865964906
16945 1 18338516313851591142
17990270 104 18411138060639687042
193761 8 18410574028143529988
19973954 147 18410573998131434981
20201158 50 18341052912925848059
20645477 70 18337959995993092983
21040471 1 18410855434611864416
21501502 16 18411699906548973989
2334 1 18410855485929763494
23552423 10 18342453755285288022
23559900 14 17687186800754368790
241688 4 18268147750268340720
2748010 2 18338518641702779742
5084963 1 18115301172636365064
528886 8 18338240478230419200
7364860 26 18334013887198737338

> <PUBCHEM_SHAPE_MULTIPOLES>
230.23
3.87
2.21
0.59
1.17
0.1
0
0.62
0
-0.66
0
-0.05
-0.01
0

> <PUBCHEM_SHAPE_SELFOVERLAP>
507.793

> <PUBCHEM_SHAPE_VOLUME>
124.6

> <PUBCHEM_COORDINATE_TYPE>
2
5
10

$$$$

