441984
  -OEChem-07051212563D

 49 54  0     1  0  0  0  0  0999 V2000
   -2.6139   -2.2564   -1.3142 O   0  0  0  0  0  0  0  0  0  0  0  0
   -1.4349   -2.3196   -3.2807 O   0  0  0  0  0  0  0  0  0  0  0  0
   -1.7521    3.7622    0.3107 O   0  0  0  0  0  0  0  0  0  0  0  0
    0.2421    3.7592   -0.8651 O   0  0  0  0  0  0  0  0  0  0  0  0
   -1.0089   -1.4489    1.8343 N   0  0  2  0  0  0  0  0  0  0  0  0
    1.9182    1.6777    0.1035 N   0  0  0  0  0  0  0  0  0  0  0  0
   -0.4597   -1.1254    0.5071 C   0  0  1  0  0  0  0  0  0  0  0  0
   -1.5757   -0.4112   -0.2981 C   0  0  1  0  0  0  0  0  0  0  0  0
    0.7726   -0.2602    0.8509 C   0  0  2  0  0  0  0  0  0  0  0  0
   -2.8593   -1.2554   -0.3129 C   0  0  2  0  0  0  0  0  0  0  0  0
    0.9393   -0.4358    2.3864 C   0  0  0  0  0  0  0  0  0  0  0  0
   -1.8116    1.0165    0.2611 C   0  0  0  0  0  0  0  0  0  0  0  0
    0.1193   -1.6778    2.7116 C   0  0  0  0  0  0  0  0  0  0  0  0
    0.6557    1.2290    0.4461 C   0  0  0  0  0  0  0  0  0  0  0  0
   -1.2354   -0.4141   -1.7933 C   0  0  0  0  0  0  0  0  0  0  0  0
   -2.0050   -2.4996    1.7602 C   0  0  0  0  0  0  0  0  0  0  0  0
   -3.2171   -1.9276    1.0171 C   0  0  0  0  0  0  0  0  0  0  0  0
    2.0959   -0.6212    0.1946 C   0  0  0  0  0  0  0  0  0  0  0  0
   -0.5363    1.8179    0.2500 C   0  0  0  0  0  0  0  0  0  0  0  0
   -1.7401   -1.7576   -2.2406 C   0  0  0  0  0  0  0  0  0  0  0  0
    2.7392    0.5801   -0.1738 C   0  0  0  0  0  0  0  0  0  0  0  0
    2.7084   -1.8468    0.0064 C   0  0  0  0  0  0  0  0  0  0  0  0
   -0.6101    3.2187   -0.1794 C   0  0  0  0  0  0  0  0  0  0  0  0
    4.0139    0.5768   -0.7032 C   0  0  0  0  0  0  0  0  0  0  0  0
    3.9881   -1.8582   -0.5532 C   0  0  0  0  0  0  0  0  0  0  0  0
    4.6363   -0.6587   -0.8994 C   0  0  0  0  0  0  0  0  0  0  0  0
   -1.9690    5.1363   -0.0260 C   0  0  0  0  0  0  0  0  0  0  0  0
   -0.1418   -2.0492    0.0039 H   0  0  0  0  0  0  0  0  0  0  0  0
   -3.7240   -0.6726   -0.6567 H   0  0  0  0  0  0  0  0  0  0  0  0
    0.5216    0.4271    2.9238 H   0  0  0  0  0  0  0  0  0  0  0  0
    1.9773   -0.5544    2.7178 H   0  0  0  0  0  0  0  0  0  0  0  0
   -2.2112    0.9859    1.2819 H   0  0  0  0  0  0  0  0  0  0  0  0
   -2.5764    1.5024   -0.3583 H   0  0  0  0  0  0  0  0  0  0  0  0
    0.6635   -2.5963    2.4630 H   0  0  0  0  0  0  0  0  0  0  0  0
   -0.1659   -1.7017    3.7677 H   0  0  0  0  0  0  0  0  0  0  0  0
   -0.1636   -0.3315   -1.9902 H   0  0  0  0  0  0  0  0  0  0  0  0
   -1.7812    0.3572   -2.3463 H   0  0  0  0  0  0  0  0  0  0  0  0
   -2.3231   -2.8014    2.7649 H   0  0  0  0  0  0  0  0  0  0  0  0
   -1.6213   -3.3942    1.2547 H   0  0  0  0  0  0  0  0  0  0  0  0
   -3.9404   -2.7338    0.8475 H   0  0  0  0  0  0  0  0  0  0  0  0
   -3.7024   -1.1842    1.6630 H   0  0  0  0  0  0  0  0  0  0  0  0
    2.0733    2.5887   -0.2999 H   0  0  0  0  0  0  0  0  0  0  0  0
    2.2269   -2.7732    0.2978 H   0  0  0  0  0  0  0  0  0  0  0  0
    4.5178    1.4981   -0.9735 H   0  0  0  0  0  0  0  0  0  0  0  0
    4.4972   -2.8054   -0.7118 H   0  0  0  0  0  0  0  0  0  0  0  0
    5.6362   -0.6954   -1.3240 H   0  0  0  0  0  0  0  0  0  0  0  0
   -1.1622    5.7566    0.3759 H   0  0  0  0  0  0  0  0  0  0  0  0
   -2.9132    5.4520    0.4256 H   0  0  0  0  0  0  0  0  0  0  0  0
   -2.0424    5.2528   -1.1115 H   0  0  0  0  0  0  0  0  0  0  0  0
  1 10  1  0  0  0  0
  1 20  1  0  0  0  0
  2 20  2  0  0  0  0
  3 23  1  0  0  0  0
  3 27  1  0  0  0  0
  4 23  2  0  0  0  0
  5  7  1  0  0  0  0
  5 13  1  0  0  0  0
  5 16  1  0  0  0  0
  6 14  1  0  0  0  0
  6 21  1  0  0  0  0
  6 42  1  0  0  0  0
  7  8  1  0  0  0  0
  7  9  1  0  0  0  0
  7 28  1  0  0  0  0
  8 10  1  0  0  0  0
  8 12  1  0  0  0  0
  8 15  1  0  0  0  0
  9 11  1  0  0  0  0
  9 14  1  0  0  0  0
  9 18  1  0  0  0  0
 10 17  1  0  0  0  0
 10 29  1  0  0  0  0
 11 13  1  0  0  0  0
 11 30  1  0  0  0  0
 11 31  1  0  0  0  0
 12 19  1  0  0  0  0
 12 32  1  0  0  0  0
 12 33  1  0  0  0  0
 13 34  1  0  0  0  0
 13 35  1  0  0  0  0
 14 19  2  0  0  0  0
 15 20  1  0  0  0  0
 15 36  1  0  0  0  0
 15 37  1  0  0  0  0
 16 17  1  0  0  0  0
 16 38  1  0  0  0  0
 16 39  1  0  0  0  0
 17 40  1  0  0  0  0
 17 41  1  0  0  0  0
 18 21  1  0  0  0  0
 18 22  2  0  0  0  0
 19 23  1  0  0  0  0
 21 24  2  0  0  0  0
 22 25  1  0  0  0  0
 22 43  1  0  0  0  0
 24 26  1  0  0  0  0
 24 44  1  0  0  0  0
 25 26  2  0  0  0  0
 25 45  1  0  0  0  0
 26 46  1  0  0  0  0
 27 47  1  0  0  0  0
 27 48  1  0  0  0  0
 27 49  1  0  0  0  0
M  END
> <PUBCHEM_COMPOUND_CID>
441984

> <PUBCHEM_CONFORMER_RMSD>
0.8

> <PUBCHEM_CONFORMER_DIVERSEORDER>
1
4
3
2

> <PUBCHEM_MMFF94_PARTIAL_CHARGES>
29
1 -0.43
10 0.28
12 0.14
13 0.27
14 -0.04
15 0.06
16 0.27
18 -0.14
19 -0.12
2 -0.57
20 0.66
21 0.1
22 -0.15
23 0.71
24 -0.15
25 -0.15
26 -0.15
27 0.28
3 -0.43
4 -0.57
42 0.4
43 0.15
44 0.15
45 0.15
46 0.15
5 -0.81
6 -0.6
7 0.27
9 0.28

> <PUBCHEM_EFFECTIVE_ROTOR_COUNT>
3.6

> <PUBCHEM_PHARMACOPHORE_FEATURES>
11
1 2 acceptor
1 4 acceptor
1 5 cation
1 6 cation
1 6 donor
5 1 8 10 15 20 rings
5 5 7 9 11 13 rings
5 6 9 14 18 21 rings
6 18 21 22 24 25 26 rings
6 5 7 8 10 16 17 rings
6 7 8 9 12 14 19 rings

> <PUBCHEM_HEAVY_ATOM_COUNT>
27

> <PUBCHEM_ATOM_DEF_STEREO_COUNT>
4

> <PUBCHEM_ATOM_UDEF_STEREO_COUNT>
0

> <PUBCHEM_BOND_DEF_STEREO_COUNT>
0

> <PUBCHEM_BOND_UDEF_STEREO_COUNT>
0

> <PUBCHEM_ISOTOPIC_ATOM_COUNT>
0

> <PUBCHEM_COMPONENT_COUNT>
1

> <PUBCHEM_CACTVS_TAUTO_COUNT>
6

> <PUBCHEM_CONFORMER_ID>
0006BE8000000001

> <PUBCHEM_MMFF94_ENERGY>
95.3041

> <PUBCHEM_FEATURE_SELFOVERLAP>
56.585

> <PUBCHEM_SHAPE_FINGERPRINT>
10165383 225 17131848542455157039
107951 10 17693073563611102294
10948715 1 17765985486757636536
11578080 2 17386305228341668792
12035759 4 17911820255211152541
12156800 1 16906310257592180753
12160290 23 18122650467381492697
12422481 6 17827043472261601275
12553582 1 18336267821469068902
12714826 92 17822009839341807342
12788726 201 18340774844011112761
13149001 5 17627522535772787282
13681431 1 18049453538662709505
13911987 19 17695607577884725940
14713325 29 18192137403222773566
14790565 3 17909536595320301848
14863182 85 15393129988210213643
15664445 248 17613761078488976127
16752209 62 17902820744211816861
16945 1 18196084675662277930
17349148 13 18059586784791924746
19591789 44 17838046370624689680
19930381 70 17691393118990806234
20905425 154 14952658724100253654
21285901 2 17968092088116150557
21304303 282 17698478672953241676
21524375 3 17835798977727076672
23419403 2 17411337611675655351
23558518 356 18201990054532805136
23559900 14 17774724144168339984
238 59 17114692626050214981
298252 57 17758962906154379688
531348 171 18191011508576535790
6438718 38 18262796401363991952
6669772 16 17402602447392279222
81228 2 18339658805233585377

> <PUBCHEM_SHAPE_MULTIPOLES>
522.21
5.51
4.6
2.2
6.78
6.65
-0.43
-1.2
-1.6
-4.94
-0.21
-0.95
-2.33
-0.36

> <PUBCHEM_SHAPE_SELFOVERLAP>
1185.599

> <PUBCHEM_SHAPE_VOLUME>
274.4

> <PUBCHEM_COORDINATE_TYPE>
2
5
10

$$$$

