9776836
  -OEChem-07051212523D

 16 15  0     0  0  0  0  0  0999 V2000
   -2.6718    2.1845   -0.1697 Cl  0  0  0  0  0  0  0  0  0  0  0  0
    2.5755   -2.1375    0.1386 Cl  0  0  0  0  0  0  0  0  0  0  0  0
   -2.8485   -0.9556    1.2044 O   0  0  0  0  0  0  0  0  0  0  0  0
    3.7631    0.3491   -0.5458 O   0  0  0  0  0  0  0  0  0  0  0  0
   -2.8865   -1.2150   -1.0474 O   0  0  0  0  0  0  0  0  0  0  0  0
    2.2331    1.6579    0.4952 O   0  0  0  0  0  0  0  0  0  0  0  0
   -0.4473    0.6342   -0.0475 C   0  0  0  0  0  0  0  0  0  0  0  0
    0.3595   -0.5757    0.0208 C   0  0  0  0  0  0  0  0  0  0  0  0
   -1.7901    0.7013   -0.0877 C   0  0  0  0  0  0  0  0  0  0  0  0
    1.7030   -0.6410    0.0608 C   0  0  0  0  0  0  0  0  0  0  0  0
   -2.5537   -0.5746   -0.0609 C   0  0  0  0  0  0  0  0  0  0  0  0
    2.5637    0.5724    0.0391 C   0  0  0  0  0  0  0  0  0  0  0  0
    0.0690    1.5859   -0.0972 H   0  0  0  0  0  0  0  0  0  0  0  0
   -0.1820   -1.5190    0.0418 H   0  0  0  0  0  0  0  0  0  0  0  0
   -3.3521   -1.7972    1.2265 H   0  0  0  0  0  0  0  0  0  0  0  0
    4.3228    1.1547   -0.5561 H   0  0  0  0  0  0  0  0  0  0  0  0
  1  9  1  0  0  0  0
  2 10  1  0  0  0  0
  3 11  1  0  0  0  0
  3 15  1  0  0  0  0
  4 12  1  0  0  0  0
  4 16  1  0  0  0  0
  5 11  2  0  0  0  0
  6 12  2  0  0  0  0
  7  8  1  0  0  0  0
  7  9  2  0  0  0  0
  7 13  1  0  0  0  0
  8 10  2  0  0  0  0
  8 14  1  0  0  0  0
  9 11  1  0  0  0  0
 10 12  1  0  0  0  0
M  END
> <PUBCHEM_COMPOUND_CID>
9776836

> <PUBCHEM_CONFORMER_RMSD>
0.6

> <PUBCHEM_CONFORMER_DIVERSEORDER>
1
2

> <PUBCHEM_MMFF94_PARTIAL_CHARGES>
16
1 -0.14
10 0.15
11 0.71
12 0.71
13 0.15
14 0.15
15 0.5
16 0.5
2 -0.14
3 -0.65
4 -0.65
5 -0.57
6 -0.57
7 -0.15
8 -0.15
9 0.15

> <PUBCHEM_EFFECTIVE_ROTOR_COUNT>
3

> <PUBCHEM_PHARMACOPHORE_FEATURES>
6
1 3 acceptor
1 4 acceptor
1 5 acceptor
1 6 acceptor
3 3 5 11 anion
3 4 6 12 anion

> <PUBCHEM_HEAVY_ATOM_COUNT>
12

> <PUBCHEM_ATOM_DEF_STEREO_COUNT>
0

> <PUBCHEM_ATOM_UDEF_STEREO_COUNT>
0

> <PUBCHEM_BOND_DEF_STEREO_COUNT>
2

> <PUBCHEM_BOND_UDEF_STEREO_COUNT>
0

> <PUBCHEM_ISOTOPIC_ATOM_COUNT>
0

> <PUBCHEM_COMPONENT_COUNT>
1

> <PUBCHEM_CACTVS_TAUTO_COUNT>
1

> <PUBCHEM_CONFORMER_ID>
00952EC400000001

> <PUBCHEM_MMFF94_ENERGY>
32.7488

> <PUBCHEM_FEATURE_SELFOVERLAP>
30.565

> <PUBCHEM_SHAPE_FINGERPRINT>
10608611 8 18411703209479473640
12897270 3 18411142398303299012
12932764 1 18187082849379891026
13380535 21 18268701873847872469
14325111 11 18411981390379408844
14648413 74 18266179607153432968
15775835 57 18339636840833714716
16945 1 18339925896353622370
18186145 218 17603862287194700248
19973954 147 18411419548264091632
20201158 50 18343303630391905107
20645477 70 18337678615020203815
21501502 16 18340209699229000670
21524375 3 17835805570897573413
23552423 10 18342180024008199850
25610 137 18270113492443833865
2748010 2 18338801211917308364
3248919 1 17989491822412915954
8030462 33 18342178868677607271
93112 12 18337676445844850196
9939556 21 18266464393428570454

> <PUBCHEM_SHAPE_MULTIPOLES>
227.22
6.06
2.03
0.8
1
0.14
0.03
-0.02
-0.33
-0.16
0.06
-0.35
-0.17
0.04

> <PUBCHEM_SHAPE_SELFOVERLAP>
433.414

> <PUBCHEM_SHAPE_VOLUME>
139.7

> <PUBCHEM_COORDINATE_TYPE>
2
5
10

$$$$

