5281573
  -OEChem-07051212582D

 60 62  0     1  0  0  0  0  0999 V2000
    2.3121   -0.8746    0.0000 O   0  0  0  0  0  0  0  0  0  0  0  0
    4.2297    1.6846    0.0000 O   0  0  0  0  0  0  0  0  0  0  0  0
    5.9781    1.6500    0.0000 O   0  0  0  0  0  0  0  0  0  0  0  0
    9.5082   -1.3741    0.0000 O   0  0  0  0  0  0  0  0  0  0  0  0
    7.7265    1.6846    0.0000 O   0  0  0  0  0  0  0  0  0  0  0  0
    3.3121   -0.8708    0.0000 C   0  0  3  0  0  0  0  0  0  0  0  0
    4.2181   -1.3846    0.0000 C   0  0  0  0  0  0  0  0  0  0  0  0
    3.3121    0.1708    0.0000 C   0  0  0  0  0  0  0  0  0  0  0  0
    5.1121   -0.8500    0.0000 C   0  0  0  0  0  0  0  0  0  0  0  0
    5.1121    0.1500    0.0000 C   0  0  0  0  0  0  0  0  0  0  0  0
    4.2181    0.6847    0.0000 C   0  0  0  0  0  0  0  0  0  0  0  0
    2.8154   -1.7387    0.0000 C   0  0  0  0  0  0  0  0  0  0  0  0
    5.9781   -1.3500    0.0000 C   0  0  0  0  0  0  0  0  0  0  0  0
    5.9781    0.6500    0.0000 C   0  0  0  0  0  0  0  0  0  0  0  0
    6.8441   -0.8500    0.0000 C   0  0  0  0  0  0  0  0  0  0  0  0
    6.8441    0.1500    0.0000 C   0  0  0  0  0  0  0  0  0  0  0  0
    7.7381   -1.3846    0.0000 C   0  0  0  0  0  0  0  0  0  0  0  0
    7.7381    0.6847    0.0000 C   0  0  0  0  0  0  0  0  0  0  0  0
    8.6441   -0.8708    0.0000 C   0  0  0  0  0  0  0  0  0  0  0  0
    8.6441    0.1708    0.0000 C   0  0  0  0  0  0  0  0  0  0  0  0
   10.3762   -0.8775    0.0000 C   0  0  0  0  0  0  0  0  0  0  0  0
   12.9723   -1.3875    0.0000 C   0  0  0  0  0  0  0  0  0  0  0  0
   12.1082   -0.8841    0.0000 C   0  0  0  0  0  0  0  0  0  0  0  0
   11.2403   -1.3808    0.0000 C   0  0  0  0  0  0  0  0  0  0  0  0
   13.8402   -0.8908    0.0000 C   0  0  0  0  0  0  0  0  0  0  0  0
   12.1121    0.1158    0.0000 C   0  0  0  0  0  0  0  0  0  0  0  0
   14.7043   -1.3942    0.0000 C   0  0  0  0  0  0  0  0  0  0  0  0
   15.5723   -0.8975    0.0000 C   0  0  0  0  0  0  0  0  0  0  0  0
   16.4364   -1.4008    0.0000 C   0  0  0  0  0  0  0  0  0  0  0  0
   15.5761    0.1025    0.0000 C   0  0  0  0  0  0  0  0  0  0  0  0
    3.8245   -1.8637    0.0000 H   0  0  0  0  0  0  0  0  0  0  0  0
    4.6227   -1.8544    0.0000 H   0  0  0  0  0  0  0  0  0  0  0  0
    3.1030    0.7545    0.0000 H   0  0  0  0  0  0  0  0  0  0  0  0
    2.7012    0.0647    0.0000 H   0  0  0  0  0  0  0  0  0  0  0  0
    2.2773   -1.4308    0.0000 H   0  0  0  0  0  0  0  0  0  0  0  0
    2.5075   -2.2769    0.0000 H   0  0  0  0  0  0  0  0  0  0  0  0
    3.3535   -2.0467    0.0000 H   0  0  0  0  0  0  0  0  0  0  0  0
    5.9781   -1.9700    0.0000 H   0  0  0  0  0  0  0  0  0  0  0  0
    2.0000   -0.3389    0.0000 H   0  0  0  0  0  0  0  0  0  0  0  0
    7.7309   -2.0046    0.0000 H   0  0  0  0  0  0  0  0  0  0  0  0
    9.1799    0.4829    0.0000 H   0  0  0  0  0  0  0  0  0  0  0  0
    5.4412    1.9600    0.0000 H   0  0  0  0  0  0  0  0  0  0  0  0
    8.2598    2.0008    0.0000 H   0  0  0  0  0  0  0  0  0  0  0  0
   10.7765   -0.4041    0.0000 H   0  0  0  0  0  0  0  0  0  0  0  0
    9.9795   -0.4010    0.0000 H   0  0  0  0  0  0  0  0  0  0  0  0
   12.5719   -1.8609    0.0000 H   0  0  0  0  0  0  0  0  0  0  0  0
   13.3690   -1.8640    0.0000 H   0  0  0  0  0  0  0  0  0  0  0  0
   11.2379   -2.0008    0.0000 H   0  0  0  0  0  0  0  0  0  0  0  0
   14.2406   -0.4174    0.0000 H   0  0  0  0  0  0  0  0  0  0  0  0
   13.4435   -0.4143    0.0000 H   0  0  0  0  0  0  0  0  0  0  0  0
   12.7321    0.1135    0.0000 H   0  0  0  0  0  0  0  0  0  0  0  0
   12.1144    0.7358    0.0000 H   0  0  0  0  0  0  0  0  0  0  0  0
   11.4921    0.1182    0.0000 H   0  0  0  0  0  0  0  0  0  0  0  0
   14.7019   -2.0142    0.0000 H   0  0  0  0  0  0  0  0  0  0  0  0
   16.1961    0.1001    0.0000 H   0  0  0  0  0  0  0  0  0  0  0  0
   16.1243   -1.9366    0.0000 H   0  0  0  0  0  0  0  0  0  0  0  0
   16.9721   -1.7129    0.0000 H   0  0  0  0  0  0  0  0  0  0  0  0
   16.7484   -0.8651    0.0000 H   0  0  0  0  0  0  0  0  0  0  0  0
   15.5785    0.7225    0.0000 H   0  0  0  0  0  0  0  0  0  0  0  0
   14.9561    0.1049    0.0000 H   0  0  0  0  0  0  0  0  0  0  0  0
  1  6  1  0  0  0  0
  1 39  1  0  0  0  0
  2 11  2  0  0  0  0
  3 14  1  0  0  0  0
  3 42  1  0  0  0  0
  4 19  1  0  0  0  0
  4 21  1  0  0  0  0
  5 18  1  0  0  0  0
  5 43  1  0  0  0  0
  6  7  1  0  0  0  0
  6  8  1  0  0  0  0
  6 12  1  0  0  0  0
  7  9  1  0  0  0  0
  7 31  1  0  0  0  0
  7 32  1  0  0  0  0
  8 11  1  0  0  0  0
  8 33  1  0  0  0  0
  8 34  1  0  0  0  0
  9 10  1  0  0  0  0
  9 13  2  0  0  0  0
 10 11  1  0  0  0  0
 10 14  2  0  0  0  0
 12 35  1  0  0  0  0
 12 36  1  0  0  0  0
 12 37  1  0  0  0  0
 13 15  1  0  0  0  0
 13 38  1  0  0  0  0
 14 16  1  0  0  0  0
 15 16  1  0  0  0  0
 15 17  2  0  0  0  0
 16 18  2  0  0  0  0
 17 19  1  0  0  0  0
 17 40  1  0  0  0  0
 18 20  1  0  0  0  0
 19 20  2  0  0  0  0
 20 41  1  0  0  0  0
 21 24  1  0  0  0  0
 21 44  1  0  0  0  0
 21 45  1  0  0  0  0
 22 23  1  0  0  0  0
 22 25  1  0  0  0  0
 22 46  1  0  0  0  0
 22 47  1  0  0  0  0
 23 24  2  0  0  0  0
 23 26  1  0  0  0  0
 24 48  1  0  0  0  0
 25 27  1  0  0  0  0
 25 49  1  0  0  0  0
 25 50  1  0  0  0  0
 26 51  1  0  0  0  0
 26 52  1  0  0  0  0
 26 53  1  0  0  0  0
 27 28  2  0  0  0  0
 27 54  1  0  0  0  0
 28 29  1  0  0  0  0
 28 30  1  0  0  0  0
 29 56  1  0  0  0  0
 29 57  1  0  0  0  0
 29 58  1  0  0  0  0
 30 55  1  0  0  0  0
 30 59  1  0  0  0  0
 30 60  1  0  0  0  0
M  END
> <PUBCHEM_COMPOUND_CID>
5281573

> <PUBCHEM_COMPOUND_CANONICALIZED>
1

> <PUBCHEM_CACTVS_COMPLEXITY>
679

> <PUBCHEM_CACTVS_HBOND_ACCEPTOR>
5

> <PUBCHEM_CACTVS_HBOND_DONOR>
3

> <PUBCHEM_CACTVS_ROTATABLE_BOND>
6

> <PUBCHEM_CACTVS_SUBSKEYS>
AAADceB4OAAAAAAAAAAAAAAAAAAAAAAAAAAwYMAAAAAAAADBUAAAGgAACAAADESgmAIyBsAABgCIAqBSAAACCAAkIAAAiAEGCMgMJzaGNRqCeWCl4BUIuQeI7PzO4AADCAAYAADAAAYQADAAAAAAAAAAAA==

> <PUBCHEM_IUPAC_OPENEYE_NAME>
6-[(2E)-3,7-dimethylocta-2,6-dienoxy]-3,8,9-trihydroxy-3-methyl-2,4-dihydroanthracen-1-one

> <PUBCHEM_IUPAC_CAS_NAME>
6-[(2E)-3,7-dimethylocta-2,6-dienoxy]-3,8,9-trihydroxy-3-methyl-2,4-dihydroanthracen-1-one

> <PUBCHEM_IUPAC_NAME>
6-[(2E)-3,7-dimethylocta-2,6-dienoxy]-3,8,9-trihydroxy-3-methyl-2,4-dihydroanthracen-1-one

> <PUBCHEM_IUPAC_SYSTEMATIC_NAME>
6-[(2E)-3,7-dimethylocta-2,6-dienoxy]-3-methyl-3,8,9-tris(oxidanyl)-2,4-dihydroanthracen-1-one

> <PUBCHEM_IUPAC_TRADITIONAL_NAME>
6-[(2E)-3,7-dimethylocta-2,6-dienoxy]-3,8,9-trihydroxy-3-methyl-2,4-dihydroanthracen-1-one

> <PUBCHEM_IUPAC_INCHI>
InChI=1S/C25H30O5/c1-15(2)6-5-7-16(3)8-9-30-19-11-17-10-18-13-25(4,29)14-21(27)23(18)24(28)22(17)20(26)12-19/h6,8,10-12,26,28-29H,5,7,9,13-14H2,1-4H3/b16-8+

> <PUBCHEM_IUPAC_INCHIKEY>
KZPCPZBBGCTGCN-LZYBPNLTSA-N

> <PUBCHEM_XLOGP3_AA>
5.7

> <PUBCHEM_EXACT_MASS>
410.209324

> <PUBCHEM_MOLECULAR_FORMULA>
C25H30O5

> <PUBCHEM_MOLECULAR_WEIGHT>
410.5027

> <PUBCHEM_OPENEYE_CAN_SMILES>
CC(=CCCC(=CCOC1=CC2=CC3=C(C(=O)CC(C3)(C)O)C(=C2C(=C1)O)O)C)C

> <PUBCHEM_OPENEYE_ISO_SMILES>
CC(=CCC/C(=C/COC1=CC2=CC3=C(C(=O)CC(C3)(C)O)C(=C2C(=C1)O)O)/C)C

> <PUBCHEM_CACTVS_TPSA>
87

> <PUBCHEM_MONOISOTOPIC_WEIGHT>
410.209324

> <PUBCHEM_TOTAL_CHARGE>
0

> <PUBCHEM_HEAVY_ATOM_COUNT>
30

> <PUBCHEM_ATOM_DEF_STEREO_COUNT>
0

> <PUBCHEM_ATOM_UDEF_STEREO_COUNT>
1

> <PUBCHEM_BOND_DEF_STEREO_COUNT>
1

> <PUBCHEM_BOND_UDEF_STEREO_COUNT>
0

> <PUBCHEM_ISOTOPIC_ATOM_COUNT>
0

> <PUBCHEM_COMPONENT_COUNT>
1

> <PUBCHEM_CACTVS_TAUTO_COUNT>
100

> <PUBCHEM_COORDINATE_TYPE>
1
5
255

> <PUBCHEM_BONDANNOTATIONS>
6  1  3
10  14  8
13  15  8
14  16  8
15  16  8
15  17  8
16  18  8
17  19  8
18  20  8
19  20  8
9  10  8
9  13  8

$$$$

