17395703
  -OEChem-06241222513D

 35 36  0     0  0  0  0  0  0999 V2000
   -1.5670   -1.1887    2.4216 Cl  0  0  0  0  0  0  0  0  0  0  0  0
    3.0267    2.4156    0.2287 S   0  0  0  0  0  0  0  0  0  0  0  0
   -5.0866   -0.8479   -1.1893 F   0  0  0  0  0  0  0  0  0  0  0  0
    0.0807    2.9634   -0.5425 O   0  0  0  0  0  0  0  0  0  0  0  0
    3.0743   -1.0562   -1.6016 N   0  0  0  0  0  0  0  0  0  0  0  0
    2.3178   -0.2430    0.3980 N   0  0  0  0  0  0  0  0  0  0  0  0
    3.3218    0.2565   -1.4775 N   0  0  0  0  0  0  0  0  0  0  0  0
   -0.4090    1.1951    0.9309 N   0  0  0  0  0  0  0  0  0  0  0  0
    2.0008   -2.6795   -0.1300 C   0  0  0  0  0  0  0  0  0  0  0  0
    2.4657   -1.3099   -0.4412 C   0  0  0  0  0  0  0  0  0  0  0  0
    0.5740   -2.9681   -0.6508 C   0  0  0  0  0  0  0  0  0  0  0  0
    2.0751   -3.0171    1.3771 C   0  0  0  0  0  0  0  0  0  0  0  0
    2.8689    0.7323   -0.2866 C   0  0  0  0  0  0  0  0  0  0  0  0
    1.5630    2.5618    1.2820 C   0  0  0  0  0  0  0  0  0  0  0  0
   -1.5928    0.6603    0.4136 C   0  0  0  0  0  0  0  0  0  0  0  0
    0.3313    2.2813    0.4480 C   0  0  0  0  0  0  0  0  0  0  0  0
   -2.2186   -0.4340    1.0109 C   0  0  0  0  0  0  0  0  0  0  0  0
   -2.1471    1.2454   -0.7249 C   0  0  0  0  0  0  0  0  0  0  0  0
   -3.3987   -0.9436    0.4693 C   0  0  0  0  0  0  0  0  0  0  0  0
   -3.3272    0.7354   -1.2666 C   0  0  0  0  0  0  0  0  0  0  0  0
   -3.9530   -0.3590   -0.6694 C   0  0  0  0  0  0  0  0  0  0  0  0
    2.6704   -3.3915   -0.6333 H   0  0  0  0  0  0  0  0  0  0  0  0
    0.5209   -2.8217   -1.7352 H   0  0  0  0  0  0  0  0  0  0  0  0
    0.2796   -3.9999   -0.4327 H   0  0  0  0  0  0  0  0  0  0  0  0
   -0.1552   -2.2963   -0.1902 H   0  0  0  0  0  0  0  0  0  0  0  0
    1.7906   -4.0592    1.5561 H   0  0  0  0  0  0  0  0  0  0  0  0
    3.0932   -2.8733    1.7554 H   0  0  0  0  0  0  0  0  0  0  0  0
    1.4074   -2.3755    1.9616 H   0  0  0  0  0  0  0  0  0  0  0  0
    3.3368   -1.5936   -2.4233 H   0  0  0  0  0  0  0  0  0  0  0  0
    1.4915    3.5841    1.6661 H   0  0  0  0  0  0  0  0  0  0  0  0
    1.6498    1.8882    2.1394 H   0  0  0  0  0  0  0  0  0  0  0  0
   -0.0574    0.7233    1.7611 H   0  0  0  0  0  0  0  0  0  0  0  0
   -1.7336    2.0928   -1.2508 H   0  0  0  0  0  0  0  0  0  0  0  0
   -3.8990   -1.7958    0.9221 H   0  0  0  0  0  0  0  0  0  0  0  0
   -3.7607    1.1894   -2.1530 H   0  0  0  0  0  0  0  0  0  0  0  0
  1 17  1  0  0  0  0
  2 13  1  0  0  0  0
  2 14  1  0  0  0  0
  3 21  1  0  0  0  0
  4 16  2  0  0  0  0
  5  7  1  0  0  0  0
  5 10  1  0  0  0  0
  5 29  1  0  0  0  0
  6 10  2  0  0  0  0
  6 13  1  0  0  0  0
  7 13  2  0  0  0  0
  8 15  1  0  0  0  0
  8 16  1  0  0  0  0
  8 32  1  0  0  0  0
  9 10  1  0  0  0  0
  9 11  1  0  0  0  0
  9 12  1  0  0  0  0
  9 22  1  0  0  0  0
 11 23  1  0  0  0  0
 11 24  1  0  0  0  0
 11 25  1  0  0  0  0
 12 26  1  0  0  0  0
 12 27  1  0  0  0  0
 12 28  1  0  0  0  0
 14 16  1  0  0  0  0
 14 30  1  0  0  0  0
 14 31  1  0  0  0  0
 15 17  2  0  0  0  0
 15 18  1  0  0  0  0
 17 19  1  0  0  0  0
 18 20  2  0  0  0  0
 18 33  1  0  0  0  0
 19 21  2  0  0  0  0
 19 34  1  0  0  0  0
 20 21  1  0  0  0  0
 20 35  1  0  0  0  0
M  END
> <PUBCHEM_COMPOUND_CID>
17395703

> <PUBCHEM_CONFORMER_RMSD>
1

> <PUBCHEM_CONFORMER_DIVERSEORDER>
1
95
43
69
18
96
66
9
99
30
63
36
104
8
41
89
79
2
24
44
86
3
72
60
6
33
80
83
5
64
85
78
98
84
10
103
42
81
75
20
23
13
53
27
67
94
32
68
35
91
71
7
90
25
28
40
49
19
46
15
59
4
88
82
73
102
29
34
58
93
31
11
38
37
14
76
54
50
70
48
51
17
21
62
65
57
77
97
12
39
47
52
22
92
56
101
16
74
55
100
45
26
87
61

> <PUBCHEM_MMFF94_PARTIAL_CHARGES>
24
1 -0.18
10 0.01
13 0.57
14 0.29
15 0.12
16 0.57
17 0.18
18 -0.15
19 -0.15
2 -0.28
20 -0.15
21 0.19
29 0.27
3 -0.19
32 0.37
33 0.15
34 0.15
35 0.15
4 -0.57
5 0.3
6 -0.57
7 -0.71
8 -0.55
9 0.18

> <PUBCHEM_EFFECTIVE_ROTOR_COUNT>
6

> <PUBCHEM_PHARMACOPHORE_FEATURES>
8
1 4 acceptor
1 5 donor
1 8 donor
3 5 6 10 cation
3 6 7 13 cation
3 9 11 12 hydrophobe
5 5 6 7 10 13 rings
6 15 17 18 19 20 21 rings

> <PUBCHEM_HEAVY_ATOM_COUNT>
21

> <PUBCHEM_ATOM_DEF_STEREO_COUNT>
0

> <PUBCHEM_ATOM_UDEF_STEREO_COUNT>
0

> <PUBCHEM_BOND_DEF_STEREO_COUNT>
0

> <PUBCHEM_BOND_UDEF_STEREO_COUNT>
0

> <PUBCHEM_ISOTOPIC_ATOM_COUNT>
0

> <PUBCHEM_COMPONENT_COUNT>
1

> <PUBCHEM_CACTVS_TAUTO_COUNT>
10

> <PUBCHEM_CONFORMER_ID>
01096FF700000001

> <PUBCHEM_MMFF94_ENERGY>
49.4657

> <PUBCHEM_FEATURE_SELFOVERLAP>
43.343

> <PUBCHEM_SHAPE_FINGERPRINT>
10366900 7 18343577438857130879
11370993 70 17346877844923339474
12363563 72 18262233438636328046
12553582 1 18120362409521920858
12596599 1 17386549345434375382
12788726 201 17832414680899787632
1420 336 17403166492467032146
15635459 17 18411420579166791569
17138139 8 16739201760223203447
17492 54 18338222761922827212
17818456 19 17459736203056340713
18219364 16 18266444417651864642
192875 21 17912934073375368322
19930381 70 18409737278800121095
20645477 70 18187651271427934205
21731516 1 17968935434782812488
23503958 8 15647879556690682918
23526113 38 18059858402233018137
23557571 272 17465120618280605722
23559900 14 17988926664951838652
238 59 18410573963724457730
2748010 2 18125147247839581824
2871803 45 18408600357790841172
3060560 45 18339088068693937992
3323516 105 18412267220737807287
33824 294 18335708178371225576
3472631 163 16128098832523604173
463206 1 17971764272343350191
5262128 65 18049435134743930098

> <PUBCHEM_SHAPE_MULTIPOLES>
404.82
6.99
3.65
1.63
5.3
0.59
0.47
0.79
-2.73
-3.29
0.61
0.35
0.47
0.68

> <PUBCHEM_SHAPE_SELFOVERLAP>
827.447

> <PUBCHEM_SHAPE_VOLUME>
238.6

> <PUBCHEM_COORDINATE_TYPE>
2
5
10

$$$$

