3781
  -OEChem-06251223402D

 39 41  0     1  0  0  0  0  0999 V2000
    4.6660   -2.4827    0.0000 S   0  0  0  0  0  0  0  0  0  0  0  0
    4.6660   -0.4827    0.0000 N   0  0  0  0  0  0  0  0  0  0  0  0
    5.5321    2.0173    0.0000 N   0  0  0  0  0  0  0  0  0  0  0  0
    2.9061   -0.4480    0.0000 N   0  0  0  0  0  0  0  0  0  0  0  0
    5.5321    1.0173    0.0000 C   0  0  3  0  0  0  0  0  0  0  0  0
    4.6660    0.5173    0.0000 C   0  0  0  0  0  0  0  0  0  0  0  0
    5.5321   -0.9827    0.0000 C   0  0  0  0  0  0  0  0  0  0  0  0
    6.3981    0.5173    0.0000 C   0  0  0  0  0  0  0  0  0  0  0  0
    3.8000   -0.9827    0.0000 C   0  0  0  0  0  0  0  0  0  0  0  0
    5.5321   -1.9827    0.0000 C   0  0  0  0  0  0  0  0  0  0  0  0
    3.8000   -1.9827    0.0000 C   0  0  0  0  0  0  0  0  0  0  0  0
    6.3981    2.5173    0.0000 C   0  0  0  0  0  0  0  0  0  0  0  0
    4.6660    2.5173    0.0000 C   0  0  0  0  0  0  0  0  0  0  0  0
    6.4260   -0.4480    0.0000 C   0  0  0  0  0  0  0  0  0  0  0  0
    6.4260   -2.5173    0.0000 C   0  0  0  0  0  0  0  0  0  0  0  0
    2.9061   -2.5173    0.0000 C   0  0  0  0  0  0  0  0  0  0  0  0
    7.3321   -0.9619    0.0000 C   0  0  0  0  0  0  0  0  0  0  0  0
    7.3321   -2.0035    0.0000 C   0  0  0  0  0  0  0  0  0  0  0  0
    2.0000   -0.9619    0.0000 C   0  0  0  0  0  0  0  0  0  0  0  0
    2.0000   -2.0035    0.0000 C   0  0  0  0  0  0  0  0  0  0  0  0
    6.0690    1.3273    0.0000 H   0  0  0  0  0  0  0  0  0  0  0  0
    4.4540    1.0999    0.0000 H   0  0  0  0  0  0  0  0  0  0  0  0
    4.0555    0.4097    0.0000 H   0  0  0  0  0  0  0  0  0  0  0  0
    6.0881   -0.0196    0.0000 H   0  0  0  0  0  0  0  0  0  0  0  0
    6.9350    0.2073    0.0000 H   0  0  0  0  0  0  0  0  0  0  0  0
    6.7081    1.0543    0.0000 H   0  0  0  0  0  0  0  0  0  0  0  0
    6.7081    1.9804    0.0000 H   0  0  0  0  0  0  0  0  0  0  0  0
    6.9350    2.8273    0.0000 H   0  0  0  0  0  0  0  0  0  0  0  0
    6.0881    3.0543    0.0000 H   0  0  0  0  0  0  0  0  0  0  0  0
    4.9760    3.0543    0.0000 H   0  0  0  0  0  0  0  0  0  0  0  0
    4.1291    2.8273    0.0000 H   0  0  0  0  0  0  0  0  0  0  0  0
    4.3560    1.9804    0.0000 H   0  0  0  0  0  0  0  0  0  0  0  0
    6.4188    0.1720    0.0000 H   0  0  0  0  0  0  0  0  0  0  0  0
    6.4188   -3.1373    0.0000 H   0  0  0  0  0  0  0  0  0  0  0  0
    2.9132   -3.1373    0.0000 H   0  0  0  0  0  0  0  0  0  0  0  0
    7.8678   -0.6498    0.0000 H   0  0  0  0  0  0  0  0  0  0  0  0
    7.8678   -2.3156    0.0000 H   0  0  0  0  0  0  0  0  0  0  0  0
    1.4643   -0.6498    0.0000 H   0  0  0  0  0  0  0  0  0  0  0  0
    1.4643   -2.3156    0.0000 H   0  0  0  0  0  0  0  0  0  0  0  0
  1 10  1  0  0  0  0
  1 11  1  0  0  0  0
  2  6  1  0  0  0  0
  2  7  1  0  0  0  0
  2  9  1  0  0  0  0
  3  5  1  0  0  0  0
  3 12  1  0  0  0  0
  3 13  1  0  0  0  0
  4  9  1  0  0  0  0
  4 19  2  0  0  0  0
  5  6  1  0  0  0  0
  5  8  1  0  0  0  0
  5 21  1  0  0  0  0
  6 22  1  0  0  0  0
  6 23  1  0  0  0  0
  7 10  1  0  0  0  0
  7 14  2  0  0  0  0
  8 24  1  0  0  0  0
  8 25  1  0  0  0  0
  8 26  1  0  0  0  0
  9 11  2  0  0  0  0
 10 15  2  0  0  0  0
 11 16  1  0  0  0  0
 12 27  1  0  0  0  0
 12 28  1  0  0  0  0
 12 29  1  0  0  0  0
 13 30  1  0  0  0  0
 13 31  1  0  0  0  0
 13 32  1  0  0  0  0
 14 17  1  0  0  0  0
 14 33  1  0  0  0  0
 15 18  1  0  0  0  0
 15 34  1  0  0  0  0
 16 20  2  0  0  0  0
 16 35  1  0  0  0  0
 17 18  2  0  0  0  0
 17 36  1  0  0  0  0
 18 37  1  0  0  0  0
 19 20  1  0  0  0  0
 19 38  1  0  0  0  0
 20 39  1  0  0  0  0
M  END
> <PUBCHEM_COMPOUND_CID>
3781

> <PUBCHEM_COMPOUND_CANONICALIZED>
1

> <PUBCHEM_CACTVS_COMPLEXITY>
323

> <PUBCHEM_CACTVS_HBOND_ACCEPTOR>
4

> <PUBCHEM_CACTVS_HBOND_DONOR>
0

> <PUBCHEM_CACTVS_ROTATABLE_BOND>
3

> <PUBCHEM_CACTVS_SUBSKEYS>
AAADceB7AABAAAAAAAAAAAAAAAAAAAAAAAA8WIAAAAAAAACxwAAAHAQAAAAACCjBUgQ/8ZMIEAigADZnZACCgCkxCjAJ2Dw4ZJiIYOLgmZGUIAhogALoyCcQAAAAAAAAAAAAAQAAAAAAAAACAAAAAAAAAA==

> <PUBCHEM_IUPAC_OPENEYE_NAME>
N,N-dimethyl-1-pyrido[3,2-b][1,4]benzothiazin-10-yl-propan-2-amine

> <PUBCHEM_IUPAC_CAS_NAME>
N,N-dimethyl-1-(10-pyrido[3,2-b][1,4]benzothiazinyl)-2-propanamine

> <PUBCHEM_IUPAC_NAME>
N,N-dimethyl-1-pyrido[3,2-b][1,4]benzothiazin-10-ylpropan-2-amine

> <PUBCHEM_IUPAC_SYSTEMATIC_NAME>
N,N-dimethyl-1-pyrido[3,2-b][1,4]benzothiazin-10-yl-propan-2-amine

> <PUBCHEM_IUPAC_TRADITIONAL_NAME>
dimethyl-(1-methyl-2-pyrido[3,2-b][1,4]benzothiazin-10-yl-ethyl)amine

> <PUBCHEM_IUPAC_INCHI>
InChI=1S/C16H19N3S/c1-12(18(2)3)11-19-13-7-4-5-8-14(13)20-15-9-6-10-17-16(15)19/h4-10,12H,11H2,1-3H3

> <PUBCHEM_IUPAC_INCHIKEY>
OQJBSDFFQWMKBQ-UHFFFAOYSA-N

> <PUBCHEM_XLOGP3_AA>
3.5

> <PUBCHEM_EXACT_MASS>
285.129969

> <PUBCHEM_MOLECULAR_FORMULA>
C16H19N3S

> <PUBCHEM_MOLECULAR_WEIGHT>
285.40716

> <PUBCHEM_OPENEYE_CAN_SMILES>
CC(CN1C2=CC=CC=C2SC3=C1N=CC=C3)N(C)C

> <PUBCHEM_OPENEYE_ISO_SMILES>
CC(CN1C2=CC=CC=C2SC3=C1N=CC=C3)N(C)C

> <PUBCHEM_CACTVS_TPSA>
44.7

> <PUBCHEM_MONOISOTOPIC_WEIGHT>
285.129969

> <PUBCHEM_TOTAL_CHARGE>
0

> <PUBCHEM_HEAVY_ATOM_COUNT>
20

> <PUBCHEM_ATOM_DEF_STEREO_COUNT>
0

> <PUBCHEM_ATOM_UDEF_STEREO_COUNT>
1

> <PUBCHEM_BOND_DEF_STEREO_COUNT>
0

> <PUBCHEM_BOND_UDEF_STEREO_COUNT>
0

> <PUBCHEM_ISOTOPIC_ATOM_COUNT>
0

> <PUBCHEM_COMPONENT_COUNT>
1

> <PUBCHEM_CACTVS_TAUTO_COUNT>
1

> <PUBCHEM_COORDINATE_TYPE>
1
5
255

> <PUBCHEM_BONDANNOTATIONS>
10  15  8
11  16  8
14  17  8
15  18  8
16  20  8
17  18  8
19  20  8
4  19  8
4  9  8
5  8  3
7  10  8
7  14  8
9  11  8

$$$$

