11954110
  -OEChem-07051213062D

 63 66  0     1  0  0  0  0  0999 V2000
    9.2854    3.1396    0.0000 O   0  0  0  0  0  0  0  0  0  0  0  0
    3.0000   -1.5354    0.0000 O   0  0  0  0  0  0  0  0  0  0  0  0
    2.0000   -1.5316    0.0000 O   0  0  0  0  0  0  0  0  0  0  0  0
    4.4966   -2.4072    0.0000 O   0  0  0  0  0  0  0  0  0  0  0  0
    6.2964    0.8843    0.0000 C   0  0  1  0  0  0  0  0  0  0  0  0
    7.1624    0.3843    0.0000 C   0  0  2  0  0  0  0  0  0  0  0  0
    5.3864    0.3775    0.0000 C   0  0  2  0  0  0  0  0  0  0  0  0
    8.0285    0.8843    0.0000 C   0  0  1  0  0  0  0  0  0  0  0  0
    8.0285    1.8844    0.0000 C   0  0  2  0  0  0  0  0  0  0  0  0
    5.3784   -0.6641    0.0000 C   0  0  1  0  0  0  0  0  0  0  0  0
    6.2964    1.8844    0.0000 C   0  0  0  0  0  0  0  0  0  0  0  0
    7.1785   -0.6572    0.0000 C   0  0  0  0  0  0  0  0  0  0  0  0
    7.1624    2.3844    0.0000 C   0  0  0  0  0  0  0  0  0  0  0  0
    6.2805   -1.1849    0.0000 C   0  0  0  0  0  0  0  0  0  0  0  0
    8.9747    0.5796    0.0000 C   0  0  0  0  0  0  0  0  0  0  0  0
    8.9747    2.1891    0.0000 C   0  0  2  0  0  0  0  0  0  0  0  0
    4.4596    0.9416    0.0000 C   0  0  0  0  0  0  0  0  0  0  0  0
    4.4430   -1.2138    0.0000 C   0  0  0  0  0  0  0  0  0  0  0  0
    9.5583    1.3844    0.0000 C   0  0  0  0  0  0  0  0  0  0  0  0
    5.3941    1.3775    0.0000 C   0  0  0  0  0  0  0  0  0  0  0  0
    3.5033   -0.6713    0.0000 C   0  0  2  0  0  0  0  0  0  0  0  0
    3.5117    0.4136    0.0000 C   0  0  0  0  0  0  0  0  0  0  0  0
    8.0285    2.8844    0.0000 C   0  0  0  0  0  0  0  0  0  0  0  0
    2.5033   -0.6675    0.0000 C   0  0  0  0  0  0  0  0  0  0  0  0
    2.0067    0.2005    0.0000 C   0  0  0  0  0  0  0  0  0  0  0  0
    3.4966   -2.4034    0.0000 C   0  0  0  0  0  0  0  0  0  0  0  0
    2.9933   -3.2675    0.0000 C   0  0  0  0  0  0  0  0  0  0  0  0
    7.0325    1.3094    0.0000 H   0  0  0  0  0  0  0  0  0  0  0  0
    7.9018   -0.0350    0.0000 H   0  0  0  0  0  0  0  0  0  0  0  0
    8.1184    0.0391    0.0000 H   0  0  0  0  0  0  0  0  0  0  0  0
    5.3817   -1.5141    0.0000 H   0  0  0  0  0  0  0  0  0  0  0  0
    6.0844    2.4670    0.0000 H   0  0  0  0  0  0  0  0  0  0  0  0
    5.6858    1.7767    0.0000 H   0  0  0  0  0  0  0  0  0  0  0  0
    7.3965   -1.2376    0.0000 H   0  0  0  0  0  0  0  0  0  0  0  0
    7.7876   -0.5417    0.0000 H   0  0  0  0  0  0  0  0  0  0  0  0
    7.5610    2.8593    0.0000 H   0  0  0  0  0  0  0  0  0  0  0  0
    6.7639    2.8593    0.0000 H   0  0  0  0  0  0  0  0  0  0  0  0
    5.8832   -1.6609    0.0000 H   0  0  0  0  0  0  0  0  0  0  0  0
    6.6814   -1.6578    0.0000 H   0  0  0  0  0  0  0  0  0  0  0  0
    8.7236    0.0127    0.0000 H   0  0  0  0  0  0  0  0  0  0  0  0
    9.5121    0.2704    0.0000 H   0  0  0  0  0  0  0  0  0  0  0  0
    8.5372    2.6284    0.0000 H   0  0  0  0  0  0  0  0  0  0  0  0
    4.8678    1.4082    0.0000 H   0  0  0  0  0  0  0  0  0  0  0  0
    4.0697    1.4236    0.0000 H   0  0  0  0  0  0  0  0  0  0  0  0
    4.0456   -1.6898    0.0000 H   0  0  0  0  0  0  0  0  0  0  0  0
    4.8439   -1.6867    0.0000 H   0  0  0  0  0  0  0  0  0  0  0  0
   10.0192    0.9696    0.0000 H   0  0  0  0  0  0  0  0  0  0  0  0
   10.0192    1.7991    0.0000 H   0  0  0  0  0  0  0  0  0  0  0  0
    6.0141    1.3727    0.0000 H   0  0  0  0  0  0  0  0  0  0  0  0
    5.3989    1.9974    0.0000 H   0  0  0  0  0  0  0  0  0  0  0  0
    4.7741    1.3822    0.0000 H   0  0  0  0  0  0  0  0  0  0  0  0
    3.3071    0.9989    0.0000 H   0  0  0  0  0  0  0  0  0  0  0  0
    2.9000    0.3123    0.0000 H   0  0  0  0  0  0  0  0  0  0  0  0
    8.6485    2.8844    0.0000 H   0  0  0  0  0  0  0  0  0  0  0  0
    8.0285    3.5044    0.0000 H   0  0  0  0  0  0  0  0  0  0  0  0
    7.4085    2.8844    0.0000 H   0  0  0  0  0  0  0  0  0  0  0  0
    9.8920    3.2675    0.0000 H   0  0  0  0  0  0  0  0  0  0  0  0
    2.5448    0.5084    0.0000 H   0  0  0  0  0  0  0  0  0  0  0  0
    1.6988    0.7386    0.0000 H   0  0  0  0  0  0  0  0  0  0  0  0
    1.4686   -0.1075    0.0000 H   0  0  0  0  0  0  0  0  0  0  0  0
    2.4576   -2.9554    0.0000 H   0  0  0  0  0  0  0  0  0  0  0  0
    2.6812   -3.8032    0.0000 H   0  0  0  0  0  0  0  0  0  0  0  0
    3.5290   -3.5795    0.0000 H   0  0  0  0  0  0  0  0  0  0  0  0
 16  1  1  1  0  0  0
  1 57  1  0  0  0  0
 21  2  1  1  0  0  0
  2 26  1  0  0  0  0
  3 24  2  0  0  0  0
  4 26  2  0  0  0  0
  5  6  1  0  0  0  0
  5  7  1  0  0  0  0
  5 11  1  0  0  0  0
  5 28  1  6  0  0  0
  6  8  1  0  0  0  0
  6 12  1  0  0  0  0
  6 29  1  1  0  0  0
  7 10  1  0  0  0  0
  7 17  1  0  0  0  0
  7 20  1  1  0  0  0
  8  9  1  0  0  0  0
  8 15  1  0  0  0  0
  8 30  1  6  0  0  0
  9 13  1  0  0  0  0
  9 16  1  0  0  0  0
  9 23  1  1  0  0  0
 10 14  1  0  0  0  0
 10 18  1  0  0  0  0
 10 31  1  6  0  0  0
 11 13  1  0  0  0  0
 11 32  1  0  0  0  0
 11 33  1  0  0  0  0
 12 14  1  0  0  0  0
 12 34  1  0  0  0  0
 12 35  1  0  0  0  0
 13 36  1  0  0  0  0
 13 37  1  0  0  0  0
 14 38  1  0  0  0  0
 14 39  1  0  0  0  0
 15 19  1  0  0  0  0
 15 40  1  0  0  0  0
 15 41  1  0  0  0  0
 16 19  1  0  0  0  0
 16 42  1  0  0  0  0
 17 22  1  0  0  0  0
 17 43  1  0  0  0  0
 17 44  1  0  0  0  0
 18 21  1  0  0  0  0
 18 45  1  0  0  0  0
 18 46  1  0  0  0  0
 19 47  1  0  0  0  0
 19 48  1  0  0  0  0
 20 49  1  0  0  0  0
 20 50  1  0  0  0  0
 20 51  1  0  0  0  0
 21 22  1  0  0  0  0
 21 24  1  0  0  0  0
 22 52  1  0  0  0  0
 22 53  1  0  0  0  0
 23 54  1  0  0  0  0
 23 55  1  0  0  0  0
 23 56  1  0  0  0  0
 24 25  1  0  0  0  0
 25 58  1  0  0  0  0
 25 59  1  0  0  0  0
 25 60  1  0  0  0  0
 26 27  1  0  0  0  0
 27 61  1  0  0  0  0
 27 62  1  0  0  0  0
 27 63  1  0  0  0  0
M  END
> <PUBCHEM_COMPOUND_CID>
11954110

> <PUBCHEM_COMPOUND_CANONICALIZED>
1

> <PUBCHEM_CACTVS_COMPLEXITY>
644

> <PUBCHEM_CACTVS_HBOND_ACCEPTOR>
4

> <PUBCHEM_CACTVS_HBOND_DONOR>
1

> <PUBCHEM_CACTVS_ROTATABLE_BOND>
3

> <PUBCHEM_CACTVS_SUBSKEYS>
AAADcfB4OAAAAAAAAAAAAAAAAAAAAYAAAAAwYMAAAAAAAGDAAAAAGgAACAAAD1SggAICCAAABgAIAICQCAIAAAAAAAAAAAFAAAAAEBIAAAQCQAAEAAAAAAGIyPCPgAAAAAAAAADAAAYAACAAAIAADAAAAA==

> <PUBCHEM_IUPAC_OPENEYE_NAME>
[(3S,5S,8R,9S,10S,13S,14S,17S)-3-acetyl-17-hydroxy-10,13-dimethyl-1,2,4,5,6,7,8,9,11,12,14,15,16,17-tetradecahydrocyclopenta[a]phenanthren-3-yl] acetate

> <PUBCHEM_IUPAC_CAS_NAME>
acetic acid [(3S,5S,8R,9S,10S,13S,14S,17S)-3-acetyl-17-hydroxy-10,13-dimethyl-1,2,4,5,6,7,8,9,11,12,14,15,16,17-tetradecahydrocyclopenta[a]phenanthren-3-yl] ester

> <PUBCHEM_IUPAC_NAME>
[(3S,5S,8R,9S,10S,13S,14S,17S)-3-acetyl-17-hydroxy-10,13-dimethyl-1,2,4,5,6,7,8,9,11,12,14,15,16,17-tetradecahydrocyclopenta[a]phenanthren-3-yl] acetate

> <PUBCHEM_IUPAC_SYSTEMATIC_NAME>
[(3S,5S,8R,9S,10S,13S,14S,17S)-3-ethanoyl-10,13-dimethyl-17-oxidanyl-1,2,4,5,6,7,8,9,11,12,14,15,16,17-tetradecahydrocyclopenta[a]phenanthren-3-yl] ethanoate

> <PUBCHEM_IUPAC_TRADITIONAL_NAME>
acetic acid [(3S,5S,8R,9S,10S,13S,14S,17S)-3-acetyl-17-hydroxy-10,13-dimethyl-1,2,4,5,6,7,8,9,11,12,14,15,16,17-tetradecahydrocyclopenta[a]phenanthren-3-yl] ester

> <PUBCHEM_IUPAC_INCHI>
InChI=1S/C23H36O4/c1-14(24)23(27-15(2)25)12-11-21(3)16(13-23)5-6-17-18-7-8-20(26)22(18,4)10-9-19(17)21/h16-20,26H,5-13H2,1-4H3/t16-,17-,18-,19-,20-,21-,22-,23-/m0/s1

> <PUBCHEM_IUPAC_INCHIKEY>
CQNXXURIGGLIOE-FTQGCKHGSA-N

> <PUBCHEM_XLOGP3>
4.3

> <PUBCHEM_EXACT_MASS>
376.26136

> <PUBCHEM_MOLECULAR_FORMULA>
C23H36O4

> <PUBCHEM_MOLECULAR_WEIGHT>
376.52954

> <PUBCHEM_OPENEYE_CAN_SMILES>
CC(=O)C1(CCC2(C(C1)CCC3C2CCC4(C3CCC4O)C)C)OC(=O)C

> <PUBCHEM_OPENEYE_ISO_SMILES>
CC(=O)[C@@]1(CC[C@]2([C@H](C1)CC[C@@H]3[C@@H]2CC[C@]4([C@H]3CC[C@@H]4O)C)C)OC(=O)C

> <PUBCHEM_CACTVS_TPSA>
63.6

> <PUBCHEM_MONOISOTOPIC_WEIGHT>
376.26136

> <PUBCHEM_TOTAL_CHARGE>
0

> <PUBCHEM_HEAVY_ATOM_COUNT>
27

> <PUBCHEM_ATOM_DEF_STEREO_COUNT>
8

> <PUBCHEM_ATOM_UDEF_STEREO_COUNT>
0

> <PUBCHEM_BOND_DEF_STEREO_COUNT>
0

> <PUBCHEM_BOND_UDEF_STEREO_COUNT>
0

> <PUBCHEM_ISOTOPIC_ATOM_COUNT>
0

> <PUBCHEM_COMPONENT_COUNT>
1

> <PUBCHEM_CACTVS_TAUTO_COUNT>
2

> <PUBCHEM_COORDINATE_TYPE>
1
5
255

> <PUBCHEM_BONDANNOTATIONS>
16  1  5
10  31  6
21  2  5
5  28  6
6  29  5
7  20  5
8  30  6
9  23  5

$$$$

