9543131
  -OEChem-07051213082D

 23 23  0     0  0  0  0  0  0999 V2000
    2.5369    0.9050    0.0000 O   0  0  0  0  0  0  0  0  0  0  0  0
    2.5369   -2.0950    0.0000 O   0  0  0  0  0  0  0  0  0  0  0  0
    5.1350    2.4050    0.0000 O   0  5  0  0  0  0  0  0  0  0  0  0
    3.4030    2.4050    0.0000 O   0  0  0  0  0  0  0  0  0  0  0  0
    4.2690    1.9050    0.0000 N   0  3  0  0  0  0  0  0  0  0  0  0
    6.0010   -1.0950    0.0000 N   0  0  0  0  0  0  0  0  0  0  0  0
    2.5369   -1.0950    0.0000 N   0  0  0  0  0  0  0  0  0  0  0  0
    5.1350    0.4050    0.0000 C   0  0  0  0  0  0  0  0  0  0  0  0
    4.2690    0.9050    0.0000 C   0  0  0  0  0  0  0  0  0  0  0  0
    5.1350   -0.5950    0.0000 C   0  0  0  0  0  0  0  0  0  0  0  0
    3.4030    0.4050    0.0000 C   0  0  0  0  0  0  0  0  0  0  0  0
    3.4030   -0.5950    0.0000 C   0  0  0  0  0  0  0  0  0  0  0  0
    4.2690   -1.0950    0.0000 C   0  0  0  0  0  0  0  0  0  0  0  0
    6.0010    0.9050    0.0000 C   0  0  0  0  0  0  0  0  0  0  0  0
    4.2690   -1.7150    0.0000 H   0  0  0  0  0  0  0  0  0  0  0  0
    6.3110    0.3681    0.0000 H   0  0  0  0  0  0  0  0  0  0  0  0
    6.5380    1.2150    0.0000 H   0  0  0  0  0  0  0  0  0  0  0  0
    5.6910    1.4419    0.0000 H   0  0  0  0  0  0  0  0  0  0  0  0
    6.0010   -1.7150    0.0000 H   0  0  0  0  0  0  0  0  0  0  0  0
    6.5380   -0.7850    0.0000 H   0  0  0  0  0  0  0  0  0  0  0  0
    2.0000   -0.7850    0.0000 H   0  0  0  0  0  0  0  0  0  0  0  0
    2.0000    0.5950    0.0000 H   0  0  0  0  0  0  0  0  0  0  0  0
    2.0000   -2.4050    0.0000 H   0  0  0  0  0  0  0  0  0  0  0  0
  1 11  1  0  0  0  0
  1 22  1  0  0  0  0
  2  7  1  0  0  0  0
  2 23  1  0  0  0  0
  3  5  1  0  0  0  0
  4  5  2  0  0  0  0
  5  9  1  0  0  0  0
  6 10  1  0  0  0  0
  6 19  1  0  0  0  0
  6 20  1  0  0  0  0
  7 12  1  0  0  0  0
  7 21  1  0  0  0  0
  8  9  2  0  0  0  0
  8 10  1  0  0  0  0
  8 14  1  0  0  0  0
  9 11  1  0  0  0  0
 10 13  2  0  0  0  0
 11 12  2  0  0  0  0
 12 13  1  0  0  0  0
 13 15  1  0  0  0  0
 14 16  1  0  0  0  0
 14 17  1  0  0  0  0
 14 18  1  0  0  0  0
M  CHG  2   3  -1   5   1
M  END
> <PUBCHEM_COMPOUND_CID>
9543131

> <PUBCHEM_COMPOUND_CANONICALIZED>
1

> <PUBCHEM_CACTVS_COMPLEXITY>
220

> <PUBCHEM_CACTVS_HBOND_ACCEPTOR>
6

> <PUBCHEM_CACTVS_HBOND_DONOR>
4

> <PUBCHEM_CACTVS_ROTATABLE_BOND>
1

> <PUBCHEM_CACTVS_SUBSKEYS>
AAADccBjOAAAAAAAAAAAAAAAAAAAAAAAAAAwAAAAAAAAAAABAAAAHgAUCAAADAyBmAAyxoBQQgCBAiRCQwCCAAAgIgAgiAAFbIoKJiKS0NOAcABk0FEI2AewwBAOCEABAAQCEAAQgAIACAQgAAAAAAAAAA==

> <PUBCHEM_IUPAC_OPENEYE_NAME>
4-amino-6-(hydroxyamino)-3-methyl-2-nitro-phenol

> <PUBCHEM_IUPAC_CAS_NAME>
4-amino-6-(hydroxyamino)-3-methyl-2-nitrophenol

> <PUBCHEM_IUPAC_NAME>
4-amino-6-(hydroxyamino)-3-methyl-2-nitrophenol

> <PUBCHEM_IUPAC_SYSTEMATIC_NAME>
4-azanyl-3-methyl-2-nitro-6-(oxidanylamino)phenol

> <PUBCHEM_IUPAC_TRADITIONAL_NAME>
4-amino-6-(hydroxyamino)-3-methyl-2-nitro-phenol

> <PUBCHEM_IUPAC_INCHI>
InChI=1S/C7H9N3O4/c1-3-4(8)2-5(9-12)7(11)6(3)10(13)14/h2,9,11-12H,8H2,1H3

> <PUBCHEM_IUPAC_INCHIKEY>
FKJGBYBJSUZHRW-UHFFFAOYSA-N

> <PUBCHEM_XLOGP3_AA>
1.1

> <PUBCHEM_EXACT_MASS>
199.059306

> <PUBCHEM_MOLECULAR_FORMULA>
C7H9N3O4

> <PUBCHEM_MOLECULAR_WEIGHT>
199.16406

> <PUBCHEM_OPENEYE_CAN_SMILES>
CC1=C(C(=C(C=C1N)NO)O)[N+](=O)[O-]

> <PUBCHEM_OPENEYE_ISO_SMILES>
CC1=C(C(=C(C=C1N)NO)O)[N+](=O)[O-]

> <PUBCHEM_CACTVS_TPSA>
124

> <PUBCHEM_MONOISOTOPIC_WEIGHT>
199.059306

> <PUBCHEM_TOTAL_CHARGE>
0

> <PUBCHEM_HEAVY_ATOM_COUNT>
14

> <PUBCHEM_ATOM_DEF_STEREO_COUNT>
0

> <PUBCHEM_ATOM_UDEF_STEREO_COUNT>
0

> <PUBCHEM_BOND_DEF_STEREO_COUNT>
0

> <PUBCHEM_BOND_UDEF_STEREO_COUNT>
0

> <PUBCHEM_ISOTOPIC_ATOM_COUNT>
0

> <PUBCHEM_COMPONENT_COUNT>
1

> <PUBCHEM_CACTVS_TAUTO_COUNT>
62

> <PUBCHEM_COORDINATE_TYPE>
1
5
255

> <PUBCHEM_BONDANNOTATIONS>
10  13  8
11  12  8
12  13  8
8  10  8
8  9  8
9  11  8

$$$$

