440144
  -OEChem-07051212483D

 46 45  0     1  0  0  0  0  0999 V2000
   -3.8819    0.7592    0.3682 P   0  0  1  0  0  0  0  0  0  0  0  0
    1.0464   -1.5681   -1.3689 P   0  0  1  0  0  0  0  0  0  0  0  0
   -3.1824   -0.7015    0.3473 O   0  0  0  0  0  0  0  0  0  0  0  0
    0.0763   -1.6458   -0.0781 O   0  0  0  0  0  0  0  0  0  0  0  0
   -2.6621    1.8095    0.2288 O   0  0  0  0  0  0  0  0  0  0  0  0
    2.2649   -0.6018   -0.9185 O   0  0  0  0  0  0  0  0  0  0  0  0
   -2.9188   -3.3603    1.1159 O   0  0  0  0  0  0  0  0  0  0  0  0
    0.2438    2.6183   -1.8296 O   0  0  0  0  0  0  0  0  0  0  0  0
    4.9781    0.1134   -0.6397 O   0  0  0  0  0  0  0  0  0  0  0  0
   -4.6330    0.8257   -1.0639 O   0  0  0  0  0  0  0  0  0  0  0  0
    1.7067   -3.0452   -1.4128 O   0  0  0  0  0  0  0  0  0  0  0  0
   -4.7829    1.0034    1.5447 O   0  0  0  0  0  0  0  0  0  0  0  0
    0.3632   -1.1639   -2.6438 O   0  0  0  0  0  0  0  0  0  0  0  0
    1.0657    3.7464    0.5663 O   0  0  0  0  0  0  0  0  0  0  0  0
    5.8892    0.9032    1.8572 O   0  0  0  0  0  0  0  0  0  0  0  0
   -1.8046   -2.4678    1.1909 C   0  0  0  0  0  0  0  0  0  0  0  0
   -2.3430   -1.0632    1.4304 C   0  0  0  0  0  0  0  0  0  0  0  0
   -1.0230   -2.5499   -0.1153 C   0  0  0  0  0  0  0  0  0  0  0  0
   -0.6881    2.7855   -0.7586 C   0  0  1  0  0  0  0  0  0  0  0  0
    4.0759    0.1714    0.4676 C   0  0  1  0  0  0  0  0  0  0  0  0
   -1.7379    1.6836   -0.8469 C   0  0  0  0  0  0  0  0  0  0  0  0
    2.9886   -0.8785    0.2683 C   0  0  0  0  0  0  0  0  0  0  0  0
    0.0846    2.7147    0.5521 C   0  0  0  0  0  0  0  0  0  0  0  0
    4.8744   -0.0882    1.7384 C   0  0  0  0  0  0  0  0  0  0  0  0
   -1.1740   -2.7657    2.0351 H   0  0  0  0  0  0  0  0  0  0  0  0
   -1.5321   -0.3356    1.5336 H   0  0  0  0  0  0  0  0  0  0  0  0
   -2.9455   -1.0471    2.3450 H   0  0  0  0  0  0  0  0  0  0  0  0
   -1.6553   -2.3221   -0.9809 H   0  0  0  0  0  0  0  0  0  0  0  0
   -0.6507   -3.5709   -0.2542 H   0  0  0  0  0  0  0  0  0  0  0  0
   -1.1469    3.7743   -0.8654 H   0  0  0  0  0  0  0  0  0  0  0  0
    3.6520    1.1812    0.4672 H   0  0  0  0  0  0  0  0  0  0  0  0
   -1.2662    0.6967   -0.8174 H   0  0  0  0  0  0  0  0  0  0  0  0
   -2.2723    1.7568   -1.8002 H   0  0  0  0  0  0  0  0  0  0  0  0
    2.2985   -0.8751    1.1181 H   0  0  0  0  0  0  0  0  0  0  0  0
    3.4324   -1.8754    0.1762 H   0  0  0  0  0  0  0  0  0  0  0  0
    0.6099    1.7583    0.6491 H   0  0  0  0  0  0  0  0  0  0  0  0
   -0.5731    2.8535    1.4154 H   0  0  0  0  0  0  0  0  0  0  0  0
    5.3691   -1.0646    1.7027 H   0  0  0  0  0  0  0  0  0  0  0  0
    4.2320   -0.0402    2.6232 H   0  0  0  0  0  0  0  0  0  0  0  0
   -3.4869   -3.0664    0.3831 H   0  0  0  0  0  0  0  0  0  0  0  0
    0.6561    1.7424   -1.7352 H   0  0  0  0  0  0  0  0  0  0  0  0
    5.3627   -0.7794   -0.6676 H   0  0  0  0  0  0  0  0  0  0  0  0
   -5.4982    0.3750   -1.1665 H   0  0  0  0  0  0  0  0  0  0  0  0
    1.2018   -3.7799   -1.8219 H   0  0  0  0  0  0  0  0  0  0  0  0
    1.5470    3.6699    1.4078 H   0  0  0  0  0  0  0  0  0  0  0  0
    6.3788    0.7128    2.6754 H   0  0  0  0  0  0  0  0  0  0  0  0
  1  3  1  0  0  0  0
  1  5  1  0  0  0  0
  1 10  1  0  0  0  0
  1 12  2  0  0  0  0
  2  4  1  0  0  0  0
  2  6  1  0  0  0  0
  2 11  1  0  0  0  0
  2 13  2  0  0  0  0
  3 17  1  0  0  0  0
  4 18  1  0  0  0  0
  5 21  1  0  0  0  0
  6 22  1  0  0  0  0
  7 16  1  0  0  0  0
  7 40  1  0  0  0  0
  8 19  1  0  0  0  0
  8 41  1  0  0  0  0
  9 20  1  0  0  0  0
  9 42  1  0  0  0  0
 10 43  1  0  0  0  0
 11 44  1  0  0  0  0
 14 23  1  0  0  0  0
 14 45  1  0  0  0  0
 15 24  1  0  0  0  0
 15 46  1  0  0  0  0
 16 17  1  0  0  0  0
 16 18  1  0  0  0  0
 16 25  1  0  0  0  0
 17 26  1  0  0  0  0
 17 27  1  0  0  0  0
 18 28  1  0  0  0  0
 18 29  1  0  0  0  0
 19 21  1  0  0  0  0
 19 23  1  0  0  0  0
 19 30  1  0  0  0  0
 20 22  1  0  0  0  0
 20 24  1  0  0  0  0
 20 31  1  0  0  0  0
 21 32  1  0  0  0  0
 21 33  1  0  0  0  0
 22 34  1  0  0  0  0
 22 35  1  0  0  0  0
 23 36  1  0  0  0  0
 23 37  1  0  0  0  0
 24 38  1  0  0  0  0
 24 39  1  0  0  0  0
M  END
> <PUBCHEM_COMPOUND_CID>
440144

> <PUBCHEM_CONFORMER_RMSD>
1.2

> <PUBCHEM_CONFORMER_DIVERSEORDER>
3
141
46
130
165
149
4
151
35
86
133
77
106
128
68
27
30
59
117
70
118
105
25
139
9
88
153
125
45
26
32
55
79
12
146
65
156
11
42
134
113
2
44
164
6
163
87
93
24
1
22
101
136
34
145
69
37
90
23
91
62
71
76
63
144
147
104
119
157
64
95
116
140
138
120
154
36
143
82
102
39
83
57
60
61
54
132
38
129
80
50
92
18
108
73
158
111
100
5
7
51
162
110
16
41
160
52
47
72
43
131
115
74
21
123
8
66
126
40
49
19
127
15
56
148
152
107
103
67
17
78
84
81
97
13
99
75
94
53
89
122
124
112
159
161
135
28
142
98
121
58
33
85
29
31
109
96
155
48
20
114
10
14
137
150

> <PUBCHEM_MMFF94_PARTIAL_CHARGES>
31
1 1.51
10 -0.77
11 -0.77
12 -0.7
13 -0.7
14 -0.68
15 -0.68
16 0.28
17 0.28
18 0.28
19 0.28
2 1.51
20 0.28
21 0.28
22 0.28
23 0.28
24 0.28
3 -0.55
4 -0.55
40 0.4
41 0.4
42 0.4
43 0.5
44 0.5
45 0.4
46 0.4
5 -0.55
6 -0.55
7 -0.68
8 -0.68
9 -0.68

> <PUBCHEM_EFFECTIVE_ROTOR_COUNT>
14

> <PUBCHEM_PHARMACOPHORE_FEATURES>
14
1 10 acceptor
1 11 acceptor
1 12 acceptor
1 13 acceptor
1 14 acceptor
1 14 donor
1 15 acceptor
1 15 donor
1 7 acceptor
1 7 donor
1 8 acceptor
1 8 donor
1 9 acceptor
1 9 donor

> <PUBCHEM_HEAVY_ATOM_COUNT>
24

> <PUBCHEM_ATOM_DEF_STEREO_COUNT>
0

> <PUBCHEM_ATOM_UDEF_STEREO_COUNT>
2

> <PUBCHEM_BOND_DEF_STEREO_COUNT>
0

> <PUBCHEM_BOND_UDEF_STEREO_COUNT>
0

> <PUBCHEM_ISOTOPIC_ATOM_COUNT>
0

> <PUBCHEM_COMPONENT_COUNT>
1

> <PUBCHEM_CACTVS_TAUTO_COUNT>
1

> <PUBCHEM_CONFORMER_ID>
0006B75000000003

> <PUBCHEM_MMFF94_ENERGY>
2.6132

> <PUBCHEM_FEATURE_SELFOVERLAP>
71.082

> <PUBCHEM_SHAPE_FINGERPRINT>
11112241 14 17749685046672198497
12035758 1 18412818080437509785
12422481 6 18047774611079382904
12467345 10 17274553147190611360
12596602 18 16702010985667029368
12633257 1 18342170051115146873
13083527 12 17975689494511174119
13140716 1 18267855091513367281
13402501 40 18408327713092869720
13544592 271 18408879646692644299
14081887 123 18341327889838410550
20600515 1 18271514373231542245
20905425 154 17834651826448128023
23419403 2 17698183763023606039
23557571 272 18338501028321707582
23559900 14 18267005310785988870
469060 322 17970937512392232142
539174 4 17326903872264639764
9925002 15 17029947801573193310

> <PUBCHEM_SHAPE_MULTIPOLES>
425.31
9.33
4.12
1.86
7.86
0.71
-0.45
1.46
5.14
-1.75
-0.22
0.77
-0.36
1.61

> <PUBCHEM_SHAPE_SELFOVERLAP>
785.917

> <PUBCHEM_SHAPE_VOLUME>
267.5

> <PUBCHEM_COORDINATE_TYPE>
2
5
10

$$$$

