12903
  -OEChem-06261207313D

 30 31  0     0  0  0  0  0  0999 V2000
    6.5803    0.7947    0.0687 F   0  0  0  0  0  0  0  0  0  0  0  0
    0.9813   -2.0191   -0.3110 O   0  0  0  0  0  0  0  0  0  0  0  0
   -1.6936    1.9349   -0.3194 O   0  0  0  0  0  0  0  0  0  0  0  0
    0.3112    0.1304    0.2311 N   0  0  0  0  0  0  0  0  0  0  0  0
   -1.0209   -0.2105    0.2354 N   0  0  0  0  0  0  0  0  0  0  0  0
    2.6652   -0.4100   -0.0220 C   0  0  0  0  0  0  0  0  0  0  0  0
   -3.3761    0.3277   -0.0126 C   0  0  0  0  0  0  0  0  0  0  0  0
    1.2452   -0.8469   -0.0549 C   0  0  0  0  0  0  0  0  0  0  0  0
    3.6415   -1.3406    0.2661 C   0  0  0  0  0  0  0  0  0  0  0  0
    2.9610    0.9121   -0.2808 C   0  0  0  0  0  0  0  0  0  0  0  0
   -1.9868    0.7552   -0.0530 C   0  0  0  0  0  0  0  0  0  0  0  0
   -4.3819    1.2510    0.2732 C   0  0  0  0  0  0  0  0  0  0  0  0
   -3.7032   -1.0056   -0.2603 C   0  0  0  0  0  0  0  0  0  0  0  0
    4.9743   -0.9305    0.2969 C   0  0  0  0  0  0  0  0  0  0  0  0
    4.2939    1.3223   -0.2502 C   0  0  0  0  0  0  0  0  0  0  0  0
    5.3006    0.4010    0.0387 C   0  0  0  0  0  0  0  0  0  0  0  0
   -5.7145    0.8412    0.3117 C   0  0  0  0  0  0  0  0  0  0  0  0
   -5.0360   -1.4153   -0.2218 C   0  0  0  0  0  0  0  0  0  0  0  0
   -6.0416   -0.4919    0.0642 C   0  0  0  0  0  0  0  0  0  0  0  0
    3.4037   -2.3794    0.4744 H   0  0  0  0  0  0  0  0  0  0  0  0
    2.2102    1.6513   -0.5399 H   0  0  0  0  0  0  0  0  0  0  0  0
   -4.1477    2.2934    0.4732 H   0  0  0  0  0  0  0  0  0  0  0  0
   -2.9536   -1.7497   -0.5134 H   0  0  0  0  0  0  0  0  0  0  0  0
    0.5299    1.0786    0.5169 H   0  0  0  0  0  0  0  0  0  0  0  0
   -1.2351   -1.1596    0.5228 H   0  0  0  0  0  0  0  0  0  0  0  0
    5.7584   -1.6472    0.5232 H   0  0  0  0  0  0  0  0  0  0  0  0
    4.5494    2.3573   -0.4578 H   0  0  0  0  0  0  0  0  0  0  0  0
   -6.4977    1.5598    0.5350 H   0  0  0  0  0  0  0  0  0  0  0  0
   -5.2920   -2.4519   -0.4207 H   0  0  0  0  0  0  0  0  0  0  0  0
   -7.0795   -0.8107    0.0928 H   0  0  0  0  0  0  0  0  0  0  0  0
  1 16  1  0  0  0  0
  2  8  2  0  0  0  0
  3 11  2  0  0  0  0
  4  5  1  0  0  0  0
  4  8  1  0  0  0  0
  4 24  1  0  0  0  0
  5 11  1  0  0  0  0
  5 25  1  0  0  0  0
  6  8  1  0  0  0  0
  6  9  2  0  0  0  0
  6 10  1  0  0  0  0
  7 11  1  0  0  0  0
  7 12  2  0  0  0  0
  7 13  1  0  0  0  0
  9 14  1  0  0  0  0
  9 20  1  0  0  0  0
 10 15  2  0  0  0  0
 10 21  1  0  0  0  0
 12 17  1  0  0  0  0
 12 22  1  0  0  0  0
 13 18  2  0  0  0  0
 13 23  1  0  0  0  0
 14 16  2  0  0  0  0
 14 26  1  0  0  0  0
 15 16  1  0  0  0  0
 15 27  1  0  0  0  0
 17 19  2  0  0  0  0
 17 28  1  0  0  0  0
 18 19  1  0  0  0  0
 18 29  1  0  0  0  0
 19 30  1  0  0  0  0
M  END
> <PUBCHEM_COMPOUND_CID>
12903

> <PUBCHEM_CONFORMER_RMSD>
0.6

> <PUBCHEM_CONFORMER_DIVERSEORDER>
1
5
4
6
2
3

> <PUBCHEM_MMFF94_PARTIAL_CHARGES>
30
1 -0.19
10 -0.15
11 0.54
12 -0.15
13 -0.15
14 -0.15
15 -0.15
16 0.19
17 -0.15
18 -0.15
19 -0.15
2 -0.57
20 0.15
21 0.15
22 0.15
23 0.15
24 0.37
25 0.37
26 0.15
27 0.15
28 0.15
29 0.15
3 -0.57
30 0.15
4 -0.43
5 -0.43
6 0.09
7 0.09
8 0.54
9 -0.15

> <PUBCHEM_EFFECTIVE_ROTOR_COUNT>
5

> <PUBCHEM_PHARMACOPHORE_FEATURES>
6
1 2 acceptor
1 3 acceptor
1 4 donor
1 5 donor
6 6 9 10 14 15 16 rings
6 7 12 13 17 18 19 rings

> <PUBCHEM_HEAVY_ATOM_COUNT>
19

> <PUBCHEM_ATOM_DEF_STEREO_COUNT>
0

> <PUBCHEM_ATOM_UDEF_STEREO_COUNT>
0

> <PUBCHEM_BOND_DEF_STEREO_COUNT>
0

> <PUBCHEM_BOND_UDEF_STEREO_COUNT>
0

> <PUBCHEM_ISOTOPIC_ATOM_COUNT>
0

> <PUBCHEM_COMPONENT_COUNT>
1

> <PUBCHEM_CACTVS_TAUTO_COUNT>
4

> <PUBCHEM_CONFORMER_ID>
0000326700000001

> <PUBCHEM_MMFF94_ENERGY>
51.6606

> <PUBCHEM_FEATURE_SELFOVERLAP>
31.979

> <PUBCHEM_SHAPE_FINGERPRINT>
10354089 29 18342738516518550564
10595046 47 18410575084795012793
10968037 39 18410293601977453791
11089746 13 13254796811310373158
11287383 113 18411417310643892955
11315181 36 18259702286113852881
12107183 9 17618786198651460283
12166972 35 18131628985250871764
12236239 1 18334576853883680390
12916748 109 18334292085331737492
13167372 99 18337389451914733744
13167823 11 18411984688740582715
13533116 47 17203056282724135474
13631057 29 18261396586330345815
14123256 10 18410294688092463711
1420 363 18131626786016086675
14251732 16 18409730625394314242
14251764 18 18273500070573730912
14341114 176 18411978104639743686
14528608 73 18409727335460031980
15196674 1 18410856576830208285
17834072 33 18408323276528503953
17834072 8 8646774387038059817
17844677 252 18336258050128216032
19489759 90 14836409138096346389
200 152 18334014999510806169
20645477 70 18338516451892490006
21267235 1 18411130355215143934
23272321 79 18410855442974822316
23402539 116 18202005434393453999
23536379 177 18410575101874629395
23559900 14 18334867074237128689
239999 70 18187640358174835870
300161 21 18343305890077296671
34797466 226 17385715868323308604
351380 180 18272651246895630144
3545911 37 18413388731151072126
4073 2 18059849541352016194
4214541 1 18410012173981834089
42788 4 18410292518801630875
4325135 7 18410293601339098527
474229 33 18410293592591421359
5104073 3 18411136961122661939
542803 24 18409730668512844163
5486654 2 18408038494232011023
7062679 117 18410293580239152471
7495541 125 18113341881733910976

> <PUBCHEM_SHAPE_MULTIPOLES>
362.04
16.29
1.65
0.64
0.05
0.09
0
-0.99
-0.77
-0.12
0.1
-0.04
0
-0.48

> <PUBCHEM_SHAPE_SELFOVERLAP>
779.664

> <PUBCHEM_SHAPE_VOLUME>
199.1

> <PUBCHEM_COORDINATE_TYPE>
2
5
10

$$$$

