817
  -OEChem-07051212452D

 30 29  0     1  0  0  0  0  0999 V2000
    6.8671   -1.2500    0.0000 O   0  0  0  0  0  0  0  0  0  0  0  0
    7.7331    1.2500    0.0000 O   0  0  0  0  0  0  0  0  0  0  0  0
    6.0010    1.2500    0.0000 O   0  0  0  0  0  0  0  0  0  0  0  0
    8.5991   -1.2500    0.0000 O   0  0  0  0  0  0  0  0  0  0  0  0
   10.3312   -0.2500    0.0000 O   0  0  0  0  0  0  0  0  0  0  0  0
    4.2690    1.2500    0.0000 O   0  0  0  0  0  0  0  0  0  0  0  0
    2.5369    0.2500    0.0000 O   0  0  0  0  0  0  0  0  0  0  0  0
    3.4030   -1.2500    0.0000 O   0  0  0  0  0  0  0  0  0  0  0  0
    6.8671   -0.2500    0.0000 C   0  0  3  0  0  0  0  0  0  0  0  0
    7.7331    0.2500    0.0000 C   0  0  3  0  0  0  0  0  0  0  0  0
    6.0010    0.2500    0.0000 C   0  0  3  0  0  0  0  0  0  0  0  0
    8.5991   -0.2500    0.0000 C   0  0  3  0  0  0  0  0  0  0  0  0
    5.1350   -0.2500    0.0000 C   0  0  0  0  0  0  0  0  0  0  0  0
    9.4651    0.2500    0.0000 C   0  0  0  0  0  0  0  0  0  0  0  0
    4.2690    0.2500    0.0000 C   0  0  0  0  0  0  0  0  0  0  0  0
    3.4030   -0.2500    0.0000 C   0  0  0  0  0  0  0  0  0  0  0  0
    6.1309   -0.6750    0.0000 H   0  0  0  0  0  0  0  0  0  0  0  0
    8.4692    0.6750    0.0000 H   0  0  0  0  0  0  0  0  0  0  0  0
    6.7372    0.6750    0.0000 H   0  0  0  0  0  0  0  0  0  0  0  0
    7.8630   -0.6750    0.0000 H   0  0  0  0  0  0  0  0  0  0  0  0
    4.7365   -0.7249    0.0000 H   0  0  0  0  0  0  0  0  0  0  0  0
    5.5335   -0.7249    0.0000 H   0  0  0  0  0  0  0  0  0  0  0  0
    9.8637    0.7249    0.0000 H   0  0  0  0  0  0  0  0  0  0  0  0
    9.0666    0.7249    0.0000 H   0  0  0  0  0  0  0  0  0  0  0  0
    6.3301   -1.5600    0.0000 H   0  0  0  0  0  0  0  0  0  0  0  0
    8.2700    1.5600    0.0000 H   0  0  0  0  0  0  0  0  0  0  0  0
    5.4641    1.5600    0.0000 H   0  0  0  0  0  0  0  0  0  0  0  0
    9.1360   -1.5600    0.0000 H   0  0  0  0  0  0  0  0  0  0  0  0
   10.8681    0.0600    0.0000 H   0  0  0  0  0  0  0  0  0  0  0  0
    2.0000   -0.0600    0.0000 H   0  0  0  0  0  0  0  0  0  0  0  0
  1  9  1  0  0  0  0
  1 25  1  0  0  0  0
  2 10  1  0  0  0  0
  2 26  1  0  0  0  0
  3 11  1  0  0  0  0
  3 27  1  0  0  0  0
  4 12  1  0  0  0  0
  4 28  1  0  0  0  0
  5 14  1  0  0  0  0
  5 29  1  0  0  0  0
  6 15  2  0  0  0  0
  7 16  1  0  0  0  0
  7 30  1  0  0  0  0
  8 16  2  0  0  0  0
  9 10  1  0  0  0  0
  9 11  1  0  0  0  0
  9 17  1  0  0  0  0
 10 12  1  0  0  0  0
 10 18  1  0  0  0  0
 11 13  1  0  0  0  0
 11 19  1  0  0  0  0
 12 14  1  0  0  0  0
 12 20  1  0  0  0  0
 13 15  1  0  0  0  0
 13 21  1  0  0  0  0
 13 22  1  0  0  0  0
 14 23  1  0  0  0  0
 14 24  1  0  0  0  0
 15 16  1  0  0  0  0
M  END
> <PUBCHEM_COMPOUND_CID>
817

> <PUBCHEM_COMPOUND_CANONICALIZED>
1

> <PUBCHEM_CACTVS_COMPLEXITY>
252

> <PUBCHEM_CACTVS_HBOND_ACCEPTOR>
8

> <PUBCHEM_CACTVS_HBOND_DONOR>
6

> <PUBCHEM_CACTVS_ROTATABLE_BOND>
7

> <PUBCHEM_CACTVS_SUBSKEYS>
AAADccBwPAAAAAAAAAAAAAAAAAAAAAAAAAAAAAAAAAAAAAAAAAAAGgAACAAACBSggAIACAAAAgAIAICQCAIAAAAAAAAAAAFAAAABEBYAAAAAQAAFIAABAAHK7KTAAAAAAAAAAAAAAAAAAAAAAAAAAAAAAA==

> <PUBCHEM_IUPAC_OPENEYE_NAME>
4,5,6,7,8-pentahydroxy-2-oxo-octanoic acid

> <PUBCHEM_IUPAC_CAS_NAME>
4,5,6,7,8-pentahydroxy-2-oxooctanoic acid

> <PUBCHEM_IUPAC_NAME>
4,5,6,7,8-pentahydroxy-2-oxooctanoic acid

> <PUBCHEM_IUPAC_SYSTEMATIC_NAME>
4,5,6,7,8-pentakis(oxidanyl)-2-oxidanylidene-octanoic acid

> <PUBCHEM_IUPAC_TRADITIONAL_NAME>
4,5,6,7,8-pentahydroxy-2-keto-caprylic acid

> <PUBCHEM_IUPAC_INCHI>
InChI=1S/C8H14O8/c9-2-5(12)7(14)6(13)3(10)1-4(11)8(15)16/h3,5-7,9-10,12-14H,1-2H2,(H,15,16)

> <PUBCHEM_IUPAC_INCHIKEY>
KYQCXUMVJGMDNG-UHFFFAOYSA-N

> <PUBCHEM_XLOGP3_AA>
-3.6

> <PUBCHEM_EXACT_MASS>
238.068867

> <PUBCHEM_MOLECULAR_FORMULA>
C8H14O8

> <PUBCHEM_MOLECULAR_WEIGHT>
238.19196

> <PUBCHEM_OPENEYE_CAN_SMILES>
C(C(C(C(C(CO)O)O)O)O)C(=O)C(=O)O

> <PUBCHEM_OPENEYE_ISO_SMILES>
C(C(C(C(C(CO)O)O)O)O)C(=O)C(=O)O

> <PUBCHEM_CACTVS_TPSA>
156

> <PUBCHEM_MONOISOTOPIC_WEIGHT>
238.068867

> <PUBCHEM_TOTAL_CHARGE>
0

> <PUBCHEM_HEAVY_ATOM_COUNT>
16

> <PUBCHEM_ATOM_DEF_STEREO_COUNT>
0

> <PUBCHEM_ATOM_UDEF_STEREO_COUNT>
4

> <PUBCHEM_BOND_DEF_STEREO_COUNT>
0

> <PUBCHEM_BOND_UDEF_STEREO_COUNT>
0

> <PUBCHEM_ISOTOPIC_ATOM_COUNT>
0

> <PUBCHEM_COMPONENT_COUNT>
1

> <PUBCHEM_CACTVS_TAUTO_COUNT>
2

> <PUBCHEM_COORDINATE_TYPE>
1
5
255

> <PUBCHEM_BONDANNOTATIONS>
10  18  3
11  19  3
12  20  3
9  17  3

$$$$

