218
  -OEChem-07051212453D

 23 24  0     0  0  0  0  0  0999 V2000
   -4.0794   -0.4845   -0.9385 O   0  0  0  0  0  0  0  0  0  0  0  0
    0.8217   -2.5854    0.1178 O   0  0  0  0  0  0  0  0  0  0  0  0
   -0.5330    1.9202    0.0759 N   0  0  0  0  0  0  0  0  0  0  0  0
    1.7859    1.2601   -0.0743 N   0  0  0  0  0  0  0  0  0  0  0  0
   -1.2210   -0.7721    0.2138 N   0  0  0  0  0  0  0  0  0  0  0  0
    2.4679   -0.9960   -0.0533 N   0  0  0  0  0  0  0  0  0  0  0  0
    4.0250    0.7588   -0.2248 N   0  0  0  0  0  0  0  0  0  0  0  0
   -1.9377    1.6229    0.1798 C   0  0  0  0  0  0  0  0  0  0  0  0
    0.4487    0.9573    0.0340 C   0  0  0  0  0  0  0  0  0  0  0  0
   -2.1612    0.1246    0.2514 C   0  0  0  0  0  0  0  0  0  0  0  0
    0.0783   -0.3390    0.1027 C   0  0  0  0  0  0  0  0  0  0  0  0
   -3.5890   -0.3443    0.3728 C   0  0  0  0  0  0  0  0  0  0  0  0
    1.1483   -1.4022    0.0572 C   0  0  0  0  0  0  0  0  0  0  0  0
    2.7456    0.2795   -0.1143 C   0  0  0  0  0  0  0  0  0  0  0  0
   -2.4704    2.0174   -0.6910 H   0  0  0  0  0  0  0  0  0  0  0  0
   -2.3511    2.0846    1.0818 H   0  0  0  0  0  0  0  0  0  0  0  0
   -0.2315    2.8870    0.0227 H   0  0  0  0  0  0  0  0  0  0  0  0
    2.0306    2.2426   -0.1239 H   0  0  0  0  0  0  0  0  0  0  0  0
   -4.1864    0.3903    0.9194 H   0  0  0  0  0  0  0  0  0  0  0  0
   -3.6288   -1.3100    0.8851 H   0  0  0  0  0  0  0  0  0  0  0  0
    4.2153    1.7539   -0.2701 H   0  0  0  0  0  0  0  0  0  0  0  0
    4.8196    0.1298   -0.2638 H   0  0  0  0  0  0  0  0  0  0  0  0
   -5.0021   -0.7836   -0.8710 H   0  0  0  0  0  0  0  0  0  0  0  0
  1 12  1  0  0  0  0
  1 23  1  0  0  0  0
  2 13  2  0  0  0  0
  3  8  1  0  0  0  0
  3  9  1  0  0  0  0
  3 17  1  0  0  0  0
  4  9  1  0  0  0  0
  4 14  1  0  0  0  0
  4 18  1  0  0  0  0
  5 10  2  0  0  0  0
  5 11  1  0  0  0  0
  6 13  1  0  0  0  0
  6 14  2  0  0  0  0
  7 14  1  0  0  0  0
  7 21  1  0  0  0  0
  7 22  1  0  0  0  0
  8 10  1  0  0  0  0
  8 15  1  0  0  0  0
  8 16  1  0  0  0  0
  9 11  2  0  0  0  0
 10 12  1  0  0  0  0
 11 13  1  0  0  0  0
 12 19  1  0  0  0  0
 12 20  1  0  0  0  0
M  END
> <PUBCHEM_COMPOUND_CID>
218

> <PUBCHEM_CONFORMER_RMSD>
0.6

> <PUBCHEM_CONFORMER_DIVERSEORDER>
1
2

> <PUBCHEM_MMFF94_PARTIAL_CHARGES>
19
1 -0.68
10 0.33
11 0.19
12 0.34
13 0.77
14 0.55
17 0.4
18 0.4
2 -0.57
21 0.4
22 0.4
23 0.4
3 -0.87
4 -0.55
5 -0.62
6 -0.66
7 -0.85
8 0.43
9 0.2

> <PUBCHEM_EFFECTIVE_ROTOR_COUNT>
1.4

> <PUBCHEM_PHARMACOPHORE_FEATURES>
11
1 1 acceptor
1 1 donor
1 2 acceptor
1 3 cation
1 3 donor
1 4 donor
1 5 acceptor
1 6 donor
1 7 donor
6 3 5 8 9 10 11 rings
6 4 6 9 11 13 14 rings

> <PUBCHEM_HEAVY_ATOM_COUNT>
14

> <PUBCHEM_ATOM_DEF_STEREO_COUNT>
0

> <PUBCHEM_ATOM_UDEF_STEREO_COUNT>
0

> <PUBCHEM_BOND_DEF_STEREO_COUNT>
0

> <PUBCHEM_BOND_UDEF_STEREO_COUNT>
0

> <PUBCHEM_ISOTOPIC_ATOM_COUNT>
0

> <PUBCHEM_COMPONENT_COUNT>
1

> <PUBCHEM_CACTVS_TAUTO_COUNT>
42

> <PUBCHEM_CONFORMER_ID>
000000DA00000001

> <PUBCHEM_MMFF94_ENERGY>
44.3037

> <PUBCHEM_FEATURE_SELFOVERLAP>
56.013

> <PUBCHEM_SHAPE_FINGERPRINT>
10219947 1 18413386518720714257
10967382 1 18411134719044270026
11206711 2 18341324599793384749
11471102 20 18411984671792432349
11806522 49 18335141938768137823
12932764 1 17313679225288493449
13380535 76 18341892974311768642
14251717 144 18409733941373005719
14325111 11 18410852200501490584
14576447 43 18116447963844774295
14993402 34 18113622253093885063
15757776 16 18408611348580431567
15775835 57 18187641396976003168
16945 1 18412816988882715753
17990270 104 18194681707484001770
19021347 11 18411981385926393898
193761 8 17979070810124075688
200 152 18260556623522470829
20201158 50 18343301470339755843
20645477 70 18337677528820615847
21501502 16 18267021854461344857
21501925 9 18269848651986406194
2334 1 17834391216132384289
23402539 116 18335991869835716022
23402655 69 18337116752104620693
23463225 33 18271245027553380394
23552423 10 18198054991925180979
2748010 2 18412256242284401500
2871803 45 18411140255399533055
528886 8 18410577245195269770
581208 293 18408889520495020472
7364860 26 18119245310193315886

> <PUBCHEM_SHAPE_MULTIPOLES>
251.47
5.76
1.91
0.65
1.32
0.4
-0.04
-0.08
-0.78
-0.41
0.07
0.29
0.03
-0.19

> <PUBCHEM_SHAPE_SELFOVERLAP>
538.23

> <PUBCHEM_SHAPE_VOLUME>
136.1

> <PUBCHEM_COORDINATE_TYPE>
2
5
10

$$$$

