10000
  -OEChem-06261204143D

 11 10  0     0  0  0  0  0  0999 V2000
   -3.1442   -0.2334    0.0045 Cl  0  0  0  0  0  0  0  0  0  0  0  0
    1.8745   -1.0226   -0.0009 F   0  0  0  0  0  0  0  0  0  0  0  0
    1.1693    0.7424    1.0760 F   0  0  0  0  0  0  0  0  0  0  0  0
    1.1284    0.7042   -1.1039 F   0  0  0  0  0  0  0  0  0  0  0  0
   -0.4576   -0.6201    0.0280 C   0  0  0  0  0  0  0  0  0  0  0  0
    0.9426   -0.0462    0.0043 C   0  0  0  0  0  0  0  0  0  0  0  0
   -1.5130    0.4758   -0.0080 C   0  0  0  0  0  0  0  0  0  0  0  0
   -0.5785   -1.2300    0.9309 H   0  0  0  0  0  0  0  0  0  0  0  0
   -0.5823   -1.2885   -0.8321 H   0  0  0  0  0  0  0  0  0  0  0  0
   -1.4238    1.0831   -0.9137 H   0  0  0  0  0  0  0  0  0  0  0  0
   -1.4303    1.1338    0.8622 H   0  0  0  0  0  0  0  0  0  0  0  0
  1  7  1  0  0  0  0
  2  6  1  0  0  0  0
  3  6  1  0  0  0  0
  4  6  1  0  0  0  0
  5  6  1  0  0  0  0
  5  7  1  0  0  0  0
  5  8  1  0  0  0  0
  5  9  1  0  0  0  0
  7 10  1  0  0  0  0
  7 11  1  0  0  0  0
M  END
> <PUBCHEM_COMPOUND_CID>
10000

> <PUBCHEM_CONFORMER_RMSD>
0.4

> <PUBCHEM_CONFORMER_DIVERSEORDER>
1
2
3

> <PUBCHEM_MMFF94_PARTIAL_CHARGES>
6
1 -0.29
2 -0.34
3 -0.34
4 -0.34
6 1.02
7 0.29

> <PUBCHEM_EFFECTIVE_ROTOR_COUNT>
2

> <PUBCHEM_PHARMACOPHORE_FEATURES>
0

> <PUBCHEM_HEAVY_ATOM_COUNT>
7

> <PUBCHEM_ATOM_DEF_STEREO_COUNT>
0

> <PUBCHEM_ATOM_UDEF_STEREO_COUNT>
0

> <PUBCHEM_BOND_DEF_STEREO_COUNT>
0

> <PUBCHEM_BOND_UDEF_STEREO_COUNT>
0

> <PUBCHEM_ISOTOPIC_ATOM_COUNT>
0

> <PUBCHEM_COMPONENT_COUNT>
1

> <PUBCHEM_CACTVS_TAUTO_COUNT>
1

> <PUBCHEM_CONFORMER_ID>
0000271000000001

> <PUBCHEM_MMFF94_ENERGY>
4.8609

> <PUBCHEM_FEATURE_SELFOVERLAP>
0

> <PUBCHEM_SHAPE_FINGERPRINT>
20096714 4 17489016068126489117
21040471 1 18339079281148574347
24536 1 18059859432882763607
29004967 10 18342736355401012027
5084963 1 18342738550503729571
5460574 1 9151173151657577963
5943 1 16548375989678888908

> <PUBCHEM_SHAPE_MULTIPOLES>
124.11
3.5
0.91
0.83
2.77
0.06
0
0.34
0
-0.22
0
-0.27
-0.18
0.01

> <PUBCHEM_SHAPE_SELFOVERLAP>
220.612

> <PUBCHEM_SHAPE_VOLUME>
83.4

> <PUBCHEM_COORDINATE_TYPE>
2
5
10

$$$$

