17396109
  -OEChem-06241222542D

 57 60  0     1  0  0  0  0  0999 V2000
    2.6843   -4.1148    0.0000 O   0  0  0  0  0  0  0  0  0  0  0  0
    5.5322   -2.0457    0.0000 O   0  0  0  0  0  0  0  0  0  0  0  0
    2.1810   -0.4277    0.0000 O   0  0  0  0  0  0  0  0  0  0  0  0
    5.2534   -3.8058    0.0000 N   0  0  0  0  0  0  0  0  0  0  0  0
    3.9444   -2.8547    0.0000 N   0  0  0  0  0  0  0  0  0  0  0  0
    3.5823    0.5904    0.0000 N   0  0  0  0  0  0  0  0  0  0  0  0
    4.4444   -4.3936    0.0000 C   0  0  0  0  0  0  0  0  0  0  0  0
    5.2534   -4.9813    0.0000 C   0  0  0  0  0  0  0  0  0  0  0  0
    3.6354   -4.9813    0.0000 C   0  0  0  0  0  0  0  0  0  0  0  0
    4.9444   -5.9324    0.0000 C   0  0  0  0  0  0  0  0  0  0  0  0
    3.9444   -5.9324    0.0000 C   0  0  0  0  0  0  0  0  0  0  0  0
    3.6354   -3.8058    0.0000 C   0  0  0  0  0  0  0  0  0  0  0  0
    4.9444   -2.8547    0.0000 C   0  0  0  0  0  0  0  0  0  0  0  0
    3.3566   -2.0457    0.0000 C   0  0  0  0  0  0  0  0  0  0  0  0
    3.7634   -1.1322    0.0000 C   0  0  0  0  0  0  0  0  0  0  0  0
    3.2202    4.0355    0.0000 C   0  0  0  0  0  0  0  0  0  0  0  0
    2.5950    4.8687    0.0000 C   0  0  0  0  0  0  0  0  0  0  0  0
    3.0114    5.8235    0.0000 C   0  0  0  0  0  0  0  0  0  0  0  0
    4.0473    5.9324    0.0000 C   0  0  0  0  0  0  0  0  0  0  0  0
    4.6530    5.0850    0.0000 C   0  0  0  0  0  0  0  0  0  0  0  0
    4.2147    4.1401    0.0000 C   0  0  0  0  0  0  0  0  0  0  0  0
    3.1756   -0.3231    0.0000 C   0  0  0  0  0  0  0  0  0  0  0  0
    2.9945    1.3994    0.0000 C   0  0  3  0  0  0  0  0  0  0  0  0
    3.4013    2.3130    0.0000 C   0  0  0  0  0  0  0  0  0  0  0  0
    2.8135    3.1220    0.0000 C   0  0  0  0  0  0  0  0  0  0  0  0
    4.8025    3.3310    0.0000 C   0  0  0  0  0  0  0  0  0  0  0  0
    4.3958    2.4175    0.0000 C   0  0  0  0  0  0  0  0  0  0  0  0
    2.0000    1.2949    0.0000 C   0  0  0  0  0  0  0  0  0  0  0  0
    5.8198   -5.2335    0.0000 H   0  0  0  0  0  0  0  0  0  0  0  0
    5.5634   -4.4444    0.0000 H   0  0  0  0  0  0  0  0  0  0  0  0
    3.3254   -4.4444    0.0000 H   0  0  0  0  0  0  0  0  0  0  0  0
    3.0690   -5.2335    0.0000 H   0  0  0  0  0  0  0  0  0  0  0  0
    4.8796   -6.5490    0.0000 H   0  0  0  0  0  0  0  0  0  0  0  0
    5.5509   -6.0613    0.0000 H   0  0  0  0  0  0  0  0  0  0  0  0
    3.3380   -6.0613    0.0000 H   0  0  0  0  0  0  0  0  0  0  0  0
    4.0092   -6.5490    0.0000 H   0  0  0  0  0  0  0  0  0  0  0  0
    5.8431   -3.9974    0.0000 H   0  0  0  0  0  0  0  0  0  0  0  0
    2.8426   -1.6990    0.0000 H   0  0  0  0  0  0  0  0  0  0  0  0
    2.9259   -2.4917    0.0000 H   0  0  0  0  0  0  0  0  0  0  0  0
    4.2774   -1.4788    0.0000 H   0  0  0  0  0  0  0  0  0  0  0  0
    4.1940   -0.6862    0.0000 H   0  0  0  0  0  0  0  0  0  0  0  0
    2.0775    5.2101    0.0000 H   0  0  0  0  0  0  0  0  0  0  0  0
    2.1701    4.4172    0.0000 H   0  0  0  0  0  0  0  0  0  0  0  0
    3.0530    6.4421    0.0000 H   0  0  0  0  0  0  0  0  0  0  0  0
    2.4090    5.9704    0.0000 H   0  0  0  0  0  0  0  0  0  0  0  0
    4.6059    6.2013    0.0000 H   0  0  0  0  0  0  0  0  0  0  0  0
    3.8779    6.5288    0.0000 H   0  0  0  0  0  0  0  0  0  0  0  0
    5.1625    4.7317    0.0000 H   0  0  0  0  0  0  0  0  0  0  0  0
    5.0883    5.5265    0.0000 H   0  0  0  0  0  0  0  0  0  0  0  0
    3.6111    1.4642    0.0000 H   0  0  0  0  0  0  0  0  0  0  0  0
    2.1969    3.0572    0.0000 H   0  0  0  0  0  0  0  0  0  0  0  0
    4.1989    0.6552    0.0000 H   0  0  0  0  0  0  0  0  0  0  0  0
    5.4191    3.3959    0.0000 H   0  0  0  0  0  0  0  0  0  0  0  0
    4.7602    1.9159    0.0000 H   0  0  0  0  0  0  0  0  0  0  0  0
    1.9352    1.9115    0.0000 H   0  0  0  0  0  0  0  0  0  0  0  0
    1.3834    1.2301    0.0000 H   0  0  0  0  0  0  0  0  0  0  0  0
    2.0648    0.6783    0.0000 H   0  0  0  0  0  0  0  0  0  0  0  0
  1 12  2  0  0  0  0
  2 13  2  0  0  0  0
  3 22  2  0  0  0  0
  4  7  1  0  0  0  0
  4 13  1  0  0  0  0
  4 37  1  0  0  0  0
  5 12  1  0  0  0  0
  5 13  1  0  0  0  0
  5 14  1  0  0  0  0
  6 22  1  0  0  0  0
  6 23  1  0  0  0  0
  6 52  1  0  0  0  0
  7  8  1  0  0  0  0
  7  9  1  0  0  0  0
  7 12  1  0  0  0  0
  8 10  1  0  0  0  0
  8 29  1  0  0  0  0
  8 30  1  0  0  0  0
  9 11  1  0  0  0  0
  9 31  1  0  0  0  0
  9 32  1  0  0  0  0
 10 11  1  0  0  0  0
 10 33  1  0  0  0  0
 10 34  1  0  0  0  0
 11 35  1  0  0  0  0
 11 36  1  0  0  0  0
 14 15  1  0  0  0  0
 14 38  1  0  0  0  0
 14 39  1  0  0  0  0
 15 22  1  0  0  0  0
 15 40  1  0  0  0  0
 15 41  1  0  0  0  0
 16 17  1  0  0  0  0
 16 21  2  0  0  0  0
 16 25  1  0  0  0  0
 17 18  1  0  0  0  0
 17 42  1  0  0  0  0
 17 43  1  0  0  0  0
 18 19  1  0  0  0  0
 18 44  1  0  0  0  0
 18 45  1  0  0  0  0
 19 20  1  0  0  0  0
 19 46  1  0  0  0  0
 19 47  1  0  0  0  0
 20 21  1  0  0  0  0
 20 48  1  0  0  0  0
 20 49  1  0  0  0  0
 21 26  1  0  0  0  0
 23 24  1  0  0  0  0
 23 28  1  0  0  0  0
 23 50  1  0  0  0  0
 24 25  2  0  0  0  0
 24 27  1  0  0  0  0
 25 51  1  0  0  0  0
 26 27  2  0  0  0  0
 26 53  1  0  0  0  0
 27 54  1  0  0  0  0
 28 55  1  0  0  0  0
 28 56  1  0  0  0  0
 28 57  1  0  0  0  0
M  END
> <PUBCHEM_COMPOUND_CID>
17396109

> <PUBCHEM_COMPOUND_CANONICALIZED>
1

> <PUBCHEM_CACTVS_COMPLEXITY>
629

> <PUBCHEM_CACTVS_HBOND_ACCEPTOR>
3

> <PUBCHEM_CACTVS_HBOND_DONOR>
2

> <PUBCHEM_CACTVS_ROTATABLE_BOND>
5

> <PUBCHEM_CACTVS_SUBSKEYS>
AAADceB7MAAAAAAAAAAAAAAAAAAAAeIAAAAwYAAAAAAAAADBAAAAHgAQAAAADKjBmAQzAIPAAACIAiFSEACCAAAgAAAIiIGIBIiIYDqA0TGUIAholyKIiAcYiMAOwAACAAAQAACAAAQAACAAAAAAAAAAAA==

> <PUBCHEM_IUPAC_OPENEYE_NAME>
3-(2,4-dioxo-1,3-diazaspiro[4.4]nonan-3-yl)-N-(1-tetralin-6-ylethyl)propanamide

> <PUBCHEM_IUPAC_CAS_NAME>
3-(2,4-dioxo-1,3-diazaspiro[4.4]nonan-3-yl)-N-[1-(5,6,7,8-tetrahydronaphthalen-2-yl)ethyl]propanamide

> <PUBCHEM_IUPAC_NAME>
3-(2,4-dioxo-1,3-diazaspiro[4.4]nonan-3-yl)-N-[1-(5,6,7,8-tetrahydronaphthalen-2-yl)ethyl]propanamide

> <PUBCHEM_IUPAC_SYSTEMATIC_NAME>
3-[2,4-bis(oxidanylidene)-1,3-diazaspiro[4.4]nonan-3-yl]-N-[1-(5,6,7,8-tetrahydronaphthalen-2-yl)ethyl]propanamide

> <PUBCHEM_IUPAC_TRADITIONAL_NAME>
3-(2,4-diketo-1,3-diazaspiro[4.4]nonan-3-yl)-N-(1-tetralin-6-ylethyl)propionamide

> <PUBCHEM_IUPAC_INCHI>
InChI=1S/C22H29N3O3/c1-15(17-9-8-16-6-2-3-7-18(16)14-17)23-19(26)10-13-25-20(27)22(24-21(25)28)11-4-5-12-22/h8-9,14-15H,2-7,10-13H2,1H3,(H,23,26)(H,24,28)

> <PUBCHEM_IUPAC_INCHIKEY>
VSZTWAMNKHLTRH-UHFFFAOYSA-N

> <PUBCHEM_XLOGP3_AA>
2.7

> <PUBCHEM_EXACT_MASS>
383.220892

> <PUBCHEM_MOLECULAR_FORMULA>
C22H29N3O3

> <PUBCHEM_MOLECULAR_WEIGHT>
383.48396

> <PUBCHEM_OPENEYE_CAN_SMILES>
CC(C1=CC2=C(CCCC2)C=C1)NC(=O)CCN3C(=O)C4(CCCC4)NC3=O

> <PUBCHEM_OPENEYE_ISO_SMILES>
CC(C1=CC2=C(CCCC2)C=C1)NC(=O)CCN3C(=O)C4(CCCC4)NC3=O

> <PUBCHEM_CACTVS_TPSA>
78.5

> <PUBCHEM_MONOISOTOPIC_WEIGHT>
383.220892

> <PUBCHEM_TOTAL_CHARGE>
0

> <PUBCHEM_HEAVY_ATOM_COUNT>
28

> <PUBCHEM_ATOM_DEF_STEREO_COUNT>
0

> <PUBCHEM_ATOM_UDEF_STEREO_COUNT>
1

> <PUBCHEM_BOND_DEF_STEREO_COUNT>
0

> <PUBCHEM_BOND_UDEF_STEREO_COUNT>
0

> <PUBCHEM_ISOTOPIC_ATOM_COUNT>
0

> <PUBCHEM_COMPONENT_COUNT>
1

> <PUBCHEM_CACTVS_TAUTO_COUNT>
4

> <PUBCHEM_COORDINATE_TYPE>
1
5
255

> <PUBCHEM_BONDANNOTATIONS>
16  21  8
16  25  8
21  26  8
23  28  3
24  25  8
24  27  8
26  27  8

$$$$

