90075
  -OEChem-07051213023D

 40 42  0     1  0  0  0  0  0999 V2000
    2.2633    2.9792   -0.6807 O   0  0  0  0  0  0  0  0  0  0  0  0
    4.3765    1.6078    0.4893 O   0  0  0  0  0  0  0  0  0  0  0  0
   -5.2134    1.7133    0.6575 O   0  0  0  0  0  0  0  0  0  0  0  0
    0.7315   -3.2229   -0.2526 N   0  0  1  0  0  0  0  0  0  0  0  0
   -0.4884   -1.1116   -0.6848 C   0  0  2  0  0  0  0  0  0  0  0  0
   -0.5470   -2.5272   -0.0614 C   0  0  0  0  0  0  0  0  0  0  0  0
    0.8013   -0.3717   -0.3513 C   0  0  0  0  0  0  0  0  0  0  0  0
    1.7838   -2.5439    0.5202 C   0  0  0  0  0  0  0  0  0  0  0  0
    1.8922   -1.0720    0.1977 C   0  0  0  0  0  0  0  0  0  0  0  0
   -1.7584   -0.3521   -0.3244 C   0  0  0  0  0  0  0  0  0  0  0  0
    0.9553    0.9899   -0.6619 C   0  0  0  0  0  0  0  0  0  0  0  0
    3.0825   -0.3895    0.4904 C   0  0  0  0  0  0  0  0  0  0  0  0
    0.6248   -4.6239    0.1545 C   0  0  0  0  0  0  0  0  0  0  0  0
    2.1485    1.6556   -0.3794 C   0  0  0  0  0  0  0  0  0  0  0  0
    3.2087    0.9682    0.2030 C   0  0  0  0  0  0  0  0  0  0  0  0
   -2.6398    0.0354   -1.3284 C   0  0  0  0  0  0  0  0  0  0  0  0
   -2.0278   -0.0522    1.0071 C   0  0  0  0  0  0  0  0  0  0  0  0
   -3.8030    0.7306   -0.9977 C   0  0  0  0  0  0  0  0  0  0  0  0
   -3.1911    0.6428    1.3378 C   0  0  0  0  0  0  0  0  0  0  0  0
   -4.0786    1.0344    0.3354 C   0  0  0  0  0  0  0  0  0  0  0  0
    1.8791    3.9098    0.3296 C   0  0  0  0  0  0  0  0  0  0  0  0
   -0.4613   -1.2495   -1.7765 H   0  0  0  0  0  0  0  0  0  0  0  0
   -0.7953   -2.4958    1.0082 H   0  0  0  0  0  0  0  0  0  0  0  0
   -1.3571   -3.0838   -0.5523 H   0  0  0  0  0  0  0  0  0  0  0  0
    2.7448   -3.0207    0.2887 H   0  0  0  0  0  0  0  0  0  0  0  0
    1.6083   -2.6447    1.5998 H   0  0  0  0  0  0  0  0  0  0  0  0
    0.1430    1.5413   -1.1296 H   0  0  0  0  0  0  0  0  0  0  0  0
    3.9175   -0.9231    0.9390 H   0  0  0  0  0  0  0  0  0  0  0  0
    1.5742   -5.1452   -0.0104 H   0  0  0  0  0  0  0  0  0  0  0  0
   -0.1271   -5.1429   -0.4503 H   0  0  0  0  0  0  0  0  0  0  0  0
    0.3512   -4.7304    1.2105 H   0  0  0  0  0  0  0  0  0  0  0  0
   -2.4381   -0.1941   -2.3710 H   0  0  0  0  0  0  0  0  0  0  0  0
   -1.3446   -0.3406    1.8010 H   0  0  0  0  0  0  0  0  0  0  0  0
   -4.4904    1.0331   -1.7830 H   0  0  0  0  0  0  0  0  0  0  0  0
   -3.3934    0.8752    2.3800 H   0  0  0  0  0  0  0  0  0  0  0  0
    4.3072    2.5293    0.1861 H   0  0  0  0  0  0  0  0  0  0  0  0
    2.4692    3.7621    1.2396 H   0  0  0  0  0  0  0  0  0  0  0  0
    0.8124    3.8095    0.5542 H   0  0  0  0  0  0  0  0  0  0  0  0
    2.0638    4.9195   -0.0469 H   0  0  0  0  0  0  0  0  0  0  0  0
   -5.2433    1.8371    1.6218 H   0  0  0  0  0  0  0  0  0  0  0  0
  1 14  1  0  0  0  0
  1 21  1  0  0  0  0
  2 15  1  0  0  0  0
  2 36  1  0  0  0  0
  3 20  1  0  0  0  0
  3 40  1  0  0  0  0
  4  6  1  0  0  0  0
  4  8  1  0  0  0  0
  4 13  1  0  0  0  0
  5  6  1  0  0  0  0
  5  7  1  0  0  0  0
  5 10  1  0  0  0  0
  5 22  1  0  0  0  0
  6 23  1  0  0  0  0
  6 24  1  0  0  0  0
  7  9  1  0  0  0  0
  7 11  2  0  0  0  0
  8  9  1  0  0  0  0
  8 25  1  0  0  0  0
  8 26  1  0  0  0  0
  9 12  2  0  0  0  0
 10 16  2  0  0  0  0
 10 17  1  0  0  0  0
 11 14  1  0  0  0  0
 11 27  1  0  0  0  0
 12 15  1  0  0  0  0
 12 28  1  0  0  0  0
 13 29  1  0  0  0  0
 13 30  1  0  0  0  0
 13 31  1  0  0  0  0
 14 15  2  0  0  0  0
 16 18  1  0  0  0  0
 16 32  1  0  0  0  0
 17 19  2  0  0  0  0
 17 33  1  0  0  0  0
 18 20  2  0  0  0  0
 18 34  1  0  0  0  0
 19 20  1  0  0  0  0
 19 35  1  0  0  0  0
 21 37  1  0  0  0  0
 21 38  1  0  0  0  0
 21 39  1  0  0  0  0
M  END
> <PUBCHEM_COMPOUND_CID>
90075

> <PUBCHEM_CONFORMER_RMSD>
0.6

> <PUBCHEM_CONFORMER_DIVERSEORDER>
1
4
2
5
3

> <PUBCHEM_MMFF94_PARTIAL_CHARGES>
29
1 -0.36
10 -0.14
11 -0.15
12 -0.15
13 0.27
14 0.08
15 0.08
16 -0.15
17 -0.15
18 -0.15
19 -0.15
2 -0.53
20 0.08
21 0.28
27 0.15
28 0.15
3 -0.53
32 0.15
33 0.15
34 0.15
35 0.15
36 0.45
4 -0.81
40 0.45
5 0.29
6 0.27
7 -0.14
8 0.41
9 -0.14

> <PUBCHEM_EFFECTIVE_ROTOR_COUNT>
2.8

> <PUBCHEM_PHARMACOPHORE_FEATURES>
7
1 1 acceptor
1 2 donor
1 3 donor
1 4 cation
6 10 16 17 18 19 20 rings
6 4 5 6 7 8 9 rings
6 7 9 11 12 14 15 rings

> <PUBCHEM_HEAVY_ATOM_COUNT>
21

> <PUBCHEM_ATOM_DEF_STEREO_COUNT>
1

> <PUBCHEM_ATOM_UDEF_STEREO_COUNT>
0

> <PUBCHEM_BOND_DEF_STEREO_COUNT>
0

> <PUBCHEM_BOND_UDEF_STEREO_COUNT>
0

> <PUBCHEM_ISOTOPIC_ATOM_COUNT>
0

> <PUBCHEM_COMPONENT_COUNT>
1

> <PUBCHEM_CACTVS_TAUTO_COUNT>
6

> <PUBCHEM_CONFORMER_ID>
00015FDB00000001

> <PUBCHEM_MMFF94_ENERGY>
70.2348

> <PUBCHEM_FEATURE_SELFOVERLAP>
35.541

> <PUBCHEM_SHAPE_FINGERPRINT>
10411042 1 17546165663488350687
1100329 8 18338239246171235592
11640471 11 17822290227670394385
11725454 13 16914575196483442455
12173636 292 18121499051258093349
12403259 327 16917349233807332553
12553582 1 17906177608645610830
12633257 1 17775569744954381257
12788726 201 17902811660045204182
13134695 92 17980760755449270991
13140716 1 18340769247494438097
13583140 156 17274277045017527609
138480 1 18050850219198923854
14787075 74 17898283906264909731
14790565 3 18340475730116115452
14955137 171 18340195401657944978
15309172 13 18413109437506155503
16945 1 18340207504495795070
1813 80 17466498327720187311
18186145 218 18408038519933035325
18219364 16 18271812293616871757
19049666 15 17486499483953460983
19765921 60 18114180805037685843
20157964 124 18339364184300686053
204376 136 18411700958805528950
20510252 161 17330559744089901098
20715895 44 17250613648598665385
20739085 24 18270397321326548712
21041028 32 17691688204608465295
21524375 3 18260829246254976061
21639500 275 18340217366072691447
21731228 192 18342455894057883563
22182937 141 18049158869731010264
2255824 54 18337106873099753455
23558518 356 17767407873105478368
23559900 14 18267300031605130163
23845131 108 18341895148071707187
283562 15 17116637645272333376
3091708 16 9118381316633968418
31174 14 18127403665154716007
350125 39 18124310510827069298
3886686 26 17761252875917548864
474 4 18408605876892193233
49207404 50 18200576035123523899
633830 44 18259983790316441423
6443956 14 17981322610027373375
7364860 26 18338796848251887863
81228 2 17190366509542458526
8272917 22 18337668749680303919
84936 182 18187655707933926753
9981440 41 16883035503582519232

> <PUBCHEM_SHAPE_MULTIPOLES>
409.58
7.12
4.47
1.03
6.12
2.6
0
-5.7
1.25
-3.92
0.24
0.76
-0.16
-0.46

> <PUBCHEM_SHAPE_SELFOVERLAP>
886.584

> <PUBCHEM_SHAPE_VOLUME>
225.2

> <PUBCHEM_COORDINATE_TYPE>
2
5
10

$$$$

