23724671
  -OEChem-07051213083D

 33 35  0     1  0  0  0  0  0999 V2000
   -1.1305   -1.9865   -0.0953 O   0  0  0  0  0  0  0  0  0  0  0  0
    1.0414   -2.7919    0.0947 O   0  0  0  0  0  0  0  0  0  0  0  0
    0.1880    1.8380   -0.7528 O   0  0  0  0  0  0  0  0  0  0  0  0
   -4.7775    2.1502    0.1577 O   0  0  0  0  0  0  0  0  0  0  0  0
   -5.5871   -0.4887    0.4628 O   0  0  0  0  0  0  0  0  0  0  0  0
    6.0950    0.8844    0.6652 O   0  0  0  0  0  0  0  0  0  0  0  0
    0.7517   -0.5136   -0.6145 C   0  0  1  0  0  0  0  0  0  0  0  0
    0.2101   -1.6435    0.2748 C   0  0  1  0  0  0  0  0  0  0  0  0
   -0.1757    0.6882   -0.5292 C   0  0  0  0  0  0  0  0  0  0  0  0
    2.1829   -0.1398   -0.2707 C   0  0  0  0  0  0  0  0  0  0  0  0
   -1.5913    0.3988   -0.2228 C   0  0  0  0  0  0  0  0  0  0  0  0
   -1.9921   -0.9254   -0.0386 C   0  0  0  0  0  0  0  0  0  0  0  0
   -2.5288    1.4336   -0.1586 C   0  0  0  0  0  0  0  0  0  0  0  0
    3.1858   -0.2649   -1.2320 C   0  0  0  0  0  0  0  0  0  0  0  0
    2.4945    0.3301    1.0052 C   0  0  0  0  0  0  0  0  0  0  0  0
   -3.3395   -1.2200    0.1762 C   0  0  0  0  0  0  0  0  0  0  0  0
   -3.8713    1.1356    0.0776 C   0  0  0  0  0  0  0  0  0  0  0  0
   -4.2770   -0.1889    0.2398 C   0  0  0  0  0  0  0  0  0  0  0  0
    4.5003    0.0799   -0.9175 C   0  0  0  0  0  0  0  0  0  0  0  0
    3.8090    0.6748    1.3198 C   0  0  0  0  0  0  0  0  0  0  0  0
    4.8119    0.5498    0.3583 C   0  0  0  0  0  0  0  0  0  0  0  0
    0.7111   -0.8449   -1.6623 H   0  0  0  0  0  0  0  0  0  0  0  0
    0.2282   -1.3799    1.3409 H   0  0  0  0  0  0  0  0  0  0  0  0
   -2.2223    2.4673   -0.2963 H   0  0  0  0  0  0  0  0  0  0  0  0
    2.9588   -0.6294   -2.2302 H   0  0  0  0  0  0  0  0  0  0  0  0
    1.7261    0.4408    1.7654 H   0  0  0  0  0  0  0  0  0  0  0  0
   -3.6515   -2.2540    0.3026 H   0  0  0  0  0  0  0  0  0  0  0  0
    0.9595   -3.3315    0.8992 H   0  0  0  0  0  0  0  0  0  0  0  0
    5.2773   -0.0200   -1.6704 H   0  0  0  0  0  0  0  0  0  0  0  0
    4.0386    1.0409    2.3168 H   0  0  0  0  0  0  0  0  0  0  0  0
   -4.3185    2.9972    0.0240 H   0  0  0  0  0  0  0  0  0  0  0  0
   -5.6814   -1.4528    0.5506 H   0  0  0  0  0  0  0  0  0  0  0  0
    6.1289    1.1887    1.5884 H   0  0  0  0  0  0  0  0  0  0  0  0
  1  8  1  0  0  0  0
  1 12  1  0  0  0  0
  2  8  1  0  0  0  0
  2 28  1  0  0  0  0
  3  9  2  0  0  0  0
  4 17  1  0  0  0  0
  4 31  1  0  0  0  0
  5 18  1  0  0  0  0
  5 32  1  0  0  0  0
  6 21  1  0  0  0  0
  6 33  1  0  0  0  0
  7  8  1  0  0  0  0
  7  9  1  0  0  0  0
  7 10  1  0  0  0  0
  7 22  1  0  0  0  0
  8 23  1  0  0  0  0
  9 11  1  0  0  0  0
 10 14  2  0  0  0  0
 10 15  1  0  0  0  0
 11 12  1  0  0  0  0
 11 13  2  0  0  0  0
 12 16  2  0  0  0  0
 13 17  1  0  0  0  0
 13 24  1  0  0  0  0
 14 19  1  0  0  0  0
 14 25  1  0  0  0  0
 15 20  2  0  0  0  0
 15 26  1  0  0  0  0
 16 18  1  0  0  0  0
 16 27  1  0  0  0  0
 17 18  2  0  0  0  0
 19 21  2  0  0  0  0
 19 29  1  0  0  0  0
 20 21  1  0  0  0  0
 20 30  1  0  0  0  0
M  END
> <PUBCHEM_COMPOUND_CID>
23724671

> <PUBCHEM_CONFORMER_RMSD>
0.6

> <PUBCHEM_CONFORMER_DIVERSEORDER>
1
4
7
3
8
6
5
2

> <PUBCHEM_MMFF94_PARTIAL_CHARGES>
31
1 -0.36
10 -0.14
11 0.09
12 0.08
13 -0.15
14 -0.15
15 -0.15
16 -0.15
17 0.08
18 0.08
19 -0.15
2 -0.68
20 -0.15
21 0.08
24 0.15
25 0.15
26 0.15
27 0.15
28 0.4
29 0.15
3 -0.57
30 0.15
31 0.45
32 0.45
33 0.45
4 -0.53
5 -0.53
6 -0.53
7 0.2
8 0.56
9 0.42

> <PUBCHEM_EFFECTIVE_ROTOR_COUNT>
1.6

> <PUBCHEM_PHARMACOPHORE_FEATURES>
10
1 1 acceptor
1 2 acceptor
1 2 donor
1 3 acceptor
1 4 donor
1 5 donor
1 6 donor
6 1 7 8 9 11 12 rings
6 10 14 15 19 20 21 rings
6 11 12 13 16 17 18 rings

> <PUBCHEM_HEAVY_ATOM_COUNT>
21

> <PUBCHEM_ATOM_DEF_STEREO_COUNT>
0

> <PUBCHEM_ATOM_UDEF_STEREO_COUNT>
2

> <PUBCHEM_BOND_DEF_STEREO_COUNT>
0

> <PUBCHEM_BOND_UDEF_STEREO_COUNT>
0

> <PUBCHEM_ISOTOPIC_ATOM_COUNT>
0

> <PUBCHEM_COMPONENT_COUNT>
1

> <PUBCHEM_CACTVS_TAUTO_COUNT>
81

> <PUBCHEM_CONFORMER_ID>
016A027F00000001

> <PUBCHEM_MMFF94_ENERGY>
57.1551

> <PUBCHEM_FEATURE_SELFOVERLAP>
50.823

> <PUBCHEM_SHAPE_FINGERPRINT>
10411042 1 17690280409050959575
10498660 4 18410011082543345089
11132069 177 18342454854675551197
11578080 2 16771841102133249407
12119455 92 17313105246048960350
12236239 1 17418094308798071804
12390115 104 18188758561420922185
12403259 415 18260823821468759276
12403814 3 17275107236689752421
12596602 18 17203325555308516920
12730499 353 17822003212207373822
12916748 109 18409162208227164896
12969540 114 17603878822486571773
13140716 1 18125716782352511547
13544592 145 18187071876382327246
13583140 156 16128668452228881029
14341114 328 17346599660096747418
14573314 32 18040710389865766100
14787075 74 18042130864536709313
14790565 3 18342448210578123844
15196674 1 18340203098149317743
15209294 21 18408324406157669929
15536298 74 18337387265839702999
15788980 27 15698283312986097693
1601671 61 18343580771794210348
16945 1 18341610391613160807
1813 80 16558750161239561502
18186145 218 17749387070230273266
19784866 170 18342457079526645541
200 152 14779260917198742690
20028762 73 18191581944152168535
20510252 161 18334293201316651737
20645477 56 18114181904190727798
20645477 70 16732971060089289374
21033648 29 17894640253041415905
21267235 1 18341881975274822967
21279426 13 18189048875186782588
22854114 59 18334013895324474321
23402539 116 18335709308279875670
23559900 14 18336254743625793534
2748010 2 18198057195707744719
2916195 48 18186809049926762360
34934 24 18339647845083038221
3545911 37 17821726117975589168
465052 167 17346589742996317683
495365 180 17312828173793873686
5104073 3 18269548511334911771
633830 44 18259992578046564036
6442390 28 18408885127065775774
69090 78 17821449032170976175
7364860 26 18118967129288028198
7495541 125 14635161066556751911
8272917 22 15574980806519653308

> <PUBCHEM_SHAPE_MULTIPOLES>
396.95
11.16
1.89
0.96
1.98
0.58
-0.02
-3.71
-1.97
-1.28
-0.03
0.99
-0.1
0.5

> <PUBCHEM_SHAPE_SELFOVERLAP>
880.994

> <PUBCHEM_SHAPE_VOLUME>
209.7

> <PUBCHEM_COORDINATE_TYPE>
2
5
10

$$$$

