16231
  -OEChem-07051212523D

 23 23  0     0  0  0  0  0  0999 V2000
   -2.3546    2.6599   -0.5229 Cl  0  0  0  0  0  0  0  0  0  0  0  0
    1.6926   -1.6986   -1.2164 O   0  0  0  0  0  0  0  0  0  0  0  0
   -2.0899   -1.1792    0.5167 N   0  0  0  0  0  0  0  0  0  0  0  0
   -0.5153    0.8520   -0.6063 N   0  0  0  0  0  0  0  0  0  0  0  0
   -0.2504   -2.6725    0.3395 N   0  0  0  0  0  0  0  0  0  0  0  0
    2.1600    0.5125   -0.7213 N   0  0  0  0  0  0  0  0  0  0  0  0
   -3.9055    0.3375    0.6773 N   0  0  0  0  0  0  0  0  0  0  0  0
    3.6599    1.7951    0.6579 N   0  0  0  0  0  0  0  0  0  0  0  0
    2.6926   -0.1091    1.4587 N   0  0  0  0  0  0  0  0  0  0  0  0
   -0.0703   -0.3859   -0.3913 C   0  0  0  0  0  0  0  0  0  0  0  0
   -0.8098   -1.3886    0.1504 C   0  0  0  0  0  0  0  0  0  0  0  0
   -2.5686    0.0638    0.3118 C   0  0  0  0  0  0  0  0  0  0  0  0
   -1.7954    1.0616   -0.2398 C   0  0  0  0  0  0  0  0  0  0  0  0
    1.3465   -0.5957   -0.8037 C   0  0  0  0  0  0  0  0  0  0  0  0
    2.8080    0.7473    0.3896 C   0  0  0  0  0  0  0  0  0  0  0  0
   -0.8554   -3.3770    0.7439 H   0  0  0  0  0  0  0  0  0  0  0  0
    0.7430   -2.7485    0.5187 H   0  0  0  0  0  0  0  0  0  0  0  0
   -4.4387   -0.4193    1.0868 H   0  0  0  0  0  0  0  0  0  0  0  0
   -4.1530    1.2884    0.9210 H   0  0  0  0  0  0  0  0  0  0  0  0
    3.8490    2.5074   -0.0389 H   0  0  0  0  0  0  0  0  0  0  0  0
    4.1193    1.8881    1.5572 H   0  0  0  0  0  0  0  0  0  0  0  0
    2.1200   -0.9450    1.4381 H   0  0  0  0  0  0  0  0  0  0  0  0
    3.1941    0.0702    2.3223 H   0  0  0  0  0  0  0  0  0  0  0  0
  1 13  1  0  0  0  0
  2 14  2  0  0  0  0
  3 11  1  0  0  0  0
  3 12  2  0  0  0  0
  4 10  1  0  0  0  0
  4 13  2  0  0  0  0
  5 11  1  0  0  0  0
  5 16  1  0  0  0  0
  5 17  1  0  0  0  0
  6 14  1  0  0  0  0
  6 15  2  0  0  0  0
  7 12  1  0  0  0  0
  7 18  1  0  0  0  0
  7 19  1  0  0  0  0
  8 15  1  0  0  0  0
  8 20  1  0  0  0  0
  8 21  1  0  0  0  0
  9 15  1  0  0  0  0
  9 22  1  0  0  0  0
  9 23  1  0  0  0  0
 10 11  2  0  0  0  0
 10 14  1  0  0  0  0
 12 13  1  0  0  0  0
M  END
> <PUBCHEM_COMPOUND_CID>
16231

> <PUBCHEM_CONFORMER_RMSD>
0.6

> <PUBCHEM_CONFORMER_DIVERSEORDER>
1
8
10
4
12
6
3
7
13
9
5
2
11

> <PUBCHEM_MMFF94_PARTIAL_CHARGES>
23
1 -0.18
10 0.4
11 0.41
12 0.41
13 0.49
14 0.69
15 0.55
16 0.4
17 0.4
18 0.4
19 0.4
2 -0.57
20 0.4
21 0.4
22 0.4
23 0.4
3 -0.62
4 -0.62
5 -0.9
6 -0.66
7 -0.9
8 -0.85
9 -0.85

> <PUBCHEM_EFFECTIVE_ROTOR_COUNT>
2

> <PUBCHEM_PHARMACOPHORE_FEATURES>
10
1 2 acceptor
1 4 acceptor
1 5 cation
1 5 donor
1 6 donor
1 7 donor
1 8 donor
1 9 donor
3 3 7 12 cation
6 3 4 10 11 12 13 rings

> <PUBCHEM_HEAVY_ATOM_COUNT>
15

> <PUBCHEM_ATOM_DEF_STEREO_COUNT>
0

> <PUBCHEM_ATOM_UDEF_STEREO_COUNT>
0

> <PUBCHEM_BOND_DEF_STEREO_COUNT>
0

> <PUBCHEM_BOND_UDEF_STEREO_COUNT>
0

> <PUBCHEM_ISOTOPIC_ATOM_COUNT>
0

> <PUBCHEM_COMPONENT_COUNT>
1

> <PUBCHEM_CACTVS_TAUTO_COUNT>
33

> <PUBCHEM_CONFORMER_ID>
00003F6700000001

> <PUBCHEM_MMFF94_ENERGY>
63.9563

> <PUBCHEM_FEATURE_SELFOVERLAP>
50.875

> <PUBCHEM_SHAPE_FINGERPRINT>
10608611 8 18336545018357652844
11132069 177 18335980861681750129
12251169 10 18201162053188198388
12382932 28 18339917104613583393
12423570 1 10248752778452928230
13839132 238 18410292557604172700
15219456 202 18262517108188456652
15490181 7 18339079423041004247
15775835 57 18341333305808027944
16945 1 18341323405776463743
17804303 29 18127410279277907170
17846911 113 18411421696111593657
18186145 218 17969495081911618989
19786989 88 17240762929917733381
20510252 161 18409445890817501105
20871998 184 18119524336674742551
21524375 3 18187655678032516646
21947302 44 17968371338073058154
22445834 79 17489319610898290106
23211744 41 18334291011041378551
23402539 116 18191879915971077975
27216 239 17536331236473253264
2748010 2 18198050581294383709
305870 269 18198068168927075618
5255222 1 17624124310519492765
7364860 26 17977668937257451183
8050 44 18335144240623130281
81228 2 18121489155569599259
90316 7 18059304162199525061

> <PUBCHEM_SHAPE_MULTIPOLES>
269.83
5.34
2.37
1.01
0.61
0.04
0.03
2.8
1.52
-0.49
-0.11
0.52
-0.06
0.87

> <PUBCHEM_SHAPE_SELFOVERLAP>
560.641

> <PUBCHEM_SHAPE_VOLUME>
155.3

> <PUBCHEM_COORDINATE_TYPE>
2
5
10

$$$$

