101995
  -OEChem-07051213053D

 53 56  0     1  0  0  0  0  0999 V2000
   -4.9295    2.0554    0.5558 Cl  0  0  0  0  0  0  0  0  0  0  0  0
    5.7469   -0.0731   -0.6096 O   0  0  0  0  0  0  0  0  0  0  0  0
   -5.8389   -0.6733    0.9951 O   0  0  0  0  0  0  0  0  0  0  0  0
    1.5999    0.9474    0.3289 C   0  0  2  0  0  0  0  0  0  0  0  0
    2.5291   -0.2286   -0.0400 C   0  0  1  0  0  0  0  0  0  0  0  0
    0.2264    0.8551   -0.3433 C   0  0  1  0  0  0  0  0  0  0  0  0
   -0.4664   -0.4677    0.1039 C   0  0  1  0  0  0  0  0  0  0  0  0
   -1.9165   -0.6362   -0.4993 C   0  0  2  0  0  0  0  0  0  0  0  0
    3.7955    0.2010    0.7335 C   0  0  2  0  0  0  0  0  0  0  0  0
    1.8718   -1.5190    0.4667 C   0  0  0  0  0  0  0  0  0  0  0  0
    0.4560   -1.7005   -0.1104 C   0  0  0  0  0  0  0  0  0  0  0  0
    2.4681    2.1756    0.0773 C   0  0  0  0  0  0  0  0  0  0  0  0
   -0.6559    2.0535    0.0167 C   0  0  0  0  0  0  0  0  0  0  0  0
    3.8733    1.7270    0.5180 C   0  0  0  0  0  0  0  0  0  0  0  0
   -2.7411    0.6476   -0.2499 C   0  0  0  0  0  0  0  0  0  0  0  0
    2.8187   -0.3490   -1.5591 C   0  0  0  0  0  0  0  0  0  0  0  0
   -2.0308    1.9364   -0.6289 C   0  0  0  0  0  0  0  0  0  0  0  0
   -2.5825   -1.8560    0.1982 C   0  0  0  0  0  0  0  0  0  0  0  0
   -1.8783   -0.8990   -2.0233 C   0  0  0  0  0  0  0  0  0  0  0  0
    5.0483   -0.5002    0.3083 C   0  0  0  0  0  0  0  0  0  0  0  0
   -4.0823   -1.9226   -0.0113 C   0  0  0  0  0  0  0  0  0  0  0  0
   -4.0005    0.6303    0.2362 C   0  0  0  0  0  0  0  0  0  0  0  0
   -4.7235   -0.6527    0.4761 C   0  0  0  0  0  0  0  0  0  0  0  0
    5.4120   -1.7516    1.0605 C   0  0  0  0  0  0  0  0  0  0  0  0
    1.4206    0.9202    1.4172 H   0  0  0  0  0  0  0  0  0  0  0  0
    0.3575    0.8567   -1.4307 H   0  0  0  0  0  0  0  0  0  0  0  0
   -0.5949   -0.3851    1.1957 H   0  0  0  0  0  0  0  0  0  0  0  0
    3.6613    0.0282    1.8103 H   0  0  0  0  0  0  0  0  0  0  0  0
    1.8045   -1.5046    1.5621 H   0  0  0  0  0  0  0  0  0  0  0  0
    2.4765   -2.3937    0.2033 H   0  0  0  0  0  0  0  0  0  0  0  0
    0.5326   -1.9356   -1.1766 H   0  0  0  0  0  0  0  0  0  0  0  0
    0.0188   -2.5833    0.3684 H   0  0  0  0  0  0  0  0  0  0  0  0
    2.1311    3.0443    0.6519 H   0  0  0  0  0  0  0  0  0  0  0  0
    2.4682    2.4576   -0.9813 H   0  0  0  0  0  0  0  0  0  0  0  0
   -0.1860    2.9830   -0.3258 H   0  0  0  0  0  0  0  0  0  0  0  0
   -0.7638    2.1340    1.1061 H   0  0  0  0  0  0  0  0  0  0  0  0
    4.6123    2.0374   -0.2279 H   0  0  0  0  0  0  0  0  0  0  0  0
    4.1508    2.2185    1.4582 H   0  0  0  0  0  0  0  0  0  0  0  0
    3.3419    0.5262   -1.9571 H   0  0  0  0  0  0  0  0  0  0  0  0
    3.4442   -1.2249   -1.7664 H   0  0  0  0  0  0  0  0  0  0  0  0
    1.9102   -0.4702   -2.1546 H   0  0  0  0  0  0  0  0  0  0  0  0
   -1.9271    1.9728   -1.7205 H   0  0  0  0  0  0  0  0  0  0  0  0
   -2.5992    2.8310   -0.3593 H   0  0  0  0  0  0  0  0  0  0  0  0
   -2.3899   -1.8114    1.2793 H   0  0  0  0  0  0  0  0  0  0  0  0
   -2.1431   -2.7955   -0.1575 H   0  0  0  0  0  0  0  0  0  0  0  0
   -1.2816   -0.1554   -2.5601 H   0  0  0  0  0  0  0  0  0  0  0  0
   -1.4554   -1.8829   -2.2526 H   0  0  0  0  0  0  0  0  0  0  0  0
   -2.8832   -0.8738   -2.4608 H   0  0  0  0  0  0  0  0  0  0  0  0
   -4.4882   -2.7615    0.5653 H   0  0  0  0  0  0  0  0  0  0  0  0
   -4.3480   -2.0745   -1.0618 H   0  0  0  0  0  0  0  0  0  0  0  0
    5.4768   -1.5355    2.1298 H   0  0  0  0  0  0  0  0  0  0  0  0
    4.6720   -2.5318    0.8764 H   0  0  0  0  0  0  0  0  0  0  0  0
    6.3885   -2.1090    0.7210 H   0  0  0  0  0  0  0  0  0  0  0  0
  1 22  1  0  0  0  0
  2 20  2  0  0  0  0
  3 23  2  0  0  0  0
  4  5  1  0  0  0  0
  4  6  1  0  0  0  0
  4 12  1  0  0  0  0
  4 25  1  0  0  0  0
  5  9  1  0  0  0  0
  5 10  1  0  0  0  0
  5 16  1  0  0  0  0
  6  7  1  0  0  0  0
  6 13  1  0  0  0  0
  6 26  1  0  0  0  0
  7  8  1  0  0  0  0
  7 11  1  0  0  0  0
  7 27  1  0  0  0  0
  8 15  1  0  0  0  0
  8 18  1  0  0  0  0
  8 19  1  0  0  0  0
  9 14  1  0  0  0  0
  9 20  1  0  0  0  0
  9 28  1  0  0  0  0
 10 11  1  0  0  0  0
 10 29  1  0  0  0  0
 10 30  1  0  0  0  0
 11 31  1  0  0  0  0
 11 32  1  0  0  0  0
 12 14  1  0  0  0  0
 12 33  1  0  0  0  0
 12 34  1  0  0  0  0
 13 17  1  0  0  0  0
 13 35  1  0  0  0  0
 13 36  1  0  0  0  0
 14 37  1  0  0  0  0
 14 38  1  0  0  0  0
 15 17  1  0  0  0  0
 15 22  2  0  0  0  0
 16 39  1  0  0  0  0
 16 40  1  0  0  0  0
 16 41  1  0  0  0  0
 17 42  1  0  0  0  0
 17 43  1  0  0  0  0
 18 21  1  0  0  0  0
 18 44  1  0  0  0  0
 18 45  1  0  0  0  0
 19 46  1  0  0  0  0
 19 47  1  0  0  0  0
 19 48  1  0  0  0  0
 20 24  1  0  0  0  0
 21 23  1  0  0  0  0
 21 49  1  0  0  0  0
 21 50  1  0  0  0  0
 22 23  1  0  0  0  0
 24 51  1  0  0  0  0
 24 52  1  0  0  0  0
 24 53  1  0  0  0  0
M  END
> <PUBCHEM_COMPOUND_CID>
101995

> <PUBCHEM_CONFORMER_RMSD>
0.6

> <PUBCHEM_CONFORMER_DIVERSEORDER>
1
2

> <PUBCHEM_MMFF94_PARTIAL_CHARGES>
12
1 -0.14
15 -0.28
17 0.14
2 -0.57
20 0.45
21 0.06
22 0.15
23 0.49
24 0.06
3 -0.57
8 0.14
9 0.06

> <PUBCHEM_EFFECTIVE_ROTOR_COUNT>
2.8

> <PUBCHEM_PHARMACOPHORE_FEATURES>
6
1 2 acceptor
1 3 acceptor
5 4 5 9 12 14 rings
6 4 5 6 7 10 11 rings
6 6 7 8 13 15 17 rings
6 8 15 18 21 22 23 rings

> <PUBCHEM_HEAVY_ATOM_COUNT>
24

> <PUBCHEM_ATOM_DEF_STEREO_COUNT>
6

> <PUBCHEM_ATOM_UDEF_STEREO_COUNT>
0

> <PUBCHEM_BOND_DEF_STEREO_COUNT>
0

> <PUBCHEM_BOND_UDEF_STEREO_COUNT>
0

> <PUBCHEM_ISOTOPIC_ATOM_COUNT>
0

> <PUBCHEM_COMPONENT_COUNT>
1

> <PUBCHEM_CACTVS_TAUTO_COUNT>
15

> <PUBCHEM_CONFORMER_ID>
00018E6B00000001

> <PUBCHEM_MMFF94_ENERGY>
74.3975

> <PUBCHEM_FEATURE_SELFOVERLAP>
30.541

> <PUBCHEM_SHAPE_FINGERPRINT>
11405975 8 18334862701321734520
12011746 2 18412550903638847199
12107183 9 17978229684024181435
12166972 35 17561079203073168956
12236239 1 17775563161059503860
12403259 226 18341060657147878876
12403259 415 18342748394600868948
12422481 6 18335984267400768930
12553582 1 18340782480304527272
12633257 1 18410575123386551473
12788726 201 17968368035507517544
13140716 1 18408889524774592392
13224815 77 18412551980810630925
13583140 156 18342469170344835477
13675066 3 18113622257082897008
13862211 1 18411424998640945731
14341114 176 18411699876879945904
14420673 8 18267303308296067594
14790565 3 18339354172014741044
15196674 1 18410577258022305144
15209289 33 18273217495130902754
15238133 3 18341602763255409964
15788980 27 18272091590870881947
1601671 61 18408602595484366508
16945 1 18339084903308276765
17349148 13 17418093239145428394
17844677 252 18409724041188811769
1813 80 17275388681153533045
18186145 218 18130238072855027228
19141452 34 17894630314476634175
19591789 44 18338802216976754146
20028762 73 18260554381133727222
20261772 1 18333734589322111358
21033648 29 17240495735659763915
21267235 1 18412256216915738827
21279426 13 18265893742714988198
21421861 104 17915465114903830290
22182313 1 17896596374468723070
22950370 63 18272651251238057152
23402539 116 18410018736095607718
23522609 53 18127381597486811476
23557571 272 18261386754273830012
23559900 14 18261390104796895814
296302 2 6988321642236166165
3004659 81 18201154447550196910
335352 9 18410577326688982692
34934 24 18339365270499728073
350125 39 18411981373331804696
3680242 22 18339640152543410394
392239 28 18270666603065290643
4214541 1 18410012143663842553
465052 167 18341890788516189402
5104073 3 18408891724072012328
633830 44 18336553729067897710
9709674 26 18268710515290352203

> <PUBCHEM_SHAPE_MULTIPOLES>
484.04
11.95
2.34
1.09
1.96
0.51
-0.41
-1.57
3.19
-0.74
0.23
0.04
-0.24
-0.3

> <PUBCHEM_SHAPE_SELFOVERLAP>
1027.613

> <PUBCHEM_SHAPE_VOLUME>
271.7

> <PUBCHEM_COORDINATE_TYPE>
2
5
10

$$$$

