443465
  -OEChem-07051213023D

 53 56  0     1  0  0  0  0  0999 V2000
   -4.7894    0.9166    1.2497 O   0  0  0  0  0  0  0  0  0  0  0  0
    1.5732    0.8193   -0.2743 C   0  0  1  0  0  0  0  0  0  0  0  0
    0.9409   -0.6020   -0.4976 C   0  0  2  0  0  0  0  0  0  0  0  0
   -0.5555   -0.7937    0.0103 C   0  0  1  0  0  0  0  0  0  0  0  0
   -1.4140    0.4273   -0.4705 C   0  0  2  0  0  0  0  0  0  0  0  0
    0.5981    1.9410   -0.6448 C   0  0  0  0  0  0  0  0  0  0  0  0
    2.1488    0.9686    1.1437 C   0  0  0  0  0  0  0  0  0  0  0  0
   -0.7901    1.7684   -0.0442 C   0  0  0  0  0  0  0  0  0  0  0  0
   -2.9583    0.3273   -0.1717 C   0  0  1  0  0  0  0  0  0  0  0  0
    3.3411    0.0155    1.0996 C   0  0  1  0  0  0  0  0  0  0  0  0
    1.9053   -1.7484   -0.0788 C   0  0  0  0  0  0  0  0  0  0  0  0
    2.8796    0.9730   -1.1161 C   0  0  0  0  0  0  0  0  0  0  0  0
   -1.1314   -2.1008   -0.6400 C   0  0  0  0  0  0  0  0  0  0  0  0
    2.8336   -1.4294    1.1031 C   0  0  0  0  0  0  0  0  0  0  0  0
    3.9439    0.3735   -0.2348 C   0  0  0  0  0  0  0  0  0  0  0  0
   -0.6215   -0.9765    1.5442 C   0  0  0  0  0  0  0  0  0  0  0  0
   -3.4408   -1.1462   -0.1890 C   0  0  0  0  0  0  0  0  0  0  0  0
   -2.5906   -2.0217   -1.0953 C   0  0  0  0  0  0  0  0  0  0  0  0
   -3.3813    0.9693    1.1661 C   0  0  0  0  0  0  0  0  0  0  0  0
   -3.7207    1.0923   -1.2867 C   0  0  0  0  0  0  0  0  0  0  0  0
    5.2290    0.2267   -0.5730 C   0  0  0  0  0  0  0  0  0  0  0  0
    0.8556   -0.6931   -1.5931 H   0  0  0  0  0  0  0  0  0  0  0  0
   -1.3269    0.4089   -1.5695 H   0  0  0  0  0  0  0  0  0  0  0  0
    0.4999    1.9870   -1.7380 H   0  0  0  0  0  0  0  0  0  0  0  0
    1.0003    2.9145   -0.3370 H   0  0  0  0  0  0  0  0  0  0  0  0
    1.4545    0.7234    1.9461 H   0  0  0  0  0  0  0  0  0  0  0  0
    2.4895    1.9979    1.3242 H   0  0  0  0  0  0  0  0  0  0  0  0
   -0.7338    1.8581    1.0453 H   0  0  0  0  0  0  0  0  0  0  0  0
   -1.4092    2.6019   -0.3949 H   0  0  0  0  0  0  0  0  0  0  0  0
    4.0249    0.1956    1.9352 H   0  0  0  0  0  0  0  0  0  0  0  0
    2.5422   -1.9746   -0.9458 H   0  0  0  0  0  0  0  0  0  0  0  0
    1.3711   -2.6830    0.1211 H   0  0  0  0  0  0  0  0  0  0  0  0
    3.1108    2.0312   -1.2902 H   0  0  0  0  0  0  0  0  0  0  0  0
    2.8093    0.4649   -2.0834 H   0  0  0  0  0  0  0  0  0  0  0  0
   -1.0307   -2.9388    0.0626 H   0  0  0  0  0  0  0  0  0  0  0  0
   -0.5418   -2.3933   -1.5183 H   0  0  0  0  0  0  0  0  0  0  0  0
    2.3087   -1.6184    2.0463 H   0  0  0  0  0  0  0  0  0  0  0  0
    3.6818   -2.1252    1.0837 H   0  0  0  0  0  0  0  0  0  0  0  0
   -0.4374   -0.0521    2.0915 H   0  0  0  0  0  0  0  0  0  0  0  0
   -1.5981   -1.3381    1.8740 H   0  0  0  0  0  0  0  0  0  0  0  0
    0.0904   -1.7263    1.8972 H   0  0  0  0  0  0  0  0  0  0  0  0
   -4.4862   -1.2063   -0.5182 H   0  0  0  0  0  0  0  0  0  0  0  0
   -3.4344   -1.5769    0.8189 H   0  0  0  0  0  0  0  0  0  0  0  0
   -2.6313   -1.6359   -2.1214 H   0  0  0  0  0  0  0  0  0  0  0  0
   -3.0098   -3.0341   -1.1349 H   0  0  0  0  0  0  0  0  0  0  0  0
   -3.0913    2.0227    1.2233 H   0  0  0  0  0  0  0  0  0  0  0  0
   -2.9603    0.4497    2.0299 H   0  0  0  0  0  0  0  0  0  0  0  0
   -4.8081    0.9912   -1.1975 H   0  0  0  0  0  0  0  0  0  0  0  0
   -3.4894    2.1626   -1.2704 H   0  0  0  0  0  0  0  0  0  0  0  0
   -3.4534    0.7131   -2.2797 H   0  0  0  0  0  0  0  0  0  0  0  0
    5.9448   -0.1982    0.1221 H   0  0  0  0  0  0  0  0  0  0  0  0
    5.5868    0.5276   -1.5515 H   0  0  0  0  0  0  0  0  0  0  0  0
   -5.0442    1.3249    2.0945 H   0  0  0  0  0  0  0  0  0  0  0  0
  1 19  1  0  0  0  0
  1 53  1  0  0  0  0
  2  3  1  0  0  0  0
  2  6  1  0  0  0  0
  2  7  1  0  0  0  0
  2 12  1  0  0  0  0
  3  4  1  0  0  0  0
  3 11  1  0  0  0  0
  3 22  1  0  0  0  0
  4  5  1  0  0  0  0
  4 13  1  0  0  0  0
  4 16  1  0  0  0  0
  5  8  1  0  0  0  0
  5  9  1  0  0  0  0
  5 23  1  0  0  0  0
  6  8  1  0  0  0  0
  6 24  1  0  0  0  0
  6 25  1  0  0  0  0
  7 10  1  0  0  0  0
  7 26  1  0  0  0  0
  7 27  1  0  0  0  0
  8 28  1  0  0  0  0
  8 29  1  0  0  0  0
  9 17  1  0  0  0  0
  9 19  1  0  0  0  0
  9 20  1  0  0  0  0
 10 14  1  0  0  0  0
 10 15  1  0  0  0  0
 10 30  1  0  0  0  0
 11 14  1  0  0  0  0
 11 31  1  0  0  0  0
 11 32  1  0  0  0  0
 12 15  1  0  0  0  0
 12 33  1  0  0  0  0
 12 34  1  0  0  0  0
 13 18  1  0  0  0  0
 13 35  1  0  0  0  0
 13 36  1  0  0  0  0
 14 37  1  0  0  0  0
 14 38  1  0  0  0  0
 15 21  2  0  0  0  0
 16 39  1  0  0  0  0
 16 40  1  0  0  0  0
 16 41  1  0  0  0  0
 17 18  1  0  0  0  0
 17 42  1  0  0  0  0
 17 43  1  0  0  0  0
 18 44  1  0  0  0  0
 18 45  1  0  0  0  0
 19 46  1  0  0  0  0
 19 47  1  0  0  0  0
 20 48  1  0  0  0  0
 20 49  1  0  0  0  0
 20 50  1  0  0  0  0
 21 51  1  0  0  0  0
 21 52  1  0  0  0  0
M  END
> <PUBCHEM_COMPOUND_CID>
443465

> <PUBCHEM_CONFORMER_RMSD>
0.6

> <PUBCHEM_CONFORMER_DIVERSEORDER>
1
2

> <PUBCHEM_MMFF94_PARTIAL_CHARGES>
9
1 -0.68
10 0.14
12 0.14
15 -0.28
19 0.28
21 -0.3
51 0.15
52 0.15
53 0.4

> <PUBCHEM_EFFECTIVE_ROTOR_COUNT>
3

> <PUBCHEM_PHARMACOPHORE_FEATURES>
5
1 1 acceptor
1 1 donor
6 2 3 4 5 6 8 rings
6 4 5 9 13 17 18 rings
8 2 3 7 10 11 12 14 15 rings

> <PUBCHEM_HEAVY_ATOM_COUNT>
21

> <PUBCHEM_ATOM_DEF_STEREO_COUNT>
6

> <PUBCHEM_ATOM_UDEF_STEREO_COUNT>
0

> <PUBCHEM_BOND_DEF_STEREO_COUNT>
0

> <PUBCHEM_BOND_UDEF_STEREO_COUNT>
0

> <PUBCHEM_ISOTOPIC_ATOM_COUNT>
0

> <PUBCHEM_COMPONENT_COUNT>
1

> <PUBCHEM_CACTVS_TAUTO_COUNT>
1

> <PUBCHEM_CONFORMER_ID>
0006C44900000001

> <PUBCHEM_MMFF94_ENERGY>
92.8215

> <PUBCHEM_FEATURE_SELFOVERLAP>
25.404

> <PUBCHEM_SHAPE_FINGERPRINT>
10062212 137 18340495486400602703
10366900 7 17603877714247858929
10498660 4 18411426098426743932
10646746 165 18113621144971171456
10863032 1 18259709999073418850
10948715 1 17417807318977890408
10967382 1 18338804527584627087
10980938 120 18342461460404031882
11132069 177 18339936964658560340
11578080 2 17533504430511186593
12011746 2 18408608084415875268
12173636 292 17967811691434686661
12236239 1 18342457027907851804
12403814 3 17989208157520063789
12491281 212 18335137592187439835
12500047 106 17894630352935939799
12553582 1 18342744004906895980
12633257 1 18114474438898019896
12788726 201 16806438287483086593
128620 24 9799690406713297825
13140716 1 18267017263152238232
13221675 6 18342176657038416596
13224815 77 18341615897238793298
13583140 156 17275387616449990629
13675066 3 17989210364663774673
14004511 7 18333450932639066899
14178342 30 18263095343825210403
14787075 74 17846207818157332025
14790565 3 18270675347550412356
14955137 171 18268970064459218113
15196674 1 18413112757832464342
15309172 13 18411697703478664499
15375462 189 18273215291891781592
15775835 57 18408601469960354962
1601671 61 18408602574231225636
16752209 62 18263376806059677871
16945 1 18335428984006402844
17349148 13 18188227441459198927
17804303 29 18259985942258761852
1813 80 17488188278464959674
18186145 218 18041003942227177137
19862831 5 16660359290156903970
20261772 1 18411414016567578721
20600515 1 17968365780507391512
20691752 17 17987812799617563224
20739085 24 18051669316754657001
21267235 1 18339355271257161718
21421861 104 18057608870289120882
21501502 16 18411423881912434591
23184049 59 18338514248283532281
2334 1 17979357456246925940
23402539 116 18059863861257913508
23419403 2 16602448957541030596
23463225 33 18342746221167633774
23557571 272 17530962437085099527
23559900 14 18040435478326999364
2748010 2 17546172260277763303
296302 2 17060623304277898612
34934 24 18343027717408288277
474 4 18131351890591669635
5104073 3 18410017606920214114
633830 44 17530689800855710696
69090 78 18335990826222102847
6992083 37 18410578379393631501
74978 22 18263084331513134964
7832392 63 18334579014236334593
90525 40 18334862697053524367
9981440 41 17114947687153037960

> <PUBCHEM_SHAPE_MULTIPOLES>
426.3
8.14
2.04
1.31
1.13
0.44
-0.27
-1.23
-0.1
-0.73
0.3
-0.31
-0.01
-0.79

> <PUBCHEM_SHAPE_SELFOVERLAP>
909.093

> <PUBCHEM_SHAPE_VOLUME>
236.3

> <PUBCHEM_COORDINATE_TYPE>
2
5
10

$$$$

