12321
  -OEChem-06261206483D

 11 10  0     0  0  0  0  0  0999 V2000
   -0.0024    0.7430    0.0000 S   0  0  0  0  0  0  0  0  0  0  0  0
    1.3076   -0.3809    0.0000 C   0  0  0  0  0  0  0  0  0  0  0  0
   -1.3060   -0.3799    0.0000 C   0  0  0  0  0  0  0  0  0  0  0  0
    2.5853    0.0096    0.0000 C   0  0  0  0  0  0  0  0  0  0  0  0
   -2.5846    0.0082    0.0000 C   0  0  0  0  0  0  0  0  0  0  0  0
    1.1068   -1.4480    0.0000 H   0  0  0  0  0  0  0  0  0  0  0  0
   -1.1050   -1.4470    0.0002 H   0  0  0  0  0  0  0  0  0  0  0  0
    3.3811   -0.7281    0.0000 H   0  0  0  0  0  0  0  0  0  0  0  0
    2.8729    1.0559    0.0000 H   0  0  0  0  0  0  0  0  0  0  0  0
   -3.3789   -0.7311    0.0000 H   0  0  0  0  0  0  0  0  0  0  0  0
   -2.8746    1.0538   -0.0001 H   0  0  0  0  0  0  0  0  0  0  0  0
  1  2  1  0  0  0  0
  1  3  1  0  0  0  0
  2  4  2  0  0  0  0
  2  6  1  0  0  0  0
  3  5  2  0  0  0  0
  3  7  1  0  0  0  0
  4  8  1  0  0  0  0
  4  9  1  0  0  0  0
  5 10  1  0  0  0  0
  5 11  1  0  0  0  0
M  END
> <PUBCHEM_COMPOUND_CID>
12321

> <PUBCHEM_CONFORMER_RMSD>
0.4

> <PUBCHEM_CONFORMER_DIVERSEORDER>
1
8
7
3
6
4
5
2
9

> <PUBCHEM_MMFF94_PARTIAL_CHARGES>
11
1 -0.2
10 0.15
11 0.15
2 -0.05
3 -0.05
4 -0.3
5 -0.3
6 0.15
7 0.15
8 0.15
9 0.15

> <PUBCHEM_EFFECTIVE_ROTOR_COUNT>
2

> <PUBCHEM_PHARMACOPHORE_FEATURES>
2
1 4 hydrophobe
1 5 hydrophobe

> <PUBCHEM_HEAVY_ATOM_COUNT>
5

> <PUBCHEM_ATOM_DEF_STEREO_COUNT>
0

> <PUBCHEM_ATOM_UDEF_STEREO_COUNT>
0

> <PUBCHEM_BOND_DEF_STEREO_COUNT>
0

> <PUBCHEM_BOND_UDEF_STEREO_COUNT>
0

> <PUBCHEM_ISOTOPIC_ATOM_COUNT>
0

> <PUBCHEM_COMPONENT_COUNT>
1

> <PUBCHEM_CACTVS_TAUTO_COUNT>
1

> <PUBCHEM_CONFORMER_ID>
0000302100000001

> <PUBCHEM_MMFF94_ENERGY>
4.7457

> <PUBCHEM_FEATURE_SELFOVERLAP>
10.149

> <PUBCHEM_SHAPE_FINGERPRINT>
14390081 3 10879996843565221839
16714656 1 9295286144678052603
20096714 4 9151166554329315990
29004967 10 9367348158216222684
5460574 1 18410856568271948166

> <PUBCHEM_SHAPE_MULTIPOLES>
106.75
3.87
0.81
0.63
0.01
0.09
0
-0.3
0
0
0
0
0.01
0

> <PUBCHEM_SHAPE_SELFOVERLAP>
175.442

> <PUBCHEM_SHAPE_VOLUME>
73.7

> <PUBCHEM_COORDINATE_TYPE>
2
5
10

$$$$

