151842
  -OEChem-07051212472D

 69 68  0     1  0  0  0  0  0999 V2000
    9.7942   -0.5950    0.0000 O   0  0  0  0  0  0  0  0  0  0  0  0
   21.0526    0.9050    0.0000 O   0  0  0  0  0  0  0  0  0  0  0  0
   20.1865   -0.5950    0.0000 O   0  0  0  0  0  0  0  0  0  0  0  0
    9.7942    0.4050    0.0000 C   0  0  3  0  0  0  0  0  0  0  0  0
   10.6603    0.9050    0.0000 C   0  0  0  0  0  0  0  0  0  0  0  0
   11.5263    0.4050    0.0000 C   0  0  0  0  0  0  0  0  0  0  0  0
    8.9282    0.9050    0.0000 C   0  0  0  0  0  0  0  0  0  0  0  0
   12.3923    0.9050    0.0000 C   0  0  0  0  0  0  0  0  0  0  0  0
    8.0622    0.4050    0.0000 C   0  0  0  0  0  0  0  0  0  0  0  0
   13.2583    0.4050    0.0000 C   0  0  0  0  0  0  0  0  0  0  0  0
    7.1962    0.9050    0.0000 C   0  0  0  0  0  0  0  0  0  0  0  0
   14.1244    0.9050    0.0000 C   0  0  0  0  0  0  0  0  0  0  0  0
   14.9904    0.4050    0.0000 C   0  0  0  0  0  0  0  0  0  0  0  0
    6.3301    0.4050    0.0000 C   0  0  0  0  0  0  0  0  0  0  0  0
   15.8564    0.9050    0.0000 C   0  0  0  0  0  0  0  0  0  0  0  0
    5.4641    0.9050    0.0000 C   0  0  0  0  0  0  0  0  0  0  0  0
   16.7224    0.4050    0.0000 C   0  0  0  0  0  0  0  0  0  0  0  0
    4.5981    0.4050    0.0000 C   0  0  0  0  0  0  0  0  0  0  0  0
   17.5885    0.9050    0.0000 C   0  0  0  0  0  0  0  0  0  0  0  0
    3.7320    0.9050    0.0000 C   0  0  0  0  0  0  0  0  0  0  0  0
   18.4545    0.4050    0.0000 C   0  0  0  0  0  0  0  0  0  0  0  0
    2.8660    0.4050    0.0000 C   0  0  0  0  0  0  0  0  0  0  0  0
   19.3205    0.9050    0.0000 C   0  0  0  0  0  0  0  0  0  0  0  0
    2.0000    0.9050    0.0000 C   0  0  0  0  0  0  0  0  0  0  0  0
   20.1865    0.4050    0.0000 C   0  0  0  0  0  0  0  0  0  0  0  0
    9.0581   -0.0200    0.0000 H   0  0  0  0  0  0  0  0  0  0  0  0
   11.0588    1.3800    0.0000 H   0  0  0  0  0  0  0  0  0  0  0  0
   10.2617    1.3800    0.0000 H   0  0  0  0  0  0  0  0  0  0  0  0
   11.1278   -0.0699    0.0000 H   0  0  0  0  0  0  0  0  0  0  0  0
   11.9248   -0.0699    0.0000 H   0  0  0  0  0  0  0  0  0  0  0  0
    9.3267    1.3800    0.0000 H   0  0  0  0  0  0  0  0  0  0  0  0
    8.5297    1.3800    0.0000 H   0  0  0  0  0  0  0  0  0  0  0  0
   12.7908    1.3800    0.0000 H   0  0  0  0  0  0  0  0  0  0  0  0
   11.9938    1.3800    0.0000 H   0  0  0  0  0  0  0  0  0  0  0  0
    7.6636   -0.0699    0.0000 H   0  0  0  0  0  0  0  0  0  0  0  0
    8.4607   -0.0699    0.0000 H   0  0  0  0  0  0  0  0  0  0  0  0
   12.8598   -0.0699    0.0000 H   0  0  0  0  0  0  0  0  0  0  0  0
   13.6569   -0.0699    0.0000 H   0  0  0  0  0  0  0  0  0  0  0  0
    7.5947    1.3800    0.0000 H   0  0  0  0  0  0  0  0  0  0  0  0
    6.7976    1.3800    0.0000 H   0  0  0  0  0  0  0  0  0  0  0  0
   14.5229    1.3800    0.0000 H   0  0  0  0  0  0  0  0  0  0  0  0
   13.7258    1.3800    0.0000 H   0  0  0  0  0  0  0  0  0  0  0  0
   14.5919   -0.0699    0.0000 H   0  0  0  0  0  0  0  0  0  0  0  0
   15.3889   -0.0699    0.0000 H   0  0  0  0  0  0  0  0  0  0  0  0
    5.9316   -0.0699    0.0000 H   0  0  0  0  0  0  0  0  0  0  0  0
    6.7287   -0.0699    0.0000 H   0  0  0  0  0  0  0  0  0  0  0  0
   16.2549    1.3800    0.0000 H   0  0  0  0  0  0  0  0  0  0  0  0
   15.4579    1.3800    0.0000 H   0  0  0  0  0  0  0  0  0  0  0  0
    5.8626    1.3800    0.0000 H   0  0  0  0  0  0  0  0  0  0  0  0
    5.0656    1.3800    0.0000 H   0  0  0  0  0  0  0  0  0  0  0  0
   16.3239   -0.0699    0.0000 H   0  0  0  0  0  0  0  0  0  0  0  0
   17.1210   -0.0699    0.0000 H   0  0  0  0  0  0  0  0  0  0  0  0
    4.1996   -0.0699    0.0000 H   0  0  0  0  0  0  0  0  0  0  0  0
    4.9966   -0.0699    0.0000 H   0  0  0  0  0  0  0  0  0  0  0  0
   17.9870    1.3800    0.0000 H   0  0  0  0  0  0  0  0  0  0  0  0
   17.1899    1.3800    0.0000 H   0  0  0  0  0  0  0  0  0  0  0  0
    4.1306    1.3800    0.0000 H   0  0  0  0  0  0  0  0  0  0  0  0
    3.3335    1.3800    0.0000 H   0  0  0  0  0  0  0  0  0  0  0  0
    9.2573   -0.9050    0.0000 H   0  0  0  0  0  0  0  0  0  0  0  0
   18.0560   -0.0699    0.0000 H   0  0  0  0  0  0  0  0  0  0  0  0
   18.8530   -0.0699    0.0000 H   0  0  0  0  0  0  0  0  0  0  0  0
    2.4675   -0.0699    0.0000 H   0  0  0  0  0  0  0  0  0  0  0  0
    3.2646   -0.0699    0.0000 H   0  0  0  0  0  0  0  0  0  0  0  0
   19.7190    1.3800    0.0000 H   0  0  0  0  0  0  0  0  0  0  0  0
   18.9220    1.3800    0.0000 H   0  0  0  0  0  0  0  0  0  0  0  0
    2.3100    1.4419    0.0000 H   0  0  0  0  0  0  0  0  0  0  0  0
    1.4631    1.2150    0.0000 H   0  0  0  0  0  0  0  0  0  0  0  0
    1.6900    0.3681    0.0000 H   0  0  0  0  0  0  0  0  0  0  0  0
   21.5895    0.5950    0.0000 H   0  0  0  0  0  0  0  0  0  0  0  0
  1  4  1  0  0  0  0
  1 59  1  0  0  0  0
  2 25  1  0  0  0  0
  2 69  1  0  0  0  0
  3 25  2  0  0  0  0
  4  5  1  0  0  0  0
  4  7  1  0  0  0  0
  4 26  1  0  0  0  0
  5  6  1  0  0  0  0
  5 27  1  0  0  0  0
  5 28  1  0  0  0  0
  6  8  1  0  0  0  0
  6 29  1  0  0  0  0
  6 30  1  0  0  0  0
  7  9  1  0  0  0  0
  7 31  1  0  0  0  0
  7 32  1  0  0  0  0
  8 10  1  0  0  0  0
  8 33  1  0  0  0  0
  8 34  1  0  0  0  0
  9 11  1  0  0  0  0
  9 35  1  0  0  0  0
  9 36  1  0  0  0  0
 10 12  1  0  0  0  0
 10 37  1  0  0  0  0
 10 38  1  0  0  0  0
 11 14  1  0  0  0  0
 11 39  1  0  0  0  0
 11 40  1  0  0  0  0
 12 13  1  0  0  0  0
 12 41  1  0  0  0  0
 12 42  1  0  0  0  0
 13 15  1  0  0  0  0
 13 43  1  0  0  0  0
 13 44  1  0  0  0  0
 14 16  1  0  0  0  0
 14 45  1  0  0  0  0
 14 46  1  0  0  0  0
 15 17  1  0  0  0  0
 15 47  1  0  0  0  0
 15 48  1  0  0  0  0
 16 18  1  0  0  0  0
 16 49  1  0  0  0  0
 16 50  1  0  0  0  0
 17 19  1  0  0  0  0
 17 51  1  0  0  0  0
 17 52  1  0  0  0  0
 18 20  1  0  0  0  0
 18 53  1  0  0  0  0
 18 54  1  0  0  0  0
 19 21  1  0  0  0  0
 19 55  1  0  0  0  0
 19 56  1  0  0  0  0
 20 22  1  0  0  0  0
 20 57  1  0  0  0  0
 20 58  1  0  0  0  0
 21 23  1  0  0  0  0
 21 60  1  0  0  0  0
 21 61  1  0  0  0  0
 22 24  1  0  0  0  0
 22 62  1  0  0  0  0
 22 63  1  0  0  0  0
 23 25  1  0  0  0  0
 23 64  1  0  0  0  0
 23 65  1  0  0  0  0
 24 66  1  0  0  0  0
 24 67  1  0  0  0  0
 24 68  1  0  0  0  0
M  END
> <PUBCHEM_COMPOUND_CID>
151842

> <PUBCHEM_COMPOUND_CANONICALIZED>
1

> <PUBCHEM_CACTVS_COMPLEXITY>
278

> <PUBCHEM_CACTVS_HBOND_ACCEPTOR>
3

> <PUBCHEM_CACTVS_HBOND_DONOR>
2

> <PUBCHEM_CACTVS_ROTATABLE_BOND>
20

> <PUBCHEM_CACTVS_SUBSKEYS>
AAADcfB4MAAAAAAAAAAAAAAAAAAAAAAAAAAAAAAAAAAAAAAAAAAAGgAACAAACBSggAICCAAAAgAIAACQCAAAAAAAAAAAAAEAAAAAEBIAAAAAQAAEAAAAAAGIyKCAAAAAAAAAAAAAAAAAAAAAAAAAAAAAAA==

> <PUBCHEM_IUPAC_OPENEYE_NAME>
13-hydroxydocosanoic acid

> <PUBCHEM_IUPAC_CAS_NAME>
13-hydroxydocosanoic acid

> <PUBCHEM_IUPAC_NAME>
13-hydroxydocosanoic acid

> <PUBCHEM_IUPAC_SYSTEMATIC_NAME>
13-oxidanyldocosanoic acid

> <PUBCHEM_IUPAC_TRADITIONAL_NAME>
13-hydroxybehenic acid

> <PUBCHEM_IUPAC_INCHI>
InChI=1S/C22H44O3/c1-2-3-4-5-9-12-15-18-21(23)19-16-13-10-7-6-8-11-14-17-20-22(24)25/h21,23H,2-20H2,1H3,(H,24,25)

> <PUBCHEM_IUPAC_INCHIKEY>
BYCZEMFWXYCUSJ-UHFFFAOYSA-N

> <PUBCHEM_XLOGP3>
7.7

> <PUBCHEM_EXACT_MASS>
356.329045

> <PUBCHEM_MOLECULAR_FORMULA>
C22H44O3

> <PUBCHEM_MOLECULAR_WEIGHT>
356.58296

> <PUBCHEM_OPENEYE_CAN_SMILES>
CCCCCCCCCC(CCCCCCCCCCCC(=O)O)O

> <PUBCHEM_OPENEYE_ISO_SMILES>
CCCCCCCCCC(CCCCCCCCCCCC(=O)O)O

> <PUBCHEM_CACTVS_TPSA>
57.5

> <PUBCHEM_MONOISOTOPIC_WEIGHT>
356.329045

> <PUBCHEM_TOTAL_CHARGE>
0

> <PUBCHEM_HEAVY_ATOM_COUNT>
25

> <PUBCHEM_ATOM_DEF_STEREO_COUNT>
0

> <PUBCHEM_ATOM_UDEF_STEREO_COUNT>
1

> <PUBCHEM_BOND_DEF_STEREO_COUNT>
0

> <PUBCHEM_BOND_UDEF_STEREO_COUNT>
0

> <PUBCHEM_ISOTOPIC_ATOM_COUNT>
0

> <PUBCHEM_COMPONENT_COUNT>
1

> <PUBCHEM_CACTVS_TAUTO_COUNT>
1

> <PUBCHEM_COORDINATE_TYPE>
1
5
255

> <PUBCHEM_BONDANNOTATIONS>
4  26  3

$$$$

