12798
  -OEChem-06261207233D

 25 25  0     0  0  0  0  0  0999 V2000
    1.5919    0.5360   -1.1164 O   0  0  0  0  0  0  0  0  0  0  0  0
   -0.9173   -0.3834    1.9579 O   0  0  0  0  0  0  0  0  0  0  0  0
    3.3210   -0.1410    0.1788 O   0  0  0  0  0  0  0  0  0  0  0  0
    1.2034   -0.1670    1.0856 N   0  0  0  0  0  0  0  0  0  0  0  0
   -0.7089    0.0660   -0.4169 C   0  0  0  0  0  0  0  0  0  0  0  0
   -0.7476   -1.2860   -1.1453 C   0  0  0  0  0  0  0  0  0  0  0  0
   -2.1193    0.6658   -0.3710 C   0  0  0  0  0  0  0  0  0  0  0  0
    0.2450    1.0417   -1.1056 C   0  0  0  0  0  0  0  0  0  0  0  0
   -0.1850   -0.1612    0.9953 C   0  0  0  0  0  0  0  0  0  0  0  0
   -1.6798   -2.2530   -0.4484 C   0  0  0  0  0  0  0  0  0  0  0  0
   -2.1195    2.0103    0.3258 C   0  0  0  0  0  0  0  0  0  0  0  0
    2.1161    0.0718    0.0602 C   0  0  0  0  0  0  0  0  0  0  0  0
    0.2490   -1.7415   -1.1881 H   0  0  0  0  0  0  0  0  0  0  0  0
   -1.0752   -1.1505   -2.1835 H   0  0  0  0  0  0  0  0  0  0  0  0
   -2.8130    0.0283    0.1873 H   0  0  0  0  0  0  0  0  0  0  0  0
   -2.5289    0.7789   -1.3821 H   0  0  0  0  0  0  0  0  0  0  0  0
   -0.0480    1.2048   -2.1487 H   0  0  0  0  0  0  0  0  0  0  0  0
    0.2975    2.0214   -0.6199 H   0  0  0  0  0  0  0  0  0  0  0  0
   -1.4114   -2.4415    0.5938 H   0  0  0  0  0  0  0  0  0  0  0  0
   -2.7284   -1.9493   -0.5012 H   0  0  0  0  0  0  0  0  0  0  0  0
   -1.6247   -3.2228   -0.9576 H   0  0  0  0  0  0  0  0  0  0  0  0
   -1.6182    2.0067    1.2969 H   0  0  0  0  0  0  0  0  0  0  0  0
   -1.6745    2.7937   -0.2951 H   0  0  0  0  0  0  0  0  0  0  0  0
   -3.1554    2.3217    0.5050 H   0  0  0  0  0  0  0  0  0  0  0  0
    1.5949   -0.4114    1.9910 H   0  0  0  0  0  0  0  0  0  0  0  0
  1  8  1  0  0  0  0
  1 12  1  0  0  0  0
  2  9  2  0  0  0  0
  3 12  2  0  0  0  0
  4  9  1  0  0  0  0
  4 12  1  0  0  0  0
  4 25  1  0  0  0  0
  5  6  1  0  0  0  0
  5  7  1  0  0  0  0
  5  8  1  0  0  0  0
  5  9  1  0  0  0  0
  6 10  1  0  0  0  0
  6 13  1  0  0  0  0
  6 14  1  0  0  0  0
  7 11  1  0  0  0  0
  7 15  1  0  0  0  0
  7 16  1  0  0  0  0
  8 17  1  0  0  0  0
  8 18  1  0  0  0  0
 10 19  1  0  0  0  0
 10 20  1  0  0  0  0
 10 21  1  0  0  0  0
 11 22  1  0  0  0  0
 11 23  1  0  0  0  0
 11 24  1  0  0  0  0
M  END
> <PUBCHEM_COMPOUND_CID>
12798

> <PUBCHEM_CONFORMER_RMSD>
0.6

> <PUBCHEM_CONFORMER_DIVERSEORDER>
1
3
6
4
5
2

> <PUBCHEM_MMFF94_PARTIAL_CHARGES>
9
1 -0.43
12 0.78
2 -0.57
25 0.37
3 -0.57
4 -0.49
5 0.06
8 0.28
9 0.57

> <PUBCHEM_EFFECTIVE_ROTOR_COUNT>
2.8

> <PUBCHEM_PHARMACOPHORE_FEATURES>
6
1 10 hydrophobe
1 11 hydrophobe
1 2 acceptor
1 3 acceptor
1 4 donor
6 1 4 5 8 9 12 rings

> <PUBCHEM_HEAVY_ATOM_COUNT>
12

> <PUBCHEM_ATOM_DEF_STEREO_COUNT>
0

> <PUBCHEM_ATOM_UDEF_STEREO_COUNT>
0

> <PUBCHEM_BOND_DEF_STEREO_COUNT>
0

> <PUBCHEM_BOND_UDEF_STEREO_COUNT>
0

> <PUBCHEM_ISOTOPIC_ATOM_COUNT>
0

> <PUBCHEM_COMPONENT_COUNT>
1

> <PUBCHEM_CACTVS_TAUTO_COUNT>
3

> <PUBCHEM_CONFORMER_ID>
000031FE00000001

> <PUBCHEM_MMFF94_ENERGY>
30.9837

> <PUBCHEM_FEATURE_SELFOVERLAP>
30.446

> <PUBCHEM_SHAPE_FINGERPRINT>
10702982 57 18130516322195267031
12138202 97 17458636630533676452
12423570 1 7836217438603720983
12716758 59 18114191855687864538
12725867 57 17322701581783749543
13024252 1 16343706546911531236
137420 1 15365935063035066207
14713566 1 18270417034936092373
14817 1 17056353930808261459
14993402 34 18271260403357101829
16945 1 18336840739867153469
19837323 101 18261395593591052521
20653085 51 18335131042257058544
21040471 1 18261957465386227093
23402539 116 18114479932303947397
2748010 2 16269134511878751716
305870 269 17902790000656381881
369184 2 18040439884330234444
430814 3 18126860514699693033
5084963 1 17989209273858249581
535629 181 18130514032661141886

> <PUBCHEM_SHAPE_MULTIPOLES>
224.37
3.21
1.75
1.37
2.25
0.51
-0.4
-0.46
0
-1.67
0.28
-0.03
0.01
-0.23

> <PUBCHEM_SHAPE_SELFOVERLAP>
454.299

> <PUBCHEM_SHAPE_VOLUME>
129.5

> <PUBCHEM_COORDINATE_TYPE>
2
5
10

$$$$

