440198
  -OEChem-07051212493D

 45 45  0     1  0  0  0  0  0999 V2000
   -1.4587    0.4628    0.3519 O   0  0  0  0  0  0  0  0  0  0  0  0
   -0.8111   -3.6042   -0.0029 O   0  0  0  0  0  0  0  0  0  0  0  0
    2.1327    0.6647   -0.0110 O   0  0  0  0  0  0  0  0  0  0  0  0
   -2.7796    0.0098   -1.5685 O   0  0  0  0  0  0  0  0  0  0  0  0
   -0.6889    2.8631    0.7658 O   0  0  0  0  0  0  0  0  0  0  0  0
   -4.8606   -0.4337    0.0889 O   0  0  0  0  0  0  0  0  0  0  0  0
    0.1987    4.2598   -1.4363 O   0  0  0  0  0  0  0  0  0  0  0  0
   -3.7515    1.0942    1.3662 O   0  0  0  0  0  0  0  0  0  0  0  0
    2.0076   -3.3925    0.9714 O   0  0  0  0  0  0  0  0  0  0  0  0
    3.1095    2.2355    1.3730 O   0  0  0  0  0  0  0  0  0  0  0  0
    1.3863   -1.7486   -0.5551 N   0  0  0  0  0  0  0  0  0  0  0  0
   -0.1811    0.1129   -0.1938 C   0  0  2  0  0  0  0  0  0  0  0  0
    0.1343   -1.3703    0.0612 C   0  0  1  0  0  0  0  0  0  0  0  0
   -0.9991   -2.2654   -0.4562 C   0  0  2  0  0  0  0  0  0  0  0  0
   -2.3520   -1.7777    0.0584 C   0  0  0  0  0  0  0  0  0  0  0  0
    0.8412    1.0381    0.4617 C   0  0  2  0  0  0  0  0  0  0  0  0
   -2.5362   -0.2844   -0.2007 C   0  0  1  0  0  0  0  0  0  0  0  0
    0.5704    2.5205    0.1758 C   0  0  1  0  0  0  0  0  0  0  0  0
   -3.7509    0.2185    0.5139 C   0  0  0  0  0  0  0  0  0  0  0  0
    0.4822    2.8689   -1.3083 C   0  0  0  0  0  0  0  0  0  0  0  0
    2.2153   -2.7309   -0.0424 C   0  0  0  0  0  0  0  0  0  0  0  0
    3.1826    1.3489    0.5329 C   0  0  0  0  0  0  0  0  0  0  0  0
    3.4399   -2.9425   -0.8917 C   0  0  0  0  0  0  0  0  0  0  0  0
    4.4692    0.8527   -0.0540 C   0  0  0  0  0  0  0  0  0  0  0  0
   -0.1908    0.2721   -1.2792 H   0  0  0  0  0  0  0  0  0  0  0  0
    0.2309   -1.5366    1.1430 H   0  0  0  0  0  0  0  0  0  0  0  0
   -1.0017   -2.2863   -1.5526 H   0  0  0  0  0  0  0  0  0  0  0  0
   -2.4194   -1.9841    1.1356 H   0  0  0  0  0  0  0  0  0  0  0  0
   -3.1443   -2.3692   -0.4173 H   0  0  0  0  0  0  0  0  0  0  0  0
    0.7955    0.8785    1.5487 H   0  0  0  0  0  0  0  0  0  0  0  0
    1.2864    3.1978    0.6414 H   0  0  0  0  0  0  0  0  0  0  0  0
    1.6272   -1.3139   -1.4413 H   0  0  0  0  0  0  0  0  0  0  0  0
   -0.7804   -3.5934    0.9689 H   0  0  0  0  0  0  0  0  0  0  0  0
    1.4211    2.6526   -1.8263 H   0  0  0  0  0  0  0  0  0  0  0  0
   -0.3407    2.3466   -1.8034 H   0  0  0  0  0  0  0  0  0  0  0  0
   -3.0600    0.9386   -1.6340 H   0  0  0  0  0  0  0  0  0  0  0  0
   -0.8594    3.8007    0.5713 H   0  0  0  0  0  0  0  0  0  0  0  0
    4.2740   -3.2472   -0.2535 H   0  0  0  0  0  0  0  0  0  0  0  0
    3.2356   -3.7283   -1.6239 H   0  0  0  0  0  0  0  0  0  0  0  0
    3.7261   -2.0271   -1.4171 H   0  0  0  0  0  0  0  0  0  0  0  0
   -5.6687   -0.1191    0.5475 H   0  0  0  0  0  0  0  0  0  0  0  0
    0.1546    4.4550   -2.3880 H   0  0  0  0  0  0  0  0  0  0  0  0
    4.4162    0.8799   -1.1455 H   0  0  0  0  0  0  0  0  0  0  0  0
    4.6664   -0.1629    0.2968 H   0  0  0  0  0  0  0  0  0  0  0  0
    5.2879    1.5039    0.2651 H   0  0  0  0  0  0  0  0  0  0  0  0
  1 12  1  0  0  0  0
  1 17  1  0  0  0  0
  2 14  1  0  0  0  0
  2 33  1  0  0  0  0
  3 16  1  0  0  0  0
  3 22  1  0  0  0  0
  4 17  1  0  0  0  0
  4 36  1  0  0  0  0
  5 18  1  0  0  0  0
  5 37  1  0  0  0  0
  6 19  1  0  0  0  0
  6 41  1  0  0  0  0
  7 20  1  0  0  0  0
  7 42  1  0  0  0  0
  8 19  2  0  0  0  0
  9 21  2  0  0  0  0
 10 22  2  0  0  0  0
 11 13  1  0  0  0  0
 11 21  1  0  0  0  0
 11 32  1  0  0  0  0
 12 13  1  0  0  0  0
 12 16  1  0  0  0  0
 12 25  1  0  0  0  0
 13 14  1  0  0  0  0
 13 26  1  0  0  0  0
 14 15  1  0  0  0  0
 14 27  1  0  0  0  0
 15 17  1  0  0  0  0
 15 28  1  0  0  0  0
 15 29  1  0  0  0  0
 16 18  1  0  0  0  0
 16 30  1  0  0  0  0
 17 19  1  0  0  0  0
 18 20  1  0  0  0  0
 18 31  1  0  0  0  0
 20 34  1  0  0  0  0
 20 35  1  0  0  0  0
 21 23  1  0  0  0  0
 22 24  1  0  0  0  0
 23 38  1  0  0  0  0
 23 39  1  0  0  0  0
 23 40  1  0  0  0  0
 24 43  1  0  0  0  0
 24 44  1  0  0  0  0
 24 45  1  0  0  0  0
M  END
> <PUBCHEM_COMPOUND_CID>
440198

> <PUBCHEM_CONFORMER_RMSD>
1

> <PUBCHEM_CONFORMER_DIVERSEORDER>
1
38
29
30
34
40
17
24
6
14
25
16
5
22
26
35
33
27
28
43
11
9
21
13
23
2
42
31
15
32
36
41
39
7
12
20
4
18
10
37
3
8
19

> <PUBCHEM_MMFF94_PARTIAL_CHARGES>
29
1 -0.56
10 -0.57
11 -0.73
12 0.28
13 0.3
14 0.28
16 0.28
17 0.62
18 0.28
19 0.66
2 -0.68
20 0.28
21 0.57
22 0.66
23 0.06
24 0.06
3 -0.43
32 0.37
33 0.4
36 0.4
37 0.4
4 -0.68
41 0.5
42 0.4
5 -0.68
6 -0.65
7 -0.68
8 -0.57
9 -0.57

> <PUBCHEM_EFFECTIVE_ROTOR_COUNT>
9.2

> <PUBCHEM_PHARMACOPHORE_FEATURES>
16
1 1 acceptor
1 10 acceptor
1 11 donor
1 2 acceptor
1 2 donor
1 4 acceptor
1 4 donor
1 5 acceptor
1 5 donor
1 6 acceptor
1 7 acceptor
1 7 donor
1 8 acceptor
1 9 acceptor
3 6 8 19 anion
6 1 12 13 14 15 17 rings

> <PUBCHEM_HEAVY_ATOM_COUNT>
24

> <PUBCHEM_ATOM_DEF_STEREO_COUNT>
4

> <PUBCHEM_ATOM_UDEF_STEREO_COUNT>
2

> <PUBCHEM_BOND_DEF_STEREO_COUNT>
0

> <PUBCHEM_BOND_UDEF_STEREO_COUNT>
0

> <PUBCHEM_ISOTOPIC_ATOM_COUNT>
0

> <PUBCHEM_COMPONENT_COUNT>
1

> <PUBCHEM_CACTVS_TAUTO_COUNT>
2

> <PUBCHEM_CONFORMER_ID>
0006B78600000001

> <PUBCHEM_MMFF94_ENERGY>
52.7381

> <PUBCHEM_FEATURE_SELFOVERLAP>
81.331

> <PUBCHEM_SHAPE_FINGERPRINT>
10382601 240 18409721893936824330
10967382 1 18409167701263671490
10989021 7 18190460652179913426
11578080 2 17558838527192995694
11680986 33 18410565163526612827
12403259 226 18122061167777219774
13140716 1 18049161073044004033
14178342 30 18264212400436367706
14790565 3 18047736367914696200
14955137 171 18198326390945798488
16945 1 18339646629095772341
17980427 26 17024620831098330752
19591789 44 18192705868082793584
20691752 17 18341890852465893234
20739085 24 18122598769139375129
20905425 154 18335135457894635990
21421861 104 18199468951452503122
22182313 1 18199479920466920757
2334 1 18337675312147589629
23419403 2 17914073128687612382
23559900 14 18115585921328247224
23566358 2 18118683455820221086
23598291 2 17968390021439687959
2748010 2 18269284623758836085
350125 39 18193831781138464008
352729 6 17690283707390046967
6992083 37 18054519005943611861
7364860 26 18333449863445930950

> <PUBCHEM_SHAPE_MULTIPOLES>
430.23
6.52
4.79
1.09
1.88
0
0.15
-0.51
-0.98
-3.05
0.84
0.03
0.6
0.23

> <PUBCHEM_SHAPE_SELFOVERLAP>
877.939

> <PUBCHEM_SHAPE_VOLUME>
244.3

> <PUBCHEM_COORDINATE_TYPE>
2
5
10

$$$$

