189811
  -OEChem-07051213073D

 41 41  0     1  0  0  0  0  0999 V2000
   -2.8425    3.1677   -1.3055 O   0  0  0  0  0  0  0  0  0  0  0  0
   -1.5709    2.3097    0.3604 O   0  0  0  0  0  0  0  0  0  0  0  0
   -1.1152   -3.0830    1.1982 O   0  0  0  0  0  0  0  0  0  0  0  0
    0.2986   -3.4953   -0.5261 O   0  0  0  0  0  0  0  0  0  0  0  0
    3.5764    1.2963    1.5192 O   0  0  0  0  0  0  0  0  0  0  0  0
    5.8774   -0.1688   -0.8290 O   0  0  0  0  0  0  0  0  0  0  0  0
    5.8420    1.8637    0.1798 O   0  0  0  0  0  0  0  0  0  0  0  0
   -3.2547   -0.0796    0.3965 N   0  0  1  0  0  0  0  0  0  0  0  0
    0.6681   -0.7811   -0.8218 N   0  0  0  0  0  0  0  0  0  0  0  0
   -3.6962    1.1995   -0.2114 C   0  0  1  0  0  0  0  0  0  0  0  0
   -4.7397    1.3191    0.9083 C   0  0  0  0  0  0  0  0  0  0  0  0
   -4.5996   -0.2063    1.0092 C   0  0  0  0  0  0  0  0  0  0  0  0
   -3.1146   -1.1251   -0.6116 C   0  0  0  0  0  0  0  0  0  0  0  0
   -1.7271   -1.0570   -1.2554 C   0  0  0  0  0  0  0  0  0  0  0  0
   -0.5934   -1.2453   -0.2393 C   0  0  1  0  0  0  0  0  0  0  0  0
   -2.5878    2.2551   -0.3271 C   0  0  0  0  0  0  0  0  0  0  0  0
    1.6410   -0.4996    0.2209 C   0  0  0  0  0  0  0  0  0  0  0  0
   -0.3988   -2.7111    0.1052 C   0  0  0  0  0  0  0  0  0  0  0  0
    2.9551   -0.0135   -0.4002 C   0  0  0  0  0  0  0  0  0  0  0  0
    4.0444    0.2912    0.6327 C   0  0  1  0  0  0  0  0  0  0  0  0
    5.3375    0.7634   -0.0030 C   0  0  0  0  0  0  0  0  0  0  0  0
   -4.2022    1.0817   -1.1844 H   0  0  0  0  0  0  0  0  0  0  0  0
   -5.7246    1.6911    0.6156 H   0  0  0  0  0  0  0  0  0  0  0  0
   -4.3959    1.8614    1.7969 H   0  0  0  0  0  0  0  0  0  0  0  0
   -5.3529   -0.7494    0.4231 H   0  0  0  0  0  0  0  0  0  0  0  0
   -4.5991   -0.6047    2.0283 H   0  0  0  0  0  0  0  0  0  0  0  0
   -3.2347   -2.1076   -0.1386 H   0  0  0  0  0  0  0  0  0  0  0  0
   -3.8787   -1.0717   -1.3988 H   0  0  0  0  0  0  0  0  0  0  0  0
   -1.6280   -0.0933   -1.7717 H   0  0  0  0  0  0  0  0  0  0  0  0
   -1.6663   -1.8292   -2.0337 H   0  0  0  0  0  0  0  0  0  0  0  0
   -0.7958   -0.6806    0.6776 H   0  0  0  0  0  0  0  0  0  0  0  0
    0.5091    0.0724   -1.3571 H   0  0  0  0  0  0  0  0  0  0  0  0
    1.2564    0.2715    0.8993 H   0  0  0  0  0  0  0  0  0  0  0  0
    1.8488   -1.3961    0.8166 H   0  0  0  0  0  0  0  0  0  0  0  0
    2.7556    0.8968   -0.9821 H   0  0  0  0  0  0  0  0  0  0  0  0
    3.3228   -0.7654   -1.1102 H   0  0  0  0  0  0  0  0  0  0  0  0
   -2.1293    3.8378   -1.3733 H   0  0  0  0  0  0  0  0  0  0  0  0
    4.2648   -0.6010    1.2299 H   0  0  0  0  0  0  0  0  0  0  0  0
   -0.9949   -4.0336    1.4078 H   0  0  0  0  0  0  0  0  0  0  0  0
    4.2299    1.3841    2.2342 H   0  0  0  0  0  0  0  0  0  0  0  0
    6.7078    0.1477   -1.2447 H   0  0  0  0  0  0  0  0  0  0  0  0
  1 16  1  0  0  0  0
  1 37  1  0  0  0  0
  2 16  2  0  0  0  0
  3 18  1  0  0  0  0
  3 39  1  0  0  0  0
  4 18  2  0  0  0  0
  5 20  1  0  0  0  0
  5 40  1  0  0  0  0
  6 21  1  0  0  0  0
  6 41  1  0  0  0  0
  7 21  2  0  0  0  0
  8 10  1  0  0  0  0
  8 12  1  0  0  0  0
  8 13  1  0  0  0  0
  9 15  1  0  0  0  0
  9 17  1  0  0  0  0
  9 32  1  0  0  0  0
 10 11  1  0  0  0  0
 10 16  1  0  0  0  0
 10 22  1  0  0  0  0
 11 12  1  0  0  0  0
 11 23  1  0  0  0  0
 11 24  1  0  0  0  0
 12 25  1  0  0  0  0
 12 26  1  0  0  0  0
 13 14  1  0  0  0  0
 13 27  1  0  0  0  0
 13 28  1  0  0  0  0
 14 15  1  0  0  0  0
 14 29  1  0  0  0  0
 14 30  1  0  0  0  0
 15 18  1  0  0  0  0
 15 31  1  0  0  0  0
 17 19  1  0  0  0  0
 17 33  1  0  0  0  0
 17 34  1  0  0  0  0
 19 20  1  0  0  0  0
 19 35  1  0  0  0  0
 19 36  1  0  0  0  0
 20 21  1  0  0  0  0
 20 38  1  0  0  0  0
M  END
> <PUBCHEM_COMPOUND_CID>
189811

> <PUBCHEM_CONFORMER_RMSD>
1

> <PUBCHEM_CONFORMER_DIVERSEORDER>
9
14
51
45
26
71
38
46
29
79
15
5
58
12
33
47
8
80
82
59
3
41
54
43
61
53
1
56
24
78
31
30
74
11
19
66
27
76
60
18
83
50
7
20
68
40
13
17
44
65
2
84
16
23
73
62
70
42
25
72
81
63
55
69
39
10
34
4
48
52
77
32
6
57
37
64
21
36
75
22
28
49
35
67

> <PUBCHEM_MMFF94_PARTIAL_CHARGES>
23
1 -0.65
10 0.26
12 0.21
13 0.27
15 0.33
16 0.67
17 0.27
18 0.66
2 -0.57
20 0.34
21 0.66
3 -0.65
32 0.36
37 0.5
39 0.5
4 -0.57
40 0.4
41 0.5
5 -0.68
6 -0.65
7 -0.57
8 -0.69
9 -0.9

> <PUBCHEM_EFFECTIVE_ROTOR_COUNT>
10.8

> <PUBCHEM_PHARMACOPHORE_FEATURES>
15
1 1 acceptor
1 2 acceptor
1 3 acceptor
1 4 acceptor
1 5 acceptor
1 5 donor
1 6 acceptor
1 7 acceptor
1 8 cation
1 9 cation
1 9 donor
3 1 2 16 anion
3 3 4 18 anion
3 6 7 21 anion
4 8 10 11 12 rings

> <PUBCHEM_HEAVY_ATOM_COUNT>
21

> <PUBCHEM_ATOM_DEF_STEREO_COUNT>
3

> <PUBCHEM_ATOM_UDEF_STEREO_COUNT>
0

> <PUBCHEM_BOND_DEF_STEREO_COUNT>
0

> <PUBCHEM_BOND_UDEF_STEREO_COUNT>
0

> <PUBCHEM_ISOTOPIC_ATOM_COUNT>
0

> <PUBCHEM_COMPONENT_COUNT>
1

> <PUBCHEM_CACTVS_TAUTO_COUNT>
1

> <PUBCHEM_CONFORMER_ID>
0002E57300000009

> <PUBCHEM_MMFF94_ENERGY>
26.9535

> <PUBCHEM_FEATURE_SELFOVERLAP>
76.301

> <PUBCHEM_SHAPE_FINGERPRINT>
11595378 159 17917440851563153392
12596602 18 17060338504944156408
12892183 10 17775285005786766075
13402501 40 18260265226754899952
13544653 18 12175612992920814879
13583140 156 16415212143210141615
14251757 17 17677321861526384238
14251757 5 18337669707637696952
14251764 75 17972592462297882945
15575132 122 18273500086878641141
19784866 170 18411695526209937281
20645477 56 18260828189577171430
20645477 70 16950550092142772558
21033648 29 18335712654007295064
23559900 14 17691693702847112211
7808743 9 18339362955549421880
9981440 41 18201995577644165203

> <PUBCHEM_SHAPE_MULTIPOLES>
381.12
11.82
3.34
1.11
15.41
1.16
-0.05
-7.83
-1.52
-1.99
0.21
-0.35
-0.07
0.73

> <PUBCHEM_SHAPE_SELFOVERLAP>
756.302

> <PUBCHEM_SHAPE_VOLUME>
226.2

> <PUBCHEM_COORDINATE_TYPE>
2
5
10

$$$$

