11296
  -OEChem-06261205302D

 24 25  0     0  0  0  0  0  0999 V2000
    4.9413    1.6798    0.0000 O   0  0  0  0  0  0  0  0  0  0  0  0
    6.3830    1.6159    0.0000 O   0  0  0  0  0  0  0  0  0  0  0  0
    3.1204    1.2641    0.0000 O   0  0  0  0  0  0  0  0  0  0  0  0
    2.3100   -0.4187    0.0000 O   0  0  0  0  0  0  0  0  0  0  0  0
    3.1204   -2.1015    0.0000 O   0  0  0  0  0  0  0  0  0  0  0  0
    5.5006    0.0813    0.0000 C   0  0  0  0  0  0  0  0  0  0  0  0
    5.5006   -0.9187    0.0000 C   0  0  0  0  0  0  0  0  0  0  0  0
    4.7188    0.7048    0.0000 C   0  0  0  0  0  0  0  0  0  0  0  0
    6.3946    0.6160    0.0000 C   0  0  0  0  0  0  0  0  0  0  0  0
    4.7188   -1.5422    0.0000 C   0  0  0  0  0  0  0  0  0  0  0  0
    6.3946   -1.4533    0.0000 C   0  0  0  0  0  0  0  0  0  0  0  0
    3.7439    0.4823    0.0000 C   0  0  0  0  0  0  0  0  0  0  0  0
    7.3006    0.1022    0.0000 C   0  0  0  0  0  0  0  0  0  0  0  0
    3.3100   -0.4187    0.0000 C   0  0  0  0  0  0  0  0  0  0  0  0
    3.7439   -1.3196    0.0000 C   0  0  0  0  0  0  0  0  0  0  0  0
    7.3006   -0.9395    0.0000 C   0  0  0  0  0  0  0  0  0  0  0  0
    4.8568   -2.1466    0.0000 H   0  0  0  0  0  0  0  0  0  0  0  0
    6.3874   -2.0733    0.0000 H   0  0  0  0  0  0  0  0  0  0  0  0
    7.8364    0.4142    0.0000 H   0  0  0  0  0  0  0  0  0  0  0  0
    7.8364   -1.2515    0.0000 H   0  0  0  0  0  0  0  0  0  0  0  0
    4.4868    2.1015    0.0000 H   0  0  0  0  0  0  0  0  0  0  0  0
    6.9163    1.9321    0.0000 H   0  0  0  0  0  0  0  0  0  0  0  0
    2.5073    1.1717    0.0000 H   0  0  0  0  0  0  0  0  0  0  0  0
    2.0000   -0.9556    0.0000 H   0  0  0  0  0  0  0  0  0  0  0  0
  1  8  1  0  0  0  0
  1 21  1  0  0  0  0
  2  9  1  0  0  0  0
  2 22  1  0  0  0  0
  3 12  1  0  0  0  0
  3 23  1  0  0  0  0
  4 14  1  0  0  0  0
  4 24  1  0  0  0  0
  5 15  2  0  0  0  0
  6  7  1  0  0  0  0
  6  8  2  0  0  0  0
  6  9  1  0  0  0  0
  7 10  2  0  0  0  0
  7 11  1  0  0  0  0
  8 12  1  0  0  0  0
  9 13  2  0  0  0  0
 10 15  1  0  0  0  0
 10 17  1  0  0  0  0
 11 16  2  0  0  0  0
 11 18  1  0  0  0  0
 12 14  2  0  0  0  0
 13 16  1  0  0  0  0
 13 19  1  0  0  0  0
 14 15  1  0  0  0  0
 16 20  1  0  0  0  0
M  END
> <PUBCHEM_COMPOUND_CID>
11296

> <PUBCHEM_COMPOUND_CANONICALIZED>
1

> <PUBCHEM_CACTVS_COMPLEXITY>
529

> <PUBCHEM_CACTVS_HBOND_ACCEPTOR>
5

> <PUBCHEM_CACTVS_HBOND_DONOR>
4

> <PUBCHEM_CACTVS_ROTATABLE_BOND>
0

> <PUBCHEM_CACTVS_SUBSKEYS>
AAADccBwOAAAAAAAAAAAAAAAAAAAAAAAAAAgAAAABAAAAAAAAAAAGgAACAAADASAgAAAAAAAAgCIAqBSAAIAAAAgIAAICABAAEgJBAAAAQAAUAAEwAAJkQIAAAAAAAAAAAAAAAAAAAAAAAAAAAAAAAAAAA==

> <PUBCHEM_IUPAC_OPENEYE_NAME>
4,5,6,7-tetrahydroxybenzo[7]annulen-8-one

> <PUBCHEM_IUPAC_CAS_NAME>
4,5,6,7-tetrahydroxy-8-benzo[7]annulenone

> <PUBCHEM_IUPAC_NAME>
4,5,6,7-tetrahydroxybenzo[7]annulen-8-one

> <PUBCHEM_IUPAC_SYSTEMATIC_NAME>
4,5,6,7-tetrakis(oxidanyl)benzo[7]annulen-8-one

> <PUBCHEM_IUPAC_TRADITIONAL_NAME>
4,5,6,7-tetrahydroxybenzocyclohepten-8-one

> <PUBCHEM_IUPAC_INCHI>
InChI=1S/C11H8O5/c12-6-3-1-2-5-4-7(13)9(14)11(16)10(15)8(5)6/h1-4,12H,(H3,13,14,15,16)

> <PUBCHEM_IUPAC_INCHIKEY>
HKVDYGUMKIARNU-UHFFFAOYSA-N

> <PUBCHEM_XLOGP3_AA>
0.5

> <PUBCHEM_EXACT_MASS>
220.037173

> <PUBCHEM_MOLECULAR_FORMULA>
C11H8O5

> <PUBCHEM_MOLECULAR_WEIGHT>
220.17822

> <PUBCHEM_OPENEYE_CAN_SMILES>
C1=CC2=CC(=O)C(=C(C(=C2C(=C1)O)O)O)O

> <PUBCHEM_OPENEYE_ISO_SMILES>
C1=CC2=CC(=O)C(=C(C(=C2C(=C1)O)O)O)O

> <PUBCHEM_CACTVS_TPSA>
98

> <PUBCHEM_MONOISOTOPIC_WEIGHT>
220.037173

> <PUBCHEM_TOTAL_CHARGE>
0

> <PUBCHEM_HEAVY_ATOM_COUNT>
16

> <PUBCHEM_ATOM_DEF_STEREO_COUNT>
0

> <PUBCHEM_ATOM_UDEF_STEREO_COUNT>
0

> <PUBCHEM_BOND_DEF_STEREO_COUNT>
0

> <PUBCHEM_BOND_UDEF_STEREO_COUNT>
0

> <PUBCHEM_ISOTOPIC_ATOM_COUNT>
0

> <PUBCHEM_COMPONENT_COUNT>
1

> <PUBCHEM_CACTVS_TAUTO_COUNT>
141

> <PUBCHEM_COORDINATE_TYPE>
1
5
255

> <PUBCHEM_BONDANNOTATIONS>
10  15  8
11  16  8
12  14  8
13  16  8
14  15  8
6  7  8
6  8  8
6  9  8
7  10  8
7  11  8
8  12  8
9  13  8

$$$$

