443684
  -OEChem-07051213023D

 26 29  0     0  0  0  0  0  0999 V2000
    3.3159    1.6871    0.0000 O   0  0  0  0  0  0  0  0  0  0  0  0
    4.0298   -0.6131   -0.0002 O   0  0  0  0  0  0  0  0  0  0  0  0
   -1.8936   -1.9918    0.0000 N   0  0  0  0  0  0  0  0  0  0  0  0
   -0.0588    0.1451    0.0002 C   0  0  0  0  0  0  0  0  0  0  0  0
    0.3954   -1.2020    0.0002 C   0  0  0  0  0  0  0  0  0  0  0  0
   -1.4721    0.3903    0.0001 C   0  0  0  0  0  0  0  0  0  0  0  0
    2.2683    0.8180    0.0001 C   0  0  0  0  0  0  0  0  0  0  0  0
    0.9297    1.1634    0.0002 C   0  0  0  0  0  0  0  0  0  0  0  0
    2.6754   -0.4894   -0.0001 C   0  0  0  0  0  0  0  0  0  0  0  0
    1.7659   -1.5218   -0.0001 C   0  0  0  0  0  0  0  0  0  0  0  0
   -2.3398   -0.7280    0.0001 C   0  0  0  0  0  0  0  0  0  0  0  0
   -0.5619   -2.2044    0.0001 C   0  0  0  0  0  0  0  0  0  0  0  0
   -2.0572    1.6815    0.0001 C   0  0  0  0  0  0  0  0  0  0  0  0
    4.4308    0.7723   -0.0002 C   0  0  0  0  0  0  0  0  0  0  0  0
   -3.7165   -0.5233   -0.0002 C   0  0  0  0  0  0  0  0  0  0  0  0
   -3.4396    1.8613   -0.0001 C   0  0  0  0  0  0  0  0  0  0  0  0
   -4.2716    0.7549   -0.0002 C   0  0  0  0  0  0  0  0  0  0  0  0
    0.6676    2.2163    0.0002 H   0  0  0  0  0  0  0  0  0  0  0  0
    2.1063   -2.5531   -0.0002 H   0  0  0  0  0  0  0  0  0  0  0  0
   -0.2822   -3.2547   -0.0001 H   0  0  0  0  0  0  0  0  0  0  0  0
   -1.4424    2.5777    0.0001 H   0  0  0  0  0  0  0  0  0  0  0  0
    5.0407    0.9614    0.8907 H   0  0  0  0  0  0  0  0  0  0  0  0
    5.0404    0.9616   -0.8912 H   0  0  0  0  0  0  0  0  0  0  0  0
   -4.3903   -1.3790   -0.0003 H   0  0  0  0  0  0  0  0  0  0  0  0
   -3.8594    2.8626   -0.0002 H   0  0  0  0  0  0  0  0  0  0  0  0
   -5.3500    0.8805   -0.0003 H   0  0  0  0  0  0  0  0  0  0  0  0
  1  7  1  0  0  0  0
  1 14  1  0  0  0  0
  2  9  1  0  0  0  0
  2 14  1  0  0  0  0
  3 11  1  0  0  0  0
  3 12  2  0  0  0  0
  4  5  1  0  0  0  0
  4  6  1  0  0  0  0
  4  8  2  0  0  0  0
  5 10  2  0  0  0  0
  5 12  1  0  0  0  0
  6 11  1  0  0  0  0
  6 13  2  0  0  0  0
  7  8  1  0  0  0  0
  7  9  2  0  0  0  0
  8 18  1  0  0  0  0
  9 10  1  0  0  0  0
 10 19  1  0  0  0  0
 11 15  2  0  0  0  0
 12 20  1  0  0  0  0
 13 16  1  0  0  0  0
 13 21  1  0  0  0  0
 14 22  1  0  0  0  0
 14 23  1  0  0  0  0
 15 17  1  0  0  0  0
 15 24  1  0  0  0  0
 16 17  2  0  0  0  0
 16 25  1  0  0  0  0
 17 26  1  0  0  0  0
M  END
> <PUBCHEM_COMPOUND_CID>
443684

> <PUBCHEM_CONFORMER_RMSD>
0.6

> <PUBCHEM_CONFORMER_DIVERSEORDER>
1

> <PUBCHEM_MMFF94_PARTIAL_CHARGES>
21
1 -0.36
10 -0.15
11 0.31
12 0.16
13 -0.15
14 0.56
15 -0.15
16 -0.15
17 -0.15
18 0.15
19 0.15
2 -0.36
20 0.15
21 0.15
24 0.15
25 0.15
26 0.15
3 -0.62
7 0.08
8 -0.15
9 0.08

> <PUBCHEM_EFFECTIVE_ROTOR_COUNT>
0.6

> <PUBCHEM_PHARMACOPHORE_FEATURES>
7
1 1 acceptor
1 2 acceptor
1 3 acceptor
5 1 2 7 9 14 rings
6 3 4 5 6 11 12 rings
6 4 5 7 8 9 10 rings
6 6 11 13 15 16 17 rings

> <PUBCHEM_HEAVY_ATOM_COUNT>
17

> <PUBCHEM_ATOM_DEF_STEREO_COUNT>
0

> <PUBCHEM_ATOM_UDEF_STEREO_COUNT>
0

> <PUBCHEM_BOND_DEF_STEREO_COUNT>
0

> <PUBCHEM_BOND_UDEF_STEREO_COUNT>
0

> <PUBCHEM_ISOTOPIC_ATOM_COUNT>
0

> <PUBCHEM_COMPONENT_COUNT>
1

> <PUBCHEM_CACTVS_TAUTO_COUNT>
1

> <PUBCHEM_CONFORMER_ID>
0006C52400000001

> <PUBCHEM_MMFF94_ENERGY>
54.9651

> <PUBCHEM_FEATURE_SELFOVERLAP>
35.727

> <PUBCHEM_SHAPE_FINGERPRINT>
10411042 1 17041760886399966630
10608611 8 18409168783685133352
10616163 171 18337670815211784046
10646746 165 18410009940250544156
10967382 1 18410855503083122501
11132069 177 18410297995016919080
11471102 20 18410015471952007252
11543360 7 15791743970326796925
12173636 292 18410015416228247989
12251169 10 18342460343881125584
12390115 104 18188751959977216369
13140716 1 18051123692894019163
13221675 6 18411138026063651331
13380535 76 18409729581870566831
13583140 156 16917356926473469849
138480 1 17545884188458736555
14144814 61 18412263956119589705
14325111 11 18410573993757404865
14897335 6 18410294722130461671
15196674 1 18410856568245580903
15309172 13 18410284839774691187
15442244 35 18194684993265741634
15536298 74 18334857263956544990
15775835 57 18412542128181995153
16945 1 18338797805997848839
1813 80 16916227835975917810
18186145 218 18261667194153035165
200 152 17894918425388514493
20510252 161 18334009493341789849
21267235 1 18411128139054386059
21501502 16 18410862061493181571
21524375 3 18410013260191789591
2334 1 18410575114970534057
23402539 116 18334584537822935317
23402655 69 18261681475468063725
23463225 33 18342177795120334442
23559900 14 18260267452354645304
238 59 16116311316276291741
25 1 18337675320679508503
2748010 2 18339071704857925903
3004659 81 18270951475904769406
335352 9 18338799051986686558
4028521 119 18342465854551097941
4214541 1 18410575089053206116
474 4 17202196314386843916
4990 188 18040708199690700428
5104073 3 18411419518188460186
53812653 166 18335706056651989888
633830 44 18115305725623621413
69090 78 18408045104302678599
7364860 26 18192430994234005254
9709674 26 18408035204271569478

> <PUBCHEM_SHAPE_MULTIPOLES>
333.13
7.66
2.12
0.6
1.7
0.39
0
-2.71
0
-0.54
0
-0.03
0
0

> <PUBCHEM_SHAPE_SELFOVERLAP>
770.409

> <PUBCHEM_SHAPE_VOLUME>
170.2

> <PUBCHEM_COORDINATE_TYPE>
2
5
10

$$$$

