17396062
  -OEChem-06241222542D

 50 53  0     1  0  0  0  0  0999 V2000
    4.2788    0.8072    0.0000 O   0  0  0  0  0  0  0  0  0  0  0  0
    6.3479   -2.0406    0.0000 O   0  0  0  0  0  0  0  0  0  0  0  0
    7.3659   -1.2663    0.0000 O   0  0  0  0  0  0  0  0  0  0  0  0
    4.5878   -1.7618    0.0000 N   0  0  0  0  0  0  0  0  0  0  0  0
    5.5388   -0.4528    0.0000 N   0  0  0  0  0  0  0  0  0  0  0  0
    8.0704    0.3160    0.0000 N   0  0  0  0  0  0  0  0  0  0  0  0
   11.3245    0.9918    0.0000 N   0  0  0  0  0  0  0  0  0  0  0  0
    9.7921    1.4911    0.0000 N   0  0  0  0  0  0  0  0  0  0  0  0
    4.0000   -0.9528    0.0000 C   0  0  3  0  0  0  0  0  0  0  0  0
    3.5000   -1.8188    0.0000 C   0  0  3  0  0  0  0  0  0  0  0  0
    3.5000   -0.0868    0.0000 C   0  0  0  0  0  0  0  0  0  0  0  0
    2.5000   -1.8188    0.0000 C   0  0  0  0  0  0  0  0  0  0  0  0
    2.5000   -0.0868    0.0000 C   0  0  0  0  0  0  0  0  0  0  0  0
    2.0000   -0.9528    0.0000 C   0  0  0  0  0  0  0  0  0  0  0  0
    4.5878   -0.1438    0.0000 C   0  0  0  0  0  0  0  0  0  0  0  0
    3.5000   -2.8188    0.0000 C   0  0  0  0  0  0  0  0  0  0  0  0
    5.5388   -1.4528    0.0000 C   0  0  0  0  0  0  0  0  0  0  0  0
    6.3479    0.1350    0.0000 C   0  0  0  0  0  0  0  0  0  0  0  0
    7.2614   -0.2718    0.0000 C   0  0  0  0  0  0  0  0  0  0  0  0
    8.9840   -0.0907    0.0000 C   0  0  0  0  0  0  0  0  0  0  0  0
    9.7930    0.4971    0.0000 C   0  0  0  0  0  0  0  0  0  0  0  0
   10.7381    0.1891    0.0000 C   0  0  0  0  0  0  0  0  0  0  0  0
   10.7367    1.8008    0.0000 C   0  0  0  0  0  0  0  0  0  0  0  0
   12.3191    1.0963    0.0000 C   0  0  0  0  0  0  0  0  0  0  0  0
   11.1435    2.7143    0.0000 C   0  0  0  0  0  0  0  0  0  0  0  0
   12.7258    2.0098    0.0000 C   0  0  0  0  0  0  0  0  0  0  0  0
   12.1380    2.8188    0.0000 C   0  0  0  0  0  0  0  0  0  0  0  0
    4.0989   -1.9793    0.0000 H   0  0  0  0  0  0  0  0  0  0  0  0
    4.0826    0.1253    0.0000 H   0  0  0  0  0  0  0  0  0  0  0  0
    3.3923    0.5238    0.0000 H   0  0  0  0  0  0  0  0  0  0  0  0
    1.9174   -2.0309    0.0000 H   0  0  0  0  0  0  0  0  0  0  0  0
    2.6077   -2.4294    0.0000 H   0  0  0  0  0  0  0  0  0  0  0  0
    2.6077    0.5238    0.0000 H   0  0  0  0  0  0  0  0  0  0  0  0
    1.9174    0.1253    0.0000 H   0  0  0  0  0  0  0  0  0  0  0  0
    1.5250   -0.5543    0.0000 H   0  0  0  0  0  0  0  0  0  0  0  0
    1.5250   -1.3514    0.0000 H   0  0  0  0  0  0  0  0  0  0  0  0
    4.7168   -2.3683    0.0000 H   0  0  0  0  0  0  0  0  0  0  0  0
    2.8800   -2.8188    0.0000 H   0  0  0  0  0  0  0  0  0  0  0  0
    3.5000   -3.4388    0.0000 H   0  0  0  0  0  0  0  0  0  0  0  0
    4.1200   -2.8188    0.0000 H   0  0  0  0  0  0  0  0  0  0  0  0
    6.6946    0.6490    0.0000 H   0  0  0  0  0  0  0  0  0  0  0  0
    5.9019    0.5656    0.0000 H   0  0  0  0  0  0  0  0  0  0  0  0
    8.0056    0.9326    0.0000 H   0  0  0  0  0  0  0  0  0  0  0  0
    8.6373   -0.6047    0.0000 H   0  0  0  0  0  0  0  0  0  0  0  0
    9.4300   -0.5214    0.0000 H   0  0  0  0  0  0  0  0  0  0  0  0
   10.9287   -0.4009    0.0000 H   0  0  0  0  0  0  0  0  0  0  0  0
   12.6835    0.5947    0.0000 H   0  0  0  0  0  0  0  0  0  0  0  0
   10.7791    3.2159    0.0000 H   0  0  0  0  0  0  0  0  0  0  0  0
   13.3424    2.0746    0.0000 H   0  0  0  0  0  0  0  0  0  0  0  0
   12.3902    3.3852    0.0000 H   0  0  0  0  0  0  0  0  0  0  0  0
  1 15  2  0  0  0  0
  2 17  2  0  0  0  0
  3 19  2  0  0  0  0
  4  9  1  0  0  0  0
  4 17  1  0  0  0  0
  4 37  1  0  0  0  0
  5 15  1  0  0  0  0
  5 17  1  0  0  0  0
  5 18  1  0  0  0  0
  6 19  1  0  0  0  0
  6 20  1  0  0  0  0
  6 43  1  0  0  0  0
  7 22  1  0  0  0  0
  7 23  1  0  0  0  0
  7 24  1  0  0  0  0
  8 21  1  0  0  0  0
  8 23  2  0  0  0  0
  9 10  1  0  0  0  0
  9 11  1  0  0  0  0
  9 15  1  0  0  0  0
 10 12  1  0  0  0  0
 10 16  1  0  0  0  0
 10 28  1  0  0  0  0
 11 13  1  0  0  0  0
 11 29  1  0  0  0  0
 11 30  1  0  0  0  0
 12 14  1  0  0  0  0
 12 31  1  0  0  0  0
 12 32  1  0  0  0  0
 13 14  1  0  0  0  0
 13 33  1  0  0  0  0
 13 34  1  0  0  0  0
 14 35  1  0  0  0  0
 14 36  1  0  0  0  0
 16 38  1  0  0  0  0
 16 39  1  0  0  0  0
 16 40  1  0  0  0  0
 18 19  1  0  0  0  0
 18 41  1  0  0  0  0
 18 42  1  0  0  0  0
 20 21  1  0  0  0  0
 20 44  1  0  0  0  0
 20 45  1  0  0  0  0
 21 22  2  0  0  0  0
 22 46  1  0  0  0  0
 23 25  1  0  0  0  0
 24 26  2  0  0  0  0
 24 47  1  0  0  0  0
 25 27  2  0  0  0  0
 25 48  1  0  0  0  0
 26 27  1  0  0  0  0
 26 49  1  0  0  0  0
 27 50  1  0  0  0  0
M  END
> <PUBCHEM_COMPOUND_CID>
17396062

> <PUBCHEM_COMPOUND_CANONICALIZED>
1

> <PUBCHEM_CACTVS_COMPLEXITY>
627

> <PUBCHEM_CACTVS_HBOND_ACCEPTOR>
4

> <PUBCHEM_CACTVS_HBOND_DONOR>
2

> <PUBCHEM_CACTVS_ROTATABLE_BOND>
4

> <PUBCHEM_CACTVS_SUBSKEYS>
AAADceB7sAAAAAAAAAAAAAAAAAAAAWLAAAA8QAAAAAAAAFgB4AAAHgAQAAAADYjBlwQ/sJ/MGACoATd3dACCgC0xEqAJ2KG4dJiIaPLA2bGUIAholyLIyCcYiICOgAAAAAAAAAAAAAAAACQAAAAAAAAAAA==

> <PUBCHEM_IUPAC_OPENEYE_NAME>
N-(imidazo[1,2-a]pyridin-2-ylmethyl)-2-(10-methyl-2,4-dioxo-1,3-diazaspiro[4.5]decan-3-yl)acetamide

> <PUBCHEM_IUPAC_CAS_NAME>
N-(2-imidazo[1,2-a]pyridinylmethyl)-2-(10-methyl-2,4-dioxo-1,3-diazaspiro[4.5]decan-3-yl)acetamide

> <PUBCHEM_IUPAC_NAME>
N-(imidazo[1,2-a]pyridin-2-ylmethyl)-2-(10-methyl-2,4-dioxo-1,3-diazaspiro[4.5]decan-3-yl)acetamide

> <PUBCHEM_IUPAC_SYSTEMATIC_NAME>
N-(imidazo[1,2-a]pyridin-2-ylmethyl)-2-[10-methyl-2,4-bis(oxidanylidene)-1,3-diazaspiro[4.5]decan-3-yl]ethanamide

> <PUBCHEM_IUPAC_TRADITIONAL_NAME>
2-(2,4-diketo-10-methyl-1,3-diazaspiro[4.5]decan-3-yl)-N-(imidazo[1,2-a]pyridin-2-ylmethyl)acetamide

> <PUBCHEM_IUPAC_INCHI>
InChI=1S/C19H23N5O3/c1-13-6-2-4-8-19(13)17(26)24(18(27)22-19)12-16(25)20-10-14-11-23-9-5-3-7-15(23)21-14/h3,5,7,9,11,13H,2,4,6,8,10,12H2,1H3,(H,20,25)(H,22,27)

> <PUBCHEM_IUPAC_INCHIKEY>
RHNGZYLCNURRMH-UHFFFAOYSA-N

> <PUBCHEM_XLOGP3_AA>
1.9

> <PUBCHEM_EXACT_MASS>
369.18009

> <PUBCHEM_MOLECULAR_FORMULA>
C19H23N5O3

> <PUBCHEM_MOLECULAR_WEIGHT>
369.41762

> <PUBCHEM_OPENEYE_CAN_SMILES>
CC1CCCCC12C(=O)N(C(=O)N2)CC(=O)NCC3=CN4C=CC=CC4=N3

> <PUBCHEM_OPENEYE_ISO_SMILES>
CC1CCCCC12C(=O)N(C(=O)N2)CC(=O)NCC3=CN4C=CC=CC4=N3

> <PUBCHEM_CACTVS_TPSA>
95.8

> <PUBCHEM_MONOISOTOPIC_WEIGHT>
369.18009

> <PUBCHEM_TOTAL_CHARGE>
0

> <PUBCHEM_HEAVY_ATOM_COUNT>
27

> <PUBCHEM_ATOM_DEF_STEREO_COUNT>
0

> <PUBCHEM_ATOM_UDEF_STEREO_COUNT>
2

> <PUBCHEM_BOND_DEF_STEREO_COUNT>
0

> <PUBCHEM_BOND_UDEF_STEREO_COUNT>
0

> <PUBCHEM_ISOTOPIC_ATOM_COUNT>
0

> <PUBCHEM_COMPONENT_COUNT>
1

> <PUBCHEM_CACTVS_TAUTO_COUNT>
4

> <PUBCHEM_COORDINATE_TYPE>
1
5
255

> <PUBCHEM_BONDANNOTATIONS>
10  16  3
21  22  8
23  25  8
24  26  8
25  27  8
26  27  8
7  22  8
7  23  8
7  24  8
8  21  8
8  23  8
9  11  3

$$$$

