11277
  -OEChem-06261205283D

 23 24  0     0  0  0  0  0  0999 V2000
   -2.8948   -0.0130   -0.0733 S   0  0  0  0  0  0  0  0  0  0  0  0
   -0.6834   -2.0033   -0.0390 O   0  0  0  0  0  0  0  0  0  0  0  0
   -3.2314   -0.6250    1.4039 O   0  0  0  0  0  0  0  0  0  0  0  0
   -3.5969    1.2564   -0.1794 O   0  0  0  0  0  0  0  0  0  0  0  0
   -3.1012   -1.0627   -1.0571 O   0  0  0  0  0  0  0  0  0  0  0  0
    1.1349   -0.4291   -0.0090 C   0  0  0  0  0  0  0  0  0  0  0  0
    1.5667    0.9186   -0.0018 C   0  0  0  0  0  0  0  0  0  0  0  0
   -1.1779    0.3245   -0.0463 C   0  0  0  0  0  0  0  0  0  0  0  0
   -0.2411   -0.7093   -0.0313 C   0  0  0  0  0  0  0  0  0  0  0  0
    0.6098    1.9465   -0.0171 C   0  0  0  0  0  0  0  0  0  0  0  0
   -0.7533    1.6498   -0.0391 C   0  0  0  0  0  0  0  0  0  0  0  0
    2.0918   -1.4569    0.0060 C   0  0  0  0  0  0  0  0  0  0  0  0
    2.9427    1.1989    0.0203 C   0  0  0  0  0  0  0  0  0  0  0  0
    3.4548   -1.1603    0.0281 C   0  0  0  0  0  0  0  0  0  0  0  0
    3.8795    0.1651    0.0352 C   0  0  0  0  0  0  0  0  0  0  0  0
    0.9195    2.9896   -0.0114 H   0  0  0  0  0  0  0  0  0  0  0  0
   -1.4561    2.4776   -0.0479 H   0  0  0  0  0  0  0  0  0  0  0  0
    1.8187   -2.5081   -0.0158 H   0  0  0  0  0  0  0  0  0  0  0  0
    3.2973    2.2275    0.0259 H   0  0  0  0  0  0  0  0  0  0  0  0
    4.1853   -1.9642    0.0356 H   0  0  0  0  0  0  0  0  0  0  0  0
    4.9408    0.3953    0.0513 H   0  0  0  0  0  0  0  0  0  0  0  0
   -0.0740   -2.5656    0.4649 H   0  0  0  0  0  0  0  0  0  0  0  0
   -3.0597   -0.0184    2.1622 H   0  0  0  0  0  0  0  0  0  0  0  0
  1  3  1  0  0  0  0
  1  4  2  0  0  0  0
  1  5  2  0  0  0  0
  1  8  1  0  0  0  0
  2  9  1  0  0  0  0
  2 22  1  0  0  0  0
  3 23  1  0  0  0  0
  6  7  1  0  0  0  0
  6  9  1  0  0  0  0
  6 12  2  0  0  0  0
  7 10  1  0  0  0  0
  7 13  2  0  0  0  0
  8  9  2  0  0  0  0
  8 11  1  0  0  0  0
 10 11  2  0  0  0  0
 10 16  1  0  0  0  0
 11 17  1  0  0  0  0
 12 14  1  0  0  0  0
 12 18  1  0  0  0  0
 13 15  1  0  0  0  0
 13 19  1  0  0  0  0
 14 15  2  0  0  0  0
 14 20  1  0  0  0  0
 15 21  1  0  0  0  0
M  END
> <PUBCHEM_COMPOUND_CID>
11277

> <PUBCHEM_CONFORMER_RMSD>
0.4

> <PUBCHEM_CONFORMER_DIVERSEORDER>
1
2

> <PUBCHEM_MMFF94_PARTIAL_CHARGES>
21
1 1.49
10 -0.15
11 -0.15
12 -0.15
13 -0.15
14 -0.15
15 -0.15
16 0.15
17 0.15
18 0.15
19 0.15
2 -0.53
20 0.15
21 0.15
22 0.45
23 0.5
3 -0.68
4 -0.65
5 -0.65
8 -0.01
9 0.08

> <PUBCHEM_EFFECTIVE_ROTOR_COUNT>
1

> <PUBCHEM_PHARMACOPHORE_FEATURES>
7
1 2 donor
1 3 acceptor
1 4 acceptor
1 5 acceptor
4 1 3 4 5 anion
6 6 7 12 13 14 15 rings
6 6 7 8 9 10 11 rings

> <PUBCHEM_HEAVY_ATOM_COUNT>
15

> <PUBCHEM_ATOM_DEF_STEREO_COUNT>
0

> <PUBCHEM_ATOM_UDEF_STEREO_COUNT>
0

> <PUBCHEM_BOND_DEF_STEREO_COUNT>
0

> <PUBCHEM_BOND_UDEF_STEREO_COUNT>
0

> <PUBCHEM_ISOTOPIC_ATOM_COUNT>
0

> <PUBCHEM_COMPONENT_COUNT>
1

> <PUBCHEM_CACTVS_TAUTO_COUNT>
3

> <PUBCHEM_CONFORMER_ID>
00002C0D00000001

> <PUBCHEM_MMFF94_ENERGY>
37.0338

> <PUBCHEM_FEATURE_SELFOVERLAP>
35.604

> <PUBCHEM_SHAPE_FINGERPRINT>
10219947 1 18335137604898177278
10608611 8 18412267220300353612
10967382 1 18338237183985072414
10980938 120 18410012109319694438
11132069 177 18260556640385763818
11401426 45 18336275599438362564
11471102 20 18411143553818436748
11769659 78 18335990834537613854
12032990 46 18412819200991372186
13140716 1 18122343467630069288
13221675 6 18410573998395081646
13296908 3 18272649047650796075
13380535 76 18410296882905505246
14144814 61 18409449167655572946
14325111 11 18410576184185457629
14576447 43 18116729412582156855
14993402 34 18334580126601261479
15196674 1 18410576192965146860
15219456 202 18342735212950241281
15309172 13 18333726931474751747
15442244 35 18265053724679621610
15536298 74 18261114075875535564
16945 1 18339360747493223860
17844478 74 18060415815725824317
18186145 218 17418376908602494284
193761 8 17762338007424909540
200 152 18113909272683483589
20201158 50 18413671318213225554
20510252 161 18187929542512165864
20645477 70 18336552719270957607
21267235 1 18409722950377842758
21501502 16 18194401091526903238
2334 1 18338797930826194028
23402539 116 18335150812270804822
23402655 69 18336269023774997324
23463225 33 18411701010666876948
23493267 7 17632584889276123489
23559900 14 18335143129049182606
2748010 2 18267026239897377660
5104073 3 18411139147303239664
528886 8 18409737269745670384
53812653 166 18261679156190972664
7364860 26 18190745232829715016
8809292 202 18201995560094998043

> <PUBCHEM_SHAPE_MULTIPOLES>
289.07
6.26
1.89
0.76
0.7
0.15
-0.08
-0.6
-0.14
-0.21
0.06
0.48
-0.12
0.01

> <PUBCHEM_SHAPE_SELFOVERLAP>
622.307

> <PUBCHEM_SHAPE_VOLUME>
159.7

> <PUBCHEM_COORDINATE_TYPE>
2
5
10

$$$$

