46173790
  -OEChem-07051213023D

 58 60  0     1  0  0  0  0  0999 V2000
   -0.4878   -3.5183   -0.8346 P   0  0  2  0  0  0  0  0  0  0  0  0
   -2.7055   -1.6315   -1.2580 P   0  0  1  0  0  0  0  0  0  0  0  0
    3.1748   -1.4853    0.1942 O   0  0  0  0  0  0  0  0  0  0  0  0
    4.0649   -1.7945    3.1070 O   0  0  0  0  0  0  0  0  0  0  0  0
    0.9910   -3.1825   -0.2711 O   0  0  0  0  0  0  0  0  0  0  0  0
   -1.5805    0.8232    1.1671 O   0  0  0  0  0  0  0  0  0  0  0  0
   -2.9053   -0.2123   -0.5132 O   0  0  0  0  0  0  0  0  0  0  0  0
   -1.1853   -2.0623   -0.9158 O   0  0  0  0  0  0  0  0  0  0  0  0
   -4.8593    1.8395    0.0561 O   0  0  0  0  0  0  0  0  0  0  0  0
    4.6657    2.3662    0.1370 O   0  0  0  0  0  0  0  0  0  0  0  0
   -1.2351   -4.2099    0.4223 O   0  0  0  0  0  0  0  0  0  0  0  0
   -3.2318    3.7421    2.0187 O   0  0  0  0  0  0  0  0  0  0  0  0
   -0.5349   -4.3055   -2.1115 O   0  0  0  0  0  0  0  0  0  0  0  0
    1.4483    3.4162   -2.9766 O   0  0  0  0  0  0  0  0  0  0  0  0
   -3.5899   -2.6732   -0.3918 O   0  0  0  0  0  0  0  0  0  0  0  0
   -3.0259   -1.6174   -2.7246 O   0  0  0  0  0  0  0  0  0  0  0  0
    2.9832    0.7999   -0.2709 N   0  0  0  0  0  0  0  0  0  0  0  0
    3.0547    2.8770   -1.4135 N   0  0  0  0  0  0  0  0  0  0  0  0
    2.8041   -1.4522    2.5357 C   0  0  2  0  0  0  0  0  0  0  0  0
    2.5795   -2.2511    1.2595 C   0  0  1  0  0  0  0  0  0  0  0  0
    2.8391   -0.0238    2.0435 C   0  0  0  0  0  0  0  0  0  0  0  0
    3.4734   -0.1650    0.6694 C   0  0  1  0  0  0  0  0  0  0  0  0
    1.1043   -2.4417    0.9314 C   0  0  0  0  0  0  0  0  0  0  0  0
    1.8348    0.4981   -0.9927 C   0  0  0  0  0  0  0  0  0  0  0  0
    3.6438    2.0322   -0.4665 C   0  0  0  0  0  0  0  0  0  0  0  0
   -3.9030    0.2876    1.6426 C   0  0  0  0  0  0  0  0  0  0  0  0
   -2.6331   -0.0994    0.8793 C   0  0  2  0  0  0  0  0  0  0  0  0
   -4.3365    1.7238    1.3662 C   0  0  1  0  0  0  0  0  0  0  0  0
   -1.8664    2.1636    0.7879 C   0  0  1  0  0  0  0  0  0  0  0  0
    1.2737    1.3090   -1.8981 C   0  0  0  0  0  0  0  0  0  0  0  0
   -3.1399    2.6428    1.4747 C   0  0  0  0  0  0  0  0  0  0  0  0
    1.9127    2.6261   -2.1589 C   0  0  0  0  0  0  0  0  0  0  0  0
   -0.6654    3.0157    1.1700 C   0  0  0  0  0  0  0  0  0  0  0  0
    0.0377    0.9627   -2.6646 C   0  0  0  0  0  0  0  0  0  0  0  0
    2.0394   -1.6177    3.3005 H   0  0  0  0  0  0  0  0  0  0  0  0
    3.0882   -3.2213    1.2764 H   0  0  0  0  0  0  0  0  0  0  0  0
    3.4140    0.6526    2.6838 H   0  0  0  0  0  0  0  0  0  0  0  0
    1.8172    0.3676    1.9686 H   0  0  0  0  0  0  0  0  0  0  0  0
    4.5642   -0.0855    0.7473 H   0  0  0  0  0  0  0  0  0  0  0  0
    0.5738   -1.4915    0.8371 H   0  0  0  0  0  0  0  0  0  0  0  0
    0.6366   -3.0083    1.7427 H   0  0  0  0  0  0  0  0  0  0  0  0
    4.0211   -2.7306    3.3670 H   0  0  0  0  0  0  0  0  0  0  0  0
    1.3683   -0.4572   -0.8149 H   0  0  0  0  0  0  0  0  0  0  0  0
   -4.7141   -0.3993    1.3755 H   0  0  0  0  0  0  0  0  0  0  0  0
   -3.7010    0.1927    2.7168 H   0  0  0  0  0  0  0  0  0  0  0  0
   -2.2955   -1.0694    1.2597 H   0  0  0  0  0  0  0  0  0  0  0  0
   -5.1072    2.0251    2.0832 H   0  0  0  0  0  0  0  0  0  0  0  0
   -2.0136    2.2212   -0.2963 H   0  0  0  0  0  0  0  0  0  0  0  0
    3.5136    3.7700   -1.5707 H   0  0  0  0  0  0  0  0  0  0  0  0
    0.2481    2.6281    0.7096 H   0  0  0  0  0  0  0  0  0  0  0  0
   -0.5030    2.9991    2.2538 H   0  0  0  0  0  0  0  0  0  0  0  0
   -0.7990    4.0569    0.8603 H   0  0  0  0  0  0  0  0  0  0  0  0
    0.2284    1.0161   -3.7415 H   0  0  0  0  0  0  0  0  0  0  0  0
   -0.3098   -0.0501   -2.4452 H   0  0  0  0  0  0  0  0  0  0  0  0
   -0.7719    1.6575   -2.4210 H   0  0  0  0  0  0  0  0  0  0  0  0
   -5.2053    2.7430   -0.0434 H   0  0  0  0  0  0  0  0  0  0  0  0
   -1.3538   -3.7053    1.2546 H   0  0  0  0  0  0  0  0  0  0  0  0
   -3.7233   -3.5821   -0.7355 H   0  0  0  0  0  0  0  0  0  0  0  0
  1  5  1  0  0  0  0
  1  8  1  0  0  0  0
  1 11  1  0  0  0  0
  1 13  2  0  0  0  0
  2  7  1  0  0  0  0
  2  8  1  0  0  0  0
  2 15  1  0  0  0  0
  2 16  2  0  0  0  0
  3 20  1  0  0  0  0
  3 22  1  0  0  0  0
  4 19  1  0  0  0  0
  4 42  1  0  0  0  0
  5 23  1  0  0  0  0
  6 27  1  0  0  0  0
  6 29  1  0  0  0  0
  7 27  1  0  0  0  0
  9 28  1  0  0  0  0
  9 56  1  0  0  0  0
 10 25  2  0  0  0  0
 11 57  1  0  0  0  0
 12 31  2  0  0  0  0
 14 32  2  0  0  0  0
 15 58  1  0  0  0  0
 17 22  1  0  0  0  0
 17 24  1  0  0  0  0
 17 25  1  0  0  0  0
 18 25  1  0  0  0  0
 18 32  1  0  0  0  0
 18 49  1  0  0  0  0
 19 20  1  0  0  0  0
 19 21  1  0  0  0  0
 19 35  1  0  0  0  0
 20 23  1  0  0  0  0
 20 36  1  0  0  0  0
 21 22  1  0  0  0  0
 21 37  1  0  0  0  0
 21 38  1  0  0  0  0
 22 39  1  0  0  0  0
 23 40  1  0  0  0  0
 23 41  1  0  0  0  0
 24 30  2  0  0  0  0
 24 43  1  0  0  0  0
 26 27  1  0  0  0  0
 26 28  1  0  0  0  0
 26 44  1  0  0  0  0
 26 45  1  0  0  0  0
 27 46  1  0  0  0  0
 28 31  1  0  0  0  0
 28 47  1  0  0  0  0
 29 31  1  0  0  0  0
 29 33  1  0  0  0  0
 29 48  1  0  0  0  0
 30 32  1  0  0  0  0
 30 34  1  0  0  0  0
 33 50  1  0  0  0  0
 33 51  1  0  0  0  0
 33 52  1  0  0  0  0
 34 53  1  0  0  0  0
 34 54  1  0  0  0  0
 34 55  1  0  0  0  0
M  END
> <PUBCHEM_COMPOUND_CID>
46173790

> <PUBCHEM_CONFORMER_RMSD>
1.4

> <PUBCHEM_CONFORMER_DIVERSEORDER>
1
10
128
48
34
81
33
173
55
194
99
189
21
75
147
88
44
111
171
67
100
132
126
170
190
46
120
78
74
49
174
127
134
180
193
164
76
79
73
77
71
155
181
167
93
28
36
168
56
192
69
51
162
117
187
45
119
138
61
169
159
5
94
142
152
91
124
176
178
31
140
158
98
16
148
175
163
145
70
188
39
160
151
143
41
183
141
154
84
108
42
35
90
195
113
9
129
112
137
68
59
121
116
38
185
114
156
130
24
15
115
83
27
52
60
186
20
136
123
92
12
161
131
43
166
106
66
157
150
54
107
65
122
135
8
37
32
144
102
179
47
101
172
40
191
118
182
80
72
87
82
109
58
63
85
177
17
184
105
62
165
96
86
103
3
149
146
139
22
125
50
97
95
153
110
53
11
19
133
4
2
23
25
13
18
30
6
64
57
89
104
26
7
14
29

> <PUBCHEM_MMFF94_PARTIAL_CHARGES>
37
1 1.51
10 -0.57
11 -0.77
12 -0.57
13 -0.7
14 -0.57
15 -0.77
16 -0.7
17 -0.47
18 -0.49
19 0.28
2 1.51
20 0.28
22 0.58
23 0.28
24 -0.04
25 0.69
27 0.56
28 0.34
29 0.34
3 -0.56
30 -0.12
31 0.45
32 0.62
34 0.14
4 -0.68
42 0.4
43 0.15
49 0.37
5 -0.55
56 0.4
57 0.5
58 0.5
6 -0.56
7 -0.55
8 -0.54
9 -0.68

> <PUBCHEM_EFFECTIVE_ROTOR_COUNT>
10

> <PUBCHEM_PHARMACOPHORE_FEATURES>
17
1 10 acceptor
1 11 acceptor
1 12 acceptor
1 13 acceptor
1 14 acceptor
1 15 acceptor
1 16 acceptor
1 18 donor
1 3 acceptor
1 4 acceptor
1 4 donor
1 6 acceptor
1 9 acceptor
1 9 donor
5 3 19 20 21 22 rings
6 17 18 24 25 30 32 rings
6 6 26 27 28 29 31 rings

> <PUBCHEM_HEAVY_ATOM_COUNT>
34

> <PUBCHEM_ATOM_DEF_STEREO_COUNT>
6

> <PUBCHEM_ATOM_UDEF_STEREO_COUNT>
0

> <PUBCHEM_BOND_DEF_STEREO_COUNT>
0

> <PUBCHEM_BOND_UDEF_STEREO_COUNT>
0

> <PUBCHEM_ISOTOPIC_ATOM_COUNT>
0

> <PUBCHEM_COMPONENT_COUNT>
1

> <PUBCHEM_CACTVS_TAUTO_COUNT>
15

> <PUBCHEM_CONFORMER_ID>
02C08E5E00000001

> <PUBCHEM_MMFF94_ENERGY>
30.7329

> <PUBCHEM_FEATURE_SELFOVERLAP>
86.289

> <PUBCHEM_SHAPE_FINGERPRINT>
10032420 55 17758672252712329349
10708813 3 18129389198259701158
11513181 2 17391071809001065975
12539773 59 18050016497285518534
12788726 201 18191301568564993039
13009979 54 18122931758154891778
13965767 371 18342452681617577108
15274700 34 18200876301173452673
15297060 5 18040984146886544506
15420108 30 18412265073449766992
19319366 153 17913197664113150259
20511986 3 18412266116562856513
21860390 5 17914313913149064841
23559900 14 17830157362184891833
3052486 1 18187088308388884497
35225 105 17603590728796212140
392239 28 17686912622346274112
469060 322 17912114877056609587
50150288 127 16324211982745923981
5895379 119 18334581205345285218
5951187 136 15504912370724257521
6287921 2 18337101379841940938

> <PUBCHEM_SHAPE_MULTIPOLES>
615.27
8.02
5.52
2.93
2.18
2.43
-0.57
-3.73
3.91
0.66
-1.57
-0.99
-0.49
-4.72

> <PUBCHEM_SHAPE_SELFOVERLAP>
1254.903

> <PUBCHEM_SHAPE_VOLUME>
358.1

> <PUBCHEM_COORDINATE_TYPE>
2
5
10

$$$$

