440982
  -OEChem-07051213013D

 22 23  0     0  0  0  0  0  0999 V2000
    3.0526    1.0849    0.0165 O   0  0  0  0  0  0  0  0  0  0  0  0
    0.6976    2.4630   -0.0057 O   0  0  0  0  0  0  0  0  0  0  0  0
    0.5056   -1.5744    0.0051 N   0  0  0  0  0  0  0  0  0  0  0  0
   -0.6977   -0.8610    0.0031 C   0  0  0  0  0  0  0  0  0  0  0  0
   -0.6799    0.5427   -0.0015 C   0  0  0  0  0  0  0  0  0  0  0  0
    1.7346   -0.9486    0.0028 C   0  0  0  0  0  0  0  0  0  0  0  0
    0.6302    1.2398   -0.0035 C   0  0  0  0  0  0  0  0  0  0  0  0
    1.8627    0.3933   -0.0011 C   0  0  0  0  0  0  0  0  0  0  0  0
   -1.9300   -1.5228    0.0049 C   0  0  0  0  0  0  0  0  0  0  0  0
   -1.8705    1.2744   -0.0043 C   0  0  0  0  0  0  0  0  0  0  0  0
    2.9070   -1.8968   -0.0163 C   0  0  0  0  0  0  0  0  0  0  0  0
   -3.1212   -0.7945    0.0023 C   0  0  0  0  0  0  0  0  0  0  0  0
   -3.0910    0.6001   -0.0023 C   0  0  0  0  0  0  0  0  0  0  0  0
    0.4778   -2.5860    0.0093 H   0  0  0  0  0  0  0  0  0  0  0  0
   -1.9719   -2.6091    0.0083 H   0  0  0  0  0  0  0  0  0  0  0  0
   -1.8671    2.3606   -0.0079 H   0  0  0  0  0  0  0  0  0  0  0  0
    3.0395   -2.3488    0.9723 H   0  0  0  0  0  0  0  0  0  0  0  0
    3.8492   -1.4270   -0.3076 H   0  0  0  0  0  0  0  0  0  0  0  0
    2.7319   -2.7028   -0.7386 H   0  0  0  0  0  0  0  0  0  0  0  0
   -4.0744   -1.3156    0.0037 H   0  0  0  0  0  0  0  0  0  0  0  0
   -4.0207    1.1618   -0.0044 H   0  0  0  0  0  0  0  0  0  0  0  0
    3.7896    0.4642    0.1226 H   0  0  0  0  0  0  0  0  0  0  0  0
  1  8  1  0  0  0  0
  1 22  1  0  0  0  0
  2  7  2  0  0  0  0
  3  4  1  0  0  0  0
  3  6  1  0  0  0  0
  3 14  1  0  0  0  0
  4  5  1  0  0  0  0
  4  9  2  0  0  0  0
  5  7  1  0  0  0  0
  5 10  2  0  0  0  0
  6  8  2  0  0  0  0
  6 11  1  0  0  0  0
  7  8  1  0  0  0  0
  9 12  1  0  0  0  0
  9 15  1  0  0  0  0
 10 13  1  0  0  0  0
 10 16  1  0  0  0  0
 11 17  1  0  0  0  0
 11 18  1  0  0  0  0
 11 19  1  0  0  0  0
 12 13  2  0  0  0  0
 12 20  1  0  0  0  0
 13 21  1  0  0  0  0
M  END
> <PUBCHEM_COMPOUND_CID>
440982

> <PUBCHEM_CONFORMER_RMSD>
0.4

> <PUBCHEM_CONFORMER_DIVERSEORDER>
1

> <PUBCHEM_MMFF94_PARTIAL_CHARGES>
19
1 -0.53
10 -0.15
11 0.14
12 -0.15
13 -0.15
14 0.4
15 0.15
16 0.15
2 -0.57
20 0.15
21 0.15
22 0.45
3 -0.6
4 0.1
5 0.09
6 -0.04
7 0.47
8 0.09
9 -0.15

> <PUBCHEM_EFFECTIVE_ROTOR_COUNT>
0

> <PUBCHEM_PHARMACOPHORE_FEATURES>
6
1 1 donor
1 2 acceptor
1 3 cation
1 3 donor
6 3 4 5 6 7 8 rings
6 4 5 9 10 12 13 rings

> <PUBCHEM_HEAVY_ATOM_COUNT>
13

> <PUBCHEM_ATOM_DEF_STEREO_COUNT>
0

> <PUBCHEM_ATOM_UDEF_STEREO_COUNT>
0

> <PUBCHEM_BOND_DEF_STEREO_COUNT>
0

> <PUBCHEM_BOND_UDEF_STEREO_COUNT>
0

> <PUBCHEM_ISOTOPIC_ATOM_COUNT>
0

> <PUBCHEM_COMPONENT_COUNT>
1

> <PUBCHEM_CACTVS_TAUTO_COUNT>
23

> <PUBCHEM_CONFORMER_ID>
0006BA9600000001

> <PUBCHEM_MMFF94_ENERGY>
38.041

> <PUBCHEM_FEATURE_SELFOVERLAP>
30.47

> <PUBCHEM_SHAPE_FINGERPRINT>
10608611 8 18411423916372432197
10967382 1 18338517421937355239
11471102 20 18411142437575176751
12032990 46 18338510953695904707
12524768 44 18263358243121035247
13140716 1 18338797947699920186
13380535 76 18268714909268710314
14144814 61 18410011031135197259
14325111 11 18410856572725274945
15536298 74 18333732429475800850
15775835 57 18410004416896201733
16945 1 18266458706949879815
17844478 74 18060409214830445857
17990270 104 18411702058311882075
193761 8 14447687341624138791
19973954 147 18411135801560618915
20201158 50 18339927017477353587
20645477 70 18409736183609977383
21501502 16 18410011039725190175
2334 1 18410855468744528610
23402655 69 18335997428072198893
23463225 33 18411982502754930426
23552423 10 18268990882455449389
23559900 14 18047757285233979470
241688 4 18267584782976833648
2748010 2 18410577322378009030
528886 8 18410297977757818217
53812653 166 18261959539961153520
7364860 26 18334576789696651776
8809292 202 18272080634589138883

> <PUBCHEM_SHAPE_MULTIPOLES>
250.81
4.69
2.16
0.6
0.19
0.35
0
-0.94
0
-0.72
0
0.03
-0.02
0.01

> <PUBCHEM_SHAPE_SELFOVERLAP>
545.708

> <PUBCHEM_SHAPE_VOLUME>
136.5

> <PUBCHEM_COORDINATE_TYPE>
2
5
10

$$$$

