162349
  -OEChem-07051212502D

 48 49  0     1  0  0  0  0  0999 V2000
    5.4641    0.0076    0.0000 O   0  0  0  0  0  0  0  0  0  0  0  0
    7.2125    4.0422    0.0000 O   0  0  0  0  0  0  0  0  0  0  0  0
    5.4641   -1.9924    0.0000 O   0  0  0  0  0  0  0  0  0  0  0  0
    3.7320   -2.9924    0.0000 N   0  0  0  0  0  0  0  0  0  0  0  0
    7.2241    3.0423    0.0000 C   0  0  3  0  0  0  0  0  0  0  0  0
    8.1301    2.5284    0.0000 C   0  0  0  0  0  0  0  0  0  0  0  0
    8.1301    1.4868    0.0000 C   0  0  0  0  0  0  0  0  0  0  0  0
    7.2241    0.9730    0.0000 C   0  0  0  0  0  0  0  0  0  0  0  0
    6.3301    1.5076    0.0000 C   0  0  0  0  0  0  0  0  0  0  0  0
    6.3301    2.5076    0.0000 C   0  0  0  0  0  0  0  0  0  0  0  0
    2.8660   -3.4924    0.0000 C   0  0  0  0  0  0  0  0  0  0  0  0
    5.4641    1.0076    0.0000 C   0  0  0  0  0  0  0  0  0  0  0  0
    3.7320   -1.9924    0.0000 C   0  0  0  0  0  0  0  0  0  0  0  0
    4.5981   -1.4924    0.0000 C   0  0  3  0  0  0  0  0  0  0  0  0
    5.4641    3.0076    0.0000 C   0  0  0  0  0  0  0  0  0  0  0  0
    4.5981   -0.4924    0.0000 C   0  0  0  0  0  0  0  0  0  0  0  0
    4.5981    1.5076    0.0000 C   0  0  0  0  0  0  0  0  0  0  0  0
    2.0000   -3.9924    0.0000 C   0  0  0  0  0  0  0  0  0  0  0  0
    3.3660   -4.3584    0.0000 C   0  0  0  0  0  0  0  0  0  0  0  0
    2.3660   -2.6264    0.0000 C   0  0  0  0  0  0  0  0  0  0  0  0
    4.5981    2.5076    0.0000 C   0  0  0  0  0  0  0  0  0  0  0  0
    7.9561    3.4744    0.0000 H   0  0  0  0  0  0  0  0  0  0  0  0
    8.7410    2.4223    0.0000 H   0  0  0  0  0  0  0  0  0  0  0  0
    8.3392    3.1121    0.0000 H   0  0  0  0  0  0  0  0  0  0  0  0
    8.3392    0.9031    0.0000 H   0  0  0  0  0  0  0  0  0  0  0  0
    8.7410    1.5929    0.0000 H   0  0  0  0  0  0  0  0  0  0  0  0
    6.8195    0.5032    0.0000 H   0  0  0  0  0  0  0  0  0  0  0  0
    7.6177    0.4939    0.0000 H   0  0  0  0  0  0  0  0  0  0  0  0
    3.5200   -1.4098    0.0000 H   0  0  0  0  0  0  0  0  0  0  0  0
    3.1215   -2.1000    0.0000 H   0  0  0  0  0  0  0  0  0  0  0  0
    4.5981   -2.3424    0.0000 H   0  0  0  0  0  0  0  0  0  0  0  0
    4.2690   -3.3024    0.0000 H   0  0  0  0  0  0  0  0  0  0  0  0
    5.4641    3.6276    0.0000 H   0  0  0  0  0  0  0  0  0  0  0  0
    4.3860    0.0902    0.0000 H   0  0  0  0  0  0  0  0  0  0  0  0
    3.9875   -0.6000    0.0000 H   0  0  0  0  0  0  0  0  0  0  0  0
    2.9030   -2.3164    0.0000 H   0  0  0  0  0  0  0  0  0  0  0  0
    2.0560   -2.0894    0.0000 H   0  0  0  0  0  0  0  0  0  0  0  0
    1.8291   -2.9364    0.0000 H   0  0  0  0  0  0  0  0  0  0  0  0
    2.8291   -4.6684    0.0000 H   0  0  0  0  0  0  0  0  0  0  0  0
    3.6760   -4.8953    0.0000 H   0  0  0  0  0  0  0  0  0  0  0  0
    3.9030   -4.0484    0.0000 H   0  0  0  0  0  0  0  0  0  0  0  0
    1.6900   -3.4554    0.0000 H   0  0  0  0  0  0  0  0  0  0  0  0
    1.4631   -4.3024    0.0000 H   0  0  0  0  0  0  0  0  0  0  0  0
    2.3100   -4.5293    0.0000 H   0  0  0  0  0  0  0  0  0  0  0  0
    4.0611    1.1976    0.0000 H   0  0  0  0  0  0  0  0  0  0  0  0
    4.0611    2.8176    0.0000 H   0  0  0  0  0  0  0  0  0  0  0  0
    7.7458    4.3584    0.0000 H   0  0  0  0  0  0  0  0  0  0  0  0
    5.4641   -2.6124    0.0000 H   0  0  0  0  0  0  0  0  0  0  0  0
  1 12  1  0  0  0  0
  1 16  1  0  0  0  0
  2  5  1  0  0  0  0
  2 47  1  0  0  0  0
  3 14  1  0  0  0  0
  3 48  1  0  0  0  0
  4 11  1  0  0  0  0
  4 13  1  0  0  0  0
  4 32  1  0  0  0  0
  5  6  1  0  0  0  0
  5 10  1  0  0  0  0
  5 22  1  0  0  0  0
  6  7  1  0  0  0  0
  6 23  1  0  0  0  0
  6 24  1  0  0  0  0
  7  8  1  0  0  0  0
  7 25  1  0  0  0  0
  7 26  1  0  0  0  0
  8  9  1  0  0  0  0
  8 27  1  0  0  0  0
  8 28  1  0  0  0  0
  9 10  2  0  0  0  0
  9 12  1  0  0  0  0
 10 15  1  0  0  0  0
 11 18  1  0  0  0  0
 11 19  1  0  0  0  0
 11 20  1  0  0  0  0
 12 17  2  0  0  0  0
 13 14  1  0  0  0  0
 13 29  1  0  0  0  0
 13 30  1  0  0  0  0
 14 16  1  0  0  0  0
 14 31  1  0  0  0  0
 15 21  2  0  0  0  0
 15 33  1  0  0  0  0
 16 34  1  0  0  0  0
 16 35  1  0  0  0  0
 17 21  1  0  0  0  0
 17 45  1  0  0  0  0
 18 42  1  0  0  0  0
 18 43  1  0  0  0  0
 18 44  1  0  0  0  0
 19 39  1  0  0  0  0
 19 40  1  0  0  0  0
 19 41  1  0  0  0  0
 20 36  1  0  0  0  0
 20 37  1  0  0  0  0
 20 38  1  0  0  0  0
 21 46  1  0  0  0  0
M  END
> <PUBCHEM_COMPOUND_CID>
162349

> <PUBCHEM_COMPOUND_CANONICALIZED>
1

> <PUBCHEM_CACTVS_COMPLEXITY>
316

> <PUBCHEM_CACTVS_HBOND_ACCEPTOR>
4

> <PUBCHEM_CACTVS_HBOND_DONOR>
3

> <PUBCHEM_CACTVS_ROTATABLE_BOND>
6

> <PUBCHEM_CACTVS_SUBSKEYS>
AAADceB6MAAAAAAAAAAAAAAAAAAAAAAAAAAwYAAAAAAAAADBAAAAHgAQCAAADJzhmAYyBoLABgCAAiBCAAACCAAgIAAIiIAOCIgPNiKEMRqGeCCm0BGbuAfAwLAOgAABAAAYAAAAAAIAADAAAAAAAAAAAA==

> <PUBCHEM_IUPAC_OPENEYE_NAME>
5-[3-(tert-butylamino)-2-hydroxy-propoxy]tetralin-1-ol

> <PUBCHEM_IUPAC_CAS_NAME>
5-[3-(tert-butylamino)-2-hydroxypropoxy]-1,2,3,4-tetrahydronaphthalen-1-ol

> <PUBCHEM_IUPAC_NAME>
5-[3-(tert-butylamino)-2-hydroxypropoxy]-1,2,3,4-tetrahydronaphthalen-1-ol

> <PUBCHEM_IUPAC_SYSTEMATIC_NAME>
5-[3-(tert-butylamino)-2-oxidanyl-propoxy]-1,2,3,4-tetrahydronaphthalen-1-ol

> <PUBCHEM_IUPAC_TRADITIONAL_NAME>
5-[3-(tert-butylamino)-2-hydroxy-propoxy]tetralin-1-ol

> <PUBCHEM_IUPAC_INCHI>
InChI=1S/C17H27NO3/c1-17(2,3)18-10-12(19)11-21-16-9-5-6-13-14(16)7-4-8-15(13)20/h5-6,9,12,15,18-20H,4,7-8,10-11H2,1-3H3

> <PUBCHEM_IUPAC_INCHIKEY>
LGXDICLRWHYEIS-UHFFFAOYSA-N

> <PUBCHEM_XLOGP3_AA>
1.7

> <PUBCHEM_EXACT_MASS>
293.199094

> <PUBCHEM_MOLECULAR_FORMULA>
C17H27NO3

> <PUBCHEM_MOLECULAR_WEIGHT>
293.40118

> <PUBCHEM_OPENEYE_CAN_SMILES>
CC(C)(C)NCC(COC1=CC=CC2=C1CCCC2O)O

> <PUBCHEM_OPENEYE_ISO_SMILES>
CC(C)(C)NCC(COC1=CC=CC2=C1CCCC2O)O

> <PUBCHEM_CACTVS_TPSA>
61.7

> <PUBCHEM_MONOISOTOPIC_WEIGHT>
293.199094

> <PUBCHEM_TOTAL_CHARGE>
0

> <PUBCHEM_HEAVY_ATOM_COUNT>
21

> <PUBCHEM_ATOM_DEF_STEREO_COUNT>
0

> <PUBCHEM_ATOM_UDEF_STEREO_COUNT>
2

> <PUBCHEM_BOND_DEF_STEREO_COUNT>
0

> <PUBCHEM_BOND_UDEF_STEREO_COUNT>
0

> <PUBCHEM_ISOTOPIC_ATOM_COUNT>
0

> <PUBCHEM_COMPONENT_COUNT>
1

> <PUBCHEM_CACTVS_TAUTO_COUNT>
1

> <PUBCHEM_COORDINATE_TYPE>
1
5
255

> <PUBCHEM_BONDANNOTATIONS>
10  15  8
12  17  8
14  31  3
15  21  8
17  21  8
5  22  3
9  10  8
9  12  8

$$$$

