25201712
  -OEChem-07051213093D

 42 45  0     1  0  0  0  0  0999 V2000
   -0.1732   -0.3315    2.1425 O   0  0  0  0  0  0  0  0  0  0  0  0
    1.4180   -0.3943   -0.5894 N   0  0  1  0  0  0  0  0  0  0  0  0
   -3.7877    1.7523   -0.6393 N   0  0  0  0  0  0  0  0  0  0  0  0
    3.4899   -0.0227    0.9411 C   0  0  1  0  0  0  0  0  0  0  0  0
    3.7955    0.4003   -0.5164 C   0  0  2  0  0  0  0  0  0  0  0  0
    2.2890    0.8161    1.4217 C   0  0  0  0  0  0  0  0  0  0  0  0
    1.1331    0.6544    0.4202 C   0  0  2  0  0  0  0  0  0  0  0  0
    3.0410   -1.4936    0.9670 C   0  0  0  0  0  0  0  0  0  0  0  0
    2.5747    0.0562   -1.4054 C   0  0  0  0  0  0  0  0  0  0  0  0
    1.8074   -1.6652    0.0679 C   0  0  0  0  0  0  0  0  0  0  0  0
   -0.1595    0.3151    1.0976 C   0  0  0  0  0  0  0  0  0  0  0  0
    5.0580   -0.2131   -1.0424 C   0  0  0  0  0  0  0  0  0  0  0  0
   -1.4395    0.7735    0.4877 C   0  0  0  0  0  0  0  0  0  0  0  0
    6.1230    0.4912   -1.4401 C   0  0  0  0  0  0  0  0  0  0  0  0
   -2.4439   -0.1145    0.0797 C   0  0  0  0  0  0  0  0  0  0  0  0
   -1.6117    2.1414    0.3316 C   0  0  0  0  0  0  0  0  0  0  0  0
   -3.6178    0.4253   -0.4866 C   0  0  0  0  0  0  0  0  0  0  0  0
   -2.3002   -1.5048    0.2243 C   0  0  0  0  0  0  0  0  0  0  0  0
   -2.7942    2.5753   -0.2326 C   0  0  0  0  0  0  0  0  0  0  0  0
   -4.6153   -0.4574   -0.8916 C   0  0  0  0  0  0  0  0  0  0  0  0
   -3.3138   -2.3645   -0.1895 C   0  0  0  0  0  0  0  0  0  0  0  0
   -4.4727   -1.8397   -0.7480 C   0  0  0  0  0  0  0  0  0  0  0  0
    4.3532    0.1333    1.5975 H   0  0  0  0  0  0  0  0  0  0  0  0
    3.9108    1.4942   -0.5221 H   0  0  0  0  0  0  0  0  0  0  0  0
    2.5826    1.8728    1.4664 H   0  0  0  0  0  0  0  0  0  0  0  0
    2.0258    0.5282    2.4455 H   0  0  0  0  0  0  0  0  0  0  0  0
    1.0001    1.6130   -0.0968 H   0  0  0  0  0  0  0  0  0  0  0  0
    2.7901   -1.7853    1.9942 H   0  0  0  0  0  0  0  0  0  0  0  0
    3.8467   -2.1587    0.6387 H   0  0  0  0  0  0  0  0  0  0  0  0
    2.2834    0.9411   -1.9868 H   0  0  0  0  0  0  0  0  0  0  0  0
    2.8125   -0.7114   -2.1537 H   0  0  0  0  0  0  0  0  0  0  0  0
    2.0169   -2.4203   -0.7010 H   0  0  0  0  0  0  0  0  0  0  0  0
    0.9763   -2.0838    0.6445 H   0  0  0  0  0  0  0  0  0  0  0  0
    5.1075   -1.2960   -1.1219 H   0  0  0  0  0  0  0  0  0  0  0  0
    7.0047   -0.0138   -1.8195 H   0  0  0  0  0  0  0  0  0  0  0  0
    6.1374    1.5745   -1.3957 H   0  0  0  0  0  0  0  0  0  0  0  0
   -0.8630    2.8599    0.6468 H   0  0  0  0  0  0  0  0  0  0  0  0
   -1.4087   -1.9540    0.6499 H   0  0  0  0  0  0  0  0  0  0  0  0
   -2.9863    3.6335   -0.3766 H   0  0  0  0  0  0  0  0  0  0  0  0
   -5.5328   -0.0715   -1.3323 H   0  0  0  0  0  0  0  0  0  0  0  0
   -3.1989   -3.4383   -0.0778 H   0  0  0  0  0  0  0  0  0  0  0  0
   -5.2685   -2.5030   -1.0739 H   0  0  0  0  0  0  0  0  0  0  0  0
  1 11  2  0  0  0  0
  2  7  1  0  0  0  0
  2  9  1  0  0  0  0
  2 10  1  0  0  0  0
  3 17  1  0  0  0  0
  3 19  2  0  0  0  0
  4  5  1  0  0  0  0
  4  6  1  0  0  0  0
  4  8  1  0  0  0  0
  4 23  1  0  0  0  0
  5  9  1  0  0  0  0
  5 12  1  0  0  0  0
  5 24  1  0  0  0  0
  6  7  1  0  0  0  0
  6 25  1  0  0  0  0
  6 26  1  0  0  0  0
  7 11  1  0  0  0  0
  7 27  1  0  0  0  0
  8 10  1  0  0  0  0
  8 28  1  0  0  0  0
  8 29  1  0  0  0  0
  9 30  1  0  0  0  0
  9 31  1  0  0  0  0
 10 32  1  0  0  0  0
 10 33  1  0  0  0  0
 11 13  1  0  0  0  0
 12 14  2  0  0  0  0
 12 34  1  0  0  0  0
 13 15  1  0  0  0  0
 13 16  2  0  0  0  0
 14 35  1  0  0  0  0
 14 36  1  0  0  0  0
 15 17  1  0  0  0  0
 15 18  2  0  0  0  0
 16 19  1  0  0  0  0
 16 37  1  0  0  0  0
 17 20  2  0  0  0  0
 18 21  1  0  0  0  0
 18 38  1  0  0  0  0
 19 39  1  0  0  0  0
 20 22  1  0  0  0  0
 20 40  1  0  0  0  0
 21 22  2  0  0  0  0
 21 41  1  0  0  0  0
 22 42  1  0  0  0  0
M  END
> <PUBCHEM_COMPOUND_CID>
25201712

> <PUBCHEM_CONFORMER_RMSD>
0.6

> <PUBCHEM_CONFORMER_DIVERSEORDER>
1
27
13
4
18
26
21
10
25
19
16
9
7
8
22
23
15
24
17
11
5
12
6
3
20
14
2

> <PUBCHEM_MMFF94_PARTIAL_CHARGES>
27
1 -0.57
10 0.27
11 0.42
12 -0.29
13 0.09
14 -0.3
16 -0.15
17 0.31
18 -0.15
19 0.16
2 -0.81
20 -0.15
21 -0.15
22 -0.15
3 -0.62
34 0.15
35 0.15
36 0.15
37 0.15
38 0.15
39 0.15
40 0.15
41 0.15
42 0.15
5 0.14
7 0.33
9 0.27

> <PUBCHEM_EFFECTIVE_ROTOR_COUNT>
4.2

> <PUBCHEM_PHARMACOPHORE_FEATURES>
7
1 1 acceptor
1 14 hydrophobe
1 2 cation
1 3 acceptor
6 15 17 18 20 21 22 rings
6 3 13 15 16 17 19 rings
8 2 4 5 6 7 8 9 10 rings

> <PUBCHEM_HEAVY_ATOM_COUNT>
22

> <PUBCHEM_ATOM_DEF_STEREO_COUNT>
2

> <PUBCHEM_ATOM_UDEF_STEREO_COUNT>
1

> <PUBCHEM_BOND_DEF_STEREO_COUNT>
0

> <PUBCHEM_BOND_UDEF_STEREO_COUNT>
0

> <PUBCHEM_ISOTOPIC_ATOM_COUNT>
0

> <PUBCHEM_COMPONENT_COUNT>
1

> <PUBCHEM_CACTVS_TAUTO_COUNT>
2

> <PUBCHEM_CONFORMER_ID>
01808C3000000001

> <PUBCHEM_MMFF94_ENERGY>
74.5062

> <PUBCHEM_FEATURE_SELFOVERLAP>
35.551

> <PUBCHEM_SHAPE_FINGERPRINT>
10366900 7 18261115162112131183
10498660 4 18411423920604011637
10616163 171 18408887338905238095
10759866 29 18342177803869122246
11089746 13 17704069565511708532
11578080 2 17127377940782434173
12173636 292 18194697092574002821
12236239 1 17632581569487650733
12553582 1 18339081489131153307
12670546 177 18272934912084226348
12707595 3 17313111842802163904
12714826 92 18040155110903095091
12788726 201 18411701010867259449
13134695 92 14620252874300084962
13224815 77 17385731295856021523
13760787 19 18341331179767515506
14386348 63 17458060456523656663
14420673 8 8573896570507073596
14617045 38 18334853918520166151
15880784 105 16081377297872795063
15961568 22 18197508324689722756
16752209 62 18269295572300081185
17349148 13 17775568628405198264
17492 89 18342181110894181515
17870717 6 18260545628247885775
1813 80 14273721933562985024
18186145 218 18040156227235876801
18681886 176 18338518539378068524
19862831 5 17775295962585753155
200 152 18272930501126354894
20645477 70 16950860119033515825
20871999 31 18410576188897071853
21033648 144 16558176083057089964
21033650 10 18126542726143961476
22393880 68 18408041831864484364
2297311 6 18335697213725790615
231179 274 14764626404785434508
23175994 123 16877947122593225817
23402539 116 17775563139547848116
23402655 69 18131350847199492404
23557571 272 18259700116501435373
23559900 14 18334586715150048497
2838139 119 17418366983672065516
2871803 45 18334582304239565435
296302 2 15697996327998797834
3082319 5 18272089417601599506
3737641 26 4966794684025154116
474 4 17060613391572669692
6669772 16 17026567955192301072
7495541 125 17313100831281398804
9709674 26 18260835946441296631

> <PUBCHEM_SHAPE_MULTIPOLES>
436.92
10.82
2.14
1.38
6.39
0.19
0.24
-1.33
-5.35
-2.85
-0.05
1.2
0.01
-0.34

> <PUBCHEM_SHAPE_SELFOVERLAP>
962.844

> <PUBCHEM_SHAPE_VOLUME>
229

> <PUBCHEM_COORDINATE_TYPE>
2
5
10

$$$$

