51091020
  -OEChem-06241223013D

 34 36  0     0  0  0  0  0  0999 V2000
    3.3404   -1.1449    0.3859 S   0  0  0  0  0  0  0  0  0  0  0  0
   -5.6619    2.7909   -0.4380 F   0  0  0  0  0  0  0  0  0  0  0  0
   -3.6244    3.4732   -0.1029 F   0  0  0  0  0  0  0  0  0  0  0  0
   -4.2286    1.4033    0.5889 O   0  0  0  0  0  0  0  0  0  0  0  0
   -0.3840   -2.5083   -0.1472 N   0  0  0  0  0  0  0  0  0  0  0  0
   -0.7016   -3.8095   -0.1972 N   0  0  0  0  0  0  0  0  0  0  0  0
    1.4984   -3.5440   -0.4420 N   0  0  0  0  0  0  0  0  0  0  0  0
    0.4535   -4.4380   -0.3779 N   0  0  0  0  0  0  0  0  0  0  0  0
    5.1972    2.3353    0.4118 N   0  0  0  0  0  0  0  0  0  0  0  0
    3.1467    1.5532   -0.2336 N   0  0  0  0  0  0  0  0  0  0  0  0
    5.0809    1.0166    0.6301 N   0  0  0  0  0  0  0  0  0  0  0  0
   -1.3454   -1.5310    0.0357 C   0  0  0  0  0  0  0  0  0  0  0  0
    0.9576   -2.3562   -0.2971 C   0  0  0  0  0  0  0  0  0  0  0  0
    1.6472   -1.0542   -0.2914 C   0  0  0  0  0  0  0  0  0  0  0  0
   -1.1602   -0.2597   -0.5078 C   0  0  0  0  0  0  0  0  0  0  0  0
   -2.4999   -1.8161    0.7648 C   0  0  0  0  0  0  0  0  0  0  0  0
   -3.2833    0.4411    0.4074 C   0  0  0  0  0  0  0  0  0  0  0  0
   -2.1289    0.7263   -0.3220 C   0  0  0  0  0  0  0  0  0  0  0  0
   -3.4688   -0.8301    0.9507 C   0  0  0  0  0  0  0  0  0  0  0  0
    3.8594    0.5596    0.2441 C   0  0  0  0  0  0  0  0  0  0  0  0
    4.0009    2.6116   -0.1115 C   0  0  0  0  0  0  0  0  0  0  0  0
    3.6704    3.9944   -0.5203 C   0  0  0  0  0  0  0  0  0  0  0  0
   -4.3656    2.3864   -0.4305 C   0  0  0  0  0  0  0  0  0  0  0  0
    1.7166   -0.6610   -1.3103 H   0  0  0  0  0  0  0  0  0  0  0  0
    1.1554   -0.3327    0.3638 H   0  0  0  0  0  0  0  0  0  0  0  0
   -0.3423   -0.0003   -1.1682 H   0  0  0  0  0  0  0  0  0  0  0  0
   -2.6682   -2.7944    1.2084 H   0  0  0  0  0  0  0  0  0  0  0  0
   -1.9449    1.7040   -0.7574 H   0  0  0  0  0  0  0  0  0  0  0  0
   -4.3652   -1.0572    1.5214 H   0  0  0  0  0  0  0  0  0  0  0  0
    6.0378    2.8613    0.6347 H   0  0  0  0  0  0  0  0  0  0  0  0
    3.7297    4.6766    0.3337 H   0  0  0  0  0  0  0  0  0  0  0  0
    4.3590    4.3450   -1.2956 H   0  0  0  0  0  0  0  0  0  0  0  0
    2.6539    4.0451   -0.9232 H   0  0  0  0  0  0  0  0  0  0  0  0
   -4.1194    2.0361   -1.4391 H   0  0  0  0  0  0  0  0  0  0  0  0
  1 14  1  0  0  0  0
  1 20  1  0  0  0  0
  2 23  1  0  0  0  0
  3 23  1  0  0  0  0
  4 17  1  0  0  0  0
  4 23  1  0  0  0  0
  5  6  1  0  0  0  0
  5 12  1  0  0  0  0
  5 13  1  0  0  0  0
  6  8  2  0  0  0  0
  7  8  1  0  0  0  0
  7 13  2  0  0  0  0
  9 11  1  0  0  0  0
  9 21  1  0  0  0  0
  9 30  1  0  0  0  0
 10 20  1  0  0  0  0
 10 21  2  0  0  0  0
 11 20  2  0  0  0  0
 12 15  2  0  0  0  0
 12 16  1  0  0  0  0
 13 14  1  0  0  0  0
 14 24  1  0  0  0  0
 14 25  1  0  0  0  0
 15 18  1  0  0  0  0
 15 26  1  0  0  0  0
 16 19  2  0  0  0  0
 16 27  1  0  0  0  0
 17 18  2  0  0  0  0
 17 19  1  0  0  0  0
 18 28  1  0  0  0  0
 19 29  1  0  0  0  0
 21 22  1  0  0  0  0
 22 31  1  0  0  0  0
 22 32  1  0  0  0  0
 22 33  1  0  0  0  0
 23 34  1  0  0  0  0
M  END
> <PUBCHEM_COMPOUND_CID>
51091020

> <PUBCHEM_CONFORMER_RMSD>
0.8

> <PUBCHEM_CONFORMER_DIVERSEORDER>
1
139
148
18
6
29
180
13
108
87
97
105
99
154
52
161
149
200
78
88
121
109
198
129
62
144
89
124
115
7
187
167
91
50
119
38
120
174
95
184
20
9
94
3
133
194
196
137
80
150
122
176
41
60
130
153
126
107
118
171
197
79
159
68
22
70
65
190
98
162
93
114
151
136
71
81
188
17
131
11
155
160
112
84
156
44
33
4
85
24
179
138
110
2
72
199
46
127
164
26
172
134
31
143
23
186
104
27
40
48
101
61
142
165
51
146
36
83
163
195
73
67
5
8
75
12
64
56
123
16
191
25
128
15
193
177
34
135
69
141
147
57
43
14
166
170
96
183
102
90
185
113
86
19
92
103
63
21
175
182
145
42
189
168
30
76
10
173
158
47
100
39
106
181
53
117
37
45
111
59
35
58
152
49
157
32
192
77
55
178
132
66
54
125
74
140
28
169
82
116

> <PUBCHEM_MMFF94_PARTIAL_CHARGES>
27
1 -0.28
10 -0.57
11 -0.71
12 -0.02
13 0.01
14 0.41
15 -0.15
16 -0.15
17 0.08
18 -0.15
19 -0.15
2 -0.34
20 0.57
21 0.01
22 0.18
23 0.96
26 0.15
27 0.15
28 0.15
29 0.15
3 -0.34
30 0.27
4 -0.36
5 0.59
6 -0.42
7 -0.34
9 0.3

> <PUBCHEM_EFFECTIVE_ROTOR_COUNT>
6

> <PUBCHEM_PHARMACOPHORE_FEATURES>
8
1 4 acceptor
1 9 donor
3 10 11 20 cation
3 5 7 13 cation
3 9 10 21 cation
5 5 6 7 8 13 rings
5 9 10 11 20 21 rings
6 12 15 16 17 18 19 rings

> <PUBCHEM_HEAVY_ATOM_COUNT>
23

> <PUBCHEM_ATOM_DEF_STEREO_COUNT>
0

> <PUBCHEM_ATOM_UDEF_STEREO_COUNT>
0

> <PUBCHEM_BOND_DEF_STEREO_COUNT>
0

> <PUBCHEM_BOND_UDEF_STEREO_COUNT>
0

> <PUBCHEM_ISOTOPIC_ATOM_COUNT>
0

> <PUBCHEM_COMPONENT_COUNT>
1

> <PUBCHEM_CACTVS_TAUTO_COUNT>
3

> <PUBCHEM_CONFORMER_ID>
030B964C00000001

> <PUBCHEM_MMFF94_ENERGY>
68.4144

> <PUBCHEM_FEATURE_SELFOVERLAP>
43.344

> <PUBCHEM_SHAPE_FINGERPRINT>
10411042 1 17328867011274084543
10670039 82 17692523417804562252
10937287 8 18409450267272630700
12107183 9 18341063956352071698
12173636 292 18264774255342206398
12403259 118 18340781376777767434
12769317 202 18261961858963788576
12788726 201 18046929085793688095
12925494 130 18267301122374284273
12978246 48 18339921489992204608
13590594 115 17040343091271119315
138480 1 17761492890962903398
13965767 371 18131357440090304190
14123255 52 18409729551821340654
14251764 75 18336817637101711153
14848178 96 18334858376152647329
14950920 106 17274270422536855272
15322535 138 17976272239789833344
15961568 22 16461930087923224096
16988056 13 17977383064397396502
17834072 32 18410576184438476816
20621476 13 18266459995414013176
20715895 44 18338521970324130945
21388113 180 18410571811951318677
21475661 188 18341332300564166690
21860390 5 17900260011362909446
21864079 5 18409732841945767350
23559900 14 18121780801144911435
245318 6 17987502750102548956
27216 239 18270397170454262451
474 4 18263931105969706499
5048184 11 18337389331992973576
7064713 232 18341896234498018484
7808743 9 18121215377580081832
9981440 41 18411983546574558211

> <PUBCHEM_SHAPE_MULTIPOLES>
421.89
10.79
5.7
0.78
3.27
1.04
-0.06
-14.25
-1.37
-0.36
1.23
-0.14
0.03
0.5

> <PUBCHEM_SHAPE_SELFOVERLAP>
893.543

> <PUBCHEM_SHAPE_VOLUME>
239.7

> <PUBCHEM_COORDINATE_TYPE>
2
5
10

$$$$

