5281188
  -OEChem-07051212553D

 28 27  0     0  0  0  0  0  0999 V2000
   -0.0879    0.0809    0.1474 O   0  0  0  0  0  0  0  0  0  0  0  0
    1.2917    1.8966    0.4660 O   0  0  0  0  0  0  0  0  0  0  0  0
   -2.4838    0.0888    0.1697 C   0  0  0  0  0  0  0  0  0  0  0  0
   -1.2368    0.9195    0.3101 C   0  0  0  0  0  0  0  0  0  0  0  0
   -2.6130   -1.0343    1.1672 C   0  0  0  0  0  0  0  0  0  0  0  0
   -3.4330    0.2699   -0.7684 C   0  0  0  0  0  0  0  0  0  0  0  0
    2.2123   -0.2920    0.0531 C   0  0  0  0  0  0  0  0  0  0  0  0
    1.1171    0.7055    0.2506 C   0  0  0  0  0  0  0  0  0  0  0  0
    1.9773   -1.7046    0.4991 C   0  0  0  0  0  0  0  0  0  0  0  0
    3.3478    0.1828   -0.4914 C   0  0  0  0  0  0  0  0  0  0  0  0
   -4.6798   -0.5246   -0.9887 C   0  0  0  0  0  0  0  0  0  0  0  0
    4.5882   -0.5884   -0.8146 C   0  0  0  0  0  0  0  0  0  0  0  0
   -1.2122    1.7109   -0.4486 H   0  0  0  0  0  0  0  0  0  0  0  0
   -1.2155    1.3861    1.3023 H   0  0  0  0  0  0  0  0  0  0  0  0
   -2.0051   -1.8901    0.8564 H   0  0  0  0  0  0  0  0  0  0  0  0
   -2.2574   -0.7053    2.1505 H   0  0  0  0  0  0  0  0  0  0  0  0
   -3.6412   -1.3708    1.3210 H   0  0  0  0  0  0  0  0  0  0  0  0
   -3.2995    1.0971   -1.4640 H   0  0  0  0  0  0  0  0  0  0  0  0
    2.9055   -2.2601    0.6550 H   0  0  0  0  0  0  0  0  0  0  0  0
    1.4439   -1.7195    1.4561 H   0  0  0  0  0  0  0  0  0  0  0  0
    1.3746   -2.2421   -0.2400 H   0  0  0  0  0  0  0  0  0  0  0  0
    3.4082    1.2362   -0.7614 H   0  0  0  0  0  0  0  0  0  0  0  0
   -5.5478    0.0290   -0.6187 H   0  0  0  0  0  0  0  0  0  0  0  0
   -4.8170   -0.6885   -2.0629 H   0  0  0  0  0  0  0  0  0  0  0  0
   -4.6622   -1.5114   -0.5215 H   0  0  0  0  0  0  0  0  0  0  0  0
    4.8699   -0.4054   -1.8567 H   0  0  0  0  0  0  0  0  0  0  0  0
    4.4749   -1.6677   -0.6935 H   0  0  0  0  0  0  0  0  0  0  0  0
    5.4110   -0.2528   -0.1761 H   0  0  0  0  0  0  0  0  0  0  0  0
  1  4  1  0  0  0  0
  1  8  1  0  0  0  0
  2  8  2  0  0  0  0
  3  4  1  0  0  0  0
  3  5  1  0  0  0  0
  3  6  2  0  0  0  0
  4 13  1  0  0  0  0
  4 14  1  0  0  0  0
  5 15  1  0  0  0  0
  5 16  1  0  0  0  0
  5 17  1  0  0  0  0
  6 11  1  0  0  0  0
  6 18  1  0  0  0  0
  7  8  1  0  0  0  0
  7  9  1  0  0  0  0
  7 10  2  0  0  0  0
  9 19  1  0  0  0  0
  9 20  1  0  0  0  0
  9 21  1  0  0  0  0
 10 12  1  0  0  0  0
 10 22  1  0  0  0  0
 11 23  1  0  0  0  0
 11 24  1  0  0  0  0
 11 25  1  0  0  0  0
 12 26  1  0  0  0  0
 12 27  1  0  0  0  0
 12 28  1  0  0  0  0
M  END
> <PUBCHEM_COMPOUND_CID>
5281188

> <PUBCHEM_CONFORMER_RMSD>
0.6

> <PUBCHEM_CONFORMER_DIVERSEORDER>
2
144
105
149
154
67
126
27
107
118
140
17
24
147
70
117
150
106
145
36
80
19
153
115
125
100
136
1
96
146
130
141
79
148
114
64
132
93
133
122
71
65
87
151
46
103
52
81
101
134
82
90
111
3
61
102
94
99
55
72
29
47
120
51
129
137
53
119
34
63
142
60
97
69
44
16
112
110
127
124
32
54
14
135
121
59
152
62
75
43
33
139
49
74
116
109
91
18
57
45
58
42
104
15
21
78
77
83
143
85
23
131
98
113
128
9
8
38
66
50
48
138
89
95
84
35
37
73
88
6
28
41
68
40
22
92
30
123
26
56
39
11
86
20
31
25
76
10
5
13
12
4
108
7

> <PUBCHEM_MMFF94_PARTIAL_CHARGES>
14
1 -0.43
10 -0.29
11 0.14
12 0.14
18 0.15
2 -0.57
22 0.15
3 -0.28
4 0.42
5 0.14
6 -0.29
7 -0.12
8 0.71
9 0.14

> <PUBCHEM_EFFECTIVE_ROTOR_COUNT>
4

> <PUBCHEM_PHARMACOPHORE_FEATURES>
5
1 11 hydrophobe
1 12 hydrophobe
1 2 acceptor
1 5 hydrophobe
1 9 hydrophobe

> <PUBCHEM_HEAVY_ATOM_COUNT>
12

> <PUBCHEM_ATOM_DEF_STEREO_COUNT>
0

> <PUBCHEM_ATOM_UDEF_STEREO_COUNT>
0

> <PUBCHEM_BOND_DEF_STEREO_COUNT>
2

> <PUBCHEM_BOND_UDEF_STEREO_COUNT>
0

> <PUBCHEM_ISOTOPIC_ATOM_COUNT>
0

> <PUBCHEM_COMPONENT_COUNT>
1

> <PUBCHEM_CACTVS_TAUTO_COUNT>
1

> <PUBCHEM_CONFORMER_ID>
005095A400000002

> <PUBCHEM_MMFF94_ENERGY>
15.283

> <PUBCHEM_FEATURE_SELFOVERLAP>
25.373

> <PUBCHEM_SHAPE_FINGERPRINT>
11062470 55 15626502795952157334
12251169 10 7060370418769616876
12500047 106 17775570818917887195
13690532 89 17967253100166312839
14252887 29 17603579747076636766
14576447 43 18334583438100505806
14911166 2 18413388734923923495
14993402 34 18259704505878702366
15477762 27 18187366519280140372
15757776 16 18410295843438789750
15775835 57 13614525151434790453
177051 138 16950568765921908261
17834072 33 16950850210929072532
200 152 18040999535864804003
20201158 50 18342457053799221915
20279233 1 18272374148274277513
20523700 14 17917710197230356291
20645476 183 16128375948256351699
20645477 56 16702301265469140997
20645477 70 18261115144868666533
20671657 53 18260546735975278160
20871999 31 18059581329740626725
21119208 17 17346876758406915686
21256008 61 18186523193914429012
22485316 2 17676768764106561934
23402539 116 18041558148122828636
23402655 69 18270689778487123877
23557571 272 15913030011402109731
42 15 14634866452958305391
449060 23 17749939068312300524
93112 12 17917991650895501053

> <PUBCHEM_SHAPE_MULTIPOLES>
235.22
8.63
1.36
0.99
1.19
0.02
-0.05
1.94
-3.58
-0.48
0.35
0.49
0.14
0.22

> <PUBCHEM_SHAPE_SELFOVERLAP>
445.15

> <PUBCHEM_SHAPE_VOLUME>
146.3

> <PUBCHEM_COORDINATE_TYPE>
2
5
10

$$$$

