47205676
  -OEChem-06241222593D

 36 37  0     0  0  0  0  0  0999 V2000
    4.2459    1.0823    1.4608 O   0  0  0  0  0  0  0  0  0  0  0  0
    1.7524   -0.9387   -0.3439 O   0  0  0  0  0  0  0  0  0  0  0  0
   -5.8046   -0.2494   -0.2300 O   0  0  0  0  0  0  0  0  0  0  0  0
   -4.9495    1.7343    0.5656 O   0  0  0  0  0  0  0  0  0  0  0  0
    3.6940    0.8683   -0.7928 N   0  0  0  0  0  0  0  0  0  0  0  0
    0.0613    0.6982   -0.3761 N   0  0  0  0  0  0  0  0  0  0  0  0
    5.8877    0.2263    0.0097 C   0  0  0  0  0  0  0  0  0  0  0  0
    6.0076   -1.1019   -0.6784 C   0  0  0  0  0  0  0  0  0  0  0  0
    6.3779   -0.9709    0.7699 C   0  0  0  0  0  0  0  0  0  0  0  0
    4.5305    0.7701    0.3105 C   0  0  0  0  0  0  0  0  0  0  0  0
    2.3499    1.3623   -0.7260 C   0  0  0  0  0  0  0  0  0  0  0  0
    1.3809    0.2245   -0.4601 C   0  0  0  0  0  0  0  0  0  0  0  0
   -1.1047   -0.0323   -0.1440 C   0  0  0  0  0  0  0  0  0  0  0  0
   -2.3375    0.6185   -0.0946 C   0  0  0  0  0  0  0  0  0  0  0  0
   -1.0374   -1.4136    0.0383 C   0  0  0  0  0  0  0  0  0  0  0  0
   -3.5030   -0.1121    0.1371 C   0  0  0  0  0  0  0  0  0  0  0  0
   -2.2029   -2.1442    0.2698 C   0  0  0  0  0  0  0  0  0  0  0  0
   -3.4358   -1.4934    0.3193 C   0  0  0  0  0  0  0  0  0  0  0  0
   -4.7886    0.5655    0.1894 C   0  0  0  0  0  0  0  0  0  0  0  0
   -7.1239    0.3062   -0.2242 C   0  0  0  0  0  0  0  0  0  0  0  0
    6.6306    0.9798   -0.2319 H   0  0  0  0  0  0  0  0  0  0  0  0
    5.7223   -1.4316    1.4987 H   0  0  0  0  0  0  0  0  0  0  0  0
    7.4294   -1.0100    1.0267 H   0  0  0  0  0  0  0  0  0  0  0  0
    6.8102   -1.2271   -1.3951 H   0  0  0  0  0  0  0  0  0  0  0  0
    5.1094   -1.6600   -0.9134 H   0  0  0  0  0  0  0  0  0  0  0  0
    4.0420    0.5714   -1.6999 H   0  0  0  0  0  0  0  0  0  0  0  0
    2.2660    2.1059    0.0731 H   0  0  0  0  0  0  0  0  0  0  0  0
    2.1106    1.8272   -1.6872 H   0  0  0  0  0  0  0  0  0  0  0  0
   -0.0722    1.6999   -0.4989 H   0  0  0  0  0  0  0  0  0  0  0  0
   -2.3877    1.6955   -0.2401 H   0  0  0  0  0  0  0  0  0  0  0  0
   -0.1220   -1.9879    0.0152 H   0  0  0  0  0  0  0  0  0  0  0  0
   -2.1512   -3.2195    0.4147 H   0  0  0  0  0  0  0  0  0  0  0  0
   -4.3249   -2.0873    0.5140 H   0  0  0  0  0  0  0  0  0  0  0  0
   -7.8174   -0.4593   -0.5821 H   0  0  0  0  0  0  0  0  0  0  0  0
   -7.1728    1.1683   -0.8959 H   0  0  0  0  0  0  0  0  0  0  0  0
   -7.4081    0.5919    0.7928 H   0  0  0  0  0  0  0  0  0  0  0  0
  1 10  2  0  0  0  0
  2 12  2  0  0  0  0
  3 19  1  0  0  0  0
  3 20  1  0  0  0  0
  4 19  2  0  0  0  0
  5 10  1  0  0  0  0
  5 11  1  0  0  0  0
  5 26  1  0  0  0  0
  6 12  1  0  0  0  0
  6 13  1  0  0  0  0
  6 29  1  0  0  0  0
  7  8  1  0  0  0  0
  7  9  1  0  0  0  0
  7 10  1  0  0  0  0
  7 21  1  0  0  0  0
  8  9  1  0  0  0  0
  8 24  1  0  0  0  0
  8 25  1  0  0  0  0
  9 22  1  0  0  0  0
  9 23  1  0  0  0  0
 11 12  1  0  0  0  0
 11 27  1  0  0  0  0
 11 28  1  0  0  0  0
 13 14  1  0  0  0  0
 13 15  2  0  0  0  0
 14 16  2  0  0  0  0
 14 30  1  0  0  0  0
 15 17  1  0  0  0  0
 15 31  1  0  0  0  0
 16 18  1  0  0  0  0
 16 19  1  0  0  0  0
 17 18  2  0  0  0  0
 17 32  1  0  0  0  0
 18 33  1  0  0  0  0
 20 34  1  0  0  0  0
 20 35  1  0  0  0  0
 20 36  1  0  0  0  0
M  END
> <PUBCHEM_COMPOUND_CID>
47205676

> <PUBCHEM_CONFORMER_RMSD>
0.8

> <PUBCHEM_CONFORMER_DIVERSEORDER>
1
43
138
166
151
73
153
152
118
28
94
137
158
180
172
42
179
49
18
133
169
7
142
27
106
150
40
154
126
101
48
121
141
84
55
71
139
92
103
135
93
45
83
128
178
8
107
78
110
115
5
29
173
170
125
52
81
30
33
10
156
17
174
88
6
160
163
105
22
148
149
117
50
90
65
11
82
112
24
140
167
104
87
147
124
51
15
79
32
119
162
100
96
38
111
157
132
109
67
70
4
176
57
47
134
63
159
161
2
23
20
39
3
59
144
16
136
108
74
61
89
113
37
145
34
177
58
130
54
19
131
75
64
95
175
122
72
129
155
25
9
146
168
165
35
85
21
164
120
44
99
14
86
127
69
31
80
171
97
12
66
91
116
143
76
56
41
102
123
36
26
77
53
114
98
13
46
62
60
68

> <PUBCHEM_MMFF94_PARTIAL_CHARGES>
31
1 -0.57
10 0.63
11 0.36
12 0.57
13 0.12
14 -0.15
15 -0.15
16 0.09
17 -0.15
18 -0.15
19 0.63
2 -0.57
20 0.28
21 0.1
22 0.1
23 0.1
24 0.1
25 0.1
26 0.37
29 0.37
3 -0.43
30 0.15
31 0.15
32 0.15
33 0.15
4 -0.57
5 -0.73
6 -0.55
7 -0.1
8 -0.2
9 -0.2

> <PUBCHEM_EFFECTIVE_ROTOR_COUNT>
8.6

> <PUBCHEM_PHARMACOPHORE_FEATURES>
6
1 1 acceptor
1 2 acceptor
1 4 acceptor
1 5 donor
1 6 donor
6 13 14 15 16 17 18 rings

> <PUBCHEM_HEAVY_ATOM_COUNT>
20

> <PUBCHEM_ATOM_DEF_STEREO_COUNT>
0

> <PUBCHEM_ATOM_UDEF_STEREO_COUNT>
0

> <PUBCHEM_BOND_DEF_STEREO_COUNT>
0

> <PUBCHEM_BOND_UDEF_STEREO_COUNT>
0

> <PUBCHEM_ISOTOPIC_ATOM_COUNT>
0

> <PUBCHEM_COMPONENT_COUNT>
1

> <PUBCHEM_CACTVS_TAUTO_COUNT>
4

> <PUBCHEM_CONFORMER_ID>
02D04D2C00000001

> <PUBCHEM_MMFF94_ENERGY>
54.4585

> <PUBCHEM_FEATURE_SELFOVERLAP>
30.446

> <PUBCHEM_SHAPE_FINGERPRINT>
11089746 13 17894917325444408936
11315181 36 18411413986571450865
12166972 35 18334575719991917208
12236239 1 17846215522985840797
13533116 47 18041278863574638206
13914758 101 17240756332847901595
14251718 22 9223231845122666216
14251758 9 18343013393956139202
14251764 18 18343300340467834566
14251764 46 18410857667741351937
14528608 73 8070028874630222618
15183329 4 18341607131532276182
15531645 54 18411136939779641422
15537594 2 16845579707953223394
1813 80 16845853499470811958
19141452 34 18341613685694899350
19489759 90 18113898260630072689
20281389 69 18344146990244325485
21065198 57 18264208011301661288
21315764 268 18335145267083845656
220451 1 15267063631538212369
23016692 55 18271516560234819110
23402539 116 18333735697719131637
23559900 14 18336265652747798768
23569917 315 18342731902322857811
23622692 88 17917712400685515071
3004659 81 18272927220673291164
335352 9 18342174453424788638
351380 3 17203613683632472672
3545911 37 18411135844272973575
4073 2 17916017972285115602
4340502 62 15357695292932209524
5104073 3 18269548351883213848
5385378 56 18339354296800713123
559249 180 18342459222731663747
9965369 4 18412826910373201187

> <PUBCHEM_SHAPE_MULTIPOLES>
378.15
17.83
1.62
0.84
3.03
0.46
-0.11
-0.63
-1.35
-0.37
-0.1
0.79
-0.11
0.01

> <PUBCHEM_SHAPE_SELFOVERLAP>
785.747

> <PUBCHEM_SHAPE_VOLUME>
215.5

> <PUBCHEM_COORDINATE_TYPE>
2
5
10

$$$$

