10037499
  -OEChem-07051213092D

 29 30  0     1  0  0  0  0  0999 V2000
    5.9529    2.3021    0.0000 F   0  0  0  0  0  0  0  0  0  0  0  0
    5.0298   -1.2857    0.0000 O   0  0  0  0  0  0  0  0  0  0  0  0
    2.4608   -0.9766    0.0000 O   0  0  0  0  0  0  0  0  0  0  0  0
    3.1330   -3.0457    0.0000 O   0  0  0  0  0  0  0  0  0  0  0  0
    2.4888    0.3021    0.0000 O   0  0  0  0  0  0  0  0  0  0  0  0
    4.2208    0.3021    0.0000 N   0  0  0  0  0  0  0  0  0  0  0  0
    3.3548    1.8021    0.0000 N   0  0  0  0  0  0  0  0  0  0  0  0
    4.2208    3.3021    0.0000 N   0  0  0  0  0  0  0  0  0  0  0  0
    3.4118   -1.2857    0.0000 C   0  0  2  0  0  0  0  0  0  0  0  0
    3.7208   -2.2367    0.0000 C   0  0  1  0  0  0  0  0  0  0  0  0
    4.2208   -0.6979    0.0000 C   0  0  1  0  0  0  0  0  0  0  0  0
    4.7208   -2.2367    0.0000 C   0  0  1  0  0  0  0  0  0  0  0  0
    5.3086   -3.0457    0.0000 C   0  0  0  0  0  0  0  0  0  0  0  0
    5.0868    0.8021    0.0000 C   0  0  0  0  0  0  0  0  0  0  0  0
    3.3548    0.8021    0.0000 C   0  0  0  0  0  0  0  0  0  0  0  0
    5.0868    1.8021    0.0000 C   0  0  0  0  0  0  0  0  0  0  0  0
    4.2208    2.3021    0.0000 C   0  0  0  0  0  0  0  0  0  0  0  0
    2.9734   -1.7241    0.0000 H   0  0  0  0  0  0  0  0  0  0  0  0
    3.1085   -2.1397    0.0000 H   0  0  0  0  0  0  0  0  0  0  0  0
    3.6684   -0.4164    0.0000 H   0  0  0  0  0  0  0  0  0  0  0  0
    5.3332   -2.1397    0.0000 H   0  0  0  0  0  0  0  0  0  0  0  0
    4.8070   -3.4102    0.0000 H   0  0  0  0  0  0  0  0  0  0  0  0
    5.6730   -3.5473    0.0000 H   0  0  0  0  0  0  0  0  0  0  0  0
    5.8102   -2.6813    0.0000 H   0  0  0  0  0  0  0  0  0  0  0  0
    2.0000   -1.3915    0.0000 H   0  0  0  0  0  0  0  0  0  0  0  0
    3.3852   -3.6121    0.0000 H   0  0  0  0  0  0  0  0  0  0  0  0
    5.6238    0.4921    0.0000 H   0  0  0  0  0  0  0  0  0  0  0  0
    3.6839    3.6121    0.0000 H   0  0  0  0  0  0  0  0  0  0  0  0
    4.7578    3.6121    0.0000 H   0  0  0  0  0  0  0  0  0  0  0  0
  1 16  1  0  0  0  0
  2 11  1  0  0  0  0
  2 12  1  0  0  0  0
  9  3  1  1  0  0  0
  3 25  1  0  0  0  0
 10  4  1  1  0  0  0
  4 26  1  0  0  0  0
  5 15  2  0  0  0  0
 11  6  1  6  0  0  0
  6 14  1  0  0  0  0
  6 15  1  0  0  0  0
  7 15  1  0  0  0  0
  7 17  2  0  0  0  0
  8 17  1  0  0  0  0
  8 28  1  0  0  0  0
  8 29  1  0  0  0  0
  9 10  1  0  0  0  0
  9 11  1  0  0  0  0
  9 18  1  0  0  0  0
 10 12  1  0  0  0  0
 10 19  1  0  0  0  0
 11 20  1  0  0  0  0
 12 13  1  6  0  0  0
 12 21  1  0  0  0  0
 13 22  1  0  0  0  0
 13 23  1  0  0  0  0
 13 24  1  0  0  0  0
 14 16  2  0  0  0  0
 14 27  1  0  0  0  0
 16 17  1  0  0  0  0
M  END
> <PUBCHEM_COMPOUND_CID>
10037499

> <PUBCHEM_COMPOUND_CANONICALIZED>
1

> <PUBCHEM_CACTVS_COMPLEXITY>
411

> <PUBCHEM_CACTVS_HBOND_ACCEPTOR>
5

> <PUBCHEM_CACTVS_HBOND_DONOR>
3

> <PUBCHEM_CACTVS_ROTATABLE_BOND>
1

> <PUBCHEM_CACTVS_SUBSKEYS>
AAADccBzOQAAAAAAAAAAAAAAAAAAASAAAAAgAAAAAAAAAAAAAAAAHwAQCAAACBThgAYDAANABgCoAAJmdACAAAEAAAAAAAAIABCDEAIAgAAOQAAHBgITAACwAAAAAAAAAAAAAAAAAAAAAAAAAAAAAAAAAA==

> <PUBCHEM_IUPAC_OPENEYE_NAME>
4-amino-1-[(2R,3R,4S,5R)-3,4-dihydroxy-5-methyl-tetrahydrofuran-2-yl]-5-fluoro-pyrimidin-2-one

> <PUBCHEM_IUPAC_CAS_NAME>
4-amino-1-[(2R,3R,4S,5R)-3,4-dihydroxy-5-methyl-2-oxolanyl]-5-fluoro-2-pyrimidinone

> <PUBCHEM_IUPAC_NAME>
4-amino-1-[(2R,3R,4S,5R)-3,4-dihydroxy-5-methyloxolan-2-yl]-5-fluoropyrimidin-2-one

> <PUBCHEM_IUPAC_SYSTEMATIC_NAME>
4-azanyl-5-fluoranyl-1-[(2R,3R,4S,5R)-5-methyl-3,4-bis(oxidanyl)oxolan-2-yl]pyrimidin-2-one

> <PUBCHEM_IUPAC_TRADITIONAL_NAME>
4-amino-1-[(2R,3R,4S,5R)-3,4-dihydroxy-5-methyl-tetrahydrofuran-2-yl]-5-fluoro-pyrimidin-2-one

> <PUBCHEM_IUPAC_INCHI>
InChI=1S/C9H12FN3O4/c1-3-5(14)6(15)8(17-3)13-2-4(10)7(11)12-9(13)16/h2-3,5-6,8,14-15H,1H3,(H2,11,12,16)/t3-,5-,6-,8-/m1/s1

> <PUBCHEM_IUPAC_INCHIKEY>
YSNABXSEHNLERR-ZIYNGMLESA-N

> <PUBCHEM_XLOGP3>
-1.6

> <PUBCHEM_EXACT_MASS>
245.081184

> <PUBCHEM_MOLECULAR_FORMULA>
C9H12FN3O4

> <PUBCHEM_MOLECULAR_WEIGHT>
245.207683

> <PUBCHEM_OPENEYE_CAN_SMILES>
CC1C(C(C(O1)N2C=C(C(=NC2=O)N)F)O)O

> <PUBCHEM_OPENEYE_ISO_SMILES>
C[C@@H]1[C@H]([C@H]([C@@H](O1)N2C=C(C(=NC2=O)N)F)O)O

> <PUBCHEM_CACTVS_TPSA>
108

> <PUBCHEM_MONOISOTOPIC_WEIGHT>
245.081184

> <PUBCHEM_TOTAL_CHARGE>
0

> <PUBCHEM_HEAVY_ATOM_COUNT>
17

> <PUBCHEM_ATOM_DEF_STEREO_COUNT>
4

> <PUBCHEM_ATOM_UDEF_STEREO_COUNT>
0

> <PUBCHEM_BOND_DEF_STEREO_COUNT>
0

> <PUBCHEM_BOND_UDEF_STEREO_COUNT>
0

> <PUBCHEM_ISOTOPIC_ATOM_COUNT>
0

> <PUBCHEM_COMPONENT_COUNT>
1

> <PUBCHEM_CACTVS_TAUTO_COUNT>
3

> <PUBCHEM_COORDINATE_TYPE>
1
5
255

> <PUBCHEM_BONDANNOTATIONS>
12  13  6
14  16  8
16  17  8
9  3  5
10  4  5
11  6  6
6  14  8
6  15  8
7  15  8
7  17  8

$$$$

