582785
  -OEChem-06241222442D

 24 25  0     0  0  0  0  0  0999 V2000
    5.4921    2.2586    0.0000 Cl  0  0  0  0  0  0  0  0  0  0  0  0
    4.5981    0.4798    0.0000 O   0  0  0  0  0  0  0  0  0  0  0  0
    2.0000   -4.0202    0.0000 O   0  5  0  0  0  0  0  0  0  0  0  0
    3.7320   -4.0202    0.0000 O   0  0  0  0  0  0  0  0  0  0  0  0
    2.8660    0.4798    0.0000 N   0  0  0  0  0  0  0  0  0  0  0  0
    2.8660   -3.5202    0.0000 N   0  3  0  0  0  0  0  0  0  0  0  0
    2.9230    2.5676    0.0000 N   0  0  0  0  0  0  0  0  0  0  0  0
    3.2320    3.5186    0.0000 N   0  0  0  0  0  0  0  0  0  0  0  0
    4.2320    3.5186    0.0000 N   0  0  0  0  0  0  0  0  0  0  0  0
    2.8660   -0.5202    0.0000 C   0  0  0  0  0  0  0  0  0  0  0  0
    2.0000   -1.0202    0.0000 C   0  0  0  0  0  0  0  0  0  0  0  0
    3.7320   -1.0202    0.0000 C   0  0  0  0  0  0  0  0  0  0  0  0
    2.8660   -2.5202    0.0000 C   0  0  0  0  0  0  0  0  0  0  0  0
    2.0000   -2.0202    0.0000 C   0  0  0  0  0  0  0  0  0  0  0  0
    3.7320   -2.0202    0.0000 C   0  0  0  0  0  0  0  0  0  0  0  0
    3.7320    0.9798    0.0000 C   0  0  0  0  0  0  0  0  0  0  0  0
    3.7320    1.9798    0.0000 C   0  0  0  0  0  0  0  0  0  0  0  0
    4.5411    2.5676    0.0000 C   0  0  0  0  0  0  0  0  0  0  0  0
    1.4631   -0.7102    0.0000 H   0  0  0  0  0  0  0  0  0  0  0  0
    4.2690   -0.7102    0.0000 H   0  0  0  0  0  0  0  0  0  0  0  0
    2.3291    0.7898    0.0000 H   0  0  0  0  0  0  0  0  0  0  0  0
    1.4631   -2.3302    0.0000 H   0  0  0  0  0  0  0  0  0  0  0  0
    4.2690   -2.3302    0.0000 H   0  0  0  0  0  0  0  0  0  0  0  0
    2.8676    4.0202    0.0000 H   0  0  0  0  0  0  0  0  0  0  0  0
  1 18  1  0  0  0  0
  2 16  2  0  0  0  0
  3  6  1  0  0  0  0
  4  6  2  0  0  0  0
  5 10  1  0  0  0  0
  5 16  1  0  0  0  0
  5 21  1  0  0  0  0
  6 13  1  0  0  0  0
  7  8  1  0  0  0  0
  7 17  2  0  0  0  0
  8  9  1  0  0  0  0
  8 24  1  0  0  0  0
  9 18  2  0  0  0  0
 10 11  2  0  0  0  0
 10 12  1  0  0  0  0
 11 14  1  0  0  0  0
 11 19  1  0  0  0  0
 12 15  2  0  0  0  0
 12 20  1  0  0  0  0
 13 14  2  0  0  0  0
 13 15  1  0  0  0  0
 14 22  1  0  0  0  0
 15 23  1  0  0  0  0
 16 17  1  0  0  0  0
 17 18  1  0  0  0  0
M  CHG  2   3  -1   6   1
M  END
> <PUBCHEM_COMPOUND_CID>
582785

> <PUBCHEM_COMPOUND_CANONICALIZED>
1

> <PUBCHEM_CACTVS_COMPLEXITY>
329

> <PUBCHEM_CACTVS_HBOND_ACCEPTOR>
5

> <PUBCHEM_CACTVS_HBOND_DONOR>
2

> <PUBCHEM_CACTVS_ROTATABLE_BOND>
2

> <PUBCHEM_CACTVS_SUBSKEYS>
AAADcYBzsAAEAAAAAAAAAAAAAAAAAWAAAAAwAAAAAAAAAAABwAAAHgIcAAAACAqBliAwwJLSQACrASVyUwCCBAQnFgA4uAGgdsoIYCrA0ZGUIIhglADIzEcQAAAAAACAAAAAAAAAAQAAAAAAAAAAAAAAAA==

> <PUBCHEM_IUPAC_OPENEYE_NAME>
5-chloro-N-(4-nitrophenyl)-2H-triazole-4-carboxamide

> <PUBCHEM_IUPAC_CAS_NAME>
5-chloro-N-(4-nitrophenyl)-2H-triazole-4-carboxamide

> <PUBCHEM_IUPAC_NAME>
5-chloro-N-(4-nitrophenyl)-2H-triazole-4-carboxamide

> <PUBCHEM_IUPAC_SYSTEMATIC_NAME>
5-chloranyl-N-(4-nitrophenyl)-2H-1,2,3-triazole-4-carboxamide

> <PUBCHEM_IUPAC_TRADITIONAL_NAME>
5-chloro-N-(4-nitrophenyl)-2H-triazole-4-carboxamide

> <PUBCHEM_IUPAC_INCHI>
InChI=1S/C9H6ClN5O3/c10-8-7(12-14-13-8)9(16)11-5-1-3-6(4-2-5)15(17)18/h1-4H,(H,11,16)(H,12,13,14)

> <PUBCHEM_IUPAC_INCHIKEY>
MZYLHSUENGDQMV-UHFFFAOYSA-N

> <PUBCHEM_XLOGP3_AA>
1.6

> <PUBCHEM_EXACT_MASS>
267.015917

> <PUBCHEM_MOLECULAR_FORMULA>
C9H6ClN5O3

> <PUBCHEM_MOLECULAR_WEIGHT>
267.62864

> <PUBCHEM_OPENEYE_CAN_SMILES>
C1=CC(=CC=C1NC(=O)C2=NNN=C2Cl)[N+](=O)[O-]

> <PUBCHEM_OPENEYE_ISO_SMILES>
C1=CC(=CC=C1NC(=O)C2=NNN=C2Cl)[N+](=O)[O-]

> <PUBCHEM_CACTVS_TPSA>
117

> <PUBCHEM_MONOISOTOPIC_WEIGHT>
267.015917

> <PUBCHEM_TOTAL_CHARGE>
0

> <PUBCHEM_HEAVY_ATOM_COUNT>
18

> <PUBCHEM_ATOM_DEF_STEREO_COUNT>
0

> <PUBCHEM_ATOM_UDEF_STEREO_COUNT>
0

> <PUBCHEM_BOND_DEF_STEREO_COUNT>
0

> <PUBCHEM_BOND_UDEF_STEREO_COUNT>
0

> <PUBCHEM_ISOTOPIC_ATOM_COUNT>
0

> <PUBCHEM_COMPONENT_COUNT>
1

> <PUBCHEM_CACTVS_TAUTO_COUNT>
9

> <PUBCHEM_COORDINATE_TYPE>
1
5
255

> <PUBCHEM_BONDANNOTATIONS>
10  11  8
10  12  8
11  14  8
12  15  8
13  14  8
13  15  8
17  18  8
7  17  8
7  8  8
8  9  8
9  18  8

$$$$

