14019219
  -OEChem-07051213082D

 78 77  0     0  0  0  0  0  0999 V2000
    5.4641   -3.5000    0.0000 C   0  0  0  0  0  0  0  0  0  0  0  0
   14.9904    2.0000    0.0000 C   0  0  0  0  0  0  0  0  0  0  0  0
   14.1244   -0.5000    0.0000 C   0  0  0  0  0  0  0  0  0  0  0  0
    8.0622   -4.0000    0.0000 C   0  0  0  0  0  0  0  0  0  0  0  0
    6.3301   -4.0000    0.0000 C   0  0  0  0  0  0  0  0  0  0  0  0
   14.9904    1.0000    0.0000 C   0  0  0  0  0  0  0  0  0  0  0  0
   13.2583   -1.0000    0.0000 C   0  0  0  0  0  0  0  0  0  0  0  0
    8.9282   -3.5000    0.0000 C   0  0  0  0  0  0  0  0  0  0  0  0
    7.1962   -3.5000    0.0000 C   0  0  0  0  0  0  0  0  0  0  0  0
   14.1244    0.5000    0.0000 C   0  0  0  0  0  0  0  0  0  0  0  0
    4.5981   -4.0000    0.0000 C   0  0  0  0  0  0  0  0  0  0  0  0
   15.8564    2.5000    0.0000 C   0  0  0  0  0  0  0  0  0  0  0  0
    9.7942   -4.0000    0.0000 C   0  0  0  0  0  0  0  0  0  0  0  0
   13.2583   -2.0000    0.0000 C   0  0  0  0  0  0  0  0  0  0  0  0
    6.3301   -5.0000    0.0000 C   0  0  0  0  0  0  0  0  0  0  0  0
   15.8564    0.5000    0.0000 C   0  0  0  0  0  0  0  0  0  0  0  0
    3.7320   -3.5000    0.0000 C   0  0  0  0  0  0  0  0  0  0  0  0
   15.8564    3.5000    0.0000 C   0  0  0  0  0  0  0  0  0  0  0  0
   10.6603   -3.5000    0.0000 C   0  0  0  0  0  0  0  0  0  0  0  0
   12.3923   -2.5000    0.0000 C   0  0  0  0  0  0  0  0  0  0  0  0
   14.1244   -2.5000    0.0000 C   0  0  0  0  0  0  0  0  0  0  0  0
    9.7942   -5.0000    0.0000 C   0  0  0  0  0  0  0  0  0  0  0  0
    2.8660   -4.0000    0.0000 C   0  0  0  0  0  0  0  0  0  0  0  0
   16.7224    4.0000    0.0000 C   0  0  0  0  0  0  0  0  0  0  0  0
   11.5263   -4.0000    0.0000 C   0  0  0  0  0  0  0  0  0  0  0  0
   12.3923   -3.5000    0.0000 C   0  0  0  0  0  0  0  0  0  0  0  0
   16.7224    5.0000    0.0000 C   0  0  0  0  0  0  0  0  0  0  0  0
    2.0000   -3.5000    0.0000 C   0  0  0  0  0  0  0  0  0  0  0  0
   17.5885    3.5000    0.0000 C   0  0  0  0  0  0  0  0  0  0  0  0
    2.8660   -5.0000    0.0000 C   0  0  0  0  0  0  0  0  0  0  0  0
    5.8626   -3.0250    0.0000 H   0  0  0  0  0  0  0  0  0  0  0  0
    5.0656   -3.0250    0.0000 H   0  0  0  0  0  0  0  0  0  0  0  0
   14.7783    2.5826    0.0000 H   0  0  0  0  0  0  0  0  0  0  0  0
   14.3798    1.8923    0.0000 H   0  0  0  0  0  0  0  0  0  0  0  0
    7.6636   -4.4750    0.0000 H   0  0  0  0  0  0  0  0  0  0  0  0
    8.4607   -4.4750    0.0000 H   0  0  0  0  0  0  0  0  0  0  0  0
   14.3364   -1.0826    0.0000 H   0  0  0  0  0  0  0  0  0  0  0  0
   14.7349   -0.3923    0.0000 H   0  0  0  0  0  0  0  0  0  0  0  0
   13.0463   -0.4174    0.0000 H   0  0  0  0  0  0  0  0  0  0  0  0
   12.6477   -1.1077    0.0000 H   0  0  0  0  0  0  0  0  0  0  0  0
    9.3267   -3.0250    0.0000 H   0  0  0  0  0  0  0  0  0  0  0  0
    8.5297   -3.0250    0.0000 H   0  0  0  0  0  0  0  0  0  0  0  0
   13.5874    0.8100    0.0000 H   0  0  0  0  0  0  0  0  0  0  0  0
    7.1962   -2.8800    0.0000 H   0  0  0  0  0  0  0  0  0  0  0  0
   16.0685    1.9174    0.0000 H   0  0  0  0  0  0  0  0  0  0  0  0
   16.4670    2.6077    0.0000 H   0  0  0  0  0  0  0  0  0  0  0  0
    4.1996   -4.4750    0.0000 H   0  0  0  0  0  0  0  0  0  0  0  0
    4.9966   -4.4750    0.0000 H   0  0  0  0  0  0  0  0  0  0  0  0
    5.7101   -5.0000    0.0000 H   0  0  0  0  0  0  0  0  0  0  0  0
   15.5464   -0.0369    0.0000 H   0  0  0  0  0  0  0  0  0  0  0  0
   16.3933    0.1900    0.0000 H   0  0  0  0  0  0  0  0  0  0  0  0
   16.1664    1.0369    0.0000 H   0  0  0  0  0  0  0  0  0  0  0  0
    6.3301   -5.6200    0.0000 H   0  0  0  0  0  0  0  0  0  0  0  0
    6.9501   -5.0000    0.0000 H   0  0  0  0  0  0  0  0  0  0  0  0
    3.7320   -2.8800    0.0000 H   0  0  0  0  0  0  0  0  0  0  0  0
   15.3195    3.8100    0.0000 H   0  0  0  0  0  0  0  0  0  0  0  0
   11.8554   -2.1900    0.0000 H   0  0  0  0  0  0  0  0  0  0  0  0
   10.6603   -2.8800    0.0000 H   0  0  0  0  0  0  0  0  0  0  0  0
    9.1742   -5.0000    0.0000 H   0  0  0  0  0  0  0  0  0  0  0  0
    9.7942   -5.6200    0.0000 H   0  0  0  0  0  0  0  0  0  0  0  0
   10.4142   -5.0000    0.0000 H   0  0  0  0  0  0  0  0  0  0  0  0
   13.8144   -3.0369    0.0000 H   0  0  0  0  0  0  0  0  0  0  0  0
   14.6613   -2.8100    0.0000 H   0  0  0  0  0  0  0  0  0  0  0  0
   14.4344   -1.9631    0.0000 H   0  0  0  0  0  0  0  0  0  0  0  0
   11.5263   -4.6200    0.0000 H   0  0  0  0  0  0  0  0  0  0  0  0
   12.9292   -3.8100    0.0000 H   0  0  0  0  0  0  0  0  0  0  0  0
    2.3100   -2.9631    0.0000 H   0  0  0  0  0  0  0  0  0  0  0  0
    1.4631   -3.1900    0.0000 H   0  0  0  0  0  0  0  0  0  0  0  0
    1.6900   -4.0369    0.0000 H   0  0  0  0  0  0  0  0  0  0  0  0
   17.3424    5.0000    0.0000 H   0  0  0  0  0  0  0  0  0  0  0  0
   16.7224    5.6200    0.0000 H   0  0  0  0  0  0  0  0  0  0  0  0
   16.1024    5.0000    0.0000 H   0  0  0  0  0  0  0  0  0  0  0  0
   17.2785    2.9631    0.0000 H   0  0  0  0  0  0  0  0  0  0  0  0
   18.1254    3.1900    0.0000 H   0  0  0  0  0  0  0  0  0  0  0  0
   17.8985    4.0369    0.0000 H   0  0  0  0  0  0  0  0  0  0  0  0
    2.2460   -5.0000    0.0000 H   0  0  0  0  0  0  0  0  0  0  0  0
    2.8660   -5.6200    0.0000 H   0  0  0  0  0  0  0  0  0  0  0  0
    3.4860   -5.0000    0.0000 H   0  0  0  0  0  0  0  0  0  0  0  0
  1  5  1  0  0  0  0
  1 11  1  0  0  0  0
  1 31  1  0  0  0  0
  1 32  1  0  0  0  0
  2  6  1  0  0  0  0
  2 12  1  0  0  0  0
  2 33  1  0  0  0  0
  2 34  1  0  0  0  0
  3  7  1  0  0  0  0
  3 10  1  0  0  0  0
  3 37  1  0  0  0  0
  3 38  1  0  0  0  0
  4  8  1  0  0  0  0
  4  9  1  0  0  0  0
  4 35  1  0  0  0  0
  4 36  1  0  0  0  0
  5  9  2  0  0  0  0
  5 15  1  0  0  0  0
  6 10  2  0  0  0  0
  6 16  1  0  0  0  0
  7 14  1  0  0  0  0
  7 39  1  0  0  0  0
  7 40  1  0  0  0  0
  8 13  1  0  0  0  0
  8 41  1  0  0  0  0
  8 42  1  0  0  0  0
  9 44  1  0  0  0  0
 10 43  1  0  0  0  0
 11 17  1  0  0  0  0
 11 47  1  0  0  0  0
 11 48  1  0  0  0  0
 12 18  1  0  0  0  0
 12 45  1  0  0  0  0
 12 46  1  0  0  0  0
 13 19  2  0  0  0  0
 13 22  1  0  0  0  0
 14 20  2  0  0  0  0
 14 21  1  0  0  0  0
 15 49  1  0  0  0  0
 15 53  1  0  0  0  0
 15 54  1  0  0  0  0
 16 50  1  0  0  0  0
 16 51  1  0  0  0  0
 16 52  1  0  0  0  0
 17 23  2  0  0  0  0
 17 55  1  0  0  0  0
 18 24  2  0  0  0  0
 18 56  1  0  0  0  0
 19 25  1  0  0  0  0
 19 58  1  0  0  0  0
 20 26  1  0  0  0  0
 20 57  1  0  0  0  0
 21 62  1  0  0  0  0
 21 63  1  0  0  0  0
 21 64  1  0  0  0  0
 22 59  1  0  0  0  0
 22 60  1  0  0  0  0
 22 61  1  0  0  0  0
 23 28  1  0  0  0  0
 23 30  1  0  0  0  0
 24 27  1  0  0  0  0
 24 29  1  0  0  0  0
 25 26  2  0  0  0  0
 25 65  1  0  0  0  0
 26 66  1  0  0  0  0
 27 70  1  0  0  0  0
 27 71  1  0  0  0  0
 27 72  1  0  0  0  0
 28 67  1  0  0  0  0
 28 68  1  0  0  0  0
 28 69  1  0  0  0  0
 29 73  1  0  0  0  0
 29 74  1  0  0  0  0
 29 75  1  0  0  0  0
 30 76  1  0  0  0  0
 30 77  1  0  0  0  0
 30 78  1  0  0  0  0
M  END
> <PUBCHEM_COMPOUND_CID>
14019219

> <PUBCHEM_COMPOUND_CANONICALIZED>
1

> <PUBCHEM_CACTVS_COMPLEXITY>
616

> <PUBCHEM_CACTVS_HBOND_ACCEPTOR>
0

> <PUBCHEM_CACTVS_HBOND_DONOR>
0

> <PUBCHEM_CACTVS_ROTATABLE_BOND>
14

> <PUBCHEM_CACTVS_SUBSKEYS>
AAADcfB4AAAAAAAAAAAAAAAAAAAAAAAAAAAAAAAAAAAAAAAAAAAAGAAAAAAADACAAAACAAAAAACAAiBCAAAAAAAgAAAICAAAAAgIAAIAAQAAAAAAgAAIgAIAAAAAAAAAAAAAAAAAAAAAAAAAAAAAAAAAAA==

> <PUBCHEM_IUPAC_OPENEYE_NAME>
(6E,10E,12Z,14E,18E)-2,6,10,15,19,23-hexamethyltetracosa-2,6,10,12,14,18,22-heptaene

> <PUBCHEM_IUPAC_CAS_NAME>
(6E,10E,12Z,14E,18E)-2,6,10,15,19,23-hexamethyltetracosa-2,6,10,12,14,18,22-heptaene

> <PUBCHEM_IUPAC_NAME>
(6E,10E,12Z,14E,18E)-2,6,10,15,19,23-hexamethyltetracosa-2,6,10,12,14,18,22-heptaene

> <PUBCHEM_IUPAC_SYSTEMATIC_NAME>
(6E,10E,12Z,14E,18E)-2,6,10,15,19,23-hexamethyltetracosa-2,6,10,12,14,18,22-heptaene

> <PUBCHEM_IUPAC_TRADITIONAL_NAME>
(6E,10E,12Z,14E,18E)-2,6,10,15,19,23-hexamethyltetracosa-2,6,10,12,14,18,22-heptaene

> <PUBCHEM_IUPAC_INCHI>
InChI=1S/C30H48/c1-25(2)15-11-19-29(7)23-13-21-27(5)17-9-10-18-28(6)22-14-24-30(8)20-12-16-26(3)4/h9-10,15-18,23-24H,11-14,19-22H2,1-8H3/b10-9-,27-17+,28-18+,29-23+,30-24+

> <PUBCHEM_IUPAC_INCHIKEY>
NXJJBCPAGHGVJC-LIKFLUFESA-N

> <PUBCHEM_XLOGP3_AA>
11.6

> <PUBCHEM_EXACT_MASS>
408.375602

> <PUBCHEM_MOLECULAR_FORMULA>
C30H48

> <PUBCHEM_MOLECULAR_WEIGHT>
408.70212

> <PUBCHEM_OPENEYE_CAN_SMILES>
CC(=CCCC(=CCCC(=CC=CC=C(C)CCC=C(C)CCC=C(C)C)C)C)C

> <PUBCHEM_OPENEYE_ISO_SMILES>
CC(=CCC/C(=C/CC/C(=C/C=C\C=C(\CC/C=C(/CCC=C(C)C)\C)/C)/C)/C)C

> <PUBCHEM_CACTVS_TPSA>
0

> <PUBCHEM_MONOISOTOPIC_WEIGHT>
408.375602

> <PUBCHEM_TOTAL_CHARGE>
0

> <PUBCHEM_HEAVY_ATOM_COUNT>
30

> <PUBCHEM_ATOM_DEF_STEREO_COUNT>
0

> <PUBCHEM_ATOM_UDEF_STEREO_COUNT>
0

> <PUBCHEM_BOND_DEF_STEREO_COUNT>
5

> <PUBCHEM_BOND_UDEF_STEREO_COUNT>
0

> <PUBCHEM_ISOTOPIC_ATOM_COUNT>
0

> <PUBCHEM_COMPONENT_COUNT>
1

> <PUBCHEM_CACTVS_TAUTO_COUNT>
1

> <PUBCHEM_COORDINATE_TYPE>
1
5
255

$$$$

