11954111
  -OEChem-07051213062D

 53 56  0     1  0  0  0  0  0999 V2000
    4.1166   -2.0684    0.0000 O   0  0  0  0  0  0  0  0  0  0  0  0
   10.4020    2.6066    0.0000 O   0  0  0  0  0  0  0  0  0  0  0  0
    7.4131    0.3513    0.0000 C   0  0  2  0  0  0  0  0  0  0  0  0
    6.5031   -0.1555    0.0000 C   0  0  2  0  0  0  0  0  0  0  0  0
    8.2791   -0.1487    0.0000 C   0  0  2  0  0  0  0  0  0  0  0  0
    9.1451    0.3513    0.0000 C   0  0  1  0  0  0  0  0  0  0  0  0
    6.4950   -1.1971    0.0000 C   0  0  1  0  0  0  0  0  0  0  0  0
    9.1451    1.3513    0.0000 C   0  0  2  0  0  0  0  0  0  0  0  0
    7.4131    1.3513    0.0000 C   0  0  0  0  0  0  0  0  0  0  0  0
    8.2952   -1.1902    0.0000 C   0  0  0  0  0  0  0  0  0  0  0  0
    7.3971   -1.7179    0.0000 C   0  0  0  0  0  0  0  0  0  0  0  0
    8.2791    1.8513    0.0000 C   0  0  0  0  0  0  0  0  0  0  0  0
    5.5762    0.4086    0.0000 C   0  0  0  0  0  0  0  0  0  0  0  0
   10.0913    0.0466    0.0000 C   0  0  0  0  0  0  0  0  0  0  0  0
    5.5596   -1.7468    0.0000 C   0  0  0  0  0  0  0  0  0  0  0  0
    6.5108    0.8444    0.0000 C   0  0  0  0  0  0  0  0  0  0  0  0
   10.0913    1.6560    0.0000 C   0  0  0  0  0  0  0  0  0  0  0  0
    4.6283   -0.1194    0.0000 C   0  0  0  0  0  0  0  0  0  0  0  0
    4.6200   -1.2044    0.0000 C   0  0  2  0  0  0  0  0  0  0  0  0
   10.6749    0.8513    0.0000 C   0  0  0  0  0  0  0  0  0  0  0  0
    9.1451    2.3513    0.0000 C   0  0  0  0  0  0  0  0  0  0  0  0
    3.6200   -1.2005    0.0000 C   0  0  0  0  0  0  0  0  0  0  0  0
    2.6200   -1.1966    0.0000 C   0  0  0  0  0  0  0  0  0  0  0  0
    8.1492    0.7763    0.0000 H   0  0  0  0  0  0  0  0  0  0  0  0
    9.0185   -0.5680    0.0000 H   0  0  0  0  0  0  0  0  0  0  0  0
    9.2351   -0.4939    0.0000 H   0  0  0  0  0  0  0  0  0  0  0  0
    6.4983   -2.0471    0.0000 H   0  0  0  0  0  0  0  0  0  0  0  0
    7.2010    1.9339    0.0000 H   0  0  0  0  0  0  0  0  0  0  0  0
    6.8025    1.2437    0.0000 H   0  0  0  0  0  0  0  0  0  0  0  0
    8.5132   -1.7706    0.0000 H   0  0  0  0  0  0  0  0  0  0  0  0
    8.9043   -1.0747    0.0000 H   0  0  0  0  0  0  0  0  0  0  0  0
    6.9998   -2.1939    0.0000 H   0  0  0  0  0  0  0  0  0  0  0  0
    7.7981   -2.1908    0.0000 H   0  0  0  0  0  0  0  0  0  0  0  0
    8.6776    2.3263    0.0000 H   0  0  0  0  0  0  0  0  0  0  0  0
    7.8806    2.3263    0.0000 H   0  0  0  0  0  0  0  0  0  0  0  0
    5.9844    0.8752    0.0000 H   0  0  0  0  0  0  0  0  0  0  0  0
    5.1863    0.8906    0.0000 H   0  0  0  0  0  0  0  0  0  0  0  0
    9.8403   -0.5203    0.0000 H   0  0  0  0  0  0  0  0  0  0  0  0
   10.6287   -0.2626    0.0000 H   0  0  0  0  0  0  0  0  0  0  0  0
    5.1623   -2.2228    0.0000 H   0  0  0  0  0  0  0  0  0  0  0  0
    5.9606   -2.2197    0.0000 H   0  0  0  0  0  0  0  0  0  0  0  0
    7.1308    0.8397    0.0000 H   0  0  0  0  0  0  0  0  0  0  0  0
    6.5156    1.4644    0.0000 H   0  0  0  0  0  0  0  0  0  0  0  0
    5.8908    0.8492    0.0000 H   0  0  0  0  0  0  0  0  0  0  0  0
    4.4238    0.4659    0.0000 H   0  0  0  0  0  0  0  0  0  0  0  0
    4.0167   -0.2208    0.0000 H   0  0  0  0  0  0  0  0  0  0  0  0
   11.1358    0.4366    0.0000 H   0  0  0  0  0  0  0  0  0  0  0  0
   11.1358    1.2660    0.0000 H   0  0  0  0  0  0  0  0  0  0  0  0
    9.7651    2.3513    0.0000 H   0  0  0  0  0  0  0  0  0  0  0  0
    9.1451    2.9713    0.0000 H   0  0  0  0  0  0  0  0  0  0  0  0
    8.5251    2.3513    0.0000 H   0  0  0  0  0  0  0  0  0  0  0  0
    4.4246   -2.6066    0.0000 H   0  0  0  0  0  0  0  0  0  0  0  0
    2.0000   -1.1942    0.0000 H   0  0  0  0  0  0  0  0  0  0  0  0
 19  1  1  1  0  0  0
  1 52  1  0  0  0  0
  2 17  2  0  0  0  0
  3  4  1  0  0  0  0
  3  5  1  0  0  0  0
  3  9  1  0  0  0  0
  3 24  1  6  0  0  0
  4  7  1  0  0  0  0
  4 13  1  0  0  0  0
  4 16  1  1  0  0  0
  5  6  1  0  0  0  0
  5 10  1  0  0  0  0
  5 25  1  1  0  0  0
  6  8  1  0  0  0  0
  6 14  1  0  0  0  0
  6 26  1  6  0  0  0
  7 11  1  0  0  0  0
  7 15  1  0  0  0  0
  7 27  1  6  0  0  0
  8 12  1  0  0  0  0
  8 17  1  0  0  0  0
  8 21  1  1  0  0  0
  9 12  1  0  0  0  0
  9 28  1  0  0  0  0
  9 29  1  0  0  0  0
 10 11  1  0  0  0  0
 10 30  1  0  0  0  0
 10 31  1  0  0  0  0
 11 32  1  0  0  0  0
 11 33  1  0  0  0  0
 12 34  1  0  0  0  0
 12 35  1  0  0  0  0
 13 18  1  0  0  0  0
 13 36  1  0  0  0  0
 13 37  1  0  0  0  0
 14 20  1  0  0  0  0
 14 38  1  0  0  0  0
 14 39  1  0  0  0  0
 15 19  1  0  0  0  0
 15 40  1  0  0  0  0
 15 41  1  0  0  0  0
 16 42  1  0  0  0  0
 16 43  1  0  0  0  0
 16 44  1  0  0  0  0
 17 20  1  0  0  0  0
 18 19  1  0  0  0  0
 18 45  1  0  0  0  0
 18 46  1  0  0  0  0
 19 22  1  0  0  0  0
 20 47  1  0  0  0  0
 20 48  1  0  0  0  0
 21 49  1  0  0  0  0
 21 50  1  0  0  0  0
 21 51  1  0  0  0  0
 22 23  3  0  0  0  0
 23 53  1  0  0  0  0
M  END
> <PUBCHEM_COMPOUND_CID>
11954111

> <PUBCHEM_COMPOUND_CANONICALIZED>
1

> <PUBCHEM_CACTVS_COMPLEXITY>
586

> <PUBCHEM_CACTVS_HBOND_ACCEPTOR>
2

> <PUBCHEM_CACTVS_HBOND_DONOR>
1

> <PUBCHEM_CACTVS_ROTATABLE_BOND>
1

> <PUBCHEM_CACTVS_SUBSKEYS>
AAADceB4MAAAAAAAAAAAAAAAAAAAAYAAAAAwYMAAAAAAAGDAAAAAGgAACAAAD0SAgAACAAAAAgBIGIAQAAgAAAAAAAAAAAEAAAAAABIAAAAAQAAEAAAAAAGIyPCPgAAAAAAAAADAAAYAACAAAAAACAAAAA==

> <PUBCHEM_IUPAC_OPENEYE_NAME>
(3S,5S,8R,9S,10S,13S,14S)-3-ethynyl-3-hydroxy-10,13-dimethyl-2,4,5,6,7,8,9,11,12,14,15,16-dodecahydro-1H-cyclopenta[a]phenanthren-17-one

> <PUBCHEM_IUPAC_CAS_NAME>
(3S,5S,8R,9S,10S,13S,14S)-3-ethynyl-3-hydroxy-10,13-dimethyl-2,4,5,6,7,8,9,11,12,14,15,16-dodecahydro-1H-cyclopenta[a]phenanthren-17-one

> <PUBCHEM_IUPAC_NAME>
(3S,5S,8R,9S,10S,13S,14S)-3-ethynyl-3-hydroxy-10,13-dimethyl-2,4,5,6,7,8,9,11,12,14,15,16-dodecahydro-1H-cyclopenta[a]phenanthren-17-one

> <PUBCHEM_IUPAC_SYSTEMATIC_NAME>
(3S,5S,8R,9S,10S,13S,14S)-3-ethynyl-10,13-dimethyl-3-oxidanyl-2,4,5,6,7,8,9,11,12,14,15,16-dodecahydro-1H-cyclopenta[a]phenanthren-17-one

> <PUBCHEM_IUPAC_TRADITIONAL_NAME>
(3S,5S,8R,9S,10S,13S,14S)-3-ethynyl-3-hydroxy-10,13-dimethyl-2,4,5,6,7,8,9,11,12,14,15,16-dodecahydro-1H-cyclopenta[a]phenanthren-17-one

> <PUBCHEM_IUPAC_INCHI>
InChI=1S/C21H30O2/c1-4-21(23)12-11-19(2)14(13-21)5-6-15-16-7-8-18(22)20(16,3)10-9-17(15)19/h1,14-17,23H,5-13H2,2-3H3/t14-,15-,16-,17-,19-,20-,21-/m0/s1

> <PUBCHEM_IUPAC_INCHIKEY>
QDYCOIXEXYKTPX-DGWDJNBYSA-N

> <PUBCHEM_XLOGP3>
3.6

> <PUBCHEM_EXACT_MASS>
314.22458

> <PUBCHEM_MOLECULAR_FORMULA>
C21H30O2

> <PUBCHEM_MOLECULAR_WEIGHT>
314.4617

> <PUBCHEM_OPENEYE_CAN_SMILES>
CC12CCC(CC1CCC3C2CCC4(C3CCC4=O)C)(C#C)O

> <PUBCHEM_OPENEYE_ISO_SMILES>
C[C@]12CC[C@](C[C@@H]1CC[C@@H]3[C@@H]2CC[C@]4([C@H]3CCC4=O)C)(C#C)O

> <PUBCHEM_CACTVS_TPSA>
37.3

> <PUBCHEM_MONOISOTOPIC_WEIGHT>
314.22458

> <PUBCHEM_TOTAL_CHARGE>
0

> <PUBCHEM_HEAVY_ATOM_COUNT>
23

> <PUBCHEM_ATOM_DEF_STEREO_COUNT>
7

> <PUBCHEM_ATOM_UDEF_STEREO_COUNT>
0

> <PUBCHEM_BOND_DEF_STEREO_COUNT>
0

> <PUBCHEM_BOND_UDEF_STEREO_COUNT>
0

> <PUBCHEM_ISOTOPIC_ATOM_COUNT>
0

> <PUBCHEM_COMPONENT_COUNT>
1

> <PUBCHEM_CACTVS_TAUTO_COUNT>
2

> <PUBCHEM_COORDINATE_TYPE>
1
5
255

> <PUBCHEM_BONDANNOTATIONS>
19  1  5
3  24  6
4  16  5
5  25  5
6  26  6
7  27  6
8  21  5

$$$$

