11954102
  -OEChem-07051213063D

 56 59  0     1  0  0  0  0  0999 V2000
    2.0955   -2.2219   -1.3855 F   0  0  0  0  0  0  0  0  0  0  0  0
    2.7939   -0.5652    1.7200 O   0  0  0  0  0  0  0  0  0  0  0  0
   -5.7438    0.1292   -0.8047 O   0  0  0  0  0  0  0  0  0  0  0  0
    6.0096    0.6865    0.5737 O   0  0  0  0  0  0  0  0  0  0  0  0
   -0.2506   -0.8421   -0.1191 C   0  0  2  0  0  0  0  0  0  0  0  0
    0.4319    0.5213    0.2343 C   0  0  1  0  0  0  0  0  0  0  0  0
   -1.6667   -0.8444    0.4699 C   0  0  1  0  0  0  0  0  0  0  0  0
   -2.5506    0.2979   -0.0768 C   0  0  2  0  0  0  0  0  0  0  0  0
    1.9172    0.5816   -0.2941 C   0  0  2  0  0  0  0  0  0  0  0  0
    2.7092   -0.6502    0.2816 C   0  0  2  0  0  0  0  0  0  0  0  0
   -0.4510    1.7299   -0.1816 C   0  0  0  0  0  0  0  0  0  0  0  0
   -1.9011    1.6286    0.3261 C   0  0  0  0  0  0  0  0  0  0  0  0
   -3.8678   -0.0329    0.6594 C   0  0  2  0  0  0  0  0  0  0  0  0
    0.5662   -2.0421    0.3851 C   0  0  0  0  0  0  0  0  0  0  0  0
   -2.5403   -2.0824    0.2958 C   0  0  0  0  0  0  0  0  0  0  0  0
    2.0311   -1.9896   -0.0466 C   0  0  1  0  0  0  0  0  0  0  0  0
   -3.9621   -1.5722    0.5919 C   0  0  0  0  0  0  0  0  0  0  0  0
    2.6302    1.8698    0.2107 C   0  0  0  0  0  0  0  0  0  0  0  0
   -2.7521    0.2553   -1.6147 C   0  0  0  0  0  0  0  0  0  0  0  0
    1.9229    0.6136   -1.8482 C   0  0  0  0  0  0  0  0  0  0  0  0
    4.1742   -0.6576   -0.1792 C   0  0  0  0  0  0  0  0  0  0  0  0
    4.1096    1.9346   -0.1683 C   0  0  0  0  0  0  0  0  0  0  0  0
   -5.0868    0.6364    0.1032 C   0  0  0  0  0  0  0  0  0  0  0  0
    4.8512    0.6576    0.1560 C   0  0  0  0  0  0  0  0  0  0  0  0
   -5.4698    1.9585    0.7111 C   0  0  0  0  0  0  0  0  0  0  0  0
   -0.3249   -0.9445   -1.2062 H   0  0  0  0  0  0  0  0  0  0  0  0
    0.4876    0.5674    1.3330 H   0  0  0  0  0  0  0  0  0  0  0  0
   -1.5531   -0.7040    1.5582 H   0  0  0  0  0  0  0  0  0  0  0  0
   -0.4624    1.8423   -1.2697 H   0  0  0  0  0  0  0  0  0  0  0  0
   -0.0258    2.6562    0.2200 H   0  0  0  0  0  0  0  0  0  0  0  0
   -1.8987    1.7329    1.4187 H   0  0  0  0  0  0  0  0  0  0  0  0
   -2.4744    2.4758   -0.0664 H   0  0  0  0  0  0  0  0  0  0  0  0
   -3.7887    0.2435    1.7201 H   0  0  0  0  0  0  0  0  0  0  0  0
    0.5169   -2.0838    1.4804 H   0  0  0  0  0  0  0  0  0  0  0  0
    0.1220   -2.9695    0.0051 H   0  0  0  0  0  0  0  0  0  0  0  0
   -2.2566   -2.8871    0.9815 H   0  0  0  0  0  0  0  0  0  0  0  0
   -2.4782   -2.4781   -0.7239 H   0  0  0  0  0  0  0  0  0  0  0  0
    2.5616   -2.8131    0.4460 H   0  0  0  0  0  0  0  0  0  0  0  0
   -4.6551   -1.9450   -0.1694 H   0  0  0  0  0  0  0  0  0  0  0  0
   -4.3134   -1.9632    1.5543 H   0  0  0  0  0  0  0  0  0  0  0  0
    2.5273    1.9618    1.2988 H   0  0  0  0  0  0  0  0  0  0  0  0
    2.1469    2.7615   -0.2064 H   0  0  0  0  0  0  0  0  0  0  0  0
   -1.8095    0.3026   -2.1662 H   0  0  0  0  0  0  0  0  0  0  0  0
   -3.2664   -0.6520   -1.9466 H   0  0  0  0  0  0  0  0  0  0  0  0
   -3.3510    1.1099   -1.9502 H   0  0  0  0  0  0  0  0  0  0  0  0
    2.9303    0.5511   -2.2680 H   0  0  0  0  0  0  0  0  0  0  0  0
    1.3509   -0.2034   -2.2927 H   0  0  0  0  0  0  0  0  0  0  0  0
    1.4958    1.5487   -2.2261 H   0  0  0  0  0  0  0  0  0  0  0  0
    4.2781   -0.8393   -1.2528 H   0  0  0  0  0  0  0  0  0  0  0  0
    4.7261   -1.4472    0.3470 H   0  0  0  0  0  0  0  0  0  0  0  0
    4.5822    2.7602    0.3756 H   0  0  0  0  0  0  0  0  0  0  0  0
    4.2343    2.1346   -1.2375 H   0  0  0  0  0  0  0  0  0  0  0  0
    3.3584    0.1786    1.9818 H   0  0  0  0  0  0  0  0  0  0  0  0
   -5.6073    1.8441    1.7892 H   0  0  0  0  0  0  0  0  0  0  0  0
   -4.7019    2.7056    0.5051 H   0  0  0  0  0  0  0  0  0  0  0  0
   -6.4141    2.2989    0.2764 H   0  0  0  0  0  0  0  0  0  0  0  0
  1 16  1  0  0  0  0
  2 10  1  0  0  0  0
  2 53  1  0  0  0  0
  3 23  2  0  0  0  0
  4 24  2  0  0  0  0
  5  6  1  0  0  0  0
  5  7  1  0  0  0  0
  5 14  1  0  0  0  0
  5 26  1  0  0  0  0
  6  9  1  0  0  0  0
  6 11  1  0  0  0  0
  6 27  1  0  0  0  0
  7  8  1  0  0  0  0
  7 15  1  0  0  0  0
  7 28  1  0  0  0  0
  8 12  1  0  0  0  0
  8 13  1  0  0  0  0
  8 19  1  0  0  0  0
  9 10  1  0  0  0  0
  9 18  1  0  0  0  0
  9 20  1  0  0  0  0
 10 16  1  0  0  0  0
 10 21  1  0  0  0  0
 11 12  1  0  0  0  0
 11 29  1  0  0  0  0
 11 30  1  0  0  0  0
 12 31  1  0  0  0  0
 12 32  1  0  0  0  0
 13 17  1  0  0  0  0
 13 23  1  0  0  0  0
 13 33  1  0  0  0  0
 14 16  1  0  0  0  0
 14 34  1  0  0  0  0
 14 35  1  0  0  0  0
 15 17  1  0  0  0  0
 15 36  1  0  0  0  0
 15 37  1  0  0  0  0
 16 38  1  0  0  0  0
 17 39  1  0  0  0  0
 17 40  1  0  0  0  0
 18 22  1  0  0  0  0
 18 41  1  0  0  0  0
 18 42  1  0  0  0  0
 19 43  1  0  0  0  0
 19 44  1  0  0  0  0
 19 45  1  0  0  0  0
 20 46  1  0  0  0  0
 20 47  1  0  0  0  0
 20 48  1  0  0  0  0
 21 24  1  0  0  0  0
 21 49  1  0  0  0  0
 21 50  1  0  0  0  0
 22 24  1  0  0  0  0
 22 51  1  0  0  0  0
 22 52  1  0  0  0  0
 23 25  1  0  0  0  0
 25 54  1  0  0  0  0
 25 55  1  0  0  0  0
 25 56  1  0  0  0  0
M  END
> <PUBCHEM_COMPOUND_CID>
11954102

> <PUBCHEM_CONFORMER_RMSD>
0.6

> <PUBCHEM_CONFORMER_DIVERSEORDER>
1
2

> <PUBCHEM_MMFF94_PARTIAL_CHARGES>
13
1 -0.34
10 0.28
13 0.06
16 0.34
2 -0.68
21 0.06
22 0.06
23 0.45
24 0.45
25 0.06
3 -0.57
4 -0.57
53 0.4

> <PUBCHEM_EFFECTIVE_ROTOR_COUNT>
3

> <PUBCHEM_PHARMACOPHORE_FEATURES>
8
1 2 acceptor
1 2 donor
1 3 acceptor
1 4 acceptor
5 7 8 13 15 17 rings
6 5 6 7 8 11 12 rings
6 5 6 9 10 14 16 rings
6 9 10 18 21 22 24 rings

> <PUBCHEM_HEAVY_ATOM_COUNT>
25

> <PUBCHEM_ATOM_DEF_STEREO_COUNT>
8

> <PUBCHEM_ATOM_UDEF_STEREO_COUNT>
0

> <PUBCHEM_BOND_DEF_STEREO_COUNT>
0

> <PUBCHEM_BOND_UDEF_STEREO_COUNT>
0

> <PUBCHEM_ISOTOPIC_ATOM_COUNT>
0

> <PUBCHEM_COMPONENT_COUNT>
1

> <PUBCHEM_CACTVS_TAUTO_COUNT>
9

> <PUBCHEM_CONFORMER_ID>
00B667B600000001

> <PUBCHEM_MMFF94_ENERGY>
90.2236

> <PUBCHEM_FEATURE_SELFOVERLAP>
40.684

> <PUBCHEM_SHAPE_FINGERPRINT>
10366900 7 17603869996391900211
10411042 1 17690278635340210186
10616163 171 18338513037002898203
10906281 52 18271226275483793672
11089746 13 17967819331548932449
11578080 2 16843903064348044134
12011746 2 18411132537759916588
12107183 9 17541653255014211065
12236239 1 17821730559029828053
12403259 415 18190457169420385496
12403814 3 17561367275420189877
12596602 18 13470681546825756308
12633257 1 18271254888328962754
12788726 201 17458901664787379481
13140716 1 18340772537529083848
13224815 77 18341895181919424011
13402501 40 18413107242767304745
13583140 156 17385727959199500739
14223421 5 18411417349472678436
14341114 176 18342453764112664570
14790565 3 18339073800575561136
15142383 8 15410625808367918197
15196674 1 18412260601665793971
15375358 24 18410852157614991267
15788980 27 16415761912241331565
1601671 61 18409445886337631512
16945 1 18269281320891958066
17349148 13 18411427227960730157
17980427 23 18059010567056792108
1813 80 16845566530571390701
18681886 176 18335987459184131232
200 152 18040437685481071689
20645477 70 18260828232553218391
20715895 44 18129670836793731397
21033648 29 18114754728817275832
21267235 1 18341322297627785763
21421861 104 17916310613464867074
21452121 103 18409165536774097746
22182313 1 17845661485395559909
23402539 116 18336270045987431876
23557571 272 18335696088091346795
23559900 14 18408600370849582270
26918003 58 18342177747717685633
296302 2 18408039611013152731
335352 9 18411698799048967550
34797466 226 16226045540044402817
34934 24 18410013247517916803
350125 39 18341611495583604388
3545911 37 18342175565847730477
3633792 109 18338241582934027557
3680242 22 18271526506471715482
4340502 62 18341887494281327115
474 4 18412262822126878312
5104073 3 18272085007113402931
542803 24 18413388730718776293
633830 44 18408042900805010551
7495541 125 12679169501499990421
8272917 22 18261388996368285870
9709674 26 18336540611921634719
9999458 23 17131833136802793044

> <PUBCHEM_SHAPE_MULTIPOLES>
489.61
11.34
2.27
1.12
3
0.39
-0.33
-3.7
1.28
0.01
0.12
-0.08
0.02
0.04

> <PUBCHEM_SHAPE_SELFOVERLAP>
1049.207

> <PUBCHEM_SHAPE_VOLUME>
271.8

> <PUBCHEM_COORDINATE_TYPE>
2
5
10

$$$$

