245875
  -OEChem-07051213062D

 52 52  0     1  0  0  0  0  0999 V2000
   12.9742    1.7192    0.0000 O   0  0  0  0  0  0  0  0  0  0  0  0
   14.7343    0.4405    0.0000 O   0  0  0  0  0  0  0  0  0  0  0  0
    2.5352   -0.3820    0.0000 O   0  0  0  0  0  0  0  0  0  0  0  0
   12.1652    0.1314    0.0000 C   0  0  3  0  0  0  0  0  0  0  0  0
   12.9742    0.7192    0.0000 C   0  0  3  0  0  0  0  0  0  0  0  0
   12.4742   -0.8196    0.0000 C   0  0  0  0  0  0  0  0  0  0  0  0
   13.7832    0.1314    0.0000 C   0  0  3  0  0  0  0  0  0  0  0  0
   13.4742   -0.8196    0.0000 C   0  0  0  0  0  0  0  0  0  0  0  0
   11.2142    0.4405    0.0000 C   0  0  0  0  0  0  0  0  0  0  0  0
   10.4710   -0.2287    0.0000 C   0  0  0  0  0  0  0  0  0  0  0  0
    9.5200    0.0804    0.0000 C   0  0  0  0  0  0  0  0  0  0  0  0
    8.7768   -0.5888    0.0000 C   0  0  0  0  0  0  0  0  0  0  0  0
    7.8258   -0.2798    0.0000 C   0  0  0  0  0  0  0  0  0  0  0  0
    7.0826   -0.9489    0.0000 C   0  0  0  0  0  0  0  0  0  0  0  0
    6.1316   -0.6399    0.0000 C   0  0  0  0  0  0  0  0  0  0  0  0
    5.3884   -1.3090    0.0000 C   0  0  0  0  0  0  0  0  0  0  0  0
    4.4374   -1.0000    0.0000 C   0  0  0  0  0  0  0  0  0  0  0  0
    3.6942   -1.6691    0.0000 C   0  0  0  0  0  0  0  0  0  0  0  0
    2.7431   -1.3601    0.0000 C   0  0  0  0  0  0  0  0  0  0  0  0
    2.0000   -2.0292    0.0000 C   0  0  0  0  0  0  0  0  0  0  0  0
   11.5642   -0.4696    0.0000 H   0  0  0  0  0  0  0  0  0  0  0  0
   13.7316    1.1051    0.0000 H   0  0  0  0  0  0  0  0  0  0  0  0
   11.8678   -0.9485    0.0000 H   0  0  0  0  0  0  0  0  0  0  0  0
   12.5390   -1.4362    0.0000 H   0  0  0  0  0  0  0  0  0  0  0  0
   14.3843   -0.4696    0.0000 H   0  0  0  0  0  0  0  0  0  0  0  0
   13.4094   -1.4362    0.0000 H   0  0  0  0  0  0  0  0  0  0  0  0
   14.0807   -0.9485    0.0000 H   0  0  0  0  0  0  0  0  0  0  0  0
   11.5052    0.9879    0.0000 H   0  0  0  0  0  0  0  0  0  0  0  0
   10.7256    0.8222    0.0000 H   0  0  0  0  0  0  0  0  0  0  0  0
   10.1799   -0.7761    0.0000 H   0  0  0  0  0  0  0  0  0  0  0  0
   10.9596   -0.6104    0.0000 H   0  0  0  0  0  0  0  0  0  0  0  0
    9.8110    0.6278    0.0000 H   0  0  0  0  0  0  0  0  0  0  0  0
    9.0314    0.4621    0.0000 H   0  0  0  0  0  0  0  0  0  0  0  0
   13.5112    2.0292    0.0000 H   0  0  0  0  0  0  0  0  0  0  0  0
    8.4857   -1.1362    0.0000 H   0  0  0  0  0  0  0  0  0  0  0  0
    9.2654   -0.9705    0.0000 H   0  0  0  0  0  0  0  0  0  0  0  0
   15.1950    0.0256    0.0000 H   0  0  0  0  0  0  0  0  0  0  0  0
    8.1168    0.2677    0.0000 H   0  0  0  0  0  0  0  0  0  0  0  0
    7.3372    0.1019    0.0000 H   0  0  0  0  0  0  0  0  0  0  0  0
    6.7915   -1.4963    0.0000 H   0  0  0  0  0  0  0  0  0  0  0  0
    7.5712   -1.3306    0.0000 H   0  0  0  0  0  0  0  0  0  0  0  0
    6.4226   -0.0924    0.0000 H   0  0  0  0  0  0  0  0  0  0  0  0
    5.6430   -0.2582    0.0000 H   0  0  0  0  0  0  0  0  0  0  0  0
    5.0973   -1.8564    0.0000 H   0  0  0  0  0  0  0  0  0  0  0  0
    5.8770   -1.6907    0.0000 H   0  0  0  0  0  0  0  0  0  0  0  0
    4.7284   -0.4526    0.0000 H   0  0  0  0  0  0  0  0  0  0  0  0
    3.9488   -0.6183    0.0000 H   0  0  0  0  0  0  0  0  0  0  0  0
    3.4031   -2.2165    0.0000 H   0  0  0  0  0  0  0  0  0  0  0  0
    4.1828   -2.0508    0.0000 H   0  0  0  0  0  0  0  0  0  0  0  0
    1.5851   -1.5685    0.0000 H   0  0  0  0  0  0  0  0  0  0  0  0
    1.5392   -2.4441    0.0000 H   0  0  0  0  0  0  0  0  0  0  0  0
    2.4149   -2.4900    0.0000 H   0  0  0  0  0  0  0  0  0  0  0  0
  1  5  1  0  0  0  0
  1 34  1  0  0  0  0
  2  7  1  0  0  0  0
  2 37  1  0  0  0  0
  3 19  2  0  0  0  0
  4  5  1  0  0  0  0
  4  6  1  0  0  0  0
  4  9  1  0  0  0  0
  4 21  1  0  0  0  0
  5  7  1  0  0  0  0
  5 22  1  0  0  0  0
  6  8  1  0  0  0  0
  6 23  1  0  0  0  0
  6 24  1  0  0  0  0
  7  8  1  0  0  0  0
  7 25  1  0  0  0  0
  8 26  1  0  0  0  0
  8 27  1  0  0  0  0
  9 10  1  0  0  0  0
  9 28  1  0  0  0  0
  9 29  1  0  0  0  0
 10 11  1  0  0  0  0
 10 30  1  0  0  0  0
 10 31  1  0  0  0  0
 11 12  1  0  0  0  0
 11 32  1  0  0  0  0
 11 33  1  0  0  0  0
 12 13  1  0  0  0  0
 12 35  1  0  0  0  0
 12 36  1  0  0  0  0
 13 14  1  0  0  0  0
 13 38  1  0  0  0  0
 13 39  1  0  0  0  0
 14 15  1  0  0  0  0
 14 40  1  0  0  0  0
 14 41  1  0  0  0  0
 15 16  1  0  0  0  0
 15 42  1  0  0  0  0
 15 43  1  0  0  0  0
 16 17  1  0  0  0  0
 16 44  1  0  0  0  0
 16 45  1  0  0  0  0
 17 18  1  0  0  0  0
 17 46  1  0  0  0  0
 17 47  1  0  0  0  0
 18 19  1  0  0  0  0
 18 48  1  0  0  0  0
 18 49  1  0  0  0  0
 19 20  1  0  0  0  0
 20 50  1  0  0  0  0
 20 51  1  0  0  0  0
 20 52  1  0  0  0  0
M  END
> <PUBCHEM_COMPOUND_CID>
245875

> <PUBCHEM_COMPOUND_CANONICALIZED>
1

> <PUBCHEM_CACTVS_COMPLEXITY>
265

> <PUBCHEM_CACTVS_HBOND_ACCEPTOR>
3

> <PUBCHEM_CACTVS_HBOND_DONOR>
2

> <PUBCHEM_CACTVS_ROTATABLE_BOND>
11

> <PUBCHEM_CACTVS_SUBSKEYS>
AAADcfB4MAAAAAAAAAAAAAAAAAAAAYAAAAAAAAAAAAAAAAAAAAAAGgAACAAADRSggAICAAAAAgAIAIAQAAAAAAAAAAAAAAEAAAABEBIAAAAAQAAEAAABAAGI6OCOAAAAAAAAAAAAAAAAAAAAAIAABCAAAA==

> <PUBCHEM_IUPAC_OPENEYE_NAME>
12-(2,3-dihydroxycyclopentyl)dodecan-2-one

> <PUBCHEM_IUPAC_CAS_NAME>
12-(2,3-dihydroxycyclopentyl)-2-dodecanone

> <PUBCHEM_IUPAC_NAME>
12-(2,3-dihydroxycyclopentyl)dodecan-2-one

> <PUBCHEM_IUPAC_SYSTEMATIC_NAME>
12-[2,3-bis(oxidanyl)cyclopentyl]dodecan-2-one

> <PUBCHEM_IUPAC_TRADITIONAL_NAME>
12-(2,3-dihydroxycyclopentyl)dodecan-2-one

> <PUBCHEM_IUPAC_INCHI>
InChI=1S/C17H32O3/c1-14(18)10-8-6-4-2-3-5-7-9-11-15-12-13-16(19)17(15)20/h15-17,19-20H,2-13H2,1H3

> <PUBCHEM_IUPAC_INCHIKEY>
VOFBBQZXUQXUQN-UHFFFAOYSA-N

> <PUBCHEM_XLOGP3_AA>
3.9

> <PUBCHEM_EXACT_MASS>
284.235145

> <PUBCHEM_MOLECULAR_FORMULA>
C17H32O3

> <PUBCHEM_MOLECULAR_WEIGHT>
284.43418

> <PUBCHEM_OPENEYE_CAN_SMILES>
CC(=O)CCCCCCCCCCC1CCC(C1O)O

> <PUBCHEM_OPENEYE_ISO_SMILES>
CC(=O)CCCCCCCCCCC1CCC(C1O)O

> <PUBCHEM_CACTVS_TPSA>
57.5

> <PUBCHEM_MONOISOTOPIC_WEIGHT>
284.235145

> <PUBCHEM_TOTAL_CHARGE>
0

> <PUBCHEM_HEAVY_ATOM_COUNT>
20

> <PUBCHEM_ATOM_DEF_STEREO_COUNT>
0

> <PUBCHEM_ATOM_UDEF_STEREO_COUNT>
3

> <PUBCHEM_BOND_DEF_STEREO_COUNT>
0

> <PUBCHEM_BOND_UDEF_STEREO_COUNT>
0

> <PUBCHEM_ISOTOPIC_ATOM_COUNT>
0

> <PUBCHEM_COMPONENT_COUNT>
1

> <PUBCHEM_CACTVS_TAUTO_COUNT>
3

> <PUBCHEM_COORDINATE_TYPE>
1
5
255

> <PUBCHEM_BONDANNOTATIONS>
4  21  3
5  22  3
7  25  3

$$$$

