442918
  -OEChem-07051213002D

 56 59  0     1  0  0  0  0  0999 V2000
    7.3950    3.4381    0.0000 O   0  0  0  0  0  0  0  0  0  0  0  0
    8.9121    2.5142    0.0000 O   0  0  0  0  0  0  0  0  0  0  0  0
    9.0269   -0.2423    0.0000 O   0  0  0  0  0  0  0  0  0  0  0  0
    8.7752   -2.2751    0.0000 O   0  0  0  0  0  0  0  0  0  0  0  0
    2.3791    0.3742    0.0000 O   0  0  0  0  0  0  0  0  0  0  0  0
    6.8828   -3.0590    0.0000 O   0  0  0  0  0  0  0  0  0  0  0  0
    3.1630   -1.5182    0.0000 O   0  0  0  0  0  0  0  0  0  0  0  0
    6.3476    2.2160    0.0000 C   0  0  1  0  0  0  0  0  0  0  0  0
    7.2714    1.8334    0.0000 C   0  0  1  0  0  0  0  0  0  0  0  0
    5.4237    1.8334    0.0000 C   0  0  0  0  0  0  0  0  0  0  0  0
    7.6541    0.9095    0.0000 C   0  0  0  0  0  0  0  0  0  0  0  0
    6.4281    3.2069    0.0000 C   0  0  0  0  0  0  0  0  0  0  0  0
    7.9151    2.5909    0.0000 C   0  0  0  0  0  0  0  0  0  0  0  0
    7.2714   -0.0144    0.0000 C   0  0  0  0  0  0  0  0  0  0  0  0
    5.0410    0.9095    0.0000 C   0  0  0  0  0  0  0  0  0  0  0  0
    6.3476   -0.3971    0.0000 C   0  0  0  0  0  0  0  0  0  0  0  0
    5.4237   -0.0144    0.0000 C   0  0  0  0  0  0  0  0  0  0  0  0
    8.1075   -0.6357    0.0000 C   0  0  0  0  0  0  0  0  0  0  0  0
    4.0105    1.0614    0.0000 C   0  0  0  0  0  0  0  0  0  0  0  0
    6.1957   -1.4276    0.0000 C   0  0  0  0  0  0  0  0  0  0  0  0
    4.8024   -0.8505    0.0000 C   0  0  0  0  0  0  0  0  0  0  0  0
    7.9795   -1.6694    0.0000 C   0  0  0  0  0  0  0  0  0  0  0  0
    3.3700    0.2399    0.0000 C   0  0  0  0  0  0  0  0  0  0  0  0
    7.0172   -2.0680    0.0000 C   0  0  0  0  0  0  0  0  0  0  0  0
    3.7687   -0.7225    0.0000 C   0  0  0  0  0  0  0  0  0  0  0  0
    9.8272   -0.8419    0.0000 C   0  0  0  0  0  0  0  0  0  0  0  0
    8.6485   -3.2671    0.0000 C   0  0  0  0  0  0  0  0  0  0  0  0
    2.0000    1.2996    0.0000 C   0  0  0  0  0  0  0  0  0  0  0  0
    5.9575   -3.4381    0.0000 C   0  0  0  0  0  0  0  0  0  0  0  0
    2.1710   -1.3914    0.0000 C   0  0  0  0  0  0  0  0  0  0  0  0
    5.6606    2.7166    0.0000 H   0  0  0  0  0  0  0  0  0  0  0  0
    8.1112    1.7015    0.0000 H   0  0  0  0  0  0  0  0  0  0  0  0
    5.3428    2.4481    0.0000 H   0  0  0  0  0  0  0  0  0  0  0  0
    4.8090    1.9143    0.0000 H   0  0  0  0  0  0  0  0  0  0  0  0
    8.1460    0.5321    0.0000 H   0  0  0  0  0  0  0  0  0  0  0  0
    8.1460    1.2869    0.0000 H   0  0  0  0  0  0  0  0  0  0  0  0
    6.3481    3.8217    0.0000 H   0  0  0  0  0  0  0  0  0  0  0  0
    5.8083    3.1919    0.0000 H   0  0  0  0  0  0  0  0  0  0  0  0
    3.7799    1.6369    0.0000 H   0  0  0  0  0  0  0  0  0  0  0  0
    5.6202   -1.6582    0.0000 H   0  0  0  0  0  0  0  0  0  0  0  0
    5.0463   -1.4205    0.0000 H   0  0  0  0  0  0  0  0  0  0  0  0
    9.4555   -1.3381    0.0000 H   0  0  0  0  0  0  0  0  0  0  0  0
   10.3235   -1.2136    0.0000 H   0  0  0  0  0  0  0  0  0  0  0  0
   10.1990   -0.3457    0.0000 H   0  0  0  0  0  0  0  0  0  0  0  0
    8.0335   -3.1885    0.0000 H   0  0  0  0  0  0  0  0  0  0  0  0
    8.5700   -3.8821    0.0000 H   0  0  0  0  0  0  0  0  0  0  0  0
    9.2635   -3.3456    0.0000 H   0  0  0  0  0  0  0  0  0  0  0  0
    2.5737    1.5346    0.0000 H   0  0  0  0  0  0  0  0  0  0  0  0
    1.7650    1.8733    0.0000 H   0  0  0  0  0  0  0  0  0  0  0  0
    1.4263    1.0645    0.0000 H   0  0  0  0  0  0  0  0  0  0  0  0
    5.7224   -2.8644    0.0000 H   0  0  0  0  0  0  0  0  0  0  0  0
    5.3838   -3.6731    0.0000 H   0  0  0  0  0  0  0  0  0  0  0  0
    6.1925   -4.0118    0.0000 H   0  0  0  0  0  0  0  0  0  0  0  0
    2.2496   -0.7764    0.0000 H   0  0  0  0  0  0  0  0  0  0  0  0
    1.5560   -1.3129    0.0000 H   0  0  0  0  0  0  0  0  0  0  0  0
    2.0925   -2.0064    0.0000 H   0  0  0  0  0  0  0  0  0  0  0  0
  1 12  1  0  0  0  0
  1 13  1  0  0  0  0
  2 13  2  0  0  0  0
  3 18  1  0  0  0  0
  3 26  1  0  0  0  0
  4 22  1  0  0  0  0
  4 27  1  0  0  0  0
  5 23  1  0  0  0  0
  5 28  1  0  0  0  0
  6 24  1  0  0  0  0
  6 29  1  0  0  0  0
  7 25  1  0  0  0  0
  7 30  1  0  0  0  0
  8  9  1  0  0  0  0
  8 10  1  0  0  0  0
  8 12  1  0  0  0  0
  8 31  1  6  0  0  0
  9 11  1  0  0  0  0
  9 13  1  0  0  0  0
  9 32  1  1  0  0  0
 10 15  1  0  0  0  0
 10 33  1  0  0  0  0
 10 34  1  0  0  0  0
 11 14  1  0  0  0  0
 11 35  1  0  0  0  0
 11 36  1  0  0  0  0
 12 37  1  0  0  0  0
 12 38  1  0  0  0  0
 14 16  1  0  0  0  0
 14 18  2  0  0  0  0
 15 17  1  0  0  0  0
 15 19  2  0  0  0  0
 16 17  1  0  0  0  0
 16 20  2  0  0  0  0
 17 21  2  0  0  0  0
 18 22  1  0  0  0  0
 19 23  1  0  0  0  0
 19 39  1  0  0  0  0
 20 24  1  0  0  0  0
 20 40  1  0  0  0  0
 21 25  1  0  0  0  0
 21 41  1  0  0  0  0
 22 24  2  0  0  0  0
 23 25  2  0  0  0  0
 26 42  1  0  0  0  0
 26 43  1  0  0  0  0
 26 44  1  0  0  0  0
 27 45  1  0  0  0  0
 27 46  1  0  0  0  0
 27 47  1  0  0  0  0
 28 48  1  0  0  0  0
 28 49  1  0  0  0  0
 28 50  1  0  0  0  0
 29 51  1  0  0  0  0
 29 52  1  0  0  0  0
 29 53  1  0  0  0  0
 30 54  1  0  0  0  0
 30 55  1  0  0  0  0
 30 56  1  0  0  0  0
M  END
> <PUBCHEM_COMPOUND_CID>
442918

> <PUBCHEM_COMPOUND_CANONICALIZED>
1

> <PUBCHEM_CACTVS_COMPLEXITY>
598

> <PUBCHEM_CACTVS_HBOND_ACCEPTOR>
7

> <PUBCHEM_CACTVS_HBOND_DONOR>
0

> <PUBCHEM_CACTVS_ROTATABLE_BOND>
5

> <PUBCHEM_CACTVS_SUBSKEYS>
AAADceB4OAAAAAAAAAAAAAAAAAAAASAAAAAwYAAAAAAYAAABQAAAGgAAAAAADQSgmAIyDoAABACIAiDSCAACCAAgIAAAiAEGiIgNJzKEMRqCMCIlwBUKqAeK7PzOoAABCAAYQABAAAIQADCAAAAAAAAAAA==

> <PUBCHEM_IUPAC_INCHI>
InChI=1S/C23H26O7/c1-25-18-7-12-6-13-11-30-23(24)15(13)8-17-16(14(12)9-19(18)26-2)10-20(27-3)22(29-5)21(17)28-4/h7,9-10,13,15H,6,8,11H2,1-5H3/t13-,15+/m0/s1

> <PUBCHEM_IUPAC_INCHIKEY>
UAFHDDGMOVOBAW-DZGCQCFKSA-N

> <PUBCHEM_XLOGP3_AA>
3.6

> <PUBCHEM_EXACT_MASS>
414.167853

> <PUBCHEM_MOLECULAR_FORMULA>
C23H26O7

> <PUBCHEM_MOLECULAR_WEIGHT>
414.44834

> <PUBCHEM_OPENEYE_CAN_SMILES>
COC1=C(C=C2C(=C1)CC3COC(=O)C3CC4=C(C(=C(C=C42)OC)OC)OC)OC

> <PUBCHEM_OPENEYE_ISO_SMILES>
COC1=C(C=C2C(=C1)C[C@H]3COC(=O)[C@@H]3CC4=C(C(=C(C=C42)OC)OC)OC)OC

> <PUBCHEM_CACTVS_TPSA>
72.4

> <PUBCHEM_MONOISOTOPIC_WEIGHT>
414.167853

> <PUBCHEM_TOTAL_CHARGE>
0

> <PUBCHEM_HEAVY_ATOM_COUNT>
30

> <PUBCHEM_ATOM_DEF_STEREO_COUNT>
2

> <PUBCHEM_ATOM_UDEF_STEREO_COUNT>
0

> <PUBCHEM_BOND_DEF_STEREO_COUNT>
0

> <PUBCHEM_BOND_UDEF_STEREO_COUNT>
0

> <PUBCHEM_ISOTOPIC_ATOM_COUNT>
0

> <PUBCHEM_COMPONENT_COUNT>
1

> <PUBCHEM_CACTVS_TAUTO_COUNT>
2

> <PUBCHEM_COORDINATE_TYPE>
1
5
255

> <PUBCHEM_BONDANNOTATIONS>
14  16  8
14  18  8
15  17  8
15  19  8
16  20  8
17  21  8
18  22  8
19  23  8
20  24  8
21  25  8
22  24  8
23  25  8
8  31  6
9  32  5

$$$$

