5458468
  -OEChem-07051212492D

 51 50  0     1  0  0  0  0  0999 V2000
    4.7690   -4.1160    0.0000 O   0  0  0  0  0  0  0  0  0  0  0  0
    6.8671   -2.7500    0.0000 O   0  0  0  0  0  0  0  0  0  0  0  0
    2.5369   -3.2500    0.0000 O   0  0  0  0  0  0  0  0  0  0  0  0
    6.0010   -4.2500    0.0000 O   0  0  0  0  0  0  0  0  0  0  0  0
    3.4030   -4.7500    0.0000 O   0  0  0  0  0  0  0  0  0  0  0  0
    2.6556   -1.0572    0.0000 O   0  0  0  0  0  0  0  0  0  0  0  0
    4.3614   -0.7564    0.0000 O   0  0  0  0  0  0  0  0  0  0  0  0
    5.1350   -2.7500    0.0000 C   0  0  1  0  0  0  0  0  0  0  0  0
    5.1350   -1.7500    0.0000 C   0  0  0  0  0  0  0  0  0  0  0  0
    4.2690   -3.2500    0.0000 C   0  0  2  0  0  0  0  0  0  0  0  0
    6.0010   -1.2500    0.0000 C   0  0  0  0  0  0  0  0  0  0  0  0
    6.0010   -0.2500    0.0000 C   0  0  0  0  0  0  0  0  0  0  0  0
    6.8671    0.2500    0.0000 C   0  0  0  0  0  0  0  0  0  0  0  0
    6.8671    1.2500    0.0000 C   0  0  0  0  0  0  0  0  0  0  0  0
    7.7331    1.7500    0.0000 C   0  0  0  0  0  0  0  0  0  0  0  0
    3.7690   -2.3840    0.0000 C   0  0  0  0  0  0  0  0  0  0  0  0
    7.7331    2.7500    0.0000 C   0  0  0  0  0  0  0  0  0  0  0  0
    6.0010   -3.2500    0.0000 C   0  0  0  0  0  0  0  0  0  0  0  0
    3.4030   -3.7500    0.0000 C   0  0  0  0  0  0  0  0  0  0  0  0
    8.5991    3.2500    0.0000 C   0  0  0  0  0  0  0  0  0  0  0  0
    8.5991    4.2500    0.0000 C   0  0  0  0  0  0  0  0  0  0  0  0
    3.5953   -1.3992    0.0000 C   0  0  0  0  0  0  0  0  0  0  0  0
    9.4651    4.7500    0.0000 C   0  0  0  0  0  0  0  0  0  0  0  0
    5.1350   -3.3700    0.0000 H   0  0  0  0  0  0  0  0  0  0  0  0
    4.9230   -1.1674    0.0000 H   0  0  0  0  0  0  0  0  0  0  0  0
    4.5244   -1.8577    0.0000 H   0  0  0  0  0  0  0  0  0  0  0  0
    6.2131   -1.8326    0.0000 H   0  0  0  0  0  0  0  0  0  0  0  0
    6.6116   -1.1423    0.0000 H   0  0  0  0  0  0  0  0  0  0  0  0
    5.7890    0.3326    0.0000 H   0  0  0  0  0  0  0  0  0  0  0  0
    5.3905   -0.3577    0.0000 H   0  0  0  0  0  0  0  0  0  0  0  0
    7.0791   -0.3326    0.0000 H   0  0  0  0  0  0  0  0  0  0  0  0
    7.4776    0.3577    0.0000 H   0  0  0  0  0  0  0  0  0  0  0  0
    6.6550    1.8326    0.0000 H   0  0  0  0  0  0  0  0  0  0  0  0
    6.2565    1.1423    0.0000 H   0  0  0  0  0  0  0  0  0  0  0  0
    7.9451    1.1674    0.0000 H   0  0  0  0  0  0  0  0  0  0  0  0
    8.3437    1.8577    0.0000 H   0  0  0  0  0  0  0  0  0  0  0  0
    3.1657   -2.2410    0.0000 H   0  0  0  0  0  0  0  0  0  0  0  0
    4.3516   -2.1719    0.0000 H   0  0  0  0  0  0  0  0  0  0  0  0
    7.5210    3.3326    0.0000 H   0  0  0  0  0  0  0  0  0  0  0  0
    7.1225    2.6423    0.0000 H   0  0  0  0  0  0  0  0  0  0  0  0
    8.8112    2.6674    0.0000 H   0  0  0  0  0  0  0  0  0  0  0  0
    9.2097    3.3577    0.0000 H   0  0  0  0  0  0  0  0  0  0  0  0
    4.4590   -4.6530    0.0000 H   0  0  0  0  0  0  0  0  0  0  0  0
    8.3871    4.8326    0.0000 H   0  0  0  0  0  0  0  0  0  0  0  0
    7.9885    4.1423    0.0000 H   0  0  0  0  0  0  0  0  0  0  0  0
    7.4040   -3.0600    0.0000 H   0  0  0  0  0  0  0  0  0  0  0  0
    9.7751    4.2131    0.0000 H   0  0  0  0  0  0  0  0  0  0  0  0
   10.0021    5.0600    0.0000 H   0  0  0  0  0  0  0  0  0  0  0  0
    9.1551    5.2869    0.0000 H   0  0  0  0  0  0  0  0  0  0  0  0
    2.0000   -3.5600    0.0000 H   0  0  0  0  0  0  0  0  0  0  0  0
    2.1807   -1.4557    0.0000 H   0  0  0  0  0  0  0  0  0  0  0  0
 10  1  1  1  0  0  0
  1 43  1  0  0  0  0
  2 18  1  0  0  0  0
  2 46  1  0  0  0  0
  3 19  1  0  0  0  0
  3 50  1  0  0  0  0
  4 18  2  0  0  0  0
  5 19  2  0  0  0  0
  6 22  1  0  0  0  0
  6 51  1  0  0  0  0
  7 22  2  0  0  0  0
  8  9  1  1  0  0  0
  8 10  1  0  0  0  0
  8 18  1  0  0  0  0
  8 24  1  0  0  0  0
  9 11  1  0  0  0  0
  9 25  1  0  0  0  0
  9 26  1  0  0  0  0
 10 16  1  0  0  0  0
 10 19  1  0  0  0  0
 11 12  1  0  0  0  0
 11 27  1  0  0  0  0
 11 28  1  0  0  0  0
 12 13  1  0  0  0  0
 12 29  1  0  0  0  0
 12 30  1  0  0  0  0
 13 14  1  0  0  0  0
 13 31  1  0  0  0  0
 13 32  1  0  0  0  0
 14 15  1  0  0  0  0
 14 33  1  0  0  0  0
 14 34  1  0  0  0  0
 15 17  1  0  0  0  0
 15 35  1  0  0  0  0
 15 36  1  0  0  0  0
 16 22  1  0  0  0  0
 16 37  1  0  0  0  0
 16 38  1  0  0  0  0
 17 20  1  0  0  0  0
 17 39  1  0  0  0  0
 17 40  1  0  0  0  0
 20 21  1  0  0  0  0
 20 41  1  0  0  0  0
 20 42  1  0  0  0  0
 21 23  1  0  0  0  0
 21 44  1  0  0  0  0
 21 45  1  0  0  0  0
 23 47  1  0  0  0  0
 23 48  1  0  0  0  0
 23 49  1  0  0  0  0
M  END
> <PUBCHEM_COMPOUND_CID>
5458468

> <PUBCHEM_COMPOUND_CANONICALIZED>
1

> <PUBCHEM_CACTVS_COMPLEXITY>
394

> <PUBCHEM_CACTVS_HBOND_ACCEPTOR>
7

> <PUBCHEM_CACTVS_HBOND_DONOR>
4

> <PUBCHEM_CACTVS_ROTATABLE_BOND>
14

> <PUBCHEM_CACTVS_SUBSKEYS>
AAADceB4OAAAAAAAAAAAAAAAAAAAAAAAAAAAAAAAAAAAAAAAAAAAGgAACAAADUSAgAACCAAAAgAIAACQCAIAAAAAAAAAAAFAAAABABYAAAAAQAAFIAABAAHL7uCOgAAAAAAAAAAAAAAAAAAAAAAAAAAAAA==

> <PUBCHEM_IUPAC_OPENEYE_NAME>
(2S,3S)-2-hydroxytridecane-1,2,3-tricarboxylic acid

> <PUBCHEM_IUPAC_CAS_NAME>
(2S,3S)-2-hydroxytridecane-1,2,3-tricarboxylic acid

> <PUBCHEM_IUPAC_NAME>
(2S,3S)-2-hydroxytridecane-1,2,3-tricarboxylic acid

> <PUBCHEM_IUPAC_SYSTEMATIC_NAME>
(2S,3S)-2-oxidanyltridecane-1,2,3-tricarboxylic acid

> <PUBCHEM_IUPAC_TRADITIONAL_NAME>
(2S,3S)-2-hydroxytridecane-1,2,3-tricarboxylic acid

> <PUBCHEM_IUPAC_INCHI>
InChI=1S/C16H28O7/c1-2-3-4-5-6-7-8-9-10-12(14(19)20)16(23,15(21)22)11-13(17)18/h12,23H,2-11H2,1H3,(H,17,18)(H,19,20)(H,21,22)/t12-,16+/m1/s1

> <PUBCHEM_IUPAC_INCHIKEY>
DQIHPEKINXOMBM-WBMJQRKESA-N

> <PUBCHEM_XLOGP3_AA>
3.2

> <PUBCHEM_EXACT_MASS>
332.183503

> <PUBCHEM_MOLECULAR_FORMULA>
C16H28O7

> <PUBCHEM_MOLECULAR_WEIGHT>
332.38932

> <PUBCHEM_OPENEYE_CAN_SMILES>
CCCCCCCCCCC(C(=O)O)C(CC(=O)O)(C(=O)O)O

> <PUBCHEM_OPENEYE_ISO_SMILES>
CCCCCCCCCC[C@H](C(=O)O)[C@@](CC(=O)O)(C(=O)O)O

> <PUBCHEM_CACTVS_TPSA>
132

> <PUBCHEM_MONOISOTOPIC_WEIGHT>
332.183503

> <PUBCHEM_TOTAL_CHARGE>
0

> <PUBCHEM_HEAVY_ATOM_COUNT>
23

> <PUBCHEM_ATOM_DEF_STEREO_COUNT>
2

> <PUBCHEM_ATOM_UDEF_STEREO_COUNT>
0

> <PUBCHEM_BOND_DEF_STEREO_COUNT>
0

> <PUBCHEM_BOND_UDEF_STEREO_COUNT>
0

> <PUBCHEM_ISOTOPIC_ATOM_COUNT>
0

> <PUBCHEM_COMPONENT_COUNT>
1

> <PUBCHEM_CACTVS_TAUTO_COUNT>
1

> <PUBCHEM_COORDINATE_TYPE>
1
5
255

> <PUBCHEM_BONDANNOTATIONS>
10  1  5
8  9  5

$$$$

