13351
  -OEChem-07051213093D

 13 12  0     1  0  0  0  0  0999 V2000
    0.5274    1.5192    0.2157 F   0  0  0  0  0  0  0  0  0  0  0  0
   -1.5191   -1.3874    0.2628 O   0  0  0  0  0  0  0  0  0  0  0  0
   -1.9338    0.7318   -0.4439 O   0  0  0  0  0  0  0  0  0  0  0  0
    2.6054   -0.3465   -0.0382 N   0  0  0  0  0  0  0  0  0  0  0  0
    0.2607    0.1947    0.4126 C   0  0  2  0  0  0  0  0  0  0  0  0
    1.2292   -0.6146   -0.4416 C   0  0  0  0  0  0  0  0  0  0  0  0
   -1.1697   -0.0973    0.0325 C   0  0  0  0  0  0  0  0  0  0  0  0
    0.3829   -0.0048    1.4825 H   0  0  0  0  0  0  0  0  0  0  0  0
    1.1162   -0.3449   -1.4973 H   0  0  0  0  0  0  0  0  0  0  0  0
    1.0333   -1.6884   -0.3550 H   0  0  0  0  0  0  0  0  0  0  0  0
    2.7267   -0.5903    0.9442 H   0  0  0  0  0  0  0  0  0  0  0  0
    2.7899    0.6543   -0.1019 H   0  0  0  0  0  0  0  0  0  0  0  0
   -2.4487   -1.5666    0.0057 H   0  0  0  0  0  0  0  0  0  0  0  0
  1  5  1  0  0  0  0
  2  7  1  0  0  0  0
  2 13  1  0  0  0  0
  3  7  2  0  0  0  0
  4  6  1  0  0  0  0
  4 11  1  0  0  0  0
  4 12  1  0  0  0  0
  5  6  1  0  0  0  0
  5  7  1  0  0  0  0
  5  8  1  0  0  0  0
  6  9  1  0  0  0  0
  6 10  1  0  0  0  0
M  END
> <PUBCHEM_COMPOUND_CID>
13351

> <PUBCHEM_CONFORMER_RMSD>
0.4

> <PUBCHEM_CONFORMER_DIVERSEORDER>
2
10
11
9
7
5
8
1
12
6
4
3

> <PUBCHEM_MMFF94_PARTIAL_CHARGES>
10
1 -0.34
11 0.36
12 0.36
13 0.5
2 -0.65
3 -0.57
4 -0.99
5 0.4
6 0.27
7 0.66

> <PUBCHEM_EFFECTIVE_ROTOR_COUNT>
2

> <PUBCHEM_PHARMACOPHORE_FEATURES>
5
1 2 acceptor
1 3 acceptor
1 4 cation
1 4 donor
3 2 3 7 anion

> <PUBCHEM_HEAVY_ATOM_COUNT>
7

> <PUBCHEM_ATOM_DEF_STEREO_COUNT>
0

> <PUBCHEM_ATOM_UDEF_STEREO_COUNT>
1

> <PUBCHEM_BOND_DEF_STEREO_COUNT>
0

> <PUBCHEM_BOND_UDEF_STEREO_COUNT>
0

> <PUBCHEM_ISOTOPIC_ATOM_COUNT>
0

> <PUBCHEM_COMPONENT_COUNT>
1

> <PUBCHEM_CACTVS_TAUTO_COUNT>
1

> <PUBCHEM_CONFORMER_ID>
0000342700000002

> <PUBCHEM_MMFF94_ENERGY>
1.9528

> <PUBCHEM_FEATURE_SELFOVERLAP>
25.429

> <PUBCHEM_SHAPE_FINGERPRINT>
139733 1 10519983751266480858
16714656 1 18271524315980391133
20096714 4 18343305885497544717
21040471 1 18198068173279961145
24536 1 18263939756033756169
29004967 10 18186514410658848946
5460574 1 9583513222337130934

> <PUBCHEM_SHAPE_MULTIPOLES>
120.06
2.71
1.2
0.66
0.93
0.09
-0.01
-0.38
-0.24
-0.26
0.07
-0.02
-0.01
0.22

> <PUBCHEM_SHAPE_SELFOVERLAP>
222.284

> <PUBCHEM_SHAPE_VOLUME>
75.5

> <PUBCHEM_COORDINATE_TYPE>
2
5
10

$$$$

