17395522
  -OEChem-06241222502D

 46 48  0     0  0  0  0  0  0999 V2000
    5.4387    3.0382    0.0000 O   0  0  0  0  0  0  0  0  0  0  0  0
    6.7290   -0.4427    0.0000 O   0  0  0  0  0  0  0  0  0  0  0  0
    7.2334   -1.3062    0.0000 O   0  0  0  0  0  0  0  0  0  0  0  0
    4.1881    1.7767    0.0000 N   0  0  0  0  0  0  0  0  0  0  0  0
    5.7204    1.2844    0.0000 N   0  0  0  0  0  0  0  0  0  0  0  0
    5.1408    0.4767    0.0000 N   0  0  0  0  0  0  0  0  0  0  0  0
    8.2247    0.4308    0.0000 N   0  0  0  0  0  0  0  0  0  0  0  0
    2.0000    1.2658    0.0000 C   0  0  0  0  0  0  0  0  0  0  0  0
    2.4294    2.1689    0.0000 C   0  0  0  0  0  0  0  0  0  0  0  0
    2.4384    0.3670    0.0000 C   0  0  0  0  0  0  0  0  0  0  0  0
    3.4032    2.3963    0.0000 C   0  0  0  0  0  0  0  0  0  0  0  0
    3.4144    0.1494    0.0000 C   0  0  0  0  0  0  0  0  0  0  0  0
    4.1931    0.7767    0.0000 C   0  0  0  0  0  0  0  0  0  0  0  0
    5.1328    2.0862    0.0000 C   0  0  0  0  0  0  0  0  0  0  0  0
    6.7204    1.2894    0.0000 C   0  0  0  0  0  0  0  0  0  0  0  0
    7.2247    0.4258    0.0000 C   0  0  0  0  0  0  0  0  0  0  0  0
    8.7290   -0.4327    0.0000 C   0  0  0  0  0  0  0  0  0  0  0  0
    8.2334   -1.3012    0.0000 C   0  0  0  0  0  0  0  0  0  0  0  0
    9.7290   -0.4277    0.0000 C   0  0  0  0  0  0  0  0  0  0  0  0
    8.7377   -2.1647    0.0000 C   0  0  0  0  0  0  0  0  0  0  0  0
   10.2333   -1.2912    0.0000 C   0  0  0  0  0  0  0  0  0  0  0  0
    9.7376   -2.1598    0.0000 C   0  0  0  0  0  0  0  0  0  0  0  0
    6.7377   -2.1747    0.0000 C   0  0  0  0  0  0  0  0  0  0  0  0
    7.2420   -3.0382    0.0000 C   0  0  0  0  0  0  0  0  0  0  0  0
    1.5133    1.6500    0.0000 H   0  0  0  0  0  0  0  0  0  0  0  0
    1.5172    0.8768    0.0000 H   0  0  0  0  0  0  0  0  0  0  0  0
    2.4263    2.7889    0.0000 H   0  0  0  0  0  0  0  0  0  0  0  0
    1.8242    2.3039    0.0000 H   0  0  0  0  0  0  0  0  0  0  0  0
    1.8346    0.2260    0.0000 H   0  0  0  0  0  0  0  0  0  0  0  0
    2.4415   -0.2530    0.0000 H   0  0  0  0  0  0  0  0  0  0  0  0
    3.8860    2.7853    0.0000 H   0  0  0  0  0  0  0  0  0  0  0  0
    3.1314    2.9536    0.0000 H   0  0  0  0  0  0  0  0  0  0  0  0
    3.1482   -0.4106    0.0000 H   0  0  0  0  0  0  0  0  0  0  0  0
    3.9010   -0.2348    0.0000 H   0  0  0  0  0  0  0  0  0  0  0  0
    7.3020    1.5043    0.0000 H   0  0  0  0  0  0  0  0  0  0  0  0
    6.6097    1.8994    0.0000 H   0  0  0  0  0  0  0  0  0  0  0  0
    8.5320    0.9693    0.0000 H   0  0  0  0  0  0  0  0  0  0  0  0
   10.0363    0.1108    0.0000 H   0  0  0  0  0  0  0  0  0  0  0  0
    8.4303   -2.7032    0.0000 H   0  0  0  0  0  0  0  0  0  0  0  0
   10.8533   -1.2881    0.0000 H   0  0  0  0  0  0  0  0  0  0  0  0
   10.0503   -2.6951    0.0000 H   0  0  0  0  0  0  0  0  0  0  0  0
    6.2608   -1.7786    0.0000 H   0  0  0  0  0  0  0  0  0  0  0  0
    6.2647   -2.5756    0.0000 H   0  0  0  0  0  0  0  0  0  0  0  0
    6.7066   -3.3509    0.0000 H   0  0  0  0  0  0  0  0  0  0  0  0
    7.5547   -3.5736    0.0000 H   0  0  0  0  0  0  0  0  0  0  0  0
    7.7774   -2.7256    0.0000 H   0  0  0  0  0  0  0  0  0  0  0  0
  1 14  2  0  0  0  0
  2 16  2  0  0  0  0
  3 18  1  0  0  0  0
  3 23  1  0  0  0  0
  4 11  1  0  0  0  0
  4 13  1  0  0  0  0
  4 14  1  0  0  0  0
  5  6  1  0  0  0  0
  5 14  1  0  0  0  0
  5 15  1  0  0  0  0
  6 13  2  0  0  0  0
  7 16  1  0  0  0  0
  7 17  1  0  0  0  0
  7 37  1  0  0  0  0
  8  9  1  0  0  0  0
  8 10  1  0  0  0  0
  8 25  1  0  0  0  0
  8 26  1  0  0  0  0
  9 11  1  0  0  0  0
  9 27  1  0  0  0  0
  9 28  1  0  0  0  0
 10 12  1  0  0  0  0
 10 29  1  0  0  0  0
 10 30  1  0  0  0  0
 11 31  1  0  0  0  0
 11 32  1  0  0  0  0
 12 13  1  0  0  0  0
 12 33  1  0  0  0  0
 12 34  1  0  0  0  0
 15 16  1  0  0  0  0
 15 35  1  0  0  0  0
 15 36  1  0  0  0  0
 17 18  1  0  0  0  0
 17 19  2  0  0  0  0
 18 20  2  0  0  0  0
 19 21  1  0  0  0  0
 19 38  1  0  0  0  0
 20 22  1  0  0  0  0
 20 39  1  0  0  0  0
 21 22  2  0  0  0  0
 21 40  1  0  0  0  0
 22 41  1  0  0  0  0
 23 24  1  0  0  0  0
 23 42  1  0  0  0  0
 23 43  1  0  0  0  0
 24 44  1  0  0  0  0
 24 45  1  0  0  0  0
 24 46  1  0  0  0  0
M  END
> <PUBCHEM_COMPOUND_CID>
17395522

> <PUBCHEM_COMPOUND_CANONICALIZED>
1

> <PUBCHEM_CACTVS_COMPLEXITY>
508

> <PUBCHEM_CACTVS_HBOND_ACCEPTOR>
4

> <PUBCHEM_CACTVS_HBOND_DONOR>
1

> <PUBCHEM_CACTVS_ROTATABLE_BOND>
5

> <PUBCHEM_CACTVS_SUBSKEYS>
AAADceB7sAAAAAAAAAAAAAAAAAAAAQAAAAAwAAAABYAAAACBAAAAHgAYAAAACAzhkAYzxoPABACoACdycACSCAAhIgAfiAC/bIiOZiLEubuXOCjs3hPY6AeQQAAAAAAAAAAAEAAAAAAAAAAgAAAAAAAAAA==

> <PUBCHEM_IUPAC_OPENEYE_NAME>
N-(2-ethoxyphenyl)-2-(3-oxo-6,7,8,9-tetrahydro-5H-[1,2,4]triazolo[4,3-a]azepin-2-yl)acetamide

> <PUBCHEM_IUPAC_CAS_NAME>
N-(2-ethoxyphenyl)-2-(3-oxo-6,7,8,9-tetrahydro-5H-[1,2,4]triazolo[4,3-a]azepin-2-yl)acetamide

> <PUBCHEM_IUPAC_NAME>
N-(2-ethoxyphenyl)-2-(3-oxo-6,7,8,9-tetrahydro-5H-[1,2,4]triazolo[4,3-a]azepin-2-yl)acetamide

> <PUBCHEM_IUPAC_SYSTEMATIC_NAME>
N-(2-ethoxyphenyl)-2-(3-oxidanylidene-6,7,8,9-tetrahydro-5H-[1,2,4]triazolo[4,3-a]azepin-2-yl)ethanamide

> <PUBCHEM_IUPAC_TRADITIONAL_NAME>
2-(3-keto-6,7,8,9-tetrahydro-5H-[1,2,4]triazol[4,3-a]azepin-2-yl)-N-o-phenetyl-acetamide

> <PUBCHEM_IUPAC_INCHI>
InChI=1S/C17H22N4O3/c1-2-24-14-9-6-5-8-13(14)18-16(22)12-21-17(23)20-11-7-3-4-10-15(20)19-21/h5-6,8-9H,2-4,7,10-12H2,1H3,(H,18,22)

> <PUBCHEM_IUPAC_INCHIKEY>
BMBPADOAKDQKSS-UHFFFAOYSA-N

> <PUBCHEM_XLOGP3_AA>
1.6

> <PUBCHEM_EXACT_MASS>
330.169191

> <PUBCHEM_MOLECULAR_FORMULA>
C17H22N4O3

> <PUBCHEM_MOLECULAR_WEIGHT>
330.38158

> <PUBCHEM_OPENEYE_CAN_SMILES>
CCOC1=CC=CC=C1NC(=O)CN2C(=O)N3CCCCCC3=N2

> <PUBCHEM_OPENEYE_ISO_SMILES>
CCOC1=CC=CC=C1NC(=O)CN2C(=O)N3CCCCCC3=N2

> <PUBCHEM_CACTVS_TPSA>
74.2

> <PUBCHEM_MONOISOTOPIC_WEIGHT>
330.169191

> <PUBCHEM_TOTAL_CHARGE>
0

> <PUBCHEM_HEAVY_ATOM_COUNT>
24

> <PUBCHEM_ATOM_DEF_STEREO_COUNT>
0

> <PUBCHEM_ATOM_UDEF_STEREO_COUNT>
0

> <PUBCHEM_BOND_DEF_STEREO_COUNT>
0

> <PUBCHEM_BOND_UDEF_STEREO_COUNT>
0

> <PUBCHEM_ISOTOPIC_ATOM_COUNT>
0

> <PUBCHEM_COMPONENT_COUNT>
1

> <PUBCHEM_CACTVS_TAUTO_COUNT>
3

> <PUBCHEM_COORDINATE_TYPE>
1
5
255

> <PUBCHEM_BONDANNOTATIONS>
17  18  8
17  19  8
18  20  8
19  21  8
20  22  8
21  22  8
4  13  8
4  14  8
5  14  8
5  6  8
6  13  8

$$$$

