5280832
  -OEChem-07051212502D

117117  0     0  0  0  0  0  0999 V2000
    2.5369  -11.0000    0.0000 O   0  0  0  0  0  0  0  0  0  0  0  0
   11.1972    1.0000    0.0000 C   0  0  0  0  0  0  0  0  0  0  0  0
    9.4651   -2.0000    0.0000 C   0  0  0  0  0  0  0  0  0  0  0  0
   11.1972    2.0000    0.0000 C   0  0  0  0  0  0  0  0  0  0  0  0
   12.9292    4.0000    0.0000 C   0  0  0  0  0  0  0  0  0  0  0  0
    9.4651   -1.0000    0.0000 C   0  0  0  0  0  0  0  0  0  0  0  0
   10.3312    0.5000    0.0000 C   0  0  0  0  0  0  0  0  0  0  0  0
   12.9292    5.0000    0.0000 C   0  0  0  0  0  0  0  0  0  0  0  0
   12.0632    3.5000    0.0000 C   0  0  0  0  0  0  0  0  0  0  0  0
    8.5991   -2.5000    0.0000 C   0  0  0  0  0  0  0  0  0  0  0  0
    7.7331   -4.0000    0.0000 C   0  0  0  0  0  0  0  0  0  0  0  0
    7.7331   -5.0000    0.0000 C   0  0  0  0  0  0  0  0  0  0  0  0
   14.6613    7.0000    0.0000 C   0  0  0  0  0  0  0  0  0  0  0  0
   10.3312   -0.5000    0.0000 C   0  0  0  0  0  0  0  0  0  0  0  0
   12.0632    2.5000    0.0000 C   0  0  0  0  0  0  0  0  0  0  0  0
   13.7953    6.5000    0.0000 C   0  0  0  0  0  0  0  0  0  0  0  0
    8.5991   -3.5000    0.0000 C   0  0  0  0  0  0  0  0  0  0  0  0
    6.8671   -5.5000    0.0000 C   0  0  0  0  0  0  0  0  0  0  0  0
   14.6613    8.0000    0.0000 C   0  0  0  0  0  0  0  0  0  0  0  0
   13.7953    5.5000    0.0000 C   0  0  0  0  0  0  0  0  0  0  0  0
    6.0010   -7.0000    0.0000 C   0  0  0  0  0  0  0  0  0  0  0  0
    6.0010   -8.0000    0.0000 C   0  0  0  0  0  0  0  0  0  0  0  0
    6.8671   -6.5000    0.0000 C   0  0  0  0  0  0  0  0  0  0  0  0
   15.5273    8.5000    0.0000 C   0  0  0  0  0  0  0  0  0  0  0  0
    9.4651    1.0000    0.0000 C   0  0  0  0  0  0  0  0  0  0  0  0
   15.5273    9.5000    0.0000 C   0  0  0  0  0  0  0  0  0  0  0  0
   11.1972    4.0000    0.0000 C   0  0  0  0  0  0  0  0  0  0  0  0
    7.7331   -2.0000    0.0000 C   0  0  0  0  0  0  0  0  0  0  0  0
   16.3933   10.0000    0.0000 C   0  0  0  0  0  0  0  0  0  0  0  0
    5.1350   -8.5000    0.0000 C   0  0  0  0  0  0  0  0  0  0  0  0
   12.9292    7.0000    0.0000 C   0  0  0  0  0  0  0  0  0  0  0  0
    6.0010   -5.0000    0.0000 C   0  0  0  0  0  0  0  0  0  0  0  0
   16.3933   11.0000    0.0000 C   0  0  0  0  0  0  0  0  0  0  0  0
    5.1350   -9.5000    0.0000 C   0  0  0  0  0  0  0  0  0  0  0  0
   14.6613   10.0000    0.0000 C   0  0  0  0  0  0  0  0  0  0  0  0
    4.2690  -10.0000    0.0000 C   0  0  0  0  0  0  0  0  0  0  0  0
    4.2690   -8.0000    0.0000 C   0  0  0  0  0  0  0  0  0  0  0  0
   17.2594   11.5000    0.0000 C   0  0  0  0  0  0  0  0  0  0  0  0
    4.2690  -11.0000    0.0000 C   0  0  0  0  0  0  0  0  0  0  0  0
   17.2594   12.5000    0.0000 C   0  0  0  0  0  0  0  0  0  0  0  0
    3.4030  -11.5000    0.0000 C   0  0  0  0  0  0  0  0  0  0  0  0
    5.1350  -11.5000    0.0000 C   0  0  0  0  0  0  0  0  0  0  0  0
   18.1254   13.0000    0.0000 C   0  0  0  0  0  0  0  0  0  0  0  0
   16.3933   13.0000    0.0000 C   0  0  0  0  0  0  0  0  0  0  0  0
    3.4030  -12.5000    0.0000 C   0  0  0  0  0  0  0  0  0  0  0  0
    5.1350  -12.5000    0.0000 C   0  0  0  0  0  0  0  0  0  0  0  0
    4.2690  -13.0000    0.0000 C   0  0  0  0  0  0  0  0  0  0  0  0
   11.4092    0.4174    0.0000 H   0  0  0  0  0  0  0  0  0  0  0  0
   11.8078    1.1077    0.0000 H   0  0  0  0  0  0  0  0  0  0  0  0
    9.6772   -2.5826    0.0000 H   0  0  0  0  0  0  0  0  0  0  0  0
   10.0757   -1.8923    0.0000 H   0  0  0  0  0  0  0  0  0  0  0  0
   13.1413    3.4174    0.0000 H   0  0  0  0  0  0  0  0  0  0  0  0
   13.5398    4.1077    0.0000 H   0  0  0  0  0  0  0  0  0  0  0  0
   10.9851    2.5826    0.0000 H   0  0  0  0  0  0  0  0  0  0  0  0
   10.5866    1.8923    0.0000 H   0  0  0  0  0  0  0  0  0  0  0  0
    9.2531   -0.4174    0.0000 H   0  0  0  0  0  0  0  0  0  0  0  0
    8.8546   -1.1077    0.0000 H   0  0  0  0  0  0  0  0  0  0  0  0
   12.7172    5.5826    0.0000 H   0  0  0  0  0  0  0  0  0  0  0  0
   12.3187    4.8923    0.0000 H   0  0  0  0  0  0  0  0  0  0  0  0
    7.9451   -5.5826    0.0000 H   0  0  0  0  0  0  0  0  0  0  0  0
    8.3437   -4.8923    0.0000 H   0  0  0  0  0  0  0  0  0  0  0  0
    7.5210   -3.4174    0.0000 H   0  0  0  0  0  0  0  0  0  0  0  0
    7.1225   -4.1077    0.0000 H   0  0  0  0  0  0  0  0  0  0  0  0
   14.8733    6.4174    0.0000 H   0  0  0  0  0  0  0  0  0  0  0  0
   15.2719    7.1077    0.0000 H   0  0  0  0  0  0  0  0  0  0  0  0
   10.8681   -0.8100    0.0000 H   0  0  0  0  0  0  0  0  0  0  0  0
   12.6002    2.1900    0.0000 H   0  0  0  0  0  0  0  0  0  0  0  0
    9.1360   -3.8100    0.0000 H   0  0  0  0  0  0  0  0  0  0  0  0
   14.4492    8.5826    0.0000 H   0  0  0  0  0  0  0  0  0  0  0  0
   14.0507    7.8923    0.0000 H   0  0  0  0  0  0  0  0  0  0  0  0
   14.3322    5.1900    0.0000 H   0  0  0  0  0  0  0  0  0  0  0  0
    5.7890   -6.4174    0.0000 H   0  0  0  0  0  0  0  0  0  0  0  0
    5.3905   -7.1077    0.0000 H   0  0  0  0  0  0  0  0  0  0  0  0
    6.2131   -8.5826    0.0000 H   0  0  0  0  0  0  0  0  0  0  0  0
    6.6116   -7.8923    0.0000 H   0  0  0  0  0  0  0  0  0  0  0  0
    7.4040   -6.8100    0.0000 H   0  0  0  0  0  0  0  0  0  0  0  0
   16.0643    8.1900    0.0000 H   0  0  0  0  0  0  0  0  0  0  0  0
    9.7751    1.5369    0.0000 H   0  0  0  0  0  0  0  0  0  0  0  0
    8.9282    1.3100    0.0000 H   0  0  0  0  0  0  0  0  0  0  0  0
    9.1551    0.4631    0.0000 H   0  0  0  0  0  0  0  0  0  0  0  0
   11.5072    4.5369    0.0000 H   0  0  0  0  0  0  0  0  0  0  0  0
   10.6603    4.3100    0.0000 H   0  0  0  0  0  0  0  0  0  0  0  0
   10.8872    3.4631    0.0000 H   0  0  0  0  0  0  0  0  0  0  0  0
    8.0431   -1.4631    0.0000 H   0  0  0  0  0  0  0  0  0  0  0  0
    7.1962   -1.6900    0.0000 H   0  0  0  0  0  0  0  0  0  0  0  0
    7.4231   -2.5369    0.0000 H   0  0  0  0  0  0  0  0  0  0  0  0
   16.6054    9.4174    0.0000 H   0  0  0  0  0  0  0  0  0  0  0  0
   17.0039   10.1077    0.0000 H   0  0  0  0  0  0  0  0  0  0  0  0
   13.2392    7.5369    0.0000 H   0  0  0  0  0  0  0  0  0  0  0  0
   12.3923    7.3100    0.0000 H   0  0  0  0  0  0  0  0  0  0  0  0
   12.6192    6.4631    0.0000 H   0  0  0  0  0  0  0  0  0  0  0  0
    6.3110   -4.4631    0.0000 H   0  0  0  0  0  0  0  0  0  0  0  0
    5.4641   -4.6900    0.0000 H   0  0  0  0  0  0  0  0  0  0  0  0
    5.6910   -5.5369    0.0000 H   0  0  0  0  0  0  0  0  0  0  0  0
   16.1813   11.5826    0.0000 H   0  0  0  0  0  0  0  0  0  0  0  0
   15.7828   10.8923    0.0000 H   0  0  0  0  0  0  0  0  0  0  0  0
    5.6720   -9.8100    0.0000 H   0  0  0  0  0  0  0  0  0  0  0  0
   14.9713   10.5369    0.0000 H   0  0  0  0  0  0  0  0  0  0  0  0
   14.1244   10.3100    0.0000 H   0  0  0  0  0  0  0  0  0  0  0  0
   14.3513    9.4631    0.0000 H   0  0  0  0  0  0  0  0  0  0  0  0
    4.0569   -9.4174    0.0000 H   0  0  0  0  0  0  0  0  0  0  0  0
    3.6584  -10.1077    0.0000 H   0  0  0  0  0  0  0  0  0  0  0  0
    4.5790   -7.4631    0.0000 H   0  0  0  0  0  0  0  0  0  0  0  0
    3.7320   -7.6900    0.0000 H   0  0  0  0  0  0  0  0  0  0  0  0
    3.9590   -8.5369    0.0000 H   0  0  0  0  0  0  0  0  0  0  0  0
   17.7963   11.1900    0.0000 H   0  0  0  0  0  0  0  0  0  0  0  0
    5.6720  -11.1900    0.0000 H   0  0  0  0  0  0  0  0  0  0  0  0
   18.4354   12.4631    0.0000 H   0  0  0  0  0  0  0  0  0  0  0  0
   18.6623   13.3100    0.0000 H   0  0  0  0  0  0  0  0  0  0  0  0
   17.8154   13.5369    0.0000 H   0  0  0  0  0  0  0  0  0  0  0  0
   16.7033   13.5369    0.0000 H   0  0  0  0  0  0  0  0  0  0  0  0
   15.8564   13.3100    0.0000 H   0  0  0  0  0  0  0  0  0  0  0  0
   16.0833   12.4631    0.0000 H   0  0  0  0  0  0  0  0  0  0  0  0
    2.8660  -12.8100    0.0000 H   0  0  0  0  0  0  0  0  0  0  0  0
    5.6720  -12.8100    0.0000 H   0  0  0  0  0  0  0  0  0  0  0  0
    4.2690  -13.6200    0.0000 H   0  0  0  0  0  0  0  0  0  0  0  0
    2.0000  -11.3100    0.0000 H   0  0  0  0  0  0  0  0  0  0  0  0
  1 41  1  0  0  0  0
  1117  1  0  0  0  0
  2  4  1  0  0  0  0
  2  7  1  0  0  0  0
  2 48  1  0  0  0  0
  2 49  1  0  0  0  0
  3  6  1  0  0  0  0
  3 10  1  0  0  0  0
  3 50  1  0  0  0  0
  3 51  1  0  0  0  0
  4 15  1  0  0  0  0
  4 54  1  0  0  0  0
  4 55  1  0  0  0  0
  5  8  1  0  0  0  0
  5  9  1  0  0  0  0
  5 52  1  0  0  0  0
  5 53  1  0  0  0  0
  6 14  1  0  0  0  0
  6 56  1  0  0  0  0
  6 57  1  0  0  0  0
  7 14  2  0  0  0  0
  7 25  1  0  0  0  0
  8 20  1  0  0  0  0
  8 58  1  0  0  0  0
  8 59  1  0  0  0  0
  9 15  2  0  0  0  0
  9 27  1  0  0  0  0
 10 17  2  0  0  0  0
 10 28  1  0  0  0  0
 11 12  1  0  0  0  0
 11 17  1  0  0  0  0
 11 62  1  0  0  0  0
 11 63  1  0  0  0  0
 12 18  1  0  0  0  0
 12 60  1  0  0  0  0
 12 61  1  0  0  0  0
 13 16  1  0  0  0  0
 13 19  1  0  0  0  0
 13 64  1  0  0  0  0
 13 65  1  0  0  0  0
 14 66  1  0  0  0  0
 15 67  1  0  0  0  0
 16 20  2  0  0  0  0
 16 31  1  0  0  0  0
 17 68  1  0  0  0  0
 18 23  2  0  0  0  0
 18 32  1  0  0  0  0
 19 24  1  0  0  0  0
 19 69  1  0  0  0  0
 19 70  1  0  0  0  0
 20 71  1  0  0  0  0
 21 22  1  0  0  0  0
 21 23  1  0  0  0  0
 21 72  1  0  0  0  0
 21 73  1  0  0  0  0
 22 30  1  0  0  0  0
 22 74  1  0  0  0  0
 22 75  1  0  0  0  0
 23 76  1  0  0  0  0
 24 26  2  0  0  0  0
 24 77  1  0  0  0  0
 25 78  1  0  0  0  0
 25 79  1  0  0  0  0
 25 80  1  0  0  0  0
 26 29  1  0  0  0  0
 26 35  1  0  0  0  0
 27 81  1  0  0  0  0
 27 82  1  0  0  0  0
 27 83  1  0  0  0  0
 28 84  1  0  0  0  0
 28 85  1  0  0  0  0
 28 86  1  0  0  0  0
 29 33  1  0  0  0  0
 29 87  1  0  0  0  0
 29 88  1  0  0  0  0
 30 34  2  0  0  0  0
 30 37  1  0  0  0  0
 31 89  1  0  0  0  0
 31 90  1  0  0  0  0
 31 91  1  0  0  0  0
 32 92  1  0  0  0  0
 32 93  1  0  0  0  0
 32 94  1  0  0  0  0
 33 38  1  0  0  0  0
 33 95  1  0  0  0  0
 33 96  1  0  0  0  0
 34 36  1  0  0  0  0
 34 97  1  0  0  0  0
 35 98  1  0  0  0  0
 35 99  1  0  0  0  0
 35100  1  0  0  0  0
 36 39  1  0  0  0  0
 36101  1  0  0  0  0
 36102  1  0  0  0  0
 37103  1  0  0  0  0
 37104  1  0  0  0  0
 37105  1  0  0  0  0
 38 40  2  0  0  0  0
 38106  1  0  0  0  0
 39 41  1  0  0  0  0
 39 42  2  0  0  0  0
 40 43  1  0  0  0  0
 40 44  1  0  0  0  0
 41 45  2  0  0  0  0
 42 46  1  0  0  0  0
 42107  1  0  0  0  0
 43108  1  0  0  0  0
 43109  1  0  0  0  0
 43110  1  0  0  0  0
 44111  1  0  0  0  0
 44112  1  0  0  0  0
 44113  1  0  0  0  0
 45 47  1  0  0  0  0
 45114  1  0  0  0  0
 46 47  2  0  0  0  0
 46115  1  0  0  0  0
 47116  1  0  0  0  0
M  END
> <PUBCHEM_COMPOUND_CID>
5280832

> <PUBCHEM_COMPOUND_CANONICALIZED>
1

> <PUBCHEM_CACTVS_COMPLEXITY>
1110

> <PUBCHEM_CACTVS_HBOND_ACCEPTOR>
1

> <PUBCHEM_CACTVS_HBOND_DONOR>
1

> <PUBCHEM_CACTVS_ROTATABLE_BOND>
23

> <PUBCHEM_CACTVS_SUBSKEYS>
AAADcfB8IAAAAAAAAAAAAAAAAAAAAAAAAAAwAAAAAAAAAAABAAAAGgAACAAADASAmAAyBoAAAgCAAiBCAAACAAAgIAAIiAAGCIgIJiKCERKAcAAkwBEImAeAwKAOAAAAAAAIAAAAAAAAABAAAAAAAAAAAA==

> <PUBCHEM_IUPAC_OPENEYE_NAME>
2-[(2E,6E,10E,14E,18E,22E,26E)-3,7,11,15,19,23,27,31-octamethyldotriaconta-2,6,10,14,18,22,26,30-octaenyl]phenol

> <PUBCHEM_IUPAC_CAS_NAME>
2-[(2E,6E,10E,14E,18E,22E,26E)-3,7,11,15,19,23,27,31-octamethyldotriaconta-2,6,10,14,18,22,26,30-octaenyl]phenol

> <PUBCHEM_IUPAC_NAME>
2-[(2E,6E,10E,14E,18E,22E,26E)-3,7,11,15,19,23,27,31-octamethyldotriaconta-2,6,10,14,18,22,26,30-octaenyl]phenol

> <PUBCHEM_IUPAC_SYSTEMATIC_NAME>
2-[(2E,6E,10E,14E,18E,22E,26E)-3,7,11,15,19,23,27,31-octamethyldotriaconta-2,6,10,14,18,22,26,30-octaenyl]phenol

> <PUBCHEM_IUPAC_TRADITIONAL_NAME>
2-[(2E,6E,10E,14E,18E,22E,26E)-3,7,11,15,19,23,27,31-octamethyldotriaconta-2,6,10,14,18,22,26,30-octaenyl]phenol

> <PUBCHEM_IUPAC_INCHI>
InChI=1S/C46H70O/c1-37(2)19-12-20-38(3)21-13-22-39(4)23-14-24-40(5)25-15-26-41(6)27-16-28-42(7)29-17-30-43(8)31-18-32-44(9)35-36-45-33-10-11-34-46(45)47/h10-11,19,21,23,25,27,29,31,33-35,47H,12-18,20,22,24,26,28,30,32,36H2,1-9H3/b38-21+,39-23+,40-25+,41-27+,42-29+,43-31+,44-35+

> <PUBCHEM_IUPAC_INCHIKEY>
VUNQJPPPTJIREN-CMAXTTDKSA-N

> <PUBCHEM_XLOGP3>
16.6

> <PUBCHEM_EXACT_MASS>
638.542667

> <PUBCHEM_MOLECULAR_FORMULA>
C46H70O

> <PUBCHEM_MOLECULAR_WEIGHT>
639.0474

> <PUBCHEM_OPENEYE_CAN_SMILES>
CC(=CCCC(=CCCC(=CCCC(=CCCC(=CCCC(=CCCC(=CCCC(=CCC1=CC=CC=C1O)C)C)C)C)C)C)C)C

> <PUBCHEM_OPENEYE_ISO_SMILES>
CC(=CCC/C(=C/CC/C(=C/CC/C(=C/CC/C(=C/CC/C(=C/CC/C(=C/CC/C(=C/CC1=CC=CC=C1O)/C)/C)/C)/C)/C)/C)/C)C

> <PUBCHEM_CACTVS_TPSA>
20.2

> <PUBCHEM_MONOISOTOPIC_WEIGHT>
638.542667

> <PUBCHEM_TOTAL_CHARGE>
0

> <PUBCHEM_HEAVY_ATOM_COUNT>
47

> <PUBCHEM_ATOM_DEF_STEREO_COUNT>
0

> <PUBCHEM_ATOM_UDEF_STEREO_COUNT>
0

> <PUBCHEM_BOND_DEF_STEREO_COUNT>
7

> <PUBCHEM_BOND_UDEF_STEREO_COUNT>
0

> <PUBCHEM_ISOTOPIC_ATOM_COUNT>
0

> <PUBCHEM_COMPONENT_COUNT>
1

> <PUBCHEM_CACTVS_TAUTO_COUNT>
3

> <PUBCHEM_COORDINATE_TYPE>
1
5
255

> <PUBCHEM_BONDANNOTATIONS>
39  41  8
39  42  8
41  45  8
42  46  8
45  47  8
46  47  8

$$$$

