54726727
  -OEChem-07051213113D

 54 57  0     1  0  0  0  0  0999 V2000
   -4.3399   -3.2336   -0.9526 Cl  0  0  0  0  0  0  0  0  0  0  0  0
    2.5212    1.7764    1.5693 O   0  0  0  0  0  0  0  0  0  0  0  0
   -1.6464   -2.4666   -0.7025 O   0  0  0  0  0  0  0  0  0  0  0  0
    1.7682    2.3256   -1.3117 O   0  0  0  0  0  0  0  0  0  0  0  0
    0.1477    2.7955    1.1388 O   0  0  0  0  0  0  0  0  0  0  0  0
    4.2693   -1.7380   -1.0521 O   0  0  0  0  0  0  0  0  0  0  0  0
   -2.4859    2.4888    1.0742 O   0  0  0  0  0  0  0  0  0  0  0  0
   -4.8001    2.5444   -0.0180 O   0  0  0  0  0  0  0  0  0  0  0  0
    4.6127    0.5001   -3.0100 O   0  0  0  0  0  0  0  0  0  0  0  0
    4.1334   -0.6123    1.7412 N   0  0  0  0  0  0  0  0  0  0  0  0
    2.3798    0.4521   -3.5958 N   0  0  0  0  0  0  0  0  0  0  0  0
    1.6952   -0.4551    1.1910 C   0  0  1  0  0  0  0  0  0  0  0  0
    1.6852    0.9952    0.7077 C   0  0  1  0  0  0  0  0  0  0  0  0
    0.5665   -1.2718    0.5346 C   0  0  0  0  0  0  0  0  0  0  0  0
    3.0490   -1.1335    0.9130 C   0  0  1  0  0  0  0  0  0  0  0  0
   -0.7901   -0.5975    0.5351 C   0  0  0  0  0  0  0  0  0  0  0  0
   -1.9846   -1.5333    0.3335 C   0  0  1  0  0  0  0  0  0  0  0  0
   -0.9255    0.7328    0.6928 C   0  0  0  0  0  0  0  0  0  0  0  0
    0.2873    1.5973    0.8816 C   0  0  0  0  0  0  0  0  0  0  0  0
    2.1945    1.1538   -0.7108 C   0  0  0  0  0  0  0  0  0  0  0  0
    3.4850   -0.9427   -0.5307 C   0  0  0  0  0  0  0  0  0  0  0  0
    2.9979    0.2478   -1.3081 C   0  0  0  0  0  0  0  0  0  0  0  0
   -3.2636   -0.8184   -0.0644 C   0  0  0  0  0  0  0  0  0  0  0  0
   -2.2889    1.3452    0.6780 C   0  0  0  0  0  0  0  0  0  0  0  0
   -3.4087    0.5561    0.1349 C   0  0  0  0  0  0  0  0  0  0  0  0
   -2.2486   -2.3415    1.6162 C   0  0  0  0  0  0  0  0  0  0  0  0
    3.7796   -0.6983    3.1570 C   0  0  0  0  0  0  0  0  0  0  0  0
    5.3721   -1.3422    1.4772 C   0  0  0  0  0  0  0  0  0  0  0  0
   -4.3538   -1.5332   -0.5948 C   0  0  0  0  0  0  0  0  0  0  0  0
    3.4273    0.4119   -2.7090 C   0  0  0  0  0  0  0  0  0  0  0  0
   -4.6104    1.2045   -0.1840 C   0  0  0  0  0  0  0  0  0  0  0  0
   -5.5485   -0.8893   -0.9193 C   0  0  0  0  0  0  0  0  0  0  0  0
   -5.6768    0.4798   -0.7122 C   0  0  0  0  0  0  0  0  0  0  0  0
    1.4627   -0.4740    2.2627 H   0  0  0  0  0  0  0  0  0  0  0  0
    0.5086   -2.2285    1.0666 H   0  0  0  0  0  0  0  0  0  0  0  0
    0.8139   -1.5187   -0.5054 H   0  0  0  0  0  0  0  0  0  0  0  0
    2.9266   -2.2143    1.0765 H   0  0  0  0  0  0  0  0  0  0  0  0
    2.5928    2.6741    1.2023 H   0  0  0  0  0  0  0  0  0  0  0  0
   -1.3846   -2.9557    1.8925 H   0  0  0  0  0  0  0  0  0  0  0  0
   -3.0784   -3.0471    1.5135 H   0  0  0  0  0  0  0  0  0  0  0  0
   -2.4810   -1.6843    2.4629 H   0  0  0  0  0  0  0  0  0  0  0  0
    3.0286    0.0393    3.4524 H   0  0  0  0  0  0  0  0  0  0  0  0
    3.4366   -1.6997    3.4424 H   0  0  0  0  0  0  0  0  0  0  0  0
    4.6486   -0.4600    3.7832 H   0  0  0  0  0  0  0  0  0  0  0  0
    5.2398   -2.4303    1.4963 H   0  0  0  0  0  0  0  0  0  0  0  0
    5.8388   -1.0393    0.5351 H   0  0  0  0  0  0  0  0  0  0  0  0
    6.1283   -1.0974    2.2340 H   0  0  0  0  0  0  0  0  0  0  0  0
   -1.6615   -1.9954   -1.5536 H   0  0  0  0  0  0  0  0  0  0  0  0
    1.4810    2.9513   -0.6269 H   0  0  0  0  0  0  0  0  0  0  0  0
   -6.3903   -1.4361   -1.3376 H   0  0  0  0  0  0  0  0  0  0  0  0
   -6.6091    0.9765   -0.9673 H   0  0  0  0  0  0  0  0  0  0  0  0
    1.4100    0.3674   -3.3068 H   0  0  0  0  0  0  0  0  0  0  0  0
    2.5457    0.5632   -4.5906 H   0  0  0  0  0  0  0  0  0  0  0  0
   -3.9677    2.9782    0.2237 H   0  0  0  0  0  0  0  0  0  0  0  0
  1 29  1  0  0  0  0
  2 13  1  0  0  0  0
  2 38  1  0  0  0  0
  3 17  1  0  0  0  0
  3 48  1  0  0  0  0
  4 20  1  0  0  0  0
  4 49  1  0  0  0  0
  5 19  2  0  0  0  0
  6 21  2  0  0  0  0
  7 24  2  0  0  0  0
  8 31  1  0  0  0  0
  8 54  1  0  0  0  0
  9 30  2  0  0  0  0
 10 15  1  0  0  0  0
 10 27  1  0  0  0  0
 10 28  1  0  0  0  0
 11 30  1  0  0  0  0
 11 52  1  0  0  0  0
 11 53  1  0  0  0  0
 12 13  1  0  0  0  0
 12 14  1  0  0  0  0
 12 15  1  0  0  0  0
 12 34  1  0  0  0  0
 13 19  1  0  0  0  0
 13 20  1  0  0  0  0
 14 16  1  0  0  0  0
 14 35  1  0  0  0  0
 14 36  1  0  0  0  0
 15 21  1  0  0  0  0
 15 37  1  0  0  0  0
 16 17  1  0  0  0  0
 16 18  2  0  0  0  0
 17 23  1  0  0  0  0
 17 26  1  0  0  0  0
 18 19  1  0  0  0  0
 18 24  1  0  0  0  0
 20 22  2  0  0  0  0
 21 22  1  0  0  0  0
 22 30  1  0  0  0  0
 23 25  1  0  0  0  0
 23 29  2  0  0  0  0
 24 25  1  0  0  0  0
 25 31  2  0  0  0  0
 26 39  1  0  0  0  0
 26 40  1  0  0  0  0
 26 41  1  0  0  0  0
 27 42  1  0  0  0  0
 27 43  1  0  0  0  0
 27 44  1  0  0  0  0
 28 45  1  0  0  0  0
 28 46  1  0  0  0  0
 28 47  1  0  0  0  0
 29 32  1  0  0  0  0
 31 33  1  0  0  0  0
 32 33  2  0  0  0  0
 32 50  1  0  0  0  0
 33 51  1  0  0  0  0
M  END
> <PUBCHEM_COMPOUND_CID>
54726727

> <PUBCHEM_CONFORMER_RMSD>
0.8

> <PUBCHEM_CONFORMER_DIVERSEORDER>
1
2

> <PUBCHEM_MMFF94_PARTIAL_CHARGES>
39
1 -0.18
10 -0.81
11 -0.8
13 0.48
14 0.14
15 0.33
16 -0.28
17 0.56
18 0.03
19 0.49
2 -0.68
20 -0.06
21 0.49
22 0.03
23 -0.14
24 0.47
25 0.09
27 0.27
28 0.27
29 0.18
3 -0.68
30 0.62
31 0.08
32 -0.15
33 -0.15
38 0.4
4 -0.53
48 0.4
49 0.45
5 -0.57
50 0.15
51 0.15
52 0.37
53 0.37
54 0.45
6 -0.57
7 -0.57
8 -0.53
9 -0.57

> <PUBCHEM_EFFECTIVE_ROTOR_COUNT>
2.6

> <PUBCHEM_PHARMACOPHORE_FEATURES>
18
1 10 cation
1 11 donor
1 18 anion
1 2 acceptor
1 2 donor
1 22 anion
1 3 acceptor
1 3 donor
1 4 donor
1 5 acceptor
1 6 acceptor
1 7 acceptor
1 8 donor
1 9 acceptor
6 12 13 14 16 18 19 rings
6 12 13 15 20 21 22 rings
6 16 17 18 23 24 25 rings
6 23 25 29 31 32 33 rings

> <PUBCHEM_HEAVY_ATOM_COUNT>
33

> <PUBCHEM_ATOM_DEF_STEREO_COUNT>
4

> <PUBCHEM_ATOM_UDEF_STEREO_COUNT>
0

> <PUBCHEM_BOND_DEF_STEREO_COUNT>
0

> <PUBCHEM_BOND_UDEF_STEREO_COUNT>
0

> <PUBCHEM_ISOTOPIC_ATOM_COUNT>
0

> <PUBCHEM_COMPONENT_COUNT>
1

> <PUBCHEM_CACTVS_TAUTO_COUNT>
180

> <PUBCHEM_CONFORMER_ID>
0343104700000001

> <PUBCHEM_MMFF94_ENERGY>
108.1473

> <PUBCHEM_FEATURE_SELFOVERLAP>
91.467

> <PUBCHEM_SHAPE_FINGERPRINT>
10165383 225 12679171765121815792
11578080 2 17844277140528288468
12166972 35 17917722326513243578
12236239 1 18131074874139185370
12553582 1 18261938683541753587
12788726 201 18339631351918745089
13224815 77 18113896022777960315
13533116 47 14057001628749151783
13590594 115 16486422117337185956
13692114 37 16616769422357631844
13726171 33 18123155014274761936
13782708 43 17023173990261149310
13911987 19 15410036535330729642
14068700 675 18196934581983814998
14294032 229 18052536870648777893
15021287 119 17059784436734819225
15131766 46 16701162081444932037
15238133 3 18342742952565672211
16752209 62 18335413586691052131
17349148 13 18341339954380524339
17809404 112 17531251634149471967
1813 80 17345202301573268490
20511986 3 18202003201427360740
21033648 144 16486970661443178062
21033648 29 17024337229949051323
21033650 10 18189035637976497433
21133410 90 18127158422180107517
21781051 124 18342448224343669011
22122407 14 16629679703734690493
22393880 68 18335696092333112165
22907989 373 17914596299271025039
23557571 272 17748830730136406425
23559900 14 18113334193663621784
3004659 81 18272651281292499574
335352 9 18335996332771076813
460360 51 18271238327124817873
5104073 3 18262527992157799091
633830 44 16559037108014890137
6823239 73 17967526844549946046
7808743 9 11455301996473921558
9658208 31 17171504804106482593
9709674 26 18192721051119343307
9981440 41 17409370572615971504

> <PUBCHEM_SHAPE_MULTIPOLES>
624.08
11.57
2.79
2.46
5.19
0.08
-1.38
2.49
-2.62
2.06
0.28
-4.24
-0.33
-2.4

> <PUBCHEM_SHAPE_SELFOVERLAP>
1380.171

> <PUBCHEM_SHAPE_VOLUME>
333

> <PUBCHEM_COORDINATE_TYPE>
2
5
10

$$$$

