12011795
  -OEChem-07051213083D

 21 21  0     1  0  0  0  0  0999 V2000
   -0.2853   -2.2744    0.8745 O   0  0  0  0  0  0  0  0  0  0  0  0
    2.9165   -0.0585   -0.1058 O   0  0  0  0  0  0  0  0  0  0  0  0
    1.6465    1.8002   -0.4641 O   0  0  0  0  0  0  0  0  0  0  0  0
   -0.4514    0.7507    0.8064 N   0  0  0  0  0  0  0  0  0  0  0  0
   -1.7462   -0.2990   -0.9062 N   0  0  0  0  0  0  0  0  0  0  0  0
    0.7114   -0.1002    0.6940 C   0  0  1  0  0  0  0  0  0  0  0  0
    0.3471   -1.3839   -0.0468 C   0  0  2  0  0  0  0  0  0  0  0  0
   -0.5817   -1.1347   -1.2378 C   0  0  0  0  0  0  0  0  0  0  0  0
   -1.5817    0.5653    0.0412 C   0  0  0  0  0  0  0  0  0  0  0  0
    1.7770    0.6700   -0.0178 C   0  0  0  0  0  0  0  0  0  0  0  0
   -2.7522    1.4645    0.3623 C   0  0  0  0  0  0  0  0  0  0  0  0
    1.0727   -0.3130    1.7070 H   0  0  0  0  0  0  0  0  0  0  0  0
    1.2389   -1.9079   -0.4087 H   0  0  0  0  0  0  0  0  0  0  0  0
   -0.0327   -0.6560   -2.0567 H   0  0  0  0  0  0  0  0  0  0  0  0
   -0.9595   -2.0941   -1.6085 H   0  0  0  0  0  0  0  0  0  0  0  0
   -0.4244    1.4894    1.5041 H   0  0  0  0  0  0  0  0  0  0  0  0
    0.3545   -2.4706    1.5800 H   0  0  0  0  0  0  0  0  0  0  0  0
   -3.0900    1.2665    1.3837 H   0  0  0  0  0  0  0  0  0  0  0  0
   -3.5810    1.2879   -0.3288 H   0  0  0  0  0  0  0  0  0  0  0  0
   -2.4406    2.5102    0.2857 H   0  0  0  0  0  0  0  0  0  0  0  0
    3.6282    0.4294   -0.5722 H   0  0  0  0  0  0  0  0  0  0  0  0
  1  7  1  0  0  0  0
  1 17  1  0  0  0  0
  2 10  1  0  0  0  0
  2 21  1  0  0  0  0
  3 10  2  0  0  0  0
  4  6  1  0  0  0  0
  4  9  1  0  0  0  0
  4 16  1  0  0  0  0
  5  8  1  0  0  0  0
  5  9  2  0  0  0  0
  6  7  1  0  0  0  0
  6 10  1  0  0  0  0
  6 12  1  0  0  0  0
  7  8  1  0  0  0  0
  7 13  1  0  0  0  0
  8 14  1  0  0  0  0
  8 15  1  0  0  0  0
  9 11  1  0  0  0  0
 11 18  1  0  0  0  0
 11 19  1  0  0  0  0
 11 20  1  0  0  0  0
M  END
> <PUBCHEM_COMPOUND_CID>
12011795

> <PUBCHEM_CONFORMER_RMSD>
0.4

> <PUBCHEM_CONFORMER_DIVERSEORDER>
1
5
2
4
3

> <PUBCHEM_MMFF94_PARTIAL_CHARGES>
14
1 -0.68
10 0.66
11 0.06
16 0.4
17 0.4
2 -0.65
21 0.5
3 -0.57
4 -0.82
5 -0.7
6 0.43
7 0.28
8 0.25
9 0.44

> <PUBCHEM_EFFECTIVE_ROTOR_COUNT>
1.8

> <PUBCHEM_PHARMACOPHORE_FEATURES>
8
1 1 acceptor
1 1 donor
1 2 acceptor
1 3 acceptor
1 4 donor
3 2 3 10 anion
3 4 5 9 cation
6 4 5 6 7 8 9 rings

> <PUBCHEM_HEAVY_ATOM_COUNT>
11

> <PUBCHEM_ATOM_DEF_STEREO_COUNT>
2

> <PUBCHEM_ATOM_UDEF_STEREO_COUNT>
0

> <PUBCHEM_BOND_DEF_STEREO_COUNT>
0

> <PUBCHEM_BOND_UDEF_STEREO_COUNT>
0

> <PUBCHEM_ISOTOPIC_ATOM_COUNT>
0

> <PUBCHEM_COMPONENT_COUNT>
1

> <PUBCHEM_CACTVS_TAUTO_COUNT>
2

> <PUBCHEM_CONFORMER_ID>
00B7491300000001

> <PUBCHEM_MMFF94_ENERGY>
19.0758

> <PUBCHEM_FEATURE_SELFOVERLAP>
40.651

> <PUBCHEM_SHAPE_FINGERPRINT>
100427 49 16966888537713668381
10702982 57 18409731767871523567
12423570 1 15446881413751174326
12716758 59 17603876589066400770
13024252 1 12750420019606339070
15557651 10 17275107245015916628
15775835 57 18334856146975150980
16945 1 18042135283778280583
18185500 45 18190195652771310843
19837323 101 18191578657957808988
20653085 51 18261663809908768428
21040471 1 18041292031516645129
23235685 24 18410293639814650816
2748010 2 16606054088728203961
4369600 1 16516262858377446305
5084963 1 18336838523563853941
528862 383 18194967576401939483

> <PUBCHEM_SHAPE_MULTIPOLES>
198.8
3.14
1.88
0.98
0.18
0.48
-0.07
-1.69
-0.12
-0.01
0.1
0.14
0.28
-0.39

> <PUBCHEM_SHAPE_SELFOVERLAP>
400.986

> <PUBCHEM_SHAPE_VOLUME>
113.6

> <PUBCHEM_COORDINATE_TYPE>
2
5
10

$$$$

