5281393
  -OEChem-07051212563D

 56 57  0     1  0  0  0  0  0999 V2000
   -0.2565   -3.0449    1.9240 O   0  0  0  0  0  0  0  0  0  0  0  0
    1.4011    1.5169   -2.1023 O   0  0  0  0  0  0  0  0  0  0  0  0
   -2.7391    2.6897    0.9534 O   0  0  0  0  0  0  0  0  0  0  0  0
   -6.5964    0.4617   -1.4925 O   0  0  0  0  0  0  0  0  0  0  0  0
    0.1236   -1.1118    0.5729 C   0  0  2  0  0  0  0  0  0  0  0  0
    1.0432    0.1174    0.2603 C   0  0  2  0  0  0  0  0  0  0  0  0
    2.0961   -0.3817   -0.7749 C   0  0  2  0  0  0  0  0  0  0  0  0
    0.1347   -1.8469   -0.7895 C   0  0  1  0  0  0  0  0  0  0  0  0
    1.6048   -1.7861   -1.2080 C   0  0  0  0  0  0  0  0  0  0  0  0
    1.6033    0.8293    1.4970 C   0  0  0  0  0  0  0  0  0  0  0  0
   -1.3008   -0.6566    0.9350 C   0  0  0  0  0  0  0  0  0  0  0  0
    3.5561   -0.4699   -0.2809 C   0  0  0  0  0  0  0  0  0  0  0  0
    0.6529   -1.9842    1.7289 C   0  0  0  0  0  0  0  0  0  0  0  0
   -0.4077   -3.2705   -0.8050 C   0  0  0  0  0  0  0  0  0  0  0  0
    2.0532    0.4813   -2.0198 C   0  0  0  0  0  0  0  0  0  0  0  0
    2.3774    2.1012    1.1591 C   0  0  0  0  0  0  0  0  0  0  0  0
    4.2800    0.8306   -0.0041 C   0  0  0  0  0  0  0  0  0  0  0  0
   -1.9456    0.0809   -0.2320 C   0  0  0  0  0  0  0  0  0  0  0  0
    3.7434    1.9216    0.5699 C   0  0  0  0  0  0  0  0  0  0  0  0
    5.7214    0.8503   -0.4463 C   0  0  0  0  0  0  0  0  0  0  0  0
   -3.3492    0.5331    0.1093 C   0  0  0  0  0  0  0  0  0  0  0  0
   -3.4690    1.5077    1.2551 C   0  0  0  0  0  0  0  0  0  0  0  0
   -4.4547    0.1181   -0.5403 C   0  0  0  0  0  0  0  0  0  0  0  0
   -5.8720    0.5129   -0.2692 C   0  0  0  0  0  0  0  0  0  0  0  0
    0.4380    0.8832   -0.2171 H   0  0  0  0  0  0  0  0  0  0  0  0
   -0.3826   -1.2901   -1.5742 H   0  0  0  0  0  0  0  0  0  0  0  0
    2.1763   -2.5729   -0.6999 H   0  0  0  0  0  0  0  0  0  0  0  0
    1.7109   -1.9698   -2.2841 H   0  0  0  0  0  0  0  0  0  0  0  0
    0.7666    1.1145    2.1469 H   0  0  0  0  0  0  0  0  0  0  0  0
    2.2384    0.1637    2.0926 H   0  0  0  0  0  0  0  0  0  0  0  0
   -1.2523   -0.0212    1.8256 H   0  0  0  0  0  0  0  0  0  0  0  0
   -1.9404   -1.5086    1.1962 H   0  0  0  0  0  0  0  0  0  0  0  0
    3.6233   -1.1014    0.6142 H   0  0  0  0  0  0  0  0  0  0  0  0
    4.1254   -1.0059   -1.0548 H   0  0  0  0  0  0  0  0  0  0  0  0
    1.6447   -2.3972    1.5254 H   0  0  0  0  0  0  0  0  0  0  0  0
    0.7001   -1.4202    2.6658 H   0  0  0  0  0  0  0  0  0  0  0  0
    0.2295   -3.9723   -0.2587 H   0  0  0  0  0  0  0  0  0  0  0  0
   -1.4270   -3.3174   -0.4105 H   0  0  0  0  0  0  0  0  0  0  0  0
   -0.4470   -3.6358   -1.8380 H   0  0  0  0  0  0  0  0  0  0  0  0
    2.6697    0.1395   -2.8700 H   0  0  0  0  0  0  0  0  0  0  0  0
    1.7853    2.7514    0.5047 H   0  0  0  0  0  0  0  0  0  0  0  0
    2.5100    2.6550    2.0980 H   0  0  0  0  0  0  0  0  0  0  0  0
   -2.0558   -0.5689   -1.1031 H   0  0  0  0  0  0  0  0  0  0  0  0
   -1.4076    0.9704   -0.5615 H   0  0  0  0  0  0  0  0  0  0  0  0
    4.3742    2.8048    0.6678 H   0  0  0  0  0  0  0  0  0  0  0  0
    0.0845   -3.5870    2.6555 H   0  0  0  0  0  0  0  0  0  0  0  0
    6.2226    1.7929   -0.2023 H   0  0  0  0  0  0  0  0  0  0  0  0
    6.2771    0.0445    0.0444 H   0  0  0  0  0  0  0  0  0  0  0  0
    5.7876    0.7109   -1.5305 H   0  0  0  0  0  0  0  0  0  0  0  0
   -3.0618    1.0809    2.1758 H   0  0  0  0  0  0  0  0  0  0  0  0
   -4.4893    1.8059    1.5011 H   0  0  0  0  0  0  0  0  0  0  0  0
   -4.3228   -0.6082   -1.3415 H   0  0  0  0  0  0  0  0  0  0  0  0
   -6.3307   -0.1948    0.4276 H   0  0  0  0  0  0  0  0  0  0  0  0
   -5.9712    1.5299    0.1142 H   0  0  0  0  0  0  0  0  0  0  0  0
   -3.1414    3.0903    0.1636 H   0  0  0  0  0  0  0  0  0  0  0  0
   -7.5190    0.6910   -1.2880 H   0  0  0  0  0  0  0  0  0  0  0  0
  1 13  1  0  0  0  0
  1 46  1  0  0  0  0
  2 15  2  0  0  0  0
  3 22  1  0  0  0  0
  3 55  1  0  0  0  0
  4 24  1  0  0  0  0
  4 56  1  0  0  0  0
  5  6  1  0  0  0  0
  5  8  1  0  0  0  0
  5 11  1  0  0  0  0
  5 13  1  0  0  0  0
  6  7  1  0  0  0  0
  6 10  1  0  0  0  0
  6 25  1  0  0  0  0
  7  9  1  0  0  0  0
  7 12  1  0  0  0  0
  7 15  1  0  0  0  0
  8  9  1  0  0  0  0
  8 14  1  0  0  0  0
  8 26  1  0  0  0  0
  9 27  1  0  0  0  0
  9 28  1  0  0  0  0
 10 16  1  0  0  0  0
 10 29  1  0  0  0  0
 10 30  1  0  0  0  0
 11 18  1  0  0  0  0
 11 31  1  0  0  0  0
 11 32  1  0  0  0  0
 12 17  1  0  0  0  0
 12 33  1  0  0  0  0
 12 34  1  0  0  0  0
 13 35  1  0  0  0  0
 13 36  1  0  0  0  0
 14 37  1  0  0  0  0
 14 38  1  0  0  0  0
 14 39  1  0  0  0  0
 15 40  1  0  0  0  0
 16 19  1  0  0  0  0
 16 41  1  0  0  0  0
 16 42  1  0  0  0  0
 17 19  2  0  0  0  0
 17 20  1  0  0  0  0
 18 21  1  0  0  0  0
 18 43  1  0  0  0  0
 18 44  1  0  0  0  0
 19 45  1  0  0  0  0
 20 47  1  0  0  0  0
 20 48  1  0  0  0  0
 20 49  1  0  0  0  0
 21 22  1  0  0  0  0
 21 23  2  0  0  0  0
 22 50  1  0  0  0  0
 22 51  1  0  0  0  0
 23 24  1  0  0  0  0
 23 52  1  0  0  0  0
 24 53  1  0  0  0  0
 24 54  1  0  0  0  0
M  END
> <PUBCHEM_COMPOUND_CID>
5281393

> <PUBCHEM_CONFORMER_RMSD>
0.8

> <PUBCHEM_CONFORMER_DIVERSEORDER>
1
57
10
51
7
32
13
45
38
17
50
54
27
3
53
24
36
37
58
29
46
48
25
12
47
44
52
28
16
55
6
43
35
23
39
4
9
15
41
5
34
42
33
11
19
40
26
20
14
31
8
2
30
22
18
21
49
56

> <PUBCHEM_MMFF94_PARTIAL_CHARGES>
23
1 -0.68
12 0.14
13 0.28
15 0.45
16 0.14
17 -0.28
18 0.14
19 -0.29
2 -0.57
20 0.14
21 -0.28
22 0.42
23 -0.29
24 0.42
3 -0.68
4 -0.68
40 0.06
45 0.15
46 0.4
52 0.15
55 0.4
56 0.4
7 0.06

> <PUBCHEM_EFFECTIVE_ROTOR_COUNT>
8.2

> <PUBCHEM_PHARMACOPHORE_FEATURES>
9
1 1 acceptor
1 1 donor
1 2 acceptor
1 3 acceptor
1 3 donor
1 4 acceptor
1 4 donor
5 5 6 7 8 9 rings
7 6 7 10 12 16 17 19 rings

> <PUBCHEM_HEAVY_ATOM_COUNT>
24

> <PUBCHEM_ATOM_DEF_STEREO_COUNT>
4

> <PUBCHEM_ATOM_UDEF_STEREO_COUNT>
0

> <PUBCHEM_BOND_DEF_STEREO_COUNT>
1

> <PUBCHEM_BOND_UDEF_STEREO_COUNT>
0

> <PUBCHEM_ISOTOPIC_ATOM_COUNT>
0

> <PUBCHEM_COMPONENT_COUNT>
1

> <PUBCHEM_CACTVS_TAUTO_COUNT>
1

> <PUBCHEM_CONFORMER_ID>
0050967100000001

> <PUBCHEM_MMFF94_ENERGY>
76.9981

> <PUBCHEM_FEATURE_SELFOVERLAP>
45.688

> <PUBCHEM_SHAPE_FINGERPRINT>
10498660 4 18261397720063925415
10693767 8 17241038933491634270
10948715 1 18334573525727150666
11578080 2 17607537830287026720
12011746 2 18261104163339215844
12403259 327 14261348059641995057
12596602 18 15697709325088564580
12670546 177 17022903432690195989
12730499 353 18334851719454634651
13464514 151 18188760768907232528
13544653 18 9871754585009859402
13583140 156 18060134289299086570
13911987 19 14563372792986039392
14341114 176 12607405507094403181
14955137 171 15697998540228799764
15142383 8 6122514493058890883
16945 1 18334582334953131002
20567600 254 18272092690619828041
20567600 347 18409730681382253235
21521239 73 17240199941425592646
21524375 3 18412260635993864291
221357 26 17821729446502007945
23557571 272 18265889147021035379
238 59 18335972138829960627
298252 57 18259983764747643002
3060560 45 18186808001801709287
335352 9 18259982666121771068
427121 178 18343025484051681042
4340502 62 18131630093557869899
474 4 18131062740940891869
54040823 5 16877662391698962710
7495541 125 15502668078687094655

> <PUBCHEM_SHAPE_MULTIPOLES>
470.43
10.21
2.8
1.73
11.01
1.38
-0.04
-6.47
-3.37
-0.18
0.81
-0.15
0.29
0.09

> <PUBCHEM_SHAPE_SELFOVERLAP>
960.66

> <PUBCHEM_SHAPE_VOLUME>
271.6

> <PUBCHEM_COORDINATE_TYPE>
2
5
10

$$$$

