9839306
  -OEChem-07051213122D

 46 47  0     1  0  0  0  0  0999 V2000
    3.7601    0.6877    0.0000 O   0  0  0  0  0  0  0  0  0  0  0  0
    5.4921    0.6877    0.0000 O   0  0  0  0  0  0  0  0  0  0  0  0
    4.8479   -2.6602    0.0000 O   0  0  0  0  0  0  0  0  0  0  0  0
    5.1261    3.0537    0.0000 C   0  0  0  0  0  0  0  0  0  0  0  0
    4.1261    3.0537    0.0000 C   0  0  3  0  0  0  0  0  0  0  0  0
    4.6261    2.1877    0.0000 C   0  0  3  0  0  0  0  0  0  0  0  0
    5.1261    4.0537    0.0000 C   0  0  0  0  0  0  0  0  0  0  0  0
    5.9921    2.5537    0.0000 C   0  0  0  0  0  0  0  0  0  0  0  0
    3.2601    3.5537    0.0000 C   0  0  0  0  0  0  0  0  0  0  0  0
    4.6261    1.1877    0.0000 C   0  0  0  0  0  0  0  0  0  0  0  0
    3.2601    4.5537    0.0000 C   0  0  0  0  0  0  0  0  0  0  0  0
    3.7601   -0.3123    0.0000 C   0  0  3  0  0  0  0  0  0  0  0  0
    2.3940    5.0537    0.0000 C   0  0  0  0  0  0  0  0  0  0  0  0
    4.1261    5.0537    0.0000 C   0  0  0  0  0  0  0  0  0  0  0  0
    4.5691   -0.9001    0.0000 C   0  0  0  0  0  0  0  0  0  0  0  0
    2.9511   -0.9001    0.0000 C   0  0  0  0  0  0  0  0  0  0  0  0
    3.2601   -1.8512    0.0000 C   0  0  0  0  0  0  0  0  0  0  0  0
    4.2601   -1.8512    0.0000 C   0  0  0  0  0  0  0  0  0  0  0  0
    2.0000   -0.5911    0.0000 C   0  0  0  0  0  0  0  0  0  0  0  0
    2.6723   -2.6602    0.0000 C   0  0  0  0  0  0  0  0  0  0  0  0
    3.0790   -3.5737    0.0000 C   0  0  0  0  0  0  0  0  0  0  0  0
    3.4858   -4.4873    0.0000 C   0  0  0  0  0  0  0  0  0  0  0  0
    4.2866    3.6526    0.0000 H   0  0  0  0  0  0  0  0  0  0  0  0
    5.2250    2.0272    0.0000 H   0  0  0  0  0  0  0  0  0  0  0  0
    5.7461    4.0537    0.0000 H   0  0  0  0  0  0  0  0  0  0  0  0
    5.1261    4.6737    0.0000 H   0  0  0  0  0  0  0  0  0  0  0  0
    4.5061    4.0537    0.0000 H   0  0  0  0  0  0  0  0  0  0  0  0
    5.6821    2.0168    0.0000 H   0  0  0  0  0  0  0  0  0  0  0  0
    6.5291    2.2437    0.0000 H   0  0  0  0  0  0  0  0  0  0  0  0
    6.3021    3.0906    0.0000 H   0  0  0  0  0  0  0  0  0  0  0  0
    2.7231    3.2437    0.0000 H   0  0  0  0  0  0  0  0  0  0  0  0
    4.3125   -0.0309    0.0000 H   0  0  0  0  0  0  0  0  0  0  0  0
    5.1355   -1.1523    0.0000 H   0  0  0  0  0  0  0  0  0  0  0  0
    4.8791   -0.3632    0.0000 H   0  0  0  0  0  0  0  0  0  0  0  0
    2.7040    5.5906    0.0000 H   0  0  0  0  0  0  0  0  0  0  0  0
    1.8571    5.3637    0.0000 H   0  0  0  0  0  0  0  0  0  0  0  0
    4.4361    4.5168    0.0000 H   0  0  0  0  0  0  0  0  0  0  0  0
    4.6630    5.3637    0.0000 H   0  0  0  0  0  0  0  0  0  0  0  0
    2.0840    4.5168    0.0000 H   0  0  0  0  0  0  0  0  0  0  0  0
    3.8161    5.5906    0.0000 H   0  0  0  0  0  0  0  0  0  0  0  0
    2.1916   -0.0015    0.0000 H   0  0  0  0  0  0  0  0  0  0  0  0
    1.4103   -0.3995    0.0000 H   0  0  0  0  0  0  0  0  0  0  0  0
    1.8084   -1.1808    0.0000 H   0  0  0  0  0  0  0  0  0  0  0  0
    2.2416   -2.2142    0.0000 H   0  0  0  0  0  0  0  0  0  0  0  0
    2.1583   -3.0069    0.0000 H   0  0  0  0  0  0  0  0  0  0  0  0
    3.7379   -5.0537    0.0000 H   0  0  0  0  0  0  0  0  0  0  0  0
  1 10  1  0  0  0  0
  1 12  1  0  0  0  0
  2 10  2  0  0  0  0
  3 18  2  0  0  0  0
  4  5  1  0  0  0  0
  4  6  1  0  0  0  0
  4  7  1  0  0  0  0
  4  8  1  0  0  0  0
  5  6  1  0  0  0  0
  5  9  1  0  0  0  0
  5 23  1  0  0  0  0
  6 10  1  0  0  0  0
  6 24  1  0  0  0  0
  7 25  1  0  0  0  0
  7 26  1  0  0  0  0
  7 27  1  0  0  0  0
  8 28  1  0  0  0  0
  8 29  1  0  0  0  0
  8 30  1  0  0  0  0
  9 11  2  0  0  0  0
  9 31  1  0  0  0  0
 11 13  1  0  0  0  0
 11 14  1  0  0  0  0
 12 15  1  0  0  0  0
 12 16  1  0  0  0  0
 12 32  1  0  0  0  0
 13 35  1  0  0  0  0
 13 36  1  0  0  0  0
 13 39  1  0  0  0  0
 14 37  1  0  0  0  0
 14 38  1  0  0  0  0
 14 40  1  0  0  0  0
 15 18  1  0  0  0  0
 15 33  1  0  0  0  0
 15 34  1  0  0  0  0
 16 17  2  0  0  0  0
 16 19  1  0  0  0  0
 17 18  1  0  0  0  0
 17 20  1  0  0  0  0
 19 41  1  0  0  0  0
 19 42  1  0  0  0  0
 19 43  1  0  0  0  0
 20 21  1  0  0  0  0
 20 44  1  0  0  0  0
 20 45  1  0  0  0  0
 21 22  3  0  0  0  0
 22 46  1  0  0  0  0
M  END
> <PUBCHEM_COMPOUND_CID>
9839306

> <PUBCHEM_COMPOUND_CANONICALIZED>
1

> <PUBCHEM_CACTVS_COMPLEXITY>
620

> <PUBCHEM_CACTVS_HBOND_ACCEPTOR>
3

> <PUBCHEM_CACTVS_HBOND_DONOR>
0

> <PUBCHEM_CACTVS_ROTATABLE_BOND>
5

> <PUBCHEM_CACTVS_SUBSKEYS>
AAADceB4MAAAAAAAAAAAAAAAGAAAAQAAAAAAAAAAAAAAAAAAAAAAGgAAAAAADxSggAICCAAABADIGqDSCAgAAAAgAAAACAEAAEgABBYAIQACEAAEoAAIIQOIwIAPgAAAAAAAAAAAAAAAAAAAAAAAAAAAAA==

> <PUBCHEM_IUPAC_OPENEYE_NAME>
(2-methyl-4-oxo-3-prop-2-ynyl-cyclopent-2-en-1-yl) 2,2-dimethyl-3-(2-methylprop-1-enyl)cyclopropanecarboxylate

> <PUBCHEM_IUPAC_CAS_NAME>
2,2-dimethyl-3-(2-methylprop-1-enyl)-1-cyclopropanecarboxylic acid (2-methyl-4-oxo-3-prop-2-ynyl-1-cyclopent-2-enyl) ester

> <PUBCHEM_IUPAC_NAME>
(2-methyl-4-oxo-3-prop-2-ynylcyclopent-2-en-1-yl) 2,2-dimethyl-3-(2-methylprop-1-enyl)cyclopropane-1-carboxylate

> <PUBCHEM_IUPAC_SYSTEMATIC_NAME>
(2-methyl-4-oxidanylidene-3-prop-2-ynyl-cyclopent-2-en-1-yl) 2,2-dimethyl-3-(2-methylprop-1-enyl)cyclopropane-1-carboxylate

> <PUBCHEM_IUPAC_TRADITIONAL_NAME>
2,2-dimethyl-3-(2-methylprop-1-enyl)cyclopropanecarboxylic acid (4-keto-2-methyl-3-propargyl-cyclopent-2-en-1-yl) ester

> <PUBCHEM_IUPAC_INCHI>
InChI=1S/C19H24O3/c1-7-8-13-12(4)16(10-15(13)20)22-18(21)17-14(9-11(2)3)19(17,5)6/h1,9,14,16-17H,8,10H2,2-6H3

> <PUBCHEM_IUPAC_INCHIKEY>
SMKRKQBMYOFFMU-UHFFFAOYSA-N

> <PUBCHEM_XLOGP3>
4.3

> <PUBCHEM_EXACT_MASS>
300.172545

> <PUBCHEM_MOLECULAR_FORMULA>
C19H24O3

> <PUBCHEM_MOLECULAR_WEIGHT>
300.39206

> <PUBCHEM_OPENEYE_CAN_SMILES>
CC1=C(C(=O)CC1OC(=O)C2C(C2(C)C)C=C(C)C)CC#C

> <PUBCHEM_OPENEYE_ISO_SMILES>
CC1=C(C(=O)CC1OC(=O)C2C(C2(C)C)C=C(C)C)CC#C

> <PUBCHEM_CACTVS_TPSA>
43.4

> <PUBCHEM_MONOISOTOPIC_WEIGHT>
300.172545

> <PUBCHEM_TOTAL_CHARGE>
0

> <PUBCHEM_HEAVY_ATOM_COUNT>
22

> <PUBCHEM_ATOM_DEF_STEREO_COUNT>
0

> <PUBCHEM_ATOM_UDEF_STEREO_COUNT>
3

> <PUBCHEM_BOND_DEF_STEREO_COUNT>
0

> <PUBCHEM_BOND_UDEF_STEREO_COUNT>
0

> <PUBCHEM_ISOTOPIC_ATOM_COUNT>
0

> <PUBCHEM_COMPONENT_COUNT>
1

> <PUBCHEM_CACTVS_TAUTO_COUNT>
5

> <PUBCHEM_COORDINATE_TYPE>
1
5
255

> <PUBCHEM_BONDANNOTATIONS>
12  1  3
5  9  3
6  10  3

$$$$

