3844
  -OEChem-06251223433D

 71 78  0     1  0  0  0  0  0999 V2000
   -1.1889    2.6316    1.4649 O   0  0  0  0  0  0  0  0  0  0  0  0
   -3.5637    3.2580   -0.2052 O   0  0  0  0  0  0  0  0  0  0  0  0
   -2.3349    0.5045   -1.9160 O   0  0  0  0  0  0  0  0  0  0  0  0
   -4.4975    0.9531   -1.2385 O   0  0  0  0  0  0  0  0  0  0  0  0
    4.8547   -1.3830    0.7292 O   0  0  0  0  0  0  0  0  0  0  0  0
   -1.5419    0.3582    1.0352 N   0  0  0  0  0  0  0  0  0  0  0  0
    0.7104    2.1693    0.3050 N   0  0  0  0  0  0  0  0  0  0  0  0
    3.3942   -3.1450    1.2238 N   0  0  0  0  0  0  0  0  0  0  0  0
   -2.1888    1.6730    1.0750 C   0  0  2  0  0  0  0  0  0  0  0  0
   -2.6427    2.1778   -0.3086 C   0  0  2  0  0  0  0  0  0  0  0  0
   -0.4729    2.9820    0.2893 C   0  0  1  0  0  0  0  0  0  0  0  0
   -1.3633    2.7220   -0.9209 C   0  0  0  0  0  0  0  0  0  0  0  0
   -0.2152   -0.0136    0.9531 C   0  0  0  0  0  0  0  0  0  0  0  0
    0.8671    0.8540    0.6266 C   0  0  0  0  0  0  0  0  0  0  0  0
    0.1755   -1.3872    1.1675 C   0  0  0  0  0  0  0  0  0  0  0  0
   -3.2390    1.8011    2.1905 C   0  0  0  0  0  0  0  0  0  0  0  0
    2.1828    0.2502    0.6141 C   0  0  0  0  0  0  0  0  0  0  0  0
   -2.1589   -0.8967    1.1796 C   0  0  0  0  0  0  0  0  0  0  0  0
    2.0130    2.5655    0.0307 C   0  0  0  0  0  0  0  0  0  0  0  0
   -1.1722   -1.9212    1.3233 C   0  0  0  0  0  0  0  0  0  0  0  0
    1.4500   -1.9499    1.1773 C   0  0  0  0  0  0  0  0  0  0  0  0
    2.4922   -1.0773    0.8958 C   0  0  0  0  0  0  0  0  0  0  0  0
    2.9092    1.4660    0.2158 C   0  0  0  0  0  0  0  0  0  0  0  0
   -3.2914    1.1539   -1.1931 C   0  0  0  0  0  0  0  0  0  0  0  0
    1.9683   -3.3322    1.3973 C   0  0  0  0  0  0  0  0  0  0  0  0
   -3.5269   -1.2430    1.1989 C   0  0  0  0  0  0  0  0  0  0  0  0
    3.7423   -1.8314    0.9256 C   0  0  0  0  0  0  0  0  0  0  0  0
    2.4853    3.8297   -0.3746 C   0  0  0  0  0  0  0  0  0  0  0  0
   -1.6092   -3.2530    1.5410 C   0  0  0  0  0  0  0  0  0  0  0  0
    4.2864    1.7082   -0.0201 C   0  0  0  0  0  0  0  0  0  0  0  0
   -3.9135   -2.5694    1.4064 C   0  0  0  0  0  0  0  0  0  0  0  0
   -2.9677   -3.5633    1.5871 C   0  0  0  0  0  0  0  0  0  0  0  0
    3.8502    4.0151   -0.5923 C   0  0  0  0  0  0  0  0  0  0  0  0
    4.7413    2.9692   -0.4164 C   0  0  0  0  0  0  0  0  0  0  0  0
   -2.8178   -0.5060   -2.8069 C   0  0  0  0  0  0  0  0  0  0  0  0
   -1.6330   -1.1297   -3.5327 C   0  0  0  0  0  0  0  0  0  0  0  0
   -0.6565   -1.7813   -2.5548 C   0  0  0  0  0  0  0  0  0  0  0  0
    0.5697   -2.3946   -3.2365 C   0  0  0  0  0  0  0  0  0  0  0  0
    1.5348   -3.0682   -2.2601 C   0  0  0  0  0  0  0  0  0  0  0  0
    2.7686   -3.5966   -2.9762 C   0  0  0  0  0  0  0  0  0  0  0  0
   -0.1896    4.0348    0.3680 H   0  0  0  0  0  0  0  0  0  0  0  0
   -0.8406    2.0860   -1.6415 H   0  0  0  0  0  0  0  0  0  0  0  0
   -1.5392    3.6702   -1.4450 H   0  0  0  0  0  0  0  0  0  0  0  0
   -2.8968    1.3202    3.1146 H   0  0  0  0  0  0  0  0  0  0  0  0
   -4.2063    1.3776    1.9148 H   0  0  0  0  0  0  0  0  0  0  0  0
   -3.4141    2.8541    2.4443 H   0  0  0  0  0  0  0  0  0  0  0  0
   -3.7120    3.6228   -1.0946 H   0  0  0  0  0  0  0  0  0  0  0  0
    1.7787   -3.6887    2.4127 H   0  0  0  0  0  0  0  0  0  0  0  0
    1.6081   -4.0440    0.6520 H   0  0  0  0  0  0  0  0  0  0  0  0
   -4.3028   -0.5027    1.0464 H   0  0  0  0  0  0  0  0  0  0  0  0
    1.8039    4.6623   -0.5223 H   0  0  0  0  0  0  0  0  0  0  0  0
   -0.8833   -4.0538    1.6580 H   0  0  0  0  0  0  0  0  0  0  0  0
    5.0186    0.9175    0.0994 H   0  0  0  0  0  0  0  0  0  0  0  0
    4.0721   -3.8957    1.3085 H   0  0  0  0  0  0  0  0  0  0  0  0
   -4.9706   -2.8212    1.4245 H   0  0  0  0  0  0  0  0  0  0  0  0
   -3.2817   -4.5905    1.7483 H   0  0  0  0  0  0  0  0  0  0  0  0
    4.2161    4.9896   -0.9041 H   0  0  0  0  0  0  0  0  0  0  0  0
    5.8021    3.1267   -0.5904 H   0  0  0  0  0  0  0  0  0  0  0  0
   -3.3601   -1.2699   -2.2377 H   0  0  0  0  0  0  0  0  0  0  0  0
   -3.4964   -0.0510   -3.5373 H   0  0  0  0  0  0  0  0  0  0  0  0
   -1.9939   -1.8730   -4.2522 H   0  0  0  0  0  0  0  0  0  0  0  0
   -1.1027   -0.3512   -4.0944 H   0  0  0  0  0  0  0  0  0  0  0  0
   -1.1780   -2.5575   -1.9817 H   0  0  0  0  0  0  0  0  0  0  0  0
   -0.3054   -1.0326   -1.8378 H   0  0  0  0  0  0  0  0  0  0  0  0
    1.1004   -1.6079   -3.7873 H   0  0  0  0  0  0  0  0  0  0  0  0
    0.2374   -3.1306   -3.9790 H   0  0  0  0  0  0  0  0  0  0  0  0
    1.0300   -3.8852   -1.7342 H   0  0  0  0  0  0  0  0  0  0  0  0
    1.8573   -2.3332   -1.5229 H   0  0  0  0  0  0  0  0  0  0  0  0
    2.4956   -4.3473   -3.7245 H   0  0  0  0  0  0  0  0  0  0  0  0
    3.3074   -2.7880   -3.4803 H   0  0  0  0  0  0  0  0  0  0  0  0
    3.4508   -4.0630   -2.2585 H   0  0  0  0  0  0  0  0  0  0  0  0
  1  9  1  0  0  0  0
  1 11  1  0  0  0  0
  2 10  1  0  0  0  0
  2 47  1  0  0  0  0
  3 24  1  0  0  0  0
  3 35  1  0  0  0  0
  4 24  2  0  0  0  0
  5 27  2  0  0  0  0
  6  9  1  0  0  0  0
  6 13  1  0  0  0  0
  6 18  1  0  0  0  0
  7 11  1  0  0  0  0
  7 14  1  0  0  0  0
  7 19  1  0  0  0  0
  8 25  1  0  0  0  0
  8 27  1  0  0  0  0
  8 54  1  0  0  0  0
  9 10  1  0  0  0  0
  9 16  1  0  0  0  0
 10 12  1  0  0  0  0
 10 24  1  0  0  0  0
 11 12  1  0  0  0  0
 11 41  1  0  0  0  0
 12 42  1  0  0  0  0
 12 43  1  0  0  0  0
 13 14  2  0  0  0  0
 13 15  1  0  0  0  0
 14 17  1  0  0  0  0
 15 20  1  0  0  0  0
 15 21  2  0  0  0  0
 16 44  1  0  0  0  0
 16 45  1  0  0  0  0
 16 46  1  0  0  0  0
 17 22  2  0  0  0  0
 17 23  1  0  0  0  0
 18 20  1  0  0  0  0
 18 26  2  0  0  0  0
 19 23  1  0  0  0  0
 19 28  2  0  0  0  0
 20 29  2  0  0  0  0
 21 22  1  0  0  0  0
 21 25  1  0  0  0  0
 22 27  1  0  0  0  0
 23 30  2  0  0  0  0
 25 48  1  0  0  0  0
 25 49  1  0  0  0  0
 26 31  1  0  0  0  0
 26 50  1  0  0  0  0
 28 33  1  0  0  0  0
 28 51  1  0  0  0  0
 29 32  1  0  0  0  0
 29 52  1  0  0  0  0
 30 34  1  0  0  0  0
 30 53  1  0  0  0  0
 31 32  2  0  0  0  0
 31 55  1  0  0  0  0
 32 56  1  0  0  0  0
 33 34  2  0  0  0  0
 33 57  1  0  0  0  0
 34 58  1  0  0  0  0
 35 36  1  0  0  0  0
 35 59  1  0  0  0  0
 35 60  1  0  0  0  0
 36 37  1  0  0  0  0
 36 61  1  0  0  0  0
 36 62  1  0  0  0  0
 37 38  1  0  0  0  0
 37 63  1  0  0  0  0
 37 64  1  0  0  0  0
 38 39  1  0  0  0  0
 38 65  1  0  0  0  0
 38 66  1  0  0  0  0
 39 40  1  0  0  0  0
 39 67  1  0  0  0  0
 39 68  1  0  0  0  0
 40 69  1  0  0  0  0
 40 70  1  0  0  0  0
 40 71  1  0  0  0  0
M  END
> <PUBCHEM_COMPOUND_CID>
3844

> <PUBCHEM_CONFORMER_RMSD>
1

> <PUBCHEM_CONFORMER_DIVERSEORDER>
1
15
5
29
23
27
33
10
45
9
17
13
25
20
38
44
47
16
37
30
14
22
36
19
2
11
39
12
46
21
43
32
40
28
7
3
6
35
8
42
24
26
18
34
4
41
31

> <PUBCHEM_MMFF94_PARTIAL_CHARGES>
41
1 -0.56
10 0.34
11 0.54
13 -0.05
14 -0.05
15 -0.01
17 -0.01
18 -0.15
19 -0.15
2 -0.68
21 -0.14
22 0.09
24 0.66
25 0.44
26 -0.15
27 0.54
28 -0.15
29 -0.15
3 -0.43
30 -0.15
31 -0.15
32 -0.15
33 -0.15
34 -0.15
35 0.28
4 -0.57
47 0.4
5 -0.57
50 0.15
51 0.15
52 0.15
53 0.15
54 0.37
55 0.15
56 0.15
57 0.15
58 0.15
6 -0.04
7 -0.04
8 -0.73
9 0.54

> <PUBCHEM_EFFECTIVE_ROTOR_COUNT>
8

> <PUBCHEM_PHARMACOPHORE_FEATURES>
18
1 1 acceptor
1 2 acceptor
1 2 donor
1 4 acceptor
1 40 hydrophobe
1 5 acceptor
1 6 cation
1 7 cation
1 8 donor
4 36 37 38 39 hydrophobe
5 1 9 10 11 12 rings
5 6 13 15 18 20 rings
5 7 14 17 19 23 rings
5 8 21 22 25 27 rings
6 13 14 15 17 21 22 rings
6 18 20 26 29 31 32 rings
6 19 23 28 30 33 34 rings
7 1 6 7 9 11 13 14 rings

> <PUBCHEM_HEAVY_ATOM_COUNT>
40

> <PUBCHEM_ATOM_DEF_STEREO_COUNT>
0

> <PUBCHEM_ATOM_UDEF_STEREO_COUNT>
3

> <PUBCHEM_BOND_DEF_STEREO_COUNT>
0

> <PUBCHEM_BOND_UDEF_STEREO_COUNT>
0

> <PUBCHEM_ISOTOPIC_ATOM_COUNT>
0

> <PUBCHEM_COMPONENT_COUNT>
1

> <PUBCHEM_CACTVS_TAUTO_COUNT>
2

> <PUBCHEM_CONFORMER_ID>
00000F0400000001

> <PUBCHEM_MMFF94_ENERGY>
137.5328

> <PUBCHEM_FEATURE_SELFOVERLAP>
93.137

> <PUBCHEM_SHAPE_FINGERPRINT>
1100329 8 18198904893102295720
11578080 2 17418105312251193814
12156800 1 17559375977925937855
12608794 3 17340733847035786640
12633046 712 18130510850660964622
13140716 1 18270667744835391072
13642711 20 18342176614384578510
13911987 19 17624138200459857436
14790565 3 17694204583119085425
15274700 242 17830180100321875616
15406563 42 17201379368209124383
15439362 3 18200325432140550476
15815584 197 17695881372869509450
18603816 31 16228540319876719924
20600515 1 17977096096268498546
20764821 26 18272937132703488354
20766409 102 16685134264314836604
20775438 99 17908466560553530551
21857420 4 14530528537532557397
23559900 14 18341903999941243344
5080951 261 17393611281772621912

> <PUBCHEM_SHAPE_MULTIPOLES>
778.89
7.62
5.75
2.91
3.75
0.49
3.22
-2.44
-0.94
2.48
0.42
-1.87
2.92
0.59

> <PUBCHEM_SHAPE_SELFOVERLAP>
1771.032

> <PUBCHEM_SHAPE_VOLUME>
407.3

> <PUBCHEM_COORDINATE_TYPE>
2
5
10

$$$$

