54739
  -OEChem-07051212503D

 40 42  0     1  0  0  0  0  0999 V2000
   -3.2349    2.8841   -0.3074 O   0  0  0  0  0  0  0  0  0  0  0  0
   -0.4801   -2.8015    0.9678 O   0  0  0  0  0  0  0  0  0  0  0  0
   -0.4540   -2.8789   -1.3037 O   0  0  0  0  0  0  0  0  0  0  0  0
   -1.8850   -0.4018   -0.3142 N   0  0  0  0  0  0  0  0  0  0  0  0
   -1.2151    1.7399   -0.2064 N   0  0  0  0  0  0  0  0  0  0  0  0
    1.3646    1.0914   -0.0501 N   0  0  0  0  0  0  0  0  0  0  0  0
   -3.1053    0.4443   -0.3709 C   0  0  1  0  0  0  0  0  0  0  0  0
   -3.9897    0.1288    0.8279 C   0  0  0  0  0  0  0  0  0  0  0  0
   -2.5708    1.8603   -0.2942 C   0  0  0  0  0  0  0  0  0  0  0  0
   -3.8190    0.2026   -1.6945 C   0  0  0  0  0  0  0  0  0  0  0  0
   -4.5535   -1.2883    0.7265 C   0  0  0  0  0  0  0  0  0  0  0  0
   -3.2136    0.3019    2.1334 C   0  0  0  0  0  0  0  0  0  0  0  0
   -0.8960    0.4262   -0.2234 C   0  0  0  0  0  0  0  0  0  0  0  0
    0.5073    0.0489   -0.1398 C   0  0  0  0  0  0  0  0  0  0  0  0
    0.8973   -1.2750   -0.1524 C   0  0  0  0  0  0  0  0  0  0  0  0
    2.6823    0.8270    0.0323 C   0  0  0  0  0  0  0  0  0  0  0  0
    3.1781   -0.4936    0.0270 C   0  0  0  0  0  0  0  0  0  0  0  0
    2.2556   -1.5444   -0.0673 C   0  0  0  0  0  0  0  0  0  0  0  0
   -0.0549   -2.3709   -0.2512 C   0  0  0  0  0  0  0  0  0  0  0  0
    3.5991    1.8703    0.1260 C   0  0  0  0  0  0  0  0  0  0  0  0
    4.5600   -0.7331    0.1145 C   0  0  0  0  0  0  0  0  0  0  0  0
    4.9730    1.6325    0.2129 C   0  0  0  0  0  0  0  0  0  0  0  0
    5.4545    0.3293    0.2072 C   0  0  0  0  0  0  0  0  0  0  0  0
   -4.8361    0.8281    0.8524 H   0  0  0  0  0  0  0  0  0  0  0  0
   -3.9670   -0.8628   -1.8998 H   0  0  0  0  0  0  0  0  0  0  0  0
   -4.7918    0.7057   -1.7214 H   0  0  0  0  0  0  0  0  0  0  0  0
   -3.2309    0.5997   -2.5311 H   0  0  0  0  0  0  0  0  0  0  0  0
   -3.7656   -2.0409    0.6161 H   0  0  0  0  0  0  0  0  0  0  0  0
   -5.1170   -1.5377    1.6330 H   0  0  0  0  0  0  0  0  0  0  0  0
   -5.2517   -1.3910   -0.1099 H   0  0  0  0  0  0  0  0  0  0  0  0
   -2.3803   -0.4028    2.2231 H   0  0  0  0  0  0  0  0  0  0  0  0
   -3.8764    0.1166    2.9870 H   0  0  0  0  0  0  0  0  0  0  0  0
   -2.8261    1.3178    2.2559 H   0  0  0  0  0  0  0  0  0  0  0  0
   -0.5643    2.5141   -0.1393 H   0  0  0  0  0  0  0  0  0  0  0  0
    2.6029   -2.5761   -0.0744 H   0  0  0  0  0  0  0  0  0  0  0  0
    3.2473    2.9004    0.1325 H   0  0  0  0  0  0  0  0  0  0  0  0
    4.9475   -1.7495    0.1109 H   0  0  0  0  0  0  0  0  0  0  0  0
    5.6638    2.4676    0.2850 H   0  0  0  0  0  0  0  0  0  0  0  0
    6.5214    0.1404    0.2745 H   0  0  0  0  0  0  0  0  0  0  0  0
   -1.1240   -3.5375    0.8905 H   0  0  0  0  0  0  0  0  0  0  0  0
  1  9  2  0  0  0  0
  2 19  1  0  0  0  0
  2 40  1  0  0  0  0
  3 19  2  0  0  0  0
  4  7  1  0  0  0  0
  4 13  2  0  0  0  0
  5  9  1  0  0  0  0
  5 13  1  0  0  0  0
  5 34  1  0  0  0  0
  6 14  2  0  0  0  0
  6 16  1  0  0  0  0
  7  8  1  0  0  0  0
  7  9  1  0  0  0  0
  7 10  1  0  0  0  0
  8 11  1  0  0  0  0
  8 12  1  0  0  0  0
  8 24  1  0  0  0  0
 10 25  1  0  0  0  0
 10 26  1  0  0  0  0
 10 27  1  0  0  0  0
 11 28  1  0  0  0  0
 11 29  1  0  0  0  0
 11 30  1  0  0  0  0
 12 31  1  0  0  0  0
 12 32  1  0  0  0  0
 12 33  1  0  0  0  0
 13 14  1  0  0  0  0
 14 15  1  0  0  0  0
 15 18  2  0  0  0  0
 15 19  1  0  0  0  0
 16 17  1  0  0  0  0
 16 20  2  0  0  0  0
 17 18  1  0  0  0  0
 17 21  2  0  0  0  0
 18 35  1  0  0  0  0
 20 22  1  0  0  0  0
 20 36  1  0  0  0  0
 21 23  1  0  0  0  0
 21 37  1  0  0  0  0
 22 23  2  0  0  0  0
 22 38  1  0  0  0  0
 23 39  1  0  0  0  0
M  END
> <PUBCHEM_COMPOUND_CID>
54739

> <PUBCHEM_CONFORMER_RMSD>
0.6

> <PUBCHEM_CONFORMER_DIVERSEORDER>
2
3
4
19
17
7
13
16
12
18
14
6
15
9
8
5
20
11
10
1

> <PUBCHEM_MMFF94_PARTIAL_CHARGES>
25
1 -0.57
13 0.42
14 0.4
15 0.09
16 0.31
18 -0.15
19 0.63
2 -0.65
20 -0.15
21 -0.15
22 -0.15
23 -0.15
3 -0.57
34 0.37
35 0.15
36 0.15
37 0.15
38 0.15
39 0.15
4 -0.7
40 0.5
5 -0.49
6 -0.62
7 0.31
9 0.57

> <PUBCHEM_EFFECTIVE_ROTOR_COUNT>
3.4

> <PUBCHEM_PHARMACOPHORE_FEATURES>
10
1 1 acceptor
1 2 acceptor
1 3 acceptor
1 5 donor
1 6 acceptor
3 2 3 19 anion
3 8 11 12 hydrophobe
5 4 5 7 9 13 rings
6 16 17 20 21 22 23 rings
6 6 14 15 16 17 18 rings

> <PUBCHEM_HEAVY_ATOM_COUNT>
23

> <PUBCHEM_ATOM_DEF_STEREO_COUNT>
0

> <PUBCHEM_ATOM_UDEF_STEREO_COUNT>
1

> <PUBCHEM_BOND_DEF_STEREO_COUNT>
0

> <PUBCHEM_BOND_UDEF_STEREO_COUNT>
0

> <PUBCHEM_ISOTOPIC_ATOM_COUNT>
0

> <PUBCHEM_COMPONENT_COUNT>
1

> <PUBCHEM_CACTVS_TAUTO_COUNT>
3

> <PUBCHEM_CONFORMER_ID>
0000D5D300000002

> <PUBCHEM_MMFF94_ENERGY>
73.603

> <PUBCHEM_FEATURE_SELFOVERLAP>
50.832

> <PUBCHEM_SHAPE_FINGERPRINT>
10 15 18200038327205071936
11578080 2 16269689760745374023
12236239 1 17676205788531107737
12390115 104 18261658368106511952
12403259 118 18060703888041814356
12403259 415 18334860515521439080
13140716 1 17979351958725684344
13224815 77 18411980286472664929
13583140 156 17203058421369954224
14178342 30 17988066924574764349
14223421 5 18267296715605118447
14787075 74 18261675887288038267
15042514 8 18196087746733219075
15196674 1 18411139177521107556
15209289 33 18113335288916867945
15309172 13 18408881849725686307
17980427 23 17632567250061821213
18186145 218 18113611330976129364
19489759 90 16558757806012023797
19591789 44 18410856585816041654
200 152 18260277356180237805
20261772 1 18338513045518823938
204376 136 18408602552387240862
21033648 144 18115599123688417540
21033648 29 18339657680242434056
21033650 10 16372100305718956296
21267235 1 18411412917525345270
21524375 3 18334858307554606526
23227448 37 18337112242267387278
23402539 116 18409738330650065501
23557571 272 17060054908511746301
23559900 14 18050574233412203986
335352 9 18337957904638814918
350125 39 18410571769017333457
474 4 18260543458925462690
474229 33 18410573955287471463
5104073 3 18340208600018352904
633830 44 17968369164613826436
69090 78 18408889512290311670
81228 2 17833850277839174642
9709674 26 18122626317170257903

> <PUBCHEM_SHAPE_MULTIPOLES>
440.78
10.08
2.64
1.12
5.84
0.7
-0.2
-3.21
-1.38
-0.5
0.28
-1.51
0.15
0.45

> <PUBCHEM_SHAPE_SELFOVERLAP>
975.107

> <PUBCHEM_SHAPE_VOLUME>
237.5

> <PUBCHEM_COORDINATE_TYPE>
2
5
10

$$$$

