51090927
  -OEChem-06241223003D

 42 43  0     1  0  0  0  0  0999 V2000
   -7.4503    0.7402   -0.0047 F   0  0  0  0  0  0  0  0  0  0  0  0
   -5.8266    1.7199    1.0700 F   0  0  0  0  0  0  0  0  0  0  0  0
   -5.8064    1.6441   -1.1148 F   0  0  0  0  0  0  0  0  0  0  0  0
    1.2949   -1.3268    1.9219 O   0  0  0  0  0  0  0  0  0  0  0  0
    4.8273    2.8466   -0.8241 O   0  5  0  0  0  0  0  0  0  0  0  0
    5.8263    2.1417    0.9991 O   0  0  0  0  0  0  0  0  0  0  0  0
   -3.9382   -0.1544    0.0747 N   0  0  1  0  0  0  0  0  0  0  0  0
    0.4899   -1.7543   -0.2117 N   0  0  0  0  0  0  0  0  0  0  0  0
    5.0913    1.9427    0.0034 N   0  3  0  0  0  0  0  0  0  0  0  0
   -1.7703   -0.9446    0.2179 C   0  0  1  0  0  0  0  0  0  0  0  0
   -1.9038   -0.2278   -1.1278 C   0  0  0  0  0  0  0  0  0  0  0  0
   -3.2041   -1.3155    0.5790 C   0  0  0  0  0  0  0  0  0  0  0  0
   -3.3896    0.1007   -1.2589 C   0  0  0  0  0  0  0  0  0  0  0  0
   -0.8352   -2.1415    0.1774 C   0  0  0  0  0  0  0  0  0  0  0  0
   -5.3770   -0.3708    0.0533 C   0  0  0  0  0  0  0  0  0  0  0  0
   -6.1143    0.9481    0.0004 C   0  0  0  0  0  0  0  0  0  0  0  0
    1.4637   -1.3721    0.7062 C   0  0  0  0  0  0  0  0  0  0  0  0
    2.7786   -0.9742    0.1407 C   0  0  0  0  0  0  0  0  0  0  0  0
    3.3009    0.3021    0.3501 C   0  0  0  0  0  0  0  0  0  0  0  0
    3.4932   -1.9054   -0.6128 C   0  0  0  0  0  0  0  0  0  0  0  0
    4.5380    0.6472   -0.1942 C   0  0  0  0  0  0  0  0  0  0  0  0
    2.5292    1.2983    1.1599 C   0  0  0  0  0  0  0  0  0  0  0  0
    4.7301   -1.5602   -1.1572 C   0  0  0  0  0  0  0  0  0  0  0  0
    5.2526   -0.2838   -0.9480 C   0  0  0  0  0  0  0  0  0  0  0  0
   -1.3946   -0.2183    0.9537 H   0  0  0  0  0  0  0  0  0  0  0  0
   -1.2947    0.6835   -1.1320 H   0  0  0  0  0  0  0  0  0  0  0  0
   -1.5825   -0.8504   -1.9704 H   0  0  0  0  0  0  0  0  0  0  0  0
   -3.3249   -1.4391    1.6601 H   0  0  0  0  0  0  0  0  0  0  0  0
   -3.5152   -2.2416    0.0782 H   0  0  0  0  0  0  0  0  0  0  0  0
   -3.8348   -0.5510   -2.0215 H   0  0  0  0  0  0  0  0  0  0  0  0
   -3.5282    1.1405   -1.5701 H   0  0  0  0  0  0  0  0  0  0  0  0
   -1.1805   -2.8858   -0.5487 H   0  0  0  0  0  0  0  0  0  0  0  0
   -0.7983   -2.6260    1.1596 H   0  0  0  0  0  0  0  0  0  0  0  0
   -5.6874   -0.8715    0.9792 H   0  0  0  0  0  0  0  0  0  0  0  0
   -5.6877   -1.0222   -0.7724 H   0  0  0  0  0  0  0  0  0  0  0  0
    0.7122   -1.7450   -1.2031 H   0  0  0  0  0  0  0  0  0  0  0  0
    3.1020   -2.9056   -0.7811 H   0  0  0  0  0  0  0  0  0  0  0  0
    1.4533    1.2237    0.9673 H   0  0  0  0  0  0  0  0  0  0  0  0
    2.7849    2.3356    0.9252 H   0  0  0  0  0  0  0  0  0  0  0  0
    2.7121    1.1354    2.2270 H   0  0  0  0  0  0  0  0  0  0  0  0
    5.2870   -2.2855   -1.7431 H   0  0  0  0  0  0  0  0  0  0  0  0
    6.2180   -0.0296   -1.3789 H   0  0  0  0  0  0  0  0  0  0  0  0
  1 16  1  0  0  0  0
  2 16  1  0  0  0  0
  3 16  1  0  0  0  0
  4 17  2  0  0  0  0
  5  9  1  0  0  0  0
  6  9  2  0  0  0  0
  7 12  1  0  0  0  0
  7 13  1  0  0  0  0
  7 15  1  0  0  0  0
  8 14  1  0  0  0  0
  8 17  1  0  0  0  0
  8 36  1  0  0  0  0
  9 21  1  0  0  0  0
 10 11  1  0  0  0  0
 10 12  1  0  0  0  0
 10 14  1  0  0  0  0
 10 25  1  0  0  0  0
 11 13  1  0  0  0  0
 11 26  1  0  0  0  0
 11 27  1  0  0  0  0
 12 28  1  0  0  0  0
 12 29  1  0  0  0  0
 13 30  1  0  0  0  0
 13 31  1  0  0  0  0
 14 32  1  0  0  0  0
 14 33  1  0  0  0  0
 15 16  1  0  0  0  0
 15 34  1  0  0  0  0
 15 35  1  0  0  0  0
 17 18  1  0  0  0  0
 18 19  2  0  0  0  0
 18 20  1  0  0  0  0
 19 21  1  0  0  0  0
 19 22  1  0  0  0  0
 20 23  2  0  0  0  0
 20 37  1  0  0  0  0
 21 24  2  0  0  0  0
 22 38  1  0  0  0  0
 22 39  1  0  0  0  0
 22 40  1  0  0  0  0
 23 24  1  0  0  0  0
 23 41  1  0  0  0  0
 24 42  1  0  0  0  0
M  CHG  2   5  -1   9   1
M  END
> <PUBCHEM_COMPOUND_CID>
51090927

> <PUBCHEM_CONFORMER_RMSD>
0.8

> <PUBCHEM_CONFORMER_DIVERSEORDER>
2
23
158
83
240
63
25
215
256
248
54
22
205
80
105
219
294
102
203
263
232
307
283
51
127
306
78
28
310
245
231
212
24
276
118
76
289
192
224
209
166
88
179
250
131
186
133
293
169
46
214
163
117
107
246
160
267
198
145
185
58
206
91
234
64
268
177
99
38
60
135
188
291
226
13
141
93
269
217
21
265
73
241
43
213
139
32
286
304
181
82
128
261
257
52
56
312
237
154
193
242
272
30
15
311
155
260
71
236
162
69
264
137
191
292
277
132
211
16
49
309
243
20
228
281
75
156
150
35
197
278
229
175
114
275
104
124
143
218
26
303
287
208
113
6
121
37
194
86
153
225
305
280
110
285
249
182
282
266
18
68
48
47
89
290
184
176
295
254
119
171
144
174
33
253
202
308
125
50
190
95
36
79
301
134
53
216
200
87
14
147
84
138
157
180
201
298
129
108
227
67
259
207
221
223
196
29
126
72
97
189
130
222
9
297
302
94
220
210
152
284
187
244
183
123
8
31
140
239
173
39
19
273
148
62
172
288
258
112
40
59
252
142
299
238
178
12
279
115
251
151
3
81
165
10
96
255
101
100
106
274
41
296
85
111
74
116
27
4
170
77
109
230
17
136
247
159
270
61
300
204
66
34
161
90
164
45
122
5
11
55
120
1
98
7
195
199
167
233
235
92
57
65
168
42
70
146
44
103
262
271
149

> <PUBCHEM_MMFF94_PARTIAL_CHARGES>
26
1 -0.34
12 0.27
13 0.27
14 0.3
15 0.27
16 1.02
17 0.54
18 0.09
19 -0.14
2 -0.34
20 -0.15
21 0.13
22 0.14
23 -0.15
24 -0.15
3 -0.34
36 0.37
37 0.15
4 -0.57
41 0.15
42 0.15
5 -0.52
6 -0.52
7 -0.81
8 -0.73
9 0.91

> <PUBCHEM_EFFECTIVE_ROTOR_COUNT>
8

> <PUBCHEM_PHARMACOPHORE_FEATURES>
8
1 4 acceptor
1 5 acceptor
1 5 anion
1 6 acceptor
1 7 cation
1 8 donor
5 7 10 11 12 13 rings
6 18 19 20 21 23 24 rings

> <PUBCHEM_HEAVY_ATOM_COUNT>
24

> <PUBCHEM_ATOM_DEF_STEREO_COUNT>
0

> <PUBCHEM_ATOM_UDEF_STEREO_COUNT>
1

> <PUBCHEM_BOND_DEF_STEREO_COUNT>
0

> <PUBCHEM_BOND_UDEF_STEREO_COUNT>
0

> <PUBCHEM_ISOTOPIC_ATOM_COUNT>
0

> <PUBCHEM_COMPONENT_COUNT>
1

> <PUBCHEM_CACTVS_TAUTO_COUNT>
2

> <PUBCHEM_CONFORMER_ID>
030B95EF00000002

> <PUBCHEM_MMFF94_ENERGY>
62.4104

> <PUBCHEM_FEATURE_SELFOVERLAP>
40.676

> <PUBCHEM_SHAPE_MULTIPOLES>
439.54
17.36
2.39
1.2
18.51
0.8
-0.09
10.74
2.1
-2.62
-0.07
-0.32
0.01
0.79

> <PUBCHEM_SHAPE_SELFOVERLAP>
923.359

> <PUBCHEM_SHAPE_VOLUME>
251.3

> <PUBCHEM_COORDINATE_TYPE>
2
5
10

$$$$

