5281691
  -OEChem-07051212592D

 35 37  0     0  0  0  0  0  0999 V2000
    6.8671    0.2704    0.0000 O   0  0  0  0  0  0  0  0  0  0  0  0
    5.1350   -1.7296    0.0000 O   0  0  0  0  0  0  0  0  0  0  0  0
   10.3972    0.2945    0.0000 O   0  0  0  0  0  0  0  0  0  0  0  0
    8.6155   -2.7642    0.0000 O   0  0  0  0  0  0  0  0  0  0  0  0
    6.8671   -2.7296    0.0000 O   0  0  0  0  0  0  0  0  0  0  0  0
    4.2690    2.7704    0.0000 O   0  0  0  0  0  0  0  0  0  0  0  0
    2.5369    1.7704    0.0000 O   0  0  0  0  0  0  0  0  0  0  0  0
    7.7331   -1.2296    0.0000 C   0  0  0  0  0  0  0  0  0  0  0  0
    7.7331   -0.2296    0.0000 C   0  0  0  0  0  0  0  0  0  0  0  0
    6.0010   -0.2296    0.0000 C   0  0  0  0  0  0  0  0  0  0  0  0
    5.1350    0.2704    0.0000 C   0  0  0  0  0  0  0  0  0  0  0  0
    6.8671   -1.7296    0.0000 C   0  0  0  0  0  0  0  0  0  0  0  0
    6.0010   -1.2296    0.0000 C   0  0  0  0  0  0  0  0  0  0  0  0
    8.6270   -1.7643    0.0000 C   0  0  0  0  0  0  0  0  0  0  0  0
    8.6270    0.3051    0.0000 C   0  0  0  0  0  0  0  0  0  0  0  0
    9.5331   -0.2088    0.0000 C   0  0  0  0  0  0  0  0  0  0  0  0
    9.5331   -1.2504    0.0000 C   0  0  0  0  0  0  0  0  0  0  0  0
    5.1350    1.2704    0.0000 C   0  0  0  0  0  0  0  0  0  0  0  0
    4.2690   -0.2296    0.0000 C   0  0  0  0  0  0  0  0  0  0  0  0
    4.2690    1.7704    0.0000 C   0  0  0  0  0  0  0  0  0  0  0  0
    3.4030    0.2704    0.0000 C   0  0  0  0  0  0  0  0  0  0  0  0
    3.4030    1.2704    0.0000 C   0  0  0  0  0  0  0  0  0  0  0  0
   11.2651   -0.2021    0.0000 C   0  0  0  0  0  0  0  0  0  0  0  0
    8.6199    0.9250    0.0000 H   0  0  0  0  0  0  0  0  0  0  0  0
   10.0688   -1.5625    0.0000 H   0  0  0  0  0  0  0  0  0  0  0  0
    5.6720    1.5804    0.0000 H   0  0  0  0  0  0  0  0  0  0  0  0
    4.2690   -0.8496    0.0000 H   0  0  0  0  0  0  0  0  0  0  0  0
    2.8660   -0.0396    0.0000 H   0  0  0  0  0  0  0  0  0  0  0  0
    5.1350   -2.3496    0.0000 H   0  0  0  0  0  0  0  0  0  0  0  0
    9.1488   -3.0804    0.0000 H   0  0  0  0  0  0  0  0  0  0  0  0
   10.9572   -0.7402    0.0000 H   0  0  0  0  0  0  0  0  0  0  0  0
   11.8033   -0.5100    0.0000 H   0  0  0  0  0  0  0  0  0  0  0  0
   11.5731    0.3360    0.0000 H   0  0  0  0  0  0  0  0  0  0  0  0
    4.8059    3.0804    0.0000 H   0  0  0  0  0  0  0  0  0  0  0  0
    2.0000    1.4604    0.0000 H   0  0  0  0  0  0  0  0  0  0  0  0
  1  9  1  0  0  0  0
  1 10  1  0  0  0  0
  2 13  1  0  0  0  0
  2 29  1  0  0  0  0
  3 16  1  0  0  0  0
  3 23  1  0  0  0  0
  4 14  1  0  0  0  0
  4 30  1  0  0  0  0
  5 12  2  0  0  0  0
  6 20  1  0  0  0  0
  6 34  1  0  0  0  0
  7 22  1  0  0  0  0
  7 35  1  0  0  0  0
  8  9  1  0  0  0  0
  8 12  1  0  0  0  0
  8 14  2  0  0  0  0
  9 15  2  0  0  0  0
 10 11  1  0  0  0  0
 10 13  2  0  0  0  0
 11 18  2  0  0  0  0
 11 19  1  0  0  0  0
 12 13  1  0  0  0  0
 14 17  1  0  0  0  0
 15 16  1  0  0  0  0
 15 24  1  0  0  0  0
 16 17  2  0  0  0  0
 17 25  1  0  0  0  0
 18 20  1  0  0  0  0
 18 26  1  0  0  0  0
 19 21  2  0  0  0  0
 19 27  1  0  0  0  0
 20 22  2  0  0  0  0
 21 22  1  0  0  0  0
 21 28  1  0  0  0  0
 23 31  1  0  0  0  0
 23 32  1  0  0  0  0
 23 33  1  0  0  0  0
M  END
> <PUBCHEM_COMPOUND_CID>
5281691

> <PUBCHEM_COMPOUND_CANONICALIZED>
1

> <PUBCHEM_CACTVS_COMPLEXITY>
503

> <PUBCHEM_CACTVS_HBOND_ACCEPTOR>
7

> <PUBCHEM_CACTVS_HBOND_DONOR>
4

> <PUBCHEM_CACTVS_ROTATABLE_BOND>
2

> <PUBCHEM_CACTVS_SUBSKEYS>
AAADccB4OAAAAAAAAAAAAAAAAAAAAAAAAAAwYIAAAAAAAACBQAAAGgAACAAADASAmAIyBoAABgCIAqBSAAICCAAkIAAIiAFGiMgNJzaGNRqCeWGl4BUJuQfI7LzOIAABCAAIQABAAAIQABCAAAAAAAAAAA==

> <PUBCHEM_IUPAC_OPENEYE_NAME>
2-(3,4-dihydroxyphenyl)-3,5-dihydroxy-7-methoxy-chromen-4-one

> <PUBCHEM_IUPAC_CAS_NAME>
2-(3,4-dihydroxyphenyl)-3,5-dihydroxy-7-methoxy-1-benzopyran-4-one

> <PUBCHEM_IUPAC_NAME>
2-(3,4-dihydroxyphenyl)-3,5-dihydroxy-7-methoxychromen-4-one

> <PUBCHEM_IUPAC_SYSTEMATIC_NAME>
2-[3,4-bis(oxidanyl)phenyl]-7-methoxy-3,5-bis(oxidanyl)chromen-4-one

> <PUBCHEM_IUPAC_TRADITIONAL_NAME>
2-(3,4-dihydroxyphenyl)-3,5-dihydroxy-7-methoxy-chromone

> <PUBCHEM_IUPAC_INCHI>
InChI=1S/C16H12O7/c1-22-8-5-11(19)13-12(6-8)23-16(15(21)14(13)20)7-2-3-9(17)10(18)4-7/h2-6,17-19,21H,1H3

> <PUBCHEM_IUPAC_INCHIKEY>
JGUZGNYPMHHYRK-UHFFFAOYSA-N

> <PUBCHEM_XLOGP3>
1.9

> <PUBCHEM_EXACT_MASS>
316.058303

> <PUBCHEM_MOLECULAR_FORMULA>
C16H12O7

> <PUBCHEM_MOLECULAR_WEIGHT>
316.26228

> <PUBCHEM_OPENEYE_CAN_SMILES>
COC1=CC(=C2C(=C1)OC(=C(C2=O)O)C3=CC(=C(C=C3)O)O)O

> <PUBCHEM_OPENEYE_ISO_SMILES>
COC1=CC(=C2C(=C1)OC(=C(C2=O)O)C3=CC(=C(C=C3)O)O)O

> <PUBCHEM_CACTVS_TPSA>
116

> <PUBCHEM_MONOISOTOPIC_WEIGHT>
316.058303

> <PUBCHEM_TOTAL_CHARGE>
0

> <PUBCHEM_HEAVY_ATOM_COUNT>
23

> <PUBCHEM_ATOM_DEF_STEREO_COUNT>
0

> <PUBCHEM_ATOM_UDEF_STEREO_COUNT>
0

> <PUBCHEM_BOND_DEF_STEREO_COUNT>
0

> <PUBCHEM_BOND_UDEF_STEREO_COUNT>
0

> <PUBCHEM_ISOTOPIC_ATOM_COUNT>
0

> <PUBCHEM_COMPONENT_COUNT>
1

> <PUBCHEM_CACTVS_TAUTO_COUNT>
183

> <PUBCHEM_COORDINATE_TYPE>
1
5
255

> <PUBCHEM_BONDANNOTATIONS>
1  10  8
1  9  8
10  13  8
11  18  8
11  19  8
12  13  8
14  17  8
15  16  8
16  17  8
18  20  8
19  21  8
20  22  8
21  22  8
8  12  8
8  14  8
8  9  8
9  15  8

$$$$

