123595
  -OEChem-07051212583D

 30 31  0     0  0  0  0  0  0999 V2000
   -2.9836   -3.1035   -0.0060 O   0  0  0  0  0  0  0  0  0  0  0  0
   -1.1756    1.1049    0.0125 C   0  0  0  0  0  0  0  0  0  0  0  0
   -0.6905   -0.2882   -0.0066 C   0  0  0  0  0  0  0  0  0  0  0  0
   -0.4389    2.2341    0.0047 C   0  0  0  0  0  0  0  0  0  0  0  0
   -1.8067   -1.0558   -0.0034 C   0  0  0  0  0  0  0  0  0  0  0  0
    0.6613   -0.8014   -0.0094 C   0  0  0  0  0  0  0  0  0  0  0  0
    1.8260   -0.1246   -0.0259 C   0  0  0  0  0  0  0  0  0  0  0  0
   -2.6335    1.0584    0.0333 C   0  0  0  0  0  0  0  0  0  0  0  0
   -2.9943   -0.2292    0.0205 C   0  0  0  0  0  0  0  0  0  0  0  0
    1.0153    2.2924   -0.0378 C   0  0  0  0  0  0  0  0  0  0  0  0
    1.9412    1.3258   -0.0511 C   0  0  0  0  0  0  0  0  0  0  0  0
   -1.0425    3.6248    0.0309 C   0  0  0  0  0  0  0  0  0  0  0  0
    3.0420   -0.9311   -0.0247 C   0  0  0  0  0  0  0  0  0  0  0  0
   -1.9081   -2.5146   -0.0159 C   0  0  0  0  0  0  0  0  0  0  0  0
    3.6430   -1.2994    1.2929 C   0  0  0  0  0  0  0  0  0  0  0  0
    3.5450   -1.2925   -1.2143 C   0  0  0  0  0  0  0  0  0  0  0  0
    0.7349   -1.8876    0.0100 H   0  0  0  0  0  0  0  0  0  0  0  0
   -3.3176    1.8896    0.0507 H   0  0  0  0  0  0  0  0  0  0  0  0
   -4.0081   -0.5972    0.0283 H   0  0  0  0  0  0  0  0  0  0  0  0
    1.4174    3.3071   -0.0643 H   0  0  0  0  0  0  0  0  0  0  0  0
    2.9749    1.6768   -0.0838 H   0  0  0  0  0  0  0  0  0  0  0  0
   -2.1325    3.6398    0.0864 H   0  0  0  0  0  0  0  0  0  0  0  0
   -0.7630    4.1775   -0.8736 H   0  0  0  0  0  0  0  0  0  0  0  0
   -0.6774    4.1814    0.9022 H   0  0  0  0  0  0  0  0  0  0  0  0
   -0.9659   -3.0803   -0.0371 H   0  0  0  0  0  0  0  0  0  0  0  0
    3.9133   -0.4019    1.8594 H   0  0  0  0  0  0  0  0  0  0  0  0
    4.5515   -1.8989    1.1700 H   0  0  0  0  0  0  0  0  0  0  0  0
    2.9381   -1.8867    1.8910 H   0  0  0  0  0  0  0  0  0  0  0  0
    4.4472   -1.8927   -1.2766 H   0  0  0  0  0  0  0  0  0  0  0  0
    3.0801   -1.0051   -2.1525 H   0  0  0  0  0  0  0  0  0  0  0  0
  1 14  2  0  0  0  0
  2  3  1  0  0  0  0
  2  4  2  0  0  0  0
  2  8  1  0  0  0  0
  3  5  2  0  0  0  0
  3  6  1  0  0  0  0
  4 10  1  0  0  0  0
  4 12  1  0  0  0  0
  5  9  1  0  0  0  0
  5 14  1  0  0  0  0
  6  7  2  0  0  0  0
  6 17  1  0  0  0  0
  7 11  1  0  0  0  0
  7 13  1  0  0  0  0
  8  9  2  0  0  0  0
  8 18  1  0  0  0  0
  9 19  1  0  0  0  0
 10 11  2  0  0  0  0
 10 20  1  0  0  0  0
 11 21  1  0  0  0  0
 12 22  1  0  0  0  0
 12 23  1  0  0  0  0
 12 24  1  0  0  0  0
 13 15  1  0  0  0  0
 13 16  2  0  0  0  0
 14 25  1  0  0  0  0
 15 26  1  0  0  0  0
 15 27  1  0  0  0  0
 15 28  1  0  0  0  0
 16 29  1  0  0  0  0
 16 30  1  0  0  0  0
M  END
> <PUBCHEM_COMPOUND_CID>
123595

> <PUBCHEM_CONFORMER_RMSD>
0.6

> <PUBCHEM_CONFORMER_DIVERSEORDER>
1
2

> <PUBCHEM_MMFF94_PARTIAL_CHARGES>
21
1 -0.57
10 -0.15
11 -0.15
12 0.14
13 -0.14
14 0.5
15 0.14
16 -0.3
17 0.15
18 0.15
19 0.15
20 0.15
21 0.15
25 0.06
29 0.15
30 0.15
4 -0.14
5 0.01
6 -0.15
8 -0.15
9 -0.15

> <PUBCHEM_EFFECTIVE_ROTOR_COUNT>
2

> <PUBCHEM_PHARMACOPHORE_FEATURES>
3
1 1 acceptor
5 2 3 5 8 9 rings
7 2 3 4 6 7 10 11 rings

> <PUBCHEM_HEAVY_ATOM_COUNT>
16

> <PUBCHEM_ATOM_DEF_STEREO_COUNT>
0

> <PUBCHEM_ATOM_UDEF_STEREO_COUNT>
0

> <PUBCHEM_BOND_DEF_STEREO_COUNT>
0

> <PUBCHEM_BOND_UDEF_STEREO_COUNT>
0

> <PUBCHEM_ISOTOPIC_ATOM_COUNT>
0

> <PUBCHEM_COMPONENT_COUNT>
1

> <PUBCHEM_CACTVS_TAUTO_COUNT>
1

> <PUBCHEM_CONFORMER_ID>
0001E2CB00000001

> <PUBCHEM_MMFF94_ENERGY>
71.8581

> <PUBCHEM_FEATURE_SELFOVERLAP>
15.253

> <PUBCHEM_SHAPE_FINGERPRINT>
10319926 262 18048343277881961306
10967382 1 17689997834440158567
11578080 2 17488207966141273884
11680986 33 18264213504633359137
12553582 1 18411696590892737466
13083527 12 17616564785726573698
13140716 1 18410294683470481627
14178342 30 18047475526140529329
1420 336 18412260631704308290
14790565 3 18121479513268202169
15042514 8 18340203093923221227
15442244 35 18337103454880434939
15669948 3 18342172332101587366
16752209 62 18124602130442680092
16945 1 18338516464149111724
17990270 104 18194965132338597259
193761 8 18194401096106810957
19591789 44 17544182140189553263
20510252 161 18044942513237435456
20559304 39 18050005484888461930
20645476 183 17768507723787757716
20645477 70 17690005531507622943
20905425 154 18264481789591658084
21197605 99 14162536689427953258
21452121 199 18267317430021306264
21501502 16 18266736883634397731
21650355 55 18339376226528848802
23184049 29 18411704248945682522
2334 1 18266741272795536143
23402539 116 18190477115200697581
23419403 2 17263335714583885204
23530152 11 16537072915302890261
23557571 272 18115587192569247966
23559900 14 18190741028647296806
23598294 1 18125438867623939288
257057 1 18339372854863502577
2748010 2 18337114449405868965
3084891 72 18194411206480723453
34934 24 18338522932491406188
43471831 8 17691687105386539721
54173680 148 18410854386396952275
5902787 121 18341056228888624498
7364860 26 17903915561081213236
77492 1 17487605554165050766
81228 2 18336265759562714632
8809292 202 18411976983621949162

> <PUBCHEM_SHAPE_MULTIPOLES>
323.4
5.46
3.57
0.81
3.76
0.87
0.02
-3.09
0.12
-2.86
0
0.75
-0.19
-0.06

> <PUBCHEM_SHAPE_SELFOVERLAP>
695.814

> <PUBCHEM_SHAPE_VOLUME>
178.7

> <PUBCHEM_COORDINATE_TYPE>
2
5
10

$$$$

