45479417
  -OEChem-07051213113D

 37 37  0     0  0  0  0  0  0999 V2000
   -4.2424    1.4503   -1.7852 O   0  0  0  0  0  0  0  0  0  0  0  0
   -1.7010    2.3927   -1.2722 O   0  0  0  0  0  0  0  0  0  0  0  0
    0.0956    2.2680    1.0724 O   0  0  0  0  0  0  0  0  0  0  0  0
   -4.7804   -2.6405    0.8003 O   0  0  0  0  0  0  0  0  0  0  0  0
   -2.8559   -3.0261    1.9466 O   0  0  0  0  0  0  0  0  0  0  0  0
    2.9464    3.0391    0.1933 O   0  0  0  0  0  0  0  0  0  0  0  0
    2.8546    2.3097    2.3407 O   0  0  0  0  0  0  0  0  0  0  0  0
    2.8277   -2.1917   -0.2121 O   0  0  0  0  0  0  0  0  0  0  0  0
    4.7775   -2.9252   -1.6154 O   0  0  0  0  0  0  0  0  0  0  0  0
    5.7876   -0.8777   -1.3482 O   0  0  0  0  0  0  0  0  0  0  0  0
   -1.2962    0.5403    0.1955 C   0  0  0  0  0  0  0  0  0  0  0  0
   -2.1305    1.2437   -0.6734 C   0  0  0  0  0  0  0  0  0  0  0  0
   -1.7488   -0.6324    0.8002 C   0  0  0  0  0  0  0  0  0  0  0  0
   -3.0353   -1.1019    0.5358 C   0  0  0  0  0  0  0  0  0  0  0  0
   -3.4170    0.7743   -0.9379 C   0  0  0  0  0  0  0  0  0  0  0  0
   -3.8694   -0.3985   -0.3333 C   0  0  0  0  0  0  0  0  0  0  0  0
    0.0659    1.0135    0.4910 C   0  0  0  0  0  0  0  0  0  0  0  0
    1.1949    0.3214    0.2450 C   0  0  0  0  0  0  0  0  0  0  0  0
    2.5585    0.7453    0.5182 C   0  0  0  0  0  0  0  0  0  0  0  0
   -3.5073   -2.3254    1.1647 C   0  0  0  0  0  0  0  0  0  0  0  0
    3.6672    0.0275    0.2594 C   0  0  0  0  0  0  0  0  0  0  0  0
   -5.5410    0.9011   -2.0000 C   0  0  0  0  0  0  0  0  0  0  0  0
    2.7948    2.0829    1.1417 C   0  0  0  0  0  0  0  0  0  0  0  0
    3.6748   -1.3264   -0.3528 C   0  0  0  0  0  0  0  0  0  0  0  0
    4.8798   -1.6641   -1.1742 C   0  0  0  0  0  0  0  0  0  0  0  0
   -1.0998   -1.1791    1.4815 H   0  0  0  0  0  0  0  0  0  0  0  0
   -4.8630   -0.7862   -0.5205 H   0  0  0  0  0  0  0  0  0  0  0  0
    1.0688   -0.6462   -0.2312 H   0  0  0  0  0  0  0  0  0  0  0  0
   -2.4174    2.7328   -1.8359 H   0  0  0  0  0  0  0  0  0  0  0  0
    4.6445    0.4559    0.4694 H   0  0  0  0  0  0  0  0  0  0  0  0
    0.7127    2.8162    0.5597 H   0  0  0  0  0  0  0  0  0  0  0  0
   -6.0588    1.5669   -2.6986 H   0  0  0  0  0  0  0  0  0  0  0  0
   -6.1336    0.8895   -1.0787 H   0  0  0  0  0  0  0  0  0  0  0  0
   -5.4908   -0.0819   -2.4808 H   0  0  0  0  0  0  0  0  0  0  0  0
   -5.0892   -3.4667    1.2298 H   0  0  0  0  0  0  0  0  0  0  0  0
    3.1047    3.9237    0.5866 H   0  0  0  0  0  0  0  0  0  0  0  0
    5.5546   -3.1964   -2.1491 H   0  0  0  0  0  0  0  0  0  0  0  0
  1 15  1  0  0  0  0
  1 22  1  0  0  0  0
  2 12  1  0  0  0  0
  2 29  1  0  0  0  0
  3 17  1  0  0  0  0
  3 31  1  0  0  0  0
  4 20  1  0  0  0  0
  4 35  1  0  0  0  0
  5 20  2  0  0  0  0
  6 23  1  0  0  0  0
  6 36  1  0  0  0  0
  7 23  2  0  0  0  0
  8 24  2  0  0  0  0
  9 25  1  0  0  0  0
  9 37  1  0  0  0  0
 10 25  2  0  0  0  0
 11 12  2  0  0  0  0
 11 13  1  0  0  0  0
 11 17  1  0  0  0  0
 12 15  1  0  0  0  0
 13 14  2  0  0  0  0
 13 26  1  0  0  0  0
 14 16  1  0  0  0  0
 14 20  1  0  0  0  0
 15 16  2  0  0  0  0
 16 27  1  0  0  0  0
 17 18  2  0  0  0  0
 18 19  1  0  0  0  0
 18 28  1  0  0  0  0
 19 21  2  0  0  0  0
 19 23  1  0  0  0  0
 21 24  1  0  0  0  0
 21 30  1  0  0  0  0
 22 32  1  0  0  0  0
 22 33  1  0  0  0  0
 22 34  1  0  0  0  0
 24 25  1  0  0  0  0
M  END
> <PUBCHEM_COMPOUND_CID>
45479417

> <PUBCHEM_CONFORMER_RMSD>
0.8

> <PUBCHEM_CONFORMER_DIVERSEORDER>
2
9
44
32
38
19
16
59
37
10
36
35
12
24
18
60
57
40
3
58
31
52
51
5
1
56
6
8
33
53
23
7
49
46
26
30
42
21
29
25
13
48
34
20
14
15
47
45
17
27
43
28
39
22
11
50
4
55
41
54

> <PUBCHEM_MMFF94_PARTIAL_CHARGES>
34
1 -0.36
10 -0.57
11 0.03
12 0.08
13 -0.15
14 0.09
15 0.08
16 -0.15
17 0.05
18 -0.15
19 0.01
2 -0.53
20 0.63
21 -0.14
22 0.28
23 0.71
24 0.56
25 0.72
26 0.15
27 0.15
28 0.15
29 0.45
3 -0.53
30 0.15
31 0.45
35 0.5
36 0.5
37 0.5
4 -0.65
5 -0.57
6 -0.65
7 -0.57
8 -0.57
9 -0.65

> <PUBCHEM_EFFECTIVE_ROTOR_COUNT>
7

> <PUBCHEM_PHARMACOPHORE_FEATURES>
14
1 1 acceptor
1 10 acceptor
1 2 donor
1 3 donor
1 4 acceptor
1 5 acceptor
1 6 acceptor
1 7 acceptor
1 8 acceptor
1 9 acceptor
3 4 5 20 anion
3 6 7 23 anion
3 9 10 25 anion
6 11 12 13 14 15 16 rings

> <PUBCHEM_HEAVY_ATOM_COUNT>
25

> <PUBCHEM_ATOM_DEF_STEREO_COUNT>
0

> <PUBCHEM_ATOM_UDEF_STEREO_COUNT>
0

> <PUBCHEM_BOND_DEF_STEREO_COUNT>
2

> <PUBCHEM_BOND_UDEF_STEREO_COUNT>
0

> <PUBCHEM_ISOTOPIC_ATOM_COUNT>
0

> <PUBCHEM_COMPONENT_COUNT>
1

> <PUBCHEM_CACTVS_TAUTO_COUNT>
23

> <PUBCHEM_CONFORMER_ID>
02B5F5F900000002

> <PUBCHEM_MMFF94_ENERGY>
91.6475

> <PUBCHEM_FEATURE_SELFOVERLAP>
71.229

> <PUBCHEM_SHAPE_MULTIPOLES>
455.8
11.85
3.39
1.74
2.9
0.8
0.04
5.52
5.55
0.82
-0.8
-0.42
-0.02
5.02

> <PUBCHEM_SHAPE_SELFOVERLAP>
970.12

> <PUBCHEM_SHAPE_VOLUME>
251.1

> <PUBCHEM_COORDINATE_TYPE>
2
5
10

$$$$

