9910685
  -OEChem-07051213113D

 75 77  0     1  0  0  0  0  0999 V2000
    6.0776   -2.0746    0.8075 O   0  0  0  0  0  0  0  0  0  0  0  0
    8.3862   -1.5815   -0.6753 O   0  0  0  0  0  0  0  0  0  0  0  0
   -8.5291    0.6360   -0.3578 O   0  0  0  0  0  0  0  0  0  0  0  0
   -5.4265   -1.1426    2.0541 O   0  0  0  0  0  0  0  0  0  0  0  0
    0.7768    1.1726    0.4329 C   0  0  2  0  0  0  0  0  0  0  0  0
    2.1343    0.4371    0.5463 C   0  0  2  0  0  0  0  0  0  0  0  0
    0.0522    0.2208   -0.5509 C   0  0  1  0  0  0  0  0  0  0  0  0
    1.7440   -1.0571    0.6214 C   0  0  0  0  0  0  0  0  0  0  0  0
    0.3233   -1.1654    0.0370 C   0  0  0  0  0  0  0  0  0  0  0  0
    0.8633    2.5698   -0.2142 C   0  0  0  0  0  0  0  0  0  0  0  0
    3.0466    0.8694    1.6851 C   0  0  1  0  0  0  0  0  0  0  0  0
   -1.3370    0.7084   -0.8615 C   0  0  0  0  0  0  0  0  0  0  0  0
    0.0739    1.2800    1.8106 C   0  0  0  0  0  0  0  0  0  0  0  0
   -0.5269    3.1037   -0.6041 C   0  0  0  0  0  0  0  0  0  0  0  0
   -1.3484    2.1087   -1.4401 C   0  0  0  0  0  0  0  0  0  0  0  0
    4.3360    0.0206    1.6842 C   0  0  0  0  0  0  0  0  0  0  0  0
    3.3442    2.3689    1.5792 C   0  0  0  0  0  0  0  0  0  0  0  0
   -2.4619    0.0064   -0.6676 C   0  0  0  0  0  0  0  0  0  0  0  0
    5.1134    0.0801    0.3599 C   0  0  0  0  0  0  0  0  0  0  0  0
    6.4130   -0.7384    0.4191 C   0  0  2  0  0  0  0  0  0  0  0  0
   -3.7739    0.5113   -0.9875 C   0  0  0  0  0  0  0  0  0  0  0  0
    7.2146   -0.7837   -0.9060 C   0  0  0  0  0  0  0  0  0  0  0  0
   -4.9012   -0.1914   -0.7935 C   0  0  0  0  0  0  0  0  0  0  0  0
   -6.2609    0.3849   -1.0998 C   0  0  0  0  0  0  0  0  0  0  0  0
    6.4312   -1.4522   -2.0395 C   0  0  0  0  0  0  0  0  0  0  0  0
    7.7128    0.5927   -1.3556 C   0  0  0  0  0  0  0  0  0  0  0  0
   -4.9098   -1.5426   -0.2369 C   0  0  0  0  0  0  0  0  0  0  0  0
   -7.2363    0.2166    0.0674 C   0  0  2  0  0  0  0  0  0  0  0  0
   -5.9066   -1.7863    0.8729 C   0  0  2  0  0  0  0  0  0  0  0  0
   -7.2967   -1.2457    0.5226 C   0  0  0  0  0  0  0  0  0  0  0  0
   -4.1279   -2.5266   -0.7101 C   0  0  0  0  0  0  0  0  0  0  0  0
    2.6465    0.5966   -0.4120 H   0  0  0  0  0  0  0  0  0  0  0  0
    0.5858    0.2403   -1.5163 H   0  0  0  0  0  0  0  0  0  0  0  0
    2.4451   -1.6713    0.0457 H   0  0  0  0  0  0  0  0  0  0  0  0
    1.7415   -1.4359    1.6498 H   0  0  0  0  0  0  0  0  0  0  0  0
    0.2611   -1.9501   -0.7243 H   0  0  0  0  0  0  0  0  0  0  0  0
   -0.3820   -1.4235    0.8349 H   0  0  0  0  0  0  0  0  0  0  0  0
    1.4875    2.5300   -1.1161 H   0  0  0  0  0  0  0  0  0  0  0  0
    1.3036    3.3195    0.4429 H   0  0  0  0  0  0  0  0  0  0  0  0
    2.5639    0.6932    2.6545 H   0  0  0  0  0  0  0  0  0  0  0  0
   -0.9808    1.5565    1.7160 H   0  0  0  0  0  0  0  0  0  0  0  0
    0.5406    2.0404    2.4439 H   0  0  0  0  0  0  0  0  0  0  0  0
    0.1002    0.3371    2.3662 H   0  0  0  0  0  0  0  0  0  0  0  0
   -1.0887    3.3664    0.3005 H   0  0  0  0  0  0  0  0  0  0  0  0
   -0.4063    4.0353   -1.1702 H   0  0  0  0  0  0  0  0  0  0  0  0
   -0.9016    2.0526   -2.4423 H   0  0  0  0  0  0  0  0  0  0  0  0
   -2.3285    2.5605   -1.5847 H   0  0  0  0  0  0  0  0  0  0  0  0
    4.0878   -1.0183    1.9291 H   0  0  0  0  0  0  0  0  0  0  0  0
    4.9880    0.3693    2.4957 H   0  0  0  0  0  0  0  0  0  0  0  0
    4.2349    2.6156    2.1697 H   0  0  0  0  0  0  0  0  0  0  0  0
    3.5473    2.6882    0.5526 H   0  0  0  0  0  0  0  0  0  0  0  0
    2.5435    2.9727    2.0106 H   0  0  0  0  0  0  0  0  0  0  0  0
   -2.3502   -0.9583   -0.1946 H   0  0  0  0  0  0  0  0  0  0  0  0
    4.4906   -0.3295   -0.4384 H   0  0  0  0  0  0  0  0  0  0  0  0
    5.3448    1.1195    0.1077 H   0  0  0  0  0  0  0  0  0  0  0  0
    7.0560   -0.3455    1.2157 H   0  0  0  0  0  0  0  0  0  0  0  0
   -3.8968    1.5005   -1.4071 H   0  0  0  0  0  0  0  0  0  0  0  0
    5.3486   -2.3846    0.2445 H   0  0  0  0  0  0  0  0  0  0  0  0
   -6.6665   -0.1097   -1.9933 H   0  0  0  0  0  0  0  0  0  0  0  0
   -6.2016    1.4489   -1.3627 H   0  0  0  0  0  0  0  0  0  0  0  0
    7.0601   -1.5419   -2.9338 H   0  0  0  0  0  0  0  0  0  0  0  0
    6.1392   -2.4759   -1.7831 H   0  0  0  0  0  0  0  0  0  0  0  0
    5.5372   -0.8876   -2.3191 H   0  0  0  0  0  0  0  0  0  0  0  0
    6.8893    1.2499   -1.6508 H   0  0  0  0  0  0  0  0  0  0  0  0
    8.2769    1.0832   -0.5543 H   0  0  0  0  0  0  0  0  0  0  0  0
    8.3989    0.5011   -2.2057 H   0  0  0  0  0  0  0  0  0  0  0  0
   -6.9329    0.8620    0.9006 H   0  0  0  0  0  0  0  0  0  0  0  0
   -5.9969   -2.8544    1.1034 H   0  0  0  0  0  0  0  0  0  0  0  0
    8.8998   -1.1614    0.0359 H   0  0  0  0  0  0  0  0  0  0  0  0
   -7.9603   -1.3172    1.3934 H   0  0  0  0  0  0  0  0  0  0  0  0
   -7.7541   -1.8579   -0.2657 H   0  0  0  0  0  0  0  0  0  0  0  0
   -4.1723   -3.5234   -0.2819 H   0  0  0  0  0  0  0  0  0  0  0  0
   -3.4620   -2.3979   -1.5572 H   0  0  0  0  0  0  0  0  0  0  0  0
   -9.1356    0.5216    0.3937 H   0  0  0  0  0  0  0  0  0  0  0  0
   -4.5605   -1.5292    2.2704 H   0  0  0  0  0  0  0  0  0  0  0  0
  1 20  1  0  0  0  0
  1 58  1  0  0  0  0
  2 22  1  0  0  0  0
  2 69  1  0  0  0  0
  3 28  1  0  0  0  0
  3 74  1  0  0  0  0
  4 29  1  0  0  0  0
  4 75  1  0  0  0  0
  5  6  1  0  0  0  0
  5  7  1  0  0  0  0
  5 10  1  0  0  0  0
  5 13  1  0  0  0  0
  6  8  1  0  0  0  0
  6 11  1  0  0  0  0
  6 32  1  0  0  0  0
  7  9  1  0  0  0  0
  7 12  1  0  0  0  0
  7 33  1  0  0  0  0
  8  9  1  0  0  0  0
  8 34  1  0  0  0  0
  8 35  1  0  0  0  0
  9 36  1  0  0  0  0
  9 37  1  0  0  0  0
 10 14  1  0  0  0  0
 10 38  1  0  0  0  0
 10 39  1  0  0  0  0
 11 16  1  0  0  0  0
 11 17  1  0  0  0  0
 11 40  1  0  0  0  0
 12 15  1  0  0  0  0
 12 18  2  0  0  0  0
 13 41  1  0  0  0  0
 13 42  1  0  0  0  0
 13 43  1  0  0  0  0
 14 15  1  0  0  0  0
 14 44  1  0  0  0  0
 14 45  1  0  0  0  0
 15 46  1  0  0  0  0
 15 47  1  0  0  0  0
 16 19  1  0  0  0  0
 16 48  1  0  0  0  0
 16 49  1  0  0  0  0
 17 50  1  0  0  0  0
 17 51  1  0  0  0  0
 17 52  1  0  0  0  0
 18 21  1  0  0  0  0
 18 53  1  0  0  0  0
 19 20  1  0  0  0  0
 19 54  1  0  0  0  0
 19 55  1  0  0  0  0
 20 22  1  0  0  0  0
 20 56  1  0  0  0  0
 21 23  2  0  0  0  0
 21 57  1  0  0  0  0
 22 25  1  0  0  0  0
 22 26  1  0  0  0  0
 23 24  1  0  0  0  0
 23 27  1  0  0  0  0
 24 28  1  0  0  0  0
 24 59  1  0  0  0  0
 24 60  1  0  0  0  0
 25 61  1  0  0  0  0
 25 62  1  0  0  0  0
 25 63  1  0  0  0  0
 26 64  1  0  0  0  0
 26 65  1  0  0  0  0
 26 66  1  0  0  0  0
 27 29  1  0  0  0  0
 27 31  2  0  0  0  0
 28 30  1  0  0  0  0
 28 67  1  0  0  0  0
 29 30  1  0  0  0  0
 29 68  1  0  0  0  0
 30 70  1  0  0  0  0
 30 71  1  0  0  0  0
 31 72  1  0  0  0  0
 31 73  1  0  0  0  0
M  END
> <PUBCHEM_COMPOUND_CID>
9910685

> <PUBCHEM_CONFORMER_RMSD>
1

> <PUBCHEM_CONFORMER_DIVERSEORDER>
3
9
16
12
17
1
15
2
7
14
13
8
6
5
10
4
11

> <PUBCHEM_MMFF94_PARTIAL_CHARGES>
25
1 -0.68
12 -0.28
15 0.14
18 -0.15
2 -0.68
20 0.28
21 -0.15
22 0.28
23 -0.14
24 0.14
27 -0.14
28 0.28
29 0.42
3 -0.68
31 -0.3
4 -0.68
53 0.15
57 0.15
58 0.4
69 0.4
7 0.14
72 0.15
73 0.15
74 0.4
75 0.4

> <PUBCHEM_EFFECTIVE_ROTOR_COUNT>
8

> <PUBCHEM_PHARMACOPHORE_FEATURES>
13
1 1 acceptor
1 1 donor
1 17 hydrophobe
1 2 acceptor
1 2 donor
1 3 acceptor
1 3 donor
1 4 acceptor
1 4 donor
3 22 25 26 hydrophobe
5 5 6 7 8 9 rings
6 23 24 27 28 29 30 rings
6 5 7 10 12 14 15 rings

> <PUBCHEM_HEAVY_ATOM_COUNT>
31

> <PUBCHEM_ATOM_DEF_STEREO_COUNT>
6

> <PUBCHEM_ATOM_UDEF_STEREO_COUNT>
1

> <PUBCHEM_BOND_DEF_STEREO_COUNT>
2

> <PUBCHEM_BOND_UDEF_STEREO_COUNT>
0

> <PUBCHEM_ISOTOPIC_ATOM_COUNT>
0

> <PUBCHEM_COMPONENT_COUNT>
1

> <PUBCHEM_CACTVS_TAUTO_COUNT>
1

> <PUBCHEM_CONFORMER_ID>
0097399D00000003

> <PUBCHEM_MMFF94_ENERGY>
98.731

> <PUBCHEM_FEATURE_SELFOVERLAP>
66.034

> <PUBCHEM_SHAPE_FINGERPRINT>
10076449 9 18410568479826278088
11672396 43 17970075444465046479
11719270 70 8286204959262990908
12422481 6 18114752525103387807
13673619 4 18260832609526072728
13690498 29 17846788416258304829
13782708 43 18260840288784828926
14117953 113 18410862066700447757
14251764 18 4678816155500651356
14341114 176 18338243665681923249
14347424 109 15502382206070094306
14675019 173 18412826863181958189
14767858 380 16487257672975137188
14856354 85 18202281399370346231
14955137 171 18340209600608893957
15131766 46 14420422000561090802
15183329 4 17967533476022123294
15289351 153 9655311310920939196
15301273 46 18333170570080114865
15352257 5 18408041814600901286
15361156 5 17988927743642920223
15669420 48 18409727341047742548
15840311 113 17968105175103761665
16992787 43 18336262350213555092
16994733 274 13901919941683378581
18335252 98 18272370863373473146
18608769 82 18410297999934612438
20105231 36 18412541011591491643
21150785 3 15626224615252467726
21267235 1 18412827988626556037
21403212 168 5617537376253258108
21781051 124 18343022207704265338
21859007 373 6050182007896470432
23522609 53 16772949370914830149
23569917 315 18042410136971574063
23569943 247 17676775391236826110
24180151 214 16200151027925674384
335352 9 18271814523617222983
34797466 226 14764351569611957402
4017518 198 17894632556914404279
4107672 100 17775012344584269581
4258327 124 14476661015421278110
439807 62 18409167753732031902
46194498 28 18408891724942761676
5028188 123 18335419028277375598
5265222 85 18059853918008105770
5381727 24 17022906736532987711
5470011 282 17846777412937175062
6371009 1 7637400756946743339
6394761 36 17675924300558718943
6669772 16 10303821994371598577

> <PUBCHEM_SHAPE_MULTIPOLES>
614.49
23.62
2.51
1.67
2.74
0.81
0.27
-13.01
-3.94
0.39
-0.16
1.23
0.16
2.03

> <PUBCHEM_SHAPE_SELFOVERLAP>
1267.96

> <PUBCHEM_SHAPE_VOLUME>
352.6

> <PUBCHEM_COORDINATE_TYPE>
2
5
10

$$$$

