54588925
  -OEChem-07051213152D

 71 73  0     1  0  0  0  0  0999 V2000
    7.1962   -0.0588    0.0000 P   0  0  3  0  0  0  0  0  0  0  0  0
    8.9282   -0.0588    0.0000 P   0  0  3  0  0  0  0  0  0  0  0  0
    5.4641   -1.0588    0.0000 O   0  0  0  0  0  0  0  0  0  0  0  0
   12.4398    0.0345    0.0000 O   0  0  0  0  0  0  0  0  0  0  0  0
    2.8660    0.4412    0.0000 O   0  0  0  0  0  0  0  0  0  0  0  0
    6.3301    0.4412    0.0000 O   0  0  0  0  0  0  0  0  0  0  0  0
   10.8877    2.1049    0.0000 O   0  0  0  0  0  0  0  0  0  0  0  0
   13.0157    2.5572    0.0000 O   0  0  0  0  0  0  0  0  0  0  0  0
    9.7942    0.4412    0.0000 O   0  0  0  0  0  0  0  0  0  0  0  0
    8.0622   -0.5588    0.0000 O   0  0  0  0  0  0  0  0  0  0  0  0
    7.6962    0.8072    0.0000 O   0  0  0  0  0  0  0  0  0  0  0  0
    6.6962   -0.9248    0.0000 O   0  0  0  0  0  0  0  0  0  0  0  0
    3.7320   -3.0588    0.0000 O   0  0  0  0  0  0  0  0  0  0  0  0
    6.3301    1.4412    0.0000 O   0  0  0  0  0  0  0  0  0  0  0  0
    9.4282   -0.9248    0.0000 O   0  0  0  0  0  0  0  0  0  0  0  0
   13.9224   -1.0495    0.0000 O   0  0  0  0  0  0  0  0  0  0  0  0
    8.4282    0.8072    0.0000 O   0  0  0  0  0  0  0  0  0  0  0  0
   17.0870    0.3595    0.0000 O   0  0  0  0  0  0  0  0  0  0  0  0
    2.8660   -1.5588    0.0000 N   0  0  0  0  0  0  0  0  0  0  0  0
    4.5981    1.4412    0.0000 N   0  0  0  0  0  0  0  0  0  0  0  0
   14.1035    0.6731    0.0000 N   0  0  0  0  0  0  0  0  0  0  0  0
   15.5047   -0.3450    0.0000 N   0  0  0  0  0  0  0  0  0  0  0  0
    3.7320   -1.0588    0.0000 C   0  0  2  0  0  0  0  0  0  0  0  0
    3.7320   -0.0588    0.0000 C   0  0  1  0  0  0  0  0  0  0  0  0
    4.5981    0.4412    0.0000 C   0  0  2  0  0  0  0  0  0  0  0  0
    4.5981   -1.5588    0.0000 C   0  0  2  0  0  0  0  0  0  0  0  0
    5.4641   -0.0588    0.0000 C   0  0  2  0  0  0  0  0  0  0  0  0
   11.6308    1.4357    0.0000 C   0  0  1  0  0  0  0  0  0  0  0  0
   12.6090    1.6436    0.0000 C   0  0  2  0  0  0  0  0  0  0  0  0
   11.5263    0.4412    0.0000 C   0  0  1  0  0  0  0  0  0  0  0  0
   13.1090    0.7776    0.0000 C   0  0  1  0  0  0  0  0  0  0  0  0
    4.5981   -2.5588    0.0000 C   0  0  0  0  0  0  0  0  0  0  0  0
   10.6603   -0.0588    0.0000 C   0  0  0  0  0  0  0  0  0  0  0  0
    2.8660   -2.5588    0.0000 C   0  0  0  0  0  0  0  0  0  0  0  0
    5.4641    1.9412    0.0000 C   0  0  0  0  0  0  0  0  0  0  0  0
   14.5102   -0.2405    0.0000 C   0  0  0  0  0  0  0  0  0  0  0  0
   14.6913    1.4821    0.0000 C   0  0  0  0  0  0  0  0  0  0  0  0
    2.0000   -3.0588    0.0000 C   0  0  0  0  0  0  0  0  0  0  0  0
    5.4641    2.9412    0.0000 C   0  0  0  0  0  0  0  0  0  0  0  0
   15.6858    1.3776    0.0000 C   0  0  0  0  0  0  0  0  0  0  0  0
   16.0925    0.4640    0.0000 C   0  0  0  0  0  0  0  0  0  0  0  0
    3.7320   -1.6788    0.0000 H   0  0  0  0  0  0  0  0  0  0  0  0
    3.7320    0.5612    0.0000 H   0  0  0  0  0  0  0  0  0  0  0  0
    5.1350    0.7512    0.0000 H   0  0  0  0  0  0  0  0  0  0  0  0
    5.1350   -1.8688    0.0000 H   0  0  0  0  0  0  0  0  0  0  0  0
    5.4641    0.5612    0.0000 H   0  0  0  0  0  0  0  0  0  0  0  0
   11.7913    2.0346    0.0000 H   0  0  0  0  0  0  0  0  0  0  0  0
   13.2281    1.6761    0.0000 H   0  0  0  0  0  0  0  0  0  0  0  0
   11.5587   -0.1779    0.0000 H   0  0  0  0  0  0  0  0  0  0  0  0
   13.4466    1.2976    0.0000 H   0  0  0  0  0  0  0  0  0  0  0  0
    2.3291   -1.2488    0.0000 H   0  0  0  0  0  0  0  0  0  0  0  0
    3.9781   -2.5588    0.0000 H   0  0  0  0  0  0  0  0  0  0  0  0
    4.5981   -3.1788    0.0000 H   0  0  0  0  0  0  0  0  0  0  0  0
    5.2181   -2.5588    0.0000 H   0  0  0  0  0  0  0  0  0  0  0  0
    4.0611    1.7512    0.0000 H   0  0  0  0  0  0  0  0  0  0  0  0
   10.2617   -0.5337    0.0000 H   0  0  0  0  0  0  0  0  0  0  0  0
   11.0588   -0.5337    0.0000 H   0  0  0  0  0  0  0  0  0  0  0  0
    2.3291    0.1312    0.0000 H   0  0  0  0  0  0  0  0  0  0  0  0
   11.0166    2.7113    0.0000 H   0  0  0  0  0  0  0  0  0  0  0  0
   12.6513    3.0588    0.0000 H   0  0  0  0  0  0  0  0  0  0  0  0
   14.4391    2.0485    0.0000 H   0  0  0  0  0  0  0  0  0  0  0  0
    1.6900   -2.5218    0.0000 H   0  0  0  0  0  0  0  0  0  0  0  0
    1.4631   -3.3688    0.0000 H   0  0  0  0  0  0  0  0  0  0  0  0
    2.3100   -3.5957    0.0000 H   0  0  0  0  0  0  0  0  0  0  0  0
    6.0841    2.9412    0.0000 H   0  0  0  0  0  0  0  0  0  0  0  0
    5.4641    3.5612    0.0000 H   0  0  0  0  0  0  0  0  0  0  0  0
    4.8441    2.9412    0.0000 H   0  0  0  0  0  0  0  0  0  0  0  0
   15.7569   -0.9114    0.0000 H   0  0  0  0  0  0  0  0  0  0  0  0
   16.0502    1.8792    0.0000 H   0  0  0  0  0  0  0  0  0  0  0  0
    7.3862    1.3442    0.0000 H   0  0  0  0  0  0  0  0  0  0  0  0
    9.1182   -1.4618    0.0000 H   0  0  0  0  0  0  0  0  0  0  0  0
  1  6  1  0  0  0  0
  1 10  1  0  0  0  0
  1 11  1  0  0  0  0
  1 12  2  0  0  0  0
  2  9  1  0  0  0  0
  2 10  1  0  0  0  0
  2 15  1  0  0  0  0
  2 17  2  0  0  0  0
  3 26  1  0  0  0  0
  3 27  1  0  0  0  0
  4 30  1  0  0  0  0
  4 31  1  0  0  0  0
 24  5  1  6  0  0  0
  5 58  1  0  0  0  0
 27  6  1  1  0  0  0
 28  7  1  1  0  0  0
  7 59  1  0  0  0  0
 29  8  1  1  0  0  0
  8 60  1  0  0  0  0
  9 33  1  0  0  0  0
 11 70  1  0  0  0  0
 13 34  2  0  0  0  0
 14 35  2  0  0  0  0
 15 71  1  0  0  0  0
 16 36  2  0  0  0  0
 18 41  2  0  0  0  0
 23 19  1  6  0  0  0
 19 34  1  0  0  0  0
 19 51  1  0  0  0  0
 25 20  1  1  0  0  0
 20 35  1  0  0  0  0
 20 55  1  0  0  0  0
 31 21  1  6  0  0  0
 21 36  1  0  0  0  0
 21 37  1  0  0  0  0
 22 36  1  0  0  0  0
 22 41  1  0  0  0  0
 22 68  1  0  0  0  0
 23 24  1  0  0  0  0
 23 26  1  0  0  0  0
 23 42  1  0  0  0  0
 24 25  1  0  0  0  0
 24 43  1  0  0  0  0
 25 27  1  0  0  0  0
 25 44  1  0  0  0  0
 26 32  1  1  0  0  0
 26 45  1  0  0  0  0
 27 46  1  0  0  0  0
 28 29  1  0  0  0  0
 28 30  1  0  0  0  0
 28 47  1  0  0  0  0
 29 31  1  0  0  0  0
 29 48  1  0  0  0  0
 30 33  1  6  0  0  0
 30 49  1  0  0  0  0
 31 50  1  0  0  0  0
 32 52  1  0  0  0  0
 32 53  1  0  0  0  0
 32 54  1  0  0  0  0
 33 56  1  0  0  0  0
 33 57  1  0  0  0  0
 34 38  1  0  0  0  0
 35 39  1  0  0  0  0
 37 40  2  0  0  0  0
 37 61  1  0  0  0  0
 38 62  1  0  0  0  0
 38 63  1  0  0  0  0
 38 64  1  0  0  0  0
 39 65  1  0  0  0  0
 39 66  1  0  0  0  0
 39 67  1  0  0  0  0
 40 41  1  0  0  0  0
 40 69  1  0  0  0  0
M  END
> <PUBCHEM_COMPOUND_CID>
54588925

> <PUBCHEM_COMPOUND_CANONICALIZED>
1

> <PUBCHEM_CACTVS_COMPLEXITY>
1170

> <PUBCHEM_CACTVS_HBOND_ACCEPTOR>
16

> <PUBCHEM_CACTVS_HBOND_DONOR>
8

> <PUBCHEM_CACTVS_ROTATABLE_BOND>
10

> <PUBCHEM_CACTVS_SUBSKEYS>
AAADceB7vgMAAAAAAAAAAAAAAAAAASAAAAAkQAAAAAAAAAAAAAAAHgAQCCAACDzxgAcDCAPABxCIQCFWUICAAAAAAgAIAIAIAECTEAIAwAAPQAAPFyKXAMHwcAYAAAAAAAAAAAAAAAAAAAAAAAAAAAAAAA==

> <PUBCHEM_IUPAC_OPENEYE_NAME>
[(2R,3R,4S,5R,6S)-3,5-diacetamido-4-hydroxy-6-methyl-tetrahydropyran-2-yl] [[(2R,3S,4R,5R)-5-(2,4-dioxopyrimidin-1-yl)-3,4-dihydroxy-tetrahydrofuran-2-yl]methoxy-hydroxy-phosphoryl] hydrogen phosphate

> <PUBCHEM_IUPAC_CAS_NAME>
[(2R,3R,4S,5R,6S)-3,5-diacetamido-4-hydroxy-6-methyl-2-oxanyl] [[(2R,3S,4R,5R)-5-(2,4-dioxo-1-pyrimidinyl)-3,4-dihydroxy-2-oxolanyl]methoxy-hydroxyphosphoryl] hydrogen phosphate

> <PUBCHEM_IUPAC_NAME>
[(2R,3R,4S,5R,6S)-3,5-diacetamido-4-hydroxy-6-methyloxan-2-yl] [[(2R,3S,4R,5R)-5-(2,4-dioxopyrimidin-1-yl)-3,4-dihydroxyoxolan-2-yl]methoxy-hydroxyphosphoryl] hydrogen phosphate

> <PUBCHEM_IUPAC_SYSTEMATIC_NAME>
[[(2R,3S,4R,5R)-5-[2,4-bis(oxidanylidene)pyrimidin-1-yl]-3,4-bis(oxidanyl)oxolan-2-yl]methoxy-oxidanyl-phosphoryl] [(2R,3R,4S,5R,6S)-3,5-diacetamido-6-methyl-4-oxidanyl-oxan-2-yl] hydrogen phosphate

> <PUBCHEM_IUPAC_TRADITIONAL_NAME>
[(2R,3R,4S,5R,6S)-3,5-diacetamido-4-hydroxy-6-methyl-tetrahydropyran-2-yl] [[(2R,3S,4R,5R)-5-(2,4-diketopyrimidin-1-yl)-3,4-dihydroxy-tetrahydrofuran-2-yl]methoxy-hydroxy-phosphoryl] hydrogen phosphate

> <PUBCHEM_IUPAC_INCHI>
InChI=1S/C19H30N4O16P2/c1-7-12(20-8(2)24)15(28)13(21-9(3)25)18(36-7)38-41(33,34)39-40(31,32)35-6-10-14(27)16(29)17(37-10)23-5-4-11(26)22-19(23)30/h4-5,7,10,12-18,27-29H,6H2,1-3H3,(H,20,24)(H,21,25)(H,31,32)(H,33,34)(H,22,26,30)/t7-,10+,12-,13+,14+,15-,16+,17+,18+/m0/s1

> <PUBCHEM_IUPAC_INCHIKEY>
KCAODEOZHCZEBC-SXTUWYCGSA-N

> <PUBCHEM_XLOGP3_AA>
-6.1

> <PUBCHEM_EXACT_MASS>
632.113204

> <PUBCHEM_MOLECULAR_FORMULA>
C19H30N4O16P2

> <PUBCHEM_MOLECULAR_WEIGHT>
632.406224

> <PUBCHEM_OPENEYE_CAN_SMILES>
CC1C(C(C(C(O1)OP(=O)(O)OP(=O)(O)OCC2C(C(C(O2)N3C=CC(=O)NC3=O)O)O)NC(=O)C)O)NC(=O)C

> <PUBCHEM_OPENEYE_ISO_SMILES>
C[C@H]1[C@@H]([C@@H]([C@H]([C@H](O1)OP(=O)(O)OP(=O)(O)OC[C@@H]2[C@H]([C@H]([C@@H](O2)N3C=CC(=O)NC3=O)O)O)NC(=O)C)O)NC(=O)C

> <PUBCHEM_CACTVS_TPSA>
289

> <PUBCHEM_MONOISOTOPIC_WEIGHT>
632.113204

> <PUBCHEM_TOTAL_CHARGE>
0

> <PUBCHEM_HEAVY_ATOM_COUNT>
41

> <PUBCHEM_ATOM_DEF_STEREO_COUNT>
9

> <PUBCHEM_ATOM_UDEF_STEREO_COUNT>
0

> <PUBCHEM_BOND_DEF_STEREO_COUNT>
0

> <PUBCHEM_BOND_UDEF_STEREO_COUNT>
0

> <PUBCHEM_ISOTOPIC_ATOM_COUNT>
0

> <PUBCHEM_COMPONENT_COUNT>
1

> <PUBCHEM_CACTVS_TAUTO_COUNT>
12

> <PUBCHEM_COORDINATE_TYPE>
1
5
255

> <PUBCHEM_BONDANNOTATIONS>
23  19  6
25  20  5
31  21  6
21  36  8
21  37  8
22  36  8
22  41  8
26  32  5
30  33  6
37  40  8
40  41  8
24  5  6
27  6  5
28  7  5
29  8  5

$$$$

