5281921
  -OEChem-07051213013D

 24 27  0     1  0  0  0  0  0999 V2000
   -1.9802   -1.2319   -1.3349 O   0  0  0  0  0  0  0  0  0  0  0  0
    4.6871    0.1828   -0.0542 O   0  0  0  0  0  0  0  0  0  0  0  0
   -2.3125   -0.3090   -0.2986 C   0  0  1  0  0  0  0  0  0  0  0  0
   -1.8175   -1.7128    0.0157 C   0  0  2  0  0  0  0  0  0  0  0  0
   -1.5879    0.9634   -0.0099 C   0  0  0  0  0  0  0  0  0  0  0  0
   -3.7036    0.0993   -0.0081 C   0  0  0  0  0  0  0  0  0  0  0  0
    3.4589    0.7934    0.3223 C   0  0  1  0  0  0  0  0  0  0  0  0
   -2.4356    1.9432    0.3527 C   0  0  0  0  0  0  0  0  0  0  0  0
   -3.7766    1.3954    0.3463 C   0  0  0  0  0  0  0  0  0  0  0  0
    4.1000    1.0967   -0.9895 C   0  0  0  0  0  0  0  0  0  0  0  0
   -0.4388   -1.9813    0.3071 C   0  0  0  0  0  0  0  0  0  0  0  0
    2.1883    0.0460    0.3120 C   0  0  0  0  0  0  0  0  0  0  0  0
   -0.1763    1.0703   -0.0103 C   0  0  0  0  0  0  0  0  0  0  0  0
    2.0514   -1.2884    0.5014 C   0  0  0  0  0  0  0  0  0  0  0  0
    0.9932    0.8131    0.0939 C   0  0  0  0  0  0  0  0  0  0  0  0
    0.7501   -1.8801    0.4541 C   0  0  0  0  0  0  0  0  0  0  0  0
   -2.5385   -2.4439    0.3628 H   0  0  0  0  0  0  0  0  0  0  0  0
   -4.5519   -0.5663   -0.0891 H   0  0  0  0  0  0  0  0  0  0  0  0
    3.5192    1.5520    1.0960 H   0  0  0  0  0  0  0  0  0  0  0  0
   -2.1891    2.9486    0.6537 H   0  0  0  0  0  0  0  0  0  0  0  0
    3.6912    0.6772   -1.9000 H   0  0  0  0  0  0  0  0  0  0  0  0
    4.5795    2.0594   -1.1141 H   0  0  0  0  0  0  0  0  0  0  0  0
   -4.6667    1.9440    0.6055 H   0  0  0  0  0  0  0  0  0  0  0  0
    2.9111   -1.9247    0.6798 H   0  0  0  0  0  0  0  0  0  0  0  0
  1  3  1  0  0  0  0
  1  4  1  0  0  0  0
  2  7  1  0  0  0  0
  2 10  1  0  0  0  0
  3  4  1  0  0  0  0
  3  5  1  0  0  0  0
  3  6  1  0  0  0  0
  4 11  1  0  0  0  0
  4 17  1  0  0  0  0
  5  8  2  0  0  0  0
  5 13  1  0  0  0  0
  6  9  2  0  0  0  0
  6 18  1  0  0  0  0
  7 10  1  0  0  0  0
  7 12  1  0  0  0  0
  7 19  1  0  0  0  0
  8  9  1  0  0  0  0
  8 20  1  0  0  0  0
  9 23  1  0  0  0  0
 10 21  1  0  0  0  0
 10 22  1  0  0  0  0
 11 16  3  0  0  0  0
 12 14  2  0  0  0  0
 12 15  1  0  0  0  0
 13 15  3  0  0  0  0
 14 16  1  0  0  0  0
 14 24  1  0  0  0  0
M  END
> <PUBCHEM_COMPOUND_CID>
5281921

> <PUBCHEM_CONFORMER_RMSD>
0.6

> <PUBCHEM_CONFORMER_DIVERSEORDER>
1
6
8
7
3
5
2
4

> <PUBCHEM_MMFF94_PARTIAL_CHARGES>
24
1 -0.3
10 -0.05
11 -0.1
12 0.02
13 -0.06
14 -0.09
15 -0.06
16 -0.06
17 0.1
18 0.15
19 0.1
2 -0.3
20 0.15
21 0.1
22 0.1
23 0.15
24 0.15
3 0.23
4 0.15
5 0.02
6 -0.19
7 0.09
8 -0.15
9 -0.15

> <PUBCHEM_EFFECTIVE_ROTOR_COUNT>
1.8

> <PUBCHEM_PHARMACOPHORE_FEATURES>
3
1 1 acceptor
1 2 acceptor
5 3 5 6 8 9 rings

> <PUBCHEM_HEAVY_ATOM_COUNT>
16

> <PUBCHEM_ATOM_DEF_STEREO_COUNT>
0

> <PUBCHEM_ATOM_UDEF_STEREO_COUNT>
3

> <PUBCHEM_BOND_DEF_STEREO_COUNT>
1

> <PUBCHEM_BOND_UDEF_STEREO_COUNT>
0

> <PUBCHEM_ISOTOPIC_ATOM_COUNT>
0

> <PUBCHEM_COMPONENT_COUNT>
1

> <PUBCHEM_CACTVS_TAUTO_COUNT>
1

> <PUBCHEM_CONFORMER_ID>
0050988100000001

> <PUBCHEM_MMFF94_ENERGY>
57.4512

> <PUBCHEM_FEATURE_SELFOVERLAP>
15.223

> <PUBCHEM_SHAPE_FINGERPRINT>
10493431 412 18410569604612246881
10681291 71 18337941376755294625
10967382 1 18411140276589532824
10980938 120 18338519767163630867
11132069 177 18409737248661379936
12346645 44 18411701014661098984
12403814 3 17632301181006005389
12491281 212 18413670201558639146
13221675 6 18410013234231841419
13380535 21 18409444821122445026
13380535 76 18411699898122855658
14123255 52 18412263977499811821
14289901 80 14836128728076320064
14787075 74 18200871769528995659
15196674 1 18411138082161970371
15279307 12 18411139164230049786
15342168 16 17917421021297974757
15536298 74 18262800790915708686
15669948 3 18260840288526378967
15775835 57 18409448115425482721
16945 1 18336560308557141203
18186145 218 18272374165986935628
200 152 10591758745399844273
20510252 161 18191303780050742034
21501502 16 18410582815878947170
23402539 116 18408046200162962884
23463225 33 18269561704825578467
23559900 14 18260547802182124576
2748010 2 16752420604065847406
44154327 71 18341328993423647908
474 4 17632007555846519052
4990 188 17967808375493224068
7364860 26 18191587664879145390
9709674 26 18334007272854474622

> <PUBCHEM_SHAPE_MULTIPOLES>
317.53
7.29
2.13
0.82
4.57
0.65
0.14
-3.17
0.57
-0.72
-0.15
0.07
0.05
-0.73

> <PUBCHEM_SHAPE_SELFOVERLAP>
702.462

> <PUBCHEM_SHAPE_VOLUME>
169.4

> <PUBCHEM_COORDINATE_TYPE>
2
5
10

$$$$

