5462424
  -OEChem-07051212562D

 99111  0     1  0  0  0  0  0999 V2000
    7.0816    2.1476    0.0000 O   0  0  0  0  0  0  0  0  0  0  0  0
    2.0000    0.3097    0.0000 O   0  0  0  0  0  0  0  0  0  0  0  0
    4.4135    3.4109    0.0000 O   0  0  0  0  0  0  0  0  0  0  0  0
   11.7018    1.1183    0.0000 O   0  0  0  0  0  0  0  0  0  0  0  0
   10.5379    2.4010    0.0000 O   0  0  0  0  0  0  0  0  0  0  0  0
    3.8656   -1.4470    0.0000 N   0  0  3  0  0  0  0  0  0  0  0  0
    5.1890    1.4740    0.0000 N   0  0  0  0  0  0  0  0  0  0  0  0
    7.7174   -1.2902    0.0000 N   0  0  3  0  0  0  0  0  0  0  0  0
   11.1169   -0.7941    0.0000 N   0  0  0  0  0  0  0  0  0  0  0  0
    4.9404   -0.0030    0.0000 C   0  0  1  0  0  0  0  0  0  0  0  0
    5.7494   -0.5908    0.0000 C   0  0  1  0  0  0  0  0  0  0  0  0
    6.5584   -0.0030    0.0000 C   0  0  1  0  0  0  0  0  0  0  0  0
    5.2494    0.9480    0.0000 C   0  0  2  0  0  0  0  0  0  0  0  0
    3.9824   -0.4120    0.0000 C   0  0  2  0  0  0  0  0  0  0  0  0
    3.6040    0.5220    0.0000 C   0  0  2  0  0  0  0  0  0  0  0  0
    6.2494    0.9480    0.0000 C   0  0  0  0  0  0  0  0  0  0  0  0
    4.2910    1.2594    0.0000 C   0  0  0  0  0  0  0  0  0  0  0  0
    7.3016    0.6661    0.0000 C   0  0  1  0  0  0  0  0  0  0  0  0
    8.2526    0.3571    0.0000 C   0  0  1  0  0  0  0  0  0  0  0  0
    5.6565   -1.6283    0.0000 C   0  0  0  0  0  0  0  0  0  0  0  0
    6.7664   -0.9812    0.0000 C   0  0  0  0  0  0  0  0  0  0  0  0
    7.0773    0.1020    0.0000 C   0  0  0  0  0  0  0  0  0  0  0  0
    8.4606   -0.6211    0.0000 C   0  0  1  0  0  0  0  0  0  0  0  0
    2.8792   -0.1668    0.0000 C   0  0  2  0  0  0  0  0  0  0  0  0
    4.7082   -2.0593    0.0000 C   0  0  0  0  0  0  0  0  0  0  0  0
    3.1729    1.4243    0.0000 C   0  0  0  0  0  0  0  0  0  0  0  0
    6.6850    1.5475    0.0000 C   0  0  0  0  0  0  0  0  0  0  0  0
    9.4461   -0.9582    0.0000 C   0  0  2  0  0  0  0  0  0  0  0  0
    2.8294   -1.5026    0.0000 C   0  0  0  0  0  0  0  0  0  0  0  0
    9.3015    1.4264    0.0000 C   0  0  0  0  0  0  0  0  0  0  0  0
    2.2185   -0.6639    0.0000 C   0  0  0  0  0  0  0  0  0  0  0  0
    9.0159    1.0659    0.0000 C   0  0  0  0  0  0  0  0  0  0  0  0
    8.2667   -2.1184    0.0000 C   0  0  0  0  0  0  0  0  0  0  0  0
    9.2427   -1.9310    0.0000 C   0  0  0  0  0  0  0  0  0  0  0  0
    2.1816    1.2931    0.0000 C   0  0  0  0  0  0  0  0  0  0  0  0
    8.4816    2.6799    0.0000 C   0  0  0  0  0  0  0  0  0  0  0  0
   10.2256   -0.2672    0.0000 C   0  0  0  0  0  0  0  0  0  0  0  0
    5.7011   -1.7205    0.0000 C   0  0  0  0  0  0  0  0  0  0  0  0
   10.0090    0.7517    0.0000 C   0  0  0  0  0  0  0  0  0  0  0  0
    9.8625   -1.9063    0.0000 C   0  0  0  0  0  0  0  0  0  0  0  0
    4.5762    2.4242    0.0000 C   0  0  0  0  0  0  0  0  0  0  0  0
    3.4588   -1.2873    0.0000 C   0  0  0  0  0  0  0  0  0  0  0  0
   10.8930   -1.8051    0.0000 C   0  0  0  0  0  0  0  0  0  0  0  0
    2.8606    0.9168    0.0000 C   0  0  0  0  0  0  0  0  0  0  0  0
   10.7496    1.4237    0.0000 C   0  0  0  0  0  0  0  0  0  0  0  0
    9.4019   -2.8816    0.0000 C   0  0  0  0  0  0  0  0  0  0  0  0
   11.5344   -2.6722    0.0000 C   0  0  0  0  0  0  0  0  0  0  0  0
   10.0231   -3.7633    0.0000 C   0  0  0  0  0  0  0  0  0  0  0  0
   11.0965   -3.6579    0.0000 C   0  0  0  0  0  0  0  0  0  0  0  0
    3.4776    3.7633    0.0000 C   0  0  0  0  0  0  0  0  0  0  0  0
   12.4424    1.7903    0.0000 C   0  0  0  0  0  0  0  0  0  0  0  0
    5.3824    1.7876    0.0000 H   0  0  0  0  0  0  0  0  0  0  0  0
    4.3609    0.3491    0.0000 H   0  0  0  0  0  0  0  0  0  0  0  0
    6.8559    1.0769    0.0000 H   0  0  0  0  0  0  0  0  0  0  0  0
    6.1846    1.5646    0.0000 H   0  0  0  0  0  0  0  0  0  0  0  0
    4.5659    1.8151    0.0000 H   0  0  0  0  0  0  0  0  0  0  0  0
    3.7809    1.6119    0.0000 H   0  0  0  0  0  0  0  0  0  0  0  0
    6.5017    0.9537    0.0000 H   0  0  0  0  0  0  0  0  0  0  0  0
    5.8127   -2.2283    0.0000 H   0  0  0  0  0  0  0  0  0  0  0  0
    6.2744   -1.5771    0.0000 H   0  0  0  0  0  0  0  0  0  0  0  0
    6.1467   -1.0028    0.0000 H   0  0  0  0  0  0  0  0  0  0  0  0
    6.6801   -1.5952    0.0000 H   0  0  0  0  0  0  0  0  0  0  0  0
    4.7771    1.9374    0.0000 H   0  0  0  0  0  0  0  0  0  0  0  0
    9.0922   -0.0523    0.0000 H   0  0  0  0  0  0  0  0  0  0  0  0
    2.0315   -0.2298    0.0000 H   0  0  0  0  0  0  0  0  0  0  0  0
    4.2634   -2.4911    0.0000 H   0  0  0  0  0  0  0  0  0  0  0  0
    5.0576   -2.5715    0.0000 H   0  0  0  0  0  0  0  0  0  0  0  0
    3.7572    1.6317    0.0000 H   0  0  0  0  0  0  0  0  0  0  0  0
    3.0278    2.0271    0.0000 H   0  0  0  0  0  0  0  0  0  0  0  0
    2.2678   -1.7653    0.0000 H   0  0  0  0  0  0  0  0  0  0  0  0
    2.9801   -2.1040    0.0000 H   0  0  0  0  0  0  0  0  0  0  0  0
    9.7117    0.9615    0.0000 H   0  0  0  0  0  0  0  0  0  0  0  0
    9.7946    1.8022    0.0000 H   0  0  0  0  0  0  0  0  0  0  0  0
    1.8483   -0.1665    0.0000 H   0  0  0  0  0  0  0  0  0  0  0  0
    1.7192   -1.0315    0.0000 H   0  0  0  0  0  0  0  0  0  0  0  0
    9.3013    1.6163    0.0000 H   0  0  0  0  0  0  0  0  0  0  0  0
    8.5225    1.4413    0.0000 H   0  0  0  0  0  0  0  0  0  0  0  0
    7.7094   -2.3901    0.0000 H   0  0  0  0  0  0  0  0  0  0  0  0
    8.4628   -2.7066    0.0000 H   0  0  0  0  0  0  0  0  0  0  0  0
    9.2785   -2.5499    0.0000 H   0  0  0  0  0  0  0  0  0  0  0  0
    9.8610   -1.9769    0.0000 H   0  0  0  0  0  0  0  0  0  0  0  0
    2.1649    1.9129    0.0000 H   0  0  0  0  0  0  0  0  0  0  0  0
    1.5634    1.3413    0.0000 H   0  0  0  0  0  0  0  0  0  0  0  0
    9.0236    2.9811    0.0000 H   0  0  0  0  0  0  0  0  0  0  0  0
    8.2202    3.2421    0.0000 H   0  0  0  0  0  0  0  0  0  0  0  0
    5.9234   -2.2993    0.0000 H   0  0  0  0  0  0  0  0  0  0  0  0
   11.6857   -0.5473    0.0000 H   0  0  0  0  0  0  0  0  0  0  0  0
    3.0370   -1.7416    0.0000 H   0  0  0  0  0  0  0  0  0  0  0  0
    2.2670    1.0955    0.0000 H   0  0  0  0  0  0  0  0  0  0  0  0
    8.7842   -2.9350    0.0000 H   0  0  0  0  0  0  0  0  0  0  0  0
   12.1507   -2.6045    0.0000 H   0  0  0  0  0  0  0  0  0  0  0  0
    9.7649   -4.3270    0.0000 H   0  0  0  0  0  0  0  0  0  0  0  0
   11.4595   -4.1606    0.0000 H   0  0  0  0  0  0  0  0  0  0  0  0
    3.6961    4.3435    0.0000 H   0  0  0  0  0  0  0  0  0  0  0  0
    2.8974    3.9818    0.0000 H   0  0  0  0  0  0  0  0  0  0  0  0
    3.2591    3.1831    0.0000 H   0  0  0  0  0  0  0  0  0  0  0  0
   12.8590    1.3312    0.0000 H   0  0  0  0  0  0  0  0  0  0  0  0
   12.9015    2.2069    0.0000 H   0  0  0  0  0  0  0  0  0  0  0  0
   12.0257    2.2494    0.0000 H   0  0  0  0  0  0  0  0  0  0  0  0
  1 18  1  0  0  0  0
  1 36  1  0  0  0  0
  2 24  1  0  0  0  0
  2 35  1  0  0  0  0
  3 41  1  0  0  0  0
  3 50  1  0  0  0  0
  4 45  1  0  0  0  0
  4 51  1  0  0  0  0
  5 45  2  0  0  0  0
  6 14  1  0  0  0  0
  6 25  1  0  0  0  0
  6 29  1  0  0  0  0
 10  7  1  6  0  0  0
  7 27  1  0  0  0  0
  7 63  1  0  0  0  0
  8 21  1  0  0  0  0
  8 23  1  0  0  0  0
  8 33  1  0  0  0  0
  9 37  1  0  0  0  0
  9 43  1  0  0  0  0
  9 87  1  0  0  0  0
 10 11  1  0  0  0  0
 10 13  1  0  0  0  0
 10 14  1  0  0  0  0
 11 12  1  0  0  0  0
 11 20  1  1  0  0  0
 11 22  1  0  0  0  0
 12 16  1  6  0  0  0
 12 18  1  0  0  0  0
 12 21  1  0  0  0  0
 13 16  1  0  0  0  0
 13 17  1  0  0  0  0
 13 52  1  6  0  0  0
 14 15  1  0  0  0  0
 14 53  1  6  0  0  0
 15 17  1  1  0  0  0
 15 24  1  0  0  0  0
 15 26  1  0  0  0  0
 16 54  1  0  0  0  0
 16 55  1  0  0  0  0
 17 56  1  0  0  0  0
 17 57  1  0  0  0  0
 18 19  1  0  0  0  0
 18 58  1  1  0  0  0
 19 23  1  0  0  0  0
 19 30  1  6  0  0  0
 19 32  1  0  0  0  0
 20 25  1  0  0  0  0
 20 59  1  0  0  0  0
 20 60  1  0  0  0  0
 21 61  1  0  0  0  0
 21 62  1  0  0  0  0
 22 27  2  0  0  0  0
 22 38  1  0  0  0  0
 23 28  1  0  0  0  0
 23 64  1  6  0  0  0
 24 31  1  0  0  0  0
 24 65  1  1  0  0  0
 25 66  1  0  0  0  0
 25 67  1  0  0  0  0
 26 35  1  0  0  0  0
 26 68  1  0  0  0  0
 26 69  1  0  0  0  0
 27 41  1  0  0  0  0
 28 34  1  1  0  0  0
 28 37  1  0  0  0  0
 28 40  1  0  0  0  0
 29 31  1  0  0  0  0
 29 70  1  0  0  0  0
 29 71  1  0  0  0  0
 30 36  1  0  0  0  0
 30 72  1  0  0  0  0
 30 73  1  0  0  0  0
 31 74  1  0  0  0  0
 31 75  1  0  0  0  0
 32 39  1  0  0  0  0
 32 76  1  0  0  0  0
 32 77  1  0  0  0  0
 33 34  1  0  0  0  0
 33 78  1  0  0  0  0
 33 79  1  0  0  0  0
 34 80  1  0  0  0  0
 34 81  1  0  0  0  0
 35 82  1  0  0  0  0
 35 83  1  0  0  0  0
 36 84  1  0  0  0  0
 36 85  1  0  0  0  0
 37 39  2  0  0  0  0
 38 42  2  0  0  0  0
 38 86  1  0  0  0  0
 39 45  1  0  0  0  0
 40 43  1  0  0  0  0
 40 46  2  0  0  0  0
 41 44  2  0  0  0  0
 42 44  1  0  0  0  0
 42 88  1  0  0  0  0
 43 47  2  0  0  0  0
 44 89  1  0  0  0  0
 46 48  1  0  0  0  0
 46 90  1  0  0  0  0
 47 49  1  0  0  0  0
 47 91  1  0  0  0  0
 48 49  2  0  0  0  0
 48 92  1  0  0  0  0
 49 93  1  0  0  0  0
 50 94  1  0  0  0  0
 50 95  1  0  0  0  0
 50 96  1  0  0  0  0
 51 97  1  0  0  0  0
 51 98  1  0  0  0  0
 51 99  1  0  0  0  0
M  END
> <PUBCHEM_COMPOUND_CID>
5462424

> <PUBCHEM_COMPOUND_CANONICALIZED>
1

> <PUBCHEM_CACTVS_COMPLEXITY>
1620

> <PUBCHEM_CACTVS_HBOND_ACCEPTOR>
9

> <PUBCHEM_CACTVS_HBOND_DONOR>
2

> <PUBCHEM_CACTVS_ROTATABLE_BOND>
3

> <PUBCHEM_CACTVS_SUBSKEYS>
AAADcfB/uAAAAAAAAAAAAAAAAAAAAePFiRI8eLECAAAeIFixQAAAHgAQAAAAD7zhmAYyzoPABACIAiTSSACCCAAhIgAIiAEPbMgOZjLE8ZuXMChm0BHY6Ue4/f/fgAABAAACEAAAAAIAAAQgASAACQAQAA==

> <PUBCHEM_IUPAC_INCHI>
InChI=1S/C42H48N4O5/c1-48-29-9-5-7-27-31(29)44-42-24-20-37-13-18-50-30(37)10-15-45(35(37)42)17-12-41(27,42)39(21-24)23-46-16-11-40-26-6-3-4-8-28(26)43-32(40)25(33(47)49-2)22-38(34(40)46)14-19-51-36(38)39/h3-9,24,30,34-36,43-44H,10-23H2,1-2H3/t24-,30-,34-,35-,36+,37+,38-,39+,40-,41-,42-/m0/s1

> <PUBCHEM_IUPAC_INCHIKEY>
AXSFWIGDSYMZQJ-JSVKVMEJSA-N

> <PUBCHEM_XLOGP3_AA>
4.5

> <PUBCHEM_EXACT_MASS>
688.362471

> <PUBCHEM_MOLECULAR_FORMULA>
C42H48N4O5

> <PUBCHEM_MOLECULAR_WEIGHT>
688.85432

> <PUBCHEM_OPENEYE_CAN_SMILES>
COC1=CC=CC2=C1NC34C25CCN6C3C7(CCOC7CC6)CC4CC58CN9CCC12C9C3(C8OCC3)CC(=C1NC1=CC=CC=C21)C(=O)OC

> <PUBCHEM_OPENEYE_ISO_SMILES>
COC1=CC=CC2=C1N[C@]34[C@@]25CCN6[C@H]3[C@]7(CCO[C@H]7CC6)C[C@H]4C[C@]58CN9CC[C@@]12[C@@H]9[C@@]3([C@H]8OCC3)CC(=C1NC1=CC=CC=C21)C(=O)OC

> <PUBCHEM_CACTVS_TPSA>
84.5

> <PUBCHEM_MONOISOTOPIC_WEIGHT>
688.362471

> <PUBCHEM_TOTAL_CHARGE>
0

> <PUBCHEM_HEAVY_ATOM_COUNT>
51

> <PUBCHEM_ATOM_DEF_STEREO_COUNT>
11

> <PUBCHEM_ATOM_UDEF_STEREO_COUNT>
0

> <PUBCHEM_BOND_DEF_STEREO_COUNT>
0

> <PUBCHEM_BOND_UDEF_STEREO_COUNT>
0

> <PUBCHEM_ISOTOPIC_ATOM_COUNT>
0

> <PUBCHEM_COMPONENT_COUNT>
1

> <PUBCHEM_CACTVS_TAUTO_COUNT>
3

> <PUBCHEM_COORDINATE_TYPE>
1
5
255

> <PUBCHEM_BONDANNOTATIONS>
11  20  5
12  16  6
13  52  6
14  53  6
15  17  5
18  58  5
19  30  6
22  27  8
22  38  8
23  64  6
24  65  5
27  41  8
28  34  5
38  42  8
40  43  8
40  46  8
41  44  8
42  44  8
43  47  8
46  48  8
47  49  8
48  49  8
10  7  6

$$$$

