9116
  -OEChem-06261203253D

 44 50  0     0  0  0  0  0  0999 V2000
    0.7130   -0.8945   -0.2116 C   0  0  0  0  0  0  0  0  0  0  0  0
   -0.7130   -0.8945   -0.2116 C   0  0  0  0  0  0  0  0  0  0  0  0
    1.4511    0.3018   -0.0483 C   0  0  0  0  0  0  0  0  0  0  0  0
   -1.4511    0.3018   -0.0485 C   0  0  0  0  0  0  0  0  0  0  0  0
    0.7138    1.5266   -0.2416 C   0  0  0  0  0  0  0  0  0  0  0  0
   -0.7137    1.5265   -0.2419 C   0  0  0  0  0  0  0  0  0  0  0  0
    1.3968   -2.1306   -0.3587 C   0  0  0  0  0  0  0  0  0  0  0  0
   -1.3968   -2.1307   -0.3584 C   0  0  0  0  0  0  0  0  0  0  0  0
    2.8798    0.1745    0.2449 C   0  0  0  0  0  0  0  0  0  0  0  0
   -2.8800    0.1745    0.2445 C   0  0  0  0  0  0  0  0  0  0  0  0
    3.5289   -1.0703    0.0632 C   0  0  0  0  0  0  0  0  0  0  0  0
   -3.5289   -1.0704    0.0637 C   0  0  0  0  0  0  0  0  0  0  0  0
    2.7848   -2.1908   -0.2826 C   0  0  0  0  0  0  0  0  0  0  0  0
   -2.7846   -2.1909   -0.2818 C   0  0  0  0  0  0  0  0  0  0  0  0
    0.6923   -3.3153   -0.5684 C   0  0  0  0  0  0  0  0  0  0  0  0
   -0.6922   -3.3154   -0.5682 C   0  0  0  0  0  0  0  0  0  0  0  0
    1.3613    2.7563   -0.5462 C   0  0  0  0  0  0  0  0  0  0  0  0
   -1.3612    2.7560   -0.5471 C   0  0  0  0  0  0  0  0  0  0  0  0
    3.7043    1.2044    0.7741 C   0  0  0  0  0  0  0  0  0  0  0  0
   -3.7045    1.2047    0.7731 C   0  0  0  0  0  0  0  0  0  0  0  0
    4.9148   -1.2146    0.2607 C   0  0  0  0  0  0  0  0  0  0  0  0
   -4.9147   -1.2149    0.2616 C   0  0  0  0  0  0  0  0  0  0  0  0
    0.6865    3.9516   -0.7812 C   0  0  0  0  0  0  0  0  0  0  0  0
   -0.6865    3.9516   -0.7818 C   0  0  0  0  0  0  0  0  0  0  0  0
    5.0788    1.0544    0.9884 C   0  0  0  0  0  0  0  0  0  0  0  0
   -5.0790    1.0547    0.9875 C   0  0  0  0  0  0  0  0  0  0  0  0
    5.6904   -0.1531    0.7079 C   0  0  0  0  0  0  0  0  0  0  0  0
   -5.6904   -0.1533    0.7083 C   0  0  0  0  0  0  0  0  0  0  0  0
    3.2890   -3.1485   -0.4165 H   0  0  0  0  0  0  0  0  0  0  0  0
   -3.2887   -3.1488   -0.4153 H   0  0  0  0  0  0  0  0  0  0  0  0
    1.2119   -4.2620   -0.7027 H   0  0  0  0  0  0  0  0  0  0  0  0
   -1.2117   -4.2622   -0.7022 H   0  0  0  0  0  0  0  0  0  0  0  0
    2.4369    2.8053   -0.6898 H   0  0  0  0  0  0  0  0  0  0  0  0
   -2.4367    2.8047   -0.6915 H   0  0  0  0  0  0  0  0  0  0  0  0
    3.2775    2.1543    1.0862 H   0  0  0  0  0  0  0  0  0  0  0  0
   -3.2780    2.1549    1.0844 H   0  0  0  0  0  0  0  0  0  0  0  0
    5.4018   -2.1735    0.0907 H   0  0  0  0  0  0  0  0  0  0  0  0
   -5.4015   -2.1740    0.0923 H   0  0  0  0  0  0  0  0  0  0  0  0
    1.2393    4.8570   -1.0107 H   0  0  0  0  0  0  0  0  0  0  0  0
   -1.2393    4.8568   -1.0118 H   0  0  0  0  0  0  0  0  0  0  0  0
    5.6588    1.8820    1.3860 H   0  0  0  0  0  0  0  0  0  0  0  0
   -5.6591    1.8824    1.3845 H   0  0  0  0  0  0  0  0  0  0  0  0
    6.7559   -0.2814    0.8691 H   0  0  0  0  0  0  0  0  0  0  0  0
   -6.7558   -0.2817    0.8698 H   0  0  0  0  0  0  0  0  0  0  0  0
  1  2  1  0  0  0  0
  1  3  2  0  0  0  0
  1  7  1  0  0  0  0
  2  4  2  0  0  0  0
  2  8  1  0  0  0  0
  3  5  1  0  0  0  0
  3  9  1  0  0  0  0
  4  6  1  0  0  0  0
  4 10  1  0  0  0  0
  5  6  1  0  0  0  0
  5 17  2  0  0  0  0
  6 18  2  0  0  0  0
  7 13  2  0  0  0  0
  7 15  1  0  0  0  0
  8 14  2  0  0  0  0
  8 16  1  0  0  0  0
  9 11  1  0  0  0  0
  9 19  2  0  0  0  0
 10 12  1  0  0  0  0
 10 20  2  0  0  0  0
 11 13  1  0  0  0  0
 11 21  2  0  0  0  0
 12 14  1  0  0  0  0
 12 22  2  0  0  0  0
 13 29  1  0  0  0  0
 14 30  1  0  0  0  0
 15 16  2  0  0  0  0
 15 31  1  0  0  0  0
 16 32  1  0  0  0  0
 17 23  1  0  0  0  0
 17 33  1  0  0  0  0
 18 24  1  0  0  0  0
 18 34  1  0  0  0  0
 19 25  1  0  0  0  0
 19 35  1  0  0  0  0
 20 26  1  0  0  0  0
 20 36  1  0  0  0  0
 21 27  1  0  0  0  0
 21 37  1  0  0  0  0
 22 28  1  0  0  0  0
 22 38  1  0  0  0  0
 23 24  2  0  0  0  0
 23 39  1  0  0  0  0
 24 40  1  0  0  0  0
 25 27  2  0  0  0  0
 25 41  1  0  0  0  0
 26 28  2  0  0  0  0
 26 42  1  0  0  0  0
 27 43  1  0  0  0  0
 28 44  1  0  0  0  0
M  END
> <PUBCHEM_COMPOUND_CID>
9116

> <PUBCHEM_CONFORMER_RMSD>
0.6

> <PUBCHEM_CONFORMER_DIVERSEORDER>
1

> <PUBCHEM_MMFF94_PARTIAL_CHARGES>
32
13 -0.15
14 -0.15
15 -0.15
16 -0.15
17 -0.15
18 -0.15
19 -0.15
20 -0.15
21 -0.15
22 -0.15
23 -0.15
24 -0.15
25 -0.15
26 -0.15
27 -0.15
28 -0.15
29 0.15
30 0.15
31 0.15
32 0.15
33 0.15
34 0.15
35 0.15
36 0.15
37 0.15
38 0.15
39 0.15
40 0.15
41 0.15
42 0.15
43 0.15
44 0.15

> <PUBCHEM_EFFECTIVE_ROTOR_COUNT>
0

> <PUBCHEM_PHARMACOPHORE_FEATURES>
7
6 1 2 3 4 5 6 rings
6 1 2 7 8 15 16 rings
6 1 3 7 9 11 13 rings
6 10 12 20 22 26 28 rings
6 2 4 8 10 12 14 rings
6 5 6 17 18 23 24 rings
6 9 11 19 21 25 27 rings

> <PUBCHEM_HEAVY_ATOM_COUNT>
28

> <PUBCHEM_ATOM_DEF_STEREO_COUNT>
0

> <PUBCHEM_ATOM_UDEF_STEREO_COUNT>
0

> <PUBCHEM_BOND_DEF_STEREO_COUNT>
0

> <PUBCHEM_BOND_UDEF_STEREO_COUNT>
0

> <PUBCHEM_ISOTOPIC_ATOM_COUNT>
0

> <PUBCHEM_COMPONENT_COUNT>
1

> <PUBCHEM_CACTVS_TAUTO_COUNT>
1

> <PUBCHEM_CONFORMER_ID>
0000239C00000001

> <PUBCHEM_MMFF94_ENERGY>
138.6759

> <PUBCHEM_FEATURE_SELFOVERLAP>
35.719

> <PUBCHEM_SHAPE_FINGERPRINT>
10006869 2 18125171677930234611
10162869 55 18335138671411167259
10165383 225 18186803574170410424
10493431 412 18334014969087572818
10675989 125 16543578253470159045
10688039 33 18060701718777205997
10906281 52 18270379651266382792
10967382 1 18338797818850933527
1100329 8 18267304218496415563
11115154 58 16449862007273817143
12293681 4 18059564793704775355
12403259 226 18049158071020327414
12403260 363 18192434057099490895
12422481 6 18337110184534940938
12553582 1 18412544297246091924
12788726 201 18130511941407870344
13140716 1 18267021652539840193
13402501 40 18408604794455037058
138480 1 15312669600158654348
14020679 6 17916863500178246554
140371 6 18342164609776918805
14117953 113 18410574015554066853
14223421 5 18122343746523270918
14394314 77 18196368114041462364
14790565 3 18195798575254514868
14840074 17 18341887481227840976
14955137 171 18341603785409867755
15131766 46 14564252432875193866
15196674 1 18335420170665173555
15219462 58 14999051032285848247
15238133 3 18130213917721681807
15420108 30 18186806924123899903
15840311 113 17461137015514332233
15927050 60 17689427192580748772
15950262 2 14249878800059133063
1601671 61 18410008827632318994
16087824 20 18269274728835278853
16728300 4 17629224855083522226
17492 89 17980759346895345651
17980427 23 17968096387536902829
1813 80 17561362885499610772
19591789 44 18265331883910145622
20028762 73 18115307761670923599
20642791 178 18268701723893373173
20642791 268 18188192308838266225
20739085 24 18339069475532353345
21033648 29 17967823699578198010
21267235 1 18410284813694105546
21298829 104 18261953068200182737
21421861 104 18056763349868216794
21796203 349 17910916293418438464
22113638 7 18337674096624528311
22182313 1 18267586999100856740
23559900 14 18261959552555625760
23845131 108 17402049392864744521
24771293 8 18260832561732637312
2748010 2 18123189275175634629
3178227 256 18341317908994025555
335352 9 18409729543078633550
3380486 145 18270109249544133805
350125 39 18336825403098180082
4409770 3 18057341671393467797
5104073 3 18337663230869362707
6004065 56 18337117774506978645
653340 110 18192995043693838200
7064713 232 18260550000255749672
9709674 26 17689160436113394550
9777508 108 17834397100201436144

> <PUBCHEM_SHAPE_MULTIPOLES>
576.23
10.08
4.33
0.88
0
2.06
-0.06
-1.23
-4.52
0
1.69
0
0.24
0

> <PUBCHEM_SHAPE_SELFOVERLAP>
1370.061

> <PUBCHEM_SHAPE_VOLUME>
257.3

> <PUBCHEM_COORDINATE_TYPE>
2
5
10

$$$$

