586041
  -OEChem-06241222453D

 37 38  0     0  0  0  0  0  0999 V2000
   -2.5020   -3.3793   -0.3212 Cl  0  0  0  0  0  0  0  0  0  0  0  0
   -0.3880   -1.2621   -0.4837 O   0  0  0  0  0  0  0  0  0  0  0  0
   -0.8086    1.4458   -0.1816 O   0  0  0  0  0  0  0  0  0  0  0  0
   -5.7902    1.8977    0.6693 O   0  0  0  0  0  0  0  0  0  0  0  0
    5.5257    1.6204    0.2464 O   0  5  0  0  0  0  0  0  0  0  0  0
    3.6000    2.3274    1.0281 O   0  0  0  0  0  0  0  0  0  0  0  0
    4.3179    1.4282    0.5274 N   0  3  0  0  0  0  0  0  0  0  0  0
    0.4115   -1.5898    0.6498 C   0  0  0  0  0  0  0  0  0  0  0  0
    1.8534   -1.3338    0.3226 C   0  0  0  0  0  0  0  0  0  0  0  0
   -1.6473   -0.7975   -0.2387 C   0  0  0  0  0  0  0  0  0  0  0  0
   -1.8514    0.5741   -0.0873 C   0  0  0  0  0  0  0  0  0  0  0  0
   -2.7244   -1.6780   -0.1391 C   0  0  0  0  0  0  0  0  0  0  0  0
   -3.1327    1.0650    0.1636 C   0  0  0  0  0  0  0  0  0  0  0  0
    2.4058   -0.0834    0.5757 C   0  0  0  0  0  0  0  0  0  0  0  0
   -4.2099    0.1844    0.2630 C   0  0  0  0  0  0  0  0  0  0  0  0
    2.6238   -2.3498   -0.2321 C   0  0  0  0  0  0  0  0  0  0  0  0
   -4.0057   -1.1871    0.1118 C   0  0  0  0  0  0  0  0  0  0  0  0
    3.7460    0.1543    0.2704 C   0  0  0  0  0  0  0  0  0  0  0  0
    3.9639   -2.1123   -0.5374 C   0  0  0  0  0  0  0  0  0  0  0  0
    4.5249   -0.8602   -0.2861 C   0  0  0  0  0  0  0  0  0  0  0  0
   -0.8846    2.4391   -1.2020 C   0  0  0  0  0  0  0  0  0  0  0  0
    0.5176    2.8003   -1.6439 C   0  0  0  0  0  0  0  0  0  0  0  0
   -5.5456    0.6967    0.5250 C   0  0  0  0  0  0  0  0  0  0  0  0
    0.2598   -2.6460    0.9022 H   0  0  0  0  0  0  0  0  0  0  0  0
    0.1185   -1.0058    1.5329 H   0  0  0  0  0  0  0  0  0  0  0  0
   -3.2824    2.1345    0.2897 H   0  0  0  0  0  0  0  0  0  0  0  0
    1.7783    0.6912    1.0096 H   0  0  0  0  0  0  0  0  0  0  0  0
    2.1962   -3.3280   -0.4341 H   0  0  0  0  0  0  0  0  0  0  0  0
   -4.8460   -1.8738    0.1897 H   0  0  0  0  0  0  0  0  0  0  0  0
    4.5699   -2.9023   -0.9713 H   0  0  0  0  0  0  0  0  0  0  0  0
    5.5722   -0.7114   -0.5368 H   0  0  0  0  0  0  0  0  0  0  0  0
   -1.4515    2.0721   -2.0666 H   0  0  0  0  0  0  0  0  0  0  0  0
   -1.3872    3.3253   -0.7996 H   0  0  0  0  0  0  0  0  0  0  0  0
    0.4974    3.5692   -2.4213 H   0  0  0  0  0  0  0  0  0  0  0  0
    1.1057    3.1692   -0.7971 H   0  0  0  0  0  0  0  0  0  0  0  0
    1.0382    1.9185   -2.0318 H   0  0  0  0  0  0  0  0  0  0  0  0
   -6.3572   -0.0476    0.5930 H   0  0  0  0  0  0  0  0  0  0  0  0
  1 12  1  0  0  0  0
  2  8  1  0  0  0  0
  2 10  1  0  0  0  0
  3 11  1  0  0  0  0
  3 21  1  0  0  0  0
  4 23  2  0  0  0  0
  5  7  1  0  0  0  0
  6  7  2  0  0  0  0
  7 18  1  0  0  0  0
  8  9  1  0  0  0  0
  8 24  1  0  0  0  0
  8 25  1  0  0  0  0
  9 14  2  0  0  0  0
  9 16  1  0  0  0  0
 10 11  2  0  0  0  0
 10 12  1  0  0  0  0
 11 13  1  0  0  0  0
 12 17  2  0  0  0  0
 13 15  2  0  0  0  0
 13 26  1  0  0  0  0
 14 18  1  0  0  0  0
 14 27  1  0  0  0  0
 15 17  1  0  0  0  0
 15 23  1  0  0  0  0
 16 19  2  0  0  0  0
 16 28  1  0  0  0  0
 17 29  1  0  0  0  0
 18 20  2  0  0  0  0
 19 20  1  0  0  0  0
 19 30  1  0  0  0  0
 20 31  1  0  0  0  0
 21 22  1  0  0  0  0
 21 32  1  0  0  0  0
 21 33  1  0  0  0  0
 22 34  1  0  0  0  0
 22 35  1  0  0  0  0
 22 36  1  0  0  0  0
 23 37  1  0  0  0  0
M  CHG  2   5  -1   7   1
M  END
> <PUBCHEM_COMPOUND_CID>
586041

> <PUBCHEM_CONFORMER_RMSD>
0.8

> <PUBCHEM_CONFORMER_DIVERSEORDER>
1
43
87
85
82
38
13
53
88
97
71
50
34
5
81
4
37
47
30
84
19
45
3
49
72
41
89
33
48
92
90
14
93
67
66
95
23
25
94
29
64
42
57
15
73
65
69
39
86
83
76
21
6
8
56
55
74
96
52
7
24
40
75
35
80
91
26
20
2
79
9
59
31
62
58
27
28
22
36
51
32
10
60
18
70
12
61
46
63
77
68
78
17
16
11
44
54

> <PUBCHEM_MMFF94_PARTIAL_CHARGES>
29
1 -0.18
10 0.08
11 0.08
12 0.18
13 -0.15
14 -0.15
15 0.09
16 -0.15
17 -0.15
18 0.13
19 -0.15
2 -0.36
20 -0.15
21 0.28
23 0.42
26 0.15
27 0.15
28 0.15
29 0.15
3 -0.36
30 0.15
31 0.15
37 0.06
4 -0.57
5 -0.52
6 -0.52
7 0.91
8 0.42
9 -0.14

> <PUBCHEM_EFFECTIVE_ROTOR_COUNT>
7

> <PUBCHEM_PHARMACOPHORE_FEATURES>
8
1 2 acceptor
1 3 acceptor
1 4 acceptor
1 5 acceptor
1 5 anion
1 6 acceptor
6 10 11 12 13 15 17 rings
6 9 14 16 18 19 20 rings

> <PUBCHEM_HEAVY_ATOM_COUNT>
23

> <PUBCHEM_ATOM_DEF_STEREO_COUNT>
0

> <PUBCHEM_ATOM_UDEF_STEREO_COUNT>
0

> <PUBCHEM_BOND_DEF_STEREO_COUNT>
0

> <PUBCHEM_BOND_UDEF_STEREO_COUNT>
0

> <PUBCHEM_ISOTOPIC_ATOM_COUNT>
0

> <PUBCHEM_COMPONENT_COUNT>
1

> <PUBCHEM_CACTVS_TAUTO_COUNT>
1

> <PUBCHEM_CONFORMER_ID>
0008F13900000001

> <PUBCHEM_MMFF94_ENERGY>
76.505

> <PUBCHEM_FEATURE_SELFOVERLAP>
40.681

> <PUBCHEM_SHAPE_FINGERPRINT>
10006869 2 17842007864497242289
10493431 412 18410854361291832419
10498660 4 18201166545449410894
11405975 8 18409452500804110610
11595378 159 17346329240476775448
12633257 1 18335709402637586138
12969540 114 18128272240907474111
13140716 1 18412547625830506651
13402501 40 18411703171494596648
14020679 6 17632281364464758601
14790565 3 18191582154662899745
14955137 171 18270944822419477243
15163728 17 15358802583178210081
15196674 1 18408886230708593683
15536298 74 18408322181296058198
15840311 113 18116703201246335177
1813 80 17275383209581579741
19141452 34 18409729564964750935
20642791 178 18057313994639997453
21033648 29 18262811777811480113
21304253 335 18411129269190038829
21421861 104 18058462052768462786
21652331 79 18341614840893057846
221357 26 18263921206534274054
22182313 1 18058463143289274581
23227448 37 18408889507684212167
23559900 14 18260269698201320954
34797466 226 17313095316058178597
34934 24 18343027692060711459
350125 39 18338797918331591326
474 4 18130506323643329126
5104073 3 18412827979736234211
6287921 2 18266176132841602988
7064713 232 18337116644329823320

> <PUBCHEM_SHAPE_MULTIPOLES>
440.87
11.42
3.41
0.95
0.53
0.05
-0.17
-2.73
2.61
-0.3
-0.89
-0.16
-0.51
0.28

> <PUBCHEM_SHAPE_SELFOVERLAP>
928.685

> <PUBCHEM_SHAPE_VOLUME>
248.9

> <PUBCHEM_COORDINATE_TYPE>
2
5
10

$$$$

