440907
  -OEChem-07051212513D

 43 46  0     1  0  0  0  0  0999 V2000
    2.5721    1.7413   -0.4269 O   0  0  0  0  0  0  0  0  0  0  0  0
   -2.8263   -0.7314   -1.3507 O   0  0  0  0  0  0  0  0  0  0  0  0
    3.3347   -0.8421   -0.2202 O   0  0  0  0  0  0  0  0  0  0  0  0
   -3.2967    2.0129   -0.3708 O   0  0  0  0  0  0  0  0  0  0  0  0
   -5.5805    0.2531    0.6436 O   0  0  0  0  0  0  0  0  0  0  0  0
    5.2270    0.3785    0.2960 O   0  0  0  0  0  0  0  0  0  0  0  0
    0.1815   -0.3159    0.1187 C   0  0  2  0  0  0  0  0  0  0  0  0
   -2.3497   -0.1514   -0.1249 C   0  0  2  0  0  0  0  0  0  0  0  0
   -1.2096   -0.9025    0.5059 C   0  0  0  0  0  0  0  0  0  0  0  0
    1.2530   -0.9008    1.1203 C   0  0  2  0  0  0  0  0  0  0  0  0
    1.4438    1.9245    0.4406 C   0  0  2  0  0  0  0  0  0  0  0  0
    2.6652    1.1652    0.8839 C   0  0  1  0  0  0  0  0  0  0  0  0
    0.1548    1.2262    0.2182 C   0  0  0  0  0  0  0  0  0  0  0  0
    2.6760   -0.3265    0.9313 C   0  0  2  0  0  0  0  0  0  0  0  0
   -3.6878   -0.8595   -0.2149 C   0  0  2  0  0  0  0  0  0  0  0  0
   -2.3059    1.3265   -0.1529 C   0  0  0  0  0  0  0  0  0  0  0  0
    0.4771   -0.6950   -1.3520 C   0  0  0  0  0  0  0  0  0  0  0  0
   -0.9837    1.9377    0.0944 C   0  0  0  0  0  0  0  0  0  0  0  0
    1.3066   -2.4372    1.1546 C   0  0  0  0  0  0  0  0  0  0  0  0
   -3.8940   -2.2701    0.2257 C   0  0  0  0  0  0  0  0  0  0  0  0
   -4.9495   -0.1041   -0.3426 C   0  0  0  0  0  0  0  0  0  0  0  0
    4.6138   -0.4034   -0.4181 C   0  0  0  0  0  0  0  0  0  0  0  0
    5.1779   -1.0259   -1.6592 C   0  0  0  0  0  0  0  0  0  0  0  0
   -1.2382   -1.9622    0.2326 H   0  0  0  0  0  0  0  0  0  0  0  0
   -1.3460   -0.8513    1.5945 H   0  0  0  0  0  0  0  0  0  0  0  0
    0.9356   -0.5844    2.1267 H   0  0  0  0  0  0  0  0  0  0  0  0
    1.3350    2.9172    0.8704 H   0  0  0  0  0  0  0  0  0  0  0  0
    3.3215    1.6337    1.6055 H   0  0  0  0  0  0  0  0  0  0  0  0
    3.2636   -0.6383    1.8063 H   0  0  0  0  0  0  0  0  0  0  0  0
    0.4719   -1.7798   -1.4981 H   0  0  0  0  0  0  0  0  0  0  0  0
   -0.2724   -0.2776   -2.0342 H   0  0  0  0  0  0  0  0  0  0  0  0
    1.4420   -0.3169   -1.6994 H   0  0  0  0  0  0  0  0  0  0  0  0
   -0.9688    3.0224    0.1503 H   0  0  0  0  0  0  0  0  0  0  0  0
    2.0681   -2.7750    1.8668 H   0  0  0  0  0  0  0  0  0  0  0  0
    0.3576   -2.8697    1.4838 H   0  0  0  0  0  0  0  0  0  0  0  0
    1.5596   -2.8616    0.1788 H   0  0  0  0  0  0  0  0  0  0  0  0
   -3.8894   -2.3293    1.3189 H   0  0  0  0  0  0  0  0  0  0  0  0
   -4.8562   -2.6582   -0.1274 H   0  0  0  0  0  0  0  0  0  0  0  0
   -3.1269   -2.9497   -0.1585 H   0  0  0  0  0  0  0  0  0  0  0  0
   -5.2997    0.1097   -1.3664 H   0  0  0  0  0  0  0  0  0  0  0  0
    4.5726   -0.7410   -2.5235 H   0  0  0  0  0  0  0  0  0  0  0  0
    5.2047   -2.1128   -1.5489 H   0  0  0  0  0  0  0  0  0  0  0  0
    6.1987   -0.6651   -1.8144 H   0  0  0  0  0  0  0  0  0  0  0  0
  1 11  1  0  0  0  0
  1 12  1  0  0  0  0
  2  8  1  0  0  0  0
  2 15  1  0  0  0  0
  3 14  1  0  0  0  0
  3 22  1  0  0  0  0
  4 16  2  0  0  0  0
  5 21  2  0  0  0  0
  6 22  2  0  0  0  0
  7  9  1  0  0  0  0
  7 10  1  0  0  0  0
  7 13  1  0  0  0  0
  7 17  1  0  0  0  0
  8  9  1  0  0  0  0
  8 15  1  0  0  0  0
  8 16  1  0  0  0  0
  9 24  1  0  0  0  0
  9 25  1  0  0  0  0
 10 14  1  0  0  0  0
 10 19  1  0  0  0  0
 10 26  1  0  0  0  0
 11 12  1  0  0  0  0
 11 13  1  0  0  0  0
 11 27  1  0  0  0  0
 12 14  1  0  0  0  0
 12 28  1  0  0  0  0
 13 18  2  0  0  0  0
 14 29  1  0  0  0  0
 15 20  1  0  0  0  0
 15 21  1  0  0  0  0
 16 18  1  0  0  0  0
 17 30  1  0  0  0  0
 17 31  1  0  0  0  0
 17 32  1  0  0  0  0
 18 33  1  0  0  0  0
 19 34  1  0  0  0  0
 19 35  1  0  0  0  0
 19 36  1  0  0  0  0
 20 37  1  0  0  0  0
 20 38  1  0  0  0  0
 20 39  1  0  0  0  0
 21 40  1  0  0  0  0
 22 23  1  0  0  0  0
 23 41  1  0  0  0  0
 23 42  1  0  0  0  0
 23 43  1  0  0  0  0
M  END
> <PUBCHEM_COMPOUND_CID>
440907

> <PUBCHEM_CONFORMER_RMSD>
0.8

> <PUBCHEM_CONFORMER_DIVERSEORDER>
1
2
4
3

> <PUBCHEM_MMFF94_PARTIAL_CHARGES>
24
1 -0.3
11 0.09
12 -0.05
13 -0.18
14 0.38
15 0.05
16 0.56
18 -0.14
2 -0.3
20 0.09
21 0.51
22 0.66
23 0.06
27 0.1
28 0.1
3 -0.43
33 0.15
4 -0.57
40 0.06
5 -0.57
6 -0.57
7 0.14
8 0.05
9 0.09

> <PUBCHEM_EFFECTIVE_ROTOR_COUNT>
4.2

> <PUBCHEM_PHARMACOPHORE_FEATURES>
7
1 1 acceptor
1 2 acceptor
1 4 acceptor
1 5 acceptor
1 6 acceptor
6 7 8 9 13 16 18 rings
7 1 7 10 11 12 13 14 rings

> <PUBCHEM_HEAVY_ATOM_COUNT>
23

> <PUBCHEM_ATOM_DEF_STEREO_COUNT>
7

> <PUBCHEM_ATOM_UDEF_STEREO_COUNT>
0

> <PUBCHEM_BOND_DEF_STEREO_COUNT>
0

> <PUBCHEM_BOND_UDEF_STEREO_COUNT>
0

> <PUBCHEM_ISOTOPIC_ATOM_COUNT>
0

> <PUBCHEM_COMPONENT_COUNT>
1

> <PUBCHEM_CACTVS_TAUTO_COUNT>
1

> <PUBCHEM_CONFORMER_ID>
0006BA4B00000001

> <PUBCHEM_MMFF94_ENERGY>
61.4004

> <PUBCHEM_FEATURE_SELFOVERLAP>
35.531

> <PUBCHEM_SHAPE_FINGERPRINT>
10366900 7 18131915949147729275
10616163 171 18411986840941288651
11578080 2 17057537103792793127
12011746 2 18411704296353775279
12236239 1 17894629240887426955
12553582 1 18340501018687459355
12788726 201 18042972158826248497
13140716 1 18198071278446481675
13224815 77 18411709755146464673
13288520 33 18334010609938243564
13675066 3 18041287573224586480
14341114 176 18408317796065818793
14617045 38 18343298184969524771
15196674 1 18338801096243367625
15209289 33 18343581832751268299
15536298 74 18334864878859831360
15788980 27 16225765207549747487
15848702 151 17749101210418968598
16945 1 18271540757004385120
18186145 218 18201731612927158431
19141452 34 17676771989690532455
19591789 44 18339364058776047595
19784866 140 18411135878780645262
19862831 5 18413670201463654300
200 152 17531249448247962457
21033648 29 17023482926472455154
21267235 1 18410568479610110659
221357 26 18408324397272524540
221490 88 18339641118520830417
22393880 68 18341339954222236076
23175994 123 16950281818872078112
23402539 116 18335708208683968679
23557571 272 18187359977844657317
23559900 14 18338520742037005736
2748010 2 18055353526926618346
2838139 119 15554439679240720662
2871803 45 18341339928520945409
296302 2 12967133812964713433
335352 9 18410012135348058885
350125 39 18341332288296832937
4280585 95 17616531105195113886
4990 188 18335138704863420742
5104073 3 18337395924772873161
633830 44 18339932506382235047
9709674 26 18268150846781453491

> <PUBCHEM_SHAPE_MULTIPOLES>
438.11
10.1
2.17
1.14
0.28
0.11
0.2
-1.9
2
0.46
-0.32
-0.82
-0.38
0.42

> <PUBCHEM_SHAPE_SELFOVERLAP>
944.935

> <PUBCHEM_SHAPE_VOLUME>
237.2

> <PUBCHEM_COORDINATE_TYPE>
2
5
10

$$$$

