586318
  -OEChem-06241222463D

 38 38  0     0  0  0  0  0  0999 V2000
    7.9052    1.4419    0.5125 F   0  0  0  0  0  0  0  0  0  0  0  0
    7.5570   -0.7056    0.5812 F   0  0  0  0  0  0  0  0  0  0  0  0
    7.5149    0.3389   -1.3274 F   0  0  0  0  0  0  0  0  0  0  0  0
   -7.8964    1.4457   -0.5115 F   0  0  0  0  0  0  0  0  0  0  0  0
   -7.5490   -0.7019   -0.5822 F   0  0  0  0  0  0  0  0  0  0  0  0
   -7.5062    0.3408    1.3273 F   0  0  0  0  0  0  0  0  0  0  0  0
    2.7353   -1.2862   -0.1911 O   0  0  0  0  0  0  0  0  0  0  0  0
   -2.7633   -1.2850    0.1917 O   0  0  0  0  0  0  0  0  0  0  0  0
    2.6998    1.0509   -0.2027 O   0  0  0  0  0  0  0  0  0  0  0  0
   -2.6910    1.0520    0.2029 O   0  0  0  0  0  0  0  0  0  0  0  0
    1.3773   -1.2862   -0.0966 C   0  0  0  0  0  0  0  0  0  0  0  0
   -1.3693   -1.2854    0.0946 C   0  0  0  0  0  0  0  0  0  0  0  0
    0.5977   -1.2855   -1.2532 C   0  0  0  0  0  0  0  0  0  0  0  0
   -0.7938   -1.2850   -1.1564 C   0  0  0  0  0  0  0  0  0  0  0  0
    0.7654   -1.2865    1.1569 C   0  0  0  0  0  0  0  0  0  0  0  0
   -0.6262   -1.2862    1.2538 C   0  0  0  0  0  0  0  0  0  0  0  0
    5.6840    0.7183    0.1249 C   0  0  0  0  0  0  0  0  0  0  0  0
   -5.6755    0.7208   -0.1247 C   0  0  0  0  0  0  0  0  0  0  0  0
    4.7783   -0.1646   -0.3328 C   0  0  0  0  0  0  0  0  0  0  0  0
   -4.7699   -0.1628    0.3321 C   0  0  0  0  0  0  0  0  0  0  0  0
    7.1552    0.4435   -0.0216 C   0  0  0  0  0  0  0  0  0  0  0  0
   -7.1466    0.4465    0.0217 C   0  0  0  0  0  0  0  0  0  0  0  0
    5.3735    2.0160    0.8188 C   0  0  0  0  0  0  0  0  0  0  0  0
   -5.3644    2.0190   -0.8175 C   0  0  0  0  0  0  0  0  0  0  0  0
    3.3066   -0.0074   -0.2304 C   0  0  0  0  0  0  0  0  0  0  0  0
   -3.2983   -0.0060    0.2296 C   0  0  0  0  0  0  0  0  0  0  0  0
    1.0678   -1.2859   -2.2329 H   0  0  0  0  0  0  0  0  0  0  0  0
   -1.4007   -1.2851   -2.0564 H   0  0  0  0  0  0  0  0  0  0  0  0
    1.3667   -1.2876    2.0620 H   0  0  0  0  0  0  0  0  0  0  0  0
   -1.1025   -1.2874    2.2292 H   0  0  0  0  0  0  0  0  0  0  0  0
    5.1217   -1.0898   -0.7895 H   0  0  0  0  0  0  0  0  0  0  0  0
   -5.1166   -1.0869    0.7894 H   0  0  0  0  0  0  0  0  0  0  0  0
    5.9231    2.0781    1.7649 H   0  0  0  0  0  0  0  0  0  0  0  0
    4.3211    2.1435    1.0755 H   0  0  0  0  0  0  0  0  0  0  0  0
    5.6727    2.8604    0.1893 H   0  0  0  0  0  0  0  0  0  0  0  0
   -5.9142    2.0823   -1.7634 H   0  0  0  0  0  0  0  0  0  0  0  0
   -4.3121    2.1464   -1.0742 H   0  0  0  0  0  0  0  0  0  0  0  0
   -5.6631    2.8630   -0.1872 H   0  0  0  0  0  0  0  0  0  0  0  0
  1 21  1  0  0  0  0
  2 21  1  0  0  0  0
  3 21  1  0  0  0  0
  4 22  1  0  0  0  0
  5 22  1  0  0  0  0
  6 22  1  0  0  0  0
  7 11  1  0  0  0  0
  7 25  1  0  0  0  0
  8 12  1  0  0  0  0
  8 26  1  0  0  0  0
  9 25  2  0  0  0  0
 10 26  2  0  0  0  0
 11 13  2  0  0  0  0
 11 15  1  0  0  0  0
 12 14  2  0  0  0  0
 12 16  1  0  0  0  0
 13 14  1  0  0  0  0
 13 27  1  0  0  0  0
 14 28  1  0  0  0  0
 15 16  2  0  0  0  0
 15 29  1  0  0  0  0
 16 30  1  0  0  0  0
 17 19  2  0  0  0  0
 17 21  1  0  0  0  0
 17 23  1  0  0  0  0
 18 20  2  0  0  0  0
 18 22  1  0  0  0  0
 18 24  1  0  0  0  0
 19 25  1  0  0  0  0
 19 31  1  0  0  0  0
 20 26  1  0  0  0  0
 20 32  1  0  0  0  0
 23 33  1  0  0  0  0
 23 34  1  0  0  0  0
 23 35  1  0  0  0  0
 24 36  1  0  0  0  0
 24 37  1  0  0  0  0
 24 38  1  0  0  0  0
M  END
> <PUBCHEM_COMPOUND_CID>
586318

> <PUBCHEM_CONFORMER_RMSD>
1

> <PUBCHEM_CONFORMER_DIVERSEORDER>
1
400
249
513
370
113
267
390
3
261
189
114
403
146
325
61
356
13
443
89
317
2
185
227
377
476
30
223
271
275
489
5
239
60
425
258
421
303
27
157
193
253
272
43
529
158
163
151
92
512
498
354
32
218
105
150
36
164
477
147
34
222
207
96
350
14
479
286
322
24
268
59
116
57
289
519
39
264
200
203
353
38
422
107
376
190
62
37
394
68
77
45
171
93
19
25
460
379
219
15
488
139
144
115
497
309
348
78
122
245
23

> <PUBCHEM_MMFF94_PARTIAL_CHARGES>
32
1 -0.34
10 -0.57
11 0.08
12 0.08
13 -0.15
14 -0.15
15 -0.15
16 -0.15
17 -0.28
18 -0.28
19 -0.14
2 -0.34
20 -0.14
21 1.16
22 1.16
23 0.14
24 0.14
25 0.71
26 0.71
27 0.15
28 0.15
29 0.15
3 -0.34
30 0.15
31 0.15
32 0.15
4 -0.34
5 -0.34
6 -0.34
7 -0.23
8 -0.23
9 -0.57

> <PUBCHEM_EFFECTIVE_ROTOR_COUNT>
8

> <PUBCHEM_PHARMACOPHORE_FEATURES>
5
1 10 acceptor
1 23 hydrophobe
1 24 hydrophobe
1 9 acceptor
6 11 12 13 14 15 16 rings

> <PUBCHEM_HEAVY_ATOM_COUNT>
26

> <PUBCHEM_ATOM_DEF_STEREO_COUNT>
0

> <PUBCHEM_ATOM_UDEF_STEREO_COUNT>
0

> <PUBCHEM_BOND_DEF_STEREO_COUNT>
0

> <PUBCHEM_BOND_UDEF_STEREO_COUNT>
2

> <PUBCHEM_ISOTOPIC_ATOM_COUNT>
0

> <PUBCHEM_COMPONENT_COUNT>
1

> <PUBCHEM_CACTVS_TAUTO_COUNT>
1

> <PUBCHEM_CONFORMER_ID>
0008F24E00000001

> <PUBCHEM_MMFF94_ENERGY>
65.3098

> <PUBCHEM_FEATURE_SELFOVERLAP>
25.371

> <PUBCHEM_SHAPE_FINGERPRINT>
10 15 17988923370564203579
106641 1 15769769135170854899
10670039 82 17603583067076087161
10674148 151 6844206437629710439
12592606 108 10663811967514791481
12643181 29 7781510413347269613
12838862 33 18338532888083485280
13288520 33 8574714598372466659
13668630 136 7925914781022064352
13685833 64 9511461126100006446
13968360 50 16950277438480638758
14123256 10 16443063906755511387
14150023 79 18409729595183379942
14251764 18 17775004583013609190
14257110 125 18408886247835442425
14556957 393 16009016259752486649
14767858 380 16008746918015986454
15183329 4 17603300462295850922
15238133 3 17988353798441209740
15301273 46 16056883558776571378
15461852 350 18260545580840059751
15961568 22 18412262874289614941
18335252 114 17967254200142417416
18335252 98 18260544512047674567
19611394 137 18057593288495528107
19784866 240 8862942801239039055
20157964 124 18113614612700824574
20281389 69 18342459244628097088
20567600 254 18202850958988200979
21033648 29 18264501594387285232
21150785 3 15936410039503208135
21403212 168 17847067687906145130
22224240 67 16343983602419837130
23035841 295 7132434618746736591
23576562 1 16878803586380186361
2838139 119 18335989704824493956
3009799 131 16081088173501294834
3633792 109 17241034505343278462
4098825 35 16009296734070160481
4107672 100 5256412665478598467
4325135 7 18408888430575608503
465052 167 11167936974253454851
5283156 175 13912315807286866086
5385378 56 17704079521082624146
5470011 282 5978104665910541304
5758199 1 17846779615553829747

> <PUBCHEM_SHAPE_MULTIPOLES>
467.95
24.6
1.76
1.04
0.29
0.37
0
12.96
0
-0.01
0
0
-0.17
0.77

> <PUBCHEM_SHAPE_SELFOVERLAP>
982.584

> <PUBCHEM_SHAPE_VOLUME>
264.3

> <PUBCHEM_COORDINATE_TYPE>
2
5
10

$$$$

