9697
  -OEChem-06261203572D

 16 16  0     0  0  0  0  0  0999 V2000
    6.3301    0.8450    0.0000 F   0  0  0  0  0  0  0  0  0  0  0  0
    4.5981   -2.1550    0.0000 F   0  0  0  0  0  0  0  0  0  0  0  0
    2.0000    0.3450    0.0000 O   0  5  0  0  0  0  0  0  0  0  0  0
    2.8660    1.8450    0.0000 O   0  0  0  0  0  0  0  0  0  0  0  0
    2.8660    0.8450    0.0000 N   0  3  0  0  0  0  0  0  0  0  0  0
    4.5981    1.8450    0.0000 N   0  0  0  0  0  0  0  0  0  0  0  0
    3.7320    0.3450    0.0000 C   0  0  0  0  0  0  0  0  0  0  0  0
    4.5981    0.8450    0.0000 C   0  0  0  0  0  0  0  0  0  0  0  0
    3.7320   -0.6550    0.0000 C   0  0  0  0  0  0  0  0  0  0  0  0
    5.4641    0.3450    0.0000 C   0  0  0  0  0  0  0  0  0  0  0  0
    4.5981   -1.1550    0.0000 C   0  0  0  0  0  0  0  0  0  0  0  0
    5.4641   -0.6550    0.0000 C   0  0  0  0  0  0  0  0  0  0  0  0
    3.1951   -0.9650    0.0000 H   0  0  0  0  0  0  0  0  0  0  0  0
    6.0010   -0.9650    0.0000 H   0  0  0  0  0  0  0  0  0  0  0  0
    5.1350    2.1550    0.0000 H   0  0  0  0  0  0  0  0  0  0  0  0
    4.0611    2.1550    0.0000 H   0  0  0  0  0  0  0  0  0  0  0  0
  1 10  1  0  0  0  0
  2 11  1  0  0  0  0
  3  5  1  0  0  0  0
  4  5  2  0  0  0  0
  5  7  1  0  0  0  0
  6  8  1  0  0  0  0
  6 15  1  0  0  0  0
  6 16  1  0  0  0  0
  7  8  2  0  0  0  0
  7  9  1  0  0  0  0
  8 10  1  0  0  0  0
  9 11  2  0  0  0  0
  9 13  1  0  0  0  0
 10 12  2  0  0  0  0
 11 12  1  0  0  0  0
 12 14  1  0  0  0  0
M  CHG  2   3  -1   5   1
M  END
> <PUBCHEM_COMPOUND_CID>
9697

> <PUBCHEM_COMPOUND_CANONICALIZED>
1

> <PUBCHEM_CACTVS_COMPLEXITY>
185

> <PUBCHEM_CACTVS_HBOND_ACCEPTOR>
5

> <PUBCHEM_CACTVS_HBOND_DONOR>
1

> <PUBCHEM_CACTVS_ROTATABLE_BOND>
0

> <PUBCHEM_CACTVS_SUBSKEYS>
AAADcYBjMYAAAAAAAAAAAAAAAAAAAAAAAAAwAAAAAAAAAAABAAAAHQAUAAAACAiBEAgwwIBQQACBACRCQwCCAAAgAgAgiAAAdIoIYCKAkZGAIABggIAIyAcQAAAAAAAAAAAAACAAAAAAAAAAQAAAAAAAAA==

> <PUBCHEM_IUPAC_OPENEYE_NAME>
2,4-difluoro-6-nitro-aniline

> <PUBCHEM_IUPAC_CAS_NAME>
2,4-difluoro-6-nitroaniline

> <PUBCHEM_IUPAC_NAME>
2,4-difluoro-6-nitroaniline

> <PUBCHEM_IUPAC_SYSTEMATIC_NAME>
2,4-bis(fluoranyl)-6-nitro-aniline

> <PUBCHEM_IUPAC_TRADITIONAL_NAME>
(2,4-difluoro-6-nitro-phenyl)amine

> <PUBCHEM_IUPAC_INCHI>
InChI=1S/C6H4F2N2O2/c7-3-1-4(8)6(9)5(2-3)10(11)12/h1-2H,9H2

> <PUBCHEM_IUPAC_INCHIKEY>
WPEUQAOOZXFRKZ-UHFFFAOYSA-N

> <PUBCHEM_XLOGP3_AA>
1.8

> <PUBCHEM_EXACT_MASS>
174.024084

> <PUBCHEM_MOLECULAR_FORMULA>
C6H4F2N2O2

> <PUBCHEM_MOLECULAR_WEIGHT>
174.104966

> <PUBCHEM_OPENEYE_CAN_SMILES>
C1=C(C=C(C(=C1F)N)[N+](=O)[O-])F

> <PUBCHEM_OPENEYE_ISO_SMILES>
C1=C(C=C(C(=C1F)N)[N+](=O)[O-])F

> <PUBCHEM_CACTVS_TPSA>
71.8

> <PUBCHEM_MONOISOTOPIC_WEIGHT>
174.024084

> <PUBCHEM_TOTAL_CHARGE>
0

> <PUBCHEM_HEAVY_ATOM_COUNT>
12

> <PUBCHEM_ATOM_DEF_STEREO_COUNT>
0

> <PUBCHEM_ATOM_UDEF_STEREO_COUNT>
0

> <PUBCHEM_BOND_DEF_STEREO_COUNT>
0

> <PUBCHEM_BOND_UDEF_STEREO_COUNT>
0

> <PUBCHEM_ISOTOPIC_ATOM_COUNT>
0

> <PUBCHEM_COMPONENT_COUNT>
1

> <PUBCHEM_CACTVS_TAUTO_COUNT>
1

> <PUBCHEM_COORDINATE_TYPE>
1
5
255

> <PUBCHEM_BONDANNOTATIONS>
10  12  8
11  12  8
7  8  8
7  9  8
8  10  8
9  11  8

$$$$

