125608
  -OEChem-07051212583D

 41 41  0     1  0  0  0  0  0999 V2000
    0.2653   -1.9647   -0.5539 O   0  0  0  0  0  0  0  0  0  0  0  0
   -2.3078   -2.1974   -0.3819 O   0  0  0  0  0  0  0  0  0  0  0  0
   -1.1610   -0.0669   -0.2819 C   0  0  2  0  0  0  0  0  0  0  0  0
    0.0584   -0.8080    0.2591 C   0  0  2  0  0  0  0  0  0  0  0  0
   -1.4562    1.1703    0.5648 C   0  0  0  0  0  0  0  0  0  0  0  0
    1.3027    0.1018    0.1817 C   0  0  0  0  0  0  0  0  0  0  0  0
   -2.6887    1.9124    0.0521 C   0  0  0  0  0  0  0  0  0  0  0  0
   -2.3864   -0.9721   -0.3127 C   0  0  0  0  0  0  0  0  0  0  0  0
   -0.2240   -1.2922    1.6821 C   0  0  0  0  0  0  0  0  0  0  0  0
   -3.8576    0.9961   -0.2007 C   0  0  0  0  0  0  0  0  0  0  0  0
    2.5772   -0.5152    0.7716 C   0  0  0  0  0  0  0  0  0  0  0  0
   -3.7273   -0.3319   -0.3400 C   0  0  0  0  0  0  0  0  0  0  0  0
   -5.2008    1.6607   -0.2913 C   0  0  0  0  0  0  0  0  0  0  0  0
    3.7203    0.4609    0.7277 C   0  0  0  0  0  0  0  0  0  0  0  0
    4.6578    0.5853   -0.2309 C   0  0  0  0  0  0  0  0  0  0  0  0
    5.7790    1.5853   -0.2159 C   0  0  0  0  0  0  0  0  0  0  0  0
    4.6490   -0.3244   -1.4302 C   0  0  0  0  0  0  0  0  0  0  0  0
   -0.9818    0.2259   -1.3261 H   0  0  0  0  0  0  0  0  0  0  0  0
   -0.6359    1.8922    0.5562 H   0  0  0  0  0  0  0  0  0  0  0  0
   -1.6467    0.9046    1.6113 H   0  0  0  0  0  0  0  0  0  0  0  0
    1.4932    0.3620   -0.8681 H   0  0  0  0  0  0  0  0  0  0  0  0
    1.1415    1.0395    0.7208 H   0  0  0  0  0  0  0  0  0  0  0  0
   -2.4471    2.4400   -0.8789 H   0  0  0  0  0  0  0  0  0  0  0  0
   -2.9650    2.6736    0.7918 H   0  0  0  0  0  0  0  0  0  0  0  0
    0.5132   -2.0485    1.9788 H   0  0  0  0  0  0  0  0  0  0  0  0
   -0.1710   -0.4826    2.4170 H   0  0  0  0  0  0  0  0  0  0  0  0
   -1.1902   -1.7914    1.7967 H   0  0  0  0  0  0  0  0  0  0  0  0
    2.8232   -1.4570    0.2714 H   0  0  0  0  0  0  0  0  0  0  0  0
    2.4228   -0.7743    1.8257 H   0  0  0  0  0  0  0  0  0  0  0  0
   -4.5813   -0.9799   -0.5043 H   0  0  0  0  0  0  0  0  0  0  0  0
    0.4550   -1.6658   -1.4596 H   0  0  0  0  0  0  0  0  0  0  0  0
   -5.4387    2.1673    0.6497 H   0  0  0  0  0  0  0  0  0  0  0  0
   -6.0036    0.9447   -0.4966 H   0  0  0  0  0  0  0  0  0  0  0  0
   -5.2024    2.4027   -1.0965 H   0  0  0  0  0  0  0  0  0  0  0  0
    3.7663    1.1483    1.5713 H   0  0  0  0  0  0  0  0  0  0  0  0
    5.7100    2.2502   -1.0828 H   0  0  0  0  0  0  0  0  0  0  0  0
    5.7529    2.2066    0.6853 H   0  0  0  0  0  0  0  0  0  0  0  0
    6.7466    1.0738   -0.2419 H   0  0  0  0  0  0  0  0  0  0  0  0
    3.7291   -0.8989   -1.5574 H   0  0  0  0  0  0  0  0  0  0  0  0
    5.4854   -1.0287   -1.3715 H   0  0  0  0  0  0  0  0  0  0  0  0
    4.7671    0.2670   -2.3453 H   0  0  0  0  0  0  0  0  0  0  0  0
  1  4  1  0  0  0  0
  1 31  1  0  0  0  0
  2  8  2  0  0  0  0
  3  4  1  0  0  0  0
  3  5  1  0  0  0  0
  3  8  1  0  0  0  0
  3 18  1  0  0  0  0
  4  6  1  0  0  0  0
  4  9  1  0  0  0  0
  5  7  1  0  0  0  0
  5 19  1  0  0  0  0
  5 20  1  0  0  0  0
  6 11  1  0  0  0  0
  6 21  1  0  0  0  0
  6 22  1  0  0  0  0
  7 10  1  0  0  0  0
  7 23  1  0  0  0  0
  7 24  1  0  0  0  0
  8 12  1  0  0  0  0
  9 25  1  0  0  0  0
  9 26  1  0  0  0  0
  9 27  1  0  0  0  0
 10 12  2  0  0  0  0
 10 13  1  0  0  0  0
 11 14  1  0  0  0  0
 11 28  1  0  0  0  0
 11 29  1  0  0  0  0
 12 30  1  0  0  0  0
 13 32  1  0  0  0  0
 13 33  1  0  0  0  0
 13 34  1  0  0  0  0
 14 15  2  0  0  0  0
 14 35  1  0  0  0  0
 15 16  1  0  0  0  0
 15 17  1  0  0  0  0
 16 36  1  0  0  0  0
 16 37  1  0  0  0  0
 16 38  1  0  0  0  0
 17 39  1  0  0  0  0
 17 40  1  0  0  0  0
 17 41  1  0  0  0  0
M  END
> <PUBCHEM_COMPOUND_CID>
125608

> <PUBCHEM_CONFORMER_RMSD>
0.6

> <PUBCHEM_CONFORMER_DIVERSEORDER>
4
29
8
15
25
14
33
34
18
31
35
19
30
22
28
23
24
6
10
12
36
21
16
1
27
20
32
13
7
5
26
3
17
9
11
2

> <PUBCHEM_MMFF94_PARTIAL_CHARGES>
17
1 -0.68
10 -0.28
11 0.14
12 -0.14
13 0.14
14 -0.29
15 -0.28
16 0.14
17 0.14
2 -0.57
3 0.06
30 0.15
31 0.4
35 0.15
4 0.28
7 0.14
8 0.49

> <PUBCHEM_EFFECTIVE_ROTOR_COUNT>
4.6

> <PUBCHEM_PHARMACOPHORE_FEATURES>
5
1 1 acceptor
1 1 donor
1 2 acceptor
3 15 16 17 hydrophobe
6 3 5 7 8 10 12 rings

> <PUBCHEM_HEAVY_ATOM_COUNT>
17

> <PUBCHEM_ATOM_DEF_STEREO_COUNT>
2

> <PUBCHEM_ATOM_UDEF_STEREO_COUNT>
0

> <PUBCHEM_BOND_DEF_STEREO_COUNT>
0

> <PUBCHEM_BOND_UDEF_STEREO_COUNT>
0

> <PUBCHEM_ISOTOPIC_ATOM_COUNT>
0

> <PUBCHEM_COMPONENT_COUNT>
1

> <PUBCHEM_CACTVS_TAUTO_COUNT>
8

> <PUBCHEM_CONFORMER_ID>
0001EAA800000004

> <PUBCHEM_MMFF94_ENERGY>
32.7984

> <PUBCHEM_FEATURE_SELFOVERLAP>
25.384

> <PUBCHEM_SHAPE_FINGERPRINT>
10014705 185 18342175553110781484
10498660 4 18409449198137445624
12186901 62 18260548917881695215
12236239 1 18060142033394152464
12390115 104 18042113436003027753
12916748 109 18411976958036586392
13214271 11 17918270957240683889
13675066 3 12175629473132121402
13690532 89 7925622324199067289
13897977 58 18413109454965800765
14123260 362 18202274810357711872
1420 369 7781518114149609124
14251764 75 17831011691442451897
14573314 32 18114176445740917108
15342168 16 17203600497761101134
17959699 21 18339923702316956792
18186145 218 17312828147522761082
19784866 140 15502376763713468387
19784866 240 5978383936920169441
200 152 15068617197599685090
20300324 65 18335140860404311789
204376 136 16845570924323096818
20645477 56 18408604755568203241
20645477 70 16805594902784184030
20871999 31 18187937131576764543
21065199 12 11240006637871911062
22079108 93 17132108035467350521
22854114 59 14620796011479796368
23175994 123 16153709786891840019
23366157 5 17982733270398157355
23402539 116 18334020466909339044
23402655 69 18409732859262708632
23557571 272 18187923919914431567
23559900 14 18186519913150070246
293599 30 18409731802822326473
3004659 81 18335980961368078158
3472631 163 18413106147814811060
4028521 119 18408887360100343625
4340502 62 16988274400410813873
474 4 17846494846331687564
4990 188 18040433309041298526
5374978 207 10375858689266650366
56616090 163 18334288807807727047
633830 44 18131356344800206186
76465 3 7132716089317671138

> <PUBCHEM_SHAPE_MULTIPOLES>
338.11
11.26
1.93
1.05
9.03
0.15
-0.12
-6.72
2.65
-1.25
0.04
0.65
0.29
-0.09

> <PUBCHEM_SHAPE_SELFOVERLAP>
674.914

> <PUBCHEM_SHAPE_VOLUME>
199.5

> <PUBCHEM_COORDINATE_TYPE>
2
5
10

$$$$

