17395759
  -OEChem-06241222523D

 50 53  0     0  0  0  0  0  0999 V2000
    2.5207   -1.4070    0.5015 O   0  0  0  0  0  0  0  0  0  0  0  0
    0.5515   -2.8090   -0.2377 O   0  0  0  0  0  0  0  0  0  0  0  0
   -4.6548    2.1601   -1.2797 O   0  0  0  0  0  0  0  0  0  0  0  0
   -3.5517   -0.1775   -0.1832 N   0  0  0  0  0  0  0  0  0  0  0  0
   -0.9032   -1.0427   -0.6297 N   0  0  0  0  0  0  0  0  0  0  0  0
   -2.4359    0.7146    0.1605 C   0  0  0  0  0  0  0  0  0  0  0  0
   -3.2505   -1.6181   -0.1785 C   0  0  0  0  0  0  0  0  0  0  0  0
   -1.2098    0.3876   -0.6918 C   0  0  0  0  0  0  0  0  0  0  0  0
   -2.0137   -1.9044   -1.0270 C   0  0  0  0  0  0  0  0  0  0  0  0
    6.9664    2.4899   -0.2593 C   0  0  0  0  0  0  0  0  0  0  0  0
    5.5945    2.5164    0.4311 C   0  0  0  0  0  0  0  0  0  0  0  0
    7.5380    1.0789   -0.0543 C   0  0  0  0  0  0  0  0  0  0  0  0
    5.1803    1.0842    0.3069 C   0  0  0  0  0  0  0  0  0  0  0  0
    6.2837    0.2681    0.0313 C   0  0  0  0  0  0  0  0  0  0  0  0
   -4.8638    0.2132    0.1069 C   0  0  0  0  0  0  0  0  0  0  0  0
    0.3193   -1.5977   -0.2590 C   0  0  0  0  0  0  0  0  0  0  0  0
    3.9163    0.5442    0.4732 C   0  0  0  0  0  0  0  0  0  0  0  0
    6.1458   -1.1048   -0.0837 C   0  0  0  0  0  0  0  0  0  0  0  0
    1.4057   -0.6306    0.1376 C   0  0  0  0  0  0  0  0  0  0  0  0
    3.7655   -0.8384    0.3465 C   0  0  0  0  0  0  0  0  0  0  0  0
    4.8723   -1.6570    0.0701 C   0  0  0  0  0  0  0  0  0  0  0  0
   -5.3969    1.3775   -0.4464 C   0  0  0  0  0  0  0  0  0  0  0  0
   -5.6403   -0.5737    0.9574 C   0  0  0  0  0  0  0  0  0  0  0  0
   -6.7066    1.7546   -0.1490 C   0  0  0  0  0  0  0  0  0  0  0  0
   -6.9499   -0.1964    1.2547 C   0  0  0  0  0  0  0  0  0  0  0  0
   -7.4829    0.9677    0.7016 C   0  0  0  0  0  0  0  0  0  0  0  0
   -2.1932    0.5749    1.2220 H   0  0  0  0  0  0  0  0  0  0  0  0
   -2.6796    1.7729    0.0296 H   0  0  0  0  0  0  0  0  0  0  0  0
   -3.0689   -1.9531    0.8507 H   0  0  0  0  0  0  0  0  0  0  0  0
   -4.0823   -2.2013   -0.5928 H   0  0  0  0  0  0  0  0  0  0  0  0
   -1.4061    0.6272   -1.7441 H   0  0  0  0  0  0  0  0  0  0  0  0
   -0.3686    1.0048   -0.3714 H   0  0  0  0  0  0  0  0  0  0  0  0
   -1.7412   -2.9612   -0.9442 H   0  0  0  0  0  0  0  0  0  0  0  0
   -2.2198   -1.6988   -2.0845 H   0  0  0  0  0  0  0  0  0  0  0  0
    6.8300    2.6687   -1.3351 H   0  0  0  0  0  0  0  0  0  0  0  0
    7.6369    3.2705    0.1136 H   0  0  0  0  0  0  0  0  0  0  0  0
    4.9058    3.1980   -0.0759 H   0  0  0  0  0  0  0  0  0  0  0  0
    5.6878    2.7916    1.4867 H   0  0  0  0  0  0  0  0  0  0  0  0
    8.0959    1.0106    0.8853 H   0  0  0  0  0  0  0  0  0  0  0  0
    8.1743    0.7807   -0.8921 H   0  0  0  0  0  0  0  0  0  0  0  0
    3.0899    1.2028    0.7179 H   0  0  0  0  0  0  0  0  0  0  0  0
    7.0012   -1.7401   -0.2861 H   0  0  0  0  0  0  0  0  0  0  0  0
    1.6154    0.0046   -0.7316 H   0  0  0  0  0  0  0  0  0  0  0  0
    1.0722   -0.0415    0.9980 H   0  0  0  0  0  0  0  0  0  0  0  0
    4.7418   -2.7325   -0.0202 H   0  0  0  0  0  0  0  0  0  0  0  0
   -5.2583   -1.4764    1.4251 H   0  0  0  0  0  0  0  0  0  0  0  0
   -7.1350    2.6591   -0.5725 H   0  0  0  0  0  0  0  0  0  0  0  0
   -7.5535   -0.8063    1.9206 H   0  0  0  0  0  0  0  0  0  0  0  0
   -8.5022    1.2620    0.9343 H   0  0  0  0  0  0  0  0  0  0  0  0
   -5.1902    2.9218   -1.5611 H   0  0  0  0  0  0  0  0  0  0  0  0
  1 19  1  0  0  0  0
  1 20  1  0  0  0  0
  2 16  2  0  0  0  0
  3 22  1  0  0  0  0
  3 50  1  0  0  0  0
  4  6  1  0  0  0  0
  4  7  1  0  0  0  0
  4 15  1  0  0  0  0
  5  8  1  0  0  0  0
  5  9  1  0  0  0  0
  5 16  1  0  0  0  0
  6  8  1  0  0  0  0
  6 27  1  0  0  0  0
  6 28  1  0  0  0  0
  7  9  1  0  0  0  0
  7 29  1  0  0  0  0
  7 30  1  0  0  0  0
  8 31  1  0  0  0  0
  8 32  1  0  0  0  0
  9 33  1  0  0  0  0
  9 34  1  0  0  0  0
 10 11  1  0  0  0  0
 10 12  1  0  0  0  0
 10 35  1  0  0  0  0
 10 36  1  0  0  0  0
 11 13  1  0  0  0  0
 11 37  1  0  0  0  0
 11 38  1  0  0  0  0
 12 14  1  0  0  0  0
 12 39  1  0  0  0  0
 12 40  1  0  0  0  0
 13 14  2  0  0  0  0
 13 17  1  0  0  0  0
 14 18  1  0  0  0  0
 15 22  1  0  0  0  0
 15 23  2  0  0  0  0
 16 19  1  0  0  0  0
 17 20  2  0  0  0  0
 17 41  1  0  0  0  0
 18 21  2  0  0  0  0
 18 42  1  0  0  0  0
 19 43  1  0  0  0  0
 19 44  1  0  0  0  0
 20 21  1  0  0  0  0
 21 45  1  0  0  0  0
 22 24  2  0  0  0  0
 23 25  1  0  0  0  0
 23 46  1  0  0  0  0
 24 26  1  0  0  0  0
 24 47  1  0  0  0  0
 25 26  2  0  0  0  0
 25 48  1  0  0  0  0
 26 49  1  0  0  0  0
M  END
> <PUBCHEM_COMPOUND_CID>
17395759

> <PUBCHEM_CONFORMER_RMSD>
1

> <PUBCHEM_CONFORMER_DIVERSEORDER>
1
121
131
30
60
26
118
142
96
114
12
77
112
153
81
143
150
23
66
145
59
82
109
7
147
79
41
62
16
65
107
69
89
56
2
83
129
104
31
95
151
45
71
32
99
93
117
17
25
55
122
86
53
28
119
140
120
106
110
115
105
40
35
72
38
42
48
75
116
133
43
101
85
46
11
141
4
49
39
87
73
102
78
125
54
76
36
44
152
126
97
68
149
94
51
3
74
108
139
148
100
50
24
37
21
61
70
18
47
111
58
57
103
27
13
80
92
132
144
146
34
136
138
113
5
9
84
20
29
124
134
130
88
52
90
19
63
135
98
127
123
91
33
22
6
14
137
15
67
8
64
128
10

> <PUBCHEM_MMFF94_PARTIAL_CHARGES>
33
1 -0.36
11 0.14
12 0.14
13 -0.14
14 -0.14
15 0.1
16 0.57
17 -0.15
18 -0.15
19 0.34
2 -0.57
20 0.08
21 -0.15
22 0.08
23 -0.15
24 -0.15
25 -0.15
26 -0.15
3 -0.53
4 -0.84
41 0.15
42 0.15
45 0.15
46 0.15
47 0.15
48 0.15
49 0.15
5 -0.66
50 0.45
6 0.37
7 0.37
8 0.3
9 0.3

> <PUBCHEM_EFFECTIVE_ROTOR_COUNT>
6.8

> <PUBCHEM_PHARMACOPHORE_FEATURES>
8
1 1 acceptor
1 2 acceptor
1 3 donor
1 4 cation
5 10 11 12 13 14 rings
6 13 14 17 18 20 21 rings
6 15 22 23 24 25 26 rings
6 4 5 6 7 8 9 rings

> <PUBCHEM_HEAVY_ATOM_COUNT>
26

> <PUBCHEM_ATOM_DEF_STEREO_COUNT>
0

> <PUBCHEM_ATOM_UDEF_STEREO_COUNT>
0

> <PUBCHEM_BOND_DEF_STEREO_COUNT>
0

> <PUBCHEM_BOND_UDEF_STEREO_COUNT>
0

> <PUBCHEM_ISOTOPIC_ATOM_COUNT>
0

> <PUBCHEM_COMPONENT_COUNT>
1

> <PUBCHEM_CACTVS_TAUTO_COUNT>
3

> <PUBCHEM_CONFORMER_ID>
0109702F00000001

> <PUBCHEM_MMFF94_ENERGY>
89.9065

> <PUBCHEM_FEATURE_SELFOVERLAP>
40.695

> <PUBCHEM_SHAPE_FINGERPRINT>
10 15 18273213097363771579
10066227 112 18334297560787422392
10066227 49 8935010256300670440
10554248 39 17458061603601860430
106641 1 18341888577167142971
10835480 77 18270686501780797165
11135609 99 9583518720755580992
11410812 94 14273720898787012602
11991303 11 17023193690848771215
125118 31 18411135874306563880
12516196 113 14908179759219746622
12596602 18 17917714634195103457
13911987 19 17895485829798080373
13914758 101 6627478397342406315
14020679 6 17489306330558854120
14251757 52 18411420613800908424
14251764 18 18260268521437563663
14565420 104 17988927773549715594
14849402 71 18337668616415752105
14933364 13 18412261744190300744
15183329 4 5184350689751160119
15188451 53 10375879563145247606
15419008 145 18058181681978291312
15461852 350 17822296761006709559
15519825 34 16558460878070030787
1577012 14 18334863788338980318
15778101 99 18335702702319831646
16760501 71 18342174427955976588
16989713 51 17023758780366286639
19302320 297 18129666288919814868
19377110 9 15339125662319632560
19611394 137 18129931287852222427
19958102 18 7132718288241076769
20157964 124 18335137618463775490
2026 5 9295287236302372737
20281389 69 18342176682607825194
21033648 29 18336275527093650226
21033650 10 14201381812323901211
21315764 119 5978388313808082393
21585482 111 18268146633709784221
22224240 67 18060419110251018987
22956985 138 13396976975423733168
23198884 109 14707211028632954051
23576562 1 15575577737996208352
3627633 1 17688593758029523558
397830 11 18129650920676783275
4073 2 18130784513155181962
4169191 19 18335701676503188361
4340502 62 16988846086016686810
437815 12 6988316132104804067
504843 32 17749113253682126983
5104073 3 17631462322047339131
5364581 5 17987227838215232225
5718773 13 9150907065923501612
5758199 1 17918273147320915058
6328613 192 18333731308014713161
6697151 62 17194353807062879815
9689198 14 18413384332793441802
9953998 17 17918268758692175833

> <PUBCHEM_SHAPE_MULTIPOLES>
507.5
24.21
2.52
0.89
1.24
0.17
0
14.2
3.63
1.84
-0.38
-1.02
0.05
0.4

> <PUBCHEM_SHAPE_SELFOVERLAP>
1097.261

> <PUBCHEM_SHAPE_VOLUME>
278.6

> <PUBCHEM_COORDINATE_TYPE>
2
5
10

$$$$

