5281668
  -OEChem-07051212582D

100105  0     1  0  0  0  0  0999 V2000
   10.0969   -1.5764    0.0000 O   0  0  0  0  0  0  0  0  0  0  0  0
    6.8671    1.0736    0.0000 O   0  0  0  0  0  0  0  0  0  0  0  0
   10.5331    1.5489    0.0000 O   0  0  0  0  0  0  0  0  0  0  0  0
    7.0771   -3.2736    0.0000 O   0  0  0  0  0  0  0  0  0  0  0  0
    8.6155    4.1081    0.0000 O   0  0  0  0  0  0  0  0  0  0  0  0
   11.1241   -2.0078    0.0000 O   0  0  0  0  0  0  0  0  0  0  0  0
   10.0568   -5.0402    0.0000 O   0  0  0  0  0  0  0  0  0  0  0  0
    6.8671    4.0736    0.0000 O   0  0  0  0  0  0  0  0  0  0  0  0
   13.3813    0.6199    0.0000 O   0  0  0  0  0  0  0  0  0  0  0  0
    4.2690    2.5736    0.0000 O   0  0  0  0  0  0  0  0  0  0  0  0
    2.5369   -0.4265    0.0000 O   0  0  0  0  0  0  0  0  0  0  0  0
    8.6070   -0.6930    0.0000 C   0  0  1  0  0  0  0  0  0  0  0  0
    8.0970   -1.5532    0.0000 C   0  0  1  0  0  0  0  0  0  0  0  0
    8.1171    0.1786    0.0000 C   0  0  2  0  0  0  0  0  0  0  0  0
    7.0972   -1.5417    0.0000 C   0  0  0  0  0  0  0  0  0  0  0  0
    6.6072   -0.6700    0.0000 C   0  0  0  0  0  0  0  0  0  0  0  0
    7.1171    0.1902    0.0000 C   0  0  0  0  0  0  0  0  0  0  0  0
    8.6270    1.0389    0.0000 C   0  0  0  0  0  0  0  0  0  0  0  0
    8.5870   -2.4250    0.0000 C   0  0  0  0  0  0  0  0  0  0  0  0
    9.6069   -0.7046    0.0000 C   0  0  0  0  0  0  0  0  0  0  0  0
    7.7331    1.5736    0.0000 C   0  0  0  0  0  0  0  0  0  0  0  0
    5.6072   -0.6584    0.0000 C   0  0  0  0  0  0  0  0  0  0  0  0
    9.5331    1.5527    0.0000 C   0  0  0  0  0  0  0  0  0  0  0  0
   10.5505   -0.3735    0.0000 C   0  0  0  0  0  0  0  0  0  0  0  0
    8.0770   -3.2852    0.0000 C   0  0  0  0  0  0  0  0  0  0  0  0
    9.5869   -2.4366    0.0000 C   0  0  0  0  0  0  0  0  0  0  0  0
    7.7331    2.5736    0.0000 C   0  0  0  0  0  0  0  0  0  0  0  0
    9.5331    2.5944    0.0000 C   0  0  0  0  0  0  0  0  0  0  0  0
    8.6270    3.1082    0.0000 C   0  0  0  0  0  0  0  0  0  0  0  0
   11.3091   -1.0251    0.0000 C   0  0  0  0  0  0  0  0  0  0  0  0
    8.5670   -4.1569    0.0000 C   0  0  0  0  0  0  0  0  0  0  0  0
   10.0769   -3.3083    0.0000 C   0  0  0  0  0  0  0  0  0  0  0  0
   10.7355    0.6093    0.0000 C   0  0  0  0  0  0  0  0  0  0  0  0
    6.8671    3.0736    0.0000 C   0  0  0  0  0  0  0  0  0  0  0  0
    9.5669   -4.1685    0.0000 C   0  0  0  0  0  0  0  0  0  0  0  0
    6.0010    1.5736    0.0000 C   0  0  0  0  0  0  0  0  0  0  0  0
    6.0010    2.5736    0.0000 C   0  0  0  0  0  0  0  0  0  0  0  0
   12.2527   -0.6940    0.0000 C   0  0  0  0  0  0  0  0  0  0  0  0
   11.6791    0.9404    0.0000 C   0  0  0  0  0  0  0  0  0  0  0  0
   12.4377    0.2888    0.0000 C   0  0  0  0  0  0  0  0  0  0  0  0
    5.1350    3.0736    0.0000 C   0  0  0  0  0  0  0  0  0  0  0  0
   13.0112   -1.3456    0.0000 C   0  0  0  0  0  0  0  0  0  0  0  0
    5.1350    1.0736    0.0000 C   0  0  0  0  0  0  0  0  0  0  0  0
    5.1350    4.0736    0.0000 C   0  0  0  0  0  0  0  0  0  0  0  0
    4.2690    1.5736    0.0000 C   0  0  0  0  0  0  0  0  0  0  0  0
   12.8262   -2.3283    0.0000 C   0  0  0  0  0  0  0  0  0  0  0  0
    5.1350    0.0735    0.0000 C   0  0  0  0  0  0  0  0  0  0  0  0
    4.2690    4.5736    0.0000 C   0  0  0  0  0  0  0  0  0  0  0  0
    3.4030    1.0736    0.0000 C   0  0  0  0  0  0  0  0  0  0  0  0
    4.2690   -0.4265    0.0000 C   0  0  0  0  0  0  0  0  0  0  0  0
   13.5848   -2.9799    0.0000 C   0  0  0  0  0  0  0  0  0  0  0  0
    3.4030    0.0735    0.0000 C   0  0  0  0  0  0  0  0  0  0  0  0
    4.2690    5.5736    0.0000 C   0  0  0  0  0  0  0  0  0  0  0  0
    3.4030    4.0736    0.0000 C   0  0  0  0  0  0  0  0  0  0  0  0
   14.5283   -2.6488    0.0000 C   0  0  0  0  0  0  0  0  0  0  0  0
   13.3997   -3.9626    0.0000 C   0  0  0  0  0  0  0  0  0  0  0  0
    8.9108   -1.2335    0.0000 H   0  0  0  0  0  0  0  0  0  0  0  0
    8.9470   -1.5631    0.0000 H   0  0  0  0  0  0  0  0  0  0  0  0
    8.9671    0.1688    0.0000 H   0  0  0  0  0  0  0  0  0  0  0  0
    6.5122   -1.7470    0.0000 H   0  0  0  0  0  0  0  0  0  0  0  0
    7.1978   -2.1535    0.0000 H   0  0  0  0  0  0  0  0  0  0  0  0
    6.8134    0.7307    0.0000 H   0  0  0  0  0  0  0  0  0  0  0  0
    5.6144   -0.0384    0.0000 H   0  0  0  0  0  0  0  0  0  0  0  0
    4.9873   -0.6512    0.0000 H   0  0  0  0  0  0  0  0  0  0  0  0
    5.6000   -1.2784    0.0000 H   0  0  0  0  0  0  0  0  0  0  0  0
    9.9031   -1.9032    0.0000 H   0  0  0  0  0  0  0  0  0  0  0  0
   10.0688    2.9064    0.0000 H   0  0  0  0  0  0  0  0  0  0  0  0
    8.2508   -4.6902    0.0000 H   0  0  0  0  0  0  0  0  0  0  0  0
   10.6968   -3.3155    0.0000 H   0  0  0  0  0  0  0  0  0  0  0  0
   10.2652    1.0132    0.0000 H   0  0  0  0  0  0  0  0  0  0  0  0
   10.8452    2.0846    0.0000 H   0  0  0  0  0  0  0  0  0  0  0  0
    6.7609   -3.8069    0.0000 H   0  0  0  0  0  0  0  0  0  0  0  0
   11.7938    1.5497    0.0000 H   0  0  0  0  0  0  0  0  0  0  0  0
    4.5244    3.1812    0.0000 H   0  0  0  0  0  0  0  0  0  0  0  0
    4.9230    2.4909    0.0000 H   0  0  0  0  0  0  0  0  0  0  0  0
   13.5913   -1.5643    0.0000 H   0  0  0  0  0  0  0  0  0  0  0  0
   13.3274   -0.8122    0.0000 H   0  0  0  0  0  0  0  0  0  0  0  0
    9.1488    4.4243    0.0000 H   0  0  0  0  0  0  0  0  0  0  0  0
   10.5390   -2.2131    0.0000 H   0  0  0  0  0  0  0  0  0  0  0  0
    9.7406   -5.5736    0.0000 H   0  0  0  0  0  0  0  0  0  0  0  0
    5.6720    4.3835    0.0000 H   0  0  0  0  0  0  0  0  0  0  0  0
   12.2412   -2.5336    0.0000 H   0  0  0  0  0  0  0  0  0  0  0  0
    5.6720   -0.2365    0.0000 H   0  0  0  0  0  0  0  0  0  0  0  0
   13.4960    1.2292    0.0000 H   0  0  0  0  0  0  0  0  0  0  0  0
    2.8660    1.3836    0.0000 H   0  0  0  0  0  0  0  0  0  0  0  0
    4.2690   -1.0465    0.0000 H   0  0  0  0  0  0  0  0  0  0  0  0
    3.7320    2.8836    0.0000 H   0  0  0  0  0  0  0  0  0  0  0  0
    4.8890    5.5736    0.0000 H   0  0  0  0  0  0  0  0  0  0  0  0
    4.2690    6.1936    0.0000 H   0  0  0  0  0  0  0  0  0  0  0  0
    3.6490    5.5736    0.0000 H   0  0  0  0  0  0  0  0  0  0  0  0
    3.0930    4.6105    0.0000 H   0  0  0  0  0  0  0  0  0  0  0  0
    2.8660    3.7636    0.0000 H   0  0  0  0  0  0  0  0  0  0  0  0
    3.7130    3.5366    0.0000 H   0  0  0  0  0  0  0  0  0  0  0  0
   14.7336   -3.2338    0.0000 H   0  0  0  0  0  0  0  0  0  0  0  0
   15.1134   -2.4435    0.0000 H   0  0  0  0  0  0  0  0  0  0  0  0
   14.3230   -2.0637    0.0000 H   0  0  0  0  0  0  0  0  0  0  0  0
   12.7904   -3.8479    0.0000 H   0  0  0  0  0  0  0  0  0  0  0  0
   13.2850   -4.5719    0.0000 H   0  0  0  0  0  0  0  0  0  0  0  0
   14.0090   -4.0773    0.0000 H   0  0  0  0  0  0  0  0  0  0  0  0
    2.0000   -0.1165    0.0000 H   0  0  0  0  0  0  0  0  0  0  0  0
  1 20  2  0  0  0  0
  2 21  1  0  0  0  0
  2 36  1  0  0  0  0
  3 23  1  0  0  0  0
  3 71  1  0  0  0  0
  4 25  1  0  0  0  0
  4 72  1  0  0  0  0
  5 29  1  0  0  0  0
  5 78  1  0  0  0  0
  6 30  1  0  0  0  0
  6 79  1  0  0  0  0
  7 35  1  0  0  0  0
  7 80  1  0  0  0  0
  8 34  2  0  0  0  0
  9 40  1  0  0  0  0
  9 84  1  0  0  0  0
 10 45  1  0  0  0  0
 10 87  1  0  0  0  0
 11 52  1  0  0  0  0
 11100  1  0  0  0  0
 12 13  1  0  0  0  0
 12 14  1  0  0  0  0
 12 20  1  1  0  0  0
 12 57  1  0  0  0  0
 13 15  1  0  0  0  0
 13 19  1  0  0  0  0
 13 58  1  1  0  0  0
 14 17  1  0  0  0  0
 14 18  1  0  0  0  0
 14 59  1  1  0  0  0
 15 16  1  0  0  0  0
 15 60  1  0  0  0  0
 15 61  1  0  0  0  0
 16 17  2  0  0  0  0
 16 22  1  0  0  0  0
 17 62  1  0  0  0  0
 18 21  1  0  0  0  0
 18 23  2  0  0  0  0
 19 25  2  0  0  0  0
 19 26  1  0  0  0  0
 20 24  1  0  0  0  0
 21 27  2  0  0  0  0
 22 63  1  0  0  0  0
 22 64  1  0  0  0  0
 22 65  1  0  0  0  0
 23 28  1  0  0  0  0
 24 30  2  0  0  0  0
 24 33  1  0  0  0  0
 25 31  1  0  0  0  0
 26 32  2  0  0  0  0
 26 66  1  0  0  0  0
 27 29  1  0  0  0  0
 27 34  1  0  0  0  0
 28 29  2  0  0  0  0
 28 67  1  0  0  0  0
 30 38  1  0  0  0  0
 31 35  2  0  0  0  0
 31 68  1  0  0  0  0
 32 35  1  0  0  0  0
 32 69  1  0  0  0  0
 33 39  2  0  0  0  0
 33 70  1  0  0  0  0
 34 37  1  0  0  0  0
 36 37  2  0  0  0  0
 36 43  1  0  0  0  0
 37 41  1  0  0  0  0
 38 40  2  0  0  0  0
 38 42  1  0  0  0  0
 39 40  1  0  0  0  0
 39 73  1  0  0  0  0
 41 44  1  0  0  0  0
 41 74  1  0  0  0  0
 41 75  1  0  0  0  0
 42 46  1  0  0  0  0
 42 76  1  0  0  0  0
 42 77  1  0  0  0  0
 43 45  2  0  0  0  0
 43 47  1  0  0  0  0
 44 48  2  0  0  0  0
 44 81  1  0  0  0  0
 45 49  1  0  0  0  0
 46 51  2  0  0  0  0
 46 82  1  0  0  0  0
 47 50  2  0  0  0  0
 47 83  1  0  0  0  0
 48 53  1  0  0  0  0
 48 54  1  0  0  0  0
 49 52  2  0  0  0  0
 49 85  1  0  0  0  0
 50 52  1  0  0  0  0
 50 86  1  0  0  0  0
 51 55  1  0  0  0  0
 51 56  1  0  0  0  0
 53 88  1  0  0  0  0
 53 89  1  0  0  0  0
 53 90  1  0  0  0  0
 54 91  1  0  0  0  0
 54 92  1  0  0  0  0
 54 93  1  0  0  0  0
 55 94  1  0  0  0  0
 55 95  1  0  0  0  0
 55 96  1  0  0  0  0
 56 97  1  0  0  0  0
 56 98  1  0  0  0  0
 56 99  1  0  0  0  0
M  END
> <PUBCHEM_COMPOUND_CID>
5281668

> <PUBCHEM_COMPOUND_CANONICALIZED>
1

> <PUBCHEM_CACTVS_COMPLEXITY>
1560

> <PUBCHEM_CACTVS_HBOND_ACCEPTOR>
11

> <PUBCHEM_CACTVS_HBOND_DONOR>
8

> <PUBCHEM_CACTVS_ROTATABLE_BOND>
9

> <PUBCHEM_CACTVS_SUBSKEYS>
AAADcfB8PAAAAAAAAAAAAAAAAAAAAAAAAAAwYMGCAAAAAACBVAAAGgAACAAADQSAmAAyBoAABgCIAqBSAAACCAAkIAAIiAEGCMgMJzaGNRqCeWCl4BUIuYeI7PzOoAACCAAIAABAAAQQABAAAAAAAAAAAA==

> <PUBCHEM_IUPAC_OPENEYE_NAME>
8-[(1S,5R,6S)-6-[2,4-dihydroxy-3-(3-methylbut-2-enyl)benzoyl]-5-(2,4-dihydroxyphenyl)-3-methyl-cyclohex-2-en-1-yl]-2-(2,4-dihydroxyphenyl)-5,7-dihydroxy-3-(3-methylbut-2-enyl)chromen-4-one

> <PUBCHEM_IUPAC_CAS_NAME>
8-[(1S,5R,6S)-6-[[2,4-dihydroxy-3-(3-methylbut-2-enyl)phenyl]-oxomethyl]-5-(2,4-dihydroxyphenyl)-3-methyl-1-cyclohex-2-enyl]-2-(2,4-dihydroxyphenyl)-5,7-dihydroxy-3-(3-methylbut-2-enyl)-1-benzopyran-4-one

> <PUBCHEM_IUPAC_NAME>
8-[(1S,5R,6S)-6-[2,4-dihydroxy-3-(3-methylbut-2-enyl)benzoyl]-5-(2,4-dihydroxyphenyl)-3-methylcyclohex-2-en-1-yl]-2-(2,4-dihydroxyphenyl)-5,7-dihydroxy-3-(3-methylbut-2-enyl)chromen-4-one

> <PUBCHEM_IUPAC_SYSTEMATIC_NAME>
2-[2,4-bis(oxidanyl)phenyl]-8-[(1S,5R,6S)-5-[2,4-bis(oxidanyl)phenyl]-3-methyl-6-[3-(3-methylbut-2-enyl)-2,4-bis(oxidanyl)phenyl]carbonyl-cyclohex-2-en-1-yl]-3-(3-methylbut-2-enyl)-5,7-bis(oxidanyl)chromen-4-one

> <PUBCHEM_IUPAC_TRADITIONAL_NAME>
8-[(1S,5R,6S)-6-[2,4-dihydroxy-3-(3-methylbut-2-enyl)benzoyl]-5-(2,4-dihydroxyphenyl)-3-methyl-cyclohex-2-en-1-yl]-2-(2,4-dihydroxyphenyl)-5,7-dihydroxy-3-(3-methylbut-2-enyl)chromone

> <PUBCHEM_IUPAC_INCHI>
InChI=1S/C45H44O11/c1-21(2)6-10-27-33(48)15-14-29(41(27)53)42(54)38-31(26-12-8-24(46)18-34(26)49)16-23(5)17-32(38)39-36(51)20-37(52)40-43(55)30(11-7-22(3)4)44(56-45(39)40)28-13-9-25(47)19-35(28)50/h6-9,12-15,17-20,31-32,38,46-53H,10-11,16H2,1-5H3/t31-,32-,38-/m0/s1

> <PUBCHEM_IUPAC_INCHIKEY>
DKBPTKFKCCNXNH-QXGWMLRCSA-N

> <PUBCHEM_XLOGP3_AA>
9.2

> <PUBCHEM_EXACT_MASS>
760.288362

> <PUBCHEM_MOLECULAR_FORMULA>
C45H44O11

> <PUBCHEM_MOLECULAR_WEIGHT>
760.82426

> <PUBCHEM_OPENEYE_CAN_SMILES>
CC1=CC(C(C(C1)C2=C(C=C(C=C2)O)O)C(=O)C3=C(C(=C(C=C3)O)CC=C(C)C)O)C4=C(C=C(C5=C4OC(=C(C5=O)CC=C(C)C)C6=C(C=C(C=C6)O)O)O)O

> <PUBCHEM_OPENEYE_ISO_SMILES>
CC1=C[C@@H]([C@H]([C@@H](C1)C2=C(C=C(C=C2)O)O)C(=O)C3=C(C(=C(C=C3)O)CC=C(C)C)O)C4=C(C=C(C5=C4OC(=C(C5=O)CC=C(C)C)C6=C(C=C(C=C6)O)O)O)O

> <PUBCHEM_CACTVS_TPSA>
205

> <PUBCHEM_MONOISOTOPIC_WEIGHT>
760.288362

> <PUBCHEM_TOTAL_CHARGE>
0

> <PUBCHEM_HEAVY_ATOM_COUNT>
56

> <PUBCHEM_ATOM_DEF_STEREO_COUNT>
3

> <PUBCHEM_ATOM_UDEF_STEREO_COUNT>
0

> <PUBCHEM_BOND_DEF_STEREO_COUNT>
0

> <PUBCHEM_BOND_UDEF_STEREO_COUNT>
0

> <PUBCHEM_ISOTOPIC_ATOM_COUNT>
0

> <PUBCHEM_COMPONENT_COUNT>
1

> <PUBCHEM_CACTVS_TAUTO_COUNT>
986

> <PUBCHEM_COORDINATE_TYPE>
1
5
255

> <PUBCHEM_BONDANNOTATIONS>
12  20  5
13  58  5
14  59  5
18  21  8
18  23  8
19  25  8
19  26  8
2  21  8
2  36  8
21  27  8
23  28  8
24  30  8
24  33  8
25  31  8
26  32  8
27  29  8
27  34  8
28  29  8
30  38  8
31  35  8
32  35  8
33  39  8
34  37  8
36  37  8
38  40  8
39  40  8
43  45  8
43  47  8
45  49  8
47  50  8
49  52  8
50  52  8

$$$$

