443168
  -OEChem-07051213012D

 28 28  0     1  0  0  0  0  0999 V2000
    3.9311   -1.8641    0.0000 O   0  0  0  0  0  0  0  0  0  0  0  0
    2.2483   -2.0537    0.0000 O   0  0  0  0  0  0  0  0  0  0  0  0
    3.4311    0.3265    0.0000 C   0  0  2  0  0  0  0  0  0  0  0  0
    4.4311    0.3265    0.0000 C   0  0  0  0  0  0  0  0  0  0  0  0
    5.0546   -0.4553    0.0000 C   0  0  0  0  0  0  0  0  0  0  0  0
    4.8321   -1.4302    0.0000 C   0  0  1  0  0  0  0  0  0  0  0  0
    2.8076   -0.4553    0.0000 C   0  0  0  0  0  0  0  0  0  0  0  0
    2.9972    1.2275    0.0000 C   0  0  0  0  0  0  0  0  0  0  0  0
    3.0301   -1.4302    0.0000 C   0  0  0  0  0  0  0  0  0  0  0  0
    5.6139   -2.0537    0.0000 C   0  0  0  0  0  0  0  0  0  0  0  0
    3.5605    2.0537    0.0000 C   0  0  0  0  0  0  0  0  0  0  0  0
    2.0000    1.3022    0.0000 C   0  0  0  0  0  0  0  0  0  0  0  0
    2.8150    0.3959    0.0000 H   0  0  0  0  0  0  0  0  0  0  0  0
    4.9897    0.5955    0.0000 H   0  0  0  0  0  0  0  0  0  0  0  0
    4.2931    0.9310    0.0000 H   0  0  0  0  0  0  0  0  0  0  0  0
    5.6132   -0.7243    0.0000 H   0  0  0  0  0  0  0  0  0  0  0  0
    5.4411    0.0294    0.0000 H   0  0  0  0  0  0  0  0  0  0  0  0
    4.7626   -2.0463    0.0000 H   0  0  0  0  0  0  0  0  0  0  0  0
    2.4210    0.0294    0.0000 H   0  0  0  0  0  0  0  0  0  0  0  0
    2.2490   -0.7243    0.0000 H   0  0  0  0  0  0  0  0  0  0  0  0
    5.2273   -2.5385    0.0000 H   0  0  0  0  0  0  0  0  0  0  0  0
    6.0986   -2.4403    0.0000 H   0  0  0  0  0  0  0  0  0  0  0  0
    6.0004   -1.5690    0.0000 H   0  0  0  0  0  0  0  0  0  0  0  0
    4.0728    1.7045    0.0000 H   0  0  0  0  0  0  0  0  0  0  0  0
    3.9098    2.5660    0.0000 H   0  0  0  0  0  0  0  0  0  0  0  0
    3.0483    2.4030    0.0000 H   0  0  0  0  0  0  0  0  0  0  0  0
    1.7310    1.8608    0.0000 H   0  0  0  0  0  0  0  0  0  0  0  0
    1.6507    0.7900    0.0000 H   0  0  0  0  0  0  0  0  0  0  0  0
  1  6  1  0  0  0  0
  1  9  1  0  0  0  0
  2  9  2  0  0  0  0
  3  4  1  0  0  0  0
  3  7  1  0  0  0  0
  3  8  1  6  0  0  0
  3 13  1  0  0  0  0
  4  5  1  0  0  0  0
  4 14  1  0  0  0  0
  4 15  1  0  0  0  0
  5  6  1  0  0  0  0
  5 16  1  0  0  0  0
  5 17  1  0  0  0  0
  6 10  1  1  0  0  0
  6 18  1  0  0  0  0
  7  9  1  0  0  0  0
  7 19  1  0  0  0  0
  7 20  1  0  0  0  0
  8 11  1  0  0  0  0
  8 12  2  0  0  0  0
 10 21  1  0  0  0  0
 10 22  1  0  0  0  0
 10 23  1  0  0  0  0
 11 24  1  0  0  0  0
 11 25  1  0  0  0  0
 11 26  1  0  0  0  0
 12 27  1  0  0  0  0
 12 28  1  0  0  0  0
M  END
> <PUBCHEM_COMPOUND_CID>
443168

> <PUBCHEM_COMPOUND_CANONICALIZED>
1

> <PUBCHEM_CACTVS_COMPLEXITY>
196

> <PUBCHEM_CACTVS_HBOND_ACCEPTOR>
2

> <PUBCHEM_CACTVS_HBOND_DONOR>
0

> <PUBCHEM_CACTVS_ROTATABLE_BOND>
1

> <PUBCHEM_CACTVS_SUBSKEYS>
AAADceBwMAAAAAAAAAAAAAAAAAAAAAAAAAAAAAAABIAAAAAAAAAAGgAAAAAADRSggAICCAAABACIAgDSCAAAAAAgAAAAAAEAAAgAABIAAQACAAAEgAAAAAGIyCCOAAAAAAAAAAAAAAAAAAAAAAAAAAAAAA==

> <PUBCHEM_IUPAC_OPENEYE_NAME>
(4R,7R)-4-isopropenyl-7-methyl-oxepan-2-one

> <PUBCHEM_IUPAC_CAS_NAME>
(4R,7R)-7-methyl-4-(1-methylethenyl)-2-oxepanone

> <PUBCHEM_IUPAC_NAME>
(4R,7R)-7-methyl-4-prop-1-en-2-yloxepan-2-one

> <PUBCHEM_IUPAC_SYSTEMATIC_NAME>
(4R,7R)-7-methyl-4-prop-1-en-2-yl-oxepan-2-one

> <PUBCHEM_IUPAC_TRADITIONAL_NAME>
(4R,7R)-4-isopropenyl-7-methyl-oxepan-2-one

> <PUBCHEM_IUPAC_INCHI>
InChI=1S/C10H16O2/c1-7(2)9-5-4-8(3)12-10(11)6-9/h8-9H,1,4-6H2,2-3H3/t8-,9-/m1/s1

> <PUBCHEM_IUPAC_INCHIKEY>
DNWZWUWUDAGNJB-RKDXNWHRSA-N

> <PUBCHEM_XLOGP3_AA>
2.5

> <PUBCHEM_EXACT_MASS>
168.11503

> <PUBCHEM_MOLECULAR_FORMULA>
C10H16O2

> <PUBCHEM_MOLECULAR_WEIGHT>
168.23284

> <PUBCHEM_OPENEYE_CAN_SMILES>
CC1CCC(CC(=O)O1)C(=C)C

> <PUBCHEM_OPENEYE_ISO_SMILES>
C[C@@H]1CC[C@H](CC(=O)O1)C(=C)C

> <PUBCHEM_CACTVS_TPSA>
26.3

> <PUBCHEM_MONOISOTOPIC_WEIGHT>
168.11503

> <PUBCHEM_TOTAL_CHARGE>
0

> <PUBCHEM_HEAVY_ATOM_COUNT>
12

> <PUBCHEM_ATOM_DEF_STEREO_COUNT>
2

> <PUBCHEM_ATOM_UDEF_STEREO_COUNT>
0

> <PUBCHEM_BOND_DEF_STEREO_COUNT>
0

> <PUBCHEM_BOND_UDEF_STEREO_COUNT>
0

> <PUBCHEM_ISOTOPIC_ATOM_COUNT>
0

> <PUBCHEM_COMPONENT_COUNT>
1

> <PUBCHEM_CACTVS_TAUTO_COUNT>
2

> <PUBCHEM_COORDINATE_TYPE>
1
5
255

> <PUBCHEM_BONDANNOTATIONS>
3  8  6
6  10  5

$$$$

