11954149
  -OEChem-07051213073D

 47 50  0     1  0  0  0  0  0999 V2000
   -5.1239    1.1660    0.3187 O   0  0  0  0  0  0  0  0  0  0  0  0
    5.5572   -0.0479    0.9995 O   0  0  0  0  0  0  0  0  0  0  0  0
   -2.0255   -0.7580    0.3387 C   0  0  2  0  0  0  0  0  0  0  0  0
   -2.7471    0.5706    0.0607 C   0  0  1  0  0  0  0  0  0  0  0  0
   -0.6460   -0.8299   -0.3334 C   0  0  1  0  0  0  0  0  0  0  0  0
   -4.1022    0.2785    0.7292 C   0  0  2  0  0  0  0  0  0  0  0  0
   -3.0608   -1.8205   -0.0269 C   0  0  0  0  0  0  0  0  0  0  0  0
    0.1580    0.4627   -0.0991 C   0  0  0  0  0  0  0  0  0  0  0  0
   -1.9253    1.6809    0.7287 C   0  0  0  0  0  0  0  0  0  0  0  0
    1.6564    0.4332   -0.5169 C   0  0  2  0  0  0  0  0  0  0  0  0
   -4.4116   -1.1746    0.3265 C   0  0  0  0  0  0  0  0  0  0  0  0
    0.1149   -2.0581    0.1831 C   0  0  0  0  0  0  0  0  0  0  0  0
   -0.4532    1.5637    0.4024 C   0  0  0  0  0  0  0  0  0  0  0  0
   -2.9290    0.8953   -1.4440 C   0  0  0  0  0  0  0  0  0  0  0  0
    1.4923   -2.1581   -0.4524 C   0  0  0  0  0  0  0  0  0  0  0  0
    2.3063   -0.9172   -0.1776 C   0  0  0  0  0  0  0  0  0  0  0  0
    2.4652    1.5762    0.1686 C   0  0  0  0  0  0  0  0  0  0  0  0
    1.7142    0.6335   -2.0501 C   0  0  0  0  0  0  0  0  0  0  0  0
    3.9733    1.4489    0.0115 C   0  0  0  0  0  0  0  0  0  0  0  0
    3.5463   -1.0548    0.3225 C   0  0  0  0  0  0  0  0  0  0  0  0
    4.4404    0.1093    0.5102 C   0  0  0  0  0  0  0  0  0  0  0  0
   -1.8677   -0.8414    1.4278 H   0  0  0  0  0  0  0  0  0  0  0  0
   -0.7829   -0.9472   -1.4165 H   0  0  0  0  0  0  0  0  0  0  0  0
   -4.0210    0.3442    1.8210 H   0  0  0  0  0  0  0  0  0  0  0  0
   -2.9053   -2.7502    0.5297 H   0  0  0  0  0  0  0  0  0  0  0  0
   -3.0259   -2.0643   -1.0947 H   0  0  0  0  0  0  0  0  0  0  0  0
   -2.0319    1.6493    1.8201 H   0  0  0  0  0  0  0  0  0  0  0  0
   -2.2903    2.6640    0.4079 H   0  0  0  0  0  0  0  0  0  0  0  0
   -5.1030   -1.2366   -0.5213 H   0  0  0  0  0  0  0  0  0  0  0  0
   -4.8888   -1.7016    1.1604 H   0  0  0  0  0  0  0  0  0  0  0  0
   -0.4463   -2.9715   -0.0478 H   0  0  0  0  0  0  0  0  0  0  0  0
    0.2157   -2.0150    1.2760 H   0  0  0  0  0  0  0  0  0  0  0  0
    0.1042    2.4794    0.5704 H   0  0  0  0  0  0  0  0  0  0  0  0
   -3.4627    1.8437   -1.5756 H   0  0  0  0  0  0  0  0  0  0  0  0
   -1.9734    1.0016   -1.9668 H   0  0  0  0  0  0  0  0  0  0  0  0
   -3.4990    0.1237   -1.9710 H   0  0  0  0  0  0  0  0  0  0  0  0
    1.3954   -2.2951   -1.5363 H   0  0  0  0  0  0  0  0  0  0  0  0
    1.9912   -3.0576   -0.0713 H   0  0  0  0  0  0  0  0  0  0  0  0
    2.2415    1.5868    1.2455 H   0  0  0  0  0  0  0  0  0  0  0  0
    2.1671    2.5550   -0.2284 H   0  0  0  0  0  0  0  0  0  0  0  0
    1.3271    1.6196   -2.3337 H   0  0  0  0  0  0  0  0  0  0  0  0
    2.7380    0.5587   -2.4335 H   0  0  0  0  0  0  0  0  0  0  0  0
    1.1195   -0.1130   -2.5889 H   0  0  0  0  0  0  0  0  0  0  0  0
   -5.3688    0.9600   -0.5987 H   0  0  0  0  0  0  0  0  0  0  0  0
    4.4619    2.2298    0.6049 H   0  0  0  0  0  0  0  0  0  0  0  0
    4.2878    1.5672   -1.0299 H   0  0  0  0  0  0  0  0  0  0  0  0
    3.9633   -2.0281    0.5594 H   0  0  0  0  0  0  0  0  0  0  0  0
  1  6  1  0  0  0  0
  1 44  1  0  0  0  0
  2 21  2  0  0  0  0
  3  4  1  0  0  0  0
  3  5  1  0  0  0  0
  3  7  1  0  0  0  0
  3 22  1  0  0  0  0
  4  6  1  0  0  0  0
  4  9  1  0  0  0  0
  4 14  1  0  0  0  0
  5  8  1  0  0  0  0
  5 12  1  0  0  0  0
  5 23  1  0  0  0  0
  6 11  1  0  0  0  0
  6 24  1  0  0  0  0
  7 11  1  0  0  0  0
  7 25  1  0  0  0  0
  7 26  1  0  0  0  0
  8 10  1  0  0  0  0
  8 13  2  0  0  0  0
  9 13  1  0  0  0  0
  9 27  1  0  0  0  0
  9 28  1  0  0  0  0
 10 16  1  0  0  0  0
 10 17  1  0  0  0  0
 10 18  1  0  0  0  0
 11 29  1  0  0  0  0
 11 30  1  0  0  0  0
 12 15  1  0  0  0  0
 12 31  1  0  0  0  0
 12 32  1  0  0  0  0
 13 33  1  0  0  0  0
 14 34  1  0  0  0  0
 14 35  1  0  0  0  0
 14 36  1  0  0  0  0
 15 16  1  0  0  0  0
 15 37  1  0  0  0  0
 15 38  1  0  0  0  0
 16 20  2  0  0  0  0
 17 19  1  0  0  0  0
 17 39  1  0  0  0  0
 17 40  1  0  0  0  0
 18 41  1  0  0  0  0
 18 42  1  0  0  0  0
 18 43  1  0  0  0  0
 19 21  1  0  0  0  0
 19 45  1  0  0  0  0
 19 46  1  0  0  0  0
 20 21  1  0  0  0  0
 20 47  1  0  0  0  0
M  END
> <PUBCHEM_COMPOUND_CID>
11954149

> <PUBCHEM_CONFORMER_RMSD>
0.6

> <PUBCHEM_CONFORMER_DIVERSEORDER>
1

> <PUBCHEM_MMFF94_PARTIAL_CHARGES>
16
1 -0.68
10 0.28
13 -0.29
15 0.14
16 -0.28
19 0.06
2 -0.57
20 -0.14
21 0.49
33 0.15
44 0.4
47 0.15
5 0.14
6 0.28
8 -0.28
9 0.14

> <PUBCHEM_EFFECTIVE_ROTOR_COUNT>
1.6

> <PUBCHEM_PHARMACOPHORE_FEATURES>
7
1 1 acceptor
1 1 donor
1 2 acceptor
5 3 4 6 7 11 rings
6 10 16 17 19 20 21 rings
6 3 4 5 8 9 13 rings
6 5 8 10 12 15 16 rings

> <PUBCHEM_HEAVY_ATOM_COUNT>
21

> <PUBCHEM_ATOM_DEF_STEREO_COUNT>
5

> <PUBCHEM_ATOM_UDEF_STEREO_COUNT>
0

> <PUBCHEM_BOND_DEF_STEREO_COUNT>
0

> <PUBCHEM_BOND_UDEF_STEREO_COUNT>
0

> <PUBCHEM_ISOTOPIC_ATOM_COUNT>
0

> <PUBCHEM_COMPONENT_COUNT>
1

> <PUBCHEM_CACTVS_TAUTO_COUNT>
5

> <PUBCHEM_CONFORMER_ID>
00B667E500000001

> <PUBCHEM_MMFF94_ENERGY>
59.4122

> <PUBCHEM_FEATURE_SELFOVERLAP>
35.623

> <PUBCHEM_SHAPE_FINGERPRINT>
10062212 137 18411986827871627467
10759866 29 17914886544523423180
10967382 1 18408881862547258666
11132069 177 18410285922037968691
11370993 70 18412550941454932007
12011746 2 18408882958528725862
12236239 1 18131631167130596296
12251169 10 18412547604871920066
12403259 415 18413394228540990804
12403260 363 18337959965226013093
12403814 3 17989204837657874509
12507557 5 18411986853467273592
128620 24 17022618675989069349
13140716 1 18337110038474430176
13214271 11 18113900455500610311
13224815 77 18335414660269137823
13675066 3 18201714055122016435
14178342 30 18338507646655450513
14223421 5 18263923404966588374
14289901 80 15502369058552617401
14341114 176 18408318917400585762
14341114 328 18187358801118563752
14787075 74 18337957770561262290
15196674 1 18409728443535259483
15375358 24 18040430006037446021
15536298 74 18261105318173721910
15788980 27 17418377986671057549
16945 1 18266173018547032871
17349148 13 18273215279054222394
17492 89 18410572920074512739
17862501 102 18412548704088174914
17980427 23 18342175518729892916
1813 80 17203327849580558862
18186145 218 18410569595816220260
19050596 39 18410571773269700025
19784866 9 18410292527402160771
200 152 18260275135713586391
20715895 44 18127416872311442557
21033648 29 18199487556998270636
21267235 1 18410565171973927610
21421861 104 18057325191545586722
21637258 2 15410629098930019616
22854114 111 18412821378365640047
23402539 116 18186809053773096245
23419403 2 16467343498545122585
23557571 272 17822567214127167095
23559900 14 18261671567047089910
26918003 58 18411421717327934929
2838139 119 15430618138781945288
296302 2 16877662361517997415
335352 9 18337388343733653926
34934 24 18333734654311071187
350125 39 18411136918637653472
351380 180 18334296461486570456
3545911 37 18409164437014485067
42 15 18201719544011079904
4340502 62 18342729750585245307
5104073 3 18411417276236643649
633830 44 18040711455128581468
69090 78 18410577257932647323
7364860 26 18188765188370850054
9709674 26 18409721872325409031

> <PUBCHEM_SHAPE_MULTIPOLES>
420.43
9.35
2.06
1.08
0.94
0.5
0.48
-0.86
-2.34
-0.22
-0.06
0.19
-0.25
-0.05

> <PUBCHEM_SHAPE_SELFOVERLAP>
909.876

> <PUBCHEM_SHAPE_VOLUME>
228.3

> <PUBCHEM_COORDINATE_TYPE>
2
5
10

$$$$

