441830
  -OEChem-07051212562D

 81 84  0     1  0  0  0  0  0999 V2000
    7.9174   -2.6228    0.0000 O   0  0  0  0  0  0  0  0  0  0  0  0
   10.1248    0.3218    0.0000 O   0  0  0  0  0  0  0  0  0  0  0  0
    2.5405   -1.5835    0.0000 O   0  0  0  0  0  0  0  0  0  0  0  0
    8.8172    2.3273    0.0000 O   0  0  0  0  0  0  0  0  0  0  0  0
    6.1733   -4.6920    0.0000 O   0  0  0  0  0  0  0  0  0  0  0  0
    2.5244   -3.6751    0.0000 O   0  0  0  0  0  0  0  0  0  0  0  0
   13.0418    4.1027    0.0000 O   0  0  0  0  0  0  0  0  0  0  0  0
    7.9174   -0.6228    0.0000 C   0  0  1  0  0  0  0  0  0  0  0  0
    7.9174   -1.6228    0.0000 C   0  0  1  0  0  0  0  0  0  0  0  0
    8.8637   -0.3180    0.0000 C   0  0  2  0  0  0  0  0  0  0  0  0
    6.1854   -1.6228    0.0000 C   0  0  2  0  0  0  0  0  0  0  0  0
    5.2754   -2.1296    0.0000 C   0  0  2  0  0  0  0  0  0  0  0  0
    7.0514   -0.1228    0.0000 C   0  0  0  0  0  0  0  0  0  0  0  0
    7.0514   -2.1228    0.0000 C   0  0  0  0  0  0  0  0  0  0  0  0
    8.8637   -1.9275    0.0000 C   0  0  0  0  0  0  0  0  0  0  0  0
    9.4473   -1.1228    0.0000 C   0  0  0  0  0  0  0  0  0  0  0  0
    6.1854   -0.6228    0.0000 C   0  0  0  0  0  0  0  0  0  0  0  0
    5.2674   -3.1712    0.0000 C   0  0  1  0  0  0  0  0  0  0  0  0
    9.1743    0.6325    0.0000 C   0  0  2  0  0  0  0  0  0  0  0  0
    7.9174    0.3772    0.0000 C   0  0  0  0  0  0  0  0  0  0  0  0
    4.3486   -1.5655    0.0000 C   0  0  0  0  0  0  0  0  0  0  0  0
    7.0675   -3.1643    0.0000 C   0  0  0  0  0  0  0  0  0  0  0  0
    4.3319   -3.7209    0.0000 C   0  0  0  0  0  0  0  0  0  0  0  0
    5.2831   -1.1296    0.0000 C   0  0  0  0  0  0  0  0  0  0  0  0
    6.1694   -3.6920    0.0000 C   0  0  0  0  0  0  0  0  0  0  0  0
    3.4007   -2.0935    0.0000 C   0  0  1  0  0  0  0  0  0  0  0  0
    9.4850    1.5830    0.0000 C   0  0  1  0  0  0  0  0  0  0  0  0
    3.3923   -3.1784    0.0000 C   0  0  2  0  0  0  0  0  0  0  0  0
    8.2238    0.9431    0.0000 C   0  0  0  0  0  0  0  0  0  0  0  0
   10.4635    1.7892    0.0000 C   0  0  0  0  0  0  0  0  0  0  0  0
   10.7742    2.7397    0.0000 C   0  0  2  0  0  0  0  0  0  0  0  0
   11.7527    2.9460    0.0000 C   0  0  3  0  0  0  0  0  0  0  0  0
   10.1063    3.4840    0.0000 C   0  0  0  0  0  0  0  0  0  0  0  0
   12.0633    3.8965    0.0000 C   0  0  0  0  0  0  0  0  0  0  0  0
   12.4205    2.2017    0.0000 C   0  0  0  0  0  0  0  0  0  0  0  0
    9.7034   -0.1862    0.0000 H   0  0  0  0  0  0  0  0  0  0  0  0
    6.9215   -1.1978    0.0000 H   0  0  0  0  0  0  0  0  0  0  0  0
    7.4500    0.3522    0.0000 H   0  0  0  0  0  0  0  0  0  0  0  0
    6.6529    0.3522    0.0000 H   0  0  0  0  0  0  0  0  0  0  0  0
    8.6126   -2.4944    0.0000 H   0  0  0  0  0  0  0  0  0  0  0  0
    9.4010   -2.2367    0.0000 H   0  0  0  0  0  0  0  0  0  0  0  0
    9.9081   -1.5375    0.0000 H   0  0  0  0  0  0  0  0  0  0  0  0
    9.9081   -0.7080    0.0000 H   0  0  0  0  0  0  0  0  0  0  0  0
    5.9733   -0.0402    0.0000 H   0  0  0  0  0  0  0  0  0  0  0  0
    5.5748   -0.7304    0.0000 H   0  0  0  0  0  0  0  0  0  0  0  0
    5.2706   -4.0212    0.0000 H   0  0  0  0  0  0  0  0  0  0  0  0
    8.5374    0.3772    0.0000 H   0  0  0  0  0  0  0  0  0  0  0  0
    7.9174    0.9972    0.0000 H   0  0  0  0  0  0  0  0  0  0  0  0
    7.2974    0.3772    0.0000 H   0  0  0  0  0  0  0  0  0  0  0  0
    4.7568   -1.0989    0.0000 H   0  0  0  0  0  0  0  0  0  0  0  0
    3.9586   -1.0835    0.0000 H   0  0  0  0  0  0  0  0  0  0  0  0
    7.6080   -3.4680    0.0000 H   0  0  0  0  0  0  0  0  0  0  0  0
    3.9346   -4.1969    0.0000 H   0  0  0  0  0  0  0  0  0  0  0  0
    4.7329   -4.1938    0.0000 H   0  0  0  0  0  0  0  0  0  0  0  0
    5.9031   -1.1344    0.0000 H   0  0  0  0  0  0  0  0  0  0  0  0
    5.2879   -0.5097    0.0000 H   0  0  0  0  0  0  0  0  0  0  0  0
    4.6631   -1.1249    0.0000 H   0  0  0  0  0  0  0  0  0  0  0  0
    3.4090   -1.4735    0.0000 H   0  0  0  0  0  0  0  0  0  0  0  0
    8.4544   -2.9328    0.0000 H   0  0  0  0  0  0  0  0  0  0  0  0
    8.8783    1.4552    0.0000 H   0  0  0  0  0  0  0  0  0  0  0  0
    2.8572   -2.8653    0.0000 H   0  0  0  0  0  0  0  0  0  0  0  0
    8.4164    1.5325    0.0000 H   0  0  0  0  0  0  0  0  0  0  0  0
    7.6345    1.1358    0.0000 H   0  0  0  0  0  0  0  0  0  0  0  0
    8.0312    0.3538    0.0000 H   0  0  0  0  0  0  0  0  0  0  0  0
   10.5863    0.7359    0.0000 H   0  0  0  0  0  0  0  0  0  0  0  0
   10.4841    1.1696    0.0000 H   0  0  0  0  0  0  0  0  0  0  0  0
   11.0773    1.7019    0.0000 H   0  0  0  0  0  0  0  0  0  0  0  0
   10.9668    3.3291    0.0000 H   0  0  0  0  0  0  0  0  0  0  0  0
    2.0000   -1.8873    0.0000 H   0  0  0  0  0  0  0  0  0  0  0  0
    9.0098    2.9166    0.0000 H   0  0  0  0  0  0  0  0  0  0  0  0
    2.5220   -4.2951    0.0000 H   0  0  0  0  0  0  0  0  0  0  0  0
   11.4886    2.1380    0.0000 H   0  0  0  0  0  0  0  0  0  0  0  0
   10.5678    3.8981    0.0000 H   0  0  0  0  0  0  0  0  0  0  0  0
    9.6922    3.9455    0.0000 H   0  0  0  0  0  0  0  0  0  0  0  0
    9.6448    3.0700    0.0000 H   0  0  0  0  0  0  0  0  0  0  0  0
   12.0428    4.5161    0.0000 H   0  0  0  0  0  0  0  0  0  0  0  0
   11.4495    3.9838    0.0000 H   0  0  0  0  0  0  0  0  0  0  0  0
   11.9590    1.7876    0.0000 H   0  0  0  0  0  0  0  0  0  0  0  0
   12.8346    1.7402    0.0000 H   0  0  0  0  0  0  0  0  0  0  0  0
   12.8820    2.6157    0.0000 H   0  0  0  0  0  0  0  0  0  0  0  0
   13.2344    4.6920    0.0000 H   0  0  0  0  0  0  0  0  0  0  0  0
  9  1  1  6  0  0  0
  1 59  1  0  0  0  0
 19  2  1  1  0  0  0
  2 65  1  0  0  0  0
 26  3  1  1  0  0  0
  3 69  1  0  0  0  0
 27  4  1  6  0  0  0
  4 70  1  0  0  0  0
  5 25  2  0  0  0  0
 28  6  1  1  0  0  0
  6 71  1  0  0  0  0
  7 34  1  0  0  0  0
  7 81  1  0  0  0  0
  8  9  1  0  0  0  0
  8 10  1  0  0  0  0
  8 13  1  0  0  0  0
  8 20  1  1  0  0  0
  9 14  1  0  0  0  0
  9 15  1  0  0  0  0
 10 16  1  0  0  0  0
 10 19  1  0  0  0  0
 10 36  1  6  0  0  0
 11 12  1  0  0  0  0
 11 14  1  0  0  0  0
 11 17  1  0  0  0  0
 11 37  1  6  0  0  0
 12 18  1  0  0  0  0
 12 21  1  0  0  0  0
 12 24  1  1  0  0  0
 13 17  1  0  0  0  0
 13 38  1  0  0  0  0
 13 39  1  0  0  0  0
 14 22  2  0  0  0  0
 15 16  1  0  0  0  0
 15 40  1  0  0  0  0
 15 41  1  0  0  0  0
 16 42  1  0  0  0  0
 16 43  1  0  0  0  0
 17 44  1  0  0  0  0
 17 45  1  0  0  0  0
 18 23  1  0  0  0  0
 18 25  1  0  0  0  0
 18 46  1  1  0  0  0
 19 27  1  0  0  0  0
 19 29  1  0  0  0  0
 20 47  1  0  0  0  0
 20 48  1  0  0  0  0
 20 49  1  0  0  0  0
 21 26  1  0  0  0  0
 21 50  1  0  0  0  0
 21 51  1  0  0  0  0
 22 25  1  0  0  0  0
 22 52  1  0  0  0  0
 23 28  1  0  0  0  0
 23 53  1  0  0  0  0
 23 54  1  0  0  0  0
 24 55  1  0  0  0  0
 24 56  1  0  0  0  0
 24 57  1  0  0  0  0
 26 28  1  0  0  0  0
 26 58  1  0  0  0  0
 27 30  1  0  0  0  0
 27 60  1  0  0  0  0
 28 61  1  0  0  0  0
 29 62  1  0  0  0  0
 29 63  1  0  0  0  0
 29 64  1  0  0  0  0
 30 31  1  0  0  0  0
 30 66  1  0  0  0  0
 30 67  1  0  0  0  0
 31 32  1  0  0  0  0
 31 33  1  1  0  0  0
 31 68  1  0  0  0  0
 32 34  1  0  0  0  0
 32 35  1  0  0  0  0
 32 72  1  0  0  0  0
 33 73  1  0  0  0  0
 33 74  1  0  0  0  0
 33 75  1  0  0  0  0
 34 76  1  0  0  0  0
 34 77  1  0  0  0  0
 35 78  1  0  0  0  0
 35 79  1  0  0  0  0
 35 80  1  0  0  0  0
M  END
> <PUBCHEM_COMPOUND_CID>
441830

> <PUBCHEM_COMPOUND_CANONICALIZED>
1

> <PUBCHEM_CACTVS_COMPLEXITY>
873

> <PUBCHEM_CACTVS_HBOND_ACCEPTOR>
7

> <PUBCHEM_CACTVS_HBOND_DONOR>
6

> <PUBCHEM_CACTVS_ROTATABLE_BOND>
6

> <PUBCHEM_CACTVS_SUBSKEYS>
AAADcfB4OAAAAAAAAAAAAAAAAAAAAYAAAAAwYIAAAAAAAGCAAAAAGgAACAAAD1SggAICAAAAAgCIAqBSAAAAAAAgAAAACAEAAEgBFBIAAQAAUAAEgAAJEQPK7PTPgAAAAAAAAADAAAYAADCAAYAADAAAAA==

> <PUBCHEM_IUPAC_OPENEYE_NAME>
(2S,3R,5R,9R,10R,13R,14S,17S)-2,3,14-trihydroxy-10,13-dimethyl-17-[(1R,2R,4R)-1,2,6-trihydroxy-1,4,5-trimethyl-hexyl]-2,3,4,5,9,11,12,15,16,17-decahydro-1H-cyclopenta[a]phenanthren-6-one

> <PUBCHEM_IUPAC_CAS_NAME>
(2S,3R,5R,9R,10R,13R,14S,17S)-2,3,14-trihydroxy-10,13-dimethyl-17-[(2R,3R,5R)-2,3,7-trihydroxy-5,6-dimethylheptan-2-yl]-2,3,4,5,9,11,12,15,16,17-decahydro-1H-cyclopenta[a]phenanthren-6-one

> <PUBCHEM_IUPAC_NAME>
(2S,3R,5R,9R,10R,13R,14S,17S)-2,3,14-trihydroxy-10,13-dimethyl-17-[(2R,3R,5R)-2,3,7-trihydroxy-5,6-dimethylheptan-2-yl]-2,3,4,5,9,11,12,15,16,17-decahydro-1H-cyclopenta[a]phenanthren-6-one

> <PUBCHEM_IUPAC_SYSTEMATIC_NAME>
(2S,3R,5R,9R,10R,13R,14S,17S)-17-[(2R,3R,5R)-5,6-dimethyl-2,3,7-tris(oxidanyl)heptan-2-yl]-10,13-dimethyl-2,3,14-tris(oxidanyl)-2,3,4,5,9,11,12,15,16,17-decahydro-1H-cyclopenta[a]phenanthren-6-one

> <PUBCHEM_IUPAC_TRADITIONAL_NAME>
(2S,3R,5R,9R,10R,13R,14S,17S)-2,3,14-trihydroxy-10,13-dimethyl-17-[(1R,2R,4R)-1,2,6-trihydroxy-1,4,5-trimethyl-hexyl]-2,3,4,5,9,11,12,15,16,17-decahydro-1H-cyclopenta[a]phenanthren-6-one

> <PUBCHEM_IUPAC_INCHI>
InChI=1S/C28H46O7/c1-15(16(2)14-29)10-24(33)27(5,34)23-7-9-28(35)18-11-20(30)19-12-21(31)22(32)13-25(19,3)17(18)6-8-26(23,28)4/h11,15-17,19,21-24,29,31-35H,6-10,12-14H2,1-5H3/t15-,16?,17+,19+,21-,22+,23+,24-,25-,26-,27-,28-/m1/s1

> <PUBCHEM_IUPAC_INCHIKEY>
ZJISPMMPECVLMY-CSUDGKPCSA-N

> <PUBCHEM_XLOGP3_AA>
1.1

> <PUBCHEM_EXACT_MASS>
494.324354

> <PUBCHEM_MOLECULAR_FORMULA>
C28H46O7

> <PUBCHEM_MOLECULAR_WEIGHT>
494.66064

> <PUBCHEM_OPENEYE_CAN_SMILES>
CC(CC(C(C)(C1CCC2(C1(CCC3C2=CC(=O)C4C3(CC(C(C4)O)O)C)C)O)O)O)C(C)CO

> <PUBCHEM_OPENEYE_ISO_SMILES>
C[C@H](C[C@H]([C@@](C)([C@H]1CC[C@@]2([C@@]1(CC[C@H]3C2=CC(=O)[C@H]4[C@@]3(C[C@@H]([C@@H](C4)O)O)C)C)O)O)O)C(C)CO

> <PUBCHEM_CACTVS_TPSA>
138

> <PUBCHEM_MONOISOTOPIC_WEIGHT>
494.324354

> <PUBCHEM_TOTAL_CHARGE>
0

> <PUBCHEM_HEAVY_ATOM_COUNT>
35

> <PUBCHEM_ATOM_DEF_STEREO_COUNT>
11

> <PUBCHEM_ATOM_UDEF_STEREO_COUNT>
1

> <PUBCHEM_BOND_DEF_STEREO_COUNT>
0

> <PUBCHEM_BOND_UDEF_STEREO_COUNT>
0

> <PUBCHEM_ISOTOPIC_ATOM_COUNT>
0

> <PUBCHEM_COMPONENT_COUNT>
1

> <PUBCHEM_CACTVS_TAUTO_COUNT>
5

> <PUBCHEM_COORDINATE_TYPE>
1
5
255

> <PUBCHEM_BONDANNOTATIONS>
9  1  6
10  36  6
11  37  6
12  24  5
18  46  5
19  2  5
26  3  5
31  33  5
32  72  3
27  4  6
28  6  5
8  20  5

$$$$

