479931
  -OEChem-07051213102D

 40 41  0     1  0  0  0  0  0999 V2000
    2.1340    1.8450    0.0000 Br  0  0  0  0  0  0  0  0  0  0  0  0
    5.5981   -2.1550    0.0000 Cl  0  0  0  0  0  0  0  0  0  0  0  0
    3.8660    2.8450    0.0000 O   0  0  0  0  0  0  0  0  0  0  0  0
    3.8660   -0.1550    0.0000 C   0  0  1  0  0  0  0  0  0  0  0  0
    3.0000    0.3450    0.0000 C   0  0  0  0  0  0  0  0  0  0  0  0
    3.0000    1.3450    0.0000 C   0  0  2  0  0  0  0  0  0  0  0  0
    3.0000   -0.6550    0.0000 C   0  0  0  0  0  0  0  0  0  0  0  0
    4.7320    0.3450    0.0000 C   0  0  0  0  0  0  0  0  0  0  0  0
    4.7320   -0.6550    0.0000 C   0  0  0  0  0  0  0  0  0  0  0  0
    3.8660    1.8450    0.0000 C   0  0  2  0  0  0  0  0  0  0  0  0
    4.7320    1.3450    0.0000 C   0  0  0  0  0  0  0  0  0  0  0  0
    2.0000    0.3450    0.0000 C   0  0  0  0  0  0  0  0  0  0  0  0
    2.2340   -0.2978    0.0000 C   0  0  0  0  0  0  0  0  0  0  0  0
    3.0000   -1.6550    0.0000 C   0  0  0  0  0  0  0  0  0  0  0  0
    4.7320   -1.6550    0.0000 C   0  0  0  0  0  0  0  0  0  0  0  0
    3.8660   -2.1550    0.0000 C   0  0  0  0  0  0  0  0  0  0  0  0
    5.5981   -0.1550    0.0000 C   0  0  0  0  0  0  0  0  0  0  0  0
    3.8660   -3.1550    0.0000 C   0  0  0  0  0  0  0  0  0  0  0  0
    3.0000    1.9650    0.0000 H   0  0  0  0  0  0  0  0  0  0  0  0
    2.7880   -0.0724    0.0000 H   0  0  0  0  0  0  0  0  0  0  0  0
    2.3894   -0.7627    0.0000 H   0  0  0  0  0  0  0  0  0  0  0  0
    5.3426   -0.7627    0.0000 H   0  0  0  0  0  0  0  0  0  0  0  0
    4.9441   -0.0724    0.0000 H   0  0  0  0  0  0  0  0  0  0  0  0
    4.4030    2.1550    0.0000 H   0  0  0  0  0  0  0  0  0  0  0  0
    5.3426    1.2373    0.0000 H   0  0  0  0  0  0  0  0  0  0  0  0
    4.9441    1.9276    0.0000 H   0  0  0  0  0  0  0  0  0  0  0  0
    2.0000    0.9650    0.0000 H   0  0  0  0  0  0  0  0  0  0  0  0
    1.3800    0.3450    0.0000 H   0  0  0  0  0  0  0  0  0  0  0  0
    2.0000   -0.2750    0.0000 H   0  0  0  0  0  0  0  0  0  0  0  0
    1.8354    0.1771    0.0000 H   0  0  0  0  0  0  0  0  0  0  0  0
    1.7590   -0.6964    0.0000 H   0  0  0  0  0  0  0  0  0  0  0  0
    2.6325   -0.7727    0.0000 H   0  0  0  0  0  0  0  0  0  0  0  0
    2.3894   -1.5473    0.0000 H   0  0  0  0  0  0  0  0  0  0  0  0
    2.7880   -2.2376    0.0000 H   0  0  0  0  0  0  0  0  0  0  0  0
    5.5981   -0.7750    0.0000 H   0  0  0  0  0  0  0  0  0  0  0  0
    6.1350    0.1550    0.0000 H   0  0  0  0  0  0  0  0  0  0  0  0
    4.4030    3.1550    0.0000 H   0  0  0  0  0  0  0  0  0  0  0  0
    3.2460   -3.1550    0.0000 H   0  0  0  0  0  0  0  0  0  0  0  0
    3.8660   -3.7750    0.0000 H   0  0  0  0  0  0  0  0  0  0  0  0
    4.4860   -3.1550    0.0000 H   0  0  0  0  0  0  0  0  0  0  0  0
  6  1  1  1  0  0  0
  2 15  1  0  0  0  0
 10  3  1  1  0  0  0
  3 37  1  0  0  0  0
  4  5  1  0  0  0  0
  4  7  1  6  0  0  0
  4  8  1  0  0  0  0
  4  9  1  0  0  0  0
  5  6  1  0  0  0  0
  5 12  1  0  0  0  0
  5 13  1  0  0  0  0
  6 10  1  0  0  0  0
  6 19  1  0  0  0  0
  7 14  1  0  0  0  0
  7 20  1  0  0  0  0
  7 21  1  0  0  0  0
  8 11  1  0  0  0  0
  8 17  2  0  0  0  0
  9 15  1  0  0  0  0
  9 22  1  0  0  0  0
  9 23  1  0  0  0  0
 10 11  1  0  0  0  0
 10 24  1  0  0  0  0
 11 25  1  0  0  0  0
 11 26  1  0  0  0  0
 12 27  1  0  0  0  0
 12 28  1  0  0  0  0
 12 29  1  0  0  0  0
 13 30  1  0  0  0  0
 13 31  1  0  0  0  0
 13 32  1  0  0  0  0
 14 16  1  0  0  0  0
 14 33  1  0  0  0  0
 14 34  1  0  0  0  0
 15 16  2  0  0  0  0
 16 18  1  0  0  0  0
 17 35  1  0  0  0  0
 17 36  1  0  0  0  0
 18 38  1  0  0  0  0
 18 39  1  0  0  0  0
 18 40  1  0  0  0  0
M  END
> <PUBCHEM_COMPOUND_CID>
479931

> <PUBCHEM_COMPOUND_CANONICALIZED>
1

> <PUBCHEM_CACTVS_COMPLEXITY>
413

> <PUBCHEM_CACTVS_HBOND_ACCEPTOR>
1

> <PUBCHEM_CACTVS_HBOND_DONOR>
1

> <PUBCHEM_CACTVS_ROTATABLE_BOND>
0

> <PUBCHEM_CACTVS_SUBSKEYS>
AAADceBwIAAEEAAAAAAAAAAAAAAAAAAAAAAwQAAAAAAAAAAAAAAAGgJACAABzhaggAICAAAAAgCAAgBCAAAAAAAgAAAACAAAAigAEAIBAQAAQAAEwAAIAAOAwPAPgAAAAAAAAABAAAIgACEIAAAAAAAAAA==

> <PUBCHEM_IUPAC_OPENEYE_NAME>
(3S,4R,6R)-4-bromo-10-chloro-5,5,9-trimethyl-1-methylene-spiro[5.5]undec-9-en-3-ol

> <PUBCHEM_IUPAC_CAS_NAME>
(3S,4R,6R)-4-bromo-10-chloro-5,5,9-trimethyl-1-methylene-3-spiro[5.5]undec-9-enol

> <PUBCHEM_IUPAC_NAME>
(3S,4R,6R)-4-bromo-10-chloro-5,5,9-trimethyl-1-methylidenespiro[5.5]undec-9-en-3-ol

> <PUBCHEM_IUPAC_SYSTEMATIC_NAME>
(3S,4R,6R)-4-bromanyl-10-chloranyl-5,5,9-trimethyl-1-methylidene-spiro[5.5]undec-9-en-3-ol

> <PUBCHEM_IUPAC_TRADITIONAL_NAME>
(3S,4R,6R)-4-bromo-10-chloro-5,5,9-trimethyl-1-methylene-spiro[5.5]undec-9-en-3-ol

> <PUBCHEM_IUPAC_INCHI>
InChI=1S/C15H22BrClO/c1-9-5-6-15(8-11(9)17)10(2)7-12(18)13(16)14(15,3)4/h12-13,18H,2,5-8H2,1,3-4H3/t12-,13-,15+/m0/s1

> <PUBCHEM_IUPAC_INCHIKEY>
HZKGRCIKQBHSNA-KCQAQPDRSA-N

> <PUBCHEM_XLOGP3_AA>
4.1

> <PUBCHEM_EXACT_MASS>
332.054255

> <PUBCHEM_MOLECULAR_FORMULA>
C15H22BrClO

> <PUBCHEM_MOLECULAR_WEIGHT>
333.69158

> <PUBCHEM_OPENEYE_CAN_SMILES>
CC1=C(CC2(CC1)C(=C)CC(C(C2(C)C)Br)O)Cl

> <PUBCHEM_OPENEYE_ISO_SMILES>
CC1=C(C[C@]2(CC1)C(=C)C[C@@H]([C@@H](C2(C)C)Br)O)Cl

> <PUBCHEM_CACTVS_TPSA>
20.2

> <PUBCHEM_MONOISOTOPIC_WEIGHT>
332.054255

> <PUBCHEM_TOTAL_CHARGE>
0

> <PUBCHEM_HEAVY_ATOM_COUNT>
18

> <PUBCHEM_ATOM_DEF_STEREO_COUNT>
3

> <PUBCHEM_ATOM_UDEF_STEREO_COUNT>
0

> <PUBCHEM_BOND_DEF_STEREO_COUNT>
0

> <PUBCHEM_BOND_UDEF_STEREO_COUNT>
0

> <PUBCHEM_ISOTOPIC_ATOM_COUNT>
0

> <PUBCHEM_COMPONENT_COUNT>
1

> <PUBCHEM_CACTVS_TAUTO_COUNT>
1

> <PUBCHEM_COORDINATE_TYPE>
1
5
255

> <PUBCHEM_BONDANNOTATIONS>
6  1  5
10  3  5
4  7  6

$$$$

