12856
  -OEChem-06261207273D

 23 25  0     0  0  0  0  0  0999 V2000
    0.4058    1.5194   -0.3055 S   0  0  0  0  0  0  0  0  0  0  0  0
    0.4339   -1.0121    0.1871 N   0  0  0  0  0  0  0  0  0  0  0  0
   -2.4009    1.1009    0.3886 N   0  0  0  0  0  0  0  0  0  0  0  0
    1.9449    0.7577   -0.1502 C   0  0  0  0  0  0  0  0  0  0  0  0
    1.7572   -0.6025    0.1135 C   0  0  0  0  0  0  0  0  0  0  0  0
   -0.3565    0.0158   -0.0163 C   0  0  0  0  0  0  0  0  0  0  0  0
   -1.7992   -0.0390   -0.0130 C   0  0  0  0  0  0  0  0  0  0  0  0
    3.2260    1.3230   -0.2542 C   0  0  0  0  0  0  0  0  0  0  0  0
    2.8937   -1.4238    0.2784 C   0  0  0  0  0  0  0  0  0  0  0  0
    4.3337    0.4882   -0.0867 C   0  0  0  0  0  0  0  0  0  0  0  0
    4.1720   -0.8677    0.1762 C   0  0  0  0  0  0  0  0  0  0  0  0
   -2.4728   -1.1845   -0.3968 C   0  0  0  0  0  0  0  0  0  0  0  0
   -3.8626   -1.1588   -0.3667 C   0  0  0  0  0  0  0  0  0  0  0  0
   -4.5225   -0.0047    0.0406 C   0  0  0  0  0  0  0  0  0  0  0  0
   -3.7527    1.0881    0.4050 C   0  0  0  0  0  0  0  0  0  0  0  0
    3.3599    2.3807   -0.4593 H   0  0  0  0  0  0  0  0  0  0  0  0
    2.7788   -2.4844    0.4841 H   0  0  0  0  0  0  0  0  0  0  0  0
    5.3343    0.9057   -0.1632 H   0  0  0  0  0  0  0  0  0  0  0  0
    5.0454   -1.5015    0.3035 H   0  0  0  0  0  0  0  0  0  0  0  0
   -1.9540   -2.0822   -0.7166 H   0  0  0  0  0  0  0  0  0  0  0  0
   -4.4307   -2.0363   -0.6608 H   0  0  0  0  0  0  0  0  0  0  0  0
   -5.6052    0.0381    0.0717 H   0  0  0  0  0  0  0  0  0  0  0  0
   -4.2189    2.0123    0.7301 H   0  0  0  0  0  0  0  0  0  0  0  0
  1  4  1  0  0  0  0
  1  6  1  0  0  0  0
  2  5  1  0  0  0  0
  2  6  2  0  0  0  0
  3  7  1  0  0  0  0
  3 15  2  0  0  0  0
  4  5  1  0  0  0  0
  4  8  2  0  0  0  0
  5  9  2  0  0  0  0
  6  7  1  0  0  0  0
  7 12  2  0  0  0  0
  8 10  1  0  0  0  0
  8 16  1  0  0  0  0
  9 11  1  0  0  0  0
  9 17  1  0  0  0  0
 10 11  2  0  0  0  0
 10 18  1  0  0  0  0
 11 19  1  0  0  0  0
 12 13  1  0  0  0  0
 12 20  1  0  0  0  0
 13 14  2  0  0  0  0
 13 21  1  0  0  0  0
 14 15  1  0  0  0  0
 14 22  1  0  0  0  0
 15 23  1  0  0  0  0
M  END
> <PUBCHEM_COMPOUND_CID>
12856

> <PUBCHEM_CONFORMER_RMSD>
0.4

> <PUBCHEM_CONFORMER_DIVERSEORDER>
1
4
5
2
6
3

> <PUBCHEM_MMFF94_PARTIAL_CHARGES>
23
1 -0.08
10 -0.15
11 -0.15
12 -0.15
13 -0.15
14 -0.15
15 0.16
16 0.15
17 0.15
18 0.15
19 0.15
2 -0.57
20 0.15
21 0.15
22 0.15
23 0.15
3 -0.62
4 0.04
5 0.23
6 0.33
7 0.36
8 -0.15
9 -0.15

> <PUBCHEM_EFFECTIVE_ROTOR_COUNT>
1

> <PUBCHEM_PHARMACOPHORE_FEATURES>
5
1 2 acceptor
1 3 acceptor
5 1 2 4 5 6 rings
6 3 7 12 13 14 15 rings
6 4 5 8 9 10 11 rings

> <PUBCHEM_HEAVY_ATOM_COUNT>
15

> <PUBCHEM_ATOM_DEF_STEREO_COUNT>
0

> <PUBCHEM_ATOM_UDEF_STEREO_COUNT>
0

> <PUBCHEM_BOND_DEF_STEREO_COUNT>
0

> <PUBCHEM_BOND_UDEF_STEREO_COUNT>
0

> <PUBCHEM_ISOTOPIC_ATOM_COUNT>
0

> <PUBCHEM_COMPONENT_COUNT>
1

> <PUBCHEM_CACTVS_TAUTO_COUNT>
1

> <PUBCHEM_CONFORMER_ID>
0000323800000001

> <PUBCHEM_MMFF94_ENERGY>
35.4499

> <PUBCHEM_FEATURE_SELFOVERLAP>
25.443

> <PUBCHEM_SHAPE_FINGERPRINT>
10062212 137 18335425659939060111
10616163 171 18334575694369851935
11132069 177 18410017645311090440
11401426 45 18411705369816063208
11471102 20 18343303660947065620
11806522 49 18340208483811427647
12107183 9 17688588677076560899
12236239 1 18334012795823318027
12251169 10 18408886252040713039
13167823 11 18408886230576750831
13675066 3 18130784564246038737
13760787 5 17846495937543368892
14144814 61 18410292514685998667
14251717 144 18342177756587155982
14325111 11 18410573976566804288
14576447 43 18337117743667260991
15196674 1 18411138034621787981
15375462 189 18272937162647063554
15442244 35 18266176308676584904
15536298 74 18407760326701741608
17834072 33 18409168779289686063
18186145 218 17775288265672146642
18522853 276 18335139786736457873
19050596 39 18409730664027966378
19422 9 18409446985738340006
200 152 18334020471547080663
20279233 1 16200433563325750771
20281475 54 18411426115364000262
20645477 70 18411983593550445470
21267235 1 18410565193395932047
21501925 9 18411144632071369378
221490 88 18198336247863951347
22485316 2 18411703192193667725
2255824 54 18131067126234454194
22646028 1 18408606954681090607
23402539 116 18261118469104768780
23402655 69 18411701001781634316
23463225 33 18411136956690511342
23559900 14 18187369813720730968
29717793 49 18113621205042698285
3545911 37 18410291406594992253
42 15 18411980273408285034
4214541 1 18409730685835280965
474 4 17916301632994452516
4990 188 18113606898812525364
5104073 3 18410292501648116883
573450 72 18333737939655065299
633830 44 17346878961572254893
69090 78 18410858750157850875
77779 3 18409446985801623975
9709674 26 18408879629180777735
9981440 41 17331684544074491369

> <PUBCHEM_SHAPE_MULTIPOLES>
302.58
9.15
1.57
0.67
1.6
0.08
0.01
-0.65
-0.17
-0.24
0.03
0.08
0.01
-0.6

> <PUBCHEM_SHAPE_SELFOVERLAP>
662.247

> <PUBCHEM_SHAPE_VOLUME>
165.5

> <PUBCHEM_COORDINATE_TYPE>
2
5
10

$$$$

