439605
  -OEChem-07051212463D

 25 24  0     1  0  0  0  0  0999 V2000
    2.1224    0.9125    1.3250 O   0  0  0  0  0  0  0  0  0  0  0  0
    2.5962   -1.6470    0.0425 N   0  0  0  0  0  0  0  0  0  0  0  0
   -4.6309    0.1554    0.2660 N   0  0  0  0  0  0  0  0  0  0  0  0
    2.4155    1.5794   -0.8537 N   0  0  0  0  0  0  0  0  0  0  0  0
    0.2170   -1.0698    0.0324 C   0  0  0  0  0  0  0  0  0  0  0  0
   -0.8445   -0.0406   -0.3765 C   0  0  0  0  0  0  0  0  0  0  0  0
    1.6204   -0.6714   -0.4444 C   0  0  1  0  0  0  0  0  0  0  0  0
   -2.2328   -0.4474    0.1289 C   0  0  0  0  0  0  0  0  0  0  0  0
   -3.3250    0.5574   -0.2418 C   0  0  0  0  0  0  0  0  0  0  0  0
    2.0618    0.6714    0.1214 C   0  0  0  0  0  0  0  0  0  0  0  0
   -0.0486   -2.0513   -0.3808 H   0  0  0  0  0  0  0  0  0  0  0  0
    0.2067   -1.1704    1.1261 H   0  0  0  0  0  0  0  0  0  0  0  0
   -0.5971    0.9461    0.0312 H   0  0  0  0  0  0  0  0  0  0  0  0
   -0.8637    0.0541   -1.4688 H   0  0  0  0  0  0  0  0  0  0  0  0
    1.6434   -0.6588   -1.5399 H   0  0  0  0  0  0  0  0  0  0  0  0
   -2.4900   -1.4324   -0.2813 H   0  0  0  0  0  0  0  0  0  0  0  0
   -2.1979   -0.5581    1.2205 H   0  0  0  0  0  0  0  0  0  0  0  0
   -3.3843    0.6601   -1.3308 H   0  0  0  0  0  0  0  0  0  0  0  0
   -3.0778    1.5450    0.1627 H   0  0  0  0  0  0  0  0  0  0  0  0
    3.5121   -1.4427   -0.3561 H   0  0  0  0  0  0  0  0  0  0  0  0
    2.3447   -2.5773   -0.2899 H   0  0  0  0  0  0  0  0  0  0  0  0
   -4.5852    0.0513    1.2791 H   0  0  0  0  0  0  0  0  0  0  0  0
   -4.8686   -0.7668   -0.0978 H   0  0  0  0  0  0  0  0  0  0  0  0
    2.7358    2.5095   -0.6051 H   0  0  0  0  0  0  0  0  0  0  0  0
    2.3679    1.3670   -1.8449 H   0  0  0  0  0  0  0  0  0  0  0  0
  1 10  2  0  0  0  0
  2  7  1  0  0  0  0
  2 20  1  0  0  0  0
  2 21  1  0  0  0  0
  3  9  1  0  0  0  0
  3 22  1  0  0  0  0
  3 23  1  0  0  0  0
  4 10  1  0  0  0  0
  4 24  1  0  0  0  0
  4 25  1  0  0  0  0
  5  6  1  0  0  0  0
  5  7  1  0  0  0  0
  5 11  1  0  0  0  0
  5 12  1  0  0  0  0
  6  8  1  0  0  0  0
  6 13  1  0  0  0  0
  6 14  1  0  0  0  0
  7 10  1  0  0  0  0
  7 15  1  0  0  0  0
  8  9  1  0  0  0  0
  8 16  1  0  0  0  0
  8 17  1  0  0  0  0
  9 18  1  0  0  0  0
  9 19  1  0  0  0  0
M  END
> <PUBCHEM_COMPOUND_CID>
439605

> <PUBCHEM_CONFORMER_RMSD>
0.6

> <PUBCHEM_CONFORMER_DIVERSEORDER>
1
49
67
85
8
63
62
33
86
77
31
82
22
44
36
72
12
78
26
34
69
68
46
74
84
15
30
80
51
59
71
60
54
6
20
56
45
66
11
4
48
42
43
18
25
39
17
29
73
5
38
83
40
52
41
9
70
27
55
87
37
76
75
53
21
3
47
13
61
24
79
2
58
32
35
16
10
57
64
81
23
28
65
7
50
14
19

> <PUBCHEM_MMFF94_PARTIAL_CHARGES>
13
1 -0.57
10 0.57
2 -0.99
20 0.36
21 0.36
22 0.36
23 0.36
24 0.37
25 0.37
3 -0.99
4 -0.8
7 0.33
9 0.27

> <PUBCHEM_EFFECTIVE_ROTOR_COUNT>
5

> <PUBCHEM_PHARMACOPHORE_FEATURES>
6
1 1 acceptor
1 2 cation
1 2 donor
1 3 cation
1 3 donor
1 4 donor

> <PUBCHEM_HEAVY_ATOM_COUNT>
10

> <PUBCHEM_ATOM_DEF_STEREO_COUNT>
1

> <PUBCHEM_ATOM_UDEF_STEREO_COUNT>
0

> <PUBCHEM_BOND_DEF_STEREO_COUNT>
0

> <PUBCHEM_BOND_UDEF_STEREO_COUNT>
0

> <PUBCHEM_ISOTOPIC_ATOM_COUNT>
0

> <PUBCHEM_COMPONENT_COUNT>
1

> <PUBCHEM_CACTVS_TAUTO_COUNT>
2

> <PUBCHEM_CONFORMER_ID>
0006B53500000001

> <PUBCHEM_MMFF94_ENERGY>
3.167

> <PUBCHEM_FEATURE_SELFOVERLAP>
30.446

> <PUBCHEM_SHAPE_FINGERPRINT>
12932764 1 17894911785258370071
14325111 11 18410855452055354375
14390081 3 18186805759934100209
15775835 57 18041000604947858789
170605 34 17988640744668327668
177051 138 13254802343349478649
18186145 218 18411417358394974351
21040471 1 18191590744475834382
22485316 2 9079108943707643825
230 275 18412554214220037512
23380061 81 18271799133794735717
3248919 1 18272098145286530679
449060 62 18408598150203972613

> <PUBCHEM_SHAPE_MULTIPOLES>
184.98
6.44
1.37
0.83
7.64
0.04
0.11
-1.1
0.38
-1.33
-0.09
-0.41
-0.21
0.04

> <PUBCHEM_SHAPE_SELFOVERLAP>
338.652

> <PUBCHEM_SHAPE_VOLUME>
117.5

> <PUBCHEM_COORDINATE_TYPE>
2
5
10

$$$$

