13907
  -OEChem-06241222402D

 22 22  0     0  0  0  0  0  0999 V2000
    3.7320    4.5000    0.0000 O   0  0  0  0  0  0  0  0  0  0  0  0
    2.0000   -4.5000    0.0000 O   0  0  0  0  0  0  0  0  0  0  0  0
    3.7320    2.5000    0.0000 N   0  0  0  0  0  0  0  0  0  0  0  0
    2.0000   -2.5000    0.0000 N   0  0  0  0  0  0  0  0  0  0  0  0
    2.8660    1.0000    0.0000 C   0  0  0  0  0  0  0  0  0  0  0  0
    2.8660   -1.0000    0.0000 C   0  0  0  0  0  0  0  0  0  0  0  0
    2.0000    0.5000    0.0000 C   0  0  0  0  0  0  0  0  0  0  0  0
    2.0000   -0.5000    0.0000 C   0  0  0  0  0  0  0  0  0  0  0  0
    3.7320    0.5000    0.0000 C   0  0  0  0  0  0  0  0  0  0  0  0
    3.7320   -0.5000    0.0000 C   0  0  0  0  0  0  0  0  0  0  0  0
    2.8660    2.0000    0.0000 C   0  0  0  0  0  0  0  0  0  0  0  0
    2.8660   -2.0000    0.0000 C   0  0  0  0  0  0  0  0  0  0  0  0
    3.7320    3.5000    0.0000 C   0  0  0  0  0  0  0  0  0  0  0  0
    2.0000   -3.5000    0.0000 C   0  0  0  0  0  0  0  0  0  0  0  0
    1.4631    0.8100    0.0000 H   0  0  0  0  0  0  0  0  0  0  0  0
    1.4631   -0.8100    0.0000 H   0  0  0  0  0  0  0  0  0  0  0  0
    4.2690    0.8100    0.0000 H   0  0  0  0  0  0  0  0  0  0  0  0
    4.2690   -0.8100    0.0000 H   0  0  0  0  0  0  0  0  0  0  0  0
    2.6540    2.5826    0.0000 H   0  0  0  0  0  0  0  0  0  0  0  0
    2.2554    1.8923    0.0000 H   0  0  0  0  0  0  0  0  0  0  0  0
    3.0781   -2.5826    0.0000 H   0  0  0  0  0  0  0  0  0  0  0  0
    3.4766   -1.8923    0.0000 H   0  0  0  0  0  0  0  0  0  0  0  0
  1 13  2  0  0  0  0
  2 14  2  0  0  0  0
  3 11  1  0  0  0  0
  3 13  2  0  0  0  0
  4 12  1  0  0  0  0
  4 14  2  0  0  0  0
  5  7  2  0  0  0  0
  5  9  1  0  0  0  0
  5 11  1  0  0  0  0
  6  8  2  0  0  0  0
  6 10  1  0  0  0  0
  6 12  1  0  0  0  0
  7  8  1  0  0  0  0
  7 15  1  0  0  0  0
  8 16  1  0  0  0  0
  9 10  2  0  0  0  0
  9 17  1  0  0  0  0
 10 18  1  0  0  0  0
 11 19  1  0  0  0  0
 11 20  1  0  0  0  0
 12 21  1  0  0  0  0
 12 22  1  0  0  0  0
M  END
> <PUBCHEM_COMPOUND_CID>
13907

> <PUBCHEM_COMPOUND_CANONICALIZED>
1

> <PUBCHEM_CACTVS_COMPLEXITY>
229

> <PUBCHEM_CACTVS_HBOND_ACCEPTOR>
4

> <PUBCHEM_CACTVS_HBOND_DONOR>
0

> <PUBCHEM_CACTVS_ROTATABLE_BOND>
4

> <PUBCHEM_CACTVS_SUBSKEYS>
AAADccBzMAAAAAAAAAAAAAAAAAAAAAAAAAAwAAAAAAAAAAABAAAAHgAAAAAADADBGAQwAIIAAACoAiBCFACCAAAgAAAIiAAABIgIICKAkRGAIABggAAIiAcQgAAOQAAAAAAAAACAAAAAAAAAAAAAAAAAAA==

> <PUBCHEM_IUPAC_OPENEYE_NAME>
1,4-bis(isocyanatomethyl)benzene

> <PUBCHEM_IUPAC_CAS_NAME>
1,4-bis(isocyanatomethyl)benzene

> <PUBCHEM_IUPAC_NAME>
1,4-bis(isocyanatomethyl)benzene

> <PUBCHEM_IUPAC_SYSTEMATIC_NAME>
1,4-bis(isocyanatomethyl)benzene

> <PUBCHEM_IUPAC_TRADITIONAL_NAME>
1,4-bis(isocyanatomethyl)benzene

> <PUBCHEM_IUPAC_INCHI>
InChI=1S/C10H8N2O2/c13-7-11-5-9-1-2-10(4-3-9)6-12-8-14/h1-4H,5-6H2

> <PUBCHEM_IUPAC_INCHIKEY>
OHLKMGYGBHFODF-UHFFFAOYSA-N

> <PUBCHEM_XLOGP3_AA>
3.4

> <PUBCHEM_EXACT_MASS>
188.058578

> <PUBCHEM_MOLECULAR_FORMULA>
C10H8N2O2

> <PUBCHEM_MOLECULAR_WEIGHT>
188.18272

> <PUBCHEM_OPENEYE_CAN_SMILES>
C1=CC(=CC=C1CN=C=O)CN=C=O

> <PUBCHEM_OPENEYE_ISO_SMILES>
C1=CC(=CC=C1CN=C=O)CN=C=O

> <PUBCHEM_CACTVS_TPSA>
58.9

> <PUBCHEM_MONOISOTOPIC_WEIGHT>
188.058578

> <PUBCHEM_TOTAL_CHARGE>
0

> <PUBCHEM_HEAVY_ATOM_COUNT>
14

> <PUBCHEM_ATOM_DEF_STEREO_COUNT>
0

> <PUBCHEM_ATOM_UDEF_STEREO_COUNT>
0

> <PUBCHEM_BOND_DEF_STEREO_COUNT>
0

> <PUBCHEM_BOND_UDEF_STEREO_COUNT>
0

> <PUBCHEM_ISOTOPIC_ATOM_COUNT>
0

> <PUBCHEM_COMPONENT_COUNT>
1

> <PUBCHEM_CACTVS_TAUTO_COUNT>
1

> <PUBCHEM_COORDINATE_TYPE>
1
5
255

> <PUBCHEM_BONDANNOTATIONS>
5  7  8
5  9  8
6  10  8
6  8  8
7  8  8
9  10  8

$$$$

