5281176
  -OEChem-07051212552D

 24 24  0     1  0  0  0  0  0999 V2000
    2.5369   -1.2500    0.0000 O   0  0  0  0  0  0  0  0  0  0  0  0
    3.4030   -2.7500    0.0000 O   0  0  0  0  0  0  0  0  0  0  0  0
    7.7331   -1.2500    0.0000 O   0  0  0  0  0  0  0  0  0  0  0  0
    6.8671   -2.7500    0.0000 O   0  0  0  0  0  0  0  0  0  0  0  0
    4.2690    2.7500    0.0000 O   0  0  0  0  0  0  0  0  0  0  0  0
    5.1350   -1.7500    0.0000 N   0  0  0  0  0  0  0  0  0  0  0  0
    4.2690   -1.2500    0.0000 C   0  0  1  0  0  0  0  0  0  0  0  0
    4.2690   -0.2500    0.0000 C   0  0  0  0  0  0  0  0  0  0  0  0
    5.1350    0.2500    0.0000 C   0  0  0  0  0  0  0  0  0  0  0  0
    6.0010   -1.2500    0.0000 C   0  0  0  0  0  0  0  0  0  0  0  0
    6.0010   -0.2500    0.0000 C   0  0  0  0  0  0  0  0  0  0  0  0
    3.4030   -1.7500    0.0000 C   0  0  0  0  0  0  0  0  0  0  0  0
    5.1350    1.2500    0.0000 C   0  0  0  0  0  0  0  0  0  0  0  0
    6.8671   -1.7500    0.0000 C   0  0  0  0  0  0  0  0  0  0  0  0
    4.2690    1.7500    0.0000 C   0  0  0  0  0  0  0  0  0  0  0  0
    4.2690   -1.8700    0.0000 H   0  0  0  0  0  0  0  0  0  0  0  0
    4.0569    0.3326    0.0000 H   0  0  0  0  0  0  0  0  0  0  0  0
    3.6584   -0.3577    0.0000 H   0  0  0  0  0  0  0  0  0  0  0  0
    5.1350   -2.3700    0.0000 H   0  0  0  0  0  0  0  0  0  0  0  0
    6.5380    0.0600    0.0000 H   0  0  0  0  0  0  0  0  0  0  0  0
    5.6720    1.5600    0.0000 H   0  0  0  0  0  0  0  0  0  0  0  0
    2.0000   -1.5600    0.0000 H   0  0  0  0  0  0  0  0  0  0  0  0
    3.7320    1.4400    0.0000 H   0  0  0  0  0  0  0  0  0  0  0  0
    8.2700   -1.5600    0.0000 H   0  0  0  0  0  0  0  0  0  0  0  0
  1 12  1  0  0  0  0
  1 22  1  0  0  0  0
  2 12  2  0  0  0  0
  3 14  1  0  0  0  0
  3 24  1  0  0  0  0
  4 14  2  0  0  0  0
  5 15  2  0  0  0  0
  6  7  1  0  0  0  0
  6 10  1  0  0  0  0
  6 19  1  0  0  0  0
  7  8  1  0  0  0  0
  7 12  1  6  0  0  0
  7 16  1  0  0  0  0
  8  9  1  0  0  0  0
  8 17  1  0  0  0  0
  8 18  1  0  0  0  0
  9 11  1  0  0  0  0
  9 13  2  0  0  0  0
 10 11  2  0  0  0  0
 10 14  1  0  0  0  0
 11 20  1  0  0  0  0
 13 15  1  0  0  0  0
 13 21  1  0  0  0  0
 15 23  1  0  0  0  0
M  END
> <PUBCHEM_COMPOUND_CID>
5281176

> <PUBCHEM_COMPOUND_CANONICALIZED>
1

> <PUBCHEM_CACTVS_COMPLEXITY>
369

> <PUBCHEM_CACTVS_HBOND_ACCEPTOR>
6

> <PUBCHEM_CACTVS_HBOND_DONOR>
3

> <PUBCHEM_CACTVS_ROTATABLE_BOND>
3

> <PUBCHEM_CACTVS_SUBSKEYS>
AAADccByOAAAAAAAAAAAAAAAAAAAAAAAAAAgAAAAAAAAAAAAAAAAHgAQCAAADCjhgAYACALAAgCIAizSyAAAAAAgAgAACIGIAEgKBBIAgSAEUAAEkACYkYKIAAAAAAAAAAAAAAAAAAAAAAAAAAAAAAAAAA==

> <PUBCHEM_IUPAC_OPENEYE_NAME>
(2S,4E)-4-(2-oxoethylidene)-2,3-dihydro-1H-pyridine-2,6-dicarboxylic acid

> <PUBCHEM_IUPAC_CAS_NAME>
(2S,4E)-4-(2-oxoethylidene)-2,3-dihydro-1H-pyridine-2,6-dicarboxylic acid

> <PUBCHEM_IUPAC_NAME>
(2S,4E)-4-(2-oxoethylidene)-2,3-dihydro-1H-pyridine-2,6-dicarboxylic acid

> <PUBCHEM_IUPAC_SYSTEMATIC_NAME>
(2S,4E)-4-(2-oxidanylideneethylidene)-2,3-dihydro-1H-pyridine-2,6-dicarboxylic acid

> <PUBCHEM_IUPAC_TRADITIONAL_NAME>
(2S,4E)-4-(2-ketoethylidene)-2,3-dihydro-1H-pyridine-2,6-dicarboxylic acid

> <PUBCHEM_IUPAC_INCHI>
InChI=1S/C9H9NO5/c11-2-1-5-3-6(8(12)13)10-7(4-5)9(14)15/h1-3,7,10H,4H2,(H,12,13)(H,14,15)/b5-1-/t7-/m0/s1

> <PUBCHEM_IUPAC_INCHIKEY>
YQDKULBMDMPFLH-FSRBREEPSA-N

> <PUBCHEM_XLOGP3_AA>
-0.3

> <PUBCHEM_EXACT_MASS>
211.048072

> <PUBCHEM_MOLECULAR_FORMULA>
C9H9NO5

> <PUBCHEM_MOLECULAR_WEIGHT>
211.17146

> <PUBCHEM_OPENEYE_CAN_SMILES>
C1C(NC(=CC1=CC=O)C(=O)O)C(=O)O

> <PUBCHEM_OPENEYE_ISO_SMILES>
C\1[C@H](NC(=C/C1=C/C=O)C(=O)O)C(=O)O

> <PUBCHEM_CACTVS_TPSA>
104

> <PUBCHEM_MONOISOTOPIC_WEIGHT>
211.048072

> <PUBCHEM_TOTAL_CHARGE>
0

> <PUBCHEM_HEAVY_ATOM_COUNT>
15

> <PUBCHEM_ATOM_DEF_STEREO_COUNT>
1

> <PUBCHEM_ATOM_UDEF_STEREO_COUNT>
0

> <PUBCHEM_BOND_DEF_STEREO_COUNT>
1

> <PUBCHEM_BOND_UDEF_STEREO_COUNT>
0

> <PUBCHEM_ISOTOPIC_ATOM_COUNT>
0

> <PUBCHEM_COMPONENT_COUNT>
1

> <PUBCHEM_CACTVS_TAUTO_COUNT>
4

> <PUBCHEM_COORDINATE_TYPE>
1
5
255

> <PUBCHEM_BONDANNOTATIONS>
7  12  6

$$$$

