165258
  -OEChem-07051213103D

 45 46  0     1  0  0  0  0  0999 V2000
   -1.6788    2.4488    0.8010 O   0  0  0  0  0  0  0  0  0  0  0  0
    3.1609    0.1255   -1.3991 O   0  0  0  0  0  0  0  0  0  0  0  0
   -1.0269   -1.2177   -0.0723 C   0  0  1  0  0  0  0  0  0  0  0  0
   -0.7837    0.2631    0.3563 C   0  0  2  0  0  0  0  0  0  0  0  0
   -1.9392    1.2528    0.0403 C   0  0  1  0  0  0  0  0  0  0  0  0
    0.6117    0.7638   -0.0708 C   0  0  0  0  0  0  0  0  0  0  0  0
    1.7246   -0.1267    0.5081 C   0  0  1  0  0  0  0  0  0  0  0  0
    0.0966   -2.0806    0.5674 C   0  0  0  0  0  0  0  0  0  0  0  0
   -2.3953   -1.6847    0.4820 C   0  0  0  0  0  0  0  0  0  0  0  0
    1.5020   -1.6095    0.1841 C   0  0  0  0  0  0  0  0  0  0  0  0
   -3.2752    0.6841    0.5547 C   0  0  0  0  0  0  0  0  0  0  0  0
   -3.5471   -0.7487    0.1117 C   0  0  0  0  0  0  0  0  0  0  0  0
   -0.9982   -1.4635   -1.5988 C   0  0  0  0  0  0  0  0  0  0  0  0
    3.0949    0.3330    0.0123 C   0  0  0  0  0  0  0  0  0  0  0  0
   -2.0433    1.7054   -1.4191 C   0  0  0  0  0  0  0  0  0  0  0  0
    4.2121   -0.4719    0.6748 C   0  0  0  0  0  0  0  0  0  0  0  0
    3.2848    1.8267    0.2672 C   0  0  0  0  0  0  0  0  0  0  0  0
   -0.7386    0.2498    1.4595 H   0  0  0  0  0  0  0  0  0  0  0  0
    0.6843    0.8159   -1.1618 H   0  0  0  0  0  0  0  0  0  0  0  0
    0.7355    1.7834    0.3051 H   0  0  0  0  0  0  0  0  0  0  0  0
    1.6927   -0.0180    1.6021 H   0  0  0  0  0  0  0  0  0  0  0  0
   -0.0214   -3.1338    0.2824 H   0  0  0  0  0  0  0  0  0  0  0  0
    0.0073   -2.0507    1.6618 H   0  0  0  0  0  0  0  0  0  0  0  0
   -2.3455   -1.7484    1.5774 H   0  0  0  0  0  0  0  0  0  0  0  0
   -2.6239   -2.6975    0.1272 H   0  0  0  0  0  0  0  0  0  0  0  0
    2.2115   -2.2336    0.7389 H   0  0  0  0  0  0  0  0  0  0  0  0
    1.6746   -1.8144   -0.8783 H   0  0  0  0  0  0  0  0  0  0  0  0
   -4.1053    1.3326    0.2470 H   0  0  0  0  0  0  0  0  0  0  0  0
   -3.2800    0.7200    1.6531 H   0  0  0  0  0  0  0  0  0  0  0  0
   -3.7401   -0.7796   -0.9654 H   0  0  0  0  0  0  0  0  0  0  0  0
   -4.4648   -1.1046    0.5951 H   0  0  0  0  0  0  0  0  0  0  0  0
   -0.9733   -2.5391   -1.8131 H   0  0  0  0  0  0  0  0  0  0  0  0
   -1.8811   -1.0798   -2.1100 H   0  0  0  0  0  0  0  0  0  0  0  0
   -0.1237   -1.0210   -2.0826 H   0  0  0  0  0  0  0  0  0  0  0  0
   -1.0957    2.1102   -1.7886 H   0  0  0  0  0  0  0  0  0  0  0  0
   -2.3708    0.9171   -2.0956 H   0  0  0  0  0  0  0  0  0  0  0  0
   -2.7670    2.5255   -1.5075 H   0  0  0  0  0  0  0  0  0  0  0  0
   -0.9925    2.9652    0.3468 H   0  0  0  0  0  0  0  0  0  0  0  0
    5.1932   -0.0644    0.4018 H   0  0  0  0  0  0  0  0  0  0  0  0
    4.1344   -0.4539    1.7667 H   0  0  0  0  0  0  0  0  0  0  0  0
    4.2313   -1.5116    0.3325 H   0  0  0  0  0  0  0  0  0  0  0  0
    2.6712    2.4460   -0.3958 H   0  0  0  0  0  0  0  0  0  0  0  0
    4.3182    2.1230    0.0482 H   0  0  0  0  0  0  0  0  0  0  0  0
    3.0797    2.0929    1.3094 H   0  0  0  0  0  0  0  0  0  0  0  0
    4.0380    0.4141   -1.7044 H   0  0  0  0  0  0  0  0  0  0  0  0
  1  5  1  0  0  0  0
  1 38  1  0  0  0  0
  2 14  1  0  0  0  0
  2 45  1  0  0  0  0
  3  4  1  0  0  0  0
  3  8  1  0  0  0  0
  3  9  1  0  0  0  0
  3 13  1  0  0  0  0
  4  5  1  0  0  0  0
  4  6  1  0  0  0  0
  4 18  1  0  0  0  0
  5 11  1  0  0  0  0
  5 15  1  0  0  0  0
  6  7  1  0  0  0  0
  6 19  1  0  0  0  0
  6 20  1  0  0  0  0
  7 10  1  0  0  0  0
  7 14  1  0  0  0  0
  7 21  1  0  0  0  0
  8 10  1  0  0  0  0
  8 22  1  0  0  0  0
  8 23  1  0  0  0  0
  9 12  1  0  0  0  0
  9 24  1  0  0  0  0
  9 25  1  0  0  0  0
 10 26  1  0  0  0  0
 10 27  1  0  0  0  0
 11 12  1  0  0  0  0
 11 28  1  0  0  0  0
 11 29  1  0  0  0  0
 12 30  1  0  0  0  0
 12 31  1  0  0  0  0
 13 32  1  0  0  0  0
 13 33  1  0  0  0  0
 13 34  1  0  0  0  0
 14 16  1  0  0  0  0
 14 17  1  0  0  0  0
 15 35  1  0  0  0  0
 15 36  1  0  0  0  0
 15 37  1  0  0  0  0
 16 39  1  0  0  0  0
 16 40  1  0  0  0  0
 16 41  1  0  0  0  0
 17 42  1  0  0  0  0
 17 43  1  0  0  0  0
 17 44  1  0  0  0  0
M  END
> <PUBCHEM_COMPOUND_CID>
165258

> <PUBCHEM_CONFORMER_RMSD>
0.6

> <PUBCHEM_CONFORMER_DIVERSEORDER>
1
2
3

> <PUBCHEM_MMFF94_PARTIAL_CHARGES>
6
1 -0.68
14 0.28
2 -0.68
38 0.4
45 0.4
5 0.28

> <PUBCHEM_EFFECTIVE_ROTOR_COUNT>
2.6

> <PUBCHEM_PHARMACOPHORE_FEATURES>
7
1 1 acceptor
1 1 donor
1 2 acceptor
1 2 donor
3 14 16 17 hydrophobe
6 3 4 5 9 11 12 rings
6 3 4 6 7 8 10 rings

> <PUBCHEM_HEAVY_ATOM_COUNT>
17

> <PUBCHEM_ATOM_DEF_STEREO_COUNT>
4

> <PUBCHEM_ATOM_UDEF_STEREO_COUNT>
0

> <PUBCHEM_BOND_DEF_STEREO_COUNT>
0

> <PUBCHEM_BOND_UDEF_STEREO_COUNT>
0

> <PUBCHEM_ISOTOPIC_ATOM_COUNT>
0

> <PUBCHEM_COMPONENT_COUNT>
1

> <PUBCHEM_CACTVS_TAUTO_COUNT>
1

> <PUBCHEM_CONFORMER_ID>
0002858A00000001

> <PUBCHEM_MMFF94_ENERGY>
60.0815

> <PUBCHEM_FEATURE_SELFOVERLAP>
35.535

> <PUBCHEM_SHAPE_FINGERPRINT>
10608611 8 18411421721728403640
10922523 26 18187079572789596142
10967382 1 18339079259462579073
11132069 177 18410572864344348155
11715629 250 18336551525628426692
12077114 3 17559409147747237876
12173636 292 18342741788603128956
12186901 62 18339630217962327214
12403814 3 18060420222705271717
12491281 212 18340476871954085984
13024252 1 17989212525396256403
13140716 1 18195805163580690731
13221675 6 18410012126151657450
13380535 21 18338788034926216483
13380535 76 18411420639175365371
13581323 91 18410858763364174858
13764800 53 18412819183758729787
14223421 5 18342737437764613947
14289901 80 16558749018313686104
14614273 12 18272377498543940621
14787075 74 18057036909547163731
15196674 1 18411419475286246225
15309172 13 18261104193013427883
15442244 35 18195530517892273826
15490181 8 17756991469036809345
15536298 74 18262518216606945754
15775835 57 18409726287540648809
16945 1 18410568487904737139
17802600 8 18413396427489899520
18186145 218 18335699459951657096
18981168 100 17844815969274884742
19868273 325 18190747427330695191
200 152 18335152981229217823
20510252 161 18335980874413632712
20525323 117 18409735036325947967
21296965 12 18341618182456716221
21501502 16 18267304412075944643
21524375 3 18341894125399933674
22802520 49 18115011022158110406
22854114 111 18342176670023623352
2334 1 17691121539587207427
23402539 116 18335432243918066806
23419403 2 15585202798856881371
23463225 33 18272373104892818482
23557571 272 17978780217506880078
23559900 14 18261111903381739146
2748010 2 18267581501653643159
296302 2 14764342717436453327
350125 39 18269550701129941546
353137 74 18343029856365298667
43471831 8 18343022215619064051
474 4 16914242968089568220
5104073 3 18411418380080175096
69090 78 17967818231968518558
7097593 13 17843418520345940090
7364860 26 18192993948693474842
81228 2 18124878954064891410
9709674 26 18408036308405257438

> <PUBCHEM_SHAPE_MULTIPOLES>
338.11
6.24
2.28
1.11
3.9
0.27
-0.46
1
0.59
-0.79
0.09
-0.16
0.03
-0.03

> <PUBCHEM_SHAPE_SELFOVERLAP>
689.401

> <PUBCHEM_SHAPE_VOLUME>
195.6

> <PUBCHEM_COORDINATE_TYPE>
2
5
10

$$$$

