182658
  -OEChem-07051212563D

 38 40  0     1  0  0  0  0  0999 V2000
   -1.9687    1.8571    0.1892 N   0  0  1  0  0  0  0  0  0  0  0  0
    0.4021   -1.0430   -0.2771 N   0  0  0  0  0  0  0  0  0  0  0  0
   -1.6745    0.4505   -0.2385 C   0  0  1  0  0  0  0  0  0  0  0  0
   -0.1993    0.1767   -0.1329 C   0  0  0  0  0  0  0  0  0  0  0  0
    0.7853    1.1183    0.0731 C   0  0  0  0  0  0  0  0  0  0  0  0
    0.4437    2.5529    0.2409 C   0  0  0  0  0  0  0  0  0  0  0  0
   -0.9686    2.8294   -0.3164 C   0  0  0  0  0  0  0  0  0  0  0  0
    2.0361    0.4451    0.0858 C   0  0  0  0  0  0  0  0  0  0  0  0
    1.7675   -0.9099   -0.1355 C   0  0  0  0  0  0  0  0  0  0  0  0
   -2.4957   -0.5322    0.5521 C   0  0  0  0  0  0  0  0  0  0  0  0
   -3.3094    2.2742   -0.2409 C   0  0  0  0  0  0  0  0  0  0  0  0
    3.3746    0.8506    0.2595 C   0  0  0  0  0  0  0  0  0  0  0  0
    2.7761   -1.8787   -0.1905 C   0  0  0  0  0  0  0  0  0  0  0  0
   -2.9708   -1.7296    0.1605 C   0  0  0  0  0  0  0  0  0  0  0  0
    4.3921   -0.1088    0.2080 C   0  0  0  0  0  0  0  0  0  0  0  0
    4.0951   -1.4519   -0.0135 C   0  0  0  0  0  0  0  0  0  0  0  0
   -3.7881   -2.6634    1.0075 C   0  0  0  0  0  0  0  0  0  0  0  0
   -2.6975   -2.2375   -1.2312 C   0  0  0  0  0  0  0  0  0  0  0  0
   -1.9272    0.3901   -1.3048 H   0  0  0  0  0  0  0  0  0  0  0  0
    0.4778    2.8077    1.3072 H   0  0  0  0  0  0  0  0  0  0  0  0
    1.1719    3.1866   -0.2773 H   0  0  0  0  0  0  0  0  0  0  0  0
   -1.2494    3.8471   -0.0179 H   0  0  0  0  0  0  0  0  0  0  0  0
   -0.9450    2.8082   -1.4148 H   0  0  0  0  0  0  0  0  0  0  0  0
   -0.0723   -1.9179   -0.4508 H   0  0  0  0  0  0  0  0  0  0  0  0
   -2.7110   -0.2379    1.5802 H   0  0  0  0  0  0  0  0  0  0  0  0
   -4.0845    1.6266    0.1821 H   0  0  0  0  0  0  0  0  0  0  0  0
   -3.4115    2.2688   -1.3321 H   0  0  0  0  0  0  0  0  0  0  0  0
   -3.5288    3.2858    0.1190 H   0  0  0  0  0  0  0  0  0  0  0  0
    3.6217    1.8942    0.4323 H   0  0  0  0  0  0  0  0  0  0  0  0
    2.5467   -2.9247   -0.3643 H   0  0  0  0  0  0  0  0  0  0  0  0
    5.4257    0.1991    0.3420 H   0  0  0  0  0  0  0  0  0  0  0  0
    4.9012   -2.1803   -0.0504 H   0  0  0  0  0  0  0  0  0  0  0  0
   -3.9649   -2.2500    2.0059 H   0  0  0  0  0  0  0  0  0  0  0  0
   -4.7626   -2.8459    0.5436 H   0  0  0  0  0  0  0  0  0  0  0  0
   -3.2715   -3.6209    1.1285 H   0  0  0  0  0  0  0  0  0  0  0  0
   -2.2042   -3.2145   -1.1770 H   0  0  0  0  0  0  0  0  0  0  0  0
   -3.6435   -2.3667   -1.7686 H   0  0  0  0  0  0  0  0  0  0  0  0
   -2.0628   -1.5996   -1.8473 H   0  0  0  0  0  0  0  0  0  0  0  0
  1  3  1  0  0  0  0
  1  7  1  0  0  0  0
  1 11  1  0  0  0  0
  2  4  1  0  0  0  0
  2  9  1  0  0  0  0
  2 24  1  0  0  0  0
  3  4  1  0  0  0  0
  3 10  1  0  0  0  0
  3 19  1  0  0  0  0
  4  5  2  0  0  0  0
  5  6  1  0  0  0  0
  5  8  1  0  0  0  0
  6  7  1  0  0  0  0
  6 20  1  0  0  0  0
  6 21  1  0  0  0  0
  7 22  1  0  0  0  0
  7 23  1  0  0  0  0
  8  9  1  0  0  0  0
  8 12  2  0  0  0  0
  9 13  2  0  0  0  0
 10 14  2  0  0  0  0
 10 25  1  0  0  0  0
 11 26  1  0  0  0  0
 11 27  1  0  0  0  0
 11 28  1  0  0  0  0
 12 15  1  0  0  0  0
 12 29  1  0  0  0  0
 13 16  1  0  0  0  0
 13 30  1  0  0  0  0
 14 17  1  0  0  0  0
 14 18  1  0  0  0  0
 15 16  2  0  0  0  0
 15 31  1  0  0  0  0
 16 32  1  0  0  0  0
 17 33  1  0  0  0  0
 17 34  1  0  0  0  0
 17 35  1  0  0  0  0
 18 36  1  0  0  0  0
 18 37  1  0  0  0  0
 18 38  1  0  0  0  0
M  END
> <PUBCHEM_COMPOUND_CID>
182658

> <PUBCHEM_CONFORMER_RMSD>
0.6

> <PUBCHEM_CONFORMER_DIVERSEORDER>
2
10
3
11
9
4
5
6
8
1
7

> <PUBCHEM_MMFF94_PARTIAL_CHARGES>
23
1 -0.81
10 -0.29
11 0.27
12 -0.15
13 -0.15
14 -0.28
15 -0.15
16 -0.15
17 0.14
18 0.14
2 0.03
24 0.27
25 0.15
29 0.15
3 0.59
30 0.15
31 0.15
32 0.15
4 -0.33
5 -0.18
6 0.18
7 0.27
9 -0.15

> <PUBCHEM_EFFECTIVE_ROTOR_COUNT>
1.8

> <PUBCHEM_PHARMACOPHORE_FEATURES>
7
1 1 cation
1 2 cation
1 2 donor
3 14 17 18 hydrophobe
5 2 4 5 8 9 rings
6 1 3 4 5 6 7 rings
6 8 9 12 13 15 16 rings

> <PUBCHEM_HEAVY_ATOM_COUNT>
18

> <PUBCHEM_ATOM_DEF_STEREO_COUNT>
0

> <PUBCHEM_ATOM_UDEF_STEREO_COUNT>
1

> <PUBCHEM_BOND_DEF_STEREO_COUNT>
0

> <PUBCHEM_BOND_UDEF_STEREO_COUNT>
0

> <PUBCHEM_ISOTOPIC_ATOM_COUNT>
0

> <PUBCHEM_COMPONENT_COUNT>
1

> <PUBCHEM_CACTVS_TAUTO_COUNT>
1

> <PUBCHEM_CONFORMER_ID>
0002C98200000002

> <PUBCHEM_MMFF94_ENERGY>
36.6801

> <PUBCHEM_FEATURE_SELFOVERLAP>
35.696

> <PUBCHEM_SHAPE_FINGERPRINT>
10608611 8 18336833099489904336
10616163 171 18410009983205803750
10967382 1 18121500425594821812
11132069 177 18337958994959303056
11578080 2 17169574921213771217
11680986 33 18335996276425390321
12032990 46 18410289194924426002
12553582 1 18264768753220204774
13140716 1 18337674217046922048
13214271 11 18334864939168546140
13760787 19 18129375059512270310
138480 1 16033519276115075313
14115302 16 18198896088245447204
14178342 30 18341906237449989962
14223421 5 18407763620883739464
14787075 74 18057602054233745010
14790565 3 17187837620046294261
15042514 8 18340200911963251059
15196674 1 18410293631915513792
15475509 84 18043224913483284369
16945 1 18193561064622111844
17357779 13 18268166283189334271
19141452 34 18261106370820426619
19591789 44 16756052772219692836
20645477 70 17836944304166618591
21267235 1 18410565201975330134
21501502 16 18413101754036750020
221490 88 18409163333967675162
2334 1 18409730647011627398
23402539 116 18201725067887655226
23557571 272 18261947535622181918
23559900 14 18264774449195905226
2748010 2 18334862735649804772
3091708 16 9494972858161907529
3312278 4 18338234972309127560
335352 9 18049724310976206822
3421961 26 18051686643074612163
34934 24 18340773752920464865
352729 6 18190743235268476182
5104073 3 18336552698502639610
54173680 148 18339359772387857217
69090 78 18194968663002479853
81228 2 18341339941854493705
8809292 202 18267302208530627992
9709674 26 18190461756250259334

> <PUBCHEM_SHAPE_MULTIPOLES>
360.47
7.33
3.31
0.8
3.1
0.86
-0.04
-4.06
0.71
-2.98
-0.06
-0.49
-0.32
0.5

> <PUBCHEM_SHAPE_SELFOVERLAP>
775.365

> <PUBCHEM_SHAPE_VOLUME>
199

> <PUBCHEM_COORDINATE_TYPE>
2
5
10

$$$$

