46173772
  -OEChem-07051212543D

 32 33  0     1  0  0  0  0  0999 V2000
   -3.5358   -1.2167    0.0792 P   0  0  0  0  0  0  0  0  0  0  0  0
    0.1102    0.8824    1.0028 O   0  0  0  0  0  0  0  0  0  0  0  0
    0.1623    3.8282    0.1466 O   0  0  0  0  0  0  0  0  0  0  0  0
   -2.4715   -0.1141    0.6018 O   0  0  0  0  0  0  0  0  0  0  0  0
   -2.7328   -2.0046   -1.0825 O   0  0  0  0  0  0  0  0  0  0  0  0
   -4.6039   -0.3258   -0.7456 O   0  0  0  0  0  0  0  0  0  0  0  0
   -4.1276   -2.0840    1.1515 O   0  0  0  0  0  0  0  0  0  0  0  0
    2.1946   -0.0856    0.1692 N   0  3  0  0  0  0  0  0  0  0  0  0
    4.3546   -1.0859    0.0743 N   0  0  0  0  0  0  0  0  0  0  0  0
   -0.2009    2.6458   -0.5620 C   0  0  2  0  0  0  0  0  0  0  0  0
   -0.9140    1.6837    0.3794 C   0  0  1  0  0  0  0  0  0  0  0  0
    1.0607    1.8961   -0.9215 C   0  0  0  0  0  0  0  0  0  0  0  0
    1.3766    1.1639    0.3781 C   0  0  1  0  0  0  0  0  0  0  0  0
   -1.8667    0.7451   -0.3486 C   0  0  0  0  0  0  0  0  0  0  0  0
    1.5876   -1.2509   -0.0935 C   0  0  0  0  0  0  0  0  0  0  0  0
    3.5302   -0.0335    0.2447 C   0  0  0  0  0  0  0  0  0  0  0  0
    2.3504   -2.3921   -0.2846 C   0  0  0  0  0  0  0  0  0  0  0  0
    3.7263   -2.2520   -0.1895 C   0  0  0  0  0  0  0  0  0  0  0  0
   -0.7909    2.9420   -1.4340 H   0  0  0  0  0  0  0  0  0  0  0  0
   -1.4442    2.2037    1.1851 H   0  0  0  0  0  0  0  0  0  0  0  0
    0.8605    1.1792   -1.7259 H   0  0  0  0  0  0  0  0  0  0  0  0
    1.8904    2.5392   -1.2297 H   0  0  0  0  0  0  0  0  0  0  0  0
    1.9380    1.8022    1.0713 H   0  0  0  0  0  0  0  0  0  0  0  0
   -1.3294    0.1353   -1.0813 H   0  0  0  0  0  0  0  0  0  0  0  0
   -2.6407    1.3219   -0.8643 H   0  0  0  0  0  0  0  0  0  0  0  0
   -0.6615    4.2713    0.4128 H   0  0  0  0  0  0  0  0  0  0  0  0
    0.5079   -1.2634   -0.1591 H   0  0  0  0  0  0  0  0  0  0  0  0
    3.9867    0.9264    0.4526 H   0  0  0  0  0  0  0  0  0  0  0  0
    1.8921   -3.3490   -0.5010 H   0  0  0  0  0  0  0  0  0  0  0  0
    4.3802   -3.1066   -0.3293 H   0  0  0  0  0  0  0  0  0  0  0  0
   -3.1559   -2.7794   -1.5101 H   0  0  0  0  0  0  0  0  0  0  0  0
   -5.4133   -0.7570   -1.0936 H   0  0  0  0  0  0  0  0  0  0  0  0
  1  4  1  0  0  0  0
  1  5  1  0  0  0  0
  1  6  1  0  0  0  0
  1  7  2  0  0  0  0
  2 11  1  0  0  0  0
  2 13  1  0  0  0  0
  3 10  1  0  0  0  0
  3 26  1  0  0  0  0
  4 14  1  0  0  0  0
  5 31  1  0  0  0  0
  6 32  1  0  0  0  0
  8 13  1  0  0  0  0
  8 15  2  0  0  0  0
  8 16  1  0  0  0  0
  9 16  2  0  0  0  0
  9 18  1  0  0  0  0
 10 11  1  0  0  0  0
 10 12  1  0  0  0  0
 10 19  1  0  0  0  0
 11 14  1  0  0  0  0
 11 20  1  0  0  0  0
 12 13  1  0  0  0  0
 12 21  1  0  0  0  0
 12 22  1  0  0  0  0
 13 23  1  0  0  0  0
 14 24  1  0  0  0  0
 14 25  1  0  0  0  0
 15 17  1  0  0  0  0
 15 27  1  0  0  0  0
 16 28  1  0  0  0  0
 17 18  2  0  0  0  0
 17 29  1  0  0  0  0
 18 30  1  0  0  0  0
M  CHG  1   8   1
M  END
> <PUBCHEM_COMPOUND_CID>
46173772

> <PUBCHEM_CONFORMER_RMSD>
0.6

> <PUBCHEM_CONFORMER_DIVERSEORDER>
1
59
123
62
30
121
119
91
48
112
71
53
107
33
74
105
69
72
40
46
18
54
101
29
61
45
70
12
109
95
110
64
103
84
37
11
97
113
127
16
76
106
85
58
17
82
36
38
102
56
8
65
100
21
78
14
68
90
89
115
88
42
51
118
44
86
75
114
41
27
122
34
28
13
94
7
73
81
15
125
20
39
10
80
6
116
117
126
98
66
19
50
31
108
111
57
63
47
77
79
43
104
93
22
67
87
5
23
4
99
49
83
120
32
26
124
9
55
52
60
24
3
25
35
2
92
96

> <PUBCHEM_MMFF94_PARTIAL_CHARGES>
24
1 1.51
10 0.28
11 0.28
13 0.77
14 0.28
15 0.21
16 0.52
17 -0.15
18 0.16
2 -0.56
26 0.4
27 0.15
28 0.15
29 0.15
3 -0.68
30 0.15
31 0.5
32 0.5
4 -0.55
5 -0.77
6 -0.77
7 -0.7
8 -0.21
9 -0.62

> <PUBCHEM_EFFECTIVE_ROTOR_COUNT>
5

> <PUBCHEM_PHARMACOPHORE_FEATURES>
10
1 2 acceptor
1 3 acceptor
1 3 donor
1 5 acceptor
1 6 acceptor
1 7 acceptor
3 8 9 16 cation
4 1 5 6 7 anion
5 2 10 11 12 13 rings
6 8 9 15 16 17 18 rings

> <PUBCHEM_HEAVY_ATOM_COUNT>
18

> <PUBCHEM_ATOM_DEF_STEREO_COUNT>
3

> <PUBCHEM_ATOM_UDEF_STEREO_COUNT>
0

> <PUBCHEM_BOND_DEF_STEREO_COUNT>
0

> <PUBCHEM_BOND_UDEF_STEREO_COUNT>
0

> <PUBCHEM_ISOTOPIC_ATOM_COUNT>
0

> <PUBCHEM_COMPONENT_COUNT>
1

> <PUBCHEM_CACTVS_TAUTO_COUNT>
1

> <PUBCHEM_CONFORMER_ID>
02C08E4C00000001

> <PUBCHEM_MMFF94_ENERGY>
11.5417

> <PUBCHEM_FEATURE_SELFOVERLAP>
50.78

> <PUBCHEM_SHAPE_FINGERPRINT>
10616163 171 18193274319905561158
10618630 7 18409449210631652126
116883 192 18341055219581963405
12363563 72 18341886407222331555
12506688 2 18407761447382309328
12553582 1 18338501002288068559
12841375 25 18412545414027226841
13004483 165 18267033927683115427
13533116 47 18121491359747652643
14251705 54 18411979135331947183
14790565 3 17690561888470116348
15352361 1 18411419522705394827
15422964 175 18410578404746658404
17357779 13 18339658818212854895
17859628 97 16394927618214471698
19141452 34 18263920123912599025
19591789 44 17259330073617520564
20291156 8 18409729564579888871
20645477 70 18053959359484315783
20871999 31 18129387153839593333
21250096 35 18410295817537019719
21452121 199 18341902882970093160
21665056 4 17403457867163933884
221490 88 18199180698737882443
2255824 54 18050281462518478629
23402539 116 18131071584436881410
23530152 11 17331112798096118885
23557571 272 18266459987134996908
23559900 14 18265906937487673512
2871803 45 18341054124317777950
314173 41 18343582932436897899
3421961 26 18338514128019303337
46194498 28 17703515376890352645
6443956 14 18411983546453277333
7364860 26 18194683661757613361
81228 2 18127688438228707200
9709674 26 17901953272502693622

> <PUBCHEM_SHAPE_MULTIPOLES>
329.1
7.56
3.54
0.89
2.28
1.92
0.02
-7.3
-0.04
0.11
0.26
0.46
-0.06
0.3

> <PUBCHEM_SHAPE_SELFOVERLAP>
667.555

> <PUBCHEM_SHAPE_VOLUME>
193.4

> <PUBCHEM_COORDINATE_TYPE>
2
5
10

$$$$

