8022
  -OEChem-06261202333D

 10  9  0     0  0  0  0  0  0999 V2000
    2.2355   -0.2269    0.0046 O   0  0  0  0  0  0  0  0  0  0  0  0
    0.0094    0.5293   -0.0051 N   0  0  0  0  0  0  0  0  0  0  0  0
   -0.9921   -0.5363   -0.0060 C   0  0  0  0  0  0  0  0  0  0  0  0
   -2.3742    0.0835    0.0067 C   0  0  0  0  0  0  0  0  0  0  0  0
    1.1213    0.1504   -0.0002 C   0  0  0  0  0  0  0  0  0  0  0  0
   -0.8899   -1.1657   -0.8996 H   0  0  0  0  0  0  0  0  0  0  0  0
   -0.8798   -1.1786    0.8773 H   0  0  0  0  0  0  0  0  0  0  0  0
   -3.1440   -0.6941    0.0060 H   0  0  0  0  0  0  0  0  0  0  0  0
   -2.5157    0.7063    0.8963 H   0  0  0  0  0  0  0  0  0  0  0  0
   -2.5264    0.7187   -0.8723 H   0  0  0  0  0  0  0  0  0  0  0  0
  1  5  2  0  0  0  0
  2  3  1  0  0  0  0
  2  5  2  0  0  0  0
  3  4  1  0  0  0  0
  3  6  1  0  0  0  0
  3  7  1  0  0  0  0
  4  8  1  0  0  0  0
  4  9  1  0  0  0  0
  4 10  1  0  0  0  0
M  END
> <PUBCHEM_COMPOUND_CID>
8022

> <PUBCHEM_CONFORMER_RMSD>
0.4

> <PUBCHEM_CONFORMER_DIVERSEORDER>
1
4
3
2

> <PUBCHEM_MMFF94_PARTIAL_CHARGES>
4
1 -0.49
2 -0.55
3 0.25
5 0.79

> <PUBCHEM_EFFECTIVE_ROTOR_COUNT>
1

> <PUBCHEM_PHARMACOPHORE_FEATURES>
1
1 2 acceptor

> <PUBCHEM_HEAVY_ATOM_COUNT>
5

> <PUBCHEM_ATOM_DEF_STEREO_COUNT>
0

> <PUBCHEM_ATOM_UDEF_STEREO_COUNT>
0

> <PUBCHEM_BOND_DEF_STEREO_COUNT>
0

> <PUBCHEM_BOND_UDEF_STEREO_COUNT>
0

> <PUBCHEM_ISOTOPIC_ATOM_COUNT>
0

> <PUBCHEM_COMPONENT_COUNT>
1

> <PUBCHEM_CACTVS_TAUTO_COUNT>
1

> <PUBCHEM_CONFORMER_ID>
00001F5600000001

> <PUBCHEM_MMFF94_ENERGY>
0.2332

> <PUBCHEM_FEATURE_SELFOVERLAP>
5.074

> <PUBCHEM_SHAPE_FINGERPRINT>
139733 1 9223234048224669668
16714656 1 18131632296332357949
20096714 4 18342456993748670901
29004967 10 17489866037875237408
5460574 1 9223235147762619235

> <PUBCHEM_SHAPE_MULTIPOLES>
92.05
3.12
0.71
0.58
0.17
0.02
0
0.11
0.01
0.07
0
0.05
0
0

> <PUBCHEM_SHAPE_SELFOVERLAP>
162.837

> <PUBCHEM_SHAPE_VOLUME>
59.9

> <PUBCHEM_COORDINATE_TYPE>
2
5
10

$$$$

