53266
  -OEChem-07051213093D

 47 49  0     1  0  0  0  0  0999 V2000
   -3.4220    2.9243   -0.1660 O   0  0  0  0  0  0  0  0  0  0  0  0
   -0.8046    3.1554   -1.0678 O   0  0  0  0  0  0  0  0  0  0  0  0
    5.1440    2.1302   -0.3289 O   0  0  0  0  0  0  0  0  0  0  0  0
   -0.7428   -2.9901   -0.2436 N   0  3  0  0  0  0  0  0  0  0  0  0
    0.0014   -1.6158   -0.2620 C   0  0  1  0  0  0  0  0  0  0  0  0
   -1.8312   -2.9752    0.8331 C   0  0  0  0  0  0  0  0  0  0  0  0
   -0.9363   -0.4210   -0.2512 C   0  0  0  0  0  0  0  0  0  0  0  0
   -2.8489   -1.8654    0.5948 C   0  0  0  0  0  0  0  0  0  0  0  0
    0.9959   -1.4893    0.9049 C   0  0  0  0  0  0  0  0  0  0  0  0
   -2.2597   -0.5360    0.2059 C   0  0  0  0  0  0  0  0  0  0  0  0
    0.2081   -4.1585    0.0427 C   0  0  0  0  0  0  0  0  0  0  0  0
   -1.3489   -3.2634   -1.6315 C   0  0  0  0  0  0  0  0  0  0  0  0
   -0.4641    0.8315   -0.6789 C   0  0  0  0  0  0  0  0  0  0  0  0
    2.0985   -0.5271    0.5768 C   0  0  0  0  0  0  0  0  0  0  0  0
   -3.0842    0.6002    0.2237 C   0  0  0  0  0  0  0  0  0  0  0  0
   -1.2908    1.9537   -0.6499 C   0  0  0  0  0  0  0  0  0  0  0  0
   -2.6005    1.8386   -0.1962 C   0  0  0  0  0  0  0  0  0  0  0  0
    3.2587   -0.9911   -0.0328 C   0  0  0  0  0  0  0  0  0  0  0  0
    1.9507    0.8208    0.8853 C   0  0  0  0  0  0  0  0  0  0  0  0
    4.2843   -0.0961   -0.3378 C   0  0  0  0  0  0  0  0  0  0  0  0
    2.9761    1.7159    0.5803 C   0  0  0  0  0  0  0  0  0  0  0  0
    4.1430    1.2575   -0.0314 C   0  0  0  0  0  0  0  0  0  0  0  0
   -3.4266    3.7009    1.0305 C   0  0  0  0  0  0  0  0  0  0  0  0
    0.5467   -1.6239   -1.2161 H   0  0  0  0  0  0  0  0  0  0  0  0
   -1.3264   -2.8323    1.7959 H   0  0  0  0  0  0  0  0  0  0  0  0
   -2.3157   -3.9586    0.8396 H   0  0  0  0  0  0  0  0  0  0  0  0
   -3.4427   -1.7461    1.5097 H   0  0  0  0  0  0  0  0  0  0  0  0
   -3.5458   -2.1736   -0.1948 H   0  0  0  0  0  0  0  0  0  0  0  0
    1.4907   -2.4276    1.1638 H   0  0  0  0  0  0  0  0  0  0  0  0
    0.4894   -1.1750    1.8279 H   0  0  0  0  0  0  0  0  0  0  0  0
    0.4585   -4.1758    1.1064 H   0  0  0  0  0  0  0  0  0  0  0  0
   -0.3113   -5.0905   -0.2038 H   0  0  0  0  0  0  0  0  0  0  0  0
    1.0964   -4.0452   -0.5852 H   0  0  0  0  0  0  0  0  0  0  0  0
   -0.5267   -3.4018   -2.3404 H   0  0  0  0  0  0  0  0  0  0  0  0
   -1.9572   -4.1706   -1.5693 H   0  0  0  0  0  0  0  0  0  0  0  0
   -1.9631   -2.4145   -1.9391 H   0  0  0  0  0  0  0  0  0  0  0  0
    0.5127    0.9174   -1.1458 H   0  0  0  0  0  0  0  0  0  0  0  0
   -4.1154    0.5140    0.5600 H   0  0  0  0  0  0  0  0  0  0  0  0
    3.3787   -2.0425   -0.2793 H   0  0  0  0  0  0  0  0  0  0  0  0
    1.0799    1.1885    1.4208 H   0  0  0  0  0  0  0  0  0  0  0  0
    5.1879   -0.4658   -0.8150 H   0  0  0  0  0  0  0  0  0  0  0  0
    2.8657    2.7667    0.8341 H   0  0  0  0  0  0  0  0  0  0  0  0
    0.1253    3.0477   -1.3314 H   0  0  0  0  0  0  0  0  0  0  0  0
   -3.7623    3.0957    1.8786 H   0  0  0  0  0  0  0  0  0  0  0  0
   -4.1237    4.5325    0.8965 H   0  0  0  0  0  0  0  0  0  0  0  0
   -2.4303    4.1078    1.2300 H   0  0  0  0  0  0  0  0  0  0  0  0
    5.8737    1.6420   -0.7474 H   0  0  0  0  0  0  0  0  0  0  0  0
  1 17  1  0  0  0  0
  1 23  1  0  0  0  0
  2 16  1  0  0  0  0
  2 43  1  0  0  0  0
  3 22  1  0  0  0  0
  3 47  1  0  0  0  0
  4  5  1  0  0  0  0
  4  6  1  0  0  0  0
  4 11  1  0  0  0  0
  4 12  1  0  0  0  0
  5  7  1  0  0  0  0
  5  9  1  0  0  0  0
  5 24  1  0  0  0  0
  6  8  1  0  0  0  0
  6 25  1  0  0  0  0
  6 26  1  0  0  0  0
  7 10  1  0  0  0  0
  7 13  2  0  0  0  0
  8 10  1  0  0  0  0
  8 27  1  0  0  0  0
  8 28  1  0  0  0  0
  9 14  1  0  0  0  0
  9 29  1  0  0  0  0
  9 30  1  0  0  0  0
 10 15  2  0  0  0  0
 11 31  1  0  0  0  0
 11 32  1  0  0  0  0
 11 33  1  0  0  0  0
 12 34  1  0  0  0  0
 12 35  1  0  0  0  0
 12 36  1  0  0  0  0
 13 16  1  0  0  0  0
 13 37  1  0  0  0  0
 14 18  2  0  0  0  0
 14 19  1  0  0  0  0
 15 17  1  0  0  0  0
 15 38  1  0  0  0  0
 16 17  2  0  0  0  0
 18 20  1  0  0  0  0
 18 39  1  0  0  0  0
 19 21  2  0  0  0  0
 19 40  1  0  0  0  0
 20 22  2  0  0  0  0
 20 41  1  0  0  0  0
 21 22  1  0  0  0  0
 21 42  1  0  0  0  0
 23 44  1  0  0  0  0
 23 45  1  0  0  0  0
 23 46  1  0  0  0  0
M  CHG  1   4   1
M  END
> <PUBCHEM_COMPOUND_CID>
53266

> <PUBCHEM_CONFORMER_RMSD>
0.6

> <PUBCHEM_CONFORMER_DIVERSEORDER>
1
6
3
5
2
4
7

> <PUBCHEM_MMFF94_PARTIAL_CHARGES>
31
1 -0.36
10 -0.14
11 0.5
12 0.5
13 -0.15
14 -0.14
15 -0.15
16 0.08
17 0.08
18 -0.15
19 -0.15
2 -0.53
20 -0.15
21 -0.15
22 0.08
23 0.28
3 -0.53
37 0.15
38 0.15
39 0.15
4 -1.01
40 0.15
41 0.15
42 0.15
43 0.45
47 0.45
5 0.65
6 0.5
7 -0.14
8 0.14
9 0.14

> <PUBCHEM_EFFECTIVE_ROTOR_COUNT>
3.8

> <PUBCHEM_PHARMACOPHORE_FEATURES>
7
1 1 acceptor
1 2 donor
1 3 donor
1 4 cation
6 14 18 19 20 21 22 rings
6 4 5 6 7 8 10 rings
6 7 10 13 15 16 17 rings

> <PUBCHEM_HEAVY_ATOM_COUNT>
23

> <PUBCHEM_ATOM_DEF_STEREO_COUNT>
1

> <PUBCHEM_ATOM_UDEF_STEREO_COUNT>
0

> <PUBCHEM_BOND_DEF_STEREO_COUNT>
0

> <PUBCHEM_BOND_UDEF_STEREO_COUNT>
0

> <PUBCHEM_ISOTOPIC_ATOM_COUNT>
0

> <PUBCHEM_COMPONENT_COUNT>
1

> <PUBCHEM_CACTVS_TAUTO_COUNT>
6

> <PUBCHEM_CONFORMER_ID>
0000D01200000001

> <PUBCHEM_MMFF94_ENERGY>
93.7858

> <PUBCHEM_FEATURE_SELFOVERLAP>
35.54

> <PUBCHEM_SHAPE_FINGERPRINT>
10006869 2 18342185470660098171
10165383 225 18052804025765888164
10411042 1 17547008533608582106
10498660 4 18272097062875631476
10871710 139 18339927000382010599
10906281 52 18270666633324797955
10967382 1 17762905758909213683
1100329 8 17836644124443758107
11135609 187 18341349854834822253
12160290 23 18196400085302136185
12173636 292 18409736153096378036
12390115 104 18335966649587975736
12403260 363 18266477562051975355
12553582 1 17908150875824735842
12633257 1 17982739867556919505
12788726 201 18265913370821253051
13140716 1 18269273641400560907
138480 1 17114103820135221451
13878862 14 17187578672416118677
14081887 123 18119824512223701984
14787075 74 18188496878012395969
14790565 3 18338227284181355584
14955137 171 17764575535168480267
151778 21 18122903402242453872
15230672 131 18340760564384784862
18785283 64 17907011034332464891
19591789 44 18410856611364266810
20510252 161 18335980891762163931
20739085 24 17182498932525329162
21041028 32 17766829538294756139
21524375 3 18266753560844994419
22182937 141 18409726283214461896
23402539 116 18054799377835926762
23557571 272 18191575360140279252
23558518 356 18272367555668770282
23559900 14 17906457980020752999
238 59 17407438030558190597
23845131 108 18126277782760059041
2748010 2 18412259549720748215
283562 15 18410578353803487611
350125 39 18411699928235210002
458136 41 18049153664278191793
469060 322 16415205520349511183
474 4 18048602817790692929
5104073 3 18342181068466085872
5939293 188 17547016689677396907
633830 44 18044379550193487972
7097593 13 17628942289105977538
7364860 26 17688875654085985095
7808743 9 18340486677966445784
81228 2 18123208821635147563

> <PUBCHEM_SHAPE_MULTIPOLES>
450.74
7.06
5.04
1.02
7.47
1.34
0.1
-5.95
-0.41
-4.17
0.27
-0.29
0.17
-0.29

> <PUBCHEM_SHAPE_SELFOVERLAP>
964.727

> <PUBCHEM_SHAPE_VOLUME>
250.6

> <PUBCHEM_COORDINATE_TYPE>
2
5
10

$$$$

