439934
  -OEChem-07051212483D

 31 31  0     1  0  0  0  0  0999 V2000
   -2.6227   -0.0113    0.0168 P   0  0  0  0  0  0  0  0  0  0  0  0
   -1.2237   -0.0267   -0.7844 O   0  0  0  0  0  0  0  0  0  0  0  0
    3.2116    0.0205    0.7071 O   0  0  0  0  0  0  0  0  0  0  0  0
    0.9745    1.6173    1.6355 O   0  0  0  0  0  0  0  0  0  0  0  0
    1.8599    1.8713   -1.0895 O   0  0  0  0  0  0  0  0  0  0  0  0
   -3.5829   -0.9719   -0.8610 O   0  0  0  0  0  0  0  0  0  0  0  0
   -3.1893    1.4700   -0.2992 O   0  0  0  0  0  0  0  0  0  0  0  0
   -2.5290   -0.3565    1.4743 O   0  0  0  0  0  0  0  0  0  0  0  0
    0.0918   -1.9184    1.1541 N   0  0  0  0  0  0  0  0  0  0  0  0
    1.0619   -1.6702   -1.7731 N   0  0  0  0  0  0  0  0  0  0  0  0
    0.9862   -0.7651    1.2771 C   0  0  1  0  0  0  0  0  0  0  0  0
    1.8022   -0.5537   -1.1826 C   0  0  2  0  0  0  0  0  0  0  0  0
   -0.1936    0.8557   -0.3501 C   0  0  0  0  0  0  0  0  0  0  0  0
    2.1666   -0.8631    0.2852 C   0  0  0  0  0  0  0  0  0  0  0  0
    0.1904    0.5459    1.1075 C   0  0  2  0  0  0  0  0  0  0  0  0
    0.9961    0.7564   -1.3178 C   0  0  1  0  0  0  0  0  0  0  0  0
    1.4058   -0.7771    2.2915 H   0  0  0  0  0  0  0  0  0  0  0  0
    2.7351   -0.4319   -1.7483 H   0  0  0  0  0  0  0  0  0  0  0  0
   -0.5813    1.8814   -0.3943 H   0  0  0  0  0  0  0  0  0  0  0  0
    2.6016   -1.8694    0.3518 H   0  0  0  0  0  0  0  0  0  0  0  0
   -0.6561    0.5446    1.7818 H   0  0  0  0  0  0  0  0  0  0  0  0
    0.6372    0.8467   -2.3512 H   0  0  0  0  0  0  0  0  0  0  0  0
   -0.3143   -1.9433    0.2197 H   0  0  0  0  0  0  0  0  0  0  0  0
   -0.6904   -1.8174    1.7997 H   0  0  0  0  0  0  0  0  0  0  0  0
    1.6296   -2.5157   -1.7376 H   0  0  0  0  0  0  0  0  0  0  0  0
    0.8859   -1.4828   -2.7592 H   0  0  0  0  0  0  0  0  0  0  0  0
    1.7828    1.6945    1.1014 H   0  0  0  0  0  0  0  0  0  0  0  0
    1.3465    2.6808   -1.2533 H   0  0  0  0  0  0  0  0  0  0  0  0
    3.9669   -0.1097    0.1087 H   0  0  0  0  0  0  0  0  0  0  0  0
   -4.4882   -1.1630   -0.5355 H   0  0  0  0  0  0  0  0  0  0  0  0
   -4.0028    1.7740    0.1568 H   0  0  0  0  0  0  0  0  0  0  0  0
  1  2  1  0  0  0  0
  1  6  1  0  0  0  0
  1  7  1  0  0  0  0
  1  8  2  0  0  0  0
  2 13  1  0  0  0  0
  3 14  1  0  0  0  0
  3 29  1  0  0  0  0
  4 15  1  0  0  0  0
  4 27  1  0  0  0  0
  5 16  1  0  0  0  0
  5 28  1  0  0  0  0
  6 30  1  0  0  0  0
  7 31  1  0  0  0  0
  9 11  1  0  0  0  0
  9 23  1  0  0  0  0
  9 24  1  0  0  0  0
 10 12  1  0  0  0  0
 10 25  1  0  0  0  0
 10 26  1  0  0  0  0
 11 14  1  0  0  0  0
 11 15  1  0  0  0  0
 11 17  1  0  0  0  0
 12 14  1  0  0  0  0
 12 16  1  0  0  0  0
 12 18  1  0  0  0  0
 13 15  1  0  0  0  0
 13 16  1  0  0  0  0
 13 19  1  0  0  0  0
 14 20  1  0  0  0  0
 15 21  1  0  0  0  0
 16 22  1  0  0  0  0
M  END
> <PUBCHEM_COMPOUND_CID>
439934

> <PUBCHEM_CONFORMER_RMSD>
0.6

> <PUBCHEM_CONFORMER_DIVERSEORDER>
1
12
9
5
10
11
2
6
13
4
7
8
3

> <PUBCHEM_MMFF94_PARTIAL_CHARGES>
25
1 1.51
10 -0.99
11 0.27
12 0.27
13 0.28
14 0.28
15 0.28
16 0.28
2 -0.55
23 0.36
24 0.36
25 0.36
26 0.36
27 0.4
28 0.4
29 0.4
3 -0.68
30 0.5
31 0.5
4 -0.68
5 -0.68
6 -0.77
7 -0.77
8 -0.7
9 -0.99

> <PUBCHEM_EFFECTIVE_ROTOR_COUNT>
3.2

> <PUBCHEM_PHARMACOPHORE_FEATURES>
15
1 10 cation
1 10 donor
1 3 acceptor
1 3 donor
1 4 acceptor
1 4 donor
1 5 acceptor
1 5 donor
1 6 acceptor
1 7 acceptor
1 8 acceptor
1 9 cation
1 9 donor
4 1 6 7 8 anion
6 11 12 13 14 15 16 rings

> <PUBCHEM_HEAVY_ATOM_COUNT>
16

> <PUBCHEM_ATOM_DEF_STEREO_COUNT>
4

> <PUBCHEM_ATOM_UDEF_STEREO_COUNT>
0

> <PUBCHEM_BOND_DEF_STEREO_COUNT>
0

> <PUBCHEM_BOND_UDEF_STEREO_COUNT>
0

> <PUBCHEM_ISOTOPIC_ATOM_COUNT>
0

> <PUBCHEM_COMPONENT_COUNT>
1

> <PUBCHEM_CACTVS_TAUTO_COUNT>
1

> <PUBCHEM_CONFORMER_ID>
0006B67E00000001

> <PUBCHEM_MMFF94_ENERGY>
2.3362

> <PUBCHEM_FEATURE_SELFOVERLAP>
76.166

> <PUBCHEM_SHAPE_FINGERPRINT>
10219947 1 17240494614689123240
12423570 1 16824979017476654214
12491281 212 17560225938799693284
15775835 57 18408892858096157155
16945 1 18271798008671579166
18186145 218 15410600523716241102
23402539 116 18342182219343097614
23419403 2 15104434570421496931
2748010 2 17274242942929646331
5084963 1 18340216201936080943
528886 8 17632012047854530009

> <PUBCHEM_SHAPE_MULTIPOLES>
282.07
4.33
1.69
1.63
3.48
0.14
-0.1
-0.25
-0.3
-0.43
0.04
-0.33
-0.13
-0.07

> <PUBCHEM_SHAPE_SELFOVERLAP>
554.398

> <PUBCHEM_SHAPE_VOLUME>
170.2

> <PUBCHEM_COORDINATE_TYPE>
2
5
10

$$$$

