440881
  -OEChem-07051212512D

 67 69  0     1  0  0  0  0  0999 V2000
    5.1350    1.3874    0.0000 P   0  0  3  0  0  0  0  0  0  0  0  0
    6.0010   -0.1125    0.0000 P   0  0  3  0  0  0  0  0  0  0  0  0
    5.1350    3.3874    0.0000 O   0  0  0  0  0  0  0  0  0  0  0  0
    6.0580   -3.2003    0.0000 O   0  0  0  0  0  0  0  0  0  0  0  0
    2.5369    4.8874    0.0000 O   0  0  0  0  0  0  0  0  0  0  0  0
    4.2690    1.8874    0.0000 O   0  0  0  0  0  0  0  0  0  0  0  0
    2.5369    2.8874    0.0000 O   0  0  0  0  0  0  0  0  0  0  0  0
    8.6271   -2.8913    0.0000 O   0  0  0  0  0  0  0  0  0  0  0  0
    6.0010   -1.1126    0.0000 O   0  0  0  0  0  0  0  0  0  0  0  0
    6.0010    0.8875    0.0000 O   0  0  0  0  0  0  0  0  0  0  0  0
    4.6350    0.5214    0.0000 O   0  0  0  0  0  0  0  0  0  0  0  0
    6.0010    5.8874    0.0000 O   0  0  0  0  0  0  0  0  0  0  0  0
    5.6350    2.2535    0.0000 O   0  0  0  0  0  0  0  0  0  0  0  0
    7.1805   -5.9785    0.0000 O   0  0  0  0  0  0  0  0  0  0  0  0
    7.0010   -0.1125    0.0000 O   0  0  0  0  0  0  0  0  0  0  0  0
    5.0010   -0.1125    0.0000 O   0  0  0  0  0  0  0  0  0  0  0  0
    4.0159   -7.3874    0.0000 O   0  0  0  0  0  0  0  0  0  0  0  0
    4.2690    5.8874    0.0000 N   0  0  0  0  0  0  0  0  0  0  0  0
    5.7793   -4.9604    0.0000 N   0  0  0  0  0  0  0  0  0  0  0  0
    5.5982   -6.6830    0.0000 N   0  0  0  0  0  0  0  0  0  0  0  0
    4.2690    4.8874    0.0000 C   0  0  1  0  0  0  0  0  0  0  0  0
    3.4030    4.3874    0.0000 C   0  0  1  0  0  0  0  0  0  0  0  0
    5.1350    4.3874    0.0000 C   0  0  1  0  0  0  0  0  0  0  0  0
    3.4030    3.3874    0.0000 C   0  0  2  0  0  0  0  0  0  0  0  0
    7.6761   -3.2003    0.0000 C   0  0  2  0  0  0  0  0  0  0  0  0
    6.8671   -2.6126    0.0000 C   0  0  1  0  0  0  0  0  0  0  0  0
    7.3671   -4.1514    0.0000 C   0  0  0  0  0  0  0  0  0  0  0  0
    6.3671   -4.1514    0.0000 C   0  0  1  0  0  0  0  0  0  0  0  0
    4.2690    2.8874    0.0000 C   0  0  2  0  0  0  0  0  0  0  0  0
    6.8671   -1.6126    0.0000 C   0  0  0  0  0  0  0  0  0  0  0  0
    6.0010    4.8874    0.0000 C   0  0  0  0  0  0  0  0  0  0  0  0
    4.7848   -4.8559    0.0000 C   0  0  0  0  0  0  0  0  0  0  0  0
    5.1350    6.3874    0.0000 C   0  0  0  0  0  0  0  0  0  0  0  0
    6.1860   -5.8740    0.0000 C   0  0  0  0  0  0  0  0  0  0  0  0
    4.1970   -5.6649    0.0000 C   0  0  0  0  0  0  0  0  0  0  0  0
    5.1350    7.3874    0.0000 C   0  0  0  0  0  0  0  0  0  0  0  0
    4.6037   -6.5784    0.0000 C   0  0  0  0  0  0  0  0  0  0  0  0
    3.2024   -5.5604    0.0000 C   0  0  0  0  0  0  0  0  0  0  0  0
    4.8059    5.1974    0.0000 H   0  0  0  0  0  0  0  0  0  0  0  0
    3.4030    5.0075    0.0000 H   0  0  0  0  0  0  0  0  0  0  0  0
    5.6720    4.0775    0.0000 H   0  0  0  0  0  0  0  0  0  0  0  0
    3.4030    2.7675    0.0000 H   0  0  0  0  0  0  0  0  0  0  0  0
    8.1145   -3.6387    0.0000 H   0  0  0  0  0  0  0  0  0  0  0  0
    6.3146   -2.3311    0.0000 H   0  0  0  0  0  0  0  0  0  0  0  0
    7.3022   -4.7680    0.0000 H   0  0  0  0  0  0  0  0  0  0  0  0
    7.9735   -4.2803    0.0000 H   0  0  0  0  0  0  0  0  0  0  0  0
    5.7547   -4.0544    0.0000 H   0  0  0  0  0  0  0  0  0  0  0  0
    3.7320    2.5775    0.0000 H   0  0  0  0  0  0  0  0  0  0  0  0
    7.4776   -1.7202    0.0000 H   0  0  0  0  0  0  0  0  0  0  0  0
    7.0791   -1.0299    0.0000 H   0  0  0  0  0  0  0  0  0  0  0  0
    3.7320    6.1974    0.0000 H   0  0  0  0  0  0  0  0  0  0  0  0
    6.3110    4.3505    0.0000 H   0  0  0  0  0  0  0  0  0  0  0  0
    6.5380    5.1974    0.0000 H   0  0  0  0  0  0  0  0  0  0  0  0
    5.6910    5.4244    0.0000 H   0  0  0  0  0  0  0  0  0  0  0  0
    2.0000    4.5775    0.0000 H   0  0  0  0  0  0  0  0  0  0  0  0
    2.5369    2.2675    0.0000 H   0  0  0  0  0  0  0  0  0  0  0  0
    9.0879   -3.3062    0.0000 H   0  0  0  0  0  0  0  0  0  0  0  0
    4.5326   -4.2895    0.0000 H   0  0  0  0  0  0  0  0  0  0  0  0
    5.8504   -7.2494    0.0000 H   0  0  0  0  0  0  0  0  0  0  0  0
    5.7550    7.3874    0.0000 H   0  0  0  0  0  0  0  0  0  0  0  0
    5.1350    8.0074    0.0000 H   0  0  0  0  0  0  0  0  0  0  0  0
    4.5150    7.3874    0.0000 H   0  0  0  0  0  0  0  0  0  0  0  0
    3.2673   -4.9438    0.0000 H   0  0  0  0  0  0  0  0  0  0  0  0
    2.5858   -5.4956    0.0000 H   0  0  0  0  0  0  0  0  0  0  0  0
    3.1376   -6.1770    0.0000 H   0  0  0  0  0  0  0  0  0  0  0  0
    4.0150    0.5214    0.0000 H   0  0  0  0  0  0  0  0  0  0  0  0
    7.3110    0.4244    0.0000 H   0  0  0  0  0  0  0  0  0  0  0  0
  1  6  1  0  0  0  0
  1 10  1  0  0  0  0
  1 11  1  0  0  0  0
  1 13  2  0  0  0  0
  2  9  1  0  0  0  0
  2 10  1  0  0  0  0
  2 15  1  0  0  0  0
  2 16  2  0  0  0  0
  3 23  1  0  0  0  0
  3 29  1  0  0  0  0
  4 26  1  0  0  0  0
  4 28  1  0  0  0  0
 22  5  1  1  0  0  0
  5 55  1  0  0  0  0
 29  6  1  6  0  0  0
 24  7  1  6  0  0  0
  7 56  1  0  0  0  0
 25  8  1  1  0  0  0
  8 57  1  0  0  0  0
  9 30  1  0  0  0  0
 11 66  1  0  0  0  0
 12 33  2  0  0  0  0
 14 34  2  0  0  0  0
 15 67  1  0  0  0  0
 17 37  2  0  0  0  0
 21 18  1  6  0  0  0
 18 33  1  0  0  0  0
 18 51  1  0  0  0  0
 28 19  1  6  0  0  0
 19 32  1  0  0  0  0
 19 34  1  0  0  0  0
 20 34  1  0  0  0  0
 20 37  1  0  0  0  0
 20 59  1  0  0  0  0
 21 22  1  0  0  0  0
 21 23  1  0  0  0  0
 21 39  1  0  0  0  0
 22 24  1  0  0  0  0
 22 40  1  0  0  0  0
 23 31  1  1  0  0  0
 23 41  1  0  0  0  0
 24 29  1  0  0  0  0
 24 42  1  0  0  0  0
 25 26  1  0  0  0  0
 25 27  1  0  0  0  0
 25 43  1  0  0  0  0
 26 30  1  6  0  0  0
 26 44  1  0  0  0  0
 27 28  1  0  0  0  0
 27 45  1  0  0  0  0
 27 46  1  0  0  0  0
 28 47  1  0  0  0  0
 29 48  1  0  0  0  0
 30 49  1  0  0  0  0
 30 50  1  0  0  0  0
 31 52  1  0  0  0  0
 31 53  1  0  0  0  0
 31 54  1  0  0  0  0
 32 35  2  0  0  0  0
 32 58  1  0  0  0  0
 33 36  1  0  0  0  0
 35 37  1  0  0  0  0
 35 38  1  0  0  0  0
 36 60  1  0  0  0  0
 36 61  1  0  0  0  0
 36 62  1  0  0  0  0
 38 63  1  0  0  0  0
 38 64  1  0  0  0  0
 38 65  1  0  0  0  0
M  END
> <PUBCHEM_COMPOUND_CID>
440881

> <PUBCHEM_COMPOUND_CANONICALIZED>
1

> <PUBCHEM_CACTVS_COMPLEXITY>
1070

> <PUBCHEM_CACTVS_HBOND_ACCEPTOR>
15

> <PUBCHEM_CACTVS_HBOND_DONOR>
7

> <PUBCHEM_CACTVS_ROTATABLE_BOND>
9

> <PUBCHEM_CACTVS_SUBSKEYS>
AAADceB7PAMAAAAAAAAAAAAAAAAAASAAAAAkQAAAAAAAAAAAAAAAHgAQCCAADDzxgAcDCAPABxCIQgFWUICAAAAAAAAAAIEIAECTEAIAgQAPQAAPFyKXAMHwcAYAAAAAAAAAAAAAAAAAAAAAAAAAAAAAAA==

> <PUBCHEM_IUPAC_OPENEYE_NAME>
[(2R,3R,4S,5S,6R)-5-acetamido-3,4-dihydroxy-6-methyl-tetrahydropyran-2-yl] [hydroxy-[[(2R,3S,5R)-3-hydroxy-5-(5-methyl-2,4-dioxo-pyrimidin-1-yl)tetrahydrofuran-2-yl]methoxy]phosphoryl] hydrogen phosphate

> <PUBCHEM_IUPAC_CAS_NAME>
[(2R,3R,4S,5S,6R)-5-acetamido-3,4-dihydroxy-6-methyl-2-oxanyl] [hydroxy-[[(2R,3S,5R)-3-hydroxy-5-(5-methyl-2,4-dioxo-1-pyrimidinyl)-2-oxolanyl]methoxy]phosphoryl] hydrogen phosphate

> <PUBCHEM_IUPAC_NAME>
[(2R,3R,4S,5S,6R)-5-acetamido-3,4-dihydroxy-6-methyloxan-2-yl] [hydroxy-[[(2R,3S,5R)-3-hydroxy-5-(5-methyl-2,4-dioxopyrimidin-1-yl)oxolan-2-yl]methoxy]phosphoryl] hydrogen phosphate

> <PUBCHEM_IUPAC_SYSTEMATIC_NAME>
[(2R,3R,4S,5S,6R)-5-acetamido-6-methyl-3,4-bis(oxidanyl)oxan-2-yl] [[(2R,3S,5R)-5-[5-methyl-2,4-bis(oxidanylidene)pyrimidin-1-yl]-3-oxidanyl-oxolan-2-yl]methoxy-oxidanyl-phosphoryl] hydrogen phosphate

> <PUBCHEM_IUPAC_TRADITIONAL_NAME>
[(2R,3R,4S,5S,6R)-5-acetamido-3,4-dihydroxy-6-methyl-tetrahydropyran-2-yl] [[(2R,3S,5R)-5-(2,4-diketo-5-methyl-pyrimidin-1-yl)-3-hydroxy-tetrahydrofuran-2-yl]methoxy-hydroxy-phosphoryl] hydrogen phosphate

> <PUBCHEM_IUPAC_INCHI>
InChI=1S/C18H29N3O15P2/c1-7-5-21(18(27)20-16(7)26)12-4-10(23)11(34-12)6-32-37(28,29)36-38(30,31)35-17-15(25)14(24)13(8(2)33-17)19-9(3)22/h5,8,10-15,17,23-25H,4,6H2,1-3H3,(H,19,22)(H,28,29)(H,30,31)(H,20,26,27)/t8-,10+,11-,12-,13-,14+,15-,17-/m1/s1

> <PUBCHEM_IUPAC_INCHIKEY>
YHXQWYBLXUELDA-XGEGERJZSA-N

> <PUBCHEM_XLOGP3_AA>
-4.8

> <PUBCHEM_EXACT_MASS>
589.10739

> <PUBCHEM_MOLECULAR_FORMULA>
C18H29N3O15P2

> <PUBCHEM_MOLECULAR_WEIGHT>
589.381484

> <PUBCHEM_OPENEYE_CAN_SMILES>
CC1C(C(C(C(O1)OP(=O)(O)OP(=O)(O)OCC2C(CC(O2)N3C=C(C(=O)NC3=O)C)O)O)O)NC(=O)C

> <PUBCHEM_OPENEYE_ISO_SMILES>
C[C@@H]1[C@H]([C@@H]([C@H]([C@H](O1)OP(=O)(O)OP(=O)(O)OC[C@@H]2[C@H](C[C@@H](O2)N3C=C(C(=O)NC3=O)C)O)O)O)NC(=O)C

> <PUBCHEM_CACTVS_TPSA>
260

> <PUBCHEM_MONOISOTOPIC_WEIGHT>
589.10739

> <PUBCHEM_TOTAL_CHARGE>
0

> <PUBCHEM_HEAVY_ATOM_COUNT>
38

> <PUBCHEM_ATOM_DEF_STEREO_COUNT>
8

> <PUBCHEM_ATOM_UDEF_STEREO_COUNT>
0

> <PUBCHEM_BOND_DEF_STEREO_COUNT>
0

> <PUBCHEM_BOND_UDEF_STEREO_COUNT>
0

> <PUBCHEM_ISOTOPIC_ATOM_COUNT>
0

> <PUBCHEM_COMPONENT_COUNT>
1

> <PUBCHEM_CACTVS_TAUTO_COUNT>
6

> <PUBCHEM_COORDINATE_TYPE>
1
5
255

> <PUBCHEM_BONDANNOTATIONS>
21  18  6
28  19  6
19  32  8
19  34  8
20  34  8
20  37  8
23  31  5
26  30  6
32  35  8
35  37  8
22  5  5
29  6  6
24  7  6
25  8  5

$$$$

