14050
  -OEChem-06241222412D

 32 31  0     1  0  0  0  0  0999 V2000
    3.4030   -0.5670    0.0000 P   0  0  0  0  0  0  0  0  0  0  0  0
    4.2690   -0.0670    0.0000 O   0  0  0  0  0  0  0  0  0  0  0  0
    2.5369   -1.0670    0.0000 O   0  0  0  0  0  0  0  0  0  0  0  0
    2.9030    0.2990    0.0000 O   0  0  0  0  0  0  0  0  0  0  0  0
    3.9030   -1.4330    0.0000 O   0  0  0  0  0  0  0  0  0  0  0  0
    6.0010   -0.0670    0.0000 C   0  0  3  0  0  0  0  0  0  0  0  0
    6.8671   -0.5670    0.0000 C   0  0  0  0  0  0  0  0  0  0  0  0
    6.0010    0.9330    0.0000 C   0  0  0  0  0  0  0  0  0  0  0  0
    7.7331   -0.0670    0.0000 C   0  0  0  0  0  0  0  0  0  0  0  0
    5.1350   -0.5670    0.0000 C   0  0  0  0  0  0  0  0  0  0  0  0
    8.5991   -0.5670    0.0000 C   0  0  0  0  0  0  0  0  0  0  0  0
    6.8671    1.4330    0.0000 C   0  0  0  0  0  0  0  0  0  0  0  0
    9.4651   -0.0670    0.0000 C   0  0  0  0  0  0  0  0  0  0  0  0
    6.7372    0.3580    0.0000 H   0  0  0  0  0  0  0  0  0  0  0  0
    6.4685   -1.0419    0.0000 H   0  0  0  0  0  0  0  0  0  0  0  0
    7.2656   -1.0419    0.0000 H   0  0  0  0  0  0  0  0  0  0  0  0
    5.7890    1.5156    0.0000 H   0  0  0  0  0  0  0  0  0  0  0  0
    5.3905    0.8254    0.0000 H   0  0  0  0  0  0  0  0  0  0  0  0
    8.1316    0.4080    0.0000 H   0  0  0  0  0  0  0  0  0  0  0  0
    7.3346    0.4080    0.0000 H   0  0  0  0  0  0  0  0  0  0  0  0
    4.7365   -1.0419    0.0000 H   0  0  0  0  0  0  0  0  0  0  0  0
    5.5335   -1.0419    0.0000 H   0  0  0  0  0  0  0  0  0  0  0  0
    8.2006   -1.0419    0.0000 H   0  0  0  0  0  0  0  0  0  0  0  0
    8.9976   -1.0419    0.0000 H   0  0  0  0  0  0  0  0  0  0  0  0
    7.1771    0.8961    0.0000 H   0  0  0  0  0  0  0  0  0  0  0  0
    7.4040    1.7430    0.0000 H   0  0  0  0  0  0  0  0  0  0  0  0
    6.5571    1.9700    0.0000 H   0  0  0  0  0  0  0  0  0  0  0  0
    9.7751   -0.6039    0.0000 H   0  0  0  0  0  0  0  0  0  0  0  0
   10.0021    0.2430    0.0000 H   0  0  0  0  0  0  0  0  0  0  0  0
    9.1551    0.4699    0.0000 H   0  0  0  0  0  0  0  0  0  0  0  0
    3.2130    0.8360    0.0000 H   0  0  0  0  0  0  0  0  0  0  0  0
    2.0000   -0.7570    0.0000 H   0  0  0  0  0  0  0  0  0  0  0  0
  1  2  1  0  0  0  0
  1  3  1  0  0  0  0
  1  4  1  0  0  0  0
  1  5  2  0  0  0  0
  2 10  1  0  0  0  0
  3 32  1  0  0  0  0
  4 31  1  0  0  0  0
  6  7  1  0  0  0  0
  6  8  1  0  0  0  0
  6 10  1  0  0  0  0
  6 14  1  0  0  0  0
  7  9  1  0  0  0  0
  7 15  1  0  0  0  0
  7 16  1  0  0  0  0
  8 12  1  0  0  0  0
  8 17  1  0  0  0  0
  8 18  1  0  0  0  0
  9 11  1  0  0  0  0
  9 19  1  0  0  0  0
  9 20  1  0  0  0  0
 10 21  1  0  0  0  0
 10 22  1  0  0  0  0
 11 13  1  0  0  0  0
 11 23  1  0  0  0  0
 11 24  1  0  0  0  0
 12 25  1  0  0  0  0
 12 26  1  0  0  0  0
 12 27  1  0  0  0  0
 13 28  1  0  0  0  0
 13 29  1  0  0  0  0
 13 30  1  0  0  0  0
M  END
> <PUBCHEM_COMPOUND_CID>
14050

> <PUBCHEM_COMPOUND_CANONICALIZED>
1

> <PUBCHEM_CACTVS_COMPLEXITY>
166

> <PUBCHEM_CACTVS_HBOND_ACCEPTOR>
4

> <PUBCHEM_CACTVS_HBOND_DONOR>
2

> <PUBCHEM_CACTVS_ROTATABLE_BOND>
7

> <PUBCHEM_CACTVS_SUBSKEYS>
AAADceBwOAIAAAAAAAAAAAAAAAAAAAAAAAAAAAAAAAAAAAAAAAAAGgAACCAADQCggAICAAAAARAAQAAAAIAAAAAAAAAAAAAAAAAAAAIAAAAAAAAEAAAAAAGAwAAOAAAAAAAAAAAAAAAAAAAAAAAAAAAAAA==

> <PUBCHEM_IUPAC_OPENEYE_NAME>
2-ethylhexyl dihydrogen phosphate

> <PUBCHEM_IUPAC_CAS_NAME>
2-ethylhexyl dihydrogen phosphate

> <PUBCHEM_IUPAC_NAME>
2-ethylhexyl dihydrogen phosphate

> <PUBCHEM_IUPAC_SYSTEMATIC_NAME>
2-ethylhexyl dihydrogen phosphate

> <PUBCHEM_IUPAC_TRADITIONAL_NAME>
2-ethylhexyl dihydrogen phosphate

> <PUBCHEM_IUPAC_INCHI>
InChI=1S/C8H19O4P/c1-3-5-6-8(4-2)7-12-13(9,10)11/h8H,3-7H2,1-2H3,(H2,9,10,11)

> <PUBCHEM_IUPAC_INCHIKEY>
LJKDOMVGKKPJBH-UHFFFAOYSA-N

> <PUBCHEM_XLOGP3_AA>
1.6

> <PUBCHEM_EXACT_MASS>
210.102096

> <PUBCHEM_MOLECULAR_FORMULA>
C8H19O4P

> <PUBCHEM_MOLECULAR_WEIGHT>
210.207822

> <PUBCHEM_OPENEYE_CAN_SMILES>
CCCCC(CC)COP(=O)(O)O

> <PUBCHEM_OPENEYE_ISO_SMILES>
CCCCC(CC)COP(=O)(O)O

> <PUBCHEM_CACTVS_TPSA>
66.8

> <PUBCHEM_MONOISOTOPIC_WEIGHT>
210.102096

> <PUBCHEM_TOTAL_CHARGE>
0

> <PUBCHEM_HEAVY_ATOM_COUNT>
13

> <PUBCHEM_ATOM_DEF_STEREO_COUNT>
0

> <PUBCHEM_ATOM_UDEF_STEREO_COUNT>
1

> <PUBCHEM_BOND_DEF_STEREO_COUNT>
0

> <PUBCHEM_BOND_UDEF_STEREO_COUNT>
0

> <PUBCHEM_ISOTOPIC_ATOM_COUNT>
0

> <PUBCHEM_COMPONENT_COUNT>
1

> <PUBCHEM_CACTVS_TAUTO_COUNT>
1

> <PUBCHEM_COORDINATE_TYPE>
1
5
255

> <PUBCHEM_BONDANNOTATIONS>
6  14  3

$$$$

