5282365
  -OEChem-07051213043D

 48 51  0     1  0  0  0  0  0999 V2000
    5.1722   -0.8956    0.4018 O   0  0  0  0  0  0  0  0  0  0  0  0
    0.1502   -2.6831   -0.3150 O   0  0  0  0  0  0  0  0  0  0  0  0
   -5.6097    0.3030    0.9581 O   0  0  0  0  0  0  0  0  0  0  0  0
    1.9873    0.8804    0.3517 C   0  0  2  0  0  0  0  0  0  0  0  0
    2.7770   -0.4137    0.0717 C   0  0  1  0  0  0  0  0  0  0  0  0
    0.6086    0.8848   -0.3195 C   0  0  1  0  0  0  0  0  0  0  0  0
   -0.2256   -0.3175    0.2195 C   0  0  1  0  0  0  0  0  0  0  0  0
   -1.6795   -0.3778   -0.3818 C   0  0  2  0  0  0  0  0  0  0  0  0
    4.0956   -0.0623    0.7857 C   0  0  2  0  0  0  0  0  0  0  0  0
    2.9802    1.9871    0.0016 C   0  0  0  0  0  0  0  0  0  0  0  0
    2.0140   -1.5857    0.6879 C   0  0  0  0  0  0  0  0  0  0  0  0
   -0.1320    2.2007   -0.0549 C   0  0  0  0  0  0  0  0  0  0  0  0
    4.3477    1.4078    0.4035 C   0  0  0  0  0  0  0  0  0  0  0  0
    0.5992   -1.6247    0.1212 C   0  0  0  0  0  0  0  0  0  0  0  0
   -2.3358    1.0079   -0.2593 C   0  0  0  0  0  0  0  0  0  0  0  0
   -1.5101    2.1932   -0.7010 C   0  0  0  0  0  0  0  0  0  0  0  0
    3.0281   -0.7079   -1.4294 C   0  0  0  0  0  0  0  0  0  0  0  0
   -2.5087   -1.4183    0.4284 C   0  0  0  0  0  0  0  0  0  0  0  0
   -1.6782   -0.7643   -1.8783 C   0  0  0  0  0  0  0  0  0  0  0  0
   -4.0095   -1.3108    0.2073 C   0  0  0  0  0  0  0  0  0  0  0  0
   -3.5867    1.2135    0.1864 C   0  0  0  0  0  0  0  0  0  0  0  0
   -4.4846    0.0835    0.5145 C   0  0  0  0  0  0  0  0  0  0  0  0
    1.8153    0.9563    1.4386 H   0  0  0  0  0  0  0  0  0  0  0  0
    0.7422    0.7873   -1.4028 H   0  0  0  0  0  0  0  0  0  0  0  0
   -0.3416   -0.1612    1.3045 H   0  0  0  0  0  0  0  0  0  0  0  0
    3.9838   -0.1351    1.8751 H   0  0  0  0  0  0  0  0  0  0  0  0
    2.7669    2.9143    0.5433 H   0  0  0  0  0  0  0  0  0  0  0  0
    2.9639    2.2179   -1.0694 H   0  0  0  0  0  0  0  0  0  0  0  0
    1.9330   -1.4933    1.7771 H   0  0  0  0  0  0  0  0  0  0  0  0
    2.5148   -2.5370    0.4752 H   0  0  0  0  0  0  0  0  0  0  0  0
    0.4397    3.0451   -0.4572 H   0  0  0  0  0  0  0  0  0  0  0  0
   -0.2302    2.3691    1.0254 H   0  0  0  0  0  0  0  0  0  0  0  0
    5.0669    1.5012   -0.4181 H   0  0  0  0  0  0  0  0  0  0  0  0
    4.7676    1.9524    1.2566 H   0  0  0  0  0  0  0  0  0  0  0  0
   -1.4043    2.1668   -1.7926 H   0  0  0  0  0  0  0  0  0  0  0  0
   -2.0123    3.1396   -0.4653 H   0  0  0  0  0  0  0  0  0  0  0  0
    3.5695    0.1009   -1.9295 H   0  0  0  0  0  0  0  0  0  0  0  0
    3.6241   -1.6199   -1.5515 H   0  0  0  0  0  0  0  0  0  0  0  0
    2.0986   -0.8657   -1.9850 H   0  0  0  0  0  0  0  0  0  0  0  0
   -2.3136   -1.2846    1.5018 H   0  0  0  0  0  0  0  0  0  0  0  0
   -2.2040   -2.4417    0.1857 H   0  0  0  0  0  0  0  0  0  0  0  0
   -1.0033   -0.1366   -2.4682 H   0  0  0  0  0  0  0  0  0  0  0  0
   -1.3742   -1.8035   -2.0340 H   0  0  0  0  0  0  0  0  0  0  0  0
   -2.6758   -0.6583   -2.3208 H   0  0  0  0  0  0  0  0  0  0  0  0
   -4.5220   -2.0082    0.8792 H   0  0  0  0  0  0  0  0  0  0  0  0
   -4.2892   -1.5607   -0.8209 H   0  0  0  0  0  0  0  0  0  0  0  0
   -4.0093    2.2093    0.2692 H   0  0  0  0  0  0  0  0  0  0  0  0
    4.9331   -1.8084    0.6359 H   0  0  0  0  0  0  0  0  0  0  0  0
  1  9  1  0  0  0  0
  1 48  1  0  0  0  0
  2 14  2  0  0  0  0
  3 22  2  0  0  0  0
  4  5  1  0  0  0  0
  4  6  1  0  0  0  0
  4 10  1  0  0  0  0
  4 23  1  0  0  0  0
  5  9  1  0  0  0  0
  5 11  1  0  0  0  0
  5 17  1  0  0  0  0
  6  7  1  0  0  0  0
  6 12  1  0  0  0  0
  6 24  1  0  0  0  0
  7  8  1  0  0  0  0
  7 14  1  0  0  0  0
  7 25  1  0  0  0  0
  8 15  1  0  0  0  0
  8 18  1  0  0  0  0
  8 19  1  0  0  0  0
  9 13  1  0  0  0  0
  9 26  1  0  0  0  0
 10 13  1  0  0  0  0
 10 27  1  0  0  0  0
 10 28  1  0  0  0  0
 11 14  1  0  0  0  0
 11 29  1  0  0  0  0
 11 30  1  0  0  0  0
 12 16  1  0  0  0  0
 12 31  1  0  0  0  0
 12 32  1  0  0  0  0
 13 33  1  0  0  0  0
 13 34  1  0  0  0  0
 15 16  1  0  0  0  0
 15 21  2  0  0  0  0
 16 35  1  0  0  0  0
 16 36  1  0  0  0  0
 17 37  1  0  0  0  0
 17 38  1  0  0  0  0
 17 39  1  0  0  0  0
 18 20  1  0  0  0  0
 18 40  1  0  0  0  0
 18 41  1  0  0  0  0
 19 42  1  0  0  0  0
 19 43  1  0  0  0  0
 19 44  1  0  0  0  0
 20 22  1  0  0  0  0
 20 45  1  0  0  0  0
 20 46  1  0  0  0  0
 21 22  1  0  0  0  0
 21 47  1  0  0  0  0
M  END
> <PUBCHEM_COMPOUND_CID>
5282365

> <PUBCHEM_CONFORMER_RMSD>
0.6

> <PUBCHEM_CONFORMER_DIVERSEORDER>
1

> <PUBCHEM_MMFF94_PARTIAL_CHARGES>
15
1 -0.68
11 0.06
14 0.45
15 -0.28
16 0.14
2 -0.57
20 0.06
21 -0.14
22 0.49
3 -0.57
47 0.15
48 0.4
7 0.06
8 0.14
9 0.28

> <PUBCHEM_EFFECTIVE_ROTOR_COUNT>
1.6

> <PUBCHEM_PHARMACOPHORE_FEATURES>
8
1 1 acceptor
1 1 donor
1 2 acceptor
1 3 acceptor
5 4 5 9 10 13 rings
6 4 5 6 7 11 14 rings
6 6 7 8 12 15 16 rings
6 8 15 18 20 21 22 rings

> <PUBCHEM_HEAVY_ATOM_COUNT>
22

> <PUBCHEM_ATOM_DEF_STEREO_COUNT>
6

> <PUBCHEM_ATOM_UDEF_STEREO_COUNT>
0

> <PUBCHEM_BOND_DEF_STEREO_COUNT>
0

> <PUBCHEM_BOND_UDEF_STEREO_COUNT>
0

> <PUBCHEM_ISOTOPIC_ATOM_COUNT>
0

> <PUBCHEM_COMPONENT_COUNT>
1

> <PUBCHEM_CACTVS_TAUTO_COUNT>
15

> <PUBCHEM_CONFORMER_ID>
00509A3D00000001

> <PUBCHEM_MMFF94_ENERGY>
68.673

> <PUBCHEM_FEATURE_SELFOVERLAP>
40.693

> <PUBCHEM_SHAPE_FINGERPRINT>
10493431 412 18335984155863722009
10616163 171 18411983589370957467
10967382 1 18411702084134381296
11132069 177 18413387631512915257
11578080 2 16484736638567573191
12011746 2 18412828006196438693
12236239 1 17967535653733676403
12251169 10 18410853261737987009
12403259 226 18341902939094805100
12403259 415 18411145740416109440
12403814 3 18335428958632095181
12553582 1 18341906202684192801
12592029 89 18410570721003037650
12596599 1 18042103428069493915
12633257 1 18272082790989444523
12788726 201 17894897530389159000
13140716 1 18339923701678068843
13214271 11 18411142433158942143
13221675 6 18410014368155961677
13224815 77 18413394228192324317
13583140 156 16629149614185270256
13675066 3 18186804660227209258
14178342 30 18122068864712048896
14223421 5 18269556220358037221
14289901 80 15913335710004906302
14341114 176 18342736325631666104
14787075 74 18337954472131854489
14790565 3 18196362628703359725
15196674 1 18411702054016862816
15209289 33 18411141307423901403
15309172 13 18411704278989406547
15536298 74 18334573538147835396
16945 1 18194686088308270333
17349148 13 17346882260397094008
1813 80 17060334124219692573
18186145 218 18410860962361115340
19141452 34 18114180813612049687
19591789 44 18411421670083327002
19784866 170 18412259554136781427
200 152 18261686883021507671
20028762 73 18116711803755053839
20261772 1 18408888420962319738
20510252 161 18334013916789216321
21267235 1 18341324561022543387
21421861 104 17987242311832897442
22182313 1 18264771145553437972
22854114 59 18411135840268072281
23184049 59 18408601440032785805
23227448 37 18335140856441797087
2334 1 18338805511243108964
23402539 116 18261966162943005702
23559900 14 18266464402324784994
2748010 2 18411428301475960900
296302 2 14779269691626939784
335352 9 18411983593454954444
34934 24 18411989083056141645
350125 39 18411980273962686208
465052 167 17846204532739426665
5104073 3 18410857616207026624
633830 44 18333448733447149686
7097593 13 17340142434307572139
9709674 26 18411134740471925986

> <PUBCHEM_SHAPE_MULTIPOLES>
435.14
9.15
2.29
1.04
1.29
0.16
0.39
0.33
-2.54
-0.25
0.11
0.1
-0.18
0.1

> <PUBCHEM_SHAPE_SELFOVERLAP>
940.947

> <PUBCHEM_SHAPE_VOLUME>
236.7

> <PUBCHEM_COORDINATE_TYPE>
2
5
10

$$$$

