442750
  -OEChem-07051212592D

 43 45  0     0  0  0  0  0  0999 V2000
    7.2785    1.8592    0.0000 O   0  0  0  0  0  0  0  0  0  0  0  0
    9.0602   -1.1995    0.0000 O   0  0  0  0  0  0  0  0  0  0  0  0
    5.5301    1.8246    0.0000 O   0  0  0  0  0  0  0  0  0  0  0  0
    5.5301   -2.1754    0.0000 O   0  0  0  0  0  0  0  0  0  0  0  0
    3.7817    1.8592    0.0000 O   0  0  0  0  0  0  0  0  0  0  0  0
    6.3961    0.3246    0.0000 C   0  0  0  0  0  0  0  0  0  0  0  0
    6.3961   -0.6754    0.0000 C   0  0  0  0  0  0  0  0  0  0  0  0
    4.6641    0.3246    0.0000 C   0  0  0  0  0  0  0  0  0  0  0  0
    4.6641   -0.6754    0.0000 C   0  0  0  0  0  0  0  0  0  0  0  0
    8.1962    0.3454    0.0000 C   0  0  0  0  0  0  0  0  0  0  0  0
    7.2901    0.8593    0.0000 C   0  0  0  0  0  0  0  0  0  0  0  0
    5.5301    0.8246    0.0000 C   0  0  0  0  0  0  0  0  0  0  0  0
    5.5301   -1.1754    0.0000 C   0  0  0  0  0  0  0  0  0  0  0  0
    7.2901   -1.2100    0.0000 C   0  0  0  0  0  0  0  0  0  0  0  0
    8.1962   -0.6962    0.0000 C   0  0  0  0  0  0  0  0  0  0  0  0
    9.0602    0.8488    0.0000 C   0  0  0  0  0  0  0  0  0  0  0  0
    3.7702   -1.2100    0.0000 C   0  0  0  0  0  0  0  0  0  0  0  0
    3.7702    0.8593    0.0000 C   0  0  0  0  0  0  0  0  0  0  0  0
    2.8641   -0.6962    0.0000 C   0  0  0  0  0  0  0  0  0  0  0  0
    2.8641    0.3454    0.0000 C   0  0  0  0  0  0  0  0  0  0  0  0
    9.9282    0.3521    0.0000 C   0  0  0  0  0  0  0  0  0  0  0  0
    2.0000   -1.1995    0.0000 C   0  0  0  0  0  0  0  0  0  0  0  0
   10.7923    0.8554    0.0000 C   0  0  0  0  0  0  0  0  0  0  0  0
   11.6602    0.3588    0.0000 C   0  0  0  0  0  0  0  0  0  0  0  0
   10.7884    1.8554    0.0000 C   0  0  0  0  0  0  0  0  0  0  0  0
    7.2829   -1.8300    0.0000 H   0  0  0  0  0  0  0  0  0  0  0  0
    9.4570    1.3252    0.0000 H   0  0  0  0  0  0  0  0  0  0  0  0
    8.6599    1.3222    0.0000 H   0  0  0  0  0  0  0  0  0  0  0  0
    3.7773   -1.8300    0.0000 H   0  0  0  0  0  0  0  0  0  0  0  0
    2.3284    0.6575    0.0000 H   0  0  0  0  0  0  0  0  0  0  0  0
    9.9306   -0.2679    0.0000 H   0  0  0  0  0  0  0  0  0  0  0  0
    1.6879   -0.6638    0.0000 H   0  0  0  0  0  0  0  0  0  0  0  0
    1.4643   -1.5116    0.0000 H   0  0  0  0  0  0  0  0  0  0  0  0
    2.3121   -1.7353    0.0000 H   0  0  0  0  0  0  0  0  0  0  0  0
    7.8118    2.1754    0.0000 H   0  0  0  0  0  0  0  0  0  0  0  0
    9.0579   -1.8195    0.0000 H   0  0  0  0  0  0  0  0  0  0  0  0
    3.2484    2.1754    0.0000 H   0  0  0  0  0  0  0  0  0  0  0  0
   11.3523   -0.1794    0.0000 H   0  0  0  0  0  0  0  0  0  0  0  0
   12.1984    0.0508    0.0000 H   0  0  0  0  0  0  0  0  0  0  0  0
   11.9682    0.8969    0.0000 H   0  0  0  0  0  0  0  0  0  0  0  0
   11.4084    1.8578    0.0000 H   0  0  0  0  0  0  0  0  0  0  0  0
   10.7860    2.4754    0.0000 H   0  0  0  0  0  0  0  0  0  0  0  0
   10.1684    1.8530    0.0000 H   0  0  0  0  0  0  0  0  0  0  0  0
  1 11  1  0  0  0  0
  1 35  1  0  0  0  0
  2 15  1  0  0  0  0
  2 36  1  0  0  0  0
  3 12  2  0  0  0  0
  4 13  2  0  0  0  0
  5 18  1  0  0  0  0
  5 37  1  0  0  0  0
  6  7  1  0  0  0  0
  6 11  2  0  0  0  0
  6 12  1  0  0  0  0
  7 13  1  0  0  0  0
  7 14  2  0  0  0  0
  8  9  2  0  0  0  0
  8 12  1  0  0  0  0
  8 18  1  0  0  0  0
  9 13  1  0  0  0  0
  9 17  1  0  0  0  0
 10 11  1  0  0  0  0
 10 15  2  0  0  0  0
 10 16  1  0  0  0  0
 14 15  1  0  0  0  0
 14 26  1  0  0  0  0
 16 21  1  0  0  0  0
 16 27  1  0  0  0  0
 16 28  1  0  0  0  0
 17 19  2  0  0  0  0
 17 29  1  0  0  0  0
 18 20  2  0  0  0  0
 19 20  1  0  0  0  0
 19 22  1  0  0  0  0
 20 30  1  0  0  0  0
 21 23  2  0  0  0  0
 21 31  1  0  0  0  0
 22 32  1  0  0  0  0
 22 33  1  0  0  0  0
 22 34  1  0  0  0  0
 23 24  1  0  0  0  0
 23 25  1  0  0  0  0
 24 38  1  0  0  0  0
 24 39  1  0  0  0  0
 24 40  1  0  0  0  0
 25 41  1  0  0  0  0
 25 42  1  0  0  0  0
 25 43  1  0  0  0  0
M  END
> <PUBCHEM_COMPOUND_CID>
442750

> <PUBCHEM_COMPOUND_CANONICALIZED>
1

> <PUBCHEM_CACTVS_COMPLEXITY>
579

> <PUBCHEM_CACTVS_HBOND_ACCEPTOR>
5

> <PUBCHEM_CACTVS_HBOND_DONOR>
3

> <PUBCHEM_CACTVS_ROTATABLE_BOND>
2

> <PUBCHEM_CACTVS_SUBSKEYS>
AAADceB4OAAAAAAAAAAAAAAAAAAAAAAAAAAwYMAAAAAAAADBQAAAGgAACAAADASAmAAyBoAAAgCIAqBSAAACAAAkIAAAiAEGCMgIJzaCFRKAcUAl4BUImYeL7PTO4AADCAAYAADAAAYQADAAAAAAAAAAAA==

> <PUBCHEM_IUPAC_OPENEYE_NAME>
1,3,8-trihydroxy-6-methyl-2-(3-methylbut-2-enyl)anthracene-9,10-dione

> <PUBCHEM_IUPAC_CAS_NAME>
1,3,8-trihydroxy-6-methyl-2-(3-methylbut-2-enyl)anthracene-9,10-dione

> <PUBCHEM_IUPAC_NAME>
1,3,8-trihydroxy-6-methyl-2-(3-methylbut-2-enyl)anthracene-9,10-dione

> <PUBCHEM_IUPAC_SYSTEMATIC_NAME>
6-methyl-2-(3-methylbut-2-enyl)-1,3,8-tris(oxidanyl)anthracene-9,10-dione

> <PUBCHEM_IUPAC_TRADITIONAL_NAME>
1,3,8-trihydroxy-6-methyl-2-(3-methylbut-2-enyl)-9,10-anthraquinone

> <PUBCHEM_IUPAC_INCHI>
InChI=1S/C20H18O5/c1-9(2)4-5-11-14(21)8-13-17(19(11)24)20(25)16-12(18(13)23)6-10(3)7-15(16)22/h4,6-8,21-22,24H,5H2,1-3H3

> <PUBCHEM_IUPAC_INCHIKEY>
WQTDARJAYXTHNU-UHFFFAOYSA-N

> <PUBCHEM_XLOGP3_AA>
4.6

> <PUBCHEM_EXACT_MASS>
338.115424

> <PUBCHEM_MOLECULAR_FORMULA>
C20H18O5

> <PUBCHEM_MOLECULAR_WEIGHT>
338.35392

> <PUBCHEM_OPENEYE_CAN_SMILES>
CC1=CC(=C2C(=C1)C(=O)C3=CC(=C(C(=C3C2=O)O)CC=C(C)C)O)O

> <PUBCHEM_OPENEYE_ISO_SMILES>
CC1=CC(=C2C(=C1)C(=O)C3=CC(=C(C(=C3C2=O)O)CC=C(C)C)O)O

> <PUBCHEM_CACTVS_TPSA>
94.8

> <PUBCHEM_MONOISOTOPIC_WEIGHT>
338.115424

> <PUBCHEM_TOTAL_CHARGE>
0

> <PUBCHEM_HEAVY_ATOM_COUNT>
25

> <PUBCHEM_ATOM_DEF_STEREO_COUNT>
0

> <PUBCHEM_ATOM_UDEF_STEREO_COUNT>
0

> <PUBCHEM_BOND_DEF_STEREO_COUNT>
0

> <PUBCHEM_BOND_UDEF_STEREO_COUNT>
0

> <PUBCHEM_ISOTOPIC_ATOM_COUNT>
0

> <PUBCHEM_COMPONENT_COUNT>
1

> <PUBCHEM_CACTVS_TAUTO_COUNT>
998

> <PUBCHEM_COORDINATE_TYPE>
1
5
255

> <PUBCHEM_BONDANNOTATIONS>
10  11  8
10  15  8
14  15  8
17  19  8
18  20  8
19  20  8
6  11  8
6  7  8
7  14  8
8  18  8
8  9  8
9  17  8

$$$$

