443016
  -OEChem-07051213003D

 43 48  0     0  0  0  0  0  0999 V2000
    0.3785   -4.2592    0.1150 O   0  0  0  0  0  0  0  0  0  0  0  0
   -4.0542    2.7459    0.2310 O   0  0  0  0  0  0  0  0  0  0  0  0
   -1.8704    3.7342   -0.0060 O   0  0  0  0  0  0  0  0  0  0  0  0
   -4.4994   -0.0608    0.3852 O   0  0  0  0  0  0  0  0  0  0  0  0
    4.5379    1.0550    1.8200 O   0  0  0  0  0  0  0  0  0  0  0  0
    5.4868    1.4187   -0.3652 O   0  0  0  0  0  0  0  0  0  0  0  0
    1.5157   -0.1622   -2.5717 O   0  0  0  0  0  0  0  0  0  0  0  0
   -1.8618   -4.7942    0.3377 O   0  0  0  0  0  0  0  0  0  0  0  0
    0.3315   -0.6169   -0.0262 C   0  0  0  0  0  0  0  0  0  0  0  0
    0.1690   -1.9885    0.0436 C   0  0  0  0  0  0  0  0  0  0  0  0
   -0.8046    0.2088    0.0423 C   0  0  0  0  0  0  0  0  0  0  0  0
   -2.1085   -0.3807    0.1831 C   0  0  0  0  0  0  0  0  0  0  0  0
   -1.0860   -2.5398    0.1780 C   0  0  0  0  0  0  0  0  0  0  0  0
    1.6766   -0.0850   -0.1681 C   0  0  0  0  0  0  0  0  0  0  0  0
   -2.2367   -1.7763    0.2506 C   0  0  0  0  0  0  0  0  0  0  0  0
    1.1819   -3.0584   -0.0041 C   0  0  0  0  0  0  0  0  0  0  0  0
   -3.2432    0.4445    0.2517 C   0  0  0  0  0  0  0  0  0  0  0  0
   -0.6766    1.6060   -0.0260 C   0  0  0  0  0  0  0  0  0  0  0  0
   -3.0658    1.8112    0.1802 C   0  0  0  0  0  0  0  0  0  0  0  0
   -1.8206    2.3747    0.0454 C   0  0  0  0  0  0  0  0  0  0  0  0
   -0.9601   -3.9881    0.2239 C   0  0  0  0  0  0  0  0  0  0  0  0
    2.4059    0.2094    0.9841 C   0  0  0  0  0  0  0  0  0  0  0  0
    2.2265    0.1258   -1.4426 C   0  0  0  0  0  0  0  0  0  0  0  0
    3.6803    0.7123    0.8205 C   0  0  0  0  0  0  0  0  0  0  0  0
    4.2220    0.9200   -0.4272 C   0  0  0  0  0  0  0  0  0  0  0  0
    3.5195    0.6364   -1.5804 C   0  0  0  0  0  0  0  0  0  0  0  0
   -3.2891    3.9624    0.1120 C   0  0  0  0  0  0  0  0  0  0  0  0
    5.6801    1.5022    1.0617 C   0  0  0  0  0  0  0  0  0  0  0  0
   -5.4352    0.2426   -0.6486 C   0  0  0  0  0  0  0  0  0  0  0  0
   -3.2028   -2.2603    0.3563 H   0  0  0  0  0  0  0  0  0  0  0  0
    1.8768   -3.0234    0.8392 H   0  0  0  0  0  0  0  0  0  0  0  0
    1.7166   -3.0945   -0.9570 H   0  0  0  0  0  0  0  0  0  0  0  0
    0.2790    2.1089   -0.1330 H   0  0  0  0  0  0  0  0  0  0  0  0
    1.9976    0.0526    1.9774 H   0  0  0  0  0  0  0  0  0  0  0  0
    3.9564    0.8034   -2.5589 H   0  0  0  0  0  0  0  0  0  0  0  0
   -3.6322    4.5073   -0.7750 H   0  0  0  0  0  0  0  0  0  0  0  0
   -3.4729    4.5807    0.9981 H   0  0  0  0  0  0  0  0  0  0  0  0
    5.8912    2.5446    1.3268 H   0  0  0  0  0  0  0  0  0  0  0  0
    6.5454    0.8875    1.3351 H   0  0  0  0  0  0  0  0  0  0  0  0
    0.6343   -0.5031   -2.3531 H   0  0  0  0  0  0  0  0  0  0  0  0
   -5.9869    1.1538   -0.4015 H   0  0  0  0  0  0  0  0  0  0  0  0
   -4.9477    0.3435   -1.6244 H   0  0  0  0  0  0  0  0  0  0  0  0
   -6.1511   -0.5824   -0.7075 H   0  0  0  0  0  0  0  0  0  0  0  0
  1 16  1  0  0  0  0
  1 21  1  0  0  0  0
  2 19  1  0  0  0  0
  2 27  1  0  0  0  0
  3 20  1  0  0  0  0
  3 27  1  0  0  0  0
  4 17  1  0  0  0  0
  4 29  1  0  0  0  0
  5 24  1  0  0  0  0
  5 28  1  0  0  0  0
  6 25  1  0  0  0  0
  6 28  1  0  0  0  0
  7 23  1  0  0  0  0
  7 40  1  0  0  0  0
  8 21  2  0  0  0  0
  9 10  1  0  0  0  0
  9 11  2  0  0  0  0
  9 14  1  0  0  0  0
 10 13  2  0  0  0  0
 10 16  1  0  0  0  0
 11 12  1  0  0  0  0
 11 18  1  0  0  0  0
 12 15  2  0  0  0  0
 12 17  1  0  0  0  0
 13 15  1  0  0  0  0
 13 21  1  0  0  0  0
 14 22  2  0  0  0  0
 14 23  1  0  0  0  0
 15 30  1  0  0  0  0
 16 31  1  0  0  0  0
 16 32  1  0  0  0  0
 17 19  2  0  0  0  0
 18 20  2  0  0  0  0
 18 33  1  0  0  0  0
 19 20  1  0  0  0  0
 22 24  1  0  0  0  0
 22 34  1  0  0  0  0
 23 26  2  0  0  0  0
 24 25  2  0  0  0  0
 25 26  1  0  0  0  0
 26 35  1  0  0  0  0
 27 36  1  0  0  0  0
 27 37  1  0  0  0  0
 28 38  1  0  0  0  0
 28 39  1  0  0  0  0
 29 41  1  0  0  0  0
 29 42  1  0  0  0  0
 29 43  1  0  0  0  0
M  END
> <PUBCHEM_COMPOUND_CID>
443016

> <PUBCHEM_CONFORMER_RMSD>
0.8

> <PUBCHEM_CONFORMER_DIVERSEORDER>
1
2

> <PUBCHEM_MMFF94_PARTIAL_CHARGES>
30
1 -0.43
10 -0.14
13 0.09
15 -0.15
16 0.42
17 0.08
18 -0.15
19 0.08
2 -0.36
20 0.08
21 0.63
22 -0.15
23 0.08
24 0.08
25 0.08
26 -0.15
27 0.56
28 0.56
29 0.28
3 -0.36
30 0.15
33 0.15
34 0.15
35 0.15
4 -0.36
40 0.45
5 -0.36
6 -0.36
7 -0.53
8 -0.57

> <PUBCHEM_EFFECTIVE_ROTOR_COUNT>
3.6

> <PUBCHEM_PHARMACOPHORE_FEATURES>
13
1 2 acceptor
1 3 acceptor
1 4 acceptor
1 5 acceptor
1 6 acceptor
1 7 donor
1 8 acceptor
5 1 10 13 16 21 rings
5 2 3 19 20 27 rings
5 5 6 24 25 28 rings
6 11 12 17 18 19 20 rings
6 14 22 23 24 25 26 rings
6 9 10 11 12 13 15 rings

> <PUBCHEM_HEAVY_ATOM_COUNT>
29

> <PUBCHEM_ATOM_DEF_STEREO_COUNT>
0

> <PUBCHEM_ATOM_UDEF_STEREO_COUNT>
0

> <PUBCHEM_BOND_DEF_STEREO_COUNT>
0

> <PUBCHEM_BOND_UDEF_STEREO_COUNT>
0

> <PUBCHEM_ISOTOPIC_ATOM_COUNT>
0

> <PUBCHEM_COMPONENT_COUNT>
1

> <PUBCHEM_CACTVS_TAUTO_COUNT>
3

> <PUBCHEM_CONFORMER_ID>
0006C28800000001

> <PUBCHEM_MMFF94_ENERGY>
102.813

> <PUBCHEM_FEATURE_SELFOVERLAP>
66.398

> <PUBCHEM_SHAPE_FINGERPRINT>
10074138 170 18122650291472210346
10319926 262 18190759553015233992
10411042 1 17690279309412484546
10670039 82 18270668866318078044
1100329 8 18195525888033326137
11049842 53 18198601372696836230
11582403 64 17532963625635930958
11725454 13 17676500423398448106
12107183 9 18270131222849495874
12173636 292 18411138051828057228
12236239 1 17632580397072472136
12422481 6 17487628639393032732
12553582 1 17763448527012459674
12788726 201 17768515106990013622
12930653 34 18339642364430695633
13009979 54 17771060498009674198
13134695 92 16897374706786790597
13140716 1 18123467177103356945
13583140 156 17823141125738902586
138480 1 17330273282308019707
13911987 19 18342746187282877085
13955234 65 17762609990745799937
13965767 371 17771628124808226964
14739800 52 18124597480080756308
14787075 74 18040724632162241305
14790565 3 18410853299881535520
14844126 61 18197784293195925226
15042514 8 18268708299177307619
15131766 46 15911624724489881052
15230672 131 18340764962515821486
16087824 20 18338235956864875959
16988056 13 16757205666028198532
17818456 19 18343024363698271482
17980427 23 17704065218250853445
17980427 26 17975429210738890308
20511986 3 17560533793698099444
20600515 1 18118670037873025913
20642791 105 17985834731287246719
20642791 178 17767664411064822918
21033648 29 18335145306181462072
21133410 127 17699559553166902500
21133410 221 17317922090912260048
21304303 282 18193302795359158799
21756936 100 18262534623798683032
21796203 349 16968259079374930307
22122407 14 15769765858111212101
22149856 69 18052794109662893953
22393880 68 18118677957819107069
23366157 5 17841145868465830771
23557571 272 18116701929344573902
23559900 14 17761220207984701427
283562 15 18335702767467047297
3091708 16 9340742137187682451
3178227 256 18197484144640395211
350125 39 18196084667046099230
469060 322 18267844152448040281
484989 97 17910121205759057343
5104073 3 18196646513720576977
5265222 85 18266441150337157270
5486654 2 18410576158858700589
550186 7 18189606160510909564
6442390 28 18410007779734385612
6700243 42 17396656980399253356
7364860 26 17834112326736775611
7808743 9 18339637842178701840
79837 15 18341607122642181346
84936 182 18046625882603203080
9981440 41 18341893038962729145

> <PUBCHEM_SHAPE_MULTIPOLES>
549.85
9.44
5
1.18
5.79
4.25
0.47
-8.16
-1.08
-4.69
-0.72
1.5
-0.22
0.41

> <PUBCHEM_SHAPE_SELFOVERLAP>
1281.417

> <PUBCHEM_SHAPE_VOLUME>
282.9

> <PUBCHEM_COORDINATE_TYPE>
2
5
10

$$$$

