16061251
  -OEChem-07051213082D

 99 98  0     0  0  0  0  0  0999 V2000
    2.5369   -0.7500    0.0000 O   0  0  0  0  0  0  0  0  0  0  0  0
    3.4030   -0.2500    0.0000 C   0  0  0  0  0  0  0  0  0  0  0  0
    4.2690    0.2500    0.0000 C   0  0  0  0  0  0  0  0  0  0  0  0
    2.9030    0.6160    0.0000 C   0  0  0  0  0  0  0  0  0  0  0  0
    3.9030   -1.1160    0.0000 C   0  0  0  0  0  0  0  0  0  0  0  0
   25.9196   -0.2500    0.0000 C   0  0  0  0  0  0  0  0  0  0  0  0
   25.0536    0.2500    0.0000 C   0  0  0  0  0  0  0  0  0  0  0  0
   23.3215    0.2500    0.0000 C   0  0  0  0  0  0  0  0  0  0  0  0
   22.4555   -0.2500    0.0000 C   0  0  0  0  0  0  0  0  0  0  0  0
   26.7856    0.2500    0.0000 C   0  0  0  0  0  0  0  0  0  0  0  0
   24.1876   -0.2500    0.0000 C   0  0  0  0  0  0  0  0  0  0  0  0
    5.1350   -0.2500    0.0000 C   0  0  0  0  0  0  0  0  0  0  0  0
   21.5895    0.2500    0.0000 C   0  0  0  0  0  0  0  0  0  0  0  0
   25.0536    1.2500    0.0000 C   0  0  0  0  0  0  0  0  0  0  0  0
   27.6517   -0.2500    0.0000 C   0  0  0  0  0  0  0  0  0  0  0  0
    6.0010    0.2500    0.0000 C   0  0  0  0  0  0  0  0  0  0  0  0
   28.5177    0.2500    0.0000 C   0  0  0  0  0  0  0  0  0  0  0  0
   21.5895    1.2500    0.0000 C   0  0  0  0  0  0  0  0  0  0  0  0
    6.8671   -0.2500    0.0000 C   0  0  0  0  0  0  0  0  0  0  0  0
   20.7235   -0.2500    0.0000 C   0  0  0  0  0  0  0  0  0  0  0  0
   29.3837   -0.2500    0.0000 C   0  0  0  0  0  0  0  0  0  0  0  0
   28.5177    1.2500    0.0000 C   0  0  0  0  0  0  0  0  0  0  0  0
    6.8671   -1.2500    0.0000 C   0  0  0  0  0  0  0  0  0  0  0  0
   19.8574    0.2500    0.0000 C   0  0  0  0  0  0  0  0  0  0  0  0
    7.7331    0.2500    0.0000 C   0  0  0  0  0  0  0  0  0  0  0  0
   18.9914   -0.2500    0.0000 C   0  0  0  0  0  0  0  0  0  0  0  0
    8.5991   -0.2500    0.0000 C   0  0  0  0  0  0  0  0  0  0  0  0
   18.1254    0.2500    0.0000 C   0  0  0  0  0  0  0  0  0  0  0  0
    9.4651    0.2500    0.0000 C   0  0  0  0  0  0  0  0  0  0  0  0
   18.1254    1.2500    0.0000 C   0  0  0  0  0  0  0  0  0  0  0  0
   10.3312   -0.2500    0.0000 C   0  0  0  0  0  0  0  0  0  0  0  0
   17.2594   -0.2500    0.0000 C   0  0  0  0  0  0  0  0  0  0  0  0
   11.1972    0.2500    0.0000 C   0  0  0  0  0  0  0  0  0  0  0  0
   10.3312   -1.2500    0.0000 C   0  0  0  0  0  0  0  0  0  0  0  0
   16.3933    0.2500    0.0000 C   0  0  0  0  0  0  0  0  0  0  0  0
   12.0632   -0.2500    0.0000 C   0  0  0  0  0  0  0  0  0  0  0  0
   15.5273   -0.2500    0.0000 C   0  0  0  0  0  0  0  0  0  0  0  0
   13.7953   -0.2500    0.0000 C   0  0  0  0  0  0  0  0  0  0  0  0
   12.9292    0.2500    0.0000 C   0  0  0  0  0  0  0  0  0  0  0  0
   14.6613    0.2500    0.0000 C   0  0  0  0  0  0  0  0  0  0  0  0
   13.7953   -1.2500    0.0000 C   0  0  0  0  0  0  0  0  0  0  0  0
    4.6675    0.7249    0.0000 H   0  0  0  0  0  0  0  0  0  0  0  0
    3.8705    0.7249    0.0000 H   0  0  0  0  0  0  0  0  0  0  0  0
    3.3660   -1.4260    0.0000 H   0  0  0  0  0  0  0  0  0  0  0  0
    4.2130   -1.6530    0.0000 H   0  0  0  0  0  0  0  0  0  0  0  0
    4.4399   -0.8060    0.0000 H   0  0  0  0  0  0  0  0  0  0  0  0
    3.4399    0.9260    0.0000 H   0  0  0  0  0  0  0  0  0  0  0  0
    2.5930    1.1530    0.0000 H   0  0  0  0  0  0  0  0  0  0  0  0
    2.3660    0.3060    0.0000 H   0  0  0  0  0  0  0  0  0  0  0  0
   25.5211   -0.7249    0.0000 H   0  0  0  0  0  0  0  0  0  0  0  0
   26.3182   -0.7249    0.0000 H   0  0  0  0  0  0  0  0  0  0  0  0
   23.7201    0.7249    0.0000 H   0  0  0  0  0  0  0  0  0  0  0  0
   22.9230    0.7249    0.0000 H   0  0  0  0  0  0  0  0  0  0  0  0
   22.0570   -0.7249    0.0000 H   0  0  0  0  0  0  0  0  0  0  0  0
   22.8540   -0.7249    0.0000 H   0  0  0  0  0  0  0  0  0  0  0  0
   27.1842    0.7249    0.0000 H   0  0  0  0  0  0  0  0  0  0  0  0
   26.3871    0.7249    0.0000 H   0  0  0  0  0  0  0  0  0  0  0  0
   24.1876   -0.8700    0.0000 H   0  0  0  0  0  0  0  0  0  0  0  0
    5.1350   -0.8700    0.0000 H   0  0  0  0  0  0  0  0  0  0  0  0
    2.0000   -0.4400    0.0000 H   0  0  0  0  0  0  0  0  0  0  0  0
   25.6736    1.2500    0.0000 H   0  0  0  0  0  0  0  0  0  0  0  0
   25.0536    1.8700    0.0000 H   0  0  0  0  0  0  0  0  0  0  0  0
   24.4336    1.2500    0.0000 H   0  0  0  0  0  0  0  0  0  0  0  0
   27.6517   -0.8700    0.0000 H   0  0  0  0  0  0  0  0  0  0  0  0
    6.0010    0.8700    0.0000 H   0  0  0  0  0  0  0  0  0  0  0  0
   22.2095    1.2500    0.0000 H   0  0  0  0  0  0  0  0  0  0  0  0
   21.5895    1.8700    0.0000 H   0  0  0  0  0  0  0  0  0  0  0  0
   20.9695    1.2500    0.0000 H   0  0  0  0  0  0  0  0  0  0  0  0
   20.7235   -0.8700    0.0000 H   0  0  0  0  0  0  0  0  0  0  0  0
   29.1377    1.2500    0.0000 H   0  0  0  0  0  0  0  0  0  0  0  0
   29.0737   -0.7869    0.0000 H   0  0  0  0  0  0  0  0  0  0  0  0
   29.9207   -0.5600    0.0000 H   0  0  0  0  0  0  0  0  0  0  0  0
   29.6937    0.2869    0.0000 H   0  0  0  0  0  0  0  0  0  0  0  0
   28.5177    1.8700    0.0000 H   0  0  0  0  0  0  0  0  0  0  0  0
   27.8977    1.2500    0.0000 H   0  0  0  0  0  0  0  0  0  0  0  0
    6.2471   -1.2500    0.0000 H   0  0  0  0  0  0  0  0  0  0  0  0
    6.8671   -1.8700    0.0000 H   0  0  0  0  0  0  0  0  0  0  0  0
    7.4871   -1.2500    0.0000 H   0  0  0  0  0  0  0  0  0  0  0  0
   19.8574    0.8700    0.0000 H   0  0  0  0  0  0  0  0  0  0  0  0
    7.7331    0.8700    0.0000 H   0  0  0  0  0  0  0  0  0  0  0  0
   18.9914   -0.8700    0.0000 H   0  0  0  0  0  0  0  0  0  0  0  0
    8.5991   -0.8700    0.0000 H   0  0  0  0  0  0  0  0  0  0  0  0
    9.4651    0.8700    0.0000 H   0  0  0  0  0  0  0  0  0  0  0  0
   18.7454    1.2500    0.0000 H   0  0  0  0  0  0  0  0  0  0  0  0
   18.1254    1.8700    0.0000 H   0  0  0  0  0  0  0  0  0  0  0  0
   17.5054    1.2500    0.0000 H   0  0  0  0  0  0  0  0  0  0  0  0
   17.2594   -0.8700    0.0000 H   0  0  0  0  0  0  0  0  0  0  0  0
   11.1972    0.8700    0.0000 H   0  0  0  0  0  0  0  0  0  0  0  0
    9.7112   -1.2500    0.0000 H   0  0  0  0  0  0  0  0  0  0  0  0
   10.3312   -1.8700    0.0000 H   0  0  0  0  0  0  0  0  0  0  0  0
   10.9512   -1.2500    0.0000 H   0  0  0  0  0  0  0  0  0  0  0  0
   16.3933    0.8700    0.0000 H   0  0  0  0  0  0  0  0  0  0  0  0
   12.0632   -0.8700    0.0000 H   0  0  0  0  0  0  0  0  0  0  0  0
   15.5273   -0.8700    0.0000 H   0  0  0  0  0  0  0  0  0  0  0  0
   12.9292    0.8700    0.0000 H   0  0  0  0  0  0  0  0  0  0  0  0
   14.6613    0.8700    0.0000 H   0  0  0  0  0  0  0  0  0  0  0  0
   13.1753   -1.2500    0.0000 H   0  0  0  0  0  0  0  0  0  0  0  0
   13.7953   -1.8700    0.0000 H   0  0  0  0  0  0  0  0  0  0  0  0
   14.4153   -1.2500    0.0000 H   0  0  0  0  0  0  0  0  0  0  0  0
  1  2  1  0  0  0  0
  1 60  1  0  0  0  0
  2  3  1  0  0  0  0
  2  4  1  0  0  0  0
  2  5  1  0  0  0  0
  3 12  1  0  0  0  0
  3 42  1  0  0  0  0
  3 43  1  0  0  0  0
  4 47  1  0  0  0  0
  4 48  1  0  0  0  0
  4 49  1  0  0  0  0
  5 44  1  0  0  0  0
  5 45  1  0  0  0  0
  5 46  1  0  0  0  0
  6  7  1  0  0  0  0
  6 10  1  0  0  0  0
  6 50  1  0  0  0  0
  6 51  1  0  0  0  0
  7 11  2  0  0  0  0
  7 14  1  0  0  0  0
  8  9  1  0  0  0  0
  8 11  1  0  0  0  0
  8 52  1  0  0  0  0
  8 53  1  0  0  0  0
  9 13  1  0  0  0  0
  9 54  1  0  0  0  0
  9 55  1  0  0  0  0
 10 15  1  0  0  0  0
 10 56  1  0  0  0  0
 10 57  1  0  0  0  0
 11 58  1  0  0  0  0
 12 16  2  0  0  0  0
 12 59  1  0  0  0  0
 13 18  1  0  0  0  0
 13 20  2  0  0  0  0
 14 61  1  0  0  0  0
 14 62  1  0  0  0  0
 14 63  1  0  0  0  0
 15 17  2  0  0  0  0
 15 64  1  0  0  0  0
 16 19  1  0  0  0  0
 16 65  1  0  0  0  0
 17 21  1  0  0  0  0
 17 22  1  0  0  0  0
 18 66  1  0  0  0  0
 18 67  1  0  0  0  0
 18 68  1  0  0  0  0
 19 23  1  0  0  0  0
 19 25  2  0  0  0  0
 20 24  1  0  0  0  0
 20 69  1  0  0  0  0
 21 71  1  0  0  0  0
 21 72  1  0  0  0  0
 21 73  1  0  0  0  0
 22 70  1  0  0  0  0
 22 74  1  0  0  0  0
 22 75  1  0  0  0  0
 23 76  1  0  0  0  0
 23 77  1  0  0  0  0
 23 78  1  0  0  0  0
 24 26  2  0  0  0  0
 24 79  1  0  0  0  0
 25 27  1  0  0  0  0
 25 80  1  0  0  0  0
 26 28  1  0  0  0  0
 26 81  1  0  0  0  0
 27 29  2  0  0  0  0
 27 82  1  0  0  0  0
 28 30  1  0  0  0  0
 28 32  2  0  0  0  0
 29 31  1  0  0  0  0
 29 83  1  0  0  0  0
 30 84  1  0  0  0  0
 30 85  1  0  0  0  0
 30 86  1  0  0  0  0
 31 33  2  0  0  0  0
 31 34  1  0  0  0  0
 32 35  1  0  0  0  0
 32 87  1  0  0  0  0
 33 36  1  0  0  0  0
 33 88  1  0  0  0  0
 34 89  1  0  0  0  0
 34 90  1  0  0  0  0
 34 91  1  0  0  0  0
 35 37  2  0  0  0  0
 35 92  1  0  0  0  0
 36 39  2  0  0  0  0
 36 93  1  0  0  0  0
 37 40  1  0  0  0  0
 37 94  1  0  0  0  0
 38 39  1  0  0  0  0
 38 40  2  0  0  0  0
 38 41  1  0  0  0  0
 39 95  1  0  0  0  0
 40 96  1  0  0  0  0
 41 97  1  0  0  0  0
 41 98  1  0  0  0  0
 41 99  1  0  0  0  0
M  END
> <PUBCHEM_COMPOUND_CID>
16061251

> <PUBCHEM_COMPOUND_CANONICALIZED>
1

> <PUBCHEM_CACTVS_COMPLEXITY>
1140

> <PUBCHEM_CACTVS_HBOND_ACCEPTOR>
1

> <PUBCHEM_CACTVS_HBOND_DONOR>
1

> <PUBCHEM_CACTVS_ROTATABLE_BOND>
17

> <PUBCHEM_CACTVS_SUBSKEYS>
AAADcfB8IAAAAAAAAAAAAAAAAAAAAAAAAAAAAAAAAAAAAAAAAAAAGgAACAAADESAgAACAAAAAgCAAiBCAAAAAAAgAAAICAAAAAgIAAIAAQAAQAAAwAAIgAIAAAAIAAAAAAAAAAAAAAAAAAAAAAAAAAAAAA==

> <PUBCHEM_IUPAC_OPENEYE_NAME>
(4E,6E,8E,10E,12E,14E,16E,18E,20E,22E,26E)-2,6,10,14,19,23,27,31-octamethyldotriaconta-4,6,8,10,12,14,16,18,20,22,26,30-dodecaen-2-ol

> <PUBCHEM_IUPAC_CAS_NAME>
(4E,6E,8E,10E,12E,14E,16E,18E,20E,22E,26E)-2,6,10,14,19,23,27,31-octamethyl-2-dotriaconta-4,6,8,10,12,14,16,18,20,22,26,30-dodecaenol

> <PUBCHEM_IUPAC_NAME>
(4E,6E,8E,10E,12E,14E,16E,18E,20E,22E,26E)-2,6,10,14,19,23,27,31-octamethyldotriaconta-4,6,8,10,12,14,16,18,20,22,26,30-dodecaen-2-ol

> <PUBCHEM_IUPAC_SYSTEMATIC_NAME>
(4E,6E,8E,10E,12E,14E,16E,18E,20E,22E,26E)-2,6,10,14,19,23,27,31-octamethyldotriaconta-4,6,8,10,12,14,16,18,20,22,26,30-dodecaen-2-ol

> <PUBCHEM_IUPAC_TRADITIONAL_NAME>
(4E,6E,8E,10E,12E,14E,16E,18E,20E,22E,26E)-2,6,10,14,19,23,27,31-octamethyldotriaconta-4,6,8,10,12,14,16,18,20,22,26,30-dodecaen-2-ol

> <PUBCHEM_IUPAC_INCHI>
InChI=1S/C40H58O/c1-33(2)19-13-22-36(5)25-16-28-37(6)26-14-23-34(3)20-11-12-21-35(4)24-15-27-38(7)29-17-30-39(8)31-18-32-40(9,10)41/h11-12,14-15,17-21,23-27,29-31,41H,13,16,22,28,32H2,1-10H3/b12-11+,23-14+,24-15+,29-17+,31-18+,34-20+,35-21+,36-25+,37-26+,38-27+,39-30+

> <PUBCHEM_IUPAC_INCHIKEY>
IKOGZSUEGBDVQU-XZXJNJSQSA-N

> <PUBCHEM_XLOGP3_AA>
14.1

> <PUBCHEM_EXACT_MASS>
554.448766

> <PUBCHEM_MOLECULAR_FORMULA>
C40H58O

> <PUBCHEM_MOLECULAR_WEIGHT>
554.88792

> <PUBCHEM_OPENEYE_CAN_SMILES>
CC(=CCCC(=CCCC(=CC=CC(=CC=CC=C(C)C=CC=C(C)C=CC=C(C)C=CCC(C)(C)O)C)C)C)C

> <PUBCHEM_OPENEYE_ISO_SMILES>
CC(=CCC/C(=C/CC/C(=C/C=C/C(=C/C=C/C=C(\C)/C=C/C=C(\C)/C=C/C=C(\C)/C=C/CC(C)(C)O)/C)/C)/C)C

> <PUBCHEM_CACTVS_TPSA>
20.2

> <PUBCHEM_MONOISOTOPIC_WEIGHT>
554.448766

> <PUBCHEM_TOTAL_CHARGE>
0

> <PUBCHEM_HEAVY_ATOM_COUNT>
41

> <PUBCHEM_ATOM_DEF_STEREO_COUNT>
0

> <PUBCHEM_ATOM_UDEF_STEREO_COUNT>
0

> <PUBCHEM_BOND_DEF_STEREO_COUNT>
11

> <PUBCHEM_BOND_UDEF_STEREO_COUNT>
0

> <PUBCHEM_ISOTOPIC_ATOM_COUNT>
0

> <PUBCHEM_COMPONENT_COUNT>
1

> <PUBCHEM_CACTVS_TAUTO_COUNT>
1

> <PUBCHEM_COORDINATE_TYPE>
1
5
255

$$$$

