10085783
  -OEChem-07051213123D

 40 41  0     1  0  0  0  0  0999 V2000
    3.1298    1.2133    0.0058 Si  0  0  0  0  0  0  0  0  0  0  0  0
    0.2210   -4.5215   -0.1747 F   0  0  0  0  0  0  0  0  0  0  0  0
    0.0843    1.6722   -1.1780 O   0  0  0  0  0  0  0  0  0  0  0  0
   -2.3353    1.2187    0.4454 N   0  0  0  0  0  0  0  0  0  0  0  0
   -2.9609    2.0101   -0.4210 N   0  0  0  0  0  0  0  0  0  0  0  0
   -4.1665    0.1299    0.0730 N   0  0  0  0  0  0  0  0  0  0  0  0
    1.4961    1.6670    0.7647 C   0  0  0  0  0  0  0  0  0  0  0  0
    0.1930    1.0910    0.1307 C   0  0  1  0  0  0  0  0  0  0  0  0
   -1.0205    1.5987    0.9661 C   0  0  0  0  0  0  0  0  0  0  0  0
    4.5158    1.9474    1.1435 C   0  0  0  0  0  0  0  0  0  0  0  0
    3.3733   -0.6276   -0.0419 C   0  0  0  0  0  0  0  0  0  0  0  0
    3.3367    1.9736   -1.6761 C   0  0  0  0  0  0  0  0  0  0  0  0
    0.2003   -0.4375    0.0473 C   0  0  0  0  0  0  0  0  0  0  0  0
    0.2806   -1.1598    1.2153 C   0  0  0  0  0  0  0  0  0  0  0  0
    0.1270   -1.0295   -1.1923 C   0  0  0  0  0  0  0  0  0  0  0  0
    0.2883   -2.5527    1.1395 C   0  0  0  0  0  0  0  0  0  0  0  0
    0.1346   -2.4223   -1.2680 C   0  0  0  0  0  0  0  0  0  0  0  0
   -3.0372    0.1097    0.7424 C   0  0  0  0  0  0  0  0  0  0  0  0
    0.2153   -3.1839   -0.1022 C   0  0  0  0  0  0  0  0  0  0  0  0
   -4.0756    1.3034   -0.6194 C   0  0  0  0  0  0  0  0  0  0  0  0
    1.4345    2.7633    0.7413 H   0  0  0  0  0  0  0  0  0  0  0  0
    1.5371    1.3879    1.8252 H   0  0  0  0  0  0  0  0  0  0  0  0
   -0.9834    1.2496    2.0049 H   0  0  0  0  0  0  0  0  0  0  0  0
   -1.0224    2.6967    0.9953 H   0  0  0  0  0  0  0  0  0  0  0  0
    4.4030    3.0333    1.2003 H   0  0  0  0  0  0  0  0  0  0  0  0
    4.4291    1.5190    2.1455 H   0  0  0  0  0  0  0  0  0  0  0  0
    5.4966    1.7041    0.7266 H   0  0  0  0  0  0  0  0  0  0  0  0
    4.4344   -0.8500   -0.2007 H   0  0  0  0  0  0  0  0  0  0  0  0
    3.0922   -1.1026    0.9011 H   0  0  0  0  0  0  0  0  0  0  0  0
    2.8387   -1.1011   -0.8661 H   0  0  0  0  0  0  0  0  0  0  0  0
    2.6267    1.5493   -2.3923 H   0  0  0  0  0  0  0  0  0  0  0  0
    3.1748    3.0552   -1.6413 H   0  0  0  0  0  0  0  0  0  0  0  0
    4.3449    1.7974   -2.0633 H   0  0  0  0  0  0  0  0  0  0  0  0
   -0.8102    1.5111   -1.5219 H   0  0  0  0  0  0  0  0  0  0  0  0
    0.3421   -0.6867    2.1896 H   0  0  0  0  0  0  0  0  0  0  0  0
    0.0694   -0.4737   -2.1215 H   0  0  0  0  0  0  0  0  0  0  0  0
    0.3519   -3.1459    2.0469 H   0  0  0  0  0  0  0  0  0  0  0  0
    0.0791   -2.9146   -2.2345 H   0  0  0  0  0  0  0  0  0  0  0  0
   -2.7152   -0.6593    1.4299 H   0  0  0  0  0  0  0  0  0  0  0  0
   -4.8456    1.6541   -1.2903 H   0  0  0  0  0  0  0  0  0  0  0  0
  1  7  1  0  0  0  0
  1 10  1  0  0  0  0
  1 11  1  0  0  0  0
  1 12  1  0  0  0  0
  2 19  1  0  0  0  0
  3  8  1  0  0  0  0
  3 34  1  0  0  0  0
  4  5  1  0  0  0  0
  4  9  1  0  0  0  0
  4 18  1  0  0  0  0
  5 20  2  0  0  0  0
  6 18  2  0  0  0  0
  6 20  1  0  0  0  0
  7  8  1  0  0  0  0
  7 21  1  0  0  0  0
  7 22  1  0  0  0  0
  8  9  1  0  0  0  0
  8 13  1  0  0  0  0
  9 23  1  0  0  0  0
  9 24  1  0  0  0  0
 10 25  1  0  0  0  0
 10 26  1  0  0  0  0
 10 27  1  0  0  0  0
 11 28  1  0  0  0  0
 11 29  1  0  0  0  0
 11 30  1  0  0  0  0
 12 31  1  0  0  0  0
 12 32  1  0  0  0  0
 12 33  1  0  0  0  0
 13 14  2  0  0  0  0
 13 15  1  0  0  0  0
 14 16  1  0  0  0  0
 14 35  1  0  0  0  0
 15 17  2  0  0  0  0
 15 36  1  0  0  0  0
 16 19  2  0  0  0  0
 16 37  1  0  0  0  0
 17 19  1  0  0  0  0
 17 38  1  0  0  0  0
 18 39  1  0  0  0  0
 20 40  1  0  0  0  0
M  END
> <PUBCHEM_COMPOUND_CID>
10085783

> <PUBCHEM_CONFORMER_RMSD>
0.8

> <PUBCHEM_CONFORMER_DIVERSEORDER>
3
22
25
19
6
7
13
18
11
16
20
12
24
14
9
4
5
8
15
21
2
26
1
10
17
23

> <PUBCHEM_MMFF94_PARTIAL_CHARGES>
27
1 0.32
10 -0.08
11 -0.08
12 -0.08
13 -0.14
14 -0.15
15 -0.15
16 -0.15
17 -0.15
18 0.04
19 0.19
2 -0.19
20 0.37
3 -0.68
34 0.4
35 0.15
36 0.15
37 0.15
38 0.15
39 0.15
4 0.31
40 0.15
5 -0.71
6 -0.57
7 -0.08
8 0.42
9 0.26

> <PUBCHEM_EFFECTIVE_ROTOR_COUNT>
5

> <PUBCHEM_PHARMACOPHORE_FEATURES>
6
1 3 acceptor
1 3 donor
3 4 6 18 cation
3 5 6 20 cation
5 4 5 6 18 20 rings
6 13 14 15 16 17 19 rings

> <PUBCHEM_HEAVY_ATOM_COUNT>
20

> <PUBCHEM_ATOM_DEF_STEREO_COUNT>
0

> <PUBCHEM_ATOM_UDEF_STEREO_COUNT>
1

> <PUBCHEM_BOND_DEF_STEREO_COUNT>
0

> <PUBCHEM_BOND_UDEF_STEREO_COUNT>
0

> <PUBCHEM_ISOTOPIC_ATOM_COUNT>
0

> <PUBCHEM_COMPONENT_COUNT>
1

> <PUBCHEM_CACTVS_TAUTO_COUNT>
1

> <PUBCHEM_CONFORMER_ID>
0099E59700000003

> <PUBCHEM_MMFF94_ENERGY>
43.3679

> <PUBCHEM_FEATURE_SELFOVERLAP>
33.217

> <PUBCHEM_SHAPE_FINGERPRINT>
10922049 32 18409446977285535984
11578080 2 16483039044143046366
116883 192 17687184188479881070
121448 382 18189344476426954869
12532896 13 18335428915555756548
12553582 1 17111272573831715307
12592029 89 18412543244963143857
12788726 201 17766835027215383578
13052359 8 18266465291108585219
13083527 12 17981909719171919299
13140716 1 18335977657535791018
13149001 5 17897446081950919552
13681431 1 17834392697806495566
14115302 16 18338228272672335860
14251751 93 18336832991946624711
14787075 74 17968949578099757193
15163728 17 17844782941024325669
15906896 17 18055628417655316418
16752209 62 18195248810797230050
16945 1 18120638378192341304
18186145 218 18040987436721099784
19591789 44 18409732858867362074
20197701 30 18410584980457756424
20567600 347 18411134744967087031
20645476 183 18199738159807684020
20645477 70 18267312122069677157
20905425 154 17761209221516276604
21421861 104 17975962473963127937
21524375 3 18412545396794727224
23227448 37 18050848815056458652
23419403 2 17688536828347940218
23557571 272 17898849042351513888
23558518 356 17693950591854327504
23559900 14 17977957000687217619
23598288 3 17913195469780338000
2748010 2 18268406023794885906
298252 57 18411703149386491592
3060560 45 18412553127662240756
3250762 1 17694795411615567004
404807 78 17698190378260211919
458136 41 18266155379274694785
474229 33 18339361851600285099
6138700 20 18122056766221828918
633830 44 17749096820541015968
69090 78 18334580096884903288
7364860 26 18121218937669912315
81228 2 17687762535996397793
81539 233 18341333383069972701

> <PUBCHEM_SHAPE_MULTIPOLES>
401.72
6.47
3.85
1.33
0.36
4.89
0.19
-5.92
-0.07
-0.96
0.29
0.6
-0.07
0.1

> <PUBCHEM_SHAPE_SELFOVERLAP>
820.406

> <PUBCHEM_SHAPE_VOLUME>
235.3

> <PUBCHEM_COORDINATE_TYPE>
2
5
10

$$$$

