105101
  -OEChem-07051213043D

 23 24  0     0  0  0  0  0  0999 V2000
   -0.1278    2.5994   -0.0003 Cl  0  0  0  0  0  0  0  0  0  0  0  0
   -3.2829    2.5162    0.0001 Cl  0  0  0  0  0  0  0  0  0  0  0  0
   -3.0395   -2.9430   -0.0003 Cl  0  0  0  0  0  0  0  0  0  0  0  0
   -4.7668   -0.2646    0.0017 Cl  0  0  0  0  0  0  0  0  0  0  0  0
    5.3635   -0.1667    0.0015 O   0  0  0  0  0  0  0  0  0  0  0  0
   -0.2336   -0.1100   -0.0011 C   0  0  0  0  0  0  0  0  0  0  0  0
    1.2131   -0.1236   -0.0008 C   0  0  0  0  0  0  0  0  0  0  0  0
   -0.9730    1.0762   -0.0009 C   0  0  0  0  0  0  0  0  0  0  0  0
   -0.8991   -1.3385   -0.0006 C   0  0  0  0  0  0  0  0  0  0  0  0
    1.9110   -0.1308   -1.2084 C   0  0  0  0  0  0  0  0  0  0  0  0
    1.9099   -0.1304    1.2076 C   0  0  0  0  0  0  0  0  0  0  0  0
   -2.3673    1.0336   -0.0002 C   0  0  0  0  0  0  0  0  0  0  0  0
   -2.2934   -1.3812    0.0002 C   0  0  0  0  0  0  0  0  0  0  0  0
   -3.0274   -0.1951    0.0004 C   0  0  0  0  0  0  0  0  0  0  0  0
    3.3058   -0.1450   -1.2077 C   0  0  0  0  0  0  0  0  0  0  0  0
    3.3048   -0.1445    1.2082 C   0  0  0  0  0  0  0  0  0  0  0  0
    4.0027   -0.1518    0.0006 C   0  0  0  0  0  0  0  0  0  0  0  0
   -0.3286   -2.2662   -0.0007 H   0  0  0  0  0  0  0  0  0  0  0  0
    1.3832   -0.1254   -2.1592 H   0  0  0  0  0  0  0  0  0  0  0  0
    1.3814   -0.1248    2.1580 H   0  0  0  0  0  0  0  0  0  0  0  0
    3.8378   -0.1506   -2.1552 H   0  0  0  0  0  0  0  0  0  0  0  0
    3.8421   -0.1498    2.1526 H   0  0  0  0  0  0  0  0  0  0  0  0
    5.6792   -0.1702   -0.9186 H   0  0  0  0  0  0  0  0  0  0  0  0
  1  8  1  0  0  0  0
  2 12  1  0  0  0  0
  3 13  1  0  0  0  0
  4 14  1  0  0  0  0
  5 17  1  0  0  0  0
  5 23  1  0  0  0  0
  6  7  1  0  0  0  0
  6  8  1  0  0  0  0
  6  9  2  0  0  0  0
  7 10  2  0  0  0  0
  7 11  1  0  0  0  0
  8 12  2  0  0  0  0
  9 13  1  0  0  0  0
  9 18  1  0  0  0  0
 10 15  1  0  0  0  0
 10 19  1  0  0  0  0
 11 16  2  0  0  0  0
 11 20  1  0  0  0  0
 12 14  1  0  0  0  0
 13 14  2  0  0  0  0
 15 17  2  0  0  0  0
 15 21  1  0  0  0  0
 16 17  1  0  0  0  0
 16 22  1  0  0  0  0
M  END
> <PUBCHEM_COMPOUND_CID>
105101

> <PUBCHEM_CONFORMER_RMSD>
0.6

> <PUBCHEM_CONFORMER_DIVERSEORDER>
1

> <PUBCHEM_MMFF94_PARTIAL_CHARGES>
21
1 -0.18
10 -0.15
11 -0.15
12 0.18
13 0.18
14 0.18
15 -0.15
16 -0.15
17 0.08
18 0.15
19 0.15
2 -0.18
20 0.15
21 0.15
22 0.15
23 0.45
3 -0.18
4 -0.18
5 -0.53
8 0.18
9 -0.15

> <PUBCHEM_EFFECTIVE_ROTOR_COUNT>
1

> <PUBCHEM_PHARMACOPHORE_FEATURES>
3
1 5 donor
6 6 8 9 12 13 14 rings
6 7 10 11 15 16 17 rings

> <PUBCHEM_HEAVY_ATOM_COUNT>
17

> <PUBCHEM_ATOM_DEF_STEREO_COUNT>
0

> <PUBCHEM_ATOM_UDEF_STEREO_COUNT>
0

> <PUBCHEM_BOND_DEF_STEREO_COUNT>
0

> <PUBCHEM_BOND_UDEF_STEREO_COUNT>
0

> <PUBCHEM_ISOTOPIC_ATOM_COUNT>
0

> <PUBCHEM_COMPONENT_COUNT>
1

> <PUBCHEM_CACTVS_TAUTO_COUNT>
2

> <PUBCHEM_CONFORMER_ID>
00019A8D00000001

> <PUBCHEM_MMFF94_ENERGY>
51.1207

> <PUBCHEM_FEATURE_SELFOVERLAP>
15.223

> <PUBCHEM_SHAPE_FINGERPRINT>
10493431 412 18191013720210587681
11132069 177 18408882966570280981
11680986 33 18193282880017923289
12173636 292 18194684997745611397
12236239 1 17703791427049125866
12390115 104 18044081566032495305
12500047 106 18336833094667085038
12553582 1 18341616954281244499
13103583 49 17555131855001746027
13140716 1 18266172821764553499
13214271 11 18259708903904179468
13538477 17 18202284684329386747
13862211 1 18410858725205848023
14115302 16 17917707959573364231
14386348 63 17821725031254151750
14911166 2 18411706470023913119
15042514 8 18339918213369974963
15219456 202 17749669692131862206
15375462 189 17988928850942538547
15669948 3 18342178873078205875
16752209 62 18341623637355312747
16945 1 18410856551704002183
17804303 29 18335984177702302049
18175812 5 17749393628782263358
18186145 218 15410618038730095634
19049666 15 17678167398636878150
19141452 34 17822007567573354271
200 152 16558754507202762398
20279233 1 17821723931684579742
20510252 161 18261391212845866721
20645477 56 18336824290274551385
20871999 31 18411135839978058357
21029758 27 18201432563350792213
21065201 7 18408041827575149002
21267235 1 18341885290493735794
21501502 16 18122341285976443693
2297311 6 18335410284230232868
23175994 123 16950276304550827496
23184049 29 18267024951507304965
2334 1 17906453226056159851
23366157 5 17770221557220211317
23402539 116 18335427880162651005
23419403 2 17766316130414639157
23493267 7 18335704995842540642
23557571 272 18260263070897445532
23559900 14 18189331433096723070
2748010 2 18050010996096419743
474 4 17130693982421653956
573450 72 18271816743466695626
5902787 121 18267869393321887667
69090 78 17531252746793662031
7364860 26 17974005042217152585
77492 1 17704071802508927490
81228 2 18263065755922141201
9709674 26 18261104227231144462

> <PUBCHEM_SHAPE_MULTIPOLES>
351.46
8.54
2.37
0.96
4.56
0.34
0
-1.31
0
-3.41
0
0.89
-0.05
0

> <PUBCHEM_SHAPE_SELFOVERLAP>
728.303

> <PUBCHEM_SHAPE_VOLUME>
205.2

> <PUBCHEM_COORDINATE_TYPE>
2
5
10

$$$$

