585167
  -OEChem-06241222452D

 36 38  0     0  0  0  0  0  0999 V2000
    2.8070    0.9301    0.0000 O   0  0  0  0  0  0  0  0  0  0  0  0
    6.2711    2.9301    0.0000 N   0  0  0  0  0  0  0  0  0  0  0  0
    2.8070    2.9301    0.0000 N   0  0  0  0  0  0  0  0  0  0  0  0
    3.6730   -0.5699    0.0000 C   0  0  0  0  0  0  0  0  0  0  0  0
    2.9819   -2.4533    0.0000 C   0  0  0  0  0  0  0  0  0  0  0  0
    2.8368   -2.0182    0.0000 C   0  0  0  0  0  0  0  0  0  0  0  0
    4.5092   -2.0182    0.0000 C   0  0  0  0  0  0  0  0  0  0  0  0
    4.5092   -1.0527    0.0000 C   0  0  0  0  0  0  0  0  0  0  0  0
    2.8368   -1.0527    0.0000 C   0  0  0  0  0  0  0  0  0  0  0  0
    2.9819   -1.4080    0.0000 C   0  0  0  0  0  0  0  0  0  0  0  0
    3.6730   -2.3210    0.0000 C   0  0  0  0  0  0  0  0  0  0  0  0
    3.8876   -2.9301    0.0000 C   0  0  0  0  0  0  0  0  0  0  0  0
    2.0000   -2.5010    0.0000 C   0  0  0  0  0  0  0  0  0  0  0  0
    3.6730    0.4301    0.0000 C   0  0  0  0  0  0  0  0  0  0  0  0
    4.5390    0.9301    0.0000 C   0  0  0  0  0  0  0  0  0  0  0  0
    4.5390    1.9301    0.0000 C   0  0  0  0  0  0  0  0  0  0  0  0
    5.4050    2.4301    0.0000 C   0  0  0  0  0  0  0  0  0  0  0  0
    3.6730    2.4301    0.0000 C   0  0  0  0  0  0  0  0  0  0  0  0
    2.8478   -3.0586    0.0000 H   0  0  0  0  0  0  0  0  0  0  0  0
    5.1016   -2.2009    0.0000 H   0  0  0  0  0  0  0  0  0  0  0  0
    2.8912   -2.6358    0.0000 H   0  0  0  0  0  0  0  0  0  0  0  0
    2.6383   -0.8920    0.0000 H   0  0  0  0  0  0  0  0  0  0  0  0
    2.6247   -0.4701    0.0000 H   0  0  0  0  0  0  0  0  0  0  0  0
    2.2262   -1.1603    0.0000 H   0  0  0  0  0  0  0  0  0  0  0  0
    5.1198   -1.1603    0.0000 H   0  0  0  0  0  0  0  0  0  0  0  0
    4.7212   -0.4701    0.0000 H   0  0  0  0  0  0  0  0  0  0  0  0
    2.3885   -1.5875    0.0000 H   0  0  0  0  0  0  0  0  0  0  0  0
    3.3030   -2.8185    0.0000 H   0  0  0  0  0  0  0  0  0  0  0  0
    4.0430   -2.8185    0.0000 H   0  0  0  0  0  0  0  0  0  0  0  0
    3.5782   -3.4674    0.0000 H   0  0  0  0  0  0  0  0  0  0  0  0
    4.4127   -3.2597    0.0000 H   0  0  0  0  0  0  0  0  0  0  0  0
    1.5188   -2.1101    0.0000 H   0  0  0  0  0  0  0  0  0  0  0  0
    1.8068   -3.0901    0.0000 H   0  0  0  0  0  0  0  0  0  0  0  0
    4.7511    0.3475    0.0000 H   0  0  0  0  0  0  0  0  0  0  0  0
    5.1496    1.0378    0.0000 H   0  0  0  0  0  0  0  0  0  0  0  0
    4.0021    1.6201    0.0000 H   0  0  0  0  0  0  0  0  0  0  0  0
  1 14  2  0  0  0  0
  2 17  3  0  0  0  0
  3 18  3  0  0  0  0
  4  8  1  0  0  0  0
  4  9  1  0  0  0  0
  4 10  1  0  0  0  0
  4 14  1  0  0  0  0
  5 10  1  0  0  0  0
  5 12  1  0  0  0  0
  5 13  1  0  0  0  0
  5 19  1  0  0  0  0
  6  9  1  0  0  0  0
  6 11  1  0  0  0  0
  6 13  1  0  0  0  0
  6 21  1  0  0  0  0
  7  8  1  0  0  0  0
  7 11  1  0  0  0  0
  7 12  1  0  0  0  0
  7 20  1  0  0  0  0
  8 25  1  0  0  0  0
  8 26  1  0  0  0  0
  9 23  1  0  0  0  0
  9 24  1  0  0  0  0
 10 22  1  0  0  0  0
 10 27  1  0  0  0  0
 11 28  1  0  0  0  0
 11 29  1  0  0  0  0
 12 30  1  0  0  0  0
 12 31  1  0  0  0  0
 13 32  1  0  0  0  0
 13 33  1  0  0  0  0
 14 15  1  0  0  0  0
 15 16  1  0  0  0  0
 15 34  1  0  0  0  0
 15 35  1  0  0  0  0
 16 17  1  0  0  0  0
 16 18  1  0  0  0  0
 16 36  1  0  0  0  0
M  END
> <PUBCHEM_COMPOUND_CID>
585167

> <PUBCHEM_COMPOUND_CANONICALIZED>
1

> <PUBCHEM_CACTVS_COMPLEXITY>
418

> <PUBCHEM_CACTVS_HBOND_ACCEPTOR>
3

> <PUBCHEM_CACTVS_HBOND_DONOR>
0

> <PUBCHEM_CACTVS_ROTATABLE_BOND>
3

> <PUBCHEM_CACTVS_SUBSKEYS>
AAADceBzIAAAAAAAAAAAAAAAAAAAAAAAAAAwYMGAAAAAAAAAAAAAHgAAAAAADwSBgAAAAAAAAAAYBIAQAAAAAAAAAAAAAAEAAAAAgBIAAAAAAAAAAAAAAAkIiMCPAAAAAAAAAAAAAAQAAAAAAAAAAAAAAA==

> <PUBCHEM_IUPAC_OPENEYE_NAME>
2-[2-(1-adamantyl)-2-oxo-ethyl]propanedinitrile

> <PUBCHEM_IUPAC_CAS_NAME>
2-[2-(1-adamantyl)-2-oxoethyl]propanedinitrile

> <PUBCHEM_IUPAC_NAME>
2-[2-(1-adamantyl)-2-oxoethyl]propanedinitrile

> <PUBCHEM_IUPAC_SYSTEMATIC_NAME>
2-[2-(1-adamantyl)-2-oxidanylidene-ethyl]propanedinitrile

> <PUBCHEM_IUPAC_TRADITIONAL_NAME>
2-[2-(1-adamantyl)-2-keto-ethyl]malononitrile

> <PUBCHEM_IUPAC_INCHI>
InChI=1S/C15H18N2O/c16-8-13(9-17)4-14(18)15-5-10-1-11(6-15)3-12(2-10)7-15/h10-13H,1-7H2

> <PUBCHEM_IUPAC_INCHIKEY>
HLNGQZIGOWLQFI-UHFFFAOYSA-N

> <PUBCHEM_XLOGP3_AA>
2.1

> <PUBCHEM_EXACT_MASS>
242.141913

> <PUBCHEM_MOLECULAR_FORMULA>
C15H18N2O

> <PUBCHEM_MOLECULAR_WEIGHT>
242.31622

> <PUBCHEM_OPENEYE_CAN_SMILES>
C1C2CC3CC1CC(C2)(C3)C(=O)CC(C#N)C#N

> <PUBCHEM_OPENEYE_ISO_SMILES>
C1C2CC3CC1CC(C2)(C3)C(=O)CC(C#N)C#N

> <PUBCHEM_CACTVS_TPSA>
64.6

> <PUBCHEM_MONOISOTOPIC_WEIGHT>
242.141913

> <PUBCHEM_TOTAL_CHARGE>
0

> <PUBCHEM_HEAVY_ATOM_COUNT>
18

> <PUBCHEM_ATOM_DEF_STEREO_COUNT>
0

> <PUBCHEM_ATOM_UDEF_STEREO_COUNT>
0

> <PUBCHEM_BOND_DEF_STEREO_COUNT>
0

> <PUBCHEM_BOND_UDEF_STEREO_COUNT>
0

> <PUBCHEM_ISOTOPIC_ATOM_COUNT>
0

> <PUBCHEM_COMPONENT_COUNT>
1

> <PUBCHEM_CACTVS_TAUTO_COUNT>
2

> <PUBCHEM_COORDINATE_TYPE>
1
5
255

$$$$

