23667300
  -OEChem-07051212542D

 45 46  0     1  0  0  0  0  0999 V2000
    6.8671   -0.8371    0.0000 S   0  0  0  0  0  0  0  0  0  0  0  0
   11.3292   -2.9922    0.0000 S   0  0  0  0  0  0  0  0  0  0  0  0
    6.0010    3.6629    0.0000 Na  0  3  0  0  0  0  0  0  0  0  0  0
    8.7393   -1.3413    0.0000 O   0  0  0  0  0  0  0  0  0  0  0  0
    9.4470    1.3756    0.0000 O   0  0  0  0  0  0  0  0  0  0  0  0
    4.2690    0.6629    0.0000 O   0  0  0  0  0  0  0  0  0  0  0  0
    6.0010    2.6629    0.0000 O   0  5  0  0  0  0  0  0  0  0  0  0
    9.7378   -2.0754    0.0000 O   0  0  0  0  0  0  0  0  0  0  0  0
    7.7331    2.6629    0.0000 O   0  0  0  0  0  0  0  0  0  0  0  0
    3.4030    2.1629    0.0000 O   0  0  0  0  0  0  0  0  0  0  0  0
    7.7331    0.6629    0.0000 N   0  0  0  0  0  0  0  0  0  0  0  0
    9.7414   -0.3433    0.0000 N   0  0  0  0  0  0  0  0  0  0  0  0
    2.5369    0.6629    0.0000 N   0  0  0  0  0  0  0  0  0  0  0  0
    8.7414   -0.3413    0.0000 C   0  0  2  0  0  0  0  0  0  0  0  0
    7.7331   -0.3371    0.0000 C   0  0  1  0  0  0  0  0  0  0  0  0
    8.7414    0.6670    0.0000 C   0  0  0  0  0  0  0  0  0  0  0  0
    6.8671    1.1629    0.0000 C   0  0  0  0  0  0  0  0  0  0  0  0
    6.0010    0.6629    0.0000 C   0  0  0  0  0  0  0  0  0  0  0  0
    6.0010   -0.3371    0.0000 C   0  0  0  0  0  0  0  0  0  0  0  0
    5.1350    1.1629    0.0000 C   0  0  0  0  0  0  0  0  0  0  0  0
   10.2396   -1.2104    0.0000 C   0  0  0  0  0  0  0  0  0  0  0  0
    6.8671    2.1629    0.0000 C   0  0  0  0  0  0  0  0  0  0  0  0
    7.8723   -1.8395    0.0000 C   0  0  0  0  0  0  0  0  0  0  0  0
   11.2396   -1.2124    0.0000 C   0  0  0  0  0  0  0  0  0  0  0  0
   11.7378   -2.0795    0.0000 C   0  0  0  0  0  0  0  0  0  0  0  0
   12.7321   -2.1861    0.0000 C   0  0  0  0  0  0  0  0  0  0  0  0
    3.4030    1.1629    0.0000 C   0  0  0  0  0  0  0  0  0  0  0  0
   12.9380   -3.1646    0.0000 C   0  0  0  0  0  0  0  0  0  0  0  0
   12.0710   -3.6629    0.0000 C   0  0  0  0  0  0  0  0  0  0  0  0
    7.9514   -1.1586    0.0000 H   0  0  0  0  0  0  0  0  0  0  0  0
   10.0525    0.1930    0.0000 H   0  0  0  0  0  0  0  0  0  0  0  0
    5.3905   -0.2295    0.0000 H   0  0  0  0  0  0  0  0  0  0  0  0
    5.7890   -0.9197    0.0000 H   0  0  0  0  0  0  0  0  0  0  0  0
    5.5335    1.6378    0.0000 H   0  0  0  0  0  0  0  0  0  0  0  0
    4.7365    1.6378    0.0000 H   0  0  0  0  0  0  0  0  0  0  0  0
    7.5634   -1.3019    0.0000 H   0  0  0  0  0  0  0  0  0  0  0  0
    7.3347   -2.1484    0.0000 H   0  0  0  0  0  0  0  0  0  0  0  0
    8.1812   -2.3771    0.0000 H   0  0  0  0  0  0  0  0  0  0  0  0
   11.8226   -1.0016    0.0000 H   0  0  0  0  0  0  0  0  0  0  0  0
   11.1332   -0.6016    0.0000 H   0  0  0  0  0  0  0  0  0  0  0  0
   13.1479   -1.7262    0.0000 H   0  0  0  0  0  0  0  0  0  0  0  0
   13.5039   -3.4180    0.0000 H   0  0  0  0  0  0  0  0  0  0  0  0
   12.0049   -4.2793    0.0000 H   0  0  0  0  0  0  0  0  0  0  0  0
    2.0000    0.9729    0.0000 H   0  0  0  0  0  0  0  0  0  0  0  0
    2.5369    0.0429    0.0000 H   0  0  0  0  0  0  0  0  0  0  0  0
  1 15  1  0  0  0  0
  1 19  1  0  0  0  0
  2 25  1  0  0  0  0
  2 29  1  0  0  0  0
 14  4  1  6  0  0  0
  4 23  1  0  0  0  0
  5 16  2  0  0  0  0
  6 20  1  0  0  0  0
  6 27  1  0  0  0  0
  7 22  1  0  0  0  0
  8 21  2  0  0  0  0
  9 22  2  0  0  0  0
 10 27  2  0  0  0  0
 11 15  1  0  0  0  0
 11 16  1  0  0  0  0
 11 17  1  0  0  0  0
 12 14  1  0  0  0  0
 12 21  1  0  0  0  0
 12 31  1  0  0  0  0
 13 27  1  0  0  0  0
 13 44  1  0  0  0  0
 13 45  1  0  0  0  0
 14 15  1  0  0  0  0
 14 16  1  0  0  0  0
 15 30  1  6  0  0  0
 17 18  2  0  0  0  0
 17 22  1  0  0  0  0
 18 19  1  0  0  0  0
 18 20  1  0  0  0  0
 19 32  1  0  0  0  0
 19 33  1  0  0  0  0
 20 34  1  0  0  0  0
 20 35  1  0  0  0  0
 21 24  1  0  0  0  0
 23 36  1  0  0  0  0
 23 37  1  0  0  0  0
 23 38  1  0  0  0  0
 24 25  1  0  0  0  0
 24 39  1  0  0  0  0
 24 40  1  0  0  0  0
 25 26  2  0  0  0  0
 26 28  1  0  0  0  0
 26 41  1  0  0  0  0
 28 29  2  0  0  0  0
 28 42  1  0  0  0  0
 29 43  1  0  0  0  0
M  CHG  2   3   1   7  -1
M  END
> <PUBCHEM_COMPOUND_CID>
23667300

> <PUBCHEM_COMPOUND_CANONICALIZED>
1

> <PUBCHEM_CACTVS_COMPLEXITY>
750

> <PUBCHEM_CACTVS_HBOND_ACCEPTOR>
9

> <PUBCHEM_CACTVS_HBOND_DONOR>
2

> <PUBCHEM_CACTVS_ROTATABLE_BOND>
8

> <PUBCHEM_CACTVS_SUBSKEYS>
AAADceB7OCBgAAAAAAAAAAAAAABYASAAAAAgAAAAAAAQAAABgAAAHgQQAAAADAzl0AayCYPABAiMAiXSWAIDAIBgCBBIiBnIAMkKZDqgtTWdEAAglgC4qQcYCAAAAAAAAAAAAAAAAAAAAAAAAAAAAAAAAA==

> <PUBCHEM_IUPAC_OPENEYE_NAME>
sodium (6R,7S)-3-(carbamoyloxymethyl)-7-methoxy-8-oxo-7-[[2-(2-thienyl)acetyl]amino]-5-thia-1-azabicyclo[4.2.0]oct-2-ene-2-carboxylate

> <PUBCHEM_IUPAC_CAS_NAME>
sodium (6R,7S)-3-(carbamoyloxymethyl)-7-methoxy-8-oxo-7-[(1-oxo-2-thiophen-2-ylethyl)amino]-5-thia-1-azabicyclo[4.2.0]oct-2-ene-2-carboxylate

> <PUBCHEM_IUPAC_NAME>
sodium (6R,7S)-3-(carbamoyloxymethyl)-7-methoxy-8-oxo-7-[(2-thiophen-2-ylacetyl)amino]-5-thia-1-azabicyclo[4.2.0]oct-2-ene-2-carboxylate

> <PUBCHEM_IUPAC_SYSTEMATIC_NAME>
sodium (6R,7S)-3-(aminocarbonyloxymethyl)-7-methoxy-8-oxidanylidene-7-(2-thiophen-2-ylethanoylamino)-5-thia-1-azabicyclo[4.2.0]oct-2-ene-2-carboxylate

> <PUBCHEM_IUPAC_TRADITIONAL_NAME>
sodium (6R,7S)-3-(carbamoyloxymethyl)-8-keto-7-methoxy-7-[[2-(2-thienyl)acetyl]amino]-5-thia-1-azabicyclo[4.2.0]oct-2-ene-2-carboxylate

> <PUBCHEM_IUPAC_INCHI>
InChI=1S/C16H17N3O7S2.Na/c1-25-16(18-10(20)5-9-3-2-4-27-9)13(23)19-11(12(21)22)8(6-26-15(17)24)7-28-14(16)19;/h2-4,14H,5-7H2,1H3,(H2,17,24)(H,18,20)(H,21,22);/q;+1/p-1/t14-,16+;/m1./s1

> <PUBCHEM_IUPAC_INCHIKEY>
GNWUOVJNSFPWDD-XMZRARIVSA-M

> <PUBCHEM_EXACT_MASS>
449.032736

> <PUBCHEM_MOLECULAR_FORMULA>
C16H16N3NaO7S2

> <PUBCHEM_MOLECULAR_WEIGHT>
449.433909

> <PUBCHEM_OPENEYE_CAN_SMILES>
COC1(C2N(C1=O)C(=C(CS2)COC(=O)N)C(=O)[O-])NC(=O)CC3=CC=CS3.[Na+]

> <PUBCHEM_OPENEYE_ISO_SMILES>
CO[C@@]1([C@@H]2N(C1=O)C(=C(CS2)COC(=O)N)C(=O)[O-])NC(=O)CC3=CC=CS3.[Na+]

> <PUBCHEM_CACTVS_TPSA>
205

> <PUBCHEM_MONOISOTOPIC_WEIGHT>
449.032736

> <PUBCHEM_TOTAL_CHARGE>
0

> <PUBCHEM_HEAVY_ATOM_COUNT>
29

> <PUBCHEM_ATOM_DEF_STEREO_COUNT>
2

> <PUBCHEM_ATOM_UDEF_STEREO_COUNT>
0

> <PUBCHEM_BOND_DEF_STEREO_COUNT>
0

> <PUBCHEM_BOND_UDEF_STEREO_COUNT>
0

> <PUBCHEM_ISOTOPIC_ATOM_COUNT>
0

> <PUBCHEM_COMPONENT_COUNT>
2

> <PUBCHEM_CACTVS_TAUTO_COUNT>
4

> <PUBCHEM_NONSTANDARDBOND>
3  7  7

> <PUBCHEM_COORDINATE_TYPE>
1
5
255

> <PUBCHEM_BONDANNOTATIONS>
15  30  6
2  25  8
2  29  8
25  26  8
26  28  8
28  29  8
14  4  6

$$$$

