46173345
  -OEChem-07051212513D

 67 70  0     1  0  0  0  0  0999 V2000
    3.8499   -0.6903    1.0588 P   0  0  1  0  0  0  0  0  0  0  0  0
    4.6035    1.3222   -0.9509 P   0  0  2  0  0  0  0  0  0  0  0  0
    0.0084    3.3153   -1.1580 O   0  0  0  0  0  0  0  0  0  0  0  0
    0.7034   -2.4686    1.0601 O   0  0  0  0  0  0  0  0  0  0  0  0
    0.8198    4.6109    1.4577 O   0  0  0  0  0  0  0  0  0  0  0  0
   -0.7995    2.5378    2.2657 O   0  0  0  0  0  0  0  0  0  0  0  0
    3.0048   -2.0525    0.8651 O   0  0  0  0  0  0  0  0  0  0  0  0
   -1.8907   -3.0583   -1.4890 O   0  0  0  0  0  0  0  0  0  0  0  0
    0.5060   -3.8520   -2.8386 O   0  0  0  0  0  0  0  0  0  0  0  0
    2.1296   -4.2490   -0.6273 O   0  0  0  0  0  0  0  0  0  0  0  0
    3.4762    2.3960   -0.5110 O   0  0  0  0  0  0  0  0  0  0  0  0
   -1.3764   -4.1815    1.8367 O   0  0  0  0  0  0  0  0  0  0  0  0
    3.9914   -0.0809   -0.4319 O   0  0  0  0  0  0  0  0  0  0  0  0
   -2.6837   -2.1000    3.5197 O   0  0  0  0  0  0  0  0  0  0  0  0
    2.8201    0.3285    1.7794 O   0  0  0  0  0  0  0  0  0  0  0  0
    5.8206    1.5915    0.0799 O   0  0  0  0  0  0  0  0  0  0  0  0
    5.1554   -0.8636    1.7793 O   0  0  0  0  0  0  0  0  0  0  0  0
    4.9866    1.3379   -2.4019 O   0  0  0  0  0  0  0  0  0  0  0  0
   -1.9063    1.8800   -0.6769 N   0  0  0  0  0  0  0  0  0  0  0  0
   -2.6634    0.1591   -1.8748 N   0  0  0  0  0  0  0  0  0  0  0  0
   -3.9089    2.4219    0.5863 N   0  0  0  0  0  0  0  0  0  0  0  0
   -5.7501    0.9260    0.0131 N   0  0  0  0  0  0  0  0  0  0  0  0
   -5.5263   -0.8275   -1.5997 N   0  0  0  0  0  0  0  0  0  0  0  0
    1.1085    3.3095    0.9485 C   0  0  1  0  0  0  0  0  0  0  0  0
   -0.1199    2.4255    1.0312 C   0  0  2  0  0  0  0  0  0  0  0  0
    1.3171    3.4290   -0.5557 C   0  0  1  0  0  0  0  0  0  0  0  0
   -0.9464    2.9207   -0.1511 C   0  0  1  0  0  0  0  0  0  0  0  0
   -0.5892   -2.3893    0.4505 C   0  0  1  0  0  0  0  0  0  0  0  0
   -0.6557   -3.2665   -0.8075 C   0  0  2  0  0  0  0  0  0  0  0  0
    0.4831   -2.9123   -1.7673 C   0  0  1  0  0  0  0  0  0  0  0  0
    1.8275   -2.9124   -1.0399 C   0  0  1  0  0  0  0  0  0  0  0  0
    1.7481   -2.0161    0.1956 C   0  0  1  0  0  0  0  0  0  0  0  0
   -1.6092   -2.8158    1.5020 C   0  0  2  0  0  0  0  0  0  0  0  0
    2.2013    2.3279   -1.1251 C   0  0  0  0  0  0  0  0  0  0  0  0
   -1.4810   -1.9804    2.7674 C   0  0  0  0  0  0  0  0  0  0  0  0
   -3.2107    1.7089   -0.3101 C   0  0  0  0  0  0  0  0  0  0  0  0
   -1.6242    0.9261   -1.6186 C   0  0  0  0  0  0  0  0  0  0  0  0
   -3.6619    0.6373   -1.0639 C   0  0  0  0  0  0  0  0  0  0  0  0
   -4.9851    0.2500   -0.8775 C   0  0  0  0  0  0  0  0  0  0  0  0
   -5.1730    1.9549    0.6798 C   0  0  0  0  0  0  0  0  0  0  0  0
    1.9591    2.9237    1.5131 H   0  0  0  0  0  0  0  0  0  0  0  0
    0.1609    1.3748    0.8883 H   0  0  0  0  0  0  0  0  0  0  0  0
    1.7305    4.4079   -0.8246 H   0  0  0  0  0  0  0  0  0  0  0  0
   -1.5666    3.7900    0.0988 H   0  0  0  0  0  0  0  0  0  0  0  0
   -0.7902   -1.3421    0.1898 H   0  0  0  0  0  0  0  0  0  0  0  0
   -0.5968   -4.3337   -0.5700 H   0  0  0  0  0  0  0  0  0  0  0  0
    0.2987   -1.9264   -2.2119 H   0  0  0  0  0  0  0  0  0  0  0  0
    2.6385   -2.6041   -1.7077 H   0  0  0  0  0  0  0  0  0  0  0  0
    1.5239   -0.9859   -0.1050 H   0  0  0  0  0  0  0  0  0  0  0  0
   -2.6298   -2.7388    1.1079 H   0  0  0  0  0  0  0  0  0  0  0  0
    1.7611    1.3390   -0.9615 H   0  0  0  0  0  0  0  0  0  0  0  0
    2.3087    2.4553   -2.2081 H   0  0  0  0  0  0  0  0  0  0  0  0
   -0.6537   -2.3199    3.3991 H   0  0  0  0  0  0  0  0  0  0  0  0
   -1.3512   -0.9194    2.5306 H   0  0  0  0  0  0  0  0  0  0  0  0
    1.6240    5.1481    1.3564 H   0  0  0  0  0  0  0  0  0  0  0  0
   -0.1698    2.2996    2.9673 H   0  0  0  0  0  0  0  0  0  0  0  0
   -1.9647   -2.1113   -1.6962 H   0  0  0  0  0  0  0  0  0  0  0  0
    1.2434   -3.6094   -3.4242 H   0  0  0  0  0  0  0  0  0  0  0  0
   -0.6499    0.8318   -2.0780 H   0  0  0  0  0  0  0  0  0  0  0  0
    1.5550   -4.4744    0.1236 H   0  0  0  0  0  0  0  0  0  0  0  0
   -1.8010   -4.7308    1.1564 H   0  0  0  0  0  0  0  0  0  0  0  0
   -2.5770   -1.5532    4.3167 H   0  0  0  0  0  0  0  0  0  0  0  0
   -5.8143    2.4733    1.3845 H   0  0  0  0  0  0  0  0  0  0  0  0
    3.1735    1.1598    2.1609 H   0  0  0  0  0  0  0  0  0  0  0  0
    5.6392    1.5817    1.0438 H   0  0  0  0  0  0  0  0  0  0  0  0
   -6.4903   -1.0903   -1.4460 H   0  0  0  0  0  0  0  0  0  0  0  0
   -4.9568   -1.3349   -2.2633 H   0  0  0  0  0  0  0  0  0  0  0  0
  1  7  1  0  0  0  0
  1 13  1  0  0  0  0
  1 15  1  0  0  0  0
  1 17  2  0  0  0  0
  2 11  1  0  0  0  0
  2 13  1  0  0  0  0
  2 16  1  0  0  0  0
  2 18  2  0  0  0  0
  3 26  1  0  0  0  0
  3 27  1  0  0  0  0
  4 28  1  0  0  0  0
  4 32  1  0  0  0  0
  5 24  1  0  0  0  0
  5 55  1  0  0  0  0
  6 25  1  0  0  0  0
  6 56  1  0  0  0  0
  7 32  1  0  0  0  0
  8 29  1  0  0  0  0
  8 57  1  0  0  0  0
  9 30  1  0  0  0  0
  9 58  1  0  0  0  0
 10 31  1  0  0  0  0
 10 60  1  0  0  0  0
 11 34  1  0  0  0  0
 12 33  1  0  0  0  0
 12 61  1  0  0  0  0
 14 35  1  0  0  0  0
 14 62  1  0  0  0  0
 15 64  1  0  0  0  0
 16 65  1  0  0  0  0
 19 27  1  0  0  0  0
 19 36  1  0  0  0  0
 19 37  1  0  0  0  0
 20 37  2  0  0  0  0
 20 38  1  0  0  0  0
 21 36  1  0  0  0  0
 21 40  2  0  0  0  0
 22 39  2  0  0  0  0
 22 40  1  0  0  0  0
 23 39  1  0  0  0  0
 23 66  1  0  0  0  0
 23 67  1  0  0  0  0
 24 25  1  0  0  0  0
 24 26  1  0  0  0  0
 24 41  1  0  0  0  0
 25 27  1  0  0  0  0
 25 42  1  0  0  0  0
 26 34  1  0  0  0  0
 26 43  1  0  0  0  0
 27 44  1  0  0  0  0
 28 29  1  0  0  0  0
 28 33  1  0  0  0  0
 28 45  1  0  0  0  0
 29 30  1  0  0  0  0
 29 46  1  0  0  0  0
 30 31  1  0  0  0  0
 30 47  1  0  0  0  0
 31 32  1  0  0  0  0
 31 48  1  0  0  0  0
 32 49  1  0  0  0  0
 33 35  1  0  0  0  0
 33 50  1  0  0  0  0
 34 51  1  0  0  0  0
 34 52  1  0  0  0  0
 35 53  1  0  0  0  0
 35 54  1  0  0  0  0
 36 38  2  0  0  0  0
 37 59  1  0  0  0  0
 38 39  1  0  0  0  0
 40 63  1  0  0  0  0
M  END
> <PUBCHEM_COMPOUND_CID>
46173345

> <PUBCHEM_CONFORMER_RMSD>
1.6

> <PUBCHEM_CONFORMER_DIVERSEORDER>
2
156
157
3
113
97
85
93
104
112
127
20
78
46
1
114
155
121
71
4
162
5
163
159
134
42
151
35
102
139
11
75
161
88
27
91
13
59
124
30
16
153
120
131
122
48
138
106
63
154
60
80
10
143
148
84
25
136
66
119
22
77
49
7
158
54
160
52
145
14
99
96
92
57
140
107
6
125
8
68
149
19
98
56
90
81
53
135
89
128
118
79
95
100
142
115
146
105
82
83
38
132
39
144
31
147
67
86
72
33
70
15
28
137
129
76
44
51
74
103
73
26
34
117
69
62
41
87
116
32
40
24
109
150
21
36
133
65
29
9
123
23
55
45
43
108
130
141
110
61
50
47
126
94
37
58
101
111
64
12
17
152
18

> <PUBCHEM_MMFF94_PARTIAL_CHARGES>
53
1 1.51
10 -0.68
11 -0.55
12 -0.68
13 -0.54
14 -0.68
15 -0.77
16 -0.77
17 -0.7
18 -0.7
19 0.05
2 1.51
20 -0.57
21 -0.57
22 -0.62
23 -0.9
24 0.28
25 0.28
26 0.28
27 0.54
28 0.28
29 0.28
3 -0.56
30 0.28
31 0.28
32 0.56
33 0.28
34 0.28
35 0.28
36 0.11
37 0.04
38 0.23
39 0.41
4 -0.56
40 0.47
5 -0.68
55 0.4
56 0.4
57 0.4
58 0.4
59 0.15
6 -0.68
60 0.4
61 0.4
62 0.4
63 0.15
64 0.5
65 0.5
66 0.4
67 0.4
7 -0.55
8 -0.68
9 -0.68

> <PUBCHEM_EFFECTIVE_ROTOR_COUNT>
12.2

> <PUBCHEM_PHARMACOPHORE_FEATURES>
28
1 10 acceptor
1 10 donor
1 12 acceptor
1 12 donor
1 14 acceptor
1 14 donor
1 15 acceptor
1 16 acceptor
1 17 acceptor
1 18 acceptor
1 23 donor
1 3 acceptor
1 4 acceptor
1 5 acceptor
1 5 donor
1 6 acceptor
1 6 donor
1 8 acceptor
1 8 donor
1 9 acceptor
1 9 donor
3 19 20 37 cation
3 21 22 40 cation
3 22 23 39 cation
5 19 20 36 37 38 rings
5 3 24 25 26 27 rings
6 21 22 36 38 39 40 rings
6 4 28 29 30 31 32 rings

> <PUBCHEM_HEAVY_ATOM_COUNT>
40

> <PUBCHEM_ATOM_DEF_STEREO_COUNT>
10

> <PUBCHEM_ATOM_UDEF_STEREO_COUNT>
0

> <PUBCHEM_BOND_DEF_STEREO_COUNT>
0

> <PUBCHEM_BOND_UDEF_STEREO_COUNT>
0

> <PUBCHEM_ISOTOPIC_ATOM_COUNT>
0

> <PUBCHEM_COMPONENT_COUNT>
1

> <PUBCHEM_CACTVS_TAUTO_COUNT>
3

> <PUBCHEM_CONFORMER_ID>
02C08CA100000002

> <PUBCHEM_MMFF94_ENERGY>
60.23

> <PUBCHEM_FEATURE_SELFOVERLAP>
142.388

> <PUBCHEM_SHAPE_MULTIPOLES>
712.07
9.72
6.33
2.49
0.94
1.74
0.89
-4.29
-1.42
-1.18
0.32
0.45
1.72
0.01

> <PUBCHEM_SHAPE_SELFOVERLAP>
1477.833

> <PUBCHEM_SHAPE_VOLUME>
407.5

> <PUBCHEM_COORDINATE_TYPE>
2
5
10

$$$$

