656733
  -OEChem-07051213043D

 68 74  0     0  0  0  0  0  0999 V2000
   -1.2576    2.7396   -0.9853 N   0  3  0  0  0  0  0  0  0  0  0  0
   -1.2914   -2.7226   -0.9870 N   0  3  0  0  0  0  0  0  0  0  0  0
    2.6956    3.3428    0.3053 N   0  0  0  0  0  0  0  0  0  0  0  0
    2.6531   -3.3747    0.3063 N   0  0  0  0  0  0  0  0  0  0  0  0
   -2.6231    2.5618   -1.5670 C   0  0  0  0  0  0  0  0  0  0  0  0
   -2.6541   -2.5268   -1.5696 C   0  0  0  0  0  0  0  0  0  0  0  0
   -1.0489    3.0961    0.3223 C   0  0  0  0  0  0  0  0  0  0  0  0
   -1.0883   -3.0838    0.3202 C   0  0  0  0  0  0  0  0  0  0  0  0
   -3.2653    1.2436   -1.2149 C   0  0  0  0  0  0  0  0  0  0  0  0
   -3.2800   -1.2012   -1.2157 C   0  0  0  0  0  0  0  0  0  0  0  0
    0.2892    3.3024    0.7828 C   0  0  0  0  0  0  0  0  0  0  0  0
    0.2469   -3.3069    0.7816 C   0  0  0  0  0  0  0  0  0  0  0  0
    1.3816    3.1611   -0.1177 C   0  0  0  0  0  0  0  0  0  0  0  0
    1.3417   -3.1773   -0.1179 C   0  0  0  0  0  0  0  0  0  0  0  0
   -2.6368    0.0174   -1.4879 C   0  0  0  0  0  0  0  0  0  0  0  0
   -0.2168    2.5917   -1.8310 C   0  0  0  0  0  0  0  0  0  0  0  0
   -0.2482   -2.5859   -1.8316 C   0  0  0  0  0  0  0  0  0  0  0  0
    1.0892    2.7924   -1.4296 C   0  0  0  0  0  0  0  0  0  0  0  0
    1.0550   -2.8031   -1.4293 C   0  0  0  0  0  0  0  0  0  0  0  0
   -4.5595    1.2342   -0.6763 C   0  0  0  0  0  0  0  0  0  0  0  0
   -4.5740   -1.1765   -0.6770 C   0  0  0  0  0  0  0  0  0  0  0  0
    3.8842    2.8882   -0.4027 C   0  0  0  0  0  0  0  0  0  0  0  0
    3.8479   -2.9355   -0.4010 C   0  0  0  0  0  0  0  0  0  0  0  0
   -2.1173    3.2671    1.2284 C   0  0  0  0  0  0  0  0  0  0  0  0
   -2.1595   -3.2434    1.2249 C   0  0  0  0  0  0  0  0  0  0  0  0
    0.4635    3.6422    2.1478 C   0  0  0  0  0  0  0  0  0  0  0  0
    0.4159   -3.6511    2.1462 C   0  0  0  0  0  0  0  0  0  0  0  0
    3.9848    1.3833   -0.3987 C   0  0  0  0  0  0  0  0  0  0  0  0
    3.9672   -1.4320   -0.3979 C   0  0  0  0  0  0  0  0  0  0  0  0
   -5.2067    0.0326   -0.4011 C   0  0  0  0  0  0  0  0  0  0  0  0
   -1.9025    3.6100    2.5615 C   0  0  0  0  0  0  0  0  0  0  0  0
   -1.9501   -3.5908    2.5577 C   0  0  0  0  0  0  0  0  0  0  0  0
   -0.6120    3.7930    3.0229 C   0  0  0  0  0  0  0  0  0  0  0  0
   -0.6622   -3.7899    3.0201 C   0  0  0  0  0  0  0  0  0  0  0  0
    4.0017    0.6733    0.8090 C   0  0  0  0  0  0  0  0  0  0  0  0
    4.0261    0.6727   -1.6037 C   0  0  0  0  0  0  0  0  0  0  0  0
    3.9930   -0.7216    0.8094 C   0  0  0  0  0  0  0  0  0  0  0  0
    4.0174   -0.7225   -1.6033 C   0  0  0  0  0  0  0  0  0  0  0  0
   -2.5552    2.6422   -2.6591 H   0  0  0  0  0  0  0  0  0  0  0  0
   -3.2212    3.4238   -1.2490 H   0  0  0  0  0  0  0  0  0  0  0  0
   -2.5863   -2.6062   -2.6618 H   0  0  0  0  0  0  0  0  0  0  0  0
   -3.2632   -3.3817   -1.2536 H   0  0  0  0  0  0  0  0  0  0  0  0
   -1.6500    0.0116   -1.9431 H   0  0  0  0  0  0  0  0  0  0  0  0
   -0.4466    2.3121   -2.8536 H   0  0  0  0  0  0  0  0  0  0  0  0
   -0.4737   -2.3018   -2.8539 H   0  0  0  0  0  0  0  0  0  0  0  0
    1.8680    2.6721   -2.1761 H   0  0  0  0  0  0  0  0  0  0  0  0
    1.8357   -2.6911   -2.1751 H   0  0  0  0  0  0  0  0  0  0  0  0
    2.8585    3.7858    1.2003 H   0  0  0  0  0  0  0  0  0  0  0  0
    2.8099   -3.8205    1.2011 H   0  0  0  0  0  0  0  0  0  0  0  0
    3.9134    3.2991   -1.4185 H   0  0  0  0  0  0  0  0  0  0  0  0
    4.7706    3.2881    0.1052 H   0  0  0  0  0  0  0  0  0  0  0  0
    4.7288   -3.3461    0.1077 H   0  0  0  0  0  0  0  0  0  0  0  0
    3.8725   -3.3473   -1.4166 H   0  0  0  0  0  0  0  0  0  0  0  0
   -5.0788    2.1680   -0.4750 H   0  0  0  0  0  0  0  0  0  0  0  0
   -5.1046   -2.1041   -0.4763 H   0  0  0  0  0  0  0  0  0  0  0  0
   -3.1501    3.1401    0.9234 H   0  0  0  0  0  0  0  0  0  0  0  0
   -3.1904   -3.1037    0.9192 H   0  0  0  0  0  0  0  0  0  0  0  0
    1.4527    3.7984    2.5710 H   0  0  0  0  0  0  0  0  0  0  0  0
    1.4027   -3.8200    2.5700 H   0  0  0  0  0  0  0  0  0  0  0  0
   -6.2104    0.0385    0.0135 H   0  0  0  0  0  0  0  0  0  0  0  0
   -2.7460    3.7309    3.2346 H   0  0  0  0  0  0  0  0  0  0  0  0
   -2.7955   -3.7026    3.2299 H   0  0  0  0  0  0  0  0  0  0  0  0
   -0.4350    4.0560    4.0616 H   0  0  0  0  0  0  0  0  0  0  0  0
   -0.4893   -4.0566    4.0585 H   0  0  0  0  0  0  0  0  0  0  0  0
    3.9895    1.2024    1.7587 H   0  0  0  0  0  0  0  0  0  0  0  0
    4.0312    1.1994   -2.5547 H   0  0  0  0  0  0  0  0  0  0  0  0
    3.9743   -1.2500    1.7594 H   0  0  0  0  0  0  0  0  0  0  0  0
    4.0160   -1.2498   -2.5540 H   0  0  0  0  0  0  0  0  0  0  0  0
  1  5  1  0  0  0  0
  1  7  1  0  0  0  0
  1 16  2  0  0  0  0
  2  6  1  0  0  0  0
  2  8  1  0  0  0  0
  2 17  2  0  0  0  0
  3 13  1  0  0  0  0
  3 22  1  0  0  0  0
  3 48  1  0  0  0  0
  4 14  1  0  0  0  0
  4 23  1  0  0  0  0
  4 49  1  0  0  0  0
  5  9  1  0  0  0  0
  5 39  1  0  0  0  0
  5 40  1  0  0  0  0
  6 10  1  0  0  0  0
  6 41  1  0  0  0  0
  6 42  1  0  0  0  0
  7 11  1  0  0  0  0
  7 24  2  0  0  0  0
  8 12  1  0  0  0  0
  8 25  2  0  0  0  0
  9 15  2  0  0  0  0
  9 20  1  0  0  0  0
 10 15  1  0  0  0  0
 10 21  2  0  0  0  0
 11 13  1  0  0  0  0
 11 26  2  0  0  0  0
 12 14  1  0  0  0  0
 12 27  2  0  0  0  0
 13 18  2  0  0  0  0
 14 19  2  0  0  0  0
 15 43  1  0  0  0  0
 16 18  1  0  0  0  0
 16 44  1  0  0  0  0
 17 19  1  0  0  0  0
 17 45  1  0  0  0  0
 18 46  1  0  0  0  0
 19 47  1  0  0  0  0
 20 30  2  0  0  0  0
 20 54  1  0  0  0  0
 21 30  1  0  0  0  0
 21 55  1  0  0  0  0
 22 28  1  0  0  0  0
 22 50  1  0  0  0  0
 22 51  1  0  0  0  0
 23 29  1  0  0  0  0
 23 52  1  0  0  0  0
 23 53  1  0  0  0  0
 24 31  1  0  0  0  0
 24 56  1  0  0  0  0
 25 32  1  0  0  0  0
 25 57  1  0  0  0  0
 26 33  1  0  0  0  0
 26 58  1  0  0  0  0
 27 34  1  0  0  0  0
 27 59  1  0  0  0  0
 28 35  2  0  0  0  0
 28 36  1  0  0  0  0
 29 37  2  0  0  0  0
 29 38  1  0  0  0  0
 30 60  1  0  0  0  0
 31 33  2  0  0  0  0
 31 61  1  0  0  0  0
 32 34  2  0  0  0  0
 32 62  1  0  0  0  0
 33 63  1  0  0  0  0
 34 64  1  0  0  0  0
 35 37  1  0  0  0  0
 35 65  1  0  0  0  0
 36 38  2  0  0  0  0
 36 66  1  0  0  0  0
 37 67  1  0  0  0  0
 38 68  1  0  0  0  0
M  CHG  2   1   1   2   1
M  END
> <PUBCHEM_COMPOUND_CID>
656733

> <PUBCHEM_CONFORMER_RMSD>
0.8

> <PUBCHEM_CONFORMER_DIVERSEORDER>
1
5
3
2
6
4
7

> <PUBCHEM_MMFF94_PARTIAL_CHARGES>
58
1 -0.21
10 -0.14
13 0.1
14 0.1
15 -0.15
16 0.21
17 0.21
18 -0.15
19 -0.15
2 -0.21
20 -0.15
21 -0.15
22 0.51
23 0.51
24 -0.15
25 -0.15
26 -0.15
27 -0.15
28 -0.14
29 -0.14
3 -0.87
30 -0.15
31 -0.15
32 -0.15
33 -0.15
34 -0.15
35 -0.15
36 -0.15
37 -0.15
38 -0.15
4 -0.87
43 0.15
44 0.15
45 0.15
46 0.15
47 0.15
48 0.4
49 0.4
5 0.63
54 0.15
55 0.15
56 0.15
57 0.15
58 0.15
59 0.15
6 0.63
60 0.15
61 0.15
62 0.15
63 0.15
64 0.15
65 0.15
66 0.15
67 0.15
68 0.15
7 0.36
8 0.36
9 -0.14

> <PUBCHEM_EFFECTIVE_ROTOR_COUNT>
1.2

> <PUBCHEM_PHARMACOPHORE_FEATURES>
10
1 3 cation
1 3 donor
1 4 cation
1 4 donor
6 1 7 11 13 16 18 rings
6 2 8 12 14 17 19 rings
6 28 29 35 36 37 38 rings
6 7 11 24 26 31 33 rings
6 8 12 25 27 32 34 rings
6 9 10 15 20 21 30 rings

> <PUBCHEM_HEAVY_ATOM_COUNT>
38

> <PUBCHEM_ATOM_DEF_STEREO_COUNT>
0

> <PUBCHEM_ATOM_UDEF_STEREO_COUNT>
0

> <PUBCHEM_BOND_DEF_STEREO_COUNT>
0

> <PUBCHEM_BOND_UDEF_STEREO_COUNT>
0

> <PUBCHEM_ISOTOPIC_ATOM_COUNT>
0

> <PUBCHEM_COMPONENT_COUNT>
1

> <PUBCHEM_CACTVS_TAUTO_COUNT>
2

> <PUBCHEM_CONFORMER_ID>
000A055D00000001

> <PUBCHEM_MMFF94_ENERGY>
155.6925

> <PUBCHEM_FEATURE_SELFOVERLAP>
50.798

> <PUBCHEM_SHAPE_FINGERPRINT>
10928967 22 17331388187604811298
12788726 201 18186511107934974220
13122387 1 18338806623823937022
14114207 22 15532593469237863739
14725015 67 18199486487292191055
150020 26 17548967863006817675
15264996 142 17987218101666921082
15297060 5 16810965101561854043
15351339 4 18338527433928381945
16067690 210 15001098593603772248
17809404 112 15743338727197266623
17974551 9 18122633742841639301
19311894 1 17183341158264180070
20764821 26 17907306455194397972
21133410 62 17625806533387792857
35225 105 17608891513325235872
392239 28 18129938022256174307
437795 70 17828468495461738310
45266715 3 17106820157577135925
463206 1 17832987526716230592
469060 322 17342917541911138461
50150288 127 17389346546197570360
5081480 168 17537394537527136678
5265222 85 18125717894517745229
5309563 4 17187267514803497408
56638632 10 17613422351297691555
86090 222 18196949777076604095

> <PUBCHEM_SHAPE_MULTIPOLES>
762.1
8.08
7.7
2.65
1.49
0.01
-1.85
0.01
3.19
-0.23
-4.51
-1.17
-0.01
0.03

> <PUBCHEM_SHAPE_SELFOVERLAP>
1709.124

> <PUBCHEM_SHAPE_VOLUME>
393.5

> <PUBCHEM_COORDINATE_TYPE>
2
5
10

$$$$

