6914273
  -OEChem-07051212523D

 33 35  0     0  0  0  0  0  0999 V2000
    0.2278   -0.2544   -0.0008 O   0  0  0  0  0  0  0  0  0  0  0  0
   -6.0991    2.9676    0.0006 O   0  0  0  0  0  0  0  0  0  0  0  0
   -6.0940   -1.6217    0.0005 O   0  0  0  0  0  0  0  0  0  0  0  0
    7.4267    0.3086    0.0014 O   0  5  0  0  0  0  0  0  0  0  0  0
    6.5601    2.3255   -0.0003 O   0  0  0  0  0  0  0  0  0  0  0  0
   -4.3816   -0.0159    0.0001 N   0  0  0  0  0  0  0  0  0  0  0  0
   -6.4765    0.6736    0.0003 N   0  0  0  0  0  0  0  0  0  0  0  0
   -3.3250   -0.8537    0.0004 N   0  0  0  0  0  0  0  0  0  0  0  0
    6.4348    1.0770    0.0005 N   0  3  0  0  0  0  0  0  0  0  0  0
   -4.2396    1.4078   -0.0004 C   0  0  0  0  0  0  0  0  0  0  0  0
    1.2418   -1.1547   -0.0007 C   0  0  0  0  0  0  0  0  0  0  0  0
    2.5671   -0.5852   -0.0005 C   0  0  0  0  0  0  0  0  0  0  0  0
   -0.9240   -0.9754   -0.0003 C   0  0  0  0  0  0  0  0  0  0  0  0
   -5.7021    1.8107   -0.0004 C   0  0  0  0  0  0  0  0  0  0  0  0
   -5.6955   -0.4652    0.0003 C   0  0  0  0  0  0  0  0  0  0  0  0
    0.7604   -2.4381   -0.0004 C   0  0  0  0  0  0  0  0  0  0  0  0
   -0.6502   -2.3233    0.0000 C   0  0  0  0  0  0  0  0  0  0  0  0
    3.6848   -1.4196    0.0003 C   0  0  0  0  0  0  0  0  0  0  0  0
    2.7309    0.8001   -0.0009 C   0  0  0  0  0  0  0  0  0  0  0  0
   -2.1556   -0.2622    0.0001 C   0  0  0  0  0  0  0  0  0  0  0  0
    5.1302    0.5165    0.0001 C   0  0  0  0  0  0  0  0  0  0  0  0
    4.9663   -0.8688    0.0006 C   0  0  0  0  0  0  0  0  0  0  0  0
    4.0124    1.3508   -0.0006 C   0  0  0  0  0  0  0  0  0  0  0  0
   -3.7674    1.7658   -0.9189 H   0  0  0  0  0  0  0  0  0  0  0  0
   -3.7673    1.7663    0.9179 H   0  0  0  0  0  0  0  0  0  0  0  0
    1.3344   -3.3538   -0.0003 H   0  0  0  0  0  0  0  0  0  0  0  0
   -7.4899    0.6713    0.0007 H   0  0  0  0  0  0  0  0  0  0  0  0
   -1.3717   -3.1281    0.0004 H   0  0  0  0  0  0  0  0  0  0  0  0
    3.5896   -2.5023    0.0007 H   0  0  0  0  0  0  0  0  0  0  0  0
    1.8851    1.4830   -0.0015 H   0  0  0  0  0  0  0  0  0  0  0  0
   -2.0170    0.8314   -0.0001 H   0  0  0  0  0  0  0  0  0  0  0  0
    5.8141   -1.5493    0.0012 H   0  0  0  0  0  0  0  0  0  0  0  0
    4.1023    2.4342   -0.0010 H   0  0  0  0  0  0  0  0  0  0  0  0
  1 11  1  0  0  0  0
  1 13  1  0  0  0  0
  2 14  2  0  0  0  0
  3 15  2  0  0  0  0
  4  9  1  0  0  0  0
  5  9  2  0  0  0  0
  6  8  1  0  0  0  0
  6 10  1  0  0  0  0
  6 15  1  0  0  0  0
  7 14  1  0  0  0  0
  7 15  1  0  0  0  0
  7 27  1  0  0  0  0
  8 20  2  0  0  0  0
  9 21  1  0  0  0  0
 10 14  1  0  0  0  0
 10 24  1  0  0  0  0
 10 25  1  0  0  0  0
 11 12  1  0  0  0  0
 11 16  2  0  0  0  0
 12 18  2  0  0  0  0
 12 19  1  0  0  0  0
 13 17  2  0  0  0  0
 13 20  1  0  0  0  0
 16 17  1  0  0  0  0
 16 26  1  0  0  0  0
 17 28  1  0  0  0  0
 18 22  1  0  0  0  0
 18 29  1  0  0  0  0
 19 23  2  0  0  0  0
 19 30  1  0  0  0  0
 20 31  1  0  0  0  0
 21 22  2  0  0  0  0
 21 23  1  0  0  0  0
 22 32  1  0  0  0  0
 23 33  1  0  0  0  0
M  CHG  2   4  -1   9   1
M  END
> <PUBCHEM_COMPOUND_CID>
6914273

> <PUBCHEM_CONFORMER_RMSD>
0.8

> <PUBCHEM_CONFORMER_DIVERSEORDER>
1
4
7
6
2
8
3
5

> <PUBCHEM_MMFF94_PARTIAL_CHARGES>
31
1 -0.28
10 0.36
11 0.09
12 0.05
13 0.05
14 0.57
15 0.69
16 -0.15
17 -0.15
18 -0.15
19 -0.15
2 -0.57
20 0.47
21 0.13
22 -0.15
23 -0.15
26 0.15
27 0.37
28 0.15
29 0.15
3 -0.57
30 0.15
31 0.06
32 0.15
33 0.15
4 -0.52
5 -0.52
6 -0.3
7 -0.49
8 -0.51
9 0.91

> <PUBCHEM_EFFECTIVE_ROTOR_COUNT>
4.6

> <PUBCHEM_PHARMACOPHORE_FEATURES>
11
1 1 acceptor
1 2 acceptor
1 3 acceptor
1 4 acceptor
1 4 anion
1 5 acceptor
1 7 donor
1 8 acceptor
5 1 11 13 16 17 rings
5 6 7 10 14 15 rings
6 12 18 19 21 22 23 rings

> <PUBCHEM_HEAVY_ATOM_COUNT>
23

> <PUBCHEM_ATOM_DEF_STEREO_COUNT>
0

> <PUBCHEM_ATOM_UDEF_STEREO_COUNT>
0

> <PUBCHEM_BOND_DEF_STEREO_COUNT>
1

> <PUBCHEM_BOND_UDEF_STEREO_COUNT>
0

> <PUBCHEM_ISOTOPIC_ATOM_COUNT>
0

> <PUBCHEM_COMPONENT_COUNT>
1

> <PUBCHEM_CACTVS_TAUTO_COUNT>
3

> <PUBCHEM_CONFORMER_ID>
006980E100000001

> <PUBCHEM_MMFF94_ENERGY>
55.1139

> <PUBCHEM_FEATURE_SELFOVERLAP>
55.902

> <PUBCHEM_SHAPE_FINGERPRINT>
10 15 18201433701685645297
10411042 1 17762338416197097154
10595046 47 18409733976176167395
12236239 1 18407761451635325359
13167372 99 18411420648076191976
13288520 33 9007056864471079475
13402501 40 18411420617795597693
13631057 29 18261396590857486663
13785724 45 17763469813139800770
14251764 18 18202005421703958258
14556957 393 15430585165595632832
14933364 13 18409727369883008743
15183329 4 17676485059778301785
15196674 1 18410574015680406881
15419008 145 18129113363182296224
15475509 35 15912777227593239434
15961568 22 18342174496791816605
16989713 51 17387142979573618223
18006028 8 11167946844114986342
19611394 137 17915164738255909595
20281389 69 18343303660857531168
20526848 3 18412260636315838532
20554085 129 17749404659055527786
20621476 66 18409446990038504044
21033648 29 18336274440266678656
21585482 111 18199467842961570373
22224240 67 17917993867325797491
23035841 295 8646774395554219399
23272321 79 18411138035202173135
2838139 119 18335424530098852364
2916195 48 18410575080595088419
293599 30 18409730651480836842
335352 9 18410290295132204510
34797466 226 17967526900732830375
351380 3 9439403518855533697
3545911 37 18408885110043869722
4073 2 18131063822988405483
4325135 7 18334579010775148815
4340502 62 16486976202583694242
5104073 3 18130502054836357755
636775 72 18264212409639063584
77188 2 17330556956309057642

> <PUBCHEM_SHAPE_MULTIPOLES>
424.06
19.75
2.46
0.58
2.53
0.43
0
12.21
-0.01
1.15
0
-0.02
-0.02
0

> <PUBCHEM_SHAPE_SELFOVERLAP>
932.622

> <PUBCHEM_SHAPE_VOLUME>
230.2

> <PUBCHEM_COORDINATE_TYPE>
2
5
10

$$$$

