12557
  -OEChem-06261207052D

 47 49  0     1  0  0  0  0  0999 V2000
    4.7649    8.1031    0.0000 Cl  0  0  0  0  0  0  0  0  0  0  0  0
    8.8347    4.2633    0.0000 S   0  0  0  0  0  0  0  0  0  0  0  0
    8.7836    0.0000    0.0000 Na  0  3  0  0  0  0  0  0  0  0  0  0
    6.1697    2.2416    0.0000 O   0  0  0  0  0  0  0  0  0  0  0  0
    8.4746    0.9511    0.0000 O   0  5  0  0  0  0  0  0  0  0  0  0
   10.1219    1.4863    0.0000 O   0  0  0  0  0  0  0  0  0  0  0  0
    4.9425    3.4448    0.0000 O   0  0  0  0  0  0  0  0  0  0  0  0
    3.0574    5.8562    0.0000 O   0  0  0  0  0  0  0  0  0  0  0  0
    7.8837    2.9543    0.0000 N   0  0  0  0  0  0  0  0  0  0  0  0
    6.1697    4.6670    0.0000 N   0  0  0  0  0  0  0  0  0  0  0  0
    3.7660    6.5619    0.0000 N   0  0  0  0  0  0  0  0  0  0  0  0
    7.8837    3.9543    0.0000 C   0  0  1  0  0  0  0  0  0  0  0  0
    9.4225    3.4543    0.0000 C   0  0  0  0  0  0  0  0  0  0  0  0
    8.8347    2.6453    0.0000 C   0  0  2  0  0  0  0  0  0  0  0  0
    6.8754    3.9584    0.0000 C   0  0  1  0  0  0  0  0  0  0  0  0
    6.8754    2.9501    0.0000 C   0  0  0  0  0  0  0  0  0  0  0  0
   10.2315    2.8665    0.0000 C   0  0  0  0  0  0  0  0  0  0  0  0
   10.2315    4.0421    0.0000 C   0  0  0  0  0  0  0  0  0  0  0  0
    9.1437    1.6942    0.0000 C   0  0  0  0  0  0  0  0  0  0  0  0
    5.2033    4.4101    0.0000 C   0  0  0  0  0  0  0  0  0  0  0  0
    4.4976    5.1187    0.0000 C   0  0  0  0  0  0  0  0  0  0  0  0
    4.6561    6.1061    0.0000 C   0  0  0  0  0  0  0  0  0  0  0  0
    3.5096    4.9643    0.0000 C   0  0  0  0  0  0  0  0  0  0  0  0
    5.5480    6.5582    0.0000 C   0  0  0  0  0  0  0  0  0  0  0  0
    3.0538    4.0742    0.0000 C   0  0  0  0  0  0  0  0  0  0  0  0
    5.6024    7.5567    0.0000 C   0  0  0  0  0  0  0  0  0  0  0  0
    6.3856    6.0119    0.0000 C   0  0  0  0  0  0  0  0  0  0  0  0
    6.4943    8.0089    0.0000 C   0  0  0  0  0  0  0  0  0  0  0  0
    7.2775    6.4640    0.0000 C   0  0  0  0  0  0  0  0  0  0  0  0
    7.3319    7.4625    0.0000 C   0  0  0  0  0  0  0  0  0  0  0  0
    7.7601    4.7447    0.0000 H   0  0  0  0  0  0  0  0  0  0  0  0
    8.3963    2.2069    0.0000 H   0  0  0  0  0  0  0  0  0  0  0  0
    7.1144    4.5305    0.0000 H   0  0  0  0  0  0  0  0  0  0  0  0
    9.8671    2.3649    0.0000 H   0  0  0  0  0  0  0  0  0  0  0  0
   10.7331    2.5021    0.0000 H   0  0  0  0  0  0  0  0  0  0  0  0
   10.5959    3.3681    0.0000 H   0  0  0  0  0  0  0  0  0  0  0  0
   10.5959    3.5405    0.0000 H   0  0  0  0  0  0  0  0  0  0  0  0
   10.7331    4.4065    0.0000 H   0  0  0  0  0  0  0  0  0  0  0  0
    9.8671    4.5437    0.0000 H   0  0  0  0  0  0  0  0  0  0  0  0
    6.3314    5.2655    0.0000 H   0  0  0  0  0  0  0  0  0  0  0  0
    2.5019    4.3568    0.0000 H   0  0  0  0  0  0  0  0  0  0  0  0
    2.7712    3.5224    0.0000 H   0  0  0  0  0  0  0  0  0  0  0  0
    3.6056    3.7916    0.0000 H   0  0  0  0  0  0  0  0  0  0  0  0
    6.3518    5.3928    0.0000 H   0  0  0  0  0  0  0  0  0  0  0  0
    6.5281    8.6280    0.0000 H   0  0  0  0  0  0  0  0  0  0  0  0
    7.7968    6.1253    0.0000 H   0  0  0  0  0  0  0  0  0  0  0  0
    7.8849    7.7429    0.0000 H   0  0  0  0  0  0  0  0  0  0  0  0
  1 26  1  0  0  0  0
  2 12  1  0  0  0  0
  2 13  1  0  0  0  0
  4 16  2  0  0  0  0
  5 19  1  0  0  0  0
  6 19  2  0  0  0  0
  7 20  2  0  0  0  0
  8 11  1  0  0  0  0
  8 23  1  0  0  0  0
  9 12  1  0  0  0  0
  9 14  1  0  0  0  0
  9 16  1  0  0  0  0
 15 10  1  1  0  0  0
 10 20  1  0  0  0  0
 10 40  1  0  0  0  0
 11 22  2  0  0  0  0
 12 15  1  0  0  0  0
 12 31  1  6  0  0  0
 13 14  1  0  0  0  0
 13 17  1  0  0  0  0
 13 18  1  0  0  0  0
 14 19  1  6  0  0  0
 14 32  1  0  0  0  0
 15 16  1  0  0  0  0
 15 33  1  0  0  0  0
 17 34  1  0  0  0  0
 17 35  1  0  0  0  0
 17 36  1  0  0  0  0
 18 37  1  0  0  0  0
 18 38  1  0  0  0  0
 18 39  1  0  0  0  0
 20 21  1  0  0  0  0
 21 22  1  0  0  0  0
 21 23  2  0  0  0  0
 22 24  1  0  0  0  0
 23 25  1  0  0  0  0
 24 26  1  0  0  0  0
 24 27  2  0  0  0  0
 25 41  1  0  0  0  0
 25 42  1  0  0  0  0
 25 43  1  0  0  0  0
 26 28  2  0  0  0  0
 27 29  1  0  0  0  0
 27 44  1  0  0  0  0
 28 30  1  0  0  0  0
 28 45  1  0  0  0  0
 29 30  2  0  0  0  0
 29 46  1  0  0  0  0
 30 47  1  0  0  0  0
M  CHG  2   3   1   5  -1
M  END
> <PUBCHEM_COMPOUND_CID>
12557

> <PUBCHEM_COMPOUND_CANONICALIZED>
1

> <PUBCHEM_CACTVS_COMPLEXITY>
716

> <PUBCHEM_CACTVS_HBOND_ACCEPTOR>
7

> <PUBCHEM_CACTVS_HBOND_DONOR>
1

> <PUBCHEM_CACTVS_ROTATABLE_BOND>
3

> <PUBCHEM_CACTVS_SUBSKEYS>
AAADceB7OCBEAAAAAAAAAAAAAABYAWLAAAAwAAAABYAAAAABwAAAHgYUAAAADC7F3iSyjJPQAAipA6XyWgCCAABkJRAomKGsTtoKZr6p07OUMchmthi4yUeYyOCOAAAAAAABAAAAAAAAAAIAAAAAAAAAAA==

> <PUBCHEM_IUPAC_OPENEYE_NAME>
sodium (2S,5R,6R)-6-[[3-(2-chlorophenyl)-5-methyl-isoxazole-4-carbonyl]amino]-3,3-dimethyl-7-oxo-4-thia-1-azabicyclo[3.2.0]heptane-2-carboxylate

> <PUBCHEM_IUPAC_CAS_NAME>
sodium (2S,5R,6R)-6-[[[3-(2-chlorophenyl)-5-methyl-4-isoxazolyl]-oxomethyl]amino]-3,3-dimethyl-7-oxo-4-thia-1-azabicyclo[3.2.0]heptane-2-carboxylate

> <PUBCHEM_IUPAC_NAME>
sodium (2S,5R,6R)-6-[[3-(2-chlorophenyl)-5-methyl-1,2-oxazole-4-carbonyl]amino]-3,3-dimethyl-7-oxo-4-thia-1-azabicyclo[3.2.0]heptane-2-carboxylate

> <PUBCHEM_IUPAC_SYSTEMATIC_NAME>
sodium (2S,5R,6R)-6-[[3-(2-chlorophenyl)-5-methyl-1,2-oxazol-4-yl]carbonylamino]-3,3-dimethyl-7-oxidanylidene-4-thia-1-azabicyclo[3.2.0]heptane-2-carboxylate

> <PUBCHEM_IUPAC_TRADITIONAL_NAME>
sodium (2S,5R,6R)-6-[[3-(2-chlorophenyl)-5-methyl-isoxazole-4-carbonyl]amino]-7-keto-3,3-dimethyl-4-thia-1-azabicyclo[3.2.0]heptane-2-carboxylate

> <PUBCHEM_IUPAC_INCHI>
InChI=1S/C19H18ClN3O5S.Na/c1-8-11(12(22-28-8)9-6-4-5-7-10(9)20)15(24)21-13-16(25)23-14(18(26)27)19(2,3)29-17(13)23;/h4-7,13-14,17H,1-3H3,(H,21,24)(H,26,27);/q;+1/p-1/t13-,14+,17-;/m1./s1

> <PUBCHEM_IUPAC_INCHIKEY>
SCLZRKVZRBKZCR-SLINCCQESA-M

> <PUBCHEM_EXACT_MASS>
457.047514

> <PUBCHEM_MOLECULAR_FORMULA>
C19H17ClN3NaO5S

> <PUBCHEM_MOLECULAR_WEIGHT>
457.863149

> <PUBCHEM_OPENEYE_CAN_SMILES>
CC1=C(C(=NO1)C2=CC=CC=C2Cl)C(=O)NC3C4N(C3=O)C(C(S4)(C)C)C(=O)[O-].[Na+]

> <PUBCHEM_OPENEYE_ISO_SMILES>
CC1=C(C(=NO1)C2=CC=CC=C2Cl)C(=O)N[C@H]3[C@@H]4N(C3=O)[C@H](C(S4)(C)C)C(=O)[O-].[Na+]

> <PUBCHEM_CACTVS_TPSA>
141

> <PUBCHEM_MONOISOTOPIC_WEIGHT>
457.047514

> <PUBCHEM_TOTAL_CHARGE>
0

> <PUBCHEM_HEAVY_ATOM_COUNT>
30

> <PUBCHEM_ATOM_DEF_STEREO_COUNT>
3

> <PUBCHEM_ATOM_UDEF_STEREO_COUNT>
0

> <PUBCHEM_BOND_DEF_STEREO_COUNT>
0

> <PUBCHEM_BOND_UDEF_STEREO_COUNT>
0

> <PUBCHEM_ISOTOPIC_ATOM_COUNT>
0

> <PUBCHEM_COMPONENT_COUNT>
2

> <PUBCHEM_CACTVS_TAUTO_COUNT>
2

> <PUBCHEM_COORDINATE_TYPE>
1
5
255

> <PUBCHEM_BONDANNOTATIONS>
15  10  5
11  22  8
12  31  6
14  19  6
21  22  8
21  23  8
24  26  8
24  27  8
26  28  8
27  29  8
28  30  8
29  30  8
8  11  8
8  23  8

$$$$

