6959
  -OEChem-06261201372D

 20 20  0     0  0  0  0  0  0999 V2000
    4.5981    1.5950    0.0000 S   0  0  0  0  0  0  0  0  0  0  0  0
    4.5981    2.5950    0.0000 O   0  0  0  0  0  0  0  0  0  0  0  0
    5.5981    1.5950    0.0000 O   0  0  0  0  0  0  0  0  0  0  0  0
    3.5981    1.5950    0.0000 O   0  0  0  0  0  0  0  0  0  0  0  0
    2.0000    0.0950    0.0000 O   0  5  0  0  0  0  0  0  0  0  0  0
    2.8660    1.5950    0.0000 O   0  0  0  0  0  0  0  0  0  0  0  0
    5.4641   -2.9050    0.0000 O   0  5  0  0  0  0  0  0  0  0  0  0
    3.7320   -2.9050    0.0000 O   0  0  0  0  0  0  0  0  0  0  0  0
    2.8660    0.5950    0.0000 N   0  3  0  0  0  0  0  0  0  0  0  0
    4.5981   -2.4050    0.0000 N   0  3  0  0  0  0  0  0  0  0  0  0
    4.5981    0.5950    0.0000 C   0  0  0  0  0  0  0  0  0  0  0  0
    3.7320    0.0950    0.0000 C   0  0  0  0  0  0  0  0  0  0  0  0
    5.4641    0.0950    0.0000 C   0  0  0  0  0  0  0  0  0  0  0  0
    3.7320   -0.9050    0.0000 C   0  0  0  0  0  0  0  0  0  0  0  0
    4.5981   -1.4050    0.0000 C   0  0  0  0  0  0  0  0  0  0  0  0
    5.4641   -0.9050    0.0000 C   0  0  0  0  0  0  0  0  0  0  0  0
    6.0010    0.4050    0.0000 H   0  0  0  0  0  0  0  0  0  0  0  0
    3.1951   -1.2150    0.0000 H   0  0  0  0  0  0  0  0  0  0  0  0
    6.0010   -1.2150    0.0000 H   0  0  0  0  0  0  0  0  0  0  0  0
    5.1350    2.9050    0.0000 H   0  0  0  0  0  0  0  0  0  0  0  0
  1  2  1  0  0  0  0
  1  3  2  0  0  0  0
  1  4  2  0  0  0  0
  1 11  1  0  0  0  0
  2 20  1  0  0  0  0
  5  9  1  0  0  0  0
  6  9  2  0  0  0  0
  7 10  1  0  0  0  0
  8 10  2  0  0  0  0
  9 12  1  0  0  0  0
 10 15  1  0  0  0  0
 11 12  2  0  0  0  0
 11 13  1  0  0  0  0
 12 14  1  0  0  0  0
 13 16  2  0  0  0  0
 13 17  1  0  0  0  0
 14 15  2  0  0  0  0
 14 18  1  0  0  0  0
 15 16  1  0  0  0  0
 16 19  1  0  0  0  0
M  CHG  4   5  -1   7  -1   9   1  10   1
M  END
> <PUBCHEM_COMPOUND_CID>
6959

> <PUBCHEM_COMPOUND_CANONICALIZED>
1

> <PUBCHEM_CACTVS_COMPLEXITY>
389

> <PUBCHEM_CACTVS_HBOND_ACCEPTOR>
7

> <PUBCHEM_CACTVS_HBOND_DONOR>
1

> <PUBCHEM_CACTVS_ROTATABLE_BOND>
1

> <PUBCHEM_CACTVS_SUBSKEYS>
AAADcYBjOABAAAAAAAAAAAAAAAAAAAAAAAAwAAAAAAAAAAABAAAAHAQECAAACAiBUAAwwYAQQIKBACRCQ3DCAEAgAgAoiBwAZIoIICKA0dGAIABggAAIyAcQAAAAAAQAAAQAAQAACAAACAACAAAAAAAAAA==

> <PUBCHEM_IUPAC_OPENEYE_NAME>
2,4-dinitrobenzenesulfonic acid

> <PUBCHEM_IUPAC_CAS_NAME>
2,4-dinitrobenzenesulfonic acid

> <PUBCHEM_IUPAC_NAME>
2,4-dinitrobenzenesulfonic acid

> <PUBCHEM_IUPAC_SYSTEMATIC_NAME>
2,4-dinitrobenzenesulfonic acid

> <PUBCHEM_IUPAC_TRADITIONAL_NAME>
2,4-dinitrobesylic acid

> <PUBCHEM_IUPAC_INCHI>
InChI=1S/C6H4N2O7S/c9-7(10)4-1-2-6(16(13,14)15)5(3-4)8(11)12/h1-3H,(H,13,14,15)

> <PUBCHEM_IUPAC_INCHIKEY>
OVOJUAKDTOOXRF-UHFFFAOYSA-N

> <PUBCHEM_XLOGP3>
0.5

> <PUBCHEM_EXACT_MASS>
247.973921

> <PUBCHEM_MOLECULAR_FORMULA>
C6H4N2O7S

> <PUBCHEM_MOLECULAR_WEIGHT>
248.17016

> <PUBCHEM_OPENEYE_CAN_SMILES>
C1=CC(=C(C=C1[N+](=O)[O-])[N+](=O)[O-])S(=O)(=O)O

> <PUBCHEM_OPENEYE_ISO_SMILES>
C1=CC(=C(C=C1[N+](=O)[O-])[N+](=O)[O-])S(=O)(=O)O

> <PUBCHEM_CACTVS_TPSA>
154

> <PUBCHEM_MONOISOTOPIC_WEIGHT>
247.973921

> <PUBCHEM_TOTAL_CHARGE>
0

> <PUBCHEM_HEAVY_ATOM_COUNT>
16

> <PUBCHEM_ATOM_DEF_STEREO_COUNT>
0

> <PUBCHEM_ATOM_UDEF_STEREO_COUNT>
0

> <PUBCHEM_BOND_DEF_STEREO_COUNT>
0

> <PUBCHEM_BOND_UDEF_STEREO_COUNT>
0

> <PUBCHEM_ISOTOPIC_ATOM_COUNT>
0

> <PUBCHEM_COMPONENT_COUNT>
1

> <PUBCHEM_CACTVS_TAUTO_COUNT>
1

> <PUBCHEM_COORDINATE_TYPE>
1
5
255

> <PUBCHEM_BONDANNOTATIONS>
11  12  8
11  13  8
12  14  8
13  16  8
14  15  8
15  16  8

$$$$

