5775
  -OEChem-06261200523D

 40 42  0     0  0  0  0  0  0999 V2000
   -4.2454   -2.3041    0.1576 O   0  0  0  0  0  0  0  0  0  0  0  0
   -0.2315    0.2729   -0.5069 N   0  0  0  0  0  0  0  0  0  0  0  0
    2.4254    2.0521   -0.4443 N   0  0  0  0  0  0  0  0  0  0  0  0
    0.5801    3.2607    0.1156 N   0  0  0  0  0  0  0  0  0  0  0  0
    0.2260    1.3337   -1.3592 C   0  0  0  0  0  0  0  0  0  0  0  0
    1.0795    2.2398   -0.5339 C   0  0  0  0  0  0  0  0  0  0  0  0
    3.0108    3.0739    0.3697 C   0  0  0  0  0  0  0  0  0  0  0  0
    1.7676    3.8735    0.7874 C   0  0  0  0  0  0  0  0  0  0  0  0
    0.7076   -0.7762   -0.2439 C   0  0  0  0  0  0  0  0  0  0  0  0
   -1.6259    0.2016   -0.1788 C   0  0  0  0  0  0  0  0  0  0  0  0
    0.9200   -1.7495   -1.2045 C   0  0  0  0  0  0  0  0  0  0  0  0
    1.3809   -0.7919    0.9651 C   0  0  0  0  0  0  0  0  0  0  0  0
   -2.2543   -1.0306   -0.1733 C   0  0  0  0  0  0  0  0  0  0  0  0
   -2.3074    1.3664    0.1248 C   0  0  0  0  0  0  0  0  0  0  0  0
    2.5228   -2.8026    0.2649 C   0  0  0  0  0  0  0  0  0  0  0  0
    1.8349   -2.7707   -0.9481 C   0  0  0  0  0  0  0  0  0  0  0  0
    2.2957   -1.8132    1.2215 C   0  0  0  0  0  0  0  0  0  0  0  0
   -3.6101   -1.1005    0.1467 C   0  0  0  0  0  0  0  0  0  0  0  0
   -3.6632    1.2963    0.4447 C   0  0  0  0  0  0  0  0  0  0  0  0
   -4.3145    0.0630    0.4557 C   0  0  0  0  0  0  0  0  0  0  0  0
    3.5007   -3.8947    0.5392 C   0  0  0  0  0  0  0  0  0  0  0  0
    0.8187    0.9508   -2.2001 H   0  0  0  0  0  0  0  0  0  0  0  0
   -0.5857    1.9169   -1.8105 H   0  0  0  0  0  0  0  0  0  0  0  0
    3.7078    3.6901   -0.2057 H   0  0  0  0  0  0  0  0  0  0  0  0
    3.5285    2.6525    1.2361 H   0  0  0  0  0  0  0  0  0  0  0  0
    1.6263    3.8381    1.8730 H   0  0  0  0  0  0  0  0  0  0  0  0
    1.8573    4.9228    0.4873 H   0  0  0  0  0  0  0  0  0  0  0  0
    2.9592    1.3230   -0.9012 H   0  0  0  0  0  0  0  0  0  0  0  0
    0.3898   -1.7330   -2.1525 H   0  0  0  0  0  0  0  0  0  0  0  0
    1.2078   -0.0269    1.7169 H   0  0  0  0  0  0  0  0  0  0  0  0
   -1.7344   -1.9518   -0.4156 H   0  0  0  0  0  0  0  0  0  0  0  0
   -1.8327    2.3398    0.1388 H   0  0  0  0  0  0  0  0  0  0  0  0
    2.0017   -3.5367   -1.7008 H   0  0  0  0  0  0  0  0  0  0  0  0
    2.8237   -1.8283    2.1713 H   0  0  0  0  0  0  0  0  0  0  0  0
   -4.2114    2.2018    0.6883 H   0  0  0  0  0  0  0  0  0  0  0  0
   -5.3709    0.0222    0.7074 H   0  0  0  0  0  0  0  0  0  0  0  0
    4.3066   -3.5479    1.1949 H   0  0  0  0  0  0  0  0  0  0  0  0
    2.9962   -4.7387    1.0197 H   0  0  0  0  0  0  0  0  0  0  0  0
    3.9699   -4.2466   -0.3859 H   0  0  0  0  0  0  0  0  0  0  0  0
   -5.1773   -2.1662    0.3998 H   0  0  0  0  0  0  0  0  0  0  0  0
  1 18  1  0  0  0  0
  1 40  1  0  0  0  0
  2  5  1  0  0  0  0
  2  9  1  0  0  0  0
  2 10  1  0  0  0  0
  3  6  1  0  0  0  0
  3  7  1  0  0  0  0
  3 28  1  0  0  0  0
  4  6  2  0  0  0  0
  4  8  1  0  0  0  0
  5  6  1  0  0  0  0
  5 22  1  0  0  0  0
  5 23  1  0  0  0  0
  7  8  1  0  0  0  0
  7 24  1  0  0  0  0
  7 25  1  0  0  0  0
  8 26  1  0  0  0  0
  8 27  1  0  0  0  0
  9 11  2  0  0  0  0
  9 12  1  0  0  0  0
 10 13  2  0  0  0  0
 10 14  1  0  0  0  0
 11 16  1  0  0  0  0
 11 29  1  0  0  0  0
 12 17  2  0  0  0  0
 12 30  1  0  0  0  0
 13 18  1  0  0  0  0
 13 31  1  0  0  0  0
 14 19  2  0  0  0  0
 14 32  1  0  0  0  0
 15 16  2  0  0  0  0
 15 17  1  0  0  0  0
 15 21  1  0  0  0  0
 16 33  1  0  0  0  0
 17 34  1  0  0  0  0
 18 20  2  0  0  0  0
 19 20  1  0  0  0  0
 19 35  1  0  0  0  0
 20 36  1  0  0  0  0
 21 37  1  0  0  0  0
 21 38  1  0  0  0  0
 21 39  1  0  0  0  0
M  END
> <PUBCHEM_COMPOUND_CID>
5775

> <PUBCHEM_CONFORMER_RMSD>
0.8

> <PUBCHEM_CONFORMER_DIVERSEORDER>
1
7
13
10
3
22
14
5
17
4
15
8
23
19
20
6
12
16
26
18
25
24
21
27
11
9
28
2

> <PUBCHEM_MMFF94_PARTIAL_CHARGES>
31
1 -0.53
10 0.1
11 -0.15
12 -0.15
13 -0.15
14 -0.15
15 -0.14
16 -0.15
17 -0.15
18 0.08
19 -0.15
2 -0.57
20 -0.15
21 0.14
28 0.4
29 0.15
3 -0.82
30 0.15
31 0.15
32 0.15
33 0.15
34 0.15
35 0.15
36 0.15
4 -0.7
40 0.45
5 0.43
6 0.44
7 0.37
8 0.25
9 0.1

> <PUBCHEM_EFFECTIVE_ROTOR_COUNT>
4.6

> <PUBCHEM_PHARMACOPHORE_FEATURES>
7
1 1 donor
1 2 cation
1 3 donor
3 3 4 6 cation
5 3 4 6 7 8 rings
6 10 13 14 18 19 20 rings
6 9 11 12 15 16 17 rings

> <PUBCHEM_HEAVY_ATOM_COUNT>
21

> <PUBCHEM_ATOM_DEF_STEREO_COUNT>
0

> <PUBCHEM_ATOM_UDEF_STEREO_COUNT>
0

> <PUBCHEM_BOND_DEF_STEREO_COUNT>
0

> <PUBCHEM_BOND_UDEF_STEREO_COUNT>
0

> <PUBCHEM_ISOTOPIC_ATOM_COUNT>
0

> <PUBCHEM_COMPONENT_COUNT>
1

> <PUBCHEM_CACTVS_TAUTO_COUNT>
3

> <PUBCHEM_CONFORMER_ID>
0000168F00000001

> <PUBCHEM_MMFF94_ENERGY>
89.7929

> <PUBCHEM_FEATURE_SELFOVERLAP>
35.525

> <PUBCHEM_SHAPE_FINGERPRINT>
10006869 2 16536801993678530433
10090160 65 17906176149036257399
1100329 8 17762335116643738520
11578080 2 17417543525885750772
11646440 116 17614279292559739353
12553582 1 18049429633186015391
12592029 89 18266455404099041040
12714826 92 17415275319671481991
12788726 201 17765131153602027926
12839892 36 18051706450972872139
13083527 12 18266761107382225287
13140716 1 17978227162609450059
13149001 5 17625853773532914589
13533116 47 18413105044751773707
136203 1 17474388457646647352
138480 1 18410575132203215792
14178342 30 18055059966349792689
14223421 5 18341049623492413861
14347424 109 18338215113293293203
14787075 74 18060133276193667570
14790565 3 18339919295654488172
14863182 85 17840573804750056431
14955137 171 18409175398556963016
15927050 60 17976818693316254094
17492 89 18411980239845989363
17980427 23 17750525159734557597
18915476 22 18126030216149054911
19591789 44 17977383837164377134
20028762 73 17398099461776654511
20197701 30 17977391525119076161
20510252 161 17256251964908529904
20567600 347 18053096229365013195
20600515 1 17972596864137265577
20905425 154 18411129273041972660
21421861 104 18338505362291706779
21524375 3 17974843973894519629
21650355 55 17907018726518645447
21731228 192 17905319628798010560
22956985 138 18201445740136753666
23366157 5 18273206487245689693
23419403 2 17915202280053314860
23557571 272 17759242191141329334
23558518 356 17327743899101145508
23559900 14 18408892862491494147
23728640 28 17547297701082184168
3091708 16 9215717778247433202
352729 6 17478879498874007799
43471831 8 18194964045849209789
4409770 3 17407968051039440549
5104073 3 18339060642034794739
5902787 121 18270116954071702763
6138700 20 18410282602687723284
7097593 13 18410572920416351731
7364860 26 18409161100014858733
81228 2 17544196437845862700
9981440 41 18051415067765202697

> <PUBCHEM_SHAPE_MULTIPOLES>
411.36
6.62
5.09
1.05
5.29
3.76
0.1
-5.42
-1.69
-5.22
-0.65
-0.48
-0.1
-0.07

> <PUBCHEM_SHAPE_SELFOVERLAP>
887.992

> <PUBCHEM_SHAPE_VOLUME>
228

> <PUBCHEM_COORDINATE_TYPE>
2
5
10

$$$$

