14131
  -OEChem-06241222423D

 36 36  0     1  0  0  0  0  0999 V2000
    1.4441    0.4335   -0.9209 N   0  0  0  0  0  0  0  0  0  0  0  0
   -2.4868   -0.2825    0.6720 N   0  0  0  0  0  0  0  0  0  0  0  0
   -4.7130    0.2731    1.0004 N   0  0  0  0  0  0  0  0  0  0  0  0
   -3.8136    0.7630   -1.0358 N   0  0  0  0  0  0  0  0  0  0  0  0
    1.1087   -0.9214   -0.4509 C   0  0  1  0  0  0  0  0  0  0  0  0
    2.3183   -1.5643    0.2617 C   0  0  0  0  0  0  0  0  0  0  0  0
    1.9779    1.3230    0.1161 C   0  0  1  0  0  0  0  0  0  0  0  0
    2.9068   -0.6729    1.3517 C   0  0  0  0  0  0  0  0  0  0  0  0
    3.2100    0.7123    0.7931 C   0  0  0  0  0  0  0  0  0  0  0  0
   -0.1344   -0.9052    0.4588 C   0  0  0  0  0  0  0  0  0  0  0  0
    0.7720   -1.7562   -1.7006 C   0  0  0  0  0  0  0  0  0  0  0  0
    2.3346    2.6649   -0.5240 C   0  0  0  0  0  0  0  0  0  0  0  0
   -1.3370   -0.2931   -0.2336 C   0  0  0  0  0  0  0  0  0  0  0  0
   -3.5875    0.2258    0.2119 C   0  0  0  0  0  0  0  0  0  0  0  0
    3.1114   -1.7743   -0.4692 H   0  0  0  0  0  0  0  0  0  0  0  0
    2.0363   -2.5314    0.6962 H   0  0  0  0  0  0  0  0  0  0  0  0
    1.2074    1.5159    0.8720 H   0  0  0  0  0  0  0  0  0  0  0  0
    3.8253   -1.1241    1.7438 H   0  0  0  0  0  0  0  0  0  0  0  0
    2.2108   -0.5916    2.1943 H   0  0  0  0  0  0  0  0  0  0  0  0
    0.6713    0.8702   -1.4168 H   0  0  0  0  0  0  0  0  0  0  0  0
    3.5543    1.3640    1.6050 H   0  0  0  0  0  0  0  0  0  0  0  0
    4.0373    0.6377    0.0749 H   0  0  0  0  0  0  0  0  0  0  0  0
    0.0568   -0.3604    1.3908 H   0  0  0  0  0  0  0  0  0  0  0  0
   -0.3822   -1.9297    0.7685 H   0  0  0  0  0  0  0  0  0  0  0  0
    0.3796   -2.7423   -1.4265 H   0  0  0  0  0  0  0  0  0  0  0  0
    0.0454   -1.2722   -2.3617 H   0  0  0  0  0  0  0  0  0  0  0  0
    1.6683   -1.9234   -2.3112 H   0  0  0  0  0  0  0  0  0  0  0  0
    3.0959    2.5499   -1.3038 H   0  0  0  0  0  0  0  0  0  0  0  0
    1.4527    3.1306   -0.9780 H   0  0  0  0  0  0  0  0  0  0  0  0
    2.7255    3.3592    0.2278 H   0  0  0  0  0  0  0  0  0  0  0  0
   -1.1282    0.7390   -0.5315 H   0  0  0  0  0  0  0  0  0  0  0  0
   -1.6082   -0.8727   -1.1211 H   0  0  0  0  0  0  0  0  0  0  0  0
   -4.7033   -0.0859    1.9489 H   0  0  0  0  0  0  0  0  0  0  0  0
   -5.5833    0.6664    0.6595 H   0  0  0  0  0  0  0  0  0  0  0  0
   -4.7234    1.1346   -1.2871 H   0  0  0  0  0  0  0  0  0  0  0  0
   -3.0915    0.8078   -1.7458 H   0  0  0  0  0  0  0  0  0  0  0  0
  1  5  1  0  0  0  0
  1  7  1  0  0  0  0
  1 20  1  0  0  0  0
  2 13  1  0  0  0  0
  2 14  2  0  0  0  0
  3 14  1  0  0  0  0
  3 33  1  0  0  0  0
  3 34  1  0  0  0  0
  4 14  1  0  0  0  0
  4 35  1  0  0  0  0
  4 36  1  0  0  0  0
  5  6  1  0  0  0  0
  5 10  1  0  0  0  0
  5 11  1  0  0  0  0
  6  8  1  0  0  0  0
  6 15  1  0  0  0  0
  6 16  1  0  0  0  0
  7  9  1  0  0  0  0
  7 12  1  0  0  0  0
  7 17  1  0  0  0  0
  8  9  1  0  0  0  0
  8 18  1  0  0  0  0
  8 19  1  0  0  0  0
  9 21  1  0  0  0  0
  9 22  1  0  0  0  0
 10 13  1  0  0  0  0
 10 23  1  0  0  0  0
 10 24  1  0  0  0  0
 11 25  1  0  0  0  0
 11 26  1  0  0  0  0
 11 27  1  0  0  0  0
 12 28  1  0  0  0  0
 12 29  1  0  0  0  0
 12 30  1  0  0  0  0
 13 31  1  0  0  0  0
 13 32  1  0  0  0  0
M  END
> <PUBCHEM_COMPOUND_CID>
14131

> <PUBCHEM_CONFORMER_RMSD>
0.6

> <PUBCHEM_CONFORMER_DIVERSEORDER>
9
64
4
67
3
66
22
75
53
33
56
68
35
2
77
1
58
30
65
42
5
55
70
73
69
15
72
81
39
18
79
45
52
23
19
50
13
57
24
14
60
8
62
11
43
28
21
47
6
34
80
36
31
59
49
44
74
54
16
76
26
63
46
41
51
29
27
78
38
48
12
25
20
40
7
32
71
10
37
61
17

> <PUBCHEM_MMFF94_PARTIAL_CHARGES>
13
1 -0.9
13 0.25
14 0.55
2 -0.7
20 0.36
3 -0.85
33 0.4
34 0.4
35 0.4
36 0.4
4 -0.85
5 0.27
7 0.27

> <PUBCHEM_EFFECTIVE_ROTOR_COUNT>
4.2

> <PUBCHEM_PHARMACOPHORE_FEATURES>
6
1 1 cation
1 1 donor
1 3 donor
1 4 donor
4 2 3 4 14 cation
6 1 5 6 7 8 9 rings

> <PUBCHEM_HEAVY_ATOM_COUNT>
14

> <PUBCHEM_ATOM_DEF_STEREO_COUNT>
0

> <PUBCHEM_ATOM_UDEF_STEREO_COUNT>
2

> <PUBCHEM_BOND_DEF_STEREO_COUNT>
0

> <PUBCHEM_BOND_UDEF_STEREO_COUNT>
0

> <PUBCHEM_ISOTOPIC_ATOM_COUNT>
0

> <PUBCHEM_COMPONENT_COUNT>
1

> <PUBCHEM_CACTVS_TAUTO_COUNT>
2

> <PUBCHEM_CONFORMER_ID>
0000373300000009

> <PUBCHEM_MMFF94_ENERGY>
21.5539

> <PUBCHEM_FEATURE_SELFOVERLAP>
30.502

> <PUBCHEM_SHAPE_FINGERPRINT>
10219947 1 18261962937290827346
10980938 120 18261107461388652853
12251169 10 18343588421162366114
12932764 1 18059847377189450407
13134695 92 18269287913856460454
13922767 16 18201728382985125305
14123255 52 18051974719258145076
14252887 29 13542467570482276536
14344429 50 18202558501558743686
15775835 57 18187650141761695472
16945 1 18342471326386931518
18186145 218 18335696178586086911
19786989 88 18334571330940762423
20231682 184 18334857186351663175
20281475 54 9079121063941913837
20539784 86 17917717894043567266
20606313 2 18410015454767045177
21524375 3 18049438150021604780
21665062 11 18342739606934263968
22892500 29 18059027158241110567
230 275 18187358826956711896
293599 30 18198618844692568836
3060560 45 18040988562107474830
3248919 1 18040712593537462195
42 15 16988845003510464763
7364860 26 17168416194334061574
94968 8 10519984867815728624

> <PUBCHEM_SHAPE_MULTIPOLES>
268.19
7.02
1.96
1.26
9.77
0.78
0.18
2.29
-2.03
-2.04
0.65
-0.18
-0.31
-0.19

> <PUBCHEM_SHAPE_SELFOVERLAP>
522.761

> <PUBCHEM_SHAPE_VOLUME>
159.2

> <PUBCHEM_COORDINATE_TYPE>
2
5
10

$$$$

