442189
  -OEChem-07051212573D

 38 42  0     1  0  0  0  0  0999 V2000
   -2.3237    1.5423    1.3681 O   0  0  0  0  0  0  0  0  0  0  0  0
   -2.9182    0.3538   -1.5985 O   0  0  0  0  0  0  0  0  0  0  0  0
    0.6725    1.8768    1.0644 O   0  0  0  0  0  0  0  0  0  0  0  0
    0.3295   -2.2054   -0.4295 O   0  0  0  0  0  0  0  0  0  0  0  0
   -0.5473   -2.4527    1.6851 O   0  0  0  0  0  0  0  0  0  0  0  0
   -1.9708    0.0027   -0.5754 C   0  0  1  0  0  0  0  0  0  0  0  0
   -0.5652    0.6406   -0.7332 C   0  0  1  0  0  0  0  0  0  0  0  0
   -0.0296    0.6675    0.7910 C   0  0  2  0  0  0  0  0  0  0  0  0
   -2.4347    0.2070    0.8504 C   0  0  1  0  0  0  0  0  0  0  0  0
   -1.2650    0.6363    1.6823 C   0  0  2  0  0  0  0  0  0  0  0  0
    0.8822   -0.5434    1.1305 C   0  0  2  0  0  0  0  0  0  0  0  0
   -2.5785   -1.0295   -1.5086 C   0  0  0  0  0  0  0  0  0  0  0  0
    0.3947   -0.1248   -1.6892 C   0  0  0  0  0  0  0  0  0  0  0  0
    1.2123   -1.2456   -1.0355 C   0  0  1  0  0  0  0  0  0  0  0  0
    2.0306   -0.7530    0.1472 C   0  0  1  0  0  0  0  0  0  0  0  0
   -0.7209    2.0773   -1.2986 C   0  0  0  0  0  0  0  0  0  0  0  0
    0.1405   -1.8430    0.8829 C   0  0  0  0  0  0  0  0  0  0  0  0
    2.9419    0.3992   -0.1026 C   0  0  0  0  0  0  0  0  0  0  0  0
    3.5289    0.4919   -1.4799 C   0  0  0  0  0  0  0  0  0  0  0  0
    3.2208    1.3020    0.8493 C   0  0  0  0  0  0  0  0  0  0  0  0
   -3.1756   -0.4499    1.2827 H   0  0  0  0  0  0  0  0  0  0  0  0
   -1.1419    0.3064    2.7006 H   0  0  0  0  0  0  0  0  0  0  0  0
    1.2498   -0.5167    2.1623 H   0  0  0  0  0  0  0  0  0  0  0  0
   -2.0134   -1.4587   -2.3218 H   0  0  0  0  0  0  0  0  0  0  0  0
   -3.3255   -1.7022   -1.1034 H   0  0  0  0  0  0  0  0  0  0  0  0
    1.0556    0.5868   -2.1812 H   0  0  0  0  0  0  0  0  0  0  0  0
   -0.1747   -0.5556   -2.5180 H   0  0  0  0  0  0  0  0  0  0  0  0
    1.8214   -1.7702   -1.7782 H   0  0  0  0  0  0  0  0  0  0  0  0
    2.6508   -1.5912    0.5015 H   0  0  0  0  0  0  0  0  0  0  0  0
    0.2419    2.5992   -1.3354 H   0  0  0  0  0  0  0  0  0  0  0  0
   -1.1148    2.0547   -2.3215 H   0  0  0  0  0  0  0  0  0  0  0  0
   -1.4072    2.6864   -0.7025 H   0  0  0  0  0  0  0  0  0  0  0  0
    0.7715    1.9535    2.0291 H   0  0  0  0  0  0  0  0  0  0  0  0
    3.6728   -0.4907   -1.9381 H   0  0  0  0  0  0  0  0  0  0  0  0
    2.9485    1.1328   -2.1446 H   0  0  0  0  0  0  0  0  0  0  0  0
    4.5301    0.9389   -1.4267 H   0  0  0  0  0  0  0  0  0  0  0  0
    3.8800    2.1390    0.6403 H   0  0  0  0  0  0  0  0  0  0  0  0
    2.8750    1.2041    1.8718 H   0  0  0  0  0  0  0  0  0  0  0  0
  1  9  1  0  0  0  0
  1 10  1  0  0  0  0
  2  6  1  0  0  0  0
  2 12  1  0  0  0  0
  3  8  1  0  0  0  0
  3 33  1  0  0  0  0
  4 14  1  0  0  0  0
  4 17  1  0  0  0  0
  5 17  2  0  0  0  0
  6  7  1  0  0  0  0
  6  9  1  0  0  0  0
  6 12  1  0  0  0  0
  7  8  1  0  0  0  0
  7 13  1  0  0  0  0
  7 16  1  0  0  0  0
  8 10  1  0  0  0  0
  8 11  1  0  0  0  0
  9 10  1  0  0  0  0
  9 21  1  0  0  0  0
 10 22  1  0  0  0  0
 11 15  1  0  0  0  0
 11 17  1  0  0  0  0
 11 23  1  0  0  0  0
 12 24  1  0  0  0  0
 12 25  1  0  0  0  0
 13 14  1  0  0  0  0
 13 26  1  0  0  0  0
 13 27  1  0  0  0  0
 14 15  1  0  0  0  0
 14 28  1  0  0  0  0
 15 18  1  0  0  0  0
 15 29  1  0  0  0  0
 16 30  1  0  0  0  0
 16 31  1  0  0  0  0
 16 32  1  0  0  0  0
 18 19  1  0  0  0  0
 18 20  2  0  0  0  0
 19 34  1  0  0  0  0
 19 35  1  0  0  0  0
 19 36  1  0  0  0  0
 20 37  1  0  0  0  0
 20 38  1  0  0  0  0
M  END
> <PUBCHEM_COMPOUND_CID>
442189

> <PUBCHEM_CONFORMER_RMSD>
0.6

> <PUBCHEM_CONFORMER_DIVERSEORDER>
1

> <PUBCHEM_MMFF94_PARTIAL_CHARGES>
25
1 -0.3
10 -0.05
11 0.06
12 -0.05
14 0.28
15 0.14
17 0.66
18 -0.28
19 0.14
2 -0.3
20 -0.3
21 0.1
22 0.1
24 0.1
25 0.1
3 -0.68
33 0.4
37 0.15
38 0.15
4 -0.43
5 -0.57
6 0.05
7 0.09
8 0.38
9 0.05

> <PUBCHEM_EFFECTIVE_ROTOR_COUNT>
2.2

> <PUBCHEM_PHARMACOPHORE_FEATURES>
7
1 1 acceptor
1 2 acceptor
1 3 acceptor
1 3 donor
1 5 acceptor
6 1 6 7 8 9 10 rings
8 4 7 8 11 13 14 15 17 rings

> <PUBCHEM_HEAVY_ATOM_COUNT>
20

> <PUBCHEM_ATOM_DEF_STEREO_COUNT>
8

> <PUBCHEM_ATOM_UDEF_STEREO_COUNT>
0

> <PUBCHEM_BOND_DEF_STEREO_COUNT>
0

> <PUBCHEM_BOND_UDEF_STEREO_COUNT>
0

> <PUBCHEM_ISOTOPIC_ATOM_COUNT>
0

> <PUBCHEM_COMPONENT_COUNT>
1

> <PUBCHEM_CACTVS_TAUTO_COUNT>
1

> <PUBCHEM_CONFORMER_ID>
0006BF4D00000001

> <PUBCHEM_MMFF94_ENERGY>
81.4882

> <PUBCHEM_FEATURE_SELFOVERLAP>
35.545

> <PUBCHEM_SHAPE_FINGERPRINT>
10863032 1 14548743889013951652
10948715 1 17677595613856646905
11315181 36 14201661093284032028
12423570 1 9430479732186905362
12491281 212 17895179030781439328
12808571 1 17676486159521836308
13024252 1 14979682031287295106
13172582 1 17630865171343244288
13299463 15 18263383488901786973
13464513 79 18053396409573631911
13538477 17 17459472332480175361
144361 1 18046644303649155794
14787075 74 17611205766036638007
15881359 60 17346308267761176474
16945 1 18041287577514317795
17357779 13 17906733600978644847
18186145 218 18333450941471887116
18981168 100 16770689943502717397
20082192 1 17755598370360888527
22802520 49 15502378958436423460
23236772 104 18186522115983035385
23419403 2 17760365487806997051
23493267 7 15937235849955220107
23559900 14 15195290871980177186
2748010 2 17905046945946188128
296302 2 16415479350384681308
4340502 62 18270100401926731393
54276843 12 17314533472687570589
5845 1 5011733274229111193
81228 2 17911227330971376362

> <PUBCHEM_SHAPE_MULTIPOLES>
382.24
4.22
2.03
1.89
1.8
0.54
0.11
-1.15
0.91
-0.13
-0.39
-0.55
-0.08
-0.04

> <PUBCHEM_SHAPE_SELFOVERLAP>
853.462

> <PUBCHEM_SHAPE_VOLUME>
201.9

> <PUBCHEM_COORDINATE_TYPE>
2
5
10

$$$$

