11954089
  -OEChem-07051213063D

 55 58  0     1  0  0  0  0  0999 V2000
   -4.4049    1.5362    0.6041 O   0  0  0  0  0  0  0  0  0  0  0  0
    6.4288   -0.2689    0.2355 O   0  0  0  0  0  0  0  0  0  0  0  0
   -6.2847   -0.5365    0.2760 O   0  0  0  0  0  0  0  0  0  0  0  0
    0.7179    0.5142    0.2691 C   0  0  1  0  0  0  0  0  0  0  0  0
   -0.1641   -0.6610   -0.2717 C   0  0  2  0  0  0  0  0  0  0  0  0
    2.2138    0.3899   -0.2037 C   0  0  2  0  0  0  0  0  0  0  0  0
   -1.5815   -0.4824    0.2794 C   0  0  1  0  0  0  0  0  0  0  0  0
   -2.2138    0.8437   -0.1917 C   0  0  2  0  0  0  0  0  0  0  0  0
    2.7332   -1.0109    0.2565 C   0  0  1  0  0  0  0  0  0  0  0  0
    0.0723    1.9026    0.0063 C   0  0  0  0  0  0  0  0  0  0  0  0
    0.4275   -2.0239    0.1119 C   0  0  0  0  0  0  0  0  0  0  0  0
   -1.4093    1.9864    0.4197 C   0  0  0  0  0  0  0  0  0  0  0  0
    1.8905   -2.1617   -0.3042 C   0  0  0  0  0  0  0  0  0  0  0  0
   -2.6519   -1.5292   -0.0128 C   0  0  0  0  0  0  0  0  0  0  0  0
    3.0972    1.4703    0.4829 C   0  0  0  0  0  0  0  0  0  0  0  0
   -3.9296   -0.8518    0.5238 C   0  0  1  0  0  0  0  0  0  0  0  0
    4.2256   -1.2177   -0.0311 C   0  0  0  0  0  0  0  0  0  0  0  0
   -3.6161    0.6337    0.3551 C   0  0  0  0  0  0  0  0  0  0  0  0
    2.3228    0.5737   -1.7393 C   0  0  0  0  0  0  0  0  0  0  0  0
    4.5962    1.2742    0.2462 C   0  0  0  0  0  0  0  0  0  0  0  0
   -2.3590    1.0168   -1.7152 C   0  0  0  0  0  0  0  0  0  0  0  0
    5.0676   -0.1253    0.6270 C   0  0  2  0  0  0  0  0  0  0  0  0
   -5.1787   -1.2723   -0.2237 C   0  0  0  0  0  0  0  0  0  0  0  0
    0.7322    0.4087    1.3659 H   0  0  0  0  0  0  0  0  0  0  0  0
   -0.2032   -0.6219   -1.3650 H   0  0  0  0  0  0  0  0  0  0  0  0
   -1.4895   -0.4563    1.3793 H   0  0  0  0  0  0  0  0  0  0  0  0
    2.6270   -1.0550    1.3520 H   0  0  0  0  0  0  0  0  0  0  0  0
    0.1565    2.1653   -1.0528 H   0  0  0  0  0  0  0  0  0  0  0  0
    0.6157    2.6763    0.5601 H   0  0  0  0  0  0  0  0  0  0  0  0
   -0.1495   -2.8297   -0.3567 H   0  0  0  0  0  0  0  0  0  0  0  0
    0.3490   -2.1702    1.1969 H   0  0  0  0  0  0  0  0  0  0  0  0
   -1.4815    1.9573    1.5149 H   0  0  0  0  0  0  0  0  0  0  0  0
   -1.8218    2.9567    0.1175 H   0  0  0  0  0  0  0  0  0  0  0  0
    2.2725   -3.1191    0.0708 H   0  0  0  0  0  0  0  0  0  0  0  0
    1.9672   -2.2050   -1.3966 H   0  0  0  0  0  0  0  0  0  0  0  0
   -2.4641   -2.4718    0.5116 H   0  0  0  0  0  0  0  0  0  0  0  0
   -2.7166   -1.7510   -1.0837 H   0  0  0  0  0  0  0  0  0  0  0  0
    2.9126    1.4586    1.5652 H   0  0  0  0  0  0  0  0  0  0  0  0
    2.8248    2.4724    0.1315 H   0  0  0  0  0  0  0  0  0  0  0  0
   -4.0332   -1.0284    1.6016 H   0  0  0  0  0  0  0  0  0  0  0  0
    4.5529   -2.1925    0.3535 H   0  0  0  0  0  0  0  0  0  0  0  0
    4.4218   -1.2586   -1.1091 H   0  0  0  0  0  0  0  0  0  0  0  0
    2.0534    1.5924   -2.0370 H   0  0  0  0  0  0  0  0  0  0  0  0
    3.3383    0.4043   -2.1082 H   0  0  0  0  0  0  0  0  0  0  0  0
    1.6744   -0.1089   -2.2938 H   0  0  0  0  0  0  0  0  0  0  0  0
    4.8472    1.4864   -0.8003 H   0  0  0  0  0  0  0  0  0  0  0  0
    5.1590    2.0161    0.8268 H   0  0  0  0  0  0  0  0  0  0  0  0
    5.0270   -0.2397    1.7164 H   0  0  0  0  0  0  0  0  0  0  0  0
   -2.8530    1.9694   -1.9422 H   0  0  0  0  0  0  0  0  0  0  0  0
   -1.3985    1.0174   -2.2370 H   0  0  0  0  0  0  0  0  0  0  0  0
   -2.9766    0.2344   -2.1682 H   0  0  0  0  0  0  0  0  0  0  0  0
   -5.3733   -2.3405   -0.0851 H   0  0  0  0  0  0  0  0  0  0  0  0
   -5.0922   -1.0634   -1.2952 H   0  0  0  0  0  0  0  0  0  0  0  0
    6.4740   -0.1855   -0.7323 H   0  0  0  0  0  0  0  0  0  0  0  0
   -7.0693   -0.8287   -0.2185 H   0  0  0  0  0  0  0  0  0  0  0  0
  1 18  2  0  0  0  0
  2 22  1  0  0  0  0
  2 54  1  0  0  0  0
  3 23  1  0  0  0  0
  3 55  1  0  0  0  0
  4  5  1  0  0  0  0
  4  6  1  0  0  0  0
  4 10  1  0  0  0  0
  4 24  1  0  0  0  0
  5  7  1  0  0  0  0
  5 11  1  0  0  0  0
  5 25  1  0  0  0  0
  6  9  1  0  0  0  0
  6 15  1  0  0  0  0
  6 19  1  0  0  0  0
  7  8  1  0  0  0  0
  7 14  1  0  0  0  0
  7 26  1  0  0  0  0
  8 12  1  0  0  0  0
  8 18  1  0  0  0  0
  8 21  1  0  0  0  0
  9 13  1  0  0  0  0
  9 17  1  0  0  0  0
  9 27  1  0  0  0  0
 10 12  1  0  0  0  0
 10 28  1  0  0  0  0
 10 29  1  0  0  0  0
 11 13  1  0  0  0  0
 11 30  1  0  0  0  0
 11 31  1  0  0  0  0
 12 32  1  0  0  0  0
 12 33  1  0  0  0  0
 13 34  1  0  0  0  0
 13 35  1  0  0  0  0
 14 16  1  0  0  0  0
 14 36  1  0  0  0  0
 14 37  1  0  0  0  0
 15 20  1  0  0  0  0
 15 38  1  0  0  0  0
 15 39  1  0  0  0  0
 16 18  1  0  0  0  0
 16 23  1  0  0  0  0
 16 40  1  0  0  0  0
 17 22  1  0  0  0  0
 17 41  1  0  0  0  0
 17 42  1  0  0  0  0
 19 43  1  0  0  0  0
 19 44  1  0  0  0  0
 19 45  1  0  0  0  0
 20 22  1  0  0  0  0
 20 46  1  0  0  0  0
 20 47  1  0  0  0  0
 21 49  1  0  0  0  0
 21 50  1  0  0  0  0
 21 51  1  0  0  0  0
 22 48  1  0  0  0  0
 23 52  1  0  0  0  0
 23 53  1  0  0  0  0
M  END
> <PUBCHEM_COMPOUND_CID>
11954089

> <PUBCHEM_CONFORMER_RMSD>
0.6

> <PUBCHEM_CONFORMER_DIVERSEORDER>
1
2

> <PUBCHEM_MMFF94_PARTIAL_CHARGES>
10
1 -0.57
16 0.06
18 0.45
2 -0.68
22 0.28
23 0.28
3 -0.68
54 0.4
55 0.4
8 0.06

> <PUBCHEM_EFFECTIVE_ROTOR_COUNT>
3

> <PUBCHEM_PHARMACOPHORE_FEATURES>
9
1 1 acceptor
1 2 acceptor
1 2 donor
1 3 acceptor
1 3 donor
5 7 8 14 16 18 rings
6 4 5 6 9 11 13 rings
6 4 5 7 8 10 12 rings
6 6 9 15 17 20 22 rings

> <PUBCHEM_HEAVY_ATOM_COUNT>
23

> <PUBCHEM_ATOM_DEF_STEREO_COUNT>
8

> <PUBCHEM_ATOM_UDEF_STEREO_COUNT>
0

> <PUBCHEM_BOND_DEF_STEREO_COUNT>
0

> <PUBCHEM_BOND_UDEF_STEREO_COUNT>
0

> <PUBCHEM_ISOTOPIC_ATOM_COUNT>
0

> <PUBCHEM_COMPONENT_COUNT>
1

> <PUBCHEM_CACTVS_TAUTO_COUNT>
2

> <PUBCHEM_CONFORMER_ID>
00B667A900000001

> <PUBCHEM_MMFF94_ENERGY>
72.0861

> <PUBCHEM_FEATURE_SELFOVERLAP>
45.765

> <PUBCHEM_SHAPE_FINGERPRINT>
10 15 18339654335322331840
10906281 52 18268409318171990915
11132069 177 18343298171762583397
11578080 2 16986328324104754159
11963148 33 18341337690875964715
12107183 9 17688307202052455539
12166972 35 18060419093013010708
12236239 1 17988924483588565064
12403259 226 18340210803595174220
12403259 415 18339934748708987516
12403814 3 17918275355276801573
12596602 18 17240759575764773979
128620 24 18410011030992804967
13140716 1 18193275182877034914
13224815 77 18410857676331299550
13288520 33 18411136930831010661
13402501 40 18411700971716921778
13533116 47 17346330327214479986
13862211 1 18410295778734887339
14223421 5 18265050408658927092
14251764 18 18342742901933348130
14341114 176 18409163346725905186
14787075 74 18411984624300047722
15196674 1 18409729586038628323
15536298 74 18334573577129666646
15788980 27 16988564601980269677
15927050 60 17324925858988234677
16945 1 18123195859555560930
17349148 13 18131632292243203320
17492 89 18267025144496763402
1813 80 17418369211915631412
19141452 34 18262237721019870279
200 152 18334581243730549599
20028762 73 18114749235080143006
21033648 29 18269011867872061608
21267235 1 18410285904557562131
21421861 104 17985829465187434746
23402539 116 18333456434370879980
23557571 272 18260543428955701926
23558518 356 18125711541970294489
23559900 14 18410017636716193016
26918003 58 17988923349348128947
296302 2 16298108687648766980
3004659 81 18131071528069491512
335352 9 18410293579642800471
34797466 226 16443338720206583384
34934 24 18337676429176625289
350125 39 18412263930233669812
3545911 37 18411136944027272346
4214541 1 18410012152074409609
4325135 7 18260831483801367143
474229 33 18410576167185170346
5104073 3 18338513140081984283
5283173 99 17987530354479501509
5486654 2 18336541630087047838
9709674 26 18410284843695618586

> <PUBCHEM_SHAPE_MULTIPOLES>
455.72
11.68
2.09
0.97
0.04
0.11
-0.42
1.43
1.8
0.13
0.06
0.01
-0.24
0.08

> <PUBCHEM_SHAPE_SELFOVERLAP>
968.177

> <PUBCHEM_SHAPE_VOLUME>
253.1

> <PUBCHEM_COORDINATE_TYPE>
2
5
10

$$$$

