91650
  -OEChem-07051213012D

 28 29  0     0  0  0  0  0  0999 V2000
    4.5981   -1.1900    0.0000 N   0  0  0  0  0  0  0  0  0  0  0  0
    6.3301   -1.1900    0.0000 N   0  0  0  0  0  0  0  0  0  0  0  0
    5.4641    0.3100    0.0000 N   0  0  0  0  0  0  0  0  0  0  0  0
    5.4641   -0.6900    0.0000 C   0  0  0  0  0  0  0  0  0  0  0  0
    3.7320   -0.6900    0.0000 C   0  0  0  0  0  0  0  0  0  0  0  0
    7.1962   -0.6900    0.0000 C   0  0  0  0  0  0  0  0  0  0  0  0
    6.3301    0.8100    0.0000 C   0  0  0  0  0  0  0  0  0  0  0  0
    7.1962    0.3100    0.0000 C   0  0  0  0  0  0  0  0  0  0  0  0
    3.7320    0.3100    0.0000 C   0  0  0  0  0  0  0  0  0  0  0  0
    2.8660   -1.1900    0.0000 C   0  0  0  0  0  0  0  0  0  0  0  0
    8.0622   -1.1900    0.0000 C   0  0  0  0  0  0  0  0  0  0  0  0
    6.3301    1.8100    0.0000 C   0  0  0  0  0  0  0  0  0  0  0  0
    2.8660    0.8100    0.0000 C   0  0  0  0  0  0  0  0  0  0  0  0
    2.0000   -0.6900    0.0000 C   0  0  0  0  0  0  0  0  0  0  0  0
    2.0000    0.3100    0.0000 C   0  0  0  0  0  0  0  0  0  0  0  0
    4.5981   -1.8100    0.0000 H   0  0  0  0  0  0  0  0  0  0  0  0
    7.7331    0.6200    0.0000 H   0  0  0  0  0  0  0  0  0  0  0  0
    4.2690    0.6200    0.0000 H   0  0  0  0  0  0  0  0  0  0  0  0
    2.8660   -1.8100    0.0000 H   0  0  0  0  0  0  0  0  0  0  0  0
    7.7522   -1.7269    0.0000 H   0  0  0  0  0  0  0  0  0  0  0  0
    8.5991   -1.5000    0.0000 H   0  0  0  0  0  0  0  0  0  0  0  0
    8.3722   -0.6531    0.0000 H   0  0  0  0  0  0  0  0  0  0  0  0
    6.9501    1.8100    0.0000 H   0  0  0  0  0  0  0  0  0  0  0  0
    6.3301    2.4300    0.0000 H   0  0  0  0  0  0  0  0  0  0  0  0
    5.7101    1.8100    0.0000 H   0  0  0  0  0  0  0  0  0  0  0  0
    2.8660    1.4300    0.0000 H   0  0  0  0  0  0  0  0  0  0  0  0
    1.4631   -1.0000    0.0000 H   0  0  0  0  0  0  0  0  0  0  0  0
    1.4631    0.6200    0.0000 H   0  0  0  0  0  0  0  0  0  0  0  0
  1  4  1  0  0  0  0
  1  5  1  0  0  0  0
  1 16  1  0  0  0  0
  2  4  1  0  0  0  0
  2  6  2  0  0  0  0
  3  4  2  0  0  0  0
  3  7  1  0  0  0  0
  5  9  2  0  0  0  0
  5 10  1  0  0  0  0
  6  8  1  0  0  0  0
  6 11  1  0  0  0  0
  7  8  2  0  0  0  0
  7 12  1  0  0  0  0
  8 17  1  0  0  0  0
  9 13  1  0  0  0  0
  9 18  1  0  0  0  0
 10 14  2  0  0  0  0
 10 19  1  0  0  0  0
 11 20  1  0  0  0  0
 11 21  1  0  0  0  0
 11 22  1  0  0  0  0
 12 23  1  0  0  0  0
 12 24  1  0  0  0  0
 12 25  1  0  0  0  0
 13 15  2  0  0  0  0
 13 26  1  0  0  0  0
 14 15  1  0  0  0  0
 14 27  1  0  0  0  0
 15 28  1  0  0  0  0
M  END
> <PUBCHEM_COMPOUND_CID>
91650

> <PUBCHEM_COMPOUND_CANONICALIZED>
1

> <PUBCHEM_CACTVS_COMPLEXITY>
179

> <PUBCHEM_CACTVS_HBOND_ACCEPTOR>
3

> <PUBCHEM_CACTVS_HBOND_DONOR>
1

> <PUBCHEM_CACTVS_ROTATABLE_BOND>
2

> <PUBCHEM_CACTVS_SUBSKEYS>
AAADccBzAAAAAAAAAAAAAAAAAAAAAAAAAAA8QAAAAAAAAAABwAAAHAAQAAAACAiBFgAz0JbIEACgASRiZACCgCkhAqAJmCAwZJiIKCLA2dGEJAhokAJIyCcQAAAAAAAAAAAAAAAAAAAAAAAAAAAAAAAAAA==

> <PUBCHEM_IUPAC_OPENEYE_NAME>
4,6-dimethyl-N-phenyl-pyrimidin-2-amine

> <PUBCHEM_IUPAC_CAS_NAME>
4,6-dimethyl-N-phenyl-2-pyrimidinamine

> <PUBCHEM_IUPAC_NAME>
4,6-dimethyl-N-phenylpyrimidin-2-amine

> <PUBCHEM_IUPAC_SYSTEMATIC_NAME>
4,6-dimethyl-N-phenyl-pyrimidin-2-amine

> <PUBCHEM_IUPAC_TRADITIONAL_NAME>
(4,6-dimethylpyrimidin-2-yl)-phenyl-amine

> <PUBCHEM_IUPAC_INCHI>
InChI=1S/C12H13N3/c1-9-8-10(2)14-12(13-9)15-11-6-4-3-5-7-11/h3-8H,1-2H3,(H,13,14,15)

> <PUBCHEM_IUPAC_INCHIKEY>
ZLIBICFPKPWGIZ-UHFFFAOYSA-N

> <PUBCHEM_XLOGP3_AA>
2.9

> <PUBCHEM_EXACT_MASS>
199.110947

> <PUBCHEM_MOLECULAR_FORMULA>
C12H13N3

> <PUBCHEM_MOLECULAR_WEIGHT>
199.25172

> <PUBCHEM_OPENEYE_CAN_SMILES>
CC1=CC(=NC(=N1)NC2=CC=CC=C2)C

> <PUBCHEM_OPENEYE_ISO_SMILES>
CC1=CC(=NC(=N1)NC2=CC=CC=C2)C

> <PUBCHEM_CACTVS_TPSA>
37.8

> <PUBCHEM_MONOISOTOPIC_WEIGHT>
199.110947

> <PUBCHEM_TOTAL_CHARGE>
0

> <PUBCHEM_HEAVY_ATOM_COUNT>
15

> <PUBCHEM_ATOM_DEF_STEREO_COUNT>
0

> <PUBCHEM_ATOM_UDEF_STEREO_COUNT>
0

> <PUBCHEM_BOND_DEF_STEREO_COUNT>
0

> <PUBCHEM_BOND_UDEF_STEREO_COUNT>
0

> <PUBCHEM_ISOTOPIC_ATOM_COUNT>
0

> <PUBCHEM_COMPONENT_COUNT>
1

> <PUBCHEM_CACTVS_TAUTO_COUNT>
5

> <PUBCHEM_COORDINATE_TYPE>
1
5
255

> <PUBCHEM_BONDANNOTATIONS>
10  14  8
13  15  8
14  15  8
2  4  8
2  6  8
3  4  8
3  7  8
5  10  8
5  9  8
6  8  8
7  8  8
9  13  8

$$$$

