26541
  -OEChem-07051213042D

 50 52  0     0  0  0  0  0  0999 V2000
    6.3821   -1.0000    0.0000 O   0  0  0  0  0  0  0  0  0  0  0  0
    2.9180    1.0000    0.0000 O   0  0  0  0  0  0  0  0  0  0  0  0
    2.9180   -1.0000    0.0000 O   0  0  0  0  0  0  0  0  0  0  0  0
    6.3821    1.0000    0.0000 O   0  0  0  0  0  0  0  0  0  0  0  0
    4.6501    2.0000    0.0000 O   0  0  0  0  0  0  0  0  0  0  0  0
    4.6501   -2.0000    0.0000 O   0  0  0  0  0  0  0  0  0  0  0  0
    2.0520    0.5000    0.0000 C   0  0  0  0  0  0  0  0  0  0  0  0
    6.3821   -2.0000    0.0000 C   0  0  0  0  0  0  0  0  0  0  0  0
    2.9180    2.0000    0.0000 C   0  0  0  0  0  0  0  0  0  0  0  0
    7.2482   -0.5000    0.0000 C   0  0  0  0  0  0  0  0  0  0  0  0
    7.2482    0.5000    0.0000 C   0  0  0  0  0  0  0  0  0  0  0  0
    3.7841    2.5000    0.0000 C   0  0  0  0  0  0  0  0  0  0  0  0
    5.5161   -2.5000    0.0000 C   0  0  0  0  0  0  0  0  0  0  0  0
    2.0520   -0.5000    0.0000 C   0  0  0  0  0  0  0  0  0  0  0  0
    2.9180   -2.0000    0.0000 C   0  0  0  0  0  0  0  0  0  0  0  0
    3.7841   -2.5000    0.0000 C   0  0  0  0  0  0  0  0  0  0  0  0
    5.5161    2.5000    0.0000 C   0  0  0  0  0  0  0  0  0  0  0  0
    6.3821    2.0000    0.0000 C   0  0  0  0  0  0  0  0  0  0  0  0
    7.2921    2.5068    0.0000 C   0  0  0  0  0  0  0  0  0  0  0  0
    5.5000    3.5415    0.0000 C   0  0  0  0  0  0  0  0  0  0  0  0
    2.0080   -2.5068    0.0000 C   0  0  0  0  0  0  0  0  0  0  0  0
    3.8001   -3.5415    0.0000 C   0  0  0  0  0  0  0  0  0  0  0  0
    7.3002    3.5484    0.0000 C   0  0  0  0  0  0  0  0  0  0  0  0
    6.3981    4.0693    0.0000 C   0  0  0  0  0  0  0  0  0  0  0  0
    2.9021   -4.0693    0.0000 C   0  0  0  0  0  0  0  0  0  0  0  0
    2.0000   -3.5484    0.0000 C   0  0  0  0  0  0  0  0  0  0  0  0
    7.4602   -1.0826    0.0000 H   0  0  0  0  0  0  0  0  0  0  0  0
    7.8587   -0.3923    0.0000 H   0  0  0  0  0  0  0  0  0  0  0  0
    2.7060    2.5826    0.0000 H   0  0  0  0  0  0  0  0  0  0  0  0
    2.3074    1.8923    0.0000 H   0  0  0  0  0  0  0  0  0  0  0  0
    6.5942   -2.5826    0.0000 H   0  0  0  0  0  0  0  0  0  0  0  0
    6.9927   -1.8923    0.0000 H   0  0  0  0  0  0  0  0  0  0  0  0
    1.8400    1.0826    0.0000 H   0  0  0  0  0  0  0  0  0  0  0  0
    1.4414    0.3923    0.0000 H   0  0  0  0  0  0  0  0  0  0  0  0
    1.4414   -0.3923    0.0000 H   0  0  0  0  0  0  0  0  0  0  0  0
    1.8400   -1.0826    0.0000 H   0  0  0  0  0  0  0  0  0  0  0  0
    5.1176   -2.9750    0.0000 H   0  0  0  0  0  0  0  0  0  0  0  0
    5.9146   -2.9750    0.0000 H   0  0  0  0  0  0  0  0  0  0  0  0
    4.1826    2.9750    0.0000 H   0  0  0  0  0  0  0  0  0  0  0  0
    3.3855    2.9750    0.0000 H   0  0  0  0  0  0  0  0  0  0  0  0
    7.8587    0.3923    0.0000 H   0  0  0  0  0  0  0  0  0  0  0  0
    7.4602    1.0826    0.0000 H   0  0  0  0  0  0  0  0  0  0  0  0
    7.8254    2.1907    0.0000 H   0  0  0  0  0  0  0  0  0  0  0  0
    4.9596    3.8453    0.0000 H   0  0  0  0  0  0  0  0  0  0  0  0
    4.3406   -3.8453    0.0000 H   0  0  0  0  0  0  0  0  0  0  0  0
    1.4747   -2.1907    0.0000 H   0  0  0  0  0  0  0  0  0  0  0  0
    7.8383    3.8564    0.0000 H   0  0  0  0  0  0  0  0  0  0  0  0
    6.3957    4.6893    0.0000 H   0  0  0  0  0  0  0  0  0  0  0  0
    2.9045   -4.6893    0.0000 H   0  0  0  0  0  0  0  0  0  0  0  0
    1.4619   -3.8564    0.0000 H   0  0  0  0  0  0  0  0  0  0  0  0
  1  8  1  0  0  0  0
  1 10  1  0  0  0  0
  2  7  1  0  0  0  0
  2  9  1  0  0  0  0
  3 14  1  0  0  0  0
  3 15  1  0  0  0  0
  4 11  1  0  0  0  0
  4 18  1  0  0  0  0
  5 12  1  0  0  0  0
  5 17  1  0  0  0  0
  6 13  1  0  0  0  0
  6 16  1  0  0  0  0
  7 14  1  0  0  0  0
  7 33  1  0  0  0  0
  7 34  1  0  0  0  0
  8 13  1  0  0  0  0
  8 31  1  0  0  0  0
  8 32  1  0  0  0  0
  9 12  1  0  0  0  0
  9 29  1  0  0  0  0
  9 30  1  0  0  0  0
 10 11  1  0  0  0  0
 10 27  1  0  0  0  0
 10 28  1  0  0  0  0
 11 41  1  0  0  0  0
 11 42  1  0  0  0  0
 12 39  1  0  0  0  0
 12 40  1  0  0  0  0
 13 37  1  0  0  0  0
 13 38  1  0  0  0  0
 14 35  1  0  0  0  0
 14 36  1  0  0  0  0
 15 16  1  0  0  0  0
 15 21  2  0  0  0  0
 16 22  2  0  0  0  0
 17 18  1  0  0  0  0
 17 20  2  0  0  0  0
 18 19  2  0  0  0  0
 19 23  1  0  0  0  0
 19 43  1  0  0  0  0
 20 24  1  0  0  0  0
 20 44  1  0  0  0  0
 21 26  1  0  0  0  0
 21 46  1  0  0  0  0
 22 25  1  0  0  0  0
 22 45  1  0  0  0  0
 23 24  2  0  0  0  0
 23 47  1  0  0  0  0
 24 48  1  0  0  0  0
 25 26  2  0  0  0  0
 25 49  1  0  0  0  0
 26 50  1  0  0  0  0
M  END
> <PUBCHEM_COMPOUND_CID>
26541

> <PUBCHEM_COMPOUND_CANONICALIZED>
1

> <PUBCHEM_CACTVS_COMPLEXITY>
300

> <PUBCHEM_CACTVS_HBOND_ACCEPTOR>
6

> <PUBCHEM_CACTVS_HBOND_DONOR>
0

> <PUBCHEM_CACTVS_ROTATABLE_BOND>
0

> <PUBCHEM_CACTVS_SUBSKEYS>
AAADceB4OAAAAAAAAAAAAAAAAAAAAAAAAAAwYAAAAAAAAAABQAAAGgAAAAAACASgkAIwBoAABACAACBCAAACCAAgIAAIiAAGiIgNJiKEMRqCOCKkwBEKqAeAQAAAAAAAAAAAQAAAAAAAAACAAAAAAAAAAA==

> <PUBCHEM_IUPAC_INCHI>
InChI=1S/C20H24O6/c1-2-6-18-17(5-1)23-13-9-21-11-15-25-19-7-3-4-8-20(19)26-16-12-22-10-14-24-18/h1-8H,9-16H2

> <PUBCHEM_IUPAC_INCHIKEY>
YSSSPARMOAYJTE-UHFFFAOYSA-N

> <PUBCHEM_XLOGP3>
2.2

> <PUBCHEM_EXACT_MASS>
360.157288

> <PUBCHEM_MOLECULAR_FORMULA>
C20H24O6

> <PUBCHEM_MOLECULAR_WEIGHT>
360.40096

> <PUBCHEM_OPENEYE_CAN_SMILES>
C1COC2=CC=CC=C2OCCOCCOC3=CC=CC=C3OCCO1

> <PUBCHEM_OPENEYE_ISO_SMILES>
C1COC2=CC=CC=C2OCCOCCOC3=CC=CC=C3OCCO1

> <PUBCHEM_CACTVS_TPSA>
55.4

> <PUBCHEM_MONOISOTOPIC_WEIGHT>
360.157288

> <PUBCHEM_TOTAL_CHARGE>
0

> <PUBCHEM_HEAVY_ATOM_COUNT>
26

> <PUBCHEM_ATOM_DEF_STEREO_COUNT>
0

> <PUBCHEM_ATOM_UDEF_STEREO_COUNT>
0

> <PUBCHEM_BOND_DEF_STEREO_COUNT>
0

> <PUBCHEM_BOND_UDEF_STEREO_COUNT>
0

> <PUBCHEM_ISOTOPIC_ATOM_COUNT>
0

> <PUBCHEM_COMPONENT_COUNT>
1

> <PUBCHEM_CACTVS_TAUTO_COUNT>
1

> <PUBCHEM_COORDINATE_TYPE>
1
5
255

> <PUBCHEM_BONDANNOTATIONS>
15  16  8
15  21  8
16  22  8
17  18  8
17  20  8
18  19  8
19  23  8
20  24  8
21  26  8
22  25  8
23  24  8
25  26  8

$$$$

