47205798
  -OEChem-06241223003D

 38 38  0     0  0  0  0  0  0999 V2000
   -0.4255   -0.6744   -1.4130 O   0  0  0  0  0  0  0  0  0  0  0  0
   -2.5139    0.7053    1.1791 O   0  0  0  0  0  0  0  0  0  0  0  0
    1.1012   -1.8166   -0.0914 N   0  0  0  0  0  0  0  0  0  0  0  0
   -2.5659   -1.3124    0.0324 N   0  0  0  0  0  0  0  0  0  0  0  0
    3.4800    1.8355    0.0373 N   0  0  0  0  0  0  0  0  0  0  0  0
    4.4758    1.1323    0.6030 N   0  0  0  0  0  0  0  0  0  0  0  0
    2.2738   -1.4857   -0.8916 C   0  0  0  0  0  0  0  0  0  0  0  0
    2.9511   -0.2369   -0.4060 C   0  0  0  0  0  0  0  0  0  0  0  0
   -0.1834   -1.3734   -0.4254 C   0  0  0  0  0  0  0  0  0  0  0  0
   -1.2972   -1.8080    0.5108 C   0  0  0  0  0  0  0  0  0  0  0  0
   -4.4166    0.2002   -0.2305 C   0  0  0  0  0  0  0  0  0  0  0  0
    2.5410    1.0623   -0.5798 C   0  0  0  0  0  0  0  0  0  0  0  0
    1.3625   -2.6440    1.0838 C   0  0  0  0  0  0  0  0  0  0  0  0
   -4.9898    1.5540    0.1782 C   0  0  0  0  0  0  0  0  0  0  0  0
    4.1473   -0.1329    0.3290 C   0  0  0  0  0  0  0  0  0  0  0  0
   -3.0711   -0.0784    0.4152 C   0  0  0  0  0  0  0  0  0  0  0  0
   -6.3508    1.7969   -0.4535 C   0  0  0  0  0  0  0  0  0  0  0  0
    3.4816    3.2763    0.1225 C   0  0  0  0  0  0  0  0  0  0  0  0
    2.9664   -2.3352   -0.8889 H   0  0  0  0  0  0  0  0  0  0  0  0
    1.9591   -1.3306   -1.9307 H   0  0  0  0  0  0  0  0  0  0  0  0
   -1.3690   -2.8992    0.5254 H   0  0  0  0  0  0  0  0  0  0  0  0
   -1.1166   -1.4146    1.5155 H   0  0  0  0  0  0  0  0  0  0  0  0
   -4.2903    0.1601   -1.3190 H   0  0  0  0  0  0  0  0  0  0  0  0
   -5.1065   -0.6016    0.0590 H   0  0  0  0  0  0  0  0  0  0  0  0
    1.6816    1.4892   -1.0788 H   0  0  0  0  0  0  0  0  0  0  0  0
    1.7927   -3.5928    0.7478 H   0  0  0  0  0  0  0  0  0  0  0  0
    0.4850   -2.8674    1.6880 H   0  0  0  0  0  0  0  0  0  0  0  0
    2.0883   -2.1296    1.7209 H   0  0  0  0  0  0  0  0  0  0  0  0
   -5.0845    1.6066    1.2694 H   0  0  0  0  0  0  0  0  0  0  0  0
   -4.3032    2.3555   -0.1192 H   0  0  0  0  0  0  0  0  0  0  0  0
   -3.0898   -1.8874   -0.6212 H   0  0  0  0  0  0  0  0  0  0  0  0
    4.7944   -0.9252    0.6779 H   0  0  0  0  0  0  0  0  0  0  0  0
   -7.0693    1.0312   -0.1441 H   0  0  0  0  0  0  0  0  0  0  0  0
   -6.7417    2.7725   -0.1482 H   0  0  0  0  0  0  0  0  0  0  0  0
   -6.2839    1.7844   -1.5460 H   0  0  0  0  0  0  0  0  0  0  0  0
    3.4582    3.5583    1.1781 H   0  0  0  0  0  0  0  0  0  0  0  0
    4.3914    3.6480   -0.3553 H   0  0  0  0  0  0  0  0  0  0  0  0
    2.6018    3.6735   -0.3897 H   0  0  0  0  0  0  0  0  0  0  0  0
  1  9  2  0  0  0  0
  2 16  2  0  0  0  0
  3  7  1  0  0  0  0
  3  9  1  0  0  0  0
  3 13  1  0  0  0  0
  4 10  1  0  0  0  0
  4 16  1  0  0  0  0
  4 31  1  0  0  0  0
  5  6  1  0  0  0  0
  5 12  1  0  0  0  0
  5 18  1  0  0  0  0
  6 15  2  0  0  0  0
  7  8  1  0  0  0  0
  7 19  1  0  0  0  0
  7 20  1  0  0  0  0
  8 12  2  0  0  0  0
  8 15  1  0  0  0  0
  9 10  1  0  0  0  0
 10 21  1  0  0  0  0
 10 22  1  0  0  0  0
 11 14  1  0  0  0  0
 11 16  1  0  0  0  0
 11 23  1  0  0  0  0
 11 24  1  0  0  0  0
 12 25  1  0  0  0  0
 13 26  1  0  0  0  0
 13 27  1  0  0  0  0
 13 28  1  0  0  0  0
 14 17  1  0  0  0  0
 14 29  1  0  0  0  0
 14 30  1  0  0  0  0
 15 32  1  0  0  0  0
 17 33  1  0  0  0  0
 17 34  1  0  0  0  0
 17 35  1  0  0  0  0
 18 36  1  0  0  0  0
 18 37  1  0  0  0  0
 18 38  1  0  0  0  0
M  END
> <PUBCHEM_COMPOUND_CID>
47205798

> <PUBCHEM_CONFORMER_RMSD>
1.2

> <PUBCHEM_CONFORMER_DIVERSEORDER>
1
57
51
28
66
29
55
59
23
15
31
50
48
60
75
71
34
5
64
53
41
43
63
56
33
26
30
76
25
4
35
24
49
19
36
6
27
17
18
58
72
47
37
3
61
20
11
62
54
45
13
70
21
39
74
10
67
22
52
65
7
2
32
16
38
68
69
14
40
42
44
9
46
8
12
73

> <PUBCHEM_MMFF94_PARTIAL_CHARGES>
19
1 -0.57
10 0.36
11 0.06
12 -0.3
13 0.3
15 0.14
16 0.57
18 0.26
2 -0.57
25 0.15
3 -0.66
31 0.37
32 0.15
4 -0.73
5 0.31
6 -0.71
7 0.48
8 -0.18
9 0.57

> <PUBCHEM_EFFECTIVE_ROTOR_COUNT>
8

> <PUBCHEM_PHARMACOPHORE_FEATURES>
6
1 1 acceptor
1 17 hydrophobe
1 2 acceptor
1 4 donor
1 6 acceptor
5 5 6 8 12 15 rings

> <PUBCHEM_HEAVY_ATOM_COUNT>
18

> <PUBCHEM_ATOM_DEF_STEREO_COUNT>
0

> <PUBCHEM_ATOM_UDEF_STEREO_COUNT>
0

> <PUBCHEM_BOND_DEF_STEREO_COUNT>
0

> <PUBCHEM_BOND_UDEF_STEREO_COUNT>
0

> <PUBCHEM_ISOTOPIC_ATOM_COUNT>
0

> <PUBCHEM_COMPONENT_COUNT>
1

> <PUBCHEM_CACTVS_TAUTO_COUNT>
2

> <PUBCHEM_CONFORMER_ID>
02D04DA600000001

> <PUBCHEM_MMFF94_ENERGY>
23.5307

> <PUBCHEM_FEATURE_SELFOVERLAP>
30.446

> <PUBCHEM_SHAPE_FINGERPRINT>
10498660 4 18187640280395438633
11089746 13 18339927116409580567
122479 349 18267020562103677358
12596602 18 14260767526219298845
12633257 1 15913322468863481877
12670546 177 4967601802257156330
12769317 202 18335710450467200993
13551218 46 10303804394328393969
13878862 14 17986694742679453125
13955234 65 18125718131094211779
13965767 371 17917441903755911150
14123255 52 18411136922415383339
14178342 30 17560791088003854115
1420 369 9799686000562103389
14251710 61 9799699189979381935
14251732 16 18410852154200816691
14251764 38 18196652895693831413
14251764 75 18265882584586009009
14576447 43 8790889592589242360
14848178 96 18408882923531210201
15238133 3 18270961242375277628
15342816 4 6555424084886047182
17810953 82 18412541015801913613
17834072 32 18338514144930393737
17959699 21 18334858359553013593
1813 80 6483348920121425067
193927 3 11240007762467618402
19784866 240 10591762121054228023
20157964 124 18337956796299706637
20621476 13 18336264535566308576
20715895 44 18338519741673908553
20871999 31 6699542588297250243
212916 134 16845568747428629929
21315763 76 18334017215640610801
21452121 103 18341335594820075843
21475661 188 18412263913212290076
21713013 43 7420688075963007122
22950370 63 9295293858824379687
23227448 37 18336265652710706783
23559900 14 18262796401306697167
270888 7 18337392622007013648
2838139 119 18409174333205022621
33382 64 9943518635624483653
3472631 163 18334577975650808445
351380 180 18408886247687879264
351380 3 11455890264895685897
4259306 186 8934997049702886145
465052 167 10519696817613418033
474 4 18410572881376589163
5312510 48 18336828697417958073
56616090 13 18410295787604150059
6328613 192 18269546162420791220
633830 44 18410577245390721742
94968 8 9079118851986140742

> <PUBCHEM_SHAPE_MULTIPOLES>
338.77
11.66
3.01
0.96
14.39
1
0.03
9.94
-0.15
-2.22
-0.45
-0.07
-0.24
0.35

> <PUBCHEM_SHAPE_SELFOVERLAP>
672.912

> <PUBCHEM_SHAPE_VOLUME>
202.9

> <PUBCHEM_COORDINATE_TYPE>
2
5
10

$$$$

