182279
  -OEChem-07051213023D

 47 49  0     1  0  0  0  0  0999 V2000
   -0.2305    0.5911   -0.8825 O   0  0  0  0  0  0  0  0  0  0  0  0
   -1.8249   -0.7089    0.2183 O   0  0  0  0  0  0  0  0  0  0  0  0
    1.3112    1.9179    0.2480 O   0  0  0  0  0  0  0  0  0  0  0  0
   -2.0870    2.7232   -1.0071 O   0  0  0  0  0  0  0  0  0  0  0  0
   -4.8710    1.7589   -1.0056 O   0  0  0  0  0  0  0  0  0  0  0  0
   -5.3031   -0.0829    1.1800 O   0  0  0  0  0  0  0  0  0  0  0  0
    1.1225   -1.9825   -3.0709 O   0  0  0  0  0  0  0  0  0  0  0  0
   -2.1211   -2.7312    2.0564 O   0  0  0  0  0  0  0  0  0  0  0  0
    5.8525    0.8076    1.0959 O   0  0  0  0  0  0  0  0  0  0  0  0
    2.0442   -0.1850   -0.8530 C   0  0  2  0  0  0  0  0  0  0  0  0
    3.4237   -0.0775   -0.1633 C   0  0  2  0  0  0  0  0  0  0  0  0
    0.9484    0.5690   -0.0767 C   0  0  2  0  0  0  0  0  0  0  0  0
    3.5524   -1.3440    0.6967 C   0  0  0  0  0  0  0  0  0  0  0  0
    1.8300   -1.6792   -0.8632 C   0  0  0  0  0  0  0  0  0  0  0  0
   -1.4081    0.6222   -0.0766 C   0  0  2  0  0  0  0  0  0  0  0  0
   -2.4934    1.3631   -0.8575 C   0  0  1  0  0  0  0  0  0  0  0  0
   -3.8362    1.3120   -0.1283 C   0  0  2  0  0  0  0  0  0  0  0  0
    2.6552   -2.3027   -0.0124 C   0  0  0  0  0  0  0  0  0  0  0  0
   -4.1725   -0.1126    0.3127 C   0  0  1  0  0  0  0  0  0  0  0  0
    3.5766    1.1953    0.5988 C   0  0  0  0  0  0  0  0  0  0  0  0
   -2.9889   -0.7479    1.0460 C   0  0  1  0  0  0  0  0  0  0  0  0
    0.8149   -2.3269   -1.7354 C   0  0  0  0  0  0  0  0  0  0  0  0
    2.5826    2.0794    0.7261 C   0  0  0  0  0  0  0  0  0  0  0  0
   -3.2577   -2.2089    1.3929 C   0  0  0  0  0  0  0  0  0  0  0  0
    4.8802    1.5508    1.1607 C   0  0  0  0  0  0  0  0  0  0  0  0
    2.1240    0.2115   -1.8729 H   0  0  0  0  0  0  0  0  0  0  0  0
    4.1948   -0.1117   -0.9484 H   0  0  0  0  0  0  0  0  0  0  0  0
    0.7474    0.0392    0.8671 H   0  0  0  0  0  0  0  0  0  0  0  0
    3.2161   -1.2009    1.7295 H   0  0  0  0  0  0  0  0  0  0  0  0
    4.5852   -1.7064    0.7085 H   0  0  0  0  0  0  0  0  0  0  0  0
   -1.2036    1.1623    0.8592 H   0  0  0  0  0  0  0  0  0  0  0  0
   -2.5935    0.9489   -1.8678 H   0  0  0  0  0  0  0  0  0  0  0  0
   -3.8436    1.9935    0.7314 H   0  0  0  0  0  0  0  0  0  0  0  0
   -4.4482   -0.7100   -0.5650 H   0  0  0  0  0  0  0  0  0  0  0  0
    2.6692   -3.3694    0.1605 H   0  0  0  0  0  0  0  0  0  0  0  0
   -2.7701   -0.2128    1.9802 H   0  0  0  0  0  0  0  0  0  0  0  0
   -0.2027   -2.0087   -1.4986 H   0  0  0  0  0  0  0  0  0  0  0  0
    0.8526   -3.4175   -1.6496 H   0  0  0  0  0  0  0  0  0  0  0  0
    2.6793    3.0491    1.1960 H   0  0  0  0  0  0  0  0  0  0  0  0
   -3.4246   -2.8103    0.4931 H   0  0  0  0  0  0  0  0  0  0  0  0
   -4.1223   -2.3159    2.0542 H   0  0  0  0  0  0  0  0  0  0  0  0
    4.9460    2.5312    1.6619 H   0  0  0  0  0  0  0  0  0  0  0  0
   -1.9976    3.1108   -0.1198 H   0  0  0  0  0  0  0  0  0  0  0  0
   -4.6334    2.6544   -1.3014 H   0  0  0  0  0  0  0  0  0  0  0  0
   -5.0642    0.4354    1.9674 H   0  0  0  0  0  0  0  0  0  0  0  0
    0.7859   -1.0845   -3.2323 H   0  0  0  0  0  0  0  0  0  0  0  0
   -1.3590   -2.6268    1.4612 H   0  0  0  0  0  0  0  0  0  0  0  0
  1 12  1  0  0  0  0
  1 15  1  0  0  0  0
  2 15  1  0  0  0  0
  2 21  1  0  0  0  0
  3 12  1  0  0  0  0
  3 23  1  0  0  0  0
  4 16  1  0  0  0  0
  4 43  1  0  0  0  0
  5 17  1  0  0  0  0
  5 44  1  0  0  0  0
  6 19  1  0  0  0  0
  6 45  1  0  0  0  0
  7 22  1  0  0  0  0
  7 46  1  0  0  0  0
  8 24  1  0  0  0  0
  8 47  1  0  0  0  0
  9 25  2  0  0  0  0
 10 11  1  0  0  0  0
 10 12  1  0  0  0  0
 10 14  1  0  0  0  0
 10 26  1  0  0  0  0
 11 13  1  0  0  0  0
 11 20  1  0  0  0  0
 11 27  1  0  0  0  0
 12 28  1  0  0  0  0
 13 18  1  0  0  0  0
 13 29  1  0  0  0  0
 13 30  1  0  0  0  0
 14 18  2  0  0  0  0
 14 22  1  0  0  0  0
 15 16  1  0  0  0  0
 15 31  1  0  0  0  0
 16 17  1  0  0  0  0
 16 32  1  0  0  0  0
 17 19  1  0  0  0  0
 17 33  1  0  0  0  0
 18 35  1  0  0  0  0
 19 21  1  0  0  0  0
 19 34  1  0  0  0  0
 20 23  2  0  0  0  0
 20 25  1  0  0  0  0
 21 24  1  0  0  0  0
 21 36  1  0  0  0  0
 22 37  1  0  0  0  0
 22 38  1  0  0  0  0
 23 39  1  0  0  0  0
 24 40  1  0  0  0  0
 24 41  1  0  0  0  0
 25 42  1  0  0  0  0
M  END
> <PUBCHEM_COMPOUND_CID>
182279

> <PUBCHEM_CONFORMER_RMSD>
0.8

> <PUBCHEM_CONFORMER_DIVERSEORDER>
1
17
64
13
80
27
33
87
14
82
62
96
59
94
39
2
40
74
49
89
95
90
35
58
60
12
48
88
6
50
71
66
93
4
54
57
31
45
37
70
44
29
79
91
77
69
56
34
81
46
63
75
65
68
26
55
19
21
67
9
98
76
52
16
61
85
11
86
38
97
42
20
51
32
41
78
7
23
47
10
18
5
28
36
24
53
43
84
8
92
22
3
83
25
15
72
30
73

> <PUBCHEM_MMFF94_PARTIAL_CHARGES>
33
1 -0.56
10 0.14
11 0.14
12 0.56
13 0.14
14 -0.28
15 0.56
16 0.28
17 0.28
18 -0.29
19 0.28
2 -0.56
20 -0.12
21 0.28
22 0.42
23 -0.07
24 0.28
25 0.5
3 -0.36
35 0.15
39 0.15
4 -0.68
42 0.06
43 0.4
44 0.4
45 0.4
46 0.4
47 0.4
5 -0.68
6 -0.68
7 -0.68
8 -0.68
9 -0.57

> <PUBCHEM_EFFECTIVE_ROTOR_COUNT>
6.8

> <PUBCHEM_PHARMACOPHORE_FEATURES>
17
1 1 acceptor
1 2 acceptor
1 3 acceptor
1 4 acceptor
1 4 donor
1 5 acceptor
1 5 donor
1 6 acceptor
1 6 donor
1 7 acceptor
1 7 donor
1 8 acceptor
1 8 donor
1 9 acceptor
5 10 11 13 14 18 rings
6 2 15 16 17 19 21 rings
6 3 10 11 12 20 23 rings

> <PUBCHEM_HEAVY_ATOM_COUNT>
25

> <PUBCHEM_ATOM_DEF_STEREO_COUNT>
8

> <PUBCHEM_ATOM_UDEF_STEREO_COUNT>
0

> <PUBCHEM_BOND_DEF_STEREO_COUNT>
0

> <PUBCHEM_BOND_UDEF_STEREO_COUNT>
0

> <PUBCHEM_ISOTOPIC_ATOM_COUNT>
0

> <PUBCHEM_COMPONENT_COUNT>
1

> <PUBCHEM_CACTVS_TAUTO_COUNT>
1

> <PUBCHEM_CONFORMER_ID>
0002C80700000001

> <PUBCHEM_MMFF94_ENERGY>
57.5292

> <PUBCHEM_FEATURE_SELFOVERLAP>
86.496

> <PUBCHEM_SHAPE_FINGERPRINT>
10366900 7 18408600370559704909
11045977 3 18341614854094756810
11488393 25 17751897316123947246
12236239 1 15936410043771931572
12553582 1 17697853909904602923
12596602 18 16081087048288227017
12633257 1 18338790216911950179
13140716 1 18120376449765139464
13402501 40 18411700997681878305
13583140 156 18058750064336724652
14081887 123 18272367551273212539
14178342 30 17917991663564346115
14790565 3 17979354162861824900
14955137 171 18411417268638946184
15375358 24 18411982477000794995
15635459 17 18336532915303401423
17138139 8 16228905383057902957
1813 80 14908185295728061474
19049666 15 18267301130573191925
204376 136 17821732706518790014
20600515 1 17917988378294335557
20645477 70 18041566943683244116
21033648 29 17702391834762890933
21756936 100 18052259497650015604
23557571 272 18200295697943758055
23559900 14 18200020880229945670
49207404 50 18407757023655574222
495365 180 18041295342857536521
5104073 3 18340483486652303545
8272917 22 17749948980833231693
9709674 26 18412260653485073735
9862522 239 18043257851249677742

> <PUBCHEM_SHAPE_MULTIPOLES>
461.66
10.2
2.93
1.69
1.53
0.74
-0.58
-3.45
4.06
-0.17
-0.22
0.28
1.19
2.77

> <PUBCHEM_SHAPE_SELFOVERLAP>
974.228

> <PUBCHEM_SHAPE_VOLUME>
254.5

> <PUBCHEM_COORDINATE_TYPE>
2
5
10

$$$$

