441739
  -OEChem-07051212553D

 60 66  0     1  0  0  0  0  0999 V2000
    0.0094    1.7124    1.0696 O   0  0  0  0  0  0  0  0  0  0  0  0
    2.4951    2.1582   -0.2263 O   0  0  0  0  0  0  0  0  0  0  0  0
    3.3700   -0.6543    1.6097 O   0  0  0  0  0  0  0  0  0  0  0  0
   -2.7225    0.7704    1.7399 O   0  0  0  0  0  0  0  0  0  0  0  0
    5.2532   -1.2016    0.3243 O   0  0  0  0  0  0  0  0  0  0  0  0
    4.7274    1.8494    0.1545 O   0  0  0  0  0  0  0  0  0  0  0  0
   -5.4787   -0.6550   -0.1837 N   0  0  0  0  0  0  0  0  0  0  0  0
   -0.7589    0.7604    0.3237 C   0  0  2  0  0  0  0  0  0  0  0  0
    1.2515   -0.8532    0.3220 C   0  0  2  0  0  0  0  0  0  0  0  0
   -0.2991   -0.6839    0.4219 C   0  0  2  0  0  0  0  0  0  0  0  0
    1.8471   -0.0204   -0.8467 C   0  0  1  0  0  0  0  0  0  0  0  0
    0.1224    1.7866   -0.3576 C   0  0  2  0  0  0  0  0  0  0  0  0
    1.4604    1.4431   -0.9087 C   0  0  1  0  0  0  0  0  0  0  0  0
   -2.2352    1.0228    0.4051 C   0  0  1  0  0  0  0  0  0  0  0  0
    3.3794    0.0126   -0.7334 C   0  0  2  0  0  0  0  0  0  0  0  0
   -3.0748    0.1320   -0.5188 C   0  0  1  0  0  0  0  0  0  0  0  0
    1.6907   -2.3230    0.0437 C   0  0  0  0  0  0  0  0  0  0  0  0
   -1.0717   -1.4849   -0.6501 C   0  0  0  0  0  0  0  0  0  0  0  0
    3.8383   -1.0445    0.3091 C   0  0  2  0  0  0  0  0  0  0  0  0
    1.9471   -0.4894    1.6643 C   0  0  0  0  0  0  0  0  0  0  0  0
   -2.5856   -1.3392   -0.4781 C   0  0  0  0  0  0  0  0  0  0  0  0
    3.2207   -2.4215    0.0189 C   0  0  0  0  0  0  0  0  0  0  0  0
   -4.4422    0.3030    0.1636 C   0  0  2  0  0  0  0  0  0  0  0  0
    3.6459    1.4224   -0.2229 C   0  0  0  0  0  0  0  0  0  0  0  0
    4.0445   -0.1339   -2.1065 C   0  0  0  0  0  0  0  0  0  0  0  0
   -4.0777    0.2942    1.6437 C   0  0  0  0  0  0  0  0  0  0  0  0
   -3.0806    0.6467   -1.9635 C   0  0  0  0  0  0  0  0  0  0  0  0
   -5.7820   -0.5966   -1.6164 C   0  0  0  0  0  0  0  0  0  0  0  0
   -6.6941   -0.4126    0.5988 C   0  0  0  0  0  0  0  0  0  0  0  0
   -0.6123   -1.0697    1.4021 H   0  0  0  0  0  0  0  0  0  0  0  0
    1.5261   -0.4936   -1.7853 H   0  0  0  0  0  0  0  0  0  0  0  0
   -0.3236    2.6462   -0.8402 H   0  0  0  0  0  0  0  0  0  0  0  0
    1.4900    1.7810   -1.9528 H   0  0  0  0  0  0  0  0  0  0  0  0
   -2.4435    2.0825    0.2014 H   0  0  0  0  0  0  0  0  0  0  0  0
    1.3128   -2.6812   -0.9209 H   0  0  0  0  0  0  0  0  0  0  0  0
    1.2874   -2.9955    0.8110 H   0  0  0  0  0  0  0  0  0  0  0  0
   -0.8409   -2.5525   -0.5746 H   0  0  0  0  0  0  0  0  0  0  0  0
   -0.7851   -1.1588   -1.6567 H   0  0  0  0  0  0  0  0  0  0  0  0
    1.7702    0.5386    1.9818 H   0  0  0  0  0  0  0  0  0  0  0  0
    1.5794   -1.1305    2.4743 H   0  0  0  0  0  0  0  0  0  0  0  0
   -3.0832   -1.9339   -1.2531 H   0  0  0  0  0  0  0  0  0  0  0  0
   -2.8556   -1.8119    0.4746 H   0  0  0  0  0  0  0  0  0  0  0  0
    3.5456   -3.1433    0.7796 H   0  0  0  0  0  0  0  0  0  0  0  0
    3.5714   -2.8213   -0.9395 H   0  0  0  0  0  0  0  0  0  0  0  0
   -4.8062    1.3190   -0.0603 H   0  0  0  0  0  0  0  0  0  0  0  0
    3.8215   -1.1052   -2.5591 H   0  0  0  0  0  0  0  0  0  0  0  0
    3.6991    0.6420   -2.8000 H   0  0  0  0  0  0  0  0  0  0  0  0
    5.1332   -0.0333   -2.0394 H   0  0  0  0  0  0  0  0  0  0  0  0
   -4.7224    0.9491    2.2387 H   0  0  0  0  0  0  0  0  0  0  0  0
   -4.1008   -0.7069    2.0878 H   0  0  0  0  0  0  0  0  0  0  0  0
   -3.4182   -0.0868   -2.6972 H   0  0  0  0  0  0  0  0  0  0  0  0
   -3.6846    1.5541   -2.0713 H   0  0  0  0  0  0  0  0  0  0  0  0
   -2.0636    0.9148   -2.2742 H   0  0  0  0  0  0  0  0  0  0  0  0
    5.6549   -0.3226    0.2246 H   0  0  0  0  0  0  0  0  0  0  0  0
   -6.7245   -1.1190   -1.8264 H   0  0  0  0  0  0  0  0  0  0  0  0
   -5.0465   -1.1490   -2.2022 H   0  0  0  0  0  0  0  0  0  0  0  0
   -5.8976    0.4255   -1.9927 H   0  0  0  0  0  0  0  0  0  0  0  0
   -7.4765   -1.1294    0.3228 H   0  0  0  0  0  0  0  0  0  0  0  0
   -7.0903    0.5978    0.4448 H   0  0  0  0  0  0  0  0  0  0  0  0
   -6.5252   -0.5639    1.6698 H   0  0  0  0  0  0  0  0  0  0  0  0
  1  8  1  0  0  0  0
  1 12  1  0  0  0  0
  2 13  1  0  0  0  0
  2 24  1  0  0  0  0
  3 19  1  0  0  0  0
  3 20  1  0  0  0  0
  4 14  1  0  0  0  0
  4 26  1  0  0  0  0
  5 19  1  0  0  0  0
  5 54  1  0  0  0  0
  6 24  2  0  0  0  0
  7 23  1  0  0  0  0
  7 28  1  0  0  0  0
  7 29  1  0  0  0  0
  8 10  1  0  0  0  0
  8 12  1  0  0  0  0
  8 14  1  0  0  0  0
  9 10  1  0  0  0  0
  9 11  1  0  0  0  0
  9 17  1  0  0  0  0
  9 20  1  0  0  0  0
 10 18  1  0  0  0  0
 10 30  1  0  0  0  0
 11 13  1  0  0  0  0
 11 15  1  0  0  0  0
 11 31  1  0  0  0  0
 12 13  1  0  0  0  0
 12 32  1  0  0  0  0
 13 33  1  0  0  0  0
 14 16  1  0  0  0  0
 14 34  1  0  0  0  0
 15 19  1  0  0  0  0
 15 24  1  0  0  0  0
 15 25  1  0  0  0  0
 16 21  1  0  0  0  0
 16 23  1  0  0  0  0
 16 27  1  0  0  0  0
 17 22  1  0  0  0  0
 17 35  1  0  0  0  0
 17 36  1  0  0  0  0
 18 21  1  0  0  0  0
 18 37  1  0  0  0  0
 18 38  1  0  0  0  0
 19 22  1  0  0  0  0
 20 39  1  0  0  0  0
 20 40  1  0  0  0  0
 21 41  1  0  0  0  0
 21 42  1  0  0  0  0
 22 43  1  0  0  0  0
 22 44  1  0  0  0  0
 23 26  1  0  0  0  0
 23 45  1  0  0  0  0
 25 46  1  0  0  0  0
 25 47  1  0  0  0  0
 25 48  1  0  0  0  0
 26 49  1  0  0  0  0
 26 50  1  0  0  0  0
 27 51  1  0  0  0  0
 27 52  1  0  0  0  0
 27 53  1  0  0  0  0
 28 55  1  0  0  0  0
 28 56  1  0  0  0  0
 28 57  1  0  0  0  0
 29 58  1  0  0  0  0
 29 59  1  0  0  0  0
 29 60  1  0  0  0  0
M  END
> <PUBCHEM_COMPOUND_CID>
441739

> <PUBCHEM_CONFORMER_RMSD>
0.8

> <PUBCHEM_CONFORMER_DIVERSEORDER>
1

> <PUBCHEM_MMFF94_PARTIAL_CHARGES>
22
1 -0.3
10 0.09
12 -0.05
13 0.38
14 0.38
15 0.06
19 0.56
2 -0.43
20 0.28
23 0.27
24 0.66
26 0.28
28 0.27
29 0.27
3 -0.56
32 0.1
4 -0.56
5 -0.68
54 0.4
6 -0.57
7 -0.81
8 -0.04

> <PUBCHEM_EFFECTIVE_ROTOR_COUNT>
3.2

> <PUBCHEM_PHARMACOPHORE_FEATURES>
12
1 1 acceptor
1 3 acceptor
1 4 acceptor
1 5 acceptor
1 5 donor
1 6 acceptor
1 7 cation
5 2 11 13 15 24 rings
5 4 14 16 23 26 rings
6 8 10 14 16 18 21 rings
7 1 8 9 10 11 12 13 rings
8 3 9 11 15 17 19 20 22 rings

> <PUBCHEM_HEAVY_ATOM_COUNT>
29

> <PUBCHEM_ATOM_DEF_STEREO_COUNT>
11

> <PUBCHEM_ATOM_UDEF_STEREO_COUNT>
0

> <PUBCHEM_BOND_DEF_STEREO_COUNT>
0

> <PUBCHEM_BOND_UDEF_STEREO_COUNT>
0

> <PUBCHEM_ISOTOPIC_ATOM_COUNT>
0

> <PUBCHEM_COMPONENT_COUNT>
1

> <PUBCHEM_CACTVS_TAUTO_COUNT>
1

> <PUBCHEM_CONFORMER_ID>
0006BD8B00000001

> <PUBCHEM_MMFF94_ENERGY>
109.6116

> <PUBCHEM_FEATURE_SELFOVERLAP>
61.383

> <PUBCHEM_SHAPE_FINGERPRINT>
10366900 7 17131828806964153347
10863032 1 18260546672236135680
11578080 2 17897754121458839177
12166972 35 18410013242869534641
12236239 1 18113615686405393753
12553582 1 18409441527125161164
12788726 201 17385994079662821649
128620 24 18413108368344096343
13009979 54 17825103963704413258
13140716 1 18338514145310026762
13224815 77 18409729560263549826
13533116 47 18259987071951146915
13583140 156 17346599685798180731
13782708 43 17131829893454125995
13944108 23 15467507156983719541
15142383 8 18337389448495427113
15183329 4 18340777022477540189
15788980 27 17846781823351330535
16945 1 18337950194713478308
17349148 13 18186802487263959847
17492 89 18193557993599825451
1813 80 18040714787875574645
200 152 18410859896850490573
20028762 73 18260268577040920302
20511986 3 18041574580398911517
20645477 70 18273216408445914012
21033648 29 17418383484730298381
21033650 10 16734638992852380744
21267235 1 18410568526580756102
22393880 68 17703517708704308663
23559900 14 18343300327651491400
3004659 81 18202285831032874762
3411729 13 16299248790870274152
34797466 226 15430312478027219080
34934 24 18263927648732068884
4340502 62 17561363946414548659
46194498 28 17632574946226159463
465052 167 18342166753223971483
474 4 18269269071919796284
5104073 3 18272652393800007553
5283173 99 16845302687116087613
7495541 125 17846778490530568335
9849439 229 15796480881911641873
9981440 41 17400649220698999072

> <PUBCHEM_SHAPE_MULTIPOLES>
556.61
11.8
1.99
1.54
11.52
0.09
-0.14
1.71
-0.88
-2.07
-0.02
0.52
-0.1
-0.58

> <PUBCHEM_SHAPE_SELFOVERLAP>
1251.845

> <PUBCHEM_SHAPE_VOLUME>
289.6

> <PUBCHEM_COORDINATE_TYPE>
2
5
10

$$$$

