10461942
  -OEChem-07051213153D

 90 91  0     1  0  0  0  0  0999 V2000
   -9.3929   -0.1561   -0.0352 O   0  0  0  0  0  0  0  0  0  0  0  0
   -4.5783    1.2429   -0.0290 O   0  0  0  0  0  0  0  0  0  0  0  0
   -7.0754    0.0970    0.0593 O   0  0  0  0  0  0  0  0  0  0  0  0
   -6.5964    4.2744   -0.4170 O   0  0  0  0  0  0  0  0  0  0  0  0
   -6.7703   -2.6023   -0.7336 O   0  0  0  0  0  0  0  0  0  0  0  0
   -3.8911    5.2176   -0.8008 O   0  0  0  0  0  0  0  0  0  0  0  0
   -9.0798   -4.2499    0.0616 O   0  0  0  0  0  0  0  0  0  0  0  0
  -11.5477   -3.0169   -0.8012 O   0  0  0  0  0  0  0  0  0  0  0  0
   -2.0162    3.6849    0.8776 O   0  0  0  0  0  0  0  0  0  0  0  0
   -2.3453    0.8934    0.5503 O   0  0  0  0  0  0  0  0  0  0  0  0
  -11.7325    1.2017   -0.5242 O   0  0  0  0  0  0  0  0  0  0  0  0
   -3.5579   -0.7918    1.5717 O   0  0  0  0  0  0  0  0  0  0  0  0
   16.8891   -0.2471   -0.0425 O   0  0  0  0  0  0  0  0  0  0  0  0
   15.8062   -1.7343   -1.3875 O   0  0  0  0  0  0  0  0  0  0  0  0
   -5.7355    2.0748    0.0696 C   0  0  1  0  0  0  0  0  0  0  0  0
   -5.4651    3.4263   -0.5961 C   0  0  2  0  0  0  0  0  0  0  0  0
   -7.9621   -2.1166   -0.1163 C   0  0  2  0  0  0  0  0  0  0  0  0
   -4.2316    4.0936    0.0123 C   0  0  1  0  0  0  0  0  0  0  0  0
   -9.1495   -2.9683   -0.5654 C   0  0  2  0  0  0  0  0  0  0  0  0
   -8.1456   -0.6525   -0.5153 C   0  0  1  0  0  0  0  0  0  0  0  0
  -10.4765   -2.3202   -0.1701 C   0  0  1  0  0  0  0  0  0  0  0  0
  -10.5101   -0.8498   -0.5936 C   0  0  1  0  0  0  0  0  0  0  0  0
   -3.0487    3.1267    0.0652 C   0  0  2  0  0  0  0  0  0  0  0  0
   -6.8909    1.3370   -0.5991 C   0  0  0  0  0  0  0  0  0  0  0  0
   -3.4564    1.7816    0.6665 C   0  0  1  0  0  0  0  0  0  0  0  0
  -11.7756   -0.1507   -0.1069 C   0  0  0  0  0  0  0  0  0  0  0  0
   -2.5444   -0.3569    1.0461 C   0  0  0  0  0  0  0  0  0  0  0  0
   -1.3410   -1.1829    0.7852 C   0  0  0  0  0  0  0  0  0  0  0  0
   -1.6082   -2.6402    0.5609 C   0  0  0  0  0  0  0  0  0  0  0  0
   -0.1025   -0.6578    0.7784 C   0  0  0  0  0  0  0  0  0  0  0  0
    1.1452   -1.3578    0.5377 C   0  0  0  0  0  0  0  0  0  0  0  0
    2.3389   -0.7403    0.5522 C   0  0  0  0  0  0  0  0  0  0  0  0
    3.6489   -1.3578    0.3163 C   0  0  0  0  0  0  0  0  0  0  0  0
    3.6721   -2.8383    0.0285 C   0  0  0  0  0  0  0  0  0  0  0  0
    4.7453   -0.5709    0.3725 C   0  0  0  0  0  0  0  0  0  0  0  0
    6.1278   -0.9603    0.1732 C   0  0  0  0  0  0  0  0  0  0  0  0
    7.1470   -0.0881    0.2529 C   0  0  0  0  0  0  0  0  0  0  0  0
    8.5292   -0.4779    0.0521 C   0  0  0  0  0  0  0  0  0  0  0  0
    9.6262    0.3081    0.1079 C   0  0  0  0  0  0  0  0  0  0  0  0
    9.6050    1.7872    0.4033 C   0  0  0  0  0  0  0  0  0  0  0  0
   10.9353   -0.3098   -0.1326 C   0  0  0  0  0  0  0  0  0  0  0  0
   12.1304    0.3056   -0.1194 C   0  0  0  0  0  0  0  0  0  0  0  0
   13.3735   -0.3958   -0.3786 C   0  0  0  0  0  0  0  0  0  0  0  0
   14.6205    0.1100   -0.3925 C   0  0  0  0  0  0  0  0  0  0  0  0
   14.8855    1.5713   -0.1676 C   0  0  0  0  0  0  0  0  0  0  0  0
   15.8011   -0.7425   -0.6768 C   0  0  0  0  0  0  0  0  0  0  0  0
   -5.9838    2.2014    1.1323 H   0  0  0  0  0  0  0  0  0  0  0  0
   -5.3199    3.2986   -1.6757 H   0  0  0  0  0  0  0  0  0  0  0  0
   -7.8149   -2.2032    0.9668 H   0  0  0  0  0  0  0  0  0  0  0  0
   -4.4552    4.4940    1.0081 H   0  0  0  0  0  0  0  0  0  0  0  0
   -9.1119   -3.1545   -1.6452 H   0  0  0  0  0  0  0  0  0  0  0  0
   -8.1046   -0.5583   -1.6096 H   0  0  0  0  0  0  0  0  0  0  0  0
  -10.6218   -2.4093    0.9135 H   0  0  0  0  0  0  0  0  0  0  0  0
  -10.4690   -0.7533   -1.6872 H   0  0  0  0  0  0  0  0  0  0  0  0
   -2.6223    2.9859   -0.9351 H   0  0  0  0  0  0  0  0  0  0  0  0
   -6.6473    1.1471   -1.6517 H   0  0  0  0  0  0  0  0  0  0  0  0
   -7.8113    1.9289   -0.5443 H   0  0  0  0  0  0  0  0  0  0  0  0
   -3.6922    1.8924    1.7340 H   0  0  0  0  0  0  0  0  0  0  0  0
  -12.6758   -0.6170   -0.5186 H   0  0  0  0  0  0  0  0  0  0  0  0
  -11.8304   -0.1604    0.9868 H   0  0  0  0  0  0  0  0  0  0  0  0
   -6.7424    4.3827    0.5384 H   0  0  0  0  0  0  0  0  0  0  0  0
   -6.8798   -2.5329   -1.6974 H   0  0  0  0  0  0  0  0  0  0  0  0
   -3.6695    4.8918   -1.6899 H   0  0  0  0  0  0  0  0  0  0  0  0
   -9.0932   -4.1166    1.0247 H   0  0  0  0  0  0  0  0  0  0  0  0
  -11.4356   -2.9322   -1.7634 H   0  0  0  0  0  0  0  0  0  0  0  0
   -2.3745    3.8173    1.7719 H   0  0  0  0  0  0  0  0  0  0  0  0
  -12.5443    1.6280   -0.2006 H   0  0  0  0  0  0  0  0  0  0  0  0
   -0.8996   -3.1032   -0.1316 H   0  0  0  0  0  0  0  0  0  0  0  0
   -2.5981   -2.7914    0.1148 H   0  0  0  0  0  0  0  0  0  0  0  0
   -1.5809   -3.1827    1.5113 H   0  0  0  0  0  0  0  0  0  0  0  0
    0.0122    0.4073    0.9771 H   0  0  0  0  0  0  0  0  0  0  0  0
    1.0895   -2.4236    0.3485 H   0  0  0  0  0  0  0  0  0  0  0  0
    2.3566    0.3312    0.7523 H   0  0  0  0  0  0  0  0  0  0  0  0
    4.6735   -3.2400   -0.1388 H   0  0  0  0  0  0  0  0  0  0  0  0
    3.0916   -3.0629   -0.8735 H   0  0  0  0  0  0  0  0  0  0  0  0
    3.2479   -3.3992    0.8689 H   0  0  0  0  0  0  0  0  0  0  0  0
    4.6099    0.4893    0.5903 H   0  0  0  0  0  0  0  0  0  0  0  0
    6.3419   -2.0000   -0.0499 H   0  0  0  0  0  0  0  0  0  0  0  0
    6.9331    0.9517    0.4757 H   0  0  0  0  0  0  0  0  0  0  0  0
    8.6636   -1.5375   -0.1693 H   0  0  0  0  0  0  0  0  0  0  0  0
   10.0315    2.3517   -0.4335 H   0  0  0  0  0  0  0  0  0  0  0  0
   10.1843    2.0060    1.3074 H   0  0  0  0  0  0  0  0  0  0  0  0
    8.6039    2.1896    0.5709 H   0  0  0  0  0  0  0  0  0  0  0  0
   10.9142   -1.3778   -0.3507 H   0  0  0  0  0  0  0  0  0  0  0  0
   12.1895    1.3646    0.1022 H   0  0  0  0  0  0  0  0  0  0  0  0
   13.2629   -1.4635   -0.5694 H   0  0  0  0  0  0  0  0  0  0  0  0
   14.0494    2.2147   -0.4540 H   0  0  0  0  0  0  0  0  0  0  0  0
   15.7320    1.9111   -0.7758 H   0  0  0  0  0  0  0  0  0  0  0  0
   15.1247    1.7574    0.8845 H   0  0  0  0  0  0  0  0  0  0  0  0
   17.6915   -0.7842   -0.2154 H   0  0  0  0  0  0  0  0  0  0  0  0
  1 20  1  0  0  0  0
  1 22  1  0  0  0  0
  2 15  1  0  0  0  0
  2 25  1  0  0  0  0
  3 20  1  0  0  0  0
  3 24  1  0  0  0  0
  4 16  1  0  0  0  0
  4 61  1  0  0  0  0
  5 17  1  0  0  0  0
  5 62  1  0  0  0  0
  6 18  1  0  0  0  0
  6 63  1  0  0  0  0
  7 19  1  0  0  0  0
  7 64  1  0  0  0  0
  8 21  1  0  0  0  0
  8 65  1  0  0  0  0
  9 23  1  0  0  0  0
  9 66  1  0  0  0  0
 10 25  1  0  0  0  0
 10 27  1  0  0  0  0
 11 26  1  0  0  0  0
 11 67  1  0  0  0  0
 12 27  2  0  0  0  0
 13 46  1  0  0  0  0
 13 90  1  0  0  0  0
 14 46  2  0  0  0  0
 15 16  1  0  0  0  0
 15 24  1  0  0  0  0
 15 47  1  0  0  0  0
 16 18  1  0  0  0  0
 16 48  1  0  0  0  0
 17 19  1  0  0  0  0
 17 20  1  0  0  0  0
 17 49  1  0  0  0  0
 18 23  1  0  0  0  0
 18 50  1  0  0  0  0
 19 21  1  0  0  0  0
 19 51  1  0  0  0  0
 20 52  1  0  0  0  0
 21 22  1  0  0  0  0
 21 53  1  0  0  0  0
 22 26  1  0  0  0  0
 22 54  1  0  0  0  0
 23 25  1  0  0  0  0
 23 55  1  0  0  0  0
 24 56  1  0  0  0  0
 24 57  1  0  0  0  0
 25 58  1  0  0  0  0
 26 59  1  0  0  0  0
 26 60  1  0  0  0  0
 27 28  1  0  0  0  0
 28 29  1  0  0  0  0
 28 30  2  0  0  0  0
 29 68  1  0  0  0  0
 29 69  1  0  0  0  0
 29 70  1  0  0  0  0
 30 31  1  0  0  0  0
 30 71  1  0  0  0  0
 31 32  2  0  0  0  0
 31 72  1  0  0  0  0
 32 33  1  0  0  0  0
 32 73  1  0  0  0  0
 33 34  1  0  0  0  0
 33 35  2  0  0  0  0
 34 74  1  0  0  0  0
 34 75  1  0  0  0  0
 34 76  1  0  0  0  0
 35 36  1  0  0  0  0
 35 77  1  0  0  0  0
 36 37  2  0  0  0  0
 36 78  1  0  0  0  0
 37 38  1  0  0  0  0
 37 79  1  0  0  0  0
 38 39  2  0  0  0  0
 38 80  1  0  0  0  0
 39 40  1  0  0  0  0
 39 41  1  0  0  0  0
 40 81  1  0  0  0  0
 40 82  1  0  0  0  0
 40 83  1  0  0  0  0
 41 42  2  0  0  0  0
 41 84  1  0  0  0  0
 42 43  1  0  0  0  0
 42 85  1  0  0  0  0
 43 44  2  0  0  0  0
 43 86  1  0  0  0  0
 44 45  1  0  0  0  0
 44 46  1  0  0  0  0
 45 87  1  0  0  0  0
 45 88  1  0  0  0  0
 45 89  1  0  0  0  0
M  END
> <PUBCHEM_COMPOUND_CID>
10461942

> <PUBCHEM_CONFORMER_RMSD>
1.4

> <PUBCHEM_CONFORMER_DIVERSEORDER>
1
19
39
48
50
28
45
47
56
37
32
21
12
22
70
33
55
29
46
54
18
59
23
9
53
7
51
69
52
40
35
62
6
43
61
20
58
24
49
66
65
17
3
63
38
25
11
42
67
36
68
13
30
64
31
15
60
16
2
41
4
26
34
27
5
8
57
44
10
14
71

> <PUBCHEM_MMFF94_PARTIAL_CHARGES>
64
1 -0.56
10 -0.43
11 -0.68
12 -0.57
13 -0.65
14 -0.57
15 0.28
16 0.28
17 0.28
18 0.28
19 0.28
2 -0.56
20 0.56
21 0.28
22 0.28
23 0.28
24 0.28
25 0.56
26 0.28
27 0.71
28 -0.12
29 0.14
3 -0.56
30 -0.15
31 -0.15
32 -0.15
33 -0.14
34 0.14
35 -0.15
36 -0.15
37 -0.15
38 -0.15
39 -0.14
4 -0.68
40 0.14
41 -0.15
42 -0.15
43 -0.15
44 -0.12
45 0.14
46 0.71
5 -0.68
6 -0.68
61 0.4
62 0.4
63 0.4
64 0.4
65 0.4
66 0.4
67 0.4
7 -0.68
71 0.15
72 0.15
73 0.15
77 0.15
78 0.15
79 0.15
8 -0.68
80 0.15
84 0.15
85 0.15
86 0.15
9 -0.68
90 0.5

> <PUBCHEM_EFFECTIVE_ROTOR_COUNT>
16.4

> <PUBCHEM_PHARMACOPHORE_FEATURES>
27
1 1 acceptor
1 11 acceptor
1 11 donor
1 12 acceptor
1 13 acceptor
1 14 acceptor
1 2 acceptor
1 29 hydrophobe
1 3 acceptor
1 34 hydrophobe
1 4 acceptor
1 4 donor
1 40 hydrophobe
1 45 hydrophobe
1 5 acceptor
1 5 donor
1 6 acceptor
1 6 donor
1 7 acceptor
1 7 donor
1 8 acceptor
1 8 donor
1 9 acceptor
1 9 donor
3 13 14 46 anion
6 1 17 19 20 21 22 rings
6 2 15 16 18 23 25 rings

> <PUBCHEM_HEAVY_ATOM_COUNT>
46

> <PUBCHEM_ATOM_DEF_STEREO_COUNT>
10

> <PUBCHEM_ATOM_UDEF_STEREO_COUNT>
0

> <PUBCHEM_BOND_DEF_STEREO_COUNT>
7

> <PUBCHEM_BOND_UDEF_STEREO_COUNT>
0

> <PUBCHEM_ISOTOPIC_ATOM_COUNT>
0

> <PUBCHEM_COMPONENT_COUNT>
1

> <PUBCHEM_CACTVS_TAUTO_COUNT>
1

> <PUBCHEM_CONFORMER_ID>
009FA2F600000001

> <PUBCHEM_MMFF94_ENERGY>
116.5484

> <PUBCHEM_FEATURE_SELFOVERLAP>
137.145

> <PUBCHEM_SHAPE_FINGERPRINT>
10580692 12 18410853279598370778
12013929 94 18408322199030380476
131240 100 18187368701535048736
15152005 290 18411699886198140426
15274700 256 18411139117011815878
16992752 21 18411984672741998017
20580484 106 9583519815513019343
44280117 145 18409731785996086553
6673363 416 18408887351674433273

> <PUBCHEM_SHAPE_MULTIPOLES>
864.49
74.41
4.6
0.88
276.56
4.46
0.05
-20.9
-23.1
-17.07
-0.65
-0.01
-0.08
0.34

> <PUBCHEM_SHAPE_SELFOVERLAP>
1761.417

> <PUBCHEM_SHAPE_VOLUME>
493.6

> <PUBCHEM_COORDINATE_TYPE>
2
5
10

$$$$

