91671
  -OEChem-07051213082D

 21 21  0     0  0  0  0  0  0999 V2000
    6.0010   -2.1550    0.0000 O   0  5  0  0  0  0  0  0  0  0  0  0
    6.8671   -0.6550    0.0000 O   0  0  0  0  0  0  0  0  0  0  0  0
    4.2690    1.8450    0.0000 N   0  0  0  0  0  0  0  0  0  0  0  0
    2.5369   -1.1550    0.0000 N   0  0  0  0  0  0  0  0  0  0  0  0
    6.0010   -1.1550    0.0000 N   0  3  0  0  0  0  0  0  0  0  0  0
    3.4030    0.3450    0.0000 C   0  0  0  0  0  0  0  0  0  0  0  0
    4.2690    0.8450    0.0000 C   0  0  0  0  0  0  0  0  0  0  0  0
    3.4030   -0.6550    0.0000 C   0  0  0  0  0  0  0  0  0  0  0  0
    5.1350   -0.6550    0.0000 C   0  0  0  0  0  0  0  0  0  0  0  0
    5.1350    0.3450    0.0000 C   0  0  0  0  0  0  0  0  0  0  0  0
    4.2690   -1.1550    0.0000 C   0  0  0  0  0  0  0  0  0  0  0  0
    2.5369    0.8450    0.0000 C   0  0  0  0  0  0  0  0  0  0  0  0
    5.6720    0.6550    0.0000 H   0  0  0  0  0  0  0  0  0  0  0  0
    4.2690   -1.7750    0.0000 H   0  0  0  0  0  0  0  0  0  0  0  0
    2.8469    1.3819    0.0000 H   0  0  0  0  0  0  0  0  0  0  0  0
    2.0000    1.1550    0.0000 H   0  0  0  0  0  0  0  0  0  0  0  0
    2.2269    0.3081    0.0000 H   0  0  0  0  0  0  0  0  0  0  0  0
    4.8059    2.1550    0.0000 H   0  0  0  0  0  0  0  0  0  0  0  0
    3.7320    2.1550    0.0000 H   0  0  0  0  0  0  0  0  0  0  0  0
    2.5369   -1.7750    0.0000 H   0  0  0  0  0  0  0  0  0  0  0  0
    2.0000   -0.8450    0.0000 H   0  0  0  0  0  0  0  0  0  0  0  0
  1  5  1  0  0  0  0
  2  5  2  0  0  0  0
  3  7  1  0  0  0  0
  3 18  1  0  0  0  0
  3 19  1  0  0  0  0
  4  8  1  0  0  0  0
  4 20  1  0  0  0  0
  4 21  1  0  0  0  0
  5  9  1  0  0  0  0
  6  7  2  0  0  0  0
  6  8  1  0  0  0  0
  6 12  1  0  0  0  0
  7 10  1  0  0  0  0
  8 11  2  0  0  0  0
  9 10  2  0  0  0  0
  9 11  1  0  0  0  0
 10 13  1  0  0  0  0
 11 14  1  0  0  0  0
 12 15  1  0  0  0  0
 12 16  1  0  0  0  0
 12 17  1  0  0  0  0
M  CHG  2   1  -1   5   1
M  END
> <PUBCHEM_COMPOUND_CID>
91671

> <PUBCHEM_COMPOUND_CANONICALIZED>
1

> <PUBCHEM_CACTVS_COMPLEXITY>
168

> <PUBCHEM_CACTVS_HBOND_ACCEPTOR>
4

> <PUBCHEM_CACTVS_HBOND_DONOR>
2

> <PUBCHEM_CACTVS_ROTATABLE_BOND>
0

> <PUBCHEM_CACTVS_SUBSKEYS>
AAADccBjMAAAAAAAAAAAAAAAAAAAAAAAAAAwAAAAAAAAAAABAAAAHAAUAAAADAiBGAAywIBQQACBAiRCQwCCAAAgAgAgiAAAZIoIICKA0dGAIABgkAAIyAcQgAAOCAAAAAQCAAAQAAAACAQAAAAAAAAAAA==

> <PUBCHEM_IUPAC_OPENEYE_NAME>
2-methyl-5-nitro-benzene-1,3-diamine

> <PUBCHEM_IUPAC_CAS_NAME>
2-methyl-5-nitrobenzene-1,3-diamine

> <PUBCHEM_IUPAC_NAME>
2-methyl-5-nitrobenzene-1,3-diamine

> <PUBCHEM_IUPAC_SYSTEMATIC_NAME>
2-methyl-5-nitro-benzene-1,3-diamine

> <PUBCHEM_IUPAC_TRADITIONAL_NAME>
(3-amino-2-methyl-5-nitro-phenyl)amine

> <PUBCHEM_IUPAC_INCHI>
InChI=1S/C7H9N3O2/c1-4-6(8)2-5(10(11)12)3-7(4)9/h2-3H,8-9H2,1H3

> <PUBCHEM_IUPAC_INCHIKEY>
SPOWAUDUGZVURQ-UHFFFAOYSA-N

> <PUBCHEM_XLOGP3_AA>
0.8

> <PUBCHEM_EXACT_MASS>
167.069477

> <PUBCHEM_MOLECULAR_FORMULA>
C7H9N3O2

> <PUBCHEM_MOLECULAR_WEIGHT>
167.16526

> <PUBCHEM_OPENEYE_CAN_SMILES>
CC1=C(C=C(C=C1N)[N+](=O)[O-])N

> <PUBCHEM_OPENEYE_ISO_SMILES>
CC1=C(C=C(C=C1N)[N+](=O)[O-])N

> <PUBCHEM_CACTVS_TPSA>
97.9

> <PUBCHEM_MONOISOTOPIC_WEIGHT>
167.069477

> <PUBCHEM_TOTAL_CHARGE>
0

> <PUBCHEM_HEAVY_ATOM_COUNT>
12

> <PUBCHEM_ATOM_DEF_STEREO_COUNT>
0

> <PUBCHEM_ATOM_UDEF_STEREO_COUNT>
0

> <PUBCHEM_BOND_DEF_STEREO_COUNT>
0

> <PUBCHEM_BOND_UDEF_STEREO_COUNT>
0

> <PUBCHEM_ISOTOPIC_ATOM_COUNT>
0

> <PUBCHEM_COMPONENT_COUNT>
1

> <PUBCHEM_CACTVS_TAUTO_COUNT>
1

> <PUBCHEM_COORDINATE_TYPE>
1
5
255

> <PUBCHEM_BONDANNOTATIONS>
6  7  8
6  8  8
7  10  8
8  11  8
9  10  8
9  11  8

$$$$

