46173848
  -OEChem-07051213093D

 60 64  0     1  0  0  0  0  0999 V2000
    4.8891    1.5077    0.0934 O   0  0  0  0  0  0  0  0  0  0  0  0
    6.8638    1.2700   -1.0072 O   0  0  0  0  0  0  0  0  0  0  0  0
   -1.0258    0.6100   -0.2700 C   0  0  2  0  0  0  0  0  0  0  0  0
   -2.0123   -0.5102    0.1629 C   0  0  1  0  0  0  0  0  0  0  0  0
    0.4112    0.3890    0.2556 C   0  0  2  0  0  0  0  0  0  0  0  0
    0.9777   -1.0200   -0.0281 C   0  0  2  0  0  0  0  0  0  0  0  0
   -3.4757   -0.2557   -0.3682 C   0  0  2  0  0  0  0  0  0  0  0  0
   -3.9121    1.1650    0.1123 C   0  0  1  0  0  0  0  0  0  0  0  0
   -1.4417   -1.8916   -0.2121 C   0  0  0  0  0  0  0  0  0  0  0  0
   -0.0468   -2.1132    0.3745 C   0  0  0  0  0  0  0  0  0  0  0  0
    2.2127   -1.0801    0.9192 C   0  0  2  0  0  0  0  0  0  0  0  0
   -1.5433    2.0082    0.1058 C   0  0  0  0  0  0  0  0  0  0  0  0
    0.6005    0.5741    1.7720 C   0  0  0  0  0  0  0  0  0  0  0  0
   -2.9654    2.2613   -0.3862 C   0  0  0  0  0  0  0  0  0  0  0  0
    1.7390   -0.3621    2.1925 C   0  0  0  0  0  0  0  0  0  0  0  0
   -4.4653   -1.2846    0.2512 C   0  0  0  0  0  0  0  0  0  0  0  0
   -5.3736    1.4920   -0.2248 C   0  0  0  0  0  0  0  0  0  0  0  0
    1.3563   -1.2012   -1.5099 C   0  0  0  0  0  0  0  0  0  0  0  0
   -3.5356   -0.3907   -1.9121 C   0  0  0  0  0  0  0  0  0  0  0  0
   -5.9365   -0.9725   -0.0376 C   0  0  0  0  0  0  0  0  0  0  0  0
   -6.3184    0.4472    0.3626 C   0  0  0  0  0  0  0  0  0  0  0  0
    3.4595   -0.4141    0.4106 C   0  0  0  0  0  0  0  0  0  0  0  0
    4.4305   -1.2145   -0.2889 C   0  0  0  0  0  0  0  0  0  0  0  0
    3.7252    0.8866    0.5683 C   0  0  0  0  0  0  0  0  0  0  0  0
    5.5565   -0.6705   -0.7610 C   0  0  0  0  0  0  0  0  0  0  0  0
    5.8305    0.7698   -0.5749 C   0  0  0  0  0  0  0  0  0  0  0  0
   -0.9520    0.5852   -1.3649 H   0  0  0  0  0  0  0  0  0  0  0  0
   -2.0752   -0.4867    1.2603 H   0  0  0  0  0  0  0  0  0  0  0  0
    1.0439    1.1351   -0.2454 H   0  0  0  0  0  0  0  0  0  0  0  0
   -3.8462    1.1726    1.2118 H   0  0  0  0  0  0  0  0  0  0  0  0
   -1.4020   -2.0149   -1.2986 H   0  0  0  0  0  0  0  0  0  0  0  0
   -2.0925   -2.6863    0.1675 H   0  0  0  0  0  0  0  0  0  0  0  0
   -0.1498   -2.1708    1.4649 H   0  0  0  0  0  0  0  0  0  0  0  0
    0.3220   -3.0984    0.0612 H   0  0  0  0  0  0  0  0  0  0  0  0
    2.4529   -2.1204    1.1781 H   0  0  0  0  0  0  0  0  0  0  0  0
   -1.5277    2.1376    1.1947 H   0  0  0  0  0  0  0  0  0  0  0  0
   -0.8780    2.7744   -0.3101 H   0  0  0  0  0  0  0  0  0  0  0  0
    0.8447    1.6164    2.0054 H   0  0  0  0  0  0  0  0  0  0  0  0
   -0.3012    0.3263    2.3411 H   0  0  0  0  0  0  0  0  0  0  0  0
   -2.9806    2.3266   -1.4798 H   0  0  0  0  0  0  0  0  0  0  0  0
   -3.2968    3.2382   -0.0131 H   0  0  0  0  0  0  0  0  0  0  0  0
    1.3309   -1.1057    2.8903 H   0  0  0  0  0  0  0  0  0  0  0  0
    2.5180    0.1561    2.7623 H   0  0  0  0  0  0  0  0  0  0  0  0
   -4.2544   -2.2951   -0.1175 H   0  0  0  0  0  0  0  0  0  0  0  0
   -4.3252   -1.3152    1.3398 H   0  0  0  0  0  0  0  0  0  0  0  0
   -5.5200    1.5640   -1.3082 H   0  0  0  0  0  0  0  0  0  0  0  0
   -5.6377    2.4743    0.1859 H   0  0  0  0  0  0  0  0  0  0  0  0
    1.8588   -2.1611   -1.6716 H   0  0  0  0  0  0  0  0  0  0  0  0
    0.4774   -1.1803   -2.1614 H   0  0  0  0  0  0  0  0  0  0  0  0
    2.0168   -0.4045   -1.8675 H   0  0  0  0  0  0  0  0  0  0  0  0
   -2.8036    0.2422   -2.4196 H   0  0  0  0  0  0  0  0  0  0  0  0
   -4.5144   -0.1201   -2.3175 H   0  0  0  0  0  0  0  0  0  0  0  0
   -3.3481   -1.4228   -2.2269 H   0  0  0  0  0  0  0  0  0  0  0  0
   -6.5695   -1.6842    0.5055 H   0  0  0  0  0  0  0  0  0  0  0  0
   -6.1502   -1.1238   -1.1018 H   0  0  0  0  0  0  0  0  0  0  0  0
   -7.3456    0.6576    0.0440 H   0  0  0  0  0  0  0  0  0  0  0  0
   -6.3057    0.5266    1.4570 H   0  0  0  0  0  0  0  0  0  0  0  0
    4.2389   -2.2728   -0.4304 H   0  0  0  0  0  0  0  0  0  0  0  0
    3.1128    1.6309    1.0543 H   0  0  0  0  0  0  0  0  0  0  0  0
    6.2923   -1.2663   -1.2885 H   0  0  0  0  0  0  0  0  0  0  0  0
  1 24  1  0  0  0  0
  1 26  1  0  0  0  0
  2 26  2  0  0  0  0
  3  4  1  0  0  0  0
  3  5  1  0  0  0  0
  3 12  1  0  0  0  0
  3 27  1  0  0  0  0
  4  7  1  0  0  0  0
  4  9  1  0  0  0  0
  4 28  1  0  0  0  0
  5  6  1  0  0  0  0
  5 13  1  0  0  0  0
  5 29  1  0  0  0  0
  6 10  1  0  0  0  0
  6 11  1  0  0  0  0
  6 18  1  0  0  0  0
  7  8  1  0  0  0  0
  7 16  1  0  0  0  0
  7 19  1  0  0  0  0
  8 14  1  0  0  0  0
  8 17  1  0  0  0  0
  8 30  1  0  0  0  0
  9 10  1  0  0  0  0
  9 31  1  0  0  0  0
  9 32  1  0  0  0  0
 10 33  1  0  0  0  0
 10 34  1  0  0  0  0
 11 15  1  0  0  0  0
 11 22  1  0  0  0  0
 11 35  1  0  0  0  0
 12 14  1  0  0  0  0
 12 36  1  0  0  0  0
 12 37  1  0  0  0  0
 13 15  1  0  0  0  0
 13 38  1  0  0  0  0
 13 39  1  0  0  0  0
 14 40  1  0  0  0  0
 14 41  1  0  0  0  0
 15 42  1  0  0  0  0
 15 43  1  0  0  0  0
 16 20  1  0  0  0  0
 16 44  1  0  0  0  0
 16 45  1  0  0  0  0
 17 21  1  0  0  0  0
 17 46  1  0  0  0  0
 17 47  1  0  0  0  0
 18 48  1  0  0  0  0
 18 49  1  0  0  0  0
 18 50  1  0  0  0  0
 19 51  1  0  0  0  0
 19 52  1  0  0  0  0
 19 53  1  0  0  0  0
 20 21  1  0  0  0  0
 20 54  1  0  0  0  0
 20 55  1  0  0  0  0
 21 56  1  0  0  0  0
 21 57  1  0  0  0  0
 22 23  1  0  0  0  0
 22 24  2  0  0  0  0
 23 25  2  0  0  0  0
 23 58  1  0  0  0  0
 24 59  1  0  0  0  0
 25 26  1  0  0  0  0
 25 60  1  0  0  0  0
M  END
> <PUBCHEM_COMPOUND_CID>
46173848

> <PUBCHEM_CONFORMER_RMSD>
0.6

> <PUBCHEM_CONFORMER_DIVERSEORDER>
1
6
5
4
3
2

> <PUBCHEM_MMFF94_PARTIAL_CHARGES>
11
1 -0.23
11 0.14
2 -0.57
22 -0.14
23 -0.15
24 -0.07
25 -0.14
26 0.71
58 0.15
59 0.15
60 0.15

> <PUBCHEM_EFFECTIVE_ROTOR_COUNT>
3.2

> <PUBCHEM_PHARMACOPHORE_FEATURES>
6
1 2 acceptor
5 5 6 11 13 15 rings
6 1 22 23 24 25 26 rings
6 3 4 5 6 9 10 rings
6 3 4 7 8 12 14 rings
6 7 8 16 17 20 21 rings

> <PUBCHEM_HEAVY_ATOM_COUNT>
26

> <PUBCHEM_ATOM_DEF_STEREO_COUNT>
6

> <PUBCHEM_ATOM_UDEF_STEREO_COUNT>
1

> <PUBCHEM_BOND_DEF_STEREO_COUNT>
0

> <PUBCHEM_BOND_UDEF_STEREO_COUNT>
0

> <PUBCHEM_ISOTOPIC_ATOM_COUNT>
0

> <PUBCHEM_COMPONENT_COUNT>
1

> <PUBCHEM_CACTVS_TAUTO_COUNT>
1

> <PUBCHEM_CONFORMER_ID>
02C08E9800000001

> <PUBCHEM_MMFF94_ENERGY>
91.0589

> <PUBCHEM_FEATURE_SELFOVERLAP>
30.646

> <PUBCHEM_SHAPE_FINGERPRINT>
10366900 7 18115040675023577275
10595046 47 18342739645694022858
106641 1 13973678395934483636
10670039 82 18341615949295781492
10759866 29 18270687591958555650
11488393 25 17460299182320483967
11578080 2 14130714056891650321
11796584 16 5978098046648396573
12011746 2 17675924296105522099
12166972 35 17489302001580115780
12236239 1 17775568666891131147
12390115 104 18187919646918084753
12403259 415 18040444286445113337
12467345 10 18343862199800529028
12596602 18 17489591186028228361
12788726 201 17895755226340565025
12916748 109 18413670218896737570
13224815 77 18339932601367277147
13533116 47 17274829116151364402
13631057 29 17131263538018933027
13726171 33 18341048644029809649
13782708 43 15213879099257716591
13911987 19 17022893515985080628
13914758 101 6122506770665143985
14341114 328 17917717919750100209
14528608 73 18342740719414845184
14790565 3 18409445899481308121
14840074 17 17988923379360165757
14933364 13 18409726261691730141
15142383 8 14418128560469816082
15183329 4 16443060603772731942
15196674 1 18410577309767400675
15575132 122 18130511928528529021
15788980 27 17676491652553009887
15961568 22 18343861130306589644
17349148 13 11671777200156763715
17980427 23 17775277283846862437
1813 80 4678819450336686384
18335252 98 18341604893511930458
18681886 176 18411422769584535289
19377110 9 17632307790834119176
19489759 90 6771868472305387899
20511986 3 17346610698510863863
21033648 29 18261683583816685690
21267235 1 18336826404184438027
21641784 216 17604131710467474336
21792961 116 18040985264316616758
22079108 93 16559028281598445778
221357 26 18186523206709894216
22224240 67 15123790652305447200
23352939 185 18187358818520291360
23402539 116 18409452491970829247
23522609 53 18042101254911371545
23559900 14 18187371995247658208
23569943 247 4750055640152951548
2838139 119 18272093790707001836
3004659 81 18336263548636109066
34797466 226 18260540117947438780
350125 39 18410011044163030561
4098825 35 18335696200361565126
4258327 124 16414051016625167854
4325135 7 18272931617944614917
4340502 62 15913328004675367898
4461854 278 18116419346868947887
474 4 17346312670762057428
5104073 3 18338804514736545283
5265222 85 18114740417928216542
53794403 172 17986104111762984084
542803 24 18408608071594127115
5486654 2 18341613694231995291

> <PUBCHEM_SHAPE_MULTIPOLES>
523.33
14.54
1.98
1.31
4.81
0.24
0.2
3.48
-3.26
-0.65
-0.13
0.57
-0.13
-0.13

> <PUBCHEM_SHAPE_SELFOVERLAP>
1128.34

> <PUBCHEM_SHAPE_VOLUME>
284.4

> <PUBCHEM_COORDINATE_TYPE>
2
5
10

$$$$

