11954019
  -OEChem-07051213042D

121123  0     1  0  0  0  0  0999 V2000
    9.7942    2.8100    0.0000 O   0  0  0  0  0  0  0  0  0  0  0  0
    8.0622    0.8100    0.0000 O   0  0  0  0  0  0  0  0  0  0  0  0
    6.3301    0.8100    0.0000 O   0  0  0  0  0  0  0  0  0  0  0  0
   10.6603    1.3100    0.0000 O   0  0  0  0  0  0  0  0  0  0  0  0
    6.3301    2.8100    0.0000 O   0  0  0  0  0  0  0  0  0  0  0  0
   13.3923    2.3100    0.0000 O   0  0  0  0  0  0  0  0  0  0  0  0
   13.2583    0.8100    0.0000 O   0  0  0  0  0  0  0  0  0  0  0  0
    5.4641   -1.6900    0.0000 O   0  0  0  0  0  0  0  0  0  0  0  0
    4.5981    0.8100    0.0000 O   0  0  0  0  0  0  0  0  0  0  0  0
    8.9282   -3.6900    0.0000 O   0  0  0  0  0  0  0  0  0  0  0  0
    9.7942   -0.1900    0.0000 O   0  0  0  0  0  0  0  0  0  0  0  0
    2.8660   -2.1900    0.0000 O   0  0  0  0  0  0  0  0  0  0  0  0
   12.3923   -0.6900    0.0000 O   0  0  0  0  0  0  0  0  0  0  0  0
    4.7320   -1.6900    0.0000 O   0  0  0  0  0  0  0  0  0  0  0  0
    2.8660    0.8100    0.0000 O   0  0  0  0  0  0  0  0  0  0  0  0
    8.0622    3.8100    0.0000 N   0  0  0  0  0  0  0  0  0  0  0  0
    8.0622    2.8100    0.0000 C   0  0  1  0  0  0  0  0  0  0  0  0
    8.9282    2.3100    0.0000 C   0  0  1  0  0  0  0  0  0  0  0  0
    7.1962    2.3100    0.0000 C   0  0  2  0  0  0  0  0  0  0  0  0
    8.9282    1.3100    0.0000 C   0  0  1  0  0  0  0  0  0  0  0  0
    7.1962    1.3100    0.0000 C   0  0  1  0  0  0  0  0  0  0  0  0
    6.3301   -0.1900    0.0000 C   0  0  1  0  0  0  0  0  0  0  0  0
   12.3923    2.3100    0.0000 C   0  0  2  0  0  0  0  0  0  0  0  0
    7.1962   -0.6900    0.0000 C   0  0  2  0  0  0  0  0  0  0  0  0
   10.6603    2.3100    0.0000 C   0  0  2  0  0  0  0  0  0  0  0  0
   11.5263    2.8100    0.0000 C   0  0  0  0  0  0  0  0  0  0  0  0
   12.3923    1.3100    0.0000 C   0  0  2  0  0  0  0  0  0  0  0  0
    5.4641   -0.6900    0.0000 C   0  0  2  0  0  0  0  0  0  0  0  0
   11.5263    0.8100    0.0000 C   0  0  2  0  0  0  0  0  0  0  0  0
    7.1962   -1.6900    0.0000 C   0  0  0  0  0  0  0  0  0  0  0  0
    9.7942    0.8100    0.0000 C   0  0  0  0  0  0  0  0  0  0  0  0
    8.0622   -2.1900    0.0000 C   0  0  2  0  0  0  0  0  0  0  0  0
    8.0622   -0.1900    0.0000 C   0  0  0  0  0  0  0  0  0  0  0  0
    4.5981   -0.1900    0.0000 C   0  0  1  0  0  0  0  0  0  0  0  0
   12.8923    3.1760    0.0000 C   0  0  0  0  0  0  0  0  0  0  0  0
    8.9282    4.3100    0.0000 C   0  0  0  0  0  0  0  0  0  0  0  0
    7.1962    4.3100    0.0000 C   0  0  0  0  0  0  0  0  0  0  0  0
   11.5263   -0.1900    0.0000 C   0  0  0  0  0  0  0  0  0  0  0  0
    8.0622   -3.1900    0.0000 C   0  0  2  0  0  0  0  0  0  0  0  0
    3.7320   -0.6900    0.0000 C   0  0  0  0  0  0  0  0  0  0  0  0
    9.0622   -2.1900    0.0000 C   0  0  0  0  0  0  0  0  0  0  0  0
    8.9282   -0.6900    0.0000 C   0  0  0  0  0  0  0  0  0  0  0  0
   13.2583   -0.1900    0.0000 C   0  0  0  0  0  0  0  0  0  0  0  0
    7.1962   -3.6900    0.0000 C   0  0  0  0  0  0  0  0  0  0  0  0
    6.4641   -1.6900    0.0000 C   0  0  0  0  0  0  0  0  0  0  0  0
    3.7320   -1.6900    0.0000 C   0  0  0  0  0  0  0  0  0  0  0  0
   14.1244   -0.6900    0.0000 C   0  0  0  0  0  0  0  0  0  0  0  0
    3.7320    1.3100    0.0000 C   0  0  0  0  0  0  0  0  0  0  0  0
    6.3301   -3.1900    0.0000 C   0  0  0  0  0  0  0  0  0  0  0  0
    2.8660   -3.1900    0.0000 C   0  0  1  0  0  0  0  0  0  0  0  0
   14.1244   -1.6900    0.0000 C   0  0  0  0  0  0  0  0  0  0  0  0
    3.7320    2.3100    0.0000 C   0  0  0  0  0  0  0  0  0  0  0  0
    3.7320   -3.6900    0.0000 C   0  0  0  0  0  0  0  0  0  0  0  0
    5.4641   -3.6900    0.0000 C   0  0  0  0  0  0  0  0  0  0  0  0
    4.5981   -3.1900    0.0000 C   0  0  0  0  0  0  0  0  0  0  0  0
    2.0000   -3.6900    0.0000 C   0  0  0  0  0  0  0  0  0  0  0  0
    7.5252    3.1200    0.0000 H   0  0  0  0  0  0  0  0  0  0  0  0
    9.4651    2.0000    0.0000 H   0  0  0  0  0  0  0  0  0  0  0  0
    6.6592    2.0000    0.0000 H   0  0  0  0  0  0  0  0  0  0  0  0
    8.9282    0.6900    0.0000 H   0  0  0  0  0  0  0  0  0  0  0  0
    6.6592    1.6200    0.0000 H   0  0  0  0  0  0  0  0  0  0  0  0
    6.8671    0.1200    0.0000 H   0  0  0  0  0  0  0  0  0  0  0  0
    7.7331   -1.0000    0.0000 H   0  0  0  0  0  0  0  0  0  0  0  0
   10.6603    2.9300    0.0000 H   0  0  0  0  0  0  0  0  0  0  0  0
   11.9248    3.2850    0.0000 H   0  0  0  0  0  0  0  0  0  0  0  0
   11.1278    3.2850    0.0000 H   0  0  0  0  0  0  0  0  0  0  0  0
   12.3923    0.6900    0.0000 H   0  0  0  0  0  0  0  0  0  0  0  0
    6.0010   -1.0000    0.0000 H   0  0  0  0  0  0  0  0  0  0  0  0
   10.9893    0.5000    0.0000 H   0  0  0  0  0  0  0  0  0  0  0  0
    6.5856   -1.5823    0.0000 H   0  0  0  0  0  0  0  0  0  0  0  0
    6.9841   -2.2726    0.0000 H   0  0  0  0  0  0  0  0  0  0  0  0
    9.4842    0.2731    0.0000 H   0  0  0  0  0  0  0  0  0  0  0  0
   10.3312    0.5000    0.0000 H   0  0  0  0  0  0  0  0  0  0  0  0
   10.1042    1.3469    0.0000 H   0  0  0  0  0  0  0  0  0  0  0  0
    8.2226   -1.5911    0.0000 H   0  0  0  0  0  0  0  0  0  0  0  0
    8.4607    0.2849    0.0000 H   0  0  0  0  0  0  0  0  0  0  0  0
    7.6636    0.2849    0.0000 H   0  0  0  0  0  0  0  0  0  0  0  0
    5.1350    0.1200    0.0000 H   0  0  0  0  0  0  0  0  0  0  0  0
   13.4292    2.8660    0.0000 H   0  0  0  0  0  0  0  0  0  0  0  0
   13.2023    3.7130    0.0000 H   0  0  0  0  0  0  0  0  0  0  0  0
   12.3554    3.4860    0.0000 H   0  0  0  0  0  0  0  0  0  0  0  0
    5.7932    2.5000    0.0000 H   0  0  0  0  0  0  0  0  0  0  0  0
    9.2382    3.7731    0.0000 H   0  0  0  0  0  0  0  0  0  0  0  0
    9.4651    4.6200    0.0000 H   0  0  0  0  0  0  0  0  0  0  0  0
    8.6182    4.8469    0.0000 H   0  0  0  0  0  0  0  0  0  0  0  0
    7.5062    4.8469    0.0000 H   0  0  0  0  0  0  0  0  0  0  0  0
    6.6592    4.6200    0.0000 H   0  0  0  0  0  0  0  0  0  0  0  0
    6.8862    3.7731    0.0000 H   0  0  0  0  0  0  0  0  0  0  0  0
   10.9063   -0.1900    0.0000 H   0  0  0  0  0  0  0  0  0  0  0  0
   11.5263   -0.8100    0.0000 H   0  0  0  0  0  0  0  0  0  0  0  0
   12.1463   -0.1900    0.0000 H   0  0  0  0  0  0  0  0  0  0  0  0
    8.0622   -3.8100    0.0000 H   0  0  0  0  0  0  0  0  0  0  0  0
   13.7023    2.8469    0.0000 H   0  0  0  0  0  0  0  0  0  0  0  0
    3.5200   -0.1074    0.0000 H   0  0  0  0  0  0  0  0  0  0  0  0
    3.1215   -0.7977    0.0000 H   0  0  0  0  0  0  0  0  0  0  0  0
    9.0622   -2.8100    0.0000 H   0  0  0  0  0  0  0  0  0  0  0  0
    9.6822   -2.1900    0.0000 H   0  0  0  0  0  0  0  0  0  0  0  0
    9.0622   -1.5700    0.0000 H   0  0  0  0  0  0  0  0  0  0  0  0
    9.2383   -1.2269    0.0000 H   0  0  0  0  0  0  0  0  0  0  0  0
    7.1962   -4.3100    0.0000 H   0  0  0  0  0  0  0  0  0  0  0  0
    6.4641   -2.3100    0.0000 H   0  0  0  0  0  0  0  0  0  0  0  0
    7.0841   -1.6900    0.0000 H   0  0  0  0  0  0  0  0  0  0  0  0
    6.4641   -1.0700    0.0000 H   0  0  0  0  0  0  0  0  0  0  0  0
    8.9282   -4.3100    0.0000 H   0  0  0  0  0  0  0  0  0  0  0  0
   14.7349   -0.7977    0.0000 H   0  0  0  0  0  0  0  0  0  0  0  0
   14.3364   -0.1074    0.0000 H   0  0  0  0  0  0  0  0  0  0  0  0
    6.6401   -2.6531    0.0000 H   0  0  0  0  0  0  0  0  0  0  0  0
    2.3291   -2.8800    0.0000 H   0  0  0  0  0  0  0  0  0  0  0  0
   13.5044   -1.6900    0.0000 H   0  0  0  0  0  0  0  0  0  0  0  0
   14.1244   -2.3100    0.0000 H   0  0  0  0  0  0  0  0  0  0  0  0
   14.7444   -1.6900    0.0000 H   0  0  0  0  0  0  0  0  0  0  0  0
    4.3520    2.3100    0.0000 H   0  0  0  0  0  0  0  0  0  0  0  0
    3.7320    2.9300    0.0000 H   0  0  0  0  0  0  0  0  0  0  0  0
    3.1120    2.3100    0.0000 H   0  0  0  0  0  0  0  0  0  0  0  0
    3.3335   -4.1650    0.0000 H   0  0  0  0  0  0  0  0  0  0  0  0
    4.1306   -4.1650    0.0000 H   0  0  0  0  0  0  0  0  0  0  0  0
    5.4641   -4.3100    0.0000 H   0  0  0  0  0  0  0  0  0  0  0  0
    4.5981   -2.5700    0.0000 H   0  0  0  0  0  0  0  0  0  0  0  0
    1.6900   -3.1531    0.0000 H   0  0  0  0  0  0  0  0  0  0  0  0
    1.4631   -4.0000    0.0000 H   0  0  0  0  0  0  0  0  0  0  0  0
    2.3100   -4.2269    0.0000 H   0  0  0  0  0  0  0  0  0  0  0  0
 18  1  1  6  0  0  0
 25  1  1  1  0  0  0
  2 20  1  0  0  0  0
  2 21  1  0  0  0  0
 21  3  1  1  0  0  0
 22  3  1  1  0  0  0
  4 25  1  0  0  0  0
  4 29  1  0  0  0  0
 19  5  1  6  0  0  0
  5 82  1  0  0  0  0
 23  6  1  1  0  0  0
  6 93  1  0  0  0  0
 27  7  1  1  0  0  0
  7 43  1  0  0  0  0
 28  8  1  1  0  0  0
  8 45  1  0  0  0  0
 34  9  1  1  0  0  0
  9 48  1  0  0  0  0
 39 10  1  1  0  0  0
 10104  1  0  0  0  0
 11 42  2  0  0  0  0
 12 46  1  0  0  0  0
 12 50  1  0  0  0  0
 13 43  2  0  0  0  0
 14 46  2  0  0  0  0
 15 48  2  0  0  0  0
 17 16  1  1  0  0  0
 16 36  1  0  0  0  0
 16 37  1  0  0  0  0
 17 18  1  0  0  0  0
 17 19  1  0  0  0  0
 17 57  1  0  0  0  0
 18 20  1  0  0  0  0
 18 58  1  0  0  0  0
 19 21  1  0  0  0  0
 19 59  1  0  0  0  0
 20 31  1  1  0  0  0
 20 60  1  0  0  0  0
 21 61  1  0  0  0  0
 22 24  1  0  0  0  0
 22 28  1  0  0  0  0
 22 62  1  0  0  0  0
 23 26  1  0  0  0  0
 23 27  1  0  0  0  0
 23 35  1  0  0  0  0
 24 30  1  0  0  0  0
 24 33  1  1  0  0  0
 24 63  1  0  0  0  0
 25 26  1  0  0  0  0
 25 64  1  0  0  0  0
 26 65  1  0  0  0  0
 26 66  1  0  0  0  0
 27 29  1  0  0  0  0
 27 67  1  0  0  0  0
 28 34  1  0  0  0  0
 28 68  1  0  0  0  0
 29 38  1  6  0  0  0
 29 69  1  0  0  0  0
 30 32  1  0  0  0  0
 30 70  1  0  0  0  0
 30 71  1  0  0  0  0
 31 72  1  0  0  0  0
 31 73  1  0  0  0  0
 31 74  1  0  0  0  0
 32 39  1  0  0  0  0
 32 41  1  1  0  0  0
 32 75  1  0  0  0  0
 33 42  1  0  0  0  0
 33 76  1  0  0  0  0
 33 77  1  0  0  0  0
 34 40  1  0  0  0  0
 34 78  1  0  0  0  0
 35 79  1  0  0  0  0
 35 80  1  0  0  0  0
 35 81  1  0  0  0  0
 36 83  1  0  0  0  0
 36 84  1  0  0  0  0
 36 85  1  0  0  0  0
 37 86  1  0  0  0  0
 37 87  1  0  0  0  0
 37 88  1  0  0  0  0
 38 89  1  0  0  0  0
 38 90  1  0  0  0  0
 38 91  1  0  0  0  0
 39 44  1  0  0  0  0
 39 92  1  0  0  0  0
 40 46  1  0  0  0  0
 40 94  1  0  0  0  0
 40 95  1  0  0  0  0
 41 96  1  0  0  0  0
 41 97  1  0  0  0  0
 41 98  1  0  0  0  0
 42 99  1  0  0  0  0
 43 47  1  0  0  0  0
 44 49  2  0  0  0  0
 44100  1  0  0  0  0
 45101  1  0  0  0  0
 45102  1  0  0  0  0
 45103  1  0  0  0  0
 47 51  1  0  0  0  0
 47105  1  0  0  0  0
 47106  1  0  0  0  0
 48 52  1  0  0  0  0
 49 54  1  0  0  0  0
 49107  1  0  0  0  0
 50 53  1  0  0  0  0
 50 56  1  1  0  0  0
 50108  1  0  0  0  0
 51109  1  0  0  0  0
 51110  1  0  0  0  0
 51111  1  0  0  0  0
 52112  1  0  0  0  0
 52113  1  0  0  0  0
 52114  1  0  0  0  0
 53 55  1  0  0  0  0
 53115  1  0  0  0  0
 53116  1  0  0  0  0
 54 55  2  0  0  0  0
 54117  1  0  0  0  0
 55118  1  0  0  0  0
 56119  1  0  0  0  0
 56120  1  0  0  0  0
 56121  1  0  0  0  0
M  END
> <PUBCHEM_COMPOUND_CID>
11954019

> <PUBCHEM_COMPOUND_CANONICALIZED>
1

> <PUBCHEM_CACTVS_COMPLEXITY>
1340

> <PUBCHEM_CACTVS_HBOND_ACCEPTOR>
16

> <PUBCHEM_CACTVS_HBOND_DONOR>
3

> <PUBCHEM_CACTVS_ROTATABLE_BOND>
13

> <PUBCHEM_CACTVS_SUBSKEYS>
AAADcfB+PAAAAAAAAAAAAAAAAAAAAAAAAAAkSAAAAAAAAAAAAAAAHgAACAAADXzxgAcCCAMABgCIACjSiAAAAAAgAAAICAEIAAgbFBYAgQAnUAAH4AAfkAPK7PzOAAAAAAAAAAAAAAAAAAAAAAAAAAAAAA==

> <PUBCHEM_IUPAC_OPENEYE_NAME>
[(2S,3S,4R,6S)-6-[(2R,3S,4R,5R,6S)-6-[[(4R,5S,6S,7R,9R,10R,11E,13E,16R)-4-acetoxy-10-hydroxy-5-methoxy-9,16-dimethyl-2-oxo-7-(2-oxoethyl)-1-oxacyclohexadeca-11,13-dien-6-yl]oxy]-4-(dimethylamino)-5-hydroxy-2-methyl-tetrahydropyran-3-yl]oxy-4-hydroxy-2,4-dimethyl-tetrahydropyran-3-yl] propanoate

> <PUBCHEM_IUPAC_CAS_NAME>
propanoic acid [(2S,3S,4R,6S)-6-[[(2R,3S,4R,5R,6S)-6-[[(4R,5S,6S,7R,9R,10R,11E,13E,16R)-4-acetyloxy-10-hydroxy-5-methoxy-9,16-dimethyl-2-oxo-7-(2-oxoethyl)-1-oxacyclohexadeca-11,13-dien-6-yl]oxy]-4-(dimethylamino)-5-hydroxy-2-methyl-3-oxanyl]oxy]-4-hydroxy-2,4-dimethyl-3-oxanyl] ester

> <PUBCHEM_IUPAC_NAME>
[(2S,3S,4R,6S)-6-[(2R,3S,4R,5R,6S)-6-[[(4R,5S,6S,7R,9R,10R,11E,13E,16R)-4-acetyloxy-10-hydroxy-5-methoxy-9,16-dimethyl-2-oxo-7-(2-oxoethyl)-1-oxacyclohexadeca-11,13-dien-6-yl]oxy]-4-(dimethylamino)-5-hydroxy-2-methyloxan-3-yl]oxy-4-hydroxy-2,4-dimethyloxan-3-yl] propanoate

> <PUBCHEM_IUPAC_SYSTEMATIC_NAME>
[(2S,3S,4R,6S)-6-[(2R,3S,4R,5R,6S)-6-[[(4R,5S,6S,7R,9R,10R,11E,13E,16R)-4-acetyloxy-5-methoxy-9,16-dimethyl-10-oxidanyl-2-oxidanylidene-7-(2-oxidanylideneethyl)-1-oxacyclohexadeca-11,13-dien-6-yl]oxy]-4-(dimethylamino)-2-methyl-5-oxidanyl-oxan-3-yl]oxy-2,4-dimethyl-4-oxidanyl-oxan-3-yl] propanoate

> <PUBCHEM_IUPAC_TRADITIONAL_NAME>
propionic acid [(2S,3S,4R,6S)-6-[(2R,3S,4R,5R,6S)-6-[[(4R,5S,6S,7R,9R,10R,11E,13E,16R)-4-acetoxy-10-hydroxy-2-keto-7-(2-ketoethyl)-5-methoxy-9,16-dimethyl-1-oxacyclohexadeca-11,13-dien-6-yl]oxy]-4-(dimethylamino)-5-hydroxy-2-methyl-tetrahydropyran-3-yl]oxy-4-hydroxy-2,4-dimethyl-tetrahydropyran-3-yl] ester

> <PUBCHEM_IUPAC_INCHI>
InChI=1S/C40H65NO15/c1-11-30(45)54-38-25(5)51-32(21-40(38,7)48)55-35-24(4)52-39(34(47)33(35)41(8)9)56-36-27(17-18-42)19-22(2)28(44)16-14-12-13-15-23(3)50-31(46)20-29(37(36)49-10)53-26(6)43/h12-14,16,18,22-25,27-29,32-39,44,47-48H,11,15,17,19-21H2,1-10H3/b13-12+,16-14+/t22-,23-,24-,25+,27+,28+,29-,32+,33-,34-,35-,36+,37+,38+,39+,40-/m1/s1

> <PUBCHEM_IUPAC_INCHIKEY>
ABTSKZKCMFRYNP-HUFPKKMTSA-N

> <PUBCHEM_XLOGP3_AA>
2.2

> <PUBCHEM_EXACT_MASS>
799.43542

> <PUBCHEM_MOLECULAR_FORMULA>
C40H65NO15

> <PUBCHEM_MOLECULAR_WEIGHT>
799.9418

> <PUBCHEM_OPENEYE_CAN_SMILES>
CCC(=O)OC1C(OC(CC1(C)O)OC2C(OC(C(C2N(C)C)O)OC3C(CC(C(C=CC=CCC(OC(=O)CC(C3OC)OC(=O)C)C)O)C)CC=O)C)C

> <PUBCHEM_OPENEYE_ISO_SMILES>
CCC(=O)O[C@H]1[C@@H](O[C@H](C[C@@]1(C)O)O[C@@H]2[C@H](O[C@H]([C@@H]([C@H]2N(C)C)O)O[C@H]3[C@H](C[C@H]([C@H](/C=C/C=C/C[C@H](OC(=O)C[C@H]([C@@H]3OC)OC(=O)C)C)O)C)CC=O)C)C

> <PUBCHEM_CACTVS_TPSA>
206

> <PUBCHEM_MONOISOTOPIC_WEIGHT>
799.43542

> <PUBCHEM_TOTAL_CHARGE>
0

> <PUBCHEM_HEAVY_ATOM_COUNT>
56

> <PUBCHEM_ATOM_DEF_STEREO_COUNT>
16

> <PUBCHEM_ATOM_UDEF_STEREO_COUNT>
0

> <PUBCHEM_BOND_DEF_STEREO_COUNT>
2

> <PUBCHEM_BOND_UDEF_STEREO_COUNT>
0

> <PUBCHEM_ISOTOPIC_ATOM_COUNT>
0

> <PUBCHEM_COMPONENT_COUNT>
1

> <PUBCHEM_CACTVS_TAUTO_COUNT>
4

> <PUBCHEM_COORDINATE_TYPE>
1
5
255

> <PUBCHEM_BONDANNOTATIONS>
18  1  6
25  1  5
39  10  5
17  16  5
20  31  5
24  33  5
29  38  6
21  3  5
22  3  5
32  41  5
19  5  6
50  56  5
23  6  5
27  7  5
28  8  5
34  9  5

$$$$

