440517
  -OEChem-07051212492D

 94100  0     1  0  0  0  0  0999 V2000
    6.3462   -4.0536    0.0000 O   0  0  0  0  0  0  0  0  0  0  0  0
    5.2833   -4.5378    0.0000 O   0  0  0  0  0  0  0  0  0  0  0  0
   12.7535    1.3256    0.0000 O   0  0  0  0  0  0  0  0  0  0  0  0
    2.5662   -4.4637    0.0000 O   0  0  0  0  0  0  0  0  0  0  0  0
   11.8817    2.8223    0.0000 O   0  0  0  0  0  0  0  0  0  0  0  0
   14.4817    2.3323    0.0000 O   0  0  0  0  0  0  0  0  0  0  0  0
   14.4740    4.3323    0.0000 O   0  0  0  0  0  0  0  0  0  0  0  0
   12.7381    5.3256    0.0000 O   0  0  0  0  0  0  0  0  0  0  0  0
   11.0061    5.3189    0.0000 O   0  0  0  0  0  0  0  0  0  0  0  0
    7.4136   -1.8188    0.0000 C   0  0  1  0  0  0  0  0  0  0  0  0
    8.2796   -2.3188    0.0000 C   0  0  2  0  0  0  0  0  0  0  0  0
    6.6766   -2.4858    0.0000 C   0  0  2  0  0  0  0  0  0  0  0  0
    9.1457   -1.8188    0.0000 C   0  0  1  0  0  0  0  0  0  0  0  0
    7.0817   -3.3936    0.0000 C   0  0  2  0  0  0  0  0  0  0  0  0
    9.1457   -0.8188    0.0000 C   0  0  2  0  0  0  0  0  0  0  0  0
    8.0704   -3.2906    0.0000 C   0  0  0  0  0  0  0  0  0  0  0  0
    5.6942   -2.5926    0.0000 C   0  0  1  0  0  0  0  0  0  0  0  0
    7.4136   -0.8188    0.0000 C   0  0  0  0  0  0  0  0  0  0  0  0
    5.4904   -3.5595    0.0000 C   0  0  1  0  0  0  0  0  0  0  0  0
    8.2796   -0.3188    0.0000 C   0  0  0  0  0  0  0  0  0  0  0  0
   10.0396   -0.2841    0.0000 C   0  0  2  0  0  0  0  0  0  0  0  0
    6.5476   -1.3188    0.0000 C   0  0  0  0  0  0  0  0  0  0  0  0
   10.0396   -2.3534    0.0000 C   0  0  0  0  0  0  0  0  0  0  0  0
   10.9457   -0.7980    0.0000 C   0  0  0  0  0  0  0  0  0  0  0  0
    4.6239   -3.0602    0.0000 C   0  0  0  0  0  0  0  0  0  0  0  0
   10.0145    0.8006    0.0000 C   0  0  0  0  0  0  0  0  0  0  0  0
    5.0231   -1.8511    0.0000 C   0  0  0  0  0  0  0  0  0  0  0  0
   10.9457   -1.8396    0.0000 C   0  0  0  0  0  0  0  0  0  0  0  0
    9.1698    0.2092    0.0000 C   0  0  0  0  0  0  0  0  0  0  0  0
    4.2889   -4.6432    0.0000 C   0  0  1  0  0  0  0  0  0  0  0  0
    3.8814   -3.7300    0.0000 C   0  0  0  0  0  0  0  0  0  0  0  0
   11.8895   -0.2627    0.0000 C   0  0  0  0  0  0  0  0  0  0  0  0
   10.9457    1.3575    0.0000 C   0  0  0  0  0  0  0  0  0  0  0  0
   11.8895    0.8223    0.0000 C   0  0  2  0  0  0  0  0  0  0  0  0
    3.3757   -5.0508    0.0000 C   0  0  0  0  0  0  0  0  0  0  0  0
    4.3943   -5.6376    0.0000 C   0  0  0  0  0  0  0  0  0  0  0  0
   12.7497    2.3256    0.0000 C   0  0  2  0  0  0  0  0  0  0  0  0
   13.6138    2.8289    0.0000 C   0  0  1  0  0  0  0  0  0  0  0  0
   13.6099    3.8289    0.0000 C   0  0  2  0  0  0  0  0  0  0  0  0
   11.8779    3.8223    0.0000 C   0  0  1  0  0  0  0  0  0  0  0  0
   12.7420    4.3256    0.0000 C   0  0  1  0  0  0  0  0  0  0  0  0
   11.0099    4.3189    0.0000 C   0  0  0  0  0  0  0  0  0  0  0  0
    8.9666   -2.8193    0.0000 H   0  0  0  0  0  0  0  0  0  0  0  0
    6.3285   -1.7104    0.0000 H   0  0  0  0  0  0  0  0  0  0  0  0
    9.1391   -2.6687    0.0000 H   0  0  0  0  0  0  0  0  0  0  0  0
    7.4264   -4.1706    0.0000 H   0  0  0  0  0  0  0  0  0  0  0  0
    9.1391    0.0312    0.0000 H   0  0  0  0  0  0  0  0  0  0  0  0
    8.0695   -3.9106    0.0000 H   0  0  0  0  0  0  0  0  0  0  0  0
    8.6869   -3.3566    0.0000 H   0  0  0  0  0  0  0  0  0  0  0  0
    5.9146   -2.0131    0.0000 H   0  0  0  0  0  0  0  0  0  0  0  0
    7.2016   -0.2362    0.0000 H   0  0  0  0  0  0  0  0  0  0  0  0
    6.8030   -0.9264    0.0000 H   0  0  0  0  0  0  0  0  0  0  0  0
    8.6782    0.1562    0.0000 H   0  0  0  0  0  0  0  0  0  0  0  0
    7.8811    0.1562    0.0000 H   0  0  0  0  0  0  0  0  0  0  0  0
    6.8576   -0.7818    0.0000 H   0  0  0  0  0  0  0  0  0  0  0  0
    6.0106   -1.0088    0.0000 H   0  0  0  0  0  0  0  0  0  0  0  0
    6.2376   -1.8557    0.0000 H   0  0  0  0  0  0  0  0  0  0  0  0
    9.6350   -2.8232    0.0000 H   0  0  0  0  0  0  0  0  0  0  0  0
   10.4332   -2.8324    0.0000 H   0  0  0  0  0  0  0  0  0  0  0  0
    4.9879   -2.5584    0.0000 H   0  0  0  0  0  0  0  0  0  0  0  0
    4.1628   -2.6458    0.0000 H   0  0  0  0  0  0  0  0  0  0  0  0
    9.7920    1.3793    0.0000 H   0  0  0  0  0  0  0  0  0  0  0  0
    9.4063    0.6804    0.0000 H   0  0  0  0  0  0  0  0  0  0  0  0
    5.4828   -1.4351    0.0000 H   0  0  0  0  0  0  0  0  0  0  0  0
    4.6071   -1.3915    0.0000 H   0  0  0  0  0  0  0  0  0  0  0  0
    4.5634   -2.2672    0.0000 H   0  0  0  0  0  0  0  0  0  0  0  0
   11.4814   -2.1516    0.0000 H   0  0  0  0  0  0  0  0  0  0  0  0
    9.4756    0.7485    0.0000 H   0  0  0  0  0  0  0  0  0  0  0  0
    8.6304    0.5151    0.0000 H   0  0  0  0  0  0  0  0  0  0  0  0
    8.8639   -0.3301    0.0000 H   0  0  0  0  0  0  0  0  0  0  0  0
    3.5165   -3.2287    0.0000 H   0  0  0  0  0  0  0  0  0  0  0  0
    3.3447   -4.0405    0.0000 H   0  0  0  0  0  0  0  0  0  0  0  0
   12.0985   -0.8464    0.0000 H   0  0  0  0  0  0  0  0  0  0  0  0
   12.5003   -0.1566    0.0000 H   0  0  0  0  0  0  0  0  0  0  0  0
   11.3393    1.8365    0.0000 H   0  0  0  0  0  0  0  0  0  0  0  0
   10.5411    1.8273    0.0000 H   0  0  0  0  0  0  0  0  0  0  0  0
   12.4270    0.5133    0.0000 H   0  0  0  0  0  0  0  0  0  0  0  0
    2.9301   -5.4818    0.0000 H   0  0  0  0  0  0  0  0  0  0  0  0
    3.7228   -5.5644    0.0000 H   0  0  0  0  0  0  0  0  0  0  0  0
    3.7777   -5.7030    0.0000 H   0  0  0  0  0  0  0  0  0  0  0  0
    4.4596   -6.2542    0.0000 H   0  0  0  0  0  0  0  0  0  0  0  0
    5.0108   -5.5723    0.0000 H   0  0  0  0  0  0  0  0  0  0  0  0
   13.2878    2.0177    0.0000 H   0  0  0  0  0  0  0  0  0  0  0  0
    2.0000   -4.7163    0.0000 H   0  0  0  0  0  0  0  0  0  0  0  0
   13.6162    2.2089    0.0000 H   0  0  0  0  0  0  0  0  0  0  0  0
   14.1481    3.5210    0.0000 H   0  0  0  0  0  0  0  0  0  0  0  0
   11.3422    3.5102    0.0000 H   0  0  0  0  0  0  0  0  0  0  0  0
   13.2777    4.6377    0.0000 H   0  0  0  0  0  0  0  0  0  0  0  0
   15.0175    2.6444    0.0000 H   0  0  0  0  0  0  0  0  0  0  0  0
   10.3990    4.4242    0.0000 H   0  0  0  0  0  0  0  0  0  0  0  0
   10.8001    3.7355    0.0000 H   0  0  0  0  0  0  0  0  0  0  0  0
   14.4716    4.9523    0.0000 H   0  0  0  0  0  0  0  0  0  0  0  0
   13.2739    5.6376    0.0000 H   0  0  0  0  0  0  0  0  0  0  0  0
   10.4680    5.6268    0.0000 H   0  0  0  0  0  0  0  0  0  0  0  0
  1 14  1  0  0  0  0
 19  1  1  6  0  0  0
  2 19  1  0  0  0  0
  2 30  1  0  0  0  0
 34  3  1  6  0  0  0
 37  3  1  6  0  0  0
  4 35  1  0  0  0  0
  4 84  1  0  0  0  0
  5 37  1  0  0  0  0
  5 40  1  0  0  0  0
 38  6  1  1  0  0  0
  6 89  1  0  0  0  0
 39  7  1  6  0  0  0
  7 92  1  0  0  0  0
 41  8  1  1  0  0  0
  8 93  1  0  0  0  0
  9 42  1  0  0  0  0
  9 94  1  0  0  0  0
 10 11  1  0  0  0  0
 10 12  1  0  0  0  0
 10 18  1  0  0  0  0
 10 22  1  6  0  0  0
 11 13  1  0  0  0  0
 11 16  1  0  0  0  0
 11 43  1  1  0  0  0
 12 14  1  0  0  0  0
 12 17  1  0  0  0  0
 12 44  1  1  0  0  0
 13 15  1  0  0  0  0
 13 23  1  0  0  0  0
 13 45  1  6  0  0  0
 14 16  1  0  0  0  0
 14 46  1  1  0  0  0
 15 20  1  0  0  0  0
 15 21  1  0  0  0  0
 15 47  1  1  0  0  0
 16 48  1  0  0  0  0
 16 49  1  0  0  0  0
 17 19  1  0  0  0  0
 17 27  1  1  0  0  0
 17 50  1  0  0  0  0
 18 20  1  0  0  0  0
 18 51  1  0  0  0  0
 18 52  1  0  0  0  0
 19 25  1  0  0  0  0
 20 53  1  0  0  0  0
 20 54  1  0  0  0  0
 21 24  1  0  0  0  0
 21 26  1  0  0  0  0
 21 29  1  6  0  0  0
 22 55  1  0  0  0  0
 22 56  1  0  0  0  0
 22 57  1  0  0  0  0
 23 28  1  0  0  0  0
 23 58  1  0  0  0  0
 23 59  1  0  0  0  0
 24 28  2  0  0  0  0
 24 32  1  0  0  0  0
 25 31  1  0  0  0  0
 25 60  1  0  0  0  0
 25 61  1  0  0  0  0
 26 33  1  0  0  0  0
 26 62  1  0  0  0  0
 26 63  1  0  0  0  0
 27 64  1  0  0  0  0
 27 65  1  0  0  0  0
 27 66  1  0  0  0  0
 28 67  1  0  0  0  0
 29 68  1  0  0  0  0
 29 69  1  0  0  0  0
 29 70  1  0  0  0  0
 30 31  1  0  0  0  0
 30 35  1  0  0  0  0
 30 36  1  1  0  0  0
 31 71  1  0  0  0  0
 31 72  1  0  0  0  0
 32 34  1  0  0  0  0
 32 73  1  0  0  0  0
 32 74  1  0  0  0  0
 33 34  1  0  0  0  0
 33 75  1  0  0  0  0
 33 76  1  0  0  0  0
 34 77  1  0  0  0  0
 35 78  1  0  0  0  0
 35 79  1  0  0  0  0
 36 80  1  0  0  0  0
 36 81  1  0  0  0  0
 36 82  1  0  0  0  0
 37 38  1  0  0  0  0
 37 83  1  0  0  0  0
 38 39  1  0  0  0  0
 38 85  1  0  0  0  0
 39 41  1  0  0  0  0
 39 86  1  0  0  0  0
 40 41  1  0  0  0  0
 40 42  1  6  0  0  0
 40 87  1  0  0  0  0
 41 88  1  0  0  0  0
 42 90  1  0  0  0  0
 42 91  1  0  0  0  0
M  END
> <PUBCHEM_COMPOUND_CID>
440517

> <PUBCHEM_COMPOUND_CANONICALIZED>
1

> <PUBCHEM_CACTVS_COMPLEXITY>
1080

> <PUBCHEM_CACTVS_HBOND_ACCEPTOR>
9

> <PUBCHEM_CACTVS_HBOND_DONOR>
5

> <PUBCHEM_CACTVS_ROTATABLE_BOND>
4

> <PUBCHEM_CACTVS_SUBSKEYS>
AAADcfB8PAAAAAAAAAAAAAAAAAAAAaJEAAA0YIEAAAASAGCAAAAAGgAACAAAD1SwgAMCCAAABgCAAiBCAAAAAAAgAAAACAAAAAgREAIAAQAiQAAFwAAPAAPA4PwPgAAAAAAAAADAAAQAACAAAYAADAAAAA==

> <PUBCHEM_IUPAC_INCHI>
InChI=1S/C33H52O9/c1-17-25-23(41-33(17)12-11-30(2,16-35)42-33)14-22-20-6-5-18-13-19(7-9-31(18,3)21(20)8-10-32(22,25)4)39-29-28(38)27(37)26(36)24(15-34)40-29/h5,17,19-29,34-38H,6-16H2,1-4H3/t17-,19-,20+,21-,22-,23-,24+,25-,26+,27-,28+,29+,30-,31-,32-,33-/m0/s1

> <PUBCHEM_IUPAC_INCHIKEY>
QJEQHVALLZCTGC-HPNIRRCESA-N

> <PUBCHEM_XLOGP3_AA>
2.8

> <PUBCHEM_EXACT_MASS>
592.361133

> <PUBCHEM_MOLECULAR_FORMULA>
C33H52O9

> <PUBCHEM_MOLECULAR_WEIGHT>
592.76058

> <PUBCHEM_OPENEYE_CAN_SMILES>
CC1C2C(CC3C2(CCC4C3CC=C5C4(CCC(C5)OC6C(C(C(C(O6)CO)O)O)O)C)C)OC17CCC(O7)(C)CO

> <PUBCHEM_OPENEYE_ISO_SMILES>
C[C@H]1[C@H]2[C@H](C[C@@H]3[C@@]2(CC[C@H]4[C@H]3CC=C5[C@@]4(CC[C@@H](C5)O[C@H]6[C@@H]([C@H]([C@@H]([C@H](O6)CO)O)O)O)C)C)O[C@]17CC[C@@](O7)(C)CO

> <PUBCHEM_CACTVS_TPSA>
138

> <PUBCHEM_MONOISOTOPIC_WEIGHT>
592.361133

> <PUBCHEM_TOTAL_CHARGE>
0

> <PUBCHEM_HEAVY_ATOM_COUNT>
42

> <PUBCHEM_ATOM_DEF_STEREO_COUNT>
16

> <PUBCHEM_ATOM_UDEF_STEREO_COUNT>
0

> <PUBCHEM_BOND_DEF_STEREO_COUNT>
0

> <PUBCHEM_BOND_UDEF_STEREO_COUNT>
0

> <PUBCHEM_ISOTOPIC_ATOM_COUNT>
0

> <PUBCHEM_COMPONENT_COUNT>
1

> <PUBCHEM_CACTVS_TAUTO_COUNT>
1

> <PUBCHEM_COORDINATE_TYPE>
1
5
255

> <PUBCHEM_BONDANNOTATIONS>
19  1  6
10  22  6
11  43  5
12  44  5
13  45  6
14  46  5
15  47  5
17  27  5
21  29  6
34  3  6
37  3  6
30  36  5
40  42  6
38  6  5
39  7  6
41  8  5

$$$$

