11953918
  -OEChem-07051212563D

 83 88  0     1  0  0  0  0  0999 V2000
    3.8850    1.5229   -0.4099 O   0  0  0  0  0  0  0  0  0  0  0  0
   -2.4086    0.7234   -1.6676 O   0  0  0  0  0  0  0  0  0  0  0  0
    1.0167   -3.2984   -0.2417 O   0  0  0  0  0  0  0  0  0  0  0  0
   -3.9160   -0.5152    0.3408 O   0  0  0  0  0  0  0  0  0  0  0  0
    8.4146    0.2502   -0.1618 O   0  0  0  0  0  0  0  0  0  0  0  0
   -5.9870   -0.5763    1.4938 O   0  0  0  0  0  0  0  0  0  0  0  0
    8.4382    2.5272    0.1710 O   0  0  0  0  0  0  0  0  0  0  0  0
   -5.9793    2.3326    1.2418 O   0  0  0  0  0  0  0  0  0  0  0  0
   -6.7236    2.2392   -1.4747 O   0  0  0  0  0  0  0  0  0  0  0  0
   -8.2562    0.9287    0.4414 O   0  0  0  0  0  0  0  0  0  0  0  0
    1.7335    0.4316   -0.6386 C   0  0  2  0  0  0  0  0  0  0  0  0
    0.8594   -0.8399   -0.3742 C   0  0  1  0  0  0  0  0  0  0  0  0
    3.1104    0.4191    0.0849 C   0  0  1  0  0  0  0  0  0  0  0  0
    3.9198   -0.8836   -0.1375 C   0  0  2  0  0  0  0  0  0  0  0  0
   -0.5317   -0.7720   -1.1567 C   0  0  2  0  0  0  0  0  0  0  0  0
   -1.2689    0.5746   -0.8042 C   0  0  1  0  0  0  0  0  0  0  0  0
    1.7058   -2.1153   -0.6374 C   0  0  1  0  0  0  0  0  0  0  0  0
    3.0266   -2.1148    0.1368 C   0  0  0  0  0  0  0  0  0  0  0  0
    5.0202   -0.8071    0.9697 C   0  0  2  0  0  0  0  0  0  0  0  0
    0.9590    1.7281   -0.3341 C   0  0  0  0  0  0  0  0  0  0  0  0
    3.0427    0.5381    1.6186 C   0  0  0  0  0  0  0  0  0  0  0  0
   -0.3751    1.7961   -1.0586 C   0  0  0  0  0  0  0  0  0  0  0  0
    4.3282   -0.1064    2.1556 C   0  0  0  0  0  0  0  0  0  0  0  0
   -1.5117   -1.9363   -0.8090 C   0  0  0  0  0  0  0  0  0  0  0  0
   -1.7935    0.5858    0.6588 C   0  0  0  0  0  0  0  0  0  0  0  0
    4.5127   -1.0027   -1.5562 C   0  0  0  0  0  0  0  0  0  0  0  0
   -0.2921   -0.8789   -2.6894 C   0  0  0  0  0  0  0  0  0  0  0  0
   -1.9846   -1.9364    0.6436 C   0  0  0  0  0  0  0  0  0  0  0  0
   -2.6638   -0.6221    1.0140 C   0  0  2  0  0  0  0  0  0  0  0  0
    6.2808   -0.0796    0.5994 C   0  0  0  0  0  0  0  0  0  0  0  0
    7.4529   -0.7893    0.0479 C   0  0  0  0  0  0  0  0  0  0  0  0
    6.5151    1.2256    0.7062 C   0  0  0  0  0  0  0  0  0  0  0  0
   -4.8591    0.2211    1.1132 C   0  0  2  0  0  0  0  0  0  0  0  0
    7.8786    1.4455    0.2216 C   0  0  0  0  0  0  0  0  0  0  0  0
   -5.2973    1.4651    0.3376 C   0  0  1  0  0  0  0  0  0  0  0  0
   -6.2099    1.0792   -0.8311 C   0  0  1  0  0  0  0  0  0  0  0  0
   -6.7961   -1.0191    0.3956 C   0  0  2  0  0  0  0  0  0  0  0  0
   -7.3623    0.1788   -0.3802 C   0  0  1  0  0  0  0  0  0  0  0  0
   -7.8831   -1.9197    0.9711 C   0  0  0  0  0  0  0  0  0  0  0  0
    1.9529    0.4602   -1.7142 H   0  0  0  0  0  0  0  0  0  0  0  0
    0.6136   -0.8551    0.6940 H   0  0  0  0  0  0  0  0  0  0  0  0
    1.9171   -2.2103   -1.7062 H   0  0  0  0  0  0  0  0  0  0  0  0
    2.7945   -2.2055    1.2068 H   0  0  0  0  0  0  0  0  0  0  0  0
    3.5824   -3.0344   -0.0941 H   0  0  0  0  0  0  0  0  0  0  0  0
    5.3151   -1.8158    1.2893 H   0  0  0  0  0  0  0  0  0  0  0  0
    1.5561    2.5985   -0.6321 H   0  0  0  0  0  0  0  0  0  0  0  0
    0.7957    1.8294    0.7442 H   0  0  0  0  0  0  0  0  0  0  0  0
    2.1779    0.0153    2.0393 H   0  0  0  0  0  0  0  0  0  0  0  0
    2.9886    1.5839    1.9412 H   0  0  0  0  0  0  0  0  0  0  0  0
   -0.9047    2.7115   -0.7628 H   0  0  0  0  0  0  0  0  0  0  0  0
   -0.1925    1.9212   -2.1335 H   0  0  0  0  0  0  0  0  0  0  0  0
    4.9468    0.6174    2.6960 H   0  0  0  0  0  0  0  0  0  0  0  0
    4.0490   -0.8589    2.9050 H   0  0  0  0  0  0  0  0  0  0  0  0
   -1.0841   -2.9106   -1.0589 H   0  0  0  0  0  0  0  0  0  0  0  0
   -2.4011   -1.8643   -1.4512 H   0  0  0  0  0  0  0  0  0  0  0  0
   -2.3657    1.5061    0.8224 H   0  0  0  0  0  0  0  0  0  0  0  0
   -0.9555    0.6107    1.3634 H   0  0  0  0  0  0  0  0  0  0  0  0
    3.7294   -1.0105   -2.3207 H   0  0  0  0  0  0  0  0  0  0  0  0
    5.1833   -0.1779   -1.8144 H   0  0  0  0  0  0  0  0  0  0  0  0
    5.0773   -1.9356   -1.6635 H   0  0  0  0  0  0  0  0  0  0  0  0
    0.3439   -0.0796   -3.0767 H   0  0  0  0  0  0  0  0  0  0  0  0
    0.1778   -1.8319   -2.9533 H   0  0  0  0  0  0  0  0  0  0  0  0
   -1.2315   -0.8461   -3.2525 H   0  0  0  0  0  0  0  0  0  0  0  0
   -2.6928   -2.7633    0.7766 H   0  0  0  0  0  0  0  0  0  0  0  0
   -1.1402   -2.1260    1.3148 H   0  0  0  0  0  0  0  0  0  0  0  0
   -2.8197   -0.6570    2.1003 H   0  0  0  0  0  0  0  0  0  0  0  0
    3.8292    1.5302   -1.3800 H   0  0  0  0  0  0  0  0  0  0  0  0
   -2.1049    0.9904   -2.5508 H   0  0  0  0  0  0  0  0  0  0  0  0
    1.5622   -4.0607   -0.5005 H   0  0  0  0  0  0  0  0  0  0  0  0
    7.8661   -1.5143    0.7554 H   0  0  0  0  0  0  0  0  0  0  0  0
    7.2543   -1.2799   -0.9074 H   0  0  0  0  0  0  0  0  0  0  0  0
    5.8827    2.0129    1.0773 H   0  0  0  0  0  0  0  0  0  0  0  0
   -4.4286    0.5640    2.0624 H   0  0  0  0  0  0  0  0  0  0  0  0
   -4.4357    2.0212   -0.0458 H   0  0  0  0  0  0  0  0  0  0  0  0
   -5.6099    0.5385   -1.5739 H   0  0  0  0  0  0  0  0  0  0  0  0
   -6.1720   -1.6271   -0.2717 H   0  0  0  0  0  0  0  0  0  0  0  0
   -7.9399   -0.1647   -1.2460 H   0  0  0  0  0  0  0  0  0  0  0  0
   -6.3015    3.0923    0.7273 H   0  0  0  0  0  0  0  0  0  0  0  0
   -8.4816   -1.3932    1.7222 H   0  0  0  0  0  0  0  0  0  0  0  0
   -8.5479   -2.2906    0.1854 H   0  0  0  0  0  0  0  0  0  0  0  0
   -7.4325   -2.7788    1.4802 H   0  0  0  0  0  0  0  0  0  0  0  0
   -7.2809    1.9424   -2.2143 H   0  0  0  0  0  0  0  0  0  0  0  0
   -8.5536    1.6958   -0.0771 H   0  0  0  0  0  0  0  0  0  0  0  0
  1 13  1  0  0  0  0
  1 67  1  0  0  0  0
  2 16  1  0  0  0  0
  2 68  1  0  0  0  0
  3 17  1  0  0  0  0
  3 69  1  0  0  0  0
  4 29  1  0  0  0  0
  4 33  1  0  0  0  0
  5 31  1  0  0  0  0
  5 34  1  0  0  0  0
  6 33  1  0  0  0  0
  6 37  1  0  0  0  0
  7 34  2  0  0  0  0
  8 35  1  0  0  0  0
  8 78  1  0  0  0  0
  9 36  1  0  0  0  0
  9 82  1  0  0  0  0
 10 38  1  0  0  0  0
 10 83  1  0  0  0  0
 11 12  1  0  0  0  0
 11 13  1  0  0  0  0
 11 20  1  0  0  0  0
 11 40  1  0  0  0  0
 12 15  1  0  0  0  0
 12 17  1  0  0  0  0
 12 41  1  0  0  0  0
 13 14  1  0  0  0  0
 13 21  1  0  0  0  0
 14 18  1  0  0  0  0
 14 19  1  0  0  0  0
 14 26  1  0  0  0  0
 15 16  1  0  0  0  0
 15 24  1  0  0  0  0
 15 27  1  0  0  0  0
 16 22  1  0  0  0  0
 16 25  1  0  0  0  0
 17 18  1  0  0  0  0
 17 42  1  0  0  0  0
 18 43  1  0  0  0  0
 18 44  1  0  0  0  0
 19 23  1  0  0  0  0
 19 30  1  0  0  0  0
 19 45  1  0  0  0  0
 20 22  1  0  0  0  0
 20 46  1  0  0  0  0
 20 47  1  0  0  0  0
 21 23  1  0  0  0  0
 21 48  1  0  0  0  0
 21 49  1  0  0  0  0
 22 50  1  0  0  0  0
 22 51  1  0  0  0  0
 23 52  1  0  0  0  0
 23 53  1  0  0  0  0
 24 28  1  0  0  0  0
 24 54  1  0  0  0  0
 24 55  1  0  0  0  0
 25 29  1  0  0  0  0
 25 56  1  0  0  0  0
 25 57  1  0  0  0  0
 26 58  1  0  0  0  0
 26 59  1  0  0  0  0
 26 60  1  0  0  0  0
 27 61  1  0  0  0  0
 27 62  1  0  0  0  0
 27 63  1  0  0  0  0
 28 29  1  0  0  0  0
 28 64  1  0  0  0  0
 28 65  1  0  0  0  0
 29 66  1  0  0  0  0
 30 31  1  0  0  0  0
 30 32  2  0  0  0  0
 31 70  1  0  0  0  0
 31 71  1  0  0  0  0
 32 34  1  0  0  0  0
 32 72  1  0  0  0  0
 33 35  1  0  0  0  0
 33 73  1  0  0  0  0
 35 36  1  0  0  0  0
 35 74  1  0  0  0  0
 36 38  1  0  0  0  0
 36 75  1  0  0  0  0
 37 38  1  0  0  0  0
 37 39  1  0  0  0  0
 37 76  1  0  0  0  0
 38 77  1  0  0  0  0
 39 79  1  0  0  0  0
 39 80  1  0  0  0  0
 39 81  1  0  0  0  0
M  END
> <PUBCHEM_COMPOUND_CID>
11953918

> <PUBCHEM_CONFORMER_RMSD>
1

> <PUBCHEM_CONFORMER_DIVERSEORDER>
12
18
19
17
20
16
25
21
24
9
27
6
11
15
23
22
7
4
8
5
1
2
26
3
10
14
13

> <PUBCHEM_MMFF94_PARTIAL_CHARGES>
31
1 -0.68
10 -0.68
13 0.28
16 0.28
17 0.28
19 0.14
2 -0.68
29 0.28
3 -0.68
30 -0.28
31 0.42
32 -0.14
33 0.56
34 0.71
35 0.28
36 0.28
37 0.28
38 0.28
4 -0.56
5 -0.43
6 -0.56
67 0.4
68 0.4
69 0.4
7 -0.57
72 0.15
78 0.4
8 -0.68
82 0.4
83 0.4
9 -0.68

> <PUBCHEM_EFFECTIVE_ROTOR_COUNT>
6.8

> <PUBCHEM_PHARMACOPHORE_FEATURES>
21
1 1 acceptor
1 1 donor
1 10 acceptor
1 10 donor
1 2 acceptor
1 2 donor
1 3 acceptor
1 3 donor
1 4 acceptor
1 6 acceptor
1 7 acceptor
1 8 acceptor
1 8 donor
1 9 acceptor
1 9 donor
5 13 14 19 21 23 rings
5 5 30 31 32 34 rings
6 11 12 13 14 17 18 rings
6 11 12 15 16 20 22 rings
6 15 16 24 25 28 29 rings
6 6 33 35 36 37 38 rings

> <PUBCHEM_HEAVY_ATOM_COUNT>
39

> <PUBCHEM_ATOM_DEF_STEREO_COUNT>
14

> <PUBCHEM_ATOM_UDEF_STEREO_COUNT>
0

> <PUBCHEM_BOND_DEF_STEREO_COUNT>
0

> <PUBCHEM_BOND_UDEF_STEREO_COUNT>
0

> <PUBCHEM_ISOTOPIC_ATOM_COUNT>
0

> <PUBCHEM_COMPONENT_COUNT>
1

> <PUBCHEM_CACTVS_TAUTO_COUNT>
1

> <PUBCHEM_CONFORMER_ID>
00B666FE0000000C

> <PUBCHEM_MMFF94_ENERGY>
144.9013

> <PUBCHEM_FEATURE_SELFOVERLAP>
106.861

> <PUBCHEM_SHAPE_FINGERPRINT>
10 15 18342740710898646810
10165383 225 18260547814819035154
106641 1 18341612577508609618
10670039 82 14056997252441254107
10816530 90 18339911629490949020
10930396 42 17346046580026144848
11828532 37 7781219094067697548
12107698 1 17275103933707304252
12838862 33 18336561459919482992
13811026 1 18412261735821892683
13914758 101 5545201627506574380
14251764 18 18202001010403098223
14394314 77 17703793656201021181
14856354 85 14764340540679344931
15064986 96 18040989670547426710
15131766 46 18049727313681625060
15183329 4 17774999111884663577
15289351 153 18261114123384004882
15301273 46 18412825802630464678
15461852 350 17603872165746068943
15840311 113 18273210873409735892
15849732 13 18409730651370073756
18603816 31 14764062303902065979
18608769 82 18409168796490901007
19841028 212 16916796235836429738
21033648 29 18272082855503663223
21130935 74 18271525402602557347
22224240 67 18343301461866171226
24771293 8 18409725179661067701
2838139 119 15285360617589727073
4093350 32 17095518539458917582
4098825 35 7348897662939593602
4169191 19 18407758153364381257
4173938 77 17386582257859027321
5028188 123 18262513681801392164
6086070 43 16878515531038818386
9962374 69 13758065252227956547

> <PUBCHEM_SHAPE_MULTIPOLES>
743.91
24.01
2.36
1.57
4.5
0.33
-0.28
-8.33
5.91
0.3
-0.21
0.43
0.08
1.15

> <PUBCHEM_SHAPE_SELFOVERLAP>
1605.71

> <PUBCHEM_SHAPE_VOLUME>
404.4

> <PUBCHEM_COORDINATE_TYPE>
2
5
10

$$$$

