17396613
  -OEChem-06241222573D

 48 50  0     0  0  0  0  0  0999 V2000
    5.5615   -0.7295   -1.5038 O   0  0  0  0  0  0  0  0  0  0  0  0
    6.2456    1.0072    0.6932 O   0  0  0  0  0  0  0  0  0  0  0  0
    1.1473   -1.0511    0.2106 O   0  0  0  0  0  0  0  0  0  0  0  0
   -1.1721   -1.3023   -0.9662 O   0  0  0  0  0  0  0  0  0  0  0  0
   -2.2388    0.2206    0.4741 N   0  0  0  0  0  0  0  0  0  0  0  0
   -3.5705    0.2390   -0.0040 C   0  0  0  0  0  0  0  0  0  0  0  0
   -4.3218   -0.9363   -0.0210 C   0  0  0  0  0  0  0  0  0  0  0  0
   -4.1325    1.4325   -0.4576 C   0  0  0  0  0  0  0  0  0  0  0  0
   -3.7479   -2.2304    0.4580 C   0  0  0  0  0  0  0  0  0  0  0  0
   -3.3536    2.7079   -0.4512 C   0  0  0  0  0  0  0  0  0  0  0  0
   -5.6349   -0.9179   -0.4914 C   0  0  0  0  0  0  0  0  0  0  0  0
   -5.4456    1.4508   -0.9277 C   0  0  0  0  0  0  0  0  0  0  0  0
   -6.1967    0.2757   -0.9448 C   0  0  0  0  0  0  0  0  0  0  0  0
   -4.7153   -2.9936    1.3570 C   0  0  0  0  0  0  0  0  0  0  0  0
   -3.5159    3.4772    0.8559 C   0  0  0  0  0  0  0  0  0  0  0  0
    4.6638   -0.3724   -0.5316 C   0  0  0  0  0  0  0  0  0  0  0  0
    4.9985    0.4602    0.5391 C   0  0  0  0  0  0  0  0  0  0  0  0
   -1.1722   -0.5177   -0.0224 C   0  0  0  0  0  0  0  0  0  0  0  0
    6.9098   -0.4618   -1.1087 C   0  0  0  0  0  0  0  0  0  0  0  0
    7.0155    0.9270   -0.5094 C   0  0  0  0  0  0  0  0  0  0  0  0
    0.0952   -0.2624    0.7640 C   0  0  0  0  0  0  0  0  0  0  0  0
    2.4124   -0.5602    0.3193 C   0  0  0  0  0  0  0  0  0  0  0  0
    3.3661   -0.8710   -0.6502 C   0  0  0  0  0  0  0  0  0  0  0  0
    4.0479    0.7593    1.5154 C   0  0  0  0  0  0  0  0  0  0  0  0
    2.7541    0.2493    1.4032 C   0  0  0  0  0  0  0  0  0  0  0  0
   -3.4710   -2.8503   -0.4025 H   0  0  0  0  0  0  0  0  0  0  0  0
   -2.8487   -2.0890    1.0632 H   0  0  0  0  0  0  0  0  0  0  0  0
   -2.2911    2.5283   -0.6526 H   0  0  0  0  0  0  0  0  0  0  0  0
   -3.6886    3.3457   -1.2799 H   0  0  0  0  0  0  0  0  0  0  0  0
   -6.2403   -1.8175   -0.5421 H   0  0  0  0  0  0  0  0  0  0  0  0
   -5.8975    2.3732   -1.2831 H   0  0  0  0  0  0  0  0  0  0  0  0
   -1.9715    1.0423    1.0114 H   0  0  0  0  0  0  0  0  0  0  0  0
   -7.2174    0.2894   -1.3158 H   0  0  0  0  0  0  0  0  0  0  0  0
   -5.0866   -2.3658    2.1745 H   0  0  0  0  0  0  0  0  0  0  0  0
   -4.2032   -3.8539    1.8025 H   0  0  0  0  0  0  0  0  0  0  0  0
   -5.5737   -3.3906    0.8068 H   0  0  0  0  0  0  0  0  0  0  0  0
   -4.5649    3.7372    1.0343 H   0  0  0  0  0  0  0  0  0  0  0  0
   -2.9387    4.4066    0.8200 H   0  0  0  0  0  0  0  0  0  0  0  0
   -3.1655    2.8937    1.7133 H   0  0  0  0  0  0  0  0  0  0  0  0
    7.5395   -0.5399   -2.0004 H   0  0  0  0  0  0  0  0  0  0  0  0
    7.2263   -1.2344   -0.3972 H   0  0  0  0  0  0  0  0  0  0  0  0
    8.0556    1.1527   -0.2544 H   0  0  0  0  0  0  0  0  0  0  0  0
    6.6588    1.6960   -1.2057 H   0  0  0  0  0  0  0  0  0  0  0  0
   -0.0697   -0.5508    1.8079 H   0  0  0  0  0  0  0  0  0  0  0  0
    0.3053    0.8123    0.6871 H   0  0  0  0  0  0  0  0  0  0  0  0
    3.0993   -1.5088   -1.4891 H   0  0  0  0  0  0  0  0  0  0  0  0
    4.3053    1.3912    2.3612 H   0  0  0  0  0  0  0  0  0  0  0  0
    2.0486    0.4876    2.1938 H   0  0  0  0  0  0  0  0  0  0  0  0
  1 16  1  0  0  0  0
  1 19  1  0  0  0  0
  2 17  1  0  0  0  0
  2 20  1  0  0  0  0
  3 21  1  0  0  0  0
  3 22  1  0  0  0  0
  4 18  2  0  0  0  0
  5  6  1  0  0  0  0
  5 18  1  0  0  0  0
  5 32  1  0  0  0  0
  6  7  2  0  0  0  0
  6  8  1  0  0  0  0
  7  9  1  0  0  0  0
  7 11  1  0  0  0  0
  8 10  1  0  0  0  0
  8 12  2  0  0  0  0
  9 14  1  0  0  0  0
  9 26  1  0  0  0  0
  9 27  1  0  0  0  0
 10 15  1  0  0  0  0
 10 28  1  0  0  0  0
 10 29  1  0  0  0  0
 11 13  2  0  0  0  0
 11 30  1  0  0  0  0
 12 13  1  0  0  0  0
 12 31  1  0  0  0  0
 13 33  1  0  0  0  0
 14 34  1  0  0  0  0
 14 35  1  0  0  0  0
 14 36  1  0  0  0  0
 15 37  1  0  0  0  0
 15 38  1  0  0  0  0
 15 39  1  0  0  0  0
 16 17  2  0  0  0  0
 16 23  1  0  0  0  0
 17 24  1  0  0  0  0
 18 21  1  0  0  0  0
 19 20  1  0  0  0  0
 19 40  1  0  0  0  0
 19 41  1  0  0  0  0
 20 42  1  0  0  0  0
 20 43  1  0  0  0  0
 21 44  1  0  0  0  0
 21 45  1  0  0  0  0
 22 23  2  0  0  0  0
 22 25  1  0  0  0  0
 23 46  1  0  0  0  0
 24 25  2  0  0  0  0
 24 47  1  0  0  0  0
 25 48  1  0  0  0  0
M  END
> <PUBCHEM_COMPOUND_CID>
17396613

> <PUBCHEM_CONFORMER_RMSD>
0.8

> <PUBCHEM_CONFORMER_DIVERSEORDER>
1
102
73
138
132
136
13
34
6
147
15
44
89
22
91
7
129
153
93
115
85
104
94
169
100
88
4
124
18
171
43
126
167
24
141
21
117
148
11
131
113
140
95
28
31
105
48
92
50
55
29
135
53
17
114
155
134
157
149
2
166
45
137
164
99
33
90
56
146
161
78
8
26
3
16
142
20
150
163
108
101
27
122
32
111
12
145
9
70
154
58
159
23
47
110
54
151
156
152
49
160
103
63
41
39
79
143
52
38
37
121
51
80
98
106
68
165
61
35
123
107
130
77
25
82
112
42
97
86
71
139
40
125
59
118
19
69
65
81
36
119
84
5
158
62
30
144
162
116
76
170
67
96
72
57
83
46
133
10
168
14
87
74
127
64
109
128
75
120
60
66

> <PUBCHEM_MMFF94_PARTIAL_CHARGES>
30
1 -0.36
10 0.14
11 -0.15
12 -0.15
13 -0.15
16 0.08
17 0.08
18 0.57
19 0.28
2 -0.36
20 0.28
21 0.34
22 0.08
23 -0.15
24 -0.15
25 -0.15
3 -0.36
30 0.15
31 0.15
32 0.37
33 0.15
4 -0.57
46 0.15
47 0.15
48 0.15
5 -0.55
6 0.12
7 -0.14
8 -0.14
9 0.14

> <PUBCHEM_EFFECTIVE_ROTOR_COUNT>
7.8

> <PUBCHEM_PHARMACOPHORE_FEATURES>
10
1 1 acceptor
1 14 hydrophobe
1 15 hydrophobe
1 2 acceptor
1 3 acceptor
1 4 acceptor
1 5 donor
6 1 2 16 17 19 20 rings
6 16 17 22 23 24 25 rings
6 6 7 8 11 12 13 rings

> <PUBCHEM_HEAVY_ATOM_COUNT>
25

> <PUBCHEM_ATOM_DEF_STEREO_COUNT>
0

> <PUBCHEM_ATOM_UDEF_STEREO_COUNT>
0

> <PUBCHEM_BOND_DEF_STEREO_COUNT>
0

> <PUBCHEM_BOND_UDEF_STEREO_COUNT>
0

> <PUBCHEM_ISOTOPIC_ATOM_COUNT>
0

> <PUBCHEM_COMPONENT_COUNT>
1

> <PUBCHEM_CACTVS_TAUTO_COUNT>
2

> <PUBCHEM_CONFORMER_ID>
0109738500000001

> <PUBCHEM_MMFF94_ENERGY>
92.7593

> <PUBCHEM_FEATURE_SELFOVERLAP>
50.796

> <PUBCHEM_SHAPE_FINGERPRINT>
10076449 9 18272650114037321875
10411042 1 17983291522881268363
10591671 39 18412543206271618565
10670039 82 18338517546882355700
11056379 131 18341610387313263139
11089746 13 17060336289146804070
11315181 36 17561363951068263647
11719270 70 18113905996468254638
11991303 11 17168433657723634302
12166972 35 16587747507957004512
12236239 1 17275109426769879106
12596602 18 17846783962218754856
12616971 3 5400791782846078920
13631057 29 17631732652391688163
13668630 136 15647055958209878860
14251752 14 18409168848700428070
14933364 13 18334575745919294084
15021287 119 4678818376014880067
15183329 4 16081085974715234390
15419008 47 18186804660333445465
15475509 35 8069482357802549044
17844677 252 18411133611153795352
18927931 339 18411419467456363071
19489759 90 18272653450292987195
21033648 29 17822588160576941257
21315759 40 17418102009837964266
21792961 116 17968087647805878478
22061861 79 17167864179535829972
22122407 14 15985095345097966525
221357 26 17749114404337261384
2297311 6 18408604752032715809
2303208 19 18114454583333216862
23081809 10 16988850458198298922
23198884 109 18341893025745478293
23557571 272 18334853952695073949
23559900 14 18339369574062655921
300161 21 17060344028150656115
34797466 226 18261391122250522716
4073 2 18131347505683859738
445580 37 18343295972649748332
531348 171 17895760724267910271

> <PUBCHEM_SHAPE_MULTIPOLES>
486.03
19.64
2.55
1.25
19.96
0.94
0.12
1.78
-4.68
-5.67
0.75
0.76
-0.05
1.55

> <PUBCHEM_SHAPE_SELFOVERLAP>
1037.627

> <PUBCHEM_SHAPE_VOLUME>
268.5

> <PUBCHEM_COORDINATE_TYPE>
2
5
10

$$$$

