65420
  -OEChem-07051213123D

 37 39  0     1  0  0  0  0  0999 V2000
   -0.0932    0.0541   -1.3876 O   0  0  0  0  0  0  0  0  0  0  0  0
   -1.7049   -1.2825    0.9187 O   0  0  0  0  0  0  0  0  0  0  0  0
   -2.3501    0.3147   -0.6745 O   0  0  0  0  0  0  0  0  0  0  0  0
    1.6447    0.0780    1.0150 O   0  0  0  0  0  0  0  0  0  0  0  0
    2.8708   -0.1611   -1.0072 O   0  0  0  0  0  0  0  0  0  0  0  0
   -1.5564    2.5043    0.7418 O   0  0  0  0  0  0  0  0  0  0  0  0
    0.0381    2.6466   -0.8809 O   0  0  0  0  0  0  0  0  0  0  0  0
   -0.6989   -0.2718    0.8934 C   0  0  1  0  0  0  0  0  0  0  0  0
    0.6617   -0.8813    0.6337 C   0  0  1  0  0  0  0  0  0  0  0  0
   -0.9801    0.5183   -0.3673 C   0  0  1  0  0  0  0  0  0  0  0  0
    0.6261   -1.0839   -0.8745 C   0  0  2  0  0  0  0  0  0  0  0  0
   -2.7962   -0.7620    0.1549 C   0  0  0  0  0  0  0  0  0  0  0  0
    1.9968   -1.1615   -1.5212 C   0  0  0  0  0  0  0  0  0  0  0  0
    2.9282   -0.1330    0.4230 C   0  0  0  0  0  0  0  0  0  0  0  0
   -0.7563    1.9902   -0.2240 C   0  0  0  0  0  0  0  0  0  0  0  0
   -3.3479   -1.8718   -0.7285 C   0  0  0  0  0  0  0  0  0  0  0  0
   -3.8646   -0.2330    1.1060 C   0  0  0  0  0  0  0  0  0  0  0  0
    3.6258   -1.3695    1.0011 C   0  0  0  0  0  0  0  0  0  0  0  0
    3.7562    1.1050    0.7782 C   0  0  0  0  0  0  0  0  0  0  0  0
   -0.7504    0.3075    1.8210 H   0  0  0  0  0  0  0  0  0  0  0  0
    0.8214   -1.8187    1.1757 H   0  0  0  0  0  0  0  0  0  0  0  0
    0.0391   -1.9706   -1.1419 H   0  0  0  0  0  0  0  0  0  0  0  0
    2.4497   -2.1461   -1.3671 H   0  0  0  0  0  0  0  0  0  0  0  0
    1.9213   -0.9983   -2.6012 H   0  0  0  0  0  0  0  0  0  0  0  0
   -2.5723   -2.2384   -1.4107 H   0  0  0  0  0  0  0  0  0  0  0  0
   -3.6841   -2.7265   -0.1323 H   0  0  0  0  0  0  0  0  0  0  0  0
   -4.1780   -1.5141   -1.3466 H   0  0  0  0  0  0  0  0  0  0  0  0
   -3.4594    0.5613    1.7429 H   0  0  0  0  0  0  0  0  0  0  0  0
   -4.7097    0.1944    0.5562 H   0  0  0  0  0  0  0  0  0  0  0  0
   -4.2297   -1.0228    1.7709 H   0  0  0  0  0  0  0  0  0  0  0  0
    3.0668   -2.2893    0.8038 H   0  0  0  0  0  0  0  0  0  0  0  0
    3.7223   -1.2921    2.0895 H   0  0  0  0  0  0  0  0  0  0  0  0
    4.6196   -1.5021    0.5599 H   0  0  0  0  0  0  0  0  0  0  0  0
    4.7614    1.0522    0.3460 H   0  0  0  0  0  0  0  0  0  0  0  0
    3.8373    1.2357    1.8627 H   0  0  0  0  0  0  0  0  0  0  0  0
    3.2807    2.0093    0.3796 H   0  0  0  0  0  0  0  0  0  0  0  0
   -1.4231    3.4697    0.8528 H   0  0  0  0  0  0  0  0  0  0  0  0
  1 10  1  0  0  0  0
  1 11  1  0  0  0  0
  2  8  1  0  0  0  0
  2 12  1  0  0  0  0
  3 10  1  0  0  0  0
  3 12  1  0  0  0  0
  4  9  1  0  0  0  0
  4 14  1  0  0  0  0
  5 13  1  0  0  0  0
  5 14  1  0  0  0  0
  6 15  1  0  0  0  0
  6 37  1  0  0  0  0
  7 15  2  0  0  0  0
  8  9  1  0  0  0  0
  8 10  1  0  0  0  0
  8 20  1  0  0  0  0
  9 11  1  0  0  0  0
  9 21  1  0  0  0  0
 10 15  1  0  0  0  0
 11 13  1  0  0  0  0
 11 22  1  0  0  0  0
 12 16  1  0  0  0  0
 12 17  1  0  0  0  0
 13 23  1  0  0  0  0
 13 24  1  0  0  0  0
 14 18  1  0  0  0  0
 14 19  1  0  0  0  0
 16 25  1  0  0  0  0
 16 26  1  0  0  0  0
 16 27  1  0  0  0  0
 17 28  1  0  0  0  0
 17 29  1  0  0  0  0
 17 30  1  0  0  0  0
 18 31  1  0  0  0  0
 18 32  1  0  0  0  0
 18 33  1  0  0  0  0
 19 34  1  0  0  0  0
 19 35  1  0  0  0  0
 19 36  1  0  0  0  0
M  END
> <PUBCHEM_COMPOUND_CID>
65420

> <PUBCHEM_CONFORMER_RMSD>
0.6

> <PUBCHEM_CONFORMER_DIVERSEORDER>
1
2
3

> <PUBCHEM_MMFF94_PARTIAL_CHARGES>
16
1 -0.56
10 0.62
11 0.28
12 0.56
13 0.28
14 0.56
15 0.66
2 -0.56
3 -0.56
37 0.5
4 -0.56
5 -0.56
6 -0.65
7 -0.57
8 0.28
9 0.28

> <PUBCHEM_EFFECTIVE_ROTOR_COUNT>
2.6

> <PUBCHEM_PHARMACOPHORE_FEATURES>
13
1 1 acceptor
1 2 acceptor
1 3 acceptor
1 4 acceptor
1 5 acceptor
1 6 acceptor
1 7 acceptor
3 12 16 17 hydrophobe
3 14 18 19 hydrophobe
3 6 7 15 anion
5 1 8 9 10 11 rings
5 2 3 8 10 12 rings
6 4 5 9 11 13 14 rings

> <PUBCHEM_HEAVY_ATOM_COUNT>
19

> <PUBCHEM_ATOM_DEF_STEREO_COUNT>
4

> <PUBCHEM_ATOM_UDEF_STEREO_COUNT>
0

> <PUBCHEM_BOND_DEF_STEREO_COUNT>
0

> <PUBCHEM_BOND_UDEF_STEREO_COUNT>
0

> <PUBCHEM_ISOTOPIC_ATOM_COUNT>
0

> <PUBCHEM_COMPONENT_COUNT>
1

> <PUBCHEM_CACTVS_TAUTO_COUNT>
1

> <PUBCHEM_CONFORMER_ID>
0000FF8C00000001

> <PUBCHEM_MMFF94_ENERGY>
53.0209

> <PUBCHEM_FEATURE_SELFOVERLAP>
67.074

> <PUBCHEM_SHAPE_FINGERPRINT>
11132069 177 18335424560216318921
12403814 3 18041013820651834462
12808571 1 4823216117066995956
13083527 12 17330557544766543675
13132413 78 18343865511420858405
14115302 16 16988839445839017099
14181834 199 18054790576878297069
14289901 80 18410864260906762746
14614273 12 17915748776066055053
14787075 74 17843406180909542760
15219456 202 17895754143945125230
15309172 13 16877667846407733190
15375462 478 18271255966850920478
15375462 6 18411707586478279850
16945 1 18040718086346823191
17844478 74 18113336422745996814
18175812 5 17894344479881114999
18981168 100 16734120113700444874
19868273 325 18413111653904387559
200 152 17846509131498688562
20510252 161 18271812349319447984
20525323 117 18409450327333659613
21069387 34 14476963406329122546
21501502 16 18268145551387665602
21524375 3 17550384480908197361
22112679 90 17987782141924603293
22802520 49 18045493381357753374
23388829 49 18264205824915478845
23402539 116 18411430509068064830
23419403 2 17980799010549072237
23557571 272 18409165515220126950
23559900 14 18202014247972430570
2748010 2 17978212083422210261
296302 2 18260264114395033547
3286 77 17313962830553366842
528886 8 6988324936502442936
5902787 121 18128810850801278051
6049 1 17896029017931590174
7364860 26 17902510385648319857
81228 2 18269258222689793569

> <PUBCHEM_SHAPE_MULTIPOLES>
349.93
6
2.08
1.33
0.86
1.37
-0.16
-1.72
1.58
-0.57
-0.27
0.27
-0.21
-0.01

> <PUBCHEM_SHAPE_SELFOVERLAP>
752.471

> <PUBCHEM_SHAPE_VOLUME>
193.3

> <PUBCHEM_COORDINATE_TYPE>
2
5
10

$$$$

