271
  -OEChem-07051212432D

  1  0  0     0  0  0  0  0  0999 V2000
    2.0000    0.0000    0.0000 Ca  0  2  0  0  0  0  0  0  0  0  0  0
M  CHG  1   1   2
M  END
> <PUBCHEM_COMPOUND_CID>
271

> <PUBCHEM_COMPOUND_CANONICALIZED>
1

> <PUBCHEM_CACTVS_COMPLEXITY>
0

> <PUBCHEM_CACTVS_HBOND_ACCEPTOR>
0

> <PUBCHEM_CACTVS_HBOND_DONOR>
0

> <PUBCHEM_CACTVS_ROTATABLE_BOND>
0

> <PUBCHEM_CACTVS_SUBSKEYS>
AAADcQAAAAAAAAgAAAAAAAAAAAAAAAAAAAAAAAAAAAAAAAAAAAAAAAAAAAAAAAAAAAAAAAAAAAAAAAAAAAAAAAAAAAAAAAAAAAAAAAAAAAAAAAAAAAAAAAAAAAAAAAAAAAAAAAAAAAAAAAAAAAAAAAAAAA==

> <PUBCHEM_IUPAC_OPENEYE_NAME>
calcium(2+)

> <PUBCHEM_IUPAC_CAS_NAME>
calcium(2+)

> <PUBCHEM_IUPAC_NAME>
calcium(2+)

> <PUBCHEM_IUPAC_SYSTEMATIC_NAME>
calcium(2+)

> <PUBCHEM_IUPAC_TRADITIONAL_NAME>
calcium(2+)

> <PUBCHEM_IUPAC_INCHI>
InChI=1S/Ca/q+2

> <PUBCHEM_IUPAC_INCHIKEY>
BHPQYMZQTOCNFJ-UHFFFAOYSA-N

> <PUBCHEM_EXACT_MASS>
39.962591

> <PUBCHEM_MOLECULAR_FORMULA>
Ca+2

> <PUBCHEM_MOLECULAR_WEIGHT>
40.078

> <PUBCHEM_OPENEYE_CAN_SMILES>
[Ca+2]

> <PUBCHEM_OPENEYE_ISO_SMILES>
[Ca+2]

> <PUBCHEM_CACTVS_TPSA>
0

> <PUBCHEM_MONOISOTOPIC_WEIGHT>
39.962591

> <PUBCHEM_TOTAL_CHARGE>
2

> <PUBCHEM_HEAVY_ATOM_COUNT>
1

> <PUBCHEM_ATOM_DEF_STEREO_COUNT>
0

> <PUBCHEM_ATOM_UDEF_STEREO_COUNT>
0

> <PUBCHEM_BOND_DEF_STEREO_COUNT>
0

> <PUBCHEM_BOND_UDEF_STEREO_COUNT>
0

> <PUBCHEM_ISOTOPIC_ATOM_COUNT>
0

> <PUBCHEM_COMPONENT_COUNT>
1

> <PUBCHEM_CACTVS_TAUTO_COUNT>
1

> <PUBCHEM_COORDINATE_TYPE>
1
5
255

$$$$

