854282
  -OEChem-06241222473D

 34 36  0     0  0  0  0  0  0999 V2000
   -0.6524   -1.4793    2.4463 O   0  0  0  0  0  0  0  0  0  0  0  0
   -1.1858   -0.0510   -2.0911 O   0  0  0  0  0  0  0  0  0  0  0  0
    0.8883   -2.2940   -0.5480 O   0  0  0  0  0  0  0  0  0  0  0  0
   -2.6279   -0.6041    1.6322 N   0  0  0  0  0  0  0  0  0  0  0  0
    1.4964   -0.1046    0.0708 N   0  0  0  0  0  0  0  0  0  0  0  0
    2.5282    3.2339    1.0024 N   0  0  0  0  0  0  0  0  0  0  0  0
   -3.0249    0.1447   -0.6333 C   0  0  0  0  0  0  0  0  0  0  0  0
   -3.4859   -0.0633    0.6732 C   0  0  0  0  0  0  0  0  0  0  0  0
   -0.7698   -0.7965    0.1352 C   0  0  0  0  0  0  0  0  0  0  0  0
   -1.6247   -0.2199   -0.9591 C   0  0  0  0  0  0  0  0  0  0  0  0
   -1.3254   -0.9545    1.3583 C   0  0  0  0  0  0  0  0  0  0  0  0
   -3.8651    0.6849   -1.6115 C   0  0  0  0  0  0  0  0  0  0  0  0
   -4.8047    0.2788    0.9901 C   0  0  0  0  0  0  0  0  0  0  0  0
    0.6272   -1.1605   -0.1559 C   0  0  0  0  0  0  0  0  0  0  0  0
   -5.1776    1.0207   -1.2814 C   0  0  0  0  0  0  0  0  0  0  0  0
   -5.6468    0.8184    0.0161 C   0  0  0  0  0  0  0  0  0  0  0  0
    2.9022   -0.0956   -0.1014 C   0  0  0  0  0  0  0  0  0  0  0  0
    3.6411    1.0451    0.1689 C   0  0  0  0  0  0  0  0  0  0  0  0
    3.5114   -1.2587   -0.5467 C   0  0  0  0  0  0  0  0  0  0  0  0
    5.0242    1.0229   -0.0104 C   0  0  0  0  0  0  0  0  0  0  0  0
    4.8945   -1.2809   -0.7260 C   0  0  0  0  0  0  0  0  0  0  0  0
    5.6509   -0.1401   -0.4579 C   0  0  0  0  0  0  0  0  0  0  0  0
    3.0265    2.2538    0.6293 C   0  0  0  0  0  0  0  0  0  0  0  0
   -2.9763   -0.7500    2.5705 H   0  0  0  0  0  0  0  0  0  0  0  0
   -3.5176    0.8500   -2.6273 H   0  0  0  0  0  0  0  0  0  0  0  0
   -5.1861    0.1274    1.9970 H   0  0  0  0  0  0  0  0  0  0  0  0
   -5.8360    1.4409   -2.0363 H   0  0  0  0  0  0  0  0  0  0  0  0
   -6.6697    1.0813    0.2697 H   0  0  0  0  0  0  0  0  0  0  0  0
    1.0860    0.7669    0.3979 H   0  0  0  0  0  0  0  0  0  0  0  0
    3.0060   -2.1837   -0.7776 H   0  0  0  0  0  0  0  0  0  0  0  0
   -1.2788   -1.4810    3.1896 H   0  0  0  0  0  0  0  0  0  0  0  0
    5.6290    1.9033    0.1939 H   0  0  0  0  0  0  0  0  0  0  0  0
    5.3840   -2.1858   -1.0744 H   0  0  0  0  0  0  0  0  0  0  0  0
    6.7278   -0.1576   -0.5976 H   0  0  0  0  0  0  0  0  0  0  0  0
  1 11  1  0  0  0  0
  1 31  1  0  0  0  0
  2 10  2  0  0  0  0
  3 14  2  0  0  0  0
  4  8  1  0  0  0  0
  4 11  1  0  0  0  0
  4 24  1  0  0  0  0
  5 14  1  0  0  0  0
  5 17  1  0  0  0  0
  5 29  1  0  0  0  0
  6 23  3  0  0  0  0
  7  8  1  0  0  0  0
  7 10  1  0  0  0  0
  7 12  2  0  0  0  0
  8 13  2  0  0  0  0
  9 10  1  0  0  0  0
  9 11  2  0  0  0  0
  9 14  1  0  0  0  0
 12 15  1  0  0  0  0
 12 25  1  0  0  0  0
 13 16  1  0  0  0  0
 13 26  1  0  0  0  0
 15 16  2  0  0  0  0
 15 27  1  0  0  0  0
 16 28  1  0  0  0  0
 17 18  1  0  0  0  0
 17 19  2  0  0  0  0
 18 20  2  0  0  0  0
 18 23  1  0  0  0  0
 19 21  1  0  0  0  0
 19 30  1  0  0  0  0
 20 22  1  0  0  0  0
 20 32  1  0  0  0  0
 21 22  2  0  0  0  0
 21 33  1  0  0  0  0
 22 34  1  0  0  0  0
M  END
> <PUBCHEM_COMPOUND_CID>
854282

> <PUBCHEM_CONFORMER_RMSD>
0.6

> <PUBCHEM_CONFORMER_DIVERSEORDER>
1
8
4
19
3
13
17
21
14
20
15
5
9
16
18
11
6
10
12
2
7

> <PUBCHEM_MMFF94_PARTIAL_CHARGES>
34
1 -0.53
10 0.47
11 0.18
12 -0.15
13 -0.15
14 0.62
15 -0.15
16 -0.15
17 0.12
18 0.07
19 -0.15
2 -0.57
20 -0.15
21 -0.15
22 -0.15
23 0.48
24 0.4
25 0.15
26 0.15
27 0.15
28 0.15
29 0.37
3 -0.57
30 0.15
31 0.45
32 0.15
33 0.15
34 0.15
4 -0.6
5 -0.55
6 -0.56
7 0.09
8 0.1
9 0.03

> <PUBCHEM_EFFECTIVE_ROTOR_COUNT>
3

> <PUBCHEM_PHARMACOPHORE_FEATURES>
11
1 1 donor
1 2 acceptor
1 3 acceptor
1 4 cation
1 4 donor
1 5 donor
1 6 acceptor
1 9 anion
6 17 18 19 20 21 22 rings
6 4 7 8 9 10 11 rings
6 7 8 12 13 15 16 rings

> <PUBCHEM_HEAVY_ATOM_COUNT>
23

> <PUBCHEM_ATOM_DEF_STEREO_COUNT>
0

> <PUBCHEM_ATOM_UDEF_STEREO_COUNT>
0

> <PUBCHEM_BOND_DEF_STEREO_COUNT>
0

> <PUBCHEM_BOND_UDEF_STEREO_COUNT>
0

> <PUBCHEM_ISOTOPIC_ATOM_COUNT>
0

> <PUBCHEM_COMPONENT_COUNT>
1

> <PUBCHEM_CACTVS_TAUTO_COUNT>
29

> <PUBCHEM_CONFORMER_ID>
000D090A00000001

> <PUBCHEM_MMFF94_ENERGY>
75.2314

> <PUBCHEM_FEATURE_SELFOVERLAP>
55.89

> <PUBCHEM_SHAPE_FINGERPRINT>
11045977 3 18343578525826663523
11595378 159 15123521323264225565
12166972 35 17022904557961130184
12236239 1 17095241449052848463
12403259 415 18201715137437918313
12616971 3 17313096445734797793
12730499 353 18342452672806336562
12969540 114 18271538549881974495
13402501 40 18344148107020199180
13583140 156 18410568461961308195
15003188 100 18339368478629659253
15183329 4 17458345260047410628
15295992 7 18342460292510342856
16988056 13 5095763866877358282
17349148 13 16153701025163810964
1813 80 6266619840895017571
18335252 114 18115315591427672997
192875 21 17458058266327712736
19784866 170 16702020919921298235
200 152 17312821597497122243
20511986 3 16733279988396878160
20554085 129 17274840077192681101
21033648 144 18187936019090713468
21033648 29 18059862748513620281
21033650 10 14491286697233600122
212916 134 17203334403083311651
21298829 104 17894629253852113168
21792961 116 18200584913517380302
22122407 14 18114164368483227233
221357 26 18335424607561634300
22289505 5 18409167731998498644
23402539 116 17489867129171853767
23557571 272 17703213071254099707
23559900 14 17274533364566711134
2838139 119 18260266378059524729
3004659 81 15864074273645279408
474 4 18113053818393470910
5265222 85 17202460245018424466
9971528 1 17821447967947208880

> <PUBCHEM_SHAPE_MULTIPOLES>
440.78
12.8
1.96
1.56
0.19
1.09
0.25
3.73
-2.22
2.33
0.52
-1.6
-0.24
1.52

> <PUBCHEM_SHAPE_SELFOVERLAP>
974.218

> <PUBCHEM_SHAPE_VOLUME>
232.3

> <PUBCHEM_COORDINATE_TYPE>
2
5
10

$$$$

