198036
  -OEChem-07051212562D

 72 75  0     1  0  0  0  0  0999 V2000
    3.6437   -1.5118    0.0000 O   0  0  0  0  0  0  0  0  0  0  0  0
    3.4259    1.5564    0.0000 O   0  0  0  0  0  0  0  0  0  0  0  0
    5.3514    3.6611    0.0000 O   0  0  0  0  0  0  0  0  0  0  0  0
    4.6304   -2.9353    0.0000 O   0  0  0  0  0  0  0  0  0  0  0  0
    4.5278    4.6444    0.0000 O   0  0  0  0  0  0  0  0  0  0  0  0
    8.0064    1.5869    0.0000 O   0  0  0  0  0  0  0  0  0  0  0  0
    9.2761    2.7650    0.0000 O   0  0  0  0  0  0  0  0  0  0  0  0
    5.3217   -0.3487    0.0000 C   0  0  1  0  0  0  0  0  0  0  0  0
    4.4656   -0.9421    0.0000 C   0  0  1  0  0  0  0  0  0  0  0  0
    5.4078   -1.3873    0.0000 C   0  0  0  0  0  0  0  0  0  0  0  0
    5.2279    0.6887    0.0000 C   0  0  1  0  0  0  0  0  0  0  0  0
    4.3269    1.1225    0.0000 C   0  0  1  0  0  0  0  0  0  0  0  0
    3.5271   -0.4902    0.0000 C   0  0  0  0  0  0  0  0  0  0  0  0
    3.4573    0.5491    0.0000 C   0  0  1  0  0  0  0  0  0  0  0  0
    6.4044   -1.3048    0.0000 C   0  0  0  0  0  0  0  0  0  0  0  0
    4.9809   -2.2916    0.0000 C   0  0  0  0  0  0  0  0  0  0  0  0
    4.1044    2.0975    0.0000 C   0  0  1  0  0  0  0  0  0  0  0  0
    6.1288    1.1225    0.0000 C   0  0  0  0  0  0  0  0  0  0  0  0
    4.7279    2.8793    0.0000 C   0  0  1  0  0  0  0  0  0  0  0  0
    2.4593    0.4859    0.0000 C   0  0  0  0  0  0  0  0  0  0  0  0
    6.3514    2.0975    0.0000 C   0  0  0  0  0  0  0  0  0  0  0  0
    5.7279    2.8793    0.0000 C   0  0  0  0  0  0  0  0  0  0  0  0
    3.1746    2.4492    0.0000 C   0  0  0  0  0  0  0  0  0  0  0  0
    3.7262   -2.5084    0.0000 C   0  0  0  0  0  0  0  0  0  0  0  0
    4.1781    3.7075    0.0000 C   0  0  0  0  0  0  0  0  0  0  0  0
    3.2200    3.4422    0.0000 C   0  0  0  0  0  0  0  0  0  0  0  0
    7.3263    2.3200    0.0000 C   0  0  0  0  0  0  0  0  0  0  0  0
    2.9043   -3.0781    0.0000 C   0  0  3  0  0  0  0  0  0  0  0  0
    2.4382    4.0657    0.0000 C   0  0  0  0  0  0  0  0  0  0  0  0
    2.9867   -4.0747    0.0000 C   0  0  0  0  0  0  0  0  0  0  0  0
    2.0000   -2.6512    0.0000 C   0  0  0  0  0  0  0  0  0  0  0  0
    2.1648   -4.6444    0.0000 C   0  0  0  0  0  0  0  0  0  0  0  0
    8.9814    1.8094    0.0000 C   0  0  0  0  0  0  0  0  0  0  0  0
    9.6616    1.0764    0.0000 C   0  0  0  0  0  0  0  0  0  0  0  0
    6.1685   -0.2753    0.0000 H   0  0  0  0  0  0  0  0  0  0  0  0
    5.9672    0.2693    0.0000 H   0  0  0  0  0  0  0  0  0  0  0  0
    2.9105   -0.4253    0.0000 H   0  0  0  0  0  0  0  0  0  0  0  0
    3.3577   -1.0866    0.0000 H   0  0  0  0  0  0  0  0  0  0  0  0
    3.2604    1.1370    0.0000 H   0  0  0  0  0  0  0  0  0  0  0  0
    4.4203   -2.0269    0.0000 H   0  0  0  0  0  0  0  0  0  0  0  0
    4.7162   -2.8522    0.0000 H   0  0  0  0  0  0  0  0  0  0  0  0
    6.4556   -1.9227    0.0000 H   0  0  0  0  0  0  0  0  0  0  0  0
    7.0223   -1.2538    0.0000 H   0  0  0  0  0  0  0  0  0  0  0  0
    6.3534   -0.6870    0.0000 H   0  0  0  0  0  0  0  0  0  0  0  0
    5.5416   -2.5562    0.0000 H   0  0  0  0  0  0  0  0  0  0  0  0
    3.4635    1.5390    0.0000 H   0  0  0  0  0  0  0  0  0  0  0  0
    6.6136    0.7360    0.0000 H   0  0  0  0  0  0  0  0  0  0  0  0
    2.4201    1.1047    0.0000 H   0  0  0  0  0  0  0  0  0  0  0  0
    1.8405    0.4467    0.0000 H   0  0  0  0  0  0  0  0  0  0  0  0
    2.4985   -0.1329    0.0000 H   0  0  0  0  0  0  0  0  0  0  0  0
    2.8077    1.5101    0.0000 H   0  0  0  0  0  0  0  0  0  0  0  0
    6.2865    3.1483    0.0000 H   0  0  0  0  0  0  0  0  0  0  0  0
    5.5899    3.4838    0.0000 H   0  0  0  0  0  0  0  0  0  0  0  0
    2.6566    2.1085    0.0000 H   0  0  0  0  0  0  0  0  0  0  0  0
    5.9644    3.5687    0.0000 H   0  0  0  0  0  0  0  0  0  0  0  0
    7.8471    2.6564    0.0000 H   0  0  0  0  0  0  0  0  0  0  0  0
    7.0854    2.8913    0.0000 H   0  0  0  0  0  0  0  0  0  0  0  0
    2.8342   -2.2310    0.0000 H   0  0  0  0  0  0  0  0  0  0  0  0
    2.8248    4.5504    0.0000 H   0  0  0  0  0  0  0  0  0  0  0  0
    1.9535    4.4523    0.0000 H   0  0  0  0  0  0  0  0  0  0  0  0
    2.0516    3.5810    0.0000 H   0  0  0  0  0  0  0  0  0  0  0  0
    3.2460   -4.6378    0.0000 H   0  0  0  0  0  0  0  0  0  0  0  0
    3.5863   -3.9171    0.0000 H   0  0  0  0  0  0  0  0  0  0  0  0
    2.2647   -2.0905    0.0000 H   0  0  0  0  0  0  0  0  0  0  0  0
    1.4393   -2.3865    0.0000 H   0  0  0  0  0  0  0  0  0  0  0  0
    1.7353   -3.2118    0.0000 H   0  0  0  0  0  0  0  0  0  0  0  0
    1.8116   -4.1348    0.0000 H   0  0  0  0  0  0  0  0  0  0  0  0
    1.6553   -4.9975    0.0000 H   0  0  0  0  0  0  0  0  0  0  0  0
    2.5180   -5.1539    0.0000 H   0  0  0  0  0  0  0  0  0  0  0  0
    9.2071    0.6547    0.0000 H   0  0  0  0  0  0  0  0  0  0  0  0
   10.0833    0.6219    0.0000 H   0  0  0  0  0  0  0  0  0  0  0  0
   10.1160    1.4981    0.0000 H   0  0  0  0  0  0  0  0  0  0  0  0
  9  1  1  1  0  0  0
  1 24  1  0  0  0  0
 12  2  1  1  0  0  0
  2 51  1  0  0  0  0
 19  3  1  6  0  0  0
  3 55  1  0  0  0  0
  4 24  2  0  0  0  0
  5 25  2  0  0  0  0
  6 27  1  0  0  0  0
  6 33  1  0  0  0  0
  7 33  2  0  0  0  0
  8  9  1  0  0  0  0
  8 10  1  0  0  0  0
  8 11  1  0  0  0  0
  8 35  1  1  0  0  0
  9 10  1  0  0  0  0
  9 13  1  0  0  0  0
 10 15  1  0  0  0  0
 10 16  1  0  0  0  0
 11 12  1  0  0  0  0
 11 18  1  0  0  0  0
 11 36  1  6  0  0  0
 12 14  1  0  0  0  0
 12 17  1  0  0  0  0
 13 14  1  0  0  0  0
 13 37  1  0  0  0  0
 13 38  1  0  0  0  0
 14 20  1  1  0  0  0
 14 39  1  0  0  0  0
 15 42  1  0  0  0  0
 15 43  1  0  0  0  0
 15 44  1  0  0  0  0
 16 40  1  0  0  0  0
 16 41  1  0  0  0  0
 16 45  1  0  0  0  0
 17 19  1  0  0  0  0
 17 23  1  0  0  0  0
 17 46  1  1  0  0  0
 18 21  2  0  0  0  0
 18 47  1  0  0  0  0
 19 22  1  0  0  0  0
 19 25  1  0  0  0  0
 20 48  1  0  0  0  0
 20 49  1  0  0  0  0
 20 50  1  0  0  0  0
 21 22  1  0  0  0  0
 21 27  1  0  0  0  0
 22 52  1  0  0  0  0
 22 53  1  0  0  0  0
 23 26  2  0  0  0  0
 23 54  1  0  0  0  0
 24 28  1  0  0  0  0
 25 26  1  0  0  0  0
 26 29  1  0  0  0  0
 27 56  1  0  0  0  0
 27 57  1  0  0  0  0
 28 30  1  0  0  0  0
 28 31  1  0  0  0  0
 28 58  1  0  0  0  0
 29 59  1  0  0  0  0
 29 60  1  0  0  0  0
 29 61  1  0  0  0  0
 30 32  1  0  0  0  0
 30 62  1  0  0  0  0
 30 63  1  0  0  0  0
 31 64  1  0  0  0  0
 31 65  1  0  0  0  0
 31 66  1  0  0  0  0
 32 67  1  0  0  0  0
 32 68  1  0  0  0  0
 32 69  1  0  0  0  0
 33 34  1  0  0  0  0
 34 70  1  0  0  0  0
 34 71  1  0  0  0  0
 34 72  1  0  0  0  0
M  END
> <PUBCHEM_COMPOUND_CID>
198036

> <PUBCHEM_COMPOUND_CANONICALIZED>
1

> <PUBCHEM_CACTVS_COMPLEXITY>
993

> <PUBCHEM_CACTVS_HBOND_ACCEPTOR>
7

> <PUBCHEM_CACTVS_HBOND_DONOR>
2

> <PUBCHEM_CACTVS_ROTATABLE_BOND>
7

> <PUBCHEM_CACTVS_SUBSKEYS>
AAADcfB4OAAAAAAAAAAAAAAAGAAAAQAAAAAwAAAABggAAACAAAAAGgAACAAAD0SggAICCAAABgCIAqDSCAIAAAAgAAAACAFAAEgABBIAIQACUAAFwAAIIYPK7PyPgAAAAAAAAADCAAYAADAAAAAAAAAAAA==

> <PUBCHEM_IUPAC_INCHI>
InChI=1S/C27H38O7/c1-8-14(2)23(30)34-26-11-16(4)27(32)19(21(26)24(26,6)7)10-18(13-33-17(5)28)12-25(31)20(27)9-15(3)22(25)29/h9-10,14,16,19-21,31-32H,8,11-13H2,1-7H3/t14?,16-,19+,20-,21-,25-,26+,27-/m1/s1

> <PUBCHEM_IUPAC_INCHIKEY>
QOSLYAARSBMQOF-NBJLYKDOSA-N

> <PUBCHEM_XLOGP3_AA>
2.7

> <PUBCHEM_EXACT_MASS>
474.261754

> <PUBCHEM_MOLECULAR_FORMULA>
C27H38O7

> <PUBCHEM_MOLECULAR_WEIGHT>
474.58642

> <PUBCHEM_OPENEYE_CAN_SMILES>
CCC(C)C(=O)OC12CC(C3(C(C1C2(C)C)C=C(CC4(C3C=C(C4=O)C)O)COC(=O)C)O)C

> <PUBCHEM_OPENEYE_ISO_SMILES>
CCC(C)C(=O)O[C@@]12C[C@H]([C@]3([C@H]([C@@H]1C2(C)C)C=C(C[C@]4([C@H]3C=C(C4=O)C)O)COC(=O)C)O)C

> <PUBCHEM_CACTVS_TPSA>
110

> <PUBCHEM_MONOISOTOPIC_WEIGHT>
474.261754

> <PUBCHEM_TOTAL_CHARGE>
0

> <PUBCHEM_HEAVY_ATOM_COUNT>
34

> <PUBCHEM_ATOM_DEF_STEREO_COUNT>
7

> <PUBCHEM_ATOM_UDEF_STEREO_COUNT>
1

> <PUBCHEM_BOND_DEF_STEREO_COUNT>
0

> <PUBCHEM_BOND_UDEF_STEREO_COUNT>
0

> <PUBCHEM_ISOTOPIC_ATOM_COUNT>
0

> <PUBCHEM_COMPONENT_COUNT>
1

> <PUBCHEM_CACTVS_TAUTO_COUNT>
3

> <PUBCHEM_COORDINATE_TYPE>
1
5
255

> <PUBCHEM_BONDANNOTATIONS>
9  1  5
11  36  6
14  20  5
17  46  5
12  2  5
28  58  3
19  3  6
8  35  5

$$$$

