5189
  -OEChem-06261200342D

 46 49  0     0  0  0  0  0  0999 V2000
   11.0774    2.6054    0.0000 S   0  0  0  0  0  0  0  0  0  0  0  0
    6.6428   -1.8892    0.0000 S   0  0  0  0  0  0  0  0  0  0  0  0
    3.5823   -1.9355    0.0000 O   0  0  0  0  0  0  0  0  0  0  0  0
    3.7634   -0.2130    0.0000 O   0  0  0  0  0  0  0  0  0  0  0  0
    9.3454    0.6054    0.0000 N   0  0  0  0  0  0  0  0  0  0  0  0
    7.6133   -0.3946    0.0000 N   0  0  0  0  0  0  0  0  0  0  0  0
   11.0774    0.6054    0.0000 N   0  0  0  0  0  0  0  0  0  0  0  0
    5.8338   -0.4879    0.0000 N   0  0  0  0  0  0  0  0  0  0  0  0
    9.3454   -0.3946    0.0000 C   0  0  0  0  0  0  0  0  0  0  0  0
    8.4793    1.1054    0.0000 C   0  0  0  0  0  0  0  0  0  0  0  0
    7.6133    0.6054    0.0000 C   0  0  0  0  0  0  0  0  0  0  0  0
    8.4793   -0.8946    0.0000 C   0  0  0  0  0  0  0  0  0  0  0  0
   10.2114    1.1054    0.0000 C   0  0  0  0  0  0  0  0  0  0  0  0
    6.7473   -0.8946    0.0000 C   0  0  0  0  0  0  0  0  0  0  0  0
   10.2114    2.1054    0.0000 C   0  0  0  0  0  0  0  0  0  0  0  0
   11.9434    1.1054    0.0000 C   0  0  0  0  0  0  0  0  0  0  0  0
   11.9434    2.1054    0.0000 C   0  0  0  0  0  0  0  0  0  0  0  0
    5.1646   -1.2310    0.0000 C   0  0  0  0  0  0  0  0  0  0  0  0
    5.6646   -2.0971    0.0000 C   0  0  0  0  0  0  0  0  0  0  0  0
   12.8374    0.5707    0.0000 C   0  0  0  0  0  0  0  0  0  0  0  0
   12.8374    2.6400    0.0000 C   0  0  0  0  0  0  0  0  0  0  0  0
   13.7435    1.0845    0.0000 C   0  0  0  0  0  0  0  0  0  0  0  0
   13.7435    2.1262    0.0000 C   0  0  0  0  0  0  0  0  0  0  0  0
    4.1701   -1.1265    0.0000 C   0  0  0  0  0  0  0  0  0  0  0  0
    2.5878   -1.8310    0.0000 C   0  0  0  0  0  0  0  0  0  0  0  0
    2.0000   -2.6400    0.0000 C   0  0  0  0  0  0  0  0  0  0  0  0
    8.8779    1.5803    0.0000 H   0  0  0  0  0  0  0  0  0  0  0  0
    8.0808    1.5803    0.0000 H   0  0  0  0  0  0  0  0  0  0  0  0
    9.5574   -0.9772    0.0000 H   0  0  0  0  0  0  0  0  0  0  0  0
    9.9560   -0.2870    0.0000 H   0  0  0  0  0  0  0  0  0  0  0  0
    7.4013    1.1880    0.0000 H   0  0  0  0  0  0  0  0  0  0  0  0
    7.0027    0.4977    0.0000 H   0  0  0  0  0  0  0  0  0  0  0  0
    8.0808   -1.3696    0.0000 H   0  0  0  0  0  0  0  0  0  0  0  0
    8.8779   -1.3696    0.0000 H   0  0  0  0  0  0  0  0  0  0  0  0
    9.9993    2.6880    0.0000 H   0  0  0  0  0  0  0  0  0  0  0  0
    9.6008    1.9977    0.0000 H   0  0  0  0  0  0  0  0  0  0  0  0
    5.4124   -2.6635    0.0000 H   0  0  0  0  0  0  0  0  0  0  0  0
   12.8302   -0.0493    0.0000 H   0  0  0  0  0  0  0  0  0  0  0  0
   12.8302    3.2600    0.0000 H   0  0  0  0  0  0  0  0  0  0  0  0
   14.2792    0.7725    0.0000 H   0  0  0  0  0  0  0  0  0  0  0  0
   14.2792    2.4382    0.0000 H   0  0  0  0  0  0  0  0  0  0  0  0
    2.7587   -1.2350    0.0000 H   0  0  0  0  0  0  0  0  0  0  0  0
    2.0305   -1.5592    0.0000 H   0  0  0  0  0  0  0  0  0  0  0  0
    1.4984   -2.2756    0.0000 H   0  0  0  0  0  0  0  0  0  0  0  0
    1.6356   -3.1416    0.0000 H   0  0  0  0  0  0  0  0  0  0  0  0
    2.5016   -3.0044    0.0000 H   0  0  0  0  0  0  0  0  0  0  0  0
  1 15  1  0  0  0  0
  1 17  1  0  0  0  0
  2 14  1  0  0  0  0
  2 19  1  0  0  0  0
  3 24  1  0  0  0  0
  3 25  1  0  0  0  0
  4 24  2  0  0  0  0
  5  9  1  0  0  0  0
  5 10  1  0  0  0  0
  5 13  1  0  0  0  0
  6 11  1  0  0  0  0
  6 12  1  0  0  0  0
  6 14  1  0  0  0  0
  7 13  2  0  0  0  0
  7 16  1  0  0  0  0
  8 14  2  0  0  0  0
  8 18  1  0  0  0  0
  9 12  1  0  0  0  0
  9 29  1  0  0  0  0
  9 30  1  0  0  0  0
 10 11  1  0  0  0  0
 10 27  1  0  0  0  0
 10 28  1  0  0  0  0
 11 31  1  0  0  0  0
 11 32  1  0  0  0  0
 12 33  1  0  0  0  0
 12 34  1  0  0  0  0
 13 15  1  0  0  0  0
 15 35  1  0  0  0  0
 15 36  1  0  0  0  0
 16 17  1  0  0  0  0
 16 20  2  0  0  0  0
 17 21  2  0  0  0  0
 18 19  2  0  0  0  0
 18 24  1  0  0  0  0
 19 37  1  0  0  0  0
 20 22  1  0  0  0  0
 20 38  1  0  0  0  0
 21 23  1  0  0  0  0
 21 39  1  0  0  0  0
 22 23  2  0  0  0  0
 22 40  1  0  0  0  0
 23 41  1  0  0  0  0
 25 26  1  0  0  0  0
 25 42  1  0  0  0  0
 25 43  1  0  0  0  0
 26 44  1  0  0  0  0
 26 45  1  0  0  0  0
 26 46  1  0  0  0  0
M  END
> <PUBCHEM_COMPOUND_CID>
5189

> <PUBCHEM_COMPOUND_CANONICALIZED>
1

> <PUBCHEM_CACTVS_COMPLEXITY>
539

> <PUBCHEM_CACTVS_HBOND_ACCEPTOR>
7

> <PUBCHEM_CACTVS_HBOND_DONOR>
0

> <PUBCHEM_CACTVS_ROTATABLE_BOND>
5

> <PUBCHEM_CACTVS_SUBSKEYS>
AAADceB7sABgAAAAAAAAAAAAAAAAAWAAAAA8QIAAAAAAAACBwAAAHgQAAAAACAjl1gaz2ZMIFAisASbybASC8KlnCjgJiB2YbMiKZCKgubmTIABogAK46KcQAAAAAAAAAAAAAQAAAAAAAAACAAAAAAAAAA==

> <PUBCHEM_IUPAC_OPENEYE_NAME>
ethyl 2-[4-(2H-1,4-benzothiazin-3-yl)piperazin-1-yl]thiazole-4-carboxylate

> <PUBCHEM_IUPAC_CAS_NAME>
2-[4-(2H-1,4-benzothiazin-3-yl)-1-piperazinyl]-4-thiazolecarboxylic acid ethyl ester

> <PUBCHEM_IUPAC_NAME>
ethyl 2-[4-(2H-1,4-benzothiazin-3-yl)piperazin-1-yl]-1,3-thiazole-4-carboxylate

> <PUBCHEM_IUPAC_SYSTEMATIC_NAME>
ethyl 2-[4-(2H-1,4-benzothiazin-3-yl)piperazin-1-yl]-1,3-thiazole-4-carboxylate

> <PUBCHEM_IUPAC_TRADITIONAL_NAME>
2-[4-(2H-1,4-benzothiazin-3-yl)piperazino]thiazole-4-carboxylic acid ethyl ester

> <PUBCHEM_IUPAC_INCHI>
InChI=1S/C18H20N4O2S2/c1-2-24-17(23)14-11-26-18(20-14)22-9-7-21(8-10-22)16-12-25-15-6-4-3-5-13(15)19-16/h3-6,11H,2,7-10,12H2,1H3

> <PUBCHEM_IUPAC_INCHIKEY>
AQJQFCRTSWIUCY-UHFFFAOYSA-N

> <PUBCHEM_XLOGP3_AA>
3.2

> <PUBCHEM_EXACT_MASS>
388.102768

> <PUBCHEM_MOLECULAR_FORMULA>
C18H20N4O2S2

> <PUBCHEM_MOLECULAR_WEIGHT>
388.507

> <PUBCHEM_OPENEYE_CAN_SMILES>
CCOC(=O)C1=CSC(=N1)N2CCN(CC2)C3=NC4=CC=CC=C4SC3

> <PUBCHEM_OPENEYE_ISO_SMILES>
CCOC(=O)C1=CSC(=N1)N2CCN(CC2)C3=NC4=CC=CC=C4SC3

> <PUBCHEM_CACTVS_TPSA>
112

> <PUBCHEM_MONOISOTOPIC_WEIGHT>
388.102768

> <PUBCHEM_TOTAL_CHARGE>
0

> <PUBCHEM_HEAVY_ATOM_COUNT>
26

> <PUBCHEM_ATOM_DEF_STEREO_COUNT>
0

> <PUBCHEM_ATOM_UDEF_STEREO_COUNT>
0

> <PUBCHEM_BOND_DEF_STEREO_COUNT>
0

> <PUBCHEM_BOND_UDEF_STEREO_COUNT>
0

> <PUBCHEM_ISOTOPIC_ATOM_COUNT>
0

> <PUBCHEM_COMPONENT_COUNT>
1

> <PUBCHEM_CACTVS_TAUTO_COUNT>
2

> <PUBCHEM_COORDINATE_TYPE>
1
5
255

> <PUBCHEM_BONDANNOTATIONS>
16  17  8
16  20  8
17  21  8
18  19  8
2  14  8
2  19  8
20  22  8
21  23  8
22  23  8
8  14  8
8  18  8

$$$$

