8806
  -OEChem-06261203073D

 26 27  0     0  0  0  0  0  0999 V2000
    5.0433    1.8715   -0.3241 Cl  0  0  0  0  0  0  0  0  0  0  0  0
   -4.9709    1.9820   -0.5250 Cl  0  0  0  0  0  0  0  0  0  0  0  0
   -0.0600   -3.5672   -0.6802 N   0  0  0  0  0  0  0  0  0  0  0  0
   -0.0186   -1.2277    0.5698 C   0  0  0  0  0  0  0  0  0  0  0  0
    1.2398   -0.4583    0.3482 C   0  0  0  0  0  0  0  0  0  0  0  0
   -1.2842   -0.4084    0.2895 C   0  0  0  0  0  0  0  0  0  0  0  0
    1.7103    0.4082    1.3345 C   0  0  0  0  0  0  0  0  0  0  0  0
   -1.2892    0.4409   -0.7909 C   0  0  0  0  0  0  0  0  0  0  0  0
    1.9455   -0.6046   -0.8462 C   0  0  0  0  0  0  0  0  0  0  0  0
   -2.3608   -0.5567    1.1310 C   0  0  0  0  0  0  0  0  0  0  0  0
    2.8865    1.1287    1.1268 C   0  0  0  0  0  0  0  0  0  0  0  0
   -2.4400    1.1871   -1.0451 C   0  0  0  0  0  0  0  0  0  0  0  0
    3.1218    0.1158   -1.0541 C   0  0  0  0  0  0  0  0  0  0  0  0
   -3.5116    0.1893    0.8767 C   0  0  0  0  0  0  0  0  0  0  0  0
   -0.0530   -2.5441   -0.1319 C   0  0  0  0  0  0  0  0  0  0  0  0
    3.5924    0.9824   -0.0675 C   0  0  0  0  0  0  0  0  0  0  0  0
   -3.5513    1.0612   -0.2115 C   0  0  0  0  0  0  0  0  0  0  0  0
   -0.0295   -1.4822    1.6416 H   0  0  0  0  0  0  0  0  0  0  0  0
    1.1699    0.5335    2.2692 H   0  0  0  0  0  0  0  0  0  0  0  0
   -0.4529    0.5489   -1.4714 H   0  0  0  0  0  0  0  0  0  0  0  0
    1.6012   -1.2550   -1.6450 H   0  0  0  0  0  0  0  0  0  0  0  0
   -2.3386   -1.2342    1.9787 H   0  0  0  0  0  0  0  0  0  0  0  0
    3.2409    1.8008    1.9040 H   0  0  0  0  0  0  0  0  0  0  0  0
   -2.4586    1.8594   -1.8991 H   0  0  0  0  0  0  0  0  0  0  0  0
    3.6593   -0.0047   -1.9913 H   0  0  0  0  0  0  0  0  0  0  0  0
   -4.3701    0.0808    1.5346 H   0  0  0  0  0  0  0  0  0  0  0  0
  1 16  1  0  0  0  0
  2 17  1  0  0  0  0
  3 15  3  0  0  0  0
  4  5  1  0  0  0  0
  4  6  1  0  0  0  0
  4 15  1  0  0  0  0
  4 18  1  0  0  0  0
  5  7  2  0  0  0  0
  5  9  1  0  0  0  0
  6  8  2  0  0  0  0
  6 10  1  0  0  0  0
  7 11  1  0  0  0  0
  7 19  1  0  0  0  0
  8 12  1  0  0  0  0
  8 20  1  0  0  0  0
  9 13  2  0  0  0  0
  9 21  1  0  0  0  0
 10 14  2  0  0  0  0
 10 22  1  0  0  0  0
 11 16  2  0  0  0  0
 11 23  1  0  0  0  0
 12 17  2  0  0  0  0
 12 24  1  0  0  0  0
 13 16  1  0  0  0  0
 13 25  1  0  0  0  0
 14 17  1  0  0  0  0
 14 26  1  0  0  0  0
M  END
> <PUBCHEM_COMPOUND_CID>
8806

> <PUBCHEM_CONFORMER_RMSD>
0.6

> <PUBCHEM_CONFORMER_DIVERSEORDER>
1
2

> <PUBCHEM_MMFF94_PARTIAL_CHARGES>
25
1 -0.18
10 -0.15
11 -0.15
12 -0.15
13 -0.15
14 -0.15
15 0.36
16 0.18
17 0.18
19 0.15
2 -0.18
20 0.15
21 0.15
22 0.15
23 0.15
24 0.15
25 0.15
26 0.15
3 -0.56
4 0.49
5 -0.14
6 -0.14
7 -0.15
8 -0.15
9 -0.15

> <PUBCHEM_EFFECTIVE_ROTOR_COUNT>
2

> <PUBCHEM_PHARMACOPHORE_FEATURES>
3
1 3 acceptor
6 5 7 9 11 13 16 rings
6 6 8 10 12 14 17 rings

> <PUBCHEM_HEAVY_ATOM_COUNT>
17

> <PUBCHEM_ATOM_DEF_STEREO_COUNT>
0

> <PUBCHEM_ATOM_UDEF_STEREO_COUNT>
0

> <PUBCHEM_BOND_DEF_STEREO_COUNT>
0

> <PUBCHEM_BOND_UDEF_STEREO_COUNT>
0

> <PUBCHEM_ISOTOPIC_ATOM_COUNT>
0

> <PUBCHEM_COMPONENT_COUNT>
1

> <PUBCHEM_CACTVS_TAUTO_COUNT>
1

> <PUBCHEM_CONFORMER_ID>
0000226600000001

> <PUBCHEM_MMFF94_ENERGY>
43.9726

> <PUBCHEM_FEATURE_SELFOVERLAP>
15.223

> <PUBCHEM_SHAPE_FINGERPRINT>
10165383 225 18263346045324127096
10498660 4 18412825802430452885
10618630 7 8935005879818036464
107287 299 18340200916379816843
11031198 65 18264211473034615839
11132069 177 17917987295978140933
12138202 97 18189052010755813406
12251169 10 15770058332467212744
12403259 415 18340472435189532846
12500047 106 18263081033595326158
12633257 1 14476958956838488192
12707595 3 8790592724091085833
12730499 353 18337102475754466059
13681431 1 17614561866277580407
13764800 53 18201996651190939865
13955234 65 18124310764699924371
14341114 328 16128363861727990740
15309172 13 18410570678253525699
15775835 57 18272936007401022576
15885798 251 9439406856440716263
16945 1 17774996847941149955
17134986 127 18410014355334558190
17357779 13 17536889775321649303
17539 30 17829056420027454222
17834072 32 18341050718477563452
17980427 23 17561079168855732173
1813 80 11167657745634291186
18186145 218 18114172047314558634
200 152 7493010665162075088
20281475 54 7997964708817565201
20361792 2 10592041379680121107
204376 136 18410293605576108255
20645477 56 18264761070092963048
20671657 53 5472860367863352122
20871998 22 9439395826553431750
21296965 67 9223227451297503271
21524375 3 18341900700794390874
21618674 25 18343022246237248429
23227448 37 18121778327254175212
23402539 116 18334583421358330468
23402655 69 17603583045152895952
23403322 49 7637411717444611620
23557571 272 18337102350446027280
23559900 14 17345180306623790931
25 1 17894904140121585666
3060560 45 18261398896120106183
3082319 5 15502376724847909193
3729539 64 18048570880725409262
458136 41 18335691797672186763
495365 180 18264502856506094739
5104073 3 17845929753685776921
633830 44 17678155256785314561
6442390 28 18408878512895300123
7364860 26 18121222244710730367
7808743 9 18270399365620608196
81228 2 17905052447472870331
90316 7 16271930441115342965
9925002 15 17692799403258940047

> <PUBCHEM_SHAPE_MULTIPOLES>
348.61
8.51
2.5
1.21
0.01
2.17
-0.14
-8.14
0.73
-0.23
0.68
0.13
-0.05
0.71

> <PUBCHEM_SHAPE_SELFOVERLAP>
732.823

> <PUBCHEM_SHAPE_VOLUME>
196.9

> <PUBCHEM_COORDINATE_TYPE>
2
5
10

$$$$

