439916
  -OEChem-07051212483D

 30 30  0     1  0  0  0  0  0999 V2000
   -1.1937    1.1967   -0.1070 O   0  0  0  0  0  0  0  0  0  0  0  0
   -0.2822   -1.9199   -1.6779 O   0  0  0  0  0  0  0  0  0  0  0  0
   -1.7290   -2.3769    0.6227 O   0  0  0  0  0  0  0  0  0  0  0  0
    0.4711    2.3240   -1.3242 O   0  0  0  0  0  0  0  0  0  0  0  0
   -3.8374    1.3535    0.6111 O   0  0  0  0  0  0  0  0  0  0  0  0
    3.6231   -0.6290   -0.2140 O   0  0  0  0  0  0  0  0  0  0  0  0
    1.6377    0.4278    0.3857 N   0  0  0  0  0  0  0  0  0  0  0  0
    0.1554   -1.3312   -0.4512 C   0  0  1  0  0  0  0  0  0  0  0  0
    0.8404    0.0079   -0.7487 C   0  0  1  0  0  0  0  0  0  0  0  0
   -1.0244   -1.1463    0.5143 C   0  0  1  0  0  0  0  0  0  0  0  0
   -1.9510   -0.0073    0.0651 C   0  0  1  0  0  0  0  0  0  0  0  0
   -0.1966    1.0805   -1.1223 C   0  0  1  0  0  0  0  0  0  0  0  0
   -3.0375    0.2898    1.0944 C   0  0  0  0  0  0  0  0  0  0  0  0
    2.9637    0.0696    0.5515 C   0  0  0  0  0  0  0  0  0  0  0  0
    3.5606    0.6608    1.8004 C   0  0  0  0  0  0  0  0  0  0  0  0
    0.8708   -2.0417   -0.0191 H   0  0  0  0  0  0  0  0  0  0  0  0
    1.5240   -0.1107   -1.5994 H   0  0  0  0  0  0  0  0  0  0  0  0
   -0.6242   -0.9015    1.5066 H   0  0  0  0  0  0  0  0  0  0  0  0
   -2.4380   -0.2547   -0.8876 H   0  0  0  0  0  0  0  0  0  0  0  0
   -0.6832    0.8137   -2.0691 H   0  0  0  0  0  0  0  0  0  0  0  0
   -2.6006    0.6159    2.0438 H   0  0  0  0  0  0  0  0  0  0  0  0
   -3.6766   -0.5787    1.2800 H   0  0  0  0  0  0  0  0  0  0  0  0
    1.1805    0.9731    1.1111 H   0  0  0  0  0  0  0  0  0  0  0  0
   -0.7501   -2.7425   -1.4544 H   0  0  0  0  0  0  0  0  0  0  0  0
   -1.1001   -3.0494    0.9355 H   0  0  0  0  0  0  0  0  0  0  0  0
   -0.0800    2.8494   -1.9288 H   0  0  0  0  0  0  0  0  0  0  0  0
   -4.2546    1.0576   -0.2159 H   0  0  0  0  0  0  0  0  0  0  0  0
    4.5602    0.2484    1.9627 H   0  0  0  0  0  0  0  0  0  0  0  0
    3.6334    1.7466    1.6933 H   0  0  0  0  0  0  0  0  0  0  0  0
    2.9366    0.4202    2.6660 H   0  0  0  0  0  0  0  0  0  0  0  0
  1 11  1  0  0  0  0
  1 12  1  0  0  0  0
  2  8  1  0  0  0  0
  2 24  1  0  0  0  0
  3 10  1  0  0  0  0
  3 25  1  0  0  0  0
  4 12  1  0  0  0  0
  4 26  1  0  0  0  0
  5 13  1  0  0  0  0
  5 27  1  0  0  0  0
  6 14  2  0  0  0  0
  7  9  1  0  0  0  0
  7 14  1  0  0  0  0
  7 23  1  0  0  0  0
  8  9  1  0  0  0  0
  8 10  1  0  0  0  0
  8 16  1  0  0  0  0
  9 12  1  0  0  0  0
  9 17  1  0  0  0  0
 10 11  1  0  0  0  0
 10 18  1  0  0  0  0
 11 13  1  0  0  0  0
 11 19  1  0  0  0  0
 12 20  1  0  0  0  0
 13 21  1  0  0  0  0
 13 22  1  0  0  0  0
 14 15  1  0  0  0  0
 15 28  1  0  0  0  0
 15 29  1  0  0  0  0
 15 30  1  0  0  0  0
M  END
> <PUBCHEM_COMPOUND_CID>
439916

> <PUBCHEM_CONFORMER_RMSD>
0.6

> <PUBCHEM_CONFORMER_DIVERSEORDER>
7
32
165
119
151
3
148
86
101
153
91
33
159
40
128
120
113
138
147
76
65
73
141
1
98
129
117
122
37
155
109
72
57
144
132
161
61
36
64
95
51
160
131
105
137
123
112
94
55
100
85
99
125
93
66
78
111
84
126
77
22
60
62
116
164
71
29
104
43
133
58
48
150
154
149
118
108
8
152
88
14
136
18
142
26
68
11
110
115
35
143
124
156
97
45
28
75
127
9
121
140
96
89
54
162
103
166
81
46
87
158
106
5
107
82
145
146
79
157
114
49
135
50
24
39
102
34
67
53
52
130
139
56
80
4
69
21
15
92
23
163
83
134
16
59
2
20
74
70
25
30
13
41
90
38
47
12
19
6
44
63
27
42
31
17
10

> <PUBCHEM_MMFF94_PARTIAL_CHARGES>
20
1 -0.56
10 0.28
11 0.28
12 0.56
13 0.28
14 0.57
15 0.06
2 -0.68
23 0.37
24 0.4
25 0.4
26 0.4
27 0.4
3 -0.68
4 -0.68
5 -0.68
6 -0.57
7 -0.73
8 0.28
9 0.3

> <PUBCHEM_EFFECTIVE_ROTOR_COUNT>
4.2

> <PUBCHEM_PHARMACOPHORE_FEATURES>
12
1 1 acceptor
1 2 acceptor
1 2 donor
1 3 acceptor
1 3 donor
1 4 acceptor
1 4 donor
1 5 acceptor
1 5 donor
1 6 acceptor
1 7 donor
6 1 8 9 10 11 12 rings

> <PUBCHEM_HEAVY_ATOM_COUNT>
15

> <PUBCHEM_ATOM_DEF_STEREO_COUNT>
1

> <PUBCHEM_ATOM_UDEF_STEREO_COUNT>
4

> <PUBCHEM_BOND_DEF_STEREO_COUNT>
0

> <PUBCHEM_BOND_UDEF_STEREO_COUNT>
0

> <PUBCHEM_ISOTOPIC_ATOM_COUNT>
0

> <PUBCHEM_COMPONENT_COUNT>
1

> <PUBCHEM_CACTVS_TAUTO_COUNT>
2

> <PUBCHEM_CONFORMER_ID>
0006B66C00000007

> <PUBCHEM_MMFF94_ENERGY>
30.0477

> <PUBCHEM_FEATURE_SELFOVERLAP>
60.952

> <PUBCHEM_SHAPE_FINGERPRINT>
11132069 177 18411144648876841560
11680611 10 17842537579629873339
12119455 92 18042132096896781127
12251169 10 18341891866078136144
12423570 1 13309384720171074373
13024252 1 16486155996456990774
13172582 1 18343575248608503917
13296909 8 17968665891125016859
13380536 53 18269545186375953524
13571099 52 17458623432220423281
15375462 189 17060337397000641640
15852999 172 18260536857930260107
16945 1 18272654557988315749
187816 3 8070020078015103936
20388701 513 17915174839618380765
20511035 2 18194951959763759589
20653085 51 15574719066928236224
23382010 3 6771279129187076257
23388829 49 17617105706939978684
23402539 116 18336555924055090439
23419403 2 15906887276551732495
2748010 2 17911227635929332821
3250762 1 17262724781202825469
4175511 71 17988630878996690652
68419 9 17759515573845305444
81228 2 18121523287748241854
90316 7 17988654011738175284

> <PUBCHEM_SHAPE_MULTIPOLES>
268.5
5.29
1.95
1.41
1.9
0.35
0.03
-1.24
-3.18
-0.92
0.55
0.43
-0.16
0.15

> <PUBCHEM_SHAPE_SELFOVERLAP>
534.758

> <PUBCHEM_SHAPE_VOLUME>
156.3

> <PUBCHEM_COORDINATE_TYPE>
2
5
10

$$$$

