5281153
  -OEChem-07051212552D

 26 27  0     1  0  0  0  0  0999 V2000
    2.8954   -2.1006    0.0000 O   0  0  0  0  0  0  0  0  0  0  0  0
    2.8954   -3.2762    0.0000 O   0  0  0  0  0  0  0  0  0  0  0  0
    5.4645   -2.9671    0.0000 O   0  0  0  0  0  0  0  0  0  0  0  0
    3.7044   -2.6884    0.0000 C   0  0  3  0  0  0  0  0  0  0  0  0
    4.5134   -3.2762    0.0000 C   0  0  3  0  0  0  0  0  0  0  0  0
    4.5134   -2.1006    0.0000 C   0  0  0  0  0  0  0  0  0  0  0  0
    4.2044   -4.2272    0.0000 C   0  0  0  0  0  0  0  0  0  0  0  0
    4.2044   -1.1495    0.0000 C   0  0  0  0  0  0  0  0  0  0  0  0
    3.2044   -1.1495    0.0000 C   0  0  0  0  0  0  0  0  0  0  0  0
    3.2044   -4.2272    0.0000 C   0  0  0  0  0  0  0  0  0  0  0  0
    2.6166   -0.3405    0.0000 C   0  0  0  0  0  0  0  0  0  0  0  0
    3.0233    0.5730    0.0000 C   0  0  0  0  0  0  0  0  0  0  0  0
    3.4301    1.4866    0.0000 C   0  0  0  0  0  0  0  0  0  0  0  0
    3.8368    2.4001    0.0000 C   0  0  0  0  0  0  0  0  0  0  0  0
    4.2436    3.3137    0.0000 C   0  0  0  0  0  0  0  0  0  0  0  0
    4.6503    4.2272    0.0000 C   0  0  0  0  0  0  0  0  0  0  0  0
    5.1144   -3.8772    0.0000 H   0  0  0  0  0  0  0  0  0  0  0  0
    5.1031   -2.2922    0.0000 H   0  0  0  0  0  0  0  0  0  0  0  0
    4.5688   -4.7288    0.0000 H   0  0  0  0  0  0  0  0  0  0  0  0
    4.5688   -0.6479    0.0000 H   0  0  0  0  0  0  0  0  0  0  0  0
    2.8400   -4.7288    0.0000 H   0  0  0  0  0  0  0  0  0  0  0  0
    5.9252   -3.3820    0.0000 H   0  0  0  0  0  0  0  0  0  0  0  0
    2.0000   -0.4053    0.0000 H   0  0  0  0  0  0  0  0  0  0  0  0
    5.2167    3.9750    0.0000 H   0  0  0  0  0  0  0  0  0  0  0  0
    4.9025    4.7936    0.0000 H   0  0  0  0  0  0  0  0  0  0  0  0
    4.0839    4.4794    0.0000 H   0  0  0  0  0  0  0  0  0  0  0  0
  1  4  1  0  0  0  0
  1  9  1  0  0  0  0
  2  4  1  0  0  0  0
  2 10  1  0  0  0  0
  3  5  1  0  0  0  0
  3 22  1  0  0  0  0
  4  5  1  0  0  0  0
  4  6  1  0  0  0  0
  5  7  1  0  0  0  0
  5 17  1  0  0  0  0
  6  8  2  0  0  0  0
  6 18  1  0  0  0  0
  7 10  2  0  0  0  0
  7 19  1  0  0  0  0
  8  9  1  0  0  0  0
  8 20  1  0  0  0  0
  9 11  2  0  0  0  0
 10 21  1  0  0  0  0
 11 12  1  0  0  0  0
 11 23  1  0  0  0  0
 12 13  3  0  0  0  0
 13 14  1  0  0  0  0
 14 15  3  0  0  0  0
 15 16  1  0  0  0  0
 16 24  1  0  0  0  0
 16 25  1  0  0  0  0
 16 26  1  0  0  0  0
M  END
> <PUBCHEM_COMPOUND_CID>
5281153

> <PUBCHEM_COMPOUND_CANONICALIZED>
1

> <PUBCHEM_CACTVS_COMPLEXITY>
512

> <PUBCHEM_CACTVS_HBOND_ACCEPTOR>
3

> <PUBCHEM_CACTVS_HBOND_DONOR>
1

> <PUBCHEM_CACTVS_ROTATABLE_BOND>
1

> <PUBCHEM_CACTVS_SUBSKEYS>
AAADccBwMAAAAAAAAAAAAAAAAAAAAQIAAAAAAAAAAAAAAAAAAAAAGgAACAAACBSggAICCAAABgDAECBCAAAACAAgIAAICAAAAAgZFAAAIQAiUAAAwAAPsAIAAAAAAAAAAAAAAAAAAAAAAAAAAAAAAAAAAA==

> <PUBCHEM_IUPAC_OPENEYE_NAME>
(2E)-2-hexa-2,4-diynylidene-1,6-dioxaspiro[4.4]nona-3,7-dien-9-ol

> <PUBCHEM_IUPAC_CAS_NAME>
(2E)-2-hexa-2,4-diynylidene-1,6-dioxaspiro[4.4]nona-3,7-dien-9-ol

> <PUBCHEM_IUPAC_NAME>
(2E)-2-hexa-2,4-diynylidene-1,6-dioxaspiro[4.4]nona-3,7-dien-9-ol

> <PUBCHEM_IUPAC_SYSTEMATIC_NAME>
(2E)-2-hexa-2,4-diynylidene-1,6-dioxaspiro[4.4]nona-3,7-dien-9-ol

> <PUBCHEM_IUPAC_TRADITIONAL_NAME>
(2E)-2-hexa-2,4-diynylidene-1,6-dioxaspiro[4.4]nona-3,7-dien-9-ol

> <PUBCHEM_IUPAC_INCHI>
InChI=1S/C13H10O3/c1-2-3-4-5-6-11-7-9-13(16-11)12(14)8-10-15-13/h6-10,12,14H,1H3/b11-6+

> <PUBCHEM_IUPAC_INCHIKEY>
FZRGCIPZQGXDCM-IZZDOVSWSA-N

> <PUBCHEM_XLOGP3_AA>
1.6

> <PUBCHEM_EXACT_MASS>
214.062994

> <PUBCHEM_MOLECULAR_FORMULA>
C13H10O3

> <PUBCHEM_MOLECULAR_WEIGHT>
214.2167

> <PUBCHEM_OPENEYE_CAN_SMILES>
CC#CC#CC=C1C=CC2(O1)C(C=CO2)O

> <PUBCHEM_OPENEYE_ISO_SMILES>
CC#CC#C/C=C/1\C=CC2(O1)C(C=CO2)O

> <PUBCHEM_CACTVS_TPSA>
38.7

> <PUBCHEM_MONOISOTOPIC_WEIGHT>
214.062994

> <PUBCHEM_TOTAL_CHARGE>
0

> <PUBCHEM_HEAVY_ATOM_COUNT>
16

> <PUBCHEM_ATOM_DEF_STEREO_COUNT>
0

> <PUBCHEM_ATOM_UDEF_STEREO_COUNT>
2

> <PUBCHEM_BOND_DEF_STEREO_COUNT>
1

> <PUBCHEM_BOND_UDEF_STEREO_COUNT>
0

> <PUBCHEM_ISOTOPIC_ATOM_COUNT>
0

> <PUBCHEM_COMPONENT_COUNT>
1

> <PUBCHEM_CACTVS_TAUTO_COUNT>
1

> <PUBCHEM_COORDINATE_TYPE>
1
5
255

> <PUBCHEM_BONDANNOTATIONS>
4  6  3
5  17  3

$$$$

