17395513
  -OEChem-06241222502D

 44 46  0     0  0  0  0  0  0999 V2000
    6.9809    3.0156    0.0000 S   0  0  0  0  0  0  0  0  0  0  0  0
    6.2619   -1.8632    0.0000 O   0  0  0  0  0  0  0  0  0  0  0  0
    5.6103    1.7931    0.0000 O   0  0  0  0  0  0  0  0  0  0  0  0
    4.6783   -2.6679    0.0000 N   0  0  0  0  0  0  0  0  0  0  0  0
    4.6783   -1.0584    0.0000 N   0  0  0  0  0  0  0  0  0  0  0  0
    7.2566    1.2550    0.0000 N   0  0  0  0  0  0  0  0  0  0  0  0
    8.5189    2.5129    0.0000 N   0  0  0  0  0  0  0  0  0  0  0  0
    3.7320   -1.3632    0.0000 C   0  0  0  0  0  0  0  0  0  0  0  0
    3.7320   -2.3632    0.0000 C   0  0  0  0  0  0  0  0  0  0  0  0
    5.2619   -1.8632    0.0000 C   0  0  0  0  0  0  0  0  0  0  0  0
    4.9889   -3.6184    0.0000 C   0  0  0  0  0  0  0  0  0  0  0  0
    4.9889   -0.1079    0.0000 C   0  0  0  0  0  0  0  0  0  0  0  0
    5.9674   -3.8246    0.0000 C   0  0  0  0  0  0  0  0  0  0  0  0
    5.9674    0.0983    0.0000 C   0  0  0  0  0  0  0  0  0  0  0  0
    2.8660   -0.8632    0.0000 C   0  0  0  0  0  0  0  0  0  0  0  0
    2.8660   -2.8632    0.0000 C   0  0  0  0  0  0  0  0  0  0  0  0
    2.0000   -1.3632    0.0000 C   0  0  0  0  0  0  0  0  0  0  0  0
    2.0000   -2.3632    0.0000 C   0  0  0  0  0  0  0  0  0  0  0  0
    6.2781   -4.7752    0.0000 C   0  0  0  0  0  0  0  0  0  0  0  0
    6.2781    1.0488    0.0000 C   0  0  0  0  0  0  0  0  0  0  0  0
    7.5673    2.2056    0.0000 C   0  0  0  0  0  0  0  0  0  0  0  0
    7.5701    3.8236    0.0000 C   0  0  0  0  0  0  0  0  0  0  0  0
    8.5206    3.5129    0.0000 C   0  0  0  0  0  0  0  0  0  0  0  0
    7.2627    4.7752    0.0000 C   0  0  0  0  0  0  0  0  0  0  0  0
    4.3751   -3.7058    0.0000 H   0  0  0  0  0  0  0  0  0  0  0  0
    4.9684   -4.2381    0.0000 H   0  0  0  0  0  0  0  0  0  0  0  0
    4.9684    0.5117    0.0000 H   0  0  0  0  0  0  0  0  0  0  0  0
    4.3751   -0.0206    0.0000 H   0  0  0  0  0  0  0  0  0  0  0  0
    6.5812   -3.7373    0.0000 H   0  0  0  0  0  0  0  0  0  0  0  0
    5.9880   -3.2050    0.0000 H   0  0  0  0  0  0  0  0  0  0  0  0
    5.9880   -0.5214    0.0000 H   0  0  0  0  0  0  0  0  0  0  0  0
    6.5812    0.0109    0.0000 H   0  0  0  0  0  0  0  0  0  0  0  0
    2.8660   -0.2432    0.0000 H   0  0  0  0  0  0  0  0  0  0  0  0
    2.8660   -3.4832    0.0000 H   0  0  0  0  0  0  0  0  0  0  0  0
    1.4631   -1.0532    0.0000 H   0  0  0  0  0  0  0  0  0  0  0  0
    1.4631   -2.6732    0.0000 H   0  0  0  0  0  0  0  0  0  0  0  0
    5.6888   -4.9678    0.0000 H   0  0  0  0  0  0  0  0  0  0  0  0
    6.4707   -5.3645    0.0000 H   0  0  0  0  0  0  0  0  0  0  0  0
    6.8674   -4.5826    0.0000 H   0  0  0  0  0  0  0  0  0  0  0  0
    7.6707    0.7936    0.0000 H   0  0  0  0  0  0  0  0  0  0  0  0
    9.0228    3.8765    0.0000 H   0  0  0  0  0  0  0  0  0  0  0  0
    7.8527    4.9657    0.0000 H   0  0  0  0  0  0  0  0  0  0  0  0
    7.0721    5.3652    0.0000 H   0  0  0  0  0  0  0  0  0  0  0  0
    6.6727    4.5846    0.0000 H   0  0  0  0  0  0  0  0  0  0  0  0
  1 21  1  0  0  0  0
  1 22  1  0  0  0  0
  2 10  2  0  0  0  0
  3 20  2  0  0  0  0
  4  9  1  0  0  0  0
  4 10  1  0  0  0  0
  4 11  1  0  0  0  0
  5  8  1  0  0  0  0
  5 10  1  0  0  0  0
  5 12  1  0  0  0  0
  6 20  1  0  0  0  0
  6 21  1  0  0  0  0
  6 40  1  0  0  0  0
  7 21  2  0  0  0  0
  7 23  1  0  0  0  0
  8  9  1  0  0  0  0
  8 15  2  0  0  0  0
  9 16  2  0  0  0  0
 11 13  1  0  0  0  0
 11 25  1  0  0  0  0
 11 26  1  0  0  0  0
 12 14  1  0  0  0  0
 12 27  1  0  0  0  0
 12 28  1  0  0  0  0
 13 19  1  0  0  0  0
 13 29  1  0  0  0  0
 13 30  1  0  0  0  0
 14 20  1  0  0  0  0
 14 31  1  0  0  0  0
 14 32  1  0  0  0  0
 15 17  1  0  0  0  0
 15 33  1  0  0  0  0
 16 18  1  0  0  0  0
 16 34  1  0  0  0  0
 17 18  2  0  0  0  0
 17 35  1  0  0  0  0
 18 36  1  0  0  0  0
 19 37  1  0  0  0  0
 19 38  1  0  0  0  0
 19 39  1  0  0  0  0
 22 23  2  0  0  0  0
 22 24  1  0  0  0  0
 23 41  1  0  0  0  0
 24 42  1  0  0  0  0
 24 43  1  0  0  0  0
 24 44  1  0  0  0  0
M  END
> <PUBCHEM_COMPOUND_CID>
17395513

> <PUBCHEM_COMPOUND_CANONICALIZED>
1

> <PUBCHEM_CACTVS_COMPLEXITY>
476

> <PUBCHEM_CACTVS_HBOND_ACCEPTOR>
4

> <PUBCHEM_CACTVS_HBOND_DONOR>
1

> <PUBCHEM_CACTVS_ROTATABLE_BOND>
6

> <PUBCHEM_CACTVS_SUBSKEYS>
AAADceB7sABAAAAAAAAAAAAAAAAAAWLAAAAwAAAAAAAAAFgBwAAAHgQQAAAACAjB0gQ/0ZPIEAisADV3dACC8KlxCjlJ2A0odIiIYCrA2ZGUIAholwLIyCcQAAAAAAAAAAAAACAAAAAAAAAAQAAAAAAAAA==

> <PUBCHEM_IUPAC_OPENEYE_NAME>
N-(5-methylthiazol-2-yl)-3-(2-oxo-3-propyl-benzimidazol-1-yl)propanamide

> <PUBCHEM_IUPAC_CAS_NAME>
N-(5-methyl-2-thiazolyl)-3-(2-oxo-3-propyl-1-benzimidazolyl)propanamide

> <PUBCHEM_IUPAC_NAME>
N-(5-methyl-1,3-thiazol-2-yl)-3-(2-oxo-3-propylbenzimidazol-1-yl)propanamide

> <PUBCHEM_IUPAC_SYSTEMATIC_NAME>
N-(5-methyl-1,3-thiazol-2-yl)-3-(2-oxidanylidene-3-propyl-benzimidazol-1-yl)propanamide

> <PUBCHEM_IUPAC_TRADITIONAL_NAME>
3-(2-keto-3-propyl-benzimidazol-1-yl)-N-(5-methylthiazol-2-yl)propionamide

> <PUBCHEM_IUPAC_INCHI>
InChI=1S/C17H20N4O2S/c1-3-9-20-13-6-4-5-7-14(13)21(17(20)23)10-8-15(22)19-16-18-11-12(2)24-16/h4-7,11H,3,8-10H2,1-2H3,(H,18,19,22)

> <PUBCHEM_IUPAC_INCHIKEY>
MLZYJOHZNHHFQR-UHFFFAOYSA-N

> <PUBCHEM_XLOGP3_AA>
2.4

> <PUBCHEM_EXACT_MASS>
344.130697

> <PUBCHEM_MOLECULAR_FORMULA>
C17H20N4O2S

> <PUBCHEM_MOLECULAR_WEIGHT>
344.4313

> <PUBCHEM_OPENEYE_CAN_SMILES>
CCCN1C2=CC=CC=C2N(C1=O)CCC(=O)NC3=NC=C(S3)C

> <PUBCHEM_OPENEYE_ISO_SMILES>
CCCN1C2=CC=CC=C2N(C1=O)CCC(=O)NC3=NC=C(S3)C

> <PUBCHEM_CACTVS_TPSA>
93.8

> <PUBCHEM_MONOISOTOPIC_WEIGHT>
344.130697

> <PUBCHEM_TOTAL_CHARGE>
0

> <PUBCHEM_HEAVY_ATOM_COUNT>
24

> <PUBCHEM_ATOM_DEF_STEREO_COUNT>
0

> <PUBCHEM_ATOM_UDEF_STEREO_COUNT>
0

> <PUBCHEM_BOND_DEF_STEREO_COUNT>
0

> <PUBCHEM_BOND_UDEF_STEREO_COUNT>
0

> <PUBCHEM_ISOTOPIC_ATOM_COUNT>
0

> <PUBCHEM_COMPONENT_COUNT>
1

> <PUBCHEM_CACTVS_TAUTO_COUNT>
5

> <PUBCHEM_COORDINATE_TYPE>
1
5
255

> <PUBCHEM_BONDANNOTATIONS>
1  21  8
1  22  8
15  17  8
16  18  8
17  18  8
22  23  8
4  10  8
4  9  8
5  10  8
5  8  8
7  21  8
7  23  8
8  15  8
8  9  8
9  16  8

$$$$

