99188
  -OEChem-07051213033D

 35 38  0     0  0  0  0  0  0999 V2000
    1.9375   -2.5287    0.1792 O   0  0  0  0  0  0  0  0  0  0  0  0
   -0.1414   -2.2480   -0.5851 O   0  0  0  0  0  0  0  0  0  0  0  0
   -2.2516    2.5808   -0.2012 O   0  0  0  0  0  0  0  0  0  0  0  0
   -4.5931    1.6291    0.2299 O   0  0  0  0  0  0  0  0  0  0  0  0
    0.3317    0.0401   -0.1183 C   0  0  0  0  0  0  0  0  0  0  0  0
    1.7604   -0.0787   -0.0354 C   0  0  0  0  0  0  0  0  0  0  0  0
   -0.2723    1.3086   -0.0981 C   0  0  0  0  0  0  0  0  0  0  0  0
    2.5276    1.1178    0.0093 C   0  0  0  0  0  0  0  0  0  0  0  0
   -2.0212   -0.9914   -0.0688 C   0  0  0  0  0  0  0  0  0  0  0  0
   -0.5658   -1.1455   -0.2650 C   0  0  0  0  0  0  0  0  0  0  0  0
   -2.5935    0.2754   -0.0051 C   0  0  0  0  0  0  0  0  0  0  0  0
   -1.7427    1.4698   -0.1145 C   0  0  0  0  0  0  0  0  0  0  0  0
    0.5089    2.4633   -0.0469 C   0  0  0  0  0  0  0  0  0  0  0  0
    2.4973   -1.2925    0.0263 C   0  0  0  0  0  0  0  0  0  0  0  0
    1.8941    2.3647   -0.0045 C   0  0  0  0  0  0  0  0  0  0  0  0
    3.9309    1.0736    0.0758 C   0  0  0  0  0  0  0  0  0  0  0  0
    4.6116   -0.1378    0.1146 C   0  0  0  0  0  0  0  0  0  0  0  0
    3.8939   -1.3215    0.0957 C   0  0  0  0  0  0  0  0  0  0  0  0
   -3.9776    0.4151    0.1534 C   0  0  0  0  0  0  0  0  0  0  0  0
   -2.8356   -2.1273    0.0262 C   0  0  0  0  0  0  0  0  0  0  0  0
   -4.7846   -0.7182    0.2517 C   0  0  0  0  0  0  0  0  0  0  0  0
   -4.2144   -1.9876    0.1886 C   0  0  0  0  0  0  0  0  0  0  0  0
    6.0998   -0.1611    0.1924 C   0  0  0  0  0  0  0  0  0  0  0  0
    0.0605    3.4533   -0.0361 H   0  0  0  0  0  0  0  0  0  0  0  0
    2.4762    3.2840    0.0324 H   0  0  0  0  0  0  0  0  0  0  0  0
    4.5019    2.0011    0.1053 H   0  0  0  0  0  0  0  0  0  0  0  0
    4.4134   -2.2752    0.1619 H   0  0  0  0  0  0  0  0  0  0  0  0
   -2.4160   -3.1287   -0.0212 H   0  0  0  0  0  0  0  0  0  0  0  0
   -5.8605   -0.6294    0.3784 H   0  0  0  0  0  0  0  0  0  0  0  0
   -4.8435   -2.8699    0.2644 H   0  0  0  0  0  0  0  0  0  0  0  0
    6.4226   -0.1194    1.2374 H   0  0  0  0  0  0  0  0  0  0  0  0
    6.5067   -1.0703   -0.2635 H   0  0  0  0  0  0  0  0  0  0  0  0
    6.5358    0.6882   -0.3447 H   0  0  0  0  0  0  0  0  0  0  0  0
    1.1651   -2.4390    0.7616 H   0  0  0  0  0  0  0  0  0  0  0  0
   -5.5509    1.5023    0.3407 H   0  0  0  0  0  0  0  0  0  0  0  0
  1 14  1  0  0  0  0
  1 34  1  0  0  0  0
  2 10  2  0  0  0  0
  3 12  2  0  0  0  0
  4 19  1  0  0  0  0
  4 35  1  0  0  0  0
  5  6  1  0  0  0  0
  5  7  2  0  0  0  0
  5 10  1  0  0  0  0
  6  8  2  0  0  0  0
  6 14  1  0  0  0  0
  7 12  1  0  0  0  0
  7 13  1  0  0  0  0
  8 15  1  0  0  0  0
  8 16  1  0  0  0  0
  9 10  1  0  0  0  0
  9 11  2  0  0  0  0
  9 20  1  0  0  0  0
 11 12  1  0  0  0  0
 11 19  1  0  0  0  0
 13 15  2  0  0  0  0
 13 24  1  0  0  0  0
 14 18  2  0  0  0  0
 15 25  1  0  0  0  0
 16 17  2  0  0  0  0
 16 26  1  0  0  0  0
 17 18  1  0  0  0  0
 17 23  1  0  0  0  0
 18 27  1  0  0  0  0
 19 21  2  0  0  0  0
 20 22  2  0  0  0  0
 20 28  1  0  0  0  0
 21 22  1  0  0  0  0
 21 29  1  0  0  0  0
 22 30  1  0  0  0  0
 23 31  1  0  0  0  0
 23 32  1  0  0  0  0
 23 33  1  0  0  0  0
M  END
> <PUBCHEM_COMPOUND_CID>
99188

> <PUBCHEM_CONFORMER_RMSD>
0.6

> <PUBCHEM_CONFORMER_DIVERSEORDER>
1

> <PUBCHEM_MMFF94_PARTIAL_CHARGES>
30
1 -0.53
10 0.4
11 0.09
12 0.4
13 -0.15
14 0.08
15 -0.15
16 -0.15
17 -0.14
18 -0.15
19 0.08
2 -0.57
20 -0.15
21 -0.15
22 -0.15
23 0.14
24 0.15
25 0.15
26 0.15
27 0.15
28 0.15
29 0.15
3 -0.57
30 0.15
34 0.45
35 0.45
4 -0.53
5 0.09
7 0.09
9 0.09

> <PUBCHEM_EFFECTIVE_ROTOR_COUNT>
0

> <PUBCHEM_PHARMACOPHORE_FEATURES>
8
1 1 donor
1 2 acceptor
1 3 acceptor
1 4 donor
6 5 6 7 8 13 15 rings
6 5 7 9 10 11 12 rings
6 6 8 14 16 17 18 rings
6 9 11 19 20 21 22 rings

> <PUBCHEM_HEAVY_ATOM_COUNT>
23

> <PUBCHEM_ATOM_DEF_STEREO_COUNT>
0

> <PUBCHEM_ATOM_UDEF_STEREO_COUNT>
0

> <PUBCHEM_BOND_DEF_STEREO_COUNT>
0

> <PUBCHEM_BOND_UDEF_STEREO_COUNT>
0

> <PUBCHEM_ISOTOPIC_ATOM_COUNT>
0

> <PUBCHEM_COMPONENT_COUNT>
1

> <PUBCHEM_CACTVS_TAUTO_COUNT>
87

> <PUBCHEM_CONFORMER_ID>
0001837400000001

> <PUBCHEM_MMFF94_ENERGY>
89.2204

> <PUBCHEM_FEATURE_SELFOVERLAP>
40.659

> <PUBCHEM_SHAPE_FINGERPRINT>
10 15 18336840689287882864
10411042 1 18050005498396759047
10616163 171 18410009931634359231
10675989 125 16756925294737101493
10967382 1 18410575131965754494
1100329 8 18266179435650309098
11578080 2 16843621597623722959
12011746 2 18410014350949738421
12107183 9 17836369628403554778
12236239 1 17917991685698247060
12403259 226 18337678507619647265
12553582 1 18339375092705059026
12838862 33 18338255828401583792
13140716 1 18193555571269256651
13583140 156 14129060313640116671
13862211 1 18410296878304576422
14787075 74 18201998798732480130
14790565 3 18339354146503380740
15196674 1 18410573950950163200
15209289 33 18202002109788320618
15442244 35 18410573981088650921
15536298 74 18335138648459159656
15927050 60 17615124383177542900
1601671 61 18408602578383696586
16945 1 18338244755912402924
17492 89 18051693235527989131
17804303 29 18409164394138944517
1813 80 17346601850440664068
19141452 34 18409728469822040805
19591789 44 18266178340037951263
200 152 18186803569168378969
20028762 73 18042407932661541479
20261772 1 18187366484799349078
21033648 29 17531825609378485714
21267235 1 18411129208511792282
21279426 13 18266177420893760375
21421861 104 17915466210247052322
221490 88 18269830921976071920
22182313 1 18114736152941367166
2334 1 18410014363987646876
23402539 116 18334582329982807390
23559900 14 18409737243986896888
23622692 118 17970358014183332279
2748010 2 18337114582570954332
3004659 81 18272931614308926644
335352 9 18410856577384356485
34934 24 18339929315137280827
350125 39 18411136897057315484
3680242 22 18270963561103600170
3886686 26 17045172112930094266
4214541 1 18410855464713454865
5104073 3 18410012100492598320
9709674 26 18411131437679193519

> <PUBCHEM_SHAPE_MULTIPOLES>
449.85
10.16
2.78
0.63
3.28
0.37
0
-1.99
1.16
-0.83
-0.08
0
-0.03
-0.01

> <PUBCHEM_SHAPE_SELFOVERLAP>
1035.102

> <PUBCHEM_SHAPE_VOLUME>
230.7

> <PUBCHEM_COORDINATE_TYPE>
2
5
10

$$$$

