10873133
  -OEChem-07051213033D

 54 55  0     1  0  0  0  0  0999 V2000
   -1.5608   -0.4244    1.7392 O   0  0  0  0  0  0  0  0  0  0  0  0
    0.3208    2.4981    1.8377 O   0  0  0  0  0  0  0  0  0  0  0  0
   -0.0453   -0.5282   -1.6736 O   0  0  0  0  0  0  0  0  0  0  0  0
    2.2202   -1.9789   -2.3117 O   0  0  0  0  0  0  0  0  0  0  0  0
    1.9154    0.3847    2.1128 O   0  0  0  0  0  0  0  0  0  0  0  0
    4.2987   -0.7000    1.2252 O   0  0  0  0  0  0  0  0  0  0  0  0
   -2.5873   -1.1117   -0.2228 N   0  0  0  0  0  0  0  0  0  0  0  0
   -0.3142    2.8303   -0.3685 N   0  0  0  0  0  0  0  0  0  0  0  0
   -6.2741   -0.8076    0.3597 N   0  0  0  0  0  0  0  0  0  0  0  0
   -3.8315   -0.4004   -0.0176 C   0  0  1  0  0  0  0  0  0  0  0  0
   -4.0557    0.6298   -1.1389 C   0  0  0  0  0  0  0  0  0  0  0  0
   -2.8946    1.6246   -1.2715 C   0  0  0  0  0  0  0  0  0  0  0  0
   -2.7190    2.4440    0.0115 C   0  0  0  0  0  0  0  0  0  0  0  0
   -4.9774   -1.4198    0.0923 C   0  0  0  0  0  0  0  0  0  0  0  0
   -1.5795    3.4529   -0.0910 C   0  0  0  0  0  0  0  0  0  0  0  0
   -1.5460   -1.0598    0.6882 C   0  0  0  0  0  0  0  0  0  0  0  0
   -0.3265   -1.8236    0.3189 C   0  0  0  0  0  0  0  0  0  0  0  0
    0.5455    2.3973    0.6345 C   0  0  0  0  0  0  0  0  0  0  0  0
    0.3785   -1.5278   -0.8479 C   0  0  0  0  0  0  0  0  0  0  0  0
    1.8278    1.7978    0.1834 C   0  0  0  0  0  0  0  0  0  0  0  0
    0.1120   -2.8478    1.1582 C   0  0  0  0  0  0  0  0  0  0  0  0
    1.5219   -2.2566   -1.1755 C   0  0  0  0  0  0  0  0  0  0  0  0
    1.2552   -3.5765    0.8306 C   0  0  0  0  0  0  0  0  0  0  0  0
    2.4637    0.8129    0.9395 C   0  0  0  0  0  0  0  0  0  0  0  0
    2.3946    2.2318   -1.0150 C   0  0  0  0  0  0  0  0  0  0  0  0
    1.9603   -3.2810   -0.3362 C   0  0  0  0  0  0  0  0  0  0  0  0
    3.6666    0.2623    0.4971 C   0  0  0  0  0  0  0  0  0  0  0  0
    3.5973    1.6812   -1.4573 C   0  0  0  0  0  0  0  0  0  0  0  0
    4.2334    0.6965   -0.7013 C   0  0  0  0  0  0  0  0  0  0  0  0
   -3.7893    0.1202    0.9452 H   0  0  0  0  0  0  0  0  0  0  0  0
   -4.1720    0.1094   -2.0981 H   0  0  0  0  0  0  0  0  0  0  0  0
   -4.9846    1.1856   -0.9644 H   0  0  0  0  0  0  0  0  0  0  0  0
   -1.9738    1.1008   -1.5354 H   0  0  0  0  0  0  0  0  0  0  0  0
   -3.1132    2.3044   -2.1043 H   0  0  0  0  0  0  0  0  0  0  0  0
   -3.6488    2.9816    0.2326 H   0  0  0  0  0  0  0  0  0  0  0  0
   -2.5127    1.7987    0.8678 H   0  0  0  0  0  0  0  0  0  0  0  0
   -5.0490   -2.0000   -0.8355 H   0  0  0  0  0  0  0  0  0  0  0  0
   -4.7548   -2.1363    0.8926 H   0  0  0  0  0  0  0  0  0  0  0  0
   -1.7749    4.1642   -0.9006 H   0  0  0  0  0  0  0  0  0  0  0  0
   -1.5054    4.0216    0.8425 H   0  0  0  0  0  0  0  0  0  0  0  0
   -2.4845   -1.6637   -1.0699 H   0  0  0  0  0  0  0  0  0  0  0  0
   -0.0868    2.6691   -1.3441 H   0  0  0  0  0  0  0  0  0  0  0  0
   -6.9728   -1.5377    0.4903 H   0  0  0  0  0  0  0  0  0  0  0  0
   -6.2330   -0.2893    1.2362 H   0  0  0  0  0  0  0  0  0  0  0  0
   -0.4290   -3.0883    2.0697 H   0  0  0  0  0  0  0  0  0  0  0  0
    1.5969   -4.3737    1.4842 H   0  0  0  0  0  0  0  0  0  0  0  0
    1.9466    3.0164   -1.6177 H   0  0  0  0  0  0  0  0  0  0  0  0
    2.8500   -3.8558   -0.5785 H   0  0  0  0  0  0  0  0  0  0  0  0
    4.0420    2.0231   -2.3872 H   0  0  0  0  0  0  0  0  0  0  0  0
    5.1702    0.2766   -1.0575 H   0  0  0  0  0  0  0  0  0  0  0  0
    0.5751   -0.4616   -2.4201 H   0  0  0  0  0  0  0  0  0  0  0  0
    2.9845   -2.5777   -2.3684 H   0  0  0  0  0  0  0  0  0  0  0  0
    1.0266    0.7548    2.2320 H   0  0  0  0  0  0  0  0  0  0  0  0
    5.1112   -0.9661    0.7613 H   0  0  0  0  0  0  0  0  0  0  0  0
  1 16  2  0  0  0  0
  2 18  2  0  0  0  0
  3 19  1  0  0  0  0
  3 51  1  0  0  0  0
  4 22  1  0  0  0  0
  4 52  1  0  0  0  0
  5 24  1  0  0  0  0
  5 53  1  0  0  0  0
  6 27  1  0  0  0  0
  6 54  1  0  0  0  0
  7 10  1  0  0  0  0
  7 16  1  0  0  0  0
  7 41  1  0  0  0  0
  8 15  1  0  0  0  0
  8 18  1  0  0  0  0
  8 42  1  0  0  0  0
  9 14  1  0  0  0  0
  9 43  1  0  0  0  0
  9 44  1  0  0  0  0
 10 11  1  0  0  0  0
 10 14  1  0  0  0  0
 10 30  1  0  0  0  0
 11 12  1  0  0  0  0
 11 31  1  0  0  0  0
 11 32  1  0  0  0  0
 12 13  1  0  0  0  0
 12 33  1  0  0  0  0
 12 34  1  0  0  0  0
 13 15  1  0  0  0  0
 13 35  1  0  0  0  0
 13 36  1  0  0  0  0
 14 37  1  0  0  0  0
 14 38  1  0  0  0  0
 15 39  1  0  0  0  0
 15 40  1  0  0  0  0
 16 17  1  0  0  0  0
 17 19  2  0  0  0  0
 17 21  1  0  0  0  0
 18 20  1  0  0  0  0
 19 22  1  0  0  0  0
 20 24  2  0  0  0  0
 20 25  1  0  0  0  0
 21 23  2  0  0  0  0
 21 45  1  0  0  0  0
 22 26  2  0  0  0  0
 23 26  1  0  0  0  0
 23 46  1  0  0  0  0
 24 27  1  0  0  0  0
 25 28  2  0  0  0  0
 25 47  1  0  0  0  0
 26 48  1  0  0  0  0
 27 29  2  0  0  0  0
 28 29  1  0  0  0  0
 28 49  1  0  0  0  0
 29 50  1  0  0  0  0
M  END
> <PUBCHEM_COMPOUND_CID>
10873133

> <PUBCHEM_CONFORMER_RMSD>
1.2

> <PUBCHEM_CONFORMER_DIVERSEORDER>
1
115
163
125
17
5
180
23
32
108
33
53
131
154
174
20
56
107
94
151
179
69
42
90
109
54
156
44
19
13
176
35
79
187
102
74
169
87
184
72
29
172
7
158
25
128
98
170
3
155
165
150
113
52
129
62
89
2
126
132
91
31
77
49
140
146
152
46
194
106
41
22
190
195
14
8
157
60
43
149
171
48
110
148
85
161
4
66
51
178
141
193
191
182
39
175
84
65
9
168
105
183
6
16
83
78
122
21
127
114
34
64
100
135
120
86
112
192
82
36
92
177
142
144
143
123
38
118
99
167
188
12
185
18
121
139
71
147
119
73
116
137
88
101
11
61
134
104
153
40
130
136
57
27
173
70
75
95
97
181
55
133
80
15
117
160
50
111
145
76
124
63
164
37
47
59
81
30
166
26
138
10
186
189
103
67
96
159
45
68
93
162
24
58
28

> <PUBCHEM_MMFF94_PARTIAL_CHARGES>
40
1 -0.57
10 0.3
14 0.27
15 0.3
16 0.54
17 0.09
18 0.54
19 0.08
2 -0.57
20 0.09
21 -0.15
22 0.08
23 -0.15
24 0.08
25 -0.15
26 -0.15
27 0.08
28 -0.15
29 -0.15
3 -0.53
4 -0.53
41 0.37
42 0.37
43 0.36
44 0.36
45 0.15
46 0.15
47 0.15
48 0.15
49 0.15
5 -0.53
50 0.15
51 0.45
52 0.45
53 0.45
54 0.45
6 -0.53
7 -0.73
8 -0.73
9 -0.99

> <PUBCHEM_EFFECTIVE_ROTOR_COUNT>
11

> <PUBCHEM_PHARMACOPHORE_FEATURES>
12
1 1 acceptor
1 2 acceptor
1 3 donor
1 4 donor
1 5 donor
1 6 donor
1 7 donor
1 8 donor
1 9 cation
1 9 donor
6 17 19 21 22 23 26 rings
6 20 24 25 27 28 29 rings

> <PUBCHEM_HEAVY_ATOM_COUNT>
29

> <PUBCHEM_ATOM_DEF_STEREO_COUNT>
1

> <PUBCHEM_ATOM_UDEF_STEREO_COUNT>
0

> <PUBCHEM_BOND_DEF_STEREO_COUNT>
0

> <PUBCHEM_BOND_UDEF_STEREO_COUNT>
0

> <PUBCHEM_ISOTOPIC_ATOM_COUNT>
0

> <PUBCHEM_COMPONENT_COUNT>
1

> <PUBCHEM_CACTVS_TAUTO_COUNT>
513

> <PUBCHEM_CONFORMER_ID>
00A5E92D00000001

> <PUBCHEM_MMFF94_ENERGY>
59.0333

> <PUBCHEM_FEATURE_SELFOVERLAP>
60.903

> <PUBCHEM_SHAPE_FINGERPRINT>
10759866 29 17916861323199558620
11513181 2 17681009679055084950
11578080 2 17487633037629240893
12156800 1 15329588743389613920
12422481 6 17689471538344680554
12788726 201 18336816525227225608
13140716 1 18119537526940834025
13402501 40 18340485561036967813
14114211 80 18049416194185509349
16752209 62 18410851058330398616
17909252 39 17678160793188492598
19319366 153 17415854500448967392
20691752 17 18196340763060928154
20764821 26 18197202866081796505
20775438 99 17758704499874232533
20905425 154 18190181363325582876
23559900 14 18196661910867044199
238 59 18336000691471935717
3052486 1 18198899413124796150
463206 1 18262244300777782167

> <PUBCHEM_SHAPE_MULTIPOLES>
546.65
8.13
4.36
1.63
8.12
0.45
-0.04
-0.01
-0.8
-0.92
0.13
-0.93
0.1
0.38

> <PUBCHEM_SHAPE_SELFOVERLAP>
1149.19

> <PUBCHEM_SHAPE_VOLUME>
304

> <PUBCHEM_COORDINATE_TYPE>
2
5
10

$$$$

