17395721
  -OEChem-06241222522D

 42 45  0     0  0  0  0  0  0999 V2000
    3.7320    0.6636    0.0000 S   0  0  0  0  0  0  0  0  0  0  0  0
    6.3301   -2.8364    0.0000 O   0  0  0  0  0  0  0  0  0  0  0  0
    2.0000    1.6636    0.0000 O   0  0  0  0  0  0  0  0  0  0  0  0
    4.5981   -2.8364    0.0000 N   0  0  0  0  0  0  0  0  0  0  0  0
    5.4641    0.6636    0.0000 N   0  0  0  0  0  0  0  0  0  0  0  0
    3.6750    3.7514    0.0000 N   0  0  0  0  0  0  0  0  0  0  0  0
    4.5981   -3.8364    0.0000 C   0  0  0  0  0  0  0  0  0  0  0  0
    4.0981   -4.7024    0.0000 C   0  0  0  0  0  0  0  0  0  0  0  0
    5.0981   -4.7024    0.0000 C   0  0  0  0  0  0  0  0  0  0  0  0
    5.4641   -2.3364    0.0000 C   0  0  0  0  0  0  0  0  0  0  0  0
    5.4641   -1.3364    0.0000 C   0  0  0  0  0  0  0  0  0  0  0  0
    6.3301   -0.8364    0.0000 C   0  0  0  0  0  0  0  0  0  0  0  0
    4.5981   -0.8364    0.0000 C   0  0  0  0  0  0  0  0  0  0  0  0
    6.3301    0.1636    0.0000 C   0  0  0  0  0  0  0  0  0  0  0  0
    4.5981    0.1636    0.0000 C   0  0  0  0  0  0  0  0  0  0  0  0
    7.2241   -1.3711    0.0000 C   0  0  0  0  0  0  0  0  0  0  0  0
    7.2241    0.6983    0.0000 C   0  0  0  0  0  0  0  0  0  0  0  0
    8.1301   -0.8572    0.0000 C   0  0  0  0  0  0  0  0  0  0  0  0
    8.1301    0.1844    0.0000 C   0  0  0  0  0  0  0  0  0  0  0  0
    3.7320    1.6636    0.0000 C   0  0  0  0  0  0  0  0  0  0  0  0
    2.8660    2.1636    0.0000 C   0  0  0  0  0  0  0  0  0  0  0  0
    2.8660    3.1636    0.0000 C   0  0  0  0  0  0  0  0  0  0  0  0
    2.0570    3.7514    0.0000 C   0  0  0  0  0  0  0  0  0  0  0  0
    3.3660    4.7024    0.0000 C   0  0  0  0  0  0  0  0  0  0  0  0
    2.3660    4.7024    0.0000 C   0  0  0  0  0  0  0  0  0  0  0  0
    5.1970   -3.6759    0.0000 H   0  0  0  0  0  0  0  0  0  0  0  0
    3.5155   -4.4904    0.0000 H   0  0  0  0  0  0  0  0  0  0  0  0
    3.9904   -5.3130    0.0000 H   0  0  0  0  0  0  0  0  0  0  0  0
    5.2057   -5.3130    0.0000 H   0  0  0  0  0  0  0  0  0  0  0  0
    5.6807   -4.4904    0.0000 H   0  0  0  0  0  0  0  0  0  0  0  0
    4.0611   -2.5264    0.0000 H   0  0  0  0  0  0  0  0  0  0  0  0
    4.0611   -1.1464    0.0000 H   0  0  0  0  0  0  0  0  0  0  0  0
    7.2169   -1.9910    0.0000 H   0  0  0  0  0  0  0  0  0  0  0  0
    7.2169    1.3182    0.0000 H   0  0  0  0  0  0  0  0  0  0  0  0
    8.6659   -1.1693    0.0000 H   0  0  0  0  0  0  0  0  0  0  0  0
    8.6659    0.4965    0.0000 H   0  0  0  0  0  0  0  0  0  0  0  0
    4.3426    1.5559    0.0000 H   0  0  0  0  0  0  0  0  0  0  0  0
    3.9441    2.2462    0.0000 H   0  0  0  0  0  0  0  0  0  0  0  0
    4.2647    3.5598    0.0000 H   0  0  0  0  0  0  0  0  0  0  0  0
    1.4674    3.5598    0.0000 H   0  0  0  0  0  0  0  0  0  0  0  0
    3.7304    5.2040    0.0000 H   0  0  0  0  0  0  0  0  0  0  0  0
    2.0016    5.2040    0.0000 H   0  0  0  0  0  0  0  0  0  0  0  0
  1 15  1  0  0  0  0
  1 20  1  0  0  0  0
  2 10  2  0  0  0  0
  3 21  2  0  0  0  0
  4  7  1  0  0  0  0
  4 10  1  0  0  0  0
  4 31  1  0  0  0  0
  5 14  1  0  0  0  0
  5 15  2  0  0  0  0
  6 22  1  0  0  0  0
  6 24  1  0  0  0  0
  6 39  1  0  0  0  0
  7  8  1  0  0  0  0
  7  9  1  0  0  0  0
  7 26  1  0  0  0  0
  8  9  1  0  0  0  0
  8 27  1  0  0  0  0
  8 28  1  0  0  0  0
  9 29  1  0  0  0  0
  9 30  1  0  0  0  0
 10 11  1  0  0  0  0
 11 12  1  0  0  0  0
 11 13  2  0  0  0  0
 12 14  1  0  0  0  0
 12 16  2  0  0  0  0
 13 15  1  0  0  0  0
 13 32  1  0  0  0  0
 14 17  2  0  0  0  0
 16 18  1  0  0  0  0
 16 33  1  0  0  0  0
 17 19  1  0  0  0  0
 17 34  1  0  0  0  0
 18 19  2  0  0  0  0
 18 35  1  0  0  0  0
 19 36  1  0  0  0  0
 20 21  1  0  0  0  0
 20 37  1  0  0  0  0
 20 38  1  0  0  0  0
 21 22  1  0  0  0  0
 22 23  2  0  0  0  0
 23 25  1  0  0  0  0
 23 40  1  0  0  0  0
 24 25  2  0  0  0  0
 24 41  1  0  0  0  0
 25 42  1  0  0  0  0
M  END
> <PUBCHEM_COMPOUND_CID>
17395721

> <PUBCHEM_COMPOUND_CANONICALIZED>
1

> <PUBCHEM_CACTVS_COMPLEXITY>
511

> <PUBCHEM_CACTVS_HBOND_ACCEPTOR>
4

> <PUBCHEM_CACTVS_HBOND_DONOR>
2

> <PUBCHEM_CACTVS_ROTATABLE_BOND>
6

> <PUBCHEM_CACTVS_SUBSKEYS>
AAADceB7MABAAAAAAAAAAAAAGAAAAWAAAAA8QAAAAAAAAACx/AAAHgQQAAAADCzF3gS8wfLJkAioA7V3VACC0CB3CjAI2bm4ZNgIIPLglbGEIQhglgDoyYccicCOgAAAAAACAAAAAAAAAAQAAAAAAAAAAA==

> <PUBCHEM_IUPAC_OPENEYE_NAME>
N-cyclopropyl-2-[2-oxo-2-(1H-pyrrol-2-yl)ethyl]sulfanyl-quinoline-4-carboxamide

> <PUBCHEM_IUPAC_CAS_NAME>
N-cyclopropyl-2-[[2-oxo-2-(1H-pyrrol-2-yl)ethyl]thio]-4-quinolinecarboxamide

> <PUBCHEM_IUPAC_NAME>
N-cyclopropyl-2-[2-oxo-2-(1H-pyrrol-2-yl)ethyl]sulfanylquinoline-4-carboxamide

> <PUBCHEM_IUPAC_SYSTEMATIC_NAME>
N-cyclopropyl-2-[2-oxidanylidene-2-(1H-pyrrol-2-yl)ethyl]sulfanyl-quinoline-4-carboxamide

> <PUBCHEM_IUPAC_TRADITIONAL_NAME>
N-cyclopropyl-2-[[2-keto-2-(1H-pyrrol-2-yl)ethyl]thio]cinchoninamide

> <PUBCHEM_IUPAC_INCHI>
InChI=1S/C19H17N3O2S/c23-17(16-6-3-9-20-16)11-25-18-10-14(19(24)21-12-7-8-12)13-4-1-2-5-15(13)22-18/h1-6,9-10,12,20H,7-8,11H2,(H,21,24)

> <PUBCHEM_IUPAC_INCHIKEY>
KBBHENRZKSHQJN-UHFFFAOYSA-N

> <PUBCHEM_XLOGP3_AA>
3.4

> <PUBCHEM_EXACT_MASS>
351.104148

> <PUBCHEM_MOLECULAR_FORMULA>
C19H17N3O2S

> <PUBCHEM_MOLECULAR_WEIGHT>
351.42218

> <PUBCHEM_OPENEYE_CAN_SMILES>
C1CC1NC(=O)C2=CC(=NC3=CC=CC=C32)SCC(=O)C4=CC=CN4

> <PUBCHEM_OPENEYE_ISO_SMILES>
C1CC1NC(=O)C2=CC(=NC3=CC=CC=C32)SCC(=O)C4=CC=CN4

> <PUBCHEM_CACTVS_TPSA>
100

> <PUBCHEM_MONOISOTOPIC_WEIGHT>
351.104148

> <PUBCHEM_TOTAL_CHARGE>
0

> <PUBCHEM_HEAVY_ATOM_COUNT>
25

> <PUBCHEM_ATOM_DEF_STEREO_COUNT>
0

> <PUBCHEM_ATOM_UDEF_STEREO_COUNT>
0

> <PUBCHEM_BOND_DEF_STEREO_COUNT>
0

> <PUBCHEM_BOND_UDEF_STEREO_COUNT>
0

> <PUBCHEM_ISOTOPIC_ATOM_COUNT>
0

> <PUBCHEM_COMPONENT_COUNT>
1

> <PUBCHEM_CACTVS_TAUTO_COUNT>
18

> <PUBCHEM_COORDINATE_TYPE>
1
5
255

> <PUBCHEM_BONDANNOTATIONS>
11  12  8
11  13  8
12  14  8
12  16  8
13  15  8
14  17  8
16  18  8
17  19  8
18  19  8
22  23  8
23  25  8
24  25  8
5  14  8
5  15  8
6  22  8
6  24  8

$$$$

