13850222
  -OEChem-07051213113D

 37 38  0     1  0  0  0  0  0999 V2000
   -0.0034   -1.6915   -1.6576 O   0  0  0  0  0  0  0  0  0  0  0  0
    3.0347   -1.9682    1.1310 O   0  0  0  0  0  0  0  0  0  0  0  0
    2.0140    2.7986   -1.0058 O   0  0  0  0  0  0  0  0  0  0  0  0
    0.6360   -1.8017   -0.3684 C   0  0  2  0  0  0  0  0  0  0  0  0
   -1.6439   -1.7479    0.0041 C   0  0  0  0  0  0  0  0  0  0  0  0
   -3.0065   -1.7491    0.6122 C   0  0  0  0  0  0  0  0  0  0  0  0
   -1.4305   -1.6465   -1.4612 C   0  0  0  0  0  0  0  0  0  0  0  0
   -0.4688   -1.8336    0.6257 C   0  0  0  0  0  0  0  0  0  0  0  0
    1.5581   -0.6449   -0.1815 C   0  0  0  0  0  0  0  0  0  0  0  0
   -3.7543   -0.4453    0.3337 C   0  0  0  0  0  0  0  0  0  0  0  0
   -3.0730    0.7224    0.9907 C   0  0  0  0  0  0  0  0  0  0  0  0
    2.7836   -0.8763    0.6307 C   0  0  0  0  0  0  0  0  0  0  0  0
    1.3215    0.5625   -0.7092 C   0  0  0  0  0  0  0  0  0  0  0  0
   -2.6269    1.8508    0.4071 C   0  0  0  0  0  0  0  0  0  0  0  0
    2.2455    1.6991   -0.5152 C   0  0  0  0  0  0  0  0  0  0  0  0
    3.7059    0.2629    0.8222 C   0  0  0  0  0  0  0  0  0  0  0  0
    3.4574    1.4603    0.2904 C   0  0  0  0  0  0  0  0  0  0  0  0
   -1.9514    2.9850    1.1245 C   0  0  0  0  0  0  0  0  0  0  0  0
   -2.7979    2.0634   -1.0735 C   0  0  0  0  0  0  0  0  0  0  0  0
    1.1782   -2.7532   -0.3735 H   0  0  0  0  0  0  0  0  0  0  0  0
   -3.5789   -2.5890    0.2005 H   0  0  0  0  0  0  0  0  0  0  0  0
   -2.9412   -1.9209    1.6944 H   0  0  0  0  0  0  0  0  0  0  0  0
   -1.8786   -2.4879   -1.9979 H   0  0  0  0  0  0  0  0  0  0  0  0
   -1.8021   -0.7091   -1.8814 H   0  0  0  0  0  0  0  0  0  0  0  0
   -0.3350   -1.9252    1.6939 H   0  0  0  0  0  0  0  0  0  0  0  0
   -3.8975   -0.3305   -0.7424 H   0  0  0  0  0  0  0  0  0  0  0  0
   -4.7610   -0.5259    0.7628 H   0  0  0  0  0  0  0  0  0  0  0  0
   -2.9410    0.6300    2.0682 H   0  0  0  0  0  0  0  0  0  0  0  0
    0.4365    0.7709   -1.3005 H   0  0  0  0  0  0  0  0  0  0  0  0
    4.5983    0.0922    1.4140 H   0  0  0  0  0  0  0  0  0  0  0  0
    4.1399    2.2898    0.4367 H   0  0  0  0  0  0  0  0  0  0  0  0
   -0.9549    3.1594    0.7059 H   0  0  0  0  0  0  0  0  0  0  0  0
   -1.8326    2.7725    2.1920 H   0  0  0  0  0  0  0  0  0  0  0  0
   -2.5387    3.9039    1.0292 H   0  0  0  0  0  0  0  0  0  0  0  0
   -3.0453    3.1131   -1.2714 H   0  0  0  0  0  0  0  0  0  0  0  0
   -1.8634    1.8388   -1.5967 H   0  0  0  0  0  0  0  0  0  0  0  0
   -3.6042    1.4858   -1.5277 H   0  0  0  0  0  0  0  0  0  0  0  0
  1  4  1  0  0  0  0
  1  7  1  0  0  0  0
  2 12  2  0  0  0  0
  3 15  2  0  0  0  0
  4  8  1  0  0  0  0
  4  9  1  0  0  0  0
  4 20  1  0  0  0  0
  5  6  1  0  0  0  0
  5  7  1  0  0  0  0
  5  8  2  0  0  0  0
  6 10  1  0  0  0  0
  6 21  1  0  0  0  0
  6 22  1  0  0  0  0
  7 23  1  0  0  0  0
  7 24  1  0  0  0  0
  8 25  1  0  0  0  0
  9 12  1  0  0  0  0
  9 13  2  0  0  0  0
 10 11  1  0  0  0  0
 10 26  1  0  0  0  0
 10 27  1  0  0  0  0
 11 14  2  0  0  0  0
 11 28  1  0  0  0  0
 12 16  1  0  0  0  0
 13 15  1  0  0  0  0
 13 29  1  0  0  0  0
 14 18  1  0  0  0  0
 14 19  1  0  0  0  0
 15 17  1  0  0  0  0
 16 17  2  0  0  0  0
 16 30  1  0  0  0  0
 17 31  1  0  0  0  0
 18 32  1  0  0  0  0
 18 33  1  0  0  0  0
 18 34  1  0  0  0  0
 19 35  1  0  0  0  0
 19 36  1  0  0  0  0
 19 37  1  0  0  0  0
M  END
> <PUBCHEM_COMPOUND_CID>
13850222

> <PUBCHEM_CONFORMER_RMSD>
0.6

> <PUBCHEM_CONFORMER_DIVERSEORDER>
1
224
226
89
317
310
16
295
223
192
344
273
31
327
230
202
164
197
311
109
15
9
302
80
91
170
108
270
213
283
54
343
117
191
253
153
33
88
47
182
154
174
120
287
140
316
165
34
107
275
137
37
38
217
50
255
184
148
68
82
65
111
289
67
292
73
186
115
296
356
18
234
321
301
134
236
323
163
112
180
24
32
271
13
306
277
358
19
293
357
339
299
99
2
58
7
150
48
204
195
94
331
160
169
329
193
176
333
53
52
144
104
77
173
249
337
110
346
347
27
308
87
290
149
318
350
237
269
304
167
360
225
279
168
6
324
157
98
83
36
44
203
57
272
227
353
121
240
196
30
129
242
177
265
235
361
198
59
56
276
244
8
189
51
228
86
190
281
14
151
297
78
131
342
181
238
96
133
127
259
212
84
267
286
241
303
222
200
309
12
359
352
62
17
42
28
187
185
139
102
305
60
145
319
156
250
92
322
246
194
162
10
147
258
291
210
55
138
206
79
114
199
95
330
320
106
26
158
341
313
72
70
251
4
326
209
183
220
135
136
123
105
239
74
334
130
29
22
35
20
325
64
229
21
25
257
254
314
125
118
219
63
49
300
266
201
175
262
39
124
143
332
128
260
155
66
263
354
119
252
336
75
221
214
264
122
208
340
116
43
41
207
355
132
172
69
40
351
45
85
142
232
284
188
247
216
171
76
335
11
288
294
231
3
23
256
315
218
141
282
349
159
93
245
338
345
205
113
152
101
248
5
103
81
215
166
178
61
243
46
126
261
100
146
274
348
97
268
161
71
211
90
298
307
233
179
280
328
312
285
278

> <PUBCHEM_MMFF94_PARTIAL_CHARGES>
24
1 -0.56
10 0.14
11 -0.29
12 0.54
13 -0.14
14 -0.28
15 0.54
16 -0.14
17 -0.14
18 0.14
19 0.14
2 -0.57
25 0.15
28 0.15
29 0.15
3 -0.57
30 0.15
31 0.15
4 0.56
5 -0.28
6 0.14
7 0.42
8 -0.29
9 -0.12

> <PUBCHEM_EFFECTIVE_ROTOR_COUNT>
4.6

> <PUBCHEM_PHARMACOPHORE_FEATURES>
6
1 1 acceptor
1 2 acceptor
1 3 acceptor
3 14 18 19 hydrophobe
5 1 4 5 7 8 rings
6 9 12 13 15 16 17 rings

> <PUBCHEM_HEAVY_ATOM_COUNT>
19

> <PUBCHEM_ATOM_DEF_STEREO_COUNT>
0

> <PUBCHEM_ATOM_UDEF_STEREO_COUNT>
1

> <PUBCHEM_BOND_DEF_STEREO_COUNT>
0

> <PUBCHEM_BOND_UDEF_STEREO_COUNT>
0

> <PUBCHEM_ISOTOPIC_ATOM_COUNT>
0

> <PUBCHEM_COMPONENT_COUNT>
1

> <PUBCHEM_CACTVS_TAUTO_COUNT>
1

> <PUBCHEM_CONFORMER_ID>
00D3566E00000001

> <PUBCHEM_MMFF94_ENERGY>
29.0771

> <PUBCHEM_FEATURE_SELFOVERLAP>
30.446

> <PUBCHEM_SHAPE_FINGERPRINT>
10759866 29 18272079457910433428
11221954 11 18118109493254173865
11370993 70 18122068860338154881
12077114 3 18342745160305443293
12633257 1 18055066824990863729
14251757 17 17609731527529801220
14787075 74 17624973838156291035
14790565 3 18272366418293669148
15442244 35 18340771537118481298
17492 89 18412543219336797771
17859628 37 18195807607385212420
18981168 100 18041544940650130671
192875 21 18337687407039414837
20621476 13 16611106984735179365
20715895 44 18198067078860437989
20739085 24 17988933232764306396
21524375 3 18260825973448172343
22749437 52 18263082283046064433
23419403 2 15374059667907006595
3524813 1 17823417080764916009
44154327 71 18337655435429567841
5939293 188 17327734510196978681
7097593 13 18201724002171802954
9925002 15 16233650656184707823

> <PUBCHEM_SHAPE_MULTIPOLES>
373.4
6.58
3.34
1.28
0.96
1.49
-0.25
1.79
1.77
-1.01
-0.1
-0.17
-0.04
-0.73

> <PUBCHEM_SHAPE_SELFOVERLAP>
779.809

> <PUBCHEM_SHAPE_VOLUME>
212.2

> <PUBCHEM_COORDINATE_TYPE>
2
5
10

$$$$

