354448
  -OEChem-07051212582D

 73 75  0     0  0  0  0  0  0999 V2000
    9.1944    2.3238    0.0000 O   0  0  0  0  0  0  0  0  0  0  0  0
   12.6585    2.3238    0.0000 O   0  0  0  0  0  0  0  0  0  0  0  0
   10.9265   -0.6762    0.0000 O   0  0  0  0  0  0  0  0  0  0  0  0
   12.6585   -0.6762    0.0000 O   0  0  0  0  0  0  0  0  0  0  0  0
    8.5104   -1.5556    0.0000 O   0  0  0  0  0  0  0  0  0  0  0  0
    7.9088    1.8559    0.0000 O   0  0  0  0  0  0  0  0  0  0  0  0
    5.2552   -0.3708    0.0000 O   0  0  0  0  0  0  0  0  0  0  0  0
    7.1835   -2.6689    0.0000 O   0  0  0  0  0  0  0  0  0  0  0  0
   10.9265    2.3238    0.0000 C   0  0  0  0  0  0  0  0  0  0  0  0
   10.0604    1.8238    0.0000 C   0  0  0  0  0  0  0  0  0  0  0  0
   10.0604    0.8238    0.0000 C   0  0  0  0  0  0  0  0  0  0  0  0
   11.7925    1.8238    0.0000 C   0  0  0  0  0  0  0  0  0  0  0  0
   11.7925    0.8238    0.0000 C   0  0  0  0  0  0  0  0  0  0  0  0
   11.4265    3.1898    0.0000 C   0  0  0  0  0  0  0  0  0  0  0  0
   10.4265    3.1898    0.0000 C   0  0  0  0  0  0  0  0  0  0  0  0
   10.9265    0.3238    0.0000 C   0  0  0  0  0  0  0  0  0  0  0  0
    9.1944    0.3238    0.0000 C   0  0  0  0  0  0  0  0  0  0  0  0
   12.6585    0.3238    0.0000 C   0  0  0  0  0  0  0  0  0  0  0  0
    8.2096    0.1502    0.0000 C   0  0  0  0  0  0  0  0  0  0  0  0
   13.5245    0.8238    0.0000 C   0  0  0  0  0  0  0  0  0  0  0  0
    7.8675   -0.7894    0.0000 C   0  0  0  0  0  0  0  0  0  0  0  0
    7.5668    0.9162    0.0000 C   0  0  0  0  0  0  0  0  0  0  0  0
   14.3906    0.3238    0.0000 C   0  0  0  0  0  0  0  0  0  0  0  0
   13.5245    1.8238    0.0000 C   0  0  0  0  0  0  0  0  0  0  0  0
    6.8828   -0.9632    0.0000 C   0  0  0  0  0  0  0  0  0  0  0  0
    6.5820    0.7426    0.0000 C   0  0  0  0  0  0  0  0  0  0  0  0
    6.2400   -0.1971    0.0000 C   0  0  0  0  0  0  0  0  0  0  0  0
    6.5407   -1.9028    0.0000 C   0  0  0  0  0  0  0  0  0  0  0  0
    5.5560   -2.0765    0.0000 C   0  0  0  0  0  0  0  0  0  0  0  0
    4.6124    0.3953    0.0000 C   0  0  0  0  0  0  0  0  0  0  0  0
    4.9132   -1.3105    0.0000 C   0  0  0  0  0  0  0  0  0  0  0  0
    5.2139   -3.0161    0.0000 C   0  0  0  0  0  0  0  0  0  0  0  0
    3.6276    0.2216    0.0000 C   0  0  0  0  0  0  0  0  0  0  0  0
    3.9284   -1.4841    0.0000 C   0  0  0  0  0  0  0  0  0  0  0  0
    4.2291   -3.1898    0.0000 C   0  0  0  0  0  0  0  0  0  0  0  0
    2.9848    0.9877    0.0000 C   0  0  0  0  0  0  0  0  0  0  0  0
    3.5863   -2.4238    0.0000 C   0  0  0  0  0  0  0  0  0  0  0  0
    2.0000    0.8140    0.0000 C   0  0  0  0  0  0  0  0  0  0  0  0
    3.3268    1.9274    0.0000 C   0  0  0  0  0  0  0  0  0  0  0  0
   10.9634    3.4998    0.0000 H   0  0  0  0  0  0  0  0  0  0  0  0
   10.1165    3.7268    0.0000 H   0  0  0  0  0  0  0  0  0  0  0  0
    9.8895    2.8798    0.0000 H   0  0  0  0  0  0  0  0  0  0  0  0
   11.9634    2.8798    0.0000 H   0  0  0  0  0  0  0  0  0  0  0  0
   11.7365    3.7268    0.0000 H   0  0  0  0  0  0  0  0  0  0  0  0
   10.8895    3.4998    0.0000 H   0  0  0  0  0  0  0  0  0  0  0  0
    9.0514   -0.2795    0.0000 H   0  0  0  0  0  0  0  0  0  0  0  0
    8.9824    0.9064    0.0000 H   0  0  0  0  0  0  0  0  0  0  0  0
   12.9876    1.1338    0.0000 H   0  0  0  0  0  0  0  0  0  0  0  0
    8.6575    2.0138    0.0000 H   0  0  0  0  0  0  0  0  0  0  0  0
   14.0806   -0.2131    0.0000 H   0  0  0  0  0  0  0  0  0  0  0  0
   14.9275    0.0138    0.0000 H   0  0  0  0  0  0  0  0  0  0  0  0
   14.7006    0.8608    0.0000 H   0  0  0  0  0  0  0  0  0  0  0  0
   14.1445    1.8238    0.0000 H   0  0  0  0  0  0  0  0  0  0  0  0
   13.5245    2.4438    0.0000 H   0  0  0  0  0  0  0  0  0  0  0  0
   12.9045    1.8238    0.0000 H   0  0  0  0  0  0  0  0  0  0  0  0
   11.4634   -0.9862    0.0000 H   0  0  0  0  0  0  0  0  0  0  0  0
    6.1835    1.2175    0.0000 H   0  0  0  0  0  0  0  0  0  0  0  0
    8.2983   -2.1382    0.0000 H   0  0  0  0  0  0  0  0  0  0  0  0
    7.5103    2.3309    0.0000 H   0  0  0  0  0  0  0  0  0  0  0  0
    5.1493    0.7053    0.0000 H   0  0  0  0  0  0  0  0  0  0  0  0
    4.4004    0.9779    0.0000 H   0  0  0  0  0  0  0  0  0  0  0  0
    5.1252   -0.7279    0.0000 H   0  0  0  0  0  0  0  0  0  0  0  0
    5.6124   -3.4911    0.0000 H   0  0  0  0  0  0  0  0  0  0  0  0
    3.4155   -0.3610    0.0000 H   0  0  0  0  0  0  0  0  0  0  0  0
    3.5298   -1.0092    0.0000 H   0  0  0  0  0  0  0  0  0  0  0  0
    4.0171   -3.7725    0.0000 H   0  0  0  0  0  0  0  0  0  0  0  0
    2.9758   -2.5315    0.0000 H   0  0  0  0  0  0  0  0  0  0  0  0
    1.8923    1.4246    0.0000 H   0  0  0  0  0  0  0  0  0  0  0  0
    1.3894    0.7064    0.0000 H   0  0  0  0  0  0  0  0  0  0  0  0
    2.1077    0.2034    0.0000 H   0  0  0  0  0  0  0  0  0  0  0  0
    3.9094    1.7153    0.0000 H   0  0  0  0  0  0  0  0  0  0  0  0
    3.5389    2.5100    0.0000 H   0  0  0  0  0  0  0  0  0  0  0  0
    2.7442    2.1394    0.0000 H   0  0  0  0  0  0  0  0  0  0  0  0
  1 10  1  0  0  0  0
  1 49  1  0  0  0  0
  2 12  2  0  0  0  0
  3 16  1  0  0  0  0
  3 56  1  0  0  0  0
  4 18  2  0  0  0  0
  5 21  1  0  0  0  0
  5 58  1  0  0  0  0
  6 22  1  0  0  0  0
  6 59  1  0  0  0  0
  7 27  1  0  0  0  0
  7 30  1  0  0  0  0
  8 28  2  0  0  0  0
  9 10  1  0  0  0  0
  9 12  1  0  0  0  0
  9 14  1  0  0  0  0
  9 15  1  0  0  0  0
 10 11  2  0  0  0  0
 11 16  1  0  0  0  0
 11 17  1  0  0  0  0
 12 13  1  0  0  0  0
 13 16  2  0  0  0  0
 13 18  1  0  0  0  0
 14 43  1  0  0  0  0
 14 44  1  0  0  0  0
 14 45  1  0  0  0  0
 15 40  1  0  0  0  0
 15 41  1  0  0  0  0
 15 42  1  0  0  0  0
 17 19  1  0  0  0  0
 17 46  1  0  0  0  0
 17 47  1  0  0  0  0
 18 20  1  0  0  0  0
 19 21  1  0  0  0  0
 19 22  2  0  0  0  0
 20 23  1  0  0  0  0
 20 24  1  0  0  0  0
 20 48  1  0  0  0  0
 21 25  2  0  0  0  0
 22 26  1  0  0  0  0
 23 50  1  0  0  0  0
 23 51  1  0  0  0  0
 23 52  1  0  0  0  0
 24 53  1  0  0  0  0
 24 54  1  0  0  0  0
 24 55  1  0  0  0  0
 25 27  1  0  0  0  0
 25 28  1  0  0  0  0
 26 27  2  0  0  0  0
 26 57  1  0  0  0  0
 28 29  1  0  0  0  0
 29 31  2  0  0  0  0
 29 32  1  0  0  0  0
 30 33  1  0  0  0  0
 30 60  1  0  0  0  0
 30 61  1  0  0  0  0
 31 34  1  0  0  0  0
 31 62  1  0  0  0  0
 32 35  2  0  0  0  0
 32 63  1  0  0  0  0
 33 36  2  0  0  0  0
 33 64  1  0  0  0  0
 34 37  2  0  0  0  0
 34 65  1  0  0  0  0
 35 37  1  0  0  0  0
 35 66  1  0  0  0  0
 36 38  1  0  0  0  0
 36 39  1  0  0  0  0
 37 67  1  0  0  0  0
 38 68  1  0  0  0  0
 38 69  1  0  0  0  0
 38 70  1  0  0  0  0
 39 71  1  0  0  0  0
 39 72  1  0  0  0  0
 39 73  1  0  0  0  0
M  END
> <PUBCHEM_COMPOUND_CID>
354448

> <PUBCHEM_COMPOUND_CANONICALIZED>
1

> <PUBCHEM_CACTVS_COMPLEXITY>
1050

> <PUBCHEM_CACTVS_HBOND_ACCEPTOR>
8

> <PUBCHEM_CACTVS_HBOND_DONOR>
4

> <PUBCHEM_CACTVS_ROTATABLE_BOND>
9

> <PUBCHEM_CACTVS_SUBSKEYS>
AAADcfB4PAAAAAAAAAAAAAAAAAAAAAAAAAAwYIAAAAAAAAABQAAAGgAACAAADwSgmAIyBoAABgCIAqBSAAACCAAkIAAIiAEGCMgMJzaONRqCeWCl4BUIuYeI7OzPIAACCAAIAABAAAQQABAAAAAAAAAAAA==

> <PUBCHEM_IUPAC_OPENEYE_NAME>
4-[[3-benzoyl-2,6-dihydroxy-4-(3-methylbut-2-enoxy)phenyl]methyl]-3,5-dihydroxy-6,6-dimethyl-2-(2-methylpropanoyl)cyclohexa-2,4-dien-1-one

> <PUBCHEM_IUPAC_CAS_NAME>
4-[[3-benzoyl-2,6-dihydroxy-4-(3-methylbut-2-enoxy)phenyl]methyl]-3,5-dihydroxy-6,6-dimethyl-2-(2-methyl-1-oxopropyl)-1-cyclohexa-2,4-dienone

> <PUBCHEM_IUPAC_NAME>
4-[[3-benzoyl-2,6-dihydroxy-4-(3-methylbut-2-enoxy)phenyl]methyl]-3,5-dihydroxy-6,6-dimethyl-2-(2-methylpropanoyl)cyclohexa-2,4-dien-1-one

> <PUBCHEM_IUPAC_SYSTEMATIC_NAME>
6,6-dimethyl-4-[[4-(3-methylbut-2-enoxy)-2,6-bis(oxidanyl)-3-(phenylcarbonyl)phenyl]methyl]-2-(2-methylpropanoyl)-3,5-bis(oxidanyl)cyclohexa-2,4-dien-1-one

> <PUBCHEM_IUPAC_TRADITIONAL_NAME>
4-[3-benzoyl-2,6-dihydroxy-4-(3-methylbut-2-enoxy)benzyl]-3,5-dihydroxy-2-isobutyryl-6,6-dimethyl-cyclohexa-2,4-dien-1-one

> <PUBCHEM_IUPAC_INCHI>
InChI=1S/C31H34O8/c1-16(2)12-13-39-22-15-21(32)19(27(35)23(22)26(34)18-10-8-7-9-11-18)14-20-28(36)24(25(33)17(3)4)30(38)31(5,6)29(20)37/h7-12,15,17,32,35-37H,13-14H2,1-6H3

> <PUBCHEM_IUPAC_INCHIKEY>
CTSAWQOSUXMFIZ-UHFFFAOYSA-N

> <PUBCHEM_XLOGP3_AA>
6.3

> <PUBCHEM_EXACT_MASS>
534.225368

> <PUBCHEM_MOLECULAR_FORMULA>
C31H34O8

> <PUBCHEM_MOLECULAR_WEIGHT>
534.59686

> <PUBCHEM_OPENEYE_CAN_SMILES>
CC(C)C(=O)C1=C(C(=C(C(C1=O)(C)C)O)CC2=C(C=C(C(=C2O)C(=O)C3=CC=CC=C3)OCC=C(C)C)O)O

> <PUBCHEM_OPENEYE_ISO_SMILES>
CC(C)C(=O)C1=C(C(=C(C(C1=O)(C)C)O)CC2=C(C=C(C(=C2O)C(=O)C3=CC=CC=C3)OCC=C(C)C)O)O

> <PUBCHEM_CACTVS_TPSA>
141

> <PUBCHEM_MONOISOTOPIC_WEIGHT>
534.225368

> <PUBCHEM_TOTAL_CHARGE>
0

> <PUBCHEM_HEAVY_ATOM_COUNT>
39

> <PUBCHEM_ATOM_DEF_STEREO_COUNT>
0

> <PUBCHEM_ATOM_UDEF_STEREO_COUNT>
0

> <PUBCHEM_BOND_DEF_STEREO_COUNT>
0

> <PUBCHEM_BOND_UDEF_STEREO_COUNT>
0

> <PUBCHEM_ISOTOPIC_ATOM_COUNT>
0

> <PUBCHEM_COMPONENT_COUNT>
1

> <PUBCHEM_CACTVS_TAUTO_COUNT>
228

> <PUBCHEM_COORDINATE_TYPE>
1
5
255

> <PUBCHEM_BONDANNOTATIONS>
19  21  8
19  22  8
21  25  8
22  26  8
25  27  8
26  27  8
29  31  8
29  32  8
31  34  8
32  35  8
34  37  8
35  37  8

$$$$

