54680116
  -OEChem-07051213003D

 49 51  0     1  0  0  0  0  0999 V2000
    1.7877   -0.5023   -0.1213 O   0  0  0  0  0  0  0  0  0  0  0  0
    5.3542   -1.0181    0.7672 O   0  0  0  0  0  0  0  0  0  0  0  0
   -1.6230    2.3535    0.6150 O   0  0  0  0  0  0  0  0  0  0  0  0
    0.0881   -1.2412   -2.0424 O   0  0  0  0  0  0  0  0  0  0  0  0
   -1.9648   -1.4506   -1.0608 N   0  0  0  0  0  0  0  0  0  0  0  0
    1.6880    0.9250   -0.0511 C   0  0  1  0  0  0  0  0  0  0  0  0
    2.9198   -1.1721    0.4524 C   0  0  0  0  0  0  0  0  0  0  0  0
    3.0042    1.6118   -0.4466 C   0  0  0  0  0  0  0  0  0  0  0  0
    4.2448   -0.4902    0.0489 C   0  0  1  0  0  0  0  0  0  0  0  0
    0.6087    1.2965   -1.0832 C   0  0  1  0  0  0  0  0  0  0  0  0
    4.2029    1.0165    0.2738 C   0  0  0  0  0  0  0  0  0  0  0  0
    1.1864    1.3900    1.3222 C   0  0  0  0  0  0  0  0  0  0  0  0
    2.8693   -2.5885   -0.1542 C   0  0  0  0  0  0  0  0  0  0  0  0
    2.7623   -1.3338    1.9720 C   0  0  0  0  0  0  0  0  0  0  0  0
   -0.6722    0.6065   -0.7492 C   0  0  0  0  0  0  0  0  0  0  0  0
    0.4275    2.8070   -1.1374 C   0  0  0  0  0  0  0  0  0  0  0  0
   -1.6597    1.1148    0.0107 C   0  0  0  0  0  0  0  0  0  0  0  0
   -0.8056   -0.7636   -1.3442 C   0  0  0  0  0  0  0  0  0  0  0  0
   -2.9034    0.3580    0.2595 C   0  0  0  0  0  0  0  0  0  0  0  0
   -3.0114   -0.9297   -0.2847 C   0  0  0  0  0  0  0  0  0  0  0  0
   -3.9931    0.8538    0.9917 C   0  0  0  0  0  0  0  0  0  0  0  0
   -4.1547   -1.7119   -0.0858 C   0  0  0  0  0  0  0  0  0  0  0  0
   -5.1384    0.0756    1.1908 C   0  0  0  0  0  0  0  0  0  0  0  0
   -5.2175   -1.2069    0.6568 C   0  0  0  0  0  0  0  0  0  0  0  0
    2.9731    2.6887   -0.2450 H   0  0  0  0  0  0  0  0  0  0  0  0
    3.1765    1.4900   -1.5245 H   0  0  0  0  0  0  0  0  0  0  0  0
    4.4286   -0.6670   -1.0191 H   0  0  0  0  0  0  0  0  0  0  0  0
    0.9292    0.9876   -2.0876 H   0  0  0  0  0  0  0  0  0  0  0  0
    5.1267    1.4740   -0.1019 H   0  0  0  0  0  0  0  0  0  0  0  0
    4.1799    1.2509    1.3440 H   0  0  0  0  0  0  0  0  0  0  0  0
    0.3957    0.7464    1.7209 H   0  0  0  0  0  0  0  0  0  0  0  0
    0.8889    2.4349    1.3976 H   0  0  0  0  0  0  0  0  0  0  0  0
    1.9898    1.3104    2.0598 H   0  0  0  0  0  0  0  0  0  0  0  0
    2.9099   -2.5441   -1.2490 H   0  0  0  0  0  0  0  0  0  0  0  0
    3.4215   -2.1175    2.3626 H   0  0  0  0  0  0  0  0  0  0  0  0
    3.0144   -0.4225    2.5172 H   0  0  0  0  0  0  0  0  0  0  0  0
    1.7299   -1.5927    2.2324 H   0  0  0  0  0  0  0  0  0  0  0  0
    3.6967   -3.2142    0.1962 H   0  0  0  0  0  0  0  0  0  0  0  0
    1.9257   -3.0872    0.0973 H   0  0  0  0  0  0  0  0  0  0  0  0
    0.3411    3.3536   -0.2000 H   0  0  0  0  0  0  0  0  0  0  0  0
   -0.4492    3.0678   -1.7454 H   0  0  0  0  0  0  0  0  0  0  0  0
    1.2736    3.2627   -1.6673 H   0  0  0  0  0  0  0  0  0  0  0  0
    6.1557   -0.5742    0.4416 H   0  0  0  0  0  0  0  0  0  0  0  0
   -2.0773   -2.3844   -1.4455 H   0  0  0  0  0  0  0  0  0  0  0  0
   -2.0235    2.2878    1.4972 H   0  0  0  0  0  0  0  0  0  0  0  0
   -3.9896    1.8534    1.4179 H   0  0  0  0  0  0  0  0  0  0  0  0
   -4.2273   -2.7101   -0.5096 H   0  0  0  0  0  0  0  0  0  0  0  0
   -5.9706    0.4765    1.7626 H   0  0  0  0  0  0  0  0  0  0  0  0
   -6.1081   -1.8082    0.8127 H   0  0  0  0  0  0  0  0  0  0  0  0
  1  6  1  0  0  0  0
  1  7  1  0  0  0  0
  2  9  1  0  0  0  0
  2 43  1  0  0  0  0
  3 17  1  0  0  0  0
  3 45  1  0  0  0  0
  4 18  2  0  0  0  0
  5 18  1  0  0  0  0
  5 20  1  0  0  0  0
  5 44  1  0  0  0  0
  6  8  1  0  0  0  0
  6 10  1  0  0  0  0
  6 12  1  0  0  0  0
  7  9  1  0  0  0  0
  7 13  1  0  0  0  0
  7 14  1  0  0  0  0
  8 11  1  0  0  0  0
  8 25  1  0  0  0  0
  8 26  1  0  0  0  0
  9 11  1  0  0  0  0
  9 27  1  0  0  0  0
 10 15  1  0  0  0  0
 10 16  1  0  0  0  0
 10 28  1  0  0  0  0
 11 29  1  0  0  0  0
 11 30  1  0  0  0  0
 12 31  1  0  0  0  0
 12 32  1  0  0  0  0
 12 33  1  0  0  0  0
 13 34  1  0  0  0  0
 13 38  1  0  0  0  0
 13 39  1  0  0  0  0
 14 35  1  0  0  0  0
 14 36  1  0  0  0  0
 14 37  1  0  0  0  0
 15 17  2  0  0  0  0
 15 18  1  0  0  0  0
 16 40  1  0  0  0  0
 16 41  1  0  0  0  0
 16 42  1  0  0  0  0
 17 19  1  0  0  0  0
 19 20  1  0  0  0  0
 19 21  2  0  0  0  0
 20 22  2  0  0  0  0
 21 23  1  0  0  0  0
 21 46  1  0  0  0  0
 22 24  1  0  0  0  0
 22 47  1  0  0  0  0
 23 24  2  0  0  0  0
 23 48  1  0  0  0  0
 24 49  1  0  0  0  0
M  END
> <PUBCHEM_COMPOUND_CID>
54680116

> <PUBCHEM_CONFORMER_RMSD>
0.6

> <PUBCHEM_CONFORMER_DIVERSEORDER>
1
11
33
79
80
85
34
92
71
47
82
15
16
14
78
51
70
66
10
25
26
73
44
90
77
88
8
65
22
39
45
2
74
6
28
72
46
3
31
55
53
81
64
4
30
35
84
13
91
20
12
9
7
37
24
56
32
58
69
41
68
83
23
18
27
49
48
42
61
62
67
59
54
17
36
40
43
19
57
5
60
63
29
52
76
38
75
86
87
21
50
89

> <PUBCHEM_MMFF94_PARTIAL_CHARGES>
25
1 -0.56
10 0.14
15 -0.12
17 0.05
18 0.62
19 0.03
2 -0.68
20 0.12
21 -0.15
22 -0.15
23 -0.15
24 -0.15
3 -0.53
4 -0.57
43 0.4
44 0.37
45 0.45
46 0.15
47 0.15
48 0.15
49 0.15
5 -0.55
6 0.28
7 0.28
9 0.28

> <PUBCHEM_EFFECTIVE_ROTOR_COUNT>
3.2

> <PUBCHEM_PHARMACOPHORE_FEATURES>
11
1 1 acceptor
1 16 hydrophobe
1 2 acceptor
1 2 donor
1 3 donor
1 4 acceptor
1 5 donor
3 7 13 14 hydrophobe
6 1 6 7 8 9 11 rings
6 19 20 21 22 23 24 rings
6 5 15 17 18 19 20 rings

> <PUBCHEM_HEAVY_ATOM_COUNT>
24

> <PUBCHEM_ATOM_DEF_STEREO_COUNT>
0

> <PUBCHEM_ATOM_UDEF_STEREO_COUNT>
3

> <PUBCHEM_BOND_DEF_STEREO_COUNT>
0

> <PUBCHEM_BOND_UDEF_STEREO_COUNT>
0

> <PUBCHEM_ISOTOPIC_ATOM_COUNT>
0

> <PUBCHEM_COMPONENT_COUNT>
1

> <PUBCHEM_CACTVS_TAUTO_COUNT>
15

> <PUBCHEM_CONFORMER_ID>
03425A3400000001

> <PUBCHEM_MMFF94_ENERGY>
92.8109

> <PUBCHEM_FEATURE_SELFOVERLAP>
55.85

> <PUBCHEM_SHAPE_FINGERPRINT>
11578080 2 17417822771848547765
11725454 13 14779547924161856909
11796584 16 17346038854049828035
11961588 58 9583222895453980695
12107183 9 17904474456928334297
12236239 1 18408881811028899593
12251169 10 18260547827107617239
12422481 6 18117266155045654945
12467345 10 18408882940631490699
12553582 1 18342187665081982646
12596602 18 18113897122120764003
12633257 1 17095528361637270203
12670546 177 10592049037954937019
12670546 56 18187369779286937865
12839892 36 17894627016358703271
12892183 10 18259706713349422256
13103583 49 18413101784349337483
13140716 1 18042128648069632447
13464513 79 18273214192849574338
13533116 47 18128530463057844411
13544653 18 17775565342728803829
13583140 156 18262813890745459149
14251764 3 14706925159434954451
14341114 176 18410002222363248387
14341114 328 18410289194502439594
14787075 74 18060131021092795636
14790565 3 17980753844905459852
14849402 71 18263930935063253912
14955137 171 18187078477836471704
15209289 33 18342178873136449362
15238133 3 17167852080312485168
15375462 189 18408892836594843024
15527383 91 18412545405342405256
16945 1 17968110715020248980
17959699 21 8718830877227376547
1813 80 17846771927467067358
19862831 5 10664104462564745447
200 152 16988845012010741274
20261772 1 18113618967074768222
20715895 44 18119522392030802529
20739085 24 18342172241854481492
20871999 31 12463575075761644103
21033648 29 16226338121706145939
21267235 1 18411693301390614582
2255824 54 18055627322264933588
22950370 63 18343861130348241250
23557571 272 14692585315752905108
23559900 14 17606094381529529661
2838139 119 6771861866308466858
345986 75 18270975642630345681
3737641 26 18200314471462840258
465052 167 18338789023311987451
5104073 3 18334011653377887865
6786 2 16048747391921983637
7064713 232 17894628171387920075
7097593 13 18338797814999175311
83771 10 18202285805336950084
8509985 295 17894347800365517321

> <PUBCHEM_SHAPE_MULTIPOLES>
465.45
9.87
2.45
1.41
3.81
0.39
0.02
-3.99
-3.79
-0.97
0.27
0
-0.18
-0.81

> <PUBCHEM_SHAPE_SELFOVERLAP>
1005.402

> <PUBCHEM_SHAPE_VOLUME>
254.6

> <PUBCHEM_COORDINATE_TYPE>
2
5
10

$$$$

