3040200
  -OEChem-07051213103D

 87 90  0     1  0  0  0  0  0999 V2000
   -1.1141   -1.7041   -0.0454 O   0  0  0  0  0  0  0  0  0  0  0  0
   -3.0758    0.1110    0.9296 O   0  0  0  0  0  0  0  0  0  0  0  0
    0.0562   -1.5978    1.9931 O   0  0  0  0  0  0  0  0  0  0  0  0
    3.1843   -1.0819    0.3142 O   0  0  0  0  0  0  0  0  0  0  0  0
   -2.0428   -4.4502   -0.1313 O   0  0  0  0  0  0  0  0  0  0  0  0
   -3.5630    1.7753   -0.6531 O   0  0  0  0  0  0  0  0  0  0  0  0
    3.6976    0.8328   -0.9779 O   0  0  0  0  0  0  0  0  0  0  0  0
    1.9350   -3.5069    0.6285 O   0  0  0  0  0  0  0  0  0  0  0  0
   -0.5016    3.4726    0.1583 O   0  0  0  0  0  0  0  0  0  0  0  0
   -3.9202    4.6578    0.0979 O   0  0  0  0  0  0  0  0  0  0  0  0
    7.2944   -1.2022   -1.0637 O   0  0  0  0  0  0  0  0  0  0  0  0
    0.8359    0.4871    3.7257 O   0  0  0  0  0  0  0  0  0  0  0  0
    7.0307    1.1564    0.5588 O   0  0  0  0  0  0  0  0  0  0  0  0
   -1.8678    3.6986   -3.2583 O   0  0  0  0  0  0  0  0  0  0  0  0
   -5.6909   -0.1557   -0.3026 N   0  0  0  0  0  0  0  0  0  0  0  0
   -4.6131   -4.7898   -1.4071 N   0  0  0  0  0  0  0  0  0  0  0  0
   -3.4650    2.6052    2.1812 N   0  0  0  0  0  0  0  0  0  0  0  0
    4.8141   -2.6852   -1.3964 N   0  0  0  0  0  0  0  0  0  0  0  0
    3.3331    3.3591    0.1966 N   0  0  0  0  0  0  0  0  0  0  0  0
   -2.4525   -2.1108    0.2558 C   0  0  1  0  0  0  0  0  0  0  0  0
   -3.3714   -0.9161   -0.0213 C   0  0  1  0  0  0  0  0  0  0  0  0
   -4.8545   -1.2955    0.0817 C   0  0  2  0  0  0  0  0  0  0  0  0
   -2.8057   -3.3342   -0.5980 C   0  0  2  0  0  0  0  0  0  0  0  0
   -4.2941   -3.6919   -0.4901 C   0  0  1  0  0  0  0  0  0  0  0  0
   -5.1840   -2.4897   -0.8179 C   0  0  0  0  0  0  0  0  0  0  0  0
   -0.1749   -2.3644    0.7945 C   0  0  2  0  0  0  0  0  0  0  0  0
    1.7798   -1.1109    0.4545 C   0  0  1  0  0  0  0  0  0  0  0  0
    1.1647   -2.4435    0.0771 C   0  0  1  0  0  0  0  0  0  0  0  0
    1.3492   -0.9730    1.9056 C   0  0  1  0  0  0  0  0  0  0  0  0
   -2.6012    1.2918    0.2829 C   0  0  1  0  0  0  0  0  0  0  0  0
   -2.2855    2.3551    1.3457 C   0  0  1  0  0  0  0  0  0  0  0  0
    3.5809   -0.5932   -0.9654 C   0  0  1  0  0  0  0  0  0  0  0  0
   -1.8198    3.6565    0.6743 C   0  0  2  0  0  0  0  0  0  0  0  0
    4.9078   -1.2249   -1.4038 C   0  0  1  0  0  0  0  0  0  0  0  0
   -2.7396    4.0880   -0.4743 C   0  0  1  0  0  0  0  0  0  0  0  0
   -3.1562    2.9297   -1.3979 C   0  0  1  0  0  0  0  0  0  0  0  0
    6.0575   -0.7549   -0.5059 C   0  0  2  0  0  0  0  0  0  0  0  0
    1.2530    0.4694    2.3703 C   0  0  0  0  0  0  0  0  0  0  0  0
    6.0779    0.7759   -0.4310 C   0  0  1  0  0  0  0  0  0  0  0  0
    4.6932    1.3324   -0.0784 C   0  0  1  0  0  0  0  0  0  0  0  0
   -2.1012    2.5663   -2.4411 C   0  0  0  0  0  0  0  0  0  0  0  0
    4.6493    2.8556   -0.1655 C   0  0  0  0  0  0  0  0  0  0  0  0
   -2.5224   -2.3536    1.3263 H   0  0  0  0  0  0  0  0  0  0  0  0
   -3.1577   -0.5771   -1.0465 H   0  0  0  0  0  0  0  0  0  0  0  0
   -5.0922   -1.5437    1.1241 H   0  0  0  0  0  0  0  0  0  0  0  0
   -2.5124   -3.1593   -1.6405 H   0  0  0  0  0  0  0  0  0  0  0  0
   -4.5152   -4.0384    0.5278 H   0  0  0  0  0  0  0  0  0  0  0  0
   -6.2398   -2.7657   -0.6940 H   0  0  0  0  0  0  0  0  0  0  0  0
   -5.0542   -2.2079   -1.8727 H   0  0  0  0  0  0  0  0  0  0  0  0
   -0.4974   -3.3556    1.1177 H   0  0  0  0  0  0  0  0  0  0  0  0
    1.3066   -0.3067   -0.1283 H   0  0  0  0  0  0  0  0  0  0  0  0
    1.0921   -2.5871   -1.0049 H   0  0  0  0  0  0  0  0  0  0  0  0
    2.0194   -1.5238    2.5778 H   0  0  0  0  0  0  0  0  0  0  0  0
   -1.6751    1.0251   -0.2405 H   0  0  0  0  0  0  0  0  0  0  0  0
   -1.5032    1.9673    2.0062 H   0  0  0  0  0  0  0  0  0  0  0  0
    2.8253   -0.8559   -1.7180 H   0  0  0  0  0  0  0  0  0  0  0  0
   -1.7582    4.4599    1.4193 H   0  0  0  0  0  0  0  0  0  0  0  0
   -5.5031    0.6302    0.3185 H   0  0  0  0  0  0  0  0  0  0  0  0
   -6.6739   -0.3939   -0.1772 H   0  0  0  0  0  0  0  0  0  0  0  0
    5.1235   -0.9075   -2.4329 H   0  0  0  0  0  0  0  0  0  0  0  0
   -5.5872   -5.0645   -1.2875 H   0  0  0  0  0  0  0  0  0  0  0  0
   -4.0515   -5.6063   -1.1690 H   0  0  0  0  0  0  0  0  0  0  0  0
   -2.2584    4.8852   -1.0521 H   0  0  0  0  0  0  0  0  0  0  0  0
   -4.0519    3.2491   -1.9464 H   0  0  0  0  0  0  0  0  0  0  0  0
    5.9840   -1.1874    0.4995 H   0  0  0  0  0  0  0  0  0  0  0  0
   -2.3425   -4.6648    0.7687 H   0  0  0  0  0  0  0  0  0  0  0  0
    2.2216    0.9722    2.2945 H   0  0  0  0  0  0  0  0  0  0  0  0
    0.5157    1.0189    1.7808 H   0  0  0  0  0  0  0  0  0  0  0  0
    6.4213    1.1854   -1.3888 H   0  0  0  0  0  0  0  0  0  0  0  0
    4.4290    1.0445    0.9484 H   0  0  0  0  0  0  0  0  0  0  0  0
    1.4827   -4.3385    0.4060 H   0  0  0  0  0  0  0  0  0  0  0  0
   -3.7495    1.7389    2.6364 H   0  0  0  0  0  0  0  0  0  0  0  0
   -3.2245    3.2582    2.9258 H   0  0  0  0  0  0  0  0  0  0  0  0
   -1.1540    2.2523   -1.9960 H   0  0  0  0  0  0  0  0  0  0  0  0
   -2.4575    1.7403   -3.0662 H   0  0  0  0  0  0  0  0  0  0  0  0
    5.3966    3.3014    0.4989 H   0  0  0  0  0  0  0  0  0  0  0  0
    4.8713    3.1801   -1.1887 H   0  0  0  0  0  0  0  0  0  0  0  0
    5.6861   -3.0853   -1.7402 H   0  0  0  0  0  0  0  0  0  0  0  0
    4.0834   -2.9852   -2.0402 H   0  0  0  0  0  0  0  0  0  0  0  0
    0.0791    3.2546    0.9070 H   0  0  0  0  0  0  0  0  0  0  0  0
   -4.4612    5.0071   -0.6307 H   0  0  0  0  0  0  0  0  0  0  0  0
    7.3746   -0.8308   -1.9588 H   0  0  0  0  0  0  0  0  0  0  0  0
    6.7201    0.8247    1.4184 H   0  0  0  0  0  0  0  0  0  0  0  0
    0.7741    1.4198    3.9937 H   0  0  0  0  0  0  0  0  0  0  0  0
    2.6293    2.9610   -0.4238 H   0  0  0  0  0  0  0  0  0  0  0  0
    3.3037    4.3679    0.0551 H   0  0  0  0  0  0  0  0  0  0  0  0
   -1.2071    3.4409   -3.9235 H   0  0  0  0  0  0  0  0  0  0  0  0
  1 20  1  0  0  0  0
  1 26  1  0  0  0  0
  2 21  1  0  0  0  0
  2 30  1  0  0  0  0
  3 26  1  0  0  0  0
  3 29  1  0  0  0  0
  4 27  1  0  0  0  0
  4 32  1  0  0  0  0
  5 23  1  0  0  0  0
  5 66  1  0  0  0  0
  6 30  1  0  0  0  0
  6 36  1  0  0  0  0
  7 32  1  0  0  0  0
  7 40  1  0  0  0  0
  8 28  1  0  0  0  0
  8 71  1  0  0  0  0
  9 33  1  0  0  0  0
  9 80  1  0  0  0  0
 10 35  1  0  0  0  0
 10 81  1  0  0  0  0
 11 37  1  0  0  0  0
 11 82  1  0  0  0  0
 12 38  1  0  0  0  0
 12 84  1  0  0  0  0
 13 39  1  0  0  0  0
 13 83  1  0  0  0  0
 14 41  1  0  0  0  0
 14 87  1  0  0  0  0
 15 22  1  0  0  0  0
 15 58  1  0  0  0  0
 15 59  1  0  0  0  0
 16 24  1  0  0  0  0
 16 61  1  0  0  0  0
 16 62  1  0  0  0  0
 17 31  1  0  0  0  0
 17 72  1  0  0  0  0
 17 73  1  0  0  0  0
 18 34  1  0  0  0  0
 18 78  1  0  0  0  0
 18 79  1  0  0  0  0
 19 42  1  0  0  0  0
 19 85  1  0  0  0  0
 19 86  1  0  0  0  0
 20 21  1  0  0  0  0
 20 23  1  0  0  0  0
 20 43  1  0  0  0  0
 21 22  1  0  0  0  0
 21 44  1  0  0  0  0
 22 25  1  0  0  0  0
 22 45  1  0  0  0  0
 23 24  1  0  0  0  0
 23 46  1  0  0  0  0
 24 25  1  0  0  0  0
 24 47  1  0  0  0  0
 25 48  1  0  0  0  0
 25 49  1  0  0  0  0
 26 28  1  0  0  0  0
 26 50  1  0  0  0  0
 27 28  1  0  0  0  0
 27 29  1  0  0  0  0
 27 51  1  0  0  0  0
 28 52  1  0  0  0  0
 29 38  1  0  0  0  0
 29 53  1  0  0  0  0
 30 31  1  0  0  0  0
 30 54  1  0  0  0  0
 31 33  1  0  0  0  0
 31 55  1  0  0  0  0
 32 34  1  0  0  0  0
 32 56  1  0  0  0  0
 33 35  1  0  0  0  0
 33 57  1  0  0  0  0
 34 37  1  0  0  0  0
 34 60  1  0  0  0  0
 35 36  1  0  0  0  0
 35 63  1  0  0  0  0
 36 41  1  0  0  0  0
 36 64  1  0  0  0  0
 37 39  1  0  0  0  0
 37 65  1  0  0  0  0
 38 67  1  0  0  0  0
 38 68  1  0  0  0  0
 39 40  1  0  0  0  0
 39 69  1  0  0  0  0
 40 42  1  0  0  0  0
 40 70  1  0  0  0  0
 41 74  1  0  0  0  0
 41 75  1  0  0  0  0
 42 76  1  0  0  0  0
 42 77  1  0  0  0  0
M  END
> <PUBCHEM_COMPOUND_CID>
3040200

> <PUBCHEM_CONFORMER_RMSD>
1.2

> <PUBCHEM_CONFORMER_DIVERSEORDER>
1
23
17
4
11
27
14
25
8
6
31
13
16
10
20
24
30
18
28
5
15
22
26
19
9
12
21
3
7
29
2

> <PUBCHEM_MMFF94_PARTIAL_CHARGES>
59
1 -0.56
10 -0.68
11 -0.68
12 -0.68
13 -0.68
14 -0.68
15 -0.99
16 -0.99
17 -0.99
18 -0.99
19 -0.99
2 -0.56
20 0.28
21 0.28
22 0.27
23 0.28
24 0.27
26 0.56
27 0.28
28 0.28
29 0.28
3 -0.56
30 0.56
31 0.27
32 0.56
33 0.28
34 0.27
35 0.28
36 0.28
37 0.28
38 0.28
39 0.28
4 -0.56
40 0.28
41 0.28
42 0.27
5 -0.68
58 0.36
59 0.36
6 -0.56
61 0.36
62 0.36
66 0.4
7 -0.56
71 0.4
72 0.36
73 0.36
78 0.36
79 0.36
8 -0.68
80 0.4
81 0.4
82 0.4
83 0.4
84 0.4
85 0.36
86 0.36
87 0.4
9 -0.68

> <PUBCHEM_EFFECTIVE_ROTOR_COUNT>
13.6

> <PUBCHEM_PHARMACOPHORE_FEATURES>
36
1 1 acceptor
1 10 acceptor
1 10 donor
1 11 acceptor
1 11 donor
1 12 acceptor
1 12 donor
1 13 acceptor
1 13 donor
1 14 acceptor
1 14 donor
1 15 cation
1 15 donor
1 16 cation
1 16 donor
1 17 cation
1 17 donor
1 18 cation
1 18 donor
1 19 cation
1 19 donor
1 2 acceptor
1 3 acceptor
1 4 acceptor
1 5 acceptor
1 5 donor
1 6 acceptor
1 7 acceptor
1 8 acceptor
1 8 donor
1 9 acceptor
1 9 donor
5 3 26 27 28 29 rings
6 20 21 22 23 24 25 rings
6 6 30 31 33 35 36 rings
6 7 32 34 37 39 40 rings

> <PUBCHEM_HEAVY_ATOM_COUNT>
42

> <PUBCHEM_ATOM_DEF_STEREO_COUNT>
19

> <PUBCHEM_ATOM_UDEF_STEREO_COUNT>
0

> <PUBCHEM_BOND_DEF_STEREO_COUNT>
0

> <PUBCHEM_BOND_UDEF_STEREO_COUNT>
0

> <PUBCHEM_ISOTOPIC_ATOM_COUNT>
0

> <PUBCHEM_COMPONENT_COUNT>
1

> <PUBCHEM_CACTVS_TAUTO_COUNT>
1

> <PUBCHEM_CONFORMER_ID>
002E63C800000001

> <PUBCHEM_MMFF94_ENERGY>
104.1766

> <PUBCHEM_FEATURE_SELFOVERLAP>
182.83

> <PUBCHEM_SHAPE_FINGERPRINT>
10670039 82 18342738533424230134
10864689 126 17907570690605516452
11093857 51 17545345406206558089
11434127 23 18115310119401805820
12788726 201 18343028809047835331
13560911 43 18128824041036364272
14068700 675 18269275664536191357
14114211 80 17900534885592395649
14856354 85 15213289777804781127
14932701 244 18410577262243400188
14955137 171 18125423230329042259
15001296 14 18270966747621296960
15082195 135 17981626058600323405
15276724 80 18335413565137133359
15297060 5 18117276080604748145
15876981 60 18340200779067724735
15975801 100 17560528412526201084
19311894 1 18410009983443277888
19319366 153 16813182829468650081
21033650 10 18270665546450821402
21792938 131 17044569043344703735
22907989 373 18196952152451994813
23559900 14 17901393295062935731
244849 19 17531547424721211648
3493558 16 18124024638162453126
4066623 53 18193852439472085670
469060 322 16773793714413916261
4756261 7 18119497026074934897
508706 21 17846487158725642096
5283173 99 18334851732566344530
6371009 1 18271529706681331740

> <PUBCHEM_SHAPE_MULTIPOLES>
757.26
14.06
6.56
2.08
19.04
1.75
0.65
-3.07
-5.05
-8.69
-1.97
-0.28
1.23
0.09

> <PUBCHEM_SHAPE_SELFOVERLAP>
1568.858

> <PUBCHEM_SHAPE_VOLUME>
424.4

> <PUBCHEM_COORDINATE_TYPE>
2
5
10

$$$$

