155585
  -OEChem-07051212573D

 38 40  0     1  0  0  0  0  0999 V2000
    2.3488   -1.7123    0.4406 O   0  0  0  0  0  0  0  0  0  0  0  0
   -0.5431    1.0016    1.9857 O   0  0  0  0  0  0  0  0  0  0  0  0
   -2.6276    2.6819    0.1513 O   0  0  0  0  0  0  0  0  0  0  0  0
    4.3345   -0.6516   -0.0034 O   0  0  0  0  0  0  0  0  0  0  0  0
    3.4812    2.0491   -1.2591 O   0  0  0  0  0  0  0  0  0  0  0  0
   -1.3732    0.6202   -0.2686 C   0  0  2  0  0  0  0  0  0  0  0  0
   -1.9187   -0.7820    0.1242 C   0  0  2  0  0  0  0  0  0  0  0  0
   -1.3084   -1.9854   -0.6246 C   0  0  1  0  0  0  0  0  0  0  0  0
   -0.1727    1.0448    0.6032 C   0  0  2  0  0  0  0  0  0  0  0  0
    0.2390   -2.0194   -0.6350 C   0  0  0  0  0  0  0  0  0  0  0  0
    0.9656   -1.3165    0.5204 C   0  0  2  0  0  0  0  0  0  0  0  0
    1.0366    0.1726    0.4188 C   0  0  0  0  0  0  0  0  0  0  0  0
   -2.6102    1.4699   -0.0044 C   0  0  0  0  0  0  0  0  0  0  0  0
   -3.4127   -0.6141   -0.0142 C   0  0  0  0  0  0  0  0  0  0  0  0
   -1.0803    0.8184   -1.7716 C   0  0  0  0  0  0  0  0  0  0  0  0
   -1.8226   -3.3091   -0.0277 C   0  0  0  0  0  0  0  0  0  0  0  0
   -3.8323    0.6525   -0.0304 C   0  0  0  0  0  0  0  0  0  0  0  0
    2.2898    0.5780    0.1909 C   0  0  0  0  0  0  0  0  0  0  0  0
    3.1299   -0.6277    0.1823 C   0  0  0  0  0  0  0  0  0  0  0  0
    2.8765    1.9290    0.0215 C   0  0  0  0  0  0  0  0  0  0  0  0
   -1.7602   -0.9598    1.1980 H   0  0  0  0  0  0  0  0  0  0  0  0
   -1.6456   -1.9696   -1.6699 H   0  0  0  0  0  0  0  0  0  0  0  0
    0.0715    2.0904    0.3873 H   0  0  0  0  0  0  0  0  0  0  0  0
    0.5984   -1.6040   -1.5854 H   0  0  0  0  0  0  0  0  0  0  0  0
    0.5840   -3.0621   -0.6799 H   0  0  0  0  0  0  0  0  0  0  0  0
    0.5870   -1.6431    1.4945 H   0  0  0  0  0  0  0  0  0  0  0  0
   -4.1054   -1.4446   -0.0001 H   0  0  0  0  0  0  0  0  0  0  0  0
   -0.1780    0.3044   -2.1057 H   0  0  0  0  0  0  0  0  0  0  0  0
   -1.9114    0.4712   -2.3965 H   0  0  0  0  0  0  0  0  0  0  0  0
   -0.9374    1.8824   -1.9986 H   0  0  0  0  0  0  0  0  0  0  0  0
   -1.5281   -3.4098    1.0225 H   0  0  0  0  0  0  0  0  0  0  0  0
   -2.9122   -3.3843   -0.0855 H   0  0  0  0  0  0  0  0  0  0  0  0
   -1.4167   -4.1665   -0.5760 H   0  0  0  0  0  0  0  0  0  0  0  0
   -4.8409    1.0245   -0.0537 H   0  0  0  0  0  0  0  0  0  0  0  0
   -1.2110    1.6917    2.1361 H   0  0  0  0  0  0  0  0  0  0  0  0
    3.6447    2.1009    0.7830 H   0  0  0  0  0  0  0  0  0  0  0  0
    2.1298    2.7212    0.1169 H   0  0  0  0  0  0  0  0  0  0  0  0
    3.8669    2.9403   -1.3106 H   0  0  0  0  0  0  0  0  0  0  0  0
  1 11  1  0  0  0  0
  1 19  1  0  0  0  0
  2  9  1  0  0  0  0
  2 35  1  0  0  0  0
  3 13  2  0  0  0  0
  4 19  2  0  0  0  0
  5 20  1  0  0  0  0
  5 38  1  0  0  0  0
  6  7  1  0  0  0  0
  6  9  1  0  0  0  0
  6 13  1  0  0  0  0
  6 15  1  0  0  0  0
  7  8  1  0  0  0  0
  7 14  1  0  0  0  0
  7 21  1  0  0  0  0
  8 10  1  0  0  0  0
  8 16  1  0  0  0  0
  8 22  1  0  0  0  0
  9 12  1  0  0  0  0
  9 23  1  0  0  0  0
 10 11  1  0  0  0  0
 10 24  1  0  0  0  0
 10 25  1  0  0  0  0
 11 12  1  0  0  0  0
 11 26  1  0  0  0  0
 12 18  2  0  0  0  0
 13 17  1  0  0  0  0
 14 17  2  0  0  0  0
 14 27  1  0  0  0  0
 15 28  1  0  0  0  0
 15 29  1  0  0  0  0
 15 30  1  0  0  0  0
 16 31  1  0  0  0  0
 16 32  1  0  0  0  0
 16 33  1  0  0  0  0
 17 34  1  0  0  0  0
 18 19  1  0  0  0  0
 18 20  1  0  0  0  0
 20 36  1  0  0  0  0
 20 37  1  0  0  0  0
M  END
> <PUBCHEM_COMPOUND_CID>
155585

> <PUBCHEM_CONFORMER_RMSD>
0.6

> <PUBCHEM_CONFORMER_DIVERSEORDER>
1

> <PUBCHEM_MMFF94_PARTIAL_CHARGES>
20
1 -0.43
11 0.42
12 -0.28
13 0.49
14 -0.29
17 -0.14
18 -0.12
19 0.71
2 -0.68
20 0.42
27 0.15
3 -0.57
34 0.15
35 0.4
38 0.4
4 -0.57
5 -0.68
6 0.06
7 0.14
9 0.42

> <PUBCHEM_EFFECTIVE_ROTOR_COUNT>
1.8

> <PUBCHEM_PHARMACOPHORE_FEATURES>
9
1 2 acceptor
1 2 donor
1 3 acceptor
1 4 acceptor
1 5 acceptor
1 5 donor
5 1 11 12 18 19 rings
5 6 7 13 14 17 rings
7 6 7 8 9 10 11 12 rings

> <PUBCHEM_HEAVY_ATOM_COUNT>
20

> <PUBCHEM_ATOM_DEF_STEREO_COUNT>
5

> <PUBCHEM_ATOM_UDEF_STEREO_COUNT>
0

> <PUBCHEM_BOND_DEF_STEREO_COUNT>
0

> <PUBCHEM_BOND_UDEF_STEREO_COUNT>
0

> <PUBCHEM_ISOTOPIC_ATOM_COUNT>
0

> <PUBCHEM_COMPONENT_COUNT>
1

> <PUBCHEM_CACTVS_TAUTO_COUNT>
3

> <PUBCHEM_CONFORMER_ID>
00025FC100000001

> <PUBCHEM_MMFF94_ENERGY>
46.9197

> <PUBCHEM_FEATURE_SELFOVERLAP>
45.739

> <PUBCHEM_SHAPE_FINGERPRINT>
104564 63 18120369848363495207
10616163 171 18337671914813167030
10863032 1 18339079272358036815
10948715 1 18341331184146813889
10967382 1 18409171051338071443
11370993 70 18338526351454120477
12011746 2 18409173220840018103
12173636 292 18408892849353599189
12403814 3 18060147522146046597
12553582 1 17616259082750071631
12592029 89 18268425909514721683
13027679 85 17976540512262805207
13140716 1 18337684013836085066
13583140 156 17346609607114436801
14115302 16 18334296470071308152
14790565 3 18335976541588703065
15196674 1 18410013195914953699
15309172 13 18337951289866861467
15775835 57 18342452613066690988
16945 1 18337961086481574171
18186145 218 18263083369403589356
20510252 161 18187648041664969865
20645476 183 18410294756442915743
21267235 1 18410567400993375955
21501502 16 18339930298932756910
23227448 37 18339924822743719502
2334 1 18120944901455557298
23463225 33 18339083799243062795
23559900 14 18041003956109039858
238 59 17551273900068489621
2748010 2 17613456449459467467
350125 39 18411699897953764652
352729 6 18407762538415194479
474 4 17489021536036939324
7097593 13 18057342749725820642
8272917 22 17901666295921004141
90525 40 18335706095433289511
9709674 26 18334293167147005854
9981440 41 17694224370803486528

> <PUBCHEM_SHAPE_MULTIPOLES>
382.24
6.05
2.86
1.08
2.87
1.02
0.07
-1.45
0.4
-0.9
0.2
0.01
-0.35
-0.5

> <PUBCHEM_SHAPE_SELFOVERLAP>
829.239

> <PUBCHEM_SHAPE_VOLUME>
209.6

> <PUBCHEM_COORDINATE_TYPE>
2
5
10

$$$$

