36565
  -OEChem-07051213122D

 42 42  0     1  0  0  0  0  0999 V2000
    6.7909   -1.4361    0.0000 O   0  5  0  0  0  0  0  0  0  0  0  0
    2.0000   -0.3227    0.0000 O   0  5  0  0  0  0  0  0  0  0  0  0
    7.0917    0.2697    0.0000 O   0  0  0  0  0  0  0  0  0  0  0  0
    2.8660    1.1773    0.0000 O   0  0  0  0  0  0  0  0  0  0  0  0
    4.5981    1.1773    0.0000 N   0  0  0  0  0  0  0  0  0  0  0  0
    6.4489   -0.4964    0.0000 N   0  3  0  0  0  0  0  0  0  0  0  0
    2.8660    0.1773    0.0000 N   0  3  0  0  0  0  0  0  0  0  0  0
    4.5981   -2.8227    0.0000 C   0  0  0  0  0  0  0  0  0  0  0  0
    4.5981   -1.8227    0.0000 C   0  0  0  0  0  0  0  0  0  0  0  0
    4.5981   -3.8227    0.0000 C   0  0  0  0  0  0  0  0  0  0  0  0
    3.5981   -2.8227    0.0000 C   0  0  0  0  0  0  0  0  0  0  0  0
    5.5981   -2.8227    0.0000 C   0  0  0  0  0  0  0  0  0  0  0  0
    4.9401    2.1170    0.0000 C   0  0  3  0  0  0  0  0  0  0  0  0
    4.5981    0.1773    0.0000 C   0  0  0  0  0  0  0  0  0  0  0  0
    5.4641   -1.3227    0.0000 C   0  0  0  0  0  0  0  0  0  0  0  0
    3.7320   -1.3227    0.0000 C   0  0  0  0  0  0  0  0  0  0  0  0
    5.4641   -0.3227    0.0000 C   0  0  0  0  0  0  0  0  0  0  0  0
    3.7320   -0.3227    0.0000 C   0  0  0  0  0  0  0  0  0  0  0  0
    4.2973    2.8830    0.0000 C   0  0  0  0  0  0  0  0  0  0  0  0
    5.9249    2.2906    0.0000 C   0  0  0  0  0  0  0  0  0  0  0  0
    4.6393    3.8227    0.0000 C   0  0  0  0  0  0  0  0  0  0  0  0
    4.1030    1.9694    0.0000 H   0  0  0  0  0  0  0  0  0  0  0  0
    3.9781   -3.8227    0.0000 H   0  0  0  0  0  0  0  0  0  0  0  0
    4.5981   -4.4427    0.0000 H   0  0  0  0  0  0  0  0  0  0  0  0
    5.2181   -3.8227    0.0000 H   0  0  0  0  0  0  0  0  0  0  0  0
    3.5981   -2.2027    0.0000 H   0  0  0  0  0  0  0  0  0  0  0  0
    2.9781   -2.8227    0.0000 H   0  0  0  0  0  0  0  0  0  0  0  0
    3.5981   -3.4427    0.0000 H   0  0  0  0  0  0  0  0  0  0  0  0
    5.5981   -3.4427    0.0000 H   0  0  0  0  0  0  0  0  0  0  0  0
    6.2181   -2.8227    0.0000 H   0  0  0  0  0  0  0  0  0  0  0  0
    5.5981   -2.2027    0.0000 H   0  0  0  0  0  0  0  0  0  0  0  0
    6.0010   -1.6327    0.0000 H   0  0  0  0  0  0  0  0  0  0  0  0
    3.1951   -1.6327    0.0000 H   0  0  0  0  0  0  0  0  0  0  0  0
    4.0611    1.4873    0.0000 H   0  0  0  0  0  0  0  0  0  0  0  0
    3.7604    3.1930    0.0000 H   0  0  0  0  0  0  0  0  0  0  0  0
    3.8988    2.4081    0.0000 H   0  0  0  0  0  0  0  0  0  0  0  0
    6.0326    1.6800    0.0000 H   0  0  0  0  0  0  0  0  0  0  0  0
    6.5355    2.3983    0.0000 H   0  0  0  0  0  0  0  0  0  0  0  0
    5.8172    2.9012    0.0000 H   0  0  0  0  0  0  0  0  0  0  0  0
    5.2219    3.6107    0.0000 H   0  0  0  0  0  0  0  0  0  0  0  0
    4.8514    4.4053    0.0000 H   0  0  0  0  0  0  0  0  0  0  0  0
    4.0567    4.0348    0.0000 H   0  0  0  0  0  0  0  0  0  0  0  0
  1  6  1  0  0  0  0
  2  7  1  0  0  0  0
  3  6  2  0  0  0  0
  4  7  2  0  0  0  0
  5 13  1  0  0  0  0
  5 14  1  0  0  0  0
  5 34  1  0  0  0  0
  6 17  1  0  0  0  0
  7 18  1  0  0  0  0
  8  9  1  0  0  0  0
  8 10  1  0  0  0  0
  8 11  1  0  0  0  0
  8 12  1  0  0  0  0
  9 15  2  0  0  0  0
  9 16  1  0  0  0  0
 10 23  1  0  0  0  0
 10 24  1  0  0  0  0
 10 25  1  0  0  0  0
 11 26  1  0  0  0  0
 11 27  1  0  0  0  0
 11 28  1  0  0  0  0
 12 29  1  0  0  0  0
 12 30  1  0  0  0  0
 12 31  1  0  0  0  0
 13 19  1  0  0  0  0
 13 20  1  0  0  0  0
 13 22  1  0  0  0  0
 14 17  2  0  0  0  0
 14 18  1  0  0  0  0
 15 17  1  0  0  0  0
 15 32  1  0  0  0  0
 16 18  2  0  0  0  0
 16 33  1  0  0  0  0
 19 21  1  0  0  0  0
 19 35  1  0  0  0  0
 19 36  1  0  0  0  0
 20 37  1  0  0  0  0
 20 38  1  0  0  0  0
 20 39  1  0  0  0  0
 21 40  1  0  0  0  0
 21 41  1  0  0  0  0
 21 42  1  0  0  0  0
M  CHG  4   1  -1   2  -1   6   1   7   1
M  END
> <PUBCHEM_COMPOUND_CID>
36565

> <PUBCHEM_COMPOUND_CANONICALIZED>
1

> <PUBCHEM_CACTVS_COMPLEXITY>
359

> <PUBCHEM_CACTVS_HBOND_ACCEPTOR>
5

> <PUBCHEM_CACTVS_HBOND_DONOR>
1

> <PUBCHEM_CACTVS_ROTATABLE_BOND>
4

> <PUBCHEM_CACTVS_SUBSKEYS>
AAADceBzOAAAAAAAAAAAAAAAAAAAAAAAAAAwAAAAAAAAAAABAAAAHAAUAAAADijBGAQywILQQACBAiRCQwCCAAAhAgAgiIAIdIoIYCLA0dGUIAhgkIDIyAcQgMAPiAAAQAQAACAQAACACAAAQAAAAAAAAA==

> <PUBCHEM_IUPAC_OPENEYE_NAME>
4-tert-butyl-2,6-dinitro-N-sec-butyl-aniline

> <PUBCHEM_IUPAC_CAS_NAME>
N-butan-2-yl-4-tert-butyl-2,6-dinitroaniline

> <PUBCHEM_IUPAC_NAME>
N-butan-2-yl-4-tert-butyl-2,6-dinitroaniline

> <PUBCHEM_IUPAC_SYSTEMATIC_NAME>
N-butan-2-yl-4-tert-butyl-2,6-dinitro-aniline

> <PUBCHEM_IUPAC_TRADITIONAL_NAME>
(4-tert-butyl-2,6-dinitro-phenyl)-sec-butyl-amine

> <PUBCHEM_IUPAC_INCHI>
InChI=1S/C14H21N3O4/c1-6-9(2)15-13-11(16(18)19)7-10(14(3,4)5)8-12(13)17(20)21/h7-9,15H,6H2,1-5H3

> <PUBCHEM_IUPAC_INCHIKEY>
SPNQRCTZKIBOAX-UHFFFAOYSA-N

> <PUBCHEM_XLOGP3_AA>
5.1

> <PUBCHEM_EXACT_MASS>
295.153206

> <PUBCHEM_MOLECULAR_FORMULA>
C14H21N3O4

> <PUBCHEM_MOLECULAR_WEIGHT>
295.33424

> <PUBCHEM_OPENEYE_CAN_SMILES>
CCC(C)NC1=C(C=C(C=C1[N+](=O)[O-])C(C)(C)C)[N+](=O)[O-]

> <PUBCHEM_OPENEYE_ISO_SMILES>
CCC(C)NC1=C(C=C(C=C1[N+](=O)[O-])C(C)(C)C)[N+](=O)[O-]

> <PUBCHEM_CACTVS_TPSA>
104

> <PUBCHEM_MONOISOTOPIC_WEIGHT>
295.153206

> <PUBCHEM_TOTAL_CHARGE>
0

> <PUBCHEM_HEAVY_ATOM_COUNT>
21

> <PUBCHEM_ATOM_DEF_STEREO_COUNT>
0

> <PUBCHEM_ATOM_UDEF_STEREO_COUNT>
1

> <PUBCHEM_BOND_DEF_STEREO_COUNT>
0

> <PUBCHEM_BOND_UDEF_STEREO_COUNT>
0

> <PUBCHEM_ISOTOPIC_ATOM_COUNT>
0

> <PUBCHEM_COMPONENT_COUNT>
1

> <PUBCHEM_CACTVS_TAUTO_COUNT>
1

> <PUBCHEM_COORDINATE_TYPE>
1
5
255

> <PUBCHEM_BONDANNOTATIONS>
13  22  3
14  17  8
14  18  8
15  17  8
16  18  8
9  15  8
9  16  8

$$$$

