73285
  -OEChem-07051212573D

 37 39  0     1  0  0  0  0  0999 V2000
    2.0252    1.3148    0.3665 O   0  0  0  0  0  0  0  0  0  0  0  0
    3.8529    0.3646    1.4023 O   0  0  0  0  0  0  0  0  0  0  0  0
   -1.1648    0.9314   -0.0518 C   0  0  1  0  0  0  0  0  0  0  0  0
   -1.1590   -0.5733   -0.4646 C   0  0  1  0  0  0  0  0  0  0  0  0
   -0.0733    1.6798   -0.8602 C   0  0  0  0  0  0  0  0  0  0  0  0
    1.3318   -0.4747   -0.9989 C   0  0  1  0  0  0  0  0  0  0  0  0
    0.2227   -1.2081   -0.2313 C   0  0  0  0  0  0  0  0  0  0  0  0
    1.3129    1.0372   -0.8506 C   0  0  2  0  0  0  0  0  0  0  0  0
   -2.5462    1.5525   -0.4158 C   0  0  0  0  0  0  0  0  0  0  0  0
   -2.3410   -1.3032    0.1623 C   0  0  0  0  0  0  0  0  0  0  0  0
   -3.7360    0.7796    0.1614 C   0  0  0  0  0  0  0  0  0  0  0  0
   -0.9183    1.1312    1.4635 C   0  0  0  0  0  0  0  0  0  0  0  0
   -3.6818   -0.7048   -0.1938 C   0  0  0  0  0  0  0  0  0  0  0  0
    2.6635   -0.7447   -0.3880 C   0  0  0  0  0  0  0  0  0  0  0  0
    2.9653    0.3419    0.5697 C   0  0  0  0  0  0  0  0  0  0  0  0
   -2.2616   -2.3764    0.9646 C   0  0  0  0  0  0  0  0  0  0  0  0
    3.5076   -1.7477   -0.6352 C   0  0  0  0  0  0  0  0  0  0  0  0
   -1.3295   -0.6213   -1.5520 H   0  0  0  0  0  0  0  0  0  0  0  0
    0.0012    2.7152   -0.5037 H   0  0  0  0  0  0  0  0  0  0  0  0
   -0.3955    1.7310   -1.9093 H   0  0  0  0  0  0  0  0  0  0  0  0
    1.2889   -0.7483   -2.0595 H   0  0  0  0  0  0  0  0  0  0  0  0
    0.2116   -2.2542   -0.5671 H   0  0  0  0  0  0  0  0  0  0  0  0
    0.4480   -1.2444    0.8423 H   0  0  0  0  0  0  0  0  0  0  0  0
    1.8984    1.5064   -1.6547 H   0  0  0  0  0  0  0  0  0  0  0  0
   -2.6586    1.5787   -1.5081 H   0  0  0  0  0  0  0  0  0  0  0  0
   -2.5947    2.5952   -0.0774 H   0  0  0  0  0  0  0  0  0  0  0  0
   -4.6676    1.2107   -0.2241 H   0  0  0  0  0  0  0  0  0  0  0  0
   -3.7695    0.9004    1.2505 H   0  0  0  0  0  0  0  0  0  0  0  0
   -0.9429    2.1962    1.7217 H   0  0  0  0  0  0  0  0  0  0  0  0
   -1.6742    0.6318    2.0769 H   0  0  0  0  0  0  0  0  0  0  0  0
    0.0503    0.7443    1.7881 H   0  0  0  0  0  0  0  0  0  0  0  0
   -3.8489   -0.8310   -1.2709 H   0  0  0  0  0  0  0  0  0  0  0  0
   -4.5038   -1.2246    0.3127 H   0  0  0  0  0  0  0  0  0  0  0  0
   -1.3158   -2.8258    1.2424 H   0  0  0  0  0  0  0  0  0  0  0  0
   -3.1554   -2.8378    1.3724 H   0  0  0  0  0  0  0  0  0  0  0  0
    3.2545   -2.5180   -1.3558 H   0  0  0  0  0  0  0  0  0  0  0  0
    4.4643   -1.8266   -0.1302 H   0  0  0  0  0  0  0  0  0  0  0  0
  1  8  1  0  0  0  0
  1 15  1  0  0  0  0
  2 15  2  0  0  0  0
  3  4  1  0  0  0  0
  3  5  1  0  0  0  0
  3  9  1  0  0  0  0
  3 12  1  0  0  0  0
  4  7  1  0  0  0  0
  4 10  1  0  0  0  0
  4 18  1  0  0  0  0
  5  8  1  0  0  0  0
  5 19  1  0  0  0  0
  5 20  1  0  0  0  0
  6  7  1  0  0  0  0
  6  8  1  0  0  0  0
  6 14  1  0  0  0  0
  6 21  1  0  0  0  0
  7 22  1  0  0  0  0
  7 23  1  0  0  0  0
  8 24  1  0  0  0  0
  9 11  1  0  0  0  0
  9 25  1  0  0  0  0
  9 26  1  0  0  0  0
 10 13  1  0  0  0  0
 10 16  2  0  0  0  0
 11 13  1  0  0  0  0
 11 27  1  0  0  0  0
 11 28  1  0  0  0  0
 12 29  1  0  0  0  0
 12 30  1  0  0  0  0
 12 31  1  0  0  0  0
 13 32  1  0  0  0  0
 13 33  1  0  0  0  0
 14 15  1  0  0  0  0
 14 17  2  0  0  0  0
 16 34  1  0  0  0  0
 16 35  1  0  0  0  0
 17 36  1  0  0  0  0
 17 37  1  0  0  0  0
M  END
> <PUBCHEM_COMPOUND_CID>
73285

> <PUBCHEM_CONFORMER_RMSD>
0.6

> <PUBCHEM_CONFORMER_DIVERSEORDER>
1
2

> <PUBCHEM_MMFF94_PARTIAL_CHARGES>
15
1 -0.43
10 -0.28
13 0.14
14 -0.12
15 0.71
16 -0.3
17 -0.3
2 -0.57
34 0.15
35 0.15
36 0.15
37 0.15
4 0.14
6 0.14
8 0.28

> <PUBCHEM_EFFECTIVE_ROTOR_COUNT>
1.2

> <PUBCHEM_PHARMACOPHORE_FEATURES>
4
1 2 acceptor
5 1 6 8 14 15 rings
6 3 4 5 6 7 8 rings
6 3 4 9 10 11 13 rings

> <PUBCHEM_HEAVY_ATOM_COUNT>
17

> <PUBCHEM_ATOM_DEF_STEREO_COUNT>
4

> <PUBCHEM_ATOM_UDEF_STEREO_COUNT>
0

> <PUBCHEM_BOND_DEF_STEREO_COUNT>
0

> <PUBCHEM_BOND_UDEF_STEREO_COUNT>
0

> <PUBCHEM_ISOTOPIC_ATOM_COUNT>
0

> <PUBCHEM_COMPONENT_COUNT>
1

> <PUBCHEM_CACTVS_TAUTO_COUNT>
1

> <PUBCHEM_CONFORMER_ID>
00011E4500000001

> <PUBCHEM_MMFF94_ENERGY>
43.9227

> <PUBCHEM_FEATURE_SELFOVERLAP>
20.492

> <PUBCHEM_SHAPE_FINGERPRINT>
10366900 7 18114750334654352848
10608611 8 18335143110930505012
1100329 8 16463891186679303494
11132069 177 18410858776175275717
11471102 22 17458344186658748062
11680986 33 18335697260675200582
12251169 10 18413394228361324196
12382932 28 18408884001504275673
12507560 40 18187368744336839674
12592029 89 17774155837995062003
13140716 1 18270113505397398697
13296908 3 18408318886840000942
13581323 91 18413671318134188789
13693222 15 17967531255138682062
14115302 16 18201427099730022191
14223421 5 18337107843888605464
14289901 80 17676214541326277986
15219456 202 18187368744057329854
15536298 74 18260267473069982526
15653759 3 18408602582562690798
16945 1 18343575244540273141
17804303 29 18337101392958633342
17834072 14 18410581669027337317
1813 80 16342867701993691290
18175812 5 18187364358795520158
18186145 218 18336827618958491573
19049666 15 18189616227460498662
19784866 170 18336552616782410480
200 152 17531254992982157143
20361792 2 16486977284392927278
20510252 161 18334577983771601753
21452121 199 17766844918641097851
21501502 16 18127684942399309957
21501925 9 18339646641964713623
23184049 29 18057038004457764883
2334 1 18268138765149284631
23402539 116 18340783584823383205
23419403 2 17550147712114104997
23463225 33 18342454833216590957
23559900 14 18337109064128829102
2748010 2 18335976527890911390
296302 2 18335423439256345200
3286 77 17895757421448290398
474 4 14636019772363945994
5104073 3 18334293197148194619
568465 68 17969779674939706259
69090 78 18260835916624153255
7364860 26 18267295439937015604
74978 22 18131059407766643471
81228 2 18266161993645831593
8809292 202 18340479053850511927
9709674 26 18409448059575401951

> <PUBCHEM_SHAPE_MULTIPOLES>
338.11
6.28
2.06
1.12
1.21
0.54
-0.26
1.18
-0.74
-0.7
-0.09
0.41
-0.14
0.66

> <PUBCHEM_SHAPE_SELFOVERLAP>
722.156

> <PUBCHEM_SHAPE_VOLUME>
187

> <PUBCHEM_COORDINATE_TYPE>
2
5
10

$$$$

