237808
  -OEChem-07051213073D

 60 63  0     1  0  0  0  0  0999 V2000
   -4.0467   -0.6237    0.0280 O   0  0  0  0  0  0  0  0  0  0  0  0
    6.1329   -0.4009   -1.8062 O   0  0  0  0  0  0  0  0  0  0  0  0
   -5.3990    0.6810   -1.3110 O   0  0  0  0  0  0  0  0  0  0  0  0
   -0.7195    0.8718   -0.0045 C   0  0  1  0  0  0  0  0  0  0  0  0
    0.6742    0.7663    0.6291 C   0  0  1  0  0  0  0  0  0  0  0  0
   -1.6130   -0.3451    0.3119 C   0  0  2  0  0  0  0  0  0  0  0  0
    1.3822   -0.5408    0.1016 C   0  0  1  0  0  0  0  0  0  0  0  0
    2.8128   -0.7234    0.7356 C   0  0  2  0  0  0  0  0  0  0  0  0
   -0.9555   -1.5869   -0.2994 C   0  0  0  0  0  0  0  0  0  0  0  0
    0.4716   -1.7925    0.2367 C   0  0  0  0  0  0  0  0  0  0  0  0
    1.5487    2.0401    0.4363 C   0  0  1  0  0  0  0  0  0  0  0  0
   -2.9089    0.1057   -0.3896 C   0  0  2  0  0  0  0  0  0  0  0  0
   -1.6092    2.0600    0.3574 C   0  0  0  0  0  0  0  0  0  0  0  0
   -3.0255    1.6000   -0.0333 C   0  0  0  0  0  0  0  0  0  0  0  0
    2.9517    1.8266    1.0416 C   0  0  0  0  0  0  0  0  0  0  0  0
    3.5761    0.5784    0.4651 C   0  0  0  0  0  0  0  0  0  0  0  0
   -1.8760   -0.5873    1.8204 C   0  0  0  0  0  0  0  0  0  0  0  0
    3.5958   -1.9340    0.1493 C   0  0  0  0  0  0  0  0  0  0  0  0
    2.7355   -0.9894    2.2618 C   0  0  0  0  0  0  0  0  0  0  0  0
    1.6594    2.5070   -1.0239 C   0  0  0  0  0  0  0  0  0  0  0  0
    4.1827   -1.6697   -1.2250 C   0  0  0  0  0  0  0  0  0  0  0  0
    4.6497    0.6810   -0.3361 C   0  0  0  0  0  0  0  0  0  0  0  0
    5.0957   -0.4729   -1.1513 C   0  0  0  0  0  0  0  0  0  0  0  0
   -5.2475   -0.2329   -0.5121 C   0  0  0  0  0  0  0  0  0  0  0  0
   -6.3534   -1.1065    0.0319 C   0  0  0  0  0  0  0  0  0  0  0  0
   -7.7146   -0.7121   -0.5143 C   0  0  0  0  0  0  0  0  0  0  0  0
   -0.5762    0.9097   -1.0964 H   0  0  0  0  0  0  0  0  0  0  0  0
    0.5343    0.6680    1.7112 H   0  0  0  0  0  0  0  0  0  0  0  0
    1.5214   -0.4044   -0.9810 H   0  0  0  0  0  0  0  0  0  0  0  0
   -0.9060   -1.4889   -1.3918 H   0  0  0  0  0  0  0  0  0  0  0  0
   -1.5571   -2.4814   -0.0982 H   0  0  0  0  0  0  0  0  0  0  0  0
    0.4179   -2.1135    1.2814 H   0  0  0  0  0  0  0  0  0  0  0  0
    0.9068   -2.6296   -0.3193 H   0  0  0  0  0  0  0  0  0  0  0  0
    1.0796    2.8612    0.9949 H   0  0  0  0  0  0  0  0  0  0  0  0
   -2.7985   -0.0062   -1.4775 H   0  0  0  0  0  0  0  0  0  0  0  0
   -1.3275    2.9713   -0.1783 H   0  0  0  0  0  0  0  0  0  0  0  0
   -1.5630    2.2816    1.4296 H   0  0  0  0  0  0  0  0  0  0  0  0
   -3.7277    1.7862    0.7872 H   0  0  0  0  0  0  0  0  0  0  0  0
   -3.3755    2.1752   -0.8978 H   0  0  0  0  0  0  0  0  0  0  0  0
    2.8847    1.7447    2.1323 H   0  0  0  0  0  0  0  0  0  0  0  0
    3.5736    2.7108    0.8520 H   0  0  0  0  0  0  0  0  0  0  0  0
   -2.3935    0.2525    2.2948 H   0  0  0  0  0  0  0  0  0  0  0  0
   -2.5054   -1.4736    1.9636 H   0  0  0  0  0  0  0  0  0  0  0  0
   -0.9586   -0.7565    2.3900 H   0  0  0  0  0  0  0  0  0  0  0  0
    2.9793   -2.8375    0.1213 H   0  0  0  0  0  0  0  0  0  0  0  0
    4.4337   -2.1780    0.8198 H   0  0  0  0  0  0  0  0  0  0  0  0
    2.1102   -0.2715    2.7980 H   0  0  0  0  0  0  0  0  0  0  0  0
    2.3337   -1.9867    2.4724 H   0  0  0  0  0  0  0  0  0  0  0  0
    3.7325   -0.9428    2.7176 H   0  0  0  0  0  0  0  0  0  0  0  0
    2.3334    3.3675   -1.1013 H   0  0  0  0  0  0  0  0  0  0  0  0
    2.0419    1.7242   -1.6851 H   0  0  0  0  0  0  0  0  0  0  0  0
    0.6907    2.8296   -1.4153 H   0  0  0  0  0  0  0  0  0  0  0  0
    3.4086   -1.4855   -1.9761 H   0  0  0  0  0  0  0  0  0  0  0  0
    4.7707   -2.5379   -1.5422 H   0  0  0  0  0  0  0  0  0  0  0  0
    5.1527    1.6263   -0.5089 H   0  0  0  0  0  0  0  0  0  0  0  0
   -6.1392   -2.1452   -0.2405 H   0  0  0  0  0  0  0  0  0  0  0  0
   -6.3605   -1.0157    1.1232 H   0  0  0  0  0  0  0  0  0  0  0  0
   -7.7403   -0.7980   -1.6056 H   0  0  0  0  0  0  0  0  0  0  0  0
   -8.4935   -1.3605   -0.1014 H   0  0  0  0  0  0  0  0  0  0  0  0
   -7.9574    0.3236   -0.2542 H   0  0  0  0  0  0  0  0  0  0  0  0
  1 12  1  0  0  0  0
  1 24  1  0  0  0  0
  2 23  2  0  0  0  0
  3 24  2  0  0  0  0
  4  5  1  0  0  0  0
  4  6  1  0  0  0  0
  4 13  1  0  0  0  0
  4 27  1  0  0  0  0
  5  7  1  0  0  0  0
  5 11  1  0  0  0  0
  5 28  1  0  0  0  0
  6  9  1  0  0  0  0
  6 12  1  0  0  0  0
  6 17  1  0  0  0  0
  7  8  1  0  0  0  0
  7 10  1  0  0  0  0
  7 29  1  0  0  0  0
  8 16  1  0  0  0  0
  8 18  1  0  0  0  0
  8 19  1  0  0  0  0
  9 10  1  0  0  0  0
  9 30  1  0  0  0  0
  9 31  1  0  0  0  0
 10 32  1  0  0  0  0
 10 33  1  0  0  0  0
 11 15  1  0  0  0  0
 11 20  1  0  0  0  0
 11 34  1  0  0  0  0
 12 14  1  0  0  0  0
 12 35  1  0  0  0  0
 13 14  1  0  0  0  0
 13 36  1  0  0  0  0
 13 37  1  0  0  0  0
 14 38  1  0  0  0  0
 14 39  1  0  0  0  0
 15 16  1  0  0  0  0
 15 40  1  0  0  0  0
 15 41  1  0  0  0  0
 16 22  2  0  0  0  0
 17 42  1  0  0  0  0
 17 43  1  0  0  0  0
 17 44  1  0  0  0  0
 18 21  1  0  0  0  0
 18 45  1  0  0  0  0
 18 46  1  0  0  0  0
 19 47  1  0  0  0  0
 19 48  1  0  0  0  0
 19 49  1  0  0  0  0
 20 50  1  0  0  0  0
 20 51  1  0  0  0  0
 20 52  1  0  0  0  0
 21 23  1  0  0  0  0
 21 53  1  0  0  0  0
 21 54  1  0  0  0  0
 22 23  1  0  0  0  0
 22 55  1  0  0  0  0
 24 25  1  0  0  0  0
 25 26  1  0  0  0  0
 25 56  1  0  0  0  0
 25 57  1  0  0  0  0
 26 58  1  0  0  0  0
 26 59  1  0  0  0  0
 26 60  1  0  0  0  0
M  END
> <PUBCHEM_COMPOUND_CID>
237808

> <PUBCHEM_CONFORMER_RMSD>
0.8

> <PUBCHEM_CONFORMER_DIVERSEORDER>
1
2
3

> <PUBCHEM_MMFF94_PARTIAL_CHARGES>
13
1 -0.43
12 0.28
15 0.14
16 -0.28
2 -0.57
21 0.06
22 -0.14
23 0.49
24 0.66
25 0.06
3 -0.57
55 0.15
8 0.14

> <PUBCHEM_EFFECTIVE_ROTOR_COUNT>
4.8

> <PUBCHEM_PHARMACOPHORE_FEATURES>
7
1 2 acceptor
1 26 hydrophobe
1 3 acceptor
5 4 6 12 13 14 rings
6 4 5 6 7 9 10 rings
6 5 7 8 11 15 16 rings
6 8 16 18 21 22 23 rings

> <PUBCHEM_HEAVY_ATOM_COUNT>
26

> <PUBCHEM_ATOM_DEF_STEREO_COUNT>
7

> <PUBCHEM_ATOM_UDEF_STEREO_COUNT>
0

> <PUBCHEM_BOND_DEF_STEREO_COUNT>
0

> <PUBCHEM_BOND_UDEF_STEREO_COUNT>
0

> <PUBCHEM_ISOTOPIC_ATOM_COUNT>
0

> <PUBCHEM_COMPONENT_COUNT>
1

> <PUBCHEM_CACTVS_TAUTO_COUNT>
5

> <PUBCHEM_CONFORMER_ID>
0003A0F000000001

> <PUBCHEM_MMFF94_ENERGY>
79.3056

> <PUBCHEM_FEATURE_SELFOVERLAP>
35.636

> <PUBCHEM_SHAPE_FINGERPRINT>
10366900 7 18202278112934322961
10693767 8 18187369877876858574
11089746 13 12607403273996356143
11961588 58 17418084400192423334
11963148 33 18410864235459887831
12011746 2 18342735217334853374
12166972 35 17749105578290108129
12403259 415 18342185462001396629
12596602 18 13183019631666644477
12788726 201 18341334486919052065
13533116 47 17530684273216840408
13685833 64 17894346692184820390
14294032 229 16880170451517314145
14931854 50 18341039813940188614
15142383 8 5184352876116425811
15183329 4 18411702119227362145
15196674 1 18337675316353113601
15238133 3 17489038127553567384
16752209 62 18336829796385623992
16945 1 18335984182245280360
17349148 13 17312818277745683303
17492 54 18201421585672489542
1813 80 13840259291422866874
18222031 100 18333736827153079515
18681886 176 18408043991911592592
19784866 240 17676479553867409789
200 152 18040156223542347929
20028762 73 18113341916305432111
20645477 70 18410295783019240168
20691752 17 17560232647596969984
21150785 3 16200429144495570863
21267235 1 18334852810571129799
21279426 13 18337399331067573157
21285901 2 18342174526903469526
21792961 116 18059842996692132202
221357 26 18334012804487313516
22149856 69 18187636952861713315
2215653 11 18410013230306210911
22393880 68 18339930418975622029
23522609 53 18044624642634525241
23559900 14 18335704896963438112
23569914 152 17179139899233830469
300161 21 11600007639753278577
3004659 81 18411422795834127005
3472631 163 13830127282544802338
350125 39 18409728500013730753
4340502 62 16298681516612661506
46194498 28 18411980239465740012
465052 167 17967811639272782303
484989 97 18199175205633453763
5104073 3 18261965149267544569
53794403 172 17986669260069371229

> <PUBCHEM_SHAPE_MULTIPOLES>
517.46
14.02
2.2
1.38
19.3
0.75
-0.3
-4.42
5.73
-1.19
0.06
-1.32
-0.22
0.42

> <PUBCHEM_SHAPE_SELFOVERLAP>
1097.245

> <PUBCHEM_SHAPE_VOLUME>
286.5

> <PUBCHEM_COORDINATE_TYPE>
2
5
10

$$$$

