443184
  -OEChem-07051213013D

 29 29  0     1  0  0  0  0  0999 V2000
    1.5904   -1.7051   -0.6584 O   0  0  0  0  0  0  0  0  0  0  0  0
    1.9757    0.4718    0.3910 C   0  0  2  0  0  0  0  0  0  0  0  0
   -0.8742   -0.0619   -0.2790 C   0  0  2  0  0  0  0  0  0  0  0  0
    1.3786   -0.9405    0.5268 C   0  0  1  0  0  0  0  0  0  0  0  0
   -0.1292   -0.8791    0.7901 C   0  0  0  0  0  0  0  0  0  0  0  0
    1.2393    1.2830   -0.6850 C   0  0  0  0  0  0  0  0  0  0  0  0
   -0.2639    1.3394   -0.4155 C   0  0  0  0  0  0  0  0  0  0  0  0
    3.4754    0.4397    0.0919 C   0  0  0  0  0  0  0  0  0  0  0  0
   -2.3369    0.0243    0.0411 C   0  0  0  0  0  0  0  0  0  0  0  0
   -3.2712   -0.5750   -0.9679 C   0  0  0  0  0  0  0  0  0  0  0  0
   -2.7838    0.6036    1.1651 C   0  0  0  0  0  0  0  0  0  0  0  0
    1.8431    0.9862    1.3526 H   0  0  0  0  0  0  0  0  0  0  0  0
   -0.7506   -0.5738   -1.2434 H   0  0  0  0  0  0  0  0  0  0  0  0
    1.8733   -1.4700    1.3494 H   0  0  0  0  0  0  0  0  0  0  0  0
   -0.2828   -0.4503    1.7884 H   0  0  0  0  0  0  0  0  0  0  0  0
   -0.5392   -1.8974    0.8118 H   0  0  0  0  0  0  0  0  0  0  0  0
    1.4143    0.8455   -1.6761 H   0  0  0  0  0  0  0  0  0  0  0  0
    1.6355    2.3052   -0.7180 H   0  0  0  0  0  0  0  0  0  0  0  0
   -0.4253    1.9315    0.4943 H   0  0  0  0  0  0  0  0  0  0  0  0
   -0.7534    1.8834   -1.2333 H   0  0  0  0  0  0  0  0  0  0  0  0
    3.6837   -0.0255   -0.8773 H   0  0  0  0  0  0  0  0  0  0  0  0
    3.8880    1.4540    0.0733 H   0  0  0  0  0  0  0  0  0  0  0  0
    4.0109   -0.1253    0.8620 H   0  0  0  0  0  0  0  0  0  0  0  0
    1.2261   -2.5935   -0.5052 H   0  0  0  0  0  0  0  0  0  0  0  0
   -3.1537   -0.0787   -1.9367 H   0  0  0  0  0  0  0  0  0  0  0  0
   -3.0608   -1.6420   -1.0941 H   0  0  0  0  0  0  0  0  0  0  0  0
   -4.3200   -0.4760   -0.6684 H   0  0  0  0  0  0  0  0  0  0  0  0
   -3.8459    0.6575    1.3819 H   0  0  0  0  0  0  0  0  0  0  0  0
   -2.1143    1.0389    1.8986 H   0  0  0  0  0  0  0  0  0  0  0  0
  1  4  1  0  0  0  0
  1 24  1  0  0  0  0
  2  4  1  0  0  0  0
  2  6  1  0  0  0  0
  2  8  1  0  0  0  0
  2 12  1  0  0  0  0
  3  5  1  0  0  0  0
  3  7  1  0  0  0  0
  3  9  1  0  0  0  0
  3 13  1  0  0  0  0
  4  5  1  0  0  0  0
  4 14  1  0  0  0  0
  5 15  1  0  0  0  0
  5 16  1  0  0  0  0
  6  7  1  0  0  0  0
  6 17  1  0  0  0  0
  6 18  1  0  0  0  0
  7 19  1  0  0  0  0
  7 20  1  0  0  0  0
  8 21  1  0  0  0  0
  8 22  1  0  0  0  0
  8 23  1  0  0  0  0
  9 10  1  0  0  0  0
  9 11  2  0  0  0  0
 10 25  1  0  0  0  0
 10 26  1  0  0  0  0
 10 27  1  0  0  0  0
 11 28  1  0  0  0  0
 11 29  1  0  0  0  0
M  END
> <PUBCHEM_COMPOUND_CID>
443184

> <PUBCHEM_CONFORMER_RMSD>
0.6

> <PUBCHEM_CONFORMER_DIVERSEORDER>
1
2
7
6
3
5
4
8

> <PUBCHEM_MMFF94_PARTIAL_CHARGES>
9
1 -0.68
10 0.14
11 -0.3
24 0.4
28 0.15
29 0.15
3 0.14
4 0.28
9 -0.28

> <PUBCHEM_EFFECTIVE_ROTOR_COUNT>
2.2

> <PUBCHEM_PHARMACOPHORE_FEATURES>
3
1 1 acceptor
1 1 donor
6 2 3 4 5 6 7 rings

> <PUBCHEM_HEAVY_ATOM_COUNT>
11

> <PUBCHEM_ATOM_DEF_STEREO_COUNT>
3

> <PUBCHEM_ATOM_UDEF_STEREO_COUNT>
0

> <PUBCHEM_BOND_DEF_STEREO_COUNT>
0

> <PUBCHEM_BOND_UDEF_STEREO_COUNT>
0

> <PUBCHEM_ISOTOPIC_ATOM_COUNT>
0

> <PUBCHEM_COMPONENT_COUNT>
1

> <PUBCHEM_CACTVS_TAUTO_COUNT>
1

> <PUBCHEM_CONFORMER_ID>
0006C33000000001

> <PUBCHEM_MMFF94_ENERGY>
18.3516

> <PUBCHEM_FEATURE_SELFOVERLAP>
15.223

> <PUBCHEM_SHAPE_FINGERPRINT>
10219947 1 18272937107049826120
10857977 72 17346590864009084257
11062470 55 15985114010798714269
124424 183 16845308128106395536
12932764 1 16298394560672047123
14993402 34 18410580543624573694
15310529 11 16226048894260548748
15775835 57 17968087651272703417
161256 15 18196365038469188638
16945 1 18201718440215086216
20201158 50 17918280852428602435
20279233 1 17346881156722432595
20711983 171 17095519651628392169
20711985 344 17342950556876570596
23235685 24 18343586213770799848
23402655 69 18057347122471500445
23552423 10 18263645220188365239
2748010 2 18056487385344602180
29004967 10 17917708023992553513
3248919 1 18410573976878144787
5084963 1 18340776939907641137
528886 8 18412269402148625106
8030462 33 17604158085802881967

> <PUBCHEM_SHAPE_MULTIPOLES>
220.51
4.9
1.38
1.01
0.7
0.08
0.07
-0.14
-0.07
-0.52
-0.18
0.54
0.04
-0.25

> <PUBCHEM_SHAPE_SELFOVERLAP>
431.253

> <PUBCHEM_SHAPE_VOLUME>
133.1

> <PUBCHEM_COORDINATE_TYPE>
2
5
10

$$$$

