583221
  -OEChem-06241222452D

 34 30  0     0  0  0  0  0  0999 V2000
    3.6180    1.1220    0.0000 W   0  0  0  0  0  0  0  0  0  0  0  0
    3.8536   -0.7954    0.0000 O   0  0  0  0  0  0  0  0  0  0  0  0
    2.0000   -0.0535    0.0000 O   0  3  0  0  0  0  0  0  0  0  0  0
    2.5659   -0.4982    0.0000 O   0  3  0  0  0  0  0  0  0  0  0  0
    5.5406    0.5708    0.0000 O   0  3  0  0  0  0  0  0  0  0  0  0
    4.0890    2.0647    0.0000 C   0  5  0  0  0  0  0  0  0  0  0  0
    4.4544    2.2438    0.0000 C   0  5  0  0  0  0  0  0  0  0  0  0
    3.0552    2.0647    0.0000 C   0  5  0  0  0  0  0  0  0  0  0  0
    3.6180    2.5923    0.0000 C   0  5  0  0  0  0  0  0  0  0  0  0
    2.7817    2.2438    0.0000 C   0  5  0  0  0  0  0  0  0  0  0  0
    3.9927    0.1949    0.0000 C   0  5  0  0  0  0  0  0  0  0  0  0
    2.8090    0.5343    0.0000 C   0  5  0  0  0  0  0  0  0  0  0  0
    3.3090    0.1710    0.0000 C   0  5  0  0  0  0  0  0  0  0  0  0
    4.5793    0.8464    0.0000 C   0  5  0  0  0  0  0  0  0  0  0  0
    4.8756   -0.2746    0.0000 C   0  0  0  0  0  0  0  0  0  0  0  0
    4.9105   -1.2740    0.0000 C   0  0  0  0  0  0  0  0  0  0  0  0
    5.7934   -1.7434    0.0000 C   0  0  0  0  0  0  0  0  0  0  0  0
    6.6415   -1.2135    0.0000 C   0  0  0  0  0  0  0  0  0  0  0  0
    5.8283   -2.7428    0.0000 C   0  0  0  0  0  0  0  0  0  0  0  0
    7.5244   -1.6830    0.0000 C   0  0  0  0  0  0  0  0  0  0  0  0
    6.7113   -3.2123    0.0000 C   0  0  0  0  0  0  0  0  0  0  0  0
    7.5593   -2.6824    0.0000 C   0  0  0  0  0  0  0  0  0  0  0  0
    4.5257    1.6246    0.0000 H   0  0  0  0  0  0  0  0  0  0  0  0
    5.0523    2.4078    0.0000 H   0  0  0  0  0  0  0  0  0  0  0  0
    2.6078    1.6355    0.0000 H   0  0  0  0  0  0  0  0  0  0  0  0
    3.6180    3.2123    0.0000 H   0  0  0  0  0  0  0  0  0  0  0  0
    2.1838    2.4078    0.0000 H   0  0  0  0  0  0  0  0  0  0  0  0
    5.4014    0.0540    0.0000 H   0  0  0  0  0  0  0  0  0  0  0  0
    4.3847   -1.6025    0.0000 H   0  0  0  0  0  0  0  0  0  0  0  0
    6.6198   -0.5939    0.0000 H   0  0  0  0  0  0  0  0  0  0  0  0
    5.3025   -3.0714    0.0000 H   0  0  0  0  0  0  0  0  0  0  0  0
    8.0502   -1.3544    0.0000 H   0  0  0  0  0  0  0  0  0  0  0  0
    6.7329   -3.8319    0.0000 H   0  0  0  0  0  0  0  0  0  0  0  0
    8.1068   -2.9735    0.0000 H   0  0  0  0  0  0  0  0  0  0  0  0
  2 11  2  0  0  0  0
  3 12  3  0  0  0  0
  4 13  3  0  0  0  0
  5 14  3  0  0  0  0
  6  7  1  0  0  0  0
  6  8  1  0  0  0  0
  6 23  1  0  0  0  0
  7  9  1  0  0  0  0
  7 24  1  0  0  0  0
  8 10  1  0  0  0  0
  8 25  1  0  0  0  0
  9 10  1  0  0  0  0
  9 26  1  0  0  0  0
 10 27  1  0  0  0  0
 11 15  1  0  0  0  0
 15 16  2  3  0  0  0
 15 28  1  0  0  0  0
 16 17  1  0  0  0  0
 16 29  1  0  0  0  0
 17 18  2  0  0  0  0
 17 19  1  0  0  0  0
 18 20  1  0  0  0  0
 18 30  1  0  0  0  0
 19 21  2  0  0  0  0
 19 31  1  0  0  0  0
 20 22  2  0  0  0  0
 20 32  1  0  0  0  0
 21 22  1  0  0  0  0
 21 33  1  0  0  0  0
 22 34  1  0  0  0  0
M  CHG  8   3   1   4   1   5   1   6  -1   7  -1   8  -1   9  -1  10  -1
M  CHG  4  11  -1  12  -1  13  -1  14  -1
M  END
> <PUBCHEM_COMPOUND_CID>
583221

> <PUBCHEM_COMPOUND_CANONICALIZED>
1

> <PUBCHEM_CACTVS_COMPLEXITY>
287

> <PUBCHEM_CACTVS_HBOND_ACCEPTOR>
10

> <PUBCHEM_CACTVS_HBOND_DONOR>
0

> <PUBCHEM_CACTVS_ROTATABLE_BOND>
1

> <PUBCHEM_CACTVS_SUBSKEYS>
AAADccB4OAAAAAAAAAAAQAAAEiRIkAAAAAAwAAAAAAAAAAABAAAAGgAAAAAADACAmAAwAIAAAACIAiBSAAACAAAgAAAIiAAAAMgIICKAERCAIAAggAAIiYcAgAAOAAAAAAAAAAAAAAAAAAAAAAAAAAAAAA==

> <PUBCHEM_IUPAC_OPENEYE_NAME>
carbon monoxide; cyclopentane; 3-phenylprop-2-en-1-one; tungsten

> <PUBCHEM_IUPAC_CAS_NAME>
carbon monoxide; cyclopentane; 3-phenyl-2-propen-1-one; tungsten

> <PUBCHEM_IUPAC_NAME>
carbon monoxide; cyclopentane; 3-phenylprop-2-en-1-one; tungsten

> <PUBCHEM_IUPAC_SYSTEMATIC_NAME>
carbon monoxide; cyclopentane; 3-phenylprop-2-en-1-one; tungsten

> <PUBCHEM_IUPAC_TRADITIONAL_NAME>
carbon monoxide; cyclopentane; 3-phenylprop-2-en-1-one; tungsten

> <PUBCHEM_IUPAC_INCHI>
InChI=1S/C9H7O.C5H5.3CO.W/c10-8-4-7-9-5-2-1-3-6-9;1-2-4-5-3-1;3*1-2;/h1-7H;1-5H;;;;/q-1;-5;;;;

> <PUBCHEM_IUPAC_INCHIKEY>
XJTRDOVTSUYLFR-UHFFFAOYSA-N

> <PUBCHEM_EXACT_MASS>
464.02449

> <PUBCHEM_MOLECULAR_FORMULA>
C17H12O4W-6

> <PUBCHEM_MOLECULAR_WEIGHT>
464.11478

> <PUBCHEM_OPENEYE_CAN_SMILES>
[C-]#[O+].[C-]#[O+].[C-]#[O+].[CH-]1[CH-][CH-][CH-][CH-]1.C1=CC=C(C=C1)C=C[C-]=O.[W]

> <PUBCHEM_OPENEYE_ISO_SMILES>
[C-]#[O+].[C-]#[O+].[C-]#[O+].[CH-]1[CH-][CH-][CH-][CH-]1.C1=CC=C(C=C1)C=C[C-]=O.[W]

> <PUBCHEM_CACTVS_TPSA>
20.1

> <PUBCHEM_MONOISOTOPIC_WEIGHT>
464.02449

> <PUBCHEM_TOTAL_CHARGE>
-6

> <PUBCHEM_HEAVY_ATOM_COUNT>
22

> <PUBCHEM_ATOM_DEF_STEREO_COUNT>
0

> <PUBCHEM_ATOM_UDEF_STEREO_COUNT>
0

> <PUBCHEM_BOND_DEF_STEREO_COUNT>
0

> <PUBCHEM_BOND_UDEF_STEREO_COUNT>
1

> <PUBCHEM_ISOTOPIC_ATOM_COUNT>
0

> <PUBCHEM_COMPONENT_COUNT>
6

> <PUBCHEM_CACTVS_TAUTO_COUNT>
1

> <PUBCHEM_NONSTANDARDBOND>
1  10  6
1  11  6
1  12  6
1  13  6
1  14  6
1  6  6
1  7  6
1  8  6
1  9  6

> <PUBCHEM_COORDINATE_TYPE>
1
5
255

> <PUBCHEM_BONDANNOTATIONS>
1  10  4
1  11  4
1  12  4
1  13  4
1  14  4
1  6  4
1  7  4
1  8  4
1  9  4
15  16  1
17  18  8
17  19  8
18  20  8
19  21  8
20  22  8
21  22  8
6  7  8
6  8  8
7  9  8
8  10  8
9  10  8

$$$$

