328562
  -OEChem-07051213002D

 59 62  0     1  0  0  0  0  0999 V2000
    9.9398    0.5108    0.0000 O   0  0  0  0  0  0  0  0  0  0  0  0
    5.7523   -0.5601    0.0000 O   0  0  0  0  0  0  0  0  0  0  0  0
    8.2925    0.8226    0.0000 N   0  0  0  0  0  0  0  0  0  0  0  0
    5.3461   -2.1093    0.0000 N   0  0  0  0  0  0  0  0  0  0  0  0
    4.8284    0.8226    0.0000 N   0  0  0  0  0  0  0  0  0  0  0  0
    7.4265    1.3226    0.0000 C   0  0  3  0  0  0  0  0  0  0  0  0
    6.5605    0.8226    0.0000 C   0  0  0  0  0  0  0  0  0  0  0  0
    8.2925   -0.1774    0.0000 C   0  0  0  0  0  0  0  0  0  0  0  0
    7.8851   -1.1610    0.0000 C   0  0  0  0  0  0  0  0  0  0  0  0
    7.2868    2.2934    0.0000 C   0  0  0  0  0  0  0  0  0  0  0  0
    7.0191   -1.6610    0.0000 C   0  0  0  0  0  0  0  0  0  0  0  0
    5.6944    1.3226    0.0000 C   0  0  0  0  0  0  0  0  0  0  0  0
    4.3801   -1.8504    0.0000 C   0  0  3  0  0  0  0  0  0  0  0  0
    6.0532   -1.4022    0.0000 C   0  0  0  0  0  0  0  0  0  0  0  0
    7.9569    3.0097    0.0000 C   0  0  0  0  0  0  0  0  0  0  0  0
    9.2031    1.1870    0.0000 C   0  0  0  0  0  0  0  0  0  0  0  0
    4.1213   -0.8845    0.0000 C   0  0  0  0  0  0  0  0  0  0  0  0
    6.2883    2.5094    0.0000 C   0  0  0  0  0  0  0  0  0  0  0  0
    4.8284   -0.1774    0.0000 C   0  0  0  0  0  0  0  0  0  0  0  0
    8.9348    2.9350    0.0000 C   0  0  0  0  0  0  0  0  0  0  0  0
    3.6730   -2.5576    0.0000 C   0  0  0  0  0  0  0  0  0  0  0  0
    9.4884    2.1254    0.0000 C   0  0  0  0  0  0  0  0  0  0  0  0
    7.6748    3.9916    0.0000 C   0  0  0  0  0  0  0  0  0  0  0  0
    5.9836    3.4845    0.0000 C   0  0  0  0  0  0  0  0  0  0  0  0
    6.6815    4.2306    0.0000 C   0  0  0  0  0  0  0  0  0  0  0  0
    2.7071   -2.2987    0.0000 C   0  0  0  0  0  0  0  0  0  0  0  0
    3.9318   -3.5235    0.0000 C   0  0  0  0  0  0  0  0  0  0  0  0
    2.0000   -3.0058    0.0000 C   0  0  0  0  0  0  0  0  0  0  0  0
    3.2247   -4.2306    0.0000 C   0  0  0  0  0  0  0  0  0  0  0  0
    2.2588   -3.9718    0.0000 C   0  0  0  0  0  0  0  0  0  0  0  0
    6.8688    1.5935    0.0000 H   0  0  0  0  0  0  0  0  0  0  0  0
    6.1620    0.3476    0.0000 H   0  0  0  0  0  0  0  0  0  0  0  0
    6.9590    0.3476    0.0000 H   0  0  0  0  0  0  0  0  0  0  0  0
    8.7309   -0.6158    0.0000 H   0  0  0  0  0  0  0  0  0  0  0  0
    7.6844   -0.0565    0.0000 H   0  0  0  0  0  0  0  0  0  0  0  0
    8.0193   -1.7663    0.0000 H   0  0  0  0  0  0  0  0  0  0  0  0
    8.5028   -1.2150    0.0000 H   0  0  0  0  0  0  0  0  0  0  0  0
    6.7091   -2.1979    0.0000 H   0  0  0  0  0  0  0  0  0  0  0  0
    7.4575   -2.0994    0.0000 H   0  0  0  0  0  0  0  0  0  0  0  0
    6.0930    1.7975    0.0000 H   0  0  0  0  0  0  0  0  0  0  0  0
    5.2959    1.7975    0.0000 H   0  0  0  0  0  0  0  0  0  0  0  0
    4.5406   -2.4493    0.0000 H   0  0  0  0  0  0  0  0  0  0  0  0
    6.3152   -0.8402    0.0000 H   0  0  0  0  0  0  0  0  0  0  0  0
    5.5453   -1.0465    0.0000 H   0  0  0  0  0  0  0  0  0  0  0  0
    3.7657   -0.3766    0.0000 H   0  0  0  0  0  0  0  0  0  0  0  0
    3.5594   -1.1465    0.0000 H   0  0  0  0  0  0  0  0  0  0  0  0
    5.5065   -2.7081    0.0000 H   0  0  0  0  0  0  0  0  0  0  0  0
    4.2915    1.1326    0.0000 H   0  0  0  0  0  0  0  0  0  0  0  0
    5.8700    2.0517    0.0000 H   0  0  0  0  0  0  0  0  0  0  0  0
    9.2448    3.4720    0.0000 H   0  0  0  0  0  0  0  0  0  0  0  0
   10.1012    2.2195    0.0000 H   0  0  0  0  0  0  0  0  0  0  0  0
    8.1035    4.4394    0.0000 H   0  0  0  0  0  0  0  0  0  0  0  0
    5.3792    3.6226    0.0000 H   0  0  0  0  0  0  0  0  0  0  0  0
    6.5034    4.8245    0.0000 H   0  0  0  0  0  0  0  0  0  0  0  0
    2.5466   -1.6999    0.0000 H   0  0  0  0  0  0  0  0  0  0  0  0
    4.5307   -3.6840    0.0000 H   0  0  0  0  0  0  0  0  0  0  0  0
    1.4011   -2.8454    0.0000 H   0  0  0  0  0  0  0  0  0  0  0  0
    3.3852   -4.8295    0.0000 H   0  0  0  0  0  0  0  0  0  0  0  0
    1.8204   -4.4102    0.0000 H   0  0  0  0  0  0  0  0  0  0  0  0
  1 16  2  0  0  0  0
  2 19  2  0  0  0  0
  3  6  1  0  0  0  0
  3  8  1  0  0  0  0
  3 16  1  0  0  0  0
  4 13  1  0  0  0  0
  4 14  1  0  0  0  0
  4 47  1  0  0  0  0
  5 12  1  0  0  0  0
  5 19  1  0  0  0  0
  5 48  1  0  0  0  0
  6  7  1  0  0  0  0
  6 10  1  0  0  0  0
  6 31  1  0  0  0  0
  7 12  1  0  0  0  0
  7 32  1  0  0  0  0
  7 33  1  0  0  0  0
  8  9  1  0  0  0  0
  8 34  1  0  0  0  0
  8 35  1  0  0  0  0
  9 11  1  0  0  0  0
  9 36  1  0  0  0  0
  9 37  1  0  0  0  0
 10 15  1  0  0  0  0
 10 18  2  0  0  0  0
 11 14  1  0  0  0  0
 11 38  1  0  0  0  0
 11 39  1  0  0  0  0
 12 40  1  0  0  0  0
 12 41  1  0  0  0  0
 13 17  1  0  0  0  0
 13 21  1  0  0  0  0
 13 42  1  0  0  0  0
 14 43  1  0  0  0  0
 14 44  1  0  0  0  0
 15 20  1  0  0  0  0
 15 23  2  0  0  0  0
 16 22  1  0  0  0  0
 17 19  1  0  0  0  0
 17 45  1  0  0  0  0
 17 46  1  0  0  0  0
 18 24  1  0  0  0  0
 18 49  1  0  0  0  0
 20 22  2  0  0  0  0
 20 50  1  0  0  0  0
 21 26  2  0  0  0  0
 21 27  1  0  0  0  0
 22 51  1  0  0  0  0
 23 25  1  0  0  0  0
 23 52  1  0  0  0  0
 24 25  2  0  0  0  0
 24 53  1  0  0  0  0
 25 54  1  0  0  0  0
 26 28  1  0  0  0  0
 26 55  1  0  0  0  0
 27 29  2  0  0  0  0
 27 56  1  0  0  0  0
 28 30  2  0  0  0  0
 28 57  1  0  0  0  0
 29 30  1  0  0  0  0
 29 58  1  0  0  0  0
 30 59  1  0  0  0  0
M  END
> <PUBCHEM_COMPOUND_CID>
328562

> <PUBCHEM_COMPOUND_CANONICALIZED>
1

> <PUBCHEM_CACTVS_COMPLEXITY>
614

> <PUBCHEM_CACTVS_HBOND_ACCEPTOR>
3

> <PUBCHEM_CACTVS_HBOND_DONOR>
2

> <PUBCHEM_CACTVS_ROTATABLE_BOND>
1

> <PUBCHEM_CACTVS_SUBSKEYS>
AAADceB7MAAAAAAAAAAAAAAAAAAAAAAAAAAwYAAABAAAAAABQAAAHgAQAAAADCjBmAQwAIPAAACIAiFSEACCAAAgAAAIiIEIBMgIIDqA0RGEIAhglgCIiYcYiICOgAAAAAAQAAAAAAAAACAAAAAAAAAAAA==

> <PUBCHEM_IUPAC_INCHI>
InChI=1S/C25H29N3O2/c29-24-18-22(20-9-2-1-3-10-20)26-15-6-7-17-28-23(14-16-27-24)21-11-5-4-8-19(21)12-13-25(28)30/h1-5,8-13,22-23,26H,6-7,14-18H2,(H,27,29)

> <PUBCHEM_IUPAC_INCHIKEY>
DKCWAFAXQGAJSD-UHFFFAOYSA-N

> <PUBCHEM_XLOGP3_AA>
2.7

> <PUBCHEM_EXACT_MASS>
403.225977

> <PUBCHEM_MOLECULAR_FORMULA>
C25H29N3O2

> <PUBCHEM_MOLECULAR_WEIGHT>
403.51666

> <PUBCHEM_OPENEYE_CAN_SMILES>
C1CCN2C(CCNC(=O)CC(NC1)C3=CC=CC=C3)C4=CC=CC=C4C=CC2=O

> <PUBCHEM_OPENEYE_ISO_SMILES>
C1CCN2C(CCNC(=O)CC(NC1)C3=CC=CC=C3)C4=CC=CC=C4C=CC2=O

> <PUBCHEM_CACTVS_TPSA>
61.4

> <PUBCHEM_MONOISOTOPIC_WEIGHT>
403.225977

> <PUBCHEM_TOTAL_CHARGE>
0

> <PUBCHEM_HEAVY_ATOM_COUNT>
30

> <PUBCHEM_ATOM_DEF_STEREO_COUNT>
0

> <PUBCHEM_ATOM_UDEF_STEREO_COUNT>
2

> <PUBCHEM_BOND_DEF_STEREO_COUNT>
0

> <PUBCHEM_BOND_UDEF_STEREO_COUNT>
0

> <PUBCHEM_ISOTOPIC_ATOM_COUNT>
0

> <PUBCHEM_COMPONENT_COUNT>
1

> <PUBCHEM_CACTVS_TAUTO_COUNT>
3

> <PUBCHEM_COORDINATE_TYPE>
1
5
255

> <PUBCHEM_BONDANNOTATIONS>
10  15  8
10  18  8
13  21  3
15  23  8
18  24  8
21  26  8
21  27  8
23  25  8
24  25  8
26  28  8
27  29  8
28  30  8
29  30  8
6  7  3

$$$$

