13142
  -OEChem-06261207483D

 13 12  0     1  0  0  0  0  0999 V2000
   -1.4541   -1.4581   -0.5684 Br  0  0  0  0  0  0  0  0  0  0  0  0
    1.0363    0.9492   -0.8829 O   0  0  0  0  0  0  0  0  0  0  0  0
   -0.6579   -0.0472    0.5109 C   0  0  1  0  0  0  0  0  0  0  0  0
    0.7531    0.1250   -0.0131 C   0  0  0  0  0  0  0  0  0  0  0  0
   -1.4864    1.2165    0.3916 C   0  0  0  0  0  0  0  0  0  0  0  0
    1.8090   -0.7855    0.5619 C   0  0  0  0  0  0  0  0  0  0  0  0
   -0.6359   -0.3971    1.5467 H   0  0  0  0  0  0  0  0  0  0  0  0
   -1.5714    1.5568   -0.6469 H   0  0  0  0  0  0  0  0  0  0  0  0
   -2.5014    1.0597    0.7727 H   0  0  0  0  0  0  0  0  0  0  0  0
   -1.0317    2.0302    0.9670 H   0  0  0  0  0  0  0  0  0  0  0  0
    2.7863   -0.5193    0.1493 H   0  0  0  0  0  0  0  0  0  0  0  0
    1.5902   -1.8245    0.3062 H   0  0  0  0  0  0  0  0  0  0  0  0
    1.8457   -0.6636    1.6474 H   0  0  0  0  0  0  0  0  0  0  0  0
  1  3  1  0  0  0  0
  2  4  2  0  0  0  0
  3  4  1  0  0  0  0
  3  5  1  0  0  0  0
  3  7  1  0  0  0  0
  4  6  1  0  0  0  0
  5  8  1  0  0  0  0
  5  9  1  0  0  0  0
  5 10  1  0  0  0  0
  6 11  1  0  0  0  0
  6 12  1  0  0  0  0
  6 13  1  0  0  0  0
M  END
> <PUBCHEM_COMPOUND_CID>
13142

> <PUBCHEM_CONFORMER_RMSD>
0.4

> <PUBCHEM_CONFORMER_DIVERSEORDER>
1
6
4
7
5
2
3
8

> <PUBCHEM_MMFF94_PARTIAL_CHARGES>
5
1 -0.23
2 -0.57
3 0.29
4 0.45
6 0.06

> <PUBCHEM_EFFECTIVE_ROTOR_COUNT>
1

> <PUBCHEM_PHARMACOPHORE_FEATURES>
3
1 1 hydrophobe
1 2 acceptor
3 1 3 5 hydrophobe

> <PUBCHEM_HEAVY_ATOM_COUNT>
6

> <PUBCHEM_ATOM_DEF_STEREO_COUNT>
0

> <PUBCHEM_ATOM_UDEF_STEREO_COUNT>
1

> <PUBCHEM_BOND_DEF_STEREO_COUNT>
0

> <PUBCHEM_BOND_UDEF_STEREO_COUNT>
0

> <PUBCHEM_ISOTOPIC_ATOM_COUNT>
0

> <PUBCHEM_COMPONENT_COUNT>
1

> <PUBCHEM_CACTVS_TAUTO_COUNT>
3

> <PUBCHEM_CONFORMER_ID>
0000335600000001

> <PUBCHEM_MMFF94_ENERGY>
5.9639

> <PUBCHEM_FEATURE_SELFOVERLAP>
16.16

> <PUBCHEM_SHAPE_FINGERPRINT>
137420 1 6902291295729738939
139733 1 11166848458005745871
16714656 1 17981599687089590982
18185500 45 18193562159817978639
20096714 4 18128796668518553625
21040471 1 18043803397678916161
24536 1 17703506588822904800
29004967 10 17906178351932733771
5943 1 18343023289281058287

> <PUBCHEM_SHAPE_MULTIPOLES>
123.55
2.28
1.54
0.89
0.31
0.08
0.09
0.53
-0.08
-0.75
0.06
0.12
-0.04
-0.48

> <PUBCHEM_SHAPE_SELFOVERLAP>
208.996

> <PUBCHEM_SHAPE_VOLUME>
86

> <PUBCHEM_COORDINATE_TYPE>
2
5
10

$$$$

