23724771
  -OEChem-07051213083D

 42 42  0     1  0  0  0  0  0999 V2000
   -3.8013    1.6029   -0.2273 O   0  0  0  0  0  0  0  0  0  0  0  0
    2.6666    3.1111    0.9453 O   0  0  0  0  0  0  0  0  0  0  0  0
    2.6421    2.4115   -1.2207 O   0  0  0  0  0  0  0  0  0  0  0  0
   -4.4029    0.3144   -0.0476 C   0  0  0  0  0  0  0  0  0  0  0  0
   -3.1301    0.6872    0.6366 C   0  0  1  0  0  0  0  0  0  0  0  0
   -1.8077    0.2318    0.0980 C   0  0  0  0  0  0  0  0  0  0  0  0
   -4.4005   -0.5113   -1.2790 C   0  0  0  0  0  0  0  0  0  0  0  0
   -5.6693    0.3612    0.7219 C   0  0  0  0  0  0  0  0  0  0  0  0
   -1.4260   -1.1831    0.5458 C   0  0  0  0  0  0  0  0  0  0  0  0
   -0.0935   -1.6649    0.0120 C   0  0  0  0  0  0  0  0  0  0  0  0
    0.9594   -2.0130    0.7773 C   0  0  0  0  0  0  0  0  0  0  0  0
   -0.0073   -1.7901   -1.4877 C   0  0  0  0  0  0  0  0  0  0  0  0
    2.2928   -2.5417    0.3273 C   0  0  0  0  0  0  0  0  0  0  0  0
    3.4287   -1.6099    0.7588 C   0  0  0  0  0  0  0  0  0  0  0  0
    3.3322   -0.2522    0.0980 C   0  0  0  0  0  0  0  0  0  0  0  0
    4.0117   -0.1595   -1.2457 C   0  0  0  0  0  0  0  0  0  0  0  0
    2.7334    0.8370    0.6146 C   0  0  0  0  0  0  0  0  0  0  0  0
    2.6719    2.1684   -0.0278 C   0  0  0  0  0  0  0  0  0  0  0  0
   -3.1250    0.8858    1.6992 H   0  0  0  0  0  0  0  0  0  0  0  0
   -1.7698    0.3130   -0.9937 H   0  0  0  0  0  0  0  0  0  0  0  0
   -1.0442    0.9314    0.4638 H   0  0  0  0  0  0  0  0  0  0  0  0
   -4.2950   -1.5715   -1.0278 H   0  0  0  0  0  0  0  0  0  0  0  0
   -3.6060   -0.2462   -1.9826 H   0  0  0  0  0  0  0  0  0  0  0  0
   -5.3453   -0.3944   -1.8219 H   0  0  0  0  0  0  0  0  0  0  0  0
   -5.9331   -0.6383    1.0829 H   0  0  0  0  0  0  0  0  0  0  0  0
   -6.4917    0.7250    0.0968 H   0  0  0  0  0  0  0  0  0  0  0  0
   -5.6012    1.0213    1.5937 H   0  0  0  0  0  0  0  0  0  0  0  0
   -1.4205   -1.2139    1.6433 H   0  0  0  0  0  0  0  0  0  0  0  0
   -2.2019   -1.8946    0.2377 H   0  0  0  0  0  0  0  0  0  0  0  0
    0.8440   -1.9278    1.8573 H   0  0  0  0  0  0  0  0  0  0  0  0
    0.5737   -2.6561   -1.8146 H   0  0  0  0  0  0  0  0  0  0  0  0
   -1.0054   -1.9299   -1.9189 H   0  0  0  0  0  0  0  0  0  0  0  0
    0.4213   -0.8812   -1.9218 H   0  0  0  0  0  0  0  0  0  0  0  0
    2.3527   -2.7052   -0.7517 H   0  0  0  0  0  0  0  0  0  0  0  0
    2.4430   -3.5221    0.7956 H   0  0  0  0  0  0  0  0  0  0  0  0
    4.3973   -2.0750    0.5402 H   0  0  0  0  0  0  0  0  0  0  0  0
    3.4046   -1.4838    1.8498 H   0  0  0  0  0  0  0  0  0  0  0  0
    3.2935   -0.3545   -2.0485 H   0  0  0  0  0  0  0  0  0  0  0  0
    4.4951    0.8071   -1.4147 H   0  0  0  0  0  0  0  0  0  0  0  0
    4.8127   -0.9024   -1.3305 H   0  0  0  0  0  0  0  0  0  0  0  0
    2.2845    0.7698    1.6029 H   0  0  0  0  0  0  0  0  0  0  0  0
    2.6313    4.0193    0.5761 H   0  0  0  0  0  0  0  0  0  0  0  0
  1  4  1  0  0  0  0
  1  5  1  0  0  0  0
  2 18  1  0  0  0  0
  2 42  1  0  0  0  0
  3 18  2  0  0  0  0
  4  5  1  0  0  0  0
  4  7  1  0  0  0  0
  4  8  1  0  0  0  0
  5  6  1  0  0  0  0
  5 19  1  0  0  0  0
  6  9  1  0  0  0  0
  6 20  1  0  0  0  0
  6 21  1  0  0  0  0
  7 22  1  0  0  0  0
  7 23  1  0  0  0  0
  7 24  1  0  0  0  0
  8 25  1  0  0  0  0
  8 26  1  0  0  0  0
  8 27  1  0  0  0  0
  9 10  1  0  0  0  0
  9 28  1  0  0  0  0
  9 29  1  0  0  0  0
 10 11  2  0  0  0  0
 10 12  1  0  0  0  0
 11 13  1  0  0  0  0
 11 30  1  0  0  0  0
 12 31  1  0  0  0  0
 12 32  1  0  0  0  0
 12 33  1  0  0  0  0
 13 14  1  0  0  0  0
 13 34  1  0  0  0  0
 13 35  1  0  0  0  0
 14 15  1  0  0  0  0
 14 36  1  0  0  0  0
 14 37  1  0  0  0  0
 15 16  1  0  0  0  0
 15 17  2  0  0  0  0
 16 38  1  0  0  0  0
 16 39  1  0  0  0  0
 16 40  1  0  0  0  0
 17 18  1  0  0  0  0
 17 41  1  0  0  0  0
M  END
> <PUBCHEM_COMPOUND_CID>
23724771

> <PUBCHEM_CONFORMER_RMSD>
1

> <PUBCHEM_CONFORMER_DIVERSEORDER>
4
25
152
101
13
132
115
86
41
15
98
1
161
50
137
69
147
16
167
114
75
81
74
111
63
38
163
33
62
78
89
143
20
126
96
2
158
27
106
149
10
57
90
72
141
23
124
73
22
103
34
76
3
94
109
53
122
102
43
107
121
140
151
110
58
150
131
100
66
65
9
79
30
116
93
144
26
39
42
59
145
8
45
105
119
84
135
157
64
91
92
146
95
164
85
123
29
28
165
162
166
17
138
35
155
129
87
7
6
56
60
159
44
125
118
19
61
48
160
136
156
104
11
47
128
67
108
46
133
139
32
154
49
68
24
97
88
112
134
82
37
52
5
21
70
77
142
153
40
31
168
117
55
83
36
99
71
51
113
127
18
80
12
120
148
54
14
130

> <PUBCHEM_MMFF94_PARTIAL_CHARGES>
22
1 -0.3
10 -0.28
11 -0.29
12 0.14
13 0.14
14 0.14
15 -0.28
16 0.14
17 -0.14
18 0.71
19 0.1
2 -0.65
3 -0.57
30 0.15
4 -0.04
41 0.15
42 0.5
5 -0.05
6 0.09
7 0.09
8 0.09
9 0.14

> <PUBCHEM_EFFECTIVE_ROTOR_COUNT>
7.6

> <PUBCHEM_PHARMACOPHORE_FEATURES>
8
1 1 acceptor
1 12 hydrophobe
1 16 hydrophobe
1 2 acceptor
1 3 acceptor
3 2 3 18 anion
3 4 7 8 hydrophobe
4 11 13 14 15 hydrophobe

> <PUBCHEM_HEAVY_ATOM_COUNT>
18

> <PUBCHEM_ATOM_DEF_STEREO_COUNT>
1

> <PUBCHEM_ATOM_UDEF_STEREO_COUNT>
0

> <PUBCHEM_BOND_DEF_STEREO_COUNT>
2

> <PUBCHEM_BOND_UDEF_STEREO_COUNT>
0

> <PUBCHEM_ISOTOPIC_ATOM_COUNT>
0

> <PUBCHEM_COMPONENT_COUNT>
1

> <PUBCHEM_CACTVS_TAUTO_COUNT>
1

> <PUBCHEM_CONFORMER_ID>
016A02E300000004

> <PUBCHEM_MMFF94_ENERGY>
31.8348

> <PUBCHEM_FEATURE_SELFOVERLAP>
40.658

> <PUBCHEM_SHAPE_FINGERPRINT>
10366900 7 17631723993088434707
11045977 3 18059568127063951731
12507557 5 18267031720217456291
12616971 3 18260834817228680135
12633257 1 17704083880015116666
13583140 156 18201146715860303299
14251764 75 18192136114891561817
17980427 23 17679337133612914410
20621476 13 18341057315273120901
21033648 29 17274833471232137501
21041028 32 17909561888967815842
21315764 119 16371272454893305765
22224240 67 10951471658508526494
22289505 5 18269278043974173862
23557571 272 14924219495017314627
23558518 356 17982736273075935586
23559900 14 16988277693949518803
3060560 45 18113897208453146046
341906 21 14979684333574590535
4325135 7 18409729556855215039
43658 37 18263367996896760640
474 4 18342178855919494227
49207404 50 18130779010900661851
5939293 188 18409450293527718288
6333272 397 18413388761021145403
633830 44 18335421240433407135
7832392 63 18335426733976445566
9999458 23 18201996629668559038

> <PUBCHEM_SHAPE_MULTIPOLES>
352.82
10.29
2.91
1.19
11.76
1.2
0.36
3.04
0.17
-3.54
-0.23
-0.16
-0.11
-0.57

> <PUBCHEM_SHAPE_SELFOVERLAP>
689.897

> <PUBCHEM_SHAPE_VOLUME>
214

> <PUBCHEM_COORDINATE_TYPE>
2
5
10

$$$$

