5282271
  -OEChem-07051213043D

 61 61  0     1  0  0  0  0  0999 V2000
   -4.6644   -2.7923   -0.6791 O   0  0  0  0  0  0  0  0  0  0  0  0
   -5.0519    1.8441   -0.0756 O   0  0  0  0  0  0  0  0  0  0  0  0
   -0.0438    4.1609   -0.3447 O   0  0  0  0  0  0  0  0  0  0  0  0
    3.6410   -2.2477   -3.6480 O   0  0  0  0  0  0  0  0  0  0  0  0
    3.7493   -2.4249   -1.3873 O   0  0  0  0  0  0  0  0  0  0  0  0
   -2.9829   -1.0605   -0.3979 C   0  0  2  0  0  0  0  0  0  0  0  0
   -3.0745    0.4553   -0.1823 C   0  0  2  0  0  0  0  0  0  0  0  0
   -4.4273   -1.4988   -0.1556 C   0  0  1  0  0  0  0  0  0  0  0  0
   -4.4080    0.8392   -0.8475 C   0  0  1  0  0  0  0  0  0  0  0  0
   -5.2531   -0.4400   -0.8839 C   0  0  0  0  0  0  0  0  0  0  0  0
   -1.9946   -1.7559    0.5309 C   0  0  0  0  0  0  0  0  0  0  0  0
   -1.9063    1.2006   -0.7423 C   0  0  0  0  0  0  0  0  0  0  0  0
   -0.5966   -1.6699   -0.0018 C   0  0  0  0  0  0  0  0  0  0  0  0
   -1.1001    1.9801   -0.0057 C   0  0  0  0  0  0  0  0  0  0  0  0
    0.0985    2.7509   -0.5007 C   0  0  2  0  0  0  0  0  0  0  0  0
    0.4966   -1.6514    0.7754 C   0  0  0  0  0  0  0  0  0  0  0  0
    1.4052    2.3151    0.1815 C   0  0  0  0  0  0  0  0  0  0  0  0
    0.4550   -1.7144    2.2744 C   0  0  0  0  0  0  0  0  0  0  0  0
    2.6432    2.7161   -0.5761 C   0  0  0  0  0  0  0  0  0  0  0  0
    0.4706   -0.3435    2.8850 C   0  0  0  0  0  0  0  0  0  0  0  0
    3.5987    1.9186   -1.0786 C   0  0  0  0  0  0  0  0  0  0  0  0
    1.4627    0.1145    3.6632 C   0  0  0  0  0  0  0  0  0  0  0  0
    3.6718    0.4177   -1.0232 C   0  0  0  0  0  0  0  0  0  0  0  0
    2.6800   -0.6859    4.0201 C   0  0  0  0  0  0  0  0  0  0  0  0
    3.6423   -0.2176   -2.4154 C   0  0  0  0  0  0  0  0  0  0  0  0
    3.7960   -0.4797    3.0078 C   0  0  0  0  0  0  0  0  0  0  0  0
    3.6926   -1.7303   -2.3924 C   0  0  0  0  0  0  0  0  0  0  0  0
   -2.7271   -1.2911   -1.4436 H   0  0  0  0  0  0  0  0  0  0  0  0
   -3.1523    0.6627    0.8954 H   0  0  0  0  0  0  0  0  0  0  0  0
   -4.6636   -1.5013    0.9156 H   0  0  0  0  0  0  0  0  0  0  0  0
   -4.2706    1.2306   -1.8623 H   0  0  0  0  0  0  0  0  0  0  0  0
   -5.4219   -0.7459   -1.9239 H   0  0  0  0  0  0  0  0  0  0  0  0
   -6.2382   -0.3213   -0.4202 H   0  0  0  0  0  0  0  0  0  0  0  0
   -2.2501   -2.8214    0.5896 H   0  0  0  0  0  0  0  0  0  0  0  0
   -2.0920   -1.3454    1.5407 H   0  0  0  0  0  0  0  0  0  0  0  0
   -1.7039    1.0890   -1.8049 H   0  0  0  0  0  0  0  0  0  0  0  0
   -5.6127   -2.9796   -0.5739 H   0  0  0  0  0  0  0  0  0  0  0  0
   -5.9063    2.0342   -0.4993 H   0  0  0  0  0  0  0  0  0  0  0  0
   -0.4524   -1.6671   -1.0795 H   0  0  0  0  0  0  0  0  0  0  0  0
   -1.3133    2.0897    1.0561 H   0  0  0  0  0  0  0  0  0  0  0  0
    0.1878    2.5695   -1.5803 H   0  0  0  0  0  0  0  0  0  0  0  0
    1.4729   -1.6128    0.3037 H   0  0  0  0  0  0  0  0  0  0  0  0
    1.3877    1.2340    0.3375 H   0  0  0  0  0  0  0  0  0  0  0  0
    1.4683    2.7735    1.1771 H   0  0  0  0  0  0  0  0  0  0  0  0
   -0.4325   -2.2468    2.6348 H   0  0  0  0  0  0  0  0  0  0  0  0
    1.2911   -2.3456    2.5861 H   0  0  0  0  0  0  0  0  0  0  0  0
    0.6589    4.5926   -0.8591 H   0  0  0  0  0  0  0  0  0  0  0  0
    2.7827    3.7876   -0.7093 H   0  0  0  0  0  0  0  0  0  0  0  0
   -0.3762    0.3085    2.6875 H   0  0  0  0  0  0  0  0  0  0  0  0
    4.4316    2.4042   -1.5851 H   0  0  0  0  0  0  0  0  0  0  0  0
    1.3968    1.1266    4.0534 H   0  0  0  0  0  0  0  0  0  0  0  0
    4.6060    0.1400   -0.5188 H   0  0  0  0  0  0  0  0  0  0  0  0
    2.8717   -0.0046   -0.4144 H   0  0  0  0  0  0  0  0  0  0  0  0
    3.0280   -0.3422    5.0025 H   0  0  0  0  0  0  0  0  0  0  0  0
    2.4677   -1.7505    4.1529 H   0  0  0  0  0  0  0  0  0  0  0  0
    2.7196    0.0753   -2.9308 H   0  0  0  0  0  0  0  0  0  0  0  0
    4.4982    0.1366   -3.0021 H   0  0  0  0  0  0  0  0  0  0  0  0
    3.5152   -0.8626    2.0214 H   0  0  0  0  0  0  0  0  0  0  0  0
    4.6983   -1.0100    3.3287 H   0  0  0  0  0  0  0  0  0  0  0  0
    4.0481    0.5812    2.9025 H   0  0  0  0  0  0  0  0  0  0  0  0
    3.6616   -3.2285   -3.6400 H   0  0  0  0  0  0  0  0  0  0  0  0
  1  8  1  0  0  0  0
  1 37  1  0  0  0  0
  2  9  1  0  0  0  0
  2 38  1  0  0  0  0
  3 15  1  0  0  0  0
  3 47  1  0  0  0  0
  4 27  1  0  0  0  0
  4 61  1  0  0  0  0
  5 27  2  0  0  0  0
  6  7  1  0  0  0  0
  6  8  1  0  0  0  0
  6 11  1  0  0  0  0
  6 28  1  0  0  0  0
  7  9  1  0  0  0  0
  7 12  1  0  0  0  0
  7 29  1  0  0  0  0
  8 10  1  0  0  0  0
  8 30  1  0  0  0  0
  9 10  1  0  0  0  0
  9 31  1  0  0  0  0
 10 32  1  0  0  0  0
 10 33  1  0  0  0  0
 11 13  1  0  0  0  0
 11 34  1  0  0  0  0
 11 35  1  0  0  0  0
 12 14  2  0  0  0  0
 12 36  1  0  0  0  0
 13 16  2  0  0  0  0
 13 39  1  0  0  0  0
 14 15  1  0  0  0  0
 14 40  1  0  0  0  0
 15 17  1  0  0  0  0
 15 41  1  0  0  0  0
 16 18  1  0  0  0  0
 16 42  1  0  0  0  0
 17 19  1  0  0  0  0
 17 43  1  0  0  0  0
 17 44  1  0  0  0  0
 18 20  1  0  0  0  0
 18 45  1  0  0  0  0
 18 46  1  0  0  0  0
 19 21  2  0  0  0  0
 19 48  1  0  0  0  0
 20 22  2  0  0  0  0
 20 49  1  0  0  0  0
 21 23  1  0  0  0  0
 21 50  1  0  0  0  0
 22 24  1  0  0  0  0
 22 51  1  0  0  0  0
 23 25  1  0  0  0  0
 23 52  1  0  0  0  0
 23 53  1  0  0  0  0
 24 26  1  0  0  0  0
 24 54  1  0  0  0  0
 24 55  1  0  0  0  0
 25 27  1  0  0  0  0
 25 56  1  0  0  0  0
 25 57  1  0  0  0  0
 26 58  1  0  0  0  0
 26 59  1  0  0  0  0
 26 60  1  0  0  0  0
M  END
> <PUBCHEM_COMPOUND_CID>
5282271

> <PUBCHEM_CONFORMER_RMSD>
1.8

> <PUBCHEM_CONFORMER_DIVERSEORDER>
4
9
31
67
66
48
39
19
54
61
69
5
51
70
28
50
14
35
63
21
68
22
29
34
32
65
72
45
7
23
24
6
56
40
42
18
59
52
13
27
38
17
71
12
46
10
20
55
25
44
41
8
47
64
26
58
30
11
1
53
60
62
16
49
15
43
33
36
37
2
57
3

> <PUBCHEM_MMFF94_PARTIAL_CHARGES>
36
1 -0.68
11 0.14
12 -0.29
13 -0.29
14 -0.29
15 0.42
16 -0.29
17 0.14
18 0.28
19 -0.29
2 -0.68
20 -0.29
21 -0.29
22 -0.29
23 0.14
24 0.14
25 0.06
27 0.66
3 -0.68
36 0.15
37 0.4
38 0.4
39 0.15
4 -0.65
40 0.15
42 0.15
47 0.4
48 0.15
49 0.15
5 -0.57
50 0.15
51 0.15
61 0.5
7 0.14
8 0.28
9 0.28

> <PUBCHEM_EFFECTIVE_ROTOR_COUNT>
13

> <PUBCHEM_PHARMACOPHORE_FEATURES>
11
1 1 acceptor
1 1 donor
1 2 acceptor
1 2 donor
1 26 hydrophobe
1 3 acceptor
1 3 donor
1 4 acceptor
1 5 acceptor
3 4 5 27 anion
5 6 7 8 9 10 rings

> <PUBCHEM_HEAVY_ATOM_COUNT>
27

> <PUBCHEM_ATOM_DEF_STEREO_COUNT>
0

> <PUBCHEM_ATOM_UDEF_STEREO_COUNT>
5

> <PUBCHEM_BOND_DEF_STEREO_COUNT>
4

> <PUBCHEM_BOND_UDEF_STEREO_COUNT>
0

> <PUBCHEM_ISOTOPIC_ATOM_COUNT>
0

> <PUBCHEM_COMPONENT_COUNT>
1

> <PUBCHEM_CACTVS_TAUTO_COUNT>
1

> <PUBCHEM_CONFORMER_ID>
005099DF00000004

> <PUBCHEM_MMFF94_ENERGY>
37.9381

> <PUBCHEM_FEATURE_SELFOVERLAP>
55.876

> <PUBCHEM_SHAPE_FINGERPRINT>
10816530 90 18056766653346887709
11578080 2 16086431580821079377
14251757 17 18337941290792612791
18336668 15 16986902196687471344
19930381 70 18335691719982948439
23559900 14 18260828245385249487
35225 105 15982246420623952504

> <PUBCHEM_SHAPE_MULTIPOLES>
526.3
9.76
3.84
3.54
8.69
3.2
-1.85
-2.64
-4.87
-4.77
2.44
-3.3
-1.82
-3.37

> <PUBCHEM_SHAPE_SELFOVERLAP>
1033.797

> <PUBCHEM_SHAPE_VOLUME>
314.2

> <PUBCHEM_COORDINATE_TYPE>
2
5
10

$$$$

