854001
  -OEChem-06241222463D

 39 40  0     0  0  0  0  0  0999 V2000
   -1.6553    0.6552    0.0052 S   0  0  0  0  0  0  0  0  0  0  0  0
    1.1096    2.5840    0.0105 O   0  0  0  0  0  0  0  0  0  0  0  0
    1.6626    0.3880   -0.6148 N   0  0  0  0  0  0  0  0  0  0  0  0
    3.6474   -0.9684   -0.2625 C   0  0  0  0  0  0  0  0  0  0  0  0
    2.9707    0.2295   -0.0975 C   0  0  0  0  0  0  0  0  0  0  0  0
    4.9357   -1.1028    0.2553 C   0  0  0  0  0  0  0  0  0  0  0  0
    3.5485    1.2968    0.5721 C   0  0  0  0  0  0  0  0  0  0  0  0
    5.5302   -0.0372    0.9314 C   0  0  0  0  0  0  0  0  0  0  0  0
    3.0137   -2.1142   -0.9872 C   0  0  0  0  0  0  0  0  0  0  0  0
    4.8368    1.1624    1.0898 C   0  0  0  0  0  0  0  0  0  0  0  0
    5.7005   -2.3763    0.1000 C   0  0  0  0  0  0  0  0  0  0  0  0
   -0.4852    1.2993   -1.2117 C   0  0  0  0  0  0  0  0  0  0  0  0
    0.8525    1.5145   -0.5365 C   0  0  0  0  0  0  0  0  0  0  0  0
   -3.1075    0.5104   -1.0803 C   0  0  0  0  0  0  0  0  0  0  0  0
   -4.3057   -0.0153   -0.3647 C   0  0  0  0  0  0  0  0  0  0  0  0
   -5.1911    0.8671    0.2544 C   0  0  0  0  0  0  0  0  0  0  0  0
   -4.5413   -1.3893   -0.3148 C   0  0  0  0  0  0  0  0  0  0  0  0
   -6.3120    0.3754    0.9235 C   0  0  0  0  0  0  0  0  0  0  0  0
   -5.6623   -1.8808    0.3542 C   0  0  0  0  0  0  0  0  0  0  0  0
   -6.5476   -0.9982    0.9734 C   0  0  0  0  0  0  0  0  0  0  0  0
    3.0865    2.2577    0.7387 H   0  0  0  0  0  0  0  0  0  0  0  0
    6.5331   -0.1244    1.3412 H   0  0  0  0  0  0  0  0  0  0  0  0
    1.2727   -0.4178   -1.0952 H   0  0  0  0  0  0  0  0  0  0  0  0
    3.6328   -3.0103   -1.0631 H   0  0  0  0  0  0  0  0  0  0  0  0
    2.0939   -2.4194   -0.4755 H   0  0  0  0  0  0  0  0  0  0  0  0
    2.7718   -1.8210   -2.0150 H   0  0  0  0  0  0  0  0  0  0  0  0
    5.3012    1.9913    1.6163 H   0  0  0  0  0  0  0  0  0  0  0  0
    5.8647   -2.6058   -0.9580 H   0  0  0  0  0  0  0  0  0  0  0  0
    6.6906   -2.3088    0.5652 H   0  0  0  0  0  0  0  0  0  0  0  0
    5.1792   -3.2062    0.5884 H   0  0  0  0  0  0  0  0  0  0  0  0
   -0.8351    2.2603   -1.6019 H   0  0  0  0  0  0  0  0  0  0  0  0
   -0.3856    0.6032   -2.0505 H   0  0  0  0  0  0  0  0  0  0  0  0
   -2.8581   -0.1468   -1.9216 H   0  0  0  0  0  0  0  0  0  0  0  0
   -3.3309    1.4949   -1.5080 H   0  0  0  0  0  0  0  0  0  0  0  0
   -5.0191    1.9397    0.2240 H   0  0  0  0  0  0  0  0  0  0  0  0
   -3.8591   -2.0880   -0.7921 H   0  0  0  0  0  0  0  0  0  0  0  0
   -7.0012    1.0624    1.4059 H   0  0  0  0  0  0  0  0  0  0  0  0
   -5.8458   -2.9506    0.3934 H   0  0  0  0  0  0  0  0  0  0  0  0
   -7.4202   -1.3810    1.4945 H   0  0  0  0  0  0  0  0  0  0  0  0
  1 12  1  0  0  0  0
  1 14  1  0  0  0  0
  2 13  2  0  0  0  0
  3  5  1  0  0  0  0
  3 13  1  0  0  0  0
  3 23  1  0  0  0  0
  4  5  1  0  0  0  0
  4  6  2  0  0  0  0
  4  9  1  0  0  0  0
  5  7  2  0  0  0  0
  6  8  1  0  0  0  0
  6 11  1  0  0  0  0
  7 10  1  0  0  0  0
  7 21  1  0  0  0  0
  8 10  2  0  0  0  0
  8 22  1  0  0  0  0
  9 24  1  0  0  0  0
  9 25  1  0  0  0  0
  9 26  1  0  0  0  0
 10 27  1  0  0  0  0
 11 28  1  0  0  0  0
 11 29  1  0  0  0  0
 11 30  1  0  0  0  0
 12 13  1  0  0  0  0
 12 31  1  0  0  0  0
 12 32  1  0  0  0  0
 14 15  1  0  0  0  0
 14 33  1  0  0  0  0
 14 34  1  0  0  0  0
 15 16  2  0  0  0  0
 15 17  1  0  0  0  0
 16 18  1  0  0  0  0
 16 35  1  0  0  0  0
 17 19  2  0  0  0  0
 17 36  1  0  0  0  0
 18 20  2  0  0  0  0
 18 37  1  0  0  0  0
 19 20  1  0  0  0  0
 19 38  1  0  0  0  0
 20 39  1  0  0  0  0
M  END
> <PUBCHEM_COMPOUND_CID>
854001

> <PUBCHEM_CONFORMER_RMSD>
0.8

> <PUBCHEM_CONFORMER_DIVERSEORDER>
1
17
26
13
38
23
25
46
28
10
30
56
32
62
47
5
3
51
35
33
63
6
31
22
7
48
52
34
49
24
2
8
53
4
37
18
45
15
43
54
19
39
20
27
50
40
58
11
60
57
42
12
16
41
36
61
29
21
14
55
59
9
44

> <PUBCHEM_MMFF94_PARTIAL_CHARGES>
29
1 -0.46
10 -0.15
11 0.14
12 0.29
13 0.57
14 0.37
15 -0.14
16 -0.15
17 -0.15
18 -0.15
19 -0.15
2 -0.57
20 -0.15
21 0.15
22 0.15
23 0.37
27 0.15
3 -0.55
35 0.15
36 0.15
37 0.15
38 0.15
39 0.15
4 -0.14
5 0.12
6 -0.14
7 -0.15
8 -0.15
9 0.14

> <PUBCHEM_EFFECTIVE_ROTOR_COUNT>
6

> <PUBCHEM_PHARMACOPHORE_FEATURES>
4
1 2 acceptor
1 3 donor
6 15 16 17 18 19 20 rings
6 4 5 6 7 8 10 rings

> <PUBCHEM_HEAVY_ATOM_COUNT>
20

> <PUBCHEM_ATOM_DEF_STEREO_COUNT>
0

> <PUBCHEM_ATOM_UDEF_STEREO_COUNT>
0

> <PUBCHEM_BOND_DEF_STEREO_COUNT>
0

> <PUBCHEM_BOND_UDEF_STEREO_COUNT>
0

> <PUBCHEM_ISOTOPIC_ATOM_COUNT>
0

> <PUBCHEM_COMPONENT_COUNT>
1

> <PUBCHEM_CACTVS_TAUTO_COUNT>
2

> <PUBCHEM_CONFORMER_ID>
000D07F100000001

> <PUBCHEM_MMFF94_ENERGY>
59.4793

> <PUBCHEM_FEATURE_SELFOVERLAP>
20.297

> <PUBCHEM_SHAPE_FINGERPRINT>
10378564 45 9799422130656514520
10693767 8 12318918971269063608
11089746 13 8430320125499909732
12166972 35 17418370320470945870
12596602 18 17240483576686833355
12616971 3 17458355138619793612
13402501 40 18342738524402201131
13533116 47 18408885109833061872
13685833 64 18343863324759895097
14123256 34 18130782377944180762
14211702 104 17915170227330050363
14251751 18 18272651246995792221
14251757 5 13470104265252641153
14251757 52 14057011477689352282
14251764 18 17530965761943356045
14251764 30 18202566206508390259
14341114 176 18187081758558664977
14341114 328 16588026796679114806
14420673 8 18343015627808943267
15183329 4 11383840384618735526
15250474 111 18117282445930936447
15348495 7 18187649059651307787
15475509 35 17845391002105648226
15475509 84 17530963639623637440
16988056 13 10879696681645710566
17780758 139 18408040715553107289
17844677 252 18341608226897272829
17857418 61 18410295766530272871
1813 80 17561080306779764821
1979834 28 17822285803696227198
20281389 69 5545202709785611499
21150785 3 16415190183670228094
21197605 99 18263925440755648366
21267235 1 18335700590097586390
21623969 137 18335138695704144359
23424782 7 9006760009369969533
23424784 1240 18264204880239399958
23522609 53 17914301754182079301
239999 70 18343302570167836138
2767999 5 5400800557680360289
2838139 119 8286204941713466829
29717793 49 13398640471442876112
3004659 81 17632854226796276246
312425 54 18408318895952097315
34797466 226 11167943580583036625
351380 3 17775850107856152667
3663271 9 18040715836153199675
465052 167 18335984251028209918
5104073 3 18189063152085557240
543368 44 8214145145291155107
559249 180 18343021108550677103
5718773 13 18058739142778892242

> <PUBCHEM_SHAPE_MULTIPOLES>
404.59
18.53
2.26
1.07
13.57
0.47
-0.02
8.26
6.43
-1.66
-0.15
0.11
-0.09
1.01

> <PUBCHEM_SHAPE_SELFOVERLAP>
835.808

> <PUBCHEM_SHAPE_VOLUME>
232.9

> <PUBCHEM_COORDINATE_TYPE>
2
5
10

$$$$

