17395871
  -OEChem-06241222523D

 48 50  0     1  0  0  0  0  0999 V2000
    2.4295   -2.1603   -0.6556 O   0  0  0  0  0  0  0  0  0  0  0  0
   -0.2405    1.5632   -0.2296 O   0  0  0  0  0  0  0  0  0  0  0  0
    2.0571    1.2331   -0.0255 N   0  0  0  0  0  0  0  0  0  0  0  0
    0.7755   -0.5239   -0.5065 N   0  0  0  0  0  0  0  0  0  0  0  0
   -1.0089   -1.8075    0.4407 N   0  0  1  0  0  0  0  0  0  0  0  0
    3.0144    0.1493   -0.1266 C   0  0  0  0  0  0  0  0  0  0  0  0
    4.0048    0.3770   -1.2727 C   0  0  0  0  0  0  0  0  0  0  0  0
    3.7172   -0.1088    1.2096 C   0  0  0  0  0  0  0  0  0  0  0  0
    5.0412    1.4481   -0.9335 C   0  0  0  0  0  0  0  0  0  0  0  0
    4.7559    0.9657    1.5308 C   0  0  0  0  0  0  0  0  0  0  0  0
    5.7478    1.1514    0.3861 C   0  0  0  0  0  0  0  0  0  0  0  0
    2.0651   -1.0069   -0.4623 C   0  0  0  0  0  0  0  0  0  0  0  0
    0.7409    0.8318   -0.2527 C   0  0  0  0  0  0  0  0  0  0  0  0
   -0.3949   -1.3274   -0.7995 C   0  0  0  0  0  0  0  0  0  0  0  0
   -2.4224   -2.1164    0.2122 C   0  0  0  0  0  0  0  0  0  0  0  0
   -0.3216   -2.9936    0.9594 C   0  0  0  0  0  0  0  0  0  0  0  0
   -3.2658   -0.8758    0.1509 C   0  0  0  0  0  0  0  0  0  0  0  0
   -3.0896    0.1355    1.0951 C   0  0  0  0  0  0  0  0  0  0  0  0
   -4.2249   -0.7342   -0.8521 C   0  0  0  0  0  0  0  0  0  0  0  0
   -3.8725    1.2885    1.0367 C   0  0  0  0  0  0  0  0  0  0  0  0
   -5.0078    0.4186   -0.9105 C   0  0  0  0  0  0  0  0  0  0  0  0
   -4.8316    1.4300    0.0339 C   0  0  0  0  0  0  0  0  0  0  0  0
   -5.6688    2.6627   -0.0283 C   0  0  0  0  0  0  0  0  0  0  0  0
    3.4773    0.6609   -2.1923 H   0  0  0  0  0  0  0  0  0  0  0  0
    4.5302   -0.5607   -1.4975 H   0  0  0  0  0  0  0  0  0  0  0  0
    4.2198   -1.0847    1.1790 H   0  0  0  0  0  0  0  0  0  0  0  0
    2.9883   -0.1651    2.0282 H   0  0  0  0  0  0  0  0  0  0  0  0
    4.5540    2.4289   -0.8753 H   0  0  0  0  0  0  0  0  0  0  0  0
    5.7807    1.5101   -1.7400 H   0  0  0  0  0  0  0  0  0  0  0  0
    5.2962    0.6910    2.4438 H   0  0  0  0  0  0  0  0  0  0  0  0
    4.2517    1.9178    1.7361 H   0  0  0  0  0  0  0  0  0  0  0  0
    6.3539    0.2434    0.2785 H   0  0  0  0  0  0  0  0  0  0  0  0
    6.4374    1.9685    0.6259 H   0  0  0  0  0  0  0  0  0  0  0  0
    2.3127    2.1924    0.1868 H   0  0  0  0  0  0  0  0  0  0  0  0
   -0.1157   -2.1560   -1.4622 H   0  0  0  0  0  0  0  0  0  0  0  0
   -1.0756   -0.6756   -1.3589 H   0  0  0  0  0  0  0  0  0  0  0  0
   -2.8249   -2.7076    1.0465 H   0  0  0  0  0  0  0  0  0  0  0  0
   -2.5474   -2.7330   -0.6882 H   0  0  0  0  0  0  0  0  0  0  0  0
    0.7101   -2.7617    1.2388 H   0  0  0  0  0  0  0  0  0  0  0  0
   -0.3152   -3.8192    0.2387 H   0  0  0  0  0  0  0  0  0  0  0  0
   -0.8034   -3.3464    1.8788 H   0  0  0  0  0  0  0  0  0  0  0  0
   -2.3560    0.0418    1.8915 H   0  0  0  0  0  0  0  0  0  0  0  0
   -4.3728   -1.5139   -1.5944 H   0  0  0  0  0  0  0  0  0  0  0  0
   -3.7261    2.0693    1.7783 H   0  0  0  0  0  0  0  0  0  0  0  0
   -5.7505    0.5181   -1.6977 H   0  0  0  0  0  0  0  0  0  0  0  0
   -5.1765    3.4202   -0.6463 H   0  0  0  0  0  0  0  0  0  0  0  0
   -6.6554    2.4496   -0.4538 H   0  0  0  0  0  0  0  0  0  0  0  0
   -5.8345    3.0785    0.9714 H   0  0  0  0  0  0  0  0  0  0  0  0
  1 12  2  0  0  0  0
  2 13  2  0  0  0  0
  3  6  1  0  0  0  0
  3 13  1  0  0  0  0
  3 34  1  0  0  0  0
  4 12  1  0  0  0  0
  4 13  1  0  0  0  0
  4 14  1  0  0  0  0
  5 14  1  0  0  0  0
  5 15  1  0  0  0  0
  5 16  1  0  0  0  0
  6  7  1  0  0  0  0
  6  8  1  0  0  0  0
  6 12  1  0  0  0  0
  7  9  1  0  0  0  0
  7 24  1  0  0  0  0
  7 25  1  0  0  0  0
  8 10  1  0  0  0  0
  8 26  1  0  0  0  0
  8 27  1  0  0  0  0
  9 11  1  0  0  0  0
  9 28  1  0  0  0  0
  9 29  1  0  0  0  0
 10 11  1  0  0  0  0
 10 30  1  0  0  0  0
 10 31  1  0  0  0  0
 11 32  1  0  0  0  0
 11 33  1  0  0  0  0
 14 35  1  0  0  0  0
 14 36  1  0  0  0  0
 15 17  1  0  0  0  0
 15 37  1  0  0  0  0
 15 38  1  0  0  0  0
 16 39  1  0  0  0  0
 16 40  1  0  0  0  0
 16 41  1  0  0  0  0
 17 18  2  0  0  0  0
 17 19  1  0  0  0  0
 18 20  1  0  0  0  0
 18 42  1  0  0  0  0
 19 21  2  0  0  0  0
 19 43  1  0  0  0  0
 20 22  2  0  0  0  0
 20 44  1  0  0  0  0
 21 22  1  0  0  0  0
 21 45  1  0  0  0  0
 22 23  1  0  0  0  0
 23 46  1  0  0  0  0
 23 47  1  0  0  0  0
 23 48  1  0  0  0  0
M  END
> <PUBCHEM_COMPOUND_CID>
17395871

> <PUBCHEM_CONFORMER_RMSD>
0.8

> <PUBCHEM_CONFORMER_DIVERSEORDER>
1
77
10
12
6
52
31
74
61
27
39
21
50
46
25
76
67
57
45
8
15
51
49
55
59
58
47
18
62
2
22
48
42
37
23
11
20
43
75
14
3
36
29
35
44
38
28
30
9
69
41
13
71
65
33
34
26
7
64
19
32
5
24
54
66
60
16
68
17
53
4
70
73
40
63
72
56

> <PUBCHEM_MMFF94_PARTIAL_CHARGES>
23
1 -0.57
12 0.57
13 0.69
14 0.57
15 0.41
16 0.27
17 -0.14
18 -0.15
19 -0.15
2 -0.57
20 -0.15
21 -0.15
22 -0.14
23 0.14
3 -0.73
34 0.37
4 -0.42
42 0.15
43 0.15
44 0.15
45 0.15
5 -0.81
6 0.36

> <PUBCHEM_EFFECTIVE_ROTOR_COUNT>
5.4

> <PUBCHEM_PHARMACOPHORE_FEATURES>
7
1 1 acceptor
1 2 acceptor
1 3 donor
1 5 cation
5 3 4 6 12 13 rings
6 17 18 19 20 21 22 rings
6 6 7 8 9 10 11 rings

> <PUBCHEM_HEAVY_ATOM_COUNT>
23

> <PUBCHEM_ATOM_DEF_STEREO_COUNT>
0

> <PUBCHEM_ATOM_UDEF_STEREO_COUNT>
0

> <PUBCHEM_BOND_DEF_STEREO_COUNT>
0

> <PUBCHEM_BOND_UDEF_STEREO_COUNT>
0

> <PUBCHEM_ISOTOPIC_ATOM_COUNT>
0

> <PUBCHEM_COMPONENT_COUNT>
1

> <PUBCHEM_CACTVS_TAUTO_COUNT>
2

> <PUBCHEM_CONFORMER_ID>
0109709F00000001

> <PUBCHEM_MMFF94_ENERGY>
48.448

> <PUBCHEM_FEATURE_SELFOVERLAP>
35.526

> <PUBCHEM_SHAPE_FINGERPRINT>
10366900 7 17749108885261873792
10906281 52 18342727503964116316
11045515 52 5761659178489417251
11089746 13 17603589625622593864
11128504 68 6050441548295968954
11552529 35 16413490213596271019
11646440 116 18187917362232698113
12107183 9 18128265664869685714
12236239 1 17917429766785046140
12403259 415 17967531229611400393
12422481 6 17273995703095060554
12596602 18 17131830945747441601
12633257 1 18131356275869343204
12969540 114 17313107440619045036
13675066 3 14405191650796721046
14251764 30 9871751316455870904
14251764 38 18116722819939512065
14251764 75 17829319539163657585
14466204 15 18342747329306548137
14573314 32 17676480632083672700
14790565 3 18124307208678266124
15081414 286 18263347204949686768
15196674 1 18410008875320239871
15238133 3 18342458123794711076
15375358 24 18409163281990256750
15788980 27 15626227900717767940
1601671 61 18411415086394367124
17780758 139 12391518585572555135
18608769 82 18338229355135749179
19078846 21 18200315403702143580
19489759 90 18187367592863669819
19784866 170 18411415090573133678
200 152 5328752880500541542
20511986 3 18189633768349723477
21150785 3 6915984807591283824
21279426 13 18334847359978251630
21298829 104 18337955709832197613
21421861 104 17774453805583269218
22393880 68 17385729079837662807
22950370 63 9079115583204889587
235170 7 15864065486010660949
23559900 14 18337378418818899334
2838139 119 18187091654068291537
341906 21 18336270059025399194
34797466 226 16660365840135115037
34934 24 18409451396685707175
350125 39 18198050396985517955
474 4 18341610447489907531
5104073 3 18341608265609793563
5385378 56 18269833276093157363
6328613 192 18271241604728897780
633830 44 18340486767886361823
7226269 152 18408603651967700592
7495541 125 9223231845355002270
9981440 41 18413107264907449203

> <PUBCHEM_SHAPE_MULTIPOLES>
446.65
13.19
2.56
1.19
0.11
0.93
-0.15
-9.27
-0.12
-1.96
-0.29
0.65
-0.03
-0.03

> <PUBCHEM_SHAPE_SELFOVERLAP>
943.36

> <PUBCHEM_SHAPE_VOLUME>
251.5

> <PUBCHEM_COORDINATE_TYPE>
2
5
10

$$$$

