399204
  -OEChem-07051213022D

 42 47  0     1  0  0  0  0  0999 V2000
    6.2352   -2.7733    0.0000 O   0  0  0  0  0  0  0  0  0  0  0  0
    8.9116   -2.2348    0.0000 O   0  0  0  0  0  0  0  0  0  0  0  0
    4.5112    2.3449    0.0000 O   0  0  0  0  0  0  0  0  0  0  0  0
    2.6079   -0.5280    0.0000 O   0  0  0  0  0  0  0  0  0  0  0  0
    2.6079    1.1485    0.0000 O   0  0  0  0  0  0  0  0  0  0  0  0
    7.1256    0.8103    0.0000 N   0  0  3  0  0  0  0  0  0  0  0  0
    6.2596   -0.6897    0.0000 C   0  0  1  0  0  0  0  0  0  0  0  0
    6.2435   -1.7312    0.0000 C   0  0  2  0  0  0  0  0  0  0  0  0
    7.1256   -0.1897    0.0000 C   0  0  1  0  0  0  0  0  0  0  0  0
    7.1415   -2.2590    0.0000 C   0  0  2  0  0  0  0  0  0  0  0  0
    6.1461   -0.0861    0.0000 C   0  0  0  0  0  0  0  0  0  0  0  0
    8.0356   -0.6966    0.0000 C   0  0  0  0  0  0  0  0  0  0  0  0
    8.0436   -1.7382    0.0000 C   0  0  1  0  0  0  0  0  0  0  0  0
    5.3935   -0.1897    0.0000 C   0  0  0  0  0  0  0  0  0  0  0  0
    6.5462    0.6067    0.0000 C   0  0  0  0  0  0  0  0  0  0  0  0
    6.2596    1.3103    0.0000 C   0  0  0  0  0  0  0  0  0  0  0  0
    5.3935    0.8103    0.0000 C   0  0  0  0  0  0  0  0  0  0  0  0
    4.4996   -0.7244    0.0000 C   0  0  0  0  0  0  0  0  0  0  0  0
    4.4996    1.3449    0.0000 C   0  0  0  0  0  0  0  0  0  0  0  0
    3.5935   -0.2106    0.0000 C   0  0  0  0  0  0  0  0  0  0  0  0
    3.5935    0.8311    0.0000 C   0  0  0  0  0  0  0  0  0  0  0  0
    2.0000    0.3103    0.0000 C   0  0  0  0  0  0  0  0  0  0  0  0
    3.6510    2.8548    0.0000 C   0  0  0  0  0  0  0  0  0  0  0  0
    5.6235   -1.7240    0.0000 H   0  0  0  0  0  0  0  0  0  0  0  0
    7.8617    0.2353    0.0000 H   0  0  0  0  0  0  0  0  0  0  0  0
    7.4495   -2.7971    0.0000 H   0  0  0  0  0  0  0  0  0  0  0  0
    5.7190    0.3632    0.0000 H   0  0  0  0  0  0  0  0  0  0  0  0
    5.5942   -0.3685    0.0000 H   0  0  0  0  0  0  0  0  0  0  0  0
    8.6472   -0.7980    0.0000 H   0  0  0  0  0  0  0  0  0  0  0  0
    8.2401   -0.1113    0.0000 H   0  0  0  0  0  0  0  0  0  0  0  0
    8.0448   -2.3582    0.0000 H   0  0  0  0  0  0  0  0  0  0  0  0
    6.5147    1.2259    0.0000 H   0  0  0  0  0  0  0  0  0  0  0  0
    5.9434    0.7519    0.0000 H   0  0  0  0  0  0  0  0  0  0  0  0
    6.6581    1.7852    0.0000 H   0  0  0  0  0  0  0  0  0  0  0  0
    5.8610    1.7852    0.0000 H   0  0  0  0  0  0  0  0  0  0  0  0
    4.5068   -1.3444    0.0000 H   0  0  0  0  0  0  0  0  0  0  0  0
    8.9139   -2.8548    0.0000 H   0  0  0  0  0  0  0  0  0  0  0  0
    1.5391    0.7250    0.0000 H   0  0  0  0  0  0  0  0  0  0  0  0
    1.5391   -0.1045    0.0000 H   0  0  0  0  0  0  0  0  0  0  0  0
    3.9672    3.3882    0.0000 H   0  0  0  0  0  0  0  0  0  0  0  0
    3.1176    3.1710    0.0000 H   0  0  0  0  0  0  0  0  0  0  0  0
    3.3348    2.3215    0.0000 H   0  0  0  0  0  0  0  0  0  0  0  0
  8  1  1  6  0  0  0
 10  1  1  6  0  0  0
 13  2  1  1  0  0  0
  2 37  1  0  0  0  0
  3 19  1  0  0  0  0
  3 23  1  0  0  0  0
  4 20  1  0  0  0  0
  4 22  1  0  0  0  0
  5 21  1  0  0  0  0
  5 22  1  0  0  0  0
  6  9  1  0  0  0  0
  6 15  1  0  0  0  0
  6 16  1  0  0  0  0
  7  8  1  0  0  0  0
  7  9  1  0  0  0  0
  7 11  1  6  0  0  0
  7 14  1  0  0  0  0
  8 10  1  0  0  0  0
  8 24  1  0  0  0  0
  9 12  1  0  0  0  0
  9 25  1  1  0  0  0
 10 13  1  0  0  0  0
 10 26  1  0  0  0  0
 11 15  1  0  0  0  0
 11 27  1  0  0  0  0
 11 28  1  0  0  0  0
 12 13  1  0  0  0  0
 12 29  1  0  0  0  0
 12 30  1  0  0  0  0
 13 31  1  0  0  0  0
 14 17  1  0  0  0  0
 14 18  2  0  0  0  0
 15 32  1  0  0  0  0
 15 33  1  0  0  0  0
 16 17  1  0  0  0  0
 16 34  1  0  0  0  0
 16 35  1  0  0  0  0
 17 19  2  0  0  0  0
 18 20  1  0  0  0  0
 18 36  1  0  0  0  0
 19 21  1  0  0  0  0
 20 21  2  0  0  0  0
 22 38  1  0  0  0  0
 22 39  1  0  0  0  0
 23 40  1  0  0  0  0
 23 41  1  0  0  0  0
 23 42  1  0  0  0  0
M  END
> <PUBCHEM_COMPOUND_CID>
399204

> <PUBCHEM_COMPOUND_CANONICALIZED>
1

> <PUBCHEM_CACTVS_COMPLEXITY>
531

> <PUBCHEM_CACTVS_HBOND_ACCEPTOR>
6

> <PUBCHEM_CACTVS_HBOND_DONOR>
1

> <PUBCHEM_CACTVS_ROTATABLE_BOND>
1

> <PUBCHEM_CACTVS_SUBSKEYS>
AAADceB6OAAAAAAAAAAAAAAAEgAAAWJAAAA8YIAABYkAAFixAAAAHgAACAAADjzhmAcyDoMABgCAAiBCAACCCAAgIAAAiAAOjIgdNyKEsBumcCpnwBWPqAew8P8PoAABCAAYQABAgAIUADSAAAAAAAAAAA==

> <PUBCHEM_IUPAC_INCHI>
InChI=1S/C17H19NO5/c1-20-13-8-6-18-3-2-17(9(8)4-11-15(13)22-7-21-11)12(18)5-10(19)14-16(17)23-14/h4,10,12,14,16,19H,2-3,5-7H2,1H3/t10-,12-,14+,16+,17+/m1/s1

> <PUBCHEM_IUPAC_INCHIKEY>
HHEOZJCKMANJQV-CUQLUGJVSA-N

> <PUBCHEM_XLOGP3_AA>
0.8

> <PUBCHEM_EXACT_MASS>
317.126323

> <PUBCHEM_MOLECULAR_FORMULA>
C17H19NO5

> <PUBCHEM_MOLECULAR_WEIGHT>
317.33646

> <PUBCHEM_OPENEYE_CAN_SMILES>
COC1=C2CN3CCC4(C3CC(C5C4O5)O)C2=CC6=C1OCO6

> <PUBCHEM_OPENEYE_ISO_SMILES>
COC1=C2CN3CC[C@@]4([C@H]3C[C@H]([C@H]5[C@@H]4O5)O)C2=CC6=C1OCO6

> <PUBCHEM_CACTVS_TPSA>
63.7

> <PUBCHEM_MONOISOTOPIC_WEIGHT>
317.126323

> <PUBCHEM_TOTAL_CHARGE>
0

> <PUBCHEM_HEAVY_ATOM_COUNT>
23

> <PUBCHEM_ATOM_DEF_STEREO_COUNT>
5

> <PUBCHEM_ATOM_UDEF_STEREO_COUNT>
0

> <PUBCHEM_BOND_DEF_STEREO_COUNT>
0

> <PUBCHEM_BOND_UDEF_STEREO_COUNT>
0

> <PUBCHEM_ISOTOPIC_ATOM_COUNT>
0

> <PUBCHEM_COMPONENT_COUNT>
1

> <PUBCHEM_CACTVS_TAUTO_COUNT>
1

> <PUBCHEM_COORDINATE_TYPE>
1
5
255

> <PUBCHEM_BONDANNOTATIONS>
10  1  6
8  1  6
14  17  8
14  18  8
17  19  8
18  20  8
19  21  8
13  2  5
20  21  8
7  11  6
9  25  5

$$$$

