440959
  -OEChem-07051212513D

 22 21  0     1  0  0  0  0  0999 V2000
   -2.3997    1.4960   -0.0078 O   0  0  0  0  0  0  0  0  0  0  0  0
    1.2698    1.8470    0.0897 O   0  0  0  0  0  0  0  0  0  0  0  0
   -1.9546   -0.0873   -1.5679 O   0  0  0  0  0  0  0  0  0  0  0  0
    2.8175    0.4201    0.9326 O   0  0  0  0  0  0  0  0  0  0  0  0
    2.1986   -1.3705   -1.0542 N   0  0  0  0  0  0  0  0  0  0  0  0
    0.0990   -1.2048    0.1929 C   0  0  0  0  0  0  0  0  0  0  0  0
   -1.1100   -0.3928    0.6994 C   0  0  2  0  0  0  0  0  0  0  0  0
    1.1542   -0.4371   -0.6193 C   0  0  1  0  0  0  0  0  0  0  0  0
   -2.0775   -1.2225    1.5429 C   0  0  0  0  0  0  0  0  0  0  0  0
   -1.8448    0.3269   -0.4213 C   0  0  0  0  0  0  0  0  0  0  0  0
    1.8475    0.6251    0.2128 C   0  0  0  0  0  0  0  0  0  0  0  0
    0.5820   -1.6664    1.0660 H   0  0  0  0  0  0  0  0  0  0  0  0
   -0.2779   -2.0339   -0.4224 H   0  0  0  0  0  0  0  0  0  0  0  0
   -0.7071    0.3908    1.3554 H   0  0  0  0  0  0  0  0  0  0  0  0
    0.7233    0.0243   -1.5128 H   0  0  0  0  0  0  0  0  0  0  0  0
   -1.5642   -1.6698    2.4001 H   0  0  0  0  0  0  0  0  0  0  0  0
   -2.5202   -2.0287    0.9482 H   0  0  0  0  0  0  0  0  0  0  0  0
   -2.8979   -0.6032    1.9210 H   0  0  0  0  0  0  0  0  0  0  0  0
    2.6487   -1.7966   -0.2449 H   0  0  0  0  0  0  0  0  0  0  0  0
    2.9249   -0.8671   -1.5619 H   0  0  0  0  0  0  0  0  0  0  0  0
   -2.8794    1.9495   -0.7334 H   0  0  0  0  0  0  0  0  0  0  0  0
    1.7225    2.5228    0.6379 H   0  0  0  0  0  0  0  0  0  0  0  0
  1 10  1  0  0  0  0
  1 21  1  0  0  0  0
  2 11  1  0  0  0  0
  2 22  1  0  0  0  0
  3 10  2  0  0  0  0
  4 11  2  0  0  0  0
  5  8  1  0  0  0  0
  5 19  1  0  0  0  0
  5 20  1  0  0  0  0
  6  7  1  0  0  0  0
  6  8  1  0  0  0  0
  6 12  1  0  0  0  0
  6 13  1  0  0  0  0
  7  9  1  0  0  0  0
  7 10  1  0  0  0  0
  7 14  1  0  0  0  0
  8 11  1  0  0  0  0
  8 15  1  0  0  0  0
  9 16  1  0  0  0  0
  9 17  1  0  0  0  0
  9 18  1  0  0  0  0
M  END
> <PUBCHEM_COMPOUND_CID>
440959

> <PUBCHEM_CONFORMER_RMSD>
0.6

> <PUBCHEM_CONFORMER_DIVERSEORDER>
1
37
35
22
4
29
14
31
30
33
34
21
2
28
6
32
11
7
15
36
17
8
3
10
12
19
20
5
38
13
16
18
9
23
26
24
25
27
39

> <PUBCHEM_MMFF94_PARTIAL_CHARGES>
13
1 -0.65
10 0.66
11 0.66
19 0.36
2 -0.65
20 0.36
21 0.5
22 0.5
3 -0.57
4 -0.57
5 -0.99
7 0.06
8 0.33

> <PUBCHEM_EFFECTIVE_ROTOR_COUNT>
4

> <PUBCHEM_PHARMACOPHORE_FEATURES>
9
1 1 acceptor
1 2 acceptor
1 3 acceptor
1 4 acceptor
1 5 cation
1 5 donor
1 9 hydrophobe
3 1 3 10 anion
3 2 4 11 anion

> <PUBCHEM_HEAVY_ATOM_COUNT>
11

> <PUBCHEM_ATOM_DEF_STEREO_COUNT>
1

> <PUBCHEM_ATOM_UDEF_STEREO_COUNT>
1

> <PUBCHEM_BOND_DEF_STEREO_COUNT>
0

> <PUBCHEM_BOND_UDEF_STEREO_COUNT>
0

> <PUBCHEM_ISOTOPIC_ATOM_COUNT>
0

> <PUBCHEM_COMPONENT_COUNT>
1

> <PUBCHEM_CACTVS_TAUTO_COUNT>
1

> <PUBCHEM_CONFORMER_ID>
0006BA7F00000001

> <PUBCHEM_MMFF94_ENERGY>
11.6071

> <PUBCHEM_FEATURE_SELFOVERLAP>
45.787

> <PUBCHEM_SHAPE_FINGERPRINT>
10857977 72 17844228645735479715
12423570 1 10278614552021636879
124424 183 18129962142791800682
12897270 3 17677633980868002421
12932741 1 18342731927316272431
12932764 1 17531238457284207702
15775835 57 17385444297530457561
19973954 147 18412256216514805625
20653085 51 17968936543068991233
21040471 1 17489027183686571287
21930827 45 17917134100508447667
369184 2 17346046567035241339
5084963 1 17750521684725817190
54338 74 16343134689623387811

> <PUBCHEM_SHAPE_MULTIPOLES>
197.92
3.8
1.55
1.26
0.57
0.22
-0.2
0.31
0.38
-0.26
0.21
-0.18
-0.25
0.91

> <PUBCHEM_SHAPE_SELFOVERLAP>
378.089

> <PUBCHEM_SHAPE_VOLUME>
120.8

> <PUBCHEM_COORDINATE_TYPE>
2
5
10

$$$$

