249674
  -OEChem-07051213063D

 25 27  0     0  0  0  0  0  0999 V2000
   -0.3125    1.8750   -0.0007 O   0  0  0  0  0  0  0  0  0  0  0  0
    1.7409    2.8662    0.0003 O   0  0  0  0  0  0  0  0  0  0  0  0
   -4.7531    0.0279    0.0003 N   0  0  0  0  0  0  0  0  0  0  0  0
   -0.5486   -0.5565   -0.0003 C   0  0  0  0  0  0  0  0  0  0  0  0
    0.9149   -0.6728   -0.0002 C   0  0  0  0  0  0  0  0  0  0  0  0
    1.6996    0.4938    0.0000 C   0  0  0  0  0  0  0  0  0  0  0  0
   -1.1205    0.7178   -0.0004 C   0  0  0  0  0  0  0  0  0  0  0  0
   -1.4380   -1.6436    0.0000 C   0  0  0  0  0  0  0  0  0  0  0  0
    1.5920   -1.9069   -0.0003 C   0  0  0  0  0  0  0  0  0  0  0  0
   -2.5015    0.9316    0.0000 C   0  0  0  0  0  0  0  0  0  0  0  0
    1.0753    1.8386    0.0001 C   0  0  0  0  0  0  0  0  0  0  0  0
    3.1022    0.4255    0.0004 C   0  0  0  0  0  0  0  0  0  0  0  0
   -3.3568   -0.1628    0.0003 C   0  0  0  0  0  0  0  0  0  0  0  0
   -2.8257   -1.4494    0.0002 C   0  0  0  0  0  0  0  0  0  0  0  0
    2.9886   -1.9751   -0.0001 C   0  0  0  0  0  0  0  0  0  0  0  0
    3.7431   -0.8094    0.0004 C   0  0  0  0  0  0  0  0  0  0  0  0
   -1.0813   -2.6697    0.0002 H   0  0  0  0  0  0  0  0  0  0  0  0
    1.0522   -2.8499   -0.0006 H   0  0  0  0  0  0  0  0  0  0  0  0
   -2.8955    1.9446    0.0000 H   0  0  0  0  0  0  0  0  0  0  0  0
    3.7113    1.3258    0.0006 H   0  0  0  0  0  0  0  0  0  0  0  0
   -3.4800   -2.3179    0.0005 H   0  0  0  0  0  0  0  0  0  0  0  0
    3.4829   -2.9423   -0.0001 H   0  0  0  0  0  0  0  0  0  0  0  0
    4.8277   -0.8610    0.0006 H   0  0  0  0  0  0  0  0  0  0  0  0
   -5.3732   -0.7710    0.0011 H   0  0  0  0  0  0  0  0  0  0  0  0
   -5.1365    0.9637    0.0009 H   0  0  0  0  0  0  0  0  0  0  0  0
  1  7  1  0  0  0  0
  1 11  1  0  0  0  0
  2 11  2  0  0  0  0
  3 13  1  0  0  0  0
  3 24  1  0  0  0  0
  3 25  1  0  0  0  0
  4  5  1  0  0  0  0
  4  7  2  0  0  0  0
  4  8  1  0  0  0  0
  5  6  1  0  0  0  0
  5  9  2  0  0  0  0
  6 11  1  0  0  0  0
  6 12  2  0  0  0  0
  7 10  1  0  0  0  0
  8 14  2  0  0  0  0
  8 17  1  0  0  0  0
  9 15  1  0  0  0  0
  9 18  1  0  0  0  0
 10 13  2  0  0  0  0
 10 19  1  0  0  0  0
 12 16  1  0  0  0  0
 12 20  1  0  0  0  0
 13 14  1  0  0  0  0
 14 21  1  0  0  0  0
 15 16  2  0  0  0  0
 15 22  1  0  0  0  0
 16 23  1  0  0  0  0
M  END
> <PUBCHEM_COMPOUND_CID>
249674

> <PUBCHEM_CONFORMER_RMSD>
0.4

> <PUBCHEM_CONFORMER_DIVERSEORDER>
1

> <PUBCHEM_MMFF94_PARTIAL_CHARGES>
23
1 -0.23
10 -0.15
11 0.63
12 -0.15
13 0.1
14 -0.15
15 -0.15
16 -0.15
17 0.15
18 0.15
19 0.15
2 -0.57
20 0.15
21 0.15
22 0.15
23 0.15
24 0.4
25 0.4
3 -0.9
6 0.09
7 0.08
8 -0.15
9 -0.15

> <PUBCHEM_EFFECTIVE_ROTOR_COUNT>
0

> <PUBCHEM_PHARMACOPHORE_FEATURES>
6
1 2 acceptor
1 3 cation
1 3 donor
6 1 4 5 6 7 11 rings
6 4 7 8 10 13 14 rings
6 5 6 9 12 15 16 rings

> <PUBCHEM_HEAVY_ATOM_COUNT>
16

> <PUBCHEM_ATOM_DEF_STEREO_COUNT>
0

> <PUBCHEM_ATOM_UDEF_STEREO_COUNT>
0

> <PUBCHEM_BOND_DEF_STEREO_COUNT>
0

> <PUBCHEM_BOND_UDEF_STEREO_COUNT>
0

> <PUBCHEM_ISOTOPIC_ATOM_COUNT>
0

> <PUBCHEM_COMPONENT_COUNT>
1

> <PUBCHEM_CACTVS_TAUTO_COUNT>
2

> <PUBCHEM_CONFORMER_ID>
0003CF4A00000001

> <PUBCHEM_MMFF94_ENERGY>
67.4604

> <PUBCHEM_FEATURE_SELFOVERLAP>
30.494

> <PUBCHEM_SHAPE_FINGERPRINT>
10608611 8 18412830157511090005
10967382 1 18410575084747526918
11132069 177 18410581690512833826
11471102 20 18411141329020005183
11680986 33 18268988700664927587
12032990 46 18338231677932217302
12251169 10 18408038511643878251
13140716 1 18266745675189768960
13221675 6 18411699889490644995
13897977 150 18267587914150390941
14115302 16 17917417731358534351
14144814 61 18409729590349614795
14648413 74 18269272365768965160
15196674 1 18410855507399266759
15375462 189 18201437029488961594
15442244 35 18336825398191309185
15536298 74 18261674783513202024
16945 1 18410855447253880868
18186145 218 17703518713990536263
18522853 276 18335704961387804642
193761 8 17978510836715034626
19591789 44 16101338239552556777
200 152 18041006137451253119
20201158 50 18411981364393554635
20559304 39 18410571777812639060
20645477 70 18339930316307681639
20871998 22 18190174775151887806
21029758 11 18335990860492345697
21267235 1 18338226158772868710
21501502 16 18265333902539402551
221490 88 18269266872527314763
22721475 48 18411133658139790646
2334 1 17906170655118938240
23402539 116 18190191250335179478
23463225 33 18410855477429493286
23557571 272 18115864282199986622
23559900 14 18408890620497206800
2748010 2 18051972515617454284
3071541 12 18266175037366609460
3071541 158 18343865523894232500
335352 9 18338516451396072565
34934 24 18410019835807864234
5104073 3 18410292484653143363
537710 114 18412256255364560348
53812653 166 18335144150644666376
69090 78 18335144198063743615
7364860 26 18335984164596107288
74978 22 18410010996807354095
81228 2 18049710017298678322
84936 182 17898289398710872097
8809292 202 18272929401678394643
9709674 26 18411133593895369823

> <PUBCHEM_SHAPE_MULTIPOLES>
312.55
6.42
2.39
0.6
3.24
0.86
0
-1.6
0
-1.26
0
-0.02
-0.03
0

> <PUBCHEM_SHAPE_SELFOVERLAP>
702.14

> <PUBCHEM_SHAPE_VOLUME>
164.1

> <PUBCHEM_COORDINATE_TYPE>
2
5
10

$$$$

