441913
  -OEChem-07051212562D

102110  0     1  0  0  0  0  0999 V2000
   13.9862   -0.0226    0.0000 O   0  0  0  0  0  0  0  0  0  0  0  0
   10.4158   -1.9895    0.0000 O   0  0  0  0  0  0  0  0  0  0  0  0
    6.0075    2.6039    0.0000 O   0  0  0  0  0  0  0  0  0  0  0  0
   14.9516   -1.8604    0.0000 O   0  0  0  0  0  0  0  0  0  0  0  0
   15.9026    0.3490    0.0000 O   0  0  0  0  0  0  0  0  0  0  0  0
   16.6785   -2.3002    0.0000 O   0  0  0  0  0  0  0  0  0  0  0  0
    4.2755    2.6106    0.0000 O   0  0  0  0  0  0  0  0  0  0  0  0
    8.6837   -1.9828    0.0000 O   0  0  0  0  0  0  0  0  0  0  0  0
    5.9998    0.6039    0.0000 O   0  0  0  0  0  0  0  0  0  0  0  0
    4.2639   -0.3894    0.0000 O   0  0  0  0  0  0  0  0  0  0  0  0
    2.5357    0.6173    0.0000 O   0  0  0  0  0  0  0  0  0  0  0  0
    9.5376    0.5797    0.0000 C   0  0  1  0  0  0  0  0  0  0  0  0
    8.6716    1.0798    0.0000 C   0  0  2  0  0  0  0  0  0  0  0  0
    8.6714    0.0793    0.0000 C   0  0  0  0  0  0  0  0  0  0  0  0
    8.6716    2.0798    0.0000 C   0  0  2  0  0  0  0  0  0  0  0  0
   11.3137    0.5729    0.0000 C   0  0  1  0  0  0  0  0  0  0  0  0
   10.4037    1.0798    0.0000 C   0  0  0  0  0  0  0  0  0  0  0  0
   11.3217   -0.4687    0.0000 C   0  0  2  0  0  0  0  0  0  0  0  0
    9.5216   -0.4618    0.0000 C   0  0  0  0  0  0  0  0  0  0  0  0
    7.7777    0.5451    0.0000 C   0  0  0  0  0  0  0  0  0  0  0  0
   10.4196   -0.9895    0.0000 C   0  0  1  0  0  0  0  0  0  0  0  0
   12.3097   -0.7785    0.0000 C   0  0  2  0  0  0  0  0  0  0  0  0
    7.7777    2.6144    0.0000 C   0  0  0  0  0  0  0  0  0  0  0  0
    9.5376    2.5798    0.0000 C   0  0  0  0  0  0  0  0  0  0  0  0
   12.2968    0.8979    0.0000 C   0  0  0  0  0  0  0  0  0  0  0  0
   12.9112    0.0644    0.0000 C   0  0  2  0  0  0  0  0  0  0  0  0
   10.4037    2.0798    0.0000 C   0  0  0  0  0  0  0  0  0  0  0  0
    6.8716    1.0589    0.0000 C   0  0  0  0  0  0  0  0  0  0  0  0
    6.8716    2.1006    0.0000 C   0  0  2  0  0  0  0  0  0  0  0  0
   11.3060    1.5729    0.0000 C   0  0  0  0  0  0  0  0  0  0  0  0
   12.7417   -1.7668    0.0000 C   0  0  1  0  0  0  0  0  0  0  0  0
   11.3294   -1.4687    0.0000 C   0  0  0  0  0  0  0  0  0  0  0  0
   14.4409   -1.0006    0.0000 C   0  0  3  0  0  0  0  0  0  0  0  0
    7.2877    3.4862    0.0000 C   0  0  0  0  0  0  0  0  0  0  0  0
    8.2877    3.4746    0.0000 C   0  0  0  0  0  0  0  0  0  0  0  0
   13.8144   -1.8786    0.0000 C   0  0  0  0  0  0  0  0  0  0  0  0
   15.1007   -0.2492    0.0000 C   0  0  3  0  0  0  0  0  0  0  0  0
   16.0193   -0.6446    0.0000 C   0  0  3  0  0  0  0  0  0  0  0  0
   12.1515   -2.5741    0.0000 C   0  0  0  0  0  0  0  0  0  0  0  0
   15.9271   -1.6403    0.0000 C   0  0  3  0  0  0  0  0  0  0  0  0
    9.5478   -2.4862    0.0000 C   0  0  0  0  0  0  0  0  0  0  0  0
    5.1396    2.1072    0.0000 C   0  0  2  0  0  0  0  0  0  0  0  0
   16.9378   -1.0399    0.0000 C   0  0  0  0  0  0  0  0  0  0  0  0
    5.1357    1.1072    0.0000 C   0  0  1  0  0  0  0  0  0  0  0  0
    9.5440   -3.4862    0.0000 C   0  0  0  0  0  0  0  0  0  0  0  0
    4.2678    0.6106    0.0000 C   0  0  2  0  0  0  0  0  0  0  0  0
    3.4075    2.1139    0.0000 C   0  0  0  0  0  0  0  0  0  0  0  0
    3.4037    1.1139    0.0000 C   0  0  1  0  0  0  0  0  0  0  0  0
    8.0608   -0.0283    0.0000 H   0  0  0  0  0  0  0  0  0  0  0  0
    8.8835   -0.5033    0.0000 H   0  0  0  0  0  0  0  0  0  0  0  0
    8.6782    2.9297    0.0000 H   0  0  0  0  0  0  0  0  0  0  0  0
    8.9124   -0.3463    0.0000 H   0  0  0  0  0  0  0  0  0  0  0  0
    9.3036   -1.0422    0.0000 H   0  0  0  0  0  0  0  0  0  0  0  0
    7.3840    0.0661    0.0000 H   0  0  0  0  0  0  0  0  0  0  0  0
    8.1823    0.0753    0.0000 H   0  0  0  0  0  0  0  0  0  0  0  0
   10.9560   -1.3006    0.0000 H   0  0  0  0  0  0  0  0  0  0  0  0
   11.7421   -1.4112    0.0000 H   0  0  0  0  0  0  0  0  0  0  0  0
    9.9362    3.0547    0.0000 H   0  0  0  0  0  0  0  0  0  0  0  0
    9.1391    3.0547    0.0000 H   0  0  0  0  0  0  0  0  0  0  0  0
   12.8318    1.2113    0.0000 H   0  0  0  0  0  0  0  0  0  0  0  0
   12.0414    1.4629    0.0000 H   0  0  0  0  0  0  0  0  0  0  0  0
   13.3248    0.8070    0.0000 H   0  0  0  0  0  0  0  0  0  0  0  0
   10.9406    2.3898    0.0000 H   0  0  0  0  0  0  0  0  0  0  0  0
    6.2608    1.1650    0.0000 H   0  0  0  0  0  0  0  0  0  0  0  0
    6.6626    0.4752    0.0000 H   0  0  0  0  0  0  0  0  0  0  0  0
    6.3341    1.7916    0.0000 H   0  0  0  0  0  0  0  0  0  0  0  0
   11.9259    1.5776    0.0000 H   0  0  0  0  0  0  0  0  0  0  0  0
   11.3012    2.1928    0.0000 H   0  0  0  0  0  0  0  0  0  0  0  0
   10.6860    1.5681    0.0000 H   0  0  0  0  0  0  0  0  0  0  0  0
   12.9932   -2.3335    0.0000 H   0  0  0  0  0  0  0  0  0  0  0  0
   10.7094   -1.4734    0.0000 H   0  0  0  0  0  0  0  0  0  0  0  0
   11.3342   -2.0886    0.0000 H   0  0  0  0  0  0  0  0  0  0  0  0
   11.9494   -1.4639    0.0000 H   0  0  0  0  0  0  0  0  0  0  0  0
    8.8210    3.1584    0.0000 H   0  0  0  0  0  0  0  0  0  0  0  0
    8.6038    4.0079    0.0000 H   0  0  0  0  0  0  0  0  0  0  0  0
    7.8282    3.7899    0.0000 H   0  0  0  0  0  0  0  0  0  0  0  0
    6.9840    4.0266    0.0000 H   0  0  0  0  0  0  0  0  0  0  0  0
    6.7472    3.1824    0.0000 H   0  0  0  0  0  0  0  0  0  0  0  0
    7.7544    3.7908    0.0000 H   0  0  0  0  0  0  0  0  0  0  0  0
   13.6456   -2.4752    0.0000 H   0  0  0  0  0  0  0  0  0  0  0  0
   14.3733   -2.1471    0.0000 H   0  0  0  0  0  0  0  0  0  0  0  0
   14.6801    0.2063    0.0000 H   0  0  0  0  0  0  0  0  0  0  0  0
   11.6510   -2.2081    0.0000 H   0  0  0  0  0  0  0  0  0  0  0  0
   11.7855   -3.0746    0.0000 H   0  0  0  0  0  0  0  0  0  0  0  0
   12.6520   -2.9400    0.0000 H   0  0  0  0  0  0  0  0  0  0  0  0
   16.5031   -1.4110    0.0000 H   0  0  0  0  0  0  0  0  0  0  0  0
    5.6753    1.7952    0.0000 H   0  0  0  0  0  0  0  0  0  0  0  0
   16.6927   -1.6094    0.0000 H   0  0  0  0  0  0  0  0  0  0  0  0
   17.5073   -1.2851    0.0000 H   0  0  0  0  0  0  0  0  0  0  0  0
   17.1829   -0.4704    0.0000 H   0  0  0  0  0  0  0  0  0  0  0  0
    5.6738    1.4152    0.0000 H   0  0  0  0  0  0  0  0  0  0  0  0
    8.9240   -3.4838    0.0000 H   0  0  0  0  0  0  0  0  0  0  0  0
    9.5416   -4.1062    0.0000 H   0  0  0  0  0  0  0  0  0  0  0  0
   10.1640   -3.4886    0.0000 H   0  0  0  0  0  0  0  0  0  0  0  0
   16.5572   -2.9082    0.0000 H   0  0  0  0  0  0  0  0  0  0  0  0
    3.7296    0.3027    0.0000 H   0  0  0  0  0  0  0  0  0  0  0  0
    3.1977    2.6973    0.0000 H   0  0  0  0  0  0  0  0  0  0  0  0
    2.7966    2.0086    0.0000 H   0  0  0  0  0  0  0  0  0  0  0  0
    2.8680    1.4260    0.0000 H   0  0  0  0  0  0  0  0  0  0  0  0
    5.9974   -0.0161    0.0000 H   0  0  0  0  0  0  0  0  0  0  0  0
    3.7258   -0.6973    0.0000 H   0  0  0  0  0  0  0  0  0  0  0  0
    2.0000    0.9293    0.0000 H   0  0  0  0  0  0  0  0  0  0  0  0
  1 26  1  0  0  0  0
  1 33  1  0  0  0  0
 21  2  1  6  0  0  0
  2 41  1  0  0  0  0
 29  3  1  6  0  0  0
 42  3  1  1  0  0  0
  4 33  1  0  0  0  0
  4 40  1  0  0  0  0
  5 37  1  0  0  0  0
  5 38  1  0  0  0  0
  6 40  1  0  0  0  0
  6 95  1  0  0  0  0
  7 42  1  0  0  0  0
  7 47  1  0  0  0  0
  8 41  2  0  0  0  0
 44  9  1  6  0  0  0
  9100  1  0  0  0  0
 46 10  1  1  0  0  0
 10101  1  0  0  0  0
 48 11  1  6  0  0  0
 11102  1  0  0  0  0
 12 13  1  0  0  0  0
 12 14  1  6  0  0  0
 12 17  1  0  0  0  0
 12 19  1  0  0  0  0
 13 14  1  6  0  0  0
 13 15  1  0  0  0  0
 13 20  1  0  0  0  0
 14 49  1  0  0  0  0
 14 50  1  0  0  0  0
 15 23  1  0  0  0  0
 15 24  1  0  0  0  0
 15 51  1  1  0  0  0
 16 17  1  0  0  0  0
 16 18  1  0  0  0  0
 16 25  1  0  0  0  0
 16 30  1  1  0  0  0
 17 27  2  0  0  0  0
 18 21  1  0  0  0  0
 18 22  1  0  0  0  0
 18 32  1  6  0  0  0
 19 21  1  0  0  0  0
 19 52  1  0  0  0  0
 19 53  1  0  0  0  0
 20 28  1  0  0  0  0
 20 54  1  0  0  0  0
 20 55  1  0  0  0  0
 21 56  1  0  0  0  0
 22 26  1  0  0  0  0
 22 31  1  0  0  0  0
 22 57  1  1  0  0  0
 23 29  1  0  0  0  0
 23 34  1  0  0  0  0
 23 35  1  0  0  0  0
 24 27  1  0  0  0  0
 24 58  1  0  0  0  0
 24 59  1  0  0  0  0
 25 26  1  0  0  0  0
 25 60  1  0  0  0  0
 25 61  1  0  0  0  0
 26 62  1  1  0  0  0
 27 63  1  0  0  0  0
 28 29  1  0  0  0  0
 28 64  1  0  0  0  0
 28 65  1  0  0  0  0
 29 66  1  0  0  0  0
 30 67  1  0  0  0  0
 30 68  1  0  0  0  0
 30 69  1  0  0  0  0
 31 36  1  0  0  0  0
 31 39  1  1  0  0  0
 31 70  1  0  0  0  0
 32 71  1  0  0  0  0
 32 72  1  0  0  0  0
 32 73  1  0  0  0  0
 33 36  1  0  0  0  0
 33 37  1  0  0  0  0
 34 76  1  0  0  0  0
 34 77  1  0  0  0  0
 34 78  1  0  0  0  0
 35 74  1  0  0  0  0
 35 75  1  0  0  0  0
 35 79  1  0  0  0  0
 36 80  1  0  0  0  0
 36 81  1  0  0  0  0
 37 38  1  0  0  0  0
 37 82  1  0  0  0  0
 38 40  1  0  0  0  0
 38 43  1  0  0  0  0
 39 83  1  0  0  0  0
 39 84  1  0  0  0  0
 39 85  1  0  0  0  0
 40 86  1  0  0  0  0
 41 45  1  0  0  0  0
 42 44  1  0  0  0  0
 42 87  1  0  0  0  0
 43 88  1  0  0  0  0
 43 89  1  0  0  0  0
 43 90  1  0  0  0  0
 44 46  1  0  0  0  0
 44 91  1  0  0  0  0
 45 92  1  0  0  0  0
 45 93  1  0  0  0  0
 45 94  1  0  0  0  0
 46 48  1  0  0  0  0
 46 96  1  0  0  0  0
 47 48  1  0  0  0  0
 47 97  1  0  0  0  0
 47 98  1  0  0  0  0
 48 99  1  0  0  0  0
M  END
> <PUBCHEM_COMPOUND_CID>
441913

> <PUBCHEM_COMPOUND_CANONICALIZED>
1

> <PUBCHEM_CACTVS_COMPLEXITY>
1450

> <PUBCHEM_CACTVS_HBOND_ACCEPTOR>
11

> <PUBCHEM_CACTVS_HBOND_DONOR>
4

> <PUBCHEM_CACTVS_ROTATABLE_BOND>
4

> <PUBCHEM_CACTVS_SUBSKEYS>
AAADcfB8PAAAAAAAAAAAAAAAGiAAAaIAAAA0aJECBAAAAGiAAAAAGgAACAAAD1SwgAMCCAAABgCIAiDSCAAAAAAgAAAACAAAAAgREAIAAAAiQAAFgAAPAAPA4PwPgAAAAAAAAADAAAYAADAAAYAADAAAAA==

> <PUBCHEM_IUPAC_INCHI>
InChI=1S/C37H54O11/c1-17-12-37(29-34(7,47-29)30(42)48-37)46-20-13-32(5)22-9-8-21-31(3,4)23(45-28-27(41)26(40)19(39)15-43-28)10-11-35(21)16-36(22,35)14-24(44-18(2)38)33(32,6)25(17)20/h9,17,19-21,23-30,39-42H,8,10-16H2,1-7H3/t17-,19-,20+,21+,23+,24-,25+,26+,27-,28+,29?,30?,32+,33-,34?,35-,36+,37?/m1/s1

> <PUBCHEM_IUPAC_INCHIKEY>
XUJMHSCMPCZWOV-UJAIUVFWSA-N

> <PUBCHEM_XLOGP3_AA>
2.6

> <PUBCHEM_EXACT_MASS>
674.366613

> <PUBCHEM_MOLECULAR_FORMULA>
C37H54O11

> <PUBCHEM_MOLECULAR_WEIGHT>
674.81806

> <PUBCHEM_OPENEYE_CAN_SMILES>
CC1CC2(C3C(O3)(C(O2)O)C)OC4C1C5(C(CC67CC68CCC(C(C8CC=C7C5(C4)C)(C)C)OC9C(C(C(CO9)O)O)O)OC(=O)C)C

> <PUBCHEM_OPENEYE_ISO_SMILES>
C[C@@H]1CC2(C3C(O3)(C(O2)O)C)O[C@@H]4[C@H]1[C@]5([C@@H](C[C@@]67C[C@@]68CC[C@@H](C([C@@H]8CC=C7[C@@]5(C4)C)(C)C)O[C@H]9[C@@H]([C@H]([C@@H](CO9)O)O)O)OC(=O)C)C

> <PUBCHEM_CACTVS_TPSA>
157

> <PUBCHEM_MONOISOTOPIC_WEIGHT>
674.366613

> <PUBCHEM_TOTAL_CHARGE>
0

> <PUBCHEM_HEAVY_ATOM_COUNT>
48

> <PUBCHEM_ATOM_DEF_STEREO_COUNT>
14

> <PUBCHEM_ATOM_UDEF_STEREO_COUNT>
4

> <PUBCHEM_BOND_DEF_STEREO_COUNT>
0

> <PUBCHEM_BOND_UDEF_STEREO_COUNT>
0

> <PUBCHEM_ISOTOPIC_ATOM_COUNT>
0

> <PUBCHEM_COMPONENT_COUNT>
1

> <PUBCHEM_CACTVS_TAUTO_COUNT>
1

> <PUBCHEM_COORDINATE_TYPE>
1
5
255

> <PUBCHEM_BONDANNOTATIONS>
46  10  5
48  11  6
12  14  6
13  14  6
15  51  5
16  30  5
18  32  6
21  2  6
22  57  5
26  62  5
29  3  6
42  3  5
31  39  5
33  36  3
38  43  3
37  5  3
40  6  3
44  9  6

$$$$

