6884
  -OEChem-07051213013D

 16 16  0     0  0  0  0  0  0999 V2000
    0.9579    2.7188   -0.2196 Cl  0  0  0  0  0  0  0  0  0  0  0  0
    0.9582   -2.7188   -0.2177 Cl  0  0  0  0  0  0  0  0  0  0  0  0
   -3.6641    0.0001    0.2623 Cl  0  0  0  0  0  0  0  0  0  0  0  0
    2.1807   -0.0001   -0.3413 O   0  0  0  0  0  0  0  0  0  0  0  0
    0.8230   -0.0001   -0.1991 C   0  0  0  0  0  0  0  0  0  0  0  0
    0.1293    1.2079   -0.1268 C   0  0  0  0  0  0  0  0  0  0  0  0
    0.1291   -1.2080   -0.1288 C   0  0  0  0  0  0  0  0  0  0  0  0
   -1.2582    1.2080    0.0158 C   0  0  0  0  0  0  0  0  0  0  0  0
   -1.2584   -1.2081    0.0138 C   0  0  0  0  0  0  0  0  0  0  0  0
   -1.9521   -0.0001    0.0861 C   0  0  0  0  0  0  0  0  0  0  0  0
    2.9547    0.0003    0.8552 C   0  0  0  0  0  0  0  0  0  0  0  0
   -1.8008    2.1494    0.0712 H   0  0  0  0  0  0  0  0  0  0  0  0
   -1.8011   -2.1495    0.0686 H   0  0  0  0  0  0  0  0  0  0  0  0
    2.7524   -0.8936    1.4531 H   0  0  0  0  0  0  0  0  0  0  0  0
    2.7543    0.8959    1.4511 H   0  0  0  0  0  0  0  0  0  0  0  0
    4.0122   -0.0011    0.5770 H   0  0  0  0  0  0  0  0  0  0  0  0
  1  6  1  0  0  0  0
  2  7  1  0  0  0  0
  3 10  1  0  0  0  0
  4  5  1  0  0  0  0
  4 11  1  0  0  0  0
  5  6  2  0  0  0  0
  5  7  1  0  0  0  0
  6  8  1  0  0  0  0
  7  9  2  0  0  0  0
  8 10  2  0  0  0  0
  8 12  1  0  0  0  0
  9 10  1  0  0  0  0
  9 13  1  0  0  0  0
 11 14  1  0  0  0  0
 11 15  1  0  0  0  0
 11 16  1  0  0  0  0
M  END
> <PUBCHEM_COMPOUND_CID>
6884

> <PUBCHEM_CONFORMER_RMSD>
0.4

> <PUBCHEM_CONFORMER_DIVERSEORDER>
1

> <PUBCHEM_MMFF94_PARTIAL_CHARGES>
13
1 -0.18
10 0.18
11 0.28
12 0.15
13 0.15
2 -0.18
3 -0.18
4 -0.36
5 0.08
6 0.18
7 0.18
8 -0.15
9 -0.15

> <PUBCHEM_EFFECTIVE_ROTOR_COUNT>
1

> <PUBCHEM_PHARMACOPHORE_FEATURES>
2
1 4 acceptor
6 5 6 7 8 9 10 rings

> <PUBCHEM_HEAVY_ATOM_COUNT>
11

> <PUBCHEM_ATOM_DEF_STEREO_COUNT>
0

> <PUBCHEM_ATOM_UDEF_STEREO_COUNT>
0

> <PUBCHEM_BOND_DEF_STEREO_COUNT>
0

> <PUBCHEM_BOND_UDEF_STEREO_COUNT>
0

> <PUBCHEM_ISOTOPIC_ATOM_COUNT>
0

> <PUBCHEM_COMPONENT_COUNT>
1

> <PUBCHEM_CACTVS_TAUTO_COUNT>
1

> <PUBCHEM_CONFORMER_ID>
00001AE400000001

> <PUBCHEM_MMFF94_ENERGY>
33.5683

> <PUBCHEM_FEATURE_SELFOVERLAP>
10.148

> <PUBCHEM_SHAPE_FINGERPRINT>
10219947 1 18411138038990588939
12423570 1 16908365992038157573
13380536 305 18338504232135201789
14993402 34 18411416176967770652
161256 15 18119523490692662390
16945 1 18410569587421425237
193761 8 17690279730265635476
20511035 2 17913479151953383823
20588541 1 18342168986195339751
21040471 1 18338230565382511998
21501502 16 18050006588900824349
2334 1 17978227154251390127
23402655 69 18193574465922857045
23463225 33 18342461482116186842
23552423 10 17767124198604690108
241688 4 17907287007408401689
2748010 2 18122342655796574773
5084963 1 18041273279536443521
528862 383 18127412250293362640
53812653 166 18334018315025248153

> <PUBCHEM_SHAPE_MULTIPOLES>
226.11
3.93
2.62
0.72
2.03
0
0.06
0
0.89
-1.22
-0.37
-0.18
0
0

> <PUBCHEM_SHAPE_SELFOVERLAP>
442.032

> <PUBCHEM_SHAPE_VOLUME>
140

> <PUBCHEM_COORDINATE_TYPE>
2
5
10

$$$$

