17395380
  -OEChem-06241222493D

 45 47  0     1  0  0  0  0  0999 V2000
   -0.1604    0.2728   -0.1027 O   0  0  0  0  0  0  0  0  0  0  0  0
    2.1382   -0.9234    0.5024 O   0  0  0  0  0  0  0  0  0  0  0  0
   -1.2441    1.2532   -1.8813 O   0  0  0  0  0  0  0  0  0  0  0  0
    6.9015    0.2253   -0.2527 O   0  0  0  0  0  0  0  0  0  0  0  0
    3.4360    0.8168   -0.3941 N   0  0  0  0  0  0  0  0  0  0  0  0
   -4.5012   -1.9478    0.2803 N   0  0  0  0  0  0  0  0  0  0  0  0
    5.8239    1.0318   -0.5979 N   0  0  0  0  0  0  0  0  0  0  0  0
    1.0304    1.0048   -0.4124 C   0  0  1  0  0  0  0  0  0  0  0  0
    0.9936    2.3570    0.3068 C   0  0  0  0  0  0  0  0  0  0  0  0
   -2.3850   -0.3165   -0.4957 C   0  0  0  0  0  0  0  0  0  0  0  0
   -3.6069    0.2547   -0.1153 C   0  0  0  0  0  0  0  0  0  0  0  0
    2.2568    0.1747   -0.0340 C   0  0  0  0  0  0  0  0  0  0  0  0
   -4.6525   -0.6099    0.2707 C   0  0  0  0  0  0  0  0  0  0  0  0
   -1.2383    0.4835   -0.9152 C   0  0  0  0  0  0  0  0  0  0  0  0
    0.9584    2.2415    1.8267 C   0  0  0  0  0  0  0  0  0  0  0  0
   -2.2261   -1.6947   -0.4869 C   0  0  0  0  0  0  0  0  0  0  0  0
   -3.3059   -2.4590   -0.0940 C   0  0  0  0  0  0  0  0  0  0  0  0
   -3.7998    1.6466   -0.1135 C   0  0  0  0  0  0  0  0  0  0  0  0
   -5.8661   -0.0420    0.6485 C   0  0  0  0  0  0  0  0  0  0  0  0
   -5.0240    2.1875    0.2690 C   0  0  0  0  0  0  0  0  0  0  0  0
    4.7425    0.3443   -0.2199 C   0  0  0  0  0  0  0  0  0  0  0  0
   -6.0582    1.3418    0.6503 C   0  0  0  0  0  0  0  0  0  0  0  0
   -3.1807   -3.9457   -0.0701 C   0  0  0  0  0  0  0  0  0  0  0  0
    5.0726   -0.8909    0.3640 C   0  0  0  0  0  0  0  0  0  0  0  0
    6.4415   -0.9168    0.3191 C   0  0  0  0  0  0  0  0  0  0  0  0
    7.4538   -1.8899    0.7476 C   0  0  0  0  0  0  0  0  0  0  0  0
    1.0997    1.1690   -1.4963 H   0  0  0  0  0  0  0  0  0  0  0  0
    0.0963    2.9055   -0.0049 H   0  0  0  0  0  0  0  0  0  0  0  0
    1.8524    2.9744    0.0218 H   0  0  0  0  0  0  0  0  0  0  0  0
    0.0891    1.6675    2.1621 H   0  0  0  0  0  0  0  0  0  0  0  0
    1.8614    1.7589    2.2128 H   0  0  0  0  0  0  0  0  0  0  0  0
    0.8952    3.2379    2.2760 H   0  0  0  0  0  0  0  0  0  0  0  0
   -1.2908   -2.1606   -0.7817 H   0  0  0  0  0  0  0  0  0  0  0  0
   -3.0109    2.3390   -0.3939 H   0  0  0  0  0  0  0  0  0  0  0  0
    3.3859    1.7220   -0.8532 H   0  0  0  0  0  0  0  0  0  0  0  0
   -6.6920   -0.6828    0.9518 H   0  0  0  0  0  0  0  0  0  0  0  0
   -5.1689    3.2635    0.2719 H   0  0  0  0  0  0  0  0  0  0  0  0
   -7.0165    1.7552    0.9509 H   0  0  0  0  0  0  0  0  0  0  0  0
   -2.9515   -4.3248   -1.0710 H   0  0  0  0  0  0  0  0  0  0  0  0
   -4.1131   -4.4139    0.2626 H   0  0  0  0  0  0  0  0  0  0  0  0
   -2.3862   -4.2499    0.6187 H   0  0  0  0  0  0  0  0  0  0  0  0
    4.4408   -1.6677    0.7663 H   0  0  0  0  0  0  0  0  0  0  0  0
    8.0562   -2.2190   -0.1046 H   0  0  0  0  0  0  0  0  0  0  0  0
    8.1230   -1.4468    1.4915 H   0  0  0  0  0  0  0  0  0  0  0  0
    6.9881   -2.7737    1.1948 H   0  0  0  0  0  0  0  0  0  0  0  0
  1  8  1  0  0  0  0
  1 14  1  0  0  0  0
  2 12  2  0  0  0  0
  3 14  2  0  0  0  0
  4  7  1  0  0  0  0
  4 25  1  0  0  0  0
  5 12  1  0  0  0  0
  5 21  1  0  0  0  0
  5 35  1  0  0  0  0
  6 13  1  0  0  0  0
  6 17  2  0  0  0  0
  7 21  2  0  0  0  0
  8  9  1  0  0  0  0
  8 12  1  0  0  0  0
  8 27  1  0  0  0  0
  9 15  1  0  0  0  0
  9 28  1  0  0  0  0
  9 29  1  0  0  0  0
 10 11  1  0  0  0  0
 10 14  1  0  0  0  0
 10 16  2  0  0  0  0
 11 13  1  0  0  0  0
 11 18  2  0  0  0  0
 13 19  2  0  0  0  0
 15 30  1  0  0  0  0
 15 31  1  0  0  0  0
 15 32  1  0  0  0  0
 16 17  1  0  0  0  0
 16 33  1  0  0  0  0
 17 23  1  0  0  0  0
 18 20  1  0  0  0  0
 18 34  1  0  0  0  0
 19 22  1  0  0  0  0
 19 36  1  0  0  0  0
 20 22  2  0  0  0  0
 20 37  1  0  0  0  0
 21 24  1  0  0  0  0
 22 38  1  0  0  0  0
 23 39  1  0  0  0  0
 23 40  1  0  0  0  0
 23 41  1  0  0  0  0
 24 25  2  0  0  0  0
 24 42  1  0  0  0  0
 25 26  1  0  0  0  0
 26 43  1  0  0  0  0
 26 44  1  0  0  0  0
 26 45  1  0  0  0  0
M  END
> <PUBCHEM_COMPOUND_CID>
17395380

> <PUBCHEM_CONFORMER_RMSD>
0.8

> <PUBCHEM_CONFORMER_DIVERSEORDER>
1
202
45
118
175
237
293
159
33
4
292
187
270
155
127
169
311
156
119
103
280
39
254
282
236
121
137
304
248
93
226
291
48
54
274
210
297
67
206
209
256
255
109
15
269
99
167
150
94
290
203
315
260
190
232
234
115
53
87
84
72
83
101
249
70
108
200
235
49
78
296
284
75
238
298
185
134
312
253
55
133
272
192
218
277
307
20
275
120
201
271
213
154
207
265
168
183
184
95
165
117
123
104
28
224
195
96
131
219
58
268
283
142
266
211
208
250
197
141
114
230
301
7
153
182
267
177
14
63
157
176
214
221
116
92
171
21
56
227
229
242
145
158
122
295
71
138
222
191
241
194
59
97
23
173
261
129
228
244
52
147
16
310
252
37
199
273
40
5
216
10
276
220
62
65
308
36
50
231
223
30
170
126
2
51
166
264
288
161
105
152
189
196
285
6
300
135
136
279
69
258
245
246
86
278
143
76
251
42
198
112
41
125
124
74
3
43
140
180
132
61
64
179
317
68
215
316
46
281
239
309
306
38
80
162
29
82
100
113
27
110
151
44
299
24
243
313
66
144
212
12
257
287
89
181
31
139
164
90
111
217
294
160
193
240
314
13
35
25
225
60
130
186
32
262
205
9
286
107
57
318
18
102
233
106
247
85
77
91
17
172
289
11
88
259
149
19
34
47
148
73
303
146
302
163
188
305
98
174
178
22
81
8
128
204
263
26
79

> <PUBCHEM_MMFF94_PARTIAL_CHARGES>
30
1 -0.43
10 0.09
12 0.57
13 0.31
14 0.63
16 -0.15
17 0.17
18 -0.15
19 -0.15
2 -0.57
20 -0.15
21 0.35
22 -0.15
23 0.14
24 -0.15
25 -0.04
26 0.18
3 -0.57
33 0.15
34 0.15
35 0.37
36 0.15
37 0.15
38 0.15
4 -0.02
42 0.15
5 -0.49
6 -0.62
7 -0.41
8 0.34

> <PUBCHEM_EFFECTIVE_ROTOR_COUNT>
7

> <PUBCHEM_PHARMACOPHORE_FEATURES>
8
1 15 hydrophobe
1 2 acceptor
1 3 acceptor
1 5 donor
1 6 acceptor
5 4 7 21 24 25 rings
6 11 13 18 19 20 22 rings
6 6 10 11 13 16 17 rings

> <PUBCHEM_HEAVY_ATOM_COUNT>
26

> <PUBCHEM_ATOM_DEF_STEREO_COUNT>
0

> <PUBCHEM_ATOM_UDEF_STEREO_COUNT>
1

> <PUBCHEM_BOND_DEF_STEREO_COUNT>
0

> <PUBCHEM_BOND_UDEF_STEREO_COUNT>
0

> <PUBCHEM_ISOTOPIC_ATOM_COUNT>
0

> <PUBCHEM_COMPONENT_COUNT>
1

> <PUBCHEM_CACTVS_TAUTO_COUNT>
3

> <PUBCHEM_CONFORMER_ID>
01096EB400000001

> <PUBCHEM_MMFF94_ENERGY>
61.4753

> <PUBCHEM_FEATURE_SELFOVERLAP>
40.626

> <PUBCHEM_SHAPE_FINGERPRINT>
10299344 5 18273492386539757998
10319926 262 18261963955097642411
10591671 39 10303806609998346736
10595046 47 18198338455909703876
10940486 97 18269550559633398221
11315181 36 18343581820214447989
11387372 6 17774995753226221699
11405975 8 18335422305464204441
11456790 92 17968083215394322849
11524674 6 17749111097149270303
11578080 2 5399702064276488139
11796584 16 18407757041363250022
12107183 9 18411694413687242353
12166972 35 17917989499934817044
12236239 1 18343299275885852068
12516196 113 17749390373376635008
12616971 3 17489582342669441134
12633257 1 18260258625917283841
12788726 201 17605274175703955409
14251764 18 18410008836781455293
14420673 8 18411135848536604163
14856354 85 18408317774485487621
14866123 147 18411981326377665763
15021287 119 17560793346971821205
15183329 4 18131077043240289154
15348495 7 18187371978457828536
15537594 2 17775009002535152050
16110190 28 18413389856005749070
17492 89 17980478967288003179
17780758 139 18409731750950097749
1813 80 16916778613247808711
21033648 29 15719391775807491891
21150785 3 11023815189872515234
21315763 191 18341895178004278142
21403212 168 18337670927782513457
220451 1 18202562878615650254
22950370 63 18342176640048626996
23035841 295 18342177791205311810
23516275 137 18127391561810978146
23522609 53 17986926666429299820
23559900 14 18265341607964250985
3004659 81 18341608231661108590
335352 9 18409449177010554749
4073 2 18058725794041037458
4214541 1 18410292493395992901
4409770 3 18129110098653970557
5104073 3 18115585941884705712
5486654 36 18342174415150170115
559249 180 18410857668142518951
6328613 192 18409726248891958313
6371380 46 18334020510022769657
7226269 152 17967249836434624057
999808 66 17846204541356014771

> <PUBCHEM_SHAPE_MULTIPOLES>
496.65
18
2.97
1
25.3
2.09
-0.01
3.69
-3.08
-3.21
-0.46
0.04
-0.42
-0.72

> <PUBCHEM_SHAPE_SELFOVERLAP>
1071.306

> <PUBCHEM_SHAPE_VOLUME>
272.6

> <PUBCHEM_COORDINATE_TYPE>
2
5
10

$$$$

