6326658
  -OEChem-07051212583D

 70 74  0     1  0  0  0  0  0999 V2000
    1.2954    3.1835   -1.9927 O   0  0  0  0  0  0  0  0  0  0  0  0
    3.7078    2.0062    0.4547 O   0  0  0  0  0  0  0  0  0  0  0  0
   -0.6649    2.7507    0.3581 O   0  0  0  0  0  0  0  0  0  0  0  0
    0.7121   -1.9934    0.0814 O   0  0  0  0  0  0  0  0  0  0  0  0
   -2.0536    1.3945    1.6128 O   0  0  0  0  0  0  0  0  0  0  0  0
    0.1651   -3.1628    1.9881 O   0  0  0  0  0  0  0  0  0  0  0  0
   -0.9044   -5.1445    0.6272 O   0  0  0  0  0  0  0  0  0  0  0  0
   -4.6065   -1.3319   -0.0639 O   0  0  0  0  0  0  0  0  0  0  0  0
   -3.7064    0.5088   -1.1311 O   0  0  0  0  0  0  0  0  0  0  0  0
    1.1117    1.2014   -0.4651 C   0  0  1  0  0  0  0  0  0  0  0  0
    1.9709    2.2673   -1.1177 C   0  0  2  0  0  0  0  0  0  0  0  0
    2.1301    0.0696    0.0545 C   0  0  2  0  0  0  0  0  0  0  0  0
    2.7018    2.9160    0.0017 C   0  0  1  0  0  0  0  0  0  0  0  0
    0.5382    2.0451    0.7481 C   0  0  1  0  0  0  0  0  0  0  0  0
    2.3420    2.3933   -2.5750 C   0  0  0  0  0  0  0  0  0  0  0  0
    1.6055    3.1296    1.0547 C   0  0  0  0  0  0  0  0  0  0  0  0
    3.2267    0.7493    0.9662 C   0  0  1  0  0  0  0  0  0  0  0  0
    0.0040    0.6656   -1.3744 C   0  0  0  0  0  0  0  0  0  0  0  0
    2.8772   -0.6175   -1.1324 C   0  0  0  0  0  0  0  0  0  0  0  0
    1.3962   -1.0256    0.9019 C   0  0  0  0  0  0  0  0  0  0  0  0
    4.4577   -0.0926    1.1861 C   0  0  0  0  0  0  0  0  0  0  0  0
    3.9169   -1.6517   -0.6802 C   0  0  0  0  0  0  0  0  0  0  0  0
    4.7714   -1.1819    0.4657 C   0  0  0  0  0  0  0  0  0  0  0  0
   -1.8604    2.3214    0.8451 C   0  0  0  0  0  0  0  0  0  0  0  0
    5.9920   -2.0028    0.7598 C   0  0  0  0  0  0  0  0  0  0  0  0
    0.1522   -3.0332    0.7688 C   0  0  0  0  0  0  0  0  0  0  0  0
   -2.9013    3.1978    0.2544 C   0  0  0  0  0  0  0  0  0  0  0  0
   -0.4676   -4.0494   -0.1790 C   0  0  2  0  0  0  0  0  0  0  0  0
   -1.6554   -3.5436   -1.0257 C   0  0  1  0  0  0  0  0  0  0  0  0
   -4.2267    3.0448    0.3836 C   0  0  0  0  0  0  0  0  0  0  0  0
   -2.5702   -2.5989   -0.2235 C   0  0  0  0  0  0  0  0  0  0  0  0
   -1.1684   -2.9183   -2.3342 C   0  0  0  0  0  0  0  0  0  0  0  0
   -4.9691    2.0324    1.0957 C   0  0  0  0  0  0  0  0  0  0  0  0
   -3.8843   -2.2450   -0.9151 C   0  0  0  0  0  0  0  0  0  0  0  0
   -5.0615    0.7179    0.8497 C   0  0  0  0  0  0  0  0  0  0  0  0
   -4.3745   -0.0023   -0.2481 C   0  0  0  0  0  0  0  0  0  0  0  0
    3.1895    3.8561   -0.2730 H   0  0  0  0  0  0  0  0  0  0  0  0
    0.3458    1.4512    1.6439 H   0  0  0  0  0  0  0  0  0  0  0  0
    3.2674    2.8952   -2.8270 H   0  0  0  0  0  0  0  0  0  0  0  0
    2.0512    1.6118   -3.2639 H   0  0  0  0  0  0  0  0  0  0  0  0
    1.1722    4.1315    0.9496 H   0  0  0  0  0  0  0  0  0  0  0  0
    1.9940    3.0359    2.0738 H   0  0  0  0  0  0  0  0  0  0  0  0
    2.8003    0.9325    1.9605 H   0  0  0  0  0  0  0  0  0  0  0  0
   -0.6748    0.0125   -0.8224 H   0  0  0  0  0  0  0  0  0  0  0  0
   -0.6044    1.4690   -1.8042 H   0  0  0  0  0  0  0  0  0  0  0  0
    0.4068    0.1109   -2.2254 H   0  0  0  0  0  0  0  0  0  0  0  0
    3.4111    0.1327   -1.7259 H   0  0  0  0  0  0  0  0  0  0  0  0
    2.1784   -1.1078   -1.8184 H   0  0  0  0  0  0  0  0  0  0  0  0
    2.1176   -1.5689    1.5239 H   0  0  0  0  0  0  0  0  0  0  0  0
    0.6665   -0.5791    1.5827 H   0  0  0  0  0  0  0  0  0  0  0  0
    5.1137    0.2200    1.9955 H   0  0  0  0  0  0  0  0  0  0  0  0
    4.5549   -1.8903   -1.5402 H   0  0  0  0  0  0  0  0  0  0  0  0
    3.4182   -2.5846   -0.3917 H   0  0  0  0  0  0  0  0  0  0  0  0
    6.5559   -1.6140    1.6142 H   0  0  0  0  0  0  0  0  0  0  0  0
    6.6621   -2.0113   -0.1059 H   0  0  0  0  0  0  0  0  0  0  0  0
    5.7077   -3.0346    0.9901 H   0  0  0  0  0  0  0  0  0  0  0  0
   -2.5430    4.0492   -0.3207 H   0  0  0  0  0  0  0  0  0  0  0  0
    0.3311   -4.4486   -0.8135 H   0  0  0  0  0  0  0  0  0  0  0  0
   -2.2582   -4.4208   -1.2999 H   0  0  0  0  0  0  0  0  0  0  0  0
   -4.8593    3.8108   -0.0630 H   0  0  0  0  0  0  0  0  0  0  0  0
   -1.6342   -4.8370    1.1906 H   0  0  0  0  0  0  0  0  0  0  0  0
   -2.0401   -1.6698    0.0151 H   0  0  0  0  0  0  0  0  0  0  0  0
   -2.8146   -3.0469    0.7481 H   0  0  0  0  0  0  0  0  0  0  0  0
   -0.6202   -1.9918   -2.1628 H   0  0  0  0  0  0  0  0  0  0  0  0
   -0.5044   -3.6068   -2.8682 H   0  0  0  0  0  0  0  0  0  0  0  0
   -2.0031   -2.6971   -3.0057 H   0  0  0  0  0  0  0  0  0  0  0  0
   -5.5766    2.4294    1.9078 H   0  0  0  0  0  0  0  0  0  0  0  0
   -3.7377   -1.8067   -1.9069 H   0  0  0  0  0  0  0  0  0  0  0  0
   -4.5054   -3.1384   -1.0360 H   0  0  0  0  0  0  0  0  0  0  0  0
   -5.6985    0.1199    1.4975 H   0  0  0  0  0  0  0  0  0  0  0  0
  1 11  1  0  0  0  0
  1 15  1  0  0  0  0
  2 13  1  0  0  0  0
  2 17  1  0  0  0  0
  3 14  1  0  0  0  0
  3 24  1  0  0  0  0
  4 20  1  0  0  0  0
  4 26  1  0  0  0  0
  5 24  2  0  0  0  0
  6 26  2  0  0  0  0
  7 28  1  0  0  0  0
  7 61  1  0  0  0  0
  8 34  1  0  0  0  0
  8 36  1  0  0  0  0
  9 36  2  0  0  0  0
 10 11  1  0  0  0  0
 10 12  1  0  0  0  0
 10 14  1  0  0  0  0
 10 18  1  0  0  0  0
 11 13  1  0  0  0  0
 11 15  1  0  0  0  0
 12 17  1  0  0  0  0
 12 19  1  0  0  0  0
 12 20  1  0  0  0  0
 13 16  1  0  0  0  0
 13 37  1  0  0  0  0
 14 16  1  0  0  0  0
 14 38  1  0  0  0  0
 15 39  1  0  0  0  0
 15 40  1  0  0  0  0
 16 41  1  0  0  0  0
 16 42  1  0  0  0  0
 17 21  1  0  0  0  0
 17 43  1  0  0  0  0
 18 44  1  0  0  0  0
 18 45  1  0  0  0  0
 18 46  1  0  0  0  0
 19 22  1  0  0  0  0
 19 47  1  0  0  0  0
 19 48  1  0  0  0  0
 20 49  1  0  0  0  0
 20 50  1  0  0  0  0
 21 23  2  0  0  0  0
 21 51  1  0  0  0  0
 22 23  1  0  0  0  0
 22 52  1  0  0  0  0
 22 53  1  0  0  0  0
 23 25  1  0  0  0  0
 24 27  1  0  0  0  0
 25 54  1  0  0  0  0
 25 55  1  0  0  0  0
 25 56  1  0  0  0  0
 26 28  1  0  0  0  0
 27 30  2  0  0  0  0
 27 57  1  0  0  0  0
 28 29  1  0  0  0  0
 28 58  1  0  0  0  0
 29 31  1  0  0  0  0
 29 32  1  0  0  0  0
 29 59  1  0  0  0  0
 30 33  1  0  0  0  0
 30 60  1  0  0  0  0
 31 34  1  0  0  0  0
 31 62  1  0  0  0  0
 31 63  1  0  0  0  0
 32 64  1  0  0  0  0
 32 65  1  0  0  0  0
 32 66  1  0  0  0  0
 33 35  2  0  0  0  0
 33 67  1  0  0  0  0
 34 68  1  0  0  0  0
 34 69  1  0  0  0  0
 35 36  1  0  0  0  0
 35 70  1  0  0  0  0
M  END
> <PUBCHEM_COMPOUND_CID>
6326658

> <PUBCHEM_CONFORMER_RMSD>
0.8

> <PUBCHEM_CONFORMER_DIVERSEORDER>
1

> <PUBCHEM_MMFF94_PARTIAL_CHARGES>
37
1 -0.3
10 0.09
11 -0.04
13 0.38
14 0.28
15 -0.05
17 0.42
2 -0.56
20 0.28
21 -0.29
22 0.14
23 -0.28
24 0.71
25 0.14
26 0.66
27 -0.14
28 0.34
3 -0.43
30 -0.15
33 -0.15
34 0.28
35 -0.14
36 0.71
39 0.1
4 -0.43
40 0.1
5 -0.57
51 0.15
57 0.15
6 -0.57
60 0.15
61 0.4
67 0.15
7 -0.68
70 0.15
8 -0.43
9 -0.57

> <PUBCHEM_EFFECTIVE_ROTOR_COUNT>
2.8

> <PUBCHEM_PHARMACOPHORE_FEATURES>
9
1 1 acceptor
1 2 acceptor
1 5 acceptor
1 6 acceptor
1 7 acceptor
1 7 donor
1 9 acceptor
6 12 17 19 21 22 23 rings
8 2 10 11 12 13 14 16 17 rings

> <PUBCHEM_HEAVY_ATOM_COUNT>
36

> <PUBCHEM_ATOM_DEF_STEREO_COUNT>
8

> <PUBCHEM_ATOM_UDEF_STEREO_COUNT>
0

> <PUBCHEM_BOND_DEF_STEREO_COUNT>
2

> <PUBCHEM_BOND_UDEF_STEREO_COUNT>
0

> <PUBCHEM_ISOTOPIC_ATOM_COUNT>
0

> <PUBCHEM_COMPONENT_COUNT>
1

> <PUBCHEM_CACTVS_TAUTO_COUNT>
1

> <PUBCHEM_CONFORMER_ID>
0060898200000001

> <PUBCHEM_MMFF94_ENERGY>
113.9093

> <PUBCHEM_FEATURE_SELFOVERLAP>
45.687

> <PUBCHEM_SHAPE_FINGERPRINT>
10815517 723 18411989087229913166
1100329 8 18409732854530034514
11421498 54 17407101167825407964
11513181 2 17606412187804084583
11578080 2 16879368705376430674
12422481 6 18049739695412742602
12788726 201 18193270802015667501
12978246 48 18410854374086946561
13122387 1 18119247268961731207
13140716 1 18411135801676702563
14117953 113 17472426920576374517
14289585 56 17774730881964751484
144659 178 18410856516864956524
14725015 67 18335990800763808235
14863182 85 18121483915767189052
14866123 147 18337118972392170762
15001296 14 18412267220753677361
15274700 242 18057341663573777034
15297060 5 17822857614325552771
15420108 30 17903923601507892370
16112460 7 18260534624394214601
16114785 44 15369007901461113337
17818456 19 18336831879244367262
17974551 9 17969238749815910000
19311894 1 18335992995102148127
19591789 44 18121502624834699490
20028762 73 18261395601864703534
20642791 13 18336561417355100890
20764821 26 18338228255059592663
21796203 349 16243459966146227915
338550 245 18411975866962068205
392239 28 18114747164979161784
437795 70 18116695495732205870
460360 51 18198050392110425586
463206 1 18409443696236964609
5895379 119 18265051336588322678
9896288 288 17394451746726810472

> <PUBCHEM_SHAPE_MULTIPOLES>
688.04
9.73
5.99
1.7
1.77
3.92
-0.78
-0.93
2.28
2.31
-0.17
-0.49
-0.16
-2.04

> <PUBCHEM_SHAPE_SELFOVERLAP>
1465.379

> <PUBCHEM_SHAPE_VOLUME>
373.4

> <PUBCHEM_COORDINATE_TYPE>
2
5
10

$$$$

