17395474
  -OEChem-06241222503D

 37 37  0     1  0  0  0  0  0999 V2000
   -0.0688   -2.7489   -0.9251 O   0  0  0  0  0  0  0  0  0  0  0  0
    3.3593    2.4415    1.1226 O   0  5  0  0  0  0  0  0  0  0  0  0
    5.0881    1.6134    0.0470 O   0  0  0  0  0  0  0  0  0  0  0  0
   -0.9065   -1.0731    0.4040 N   0  0  0  0  0  0  0  0  0  0  0  0
    2.5202   -1.4620   -0.9702 N   0  0  0  0  0  0  0  0  0  0  0  0
    3.8824    1.5470    0.4061 N   0  3  0  0  0  0  0  0  0  0  0  0
   -3.2895   -0.5092    0.6238 C   0  0  0  0  0  0  0  0  0  0  0  0
   -3.2456    0.4973   -0.5344 C   0  0  0  0  0  0  0  0  0  0  0  0
   -2.2404   -1.6217    0.4766 C   0  0  2  0  0  0  0  0  0  0  0  0
   -4.3078    1.6074   -0.4200 C   0  0  0  0  0  0  0  0  0  0  0  0
   -2.3335   -2.6103    1.6350 C   0  0  0  0  0  0  0  0  0  0  0  0
   -4.0977    2.3948    0.8756 C   0  0  0  0  0  0  0  0  0  0  0  0
   -4.2848    2.5629   -1.6138 C   0  0  0  0  0  0  0  0  0  0  0  0
    0.1136   -1.6949   -0.3132 C   0  0  0  0  0  0  0  0  0  0  0  0
    1.4073   -0.9972   -0.3196 C   0  0  0  0  0  0  0  0  0  0  0  0
    1.7413    0.1913    0.2916 C   0  0  0  0  0  0  0  0  0  0  0  0
    3.1028    0.4500   -0.0022 C   0  0  0  0  0  0  0  0  0  0  0  0
    3.5594   -0.5882   -0.7838 C   0  0  0  0  0  0  0  0  0  0  0  0
   -4.2907   -0.9537    0.6801 H   0  0  0  0  0  0  0  0  0  0  0  0
   -3.1100    0.0059    1.5741 H   0  0  0  0  0  0  0  0  0  0  0  0
   -3.3978   -0.0419   -1.4780 H   0  0  0  0  0  0  0  0  0  0  0  0
   -2.2528    0.9597   -0.5955 H   0  0  0  0  0  0  0  0  0  0  0  0
   -2.4414   -2.1673   -0.4536 H   0  0  0  0  0  0  0  0  0  0  0  0
   -5.3009    1.1421   -0.3833 H   0  0  0  0  0  0  0  0  0  0  0  0
   -1.6129   -3.4265    1.5141 H   0  0  0  0  0  0  0  0  0  0  0  0
   -3.3340   -3.0512    1.6935 H   0  0  0  0  0  0  0  0  0  0  0  0
   -2.1188   -2.1218    2.5921 H   0  0  0  0  0  0  0  0  0  0  0  0
   -3.0693    2.7621    0.9601 H   0  0  0  0  0  0  0  0  0  0  0  0
   -4.3249    1.7913    1.7592 H   0  0  0  0  0  0  0  0  0  0  0  0
   -4.7658    3.2627    0.9116 H   0  0  0  0  0  0  0  0  0  0  0  0
   -3.3212    3.0781   -1.6903 H   0  0  0  0  0  0  0  0  0  0  0  0
   -5.0703    3.3206   -1.5244 H   0  0  0  0  0  0  0  0  0  0  0  0
   -4.4512    2.0162   -2.5478 H   0  0  0  0  0  0  0  0  0  0  0  0
   -0.7171   -0.2344    0.9424 H   0  0  0  0  0  0  0  0  0  0  0  0
    1.0890    0.8165    0.8859 H   0  0  0  0  0  0  0  0  0  0  0  0
    2.5694   -2.3179   -1.5058 H   0  0  0  0  0  0  0  0  0  0  0  0
    4.5249   -0.7917   -1.2270 H   0  0  0  0  0  0  0  0  0  0  0  0
  1 14  2  0  0  0  0
  2  6  1  0  0  0  0
  3  6  2  0  0  0  0
  4  9  1  0  0  0  0
  4 14  1  0  0  0  0
  4 34  1  0  0  0  0
  5 15  1  0  0  0  0
  5 18  1  0  0  0  0
  5 36  1  0  0  0  0
  6 17  1  0  0  0  0
  7  8  1  0  0  0  0
  7  9  1  0  0  0  0
  7 19  1  0  0  0  0
  7 20  1  0  0  0  0
  8 10  1  0  0  0  0
  8 21  1  0  0  0  0
  8 22  1  0  0  0  0
  9 11  1  0  0  0  0
  9 23  1  0  0  0  0
 10 12  1  0  0  0  0
 10 13  1  0  0  0  0
 10 24  1  0  0  0  0
 11 25  1  0  0  0  0
 11 26  1  0  0  0  0
 11 27  1  0  0  0  0
 12 28  1  0  0  0  0
 12 29  1  0  0  0  0
 12 30  1  0  0  0  0
 13 31  1  0  0  0  0
 13 32  1  0  0  0  0
 13 33  1  0  0  0  0
 14 15  1  0  0  0  0
 15 16  2  0  0  0  0
 16 17  1  0  0  0  0
 16 35  1  0  0  0  0
 17 18  2  0  0  0  0
 18 37  1  0  0  0  0
M  CHG  2   2  -1   6   1
M  END
> <PUBCHEM_COMPOUND_CID>
17395474

> <PUBCHEM_CONFORMER_RMSD>
0.8

> <PUBCHEM_CONFORMER_DIVERSEORDER>
1
17
48
47
15
3
11
23
24
41
16
54
7
22
53
49
27
25
20
38
6
8
19
29
40
14
31
45
44
26
50
33
30
10
42
43
4
52
21
5
12
35
28
46
39
2
36
13
9
34
51
32
18
37

> <PUBCHEM_MMFF94_PARTIAL_CHARGES>
16
1 -0.57
14 0.71
15 -0.24
16 -0.15
17 0.08
18 -0.3
2 -0.52
3 -0.52
34 0.37
35 0.15
36 0.27
37 0.15
4 -0.73
5 0.03
6 0.96
9 0.3

> <PUBCHEM_EFFECTIVE_ROTOR_COUNT>
7

> <PUBCHEM_PHARMACOPHORE_FEATURES>
9
1 1 acceptor
1 2 acceptor
1 2 anion
1 3 acceptor
1 4 donor
1 5 cation
1 5 donor
3 10 12 13 hydrophobe
5 5 15 16 17 18 rings

> <PUBCHEM_HEAVY_ATOM_COUNT>
18

> <PUBCHEM_ATOM_DEF_STEREO_COUNT>
0

> <PUBCHEM_ATOM_UDEF_STEREO_COUNT>
1

> <PUBCHEM_BOND_DEF_STEREO_COUNT>
0

> <PUBCHEM_BOND_UDEF_STEREO_COUNT>
0

> <PUBCHEM_ISOTOPIC_ATOM_COUNT>
0

> <PUBCHEM_COMPONENT_COUNT>
1

> <PUBCHEM_CACTVS_TAUTO_COUNT>
3

> <PUBCHEM_CONFORMER_ID>
01096F1200000001

> <PUBCHEM_MMFF94_ENERGY>
19.2556

> <PUBCHEM_FEATURE_SELFOVERLAP>
45.749

> <PUBCHEM_SHAPE_FINGERPRINT>
10498660 4 18341899653423822285
10608611 8 18409162195041790482
122479 349 18412826880266400903
12403259 415 18339067268251680495
12596602 18 15051148156726068821
13103583 49 13110678423578866621
14123255 352 18341617035647999357
14178342 30 17703504402706300035
14251710 61 9295290551282921165
14251764 38 18339360764620787333
14848178 96 18337113474622898665
14957384 54 18340220600214856904
1741750 31 18342737442481639587
17834072 32 18411135870343646001
18186145 218 17895459376287694318
20281475 54 9367339362440120667
20645477 56 18341039779427514483
20645477 70 17677038127413200510
21401589 2 18341890805833189601
21713013 43 7420955256993365330
22182937 141 18411691098198895177
23402655 69 17967533497322587860
23503958 25 18267286652248785118
23559900 14 18262235655088061138
27216 239 18339641127522371027
3187 122 17914333477273795721
4028521 119 18338518646530730813
633830 44 17024283362363715806
7808743 9 17988909064149707316
9981440 41 18411707577714577931

> <PUBCHEM_SHAPE_MULTIPOLES>
337.88
10.07
3.32
1.22
1.13
0.03
-0.01
-9.32
0.3
-1.79
-0.45
-0.67
-0.05
2.32

> <PUBCHEM_SHAPE_SELFOVERLAP>
678.698

> <PUBCHEM_SHAPE_VOLUME>
198.4

> <PUBCHEM_COORDINATE_TYPE>
2
5
10

$$$$

