25050
  -OEChem-07051213032D

 29 30  0     1  0  0  0  0  0999 V2000
    2.7510    0.0000    0.0000 Cl  0  0  0  0  0  0  0  0  0  0  0  0
    3.7883    4.7489    0.0000 O   0  0  0  0  0  0  0  0  0  0  0  0
    3.9787    7.2324    0.0000 O   0  0  0  0  0  0  0  0  0  0  0  0
    6.0420    6.0023    0.0000 O   0  0  0  0  0  0  0  0  0  0  0  0
    4.9634    3.0272    0.0000 O   0  0  0  0  0  0  0  0  0  0  0  0
    2.6697    6.2813    0.0000 N   0  0  0  0  0  0  0  0  0  0  0  0
    2.2937    8.0171    0.0000 N   0  0  0  0  0  0  0  0  0  0  0  0
    0.6069    8.5541    0.0000 N   0  0  0  0  0  0  0  0  0  0  0  0
    4.2877    6.2813    0.0000 C   0  0  2  0  0  0  0  0  0  0  0  0
    3.4787    5.6935    0.0000 C   0  0  1  0  0  0  0  0  0  0  0  0
    5.0904    5.6949    0.0000 C   0  0  1  0  0  0  0  0  0  0  0  0
    4.7824    4.7498    0.0000 C   0  0  1  0  0  0  0  0  0  0  0  0
    2.9787    7.2324    0.0000 C   0  0  0  0  0  0  0  0  0  0  0  0
    5.3702    3.9408    0.0000 C   0  0  0  0  0  0  0  0  0  0  0  0
    1.6543    6.0491    0.0000 C   0  0  0  0  0  0  0  0  0  0  0  0
    0.9513    6.8178    0.0000 C   0  0  0  0  0  0  0  0  0  0  0  0
    1.2732    7.8084    0.0000 C   0  0  0  0  0  0  0  0  0  0  0  0
    4.9760    6.7800    0.0000 H   0  0  0  0  0  0  0  0  0  0  0  0
    2.7917    5.1930    0.0000 H   0  0  0  0  0  0  0  0  0  0  0  0
    5.5282    5.2560    0.0000 H   0  0  0  0  0  0  0  0  0  0  0  0
    4.5012    4.1972    0.0000 H   0  0  0  0  0  0  0  0  0  0  0  0
    5.8842    3.5941    0.0000 H   0  0  0  0  0  0  0  0  0  0  0  0
    5.8009    4.3868    0.0000 H   0  0  0  0  0  0  0  0  0  0  0  0
    1.4695    5.4572    0.0000 H   0  0  0  0  0  0  0  0  0  0  0  0
    6.5020    5.5866    0.0000 H   0  0  0  0  0  0  0  0  0  0  0  0
    0.3454    6.6865    0.0000 H   0  0  0  0  0  0  0  0  0  0  0  0
    5.3279    2.5256    0.0000 H   0  0  0  0  0  0  0  0  0  0  0  0
    0.0000    8.4276    0.0000 H   0  0  0  0  0  0  0  0  0  0  0  0
    3.7510    0.0000    0.0000 H   0  0  0  0  0  0  0  0  0  0  0  0
  1 29  1  0  0  0  0
  2 10  1  0  0  0  0
  2 12  1  0  0  0  0
  3  9  1  0  0  0  0
  3 13  1  0  0  0  0
 11  4  1  6  0  0  0
  4 25  1  0  0  0  0
  5 14  1  0  0  0  0
  5 27  1  0  0  0  0
  6 10  1  0  0  0  0
  6 13  1  0  0  0  0
  6 15  1  0  0  0  0
  7 13  2  0  0  0  0
  7 17  1  0  0  0  0
  8 17  2  0  0  0  0
  8 28  1  0  0  0  0
  9 10  1  0  0  0  0
  9 11  1  0  0  0  0
  9 18  1  6  0  0  0
 10 19  1  6  0  0  0
 11 12  1  0  0  0  0
 11 20  1  0  0  0  0
 12 14  1  1  0  0  0
 12 21  1  0  0  0  0
 14 22  1  0  0  0  0
 14 23  1  0  0  0  0
 15 16  2  0  0  0  0
 15 24  1  0  0  0  0
 16 17  1  0  0  0  0
 16 26  1  0  0  0  0
M  END
> <PUBCHEM_COMPOUND_CID>
25050

> <PUBCHEM_COMPOUND_CANONICALIZED>
1

> <PUBCHEM_CACTVS_COMPLEXITY>
394

> <PUBCHEM_CACTVS_HBOND_ACCEPTOR>
5

> <PUBCHEM_CACTVS_HBOND_DONOR>
4

> <PUBCHEM_CACTVS_ROTATABLE_BOND>
1

> <PUBCHEM_CACTVS_SUBSKEYS>
AAADccBzOAAEAAAAAAAAAAAAAAAAAWJAAAAgAAAAAAAWAEAAAAAAHgAQCAAACBThgAYBAANABgCgACJmZACAAAGAAgAJAAAYABADEAIAiAAPQAAHAAATAADwMAIAAAAAAAAAAAAAAAAAAAAAAAAAAAAAAA==

> <PUBCHEM_IUPAC_OPENEYE_NAME>
(2R,3R,3aS,9aR)-2-(hydroxymethyl)-6-imino-2,3,3a,9a-tetrahydrofuro[1,2]oxazolo[3,4-a]pyrimidin-3-ol hydrochloride

> <PUBCHEM_IUPAC_CAS_NAME>
(2R,3R,3aS,9aR)-2-(hydroxymethyl)-6-imino-2,3,3a,9a-tetrahydrofuro[1,2]oxazolo[3,4-a]pyrimidin-3-ol hydrochloride

> <PUBCHEM_IUPAC_NAME>
(2R,3R,3aS,9aR)-2-(hydroxymethyl)-6-imino-2,3,3a,9a-tetrahydrofuro[1,2][1,3]oxazolo[3,4-a]pyrimidin-3-ol hydrochloride

> <PUBCHEM_IUPAC_SYSTEMATIC_NAME>
(2R,3R,3aS,9aR)-6-azanylidene-2-(hydroxymethyl)-2,3,3a,9a-tetrahydrofuro[1,2][1,3]oxazolo[3,4-a]pyrimidin-3-ol hydrochloride

> <PUBCHEM_IUPAC_TRADITIONAL_NAME>
(2R,3R,3aS,9aR)-6-imino-2-methylol-2,3,3a,9a-tetrahydrofuro[1,2]oxazolo[3,4-a]pyrimidin-3-ol hydrochloride

> <PUBCHEM_IUPAC_INCHI>
InChI=1S/C9H11N3O4.ClH/c10-5-1-2-12-8-7(16-9(12)11-5)6(14)4(3-13)15-8;/h1-2,4,6-8,10,13-14H,3H2;1H/t4-,6-,7+,8-;/m1./s1

> <PUBCHEM_IUPAC_INCHIKEY>
KZOWNALBTMILAP-JBMRGDGGSA-N

> <PUBCHEM_EXACT_MASS>
261.051634

> <PUBCHEM_MOLECULAR_FORMULA>
C9H12ClN3O4

> <PUBCHEM_MOLECULAR_WEIGHT>
261.66228

> <PUBCHEM_OPENEYE_CAN_SMILES>
C1=CN2C3C(C(C(O3)CO)O)OC2=NC1=N.Cl

> <PUBCHEM_OPENEYE_ISO_SMILES>
C1=CN2[C@H]3[C@H]([C@@H]([C@H](O3)CO)O)OC2=NC1=N.Cl

> <PUBCHEM_CACTVS_TPSA>
98.4

> <PUBCHEM_MONOISOTOPIC_WEIGHT>
261.051634

> <PUBCHEM_TOTAL_CHARGE>
0

> <PUBCHEM_HEAVY_ATOM_COUNT>
17

> <PUBCHEM_ATOM_DEF_STEREO_COUNT>
4

> <PUBCHEM_ATOM_UDEF_STEREO_COUNT>
0

> <PUBCHEM_BOND_DEF_STEREO_COUNT>
0

> <PUBCHEM_BOND_UDEF_STEREO_COUNT>
0

> <PUBCHEM_ISOTOPIC_ATOM_COUNT>
0

> <PUBCHEM_COMPONENT_COUNT>
2

> <PUBCHEM_CACTVS_TAUTO_COUNT>
1

> <PUBCHEM_COORDINATE_TYPE>
1
5
255

> <PUBCHEM_BONDANNOTATIONS>
10  19  6
12  14  5
15  16  8
16  17  8
11  4  6
6  13  8
6  15  8
7  13  8
7  17  8
9  18  6

$$$$

