442751
  -OEChem-07051212592D

 53 55  0     1  0  0  0  0  0999 V2000
    5.8615    0.7215    0.0000 O   0  0  0  0  0  0  0  0  0  0  0  0
    4.3664    0.5407    0.0000 O   0  0  0  0  0  0  0  0  0  0  0  0
    6.5427   -0.3687    0.0000 O   0  0  0  0  0  0  0  0  0  0  0  0
    5.9412   -2.7028    0.0000 O   0  0  0  0  0  0  0  0  0  0  0  0
    6.7327   -1.6897    0.0000 O   0  0  0  0  0  0  0  0  0  0  0  0
    8.0997    3.1895    0.0000 N   0  0  3  0  0  0  0  0  0  0  0  0
    8.0997    2.1895    0.0000 C   0  0  2  0  0  0  0  0  0  0  0  0
    7.1487    1.8805    0.0000 C   0  0  2  0  0  0  0  0  0  0  0  0
    9.0459    1.8848    0.0000 C   0  0  0  0  0  0  0  0  0  0  0  0
    6.5609    2.6895    0.0000 C   0  0  0  0  0  0  0  0  0  0  0  0
    7.1487    3.4985    0.0000 C   0  0  0  0  0  0  0  0  0  0  0  0
    9.0459    3.4942    0.0000 C   0  0  0  0  0  0  0  0  0  0  0  0
    9.6295    2.6895    0.0000 C   0  0  0  0  0  0  0  0  0  0  0  0
    6.8396    0.9294    0.0000 C   0  0  0  0  0  0  0  0  0  0  0  0
    5.5525   -0.2295    0.0000 C   0  0  0  0  0  0  0  0  0  0  0  0
    4.5743   -0.4374    0.0000 C   0  0  2  0  0  0  0  0  0  0  0  0
    3.5962   -0.6454    0.0000 C   0  0  0  0  0  0  0  0  0  0  0  0
    4.7822   -1.4156    0.0000 C   0  0  0  0  0  0  0  0  0  0  0  0
    3.2872   -1.5964    0.0000 C   0  0  0  0  0  0  0  0  0  0  0  0
    5.7333   -1.7246    0.0000 C   0  0  0  0  0  0  0  0  0  0  0  0
    2.3090   -1.8043    0.0000 C   0  0  0  0  0  0  0  0  0  0  0  0
    3.9563   -2.3396    0.0000 C   0  0  0  0  0  0  0  0  0  0  0  0
    2.0000   -2.7554    0.0000 C   0  0  0  0  0  0  0  0  0  0  0  0
    3.6473   -3.2906    0.0000 C   0  0  0  0  0  0  0  0  0  0  0  0
    2.6691   -3.4985    0.0000 C   0  0  0  0  0  0  0  0  0  0  0  0
    6.8923   -3.0118    0.0000 C   0  0  0  0  0  0  0  0  0  0  0  0
    8.1008    1.3395    0.0000 H   0  0  0  0  0  0  0  0  0  0  0  0
    6.5363    1.7835    0.0000 H   0  0  0  0  0  0  0  0  0  0  0  0
    8.7949    1.3179    0.0000 H   0  0  0  0  0  0  0  0  0  0  0  0
    9.5833    1.5756    0.0000 H   0  0  0  0  0  0  0  0  0  0  0  0
    6.1001    3.1044    0.0000 H   0  0  0  0  0  0  0  0  0  0  0  0
    6.1001    2.2746    0.0000 H   0  0  0  0  0  0  0  0  0  0  0  0
    7.4008    4.0649    0.0000 H   0  0  0  0  0  0  0  0  0  0  0  0
    6.6117    3.8085    0.0000 H   0  0  0  0  0  0  0  0  0  0  0  0
    9.5833    3.8035    0.0000 H   0  0  0  0  0  0  0  0  0  0  0  0
    8.7949    4.0611    0.0000 H   0  0  0  0  0  0  0  0  0  0  0  0
   10.0904    2.2748    0.0000 H   0  0  0  0  0  0  0  0  0  0  0  0
   10.0904    3.1042    0.0000 H   0  0  0  0  0  0  0  0  0  0  0  0
    6.8613    0.3098    0.0000 H   0  0  0  0  0  0  0  0  0  0  0  0
    7.4536    0.8431    0.0000 H   0  0  0  0  0  0  0  0  0  0  0  0
    3.5745   -0.0257    0.0000 H   0  0  0  0  0  0  0  0  0  0  0  0
    2.9822   -0.5591    0.0000 H   0  0  0  0  0  0  0  0  0  0  0  0
    4.1626   -1.4372    0.0000 H   0  0  0  0  0  0  0  0  0  0  0  0
    4.6960   -2.0296    0.0000 H   0  0  0  0  0  0  0  0  0  0  0  0
    3.7768    0.7323    0.0000 H   0  0  0  0  0  0  0  0  0  0  0  0
    1.8942   -1.3436    0.0000 H   0  0  0  0  0  0  0  0  0  0  0  0
    4.5628   -2.2106    0.0000 H   0  0  0  0  0  0  0  0  0  0  0  0
    1.3936   -2.8843    0.0000 H   0  0  0  0  0  0  0  0  0  0  0  0
    4.0621   -3.7514    0.0000 H   0  0  0  0  0  0  0  0  0  0  0  0
    2.4775   -4.0882    0.0000 H   0  0  0  0  0  0  0  0  0  0  0  0
    6.7007   -3.6014    0.0000 H   0  0  0  0  0  0  0  0  0  0  0  0
    7.4819   -3.2034    0.0000 H   0  0  0  0  0  0  0  0  0  0  0  0
    7.0839   -2.4221    0.0000 H   0  0  0  0  0  0  0  0  0  0  0  0
  1 14  1  0  0  0  0
  1 15  1  0  0  0  0
 16  2  1  1  0  0  0
  2 45  1  0  0  0  0
  3 15  2  0  0  0  0
  4 20  1  0  0  0  0
  4 26  1  0  0  0  0
  5 20  2  0  0  0  0
  6  7  1  0  0  0  0
  6 11  1  0  0  0  0
  6 12  1  0  0  0  0
  7  8  1  0  0  0  0
  7  9  1  0  0  0  0
  7 27  1  6  0  0  0
  8 10  1  0  0  0  0
  8 14  1  1  0  0  0
  8 28  1  0  0  0  0
  9 13  1  0  0  0  0
  9 29  1  0  0  0  0
  9 30  1  0  0  0  0
 10 11  1  0  0  0  0
 10 31  1  0  0  0  0
 10 32  1  0  0  0  0
 11 33  1  0  0  0  0
 11 34  1  0  0  0  0
 12 13  1  0  0  0  0
 12 35  1  0  0  0  0
 12 36  1  0  0  0  0
 13 37  1  0  0  0  0
 13 38  1  0  0  0  0
 14 39  1  0  0  0  0
 14 40  1  0  0  0  0
 15 16  1  0  0  0  0
 16 17  1  0  0  0  0
 16 18  1  0  0  0  0
 17 19  1  0  0  0  0
 17 41  1  0  0  0  0
 17 42  1  0  0  0  0
 18 20  1  0  0  0  0
 18 43  1  0  0  0  0
 18 44  1  0  0  0  0
 19 21  2  0  0  0  0
 19 22  1  0  0  0  0
 21 23  1  0  0  0  0
 21 46  1  0  0  0  0
 22 24  2  0  0  0  0
 22 47  1  0  0  0  0
 23 25  2  0  0  0  0
 23 48  1  0  0  0  0
 24 25  1  0  0  0  0
 24 49  1  0  0  0  0
 25 50  1  0  0  0  0
 26 51  1  0  0  0  0
 26 52  1  0  0  0  0
 26 53  1  0  0  0  0
M  END
> <PUBCHEM_COMPOUND_CID>
442751

> <PUBCHEM_COMPOUND_CANONICALIZED>
1

> <PUBCHEM_CACTVS_COMPLEXITY>
504

> <PUBCHEM_CACTVS_HBOND_ACCEPTOR>
6

> <PUBCHEM_CACTVS_HBOND_DONOR>
1

> <PUBCHEM_CACTVS_ROTATABLE_BOND>
9

> <PUBCHEM_CACTVS_SUBSKEYS>
AAADceB6OAAAAAAAAAAAAAAAAAAAAWLAAAAwAAAAAAAWAAABAAAAHgAACAAADWzhmAYyCIMABgCIAiDSCAICAAAgAAAIiAFIAIgJIDaAkRCGYAAn4AGLiAf7yPCOAAAAAAAAAAAAAAAAAAAAAAAAAAAAAA==

> <PUBCHEM_IUPAC_OPENEYE_NAME>
O1-[[(1S,8S)-2,3,5,6,7,8-hexahydro-1H-pyrrolizin-1-yl]methyl] O4-methyl (2R)-2-benzyl-2-hydroxy-butanedioate

> <PUBCHEM_IUPAC_CAS_NAME>
(2R)-2-hydroxy-2-(phenylmethyl)butanedioic acid O1-[[(1S,8S)-2,3,5,6,7,8-hexahydro-1H-pyrrolizin-1-yl]methyl] ester O4-methyl ester

> <PUBCHEM_IUPAC_NAME>
1-O-[[(1S,8S)-2,3,5,6,7,8-hexahydro-1H-pyrrolizin-1-yl]methyl] 4-O-methyl (2R)-2-benzyl-2-hydroxybutanedioate

> <PUBCHEM_IUPAC_SYSTEMATIC_NAME>
O1-[[(1S,8S)-2,3,5,6,7,8-hexahydro-1H-pyrrolizin-1-yl]methyl] O4-methyl (2R)-2-oxidanyl-2-(phenylmethyl)butanedioate

> <PUBCHEM_IUPAC_TRADITIONAL_NAME>
(2R)-2-benzyl-2-hydroxy-succinic acid O4-methyl ester O1-[[(1S,8S)-pyrrolizidin-1-yl]methyl] ester

> <PUBCHEM_IUPAC_INCHI>
InChI=1S/C20H27NO5/c1-25-18(22)13-20(24,12-15-6-3-2-4-7-15)19(23)26-14-16-9-11-21-10-5-8-17(16)21/h2-4,6-7,16-17,24H,5,8-14H2,1H3/t16-,17+,20-/m1/s1

> <PUBCHEM_IUPAC_INCHIKEY>
DGURJYWVIFRGSZ-FUHIMQAGSA-N

> <PUBCHEM_XLOGP3_AA>
2.1

> <PUBCHEM_EXACT_MASS>
361.188923

> <PUBCHEM_MOLECULAR_FORMULA>
C20H27NO5

> <PUBCHEM_MOLECULAR_WEIGHT>
361.43208

> <PUBCHEM_OPENEYE_CAN_SMILES>
COC(=O)CC(CC1=CC=CC=C1)(C(=O)OCC2CCN3C2CCC3)O

> <PUBCHEM_OPENEYE_ISO_SMILES>
COC(=O)C[C@](CC1=CC=CC=C1)(C(=O)OC[C@H]2CCN3[C@H]2CCC3)O

> <PUBCHEM_CACTVS_TPSA>
76.1

> <PUBCHEM_MONOISOTOPIC_WEIGHT>
361.188923

> <PUBCHEM_TOTAL_CHARGE>
0

> <PUBCHEM_HEAVY_ATOM_COUNT>
26

> <PUBCHEM_ATOM_DEF_STEREO_COUNT>
3

> <PUBCHEM_ATOM_UDEF_STEREO_COUNT>
0

> <PUBCHEM_BOND_DEF_STEREO_COUNT>
0

> <PUBCHEM_BOND_UDEF_STEREO_COUNT>
0

> <PUBCHEM_ISOTOPIC_ATOM_COUNT>
0

> <PUBCHEM_COMPONENT_COUNT>
1

> <PUBCHEM_CACTVS_TAUTO_COUNT>
1

> <PUBCHEM_COORDINATE_TYPE>
1
5
255

> <PUBCHEM_BONDANNOTATIONS>
19  21  8
19  22  8
16  2  5
21  23  8
22  24  8
23  25  8
24  25  8
7  27  6
8  14  5

$$$$

