586286
  -OEChem-06241222463D

 33 34  0     0  0  0  0  0  0999 V2000
    6.6965   -1.0935   -0.0641 S   0  0  0  0  0  0  0  0  0  0  0  0
   -5.3037    2.0336   -0.0156 F   0  0  0  0  0  0  0  0  0  0  0  0
   -3.8428    3.2093    1.0742 F   0  0  0  0  0  0  0  0  0  0  0  0
   -3.8169    3.1920   -1.1001 F   0  0  0  0  0  0  0  0  0  0  0  0
   -4.5922   -2.6075   -0.0093 F   0  0  0  0  0  0  0  0  0  0  0  0
   -2.8356   -3.2896   -1.0832 F   0  0  0  0  0  0  0  0  0  0  0  0
   -2.8372   -3.2690    1.0913 F   0  0  0  0  0  0  0  0  0  0  0  0
    1.4660   -1.6185    0.0219 O   0  0  0  0  0  0  0  0  0  0  0  0
    0.5785    0.5603    0.0148 N   0  0  0  0  0  0  0  0  0  0  0  0
   -3.0519    1.2260   -0.0035 C   0  0  0  0  0  0  0  0  0  0  0  0
   -2.6858   -1.1622   -0.0004 C   0  0  0  0  0  0  0  0  0  0  0  0
   -0.8006    0.3488    0.0079 C   0  0  0  0  0  0  0  0  0  0  0  0
   -3.5582   -0.0737   -0.0053 C   0  0  0  0  0  0  0  0  0  0  0  0
   -1.6731    1.4372    0.0030 C   0  0  0  0  0  0  0  0  0  0  0  0
   -1.3070   -0.9510    0.0062 C   0  0  0  0  0  0  0  0  0  0  0  0
   -3.9849    2.3896   -0.0090 C   0  0  0  0  0  0  0  0  0  0  0  0
   -3.2273   -2.5520   -0.0025 C   0  0  0  0  0  0  0  0  0  0  0  0
    1.5998   -0.4004    0.0205 C   0  0  0  0  0  0  0  0  0  0  0  0
    2.9550    0.2340    0.0269 C   0  0  0  0  0  0  0  0  0  0  0  0
    5.3882   -0.0076    0.0032 C   0  0  0  0  0  0  0  0  0  0  0  0
    4.0550   -0.5345    0.0154 C   0  0  0  0  0  0  0  0  0  0  0  0
    5.7711    1.3010    0.0401 C   0  0  0  0  0  0  0  0  0  0  0  0
    7.1901    1.4266    0.0122 C   0  0  0  0  0  0  0  0  0  0  0  0
    7.8169    0.2012   -0.0446 C   0  0  0  0  0  0  0  0  0  0  0  0
   -4.6323   -0.2385   -0.0105 H   0  0  0  0  0  0  0  0  0  0  0  0
   -1.2830    2.4526    0.0044 H   0  0  0  0  0  0  0  0  0  0  0  0
   -0.6882   -1.8375    0.0094 H   0  0  0  0  0  0  0  0  0  0  0  0
    0.8593    1.5388    0.0153 H   0  0  0  0  0  0  0  0  0  0  0  0
    2.9993    1.3174    0.0323 H   0  0  0  0  0  0  0  0  0  0  0  0
    3.9466   -1.6170    0.0056 H   0  0  0  0  0  0  0  0  0  0  0  0
    5.1039    2.1520    0.0860 H   0  0  0  0  0  0  0  0  0  0  0  0
    7.7241    2.3677    0.0330 H   0  0  0  0  0  0  0  0  0  0  0  0
    8.8793    0.0045   -0.0755 H   0  0  0  0  0  0  0  0  0  0  0  0
  1 20  1  0  0  0  0
  1 24  1  0  0  0  0
  2 16  1  0  0  0  0
  3 16  1  0  0  0  0
  4 16  1  0  0  0  0
  5 17  1  0  0  0  0
  6 17  1  0  0  0  0
  7 17  1  0  0  0  0
  8 18  2  0  0  0  0
  9 12  1  0  0  0  0
  9 18  1  0  0  0  0
  9 28  1  0  0  0  0
 10 13  2  0  0  0  0
 10 14  1  0  0  0  0
 10 16  1  0  0  0  0
 11 13  1  0  0  0  0
 11 15  2  0  0  0  0
 11 17  1  0  0  0  0
 12 14  2  0  0  0  0
 12 15  1  0  0  0  0
 13 25  1  0  0  0  0
 14 26  1  0  0  0  0
 15 27  1  0  0  0  0
 18 19  1  0  0  0  0
 19 21  2  0  0  0  0
 19 29  1  0  0  0  0
 20 21  1  0  0  0  0
 20 22  2  0  0  0  0
 21 30  1  0  0  0  0
 22 23  1  0  0  0  0
 22 31  1  0  0  0  0
 23 24  2  0  0  0  0
 23 32  1  0  0  0  0
 24 33  1  0  0  0  0
M  END
> <PUBCHEM_COMPOUND_CID>
586286

> <PUBCHEM_CONFORMER_RMSD>
0.8

> <PUBCHEM_CONFORMER_DIVERSEORDER>
1
4
6
3
5
2

> <PUBCHEM_MMFF94_PARTIAL_CHARGES>
33
1 -0.08
10 -0.14
11 -0.14
12 0.12
13 -0.15
14 -0.15
15 -0.15
16 1.16
17 1.16
18 0.62
19 -0.14
2 -0.34
20 -0.01
21 -0.11
22 -0.15
23 -0.15
24 -0.11
25 0.15
26 0.15
27 0.15
28 0.37
29 0.15
3 -0.34
30 0.15
31 0.15
32 0.15
33 0.15
4 -0.34
5 -0.34
6 -0.34
7 -0.34
8 -0.57
9 -0.55

> <PUBCHEM_EFFECTIVE_ROTOR_COUNT>
6

> <PUBCHEM_PHARMACOPHORE_FEATURES>
4
1 8 acceptor
1 9 donor
5 1 20 22 23 24 rings
6 10 11 12 13 14 15 rings

> <PUBCHEM_HEAVY_ATOM_COUNT>
24

> <PUBCHEM_ATOM_DEF_STEREO_COUNT>
0

> <PUBCHEM_ATOM_UDEF_STEREO_COUNT>
0

> <PUBCHEM_BOND_DEF_STEREO_COUNT>
0

> <PUBCHEM_BOND_UDEF_STEREO_COUNT>
1

> <PUBCHEM_ISOTOPIC_ATOM_COUNT>
0

> <PUBCHEM_COMPONENT_COUNT>
1

> <PUBCHEM_CACTVS_TAUTO_COUNT>
2

> <PUBCHEM_CONFORMER_ID>
0008F22E00000001

> <PUBCHEM_MMFF94_ENERGY>
45.1992

> <PUBCHEM_FEATURE_SELFOVERLAP>
20.297

> <PUBCHEM_SHAPE_FINGERPRINT>
10050765 1 18338797934963639810
10319926 262 18335434456448554594
10411042 1 18050286965052566887
10595046 47 18341613669063292302
10835480 77 18333455352909962072
10912923 1 17989214733389034250
11101153 10 18126281935587622420
11315181 36 17988362572916989654
11524674 6 16298661690337242534
11545043 162 18187650176543219472
12107183 9 18053955227773607642
12236239 1 18272652342787432794
12403259 415 17967821501208602056
12616971 3 16988552503611174900
12788726 201 18341342110987409211
13073987 5 18412829058690649786
13631057 29 18338238158943142443
14508225 48 18266471906196868253
14790565 3 17832420174200187801
14844126 61 18339921515904329387
14933364 13 18410008845714476044
15131766 46 14833548114014263151
1577012 14 18202562866232051188
15778101 99 18409445916724240344
16087824 20 18410857673576573087
17093844 174 18410015438188433056
17844677 252 18337103467886811928
17980427 23 17846208930807147622
18927931 339 18337386041789997462
19427546 20 18341615893444999223
20281389 69 18201438138186953788
21033648 29 17968110690004754648
21065198 48 18272658956784257682
21130935 74 18412270537239070122
21236236 1 18411138017684823770
21267235 1 18268708321042605515
21315763 129 18410573943051494052
21426921 1 18410012109298738359
220451 1 17917710236781627002
23081809 10 17918274239112617126
23402539 116 18272091574318851294
23559900 14 18336557001269052969
23569943 247 4750058943668760236
4073 2 18273208682791921986
4214541 1 18410573985621092448
484985 159 16845281688883879971
497634 4 18201443549565620254
5104073 3 18412550912286908546
5283173 99 18410293593245016696
531348 171 18334576850074743974
5969126 39 18261682454715449679
6327066 14 18198631123719361773
7495541 125 17895757288858107978

> <PUBCHEM_SHAPE_MULTIPOLES>
443.27
18.04
3.38
0.73
34.21
0.51
0
-4.42
0.17
-7.66
0.01
-0.39
0
0.06

> <PUBCHEM_SHAPE_SELFOVERLAP>
941.887

> <PUBCHEM_SHAPE_VOLUME>
250.8

> <PUBCHEM_COORDINATE_TYPE>
2
5
10

$$$$

