9543286
  -OEChem-07051213113D

 27 31  0     1  0  0  0  0  0999 V2000
    3.4932    0.6091   -0.8940 O   0  0  0  0  0  0  0  0  0  0  0  0
    2.7730    1.0360    0.2724 C   0  0  2  0  0  0  0  0  0  0  0  0
    3.3899   -0.3467    0.1723 C   0  0  1  0  0  0  0  0  0  0  0  0
    1.2730    1.1337    0.1694 C   0  0  0  0  0  0  0  0  0  0  0  0
    0.4815   -0.0344    0.1012 C   0  0  0  0  0  0  0  0  0  0  0  0
    2.4566   -1.4846    0.1300 C   0  0  0  0  0  0  0  0  0  0  0  0
    1.1118   -1.3875    0.0990 C   0  0  0  0  0  0  0  0  0  0  0  0
   -0.9309    0.0304    0.0253 C   0  0  0  0  0  0  0  0  0  0  0  0
    0.6182    2.3710    0.1471 C   0  0  0  0  0  0  0  0  0  0  0  0
   -1.5618    1.2936    0.0080 C   0  0  0  0  0  0  0  0  0  0  0  0
   -1.7206   -1.1441   -0.0330 C   0  0  0  0  0  0  0  0  0  0  0  0
    0.2667   -2.5719    0.0490 C   0  0  0  0  0  0  0  0  0  0  0  0
   -0.7745    2.4526    0.0671 C   0  0  0  0  0  0  0  0  0  0  0  0
   -1.0698   -2.4666   -0.0131 C   0  0  0  0  0  0  0  0  0  0  0  0
   -2.9618    1.3616   -0.0681 C   0  0  0  0  0  0  0  0  0  0  0  0
   -3.1143   -1.0507   -0.1075 C   0  0  0  0  0  0  0  0  0  0  0  0
   -3.7301    0.1986   -0.1251 C   0  0  0  0  0  0  0  0  0  0  0  0
    3.2763    1.7439    0.9237 H   0  0  0  0  0  0  0  0  0  0  0  0
    4.2896   -0.5314    0.7486 H   0  0  0  0  0  0  0  0  0  0  0  0
    2.9205   -2.4685    0.1211 H   0  0  0  0  0  0  0  0  0  0  0  0
    1.1976    3.2904    0.1959 H   0  0  0  0  0  0  0  0  0  0  0  0
    0.7315   -3.5529    0.0591 H   0  0  0  0  0  0  0  0  0  0  0  0
   -1.2392    3.4366    0.0543 H   0  0  0  0  0  0  0  0  0  0  0  0
   -1.6926   -3.3539   -0.0518 H   0  0  0  0  0  0  0  0  0  0  0  0
   -3.4683    2.3245   -0.0831 H   0  0  0  0  0  0  0  0  0  0  0  0
   -3.7317   -1.9445   -0.1523 H   0  0  0  0  0  0  0  0  0  0  0  0
   -4.8127    0.2679   -0.1833 H   0  0  0  0  0  0  0  0  0  0  0  0
  1  2  1  0  0  0  0
  1  3  1  0  0  0  0
  2  3  1  0  0  0  0
  2  4  1  0  0  0  0
  2 18  1  0  0  0  0
  3  6  1  0  0  0  0
  3 19  1  0  0  0  0
  4  5  2  0  0  0  0
  4  9  1  0  0  0  0
  5  7  1  0  0  0  0
  5  8  1  0  0  0  0
  6  7  2  0  0  0  0
  6 20  1  0  0  0  0
  7 12  1  0  0  0  0
  8 10  1  0  0  0  0
  8 11  2  0  0  0  0
  9 13  2  0  0  0  0
  9 21  1  0  0  0  0
 10 13  1  0  0  0  0
 10 15  2  0  0  0  0
 11 14  1  0  0  0  0
 11 16  1  0  0  0  0
 12 14  2  0  0  0  0
 12 22  1  0  0  0  0
 13 23  1  0  0  0  0
 14 24  1  0  0  0  0
 15 17  1  0  0  0  0
 15 25  1  0  0  0  0
 16 17  2  0  0  0  0
 16 26  1  0  0  0  0
 17 27  1  0  0  0  0
M  END
> <PUBCHEM_COMPOUND_CID>
9543286

> <PUBCHEM_CONFORMER_RMSD>
0.4

> <PUBCHEM_CONFORMER_DIVERSEORDER>
1
2

> <PUBCHEM_MMFF94_PARTIAL_CHARGES>
25
1 -0.3
11 0.03
12 -0.15
13 -0.15
14 -0.18
15 -0.15
16 -0.15
17 -0.15
18 0.1
19 0.1
2 0.08
20 0.15
21 0.15
22 0.15
23 0.15
24 0.15
25 0.15
26 0.15
27 0.15
3 0.09
4 -0.03
5 0.03
6 -0.19
7 -0.03
9 -0.15

> <PUBCHEM_EFFECTIVE_ROTOR_COUNT>
0.2

> <PUBCHEM_PHARMACOPHORE_FEATURES>
5
1 1 acceptor
6 4 5 8 9 10 13 rings
6 5 7 8 11 12 14 rings
6 8 10 11 15 16 17 rings
7 1 2 3 4 5 6 7 rings

> <PUBCHEM_HEAVY_ATOM_COUNT>
17

> <PUBCHEM_ATOM_DEF_STEREO_COUNT>
0

> <PUBCHEM_ATOM_UDEF_STEREO_COUNT>
2

> <PUBCHEM_BOND_DEF_STEREO_COUNT>
0

> <PUBCHEM_BOND_UDEF_STEREO_COUNT>
0

> <PUBCHEM_ISOTOPIC_ATOM_COUNT>
0

> <PUBCHEM_COMPONENT_COUNT>
1

> <PUBCHEM_CACTVS_TAUTO_COUNT>
1

> <PUBCHEM_CONFORMER_ID>
00919E7600000001

> <PUBCHEM_MMFF94_ENERGY>
51.7084

> <PUBCHEM_FEATURE_SELFOVERLAP>
25.46

> <PUBCHEM_SHAPE_FINGERPRINT>
10411042 1 15960899093507627450
10759866 29 18060695100786172142
10967382 1 18410576197175796083
11132069 177 18409174332698237056
11458722 379 18338508737882929998
11471102 20 18411144666578872301
11680986 33 17977950081521329433
13140716 1 17906455428646350483
13221675 6 18410293601170410139
13380535 76 18410858780212143899
14614273 12 18128542754621236381
14790565 3 18338497691074882201
15196674 1 18410857672041606995
15309172 13 18409721885415422425
15442244 35 18051133884704044090
15536298 74 18261675964792810114
16945 1 18266744584220622171
1813 80 16915107455191793218
193761 8 17762057644691747761
19591789 44 18410571799235208747
20510252 161 18260548952310376104
20588541 1 18410009931407259017
20645476 183 17916571051807728086
20905425 154 18118966038270921870
21267235 1 18410847780779747883
21501502 16 18266741474695941937
22721475 48 18410572872813080201
2334 1 18410576210007865995
23402539 116 18334588940248848654
23419403 2 16023464843342298737
23463225 33 18341617065649258962
23493267 7 17703794734237306177
23559900 14 18334571305904616852
238 59 17766605474208942093
25 1 18341055198175412743
2748010 2 18410294743621070463
335352 9 17977949308221410063
34934 24 18337963289741722696
43471831 8 18341053028879597603
5104073 3 18410857672041595003
528886 8 18410017636573345994
537710 114 18412259540951394077
53812653 166 18335143076602213992
589210 1 17762057640328195697
7364860 26 18047191031532653854
8809292 202 18342454811715549618
9709674 26 18335699416854544614

> <PUBCHEM_SHAPE_MULTIPOLES>
343.98
5.27
2.84
0.66
0.14
0.26
0.02
-0.29
0.41
-0.25
-0.09
0.13
-0.03
-0.08

> <PUBCHEM_SHAPE_SELFOVERLAP>
799.932

> <PUBCHEM_SHAPE_VOLUME>
174.7

> <PUBCHEM_COORDINATE_TYPE>
2
5
10

$$$$

