47205777
  -OEChem-06241223003D

 42 42  0     0  0  0  0  0  0999 V2000
   -0.6684   -0.7598   -1.4314 O   0  0  0  0  0  0  0  0  0  0  0  0
    2.4117    3.0345   -0.0641 O   0  0  0  0  0  0  0  0  0  0  0  0
   -2.7040    0.4223    1.2967 O   0  0  0  0  0  0  0  0  0  0  0  0
    0.7953   -2.1124   -0.2439 N   0  0  0  0  0  0  0  0  0  0  0  0
   -2.8446   -1.4514   -0.0663 N   0  0  0  0  0  0  0  0  0  0  0  0
    1.9866   -1.7511   -1.0021 C   0  0  0  0  0  0  0  0  0  0  0  0
    2.7194   -0.5972   -0.3810 C   0  0  0  0  0  0  0  0  0  0  0  0
   -1.6033   -2.0566    0.3548 C   0  0  0  0  0  0  0  0  0  0  0  0
   -0.4651   -1.5744   -0.5272 C   0  0  0  0  0  0  0  0  0  0  0  0
   -4.6203    0.1672   -0.1607 C   0  0  0  0  0  0  0  0  0  0  0  0
    1.0107   -3.0761    0.8327 C   0  0  0  0  0  0  0  0  0  0  0  0
   -5.1315    1.4931    0.3951 C   0  0  0  0  0  0  0  0  0  0  0  0
    2.2190    0.6983   -0.5118 C   0  0  0  0  0  0  0  0  0  0  0  0
    3.9010   -0.8204    0.3261 C   0  0  0  0  0  0  0  0  0  0  0  0
   -3.2931   -0.2447    0.4505 C   0  0  0  0  0  0  0  0  0  0  0  0
    2.8999    1.7706    0.0648 C   0  0  0  0  0  0  0  0  0  0  0  0
    4.5820    0.2519    0.9024 C   0  0  0  0  0  0  0  0  0  0  0  0
    4.0814    1.5474    0.7719 C   0  0  0  0  0  0  0  0  0  0  0  0
   -6.4758    1.8687   -0.2064 C   0  0  0  0  0  0  0  0  0  0  0  0
    1.1991    3.1901   -0.8001 C   0  0  0  0  0  0  0  0  0  0  0  0
    2.6317   -2.6320   -1.1048 H   0  0  0  0  0  0  0  0  0  0  0  0
    1.6897   -1.4715   -2.0208 H   0  0  0  0  0  0  0  0  0  0  0  0
   -1.7278   -3.1377    0.2467 H   0  0  0  0  0  0  0  0  0  0  0  0
   -1.4093   -1.7873    1.3973 H   0  0  0  0  0  0  0  0  0  0  0  0
   -4.4899    0.2418   -1.2470 H   0  0  0  0  0  0  0  0  0  0  0  0
   -5.3488   -0.6281    0.0378 H   0  0  0  0  0  0  0  0  0  0  0  0
    0.1129   -3.3524    1.3827 H   0  0  0  0  0  0  0  0  0  0  0  0
    1.7252   -2.6526    1.5448 H   0  0  0  0  0  0  0  0  0  0  0  0
    1.4351   -3.9880    0.4007 H   0  0  0  0  0  0  0  0  0  0  0  0
   -5.2298    1.4291    1.4854 H   0  0  0  0  0  0  0  0  0  0  0  0
   -4.4061    2.2891    0.1886 H   0  0  0  0  0  0  0  0  0  0  0  0
   -3.3913   -1.9251   -0.7797 H   0  0  0  0  0  0  0  0  0  0  0  0
    1.3073    0.8235   -1.0828 H   0  0  0  0  0  0  0  0  0  0  0  0
    4.3011   -1.8247    0.4368 H   0  0  0  0  0  0  0  0  0  0  0  0
    5.5018    0.0782    1.4533 H   0  0  0  0  0  0  0  0  0  0  0  0
    4.6163    2.3786    1.2231 H   0  0  0  0  0  0  0  0  0  0  0  0
   -7.2314    1.1084    0.0160 H   0  0  0  0  0  0  0  0  0  0  0  0
   -6.8221    2.8220    0.2049 H   0  0  0  0  0  0  0  0  0  0  0  0
   -6.4034    1.9740   -1.2935 H   0  0  0  0  0  0  0  0  0  0  0  0
    0.9549    4.2575   -0.7976 H   0  0  0  0  0  0  0  0  0  0  0  0
    0.3643    2.6710   -0.3166 H   0  0  0  0  0  0  0  0  0  0  0  0
    1.3230    2.8940   -1.8474 H   0  0  0  0  0  0  0  0  0  0  0  0
  1  9  2  0  0  0  0
  2 16  1  0  0  0  0
  2 20  1  0  0  0  0
  3 15  2  0  0  0  0
  4  6  1  0  0  0  0
  4  9  1  0  0  0  0
  4 11  1  0  0  0  0
  5  8  1  0  0  0  0
  5 15  1  0  0  0  0
  5 32  1  0  0  0  0
  6  7  1  0  0  0  0
  6 21  1  0  0  0  0
  6 22  1  0  0  0  0
  7 13  2  0  0  0  0
  7 14  1  0  0  0  0
  8  9  1  0  0  0  0
  8 23  1  0  0  0  0
  8 24  1  0  0  0  0
 10 12  1  0  0  0  0
 10 15  1  0  0  0  0
 10 25  1  0  0  0  0
 10 26  1  0  0  0  0
 11 27  1  0  0  0  0
 11 28  1  0  0  0  0
 11 29  1  0  0  0  0
 12 19  1  0  0  0  0
 12 30  1  0  0  0  0
 12 31  1  0  0  0  0
 13 16  1  0  0  0  0
 13 33  1  0  0  0  0
 14 17  2  0  0  0  0
 14 34  1  0  0  0  0
 16 18  2  0  0  0  0
 17 18  1  0  0  0  0
 17 35  1  0  0  0  0
 18 36  1  0  0  0  0
 19 37  1  0  0  0  0
 19 38  1  0  0  0  0
 19 39  1  0  0  0  0
 20 40  1  0  0  0  0
 20 41  1  0  0  0  0
 20 42  1  0  0  0  0
M  END
> <PUBCHEM_COMPOUND_CID>
47205777

> <PUBCHEM_CONFORMER_RMSD>
1.2

> <PUBCHEM_CONFORMER_DIVERSEORDER>
1
27
4
6
100
88
35
87
33
94
78
92
53
59
14
102
19
56
84
73
36
91
98
13
93
21
62
47
58
81
67
29
99
25
48
34
95
63
96
65
97
52
90
12
101
74
82
86
28
76
20
31
46
11
18
42
50
38
69
89
71
3
57
24
43
70
41
61
72
66
10
85
60
77
39
2
55
79
54
64
9
40
103
45
23
44
37
22
5
68
32
51
17
7
83
15
80
16
49
26
8
75
30

> <PUBCHEM_MMFF94_PARTIAL_CHARGES>
23
1 -0.57
10 0.06
11 0.3
13 -0.15
14 -0.15
15 0.57
16 0.08
17 -0.15
18 -0.15
2 -0.36
20 0.28
3 -0.57
32 0.37
33 0.15
34 0.15
35 0.15
36 0.15
4 -0.66
5 -0.73
6 0.44
7 -0.14
8 0.36
9 0.57

> <PUBCHEM_EFFECTIVE_ROTOR_COUNT>
9

> <PUBCHEM_PHARMACOPHORE_FEATURES>
6
1 1 acceptor
1 19 hydrophobe
1 2 acceptor
1 3 acceptor
1 5 donor
6 7 13 14 16 17 18 rings

> <PUBCHEM_HEAVY_ATOM_COUNT>
20

> <PUBCHEM_ATOM_DEF_STEREO_COUNT>
0

> <PUBCHEM_ATOM_UDEF_STEREO_COUNT>
0

> <PUBCHEM_BOND_DEF_STEREO_COUNT>
0

> <PUBCHEM_BOND_UDEF_STEREO_COUNT>
0

> <PUBCHEM_ISOTOPIC_ATOM_COUNT>
0

> <PUBCHEM_COMPONENT_COUNT>
1

> <PUBCHEM_CACTVS_TAUTO_COUNT>
2

> <PUBCHEM_CONFORMER_ID>
02D04D9100000001

> <PUBCHEM_MMFF94_ENERGY>
50.0271

> <PUBCHEM_FEATURE_SELFOVERLAP>
30.446

> <PUBCHEM_SHAPE_FINGERPRINT>
12403259 118 18337680697936677011
12403260 363 18195256520095104607
12596602 18 13901605460447610573
12633257 1 18202007611614851320
12670546 177 5328737491548402123
13075007 39 17773289319774843097
13402501 40 18271248330267875301
13878862 14 17985566656771250965
14251764 38 18267585702400424093
14251764 75 18265881485280038081
14790565 3 17693934091091603940
15003188 8 18409457972307375048
15238133 3 18272084955964165292
15342816 4 9583251564735267202
15475509 84 17553493873763151682
17093844 170 18410294752390918456
17810953 82 18409164419977547373
17834072 32 18409165502625336499
17859628 37 18411135793023523284
20157964 124 18335703897042945853
20554085 129 16486975159539968513
20621476 13 18409164381328142529
20715895 44 18336548321773130969
21041028 32 17910970354609661986
21298829 104 18261671584195889105
21315763 76 18335988653211634033
21475661 188 18411981347208124813
21665062 11 18341611482655919898
22749437 52 18261384512369726833
23227448 37 18408604730426244591
23558518 356 17983575204510676771
23559900 14 18115865372747860935
351380 180 18410575102243985177
465052 167 11383823896629637697
474 4 18409729547526626787
6328613 192 18339072672012005724

> <PUBCHEM_SHAPE_MULTIPOLES>
384.02
11.29
3.51
1.01
16.5
0.8
0.03
7.36
-2.07
-1.36
0.16
-0.23
-0.1
0.12

> <PUBCHEM_SHAPE_SELFOVERLAP>
771.019

> <PUBCHEM_SHAPE_VOLUME>
225.7

> <PUBCHEM_COORDINATE_TYPE>
2
5
10

$$$$

