164674
  -OEChem-07051213113D

 59 62  0     1  0  0  0  0  0999 V2000
    5.9875   -0.1765    0.7609 O   0  0  0  0  0  0  0  0  0  0  0  0
   -5.2651   -0.3193    1.7544 O   0  0  0  0  0  0  0  0  0  0  0  0
    0.0159    0.9642   -0.3007 C   0  0  1  0  0  0  0  0  0  0  0  0
    1.4342    0.9669    0.2802 C   0  0  1  0  0  0  0  0  0  0  0  0
   -0.6991   -0.3553    0.1384 C   0  0  1  0  0  0  0  0  0  0  0  0
    2.2834   -0.2301   -0.2002 C   0  0  1  0  0  0  0  0  0  0  0  0
   -2.1867   -0.4160   -0.3745 C   0  0  2  0  0  0  0  0  0  0  0  0
   -2.9140    0.8616    0.1540 C   0  0  1  0  0  0  0  0  0  0  0  0
    3.6167    0.1137    0.5079 C   0  0  2  0  0  0  0  0  0  0  0  0
    0.1470   -1.6130   -0.1933 C   0  0  0  0  0  0  0  0  0  0  0  0
    1.6047   -1.5156    0.2933 C   0  0  0  0  0  0  0  0  0  0  0  0
   -0.7762    2.2017    0.1446 C   0  0  0  0  0  0  0  0  0  0  0  0
    2.3366    2.1712    0.0288 C   0  0  0  0  0  0  0  0  0  0  0  0
   -2.2333    2.1555   -0.3097 C   0  0  0  0  0  0  0  0  0  0  0  0
    3.7559    1.6406    0.3040 C   0  0  0  0  0  0  0  0  0  0  0  0
   -2.9188   -1.6540    0.2157 C   0  0  0  0  0  0  0  0  0  0  0  0
    2.4700   -0.2979   -1.7369 C   0  0  0  0  0  0  0  0  0  0  0  0
   -4.4170    0.8759   -0.1726 C   0  0  0  0  0  0  0  0  0  0  0  0
   -2.2312   -0.5132   -1.9213 C   0  0  0  0  0  0  0  0  0  0  0  0
    4.8479   -0.6586    0.0562 C   0  0  2  0  0  0  0  0  0  0  0  0
   -4.4268   -1.6718   -0.0658 C   0  0  0  0  0  0  0  0  0  0  0  0
   -5.1326   -0.3778    0.3342 C   0  0  1  0  0  0  0  0  0  0  0  0
    4.7009   -2.1522    0.3025 C   0  0  0  0  0  0  0  0  0  0  0  0
    0.0824    1.0024   -1.3925 H   0  0  0  0  0  0  0  0  0  0  0  0
    1.3236    0.8961    1.3756 H   0  0  0  0  0  0  0  0  0  0  0  0
   -0.7532   -0.3261    1.2386 H   0  0  0  0  0  0  0  0  0  0  0  0
   -2.8403    0.8494    1.2525 H   0  0  0  0  0  0  0  0  0  0  0  0
    3.4970   -0.0419    1.5914 H   0  0  0  0  0  0  0  0  0  0  0  0
    0.1424   -1.8032   -1.2709 H   0  0  0  0  0  0  0  0  0  0  0  0
   -0.2997   -2.4959    0.2773 H   0  0  0  0  0  0  0  0  0  0  0  0
    1.6112   -1.5496    1.3903 H   0  0  0  0  0  0  0  0  0  0  0  0
    2.1164   -2.4159   -0.0507 H   0  0  0  0  0  0  0  0  0  0  0  0
   -0.3109    3.1106   -0.2545 H   0  0  0  0  0  0  0  0  0  0  0  0
   -0.7457    2.2873    1.2386 H   0  0  0  0  0  0  0  0  0  0  0  0
    2.0924    3.0107    0.6877 H   0  0  0  0  0  0  0  0  0  0  0  0
    2.2550    2.5260   -1.0046 H   0  0  0  0  0  0  0  0  0  0  0  0
   -2.7584    3.0224    0.1097 H   0  0  0  0  0  0  0  0  0  0  0  0
   -2.2899    2.2576   -1.3993 H   0  0  0  0  0  0  0  0  0  0  0  0
    4.4125    1.8870   -0.5383 H   0  0  0  0  0  0  0  0  0  0  0  0
    4.1821    2.1096    1.1979 H   0  0  0  0  0  0  0  0  0  0  0  0
   -2.7678   -1.6819    1.3029 H   0  0  0  0  0  0  0  0  0  0  0  0
   -2.4903   -2.5819   -0.1808 H   0  0  0  0  0  0  0  0  0  0  0  0
    3.0319   -1.1917   -2.0278 H   0  0  0  0  0  0  0  0  0  0  0  0
    1.5200   -0.3444   -2.2756 H   0  0  0  0  0  0  0  0  0  0  0  0
    3.0125    0.5673   -2.1308 H   0  0  0  0  0  0  0  0  0  0  0  0
   -4.8708    1.7635    0.2864 H   0  0  0  0  0  0  0  0  0  0  0  0
   -4.5671    0.9720   -1.2540 H   0  0  0  0  0  0  0  0  0  0  0  0
   -1.8091   -1.4610   -2.2710 H   0  0  0  0  0  0  0  0  0  0  0  0
   -3.2513   -0.4680   -2.3128 H   0  0  0  0  0  0  0  0  0  0  0  0
   -1.6761    0.2900   -2.4117 H   0  0  0  0  0  0  0  0  0  0  0  0
    5.0602   -0.4882   -1.0040 H   0  0  0  0  0  0  0  0  0  0  0  0
   -4.5944   -1.8608   -1.1322 H   0  0  0  0  0  0  0  0  0  0  0  0
   -4.8686   -2.5160    0.4777 H   0  0  0  0  0  0  0  0  0  0  0  0
   -6.1523   -0.3964   -0.0676 H   0  0  0  0  0  0  0  0  0  0  0  0
    4.1086   -2.6407   -0.4727 H   0  0  0  0  0  0  0  0  0  0  0  0
    5.6873   -2.6313    0.2926 H   0  0  0  0  0  0  0  0  0  0  0  0
    4.2701   -2.3626    1.2870 H   0  0  0  0  0  0  0  0  0  0  0  0
    5.8472   -0.3469    1.7080 H   0  0  0  0  0  0  0  0  0  0  0  0
   -5.7539    0.4928    1.9713 H   0  0  0  0  0  0  0  0  0  0  0  0
  1 20  1  0  0  0  0
  1 58  1  0  0  0  0
  2 22  1  0  0  0  0
  2 59  1  0  0  0  0
  3  4  1  0  0  0  0
  3  5  1  0  0  0  0
  3 12  1  0  0  0  0
  3 24  1  0  0  0  0
  4  6  1  0  0  0  0
  4 13  1  0  0  0  0
  4 25  1  0  0  0  0
  5  7  1  0  0  0  0
  5 10  1  0  0  0  0
  5 26  1  0  0  0  0
  6  9  1  0  0  0  0
  6 11  1  0  0  0  0
  6 17  1  0  0  0  0
  7  8  1  0  0  0  0
  7 16  1  0  0  0  0
  7 19  1  0  0  0  0
  8 14  1  0  0  0  0
  8 18  1  0  0  0  0
  8 27  1  0  0  0  0
  9 15  1  0  0  0  0
  9 20  1  0  0  0  0
  9 28  1  0  0  0  0
 10 11  1  0  0  0  0
 10 29  1  0  0  0  0
 10 30  1  0  0  0  0
 11 31  1  0  0  0  0
 11 32  1  0  0  0  0
 12 14  1  0  0  0  0
 12 33  1  0  0  0  0
 12 34  1  0  0  0  0
 13 15  1  0  0  0  0
 13 35  1  0  0  0  0
 13 36  1  0  0  0  0
 14 37  1  0  0  0  0
 14 38  1  0  0  0  0
 15 39  1  0  0  0  0
 15 40  1  0  0  0  0
 16 21  1  0  0  0  0
 16 41  1  0  0  0  0
 16 42  1  0  0  0  0
 17 43  1  0  0  0  0
 17 44  1  0  0  0  0
 17 45  1  0  0  0  0
 18 22  1  0  0  0  0
 18 46  1  0  0  0  0
 18 47  1  0  0  0  0
 19 48  1  0  0  0  0
 19 49  1  0  0  0  0
 19 50  1  0  0  0  0
 20 23  1  0  0  0  0
 20 51  1  0  0  0  0
 21 22  1  0  0  0  0
 21 52  1  0  0  0  0
 21 53  1  0  0  0  0
 22 54  1  0  0  0  0
 23 55  1  0  0  0  0
 23 56  1  0  0  0  0
 23 57  1  0  0  0  0
M  END
> <PUBCHEM_COMPOUND_CID>
164674

> <PUBCHEM_CONFORMER_RMSD>
0.6

> <PUBCHEM_CONFORMER_DIVERSEORDER>
1
2

> <PUBCHEM_MMFF94_PARTIAL_CHARGES>
6
1 -0.68
2 -0.68
20 0.28
22 0.28
58 0.4
59 0.4

> <PUBCHEM_EFFECTIVE_ROTOR_COUNT>
3.2

> <PUBCHEM_PHARMACOPHORE_FEATURES>
8
1 1 acceptor
1 1 donor
1 2 acceptor
1 2 donor
5 4 6 9 13 15 rings
6 3 4 5 6 10 11 rings
6 3 5 7 8 12 14 rings
6 7 8 16 18 21 22 rings

> <PUBCHEM_HEAVY_ATOM_COUNT>
23

> <PUBCHEM_ATOM_DEF_STEREO_COUNT>
9

> <PUBCHEM_ATOM_UDEF_STEREO_COUNT>
0

> <PUBCHEM_BOND_DEF_STEREO_COUNT>
0

> <PUBCHEM_BOND_UDEF_STEREO_COUNT>
0

> <PUBCHEM_ISOTOPIC_ATOM_COUNT>
0

> <PUBCHEM_COMPONENT_COUNT>
1

> <PUBCHEM_CACTVS_TAUTO_COUNT>
1

> <PUBCHEM_CONFORMER_ID>
0002834200000001

> <PUBCHEM_MMFF94_ENERGY>
82.16

> <PUBCHEM_FEATURE_SELFOVERLAP>
40.685

> <PUBCHEM_SHAPE_FINGERPRINT>
10 15 18336279951279503344
10366900 7 13110962024137049237
12107183 9 17691974073694968360
12166972 35 17632855309112438228
12236239 1 17749390351574750819
12403259 226 18412552028377635204
12403259 415 18131079220493244436
12403814 3 18040439884583474845
12422481 6 18187641465816922627
12596599 1 17968918821955046895
12633257 1 16950285078831441697
12788726 201 17967799557757229792
13140716 1 18265613186761006507
13224815 77 18408321064525550493
13288520 33 18411419539990304404
13675066 3 18187089446629051248
13862211 1 18411423903429495051
14115302 16 17774995770041482582
14341114 176 18410290333016731138
14790565 3 17475507279437765508
15196674 1 18410576158484258065
15209289 33 18343865528094163170
15536298 74 18334575715680514668
15788980 27 18202283601986935763
16945 1 18265327481510709957
17349148 13 17632294588099155122
17492 89 18337956791683784682
1813 80 17418093208711607004
18186145 218 17917160428599826388
19141452 34 17967813817253938831
19591789 44 18410295800119968554
200 152 18114187436145450321
20028762 73 18261117335318838270
20261772 1 18187087234567997599
21033648 29 17845675684383704668
21267235 1 18411412921155752298
21279426 13 18267869573599699070
21682296 61 18115864286152575798
221490 88 18412824660100585808
22182313 1 17896595279172980284
23402539 116 18334867099199492502
23522609 53 18122311719105956824
23557571 272 18187362172747070756
23559900 14 18411427210607086576
26918003 58 18342461434686722353
296302 2 6050447011351846901
312423 11 18271513260803487308
3286 77 18343303656483280516
335352 9 18411139164757622797
34934 24 18409736175214740613
350125 39 18410855456329534392
351380 180 18410577283886892050
4214541 1 18411420639370368633
4340502 62 14923940133080097991
5104073 3 18335138652843811585
542803 24 17530682100095042890
7495541 125 17846493708328858440
9709674 26 18340765949081114467

> <PUBCHEM_SHAPE_MULTIPOLES>
461.59
11.22
2.25
1.08
1.36
0.47
-0.33
-3.05
2.91
0.4
0.11
-0.45
-0.16
0.09

> <PUBCHEM_SHAPE_SELFOVERLAP>
971.315

> <PUBCHEM_SHAPE_VOLUME>
258.7

> <PUBCHEM_COORDINATE_TYPE>
2
5
10

$$$$

