10452259
  -OEChem-07051213092D

 57 60  0     1  0  0  0  0  0999 V2000
    8.1223   -1.9203    0.0000 O   0  0  0  0  0  0  0  0  0  0  0  0
    5.5103    1.6081    0.0000 O   0  0  0  0  0  0  0  0  0  0  0  0
    7.2762    2.6459    0.0000 O   0  0  0  0  0  0  0  0  0  0  0  0
    4.6497    1.1112    0.0000 O   0  0  0  0  0  0  0  0  0  0  0  0
    2.8680    0.1008    0.0000 O   0  0  0  0  0  0  0  0  0  0  0  0
    9.8438   -1.9531    0.0000 O   0  0  0  0  0  0  0  0  0  0  0  0
    7.2641   -0.4234    0.0000 C   0  0  2  0  0  0  0  0  0  0  0  0
    6.3981    0.0766    0.0000 C   0  0  1  0  0  0  0  0  0  0  0  0
    5.5320   -0.4234    0.0000 C   0  0  1  0  0  0  0  0  0  0  0  0
    8.1741    0.0835    0.0000 C   0  0  2  0  0  0  0  0  0  0  0  0
    7.2641   -1.4234    0.0000 C   0  0  1  0  0  0  0  0  0  0  0  0
    5.5320   -1.4234    0.0000 C   0  0  1  0  0  0  0  0  0  0  0  0
    6.3820    1.1181    0.0000 C   0  0  1  0  0  0  0  0  0  0  0  0
    6.3981   -1.9234    0.0000 C   0  0  0  0  0  0  0  0  0  0  0  0
    8.1821    1.1251    0.0000 C   0  0  2  0  0  0  0  0  0  0  0  0
    7.2800    1.6459    0.0000 C   0  0  2  0  0  0  0  0  0  0  0  0
    7.2641    0.5766    0.0000 C   0  0  0  0  0  0  0  0  0  0  0  0
    9.0134   -0.4447    0.0000 C   0  0  0  0  0  0  0  0  0  0  0  0
    4.6381   -1.9580    0.0000 C   0  0  1  0  0  0  0  0  0  0  0  0
    5.5320    0.5766    0.0000 C   0  0  0  0  0  0  0  0  0  0  0  0
    4.6381    0.1113    0.0000 C   0  0  0  0  0  0  0  0  0  0  0  0
    9.0501    1.6217    0.0000 C   0  0  0  0  0  0  0  0  0  0  0  0
    8.9878   -1.4361    0.0000 C   0  0  0  0  0  0  0  0  0  0  0  0
    3.7320   -1.4442    0.0000 C   0  0  0  0  0  0  0  0  0  0  0  0
    3.7320   -0.4025    0.0000 C   0  0  0  0  0  0  0  0  0  0  0  0
    4.6497   -2.9580    0.0000 C   0  0  0  0  0  0  0  0  0  0  0  0
    2.0000   -0.3959    0.0000 C   0  0  0  0  0  0  0  0  0  0  0  0
    7.1309    0.5073    0.0000 H   0  0  0  0  0  0  0  0  0  0  0  0
    8.9198    0.4915    0.0000 H   0  0  0  0  0  0  0  0  0  0  0  0
    7.2636   -2.2734    0.0000 H   0  0  0  0  0  0  0  0  0  0  0  0
    5.5386   -2.2733    0.0000 H   0  0  0  0  0  0  0  0  0  0  0  0
    5.8493    0.8009    0.0000 H   0  0  0  0  0  0  0  0  0  0  0  0
    5.9995   -2.3983    0.0000 H   0  0  0  0  0  0  0  0  0  0  0  0
    6.7966   -2.3983    0.0000 H   0  0  0  0  0  0  0  0  0  0  0  0
    8.7173    0.8120    0.0000 H   0  0  0  0  0  0  0  0  0  0  0  0
    6.7413    1.9528    0.0000 H   0  0  0  0  0  0  0  0  0  0  0  0
    7.8841    0.5766    0.0000 H   0  0  0  0  0  0  0  0  0  0  0  0
    7.2641    1.1966    0.0000 H   0  0  0  0  0  0  0  0  0  0  0  0
    6.6441    0.5766    0.0000 H   0  0  0  0  0  0  0  0  0  0  0  0
    9.6205   -0.5706    0.0000 H   0  0  0  0  0  0  0  0  0  0  0  0
    9.2452    0.1303    0.0000 H   0  0  0  0  0  0  0  0  0  0  0  0
    4.1042   -2.2732    0.0000 H   0  0  0  0  0  0  0  0  0  0  0  0
    6.1520    0.5766    0.0000 H   0  0  0  0  0  0  0  0  0  0  0  0
    5.5320    1.1966    0.0000 H   0  0  0  0  0  0  0  0  0  0  0  0
    4.9120    0.5766    0.0000 H   0  0  0  0  0  0  0  0  0  0  0  0
    9.3580    1.0836    0.0000 H   0  0  0  0  0  0  0  0  0  0  0  0
    9.5882    1.9297    0.0000 H   0  0  0  0  0  0  0  0  0  0  0  0
    8.7422    2.1599    0.0000 H   0  0  0  0  0  0  0  0  0  0  0  0
    3.1963   -1.7562    0.0000 H   0  0  0  0  0  0  0  0  0  0  0  0
    5.5031    2.2280    0.0000 H   0  0  0  0  0  0  0  0  0  0  0  0
    4.0297   -2.9651    0.0000 H   0  0  0  0  0  0  0  0  0  0  0  0
    4.6568   -3.5779    0.0000 H   0  0  0  0  0  0  0  0  0  0  0  0
    5.2696   -2.9508    0.0000 H   0  0  0  0  0  0  0  0  0  0  0  0
    7.8119    2.9580    0.0000 H   0  0  0  0  0  0  0  0  0  0  0  0
    1.6921    0.1423    0.0000 H   0  0  0  0  0  0  0  0  0  0  0  0
    1.4619   -0.7038    0.0000 H   0  0  0  0  0  0  0  0  0  0  0  0
    2.3079   -0.9340    0.0000 H   0  0  0  0  0  0  0  0  0  0  0  0
  1 11  1  0  0  0  0
  1 23  1  0  0  0  0
 13  2  1  6  0  0  0
  2 50  1  0  0  0  0
 16  3  1  1  0  0  0
  3 54  1  0  0  0  0
  4 21  2  0  0  0  0
  5 25  1  0  0  0  0
  5 27  1  0  0  0  0
  6 23  2  0  0  0  0
  7  8  1  0  0  0  0
  7 10  1  0  0  0  0
  7 11  1  0  0  0  0
  7 17  1  1  0  0  0
  8  9  1  0  0  0  0
  8 13  1  0  0  0  0
  8 28  1  6  0  0  0
  9 12  1  0  0  0  0
  9 20  1  1  0  0  0
  9 21  1  0  0  0  0
 10 15  1  0  0  0  0
 10 18  1  0  0  0  0
 10 29  1  1  0  0  0
 11 14  1  0  0  0  0
 11 30  1  1  0  0  0
 12 14  1  0  0  0  0
 12 19  1  0  0  0  0
 12 31  1  6  0  0  0
 13 16  1  0  0  0  0
 13 32  1  0  0  0  0
 14 33  1  0  0  0  0
 14 34  1  0  0  0  0
 15 16  1  0  0  0  0
 15 22  1  6  0  0  0
 15 35  1  0  0  0  0
 16 36  1  0  0  0  0
 17 37  1  0  0  0  0
 17 38  1  0  0  0  0
 17 39  1  0  0  0  0
 18 23  1  0  0  0  0
 18 40  1  0  0  0  0
 18 41  1  0  0  0  0
 19 24  1  0  0  0  0
 19 26  1  6  0  0  0
 19 42  1  0  0  0  0
 20 43  1  0  0  0  0
 20 44  1  0  0  0  0
 20 45  1  0  0  0  0
 21 25  1  0  0  0  0
 22 46  1  0  0  0  0
 22 47  1  0  0  0  0
 22 48  1  0  0  0  0
 24 25  2  0  0  0  0
 24 49  1  0  0  0  0
 26 51  1  0  0  0  0
 26 52  1  0  0  0  0
 26 53  1  0  0  0  0
 27 55  1  0  0  0  0
 27 56  1  0  0  0  0
 27 57  1  0  0  0  0
M  END
> <PUBCHEM_COMPOUND_CID>
10452259

> <PUBCHEM_COMPOUND_CANONICALIZED>
1

> <PUBCHEM_CACTVS_COMPLEXITY>
716

> <PUBCHEM_CACTVS_HBOND_ACCEPTOR>
6

> <PUBCHEM_CACTVS_HBOND_DONOR>
2

> <PUBCHEM_CACTVS_ROTATABLE_BOND>
1

> <PUBCHEM_CACTVS_SUBSKEYS>
AAADceB4OAAAAAAAAAAAAAAAAAAAAAAAAAA0YIEAAAAAAADQAAAAGgAACAAADxSggAICCAAABgCIAKDSCAIACAAgIAAACAFAAEgBEBIAAAQCQAAEgAAJAYPK7PzPgAAAAAAAAADAAAYAADCAAAAAAAAAAA==

> <PUBCHEM_IUPAC_INCHI>
InChI=1S/C21H30O6/c1-9-6-13(26-5)19(25)21(4)11(9)7-14-20(3)12(8-15(22)27-14)10(2)16(23)17(24)18(20)21/h6,9-12,14,16-18,23-24H,7-8H2,1-5H3/t9-,10-,11+,12+,14-,16+,17-,18+,20-,21+/m1/s1

> <PUBCHEM_IUPAC_INCHIKEY>
ZIVURVYGGHVTQO-CUCOLZSJSA-N

> <PUBCHEM_XLOGP3_AA>
2

> <PUBCHEM_EXACT_MASS>
378.204239

> <PUBCHEM_MOLECULAR_FORMULA>
C21H30O6

> <PUBCHEM_MOLECULAR_WEIGHT>
378.4593

> <PUBCHEM_OPENEYE_CAN_SMILES>
CC1C=C(C(=O)C2(C1CC3C4(C2C(C(C(C4CC(=O)O3)C)O)O)C)C)OC

> <PUBCHEM_OPENEYE_ISO_SMILES>
C[C@@H]1C=C(C(=O)[C@]2([C@H]1C[C@@H]3[C@@]4([C@@H]2[C@@H]([C@H]([C@@H]([C@@H]4CC(=O)O3)C)O)O)C)C)OC

> <PUBCHEM_CACTVS_TPSA>
93.1

> <PUBCHEM_MONOISOTOPIC_WEIGHT>
378.204239

> <PUBCHEM_TOTAL_CHARGE>
0

> <PUBCHEM_HEAVY_ATOM_COUNT>
27

> <PUBCHEM_ATOM_DEF_STEREO_COUNT>
10

> <PUBCHEM_ATOM_UDEF_STEREO_COUNT>
0

> <PUBCHEM_BOND_DEF_STEREO_COUNT>
0

> <PUBCHEM_BOND_UDEF_STEREO_COUNT>
0

> <PUBCHEM_ISOTOPIC_ATOM_COUNT>
0

> <PUBCHEM_COMPONENT_COUNT>
1

> <PUBCHEM_CACTVS_TAUTO_COUNT>
6

> <PUBCHEM_COORDINATE_TYPE>
1
5
255

> <PUBCHEM_BONDANNOTATIONS>
10  29  5
11  30  5
12  31  6
15  22  6
19  26  6
13  2  6
16  3  5
7  17  5
8  28  6
9  20  5

$$$$

