443358
  -OEChem-07051213023D

 51 56  0     1  0  0  0  0  0999 V2000
   -3.3259   -2.0239    0.4071 O   0  0  0  0  0  0  0  0  0  0  0  0
   -2.1100    0.3123   -2.6636 O   0  0  0  0  0  0  0  0  0  0  0  0
   -2.4170    3.1462    0.7620 O   0  0  0  0  0  0  0  0  0  0  0  0
   -0.4239    3.7510   -0.2483 O   0  0  0  0  0  0  0  0  0  0  0  0
   -0.6678   -2.1099    1.2788 N   0  0  1  0  0  0  0  0  0  0  0  0
    1.5972    1.8635    0.4329 N   0  0  0  0  0  0  0  0  0  0  0  0
   -1.4180   -0.7330   -0.6147 C   0  0  1  0  0  0  0  0  0  0  0  0
   -0.1855   -1.3688    0.0960 C   0  0  1  0  0  0  0  0  0  0  0  0
   -2.5345   -1.7701   -0.7696 C   0  0  1  0  0  0  0  0  0  0  0  0
    0.8233   -0.3632    0.7046 C   0  0  2  0  0  0  0  0  0  0  0  0
   -2.4574   -3.0796   -0.0153 C   0  0  1  0  0  0  0  0  0  0  0  0
   -1.3155   -3.3612    0.9151 C   0  0  0  0  0  0  0  0  0  0  0  0
   -1.9308    0.5028    0.1909 C   0  0  0  0  0  0  0  0  0  0  0  0
    0.9431   -0.7943    2.1910 C   0  0  0  0  0  0  0  0  0  0  0  0
    0.4456   -2.2306    2.1994 C   0  0  0  0  0  0  0  0  0  0  0  0
   -0.9957   -0.2998   -2.0429 C   0  0  1  0  0  0  0  0  0  0  0  0
    0.4350    1.1297    0.5832 C   0  0  0  0  0  0  0  0  0  0  0  0
    2.2243   -0.3335    0.1116 C   0  0  0  0  0  0  0  0  0  0  0  0
   -0.8410    1.5153    0.4187 C   0  0  0  0  0  0  0  0  0  0  0  0
    2.6323    1.0152    0.0285 C   0  0  0  0  0  0  0  0  0  0  0  0
   -0.5327   -1.4893   -2.8500 C   0  0  0  0  0  0  0  0  0  0  0  0
    3.0783   -1.3610   -0.2459 C   0  0  0  0  0  0  0  0  0  0  0  0
   -1.1748    2.9345    0.2597 C   0  0  0  0  0  0  0  0  0  0  0  0
    3.9067    1.3547   -0.3796 C   0  0  0  0  0  0  0  0  0  0  0  0
    4.3610   -1.0227   -0.6836 C   0  0  0  0  0  0  0  0  0  0  0  0
    4.7727    0.3209   -0.7446 C   0  0  0  0  0  0  0  0  0  0  0  0
   -2.8890    4.4949    0.6785 C   0  0  0  0  0  0  0  0  0  0  0  0
    0.3409   -2.0871   -0.5390 H   0  0  0  0  0  0  0  0  0  0  0  0
   -3.1056   -1.7286   -1.6852 H   0  0  0  0  0  0  0  0  0  0  0  0
   -2.9054   -3.9659   -0.4412 H   0  0  0  0  0  0  0  0  0  0  0  0
   -1.7066   -3.8578    1.8102 H   0  0  0  0  0  0  0  0  0  0  0  0
   -0.6128   -4.0511    0.4325 H   0  0  0  0  0  0  0  0  0  0  0  0
   -2.3237    0.1993    1.1699 H   0  0  0  0  0  0  0  0  0  0  0  0
   -2.7795    0.9470   -0.3438 H   0  0  0  0  0  0  0  0  0  0  0  0
    0.2917   -0.1806    2.8290 H   0  0  0  0  0  0  0  0  0  0  0  0
    1.9575   -0.7265    2.6005 H   0  0  0  0  0  0  0  0  0  0  0  0
    1.2144   -2.9229    1.8373 H   0  0  0  0  0  0  0  0  0  0  0  0
    0.1292   -2.5377    3.2008 H   0  0  0  0  0  0  0  0  0  0  0  0
   -0.1932    0.4433   -2.0288 H   0  0  0  0  0  0  0  0  0  0  0  0
    1.5873    2.8500    0.2257 H   0  0  0  0  0  0  0  0  0  0  0  0
   -0.4340   -1.1922   -3.9021 H   0  0  0  0  0  0  0  0  0  0  0  0
    0.4511   -1.8561   -2.5476 H   0  0  0  0  0  0  0  0  0  0  0  0
   -1.2341   -2.3283   -2.8583 H   0  0  0  0  0  0  0  0  0  0  0  0
    2.7782   -2.4003   -0.1755 H   0  0  0  0  0  0  0  0  0  0  0  0
   -2.5873   -0.3474   -3.1936 H   0  0  0  0  0  0  0  0  0  0  0  0
    4.2290    2.3889   -0.4301 H   0  0  0  0  0  0  0  0  0  0  0  0
    5.0562   -1.8078   -0.9693 H   0  0  0  0  0  0  0  0  0  0  0  0
    5.7796    0.5562   -1.0795 H   0  0  0  0  0  0  0  0  0  0  0  0
   -2.2336    5.1614    1.2472 H   0  0  0  0  0  0  0  0  0  0  0  0
   -3.8910    4.5320    1.1141 H   0  0  0  0  0  0  0  0  0  0  0  0
   -2.9485    4.8109   -0.3674 H   0  0  0  0  0  0  0  0  0  0  0  0
  1  9  1  0  0  0  0
  1 11  1  0  0  0  0
  2 16  1  0  0  0  0
  2 45  1  0  0  0  0
  3 23  1  0  0  0  0
  3 27  1  0  0  0  0
  4 23  2  0  0  0  0
  5  8  1  0  0  0  0
  5 12  1  0  0  0  0
  5 15  1  0  0  0  0
  6 17  1  0  0  0  0
  6 20  1  0  0  0  0
  6 40  1  0  0  0  0
  7  8  1  0  0  0  0
  7  9  1  0  0  0  0
  7 13  1  0  0  0  0
  7 16  1  0  0  0  0
  8 10  1  0  0  0  0
  8 28  1  0  0  0  0
  9 11  1  0  0  0  0
  9 29  1  0  0  0  0
 10 14  1  0  0  0  0
 10 17  1  0  0  0  0
 10 18  1  0  0  0  0
 11 12  1  0  0  0  0
 11 30  1  0  0  0  0
 12 31  1  0  0  0  0
 12 32  1  0  0  0  0
 13 19  1  0  0  0  0
 13 33  1  0  0  0  0
 13 34  1  0  0  0  0
 14 15  1  0  0  0  0
 14 35  1  0  0  0  0
 14 36  1  0  0  0  0
 15 37  1  0  0  0  0
 15 38  1  0  0  0  0
 16 21  1  0  0  0  0
 16 39  1  0  0  0  0
 17 19  2  0  0  0  0
 18 20  1  0  0  0  0
 18 22  2  0  0  0  0
 19 23  1  0  0  0  0
 20 24  2  0  0  0  0
 21 41  1  0  0  0  0
 21 42  1  0  0  0  0
 21 43  1  0  0  0  0
 22 25  1  0  0  0  0
 22 44  1  0  0  0  0
 24 26  1  0  0  0  0
 24 46  1  0  0  0  0
 25 26  2  0  0  0  0
 25 47  1  0  0  0  0
 26 48  1  0  0  0  0
 27 49  1  0  0  0  0
 27 50  1  0  0  0  0
 27 51  1  0  0  0  0
M  END
> <PUBCHEM_COMPOUND_CID>
443358

> <PUBCHEM_CONFORMER_RMSD>
0.8

> <PUBCHEM_CONFORMER_DIVERSEORDER>
1
3
2

> <PUBCHEM_MMFF94_PARTIAL_CHARGES>
33
1 -0.3
10 0.28
11 -0.05
12 0.37
13 0.14
15 0.27
16 0.28
17 -0.04
18 -0.14
19 -0.12
2 -0.68
20 0.1
22 -0.15
23 0.71
24 -0.15
25 -0.15
26 -0.15
27 0.28
29 0.1
3 -0.43
30 0.1
4 -0.57
40 0.4
44 0.15
45 0.4
46 0.15
47 0.15
48 0.15
5 -0.81
6 -0.6
7 0.09
8 0.27
9 -0.05

> <PUBCHEM_EFFECTIVE_ROTOR_COUNT>
4.2

> <PUBCHEM_PHARMACOPHORE_FEATURES>
12
1 1 acceptor
1 2 acceptor
1 2 donor
1 4 acceptor
1 5 cation
1 6 cation
1 6 donor
5 5 8 10 14 15 rings
5 6 10 17 18 20 rings
6 18 20 22 24 25 26 rings
6 7 8 10 13 17 19 rings
7 1 5 7 8 9 11 12 rings

> <PUBCHEM_HEAVY_ATOM_COUNT>
27

> <PUBCHEM_ATOM_DEF_STEREO_COUNT>
3

> <PUBCHEM_ATOM_UDEF_STEREO_COUNT>
3

> <PUBCHEM_BOND_DEF_STEREO_COUNT>
0

> <PUBCHEM_BOND_UDEF_STEREO_COUNT>
0

> <PUBCHEM_ISOTOPIC_ATOM_COUNT>
0

> <PUBCHEM_COMPONENT_COUNT>
1

> <PUBCHEM_CACTVS_TAUTO_COUNT>
3

> <PUBCHEM_CONFORMER_ID>
0006C3DE00000001

> <PUBCHEM_MMFF94_ENERGY>
110.5633

> <PUBCHEM_FEATURE_SELFOVERLAP>
61.35

> <PUBCHEM_SHAPE_FINGERPRINT>
10165383 225 17630913584499435783
107951 10 18048300430254085190
10863032 1 18335414630262720278
10948715 1 18123177176316032648
1100329 8 18339917109341801537
11488393 25 17102823866533417959
12035759 4 18124336027201485789
121448 382 17846508006586087064
12156800 1 17480244259134215695
12173636 292 18411697729274855206
12293681 4 18340483348738654426
12403814 3 17676765375298523566
12422481 6 17679830895400425667
12592029 89 17617648199837926112
12788726 201 18340765957881799248
138480 1 16321743033363754289
13911987 19 17476626587186637044
14713325 29 18261945332246151158
14790565 3 18194391410766414721
16752209 62 17898597481384235149
16945 1 18336831990987259562
17349148 13 18200889374905552656
19591789 44 18122617520655417969
19930381 70 17472695823904234808
229495 10 16554807462322626474
23419403 2 17119744881737531782
23558518 356 18341610391719084696
238 59 16980993570996300405
298252 57 17752768206135627928
3380486 145 17621584026733087490
394222 165 16985776356577770201
469060 322 16271918290478450709
6287921 2 16757187468103669199
6669772 16 17686328072960175046
81228 2 18189922888057498073
9999458 23 17548121690130400269

> <PUBCHEM_SHAPE_MULTIPOLES>
522.21
5.7
4.5
1.92
6.7
3.85
-0.86
0.6
-1.36
-5.23
1.43
-0.61
-1.13
-0.53

> <PUBCHEM_SHAPE_SELFOVERLAP>
1174.203

> <PUBCHEM_SHAPE_VOLUME>
275.8

> <PUBCHEM_COORDINATE_TYPE>
2
5
10

$$$$

