17395409
  -OEChem-06241222503D

 32 33  0     0  0  0  0  0  0999 V2000
    4.2871   -1.9003   -0.6873 F   0  0  0  0  0  0  0  0  0  0  0  0
    5.0458    0.6704   -0.0588 O   0  0  0  0  0  0  0  0  0  0  0  0
   -0.6204   -2.0404    0.3955 O   0  0  0  0  0  0  0  0  0  0  0  0
   -1.2741    0.1849    0.0106 N   0  0  0  0  0  0  0  0  0  0  0  0
   -3.1972   -1.1523    0.2300 N   0  0  0  0  0  0  0  0  0  0  0  0
    1.0539   -0.4513    0.1331 C   0  0  0  0  0  0  0  0  0  0  0  0
   -2.6678    0.0705    0.0013 C   0  0  0  0  0  0  0  0  0  0  0  0
   -3.4202    1.2086   -0.2406 C   0  0  0  0  0  0  0  0  0  0  0  0
   -0.3441   -0.8456    0.2016 C   0  0  0  0  0  0  0  0  0  0  0  0
    2.0209   -1.3798   -0.2523 C   0  0  0  0  0  0  0  0  0  0  0  0
    1.4286    0.8537    0.4533 C   0  0  0  0  0  0  0  0  0  0  0  0
    3.7369    0.3018    0.0025 C   0  0  0  0  0  0  0  0  0  0  0  0
    3.3625   -1.0033   -0.3176 C   0  0  0  0  0  0  0  0  0  0  0  0
    2.7699    1.2302    0.3880 C   0  0  0  0  0  0  0  0  0  0  0  0
   -4.8050    1.0837   -0.2483 C   0  0  0  0  0  0  0  0  0  0  0  0
   -2.8003    2.5413   -0.4901 C   0  0  0  0  0  0  0  0  0  0  0  0
   -5.3869   -0.1578   -0.0173 C   0  0  0  0  0  0  0  0  0  0  0  0
   -4.5465   -1.2348    0.2146 C   0  0  0  0  0  0  0  0  0  0  0  0
    5.3567    2.0204    0.2819 C   0  0  0  0  0  0  0  0  0  0  0  0
   -0.9133    1.1080   -0.2017 H   0  0  0  0  0  0  0  0  0  0  0  0
    1.7516   -2.4005   -0.5108 H   0  0  0  0  0  0  0  0  0  0  0  0
    0.7193    1.6001    0.7985 H   0  0  0  0  0  0  0  0  0  0  0  0
    2.9925    2.2566    0.6590 H   0  0  0  0  0  0  0  0  0  0  0  0
   -5.4444    1.9426   -0.4329 H   0  0  0  0  0  0  0  0  0  0  0  0
   -2.1959    2.8552    0.3675 H   0  0  0  0  0  0  0  0  0  0  0  0
   -2.1777    2.5169   -1.3906 H   0  0  0  0  0  0  0  0  0  0  0  0
   -3.5593    3.3161   -0.6462 H   0  0  0  0  0  0  0  0  0  0  0  0
   -6.4640   -0.2789   -0.0186 H   0  0  0  0  0  0  0  0  0  0  0  0
   -4.9503   -2.2246    0.4002 H   0  0  0  0  0  0  0  0  0  0  0  0
    6.4400    2.1393    0.1755 H   0  0  0  0  0  0  0  0  0  0  0  0
    5.1129    2.2380    1.3274 H   0  0  0  0  0  0  0  0  0  0  0  0
    4.8883    2.7287   -0.4101 H   0  0  0  0  0  0  0  0  0  0  0  0
  1 13  1  0  0  0  0
  2 12  1  0  0  0  0
  2 19  1  0  0  0  0
  3  9  2  0  0  0  0
  4  7  1  0  0  0  0
  4  9  1  0  0  0  0
  4 20  1  0  0  0  0
  5  7  1  0  0  0  0
  5 18  2  0  0  0  0
  6  9  1  0  0  0  0
  6 10  2  0  0  0  0
  6 11  1  0  0  0  0
  7  8  2  0  0  0  0
  8 15  1  0  0  0  0
  8 16  1  0  0  0  0
 10 13  1  0  0  0  0
 10 21  1  0  0  0  0
 11 14  2  0  0  0  0
 11 22  1  0  0  0  0
 12 13  2  0  0  0  0
 12 14  1  0  0  0  0
 14 23  1  0  0  0  0
 15 17  2  0  0  0  0
 15 24  1  0  0  0  0
 16 25  1  0  0  0  0
 16 26  1  0  0  0  0
 16 27  1  0  0  0  0
 17 18  1  0  0  0  0
 17 28  1  0  0  0  0
 18 29  1  0  0  0  0
 19 30  1  0  0  0  0
 19 31  1  0  0  0  0
 19 32  1  0  0  0  0
M  END
> <PUBCHEM_COMPOUND_CID>
17395409

> <PUBCHEM_CONFORMER_RMSD>
0.6

> <PUBCHEM_CONFORMER_DIVERSEORDER>
1
26
32
8
25
29
11
27
13
28
2
24
7
31
14
9
20
6
21
23
10
5
30
4
18
19
16
12
3
22
17
15

> <PUBCHEM_MMFF94_PARTIAL_CHARGES>
26
1 -0.19
10 -0.15
11 -0.15
12 0.08
13 0.19
14 -0.15
15 -0.15
16 0.14
17 -0.15
18 0.16
19 0.28
2 -0.36
20 0.37
21 0.15
22 0.15
23 0.15
24 0.15
28 0.15
29 0.15
3 -0.57
4 -0.55
5 -0.62
6 0.09
7 0.43
8 -0.14
9 0.54

> <PUBCHEM_EFFECTIVE_ROTOR_COUNT>
4

> <PUBCHEM_PHARMACOPHORE_FEATURES>
6
1 2 acceptor
1 3 acceptor
1 4 donor
1 5 acceptor
6 5 7 8 15 17 18 rings
6 6 10 11 12 13 14 rings

> <PUBCHEM_HEAVY_ATOM_COUNT>
19

> <PUBCHEM_ATOM_DEF_STEREO_COUNT>
0

> <PUBCHEM_ATOM_UDEF_STEREO_COUNT>
0

> <PUBCHEM_BOND_DEF_STEREO_COUNT>
0

> <PUBCHEM_BOND_UDEF_STEREO_COUNT>
0

> <PUBCHEM_ISOTOPIC_ATOM_COUNT>
0

> <PUBCHEM_COMPONENT_COUNT>
1

> <PUBCHEM_CACTVS_TAUTO_COUNT>
3

> <PUBCHEM_CONFORMER_ID>
01096ED100000001

> <PUBCHEM_MMFF94_ENERGY>
62.7706

> <PUBCHEM_FEATURE_SELFOVERLAP>
30.452

> <PUBCHEM_SHAPE_FINGERPRINT>
10 15 18270124492330281456
10498660 4 18129951190483316861
10608611 8 18410295800130342768
11287383 113 18410292501706255226
11471102 20 18334012809125061762
11595378 159 17560537164988892528
12107183 9 17550960616215772977
12403259 415 18271245023063500749
12596602 18 16773799151726948824
12730499 353 18334851689263172098
12916748 109 18343299275384581785
13081056 2 18410855486045769149
14251764 18 18059583469214270344
14341114 176 18411131459417390829
14573314 32 18411978078869920670
15196674 1 18410293639830468489
15961568 22 18131067100470666628
17844677 252 18336538416971670348
18186145 218 18262231226448745195
200 152 17748828523050749587
20645477 56 18411421669998794608
20645477 70 17968089872050604214
21267235 1 18337101354035031935
21652331 79 18411983563712183309
221357 26 18333734645404891829
23402539 116 18340494374141041327
23402655 69 18186802482494193238
23559900 14 18410014363829404314
245318 6 16769277822960391156
2916195 48 18411706448032469152
3004659 81 18341327890487542846
351380 180 18412827979951984945
3545911 37 18408602543839393840
4028521 119 18200882872087813029
4072396 5 18261404338909170282
4214541 1 18338234968066953133
495365 180 17603878767279568994
4990 188 18335135444487754358
5104073 3 18412824724145144961
5281201 14 18335697282170986804
542803 24 17022900159898560681
633830 44 18337960085564543735
77779 3 18409448106988489863
90127 26 18342728658867012570
9709674 26 18411413982018267451
9971528 1 17917708024377493846

> <PUBCHEM_SHAPE_MULTIPOLES>
362.04
12.39
2.15
0.68
0.6
0.44
-0.01
2.91
-0.48
0.38
-0.14
0.08
0.01
1.01

> <PUBCHEM_SHAPE_SELFOVERLAP>
777.753

> <PUBCHEM_SHAPE_VOLUME>
201.6

> <PUBCHEM_COORDINATE_TYPE>
2
5
10

$$$$

