23724736
  -OEChem-07051213082D

 92 97  0     1  0  0  0  0  0999 V2000
    9.4641    0.2494    0.0000 O   0  0  0  0  0  0  0  0  0  0  0  0
    6.0010    1.2939    0.0000 O   0  0  0  0  0  0  0  0  0  0  0  0
    8.6155    1.7593    0.0000 O   0  0  0  0  0  0  0  0  0  0  0  0
    5.1350    2.7939    0.0000 O   0  0  0  0  0  0  0  0  0  0  0  0
   12.0562   -0.2806    0.0000 O   0  0  0  0  0  0  0  0  0  0  0  0
   12.0793    1.7193    0.0000 O   0  0  0  0  0  0  0  0  0  0  0  0
   10.3590    2.7392    0.0000 O   0  0  0  0  0  0  0  0  0  0  0  0
    3.4030   -0.2061    0.0000 O   0  0  0  0  0  0  0  0  0  0  0  0
    5.1350   -1.2061    0.0000 O   0  0  0  0  0  0  0  0  0  0  0  0
    3.4030    1.7939    0.0000 O   0  0  0  0  0  0  0  0  0  0  0  0
   11.1729   -1.7705    0.0000 O   0  0  0  0  0  0  0  0  0  0  0  0
    6.8671   -1.2061    0.0000 O   0  0  0  0  0  0  0  0  0  0  0  0
    6.8671    4.7939    0.0000 O   0  3  0  0  0  0  0  0  0  0  0  0
   10.3972    4.8181    0.0000 O   0  0  0  0  0  0  0  0  0  0  0  0
   10.2896   -3.2604    0.0000 O   0  0  0  0  0  0  0  0  0  0  0  0
    4.2690    7.2939    0.0000 O   0  0  0  0  0  0  0  0  0  0  0  0
    2.5369    6.2939    0.0000 O   0  0  0  0  0  0  0  0  0  0  0  0
   13.7072   -7.3002    0.0000 O   0  0  0  0  0  0  0  0  0  0  0  0
   15.4507   -6.3202    0.0000 O   0  0  0  0  0  0  0  0  0  0  0  0
   11.1960    0.2294    0.0000 C   0  0  1  0  0  0  0  0  0  0  0  0
   11.2076    1.2293    0.0000 C   0  0  1  0  0  0  0  0  0  0  0  0
   10.3243   -0.2606    0.0000 C   0  0  1  0  0  0  0  0  0  0  0  0
   10.3474    1.7393    0.0000 C   0  0  2  0  0  0  0  0  0  0  0  0
    4.2690    0.2939    0.0000 C   0  0  1  0  0  0  0  0  0  0  0  0
    5.1350   -0.2061    0.0000 C   0  0  1  0  0  0  0  0  0  0  0  0
    4.2690    1.2939    0.0000 C   0  0  2  0  0  0  0  0  0  0  0  0
    6.0010    0.2939    0.0000 C   0  0  1  0  0  0  0  0  0  0  0  0
    9.4756    1.2494    0.0000 C   0  0  1  0  0  0  0  0  0  0  0  0
    5.1350    1.7939    0.0000 C   0  0  1  0  0  0  0  0  0  0  0  0
   10.3127   -1.2605    0.0000 C   0  0  0  0  0  0  0  0  0  0  0  0
    6.8671   -0.2061    0.0000 C   0  0  0  0  0  0  0  0  0  0  0  0
    8.6270    2.7593    0.0000 C   0  0  0  0  0  0  0  0  0  0  0  0
    6.0010    3.2939    0.0000 C   0  0  0  0  0  0  0  0  0  0  0  0
    7.7331    3.2939    0.0000 C   0  0  0  0  0  0  0  0  0  0  0  0
    6.8671    2.7939    0.0000 C   0  0  0  0  0  0  0  0  0  0  0  0
    6.0010    4.2939    0.0000 C   0  0  0  0  0  0  0  0  0  0  0  0
    7.7331    4.2939    0.0000 C   0  0  0  0  0  0  0  0  0  0  0  0
    9.5331    3.2731    0.0000 C   0  0  0  0  0  0  0  0  0  0  0  0
    8.6270    4.8286    0.0000 C   0  0  0  0  0  0  0  0  0  0  0  0
    9.5331    4.3147    0.0000 C   0  0  0  0  0  0  0  0  0  0  0  0
    5.1350    4.7939    0.0000 C   0  0  0  0  0  0  0  0  0  0  0  0
   11.1613   -2.7704    0.0000 C   0  0  0  0  0  0  0  0  0  0  0  0
    5.1350    5.7939    0.0000 C   0  0  0  0  0  0  0  0  0  0  0  0
    4.2690    4.2939    0.0000 C   0  0  0  0  0  0  0  0  0  0  0  0
   12.0215   -3.2804    0.0000 C   0  0  0  0  0  0  0  0  0  0  0  0
    4.2690    6.2939    0.0000 C   0  0  0  0  0  0  0  0  0  0  0  0
    3.4030    4.7939    0.0000 C   0  0  0  0  0  0  0  0  0  0  0  0
    3.4030    5.7939    0.0000 C   0  0  0  0  0  0  0  0  0  0  0  0
   12.0100   -4.2803    0.0000 C   0  0  0  0  0  0  0  0  0  0  0  0
   12.8701   -4.7903    0.0000 C   0  0  0  0  0  0  0  0  0  0  0  0
   12.8586   -5.7902    0.0000 C   0  0  0  0  0  0  0  0  0  0  0  0
   13.7419   -4.3004    0.0000 C   0  0  0  0  0  0  0  0  0  0  0  0
   13.7188   -6.3002    0.0000 C   0  0  0  0  0  0  0  0  0  0  0  0
   14.6021   -4.8103    0.0000 C   0  0  0  0  0  0  0  0  0  0  0  0
   14.5905   -5.8103    0.0000 C   0  0  0  0  0  0  0  0  0  0  0  0
   11.1889   -0.3906    0.0000 H   0  0  0  0  0  0  0  0  0  0  0  0
   11.2148    1.8493    0.0000 H   0  0  0  0  0  0  0  0  0  0  0  0
    9.7838   -0.5643    0.0000 H   0  0  0  0  0  0  0  0  0  0  0  0
   10.8879    2.0431    0.0000 H   0  0  0  0  0  0  0  0  0  0  0  0
    4.2690   -0.3261    0.0000 H   0  0  0  0  0  0  0  0  0  0  0  0
    5.6720   -0.5161    0.0000 H   0  0  0  0  0  0  0  0  0  0  0  0
    4.2690    1.9139    0.0000 H   0  0  0  0  0  0  0  0  0  0  0  0
    6.5380    0.6039    0.0000 H   0  0  0  0  0  0  0  0  0  0  0  0
    8.9352    0.9456    0.0000 H   0  0  0  0  0  0  0  0  0  0  0  0
    4.5981    2.1039    0.0000 H   0  0  0  0  0  0  0  0  0  0  0  0
    9.7034   -1.1458    0.0000 H   0  0  0  0  0  0  0  0  0  0  0  0
   10.0939   -1.8406    0.0000 H   0  0  0  0  0  0  0  0  0  0  0  0
    7.4776   -0.3137    0.0000 H   0  0  0  0  0  0  0  0  0  0  0  0
    7.0791    0.3765    0.0000 H   0  0  0  0  0  0  0  0  0  0  0  0
   12.5967    0.0232    0.0000 H   0  0  0  0  0  0  0  0  0  0  0  0
   12.6127    1.4031    0.0000 H   0  0  0  0  0  0  0  0  0  0  0  0
   10.8994    3.0430    0.0000 H   0  0  0  0  0  0  0  0  0  0  0  0
    3.4030   -0.8261    0.0000 H   0  0  0  0  0  0  0  0  0  0  0  0
    4.5981   -1.5161    0.0000 H   0  0  0  0  0  0  0  0  0  0  0  0
    2.8660    1.4839    0.0000 H   0  0  0  0  0  0  0  0  0  0  0  0
    6.8671    2.1739    0.0000 H   0  0  0  0  0  0  0  0  0  0  0  0
   10.0688    2.9610    0.0000 H   0  0  0  0  0  0  0  0  0  0  0  0
    7.4040   -1.5161    0.0000 H   0  0  0  0  0  0  0  0  0  0  0  0
    8.6199    5.4485    0.0000 H   0  0  0  0  0  0  0  0  0  0  0  0
    5.6720    6.1039    0.0000 H   0  0  0  0  0  0  0  0  0  0  0  0
    4.2690    3.6739    0.0000 H   0  0  0  0  0  0  0  0  0  0  0  0
   12.5620   -2.9766    0.0000 H   0  0  0  0  0  0  0  0  0  0  0  0
   10.3948    5.4381    0.0000 H   0  0  0  0  0  0  0  0  0  0  0  0
    2.8660    4.4839    0.0000 H   0  0  0  0  0  0  0  0  0  0  0  0
   11.4695   -4.5841    0.0000 H   0  0  0  0  0  0  0  0  0  0  0  0
    3.7320    7.6039    0.0000 H   0  0  0  0  0  0  0  0  0  0  0  0
    2.0000    5.9839    0.0000 H   0  0  0  0  0  0  0  0  0  0  0  0
   12.3181   -6.0940    0.0000 H   0  0  0  0  0  0  0  0  0  0  0  0
   13.7491   -3.6804    0.0000 H   0  0  0  0  0  0  0  0  0  0  0  0
   15.1426   -4.5066    0.0000 H   0  0  0  0  0  0  0  0  0  0  0  0
   13.1667   -7.6039    0.0000 H   0  0  0  0  0  0  0  0  0  0  0  0
   15.9912   -6.0165    0.0000 H   0  0  0  0  0  0  0  0  0  0  0  0
  1 22  1  0  0  0  0
  1 28  1  0  0  0  0
  2 27  1  0  0  0  0
  2 29  1  0  0  0  0
 28  3  1  1  0  0  0
  3 32  1  0  0  0  0
 29  4  1  6  0  0  0
  4 33  1  0  0  0  0
 20  5  1  6  0  0  0
  5 70  1  0  0  0  0
 21  6  1  1  0  0  0
  6 71  1  0  0  0  0
 23  7  1  6  0  0  0
  7 72  1  0  0  0  0
 24  8  1  6  0  0  0
  8 73  1  0  0  0  0
 25  9  1  1  0  0  0
  9 74  1  0  0  0  0
 26 10  1  1  0  0  0
 10 75  1  0  0  0  0
 11 30  1  0  0  0  0
 11 42  1  0  0  0  0
 12 31  1  0  0  0  0
 12 78  1  0  0  0  0
 13 36  1  0  0  0  0
 13 37  2  0  0  0  0
 14 40  1  0  0  0  0
 14 83  1  0  0  0  0
 15 42  2  0  0  0  0
 16 46  1  0  0  0  0
 16 86  1  0  0  0  0
 17 48  1  0  0  0  0
 17 87  1  0  0  0  0
 18 53  1  0  0  0  0
 18 91  1  0  0  0  0
 19 55  1  0  0  0  0
 19 92  1  0  0  0  0
 20 21  1  0  0  0  0
 20 22  1  0  0  0  0
 20 56  1  0  0  0  0
 21 23  1  0  0  0  0
 21 57  1  0  0  0  0
 22 30  1  1  0  0  0
 22 58  1  0  0  0  0
 23 28  1  0  0  0  0
 23 59  1  0  0  0  0
 24 25  1  0  0  0  0
 24 26  1  0  0  0  0
 24 60  1  0  0  0  0
 25 27  1  0  0  0  0
 25 61  1  0  0  0  0
 26 29  1  0  0  0  0
 26 62  1  0  0  0  0
 27 31  1  6  0  0  0
 27 63  1  0  0  0  0
 28 64  1  0  0  0  0
 29 65  1  0  0  0  0
 30 66  1  0  0  0  0
 30 67  1  0  0  0  0
 31 68  1  0  0  0  0
 31 69  1  0  0  0  0
 32 34  1  0  0  0  0
 32 38  2  0  0  0  0
 33 35  1  0  0  0  0
 33 36  2  0  0  0  0
 34 35  2  0  0  0  0
 34 37  1  0  0  0  0
 35 76  1  0  0  0  0
 36 41  1  0  0  0  0
 37 39  1  0  0  0  0
 38 40  1  0  0  0  0
 38 77  1  0  0  0  0
 39 40  2  0  0  0  0
 39 79  1  0  0  0  0
 41 43  2  0  0  0  0
 41 44  1  0  0  0  0
 42 45  1  0  0  0  0
 43 46  1  0  0  0  0
 43 80  1  0  0  0  0
 44 47  2  0  0  0  0
 44 81  1  0  0  0  0
 45 49  2  0  0  0  0
 45 82  1  0  0  0  0
 46 48  2  0  0  0  0
 47 48  1  0  0  0  0
 47 84  1  0  0  0  0
 49 50  1  0  0  0  0
 49 85  1  0  0  0  0
 50 51  2  0  0  0  0
 50 52  1  0  0  0  0
 51 53  1  0  0  0  0
 51 88  1  0  0  0  0
 52 54  2  0  0  0  0
 52 89  1  0  0  0  0
 53 55  2  0  0  0  0
 54 55  1  0  0  0  0
 54 90  1  0  0  0  0
M  CHG  1  13   1
M  END
> <PUBCHEM_COMPOUND_CID>
23724736

> <PUBCHEM_COMPOUND_CANONICALIZED>
1

> <PUBCHEM_CACTVS_COMPLEXITY>
1280

> <PUBCHEM_CACTVS_HBOND_ACCEPTOR>
18

> <PUBCHEM_CACTVS_HBOND_DONOR>
12

> <PUBCHEM_CACTVS_ROTATABLE_BOND>
11

> <PUBCHEM_CACTVS_SUBSKEYS>
AAADcfB8PgAAAAAAAAAAAAAAAAAAAAAAAAA0aNECAAAAAACR9AAAGgAACAAADBSwmAMwDsAABkCIAqDSCAICCAAkIAAIiAFGiMgdNzaGNR6ieWOl4BUPuYfK7PzOIAABCAAIQABAAAIQABCAAAAAAAAAAA==

> <PUBCHEM_IUPAC_OPENEYE_NAME>
[(2R,3S,4S,5R,6S)-6-[2-(3,4-dihydroxyphenyl)-7-hydroxy-3-[(2S,3R,4S,5S,6R)-3,4,5-trihydroxy-6-(hydroxymethyl)tetrahydropyran-2-yl]oxy-chromenylium-5-yl]oxy-3,4,5-trihydroxy-tetrahydropyran-2-yl]methyl (E)-3-(3,4-dihydroxyphenyl)prop-2-enoate

> <PUBCHEM_IUPAC_CAS_NAME>
(E)-3-(3,4-dihydroxyphenyl)-2-propenoic acid [(2R,3S,4S,5R,6S)-6-[[2-(3,4-dihydroxyphenyl)-7-hydroxy-3-[[(2S,3R,4S,5S,6R)-3,4,5-trihydroxy-6-(hydroxymethyl)-2-oxanyl]oxy]-1-benzopyrylium-5-yl]oxy]-3,4,5-trihydroxy-2-oxanyl]methyl ester

> <PUBCHEM_IUPAC_NAME>
[(2R,3S,4S,5R,6S)-6-[2-(3,4-dihydroxyphenyl)-7-hydroxy-3-[(2S,3R,4S,5S,6R)-3,4,5-trihydroxy-6-(hydroxymethyl)oxan-2-yl]oxychromenylium-5-yl]oxy-3,4,5-trihydroxyoxan-2-yl]methyl (E)-3-(3,4-dihydroxyphenyl)prop-2-enoate

> <PUBCHEM_IUPAC_SYSTEMATIC_NAME>
[(2R,3S,4S,5R,6S)-6-[2-[3,4-bis(oxidanyl)phenyl]-3-[(2S,3R,4S,5S,6R)-6-(hydroxymethyl)-3,4,5-tris(oxidanyl)oxan-2-yl]oxy-7-oxidanyl-chromenylium-5-yl]oxy-3,4,5-tris(oxidanyl)oxan-2-yl]methyl (E)-3-[3,4-bis(oxidanyl)phenyl]prop-2-enoate

> <PUBCHEM_IUPAC_TRADITIONAL_NAME>
(E)-3-(3,4-dihydroxyphenyl)acrylic acid [(2R,3S,4S,5R,6S)-6-[[2-(3,4-dihydroxyphenyl)-7-hydroxy-3-[(2S,3R,4S,5S,6R)-3,4,5-trihydroxy-6-methylol-tetrahydropyran-2-yl]oxy-1-benzopyrylium-5-yl]oxy]-3,4,5-trihydroxy-tetrahydropyran-2-yl]methyl ester

> <PUBCHEM_IUPAC_INCHI>
InChI=1S/C36H36O19/c37-12-25-28(44)30(46)32(48)36(54-25)53-24-11-17-22(51-34(24)15-3-5-19(40)21(42)8-15)9-16(38)10-23(17)52-35-33(49)31(47)29(45)26(55-35)13-50-27(43)6-2-14-1-4-18(39)20(41)7-14/h1-11,25-26,28-33,35-37,44-49H,12-13H2,(H4-,38,39,40,41,42,43)/p+1/t25-,26-,28-,29-,30+,31+,32-,33-,35-,36-/m1/s1

> <PUBCHEM_IUPAC_INCHIKEY>
DBWNTBWELCRVQD-AQAMAIGXSA-O

> <PUBCHEM_EXACT_MASS>
773.192904

> <PUBCHEM_MOLECULAR_FORMULA>
C36H37O19+

> <PUBCHEM_MOLECULAR_WEIGHT>
773.66758

> <PUBCHEM_OPENEYE_CAN_SMILES>
C1=CC(=C(C=C1C=CC(=O)OCC2C(C(C(C(O2)OC3=CC(=CC4=[O+]C(=C(C=C34)OC5C(C(C(C(O5)CO)O)O)O)C6=CC(=C(C=C6)O)O)O)O)O)O)O)O

> <PUBCHEM_OPENEYE_ISO_SMILES>
C1=CC(=C(C=C1/C=C/C(=O)OC[C@@H]2[C@H]([C@@H]([C@H]([C@@H](O2)OC3=CC(=CC4=[O+]C(=C(C=C34)O[C@H]5[C@@H]([C@H]([C@@H]([C@H](O5)CO)O)O)O)C6=CC(=C(C=C6)O)O)O)O)O)O)O)O

> <PUBCHEM_CACTVS_TPSA>
307

> <PUBCHEM_MONOISOTOPIC_WEIGHT>
773.192904

> <PUBCHEM_TOTAL_CHARGE>
1

> <PUBCHEM_HEAVY_ATOM_COUNT>
55

> <PUBCHEM_ATOM_DEF_STEREO_COUNT>
10

> <PUBCHEM_ATOM_UDEF_STEREO_COUNT>
0

> <PUBCHEM_BOND_DEF_STEREO_COUNT>
1

> <PUBCHEM_BOND_UDEF_STEREO_COUNT>
0

> <PUBCHEM_ISOTOPIC_ATOM_COUNT>
0

> <PUBCHEM_COMPONENT_COUNT>
1

> <PUBCHEM_CACTVS_TAUTO_COUNT>
990

> <PUBCHEM_COORDINATE_TYPE>
1
5
255

> <PUBCHEM_BONDANNOTATIONS>
26  10  5
13  36  8
13  37  8
22  30  5
27  31  6
28  3  5
32  34  8
32  38  8
33  35  8
33  36  8
34  35  8
34  37  8
37  39  8
38  40  8
39  40  8
29  4  6
41  43  8
41  44  8
43  46  8
44  47  8
46  48  8
47  48  8
20  5  6
50  51  8
50  52  8
51  53  8
52  54  8
53  55  8
54  55  8
21  6  5
23  7  6
24  8  6
25  9  5

$$$$

