440418
  -OEChem-07051212493D

 40 40  0     1  0  0  0  0  0999 V2000
    4.2797    0.4413    0.0897 P   0  0  0  0  0  0  0  0  0  0  0  0
   -1.9833   -0.5390   -0.9668 O   0  0  0  0  0  0  0  0  0  0  0  0
    0.0641   -0.4507    0.2171 O   0  0  0  0  0  0  0  0  0  0  0  0
   -2.1982    3.1450    0.9401 O   0  0  0  0  0  0  0  0  0  0  0  0
   -3.9472    1.5300   -0.4854 O   0  0  0  0  0  0  0  0  0  0  0  0
    0.2672    2.2689   -0.2559 O   0  0  0  0  0  0  0  0  0  0  0  0
   -3.6671   -2.6336   -0.4586 O   0  0  0  0  0  0  0  0  0  0  0  0
    2.8469   -0.2621    0.3412 O   0  0  0  0  0  0  0  0  0  0  0  0
   -0.1994   -3.0315    1.1812 O   0  0  0  0  0  0  0  0  0  0  0  0
    5.1516   -0.7525   -0.5658 O   0  0  0  0  0  0  0  0  0  0  0  0
    4.0088    1.4327   -1.1588 O   0  0  0  0  0  0  0  0  0  0  0  0
    4.8938    1.0847    1.2986 O   0  0  0  0  0  0  0  0  0  0  0  0
   -1.8810    1.7690    0.7495 C   0  0  1  0  0  0  0  0  0  0  0  0
   -3.1651    0.9555    0.5645 C   0  0  2  0  0  0  0  0  0  0  0  0
   -0.9826    1.6243   -0.4788 C   0  0  2  0  0  0  0  0  0  0  0  0
   -2.8269   -0.4946    0.1946 C   0  0  1  0  0  0  0  0  0  0  0  0
   -0.7398    0.1472   -0.7990 C   0  0  2  0  0  0  0  0  0  0  0  0
   -4.0707   -1.3194   -0.1189 C   0  0  0  0  0  0  0  0  0  0  0  0
    0.8740   -1.4897   -0.3105 C   0  0  1  0  0  0  0  0  0  0  0  0
    2.2029   -0.8936   -0.7605 C   0  0  0  0  0  0  0  0  0  0  0  0
    1.0726   -2.5317    0.7824 C   0  0  0  0  0  0  0  0  0  0  0  0
   -1.3513    1.4346    1.6498 H   0  0  0  0  0  0  0  0  0  0  0  0
   -3.7753    1.0011    1.4728 H   0  0  0  0  0  0  0  0  0  0  0  0
   -1.4534    2.1258   -1.3328 H   0  0  0  0  0  0  0  0  0  0  0  0
   -2.2901   -0.9793    1.0196 H   0  0  0  0  0  0  0  0  0  0  0  0
   -0.2172    0.1085   -1.7628 H   0  0  0  0  0  0  0  0  0  0  0  0
   -4.6249   -0.9190   -0.9737 H   0  0  0  0  0  0  0  0  0  0  0  0
   -4.7414   -1.3702    0.7439 H   0  0  0  0  0  0  0  0  0  0  0  0
    0.3692   -1.9767   -1.1557 H   0  0  0  0  0  0  0  0  0  0  0  0
   -1.3586    3.6284    1.0239 H   0  0  0  0  0  0  0  0  0  0  0  0
   -3.5134    1.3353   -1.3331 H   0  0  0  0  0  0  0  0  0  0  0  0
    0.8070    2.1484   -1.0557 H   0  0  0  0  0  0  0  0  0  0  0  0
    2.8499   -1.6808   -1.1605 H   0  0  0  0  0  0  0  0  0  0  0  0
    2.0415   -0.1452   -1.5418 H   0  0  0  0  0  0  0  0  0  0  0  0
    1.5324   -2.0965    1.6751 H   0  0  0  0  0  0  0  0  0  0  0  0
    1.6896   -3.3684    0.4404 H   0  0  0  0  0  0  0  0  0  0  0  0
   -3.0628   -2.5692   -1.2178 H   0  0  0  0  0  0  0  0  0  0  0  0
   -0.6156   -3.4323    0.3991 H   0  0  0  0  0  0  0  0  0  0  0  0
    6.1071   -0.6062   -0.7320 H   0  0  0  0  0  0  0  0  0  0  0  0
    4.7308    2.0242   -1.4605 H   0  0  0  0  0  0  0  0  0  0  0  0
  1  8  1  0  0  0  0
  1 10  1  0  0  0  0
  1 11  1  0  0  0  0
  1 12  2  0  0  0  0
  2 16  1  0  0  0  0
  2 17  1  0  0  0  0
  3 17  1  0  0  0  0
  3 19  1  0  0  0  0
  4 13  1  0  0  0  0
  4 30  1  0  0  0  0
  5 14  1  0  0  0  0
  5 31  1  0  0  0  0
  6 15  1  0  0  0  0
  6 32  1  0  0  0  0
  7 18  1  0  0  0  0
  7 37  1  0  0  0  0
  8 20  1  0  0  0  0
  9 21  1  0  0  0  0
  9 38  1  0  0  0  0
 10 39  1  0  0  0  0
 11 40  1  0  0  0  0
 13 14  1  0  0  0  0
 13 15  1  0  0  0  0
 13 22  1  0  0  0  0
 14 16  1  0  0  0  0
 14 23  1  0  0  0  0
 15 17  1  0  0  0  0
 15 24  1  0  0  0  0
 16 18  1  0  0  0  0
 16 25  1  0  0  0  0
 17 26  1  0  0  0  0
 18 27  1  0  0  0  0
 18 28  1  0  0  0  0
 19 20  1  0  0  0  0
 19 21  1  0  0  0  0
 19 29  1  0  0  0  0
 20 33  1  0  0  0  0
 20 34  1  0  0  0  0
 21 35  1  0  0  0  0
 21 36  1  0  0  0  0
M  END
> <PUBCHEM_COMPOUND_CID>
440418

> <PUBCHEM_CONFORMER_RMSD>
0.8

> <PUBCHEM_CONFORMER_DIVERSEORDER>
1
161
225
112
111
221
240
192
153
257
88
47
93
241
76
191
166
211
113
219
252
154
53
34
244
259
174
176
74
168
165
40
101
234
188
260
37
114
66
69
205
141
64
220
223
160
258
228
5
184
157
19
250
255
120
208
36
121
207
248
170
115
116
126
197
81
217
214
25
85
156
199
169
15
44
178
28
137
139
29
242
38
20
210
202
119
230
52
68
13
12
218
245
65
209
83
155
216
243
256
104
89
95
212
172
231
183
100
50
2
22
58
193
142
158
232
57
146
43
163
86
251
152
237
24
21
227
136
123
239
135
215
109
194
51
107
46
200
23
195
128
131
8
187
55
48
144
41
181
9
127
11
171
133
77
91
26
229
148
32
14
196
151
59
118
132
143
140
159
103
167
84
98
129
246
17
102
97
213
3
164
189
18
222
105
61
254
56
186
70
117
82
39
203
201
92
122
175
45
162
78
4
249
253
42
94
108
138
87
72
206
224
35
190
31
71
33
75
7
173
63
110
99
79
247
67
60
30
149
180
106
238
185
49
124
73
150
27
145
62
204
6
96
125
236
80
54
130
177
235
16
233
147
134
179
10
182
198
226
90

> <PUBCHEM_MMFF94_PARTIAL_CHARGES>
28
1 1.51
10 -0.77
11 -0.77
12 -0.7
13 0.28
14 0.28
15 0.28
16 0.28
17 0.56
18 0.28
19 0.28
2 -0.56
20 0.28
21 0.28
3 -0.56
30 0.4
31 0.4
32 0.4
37 0.4
38 0.4
39 0.5
4 -0.68
40 0.5
5 -0.68
6 -0.68
7 -0.68
8 -0.55
9 -0.68

> <PUBCHEM_EFFECTIVE_ROTOR_COUNT>
8.2

> <PUBCHEM_PHARMACOPHORE_FEATURES>
17
1 10 acceptor
1 11 acceptor
1 12 acceptor
1 2 acceptor
1 3 acceptor
1 4 acceptor
1 4 donor
1 5 acceptor
1 5 donor
1 6 acceptor
1 6 donor
1 7 acceptor
1 7 donor
1 9 acceptor
1 9 donor
4 1 10 11 12 anion
6 2 13 14 15 16 17 rings

> <PUBCHEM_HEAVY_ATOM_COUNT>
21

> <PUBCHEM_ATOM_DEF_STEREO_COUNT>
5

> <PUBCHEM_ATOM_UDEF_STEREO_COUNT>
1

> <PUBCHEM_BOND_DEF_STEREO_COUNT>
0

> <PUBCHEM_BOND_UDEF_STEREO_COUNT>
0

> <PUBCHEM_ISOTOPIC_ATOM_COUNT>
0

> <PUBCHEM_COMPONENT_COUNT>
1

> <PUBCHEM_CACTVS_TAUTO_COUNT>
1

> <PUBCHEM_CONFORMER_ID>
0006B86200000001

> <PUBCHEM_MMFF94_ENERGY>
18.3801

> <PUBCHEM_FEATURE_SELFOVERLAP>
86.37

> <PUBCHEM_SHAPE_FINGERPRINT>
10498660 4 18409452517656366660
1100329 8 18123470471475739251
11132069 177 18411981381684180660
11578080 2 17415568876180180813
11806522 49 18339080372265570055
13032168 30 18409725149638248139
13140716 1 18051691040503840698
13214271 11 18334862718480413821
14081887 123 18334867133801811155
14178342 30 18340199803603550509
14787075 74 18267584606914972271
15196674 1 18410011022814586836
16945 1 18263635329200273477
17349148 13 17989483000803512062
17834072 14 12031786968134609898
18186145 218 18341049726656116174
21524375 3 18409448133111968430
23402539 116 18411423903814500278
23557571 272 18334566936799095046
23559900 14 17972602357480156142
34934 24 18339365274873797277
474 4 18200867478576870892
5104073 3 18334858359146949346
5486654 2 18340485560731402559
7097593 13 17549831422043140426
7364860 26 17977665634549088822

> <PUBCHEM_SHAPE_MULTIPOLES>
371.46
8.8
3.08
1.03
7.96
0.42
-0.08
-1.06
0.13
-1.91
-0.79
0.35
-0.03
-0.46

> <PUBCHEM_SHAPE_SELFOVERLAP>
726.366

> <PUBCHEM_SHAPE_VOLUME>
223.3

> <PUBCHEM_COORDINATE_TYPE>
2
5
10

$$$$

