442994
  -OEChem-07051213002D

 40 43  0     1  0  0  0  0  0999 V2000
    2.0000   -1.6391    0.0000 O   0  0  0  0  0  0  0  0  0  0  0  0
    8.1803   -1.3130    0.0000 O   0  0  0  0  0  0  0  0  0  0  0  0
    8.6286    0.3601    0.0000 O   0  0  0  0  0  0  0  0  0  0  0  0
    4.2547    1.3097    0.0000 N   0  0  0  0  0  0  0  0  0  0  0  0
    2.5004   -0.7728    0.0000 C   0  0  2  0  0  0  0  0  0  0  0  0
    3.0004   -1.6388    0.0000 C   0  0  1  0  0  0  0  0  0  0  0  0
    4.9913    0.3271    0.0000 C   0  0  3  0  0  0  0  0  0  0  0  0
    4.7325   -0.6388    0.0000 C   0  0  3  0  0  0  0  0  0  0  0  0
    6.4372   -1.6834    0.0000 C   0  0  0  0  0  0  0  0  0  0  0  0
    6.8560   -0.1206    0.0000 C   0  0  0  0  0  0  0  0  0  0  0  0
    7.2143   -1.0541    0.0000 C   0  0  0  0  0  0  0  0  0  0  0  0
    3.7547    2.1758    0.0000 C   0  0  0  0  0  0  0  0  0  0  0  0
    8.8874   -0.6058    0.0000 C   0  0  0  0  0  0  0  0  0  0  0  0
    9.8533   -0.8647    0.0000 C   0  0  0  0  0  0  0  0  0  0  0  0
   10.5604   -0.1576    0.0000 C   0  0  0  0  0  0  0  0  0  0  0  0
   10.1121   -1.8306    0.0000 C   0  0  0  0  0  0  0  0  0  0  0  0
   11.5263   -0.4164    0.0000 C   0  0  0  0  0  0  0  0  0  0  0  0
   10.3016    0.8084    0.0000 C   0  0  0  0  0  0  0  0  0  0  0  0
   12.2334    0.2907    0.0000 C   0  0  0  0  0  0  0  0  0  0  0  0
   11.0087    1.5155    0.0000 C   0  0  0  0  0  0  0  0  0  0  0  0
   11.9746    1.2567    0.0000 C   0  0  0  0  0  0  0  0  0  0  0  0
    2.1904   -0.2359    0.0000 H   0  0  0  0  0  0  0  0  0  0  0  0
    3.3104   -2.1758    0.0000 H   0  0  0  0  0  0  0  0  0  0  0  0
    5.4582    1.0374    0.0000 H   0  0  0  0  0  0  0  0  0  0  0  0
    5.4190   -0.1375    0.0000 H   0  0  0  0  0  0  0  0  0  0  0  0
    6.0555   -2.1720    0.0000 H   0  0  0  0  0  0  0  0  0  0  0  0
    6.8794   -2.1180    0.0000 H   0  0  0  0  0  0  0  0  0  0  0  0
    7.4675   -0.0182    0.0000 H   0  0  0  0  0  0  0  0  0  0  0  0
    6.8776    0.4991    0.0000 H   0  0  0  0  0  0  0  0  0  0  0  0
    7.6292   -0.5934    0.0000 H   0  0  0  0  0  0  0  0  0  0  0  0
    4.2916    2.4858    0.0000 H   0  0  0  0  0  0  0  0  0  0  0  0
    3.4447    2.7127    0.0000 H   0  0  0  0  0  0  0  0  0  0  0  0
    3.2178    1.8658    0.0000 H   0  0  0  0  0  0  0  0  0  0  0  0
    9.6737   -2.2690    0.0000 H   0  0  0  0  0  0  0  0  0  0  0  0
   10.7110   -1.9911    0.0000 H   0  0  0  0  0  0  0  0  0  0  0  0
   11.6868   -1.0152    0.0000 H   0  0  0  0  0  0  0  0  0  0  0  0
    9.7027    0.9688    0.0000 H   0  0  0  0  0  0  0  0  0  0  0  0
   12.8323    0.1303    0.0000 H   0  0  0  0  0  0  0  0  0  0  0  0
   10.8482    2.1144    0.0000 H   0  0  0  0  0  0  0  0  0  0  0  0
   12.4130    1.6951    0.0000 H   0  0  0  0  0  0  0  0  0  0  0  0
  5  1  1  1  0  0  0
  6  1  1  1  0  0  0
  2 11  1  0  0  0  0
  2 13  1  0  0  0  0
  3 13  2  0  0  0  0
  4  7  1  0  0  0  0
  4  8  1  0  0  0  0
  4 12  1  0  0  0  0
  5  6  1  0  0  0  0
  5  7  1  0  0  0  0
  5 22  1  0  0  0  0
  6  8  1  0  0  0  0
  6 23  1  0  0  0  0
  7 10  1  0  0  0  0
  7 24  1  0  0  0  0
  8  9  1  0  0  0  0
  8 25  1  0  0  0  0
  9 11  1  0  0  0  0
  9 26  1  0  0  0  0
  9 27  1  0  0  0  0
 10 11  1  0  0  0  0
 10 28  1  0  0  0  0
 10 29  1  0  0  0  0
 11 30  1  0  0  0  0
 12 31  1  0  0  0  0
 12 32  1  0  0  0  0
 12 33  1  0  0  0  0
 13 14  1  0  0  0  0
 14 15  1  0  0  0  0
 14 16  2  0  0  0  0
 15 17  2  0  0  0  0
 15 18  1  0  0  0  0
 16 34  1  0  0  0  0
 16 35  1  0  0  0  0
 17 19  1  0  0  0  0
 17 36  1  0  0  0  0
 18 20  2  0  0  0  0
 18 37  1  0  0  0  0
 19 21  2  0  0  0  0
 19 38  1  0  0  0  0
 20 21  1  0  0  0  0
 20 39  1  0  0  0  0
 21 40  1  0  0  0  0
M  END
> <PUBCHEM_COMPOUND_CID>
442994

> <PUBCHEM_COMPOUND_CANONICALIZED>
1

> <PUBCHEM_CACTVS_COMPLEXITY>
439

> <PUBCHEM_CACTVS_HBOND_ACCEPTOR>
4

> <PUBCHEM_CACTVS_HBOND_DONOR>
0

> <PUBCHEM_CACTVS_ROTATABLE_BOND>
4

> <PUBCHEM_CACTVS_SUBSKEYS>
AAADceB6MAAAAAAAAAAAAAAAEgAAAWAAAAA8WIAABgAAAAABAAAAHgAAAAAADDzhmAYyCIMABACIAiDSCAACAAAgAAAIiAEIAMgKJDKAtRCHIAAmwAGYqIfY6KyOAAAAAAAAAAAAAAAAAAAAAAAAAAAAAA==

> <PUBCHEM_IUPAC_INCHI>
InChI=1S/C17H19NO3/c1-10(11-6-4-3-5-7-11)17(19)20-12-8-13-15-16(21-15)14(9-12)18(13)2/h3-7,12-16H,1,8-9H2,2H3/t12?,13?,14?,15-,16+

> <PUBCHEM_IUPAC_INCHIKEY>
JJNVDCBKBUSUII-SVFSVNPNSA-N

> <PUBCHEM_XLOGP3_AA>
2.6

> <PUBCHEM_EXACT_MASS>
285.136493

> <PUBCHEM_MOLECULAR_FORMULA>
C17H19NO3

> <PUBCHEM_MOLECULAR_WEIGHT>
285.33766

> <PUBCHEM_OPENEYE_CAN_SMILES>
CN1C2CC(CC1C3C2O3)OC(=O)C(=C)C4=CC=CC=C4

> <PUBCHEM_OPENEYE_ISO_SMILES>
CN1C2CC(CC1[C@@H]3[C@H]2O3)OC(=O)C(=C)C4=CC=CC=C4

> <PUBCHEM_CACTVS_TPSA>
42.1

> <PUBCHEM_MONOISOTOPIC_WEIGHT>
285.136493

> <PUBCHEM_TOTAL_CHARGE>
0

> <PUBCHEM_HEAVY_ATOM_COUNT>
21

> <PUBCHEM_ATOM_DEF_STEREO_COUNT>
2

> <PUBCHEM_ATOM_UDEF_STEREO_COUNT>
2

> <PUBCHEM_BOND_DEF_STEREO_COUNT>
0

> <PUBCHEM_BOND_UDEF_STEREO_COUNT>
0

> <PUBCHEM_ISOTOPIC_ATOM_COUNT>
0

> <PUBCHEM_COMPONENT_COUNT>
1

> <PUBCHEM_CACTVS_TAUTO_COUNT>
1

> <PUBCHEM_COORDINATE_TYPE>
1
5
255

> <PUBCHEM_BONDANNOTATIONS>
5  1  5
6  1  5
15  17  8
15  18  8
17  19  8
18  20  8
19  21  8
20  21  8
7  24  3
8  25  3

$$$$

