441155
  -OEChem-07051212523D

 22 22  0     1  0  0  0  0  0999 V2000
    0.4307    1.5299    1.1801 O   0  0  0  0  0  0  0  0  0  0  0  0
    2.5134    1.1662   -0.4376 O   0  0  0  0  0  0  0  0  0  0  0  0
    0.1301    0.8933   -0.0641 C   0  0  2  0  0  0  0  0  0  0  0  0
   -0.9362   -0.1428    0.2174 C   0  0  0  0  0  0  0  0  0  0  0  0
    1.4123    0.2999   -0.6943 C   0  0  2  0  0  0  0  0  0  0  0  0
   -2.3463    0.3476    0.3537 C   0  0  0  0  0  0  0  0  0  0  0  0
   -0.6095   -1.4400    0.3604 C   0  0  0  0  0  0  0  0  0  0  0  0
    1.7214   -1.0938   -0.2173 C   0  0  0  0  0  0  0  0  0  0  0  0
    0.7607   -1.8877    0.2761 C   0  0  0  0  0  0  0  0  0  0  0  0
   -3.0766    0.3273   -0.9744 C   0  0  0  0  0  0  0  0  0  0  0  0
   -0.2476    1.6701   -0.7401 H   0  0  0  0  0  0  0  0  0  0  0  0
    1.2897    0.2434   -1.7835 H   0  0  0  0  0  0  0  0  0  0  0  0
   -2.8932   -0.2817    1.0673 H   0  0  0  0  0  0  0  0  0  0  0  0
   -2.3648    1.3595    0.7735 H   0  0  0  0  0  0  0  0  0  0  0  0
   -1.3633   -2.1902    0.5758 H   0  0  0  0  0  0  0  0  0  0  0  0
    2.7358   -1.4689   -0.3116 H   0  0  0  0  0  0  0  0  0  0  0  0
    0.9858   -2.8992    0.5957 H   0  0  0  0  0  0  0  0  0  0  0  0
   -4.1039    0.6835   -0.8459 H   0  0  0  0  0  0  0  0  0  0  0  0
   -3.1229   -0.6849   -1.3905 H   0  0  0  0  0  0  0  0  0  0  0  0
   -2.5867    0.9748   -1.7092 H   0  0  0  0  0  0  0  0  0  0  0  0
   -0.3467    2.0483    1.4486 H   0  0  0  0  0  0  0  0  0  0  0  0
    2.2756    2.0477   -0.7724 H   0  0  0  0  0  0  0  0  0  0  0  0
  1  3  1  0  0  0  0
  1 21  1  0  0  0  0
  2  5  1  0  0  0  0
  2 22  1  0  0  0  0
  3  4  1  0  0  0  0
  3  5  1  0  0  0  0
  3 11  1  0  0  0  0
  4  6  1  0  0  0  0
  4  7  2  0  0  0  0
  5  8  1  0  0  0  0
  5 12  1  0  0  0  0
  6 10  1  0  0  0  0
  6 13  1  0  0  0  0
  6 14  1  0  0  0  0
  7  9  1  0  0  0  0
  7 15  1  0  0  0  0
  8  9  2  0  0  0  0
  8 16  1  0  0  0  0
  9 17  1  0  0  0  0
 10 18  1  0  0  0  0
 10 19  1  0  0  0  0
 10 20  1  0  0  0  0
M  END
> <PUBCHEM_COMPOUND_CID>
441155

> <PUBCHEM_CONFORMER_RMSD>
0.4

> <PUBCHEM_CONFORMER_DIVERSEORDER>
1
6
8
2
4
7
3
5

> <PUBCHEM_MMFF94_PARTIAL_CHARGES>
14
1 -0.68
15 0.15
16 0.15
17 0.15
2 -0.68
21 0.4
22 0.4
3 0.42
4 -0.28
5 0.42
6 0.14
7 -0.15
8 -0.29
9 -0.15

> <PUBCHEM_EFFECTIVE_ROTOR_COUNT>
1.4

> <PUBCHEM_PHARMACOPHORE_FEATURES>
6
1 1 acceptor
1 1 donor
1 10 hydrophobe
1 2 acceptor
1 2 donor
6 3 4 5 7 8 9 rings

> <PUBCHEM_HEAVY_ATOM_COUNT>
10

> <PUBCHEM_ATOM_DEF_STEREO_COUNT>
2

> <PUBCHEM_ATOM_UDEF_STEREO_COUNT>
0

> <PUBCHEM_BOND_DEF_STEREO_COUNT>
0

> <PUBCHEM_BOND_UDEF_STEREO_COUNT>
0

> <PUBCHEM_ISOTOPIC_ATOM_COUNT>
0

> <PUBCHEM_COMPONENT_COUNT>
1

> <PUBCHEM_CACTVS_TAUTO_COUNT>
1

> <PUBCHEM_CONFORMER_ID>
0006BB4300000001

> <PUBCHEM_MMFF94_ENERGY>
14.0326

> <PUBCHEM_FEATURE_SELFOVERLAP>
30.462

> <PUBCHEM_SHAPE_FINGERPRINT>
12423570 1 6241510692914293903
14128692 85 18191590967413298151
16945 1 18199180865999052618
18185500 45 17691397937828191178
21040471 1 18269829831144166230
23552423 10 18195521721572190051
241688 4 17260745673279257850
2748010 2 18268132198192086446
29004967 10 17988066915520391771
4369600 1 18113612395922446360
5084963 1 18201995491591772827

> <PUBCHEM_SHAPE_MULTIPOLES>
194.06
3.4
1.71
0.91
1.98
0.38
0.03
-0.64
-1.03
-0.85
0.27
0.19
-0.2
-0.01

> <PUBCHEM_SHAPE_SELFOVERLAP>
388.673

> <PUBCHEM_SHAPE_VOLUME>
113.8

> <PUBCHEM_COORDINATE_TYPE>
2
5
10

$$$$

