175974
  -OEChem-07051213032D

 94100  0     1  0  0  0  0  0999 V2000
    3.7436    1.6563    0.0000 O   0  0  0  0  0  0  0  0  0  0  0  0
    2.8718    3.1530    0.0000 O   0  0  0  0  0  0  0  0  0  0  0  0
    6.3474    0.1664    0.0000 O   0  0  0  0  0  0  0  0  0  0  0  0
    3.7282    5.6563    0.0000 O   0  0  0  0  0  0  0  0  0  0  0  0
    5.4602    5.6630    0.0000 O   0  0  0  0  0  0  0  0  0  0  0  0
    5.4718    2.6630    0.0000 O   0  0  0  0  0  0  0  0  0  0  0  0
    5.4487    8.6630    0.0000 O   0  0  0  0  0  0  0  0  0  0  0  0
    7.1846    7.6696    0.0000 O   0  0  0  0  0  0  0  0  0  0  0  0
    3.7174   -1.3748    0.0000 O   0  0  0  0  0  0  0  0  0  0  0  0
    5.1578   -8.9670    0.0000 O   0  0  0  0  0  0  0  0  0  0  0  0
    6.4294   -5.9518    0.0000 O   0  0  0  0  0  0  0  0  0  0  0  0
    6.3373   -4.9062    0.0000 O   0  0  0  0  0  0  0  0  0  0  0  0
    2.8732   -2.9062    0.0000 O   0  0  0  0  0  0  0  0  0  0  0  0
    4.6116    1.1597    0.0000 C   0  0  1  0  0  0  0  0  0  0  0  0
    5.4756    1.6630    0.0000 C   0  0  1  0  0  0  0  0  0  0  0  0
    3.7320    4.6563    0.0000 C   0  0  1  0  0  0  0  0  0  0  0  0
    4.6154    0.1597    0.0000 C   0  0  0  0  0  0  0  0  0  0  0  0
    3.7398    2.6563    0.0000 C   0  0  2  0  0  0  0  0  0  0  0  0
    5.4834   -0.3370    0.0000 C   0  0  2  0  0  0  0  0  0  0  0  0
    4.6000    4.1597    0.0000 C   0  0  0  0  0  0  0  0  0  0  0  0
    4.6038    3.1597    0.0000 C   0  0  0  0  0  0  0  0  0  0  0  0
    2.8680    4.1530    0.0000 C   0  0  2  0  0  0  0  0  0  0  0  0
    6.3436    1.1664    0.0000 C   0  0  1  0  0  0  0  0  0  0  0  0
    4.5923    6.1596    0.0000 C   0  0  2  0  0  0  0  0  0  0  0  0
    4.5884    7.1596    0.0000 C   0  0  0  0  0  0  0  0  0  0  0  0
    5.4872   -1.3370    0.0000 C   0  0  0  0  0  0  0  0  0  0  0  0
    5.4525    7.6630    0.0000 C   0  0  2  0  0  0  0  0  0  0  0  0
    6.3205    7.1663    0.0000 C   0  0  1  0  0  0  0  0  0  0  0  0
    6.3243    6.1663    0.0000 C   0  0  1  0  0  0  0  0  0  0  0  0
    2.0000    4.6496    0.0000 C   0  0  0  0  0  0  0  0  0  0  0  0
    7.2077    1.6697    0.0000 C   0  0  0  0  0  0  0  0  0  0  0  0
    4.5892   -1.8647    0.0000 C   0  0  0  0  0  0  0  0  0  0  0  0
    4.6545   -8.1029    0.0000 C   0  0  2  0  0  0  0  0  0  0  0  0
    6.3893   -1.8578    0.0000 C   0  0  0  0  0  0  0  0  0  0  0  0
    4.6052   -2.9062    0.0000 C   0  0  0  0  0  0  0  0  0  0  0  0
    3.7149   -7.5604    0.0000 C   0  0  0  0  0  0  0  0  0  0  0  0
    5.4713   -3.4062    0.0000 C   0  0  0  0  0  0  0  0  0  0  0  0
    4.6213   -5.9477    0.0000 C   0  0  0  0  0  0  0  0  0  0  0  0
    3.7232   -6.4755    0.0000 C   0  0  0  0  0  0  0  0  0  0  0  0
    4.6052   -4.9062    0.0000 C   0  0  0  0  0  0  0  0  0  0  0  0
    7.1923    5.6697    0.0000 C   0  0  0  0  0  0  0  0  0  0  0  0
    5.5899   -7.5532    0.0000 C   0  0  0  0  0  0  0  0  0  0  0  0
    3.7392   -4.4062    0.0000 C   0  0  0  0  0  0  0  0  0  0  0  0
    6.3812   -2.8994    0.0000 C   0  0  0  0  0  0  0  0  0  0  0  0
    5.4713   -4.4062    0.0000 C   0  0  0  0  0  0  0  0  0  0  0  0
    3.7392   -3.4062    0.0000 C   0  0  0  0  0  0  0  0  0  0  0  0
    5.5732   -6.4684    0.0000 C   0  0  0  0  0  0  0  0  0  0  0  0
    4.1579   -8.9709    0.0000 C   0  0  0  0  0  0  0  0  0  0  0  0
    2.8212   -5.9547    0.0000 C   0  0  0  0  0  0  0  0  0  0  0  0
    2.8292   -4.9131    0.0000 C   0  0  0  0  0  0  0  0  0  0  0  0
    4.0758    0.8476    0.0000 H   0  0  0  0  0  0  0  0  0  0  0  0
    4.9375    1.9709    0.0000 H   0  0  0  0  0  0  0  0  0  0  0  0
    4.2678    4.9684    0.0000 H   0  0  0  0  0  0  0  0  0  0  0  0
    4.0044    0.2650    0.0000 H   0  0  0  0  0  0  0  0  0  0  0  0
    4.4056   -0.4237    0.0000 H   0  0  0  0  0  0  0  0  0  0  0  0
    4.2779    2.3484    0.0000 H   0  0  0  0  0  0  0  0  0  0  0  0
    4.7489   -0.7648    0.0000 H   0  0  0  0  0  0  0  0  0  0  0  0
    5.2110    4.0544    0.0000 H   0  0  0  0  0  0  0  0  0  0  0  0
    4.8098    4.7431    0.0000 H   0  0  0  0  0  0  0  0  0  0  0  0
    4.8181    2.5779    0.0000 H   0  0  0  0  0  0  0  0  0  0  0  0
    5.2140    3.2697    0.0000 H   0  0  0  0  0  0  0  0  0  0  0  0
    2.3322    3.8409    0.0000 H   0  0  0  0  0  0  0  0  0  0  0  0
    6.8817    0.8584    0.0000 H   0  0  0  0  0  0  0  0  0  0  0  0
    4.0542    6.4676    0.0000 H   0  0  0  0  0  0  0  0  0  0  0  0
    4.3741    7.7414    0.0000 H   0  0  0  0  0  0  0  0  0  0  0  0
    3.9783    7.0496    0.0000 H   0  0  0  0  0  0  0  0  0  0  0  0
    4.9144    7.9709    0.0000 H   0  0  0  0  0  0  0  0  0  0  0  0
    6.3181    7.7863    0.0000 H   0  0  0  0  0  0  0  0  0  0  0  0
    6.3267    5.5463    0.0000 H   0  0  0  0  0  0  0  0  0  0  0  0
    2.3079    5.1878    0.0000 H   0  0  0  0  0  0  0  0  0  0  0  0
    1.4619    4.9576    0.0000 H   0  0  0  0  0  0  0  0  0  0  0  0
    1.6921    4.1115    0.0000 H   0  0  0  0  0  0  0  0  0  0  0  0
    7.5197    1.1340    0.0000 H   0  0  0  0  0  0  0  0  0  0  0  0
    7.7434    1.9818    0.0000 H   0  0  0  0  0  0  0  0  0  0  0  0
    6.8956    2.2054    0.0000 H   0  0  0  0  0  0  0  0  0  0  0  0
    6.0075    2.9751    0.0000 H   0  0  0  0  0  0  0  0  0  0  0  0
    6.9274   -1.5498    0.0000 H   0  0  0  0  0  0  0  0  0  0  0  0
    3.1049   -7.4496    0.0000 H   0  0  0  0  0  0  0  0  0  0  0  0
    3.5013   -8.1425    0.0000 H   0  0  0  0  0  0  0  0  0  0  0  0
    6.8843    5.1315    0.0000 H   0  0  0  0  0  0  0  0  0  0  0  0
    7.7304    5.3617    0.0000 H   0  0  0  0  0  0  0  0  0  0  0  0
    7.5002    6.2078    0.0000 H   0  0  0  0  0  0  0  0  0  0  0  0
    5.8080   -8.1336    0.0000 H   0  0  0  0  0  0  0  0  0  0  0  0
    6.1991   -7.4377    0.0000 H   0  0  0  0  0  0  0  0  0  0  0  0
    6.9146   -3.2156    0.0000 H   0  0  0  0  0  0  0  0  0  0  0  0
    4.9105    8.9709    0.0000 H   0  0  0  0  0  0  0  0  0  0  0  0
    7.1822    8.2896    0.0000 H   0  0  0  0  0  0  0  0  0  0  0  0
    3.6197   -8.6630    0.0000 H   0  0  0  0  0  0  0  0  0  0  0  0
    3.8499   -9.5090    0.0000 H   0  0  0  0  0  0  0  0  0  0  0  0
    4.6960   -9.2788    0.0000 H   0  0  0  0  0  0  0  0  0  0  0  0
    2.2830   -6.2626    0.0000 H   0  0  0  0  0  0  0  0  0  0  0  0
    2.2959   -4.5969    0.0000 H   0  0  0  0  0  0  0  0  0  0  0  0
    3.1841   -1.6910    0.0000 H   0  0  0  0  0  0  0  0  0  0  0  0
    5.7778   -8.9646    0.0000 H   0  0  0  0  0  0  0  0  0  0  0  0
 14  1  1  1  0  0  0
 18  1  1  6  0  0  0
  2 18  1  0  0  0  0
  2 22  1  0  0  0  0
  3 19  1  0  0  0  0
  3 23  1  0  0  0  0
 16  4  1  1  0  0  0
 24  4  1  1  0  0  0
  5 24  1  0  0  0  0
  5 29  1  0  0  0  0
 15  6  1  6  0  0  0
  6 76  1  0  0  0  0
 27  7  1  1  0  0  0
  7 86  1  0  0  0  0
 28  8  1  6  0  0  0
  8 87  1  0  0  0  0
  9 32  1  0  0  0  0
  9 93  1  0  0  0  0
 33 10  1  6  0  0  0
 10 94  1  0  0  0  0
 11 47  2  0  0  0  0
 12 45  2  0  0  0  0
 13 46  2  0  0  0  0
 14 15  1  0  0  0  0
 14 17  1  0  0  0  0
 14 51  1  0  0  0  0
 15 23  1  0  0  0  0
 15 52  1  0  0  0  0
 16 20  1  0  0  0  0
 16 22  1  0  0  0  0
 16 53  1  0  0  0  0
 17 19  1  0  0  0  0
 17 54  1  0  0  0  0
 17 55  1  0  0  0  0
 18 21  1  0  0  0  0
 18 56  1  0  0  0  0
 19 26  1  0  0  0  0
 19 57  1  6  0  0  0
 20 21  1  0  0  0  0
 20 58  1  0  0  0  0
 20 59  1  0  0  0  0
 21 60  1  0  0  0  0
 21 61  1  0  0  0  0
 22 30  1  1  0  0  0
 22 62  1  0  0  0  0
 23 31  1  1  0  0  0
 23 63  1  0  0  0  0
 24 25  1  0  0  0  0
 24 64  1  0  0  0  0
 25 27  1  0  0  0  0
 25 65  1  0  0  0  0
 25 66  1  0  0  0  0
 26 32  2  0  0  0  0
 26 34  1  0  0  0  0
 27 28  1  0  0  0  0
 27 67  1  0  0  0  0
 28 29  1  0  0  0  0
 28 68  1  0  0  0  0
 29 41  1  1  0  0  0
 29 69  1  0  0  0  0
 30 70  1  0  0  0  0
 30 71  1  0  0  0  0
 30 72  1  0  0  0  0
 31 73  1  0  0  0  0
 31 74  1  0  0  0  0
 31 75  1  0  0  0  0
 32 35  1  0  0  0  0
 33 36  1  0  0  0  0
 33 42  1  0  0  0  0
 33 48  1  0  0  0  0
 34 44  2  0  0  0  0
 34 77  1  0  0  0  0
 35 37  2  0  0  0  0
 35 46  1  0  0  0  0
 36 39  1  0  0  0  0
 36 78  1  0  0  0  0
 36 79  1  0  0  0  0
 37 44  1  0  0  0  0
 37 45  1  0  0  0  0
 38 39  2  0  0  0  0
 38 40  1  0  0  0  0
 38 47  1  0  0  0  0
 39 49  1  0  0  0  0
 40 43  2  0  0  0  0
 40 45  1  0  0  0  0
 41 80  1  0  0  0  0
 41 81  1  0  0  0  0
 41 82  1  0  0  0  0
 42 47  1  0  0  0  0
 42 83  1  0  0  0  0
 42 84  1  0  0  0  0
 43 46  1  0  0  0  0
 43 50  1  0  0  0  0
 44 85  1  0  0  0  0
 48 88  1  0  0  0  0
 48 89  1  0  0  0  0
 48 90  1  0  0  0  0
 49 50  2  0  0  0  0
 49 91  1  0  0  0  0
 50 92  1  0  0  0  0
M  END
> <PUBCHEM_COMPOUND_CID>
175974

> <PUBCHEM_COMPOUND_CANONICALIZED>
1

> <PUBCHEM_CACTVS_COMPLEXITY>
1290

> <PUBCHEM_CACTVS_HBOND_ACCEPTOR>
13

> <PUBCHEM_CACTVS_HBOND_DONOR>
5

> <PUBCHEM_CACTVS_ROTATABLE_BOND>
5

> <PUBCHEM_CACTVS_SUBSKEYS>
AAADcfB8PAAAAAAAAAAAAAAAAAAAAAAAAAA0aNGCAAAAAADBQAAAGgAACAAADFSwmAMyDoAABgCIAqBSAAACAAAkIAAIiAEECMgZNzaCNRqicUAl4BEPuYfL7vzuwAADAAAYAADAAAYAADAAAAAAAAAAAA==

> <PUBCHEM_IUPAC_OPENEYE_NAME>
(3R)-9-[(2R,4R,5R,6R)-4-[(2S,5S,6S)-5-[(2S,4R,5S,6R)-4,5-dihydroxy-6-methyl-tetrahydropyran-2-yl]oxy-6-methyl-tetrahydropyran-2-yl]oxy-5-hydroxy-6-methyl-tetrahydropyran-2-yl]-3,8-dihydroxy-3-methyl-2,4-dihydrobenzo[a]anthracene-1,7,12-trione

> <PUBCHEM_IUPAC_CAS_NAME>
(3R)-9-[(2R,4R,5R,6R)-4-[[(2S,5S,6S)-5-[[(2S,4R,5S,6R)-4,5-dihydroxy-6-methyl-2-oxanyl]oxy]-6-methyl-2-oxanyl]oxy]-5-hydroxy-6-methyl-2-oxanyl]-3,8-dihydroxy-3-methyl-2,4-dihydrobenzo[a]anthracene-1,7,12-trione

> <PUBCHEM_IUPAC_NAME>
(3R)-9-[(2R,4R,5R,6R)-4-[(2S,5S,6S)-5-[(2S,4R,5S,6R)-4,5-dihydroxy-6-methyloxan-2-yl]oxy-6-methyloxan-2-yl]oxy-5-hydroxy-6-methyloxan-2-yl]-3,8-dihydroxy-3-methyl-2,4-dihydrobenzo[a]anthracene-1,7,12-trione

> <PUBCHEM_IUPAC_SYSTEMATIC_NAME>
(3R)-3-methyl-9-[(2R,4R,5R,6R)-6-methyl-4-[(2S,5S,6S)-6-methyl-5-[(2S,4R,5S,6R)-6-methyl-4,5-bis(oxidanyl)oxan-2-yl]oxy-oxan-2-yl]oxy-5-oxidanyl-oxan-2-yl]-3,8-bis(oxidanyl)-2,4-dihydrobenzo[a]anthracene-1,7,12-trione

> <PUBCHEM_IUPAC_TRADITIONAL_NAME>
(3R)-9-[(2R,4R,5R,6R)-4-[(2S,5S,6S)-5-[(2S,4R,5S,6R)-4,5-dihydroxy-6-methyl-tetrahydropyran-2-yl]oxy-6-methyl-tetrahydropyran-2-yl]oxy-5-hydroxy-6-methyl-tetrahydropyran-2-yl]-3,8-dihydroxy-3-methyl-2,4-dihydrobenz[a]anthracene-1,7,12-trione

> <PUBCHEM_IUPAC_INCHI>
InChI=1S/C37H44O13/c1-15-24(49-28-11-22(38)32(40)16(2)48-28)9-10-27(47-15)50-26-12-25(46-17(3)33(26)41)19-7-8-21-31(34(19)42)36(44)20-6-5-18-13-37(4,45)14-23(39)29(18)30(20)35(21)43/h5-8,15-17,22,24-28,32-33,38,40-42,45H,9-14H2,1-4H3/t15-,16+,17+,22+,24-,25+,26+,27-,28-,32+,33+,37+/m0/s1

> <PUBCHEM_IUPAC_INCHIKEY>
RVYIFZVNJLDNAV-VSYBRGMMSA-N

> <PUBCHEM_XLOGP3_AA>
2.1

> <PUBCHEM_EXACT_MASS>
696.278191

> <PUBCHEM_MOLECULAR_FORMULA>
C37H44O13

> <PUBCHEM_MOLECULAR_WEIGHT>
696.73746

> <PUBCHEM_OPENEYE_CAN_SMILES>
CC1C(CCC(O1)OC2CC(OC(C2O)C)C3=C(C4=C(C=C3)C(=O)C5=C(C4=O)C=CC6=C5C(=O)CC(C6)(C)O)O)OC7CC(C(C(O7)C)O)O

> <PUBCHEM_OPENEYE_ISO_SMILES>
C[C@H]1[C@H](CC[C@@H](O1)O[C@@H]2C[C@@H](O[C@@H]([C@H]2O)C)C3=C(C4=C(C=C3)C(=O)C5=C(C4=O)C=CC6=C5C(=O)C[C@](C6)(C)O)O)O[C@H]7C[C@H]([C@@H]([C@H](O7)C)O)O

> <PUBCHEM_CACTVS_TPSA>
199

> <PUBCHEM_MONOISOTOPIC_WEIGHT>
696.278191

> <PUBCHEM_TOTAL_CHARGE>
0

> <PUBCHEM_HEAVY_ATOM_COUNT>
50

> <PUBCHEM_ATOM_DEF_STEREO_COUNT>
12

> <PUBCHEM_ATOM_UDEF_STEREO_COUNT>
0

> <PUBCHEM_BOND_DEF_STEREO_COUNT>
0

> <PUBCHEM_BOND_UDEF_STEREO_COUNT>
0

> <PUBCHEM_ISOTOPIC_ATOM_COUNT>
0

> <PUBCHEM_COMPONENT_COUNT>
1

> <PUBCHEM_CACTVS_TAUTO_COUNT>
53

> <PUBCHEM_COORDINATE_TYPE>
1
5
255

> <PUBCHEM_BONDANNOTATIONS>
14  1  5
18  1  6
33  10  6
19  57  6
22  30  5
23  31  5
26  32  8
26  34  8
29  41  5
32  35  8
34  44  8
35  37  8
37  44  8
38  39  8
38  40  8
39  49  8
16  4  5
24  4  5
40  43  8
43  50  8
49  50  8
15  6  6
27  7  5
28  8  6

$$$$

