104757
  -OEChem-07051213153D

 36 40  0     1  0  0  0  0  0999 V2000
    3.4941    1.2628   -0.3985 O   0  0  0  0  0  0  0  0  0  0  0  0
    4.9470   -0.4322    0.4518 O   0  0  0  0  0  0  0  0  0  0  0  0
   -0.0568   -1.8279   -0.3306 O   0  0  0  0  0  0  0  0  0  0  0  0
   -3.3278    1.9252   -0.8404 O   0  0  0  0  0  0  0  0  0  0  0  0
   -0.9201    2.9384    0.3070 O   0  0  0  0  0  0  0  0  0  0  0  0
   -4.4522   -2.1552    0.1553 O   0  0  0  0  0  0  0  0  0  0  0  0
   -1.7546   -3.3715   -0.2767 O   0  0  0  0  0  0  0  0  0  0  0  0
    2.8524   -1.1005   -0.5876 C   0  0  1  0  0  0  0  0  0  0  0  0
    1.7041   -0.1988   -0.3520 C   0  0  0  0  0  0  0  0  0  0  0  0
    4.0112   -0.0775   -0.5939 C   0  0  1  0  0  0  0  0  0  0  0  0
    0.3544   -0.4810   -0.2304 C   0  0  0  0  0  0  0  0  0  0  0  0
   -0.5687    0.5506   -0.0137 C   0  0  0  0  0  0  0  0  0  0  0  0
   -1.9739    0.1842    0.1057 C   0  0  0  0  0  0  0  0  0  0  0  0
    2.1400    1.1111   -0.2634 C   0  0  0  0  0  0  0  0  0  0  0  0
   -3.1065    1.1363    0.3244 C   0  0  2  0  0  0  0  0  0  0  0  0
   -2.3236   -1.1010    0.0247 C   0  0  0  0  0  0  0  0  0  0  0  0
   -4.3272    0.2335    0.5150 C   0  0  0  0  0  0  0  0  0  0  0  0
    3.2350   -1.9703    0.5444 C   0  0  0  0  0  0  0  0  0  0  0  0
   -0.0994    1.8735    0.0786 C   0  0  0  0  0  0  0  0  0  0  0  0
    1.2645    2.1605   -0.0483 C   0  0  0  0  0  0  0  0  0  0  0  0
   -3.7816   -1.1355    0.2120 C   0  0  0  0  0  0  0  0  0  0  0  0
   -1.3923   -2.2047   -0.2017 C   0  0  0  0  0  0  0  0  0  0  0  0
    4.3893   -1.5437    1.0415 C   0  0  0  0  0  0  0  0  0  0  0  0
   -0.3073    4.2236    0.3767 C   0  0  0  0  0  0  0  0  0  0  0  0
    2.7778   -1.6369   -1.5382 H   0  0  0  0  0  0  0  0  0  0  0  0
    4.5523   -0.0944   -1.5483 H   0  0  0  0  0  0  0  0  0  0  0  0
   -2.9762    1.7908    1.1910 H   0  0  0  0  0  0  0  0  0  0  0  0
   -5.1535    0.4726   -0.1603 H   0  0  0  0  0  0  0  0  0  0  0  0
   -4.6651    0.2430    1.5562 H   0  0  0  0  0  0  0  0  0  0  0  0
    2.6807   -2.8261    0.8984 H   0  0  0  0  0  0  0  0  0  0  0  0
    1.7122    3.1445    0.0093 H   0  0  0  0  0  0  0  0  0  0  0  0
    4.9537   -1.9533    1.8600 H   0  0  0  0  0  0  0  0  0  0  0  0
   -3.3995    1.3306   -1.6069 H   0  0  0  0  0  0  0  0  0  0  0  0
    0.3760    4.3065    1.2292 H   0  0  0  0  0  0  0  0  0  0  0  0
   -1.1109    4.9464    0.5567 H   0  0  0  0  0  0  0  0  0  0  0  0
    0.1552    4.5100   -0.5744 H   0  0  0  0  0  0  0  0  0  0  0  0
  1 10  1  0  0  0  0
  1 14  1  0  0  0  0
  2 10  1  0  0  0  0
  2 23  1  0  0  0  0
  3 11  1  0  0  0  0
  3 22  1  0  0  0  0
  4 15  1  0  0  0  0
  4 33  1  0  0  0  0
  5 19  1  0  0  0  0
  5 24  1  0  0  0  0
  6 21  2  0  0  0  0
  7 22  2  0  0  0  0
  8  9  1  0  0  0  0
  8 10  1  0  0  0  0
  8 18  1  0  0  0  0
  8 25  1  0  0  0  0
  9 11  2  0  0  0  0
  9 14  1  0  0  0  0
 10 26  1  0  0  0  0
 11 12  1  0  0  0  0
 12 13  1  0  0  0  0
 12 19  2  0  0  0  0
 13 15  1  0  0  0  0
 13 16  2  0  0  0  0
 14 20  2  0  0  0  0
 15 17  1  0  0  0  0
 15 27  1  0  0  0  0
 16 21  1  0  0  0  0
 16 22  1  0  0  0  0
 17 21  1  0  0  0  0
 17 28  1  0  0  0  0
 17 29  1  0  0  0  0
 18 23  2  0  0  0  0
 18 30  1  0  0  0  0
 19 20  1  0  0  0  0
 20 31  1  0  0  0  0
 23 32  1  0  0  0  0
 24 34  1  0  0  0  0
 24 35  1  0  0  0  0
 24 36  1  0  0  0  0
M  END
> <PUBCHEM_COMPOUND_CID>
104757

> <PUBCHEM_CONFORMER_RMSD>
0.6

> <PUBCHEM_CONFORMER_DIVERSEORDER>
1

> <PUBCHEM_MMFF94_PARTIAL_CHARGES>
28
1 -0.36
10 0.56
11 0.08
12 0.03
13 -0.17
14 0.08
15 0.42
16 0.03
17 0.06
18 -0.29
19 0.08
2 -0.36
20 -0.15
21 0.49
22 0.71
23 -0.07
24 0.28
3 -0.23
30 0.15
31 0.15
32 0.15
33 0.4
4 -0.68
5 -0.36
6 -0.57
7 -0.57
8 0.28
9 -0.14

> <PUBCHEM_EFFECTIVE_ROTOR_COUNT>
1.8

> <PUBCHEM_PHARMACOPHORE_FEATURES>
13
1 1 acceptor
1 16 anion
1 2 acceptor
1 4 acceptor
1 4 donor
1 5 acceptor
1 6 acceptor
1 7 acceptor
5 1 8 9 10 14 rings
5 13 15 16 17 21 rings
5 2 8 10 18 23 rings
6 3 11 12 13 16 22 rings
6 9 11 12 14 19 20 rings

> <PUBCHEM_HEAVY_ATOM_COUNT>
24

> <PUBCHEM_ATOM_DEF_STEREO_COUNT>
3

> <PUBCHEM_ATOM_UDEF_STEREO_COUNT>
0

> <PUBCHEM_BOND_DEF_STEREO_COUNT>
0

> <PUBCHEM_BOND_UDEF_STEREO_COUNT>
0

> <PUBCHEM_ISOTOPIC_ATOM_COUNT>
0

> <PUBCHEM_COMPONENT_COUNT>
1

> <PUBCHEM_CACTVS_TAUTO_COUNT>
2

> <PUBCHEM_CONFORMER_ID>
0001993500000001

> <PUBCHEM_MMFF94_ENERGY>
84.4406

> <PUBCHEM_FEATURE_SELFOVERLAP>
66.717

> <PUBCHEM_SHAPE_FINGERPRINT>
10062212 137 18410015442146010735
10319926 262 18119550957973976114
10411042 1 18410010992697223999
10616163 171 18337947883752580582
10759866 29 18130493194091745076
10967382 1 18337668590407752893
1100329 8 18338514128082853619
11578080 2 17702127831628751068
12236239 1 17988920107312465054
12403259 226 18340773620462378389
12422481 6 17833248085149508561
12553582 1 18408604742984001422
12633257 1 18335125493575692849
12788726 201 18339913913948858680
13140716 1 18409447016082913537
138480 1 15456491209945124145
14022347 108 18192965258248173126
14081887 123 18263380190910099536
14178342 30 18052547848626358490
14790565 3 18120361314475072353
15042514 8 18410572915731364474
15196674 1 18410853248220004413
15375462 189 18202284718873891218
15442244 35 18410292467256943439
16752209 62 18193831772453376188
16945 1 18192701465519821108
17349148 13 18040997323740719671
17492 89 18340767151904722122
19591789 44 18411135831657285339
20028762 73 18041277648210359087
20510252 161 18116152371067760504
20715895 44 17982738772652008541
20775438 99 17035057279995564199
21267235 1 18411408497693203078
221490 88 18052529976681974611
2334 1 18409727331460522149
23366157 5 17910960136349363925
23402539 116 18260837015919561647
23559900 14 18263085413844997656
2748010 2 18408324367482190021
3004659 81 18201717366784531270
3084891 72 18265338485232428181
3091708 16 9496937685467272912
314173 41 18265885865871522238
3178227 256 18339346523611040435
335352 9 18267020733506431973
34934 24 18337110056065736292
350125 39 18410568475563180169
352729 6 18193833979655525405
3680242 22 18267857475040862267
4409770 3 18127704931061431485
5104073 3 18337103484702503211
7097593 13 18267021648318732351
7364860 26 17975128743116544345
9709674 26 18409158909582213478

> <PUBCHEM_SHAPE_MULTIPOLES>
452.82
8.25
3.67
0.77
2.3
2.19
0.04
-3.65
1.07
-1.61
0.24
0.29
-0.04
-0.44

> <PUBCHEM_SHAPE_SELFOVERLAP>
1041.784

> <PUBCHEM_SHAPE_VOLUME>
234.4

> <PUBCHEM_COORDINATE_TYPE>
2
5
10

$$$$

