5281868
  -OEChem-07051213003D

 56 57  0     1  0  0  0  0  0999 V2000
    0.8718    0.5170    0.4516 O   0  0  0  0  0  0  0  0  0  0  0  0
   -0.9497    2.5312   -2.0265 O   0  0  0  0  0  0  0  0  0  0  0  0
   -5.1695    1.7028    0.4315 O   0  0  0  0  0  0  0  0  0  0  0  0
   -3.2473   -2.6314   -0.2442 O   0  0  0  0  0  0  0  0  0  0  0  0
   -5.3825   -1.0560    0.5497 O   0  0  0  0  0  0  0  0  0  0  0  0
    1.7548   -1.8485   -0.7088 O   0  0  0  0  0  0  0  0  0  0  0  0
   -0.6208    1.3437   -1.3018 C   0  0  1  0  0  0  0  0  0  0  0  0
    0.4057    1.6926   -0.2074 C   0  0  1  0  0  0  0  0  0  0  0  0
   -1.8973    0.7004   -0.8042 C   0  0  0  0  0  0  0  0  0  0  0  0
   -0.1313    2.6498    0.8476 C   0  0  0  0  0  0  0  0  0  0  0  0
   -1.9818   -0.6799   -0.7524 C   0  0  0  0  0  0  0  0  0  0  0  0
   -2.9519    1.5066   -0.4133 C   0  0  0  0  0  0  0  0  0  0  0  0
   -4.1286    0.9136    0.0442 C   0  0  0  0  0  0  0  0  0  0  0  0
   -3.1586   -1.2729   -0.2951 C   0  0  0  0  0  0  0  0  0  0  0  0
    2.2100    0.2481    0.3527 C   0  0  0  0  0  0  0  0  0  0  0  0
   -4.2321   -0.4761    0.1035 C   0  0  0  0  0  0  0  0  0  0  0  0
    2.6472   -0.9387   -0.2280 C   0  0  0  0  0  0  0  0  0  0  0  0
    3.1273    1.1743    0.8405 C   0  0  0  0  0  0  0  0  0  0  0  0
    4.0139   -1.2016   -0.3217 C   0  0  0  0  0  0  0  0  0  0  0  0
    4.9373   -0.2768    0.1661 C   0  0  0  0  0  0  0  0  0  0  0  0
    4.4939    0.9112    0.7472 C   0  0  0  0  0  0  0  0  0  0  0  0
    6.3621   -0.5513    0.0688 C   0  0  0  0  0  0  0  0  0  0  0  0
   -5.2105    2.0949    1.8021 C   0  0  0  0  0  0  0  0  0  0  0  0
   -2.8375   -3.2626    0.9673 C   0  0  0  0  0  0  0  0  0  0  0  0
   -6.3804   -1.3480   -0.4257 C   0  0  0  0  0  0  0  0  0  0  0  0
    1.2970   -2.8494    0.1984 C   0  0  0  0  0  0  0  0  0  0  0  0
    7.3526    0.3672    0.1362 C   0  0  0  0  0  0  0  0  0  0  0  0
    8.8062    0.0398    0.0218 C   0  0  0  0  0  0  0  0  0  0  0  0
   -0.1545    0.6598   -2.0229 H   0  0  0  0  0  0  0  0  0  0  0  0
    1.2326    2.2143   -0.7112 H   0  0  0  0  0  0  0  0  0  0  0  0
   -0.5591    3.5524    0.4012 H   0  0  0  0  0  0  0  0  0  0  0  0
    0.6680    2.9627    1.5275 H   0  0  0  0  0  0  0  0  0  0  0  0
   -0.8855    2.1705    1.4805 H   0  0  0  0  0  0  0  0  0  0  0  0
   -1.1490   -1.3031   -1.0649 H   0  0  0  0  0  0  0  0  0  0  0  0
   -2.8864    2.5904   -0.4485 H   0  0  0  0  0  0  0  0  0  0  0  0
   -0.1264    2.8813   -2.4075 H   0  0  0  0  0  0  0  0  0  0  0  0
    2.8031    2.0969    1.3113 H   0  0  0  0  0  0  0  0  0  0  0  0
    4.3480   -2.1306   -0.7791 H   0  0  0  0  0  0  0  0  0  0  0  0
    5.1748    1.6494    1.1606 H   0  0  0  0  0  0  0  0  0  0  0  0
    6.6347   -1.5938   -0.0828 H   0  0  0  0  0  0  0  0  0  0  0  0
   -6.0980    2.7150    1.9547 H   0  0  0  0  0  0  0  0  0  0  0  0
   -4.3238    2.6830    2.0592 H   0  0  0  0  0  0  0  0  0  0  0  0
   -5.2809    1.2171    2.4522 H   0  0  0  0  0  0  0  0  0  0  0  0
   -3.4746   -2.9463    1.7991 H   0  0  0  0  0  0  0  0  0  0  0  0
   -2.9380   -4.3441    0.8413 H   0  0  0  0  0  0  0  0  0  0  0  0
   -1.7908   -3.0316    1.1875 H   0  0  0  0  0  0  0  0  0  0  0  0
   -5.9976   -2.0542   -1.1692 H   0  0  0  0  0  0  0  0  0  0  0  0
   -7.2332   -1.8053    0.0834 H   0  0  0  0  0  0  0  0  0  0  0  0
   -6.7182   -0.4308   -0.9182 H   0  0  0  0  0  0  0  0  0  0  0  0
    0.8039   -2.3913    1.0616 H   0  0  0  0  0  0  0  0  0  0  0  0
    2.1314   -3.4752    0.5304 H   0  0  0  0  0  0  0  0  0  0  0  0
    0.5726   -3.4800   -0.3242 H   0  0  0  0  0  0  0  0  0  0  0  0
    7.1332    1.4235    0.2595 H   0  0  0  0  0  0  0  0  0  0  0  0
    9.2409    0.5674   -0.8327 H   0  0  0  0  0  0  0  0  0  0  0  0
    9.3319    0.3580    0.9272 H   0  0  0  0  0  0  0  0  0  0  0  0
    8.9794   -1.0323   -0.1146 H   0  0  0  0  0  0  0  0  0  0  0  0
  1  8  1  0  0  0  0
  1 15  1  0  0  0  0
  2  7  1  0  0  0  0
  2 36  1  0  0  0  0
  3 13  1  0  0  0  0
  3 23  1  0  0  0  0
  4 14  1  0  0  0  0
  4 24  1  0  0  0  0
  5 16  1  0  0  0  0
  5 25  1  0  0  0  0
  6 17  1  0  0  0  0
  6 26  1  0  0  0  0
  7  8  1  0  0  0  0
  7  9  1  0  0  0  0
  7 29  1  0  0  0  0
  8 10  1  0  0  0  0
  8 30  1  0  0  0  0
  9 11  2  0  0  0  0
  9 12  1  0  0  0  0
 10 31  1  0  0  0  0
 10 32  1  0  0  0  0
 10 33  1  0  0  0  0
 11 14  1  0  0  0  0
 11 34  1  0  0  0  0
 12 13  2  0  0  0  0
 12 35  1  0  0  0  0
 13 16  1  0  0  0  0
 14 16  2  0  0  0  0
 15 17  2  0  0  0  0
 15 18  1  0  0  0  0
 17 19  1  0  0  0  0
 18 21  2  0  0  0  0
 18 37  1  0  0  0  0
 19 20  2  0  0  0  0
 19 38  1  0  0  0  0
 20 21  1  0  0  0  0
 20 22  1  0  0  0  0
 21 39  1  0  0  0  0
 22 27  2  0  0  0  0
 22 40  1  0  0  0  0
 23 41  1  0  0  0  0
 23 42  1  0  0  0  0
 23 43  1  0  0  0  0
 24 44  1  0  0  0  0
 24 45  1  0  0  0  0
 24 46  1  0  0  0  0
 25 47  1  0  0  0  0
 25 48  1  0  0  0  0
 25 49  1  0  0  0  0
 26 50  1  0  0  0  0
 26 51  1  0  0  0  0
 26 52  1  0  0  0  0
 27 28  1  0  0  0  0
 27 53  1  0  0  0  0
 28 54  1  0  0  0  0
 28 55  1  0  0  0  0
 28 56  1  0  0  0  0
M  END
> <PUBCHEM_COMPOUND_CID>
5281868

> <PUBCHEM_CONFORMER_RMSD>
1

> <PUBCHEM_CONFORMER_DIVERSEORDER>
1
44
2
42
24
48
26
39
20
37
28
49
23
25
27
5
35
38
31
32
47
33
4
17
50
51
46
9
22
40
30
13
16
29
3
14
36
43
8
15
18
41
11
12
34
19
7
45
6
10
21

> <PUBCHEM_MMFF94_PARTIAL_CHARGES>
35
1 -0.36
11 -0.15
12 -0.15
13 0.08
14 0.08
15 0.08
16 0.08
17 0.08
18 -0.15
19 -0.15
2 -0.68
20 0.03
21 -0.15
22 -0.18
23 0.28
24 0.28
25 0.28
26 0.28
27 -0.29
28 0.14
3 -0.36
34 0.15
35 0.15
36 0.4
37 0.15
38 0.15
39 0.15
4 -0.36
40 0.15
5 -0.36
53 0.15
6 -0.36
7 0.42
8 0.28
9 -0.14

> <PUBCHEM_EFFECTIVE_ROTOR_COUNT>
9

> <PUBCHEM_PHARMACOPHORE_FEATURES>
10
1 1 acceptor
1 2 acceptor
1 2 donor
1 28 hydrophobe
1 3 acceptor
1 4 acceptor
1 5 acceptor
1 6 acceptor
6 15 17 18 19 20 21 rings
6 9 11 12 13 14 16 rings

> <PUBCHEM_HEAVY_ATOM_COUNT>
28

> <PUBCHEM_ATOM_DEF_STEREO_COUNT>
2

> <PUBCHEM_ATOM_UDEF_STEREO_COUNT>
0

> <PUBCHEM_BOND_DEF_STEREO_COUNT>
1

> <PUBCHEM_BOND_UDEF_STEREO_COUNT>
0

> <PUBCHEM_ISOTOPIC_ATOM_COUNT>
0

> <PUBCHEM_COMPONENT_COUNT>
1

> <PUBCHEM_CACTVS_TAUTO_COUNT>
1

> <PUBCHEM_CONFORMER_ID>
0050984C00000001

> <PUBCHEM_MMFF94_ENERGY>
126.2718

> <PUBCHEM_FEATURE_SELFOVERLAP>
50.757

> <PUBCHEM_SHAPE_FINGERPRINT>
10290309 65 18268997664046059230
11315181 36 18409167701680487361
11488393 25 17169536623144017094
11524674 6 17603309236972488150
12553582 1 18201174173575189299
12596602 18 17458062651510278075
12633257 1 18265342870336307651
12788726 201 17314793116361626561
12838862 33 18269574813472058183
13402501 40 18410013225742601290
14617045 38 18410573993842047782
14765038 42 18263914591709508699
14856354 85 18411975832654922046
15064986 96 17168697665089697431
15537594 2 17775287191909035785
16110190 28 18411976949146036516
1813 80 17632857529594887925
18608769 82 18408046196031252906
21033648 29 17167875170431097859
21267235 1 18411699851062552275
23522609 53 18198316573094314684
23559900 14 18334866008578915024
335352 9 18341337708624435439
3383291 50 18270677568265120467
350125 39 18409450289512741448
3633792 109 18339936969882163901
4073 2 18341612565067131458
4325135 7 18131633379075709780
4616759 239 18041006141693681834
5104073 3 18335432257330418520
5486654 36 18271238318793384851
999808 66 17917701384421507499

> <PUBCHEM_SHAPE_MULTIPOLES>
541.01
17.49
2.98
1.12
24.01
1.05
0.07
1.35
-2.68
-3.48
-0.4
-0.92
-0.58
-0.04

> <PUBCHEM_SHAPE_SELFOVERLAP>
1129.261

> <PUBCHEM_SHAPE_VOLUME>
310.2

> <PUBCHEM_COORDINATE_TYPE>
2
5
10

$$$$

