17396302
  -OEChem-06241222553D

 24 25  0     0  0  0  0  0  0999 V2000
   -3.2842   -1.3359   -0.4612 S   0  0  0  0  0  0  0  0  0  0  0  0
    3.3246   -2.7907    0.3452 F   0  0  0  0  0  0  0  0  0  0  0  0
    4.7587    1.6310   -0.5616 F   0  0  0  0  0  0  0  0  0  0  0  0
   -0.1451    1.9445    0.5748 O   0  0  0  0  0  0  0  0  0  0  0  0
   -0.9264   -0.1707   -0.0906 N   0  0  0  0  0  0  0  0  0  0  0  0
   -2.9832    1.0929    0.2983 N   0  0  0  0  0  0  0  0  0  0  0  0
   -4.3503    0.8886    0.2317 N   0  0  0  0  0  0  0  0  0  0  0  0
    1.4345    0.3085    0.0997 C   0  0  0  0  0  0  0  0  0  0  0  0
    0.0619    0.7762    0.2094 C   0  0  0  0  0  0  0  0  0  0  0  0
    2.4585    1.2119   -0.1840 C   0  0  0  0  0  0  0  0  0  0  0  0
    1.7270   -1.0436    0.2784 C   0  0  0  0  0  0  0  0  0  0  0  0
   -2.3117    0.0123   -0.0380 C   0  0  0  0  0  0  0  0  0  0  0  0
    3.0436   -1.4923    0.1732 C   0  0  0  0  0  0  0  0  0  0  0  0
    3.7751    0.7634   -0.2892 C   0  0  0  0  0  0  0  0  0  0  0  0
    4.0678   -0.5887   -0.1106 C   0  0  0  0  0  0  0  0  0  0  0  0
   -4.6429   -0.3357   -0.1516 C   0  0  0  0  0  0  0  0  0  0  0  0
   -6.0079   -0.8716   -0.3238 C   0  0  0  0  0  0  0  0  0  0  0  0
    2.2523    2.2687   -0.3318 H   0  0  0  0  0  0  0  0  0  0  0  0
    0.9703   -1.7784    0.5360 H   0  0  0  0  0  0  0  0  0  0  0  0
   -0.6609   -1.0945   -0.4184 H   0  0  0  0  0  0  0  0  0  0  0  0
    5.0927   -0.9379   -0.1923 H   0  0  0  0  0  0  0  0  0  0  0  0
   -6.1770   -1.1918   -1.3569 H   0  0  0  0  0  0  0  0  0  0  0  0
   -6.1818   -1.7247    0.3399 H   0  0  0  0  0  0  0  0  0  0  0  0
   -6.7540   -0.1065   -0.0855 H   0  0  0  0  0  0  0  0  0  0  0  0
  1 12  1  0  0  0  0
  1 16  1  0  0  0  0
  2 13  1  0  0  0  0
  3 14  1  0  0  0  0
  4  9  2  0  0  0  0
  5  9  1  0  0  0  0
  5 12  1  0  0  0  0
  5 20  1  0  0  0  0
  6  7  1  0  0  0  0
  6 12  2  0  0  0  0
  7 16  2  0  0  0  0
  8  9  1  0  0  0  0
  8 10  2  0  0  0  0
  8 11  1  0  0  0  0
 10 14  1  0  0  0  0
 10 18  1  0  0  0  0
 11 13  2  0  0  0  0
 11 19  1  0  0  0  0
 13 15  1  0  0  0  0
 14 15  2  0  0  0  0
 15 21  1  0  0  0  0
 16 17  1  0  0  0  0
 17 22  1  0  0  0  0
 17 23  1  0  0  0  0
 17 24  1  0  0  0  0
M  END
> <PUBCHEM_COMPOUND_CID>
17396302

> <PUBCHEM_CONFORMER_RMSD>
0.6

> <PUBCHEM_CONFORMER_DIVERSEORDER>
2
4
5
6
3
1

> <PUBCHEM_MMFF94_PARTIAL_CHARGES>
21
1 -0.08
10 -0.15
11 -0.15
12 0.44
13 0.19
14 0.19
15 -0.15
16 0.2
17 0.18
18 0.15
19 0.15
2 -0.19
20 0.37
21 0.15
3 -0.19
4 -0.57
5 -0.49
6 -0.34
7 -0.34
8 0.09
9 0.54

> <PUBCHEM_EFFECTIVE_ROTOR_COUNT>
3

> <PUBCHEM_PHARMACOPHORE_FEATURES>
5
1 4 acceptor
1 5 donor
1 7 acceptor
5 1 6 7 12 16 rings
6 8 10 11 13 14 15 rings

> <PUBCHEM_HEAVY_ATOM_COUNT>
17

> <PUBCHEM_ATOM_DEF_STEREO_COUNT>
0

> <PUBCHEM_ATOM_UDEF_STEREO_COUNT>
0

> <PUBCHEM_BOND_DEF_STEREO_COUNT>
0

> <PUBCHEM_BOND_UDEF_STEREO_COUNT>
0

> <PUBCHEM_ISOTOPIC_ATOM_COUNT>
0

> <PUBCHEM_COMPONENT_COUNT>
1

> <PUBCHEM_CACTVS_TAUTO_COUNT>
3

> <PUBCHEM_CONFORMER_ID>
0109724E00000002

> <PUBCHEM_MMFF94_ENERGY>
32.4407

> <PUBCHEM_FEATURE_SELFOVERLAP>
25.371

> <PUBCHEM_SHAPE_FINGERPRINT>
10616163 171 18263081028894813911
10912923 1 18260263071013198059
11287383 113 17203324464592350321
11471102 20 18341894082697862100
12107183 9 17760363688347465089
12236239 1 18187362133923391137
12616999 72 18343580729266166558
13073987 5 18408884053576724337
13167823 11 18408323302409363407
13533116 47 18408326592570752403
13760787 19 18334856086871703550
14251718 22 18202284659108053295
14251764 18 18186796968990574803
14252887 29 17603859014155249222
14576447 43 18334863762120705687
15196674 1 18410012169554744619
15242433 33 18409449172214414295
15375462 189 18260834790825685226
15477762 27 18341894130079639422
17834072 33 18408887308882249263
18186145 218 17418374722321826459
19422 9 18336545014183647563
200 152 18334858324539030649
20279233 1 16343984706384531625
20281475 54 18335703891967393185
20645477 70 18411982494059858158
21065198 48 18335136522840790345
21267235 1 18408597084804319246
221490 88 18196086647442689371
22485316 2 18409168809512744997
22646028 1 18334296474466417647
23402655 69 18410856559645174917
23559900 14 18264495151377223666
239999 70 18187358827489683158
2871803 45 18272090512849992818
29717793 49 18114463447981718285
300161 21 18410581669159284061
3004659 81 18342740758043436930
314194 84 18334859394577068731
33824 294 18343022194587001218
351380 3 17894914005941117663
3545911 37 18341612581771902237
4214541 1 18410012169660467029
42630746 31 18411139126366433446
465052 167 18040712558776882127
474 4 17916580930375212876
4921388 177 16773789252454845427
5104073 3 18408603695170088033
522135 26 18412265042756897470
5281201 14 17703792560625035116
54040823 5 18333729100527960946
602551 16 15792025415133118934
7164475 11 18267866258233606076
77779 3 18411981381873818301
9709674 26 18341043094620306826

> <PUBCHEM_SHAPE_MULTIPOLES>
318.34
11.61
1.9
0.67
9.38
0.59
-0.02
1.73
-1.41
-1.65
0.17
-0.02
-0.01
-0.82

> <PUBCHEM_SHAPE_SELFOVERLAP>
669.416

> <PUBCHEM_SHAPE_VOLUME>
182.2

> <PUBCHEM_COORDINATE_TYPE>
2
5
10

$$$$

