442938
  -OEChem-07051213003D

 38 41  0     1  0  0  0  0  0999 V2000
    3.4890    2.0483    0.7016 O   0  0  0  0  0  0  0  0  0  0  0  0
   -1.9813   -0.5143    0.7326 N   0  0  2  0  0  0  0  0  0  0  0  0
    1.8405    0.5096    0.1004 N   0  0  0  0  0  0  0  0  0  0  0  0
   -0.5815    1.2089   -0.6503 C   0  0  2  0  0  0  0  0  0  0  0  0
   -1.9190    0.8519    0.1345 C   0  0  1  0  0  0  0  0  0  0  0  0
    0.0721   -1.0553   -0.4694 C   0  0  2  0  0  0  0  0  0  0  0  0
   -0.2624    0.0115   -1.5207 C   0  0  0  0  0  0  0  0  0  0  0  0
   -1.2856   -1.6150    0.0061 C   0  0  0  0  0  0  0  0  0  0  0  0
   -3.1309    1.1105   -0.7970 C   0  0  0  0  0  0  0  0  0  0  0  0
    0.7006    1.5013    0.2244 C   0  0  0  0  0  0  0  0  0  0  0  0
   -3.2679   -0.8892    1.3043 C   0  0  0  0  0  0  0  0  0  0  0  0
    1.5331   -0.8377   -0.2237 C   0  0  0  0  0  0  0  0  0  0  0  0
   -4.4624    0.7598   -0.1443 C   0  0  0  0  0  0  0  0  0  0  0  0
   -4.4384   -0.6780    0.3527 C   0  0  0  0  0  0  0  0  0  0  0  0
    2.4887   -1.7695   -0.3169 C   0  0  0  0  0  0  0  0  0  0  0  0
    3.1513    0.9113    0.3763 C   0  0  0  0  0  0  0  0  0  0  0  0
    3.8577   -1.4035   -0.0689 C   0  0  0  0  0  0  0  0  0  0  0  0
    4.1962   -0.1505    0.2583 C   0  0  0  0  0  0  0  0  0  0  0  0
   -0.7672    2.0923   -1.2737 H   0  0  0  0  0  0  0  0  0  0  0  0
   -1.9961    1.5657    0.9657 H   0  0  0  0  0  0  0  0  0  0  0  0
    0.2326   -1.9245   -1.1421 H   0  0  0  0  0  0  0  0  0  0  0  0
    0.5657    0.2320   -2.2094 H   0  0  0  0  0  0  0  0  0  0  0  0
   -1.0968   -0.2805   -2.1678 H   0  0  0  0  0  0  0  0  0  0  0  0
   -1.9041   -1.9673   -0.8290 H   0  0  0  0  0  0  0  0  0  0  0  0
   -1.1122   -2.4534    0.6901 H   0  0  0  0  0  0  0  0  0  0  0  0
   -3.0411    0.5309   -1.7226 H   0  0  0  0  0  0  0  0  0  0  0  0
   -3.1488    2.1675   -1.0895 H   0  0  0  0  0  0  0  0  0  0  0  0
    1.0954    2.4877   -0.0468 H   0  0  0  0  0  0  0  0  0  0  0  0
    0.4400    1.5489    1.2883 H   0  0  0  0  0  0  0  0  0  0  0  0
   -3.4308   -0.2833    2.2050 H   0  0  0  0  0  0  0  0  0  0  0  0
   -3.2534   -1.9293    1.6520 H   0  0  0  0  0  0  0  0  0  0  0  0
   -5.2776    0.8930   -0.8641 H   0  0  0  0  0  0  0  0  0  0  0  0
   -4.6559    1.4417    0.6926 H   0  0  0  0  0  0  0  0  0  0  0  0
   -5.3788   -0.9052    0.8673 H   0  0  0  0  0  0  0  0  0  0  0  0
   -4.3630   -1.3664   -0.4978 H   0  0  0  0  0  0  0  0  0  0  0  0
    2.2728   -2.8010   -0.5708 H   0  0  0  0  0  0  0  0  0  0  0  0
    4.6137   -2.1763   -0.1533 H   0  0  0  0  0  0  0  0  0  0  0  0
    5.2265    0.1271    0.4485 H   0  0  0  0  0  0  0  0  0  0  0  0
  1 16  2  0  0  0  0
  2  5  1  0  0  0  0
  2  8  1  0  0  0  0
  2 11  1  0  0  0  0
  3 10  1  0  0  0  0
  3 12  1  0  0  0  0
  3 16  1  0  0  0  0
  4  5  1  0  0  0  0
  4  7  1  0  0  0  0
  4 10  1  0  0  0  0
  4 19  1  0  0  0  0
  5  9  1  0  0  0  0
  5 20  1  0  0  0  0
  6  7  1  0  0  0  0
  6  8  1  0  0  0  0
  6 12  1  0  0  0  0
  6 21  1  0  0  0  0
  7 22  1  0  0  0  0
  7 23  1  0  0  0  0
  8 24  1  0  0  0  0
  8 25  1  0  0  0  0
  9 13  1  0  0  0  0
  9 26  1  0  0  0  0
  9 27  1  0  0  0  0
 10 28  1  0  0  0  0
 10 29  1  0  0  0  0
 11 14  1  0  0  0  0
 11 30  1  0  0  0  0
 11 31  1  0  0  0  0
 12 15  2  0  0  0  0
 13 14  1  0  0  0  0
 13 32  1  0  0  0  0
 13 33  1  0  0  0  0
 14 34  1  0  0  0  0
 14 35  1  0  0  0  0
 15 17  1  0  0  0  0
 15 36  1  0  0  0  0
 16 18  1  0  0  0  0
 17 18  2  0  0  0  0
 17 37  1  0  0  0  0
 18 38  1  0  0  0  0
M  END
> <PUBCHEM_COMPOUND_CID>
442938

> <PUBCHEM_CONFORMER_RMSD>
0.6

> <PUBCHEM_CONFORMER_DIVERSEORDER>
1

> <PUBCHEM_MMFF94_PARTIAL_CHARGES>
16
1 -0.57
10 0.3
11 0.27
12 -0.03
15 -0.15
16 0.62
17 -0.15
18 -0.14
2 -0.81
3 -0.47
36 0.15
37 0.15
38 0.15
5 0.27
6 0.14
8 0.27

> <PUBCHEM_EFFECTIVE_ROTOR_COUNT>
1.4

> <PUBCHEM_PHARMACOPHORE_FEATURES>
6
1 1 acceptor
1 2 cation
6 2 4 5 6 7 8 rings
6 2 5 9 11 13 14 rings
6 3 12 15 16 17 18 rings
6 3 4 6 7 10 12 rings

> <PUBCHEM_HEAVY_ATOM_COUNT>
18

> <PUBCHEM_ATOM_DEF_STEREO_COUNT>
3

> <PUBCHEM_ATOM_UDEF_STEREO_COUNT>
0

> <PUBCHEM_BOND_DEF_STEREO_COUNT>
0

> <PUBCHEM_BOND_UDEF_STEREO_COUNT>
0

> <PUBCHEM_ISOTOPIC_ATOM_COUNT>
0

> <PUBCHEM_COMPONENT_COUNT>
1

> <PUBCHEM_CACTVS_TAUTO_COUNT>
1

> <PUBCHEM_CONFORMER_ID>
0006C23A00000001

> <PUBCHEM_MMFF94_ENERGY>
84.5348

> <PUBCHEM_FEATURE_SELFOVERLAP>
31.305

> <PUBCHEM_SHAPE_FINGERPRINT>
10 15 18341061718648139544
10366900 7 18271799155449050306
10608611 8 18411704308943505292
10980938 120 18333731291077319878
11132069 177 18408891715318410154
11471102 20 18334579066319267646
11578080 2 14332301657710853687
11615757 297 17821445768000748371
12011746 2 18410571816229961694
12119455 92 17894633668803627791
12236239 1 16732707168223209263
12251169 10 18334294262463548534
12403259 415 18271809059823145501
12507560 40 18413387626959556569
13140716 1 18263374616111348146
13296908 3 18201997733263962555
13675066 3 18272929401809918939
14289901 80 18113622308854710587
14790565 3 17835796396679091892
14943859 89 13912323494830095351
15196674 1 18410856563950587643
15219456 202 18411983559063554221
15309172 13 17967533484268971959
15375358 24 18343024388987897483
15536298 74 18408322185364224114
15653759 3 18130784572751369483
15848702 151 17459462428343905838
16945 1 18268705009173758397
17804303 29 18272926133434648247
17834072 14 18342737416727296001
17844478 74 18343582962527945212
1813 80 16774078457739400094
18175812 5 18341894112361635319
19049666 15 18198345267236990725
19784866 170 18342456985428008500
200 152 17967821561206222991
20279233 1 18342453759559214755
20528008 55 18411420617789835743
20645477 70 18261115213620045190
21249577 43 18413670227243988107
21267235 1 18409720785772347782
21682296 61 17752479026341679310
22854114 59 18334294257920434170
23184049 59 18259983794701170062
23402539 116 18411144649726083437
23532345 42 17989203737544846981
23557571 272 17703794759817472485
23559900 14 18130505344322317950
26918003 58 18412547638672508865
2748010 2 18412824719818567558
296302 2 18409165502535691565
351380 180 18409452513693500859
5104073 3 18411980273772341305
633830 44 17313650629464802037
69090 78 18408608054504221143
77492 1 16732989733942278077
9709674 26 18342735178833420899

> <PUBCHEM_SHAPE_MULTIPOLES>
354.6
8.24
1.83
0.99
1.11
0.1
0.09
-0.17
-1.5
-0.84
-0.1
0.38
0
0.98

> <PUBCHEM_SHAPE_SELFOVERLAP>
763.095

> <PUBCHEM_SHAPE_VOLUME>
190.8

> <PUBCHEM_COORDINATE_TYPE>
2
5
10

$$$$

