9167
  -OEChem-06261203283D

 42 47  0     0  0  0  0  0  0999 V2000
   -0.8542   -0.7091   -0.0010 C   0  0  0  0  0  0  0  0  0  0  0  0
   -0.8542    0.7091   -0.0009 C   0  0  0  0  0  0  0  0  0  0  0  0
   -2.0971   -1.4268   -0.0002 C   0  0  0  0  0  0  0  0  0  0  0  0
   -2.0970    1.4268   -0.0005 C   0  0  0  0  0  0  0  0  0  0  0  0
   -3.3282   -0.7166    0.0006 C   0  0  0  0  0  0  0  0  0  0  0  0
   -3.3281    0.7167    0.0005 C   0  0  0  0  0  0  0  0  0  0  0  0
    1.6445   -0.6969   -0.0016 C   0  0  0  0  0  0  0  0  0  0  0  0
    1.6446    0.6969   -0.0007 C   0  0  0  0  0  0  0  0  0  0  0  0
    0.4099   -1.3671   -0.0016 C   0  0  0  0  0  0  0  0  0  0  0  0
    0.4099    1.3671   -0.0006 C   0  0  0  0  0  0  0  0  0  0  0  0
    2.8705   -1.3886   -0.0020 C   0  0  0  0  0  0  0  0  0  0  0  0
    2.8706    1.3885    0.0006 C   0  0  0  0  0  0  0  0  0  0  0  0
    4.0978   -0.7054   -0.0010 C   0  0  0  0  0  0  0  0  0  0  0  0
    4.0978    0.7052    0.0008 C   0  0  0  0  0  0  0  0  0  0  0  0
   -2.1604   -2.8498    0.0000 C   0  0  0  0  0  0  0  0  0  0  0  0
   -2.1601    2.8498   -0.0014 C   0  0  0  0  0  0  0  0  0  0  0  0
   -4.5301   -1.4806    0.0013 C   0  0  0  0  0  0  0  0  0  0  0  0
   -4.5299    1.4808    0.0013 C   0  0  0  0  0  0  0  0  0  0  0  0
   -3.3580   -3.5620    0.0009 C   0  0  0  0  0  0  0  0  0  0  0  0
   -3.3576    3.5620   -0.0009 C   0  0  0  0  0  0  0  0  0  0  0  0
   -4.5496   -2.8735    0.0014 C   0  0  0  0  0  0  0  0  0  0  0  0
   -4.5491    2.8737    0.0005 C   0  0  0  0  0  0  0  0  0  0  0  0
    5.3228   -1.3931   -0.0012 C   0  0  0  0  0  0  0  0  0  0  0  0
    5.3229    1.3929    0.0025 C   0  0  0  0  0  0  0  0  0  0  0  0
    6.5311   -0.6958    0.0005 C   0  0  0  0  0  0  0  0  0  0  0  0
    6.5311    0.6956    0.0027 C   0  0  0  0  0  0  0  0  0  0  0  0
    0.4604   -2.4541   -0.0019 H   0  0  0  0  0  0  0  0  0  0  0  0
    0.4605    2.4541    0.0001 H   0  0  0  0  0  0  0  0  0  0  0  0
    2.8674   -2.4787   -0.0029 H   0  0  0  0  0  0  0  0  0  0  0  0
    2.8675    2.4786    0.0017 H   0  0  0  0  0  0  0  0  0  0  0  0
   -1.2605   -3.4587   -0.0004 H   0  0  0  0  0  0  0  0  0  0  0  0
   -1.2602    3.4588   -0.0026 H   0  0  0  0  0  0  0  0  0  0  0  0
   -5.5063   -1.0033    0.0018 H   0  0  0  0  0  0  0  0  0  0  0  0
   -5.5061    1.0036    0.0023 H   0  0  0  0  0  0  0  0  0  0  0  0
   -3.3486   -4.6474    0.0010 H   0  0  0  0  0  0  0  0  0  0  0  0
   -3.3480    4.6474   -0.0017 H   0  0  0  0  0  0  0  0  0  0  0  0
   -5.4947   -3.4073    0.0020 H   0  0  0  0  0  0  0  0  0  0  0  0
   -5.4942    3.4076    0.0011 H   0  0  0  0  0  0  0  0  0  0  0  0
    5.3459   -2.4809   -0.0026 H   0  0  0  0  0  0  0  0  0  0  0  0
    5.3460    2.4807    0.0040 H   0  0  0  0  0  0  0  0  0  0  0  0
    7.4713   -1.2394    0.0004 H   0  0  0  0  0  0  0  0  0  0  0  0
    7.4713    1.2393    0.0041 H   0  0  0  0  0  0  0  0  0  0  0  0
  1  2  1  0  0  0  0
  1  3  1  0  0  0  0
  1  9  2  0  0  0  0
  2  4  1  0  0  0  0
  2 10  2  0  0  0  0
  3  5  1  0  0  0  0
  3 15  2  0  0  0  0
  4  6  1  0  0  0  0
  4 16  2  0  0  0  0
  5  6  1  0  0  0  0
  5 17  2  0  0  0  0
  6 18  2  0  0  0  0
  7  8  1  0  0  0  0
  7  9  1  0  0  0  0
  7 11  2  0  0  0  0
  8 10  1  0  0  0  0
  8 12  2  0  0  0  0
  9 27  1  0  0  0  0
 10 28  1  0  0  0  0
 11 13  1  0  0  0  0
 11 29  1  0  0  0  0
 12 14  1  0  0  0  0
 12 30  1  0  0  0  0
 13 14  1  0  0  0  0
 13 23  2  0  0  0  0
 14 24  2  0  0  0  0
 15 19  1  0  0  0  0
 15 31  1  0  0  0  0
 16 20  1  0  0  0  0
 16 32  1  0  0  0  0
 17 21  1  0  0  0  0
 17 33  1  0  0  0  0
 18 22  1  0  0  0  0
 18 34  1  0  0  0  0
 19 21  2  0  0  0  0
 19 35  1  0  0  0  0
 20 22  2  0  0  0  0
 20 36  1  0  0  0  0
 21 37  1  0  0  0  0
 22 38  1  0  0  0  0
 23 25  1  0  0  0  0
 23 39  1  0  0  0  0
 24 26  1  0  0  0  0
 24 40  1  0  0  0  0
 25 26  2  0  0  0  0
 25 41  1  0  0  0  0
 26 42  1  0  0  0  0
M  END
> <PUBCHEM_COMPOUND_CID>
9167

> <PUBCHEM_CONFORMER_RMSD>
0.6

> <PUBCHEM_CONFORMER_DIVERSEORDER>
1

> <PUBCHEM_MMFF94_PARTIAL_CHARGES>
32
10 -0.15
11 -0.15
12 -0.15
15 -0.15
16 -0.15
17 -0.15
18 -0.15
19 -0.15
20 -0.15
21 -0.15
22 -0.15
23 -0.15
24 -0.15
25 -0.15
26 -0.15
27 0.15
28 0.15
29 0.15
30 0.15
31 0.15
32 0.15
33 0.15
34 0.15
35 0.15
36 0.15
37 0.15
38 0.15
39 0.15
40 0.15
41 0.15
42 0.15
9 -0.15

> <PUBCHEM_EFFECTIVE_ROTOR_COUNT>
0

> <PUBCHEM_PHARMACOPHORE_FEATURES>
6
6 1 2 3 4 5 6 rings
6 1 2 7 8 9 10 rings
6 13 14 23 24 25 26 rings
6 3 5 15 17 19 21 rings
6 4 6 16 18 20 22 rings
6 7 8 11 12 13 14 rings

> <PUBCHEM_HEAVY_ATOM_COUNT>
26

> <PUBCHEM_ATOM_DEF_STEREO_COUNT>
0

> <PUBCHEM_ATOM_UDEF_STEREO_COUNT>
0

> <PUBCHEM_BOND_DEF_STEREO_COUNT>
0

> <PUBCHEM_BOND_UDEF_STEREO_COUNT>
0

> <PUBCHEM_ISOTOPIC_ATOM_COUNT>
0

> <PUBCHEM_COMPONENT_COUNT>
1

> <PUBCHEM_CACTVS_TAUTO_COUNT>
1

> <PUBCHEM_CONFORMER_ID>
000023CF00000001

> <PUBCHEM_MMFF94_ENERGY>
104.8661

> <PUBCHEM_FEATURE_SELFOVERLAP>
30.557

> <PUBCHEM_SHAPE_FINGERPRINT>
10050765 1 18410855469709821222
10319926 262 18335999627021543178
10411042 1 18050567348980944803
10595046 47 18342456998665955038
10616163 171 18409729555990116735
1100329 8 17835806665581679019
11578080 2 4894451186361383857
12107183 9 17981896551203448050
12236239 1 18131633387807906410
12403259 226 18190465960933694729
12403259 415 18040442057947943480
12788726 201 18342747273646112187
13009979 54 17986944172736232885
13073987 5 18412548695978437602
13140716 1 18265607689899082993
13583140 156 17821736013654124692
13631057 29 18336829693084869107
13782708 43 17676769764929576278
138480 1 16537359446152122055
14347332 77 18338235955534963014
14508225 48 18265627481266729741
14790565 3 17905041813518850281
14844126 61 18412261701773910859
14866123 147 18409726258314790875
15042514 8 18339638950348186451
15131766 46 15479816855438652359
15196674 1 18410575085211653126
15230672 131 18124593339484142406
15250474 111 18271539675163893330
15927050 60 18265615566753884143
16087824 20 18411138053342144781
17844677 252 18411131403799080828
18927931 339 18337947905253745479
20775438 99 16529244479373217703
21033648 144 18340499932135288540
21033648 29 17676787408839286258
21033650 10 18197468858334310742
21065198 57 18410012139500627008
21130935 74 18411427228942490834
21133410 171 17401266222621336543
21236236 1 18408604760084651647
21267235 1 18339918212604927962
21279426 13 18335698407953565318
21315763 129 18410293584681598412
22182313 1 17749935748250132686
22393880 68 18409163342515457366
23227448 37 18410011065363339845
23557571 272 18261386732804268356
23559900 14 18335992973294814041
23569943 247 14419238020007215876
283562 15 18341615897904010011
335352 9 18410575123360307837
34797466 226 17677040241043226220
350125 39 18409445856162142592
4073 2 18272928315789991266
4214541 1 18410573994089714240
4409770 3 18412550903755086631
484989 97 18270126704770928895
497634 4 18273216374255046332
5104073 3 18408047312469549570
5171179 24 17751657467716795161
5283173 99 18409730677345462976
559249 180 18411984701952486746
5969126 39 18261120612990178287
6327066 14 18198628937697065589
6700243 42 17754699828837592279
7808743 9 18339645641179668801
9709674 26 18334291002309194583

> <PUBCHEM_SHAPE_MULTIPOLES>
535.07
13.87
3.81
0.62
18.82
0
0
0
0.01
-7.03
0
0
0
0

> <PUBCHEM_SHAPE_SELFOVERLAP>
1250.061

> <PUBCHEM_SHAPE_VOLUME>
245.4

> <PUBCHEM_COORDINATE_TYPE>
2
5
10

$$$$

