46173803
  -OEChem-07051213052D

 88 91  0     1  0  0  0  0  0999 V2000
    9.5129   -0.8206    0.0000 O   0  0  0  0  0  0  0  0  0  0  0  0
   12.1635    0.5660    0.0000 O   0  0  0  0  0  0  0  0  0  0  0  0
    9.5307   -3.8306    0.0000 O   0  0  0  0  0  0  0  0  0  0  0  0
   11.3889    2.3864    0.0000 O   0  0  0  0  0  0  0  0  0  0  0  0
    7.7732   -0.8365    0.0000 O   0  0  0  0  0  0  0  0  0  0  0  0
    6.0667   -3.8489    0.0000 O   0  0  0  0  0  0  0  0  0  0  0  0
    4.2986   -3.8812    0.0000 O   0  0  0  0  0  0  0  0  0  0  0  0
    2.5405   -0.8088    0.0000 O   0  0  0  0  0  0  0  0  0  0  0  0
    6.9088   -0.3120    0.0000 O   0  0  0  0  0  0  0  0  0  0  0  0
    3.4446    0.6880    0.0000 O   0  0  0  0  0  0  0  0  0  0  0  0
    7.6849    1.8862    0.0000 O   0  0  0  0  0  0  0  0  0  0  0  0
    6.0401    1.1926    0.0000 N   0  0  0  0  0  0  0  0  0  0  0  0
   10.3836   -1.3261    0.0000 C   0  0  1  0  0  0  0  0  0  0  0  0
   11.2469   -0.8215    0.0000 C   0  0  1  0  0  0  0  0  0  0  0  0
   10.3888   -2.3260    0.0000 C   0  0  1  0  0  0  0  0  0  0  0  0
   11.2416    0.1785    0.0000 C   0  0  1  0  0  0  0  0  0  0  0  0
    9.5255   -2.8306    0.0000 C   0  0  2  0  0  0  0  0  0  0  0  0
   10.5308    0.8819    0.0000 C   0  0  1  0  0  0  0  0  0  0  0  0
    8.6568   -2.3352    0.0000 C   0  0  1  0  0  0  0  0  0  0  0  0
   10.5255    1.8818    0.0000 C   0  0  2  0  0  0  0  0  0  0  0  0
   12.1156   -1.3169    0.0000 C   0  0  0  0  0  0  0  0  0  0  0  0
   11.2575   -2.8215    0.0000 C   0  0  0  0  0  0  0  0  0  0  0  0
    8.6437   -1.3285    0.0000 C   0  0  0  0  0  0  0  0  0  0  0  0
    9.6090    0.4943    0.0000 C   0  0  0  0  0  0  0  0  0  0  0  0
    9.6569    2.3773    0.0000 C   0  0  1  0  0  0  0  0  0  0  0  0
    7.7934   -2.8398    0.0000 C   0  0  0  0  0  0  0  0  0  0  0  0
    8.8668    1.7643    0.0000 C   0  0  0  0  0  0  0  0  0  0  0  0
    9.3930    3.3418    0.0000 C   0  0  0  0  0  0  0  0  0  0  0  0
    6.9248   -2.3443    0.0000 C   0  0  0  0  0  0  0  0  0  0  0  0
    6.9195   -1.3444    0.0000 C   0  0  0  0  0  0  0  0  0  0  0  0
    6.0614   -2.8489    0.0000 C   0  0  0  0  0  0  0  0  0  0  0  0
    8.4284    3.0779    0.0000 C   0  0  0  0  0  0  0  0  0  0  0  0
    5.1928   -2.3535    0.0000 C   0  0  0  0  0  0  0  0  0  0  0  0
    7.5598    3.5733    0.0000 C   0  0  0  0  0  0  0  0  0  0  0  0
    5.1767   -1.3120    0.0000 C   0  0  0  0  0  0  0  0  0  0  0  0
    4.2947   -2.8812    0.0000 C   0  0  0  0  0  0  0  0  0  0  0  0
    4.3107   -0.8120    0.0000 C   0  0  0  0  0  0  0  0  0  0  0  0
    3.3926   -2.3604    0.0000 C   0  0  0  0  0  0  0  0  0  0  0  0
    6.6964    3.0687    0.0000 C   0  0  0  0  0  0  0  0  0  0  0  0
    3.4007   -1.3188    0.0000 C   0  0  0  0  0  0  0  0  0  0  0  0
    6.0427   -0.8120    0.0000 C   0  0  0  0  0  0  0  0  0  0  0  0
    4.3107    0.1880    0.0000 C   0  0  0  0  0  0  0  0  0  0  0  0
    5.1767    0.6880    0.0000 C   0  0  0  0  0  0  0  0  0  0  0  0
    6.0427    0.1880    0.0000 C   0  0  0  0  0  0  0  0  0  0  0  0
    6.7017    2.0688    0.0000 C   0  0  0  0  0  0  0  0  0  0  0  0
    2.5247   -2.8571    0.0000 C   0  0  0  0  0  0  0  0  0  0  0  0
    5.8277    3.5642    0.0000 C   0  0  0  0  0  0  0  0  0  0  0  0
   11.1186   -1.7528    0.0000 H   0  0  0  0  0  0  0  0  0  0  0  0
   11.2502   -1.4415    0.0000 H   0  0  0  0  0  0  0  0  0  0  0  0
   10.3921   -2.9460    0.0000 H   0  0  0  0  0  0  0  0  0  0  0  0
   11.3594    0.7872    0.0000 H   0  0  0  0  0  0  0  0  0  0  0  0
   10.0640   -3.1378    0.0000 H   0  0  0  0  0  0  0  0  0  0  0  0
   10.0135    1.2236    0.0000 H   0  0  0  0  0  0  0  0  0  0  0  0
    8.6678   -3.1851    0.0000 H   0  0  0  0  0  0  0  0  0  0  0  0
   11.0641    1.5747    0.0000 H   0  0  0  0  0  0  0  0  0  0  0  0
   11.8084   -1.8555    0.0000 H   0  0  0  0  0  0  0  0  0  0  0  0
   12.6541   -1.6241    0.0000 H   0  0  0  0  0  0  0  0  0  0  0  0
   12.4227   -0.7784    0.0000 H   0  0  0  0  0  0  0  0  0  0  0  0
   10.9503   -3.3600    0.0000 H   0  0  0  0  0  0  0  0  0  0  0  0
   11.7961   -3.1286    0.0000 H   0  0  0  0  0  0  0  0  0  0  0  0
   11.5646   -2.2829    0.0000 H   0  0  0  0  0  0  0  0  0  0  0  0
    9.3687    1.0658    0.0000 H   0  0  0  0  0  0  0  0  0  0  0  0
    9.0374    0.2540    0.0000 H   0  0  0  0  0  0  0  0  0  0  0  0
    9.8493   -0.0772    0.0000 H   0  0  0  0  0  0  0  0  0  0  0  0
    9.7007    1.7588    0.0000 H   0  0  0  0  0  0  0  0  0  0  0  0
    7.7967   -3.4598    0.0000 H   0  0  0  0  0  0  0  0  0  0  0  0
   12.6574    0.1912    0.0000 H   0  0  0  0  0  0  0  0  0  0  0  0
   10.0693   -4.1378    0.0000 H   0  0  0  0  0  0  0  0  0  0  0  0
    8.4867    2.2542    0.0000 H   0  0  0  0  0  0  0  0  0  0  0  0
    8.3769    1.3843    0.0000 H   0  0  0  0  0  0  0  0  0  0  0  0
    9.2468    1.2744    0.0000 H   0  0  0  0  0  0  0  0  0  0  0  0
   11.3856    3.0064    0.0000 H   0  0  0  0  0  0  0  0  0  0  0  0
    9.7001    3.8804    0.0000 H   0  0  0  0  0  0  0  0  0  0  0  0
    7.5395   -1.3411    0.0000 H   0  0  0  0  0  0  0  0  0  0  0  0
    6.9162   -0.7244    0.0000 H   0  0  0  0  0  0  0  0  0  0  0  0
    6.2995   -1.3476    0.0000 H   0  0  0  0  0  0  0  0  0  0  0  0
    8.3508    2.4628    0.0000 H   0  0  0  0  0  0  0  0  0  0  0  0
    7.5565    4.1933    0.0000 H   0  0  0  0  0  0  0  0  0  0  0  0
    6.5797    0.4980    0.0000 H   0  0  0  0  0  0  0  0  0  0  0  0
    2.2168   -2.3190    0.0000 H   0  0  0  0  0  0  0  0  0  0  0  0
    1.9866   -3.1650    0.0000 H   0  0  0  0  0  0  0  0  0  0  0  0
    2.8326   -3.3952    0.0000 H   0  0  0  0  0  0  0  0  0  0  0  0
    6.1349    4.1027    0.0000 H   0  0  0  0  0  0  0  0  0  0  0  0
    5.2892    3.8713    0.0000 H   0  0  0  0  0  0  0  0  0  0  0  0
    5.5206    3.0256    0.0000 H   0  0  0  0  0  0  0  0  0  0  0  0
    6.5687    0.8686    0.0000 H   0  0  0  0  0  0  0  0  0  0  0  0
    3.7628   -4.1933    0.0000 H   0  0  0  0  0  0  0  0  0  0  0  0
    2.0000   -1.1126    0.0000 H   0  0  0  0  0  0  0  0  0  0  0  0
  1 13  1  0  0  0  0
  1 23  1  0  0  0  0
 16  2  1  1  0  0  0
  2 67  1  0  0  0  0
 17  3  1  1  0  0  0
  3 68  1  0  0  0  0
 20  4  1  6  0  0  0
  4 72  1  0  0  0  0
  5 23  2  0  0  0  0
  6 31  2  0  0  0  0
  7 36  1  0  0  0  0
  7 87  1  0  0  0  0
  8 40  1  0  0  0  0
  8 88  1  0  0  0  0
  9 41  2  0  0  0  0
 10 42  2  0  0  0  0
 11 45  2  0  0  0  0
 12 43  1  0  0  0  0
 12 45  1  0  0  0  0
 12 86  1  0  0  0  0
 13 14  1  0  0  0  0
 13 15  1  0  0  0  0
 13 48  1  6  0  0  0
 14 16  1  0  0  0  0
 14 21  1  1  0  0  0
 14 49  1  0  0  0  0
 15 17  1  0  0  0  0
 15 22  1  6  0  0  0
 15 50  1  0  0  0  0
 16 18  1  0  0  0  0
 16 51  1  0  0  0  0
 17 19  1  0  0  0  0
 17 52  1  0  0  0  0
 18 20  1  0  0  0  0
 18 24  1  6  0  0  0
 18 53  1  0  0  0  0
 19 23  1  0  0  0  0
 19 26  1  0  0  0  0
 19 54  1  1  0  0  0
 20 25  1  0  0  0  0
 20 55  1  0  0  0  0
 21 56  1  0  0  0  0
 21 57  1  0  0  0  0
 21 58  1  0  0  0  0
 22 59  1  0  0  0  0
 22 60  1  0  0  0  0
 22 61  1  0  0  0  0
 24 62  1  0  0  0  0
 24 63  1  0  0  0  0
 24 64  1  0  0  0  0
 25 27  1  1  0  0  0
 25 28  1  0  0  0  0
 25 65  1  0  0  0  0
 26 29  2  0  0  0  0
 26 66  1  0  0  0  0
 27 69  1  0  0  0  0
 27 70  1  0  0  0  0
 27 71  1  0  0  0  0
 28 32  2  0  0  0  0
 28 73  1  0  0  0  0
 29 30  1  0  0  0  0
 29 31  1  0  0  0  0
 30 74  1  0  0  0  0
 30 75  1  0  0  0  0
 30 76  1  0  0  0  0
 31 33  1  0  0  0  0
 32 34  1  0  0  0  0
 32 77  1  0  0  0  0
 33 35  2  0  0  0  0
 33 36  1  0  0  0  0
 34 39  2  0  0  0  0
 34 78  1  0  0  0  0
 35 37  1  0  0  0  0
 35 41  1  0  0  0  0
 36 38  2  0  0  0  0
 37 40  2  0  0  0  0
 37 42  1  0  0  0  0
 38 40  1  0  0  0  0
 38 46  1  0  0  0  0
 39 45  1  0  0  0  0
 39 47  1  0  0  0  0
 41 44  1  0  0  0  0
 42 43  1  0  0  0  0
 43 44  2  0  0  0  0
 44 79  1  0  0  0  0
 46 80  1  0  0  0  0
 46 81  1  0  0  0  0
 46 82  1  0  0  0  0
 47 83  1  0  0  0  0
 47 84  1  0  0  0  0
 47 85  1  0  0  0  0
M  END
> <PUBCHEM_COMPOUND_CID>
46173803

> <PUBCHEM_COMPOUND_CANONICALIZED>
1

> <PUBCHEM_CACTVS_COMPLEXITY>
1430

> <PUBCHEM_CACTVS_HBOND_ACCEPTOR>
11

> <PUBCHEM_CACTVS_HBOND_DONOR>
6

> <PUBCHEM_CACTVS_ROTATABLE_BOND>
0

> <PUBCHEM_CACTVS_SUBSKEYS>
AAADcfB+PAAAAAAAAAAAAAAAAAAAAAAAAAA0QIAAAAAAAAABAAAAHgAQCAAADRyhmAICDoLABgCIAqXSWACCAAAkIgAIiAGECMgINzaClTOGcUAl5BWImce77/zu4AADCAAYAADAAAYQADAAAAAAAAAAAA==

> <PUBCHEM_IUPAC_INCHI>
InChI=1S/C35H41NO11/c1-13-9-8-10-14(2)34(45)36-21-12-22(37)23-24(30(42)17(5)31(43)25(23)32(21)44)27(39)15(3)11-20-29(41)19(7)33(47-35(20)46)18(6)28(40)16(4)26(13)38/h8-13,16,18-20,26,28-29,33,38,40-43H,1-7H3,(H,36,45)/b9-8+,14-10-,15-11+/t13-,16+,18+,19+,20-,26-,28+,29+,33-/m0/s1

> <PUBCHEM_IUPAC_INCHIKEY>
OPAMTDKYMHWYPP-HSEBVMCKSA-N

> <PUBCHEM_XLOGP3_AA>
3.4

> <PUBCHEM_EXACT_MASS>
651.267961

> <PUBCHEM_MOLECULAR_FORMULA>
C35H41NO11

> <PUBCHEM_MOLECULAR_WEIGHT>
651.70014

> <PUBCHEM_OPENEYE_CAN_SMILES>
CC1C=CC=C(C(=O)NC2=CC(=O)C3=C(C(=C(C(=C3C2=O)O)C)O)C(=O)C(=CC4C(C(C(C(C(C(C1O)C)O)C)OC4=O)C)O)C)C

> <PUBCHEM_OPENEYE_ISO_SMILES>
C[C@H]1/C=C/C=C(\C(=O)NC2=CC(=O)C3=C(C(=C(C(=C3C2=O)O)C)O)C(=O)/C(=C/[C@H]4[C@@H]([C@H]([C@H]([C@@H]([C@@H]([C@@H]([C@H]1O)C)O)C)OC4=O)C)O)/C)/C

> <PUBCHEM_CACTVS_TPSA>
208

> <PUBCHEM_MONOISOTOPIC_WEIGHT>
651.267961

> <PUBCHEM_TOTAL_CHARGE>
0

> <PUBCHEM_HEAVY_ATOM_COUNT>
47

> <PUBCHEM_ATOM_DEF_STEREO_COUNT>
9

> <PUBCHEM_ATOM_UDEF_STEREO_COUNT>
0

> <PUBCHEM_BOND_DEF_STEREO_COUNT>
3

> <PUBCHEM_BOND_UDEF_STEREO_COUNT>
0

> <PUBCHEM_ISOTOPIC_ATOM_COUNT>
0

> <PUBCHEM_COMPONENT_COUNT>
1

> <PUBCHEM_CACTVS_TAUTO_COUNT>
1000

> <PUBCHEM_COORDINATE_TYPE>
1
5
255

> <PUBCHEM_BONDANNOTATIONS>
13  48  6
14  21  5
15  22  6
18  24  6
19  54  5
16  2  5
25  27  5
17  3  5
33  35  8
33  36  8
35  37  8
36  38  8
37  40  8
38  40  8
20  4  6

$$$$

