5280451
  -OEChem-07051212463D

 13 12  0     0  0  0  0  0  0999 V2000
    2.5779    0.0070   -0.4675 O   0  0  0  0  0  0  0  0  0  0  0  0
   -1.8692    0.7705    0.7782 O   0  0  0  0  0  0  0  0  0  0  0  0
    0.8476    1.3282    0.2148 O   0  0  0  0  0  0  0  0  0  0  0  0
   -1.6520   -0.0105   -1.3750 N   0  0  0  0  0  0  0  0  0  0  0  0
   -0.5811   -1.2051    0.3826 C   0  0  0  0  0  0  0  0  0  0  0  0
    0.7498   -1.0696    0.4212 C   0  0  0  0  0  0  0  0  0  0  0  0
   -1.4263   -0.0496   -0.0183 C   0  0  0  0  0  0  0  0  0  0  0  0
    1.3533    0.2290    0.0640 C   0  0  0  0  0  0  0  0  0  0  0  0
   -1.0722   -2.1439    0.6066 H   0  0  0  0  0  0  0  0  0  0  0  0
    1.3948   -1.9061    0.6625 H   0  0  0  0  0  0  0  0  0  0  0  0
   -1.2737   -0.7036   -2.0133 H   0  0  0  0  0  0  0  0  0  0  0  0
   -2.2140    0.7267   -1.7878 H   0  0  0  0  0  0  0  0  0  0  0  0
    3.0242    0.8424   -0.7236 H   0  0  0  0  0  0  0  0  0  0  0  0
  1  8  1  0  0  0  0
  1 13  1  0  0  0  0
  2  7  2  0  0  0  0
  3  8  2  0  0  0  0
  4  7  1  0  0  0  0
  4 11  1  0  0  0  0
  4 12  1  0  0  0  0
  5  6  2  0  0  0  0
  5  7  1  0  0  0  0
  5  9  1  0  0  0  0
  6  8  1  0  0  0  0
  6 10  1  0  0  0  0
M  END
> <PUBCHEM_COMPOUND_CID>
5280451

> <PUBCHEM_CONFORMER_RMSD>
0.4

> <PUBCHEM_CONFORMER_DIVERSEORDER>
1
12
14
4
5
9
13
10
8
3
7
11
2
6

> <PUBCHEM_MMFF94_PARTIAL_CHARGES>
13
1 -0.65
10 0.15
11 0.37
12 0.37
13 0.5
2 -0.57
3 -0.57
4 -0.8
5 -0.14
6 -0.14
7 0.62
8 0.71
9 0.15

> <PUBCHEM_EFFECTIVE_ROTOR_COUNT>
2

> <PUBCHEM_PHARMACOPHORE_FEATURES>
5
1 1 acceptor
1 2 acceptor
1 3 acceptor
1 4 donor
3 1 3 8 anion

> <PUBCHEM_HEAVY_ATOM_COUNT>
8

> <PUBCHEM_ATOM_DEF_STEREO_COUNT>
0

> <PUBCHEM_ATOM_UDEF_STEREO_COUNT>
0

> <PUBCHEM_BOND_DEF_STEREO_COUNT>
1

> <PUBCHEM_BOND_UDEF_STEREO_COUNT>
0

> <PUBCHEM_ISOTOPIC_ATOM_COUNT>
0

> <PUBCHEM_COMPONENT_COUNT>
1

> <PUBCHEM_CACTVS_TAUTO_COUNT>
2

> <PUBCHEM_CONFORMER_ID>
005092C300000001

> <PUBCHEM_MMFF94_ENERGY>
22.602

> <PUBCHEM_FEATURE_SELFOVERLAP>
25.43

> <PUBCHEM_SHAPE_FINGERPRINT>
16714656 1 17774714282000346654
18185500 45 18189908671672894081
20096714 4 18411417306285635171
21040471 1 18342741814431071762
24536 1 18262524662962005800
29004967 10 16271920541099355696
5084963 1 17917149390402136754

> <PUBCHEM_SHAPE_MULTIPOLES>
142.05
2.68
1.19
0.91
0.67
0.15
0.19
-0.48
0.38
0.07
-0.2
-0.4
-0.08
-0.05

> <PUBCHEM_SHAPE_SELFOVERLAP>
277.044

> <PUBCHEM_SHAPE_VOLUME>
84.6

> <PUBCHEM_COORDINATE_TYPE>
2
5
10

$$$$

