5282085
  -OEChem-07051213023D

 68 67  0     1  0  0  0  0  0999 V2000
    5.7158   -1.2294   -1.3157 O   0  0  0  0  0  0  0  0  0  0  0  0
   -6.1100    3.6250    1.0031 O   0  0  0  0  0  0  0  0  0  0  0  0
   -7.1423    0.5697   -2.0781 O   0  0  0  0  0  0  0  0  0  0  0  0
   -7.2869    1.1836    0.1591 N   0  0  0  0  0  0  0  0  0  0  0  0
    4.5793    0.1444    0.3412 C   0  0  2  0  0  0  0  0  0  0  0  0
    5.9317   -0.4530   -0.1293 C   0  0  2  0  0  0  0  0  0  0  0  0
    6.9919    0.5870   -0.4550 C   0  0  0  0  0  0  0  0  0  0  0  0
    9.3306    1.6194   -0.1515 C   0  0  0  0  0  0  0  0  0  0  0  0
    8.2190    0.6292    0.1040 C   0  0  0  0  0  0  0  0  0  0  0  0
    4.7010    0.9050    1.6679 C   0  0  0  0  0  0  0  0  0  0  0  0
    3.5556   -0.9636    0.5284 C   0  0  0  0  0  0  0  0  0  0  0  0
    6.6107    1.6330   -1.4763 C   0  0  0  0  0  0  0  0  0  0  0  0
    2.2133   -0.9253    0.3855 C   0  0  0  0  0  0  0  0  0  0  0  0
   10.1549    1.8188    1.1220 C   0  0  0  0  0  0  0  0  0  0  0  0
   10.2188    1.1260   -1.2929 C   0  0  0  0  0  0  0  0  0  0  0  0
    1.5662    0.3741   -0.0321 C   0  0  0  0  0  0  0  0  0  0  0  0
    1.3426   -2.0788    0.5999 C   0  0  0  0  0  0  0  0  0  0  0  0
   -7.9366    2.4578   -0.0457 C   0  0  2  0  0  0  0  0  0  0  0  0
    0.0048   -2.1003    0.4729 C   0  0  0  0  0  0  0  0  0  0  0  0
   -7.5225    3.4543    1.0349 C   0  0  0  0  0  0  0  0  0  0  0  0
   -9.4482    2.2708   -0.0696 C   0  0  0  0  0  0  0  0  0  0  0  0
   -6.9445    0.3448   -0.8867 C   0  0  0  0  0  0  0  0  0  0  0  0
   -0.7872   -3.2915    0.7000 C   0  0  0  0  0  0  0  0  0  0  0  0
   -6.3480   -0.9596   -0.4524 C   0  0  0  0  0  0  0  0  0  0  0  0
   -2.1228   -3.3167    0.5743 C   0  0  0  0  0  0  0  0  0  0  0  0
   -5.0113   -1.0158   -0.3053 C   0  0  0  0  0  0  0  0  0  0  0  0
   -7.3368   -2.0724   -0.2758 C   0  0  0  0  0  0  0  0  0  0  0  0
   -2.9015   -2.1559    0.1995 C   0  0  0  0  0  0  0  0  0  0  0  0
   -4.2377   -2.1807    0.0735 C   0  0  0  0  0  0  0  0  0  0  0  0
    4.2242    0.8234   -0.4407 H   0  0  0  0  0  0  0  0  0  0  0  0
    6.3207   -1.1395    0.6346 H   0  0  0  0  0  0  0  0  0  0  0  0
    8.9169    2.5983   -0.4184 H   0  0  0  0  0  0  0  0  0  0  0  0
    8.4592   -0.1618    0.8146 H   0  0  0  0  0  0  0  0  0  0  0  0
    5.3765    1.7607    1.5691 H   0  0  0  0  0  0  0  0  0  0  0  0
    3.7313    1.2941    1.9976 H   0  0  0  0  0  0  0  0  0  0  0  0
    5.0917    0.2595    2.4629 H   0  0  0  0  0  0  0  0  0  0  0  0
    3.9814   -1.9105    0.8652 H   0  0  0  0  0  0  0  0  0  0  0  0
    6.0456    1.1782   -2.2971 H   0  0  0  0  0  0  0  0  0  0  0  0
    7.4643    2.1289   -1.9444 H   0  0  0  0  0  0  0  0  0  0  0  0
    5.9826    2.4019   -1.0152 H   0  0  0  0  0  0  0  0  0  0  0  0
   10.6360    0.8879    1.4434 H   0  0  0  0  0  0  0  0  0  0  0  0
    9.5253    2.1751    1.9450 H   0  0  0  0  0  0  0  0  0  0  0  0
   10.9423    2.5626    0.9587 H   0  0  0  0  0  0  0  0  0  0  0  0
    9.6482    1.0034   -2.2198 H   0  0  0  0  0  0  0  0  0  0  0  0
   10.6807    0.1611   -1.0540 H   0  0  0  0  0  0  0  0  0  0  0  0
   11.0235    1.8420   -1.4918 H   0  0  0  0  0  0  0  0  0  0  0  0
    5.3130   -2.0736   -1.0514 H   0  0  0  0  0  0  0  0  0  0  0  0
    1.0895    0.2640   -1.0127 H   0  0  0  0  0  0  0  0  0  0  0  0
    0.8029    0.6708    0.6968 H   0  0  0  0  0  0  0  0  0  0  0  0
    2.2457    1.2252   -0.1038 H   0  0  0  0  0  0  0  0  0  0  0  0
    1.8540   -2.9960    0.8900 H   0  0  0  0  0  0  0  0  0  0  0  0
   -7.6106    2.8420   -1.0202 H   0  0  0  0  0  0  0  0  0  0  0  0
   -0.4857   -1.1827    0.1822 H   0  0  0  0  0  0  0  0  0  0  0  0
   -7.8018    3.1087    2.0361 H   0  0  0  0  0  0  0  0  0  0  0  0
   -7.9857    4.4315    0.8663 H   0  0  0  0  0  0  0  0  0  0  0  0
   -9.9571    3.2242   -0.2455 H   0  0  0  0  0  0  0  0  0  0  0  0
   -9.8125    1.8589    0.8783 H   0  0  0  0  0  0  0  0  0  0  0  0
   -9.7461    1.5784   -0.8646 H   0  0  0  0  0  0  0  0  0  0  0  0
   -7.1398    0.8680    1.1140 H   0  0  0  0  0  0  0  0  0  0  0  0
   -0.2690   -4.2030    0.9856 H   0  0  0  0  0  0  0  0  0  0  0  0
   -2.6510   -4.2479    0.7611 H   0  0  0  0  0  0  0  0  0  0  0  0
   -4.4360   -0.1088   -0.4891 H   0  0  0  0  0  0  0  0  0  0  0  0
   -8.0045   -1.8512    0.5636 H   0  0  0  0  0  0  0  0  0  0  0  0
   -7.9484   -2.1806   -1.1782 H   0  0  0  0  0  0  0  0  0  0  0  0
   -6.8744   -3.0427   -0.0839 H   0  0  0  0  0  0  0  0  0  0  0  0
   -5.7073    2.7508    1.1421 H   0  0  0  0  0  0  0  0  0  0  0  0
   -4.7684   -3.1082    0.2634 H   0  0  0  0  0  0  0  0  0  0  0  0
   -2.4145   -1.2090    0.0024 H   0  0  0  0  0  0  0  0  0  0  0  0
  1  6  1  0  0  0  0
  1 47  1  0  0  0  0
  2 20  1  0  0  0  0
  2 66  1  0  0  0  0
  3 22  2  0  0  0  0
  4 18  1  0  0  0  0
  4 22  1  0  0  0  0
  4 59  1  0  0  0  0
  5  6  1  0  0  0  0
  5 10  1  0  0  0  0
  5 11  1  0  0  0  0
  5 30  1  0  0  0  0
  6  7  1  0  0  0  0
  6 31  1  0  0  0  0
  7  9  2  0  0  0  0
  7 12  1  0  0  0  0
  8  9  1  0  0  0  0
  8 14  1  0  0  0  0
  8 15  1  0  0  0  0
  8 32  1  0  0  0  0
  9 33  1  0  0  0  0
 10 34  1  0  0  0  0
 10 35  1  0  0  0  0
 10 36  1  0  0  0  0
 11 13  2  0  0  0  0
 11 37  1  0  0  0  0
 12 38  1  0  0  0  0
 12 39  1  0  0  0  0
 12 40  1  0  0  0  0
 13 16  1  0  0  0  0
 13 17  1  0  0  0  0
 14 41  1  0  0  0  0
 14 42  1  0  0  0  0
 14 43  1  0  0  0  0
 15 44  1  0  0  0  0
 15 45  1  0  0  0  0
 15 46  1  0  0  0  0
 16 48  1  0  0  0  0
 16 49  1  0  0  0  0
 16 50  1  0  0  0  0
 17 19  2  0  0  0  0
 17 51  1  0  0  0  0
 18 20  1  0  0  0  0
 18 21  1  0  0  0  0
 18 52  1  0  0  0  0
 19 23  1  0  0  0  0
 19 53  1  0  0  0  0
 20 54  1  0  0  0  0
 20 55  1  0  0  0  0
 21 56  1  0  0  0  0
 21 57  1  0  0  0  0
 21 58  1  0  0  0  0
 22 24  1  0  0  0  0
 23 25  2  0  0  0  0
 23 60  1  0  0  0  0
 24 26  2  0  0  0  0
 24 27  1  0  0  0  0
 25 28  1  0  0  0  0
 25 61  1  0  0  0  0
 26 29  1  0  0  0  0
 26 62  1  0  0  0  0
 27 63  1  0  0  0  0
 27 64  1  0  0  0  0
 27 65  1  0  0  0  0
 28 29  2  0  0  0  0
 28 68  1  0  0  0  0
 29 67  1  0  0  0  0
M  END
> <PUBCHEM_COMPOUND_CID>
5282085

> <PUBCHEM_CONFORMER_RMSD>
1.2

> <PUBCHEM_CONFORMER_DIVERSEORDER>
1
379
57
114
95
311
11
318
210
299
375
61
387
123
157
224
205
253
407
225
28
190
13
247
341
233
291
98
342
208
294
276
3
361
134
172
231
399
370
113
240
130
397
192
60
197
353
413
2
352
135
417
408
158
161
127
248
204
34
179
203
358
74
31
250
199
24
255
304
201
308
19
268
273
337
329
405
14
176
392
339
164
82
102
80
369
52
402
260
222
18
218
111
162
246
187
261
331
40
209
285
242
368
288
49
362
382
124
243
64
292
234
89
403
68
290
140
87
279
277
4
83
315
347
249
371
385
110
92
321
78
181
85
259
267
121
103
360
29
69
359
107
163
280
357
21
168
25
152
143
265
252
384
160
305
378
84
355
99
146
63
125
336
230
281
344
55
50
122
154
278
93
328
323
251
151
47
5
27
271
216
309
320
101
421
200
207
238
227
322
10
306
423
258
59
272
117
15
226
156
148
418
180
177
116
275
129
43
340
137
393
326
189
150
185
411
380
17
147
139
51
404
120
214
46
400
237
301
167
317
138
32
149
30
266
182
354
219
415
282
79
333
62
12
223
414
270
119
193
206
398
330
86
383
364
284
72
174
313
303
20
381
410
324
236
348
212
56
345
366
104
115
184
9
45
416
75
419
67
145
81
351
90
221
77
254
307
316
33
377
302
376
178
118
38
175
6
22
100
213
286
314
211
173
241
94
141
365
350
96
65
159
239
257
215
372
332
244
334
356
198
144
256
349
7
346
327
8
409
269
188
126
37
293
422
108
401
42
367
191
170
186
300
165
289
53
71
128
16
229
166
70
66
228
36
295
389
76
373
39
287
23
396
73
183
319
335
235
35
142
97
220
26
106
363
245
298
202
48
131
136
155
262
195
58
390
109
196
395
88
263
133
264
310
91
412
312
171
325
343
217
296
194
420
338
232
406
394
153
391
374
105
386
54
169
41
297
44
283
274
388
132
112

> <PUBCHEM_MMFF94_PARTIAL_CHARGES>
37
1 -0.68
11 -0.29
12 0.14
13 -0.14
16 0.14
17 -0.15
18 0.3
19 -0.15
2 -0.68
20 0.28
22 0.62
23 -0.15
24 -0.12
25 -0.15
26 -0.15
27 0.14
28 -0.15
29 -0.15
3 -0.57
33 0.15
37 0.15
4 -0.73
47 0.4
5 0.14
51 0.15
53 0.15
59 0.37
6 0.42
60 0.15
61 0.15
62 0.15
66 0.4
67 0.15
68 0.15
7 -0.28
8 0.14
9 -0.29

> <PUBCHEM_EFFECTIVE_ROTOR_COUNT>
12

> <PUBCHEM_PHARMACOPHORE_FEATURES>
11
1 1 acceptor
1 1 donor
1 10 hydrophobe
1 12 hydrophobe
1 16 hydrophobe
1 2 acceptor
1 2 donor
1 27 hydrophobe
1 3 acceptor
1 4 donor
3 8 14 15 hydrophobe

> <PUBCHEM_HEAVY_ATOM_COUNT>
29

> <PUBCHEM_ATOM_DEF_STEREO_COUNT>
3

> <PUBCHEM_ATOM_UDEF_STEREO_COUNT>
0

> <PUBCHEM_BOND_DEF_STEREO_COUNT>
6

> <PUBCHEM_BOND_UDEF_STEREO_COUNT>
0

> <PUBCHEM_ISOTOPIC_ATOM_COUNT>
0

> <PUBCHEM_COMPONENT_COUNT>
1

> <PUBCHEM_CACTVS_TAUTO_COUNT>
2

> <PUBCHEM_CONFORMER_ID>
0050992500000001

> <PUBCHEM_MMFF94_ENERGY>
54.2038

> <PUBCHEM_FEATURE_SELFOVERLAP>
55.821

> <PUBCHEM_SHAPE_FINGERPRINT>
10190206 1 17676481783414334409
10533779 1 18200885062669217269
11061554 47 18342183224661220988
11135609 99 9943516410968892891
11181472 205 18272089397319103922
11408170 132 18411972573734957238
11421887 45 18338532892954147733
11578821 258 18126001569293099708
11973864 220 18410567383930506248
12838863 1 9439108859363472105
13383668 254 16844433952761295560
14040221 275 15051726491035788400
15604295 49 18338521812085703920
15685185 35 18411698812456069945
16087824 20 18341614836577589405
21298829 104 18413387666173269047
21362267 313 18342182138878001096
21585482 111 18271248330726687829
21781055 127 18200887214753515418
22002106 203 10159683678466078545
23569943 247 9798534843040186397
24771293 8 18273216391793988455
2835820 83 8502361244950982789
306946 40 17750242422775759224
3711267 37 18130779028370980228
393628 194 18341894083125410029
406291 66 8286195055115586763
4173938 188 9583520894203634006
437795 83 18333731326069970377
44802255 64 17530966869955956831
54039377 194 7853573521616361691
5718773 13 8718537321114551035
5937810 71 18187358857622948105
6201320 221 15937521753845606870
6289498 60 17632861931852106924
636775 72 18411699872706297793
636775 8 8718561531955949210
6673363 416 18333734586282535127
9962374 69 7132433528273871578
9980921 7 18059583508227523341

> <PUBCHEM_SHAPE_MULTIPOLES>
574.22
39.63
4
1.23
21.23
0.51
-0.19
38.08
-6.24
-10.04
1.28
0.81
0.49
-1.42

> <PUBCHEM_SHAPE_SELFOVERLAP>
1116.799

> <PUBCHEM_SHAPE_VOLUME>
347.2

> <PUBCHEM_COORDINATE_TYPE>
2
5
10

$$$$

