7568320
  -OEChem-07051213093D

 15 15  0     1  0  0  0  0  0999 V2000
   -2.8062   -1.0242   -0.2537 S   0  0  0  0  0  0  0  0  0  0  0  0
   -0.3363   -0.7495    0.5736 O   0  0  0  0  0  0  0  0  0  0  0  0
   -1.1590    1.1395   -0.3337 N   0  0  0  0  0  0  0  0  0  0  0  0
    0.7605    0.1879    0.5271 C   0  0  2  0  0  0  0  0  0  0  0  0
    0.1348    1.5173    0.1356 C   0  0  0  0  0  0  0  0  0  0  0  0
   -1.4177   -0.1648   -0.0168 C   0  0  0  0  0  0  0  0  0  0  0  0
    1.7765   -0.2951   -0.4541 C   0  0  0  0  0  0  0  0  0  0  0  0
    3.0474   -0.6111   -0.1779 C   0  0  0  0  0  0  0  0  0  0  0  0
    1.1943    0.2545    1.5315 H   0  0  0  0  0  0  0  0  0  0  0  0
   -0.0056    2.1650    1.0072 H   0  0  0  0  0  0  0  0  0  0  0  0
    0.6749    2.0719   -0.6368 H   0  0  0  0  0  0  0  0  0  0  0  0
   -1.8282    1.7715   -0.7614 H   0  0  0  0  0  0  0  0  0  0  0  0
    1.4456   -0.4093   -1.4848 H   0  0  0  0  0  0  0  0  0  0  0  0
    3.7111   -0.9600   -0.9614 H   0  0  0  0  0  0  0  0  0  0  0  0
    3.4437   -0.5272    0.8279 H   0  0  0  0  0  0  0  0  0  0  0  0
  1  6  2  0  0  0  0
  2  4  1  0  0  0  0
  2  6  1  0  0  0  0
  3  5  1  0  0  0  0
  3  6  1  0  0  0  0
  3 12  1  0  0  0  0
  4  5  1  0  0  0  0
  4  7  1  0  0  0  0
  4  9  1  0  0  0  0
  5 10  1  0  0  0  0
  5 11  1  0  0  0  0
  7  8  2  0  0  0  0
  7 13  1  0  0  0  0
  8 14  1  0  0  0  0
  8 15  1  0  0  0  0
M  END
> <PUBCHEM_COMPOUND_CID>
7568320

> <PUBCHEM_CONFORMER_RMSD>
0.4

> <PUBCHEM_CONFORMER_DIVERSEORDER>
1
3
2

> <PUBCHEM_MMFF94_PARTIAL_CHARGES>
12
1 -0.38
12 0.37
13 0.15
14 0.15
15 0.15
2 -0.43
3 -0.73
4 0.42
5 0.3
6 0.59
7 -0.29
8 -0.3

> <PUBCHEM_EFFECTIVE_ROTOR_COUNT>
1.8

> <PUBCHEM_PHARMACOPHORE_FEATURES>
3
1 1 acceptor
1 8 hydrophobe
5 2 3 4 5 6 rings

> <PUBCHEM_HEAVY_ATOM_COUNT>
8

> <PUBCHEM_ATOM_DEF_STEREO_COUNT>
1

> <PUBCHEM_ATOM_UDEF_STEREO_COUNT>
0

> <PUBCHEM_BOND_DEF_STEREO_COUNT>
0

> <PUBCHEM_BOND_UDEF_STEREO_COUNT>
0

> <PUBCHEM_ISOTOPIC_ATOM_COUNT>
0

> <PUBCHEM_COMPONENT_COUNT>
1

> <PUBCHEM_CACTVS_TAUTO_COUNT>
2

> <PUBCHEM_CONFORMER_ID>
00737BC000000001

> <PUBCHEM_MMFF94_ENERGY>
11.4289

> <PUBCHEM_FEATURE_SELFOVERLAP>
15.223

> <PUBCHEM_SHAPE_FINGERPRINT>
12897270 3 18342739624024189534
14128692 85 18336542716217888629
14390081 3 11527956646631854103
16714656 1 18411416249728876983
20653085 51 14836398146789869262
21040471 1 17836096932292686121
21293036 1 17846499188490934903
23552423 10 18057601173496703298
29004967 10 17095524019499232210

> <PUBCHEM_SHAPE_MULTIPOLES>
157.64
3.94
1.32
0.73
0.44
0.42
0.01
-1.98
-0.55
-0.24
-0.05
0.02
-0.03
0.08

> <PUBCHEM_SHAPE_SELFOVERLAP>
302.907

> <PUBCHEM_SHAPE_VOLUME>
98.8

> <PUBCHEM_COORDINATE_TYPE>
2
5
10

$$$$

