14288
  -OEChem-06241222433D

 15 15  0     0  0  0  0  0  0999 V2000
    2.1800   -0.2506    0.0000 O   0  0  0  0  0  0  0  0  0  0  0  0
    0.1231    0.8085    0.0003 N   0  0  0  0  0  0  0  0  0  0  0  0
    0.2899   -1.5852   -0.0001 N   0  0  0  0  0  0  0  0  0  0  0  0
   -1.8666   -0.5328    0.0001 N   0  0  0  0  0  0  0  0  0  0  0  0
   -1.9980    1.8085   -0.0003 N   0  0  0  0  0  0  0  0  0  0  0  0
    0.8080   -0.3463    0.0000 C   0  0  0  0  0  0  0  0  0  0  0  0
   -1.2088    0.6379    0.0002 C   0  0  0  0  0  0  0  0  0  0  0  0
   -1.0527   -1.6010   -0.0001 C   0  0  0  0  0  0  0  0  0  0  0  0
    2.7252    1.0609   -0.0001 C   0  0  0  0  0  0  0  0  0  0  0  0
   -1.5277   -2.5741   -0.0001 H   0  0  0  0  0  0  0  0  0  0  0  0
    2.4329    1.6093    0.9018 H   0  0  0  0  0  0  0  0  0  0  0  0
    2.4327    1.6093   -0.9019 H   0  0  0  0  0  0  0  0  0  0  0  0
    3.8157    0.9725   -0.0002 H   0  0  0  0  0  0  0  0  0  0  0  0
   -1.5462    2.7125   -0.0011 H   0  0  0  0  0  0  0  0  0  0  0  0
   -3.0056    1.7289   -0.0012 H   0  0  0  0  0  0  0  0  0  0  0  0
  1  6  1  0  0  0  0
  1  9  1  0  0  0  0
  2  6  1  0  0  0  0
  2  7  2  0  0  0  0
  3  6  2  0  0  0  0
  3  8  1  0  0  0  0
  4  7  1  0  0  0  0
  4  8  2  0  0  0  0
  5  7  1  0  0  0  0
  5 14  1  0  0  0  0
  5 15  1  0  0  0  0
  8 10  1  0  0  0  0
  9 11  1  0  0  0  0
  9 12  1  0  0  0  0
  9 13  1  0  0  0  0
M  END
> <PUBCHEM_COMPOUND_CID>
14288

> <PUBCHEM_CONFORMER_RMSD>
0.4

> <PUBCHEM_CONFORMER_DIVERSEORDER>
1
2

> <PUBCHEM_MMFF94_PARTIAL_CHARGES>
12
1 -0.36
10 0.15
14 0.4
15 0.4
2 -0.62
3 -0.62
4 -0.62
5 -0.9
6 0.7
7 0.72
8 0.47
9 0.28

> <PUBCHEM_EFFECTIVE_ROTOR_COUNT>
1

> <PUBCHEM_PHARMACOPHORE_FEATURES>
3
1 5 donor
4 2 4 5 7 cation
6 2 3 4 6 7 8 rings

> <PUBCHEM_HEAVY_ATOM_COUNT>
9

> <PUBCHEM_ATOM_DEF_STEREO_COUNT>
0

> <PUBCHEM_ATOM_UDEF_STEREO_COUNT>
0

> <PUBCHEM_BOND_DEF_STEREO_COUNT>
0

> <PUBCHEM_BOND_UDEF_STEREO_COUNT>
0

> <PUBCHEM_ISOTOPIC_ATOM_COUNT>
0

> <PUBCHEM_COMPONENT_COUNT>
1

> <PUBCHEM_CACTVS_TAUTO_COUNT>
4

> <PUBCHEM_CONFORMER_ID>
000037D000000001

> <PUBCHEM_MMFF94_ENERGY>
27.5552

> <PUBCHEM_FEATURE_SELFOVERLAP>
15.223

> <PUBCHEM_SHAPE_FINGERPRINT>
14390081 3 18335141981617843784
16714656 1 18337669685640309022
21040471 1 18338799034363549382
23552423 10 18344144783021310926
5084963 1 18187081745731590586

> <PUBCHEM_SHAPE_MULTIPOLES>
159.42
3.13
1.76
0.56
1.96
0.07
0
1.02
0
-0.82
0
0.01
0
0

> <PUBCHEM_SHAPE_SELFOVERLAP>
324.697

> <PUBCHEM_SHAPE_VOLUME>
89.2

> <PUBCHEM_COORDINATE_TYPE>
2
5
10

$$$$

