445128
  -OEChem-07051213093D

 47 46  0     0  0  0  0  0  0999 V2000
    8.1284    1.3769    0.5636 O   0  0  0  0  0  0  0  0  0  0  0  0
    2.1839   -0.4792   -0.3873 C   0  0  0  0  0  0  0  0  0  0  0  0
    1.3625   -1.7727   -0.4210 C   0  0  0  0  0  0  0  0  0  0  0  0
    3.6802   -0.7169   -0.1693 C   0  0  0  0  0  0  0  0  0  0  0  0
   -0.1542   -1.5934   -0.5490 C   0  0  0  0  0  0  0  0  0  0  0  0
    4.4914    0.5797   -0.0767 C   0  0  0  0  0  0  0  0  0  0  0  0
   -0.9260   -2.9167   -0.5158 C   0  0  0  0  0  0  0  0  0  0  0  0
    5.9759    0.3439    0.2206 C   0  0  0  0  0  0  0  0  0  0  0  0
   -2.4433   -2.7370   -0.6373 C   0  0  0  0  0  0  0  0  0  0  0  0
    6.7644    1.6476    0.2750 C   0  0  0  0  0  0  0  0  0  0  0  0
   -3.0409   -1.9674    0.5065 C   0  0  0  0  0  0  0  0  0  0  0  0
   -3.6819   -0.7983    0.3594 C   0  0  0  0  0  0  0  0  0  0  0  0
   -4.2490   -0.0637    1.4673 C   0  0  0  0  0  0  0  0  0  0  0  0
   -5.0918    1.7829   -0.0044 C   0  0  0  0  0  0  0  0  0  0  0  0
   -3.9622    2.7704   -0.2993 C   0  0  0  0  0  0  0  0  0  0  0  0
   -4.8900    1.1055    1.3206 C   0  0  0  0  0  0  0  0  0  0  0  0
   -4.1475    3.4384   -1.6529 C   0  0  0  0  0  0  0  0  0  0  0  0
    2.0340    0.0670   -1.3265 H   0  0  0  0  0  0  0  0  0  0  0  0
    1.8020    0.1623    0.4165 H   0  0  0  0  0  0  0  0  0  0  0  0
    1.7170   -2.3939   -1.2532 H   0  0  0  0  0  0  0  0  0  0  0  0
    1.5679   -2.3391    0.4965 H   0  0  0  0  0  0  0  0  0  0  0  0
    4.0731   -1.3323   -0.9879 H   0  0  0  0  0  0  0  0  0  0  0  0
    3.8202   -1.2917    0.7546 H   0  0  0  0  0  0  0  0  0  0  0  0
   -0.4921   -0.9445    0.2673 H   0  0  0  0  0  0  0  0  0  0  0  0
   -0.3747   -1.0665   -1.4855 H   0  0  0  0  0  0  0  0  0  0  0  0
    4.0664    1.2156    0.7098 H   0  0  0  0  0  0  0  0  0  0  0  0
    4.3923    1.1316   -1.0196 H   0  0  0  0  0  0  0  0  0  0  0  0
   -0.5818   -3.5539   -1.3396 H   0  0  0  0  0  0  0  0  0  0  0  0
   -0.6936   -3.4510    0.4141 H   0  0  0  0  0  0  0  0  0  0  0  0
    6.4132   -0.3116   -0.5428 H   0  0  0  0  0  0  0  0  0  0  0  0
    6.0859   -0.1904    1.1724 H   0  0  0  0  0  0  0  0  0  0  0  0
   -2.9143   -3.7270   -0.6641 H   0  0  0  0  0  0  0  0  0  0  0  0
   -2.6745   -2.2571   -1.5962 H   0  0  0  0  0  0  0  0  0  0  0  0
    6.3727    2.3169    1.0478 H   0  0  0  0  0  0  0  0  0  0  0  0
    6.7187    2.1696   -0.6858 H   0  0  0  0  0  0  0  0  0  0  0  0
   -2.9416   -2.4122    1.4942 H   0  0  0  0  0  0  0  0  0  0  0  0
   -3.7503   -0.3881   -0.6421 H   0  0  0  0  0  0  0  0  0  0  0  0
    8.1623    0.9280    1.4255 H   0  0  0  0  0  0  0  0  0  0  0  0
   -6.0427    2.3298    0.0455 H   0  0  0  0  0  0  0  0  0  0  0  0
   -5.2223    1.0740   -0.8281 H   0  0  0  0  0  0  0  0  0  0  0  0
   -4.1427   -0.4819    2.4646 H   0  0  0  0  0  0  0  0  0  0  0  0
   -3.9234    3.5411    0.4802 H   0  0  0  0  0  0  0  0  0  0  0  0
   -2.9939    2.2555   -0.2903 H   0  0  0  0  0  0  0  0  0  0  0  0
   -5.2756    1.6077    2.2040 H   0  0  0  0  0  0  0  0  0  0  0  0
   -5.0914    3.9916   -1.6913 H   0  0  0  0  0  0  0  0  0  0  0  0
   -4.1497    2.6976   -2.4588 H   0  0  0  0  0  0  0  0  0  0  0  0
   -3.3322    4.1437   -1.8423 H   0  0  0  0  0  0  0  0  0  0  0  0
  1 10  1  0  0  0  0
  1 38  1  0  0  0  0
  2  3  1  0  0  0  0
  2  4  1  0  0  0  0
  2 18  1  0  0  0  0
  2 19  1  0  0  0  0
  3  5  1  0  0  0  0
  3 20  1  0  0  0  0
  3 21  1  0  0  0  0
  4  6  1  0  0  0  0
  4 22  1  0  0  0  0
  4 23  1  0  0  0  0
  5  7  1  0  0  0  0
  5 24  1  0  0  0  0
  5 25  1  0  0  0  0
  6  8  1  0  0  0  0
  6 26  1  0  0  0  0
  6 27  1  0  0  0  0
  7  9  1  0  0  0  0
  7 28  1  0  0  0  0
  7 29  1  0  0  0  0
  8 10  1  0  0  0  0
  8 30  1  0  0  0  0
  8 31  1  0  0  0  0
  9 11  1  0  0  0  0
  9 32  1  0  0  0  0
  9 33  1  0  0  0  0
 10 34  1  0  0  0  0
 10 35  1  0  0  0  0
 11 12  2  0  0  0  0
 11 36  1  0  0  0  0
 12 13  1  0  0  0  0
 12 37  1  0  0  0  0
 13 16  2  0  0  0  0
 13 41  1  0  0  0  0
 14 15  1  0  0  0  0
 14 16  1  0  0  0  0
 14 39  1  0  0  0  0
 14 40  1  0  0  0  0
 15 17  1  0  0  0  0
 15 42  1  0  0  0  0
 15 43  1  0  0  0  0
 16 44  1  0  0  0  0
 17 45  1  0  0  0  0
 17 46  1  0  0  0  0
 17 47  1  0  0  0  0
M  END
> <PUBCHEM_COMPOUND_CID>
445128

> <PUBCHEM_CONFORMER_RMSD>
1.2

> <PUBCHEM_CONFORMER_DIVERSEORDER>
1
56
308
20
337
255
522
34
188
252
71
519
94
346
47
33
348
498
78
143
13
89
458
239
21
99
83
12
138
4
49
371
5
46
438
28
59
309
141
422
525
3
283
147
267
162
104
67
476
300
216
198
293
6
9
123
170
22
10
381
11
288
129
106
404
2
76
453
159
427
8
160
114
110
25
139
321
301
54
30
29
246
490
40
378
407
501
269
23
357
44

> <PUBCHEM_MMFF94_PARTIAL_CHARGES>
13
1 -0.68
10 0.28
11 -0.29
12 -0.15
13 -0.15
14 0.14
16 -0.29
36 0.15
37 0.15
38 0.4
41 0.15
44 0.15
9 0.14

> <PUBCHEM_EFFECTIVE_ROTOR_COUNT>
12

> <PUBCHEM_PHARMACOPHORE_FEATURES>
3
1 1 acceptor
1 1 donor
1 17 hydrophobe

> <PUBCHEM_HEAVY_ATOM_COUNT>
17

> <PUBCHEM_ATOM_DEF_STEREO_COUNT>
0

> <PUBCHEM_ATOM_UDEF_STEREO_COUNT>
0

> <PUBCHEM_BOND_DEF_STEREO_COUNT>
2

> <PUBCHEM_BOND_UDEF_STEREO_COUNT>
0

> <PUBCHEM_ISOTOPIC_ATOM_COUNT>
0

> <PUBCHEM_COMPONENT_COUNT>
1

> <PUBCHEM_CACTVS_TAUTO_COUNT>
1

> <PUBCHEM_CONFORMER_ID>
0006CAC800000001

> <PUBCHEM_MMFF94_ENERGY>
4.3719

> <PUBCHEM_FEATURE_SELFOVERLAP>
15.223

> <PUBCHEM_SHAPE_FINGERPRINT>
10087517 78 18338519642456611510
13167372 99 18337108957203000520
133061 13 17628646550569380701
13947920 24 18333730255690061225
14123255 352 18336824286143114419
14251764 75 17900531578594308273
14428016 545 18338804520150357146
14598715 104 17677062222796572208
14647877 103 18060414751054230332
14950920 106 16629950028458854729
155225 5 18261387905579286832
16079462 125 17458063725732351146
17780758 139 13614249182812291351
20281389 69 18408599254158384282
20621476 66 18334850594209762634
21054139 6 8358270233103123932
21196832 93 8285902611035365516
21302155 148 18342731931796103364
21307412 95 8285904733081675721
22288116 15 8214146296215770752
270888 7 18261104231842083611
6327066 14 18336266833921626133
7062679 6 18337665326723224902

> <PUBCHEM_SHAPE_MULTIPOLES>
343.98
18.51
3.92
1.14
36.94
0.73
0.02
17.44
4.61
-5.38
-1.66
-1.63
0.49
1.82

> <PUBCHEM_SHAPE_SELFOVERLAP>
627.271

> <PUBCHEM_SHAPE_VOLUME>
218.6

> <PUBCHEM_COORDINATE_TYPE>
2
5
10

$$$$

