51090998
  -OEChem-06241223012D

 44 45  0     0  0  0  0  0  0999 V2000
    7.2437    1.7420    0.0000 O   0  0  0  0  0  0  0  0  0  0  0  0
    3.7320    0.6488    0.0000 O   0  0  0  0  0  0  0  0  0  0  0  0
    5.4641    0.6488    0.0000 N   0  0  0  0  0  0  0  0  0  0  0  0
    8.0622    0.1488    0.0000 N   0  0  0  0  0  0  0  0  0  0  0  0
    2.0000   -3.3512    0.0000 N   0  0  0  0  0  0  0  0  0  0  0  0
    6.3301    0.1488    0.0000 C   0  0  0  0  0  0  0  0  0  0  0  0
    7.1962    0.6488    0.0000 C   0  0  0  0  0  0  0  0  0  0  0  0
    5.4641    1.6488    0.0000 C   0  0  0  0  0  0  0  0  0  0  0  0
    6.3301    2.1488    0.0000 C   0  0  0  0  0  0  0  0  0  0  0  0
    4.5981    0.1488    0.0000 C   0  0  0  0  0  0  0  0  0  0  0  0
    4.5981   -0.8512    0.0000 C   0  0  0  0  0  0  0  0  0  0  0  0
    6.4347    3.1433    0.0000 C   0  0  0  0  0  0  0  0  0  0  0  0
    8.0622   -0.8512    0.0000 C   0  0  0  0  0  0  0  0  0  0  0  0
    8.9282    0.6488    0.0000 C   0  0  0  0  0  0  0  0  0  0  0  0
    7.9128    2.4852    0.0000 C   0  0  0  0  0  0  0  0  0  0  0  0
    7.4128    3.3512    0.0000 C   0  0  0  0  0  0  0  0  0  0  0  0
    3.7320   -1.3512    0.0000 C   0  0  0  0  0  0  0  0  0  0  0  0
    5.4641   -1.3512    0.0000 C   0  0  0  0  0  0  0  0  0  0  0  0
    8.9073    2.3807    0.0000 C   0  0  0  0  0  0  0  0  0  0  0  0
    3.7320   -2.3512    0.0000 C   0  0  0  0  0  0  0  0  0  0  0  0
    5.4641   -2.3512    0.0000 C   0  0  0  0  0  0  0  0  0  0  0  0
    4.5981   -2.8512    0.0000 C   0  0  0  0  0  0  0  0  0  0  0  0
    2.8660   -2.8512    0.0000 C   0  0  0  0  0  0  0  0  0  0  0  0
    5.9316   -0.3262    0.0000 H   0  0  0  0  0  0  0  0  0  0  0  0
    6.7287   -0.3262    0.0000 H   0  0  0  0  0  0  0  0  0  0  0  0
    7.5947    1.1237    0.0000 H   0  0  0  0  0  0  0  0  0  0  0  0
    6.7976    1.1237    0.0000 H   0  0  0  0  0  0  0  0  0  0  0  0
    5.2520    2.2314    0.0000 H   0  0  0  0  0  0  0  0  0  0  0  0
    4.8535    1.5411    0.0000 H   0  0  0  0  0  0  0  0  0  0  0  0
    5.9739    3.5582    0.0000 H   0  0  0  0  0  0  0  0  0  0  0  0
    9.2382    0.1118    0.0000 H   0  0  0  0  0  0  0  0  0  0  0  0
    9.4651    0.9588    0.0000 H   0  0  0  0  0  0  0  0  0  0  0  0
    8.6182    1.1857    0.0000 H   0  0  0  0  0  0  0  0  0  0  0  0
    7.4422   -0.8512    0.0000 H   0  0  0  0  0  0  0  0  0  0  0  0
    8.0622   -1.4712    0.0000 H   0  0  0  0  0  0  0  0  0  0  0  0
    8.6822   -0.8512    0.0000 H   0  0  0  0  0  0  0  0  0  0  0  0
    7.6650    3.9176    0.0000 H   0  0  0  0  0  0  0  0  0  0  0  0
    3.1951   -1.0412    0.0000 H   0  0  0  0  0  0  0  0  0  0  0  0
    6.0010   -1.0412    0.0000 H   0  0  0  0  0  0  0  0  0  0  0  0
    8.8425    1.7641    0.0000 H   0  0  0  0  0  0  0  0  0  0  0  0
    9.5239    2.3159    0.0000 H   0  0  0  0  0  0  0  0  0  0  0  0
    8.9721    2.9973    0.0000 H   0  0  0  0  0  0  0  0  0  0  0  0
    6.0010   -2.6612    0.0000 H   0  0  0  0  0  0  0  0  0  0  0  0
    4.5981   -3.4712    0.0000 H   0  0  0  0  0  0  0  0  0  0  0  0
  1  9  1  0  0  0  0
  1 15  1  0  0  0  0
  2 10  2  0  0  0  0
  3  6  1  0  0  0  0
  3  8  1  0  0  0  0
  3 10  1  0  0  0  0
  4  7  1  0  0  0  0
  4 13  1  0  0  0  0
  4 14  1  0  0  0  0
  5 23  3  0  0  0  0
  6  7  1  0  0  0  0
  6 24  1  0  0  0  0
  6 25  1  0  0  0  0
  7 26  1  0  0  0  0
  7 27  1  0  0  0  0
  8  9  1  0  0  0  0
  8 28  1  0  0  0  0
  8 29  1  0  0  0  0
  9 12  2  0  0  0  0
 10 11  1  0  0  0  0
 11 17  1  0  0  0  0
 11 18  2  0  0  0  0
 12 16  1  0  0  0  0
 12 30  1  0  0  0  0
 13 34  1  0  0  0  0
 13 35  1  0  0  0  0
 13 36  1  0  0  0  0
 14 31  1  0  0  0  0
 14 32  1  0  0  0  0
 14 33  1  0  0  0  0
 15 16  2  0  0  0  0
 15 19  1  0  0  0  0
 16 37  1  0  0  0  0
 17 20  2  0  0  0  0
 17 38  1  0  0  0  0
 18 21  1  0  0  0  0
 18 39  1  0  0  0  0
 19 40  1  0  0  0  0
 19 41  1  0  0  0  0
 19 42  1  0  0  0  0
 20 22  1  0  0  0  0
 20 23  1  0  0  0  0
 21 22  2  0  0  0  0
 21 43  1  0  0  0  0
 22 44  1  0  0  0  0
M  END
> <PUBCHEM_COMPOUND_CID>
51090998

> <PUBCHEM_COMPOUND_CANONICALIZED>
1

> <PUBCHEM_CACTVS_COMPLEXITY>
443

> <PUBCHEM_CACTVS_HBOND_ACCEPTOR>
4

> <PUBCHEM_CACTVS_HBOND_DONOR>
0

> <PUBCHEM_CACTVS_ROTATABLE_BOND>
6

> <PUBCHEM_CACTVS_SUBSKEYS>
AAADceB7MAAAAAAAAAAAAAAAAAAAASAAAAAwAAAAAAAAAAABwAAAHgAAAAAADATBmAQyBIMABECYBqFSEACiCAAkIAAIiAGODMgO5jKEtTuXOSjkxhGYqY+YmUKOAAACAAAAAAAAAAQAAAAAAAAAAAAAAA==

> <PUBCHEM_IUPAC_OPENEYE_NAME>
3-cyano-N-[2-(dimethylamino)ethyl]-N-[(5-methyl-2-furyl)methyl]benzamide

> <PUBCHEM_IUPAC_CAS_NAME>
3-cyano-N-[2-(dimethylamino)ethyl]-N-[(5-methyl-2-furanyl)methyl]benzamide

> <PUBCHEM_IUPAC_NAME>
3-cyano-N-[2-(dimethylamino)ethyl]-N-[(5-methylfuran-2-yl)methyl]benzamide

> <PUBCHEM_IUPAC_SYSTEMATIC_NAME>
3-cyano-N-[2-(dimethylamino)ethyl]-N-[(5-methylfuran-2-yl)methyl]benzamide

> <PUBCHEM_IUPAC_TRADITIONAL_NAME>
3-cyano-N-[2-(dimethylamino)ethyl]-N-[(5-methyl-2-furyl)methyl]benzamide

> <PUBCHEM_IUPAC_INCHI>
InChI=1S/C18H21N3O2/c1-14-7-8-17(23-14)13-21(10-9-20(2)3)18(22)16-6-4-5-15(11-16)12-19/h4-8,11H,9-10,13H2,1-3H3

> <PUBCHEM_IUPAC_INCHIKEY>
AOHXOCZCKDSTFR-UHFFFAOYSA-N

> <PUBCHEM_XLOGP3_AA>
2.1

> <PUBCHEM_EXACT_MASS>
311.163377

> <PUBCHEM_MOLECULAR_FORMULA>
C18H21N3O2

> <PUBCHEM_MOLECULAR_WEIGHT>
311.37824

> <PUBCHEM_OPENEYE_CAN_SMILES>
CC1=CC=C(O1)CN(CCN(C)C)C(=O)C2=CC=CC(=C2)C#N

> <PUBCHEM_OPENEYE_ISO_SMILES>
CC1=CC=C(O1)CN(CCN(C)C)C(=O)C2=CC=CC(=C2)C#N

> <PUBCHEM_CACTVS_TPSA>
60.5

> <PUBCHEM_MONOISOTOPIC_WEIGHT>
311.163377

> <PUBCHEM_TOTAL_CHARGE>
0

> <PUBCHEM_HEAVY_ATOM_COUNT>
23

> <PUBCHEM_ATOM_DEF_STEREO_COUNT>
0

> <PUBCHEM_ATOM_UDEF_STEREO_COUNT>
0

> <PUBCHEM_BOND_DEF_STEREO_COUNT>
0

> <PUBCHEM_BOND_UDEF_STEREO_COUNT>
0

> <PUBCHEM_ISOTOPIC_ATOM_COUNT>
0

> <PUBCHEM_COMPONENT_COUNT>
1

> <PUBCHEM_CACTVS_TAUTO_COUNT>
1

> <PUBCHEM_COORDINATE_TYPE>
1
5
255

> <PUBCHEM_BONDANNOTATIONS>
1  15  8
1  9  8
11  17  8
11  18  8
12  16  8
15  16  8
17  20  8
18  21  8
20  22  8
21  22  8
9  12  8

$$$$

