91677
  -OEChem-07051213012D

 29 30  0     1  0  0  0  0  0999 V2000
    5.6859    3.1069    0.0000 Cl  0  0  0  0  0  0  0  0  0  0  0  0
    2.5158    3.0024    0.0000 Cl  0  0  0  0  0  0  0  0  0  0  0  0
    2.0000   -2.7409    0.0000 F   0  0  0  0  0  0  0  0  0  0  0  0
    3.3660   -3.1069    0.0000 F   0  0  0  0  0  0  0  0  0  0  0  0
    2.3660   -1.3749    0.0000 F   0  0  0  0  0  0  0  0  0  0  0  0
    6.3582    1.0378    0.0000 O   0  0  0  0  0  0  0  0  0  0  0  0
    4.5981    0.7591    0.0000 N   0  0  0  0  0  0  0  0  0  0  0  0
    4.0981    2.2979    0.0000 C   0  0  3  0  0  0  0  0  0  0  0  0
    3.7891    1.3469    0.0000 C   0  0  0  0  0  0  0  0  0  0  0  0
    5.0981    2.2979    0.0000 C   0  0  3  0  0  0  0  0  0  0  0  0
    5.4071    1.3469    0.0000 C   0  0  0  0  0  0  0  0  0  0  0  0
    3.5103    3.1069    0.0000 C   0  0  0  0  0  0  0  0  0  0  0  0
    4.5981   -0.2409    0.0000 C   0  0  0  0  0  0  0  0  0  0  0  0
    3.7320   -0.7409    0.0000 C   0  0  0  0  0  0  0  0  0  0  0  0
    5.4641   -0.7409    0.0000 C   0  0  0  0  0  0  0  0  0  0  0  0
    3.7320   -1.7409    0.0000 C   0  0  0  0  0  0  0  0  0  0  0  0
    5.4641   -1.7409    0.0000 C   0  0  0  0  0  0  0  0  0  0  0  0
    4.5981   -2.2409    0.0000 C   0  0  0  0  0  0  0  0  0  0  0  0
    2.8660   -2.2409    0.0000 C   0  0  0  0  0  0  0  0  0  0  0  0
    4.3796    2.8504    0.0000 H   0  0  0  0  0  0  0  0  0  0  0  0
    3.2227    1.5990    0.0000 H   0  0  0  0  0  0  0  0  0  0  0  0
    3.4791    0.8099    0.0000 H   0  0  0  0  0  0  0  0  0  0  0  0
    5.7104    2.2009    0.0000 H   0  0  0  0  0  0  0  0  0  0  0  0
    4.0675    3.3787    0.0000 H   0  0  0  0  0  0  0  0  0  0  0  0
    3.3394    3.7029    0.0000 H   0  0  0  0  0  0  0  0  0  0  0  0
    3.1951   -0.4309    0.0000 H   0  0  0  0  0  0  0  0  0  0  0  0
    6.0010   -0.4309    0.0000 H   0  0  0  0  0  0  0  0  0  0  0  0
    6.0010   -2.0509    0.0000 H   0  0  0  0  0  0  0  0  0  0  0  0
    4.5981   -2.8609    0.0000 H   0  0  0  0  0  0  0  0  0  0  0  0
  1 10  1  0  0  0  0
  2 12  1  0  0  0  0
  3 19  1  0  0  0  0
  4 19  1  0  0  0  0
  5 19  1  0  0  0  0
  6 11  2  0  0  0  0
  7  9  1  0  0  0  0
  7 11  1  0  0  0  0
  7 13  1  0  0  0  0
  8  9  1  0  0  0  0
  8 10  1  0  0  0  0
  8 12  1  0  0  0  0
  8 20  1  0  0  0  0
  9 21  1  0  0  0  0
  9 22  1  0  0  0  0
 10 11  1  0  0  0  0
 10 23  1  0  0  0  0
 12 24  1  0  0  0  0
 12 25  1  0  0  0  0
 13 14  1  0  0  0  0
 13 15  2  0  0  0  0
 14 16  2  0  0  0  0
 14 26  1  0  0  0  0
 15 17  1  0  0  0  0
 15 27  1  0  0  0  0
 16 18  1  0  0  0  0
 16 19  1  0  0  0  0
 17 18  2  0  0  0  0
 17 28  1  0  0  0  0
 18 29  1  0  0  0  0
M  END
> <PUBCHEM_COMPOUND_CID>
91677

> <PUBCHEM_COMPOUND_CANONICALIZED>
1

> <PUBCHEM_CACTVS_COMPLEXITY>
350

> <PUBCHEM_CACTVS_HBOND_ACCEPTOR>
4

> <PUBCHEM_CACTVS_HBOND_DONOR>
0

> <PUBCHEM_CACTVS_ROTATABLE_BOND>
2

> <PUBCHEM_CACTVS_SUBSKEYS>
AAADccByIYAGAAAAAAAAAAAAAAAAAWAAAAAwAAAAAAAAAAABAAAAHwIAAAAADQvBmFQwwIMAAACIAiVSUACCAAAhAgAIiAEIZohIIDLBkZHEIAhghgDIyAcUgAAOAAAAQAAAAAAAAACAAAAAAAAAAAAAAA==

> <PUBCHEM_IUPAC_OPENEYE_NAME>
3-chloro-4-(chloromethyl)-1-[3-(trifluoromethyl)phenyl]pyrrolidin-2-one

> <PUBCHEM_IUPAC_CAS_NAME>
3-chloro-4-(chloromethyl)-1-[3-(trifluoromethyl)phenyl]-2-pyrrolidinone

> <PUBCHEM_IUPAC_NAME>
3-chloro-4-(chloromethyl)-1-[3-(trifluoromethyl)phenyl]pyrrolidin-2-one

> <PUBCHEM_IUPAC_SYSTEMATIC_NAME>
3-chloranyl-4-(chloromethyl)-1-[3-(trifluoromethyl)phenyl]pyrrolidin-2-one

> <PUBCHEM_IUPAC_TRADITIONAL_NAME>
3-chloro-4-(chloromethyl)-1-[3-(trifluoromethyl)phenyl]-2-pyrrolidone

> <PUBCHEM_IUPAC_INCHI>
InChI=1S/C12H10Cl2F3NO/c13-5-7-6-18(11(19)10(7)14)9-3-1-2-8(4-9)12(15,16)17/h1-4,7,10H,5-6H2

> <PUBCHEM_IUPAC_INCHIKEY>
OQZCSNDVOWYALR-UHFFFAOYSA-N

> <PUBCHEM_XLOGP3>
3.4

> <PUBCHEM_EXACT_MASS>
311.009154

> <PUBCHEM_MOLECULAR_FORMULA>
C12H10Cl2F3NO

> <PUBCHEM_MOLECULAR_WEIGHT>
312.11511

> <PUBCHEM_OPENEYE_CAN_SMILES>
C1C(C(C(=O)N1C2=CC=CC(=C2)C(F)(F)F)Cl)CCl

> <PUBCHEM_OPENEYE_ISO_SMILES>
C1C(C(C(=O)N1C2=CC=CC(=C2)C(F)(F)F)Cl)CCl

> <PUBCHEM_CACTVS_TPSA>
20.3

> <PUBCHEM_MONOISOTOPIC_WEIGHT>
311.009154

> <PUBCHEM_TOTAL_CHARGE>
0

> <PUBCHEM_HEAVY_ATOM_COUNT>
19

> <PUBCHEM_ATOM_DEF_STEREO_COUNT>
0

> <PUBCHEM_ATOM_UDEF_STEREO_COUNT>
2

> <PUBCHEM_BOND_DEF_STEREO_COUNT>
0

> <PUBCHEM_BOND_UDEF_STEREO_COUNT>
0

> <PUBCHEM_ISOTOPIC_ATOM_COUNT>
0

> <PUBCHEM_COMPONENT_COUNT>
1

> <PUBCHEM_CACTVS_TAUTO_COUNT>
2

> <PUBCHEM_COORDINATE_TYPE>
1
5
255

> <PUBCHEM_BONDANNOTATIONS>
10  1  3
13  14  8
13  15  8
14  16  8
15  17  8
16  18  8
17  18  8
8  12  3

$$$$

