175974
  -OEChem-07051213033D

 94100  0     1  0  0  0  0  0999 V2000
   -3.1333   -1.5398   -0.5163 O   0  0  0  0  0  0  0  0  0  0  0  0
   -4.7259   -0.9530    1.1427 O   0  0  0  0  0  0  0  0  0  0  0  0
    0.2312   -3.9125   -0.1979 O   0  0  0  0  0  0  0  0  0  0  0  0
   -6.8621    0.8980    0.4339 O   0  0  0  0  0  0  0  0  0  0  0  0
   -8.4565    1.6000   -1.1309 O   0  0  0  0  0  0  0  0  0  0  0  0
   -3.4194   -4.3438    0.0075 O   0  0  0  0  0  0  0  0  0  0  0  0
  -10.3945    3.8585    1.7218 O   0  0  0  0  0  0  0  0  0  0  0  0
  -11.7566    3.1773   -0.7350 O   0  0  0  0  0  0  0  0  0  0  0  0
    1.7007   -0.9561    2.2387 O   0  0  0  0  0  0  0  0  0  0  0  0
   10.4266    1.0335    0.0217 O   0  0  0  0  0  0  0  0  0  0  0  0
    6.2738   -1.0659   -1.5591 O   0  0  0  0  0  0  0  0  0  0  0  0
    7.0620    1.1392   -2.6197 O   0  0  0  0  0  0  0  0  0  0  0  0
    3.8493    0.2668    2.8997 O   0  0  0  0  0  0  0  0  0  0  0  0
   -2.1410   -2.3247    0.1404 C   0  0  1  0  0  0  0  0  0  0  0  0
   -2.1918   -3.7517   -0.4091 C   0  0  1  0  0  0  0  0  0  0  0  0
   -6.3975   -0.1306   -0.4394 C   0  0  1  0  0  0  0  0  0  0  0  0
   -0.7672   -1.7024   -0.0944 C   0  0  0  0  0  0  0  0  0  0  0  0
   -3.6315   -0.5131    0.3363 C   0  0  2  0  0  0  0  0  0  0  0  0
    0.3365   -2.6264    0.4235 C   0  0  2  0  0  0  0  0  0  0  0  0
   -5.2828    0.4269   -1.3222 C   0  0  0  0  0  0  0  0  0  0  0  0
   -4.0249    0.7027   -0.4996 C   0  0  0  0  0  0  0  0  0  0  0  0
   -5.8893   -1.3169    0.3894 C   0  0  2  0  0  0  0  0  0  0  0  0
   -1.0017   -4.5739    0.1037 C   0  0  1  0  0  0  0  0  0  0  0  0
   -8.2409    1.1785    0.2158 C   0  0  2  0  0  0  0  0  0  0  0  0
   -8.6520    2.2872    1.1773 C   0  0  0  0  0  0  0  0  0  0  0  0
    1.7103   -2.0585    0.1430 C   0  0  0  0  0  0  0  0  0  0  0  0
  -10.1049    2.6924    0.9558 C   0  0  2  0  0  0  0  0  0  0  0  0
  -10.3596    2.9918   -0.5227 C   0  0  1  0  0  0  0  0  0  0  0  0
   -9.8364    1.8547   -1.4097 C   0  0  1  0  0  0  0  0  0  0  0  0
   -6.9323   -1.8200    1.3815 C   0  0  0  0  0  0  0  0  0  0  0  0
   -0.9380   -5.9562   -0.5384 C   0  0  0  0  0  0  0  0  0  0  0  0
    2.3510   -1.2389    1.0729 C   0  0  0  0  0  0  0  0  0  0  0  0
    9.9894    2.2242   -0.6422 C   0  0  2  0  0  0  0  0  0  0  0  0
    2.3345   -2.3666   -1.0648 C   0  0  0  0  0  0  0  0  0  0  0  0
    3.6198   -0.7224    0.7883 C   0  0  0  0  0  0  0  0  0  0  0  0
    9.0909    3.0378    0.2947 C   0  0  0  0  0  0  0  0  0  0  0  0
    4.2430   -1.0288   -0.4193 C   0  0  0  0  0  0  0  0  0  0  0  0
    7.2500    1.3784   -0.2755 C   0  0  0  0  0  0  0  0  0  0  0  0
    7.8408    2.2683    0.6403 C   0  0  0  0  0  0  0  0  0  0  0  0
    6.1296    0.6103    0.1113 C   0  0  0  0  0  0  0  0  0  0  0  0
   -9.9520    2.1991   -2.8912 C   0  0  0  0  0  0  0  0  0  0  0  0
    9.2279    1.8206   -1.9029 C   0  0  0  0  0  0  0  0  0  0  0  0
    5.5403    0.8422    1.3637 C   0  0  0  0  0  0  0  0  0  0  0  0
    3.6018   -1.8566   -1.3477 C   0  0  0  0  0  0  0  0  0  0  0  0
    5.5945   -0.5126   -0.7039 C   0  0  0  0  0  0  0  0  0  0  0  0
    4.3068    0.1331    1.7715 C   0  0  0  0  0  0  0  0  0  0  0  0
    7.7917    1.3940   -1.6640 C   0  0  0  0  0  0  0  0  0  0  0  0
   11.2429    3.0221   -1.0126 C   0  0  0  0  0  0  0  0  0  0  0  0
    7.2500    2.4635    1.8943 C   0  0  0  0  0  0  0  0  0  0  0  0
    6.0971    1.7702    2.2487 C   0  0  0  0  0  0  0  0  0  0  0  0
   -2.3567   -2.3719    1.2177 H   0  0  0  0  0  0  0  0  0  0  0  0
   -2.1947   -3.7109   -1.5059 H   0  0  0  0  0  0  0  0  0  0  0  0
   -7.2032   -0.4964   -1.0901 H   0  0  0  0  0  0  0  0  0  0  0  0
   -0.7038   -0.7153    0.3784 H   0  0  0  0  0  0  0  0  0  0  0  0
   -0.6428   -1.5255   -1.1719 H   0  0  0  0  0  0  0  0  0  0  0  0
   -2.8470   -0.1786    1.0259 H   0  0  0  0  0  0  0  0  0  0  0  0
    0.2052   -2.7994    1.4961 H   0  0  0  0  0  0  0  0  0  0  0  0
   -5.6051    1.3567   -1.8048 H   0  0  0  0  0  0  0  0  0  0  0  0
   -5.0478   -0.2931   -2.1153 H   0  0  0  0  0  0  0  0  0  0  0  0
   -3.2074    0.9878   -1.1712 H   0  0  0  0  0  0  0  0  0  0  0  0
   -4.2241    1.5497    0.1682 H   0  0  0  0  0  0  0  0  0  0  0  0
   -5.6251   -2.1468   -0.2782 H   0  0  0  0  0  0  0  0  0  0  0  0
   -1.0766   -4.7172    1.1897 H   0  0  0  0  0  0  0  0  0  0  0  0
   -8.8266    0.2720    0.4177 H   0  0  0  0  0  0  0  0  0  0  0  0
   -8.4918    1.9807    2.2181 H   0  0  0  0  0  0  0  0  0  0  0  0
   -7.9999    3.1599    1.0342 H   0  0  0  0  0  0  0  0  0  0  0  0
  -10.7802    1.9029    1.3050 H   0  0  0  0  0  0  0  0  0  0  0  0
   -9.8621    3.9320   -0.7937 H   0  0  0  0  0  0  0  0  0  0  0  0
  -10.4145    0.9376   -1.2350 H   0  0  0  0  0  0  0  0  0  0  0  0
   -7.1559   -1.0693    2.1471 H   0  0  0  0  0  0  0  0  0  0  0  0
   -7.8603   -2.1020    0.8754 H   0  0  0  0  0  0  0  0  0  0  0  0
   -6.5497   -2.6973    1.9152 H   0  0  0  0  0  0  0  0  0  0  0  0
   -1.8131   -6.5625   -0.2881 H   0  0  0  0  0  0  0  0  0  0  0  0
   -0.8636   -5.8776   -1.6286 H   0  0  0  0  0  0  0  0  0  0  0  0
   -0.0427   -6.4906   -0.2014 H   0  0  0  0  0  0  0  0  0  0  0  0
   -3.5278   -5.1769   -0.4811 H   0  0  0  0  0  0  0  0  0  0  0  0
    1.8519   -2.9919   -1.8112 H   0  0  0  0  0  0  0  0  0  0  0  0
    9.6427    3.2559    1.2181 H   0  0  0  0  0  0  0  0  0  0  0  0
    8.8029    3.9918   -0.1637 H   0  0  0  0  0  0  0  0  0  0  0  0
   -9.5461    1.3857   -3.5026 H   0  0  0  0  0  0  0  0  0  0  0  0
  -10.9914    2.3691   -3.1869 H   0  0  0  0  0  0  0  0  0  0  0  0
   -9.3666    3.0934   -3.1318 H   0  0  0  0  0  0  0  0  0  0  0  0
    9.1787    2.6715   -2.5942 H   0  0  0  0  0  0  0  0  0  0  0  0
    9.7344    0.9883   -2.4060 H   0  0  0  0  0  0  0  0  0  0  0  0
    4.0693   -2.1085   -2.2958 H   0  0  0  0  0  0  0  0  0  0  0  0
   -9.8005    4.5696    1.4266 H   0  0  0  0  0  0  0  0  0  0  0  0
  -12.0492    3.8894   -0.1408 H   0  0  0  0  0  0  0  0  0  0  0  0
   11.8290    3.2612   -0.1178 H   0  0  0  0  0  0  0  0  0  0  0  0
   10.9927    3.9578   -1.5230 H   0  0  0  0  0  0  0  0  0  0  0  0
   11.8987    2.4343   -1.6650 H   0  0  0  0  0  0  0  0  0  0  0  0
    7.6814    3.1672    2.6020 H   0  0  0  0  0  0  0  0  0  0  0  0
    5.6547    1.9611    3.2228 H   0  0  0  0  0  0  0  0  0  0  0  0
    1.3618   -1.7815    2.6213 H   0  0  0  0  0  0  0  0  0  0  0  0
    9.6725    0.4316    0.1306 H   0  0  0  0  0  0  0  0  0  0  0  0
  1 14  1  0  0  0  0
  1 18  1  0  0  0  0
  2 18  1  0  0  0  0
  2 22  1  0  0  0  0
  3 19  1  0  0  0  0
  3 23  1  0  0  0  0
  4 16  1  0  0  0  0
  4 24  1  0  0  0  0
  5 24  1  0  0  0  0
  5 29  1  0  0  0  0
  6 15  1  0  0  0  0
  6 76  1  0  0  0  0
  7 27  1  0  0  0  0
  7 86  1  0  0  0  0
  8 28  1  0  0  0  0
  8 87  1  0  0  0  0
  9 32  1  0  0  0  0
  9 93  1  0  0  0  0
 10 33  1  0  0  0  0
 10 94  1  0  0  0  0
 11 45  2  0  0  0  0
 12 47  2  0  0  0  0
 13 46  2  0  0  0  0
 14 15  1  0  0  0  0
 14 17  1  0  0  0  0
 14 51  1  0  0  0  0
 15 23  1  0  0  0  0
 15 52  1  0  0  0  0
 16 20  1  0  0  0  0
 16 22  1  0  0  0  0
 16 53  1  0  0  0  0
 17 19  1  0  0  0  0
 17 54  1  0  0  0  0
 17 55  1  0  0  0  0
 18 21  1  0  0  0  0
 18 56  1  0  0  0  0
 19 26  1  0  0  0  0
 19 57  1  0  0  0  0
 20 21  1  0  0  0  0
 20 58  1  0  0  0  0
 20 59  1  0  0  0  0
 21 60  1  0  0  0  0
 21 61  1  0  0  0  0
 22 30  1  0  0  0  0
 22 62  1  0  0  0  0
 23 31  1  0  0  0  0
 23 63  1  0  0  0  0
 24 25  1  0  0  0  0
 24 64  1  0  0  0  0
 25 27  1  0  0  0  0
 25 65  1  0  0  0  0
 25 66  1  0  0  0  0
 26 32  2  0  0  0  0
 26 34  1  0  0  0  0
 27 28  1  0  0  0  0
 27 67  1  0  0  0  0
 28 29  1  0  0  0  0
 28 68  1  0  0  0  0
 29 41  1  0  0  0  0
 29 69  1  0  0  0  0
 30 70  1  0  0  0  0
 30 71  1  0  0  0  0
 30 72  1  0  0  0  0
 31 73  1  0  0  0  0
 31 74  1  0  0  0  0
 31 75  1  0  0  0  0
 32 35  1  0  0  0  0
 33 36  1  0  0  0  0
 33 42  1  0  0  0  0
 33 48  1  0  0  0  0
 34 44  2  0  0  0  0
 34 77  1  0  0  0  0
 35 37  2  0  0  0  0
 35 46  1  0  0  0  0
 36 39  1  0  0  0  0
 36 78  1  0  0  0  0
 36 79  1  0  0  0  0
 37 44  1  0  0  0  0
 37 45  1  0  0  0  0
 38 39  2  0  0  0  0
 38 40  1  0  0  0  0
 38 47  1  0  0  0  0
 39 49  1  0  0  0  0
 40 43  2  0  0  0  0
 40 45  1  0  0  0  0
 41 80  1  0  0  0  0
 41 81  1  0  0  0  0
 41 82  1  0  0  0  0
 42 47  1  0  0  0  0
 42 83  1  0  0  0  0
 42 84  1  0  0  0  0
 43 46  1  0  0  0  0
 43 50  1  0  0  0  0
 44 85  1  0  0  0  0
 48 88  1  0  0  0  0
 48 89  1  0  0  0  0
 48 90  1  0  0  0  0
 49 50  2  0  0  0  0
 49 91  1  0  0  0  0
 50 92  1  0  0  0  0
M  END
> <PUBCHEM_COMPOUND_CID>
175974

> <PUBCHEM_CONFORMER_RMSD>
1.2

> <PUBCHEM_CONFORMER_DIVERSEORDER>
1
109
150
312
170
65
68
324
167
284
179
281
43
269
229
217
30
116
322
108
161
145
18
260
314
47
200
103
235
138
205
245
285
146
210
276
59
86
271
202
127
157
155
165
265
42
118
219
279
192
73
142
216
172
289
119
80
185
115
123
102
126
332
315
69
71
184
97
251
258
93
82
122
253
252
7
223
183
190
117
45
255
208
79
310
230
224
214
248
166
317
257
191
113
169
313
101
186
206
88
178
329
149
259
295
305
61
114
287
261
299
137
98
133
293
234
12
195
335
17
207
319
159
320
201
282
280
6
300
294
211
40
139
226
203
176
301
232
204
44
302
143
221
162
77
23
151
244
160
249
275
163
268
272
3
198
4
197
222
283
236
180
110
309
292
100
209
66
311
78
199
239
316
225
193
25
174
39
63
36
273
13
238
31
32
14
48
304
277
242
325
132
306
212
128
26
177
220
168
60
94
89
321
96
254
134
297
303
267
158
148
262
67
76
323
213
87
331
141
46
106
62
70
112
171
81
125
173
55
29
274
120
231
154
318
75
330
20
104
233
124
247
85
188
16
41
334
194
241
152
227
264
107
90
95
8
111
58
38
83
50
181
54
298
136
91
228
130
5
15
288
250
84
147
187
140
218
24
308
237
196
240
21
175
266
11
53
215
33
51
131
270
105
246
243
22
9
99
72
34
263
121
64
296
2
129
286
307
37
327
52
256
57
328
326
28
10
153
333
19
56
182
291
35
290
189
156
144
164
74
92
49
135
278
27

> <PUBCHEM_MMFF94_PARTIAL_CHARGES>
51
1 -0.56
10 -0.68
11 -0.57
12 -0.57
13 -0.57
14 0.28
15 0.28
16 0.28
18 0.56
19 0.42
2 -0.56
22 0.28
23 0.28
24 0.56
26 -0.14
27 0.28
28 0.28
29 0.28
3 -0.56
32 0.08
33 0.28
34 -0.15
35 0.09
36 0.14
37 0.09
38 0.09
39 -0.14
4 -0.56
40 0.09
42 0.06
43 0.09
44 -0.15
45 0.4
46 0.4
47 0.42
49 -0.15
5 -0.56
50 -0.15
6 -0.68
7 -0.68
76 0.4
77 0.15
8 -0.68
85 0.15
86 0.4
87 0.4
9 -0.53
91 0.15
92 0.15
93 0.45
94 0.4

> <PUBCHEM_EFFECTIVE_ROTOR_COUNT>
9.2

> <PUBCHEM_PHARMACOPHORE_FEATURES>
24
1 1 acceptor
1 10 acceptor
1 10 donor
1 11 acceptor
1 12 acceptor
1 13 acceptor
1 2 acceptor
1 3 acceptor
1 4 acceptor
1 5 acceptor
1 6 acceptor
1 6 donor
1 7 acceptor
1 7 donor
1 8 acceptor
1 8 donor
1 9 donor
6 2 16 18 20 21 22 rings
6 26 32 34 35 37 44 rings
6 3 14 15 17 19 23 rings
6 33 36 38 39 42 47 rings
6 35 37 40 43 45 46 rings
6 38 39 40 43 49 50 rings
6 5 24 25 27 28 29 rings

> <PUBCHEM_HEAVY_ATOM_COUNT>
50

> <PUBCHEM_ATOM_DEF_STEREO_COUNT>
12

> <PUBCHEM_ATOM_UDEF_STEREO_COUNT>
0

> <PUBCHEM_BOND_DEF_STEREO_COUNT>
0

> <PUBCHEM_BOND_UDEF_STEREO_COUNT>
0

> <PUBCHEM_ISOTOPIC_ATOM_COUNT>
0

> <PUBCHEM_COMPONENT_COUNT>
1

> <PUBCHEM_CACTVS_TAUTO_COUNT>
10

> <PUBCHEM_CONFORMER_ID>
0002AF6600000001

> <PUBCHEM_MMFF94_ENERGY>
158.3254

> <PUBCHEM_FEATURE_SELFOVERLAP>
121.953

> <PUBCHEM_SHAPE_FINGERPRINT>
10029044 110 18413389861002355693
10168742 298 5328451610874723269
10533779 1 18412267233132670581
10533779 47 14907912587481437064
10952577 141 18410009918828442623
11409948 41 15213284362720998476
11421887 45 18337403664073104209
11456790 92 14189576338679920335
11607047 141 17774447213236134122
11672396 167 10015577291305265393
12124843 1 17168431467337785017
12133447 93 18334856086876861109
12522641 68 18113900433916258599
13008946 113 18342741844702597810
13947947 74 18113338604863794377
14359421 15 6699808674949757693
14965480 1 5183477756058214765
15455200 90 18339627990040437156
15890870 6 18410012134714932363
19302320 297 17203324490800446716
19304671 126 18261106426064723262
20982279 24 6699512950004314301
212700 22 10447937152493109121
21867126 195 9727628402197729001
21895431 317 9007064552057507277
23516275 100 18128823130809668997
23523787 8 16370730335426600991
23523788 1 12607413220972199466
24771293 8 18272371958410805495
2851757 41 8502368936883910797
3918712 181 18409451392606992065
3986486 107 17240482507060505465
4403749 210 18412825764635973771
44880568 143 18048597024480716632
4516262 110 18337396054292070895
4760202 170 17603588504905805168

> <PUBCHEM_SHAPE_MULTIPOLES>
952.68
44.26
5.68
2.03
36.81
6.02
0.03
-71.15
-10.3
7.12
-0.46
-1.12
-1.31
0.83

> <PUBCHEM_SHAPE_SELFOVERLAP>
2082.332

> <PUBCHEM_SHAPE_VOLUME>
509.1

> <PUBCHEM_COORDINATE_TYPE>
2
5
10

$$$$

