586241
  -OEChem-06241222462D

 41 43  0     0  0  0  0  0  0999 V2000
    7.0468   -0.2500    0.0000 O   0  0  0  0  0  0  0  0  0  0  0  0
    3.4782   -0.2555    0.0000 O   0  0  0  0  0  0  0  0  0  0  0  0
    2.6691   -1.6567    0.0000 O   0  0  0  0  0  0  0  0  0  0  0  0
    5.3147   -0.2500    0.0000 N   0  0  0  0  0  0  0  0  0  0  0  0
    6.1808    1.2500    0.0000 C   0  0  0  0  0  0  0  0  0  0  0  0
    7.0468    1.7500    0.0000 C   0  0  0  0  0  0  0  0  0  0  0  0
    5.3147    1.7500    0.0000 C   0  0  0  0  0  0  0  0  0  0  0  0
    7.0468    2.7500    0.0000 C   0  0  0  0  0  0  0  0  0  0  0  0
    5.3147    2.7500    0.0000 C   0  0  0  0  0  0  0  0  0  0  0  0
    6.1808    3.2500    0.0000 C   0  0  0  0  0  0  0  0  0  0  0  0
    6.1808    0.2500    0.0000 C   0  0  0  0  0  0  0  0  0  0  0  0
    5.3147   -1.2500    0.0000 C   0  0  0  0  0  0  0  0  0  0  0  0
    4.4487   -1.7500    0.0000 C   0  0  0  0  0  0  0  0  0  0  0  0
    3.5827   -1.2500    0.0000 C   0  0  0  0  0  0  0  0  0  0  0  0
    2.0000   -0.9136    0.0000 C   0  0  0  0  0  0  0  0  0  0  0  0
    2.5000   -0.0476    0.0000 C   0  0  0  0  0  0  0  0  0  0  0  0
    6.1808   -1.7500    0.0000 C   0  0  0  0  0  0  0  0  0  0  0  0
    4.4487   -2.7500    0.0000 C   0  0  0  0  0  0  0  0  0  0  0  0
    6.1808   -2.7500    0.0000 C   0  0  0  0  0  0  0  0  0  0  0  0
    5.3147   -3.2500    0.0000 C   0  0  0  0  0  0  0  0  0  0  0  0
    6.7177    0.9400    0.0000 H   0  0  0  0  0  0  0  0  0  0  0  0
    7.2588    1.1674    0.0000 H   0  0  0  0  0  0  0  0  0  0  0  0
    7.6574    1.8577    0.0000 H   0  0  0  0  0  0  0  0  0  0  0  0
    4.7042    1.8577    0.0000 H   0  0  0  0  0  0  0  0  0  0  0  0
    5.1027    1.1674    0.0000 H   0  0  0  0  0  0  0  0  0  0  0  0
    7.6574    2.6423    0.0000 H   0  0  0  0  0  0  0  0  0  0  0  0
    7.2588    3.3326    0.0000 H   0  0  0  0  0  0  0  0  0  0  0  0
    5.1027    3.3326    0.0000 H   0  0  0  0  0  0  0  0  0  0  0  0
    4.7042    2.6423    0.0000 H   0  0  0  0  0  0  0  0  0  0  0  0
    6.5793    3.7250    0.0000 H   0  0  0  0  0  0  0  0  0  0  0  0
    5.7822    3.7250    0.0000 H   0  0  0  0  0  0  0  0  0  0  0  0
    4.7778    0.0600    0.0000 H   0  0  0  0  0  0  0  0  0  0  0  0
    4.1026   -0.9123    0.0000 H   0  0  0  0  0  0  0  0  0  0  0  0
    1.4984   -0.5492    0.0000 H   0  0  0  0  0  0  0  0  0  0  0  0
    1.5851   -1.3743    0.0000 H   0  0  0  0  0  0  0  0  0  0  0  0
    2.6916    0.5421    0.0000 H   0  0  0  0  0  0  0  0  0  0  0  0
    1.9336    0.2046    0.0000 H   0  0  0  0  0  0  0  0  0  0  0  0
    6.7177   -1.4400    0.0000 H   0  0  0  0  0  0  0  0  0  0  0  0
    3.9118   -3.0600    0.0000 H   0  0  0  0  0  0  0  0  0  0  0  0
    6.7177   -3.0600    0.0000 H   0  0  0  0  0  0  0  0  0  0  0  0
    5.3147   -3.8700    0.0000 H   0  0  0  0  0  0  0  0  0  0  0  0
  1 11  2  0  0  0  0
  2 14  1  0  0  0  0
  2 16  1  0  0  0  0
  3 14  1  0  0  0  0
  3 15  1  0  0  0  0
  4 11  1  0  0  0  0
  4 12  1  0  0  0  0
  4 32  1  0  0  0  0
  5  6  1  0  0  0  0
  5  7  1  0  0  0  0
  5 11  1  0  0  0  0
  5 21  1  0  0  0  0
  6  8  1  0  0  0  0
  6 22  1  0  0  0  0
  6 23  1  0  0  0  0
  7  9  1  0  0  0  0
  7 24  1  0  0  0  0
  7 25  1  0  0  0  0
  8 10  1  0  0  0  0
  8 26  1  0  0  0  0
  8 27  1  0  0  0  0
  9 10  1  0  0  0  0
  9 28  1  0  0  0  0
  9 29  1  0  0  0  0
 10 30  1  0  0  0  0
 10 31  1  0  0  0  0
 12 13  1  0  0  0  0
 12 17  2  0  0  0  0
 13 14  1  0  0  0  0
 13 18  2  0  0  0  0
 14 33  1  0  0  0  0
 15 16  1  0  0  0  0
 15 34  1  0  0  0  0
 15 35  1  0  0  0  0
 16 36  1  0  0  0  0
 16 37  1  0  0  0  0
 17 19  1  0  0  0  0
 17 38  1  0  0  0  0
 18 20  1  0  0  0  0
 18 39  1  0  0  0  0
 19 20  2  0  0  0  0
 19 40  1  0  0  0  0
 20 41  1  0  0  0  0
M  END
> <PUBCHEM_COMPOUND_CID>
586241

> <PUBCHEM_COMPOUND_CANONICALIZED>
1

> <PUBCHEM_CACTVS_COMPLEXITY>
322

> <PUBCHEM_CACTVS_HBOND_ACCEPTOR>
3

> <PUBCHEM_CACTVS_HBOND_DONOR>
1

> <PUBCHEM_CACTVS_ROTATABLE_BOND>
3

> <PUBCHEM_CACTVS_SUBSKEYS>
AAADceB6MAAAAAAAAAAAAAAAAAAAASAAAAAwYAAAAAAAAAABAAAAHgAQAAAADQixmAMwyILABACIAiVSUACCAAAhAgAIiAEAbIgZJjLAsZmmMAhm1AHO6AeYyCCOAAAAAAACAAAAAAAAAAQAAAAAAAAAAA==

> <PUBCHEM_IUPAC_OPENEYE_NAME>
N-[2-(1,3-dioxolan-2-yl)phenyl]cyclohexanecarboxamide

> <PUBCHEM_IUPAC_CAS_NAME>
N-[2-(1,3-dioxolan-2-yl)phenyl]cyclohexanecarboxamide

> <PUBCHEM_IUPAC_NAME>
N-[2-(1,3-dioxolan-2-yl)phenyl]cyclohexanecarboxamide

> <PUBCHEM_IUPAC_SYSTEMATIC_NAME>
N-[2-(1,3-dioxolan-2-yl)phenyl]cyclohexanecarboxamide

> <PUBCHEM_IUPAC_TRADITIONAL_NAME>
N-[2-(1,3-dioxolan-2-yl)phenyl]cyclohexanecarboxamide

> <PUBCHEM_IUPAC_INCHI>
InChI=1S/C16H21NO3/c18-15(12-6-2-1-3-7-12)17-14-9-5-4-8-13(14)16-19-10-11-20-16/h4-5,8-9,12,16H,1-3,6-7,10-11H2,(H,17,18)

> <PUBCHEM_IUPAC_INCHIKEY>
JNFOEQWTJOVIBT-UHFFFAOYSA-N

> <PUBCHEM_XLOGP3_AA>
2.6

> <PUBCHEM_EXACT_MASS>
275.152144

> <PUBCHEM_MOLECULAR_FORMULA>
C16H21NO3

> <PUBCHEM_MOLECULAR_WEIGHT>
275.34284

> <PUBCHEM_OPENEYE_CAN_SMILES>
C1CCC(CC1)C(=O)NC2=CC=CC=C2C3OCCO3

> <PUBCHEM_OPENEYE_ISO_SMILES>
C1CCC(CC1)C(=O)NC2=CC=CC=C2C3OCCO3

> <PUBCHEM_CACTVS_TPSA>
47.6

> <PUBCHEM_MONOISOTOPIC_WEIGHT>
275.152144

> <PUBCHEM_TOTAL_CHARGE>
0

> <PUBCHEM_HEAVY_ATOM_COUNT>
20

> <PUBCHEM_ATOM_DEF_STEREO_COUNT>
0

> <PUBCHEM_ATOM_UDEF_STEREO_COUNT>
0

> <PUBCHEM_BOND_DEF_STEREO_COUNT>
0

> <PUBCHEM_BOND_UDEF_STEREO_COUNT>
0

> <PUBCHEM_ISOTOPIC_ATOM_COUNT>
0

> <PUBCHEM_COMPONENT_COUNT>
1

> <PUBCHEM_CACTVS_TAUTO_COUNT>
3

> <PUBCHEM_COORDINATE_TYPE>
1
5
255

> <PUBCHEM_BONDANNOTATIONS>
12  13  8
12  17  8
13  18  8
17  19  8
18  20  8
19  20  8

$$$$

