5281642
  -OEChem-07051212583D

 32 34  0     0  0  0  0  0  0999 V2000
    0.0036    0.6423   -0.1283 O   0  0  0  0  0  0  0  0  0  0  0  0
   -4.1424   -1.8309    0.2424 O   0  0  0  0  0  0  0  0  0  0  0  0
   -5.5175    0.5131   -0.0089 O   0  0  0  0  0  0  0  0  0  0  0  0
   -1.8012   -2.9815    0.3293 O   0  0  0  0  0  0  0  0  0  0  0  0
   -4.1603    2.9021   -0.3159 O   0  0  0  0  0  0  0  0  0  0  0  0
    4.6789    2.2271    0.8061 O   0  0  0  0  0  0  0  0  0  0  0  0
    6.3167    0.2321   -0.2234 O   0  0  0  0  0  0  0  0  0  0  0  0
   -2.0464   -0.6463    0.0629 C   0  0  0  0  0  0  0  0  0  0  0  0
   -1.3653    0.5598   -0.0923 C   0  0  0  0  0  0  0  0  0  0  0  0
    0.7395   -0.5256    0.0032 C   0  0  0  0  0  0  0  0  0  0  0  0
    2.2011   -0.3236   -0.0554 C   0  0  0  0  0  0  0  0  0  0  0  0
   -1.2694   -1.8884    0.1935 C   0  0  0  0  0  0  0  0  0  0  0  0
   -3.4426   -0.6706    0.0918 C   0  0  0  0  0  0  0  0  0  0  0  0
    0.2001   -1.7461    0.1510 C   0  0  0  0  0  0  0  0  0  0  0  0
   -2.0786    1.7518   -0.2202 C   0  0  0  0  0  0  0  0  0  0  0  0
   -4.1536    0.5233   -0.0359 C   0  0  0  0  0  0  0  0  0  0  0  0
   -3.4733    1.7319   -0.1916 C   0  0  0  0  0  0  0  0  0  0  0  0
    2.7639    0.8684    0.4073 C   0  0  0  0  0  0  0  0  0  0  0  0
    3.0275   -1.3237   -0.5736 C   0  0  0  0  0  0  0  0  0  0  0  0
    4.1447    1.0591    0.3524 C   0  0  0  0  0  0  0  0  0  0  0  0
    4.4082   -1.1329   -0.6288 C   0  0  0  0  0  0  0  0  0  0  0  0
    4.9668    0.0584   -0.1656 C   0  0  0  0  0  0  0  0  0  0  0  0
    0.7775   -2.6559    0.2659 H   0  0  0  0  0  0  0  0  0  0  0  0
   -1.5507    2.6944   -0.3414 H   0  0  0  0  0  0  0  0  0  0  0  0
    2.1418    1.6584    0.8224 H   0  0  0  0  0  0  0  0  0  0  0  0
    2.6297   -2.2565   -0.9642 H   0  0  0  0  0  0  0  0  0  0  0  0
    5.0369   -1.9187   -1.0390 H   0  0  0  0  0  0  0  0  0  0  0  0
   -3.5414   -2.5867    0.3245 H   0  0  0  0  0  0  0  0  0  0  0  0
   -5.8153   -0.4061    0.1053 H   0  0  0  0  0  0  0  0  0  0  0  0
   -5.1120    2.7039   -0.2744 H   0  0  0  0  0  0  0  0  0  0  0  0
    5.6443    2.1867    0.6918 H   0  0  0  0  0  0  0  0  0  0  0  0
    6.7221   -0.5630   -0.6099 H   0  0  0  0  0  0  0  0  0  0  0  0
  1  9  1  0  0  0  0
  1 10  1  0  0  0  0
  2 13  1  0  0  0  0
  2 28  1  0  0  0  0
  3 16  1  0  0  0  0
  3 29  1  0  0  0  0
  4 12  2  0  0  0  0
  5 17  1  0  0  0  0
  5 30  1  0  0  0  0
  6 20  1  0  0  0  0
  6 31  1  0  0  0  0
  7 22  1  0  0  0  0
  7 32  1  0  0  0  0
  8  9  2  0  0  0  0
  8 12  1  0  0  0  0
  8 13  1  0  0  0  0
  9 15  1  0  0  0  0
 10 11  1  0  0  0  0
 10 14  2  0  0  0  0
 11 18  2  0  0  0  0
 11 19  1  0  0  0  0
 12 14  1  0  0  0  0
 13 16  2  0  0  0  0
 14 23  1  0  0  0  0
 15 17  2  0  0  0  0
 15 24  1  0  0  0  0
 16 17  1  0  0  0  0
 18 20  1  0  0  0  0
 18 25  1  0  0  0  0
 19 21  2  0  0  0  0
 19 26  1  0  0  0  0
 20 22  2  0  0  0  0
 21 22  1  0  0  0  0
 21 27  1  0  0  0  0
M  END
> <PUBCHEM_COMPOUND_CID>
5281642

> <PUBCHEM_CONFORMER_RMSD>
0.6

> <PUBCHEM_CONFORMER_DIVERSEORDER>
1
3
5
2
4
6

> <PUBCHEM_MMFF94_PARTIAL_CHARGES>
32
1 -0.16
10 0.05
11 0.03
12 0.47
13 0.08
14 -0.14
15 -0.15
16 0.08
17 0.08
18 -0.15
19 -0.15
2 -0.53
20 0.08
21 -0.15
22 0.08
23 0.15
24 0.15
25 0.15
26 0.15
27 0.15
28 0.45
29 0.45
3 -0.53
30 0.45
31 0.45
32 0.45
4 -0.57
5 -0.53
6 -0.53
7 -0.53
8 0.09
9 0.08

> <PUBCHEM_EFFECTIVE_ROTOR_COUNT>
1

> <PUBCHEM_PHARMACOPHORE_FEATURES>
10
1 1 acceptor
1 2 donor
1 3 donor
1 4 acceptor
1 5 donor
1 6 donor
1 7 donor
6 1 8 9 10 12 14 rings
6 11 18 19 20 21 22 rings
6 8 9 13 15 16 17 rings

> <PUBCHEM_HEAVY_ATOM_COUNT>
22

> <PUBCHEM_ATOM_DEF_STEREO_COUNT>
0

> <PUBCHEM_ATOM_UDEF_STEREO_COUNT>
0

> <PUBCHEM_BOND_DEF_STEREO_COUNT>
0

> <PUBCHEM_BOND_UDEF_STEREO_COUNT>
0

> <PUBCHEM_ISOTOPIC_ATOM_COUNT>
0

> <PUBCHEM_COMPONENT_COUNT>
1

> <PUBCHEM_CACTVS_TAUTO_COUNT>
444

> <PUBCHEM_CONFORMER_ID>
0050976A00000001

> <PUBCHEM_MMFF94_ENERGY>
65.4143

> <PUBCHEM_FEATURE_SELFOVERLAP>
50.787

> <PUBCHEM_SHAPE_FINGERPRINT>
10 15 18339931403446357776
10319926 262 18339094717967899282
10411042 1 17836080075005745387
10498660 4 18341618173719601565
10608611 8 18335985290151605064
10646746 165 18412263947782810662
11405975 8 18412548700204761834
11595378 159 17417824971103943208
12107183 9 17911530006011908514
12173636 292 18412547638967947199
12236239 1 17418374675678592214
12390115 104 18263067972436658137
12403259 415 18408042922338206880
12596602 18 16415187945486078888
12916748 109 18413384354273559387
13140716 1 17982723074683373299
13402501 40 18407761434750972288
13544592 145 18336254760684551086
14790565 3 18192144026442821425
15042514 8 18198054786479407635
15196674 1 18410012130419978050
15375358 24 18334574646560822662
15961568 22 18059011658422506420
17844677 252 18410004412701721104
200 152 17095241432115559306
20510252 161 18407758136273630865
20645477 56 18412543214787615526
20645477 70 17313657257106073870
21033648 29 18337120032927294289
21065198 57 18410292489338402346
21236236 1 18408322155911675071
21267235 1 18341041917962758955
21279426 13 18192428786921002070
21421861 104 17630619019090466186
221357 26 18114184163322731856
23227448 37 18336549317587936532
23402539 116 18410016515771777551
23557571 272 18335975394415027990
23559900 14 18189617310225293646
245318 6 16553110499918923540
3004659 81 18270394019077284854
3545911 37 18408882941032494836
4073 2 18201432550724444538
4214541 1 18410292514781041572
495365 180 17531539719692404386
5104073 3 18412262865240218738
5283173 99 18408887356000600840
633830 44 18189625015037667053
69090 78 18334577940494893998
77779 3 18409166623474605140
9709674 26 18335414660602012606

> <PUBCHEM_SHAPE_MULTIPOLES>
411.66
12.06
2.5
0.68
7.1
0.04
0
-4.15
0.38
-1.84
-0.16
0.27
-0.02
1.1

> <PUBCHEM_SHAPE_SELFOVERLAP>
925.105

> <PUBCHEM_SHAPE_VOLUME>
216.1

> <PUBCHEM_COORDINATE_TYPE>
2
5
10

$$$$

