46173191
  -OEChem-07051213112D

 92 94  0     0  0  0  0  0  0999 V2000
    4.5981   -0.9050    0.0000 O   0  0  0  0  0  0  0  0  0  0  0  0
   11.5263    0.0950    0.0000 O   0  0  0  0  0  0  0  0  0  0  0  0
    7.1962    3.5950    0.0000 O   0  0  0  0  0  0  0  0  0  0  0  0
    2.8660   -5.9050    0.0000 O   0  0  0  0  0  0  0  0  0  0  0  0
    4.5981   -6.9050    0.0000 O   0  0  0  0  0  0  0  0  0  0  0  0
   14.9904   -3.9050    0.0000 O   0  0  0  0  0  0  0  0  0  0  0  0
   12.3923    4.5950    0.0000 O   0  0  0  0  0  0  0  0  0  0  0  0
   16.7224   -2.9050    0.0000 O   0  0  0  0  0  0  0  0  0  0  0  0
   12.3923    6.5950    0.0000 O   0  0  0  0  0  0  0  0  0  0  0  0
    6.3301   -0.9050    0.0000 N   0  0  0  0  0  0  0  0  0  0  0  0
   10.6603   -1.4050    0.0000 N   0  0  0  0  0  0  0  0  0  0  0  0
    8.0622    2.0950    0.0000 N   0  0  0  0  0  0  0  0  0  0  0  0
    7.1962   -1.4050    0.0000 C   0  0  0  0  0  0  0  0  0  0  0  0
    8.0622   -0.9050    0.0000 C   0  0  0  0  0  0  0  0  0  0  0  0
    6.3301    0.0950    0.0000 C   0  0  0  0  0  0  0  0  0  0  0  0
    8.9282   -1.4050    0.0000 C   0  0  0  0  0  0  0  0  0  0  0  0
    7.1962    0.5950    0.0000 C   0  0  0  0  0  0  0  0  0  0  0  0
    9.7942   -0.9050    0.0000 C   0  0  0  0  0  0  0  0  0  0  0  0
    7.1962    1.5950    0.0000 C   0  0  0  0  0  0  0  0  0  0  0  0
    5.4641   -1.4050    0.0000 C   0  0  0  0  0  0  0  0  0  0  0  0
    5.4641   -2.4050    0.0000 C   0  0  0  0  0  0  0  0  0  0  0  0
   11.5263   -0.9050    0.0000 C   0  0  0  0  0  0  0  0  0  0  0  0
    4.5981   -2.9050    0.0000 C   0  0  0  0  0  0  0  0  0  0  0  0
    8.0622    3.0950    0.0000 C   0  0  0  0  0  0  0  0  0  0  0  0
    4.5981   -3.9050    0.0000 C   0  0  0  0  0  0  0  0  0  0  0  0
   12.3923   -1.4050    0.0000 C   0  0  0  0  0  0  0  0  0  0  0  0
    8.9282    3.5950    0.0000 C   0  0  0  0  0  0  0  0  0  0  0  0
    3.7320   -4.4050    0.0000 C   0  0  0  0  0  0  0  0  0  0  0  0
    5.4641   -4.4050    0.0000 C   0  0  0  0  0  0  0  0  0  0  0  0
   13.2583   -0.9050    0.0000 C   0  0  0  0  0  0  0  0  0  0  0  0
    8.9282    4.5950    0.0000 C   0  0  0  0  0  0  0  0  0  0  0  0
    3.7320   -5.4050    0.0000 C   0  0  0  0  0  0  0  0  0  0  0  0
    5.4641   -5.4050    0.0000 C   0  0  0  0  0  0  0  0  0  0  0  0
    4.5981   -5.9050    0.0000 C   0  0  0  0  0  0  0  0  0  0  0  0
   14.1244   -1.4050    0.0000 C   0  0  0  0  0  0  0  0  0  0  0  0
    9.7942    5.0950    0.0000 C   0  0  0  0  0  0  0  0  0  0  0  0
   14.1244   -2.4050    0.0000 C   0  0  0  0  0  0  0  0  0  0  0  0
   14.9904   -0.9050    0.0000 C   0  0  0  0  0  0  0  0  0  0  0  0
   10.6603    4.5950    0.0000 C   0  0  0  0  0  0  0  0  0  0  0  0
    9.7942    6.0950    0.0000 C   0  0  0  0  0  0  0  0  0  0  0  0
   14.9904   -2.9050    0.0000 C   0  0  0  0  0  0  0  0  0  0  0  0
   11.5263    5.0950    0.0000 C   0  0  0  0  0  0  0  0  0  0  0  0
   15.8564   -1.4050    0.0000 C   0  0  0  0  0  0  0  0  0  0  0  0
   10.6603    6.5950    0.0000 C   0  0  0  0  0  0  0  0  0  0  0  0
   15.8564   -2.4050    0.0000 C   0  0  0  0  0  0  0  0  0  0  0  0
   11.5263    6.0950    0.0000 C   0  0  0  0  0  0  0  0  0  0  0  0
    2.0000   -5.4050    0.0000 C   0  0  0  0  0  0  0  0  0  0  0  0
   15.8564   -4.4050    0.0000 C   0  0  0  0  0  0  0  0  0  0  0  0
   13.2583    5.0950    0.0000 C   0  0  0  0  0  0  0  0  0  0  0  0
    6.7976   -1.8800    0.0000 H   0  0  0  0  0  0  0  0  0  0  0  0
    7.5947   -1.8800    0.0000 H   0  0  0  0  0  0  0  0  0  0  0  0
    8.4607   -0.4301    0.0000 H   0  0  0  0  0  0  0  0  0  0  0  0
    7.6636   -0.4301    0.0000 H   0  0  0  0  0  0  0  0  0  0  0  0
    6.1181    0.6776    0.0000 H   0  0  0  0  0  0  0  0  0  0  0  0
    5.7196   -0.0127    0.0000 H   0  0  0  0  0  0  0  0  0  0  0  0
    8.5297   -1.8800    0.0000 H   0  0  0  0  0  0  0  0  0  0  0  0
    9.3267   -1.8800    0.0000 H   0  0  0  0  0  0  0  0  0  0  0  0
    7.4082    0.0124    0.0000 H   0  0  0  0  0  0  0  0  0  0  0  0
    7.8067    0.7027    0.0000 H   0  0  0  0  0  0  0  0  0  0  0  0
   10.1928   -0.4301    0.0000 H   0  0  0  0  0  0  0  0  0  0  0  0
    9.3957   -0.4301    0.0000 H   0  0  0  0  0  0  0  0  0  0  0  0
    6.9841    2.1776    0.0000 H   0  0  0  0  0  0  0  0  0  0  0  0
    6.5856    1.4873    0.0000 H   0  0  0  0  0  0  0  0  0  0  0  0
   10.6603   -2.0250    0.0000 H   0  0  0  0  0  0  0  0  0  0  0  0
    8.5991    1.7850    0.0000 H   0  0  0  0  0  0  0  0  0  0  0  0
    6.0010   -2.7150    0.0000 H   0  0  0  0  0  0  0  0  0  0  0  0
    4.0611   -2.5950    0.0000 H   0  0  0  0  0  0  0  0  0  0  0  0
   12.3923   -2.0250    0.0000 H   0  0  0  0  0  0  0  0  0  0  0  0
    9.4651    3.2850    0.0000 H   0  0  0  0  0  0  0  0  0  0  0  0
    3.1951   -4.0950    0.0000 H   0  0  0  0  0  0  0  0  0  0  0  0
    6.0010   -4.0950    0.0000 H   0  0  0  0  0  0  0  0  0  0  0  0
   13.2583   -0.2850    0.0000 H   0  0  0  0  0  0  0  0  0  0  0  0
    8.3913    4.9050    0.0000 H   0  0  0  0  0  0  0  0  0  0  0  0
    6.0010   -5.7150    0.0000 H   0  0  0  0  0  0  0  0  0  0  0  0
   13.5874   -2.7150    0.0000 H   0  0  0  0  0  0  0  0  0  0  0  0
   14.9904   -0.2850    0.0000 H   0  0  0  0  0  0  0  0  0  0  0  0
   10.6603    3.9750    0.0000 H   0  0  0  0  0  0  0  0  0  0  0  0
    9.2573    6.4050    0.0000 H   0  0  0  0  0  0  0  0  0  0  0  0
   16.3933   -1.0950    0.0000 H   0  0  0  0  0  0  0  0  0  0  0  0
   10.6603    7.2150    0.0000 H   0  0  0  0  0  0  0  0  0  0  0  0
    5.1350   -7.2150    0.0000 H   0  0  0  0  0  0  0  0  0  0  0  0
    2.3100   -4.8681    0.0000 H   0  0  0  0  0  0  0  0  0  0  0  0
    1.4631   -5.0950    0.0000 H   0  0  0  0  0  0  0  0  0  0  0  0
    1.6900   -5.9419    0.0000 H   0  0  0  0  0  0  0  0  0  0  0  0
   17.2594   -2.5950    0.0000 H   0  0  0  0  0  0  0  0  0  0  0  0
   12.3923    7.2150    0.0000 H   0  0  0  0  0  0  0  0  0  0  0  0
   15.5464   -4.9419    0.0000 H   0  0  0  0  0  0  0  0  0  0  0  0
   16.3933   -4.7150    0.0000 H   0  0  0  0  0  0  0  0  0  0  0  0
   16.1664   -3.8681    0.0000 H   0  0  0  0  0  0  0  0  0  0  0  0
   13.5683    4.5581    0.0000 H   0  0  0  0  0  0  0  0  0  0  0  0
   13.7953    5.4050    0.0000 H   0  0  0  0  0  0  0  0  0  0  0  0
   12.9483    5.6319    0.0000 H   0  0  0  0  0  0  0  0  0  0  0  0
  1 20  2  0  0  0  0
  2 22  2  0  0  0  0
  3 24  2  0  0  0  0
  4 32  1  0  0  0  0
  4 47  1  0  0  0  0
  5 34  1  0  0  0  0
  5 81  1  0  0  0  0
  6 41  1  0  0  0  0
  6 48  1  0  0  0  0
  7 42  1  0  0  0  0
  7 49  1  0  0  0  0
  8 45  1  0  0  0  0
  8 85  1  0  0  0  0
  9 46  1  0  0  0  0
  9 86  1  0  0  0  0
 10 13  1  0  0  0  0
 10 15  1  0  0  0  0
 10 20  1  0  0  0  0
 11 18  1  0  0  0  0
 11 22  1  0  0  0  0
 11 64  1  0  0  0  0
 12 19  1  0  0  0  0
 12 24  1  0  0  0  0
 12 65  1  0  0  0  0
 13 14  1  0  0  0  0
 13 50  1  0  0  0  0
 13 51  1  0  0  0  0
 14 16  1  0  0  0  0
 14 52  1  0  0  0  0
 14 53  1  0  0  0  0
 15 17  1  0  0  0  0
 15 54  1  0  0  0  0
 15 55  1  0  0  0  0
 16 18  1  0  0  0  0
 16 56  1  0  0  0  0
 16 57  1  0  0  0  0
 17 19  1  0  0  0  0
 17 58  1  0  0  0  0
 17 59  1  0  0  0  0
 18 60  1  0  0  0  0
 18 61  1  0  0  0  0
 19 62  1  0  0  0  0
 19 63  1  0  0  0  0
 20 21  1  0  0  0  0
 21 23  2  0  0  0  0
 21 66  1  0  0  0  0
 22 26  1  0  0  0  0
 23 25  1  0  0  0  0
 23 67  1  0  0  0  0
 24 27  1  0  0  0  0
 25 28  2  0  0  0  0
 25 29  1  0  0  0  0
 26 30  2  0  0  0  0
 26 68  1  0  0  0  0
 27 31  2  0  0  0  0
 27 69  1  0  0  0  0
 28 32  1  0  0  0  0
 28 70  1  0  0  0  0
 29 33  2  0  0  0  0
 29 71  1  0  0  0  0
 30 35  1  0  0  0  0
 30 72  1  0  0  0  0
 31 36  1  0  0  0  0
 31 73  1  0  0  0  0
 32 34  2  0  0  0  0
 33 34  1  0  0  0  0
 33 74  1  0  0  0  0
 35 37  2  0  0  0  0
 35 38  1  0  0  0  0
 36 39  2  0  0  0  0
 36 40  1  0  0  0  0
 37 41  1  0  0  0  0
 37 75  1  0  0  0  0
 38 43  2  0  0  0  0
 38 76  1  0  0  0  0
 39 42  1  0  0  0  0
 39 77  1  0  0  0  0
 40 44  2  0  0  0  0
 40 78  1  0  0  0  0
 41 45  2  0  0  0  0
 42 46  2  0  0  0  0
 43 45  1  0  0  0  0
 43 79  1  0  0  0  0
 44 46  1  0  0  0  0
 44 80  1  0  0  0  0
 47 82  1  0  0  0  0
 47 83  1  0  0  0  0
 47 84  1  0  0  0  0
 48 87  1  0  0  0  0
 48 88  1  0  0  0  0
 48 89  1  0  0  0  0
 49 90  1  0  0  0  0
 49 91  1  0  0  0  0
 49 92  1  0  0  0  0
M  END
> <PUBCHEM_COMPOUND_CID>
46173191

> <PUBCHEM_COMPOUND_CANONICALIZED>
1

> <PUBCHEM_CACTVS_COMPLEXITY>
1100

> <PUBCHEM_CACTVS_HBOND_ACCEPTOR>
9

> <PUBCHEM_CACTVS_HBOND_DONOR>
5

> <PUBCHEM_CACTVS_ROTATABLE_BOND>
18

> <PUBCHEM_CACTVS_SUBSKEYS>
AAADcfB/PAAAAAAAAAAAAAAAAAAAAAAAAAAwYMAAAAAAAAABUAAAHgAQCAAADATBmAYyBoPABgCIAiFSEACCCAAgIAAIiIAOiMgNJiKG8RqEcCMk1hGLuYeAwBAOIAABAAAAQABAAAIAAACAAAAAAAAAAA==

> <PUBCHEM_IUPAC_OPENEYE_NAME>
(E)-3-(4-hydroxy-3-methoxy-phenyl)-N-[4-[[(E)-3-(4-hydroxy-3-methoxy-phenyl)prop-2-enoyl]-[3-[[(E)-3-(4-hydroxy-3-methoxy-phenyl)prop-2-enoyl]amino]propyl]amino]butyl]prop-2-enamide

> <PUBCHEM_IUPAC_CAS_NAME>
(E)-3-(4-hydroxy-3-methoxyphenyl)-N-[4-[[(E)-3-(4-hydroxy-3-methoxyphenyl)-1-oxoprop-2-enyl]-[3-[[(E)-3-(4-hydroxy-3-methoxyphenyl)-1-oxoprop-2-enyl]amino]propyl]amino]butyl]-2-propenamide

> <PUBCHEM_IUPAC_NAME>
(E)-3-(4-hydroxy-3-methoxyphenyl)-N-[4-[[(E)-3-(4-hydroxy-3-methoxyphenyl)prop-2-enoyl]-[3-[[(E)-3-(4-hydroxy-3-methoxyphenyl)prop-2-enoyl]amino]propyl]amino]butyl]prop-2-enamide

> <PUBCHEM_IUPAC_SYSTEMATIC_NAME>
(E)-3-(3-methoxy-4-oxidanyl-phenyl)-N-[4-[[(E)-3-(3-methoxy-4-oxidanyl-phenyl)prop-2-enoyl]-[3-[[(E)-3-(3-methoxy-4-oxidanyl-phenyl)prop-2-enoyl]amino]propyl]amino]butyl]prop-2-enamide

> <PUBCHEM_IUPAC_TRADITIONAL_NAME>
(E)-3-(4-hydroxy-3-methoxy-phenyl)-N-[4-[[(E)-3-(4-hydroxy-3-methoxy-phenyl)acryloyl]-[3-[[(E)-3-(4-hydroxy-3-methoxy-phenyl)acryloyl]amino]propyl]amino]butyl]acrylamide

> <PUBCHEM_IUPAC_INCHI>
InChI=1S/C37H43N3O9/c1-47-32-23-26(7-13-29(32)41)10-16-35(44)38-19-4-5-21-40(37(46)18-12-28-9-15-31(43)34(25-28)49-3)22-6-20-39-36(45)17-11-27-8-14-30(42)33(24-27)48-2/h7-18,23-25,41-43H,4-6,19-22H2,1-3H3,(H,38,44)(H,39,45)/b16-10+,17-11+,18-12+

> <PUBCHEM_IUPAC_INCHIKEY>
KMJWIBDYGUTEFB-WLJYFSRTSA-N

> <PUBCHEM_XLOGP3_AA>
4.5

> <PUBCHEM_EXACT_MASS>
673.29993

> <PUBCHEM_MOLECULAR_FORMULA>
C37H43N3O9

> <PUBCHEM_MOLECULAR_WEIGHT>
673.75202

> <PUBCHEM_OPENEYE_CAN_SMILES>
COC1=C(C=CC(=C1)C=CC(=O)NCCCCN(CCCNC(=O)C=CC2=CC(=C(C=C2)O)OC)C(=O)C=CC3=CC(=C(C=C3)O)OC)O

> <PUBCHEM_OPENEYE_ISO_SMILES>
COC1=C(C=CC(=C1)/C=C/C(=O)NCCCCN(CCCNC(=O)/C=C/C2=CC(=C(C=C2)O)OC)C(=O)/C=C/C3=CC(=C(C=C3)O)OC)O

> <PUBCHEM_CACTVS_TPSA>
167

> <PUBCHEM_MONOISOTOPIC_WEIGHT>
673.29993

> <PUBCHEM_TOTAL_CHARGE>
0

> <PUBCHEM_HEAVY_ATOM_COUNT>
49

> <PUBCHEM_ATOM_DEF_STEREO_COUNT>
0

> <PUBCHEM_ATOM_UDEF_STEREO_COUNT>
0

> <PUBCHEM_BOND_DEF_STEREO_COUNT>
3

> <PUBCHEM_BOND_UDEF_STEREO_COUNT>
0

> <PUBCHEM_ISOTOPIC_ATOM_COUNT>
0

> <PUBCHEM_COMPONENT_COUNT>
1

> <PUBCHEM_CACTVS_TAUTO_COUNT>
288

> <PUBCHEM_COORDINATE_TYPE>
1
5
255

> <PUBCHEM_BONDANNOTATIONS>
25  28  8
25  29  8
28  32  8
29  33  8
32  34  8
33  34  8
35  37  8
35  38  8
36  39  8
36  40  8
37  41  8
38  43  8
39  42  8
40  44  8
41  45  8
42  46  8
43  45  8
44  46  8

$$$$

