56928145
  -OEChem-07051213152D

 86 88  0     1  0  0  0  0  0999 V2000
    2.8660    1.4498    0.0000 O   0  0  0  0  0  0  0  0  0  0  0  0
    5.0567   -1.2663    0.0000 O   0  0  0  0  0  0  0  0  0  0  0  0
    2.8660    2.4498    0.0000 O   0  0  0  0  0  0  0  0  0  0  0  0
    8.1412    0.6229    0.0000 O   0  0  0  0  0  0  0  0  0  0  0  0
    8.1888    2.7909    0.0000 O   0  0  0  0  0  0  0  0  0  0  0  0
    3.7676   -2.4230    0.0000 O   0  0  0  0  0  0  0  0  0  0  0  0
    3.7320    3.9498    0.0000 O   0  0  0  0  0  0  0  0  0  0  0  0
    7.5750   -1.0140    0.0000 O   0  0  0  0  0  0  0  0  0  0  0  0
    8.1888    4.5229    0.0000 O   0  0  0  0  0  0  0  0  0  0  0  0
    3.7320    0.9498    0.0000 C   0  0  3  0  0  0  0  0  0  0  0  0
    4.5981    0.4498    0.0000 C   0  0  3  0  0  0  0  0  0  0  0  0
    3.4002   -0.6251    0.0000 C   0  0  3  0  0  0  0  0  0  0  0  0
    2.9950    0.2827    0.0000 C   0  0  0  0  0  0  0  0  0  0  0  0
    4.3889   -0.5220    0.0000 C   0  0  3  0  0  0  0  0  0  0  0  0
    3.7320    1.9498    0.0000 C   0  0  3  0  0  0  0  0  0  0  0  0
    4.5981    2.4498    0.0000 C   0  0  3  0  0  0  0  0  0  0  0  0
    5.4641    0.9498    0.0000 C   0  0  0  0  0  0  0  0  0  0  0  0
    2.9002   -1.4911    0.0000 C   0  0  0  0  0  0  0  0  0  0  0  0
    6.3301    0.4498    0.0000 C   0  0  0  0  0  0  0  0  0  0  0  0
    4.8569    3.4157    0.0000 C   0  0  0  0  0  0  0  0  0  0  0  0
    5.5971    2.4934    0.0000 C   0  0  0  0  0  0  0  0  0  0  0  0
    7.1962    0.9498    0.0000 C   0  0  3  0  0  0  0  0  0  0  0  0
    6.6888    3.6569    0.0000 C   0  0  0  0  0  0  0  0  0  0  0  0
    7.1888    2.7909    0.0000 C   0  0  3  0  0  0  0  0  0  0  0  0
    6.6888    1.9249    0.0000 C   0  0  0  0  0  0  0  0  0  0  0  0
    5.7229    3.9157    0.0000 C   0  0  0  0  0  0  0  0  0  0  0  0
    4.7460   -2.2168    0.0000 C   0  0  0  0  0  0  0  0  0  0  0  0
    6.3301   -0.5502    0.0000 C   0  0  0  0  0  0  0  0  0  0  0  0
    2.8660    3.4498    0.0000 C   0  0  0  0  0  0  0  0  0  0  0  0
    6.7325    4.6560    0.0000 C   0  0  0  0  0  0  0  0  0  0  0  0
    7.4822    4.2657    0.0000 C   0  0  0  0  0  0  0  0  0  0  0  0
    5.4139   -2.9611    0.0000 C   0  0  0  0  0  0  0  0  0  0  0  0
    2.0000    3.9498    0.0000 C   0  0  0  0  0  0  0  0  0  0  0  0
    8.3306   -0.3590    0.0000 C   0  0  0  0  0  0  0  0  0  0  0  0
    6.3924   -2.7549    0.0000 C   0  0  0  0  0  0  0  0  0  0  0  0
    5.1032   -3.9117    0.0000 C   0  0  0  0  0  0  0  0  0  0  0  0
    8.6888    3.6569    0.0000 C   0  0  0  0  0  0  0  0  0  0  0  0
    9.2757   -0.6859    0.0000 C   0  0  0  0  0  0  0  0  0  0  0  0
    7.0602   -3.4992    0.0000 C   0  0  0  0  0  0  0  0  0  0  0  0
    5.7711   -4.6560    0.0000 C   0  0  0  0  0  0  0  0  0  0  0  0
    9.6888    3.6569    0.0000 C   0  0  0  0  0  0  0  0  0  0  0  0
    6.7496   -4.4497    0.0000 C   0  0  0  0  0  0  0  0  0  0  0  0
    5.0992    0.0847    0.0000 H   0  0  0  0  0  0  0  0  0  0  0  0
    3.7376   -1.1452    0.0000 H   0  0  0  0  0  0  0  0  0  0  0  0
    2.6296    0.7836    0.0000 H   0  0  0  0  0  0  0  0  0  0  0  0
    2.4585   -0.0281    0.0000 H   0  0  0  0  0  0  0  0  0  0  0  0
    4.1659   -1.1005    0.0000 H   0  0  0  0  0  0  0  0  0  0  0  0
    3.7320    2.5698    0.0000 H   0  0  0  0  0  0  0  0  0  0  0  0
    4.7716    1.8546    0.0000 H   0  0  0  0  0  0  0  0  0  0  0  0
    5.4641    1.5698    0.0000 H   0  0  0  0  0  0  0  0  0  0  0  0
    2.3632   -1.1811    0.0000 H   0  0  0  0  0  0  0  0  0  0  0  0
    2.5902   -2.0280    0.0000 H   0  0  0  0  0  0  0  0  0  0  0  0
    3.4371   -1.8011    0.0000 H   0  0  0  0  0  0  0  0  0  0  0  0
    2.3291    1.1398    0.0000 H   0  0  0  0  0  0  0  0  0  0  0  0
    4.3650    3.7932    0.0000 H   0  0  0  0  0  0  0  0  0  0  0  0
    5.6242    1.8740    0.0000 H   0  0  0  0  0  0  0  0  0  0  0  0
    6.2165    2.5205    0.0000 H   0  0  0  0  0  0  0  0  0  0  0  0
    5.5701    3.1128    0.0000 H   0  0  0  0  0  0  0  0  0  0  0  0
    7.6012    1.4192    0.0000 H   0  0  0  0  0  0  0  0  0  0  0  0
    7.4988    3.3278    0.0000 H   0  0  0  0  0  0  0  0  0  0  0  0
    6.2198    2.3303    0.0000 H   0  0  0  0  0  0  0  0  0  0  0  0
    6.2024    1.5404    0.0000 H   0  0  0  0  0  0  0  0  0  0  0  0
    5.6420    4.5304    0.0000 H   0  0  0  0  0  0  0  0  0  0  0  0
    5.7101   -0.5502    0.0000 H   0  0  0  0  0  0  0  0  0  0  0  0
    6.3301   -1.1702    0.0000 H   0  0  0  0  0  0  0  0  0  0  0  0
    6.9501   -0.5502    0.0000 H   0  0  0  0  0  0  0  0  0  0  0  0
    7.8596    3.7738    0.0000 H   0  0  0  0  0  0  0  0  0  0  0  0
    7.9741    4.6431    0.0000 H   0  0  0  0  0  0  0  0  0  0  0  0
    7.1048    4.7576    0.0000 H   0  0  0  0  0  0  0  0  0  0  0  0
    7.3519    4.6289    0.0000 H   0  0  0  0  0  0  0  0  0  0  0  0
    6.7595    5.2754    0.0000 H   0  0  0  0  0  0  0  0  0  0  0  0
    6.1131    4.6830    0.0000 H   0  0  0  0  0  0  0  0  0  0  0  0
    2.3100    4.4867    0.0000 H   0  0  0  0  0  0  0  0  0  0  0  0
    1.4631    4.2598    0.0000 H   0  0  0  0  0  0  0  0  0  0  0  0
    1.6900    3.4129    0.0000 H   0  0  0  0  0  0  0  0  0  0  0  0
    6.5850   -2.1656    0.0000 H   0  0  0  0  0  0  0  0  0  0  0  0
    4.4966   -4.0395    0.0000 H   0  0  0  0  0  0  0  0  0  0  0  0
    9.0730   -1.2718    0.0000 H   0  0  0  0  0  0  0  0  0  0  0  0
    9.8616   -0.8886    0.0000 H   0  0  0  0  0  0  0  0  0  0  0  0
    9.4784   -0.1000    0.0000 H   0  0  0  0  0  0  0  0  0  0  0  0
    7.6669   -3.3714    0.0000 H   0  0  0  0  0  0  0  0  0  0  0  0
    5.5785   -5.2453    0.0000 H   0  0  0  0  0  0  0  0  0  0  0  0
    9.6888    3.0369    0.0000 H   0  0  0  0  0  0  0  0  0  0  0  0
   10.3088    3.6569    0.0000 H   0  0  0  0  0  0  0  0  0  0  0  0
    9.6888    4.2769    0.0000 H   0  0  0  0  0  0  0  0  0  0  0  0
    7.1636   -4.9112    0.0000 H   0  0  0  0  0  0  0  0  0  0  0  0
  1 10  1  0  0  0  0
  1 54  1  0  0  0  0
  2 14  1  0  0  0  0
  2 27  1  0  0  0  0
  3 15  1  0  0  0  0
  3 29  1  0  0  0  0
  4 22  1  0  0  0  0
  4 34  1  0  0  0  0
  5 24  1  0  0  0  0
  5 37  1  0  0  0  0
  6 27  2  0  0  0  0
  7 29  2  0  0  0  0
  8 34  2  0  0  0  0
  9 37  2  0  0  0  0
 10 11  1  0  0  0  0
 10 13  1  0  0  0  0
 10 15  1  0  0  0  0
 11 14  1  0  0  0  0
 11 17  1  0  0  0  0
 11 43  1  0  0  0  0
 12 13  1  0  0  0  0
 12 14  1  0  0  0  0
 12 18  1  0  0  0  0
 12 44  1  0  0  0  0
 13 45  1  0  0  0  0
 13 46  1  0  0  0  0
 14 47  1  0  0  0  0
 15 16  1  0  0  0  0
 15 48  1  0  0  0  0
 16 20  1  0  0  0  0
 16 21  1  0  0  0  0
 16 49  1  0  0  0  0
 17 19  2  0  0  0  0
 17 50  1  0  0  0  0
 18 51  1  0  0  0  0
 18 52  1  0  0  0  0
 18 53  1  0  0  0  0
 19 22  1  0  0  0  0
 19 28  1  0  0  0  0
 20 26  2  0  0  0  0
 20 55  1  0  0  0  0
 21 56  1  0  0  0  0
 21 57  1  0  0  0  0
 21 58  1  0  0  0  0
 22 25  1  0  0  0  0
 22 59  1  0  0  0  0
 23 24  1  0  0  0  0
 23 26  1  0  0  0  0
 23 30  1  0  0  0  0
 23 31  1  0  0  0  0
 24 25  1  0  0  0  0
 24 60  1  0  0  0  0
 25 61  1  0  0  0  0
 25 62  1  0  0  0  0
 26 63  1  0  0  0  0
 27 32  1  0  0  0  0
 28 64  1  0  0  0  0
 28 65  1  0  0  0  0
 28 66  1  0  0  0  0
 29 33  1  0  0  0  0
 30 70  1  0  0  0  0
 30 71  1  0  0  0  0
 30 72  1  0  0  0  0
 31 67  1  0  0  0  0
 31 68  1  0  0  0  0
 31 69  1  0  0  0  0
 32 35  2  0  0  0  0
 32 36  1  0  0  0  0
 33 73  1  0  0  0  0
 33 74  1  0  0  0  0
 33 75  1  0  0  0  0
 34 38  1  0  0  0  0
 35 39  1  0  0  0  0
 35 76  1  0  0  0  0
 36 40  2  0  0  0  0
 36 77  1  0  0  0  0
 37 41  1  0  0  0  0
 38 78  1  0  0  0  0
 38 79  1  0  0  0  0
 38 80  1  0  0  0  0
 39 42  2  0  0  0  0
 39 81  1  0  0  0  0
 40 42  1  0  0  0  0
 40 82  1  0  0  0  0
 41 83  1  0  0  0  0
 41 84  1  0  0  0  0
 41 85  1  0  0  0  0
 42 86  1  0  0  0  0
M  END
> <PUBCHEM_COMPOUND_CID>
56928145

> <PUBCHEM_COMPOUND_CANONICALIZED>
1

> <PUBCHEM_CACTVS_COMPLEXITY>
1070

> <PUBCHEM_CACTVS_HBOND_ACCEPTOR>
9

> <PUBCHEM_CACTVS_HBOND_DONOR>
1

> <PUBCHEM_CACTVS_ROTATABLE_BOND>
9

> <PUBCHEM_CACTVS_SUBSKEYS>
AAADcfB8PAAAAAAAAAAAAAAAAAAAAYAAAAAwAAAAAAAAAAABAAAAGgAACAAAD1SgmAIyCIAABgCIAiDSCAACAAAkAAAIiAEACMgJJjKANRiCcQAlwAELqYfI6PyPgAAAAAAAAAAAAAAAAAAAAYQADAAAAA==

> <PUBCHEM_IUPAC_OPENEYE_NAME>
[(6Z,12E)-4,9,11-triacetoxy-3a-hydroxy-2,5,8,8,12-pentamethyl-2,3,4,5,9,10,11,13a-octahydro-1H-cyclopenta[12]annulen-1-yl] benzoate

> <PUBCHEM_IUPAC_CAS_NAME>
benzoic acid [(6Z,12E)-4,9,11-triacetyloxy-3a-hydroxy-2,5,8,8,12-pentamethyl-2,3,4,5,9,10,11,13a-octahydro-1H-cyclopenta[12]annulen-1-yl] ester

> <PUBCHEM_IUPAC_NAME>
[(6Z,12E)-4,9,11-triacetyloxy-3a-hydroxy-2,5,8,8,12-pentamethyl-2,3,4,5,9,10,11,13a-octahydro-1H-cyclopenta[12]annulen-1-yl] benzoate

> <PUBCHEM_IUPAC_SYSTEMATIC_NAME>
[(6Z,12E)-4,9,11-triacetyloxy-2,5,8,8,12-pentamethyl-3a-oxidanyl-2,3,4,5,9,10,11,13a-octahydro-1H-cyclopenta[12]annulen-1-yl] benzoate

> <PUBCHEM_IUPAC_TRADITIONAL_NAME>
benzoic acid [(6Z,12E)-4,9,11-triacetoxy-3a-hydroxy-2,5,8,8,12-pentamethyl-2,3,4,5,9,10,11,13a-octahydro-1H-cyclopentacyclododecen-1-yl] ester

> <PUBCHEM_IUPAC_INCHI>
InChI=1S/C33H44O9/c1-19-14-15-32(7,8)28(40-23(5)35)17-27(39-22(4)34)20(2)16-26-29(42-31(37)25-12-10-9-11-13-25)21(3)18-33(26,38)30(19)41-24(6)36/h9-16,19,21,26-30,38H,17-18H2,1-8H3/b15-14-,20-16+

> <PUBCHEM_IUPAC_INCHIKEY>
BRVXVMOWTHQKHC-HIAHFQITSA-N

> <PUBCHEM_XLOGP3_AA>
5.1

> <PUBCHEM_EXACT_MASS>
584.298533

> <PUBCHEM_MOLECULAR_FORMULA>
C33H44O9

> <PUBCHEM_MOLECULAR_WEIGHT>
584.69706

> <PUBCHEM_OPENEYE_CAN_SMILES>
CC1CC2(C(C1OC(=O)C3=CC=CC=C3)C=C(C(CC(C(C=CC(C2OC(=O)C)C)(C)C)OC(=O)C)OC(=O)C)C)O

> <PUBCHEM_OPENEYE_ISO_SMILES>
CC1CC2(C(C1OC(=O)C3=CC=CC=C3)/C=C(/C(CC(C(/C=C\C(C2OC(=O)C)C)(C)C)OC(=O)C)OC(=O)C)\C)O

> <PUBCHEM_CACTVS_TPSA>
125

> <PUBCHEM_MONOISOTOPIC_WEIGHT>
584.298533

> <PUBCHEM_TOTAL_CHARGE>
0

> <PUBCHEM_HEAVY_ATOM_COUNT>
42

> <PUBCHEM_ATOM_DEF_STEREO_COUNT>
0

> <PUBCHEM_ATOM_UDEF_STEREO_COUNT>
8

> <PUBCHEM_BOND_DEF_STEREO_COUNT>
2

> <PUBCHEM_BOND_UDEF_STEREO_COUNT>
0

> <PUBCHEM_ISOTOPIC_ATOM_COUNT>
0

> <PUBCHEM_COMPONENT_COUNT>
1

> <PUBCHEM_CACTVS_TAUTO_COUNT>
1

> <PUBCHEM_COORDINATE_TYPE>
1
5
255

> <PUBCHEM_BONDANNOTATIONS>
10  1  3
11  17  3
12  18  3
16  21  3
14  2  3
15  3  3
32  35  8
32  36  8
35  39  8
36  40  8
39  42  8
22  4  3
40  42  8
24  5  3

$$$$

