23724665
  -OEChem-07051213083D

 63 67  0     1  0  0  0  0  0999 V2000
   -2.9878    2.3982    1.2769 O   0  0  0  0  0  0  0  0  0  0  0  0
    2.6773    0.2007    0.4056 O   0  0  0  0  0  0  0  0  0  0  0  0
   -1.3006    1.4025   -2.1547 O   0  0  0  0  0  0  0  0  0  0  0  0
    3.0366    2.3263   -0.4870 O   0  0  0  0  0  0  0  0  0  0  0  0
    6.6624   -0.2413    1.2948 O   0  0  0  0  0  0  0  0  0  0  0  0
    4.9386   -2.5607    1.2272 O   0  0  0  0  0  0  0  0  0  0  0  0
    5.7978    1.7452   -0.7020 O   0  0  0  0  0  0  0  0  0  0  0  0
    0.8214   -1.8185    0.5914 O   0  0  0  0  0  0  0  0  0  0  0  0
   -4.6896   -1.9701    2.3814 O   0  0  0  0  0  0  0  0  0  0  0  0
    1.3163   -3.7247   -0.6072 O   0  0  0  0  0  0  0  0  0  0  0  0
   -2.4021   -3.1401   -2.5599 O   0  0  0  0  0  0  0  0  0  0  0  0
   -0.5684   -4.4796   -2.4427 O   0  0  0  0  0  0  0  0  0  0  0  0
   -3.3818    2.2046   -1.1099 C   0  0  2  0  0  0  0  0  0  0  0  0
   -2.5864    2.9349   -0.0127 C   0  0  2  0  0  0  0  0  0  0  0  0
    5.4971   -0.3402    0.4745 C   0  0  1  0  0  0  0  0  0  0  0  0
    4.4768   -1.2126    1.2057 C   0  0  1  0  0  0  0  0  0  0  0  0
    4.9407    1.0588    0.2100 C   0  0  2  0  0  0  0  0  0  0  0  0
    3.1150   -1.1553    0.5093 C   0  0  1  0  0  0  0  0  0  0  0  0
   -3.7487    0.9678   -0.3674 C   0  0  0  0  0  0  0  0  0  0  0  0
    3.5421    0.9942   -0.4038 C   0  0  1  0  0  0  0  0  0  0  0  0
   -2.5725    2.0163   -2.3828 C   0  0  0  0  0  0  0  0  0  0  0  0
   -1.0906    2.7979   -0.1704 C   0  0  0  0  0  0  0  0  0  0  0  0
   -3.5279    1.1705    0.9871 C   0  0  0  0  0  0  0  0  0  0  0  0
   -0.5396    2.0432   -1.2127 C   0  0  0  0  0  0  0  0  0  0  0  0
    2.0507   -1.9241    1.2860 C   0  0  0  0  0  0  0  0  0  0  0  0
   -0.2292    3.4152    0.7484 C   0  0  0  0  0  0  0  0  0  0  0  0
    1.6886    2.4847   -0.3867 C   0  0  0  0  0  0  0  0  0  0  0  0
    0.8434    1.8718   -1.3099 C   0  0  0  0  0  0  0  0  0  0  0  0
   -4.2927   -0.2204   -0.8225 C   0  0  0  0  0  0  0  0  0  0  0  0
    1.1531    3.2607    0.6388 C   0  0  0  0  0  0  0  0  0  0  0  0
   -3.8361    0.2121    1.9332 C   0  0  0  0  0  0  0  0  0  0  0  0
   -4.6011   -1.2097    0.1152 C   0  0  0  0  0  0  0  0  0  0  0  0
   -4.3756   -0.9941    1.4845 C   0  0  0  0  0  0  0  0  0  0  0  0
    0.5686   -2.7940   -0.3425 C   0  0  0  0  0  0  0  0  0  0  0  0
   -0.7678   -2.5282   -0.9913 C   0  0  0  0  0  0  0  0  0  0  0  0
   -4.4374   -1.6916    3.7572 C   0  0  0  0  0  0  0  0  0  0  0  0
   -1.1905   -3.5005   -2.0611 C   0  0  0  0  0  0  0  0  0  0  0  0
   -4.3100    2.7485   -1.3263 H   0  0  0  0  0  0  0  0  0  0  0  0
   -2.8360    4.0036   -0.0317 H   0  0  0  0  0  0  0  0  0  0  0  0
    5.8175   -0.8115   -0.4629 H   0  0  0  0  0  0  0  0  0  0  0  0
    4.3915   -0.8785    2.2471 H   0  0  0  0  0  0  0  0  0  0  0  0
    4.9298    1.6447    1.1368 H   0  0  0  0  0  0  0  0  0  0  0  0
    3.1802   -1.5774   -0.5025 H   0  0  0  0  0  0  0  0  0  0  0  0
    3.5773    0.5894   -1.4239 H   0  0  0  0  0  0  0  0  0  0  0  0
   -2.4101    2.9802   -2.8826 H   0  0  0  0  0  0  0  0  0  0  0  0
   -3.1134    1.3802   -3.0920 H   0  0  0  0  0  0  0  0  0  0  0  0
    1.8939   -1.4634    2.2679 H   0  0  0  0  0  0  0  0  0  0  0  0
    2.3309   -2.9693    1.4595 H   0  0  0  0  0  0  0  0  0  0  0  0
   -0.6330    4.0130    1.5618 H   0  0  0  0  0  0  0  0  0  0  0  0
    1.2553    1.2720   -2.1179 H   0  0  0  0  0  0  0  0  0  0  0  0
   -4.4853   -0.3859   -1.8768 H   0  0  0  0  0  0  0  0  0  0  0  0
    1.8066    3.7416    1.3616 H   0  0  0  0  0  0  0  0  0  0  0  0
   -3.6366    0.4477    2.9712 H   0  0  0  0  0  0  0  0  0  0  0  0
    6.9830   -1.1454    1.4553 H   0  0  0  0  0  0  0  0  0  0  0  0
    5.0090   -2.8687    0.3075 H   0  0  0  0  0  0  0  0  0  0  0  0
    5.8213    1.2396   -1.5323 H   0  0  0  0  0  0  0  0  0  0  0  0
   -5.0259   -2.1515   -0.2230 H   0  0  0  0  0  0  0  0  0  0  0  0
   -0.7222   -1.5330   -1.4470 H   0  0  0  0  0  0  0  0  0  0  0  0
   -1.5276   -2.5503   -0.2026 H   0  0  0  0  0  0  0  0  0  0  0  0
   -3.3693   -1.5425    3.9485 H   0  0  0  0  0  0  0  0  0  0  0  0
   -4.7437   -2.5747    4.3274 H   0  0  0  0  0  0  0  0  0  0  0  0
   -5.0441   -0.8532    4.1161 H   0  0  0  0  0  0  0  0  0  0  0  0
   -2.7084   -3.7575   -3.2579 H   0  0  0  0  0  0  0  0  0  0  0  0
  1 14  1  0  0  0  0
  1 23  1  0  0  0  0
  2 18  1  0  0  0  0
  2 20  1  0  0  0  0
  3 21  1  0  0  0  0
  3 24  1  0  0  0  0
  4 20  1  0  0  0  0
  4 27  1  0  0  0  0
  5 15  1  0  0  0  0
  5 54  1  0  0  0  0
  6 16  1  0  0  0  0
  6 55  1  0  0  0  0
  7 17  1  0  0  0  0
  7 56  1  0  0  0  0
  8 25  1  0  0  0  0
  8 34  1  0  0  0  0
  9 33  1  0  0  0  0
  9 36  1  0  0  0  0
 10 34  2  0  0  0  0
 11 37  1  0  0  0  0
 11 63  1  0  0  0  0
 12 37  2  0  0  0  0
 13 14  1  0  0  0  0
 13 19  1  0  0  0  0
 13 21  1  0  0  0  0
 13 38  1  0  0  0  0
 14 22  1  0  0  0  0
 14 39  1  0  0  0  0
 15 16  1  0  0  0  0
 15 17  1  0  0  0  0
 15 40  1  0  0  0  0
 16 18  1  0  0  0  0
 16 41  1  0  0  0  0
 17 20  1  0  0  0  0
 17 42  1  0  0  0  0
 18 25  1  0  0  0  0
 18 43  1  0  0  0  0
 19 23  2  0  0  0  0
 19 29  1  0  0  0  0
 20 44  1  0  0  0  0
 21 45  1  0  0  0  0
 21 46  1  0  0  0  0
 22 24  2  0  0  0  0
 22 26  1  0  0  0  0
 23 31  1  0  0  0  0
 24 28  1  0  0  0  0
 25 47  1  0  0  0  0
 25 48  1  0  0  0  0
 26 30  2  0  0  0  0
 26 49  1  0  0  0  0
 27 28  2  0  0  0  0
 27 30  1  0  0  0  0
 28 50  1  0  0  0  0
 29 32  2  0  0  0  0
 29 51  1  0  0  0  0
 30 52  1  0  0  0  0
 31 33  2  0  0  0  0
 31 53  1  0  0  0  0
 32 33  1  0  0  0  0
 32 57  1  0  0  0  0
 34 35  1  0  0  0  0
 35 37  1  0  0  0  0
 35 58  1  0  0  0  0
 35 59  1  0  0  0  0
 36 60  1  0  0  0  0
 36 61  1  0  0  0  0
 36 62  1  0  0  0  0
M  END
> <PUBCHEM_COMPOUND_CID>
23724665

> <PUBCHEM_CONFORMER_RMSD>
1

> <PUBCHEM_CONFORMER_DIVERSEORDER>
2
145
17
77
32
59
27
121
107
34
58
156
111
102
38
85
160
66
60
65
48
79
52
92
7
143
33
163
30
117
18
108
137
122
82
164
159
73
62
29
150
86
101
5
47
90
128
129
23
161
46
87
70
91
25
146
99
37
162
49
155
14
120
98
112
72
4
124
153
95
36
110
56
154
26
54
45
13
8
142
74
75
130
94
97
89
40
152
41
69
135
105
139
132
88
118
157
149
100
24
35
16
126
76
123
96
147
114
19
44
80
28
136
21
115
63
71
11
116
39
109
81
51
134
1
140
15
10
67
61
158
6
20
113
55
138
3
104
31
50
133
127
131
42
125
106
9
141
144
12
151
93
64
68
22
84
43
119
53
148
83
57
78
103

> <PUBCHEM_MMFF94_PARTIAL_CHARGES>
47
1 -0.36
10 -0.57
11 -0.65
12 -0.57
13 0.14
14 0.42
15 0.28
16 0.28
17 0.28
18 0.28
19 -0.14
2 -0.56
20 0.56
21 0.28
22 -0.14
23 0.08
24 0.08
25 0.28
26 -0.15
27 0.08
28 -0.15
29 -0.15
3 -0.36
30 -0.15
31 -0.15
32 -0.15
33 0.08
34 0.66
35 0.12
36 0.28
37 0.66
4 -0.36
49 0.15
5 -0.68
50 0.15
51 0.15
52 0.15
53 0.15
54 0.4
55 0.4
56 0.4
57 0.15
6 -0.68
63 0.5
7 -0.68
8 -0.43
9 -0.36

> <PUBCHEM_EFFECTIVE_ROTOR_COUNT>
9.8

> <PUBCHEM_PHARMACOPHORE_FEATURES>
21
1 1 acceptor
1 10 acceptor
1 11 acceptor
1 12 acceptor
1 2 acceptor
1 3 acceptor
1 35 anion
1 4 acceptor
1 5 acceptor
1 5 donor
1 6 acceptor
1 6 donor
1 7 acceptor
1 7 donor
1 9 acceptor
3 11 12 37 anion
5 1 13 14 19 23 rings
6 19 23 29 31 32 33 rings
6 2 15 16 17 18 20 rings
6 22 24 26 27 28 30 rings
6 3 13 14 21 22 24 rings

> <PUBCHEM_HEAVY_ATOM_COUNT>
37

> <PUBCHEM_ATOM_DEF_STEREO_COUNT>
7

> <PUBCHEM_ATOM_UDEF_STEREO_COUNT>
0

> <PUBCHEM_BOND_DEF_STEREO_COUNT>
0

> <PUBCHEM_BOND_UDEF_STEREO_COUNT>
0

> <PUBCHEM_ISOTOPIC_ATOM_COUNT>
0

> <PUBCHEM_COMPONENT_COUNT>
1

> <PUBCHEM_CACTVS_TAUTO_COUNT>
1

> <PUBCHEM_CONFORMER_ID>
016A027900000002

> <PUBCHEM_MMFF94_ENERGY>
120.6183

> <PUBCHEM_FEATURE_SELFOVERLAP>
107.347

> <PUBCHEM_SHAPE_FINGERPRINT>
10675989 125 16172571591540455967
11136131 41 18060146475044822498
11513181 2 17970070143467483878
12422481 6 18268691922930634441
12633257 1 17823964655115348597
14068700 675 17388274351194819023
14840074 17 18409443661945453195
14950920 106 17604426280614568385
15274700 232 17038665233035246734
15968369 153 18268988692555268464
19319366 153 17121107198636381533
20764821 26 18121514461717087976
21792965 11 16844737559060833883
21796203 349 18124003811544704016
392239 28 18340207517765624168
42626532 9 17693626596564730523
4403749 210 18337972168009557000
445580 102 18342450456887529049
463206 1 18194122919807194057
469060 322 18189638132195115639
508706 21 17775011223275856353
581034 39 18040433299887517830
6287921 2 17755584093894994910
6431902 208 18201998811327316520
9896288 288 17825668026524122416

> <PUBCHEM_SHAPE_MULTIPOLES>
691.01
11.55
5.26
2.46
11.23
2.21
-0.41
1.76
-6.3
-0.87
2.18
-3.55
2.11
0.2

> <PUBCHEM_SHAPE_SELFOVERLAP>
1510.225

> <PUBCHEM_SHAPE_VOLUME>
369.1

> <PUBCHEM_COORDINATE_TYPE>
2
5
10

$$$$

