100659
  -OEChem-07051212593D

 53 53  0     0  0  0  0  0  0999 V2000
   -4.5178    2.4879    0.4656 O   0  0  0  0  0  0  0  0  0  0  0  0
   -4.5676   -2.2614    0.4722 O   0  0  0  0  0  0  0  0  0  0  0  0
   -6.9852   -2.3903   -0.8629 O   0  0  0  0  0  0  0  0  0  0  0  0
   -6.9317    2.3161   -0.8652 O   0  0  0  0  0  0  0  0  0  0  0  0
    3.1112   -0.1152   -0.1822 C   0  0  0  0  0  0  0  0  0  0  0  0
    4.4727   -0.0809    0.5180 C   0  0  0  0  0  0  0  0  0  0  0  0
    1.9276   -0.1095    0.7890 C   0  0  0  0  0  0  0  0  0  0  0  0
    5.6554   -0.0618   -0.4530 C   0  0  0  0  0  0  0  0  0  0  0  0
    0.5958   -0.1321    0.0345 C   0  0  0  0  0  0  0  0  0  0  0  0
    6.9878   -0.0154    0.2987 C   0  0  0  0  0  0  0  0  0  0  0  0
   -0.6278   -0.1067    0.9559 C   0  0  0  0  0  0  0  0  0  0  0  0
    8.1740   -0.0346   -0.6683 C   0  0  0  0  0  0  0  0  0  0  0  0
   -1.9895   -0.0424    0.2561 C   0  0  0  0  0  0  0  0  0  0  0  0
    9.5037    0.0455    0.0851 C   0  0  0  0  0  0  0  0  0  0  0  0
   -3.1676    0.0433    1.2270 C   0  0  0  0  0  0  0  0  0  0  0  0
   10.7241    0.0607   -0.8378 C   0  0  0  0  0  0  0  0  0  0  0  0
   -4.4728    0.1136    0.5068 C   0  0  0  0  0  0  0  0  0  0  0  0
   12.0469    0.1671   -0.0951 C   0  0  0  0  0  0  0  0  0  0  0  0
   -5.0777    1.2614    0.1649 C   0  0  0  0  0  0  0  0  0  0  0  0
   -5.1006   -1.1972    0.1701 C   0  0  0  0  0  0  0  0  0  0  0  0
   -6.3977   -1.1825   -0.5472 C   0  0  0  0  0  0  0  0  0  0  0  0
   -6.3769    1.2677   -0.5519 C   0  0  0  0  0  0  0  0  0  0  0  0
   -6.9866   -0.0334   -0.8804 C   0  0  0  0  0  0  0  0  0  0  0  0
    3.0569   -1.0100   -0.8146 H   0  0  0  0  0  0  0  0  0  0  0  0
    3.0330    0.7506   -0.8515 H   0  0  0  0  0  0  0  0  0  0  0  0
    4.5204    0.8063    1.1616 H   0  0  0  0  0  0  0  0  0  0  0  0
    4.5579   -0.9543    1.1764 H   0  0  0  0  0  0  0  0  0  0  0  0
    1.9901   -0.9805    1.4519 H   0  0  0  0  0  0  0  0  0  0  0  0
    1.9767    0.7845    1.4220 H   0  0  0  0  0  0  0  0  0  0  0  0
    5.5742    0.8094   -1.1140 H   0  0  0  0  0  0  0  0  0  0  0  0
    5.6199   -0.9550   -1.0881 H   0  0  0  0  0  0  0  0  0  0  0  0
    0.5473   -1.0278   -0.5967 H   0  0  0  0  0  0  0  0  0  0  0  0
    0.5490    0.7324   -0.6392 H   0  0  0  0  0  0  0  0  0  0  0  0
    7.0573   -0.8726    0.9794 H   0  0  0  0  0  0  0  0  0  0  0  0
    7.0287    0.8912    0.9148 H   0  0  0  0  0  0  0  0  0  0  0  0
   -0.6027   -0.9955    1.5990 H   0  0  0  0  0  0  0  0  0  0  0  0
   -0.5407    0.7599    1.6238 H   0  0  0  0  0  0  0  0  0  0  0  0
    8.1473   -0.9514   -1.2694 H   0  0  0  0  0  0  0  0  0  0  0  0
    8.0966    0.8107   -1.3627 H   0  0  0  0  0  0  0  0  0  0  0  0
   -2.0969   -0.9266   -0.3847 H   0  0  0  0  0  0  0  0  0  0  0  0
   -1.9990    0.8295   -0.4105 H   0  0  0  0  0  0  0  0  0  0  0  0
    9.5835   -0.8067    0.7714 H   0  0  0  0  0  0  0  0  0  0  0  0
    9.5141    0.9516    0.7036 H   0  0  0  0  0  0  0  0  0  0  0  0
   -3.0333    0.8935    1.9060 H   0  0  0  0  0  0  0  0  0  0  0  0
   -3.1505   -0.8272    1.8956 H   0  0  0  0  0  0  0  0  0  0  0  0
   10.6420    0.9041   -1.5338 H   0  0  0  0  0  0  0  0  0  0  0  0
   10.7308   -0.8524   -1.4449 H   0  0  0  0  0  0  0  0  0  0  0  0
   12.8815    0.1727   -0.8031 H   0  0  0  0  0  0  0  0  0  0  0  0
   12.1816   -0.6800    0.5847 H   0  0  0  0  0  0  0  0  0  0  0  0
   12.0914    1.0896    0.4924 H   0  0  0  0  0  0  0  0  0  0  0  0
   -7.9361   -0.0114   -1.4051 H   0  0  0  0  0  0  0  0  0  0  0  0
   -3.6075    2.3778    0.7791 H   0  0  0  0  0  0  0  0  0  0  0  0
   -7.8222   -2.2153   -1.3267 H   0  0  0  0  0  0  0  0  0  0  0  0
  1 19  1  0  0  0  0
  1 52  1  0  0  0  0
  2 20  2  0  0  0  0
  3 21  1  0  0  0  0
  3 53  1  0  0  0  0
  4 22  2  0  0  0  0
  5  6  1  0  0  0  0
  5  7  1  0  0  0  0
  5 24  1  0  0  0  0
  5 25  1  0  0  0  0
  6  8  1  0  0  0  0
  6 26  1  0  0  0  0
  6 27  1  0  0  0  0
  7  9  1  0  0  0  0
  7 28  1  0  0  0  0
  7 29  1  0  0  0  0
  8 10  1  0  0  0  0
  8 30  1  0  0  0  0
  8 31  1  0  0  0  0
  9 11  1  0  0  0  0
  9 32  1  0  0  0  0
  9 33  1  0  0  0  0
 10 12  1  0  0  0  0
 10 34  1  0  0  0  0
 10 35  1  0  0  0  0
 11 13  1  0  0  0  0
 11 36  1  0  0  0  0
 11 37  1  0  0  0  0
 12 14  1  0  0  0  0
 12 38  1  0  0  0  0
 12 39  1  0  0  0  0
 13 15  1  0  0  0  0
 13 40  1  0  0  0  0
 13 41  1  0  0  0  0
 14 16  1  0  0  0  0
 14 42  1  0  0  0  0
 14 43  1  0  0  0  0
 15 17  1  0  0  0  0
 15 44  1  0  0  0  0
 15 45  1  0  0  0  0
 16 18  1  0  0  0  0
 16 46  1  0  0  0  0
 16 47  1  0  0  0  0
 17 19  2  0  0  0  0
 17 20  1  0  0  0  0
 18 48  1  0  0  0  0
 18 49  1  0  0  0  0
 18 50  1  0  0  0  0
 19 22  1  0  0  0  0
 20 21  1  0  0  0  0
 21 23  2  0  0  0  0
 22 23  1  0  0  0  0
 23 51  1  0  0  0  0
M  END
> <PUBCHEM_COMPOUND_CID>
100659

> <PUBCHEM_CONFORMER_RMSD>
1.2

> <PUBCHEM_CONFORMER_DIVERSEORDER>
1
24
88
143
65
121
25
169
111
173
138
7
103
93
79
40
34
29
145
151
116
120
137
3
26
47
166
18
115
9
114
59
118
175
95
52
108
36
106
41
56
129
28
51
139
66
69
159
45
162
8
74
72
77
136
63
134
32
2
80
17
4
84
71
152
140
113
153
11
68
156
30
154
19
54
13
61
20
157
98
23
117
96
127
16
163
21
125
43
171
109
141
31
131
39
49
174
82
83
58
5
132
110
50
158
37
160
90
38
107
142
112
81
14
6
48
60
35
91
102
97
119
124
53
10
76
161
123
172
15
133
176
94
149
46
164
144
33
62
89
12
135
67
75
105
73
170
64
70
104
22
150
126
122
44
167
147
85
55
86
165
99
27
42
155
168
146
148
101
57
92
100
128
87
130
78

> <PUBCHEM_MMFF94_PARTIAL_CHARGES>
14
1 -0.53
15 0.14
17 -0.12
19 0.09
2 -0.57
20 0.54
21 0.09
22 0.54
23 -0.14
3 -0.53
4 -0.57
51 0.15
52 0.45
53 0.45

> <PUBCHEM_EFFECTIVE_ROTOR_COUNT>
12

> <PUBCHEM_PHARMACOPHORE_FEATURES>
6
1 1 donor
1 18 hydrophobe
1 2 acceptor
1 3 donor
1 4 acceptor
6 17 19 20 21 22 23 rings

> <PUBCHEM_HEAVY_ATOM_COUNT>
23

> <PUBCHEM_ATOM_DEF_STEREO_COUNT>
0

> <PUBCHEM_ATOM_UDEF_STEREO_COUNT>
0

> <PUBCHEM_BOND_DEF_STEREO_COUNT>
0

> <PUBCHEM_BOND_UDEF_STEREO_COUNT>
0

> <PUBCHEM_ISOTOPIC_ATOM_COUNT>
0

> <PUBCHEM_COMPONENT_COUNT>
1

> <PUBCHEM_CACTVS_TAUTO_COUNT>
28

> <PUBCHEM_CONFORMER_ID>
0001893300000001

> <PUBCHEM_MMFF94_ENERGY>
17.8877

> <PUBCHEM_FEATURE_SELFOVERLAP>
30.446

> <PUBCHEM_SHAPE_FINGERPRINT>
11315181 36 17918274243159671195
12082328 90 18040997379722981148
12089408 11 18131351917495493426
12091667 2 18272929423574795675
12522641 33 17775565348190245634
13885169 127 18410291428381019656
14251764 18 17917996083881869498
14251764 46 16917349230498399010
15061470 23 18411702085564358788
15152005 1 17174071816588461831
15183329 4 17846784013557772552
15461852 350 18409165493866622886
15510794 2 18187642532119046222
1754911 235 18202563978380323150
17780758 139 8286201652675886067
1818759 1 5617259217845881156
195137 175 17489867137856318140
21360442 43 18059571331046953035
21362267 20 5978099134093736436
21792961 116 17385439938977227410
232437 2 18187363230337654270
23528940 14 7853559219840425381
23559900 14 18260279542772246465
246663 6 15068619388460209066
33684 2 18410855465678611114
636775 8 18271524188108098011
67123 10 18260829290085532232
9953998 17 9223232949319885259

> <PUBCHEM_SHAPE_MULTIPOLES>
449.85
39.27
1.61
0.96
110.31
0.12
0.03
1.52
-10.86
-5.97
-0.21
-0.5
-0.01
-0.08

> <PUBCHEM_SHAPE_SELFOVERLAP>
881.165

> <PUBCHEM_SHAPE_VOLUME>
268.9

> <PUBCHEM_COORDINATE_TYPE>
2
5
10

$$$$

