99530
  -OEChem-07051212563D

 62 66  0     1  0  0  0  0  0999 V2000
   -1.2370   -2.1076    1.6550 O   0  0  0  0  0  0  0  0  0  0  0  0
    0.0849    2.3340    0.8740 O   0  0  0  0  0  0  0  0  0  0  0  0
    0.7761   -3.0734   -0.1076 O   0  0  0  0  0  0  0  0  0  0  0  0
   -1.7686   -1.3462   -1.9052 O   0  0  0  0  0  0  0  0  0  0  0  0
   -3.1241    1.3046   -0.3647 O   0  0  0  0  0  0  0  0  0  0  0  0
    3.0464   -1.9484   -1.8868 O   0  0  0  0  0  0  0  0  0  0  0  0
   -3.9367   -1.5049   -0.5046 O   0  0  0  0  0  0  0  0  0  0  0  0
   -3.8306   -2.0407    1.7400 O   0  0  0  0  0  0  0  0  0  0  0  0
   -1.5998    3.5185   -0.0442 O   0  0  0  0  0  0  0  0  0  0  0  0
    5.4346   -0.7982   -2.0780 O   0  0  0  0  0  0  0  0  0  0  0  0
   -2.8987    2.5747   -2.2812 O   0  0  0  0  0  0  0  0  0  0  0  0
    0.0153   -0.1425    1.1257 C   0  0  2  0  0  0  0  0  0  0  0  0
    0.8403   -0.5935   -0.1499 C   0  0  1  0  0  0  0  0  0  0  0  0
   -1.4689    0.0322    0.8001 C   0  0  2  0  0  0  0  0  0  0  0  0
    2.4268   -0.4700    0.0205 C   0  0  2  0  0  0  0  0  0  0  0  0
   -1.8435   -1.4153    0.5342 C   0  0  1  0  0  0  0  0  0  0  0  0
    0.4945    1.1917    1.6949 C   0  0  1  0  0  0  0  0  0  0  0  0
    0.2868   -1.9168   -0.7745 C   0  0  2  0  0  0  0  0  0  0  0  0
    2.7284    1.0023    0.5003 C   0  0  1  0  0  0  0  0  0  0  0  0
   -0.1504   -1.2802    2.1479 C   0  0  0  0  0  0  0  0  0  0  0  0
   -1.2558   -2.0070   -0.7531 C   0  0  2  0  0  0  0  0  0  0  0  0
    2.0124    1.3006    1.8361 C   0  0  0  0  0  0  0  0  0  0  0  0
   -1.7252    1.1222   -0.2168 C   0  0  2  0  0  0  0  0  0  0  0  0
    3.1341   -0.6329   -1.3614 C   0  0  1  0  0  0  0  0  0  0  0  0
    3.0359   -1.4839    1.0288 C   0  0  0  0  0  0  0  0  0  0  0  0
    4.2147    1.3488    0.4803 C   0  0  0  0  0  0  0  0  0  0  0  0
   -3.3069   -1.6951    0.6896 C   0  0  0  0  0  0  0  0  0  0  0  0
   -1.1090    2.4280    0.2357 C   0  0  0  0  0  0  0  0  0  0  0  0
    4.6132   -0.2759   -1.3253 C   0  0  0  0  0  0  0  0  0  0  0  0
    5.0706    0.7576   -0.3682 C   0  0  0  0  0  0  0  0  0  0  0  0
    4.7166    2.4425    1.3833 C   0  0  0  0  0  0  0  0  0  0  0  0
   -3.5114    2.2538   -1.2718 C   0  0  0  0  0  0  0  0  0  0  0  0
   -5.3485   -1.7398   -0.4995 C   0  0  0  0  0  0  0  0  0  0  0  0
   -4.8161    2.8609   -0.8534 C   0  0  0  0  0  0  0  0  0  0  0  0
    0.6209    0.1610   -0.9179 H   0  0  0  0  0  0  0  0  0  0  0  0
   -2.0032    0.3427    1.7163 H   0  0  0  0  0  0  0  0  0  0  0  0
    0.0490    1.3721    2.6815 H   0  0  0  0  0  0  0  0  0  0  0  0
    0.6193   -1.9845   -1.8151 H   0  0  0  0  0  0  0  0  0  0  0  0
    2.2907    1.6874   -0.2430 H   0  0  0  0  0  0  0  0  0  0  0  0
    0.7210   -1.9116    2.3050 H   0  0  0  0  0  0  0  0  0  0  0  0
   -0.4600   -0.9038    3.1300 H   0  0  0  0  0  0  0  0  0  0  0  0
   -1.5443   -3.0636   -0.8373 H   0  0  0  0  0  0  0  0  0  0  0  0
    2.3709    0.6496    2.6393 H   0  0  0  0  0  0  0  0  0  0  0  0
    2.2351    2.3278    2.1499 H   0  0  0  0  0  0  0  0  0  0  0  0
   -1.2981    0.8924   -1.1956 H   0  0  0  0  0  0  0  0  0  0  0  0
    2.6719    0.0364   -2.0976 H   0  0  0  0  0  0  0  0  0  0  0  0
    2.6633   -1.3520    2.0442 H   0  0  0  0  0  0  0  0  0  0  0  0
    2.8531   -2.5218    0.7469 H   0  0  0  0  0  0  0  0  0  0  0  0
    4.1241   -1.3877    1.1026 H   0  0  0  0  0  0  0  0  0  0  0  0
    0.2120   -3.2697    0.6573 H   0  0  0  0  0  0  0  0  0  0  0  0
   -2.7165   -1.5478   -1.9702 H   0  0  0  0  0  0  0  0  0  0  0  0
    6.1232    1.0188   -0.3974 H   0  0  0  0  0  0  0  0  0  0  0  0
    3.5278   -2.5507   -1.2960 H   0  0  0  0  0  0  0  0  0  0  0  0
    5.7737    2.6714    1.2090 H   0  0  0  0  0  0  0  0  0  0  0  0
    4.6179    2.1513    2.4338 H   0  0  0  0  0  0  0  0  0  0  0  0
    4.1539    3.3661    1.2129 H   0  0  0  0  0  0  0  0  0  0  0  0
   -5.5591   -2.7778   -0.2255 H   0  0  0  0  0  0  0  0  0  0  0  0
   -5.7259   -1.5593   -1.5095 H   0  0  0  0  0  0  0  0  0  0  0  0
   -5.8437   -1.0486    0.1891 H   0  0  0  0  0  0  0  0  0  0  0  0
   -4.7078    3.3339    0.1258 H   0  0  0  0  0  0  0  0  0  0  0  0
   -5.5899    2.0897   -0.8250 H   0  0  0  0  0  0  0  0  0  0  0  0
   -5.1102    3.6248   -1.5788 H   0  0  0  0  0  0  0  0  0  0  0  0
  1 16  1  0  0  0  0
  1 20  1  0  0  0  0
  2 17  1  0  0  0  0
  2 28  1  0  0  0  0
  3 18  1  0  0  0  0
  3 50  1  0  0  0  0
  4 21  1  0  0  0  0
  4 51  1  0  0  0  0
  5 23  1  0  0  0  0
  5 32  1  0  0  0  0
  6 24  1  0  0  0  0
  6 53  1  0  0  0  0
  7 27  1  0  0  0  0
  7 33  1  0  0  0  0
  8 27  2  0  0  0  0
  9 28  2  0  0  0  0
 10 29  2  0  0  0  0
 11 32  2  0  0  0  0
 12 13  1  0  0  0  0
 12 14  1  0  0  0  0
 12 17  1  0  0  0  0
 12 20  1  0  0  0  0
 13 15  1  0  0  0  0
 13 18  1  0  0  0  0
 13 35  1  0  0  0  0
 14 16  1  0  0  0  0
 14 23  1  0  0  0  0
 14 36  1  0  0  0  0
 15 19  1  0  0  0  0
 15 24  1  0  0  0  0
 15 25  1  0  0  0  0
 16 21  1  0  0  0  0
 16 27  1  0  0  0  0
 17 22  1  0  0  0  0
 17 37  1  0  0  0  0
 18 21  1  0  0  0  0
 18 38  1  0  0  0  0
 19 22  1  0  0  0  0
 19 26  1  0  0  0  0
 19 39  1  0  0  0  0
 20 40  1  0  0  0  0
 20 41  1  0  0  0  0
 21 42  1  0  0  0  0
 22 43  1  0  0  0  0
 22 44  1  0  0  0  0
 23 28  1  0  0  0  0
 23 45  1  0  0  0  0
 24 29  1  0  0  0  0
 24 46  1  0  0  0  0
 25 47  1  0  0  0  0
 25 48  1  0  0  0  0
 25 49  1  0  0  0  0
 26 30  2  0  0  0  0
 26 31  1  0  0  0  0
 29 30  1  0  0  0  0
 30 52  1  0  0  0  0
 31 54  1  0  0  0  0
 31 55  1  0  0  0  0
 31 56  1  0  0  0  0
 32 34  1  0  0  0  0
 33 57  1  0  0  0  0
 33 58  1  0  0  0  0
 33 59  1  0  0  0  0
 34 60  1  0  0  0  0
 34 61  1  0  0  0  0
 34 62  1  0  0  0  0
M  END
> <PUBCHEM_COMPOUND_CID>
99530

> <PUBCHEM_CONFORMER_RMSD>
0.8

> <PUBCHEM_CONFORMER_DIVERSEORDER>
1
2
3

> <PUBCHEM_MMFF94_PARTIAL_CHARGES>
32
1 -0.56
10 -0.57
11 -0.57
16 0.34
17 0.28
18 0.28
19 0.14
2 -0.43
20 0.28
21 0.28
23 0.34
24 0.34
26 -0.28
27 0.66
28 0.66
29 0.49
3 -0.68
30 -0.14
31 0.14
32 0.66
33 0.28
34 0.06
4 -0.68
5 -0.43
50 0.4
51 0.4
52 0.15
53 0.4
6 -0.68
7 -0.43
8 -0.57
9 -0.57

> <PUBCHEM_EFFECTIVE_ROTOR_COUNT>
5.6

> <PUBCHEM_PHARMACOPHORE_FEATURES>
15
1 1 acceptor
1 10 acceptor
1 11 acceptor
1 3 acceptor
1 3 donor
1 4 acceptor
1 4 donor
1 6 acceptor
1 6 donor
1 8 acceptor
1 9 acceptor
6 12 13 15 17 19 22 rings
6 15 19 24 26 29 30 rings
6 2 12 14 17 23 28 rings
8 1 12 13 14 16 18 20 21 rings

> <PUBCHEM_HEAVY_ATOM_COUNT>
34

> <PUBCHEM_ATOM_DEF_STEREO_COUNT>
11

> <PUBCHEM_ATOM_UDEF_STEREO_COUNT>
0

> <PUBCHEM_BOND_DEF_STEREO_COUNT>
0

> <PUBCHEM_BOND_UDEF_STEREO_COUNT>
0

> <PUBCHEM_ISOTOPIC_ATOM_COUNT>
0

> <PUBCHEM_COMPONENT_COUNT>
1

> <PUBCHEM_CACTVS_TAUTO_COUNT>
13

> <PUBCHEM_CONFORMER_ID>
000184CA00000001

> <PUBCHEM_MMFF94_ENERGY>
139.2587

> <PUBCHEM_FEATURE_SELFOVERLAP>
76.301

> <PUBCHEM_SHAPE_FINGERPRINT>
10498660 4 18411421738850419404
10863032 1 18200879577156865466
10948715 1 18129389370021339411
11578080 2 18410857646952863556
11640471 11 16917352566854791648
11961588 58 18200607981027130397
12236239 1 14764079900067150331
12403814 3 18189052010317911795
12422481 6 18195498486231830945
12788726 201 18059858324623043713
13140716 1 18336265742393330424
13224815 77 18259983773537537394
13383661 66 15505487063397847820
13402501 40 18262237720402269425
13911987 19 17462840974774819680
14251757 17 18260267485928562700
15163728 17 17271439420118121965
15840311 113 17605808414539526923
16945 1 18120649390446310026
17357779 13 18337398123859418349
17492 54 18266457805081075149
20775438 99 17171282552401466628
21033648 29 18335708208905612224
21033650 10 18130777971782430384
21285901 2 18335980865781395924
21756936 100 16127787744095702612
22121540 332 17622131961618628801
22122407 14 14261363469831517351
22182313 1 18261963959234568312
22393880 68 18409729599350967214
22907989 373 18337934784044338052
23227448 37 18130783482004100869
23557571 272 18412544271735062608
23559900 14 18193004931235873074
238 59 17895762923317182212
2748010 2 18334586706638982025
3380486 145 17971466299874892699
46194498 28 18191027807017269212
469060 322 17631148867377528665
508706 21 18342739598365188109

> <PUBCHEM_SHAPE_MULTIPOLES>
635.14
9.61
3.53
1.93
2.7
1.52
-0.11
1.65
-3.4
-2.92
-0.33
0.56
-0.21
2.68

> <PUBCHEM_SHAPE_SELFOVERLAP>
1396.6

> <PUBCHEM_SHAPE_VOLUME>
333.8

> <PUBCHEM_COORDINATE_TYPE>
2
5
10

$$$$

