5178
  -OEChem-06261200333D

 60 64  0     1  0  0  0  0  0999 V2000
    8.0433   -1.0374   -1.7449 Br  0  0  0  0  0  0  0  0  0  0  0  0
   -8.1063   -0.7973    1.9053 Br  0  0  0  0  0  0  0  0  0  0  0  0
    3.5247    2.8737    0.6286 O   0  0  0  0  0  0  0  0  0  0  0  0
   -3.5795    2.8016   -0.9064 O   0  0  0  0  0  0  0  0  0  0  0  0
    2.8164    1.4232   -1.0071 N   0  0  0  0  0  0  0  0  0  0  0  0
   -2.8717    1.5413    0.8802 N   0  0  0  0  0  0  0  0  0  0  0  0
    2.6712   -0.9456    1.4333 N   0  0  0  0  0  0  0  0  0  0  0  0
   -1.8963   -1.5613   -1.7899 N   0  0  0  0  0  0  0  0  0  0  0  0
    2.7081   -3.1607    1.5877 N   0  0  0  0  0  0  0  0  0  0  0  0
   -3.3177   -3.0038   -0.8783 N   0  0  0  0  0  0  0  0  0  0  0  0
    4.3089   -1.8478    2.8307 N   0  0  0  0  0  0  0  0  0  0  0  0
   -3.1983   -2.7980   -3.2814 N   0  0  0  0  0  0  0  0  0  0  0  0
    6.2196    1.8439    0.4381 N   0  0  0  0  0  0  0  0  0  0  0  0
   -6.2780    1.8118   -0.5934 N   0  0  0  0  0  0  0  0  0  0  0  0
    0.7369    0.9789    0.0415 C   0  0  1  0  0  0  0  0  0  0  0  0
   -0.7978    0.9721   -0.1179 C   0  0  1  0  0  0  0  0  0  0  0  0
    0.6933   -0.5420   -0.2149 C   0  0  2  0  0  0  0  0  0  0  0  0
   -0.7586   -0.5107    0.3063 C   0  0  2  0  0  0  0  0  0  0  0  0
    1.4477    1.8485   -0.9796 C   0  0  0  0  0  0  0  0  0  0  0  0
   -1.5014    1.9545    0.8009 C   0  0  0  0  0  0  0  0  0  0  0  0
    1.6619   -1.3937    0.6284 C   0  0  0  0  0  0  0  0  0  0  0  0
   -1.7308   -1.4464   -0.4384 C   0  0  0  0  0  0  0  0  0  0  0  0
    1.7047   -2.7636    0.7398 C   0  0  0  0  0  0  0  0  0  0  0  0
   -2.6189   -2.3460    0.1028 C   0  0  0  0  0  0  0  0  0  0  0  0
    3.2708   -2.0421    1.9876 C   0  0  0  0  0  0  0  0  0  0  0  0
   -2.8590   -2.5077   -2.0060 C   0  0  0  0  0  0  0  0  0  0  0  0
    3.7946    1.9805   -0.1763 C   0  0  0  0  0  0  0  0  0  0  0  0
   -3.8504    2.0058   -0.0053 C   0  0  0  0  0  0  0  0  0  0  0  0
    5.1461    1.4161   -0.2986 C   0  0  0  0  0  0  0  0  0  0  0  0
   -5.2038    1.4649    0.1837 C   0  0  0  0  0  0  0  0  0  0  0  0
    5.5794    0.4052   -1.1280 C   0  0  0  0  0  0  0  0  0  0  0  0
   -5.6384    0.5557    1.1228 C   0  0  0  0  0  0  0  0  0  0  0  0
    6.9618    0.2187   -0.8811 C   0  0  0  0  0  0  0  0  0  0  0  0
   -7.0226    0.3488    0.9025 C   0  0  0  0  0  0  0  0  0  0  0  0
    7.3314    1.1213    0.0916 C   0  0  0  0  0  0  0  0  0  0  0  0
   -7.3916    1.1378   -0.1646 C   0  0  0  0  0  0  0  0  0  0  0  0
    1.0457    1.2426    1.0647 H   0  0  0  0  0  0  0  0  0  0  0  0
   -1.1175    1.1146   -1.1616 H   0  0  0  0  0  0  0  0  0  0  0  0
    0.7827   -0.7920   -1.2817 H   0  0  0  0  0  0  0  0  0  0  0  0
   -0.8291   -0.6414    1.3964 H   0  0  0  0  0  0  0  0  0  0  0  0
    1.0447    1.7109   -1.9882 H   0  0  0  0  0  0  0  0  0  0  0  0
    1.3779    2.9081   -0.7144 H   0  0  0  0  0  0  0  0  0  0  0  0
   -1.0962    1.9301    1.8177 H   0  0  0  0  0  0  0  0  0  0  0  0
   -1.4281    2.9772    0.4177 H   0  0  0  0  0  0  0  0  0  0  0  0
    3.0555    0.6740   -1.6476 H   0  0  0  0  0  0  0  0  0  0  0  0
   -3.1117    0.8701    1.6018 H   0  0  0  0  0  0  0  0  0  0  0  0
    2.9312    0.0173    1.5972 H   0  0  0  0  0  0  0  0  0  0  0  0
   -1.3999   -1.0427   -2.5020 H   0  0  0  0  0  0  0  0  0  0  0  0
    1.0649   -3.4861    0.2539 H   0  0  0  0  0  0  0  0  0  0  0  0
   -2.7931   -2.5547    1.1485 H   0  0  0  0  0  0  0  0  0  0  0  0
    4.6601   -0.9240    3.0639 H   0  0  0  0  0  0  0  0  0  0  0  0
    4.7893   -2.6268    3.2693 H   0  0  0  0  0  0  0  0  0  0  0  0
   -2.7683   -2.3423   -4.0804 H   0  0  0  0  0  0  0  0  0  0  0  0
   -3.9067   -3.4921   -3.4971 H   0  0  0  0  0  0  0  0  0  0  0  0
    6.1970    2.5791    1.1314 H   0  0  0  0  0  0  0  0  0  0  0  0
   -6.2547    2.4643   -1.3651 H   0  0  0  0  0  0  0  0  0  0  0  0
    4.9808   -0.1492   -1.8379 H   0  0  0  0  0  0  0  0  0  0  0  0
   -5.0399    0.0820    1.8889 H   0  0  0  0  0  0  0  0  0  0  0  0
    8.2818    1.3161    0.5691 H   0  0  0  0  0  0  0  0  0  0  0  0
   -8.3428    1.2819   -0.6582 H   0  0  0  0  0  0  0  0  0  0  0  0
  1 33  1  0  0  0  0
  2 34  1  0  0  0  0
  3 27  2  0  0  0  0
  4 28  2  0  0  0  0
  5 19  1  0  0  0  0
  5 27  1  0  0  0  0
  5 45  1  0  0  0  0
  6 20  1  0  0  0  0
  6 28  1  0  0  0  0
  6 46  1  0  0  0  0
  7 21  1  0  0  0  0
  7 25  1  0  0  0  0
  7 47  1  0  0  0  0
  8 22  1  0  0  0  0
  8 26  1  0  0  0  0
  8 48  1  0  0  0  0
  9 23  1  0  0  0  0
  9 25  2  0  0  0  0
 10 24  1  0  0  0  0
 10 26  2  0  0  0  0
 11 25  1  0  0  0  0
 11 51  1  0  0  0  0
 11 52  1  0  0  0  0
 12 26  1  0  0  0  0
 12 53  1  0  0  0  0
 12 54  1  0  0  0  0
 13 29  1  0  0  0  0
 13 35  1  0  0  0  0
 13 55  1  0  0  0  0
 14 30  1  0  0  0  0
 14 36  1  0  0  0  0
 14 56  1  0  0  0  0
 15 16  1  0  0  0  0
 15 17  1  0  0  0  0
 15 19  1  0  0  0  0
 15 37  1  0  0  0  0
 16 18  1  0  0  0  0
 16 20  1  0  0  0  0
 16 38  1  0  0  0  0
 17 18  1  0  0  0  0
 17 21  1  0  0  0  0
 17 39  1  0  0  0  0
 18 22  1  0  0  0  0
 18 40  1  0  0  0  0
 19 41  1  0  0  0  0
 19 42  1  0  0  0  0
 20 43  1  0  0  0  0
 20 44  1  0  0  0  0
 21 23  2  0  0  0  0
 22 24  2  0  0  0  0
 23 49  1  0  0  0  0
 24 50  1  0  0  0  0
 27 29  1  0  0  0  0
 28 30  1  0  0  0  0
 29 31  2  0  0  0  0
 30 32  2  0  0  0  0
 31 33  1  0  0  0  0
 31 57  1  0  0  0  0
 32 34  1  0  0  0  0
 32 58  1  0  0  0  0
 33 35  2  0  0  0  0
 34 36  2  0  0  0  0
 35 59  1  0  0  0  0
 36 60  1  0  0  0  0
M  END
> <PUBCHEM_COMPOUND_CID>
5178

> <PUBCHEM_CONFORMER_RMSD>
1.2

> <PUBCHEM_CONFORMER_DIVERSEORDER>
1
103
65
68
202
184
78
112
42
62
137
224
204
15
162
43
81
215
33
91
211
117
166
76
77
45
192
149
2
177
220
161
205
51
193
218
99
25
235
22
122
176
147
3
55
209
244
38
152
44
37
14
53
170
111
212
225
119
121
125
66
154
28
191
140
116
181
188
221
13
108
136
123
34
226
199
164
74
144
11
127
58
128
40
102
165
239
189
241
206
24
169
4
214
17
54
110
105
216
187
100
85
50
208
223
93
142
190
153
240
23
82
163
113
69
132
96
131
219
86
243
10
57
167
146
155
157
79
210
182
173
30
94
186
178
194
150
198
26
12
203
7
227
104
213
35
148
31
5
46
242
180
109
197
238
135
63
36
101
234
174
145
168
49
18
179
231
126
228
138
115
159
9
207
141
90
114
175
27
41
222
20
71
130
236
183
52
61
158
84
151
29
32
129
59
56
72
201
118
229
124
83
97
232
156
70
230
195
200
95
89
19
245
80
98
6
48
64
134
92
217
106
120
21
171
237
107
39
16
47
143
8
88
139
233
87
67
172
75
196
73
60
160
133
185

> <PUBCHEM_MMFF94_PARTIAL_CHARGES>
50
1 -0.06
10 -0.57
11 -0.88
12 -0.88
13 0.03
14 0.03
17 0.16
18 0.16
19 0.3
2 -0.06
20 0.3
21 -0.31
22 -0.31
23 0.08
24 0.08
25 0.27
26 0.27
27 0.71
28 0.71
29 -0.24
3 -0.57
30 -0.24
31 -0.15
32 -0.15
33 0.06
34 0.06
35 -0.3
36 -0.3
4 -0.57
45 0.37
46 0.37
47 0.27
48 0.27
49 0.15
5 -0.73
50 0.15
51 0.4
52 0.4
53 0.4
54 0.4
55 0.27
56 0.27
57 0.15
58 0.15
59 0.15
6 -0.73
60 0.15
7 0.03
8 0.03
9 -0.57

> <PUBCHEM_EFFECTIVE_ROTOR_COUNT>
10.8

> <PUBCHEM_PHARMACOPHORE_FEATURES>
21
1 1 hydrophobe
1 11 donor
1 12 donor
1 13 cation
1 13 donor
1 14 cation
1 14 donor
1 2 hydrophobe
1 3 acceptor
1 4 acceptor
1 5 donor
1 6 donor
1 7 donor
1 8 donor
4 15 16 17 18 rings
4 7 9 11 25 cation
4 8 10 12 26 cation
5 13 29 31 33 35 rings
5 14 30 32 34 36 rings
5 7 9 21 23 25 rings
5 8 10 22 24 26 rings

> <PUBCHEM_HEAVY_ATOM_COUNT>
36

> <PUBCHEM_ATOM_DEF_STEREO_COUNT>
0

> <PUBCHEM_ATOM_UDEF_STEREO_COUNT>
4

> <PUBCHEM_BOND_DEF_STEREO_COUNT>
0

> <PUBCHEM_BOND_UDEF_STEREO_COUNT>
0

> <PUBCHEM_ISOTOPIC_ATOM_COUNT>
0

> <PUBCHEM_COMPONENT_COUNT>
1

> <PUBCHEM_CACTVS_TAUTO_COUNT>
45

> <PUBCHEM_CONFORMER_ID>
0000143A00000001

> <PUBCHEM_MMFF94_ENERGY>
32.2577

> <PUBCHEM_FEATURE_SELFOVERLAP>
106.649

> <PUBCHEM_SHAPE_FINGERPRINT>
10190108 129 18200583701471413643
11135926 11 18272379658612005190
11578080 2 16343153552745037054
11963148 33 17989207006416263443
13947920 75 17748828505892005493
15328829 1 18412260636036127236
15849732 13 18273490169836051997
21033648 144 17914902169857942661
21033650 10 15864344792408462107
21781055 127 17096359713088133571
23559900 14 17749113257807852960
249057 3 18260542316775723284
25147074 1 18339377308723697370
5104073 3 18271235141040559649
6086070 43 17531534182867448641
6669772 16 18187074101085839687

> <PUBCHEM_SHAPE_MULTIPOLES>
691.2
21.28
3.58
1.98
0.32
1.32
-0.3
-5.6
0.71
0.43
-0.31
0.01
2.04
-1.71

> <PUBCHEM_SHAPE_SELFOVERLAP>
1477.904

> <PUBCHEM_SHAPE_VOLUME>
390.2

> <PUBCHEM_COORDINATE_TYPE>
2
5
10

$$$$

