53230
  -OEChem-07051213143D

 30 33  0     0  0  0  0  0  0999 V2000
   -3.8003   -2.3125    0.0007 O   0  5  0  0  0  0  0  0  0  0  0  0
   -3.8002    2.3124   -0.0011 O   0  5  0  0  0  0  0  0  0  0  0  0
   -1.9517   -3.5043   -0.0005 O   0  0  0  0  0  0  0  0  0  0  0  0
   -1.9516    3.5043    0.0003 O   0  0  0  0  0  0  0  0  0  0  0  0
   -2.5526   -2.4067    0.0004 N   0  3  0  0  0  0  0  0  0  0  0  0
   -2.5525    2.4068   -0.0005 N   0  3  0  0  0  0  0  0  0  0  0  0
    0.3295    0.0000    0.0001 C   0  0  0  0  0  0  0  0  0  0  0  0
    1.7466    0.0000    0.0000 C   0  0  0  0  0  0  0  0  0  0  0  0
   -0.3773    1.2251    0.0002 C   0  0  0  0  0  0  0  0  0  0  0  0
   -0.3773   -1.2251    0.0000 C   0  0  0  0  0  0  0  0  0  0  0  0
    2.4534    1.2250    0.0001 C   0  0  0  0  0  0  0  0  0  0  0  0
    2.4534   -1.2251   -0.0002 C   0  0  0  0  0  0  0  0  0  0  0  0
   -1.7797   -1.2083    0.0001 C   0  0  0  0  0  0  0  0  0  0  0  0
   -1.7797    1.2084    0.0003 C   0  0  0  0  0  0  0  0  0  0  0  0
    0.3399    2.4289    0.0003 C   0  0  0  0  0  0  0  0  0  0  0  0
    0.3399   -2.4289   -0.0002 C   0  0  0  0  0  0  0  0  0  0  0  0
    1.7362    2.4290    0.0002 C   0  0  0  0  0  0  0  0  0  0  0  0
    1.7362   -2.4289   -0.0002 C   0  0  0  0  0  0  0  0  0  0  0  0
   -2.4746    0.0000    0.0002 C   0  0  0  0  0  0  0  0  0  0  0  0
    3.8559    1.2083    0.0000 C   0  0  0  0  0  0  0  0  0  0  0  0
    3.8558   -1.2084   -0.0001 C   0  0  0  0  0  0  0  0  0  0  0  0
    4.5506    0.0000   -0.0001 C   0  0  0  0  0  0  0  0  0  0  0  0
   -0.0146    3.4441    0.0006 H   0  0  0  0  0  0  0  0  0  0  0  0
   -0.0147   -3.4441   -0.0001 H   0  0  0  0  0  0  0  0  0  0  0  0
    2.2632    3.3816    0.0003 H   0  0  0  0  0  0  0  0  0  0  0  0
    2.2631   -3.3816   -0.0002 H   0  0  0  0  0  0  0  0  0  0  0  0
   -3.5620    0.0001    0.0002 H   0  0  0  0  0  0  0  0  0  0  0  0
    4.4209    2.1381    0.0001 H   0  0  0  0  0  0  0  0  0  0  0  0
    4.4209   -2.1381   -0.0002 H   0  0  0  0  0  0  0  0  0  0  0  0
    5.6369    0.0000   -0.0001 H   0  0  0  0  0  0  0  0  0  0  0  0
  1  5  1  0  0  0  0
  2  6  1  0  0  0  0
  3  5  2  0  0  0  0
  4  6  2  0  0  0  0
  5 13  1  0  0  0  0
  6 14  1  0  0  0  0
  7  8  1  0  0  0  0
  7  9  2  0  0  0  0
  7 10  1  0  0  0  0
  8 11  2  0  0  0  0
  8 12  1  0  0  0  0
  9 14  1  0  0  0  0
  9 15  1  0  0  0  0
 10 13  2  0  0  0  0
 10 16  1  0  0  0  0
 11 17  1  0  0  0  0
 11 20  1  0  0  0  0
 12 18  1  0  0  0  0
 12 21  2  0  0  0  0
 13 19  1  0  0  0  0
 14 19  2  0  0  0  0
 15 17  2  0  0  0  0
 15 23  1  0  0  0  0
 16 18  2  0  0  0  0
 16 24  1  0  0  0  0
 17 25  1  0  0  0  0
 18 26  1  0  0  0  0
 19 27  1  0  0  0  0
 20 22  2  0  0  0  0
 20 28  1  0  0  0  0
 21 22  1  0  0  0  0
 21 29  1  0  0  0  0
 22 30  1  0  0  0  0
M  CHG  4   1  -1   2  -1   5   1   6   1
M  END
> <PUBCHEM_COMPOUND_CID>
53230

> <PUBCHEM_CONFORMER_RMSD>
0.6

> <PUBCHEM_CONFORMER_DIVERSEORDER>
1

> <PUBCHEM_MMFF94_PARTIAL_CHARGES>
24
1 -0.52
13 0.13
14 0.13
15 -0.15
16 -0.15
17 -0.15
18 -0.15
19 -0.15
2 -0.52
20 -0.15
21 -0.15
22 -0.15
23 0.15
24 0.15
25 0.15
26 0.15
27 0.15
28 0.15
29 0.15
3 -0.52
30 0.15
4 -0.52
5 0.91
6 0.91

> <PUBCHEM_EFFECTIVE_ROTOR_COUNT>
2

> <PUBCHEM_PHARMACOPHORE_FEATURES>
10
1 1 acceptor
1 1 anion
1 2 acceptor
1 2 anion
1 3 acceptor
1 4 acceptor
6 7 8 10 12 16 18 rings
6 7 8 9 11 15 17 rings
6 7 9 10 13 14 19 rings
6 8 11 12 20 21 22 rings

> <PUBCHEM_HEAVY_ATOM_COUNT>
22

> <PUBCHEM_ATOM_DEF_STEREO_COUNT>
0

> <PUBCHEM_ATOM_UDEF_STEREO_COUNT>
0

> <PUBCHEM_BOND_DEF_STEREO_COUNT>
0

> <PUBCHEM_BOND_UDEF_STEREO_COUNT>
0

> <PUBCHEM_ISOTOPIC_ATOM_COUNT>
0

> <PUBCHEM_COMPONENT_COUNT>
1

> <PUBCHEM_CACTVS_TAUTO_COUNT>
1

> <PUBCHEM_CONFORMER_ID>
0000CFEE00000001

> <PUBCHEM_MMFF94_ENERGY>
111.7078

> <PUBCHEM_FEATURE_SELFOVERLAP>
51.036

> <PUBCHEM_SHAPE_FINGERPRINT>
10319926 262 18191330272616955650
10411042 1 17978509733098902274
10493431 412 18264202693942576265
10616163 171 18410291410958648334
10693767 8 17250919303960911639
10863032 1 18409731794063307468
10967382 1 18122625217373747748
1100329 8 17980203311580788490
11578080 2 17096669611931302659
116883 192 18337669707115236582
12403259 226 18262802831109310688
12553582 1 18050284769453275470
13140716 1 18266170635124968473
13583140 156 14056982932529840663
138480 1 16537076871146818945
14178342 30 18339658792833525592
14223421 5 18336546027885626026
14790565 3 16899325747527437909
15042514 8 18339646754093039578
15196674 1 18410573990174334208
15442244 35 18411984684835771650
16728300 4 16262655210079183394
16945 1 18410855460196733574
193761 8 18410575089184860549
19591789 44 17978507868744719197
19930381 70 17546168497886320739
20028762 73 18115877459397177287
20510252 161 18262236604043342072
20739085 24 17909524196170724499
20905425 154 18335696079743693678
21267235 1 18339070485435685070
21501502 16 18413388735335269612
23184049 29 18338232674269405244
2334 1 18410575054978161444
23557571 272 18260820502076289614
23558518 356 18272087137195693368
23559900 14 18262238954181684966
238 59 17050807062034072317
2748010 2 18409730660154953206
3091708 16 9418140085208762569
335352 9 18194402431984032758
34934 24 18340210816263382592
350125 39 18339074883081237112
352729 6 18336826519077436085
5104073 3 18409452492603715680
6443956 14 17980201885899221775
7097593 13 17770237251468645794
7832392 63 18338237175637821826
9709674 26 18262517108294159758

> <PUBCHEM_SHAPE_MULTIPOLES>
419.31
6.46
4
0.59
1.88
0
0
0
0
-3.08
0
0.08
0
0

> <PUBCHEM_SHAPE_SELFOVERLAP>
975.883

> <PUBCHEM_SHAPE_VOLUME>
214.9

> <PUBCHEM_COORDINATE_TYPE>
2
5
10

$$$$

