11954131
  -OEChem-07051213073D

 22 24  0     0  0  0  0  0  0999 V2000
   -1.5684    2.8218   -0.0020 Cl  0  0  0  0  0  0  0  0  0  0  0  0
    3.0333   -2.8201   -0.0002 Cl  0  0  0  0  0  0  0  0  0  0  0  0
    3.9902    2.5427   -0.0007 Cl  0  0  0  0  0  0  0  0  0  0  0  0
   -4.5649    1.6899   -0.0002 Cl  0  0  0  0  0  0  0  0  0  0  0  0
   -4.9955   -1.4681   -0.0018 Cl  0  0  0  0  0  0  0  0  0  0  0  0
    0.1123   -1.8026    0.0001 O   0  0  0  0  0  0  0  0  0  0  0  0
    4.7125   -0.3386   -0.0015 O   0  0  0  0  0  0  0  0  0  0  0  0
    0.6116    0.4030    0.0012 C   0  0  0  0  0  0  0  0  0  0  0  0
   -0.8073    0.2634    0.0010 C   0  0  0  0  0  0  0  0  0  0  0  0
    1.1239   -0.8906    0.0003 C   0  0  0  0  0  0  0  0  0  0  0  0
   -1.0577   -1.1053    0.0006 C   0  0  0  0  0  0  0  0  0  0  0  0
    1.5161    1.4807    0.0017 C   0  0  0  0  0  0  0  0  0  0  0  0
   -1.9046    1.1442    0.0004 C   0  0  0  0  0  0  0  0  0  0  0  0
    2.4847   -1.1926   -0.0004 C   0  0  0  0  0  0  0  0  0  0  0  0
   -2.3335   -1.6666    0.0000 C   0  0  0  0  0  0  0  0  0  0  0  0
    2.8908    1.2082    0.0008 C   0  0  0  0  0  0  0  0  0  0  0  0
    3.3640   -0.1060   -0.0005 C   0  0  0  0  0  0  0  0  0  0  0  0
   -3.1997    0.6089    0.0006 C   0  0  0  0  0  0  0  0  0  0  0  0
   -3.4078   -0.7722    0.0005 C   0  0  0  0  0  0  0  0  0  0  0  0
    1.1721    2.5094    0.0022 H   0  0  0  0  0  0  0  0  0  0  0  0
   -2.4704   -2.7423   -0.0007 H   0  0  0  0  0  0  0  0  0  0  0  0
    5.1728    0.5184   -0.0012 H   0  0  0  0  0  0  0  0  0  0  0  0
  1 13  1  0  0  0  0
  2 14  1  0  0  0  0
  3 16  1  0  0  0  0
  4 18  1  0  0  0  0
  5 19  1  0  0  0  0
  6 10  1  0  0  0  0
  6 11  1  0  0  0  0
  7 17  1  0  0  0  0
  7 22  1  0  0  0  0
  8  9  1  0  0  0  0
  8 10  1  0  0  0  0
  8 12  2  0  0  0  0
  9 11  1  0  0  0  0
  9 13  2  0  0  0  0
 10 14  2  0  0  0  0
 11 15  2  0  0  0  0
 12 16  1  0  0  0  0
 12 20  1  0  0  0  0
 13 18  1  0  0  0  0
 14 17  1  0  0  0  0
 15 19  1  0  0  0  0
 15 21  1  0  0  0  0
 16 17  2  0  0  0  0
 18 19  2  0  0  0  0
M  END
> <PUBCHEM_COMPOUND_CID>
11954131

> <PUBCHEM_CONFORMER_RMSD>
0.4

> <PUBCHEM_CONFORMER_DIVERSEORDER>
1

> <PUBCHEM_MMFF94_PARTIAL_CHARGES>
20
1 -0.18
10 0.14
11 0.14
12 -0.15
13 0.18
14 0.18
15 -0.15
16 0.18
17 0.08
18 0.18
19 0.18
2 -0.18
20 0.15
21 0.15
22 0.45
3 -0.18
4 -0.18
5 -0.18
6 -0.28
7 -0.53

> <PUBCHEM_EFFECTIVE_ROTOR_COUNT>
0

> <PUBCHEM_PHARMACOPHORE_FEATURES>
5
1 6 acceptor
1 7 donor
5 6 8 9 10 11 rings
6 8 10 12 14 16 17 rings
6 9 11 13 15 18 19 rings

> <PUBCHEM_HEAVY_ATOM_COUNT>
19

> <PUBCHEM_ATOM_DEF_STEREO_COUNT>
0

> <PUBCHEM_ATOM_UDEF_STEREO_COUNT>
0

> <PUBCHEM_BOND_DEF_STEREO_COUNT>
0

> <PUBCHEM_BOND_UDEF_STEREO_COUNT>
0

> <PUBCHEM_ISOTOPIC_ATOM_COUNT>
0

> <PUBCHEM_COMPONENT_COUNT>
1

> <PUBCHEM_CACTVS_TAUTO_COUNT>
3

> <PUBCHEM_CONFORMER_ID>
00B667D300000001

> <PUBCHEM_MMFF94_ENERGY>
40.7685

> <PUBCHEM_FEATURE_SELFOVERLAP>
25.573

> <PUBCHEM_SHAPE_FINGERPRINT>
10411042 1 17113537576628504775
10498660 4 18411981355941049581
10608611 8 18410858763032157780
10616163 171 18408602556613779439
10967382 1 18338517426205935782
1100329 8 17688589785410627720
11471102 20 18338519634072398566
12107183 9 17904478859227627563
12403259 226 18339365274399407340
13140716 1 18339071700990129227
14223421 5 18411702109967560132
14790565 3 17979345370172674757
15196674 1 18410575067625933345
15375462 6 18410573955186900446
15442244 35 18194402414535105426
15536298 74 18335701620203948044
16945 1 18338797934841456546
17492 89 18410575123566633403
18186145 218 18261103123218339892
200 152 18113903749508495607
20510252 161 18407758123320429993
20645477 70 18260825995091664910
21267235 1 18410847746430617463
21501502 16 18409166636159046971
221490 88 18411974788846201210
2334 1 18410573946554774241
23366157 5 18131068255937479578
23402539 116 18334864913482969631
23463225 33 18410855490319669910
23557571 272 18261383438780656239
23558518 356 18269827786903354761
23559900 14 18263648518723235538
238 59 16188365611652748741
2748010 2 18411416181093809399
335352 9 18194402427414687423
350125 39 18411417336767436268
3545911 37 18410855498841071661
4214541 1 18410856585763118661
4409770 3 16834326485700089164
474 4 17559671746622465308
5104073 3 18411981364567453433
7364860 26 18408603673858988790
77779 3 18410572894567413547
9709674 26 18411132549975561346
9981440 41 18196938764822831296

> <PUBCHEM_SHAPE_MULTIPOLES>
388.62
9
2.98
0.62
2.02
0.43
0
0.27
0
-0.93
0
0.03
0.02
0

> <PUBCHEM_SHAPE_SELFOVERLAP>
828.576

> <PUBCHEM_SHAPE_VOLUME>
222.8

> <PUBCHEM_COORDINATE_TYPE>
2
5
10

$$$$

