5281002
  -OEChem-07051213023D

 23 24  0     1  0  0  0  0  0999 V2000
    0.4519    1.6602    0.8623 O   0  0  0  0  0  0  0  0  0  0  0  0
    2.8154   -0.6602   -1.6724 O   0  0  0  0  0  0  0  0  0  0  0  0
   -1.2728   -2.4254   -0.3537 O   0  0  0  0  0  0  0  0  0  0  0  0
   -0.8110   -1.5402    1.6955 O   0  0  0  0  0  0  0  0  0  0  0  0
   -3.8762    0.6346   -0.3363 O   0  0  0  0  0  0  0  0  0  0  0  0
    1.3549   -0.4178    0.1656 N   0  0  0  0  0  0  0  0  0  0  0  0
    1.5633    0.7462    1.0306 C   0  0  1  0  0  0  0  0  0  0  0  0
   -0.0052   -0.4537   -0.3019 C   0  0  2  0  0  0  0  0  0  0  0  0
    2.8731    1.0007    0.2633 C   0  0  0  0  0  0  0  0  0  0  0  0
    2.4426   -0.1799   -0.6262 C   0  0  0  0  0  0  0  0  0  0  0  0
   -0.4809    0.9203    0.1102 C   0  0  0  0  0  0  0  0  0  0  0  0
   -0.7249   -1.5050    0.4770 C   0  0  0  0  0  0  0  0  0  0  0  0
   -1.6572    1.4561   -0.2336 C   0  0  0  0  0  0  0  0  0  0  0  0
   -2.6730    0.7638   -1.0804 C   0  0  0  0  0  0  0  0  0  0  0  0
    1.6982    0.4675    2.0817 H   0  0  0  0  0  0  0  0  0  0  0  0
   -0.0313   -0.6073   -1.3847 H   0  0  0  0  0  0  0  0  0  0  0  0
    3.7909    0.8211    0.8285 H   0  0  0  0  0  0  0  0  0  0  0  0
    2.9319    1.9552   -0.2653 H   0  0  0  0  0  0  0  0  0  0  0  0
   -1.8936    2.4644    0.0978 H   0  0  0  0  0  0  0  0  0  0  0  0
   -2.3790   -0.2294   -1.4218 H   0  0  0  0  0  0  0  0  0  0  0  0
   -2.8835    1.3642   -1.9716 H   0  0  0  0  0  0  0  0  0  0  0  0
   -1.7509   -3.1255    0.1396 H   0  0  0  0  0  0  0  0  0  0  0  0
   -4.1884    1.5290   -0.1154 H   0  0  0  0  0  0  0  0  0  0  0  0
  1  7  1  0  0  0  0
  1 11  1  0  0  0  0
  2 10  2  0  0  0  0
  3 12  1  0  0  0  0
  3 22  1  0  0  0  0
  4 12  2  0  0  0  0
  5 14  1  0  0  0  0
  5 23  1  0  0  0  0
  6  7  1  0  0  0  0
  6  8  1  0  0  0  0
  6 10  1  0  0  0  0
  7  9  1  0  0  0  0
  7 15  1  0  0  0  0
  8 11  1  0  0  0  0
  8 12  1  0  0  0  0
  8 16  1  0  0  0  0
  9 10  1  0  0  0  0
  9 17  1  0  0  0  0
  9 18  1  0  0  0  0
 11 13  2  0  0  0  0
 13 14  1  0  0  0  0
 13 19  1  0  0  0  0
 14 20  1  0  0  0  0
 14 21  1  0  0  0  0
M  END
> <PUBCHEM_COMPOUND_CID>
5281002

> <PUBCHEM_CONFORMER_RMSD>
0.6

> <PUBCHEM_CONFORMER_DIVERSEORDER>
1
2
3
4

> <PUBCHEM_MMFF94_PARTIAL_CHARGES>
17
1 -0.33
10 0.58
11 -0.06
12 0.66
13 -0.29
14 0.42
19 0.15
2 -0.57
22 0.5
23 0.4
3 -0.65
4 -0.57
5 -0.68
6 -0.59
7 0.48
8 0.5
9 0.05

> <PUBCHEM_EFFECTIVE_ROTOR_COUNT>
2.6

> <PUBCHEM_PHARMACOPHORE_FEATURES>
8
1 1 acceptor
1 2 acceptor
1 3 acceptor
1 4 acceptor
1 5 acceptor
1 5 donor
3 3 4 12 anion
7 1 6 7 8 9 10 11 rings

> <PUBCHEM_HEAVY_ATOM_COUNT>
14

> <PUBCHEM_ATOM_DEF_STEREO_COUNT>
2

> <PUBCHEM_ATOM_UDEF_STEREO_COUNT>
0

> <PUBCHEM_BOND_DEF_STEREO_COUNT>
1

> <PUBCHEM_BOND_UDEF_STEREO_COUNT>
0

> <PUBCHEM_ISOTOPIC_ATOM_COUNT>
0

> <PUBCHEM_COMPONENT_COUNT>
1

> <PUBCHEM_CACTVS_TAUTO_COUNT>
1

> <PUBCHEM_CONFORMER_ID>
005094EA00000001

> <PUBCHEM_MMFF94_ENERGY>
33.2575

> <PUBCHEM_FEATURE_SELFOVERLAP>
40.651

> <PUBCHEM_SHAPE_FINGERPRINT>
116883 192 17902800665398080807
12138202 97 18339369573656058286
12423570 1 6727798813254837450
13538477 17 17132114602303326394
14993402 34 17632571673571927317
15219456 202 18187928309708475128
15775835 57 18272382996154917789
16945 1 18408889567729247640
18186145 218 18337112379390271261
18534176 82 18340200800415602516
20201158 50 18113620088414504476
20645476 183 17418367004318440434
21501502 16 18124043325233127560
21930827 45 18268445563094936369
22802520 49 18335129899774444622
23402539 116 18263947542915264316
23559900 14 18408042923440337570
2748010 2 18191021214421466984
276578 36 17988649648172325873
5084963 1 17844251949858554476
5337951 7 18187089442239352736
6333449 129 18337679602814604607
81228 2 18056478353107571483

> <PUBCHEM_SHAPE_MULTIPOLES>
253.79
4.38
1.89
1.21
1.13
0.8
-0.01
-1.24
-1.5
0.78
0.3
-0.36
0.24
0.69

> <PUBCHEM_SHAPE_SELFOVERLAP>
537.093

> <PUBCHEM_SHAPE_VOLUME>
141.6

> <PUBCHEM_COORDINATE_TYPE>
2
5
10

$$$$

