583403
  -OEChem-06241222452D

 37 39  0     1  0  0  0  0  0999 V2000
    6.1451   -0.0403    0.0000 O   0  0  0  0  0  0  0  0  0  0  0  0
    3.9467   -2.9889    0.0000 O   0  0  0  0  0  0  0  0  0  0  0  0
    7.1156    1.4542    0.0000 N   0  0  3  0  0  0  0  0  0  0  0  0
    2.3644   -2.2844    0.0000 N   0  0  0  0  0  0  0  0  0  0  0  0
    2.5901    0.3517    0.0000 N   0  0  0  0  0  0  0  0  0  0  0  0
    7.1156    2.4542    0.0000 C   0  0  0  0  0  0  0  0  0  0  0  0
    7.9817    2.9542    0.0000 C   0  0  0  0  0  0  0  0  0  0  0  0
    7.9817    0.9542    0.0000 C   0  0  0  0  0  0  0  0  0  0  0  0
    8.8477    2.4542    0.0000 C   0  0  0  0  0  0  0  0  0  0  0  0
    8.8477    1.4542    0.0000 C   0  0  0  0  0  0  0  0  0  0  0  0
    6.2496    0.9542    0.0000 C   0  0  0  0  0  0  0  0  0  0  0  0
    9.7416    2.9889    0.0000 C   0  0  0  0  0  0  0  0  0  0  0  0
    9.7416    0.9195    0.0000 C   0  0  0  0  0  0  0  0  0  0  0  0
    5.3361    1.3609    0.0000 C   0  0  0  0  0  0  0  0  0  0  0  0
   10.6477    2.4750    0.0000 C   0  0  0  0  0  0  0  0  0  0  0  0
   10.6477    1.4334    0.0000 C   0  0  0  0  0  0  0  0  0  0  0  0
    5.1669   -0.2482    0.0000 C   0  0  0  0  0  0  0  0  0  0  0  0
    4.6669    0.6178    0.0000 C   0  0  0  0  0  0  0  0  0  0  0  0
    4.7602   -1.1618    0.0000 C   0  0  0  0  0  0  0  0  0  0  0  0
    3.7657   -1.2663    0.0000 C   0  0  0  0  0  0  0  0  0  0  0  0
    3.3590   -2.1798    0.0000 C   0  0  0  0  0  0  0  0  0  0  0  0
    3.1779   -0.4573    0.0000 C   0  0  0  0  0  0  0  0  0  0  0  0
    6.9036    3.0368    0.0000 H   0  0  0  0  0  0  0  0  0  0  0  0
    6.5051    2.3465    0.0000 H   0  0  0  0  0  0  0  0  0  0  0  0
    8.3802    3.4292    0.0000 H   0  0  0  0  0  0  0  0  0  0  0  0
    7.5831    3.4292    0.0000 H   0  0  0  0  0  0  0  0  0  0  0  0
    7.5831    0.4793    0.0000 H   0  0  0  0  0  0  0  0  0  0  0  0
    8.3802    0.4793    0.0000 H   0  0  0  0  0  0  0  0  0  0  0  0
    9.7345    3.6088    0.0000 H   0  0  0  0  0  0  0  0  0  0  0  0
    9.7345    0.2996    0.0000 H   0  0  0  0  0  0  0  0  0  0  0  0
    5.2072    1.9674    0.0000 H   0  0  0  0  0  0  0  0  0  0  0  0
   11.1834    2.7871    0.0000 H   0  0  0  0  0  0  0  0  0  0  0  0
   11.1834    1.1213    0.0000 H   0  0  0  0  0  0  0  0  0  0  0  0
    4.0503    0.6826    0.0000 H   0  0  0  0  0  0  0  0  0  0  0  0
    5.1246   -1.6634    0.0000 H   0  0  0  0  0  0  0  0  0  0  0  0
    2.1122   -2.8508    0.0000 H   0  0  0  0  0  0  0  0  0  0  0  0
    2.0000   -1.7828    0.0000 H   0  0  0  0  0  0  0  0  0  0  0  0
  1 11  1  0  0  0  0
  1 17  1  0  0  0  0
  2 21  2  0  0  0  0
  3  6  1  0  0  0  0
  3  8  1  0  0  0  0
  3 11  1  0  0  0  0
  4 21  1  0  0  0  0
  4 36  1  0  0  0  0
  4 37  1  0  0  0  0
  5 22  3  0  0  0  0
  6  7  1  0  0  0  0
  6 23  1  0  0  0  0
  6 24  1  0  0  0  0
  7  9  1  0  0  0  0
  7 25  1  0  0  0  0
  7 26  1  0  0  0  0
  8 10  1  0  0  0  0
  8 27  1  0  0  0  0
  8 28  1  0  0  0  0
  9 10  1  0  0  0  0
  9 12  2  0  0  0  0
 10 13  2  0  0  0  0
 11 14  2  0  0  0  0
 12 15  1  0  0  0  0
 12 29  1  0  0  0  0
 13 16  1  0  0  0  0
 13 30  1  0  0  0  0
 14 18  1  0  0  0  0
 14 31  1  0  0  0  0
 15 16  2  0  0  0  0
 15 32  1  0  0  0  0
 16 33  1  0  0  0  0
 17 18  2  0  0  0  0
 17 19  1  0  0  0  0
 18 34  1  0  0  0  0
 19 20  2  3  0  0  0
 19 35  1  0  0  0  0
 20 21  1  0  0  0  0
 20 22  1  0  0  0  0
M  END
> <PUBCHEM_COMPOUND_CID>
583403

> <PUBCHEM_COMPOUND_CANONICALIZED>
1

> <PUBCHEM_CACTVS_COMPLEXITY>
507

> <PUBCHEM_CACTVS_HBOND_ACCEPTOR>
4

> <PUBCHEM_CACTVS_HBOND_DONOR>
1

> <PUBCHEM_CACTVS_ROTATABLE_BOND>
3

> <PUBCHEM_CACTVS_SUBSKEYS>
AAADccB7MAAAAAAAAAAAAAAAAAAAASAAAAA8QAAAAAAAAACxwAAAHgAQAAAADATBmAQwhINABECYBqFSUACiCAAtIgAIiAEObMgMpjLEtZuOOSjkxhHI6Ye8gIAOgAAAAAAQAAAAAAAAACAAAAAAAAAAAA==

> <PUBCHEM_IUPAC_OPENEYE_NAME>
2-cyano-3-[5-(3,4-dihydro-1H-isoquinolin-2-yl)-2-furyl]prop-2-enamide

> <PUBCHEM_IUPAC_CAS_NAME>
2-cyano-3-[5-(3,4-dihydro-1H-isoquinolin-2-yl)-2-furanyl]-2-propenamide

> <PUBCHEM_IUPAC_NAME>
2-cyano-3-[5-(3,4-dihydro-1H-isoquinolin-2-yl)furan-2-yl]prop-2-enamide

> <PUBCHEM_IUPAC_SYSTEMATIC_NAME>
2-cyano-3-[5-(3,4-dihydro-1H-isoquinolin-2-yl)furan-2-yl]prop-2-enamide

> <PUBCHEM_IUPAC_TRADITIONAL_NAME>
2-cyano-3-[5-(3,4-dihydro-1H-isoquinolin-2-yl)-2-furyl]acrylamide

> <PUBCHEM_IUPAC_INCHI>
InChI=1S/C17H15N3O2/c18-10-14(17(19)21)9-15-5-6-16(22-15)20-8-7-12-3-1-2-4-13(12)11-20/h1-6,9H,7-8,11H2,(H2,19,21)

> <PUBCHEM_IUPAC_INCHIKEY>
BLBQESJFZSXOAX-UHFFFAOYSA-N

> <PUBCHEM_XLOGP3_AA>
2.2

> <PUBCHEM_EXACT_MASS>
293.116427

> <PUBCHEM_MOLECULAR_FORMULA>
C17H15N3O2

> <PUBCHEM_MOLECULAR_WEIGHT>
293.3199

> <PUBCHEM_OPENEYE_CAN_SMILES>
C1CN(CC2=CC=CC=C21)C3=CC=C(O3)C=C(C#N)C(=O)N

> <PUBCHEM_OPENEYE_ISO_SMILES>
C1CN(CC2=CC=CC=C21)C3=CC=C(O3)C=C(C#N)C(=O)N

> <PUBCHEM_CACTVS_TPSA>
83.3

> <PUBCHEM_MONOISOTOPIC_WEIGHT>
293.116427

> <PUBCHEM_TOTAL_CHARGE>
0

> <PUBCHEM_HEAVY_ATOM_COUNT>
22

> <PUBCHEM_ATOM_DEF_STEREO_COUNT>
0

> <PUBCHEM_ATOM_UDEF_STEREO_COUNT>
0

> <PUBCHEM_BOND_DEF_STEREO_COUNT>
0

> <PUBCHEM_BOND_UDEF_STEREO_COUNT>
1

> <PUBCHEM_ISOTOPIC_ATOM_COUNT>
0

> <PUBCHEM_COMPONENT_COUNT>
1

> <PUBCHEM_CACTVS_TAUTO_COUNT>
2

> <PUBCHEM_COORDINATE_TYPE>
1
5
255

> <PUBCHEM_BONDANNOTATIONS>
1  11  8
1  17  8
10  13  8
11  14  8
12  15  8
13  16  8
14  18  8
15  16  8
17  18  8
19  20  1
9  10  8
9  12  8

$$$$

