51090845
  -OEChem-06241223003D

 44 45  0     0  0  0  0  0  0999 V2000
   -3.0109   -1.4355    0.6248 S   0  0  0  0  0  0  0  0  0  0  0  0
    4.6997    0.1869    0.0898 O   0  0  0  0  0  0  0  0  0  0  0  0
   -2.4469    2.3712   -0.0019 O   0  0  0  0  0  0  0  0  0  0  0  0
   -0.7543   -0.7712   -2.4585 O   0  0  0  0  0  0  0  0  0  0  0  0
   -4.4385   -1.4314    0.9755 O   0  0  0  0  0  0  0  0  0  0  0  0
   -2.5492   -2.4154   -0.3693 O   0  0  0  0  0  0  0  0  0  0  0  0
    0.7064   -0.7446   -0.6328 N   0  0  0  0  0  0  0  0  0  0  0  0
   -2.1195   -1.7011    2.0683 N   0  0  0  0  0  0  0  0  0  0  0  0
    3.4758   -0.5352    0.1565 C   0  0  0  0  0  0  0  0  0  0  0  0
    3.0738   -0.9554   -1.2583 C   0  0  0  0  0  0  0  0  0  0  0  0
    2.3928    0.3377    0.7952 C   0  0  0  0  0  0  0  0  0  0  0  0
    1.6969   -1.6123   -1.2719 C   0  0  0  0  0  0  0  0  0  0  0  0
    1.0325   -0.3500    0.7447 C   0  0  0  0  0  0  0  0  0  0  0  0
   -0.4594   -0.4036   -1.3221 C   0  0  0  0  0  0  0  0  0  0  0  0
   -1.4250    0.4789   -0.6556 C   0  0  0  0  0  0  0  0  0  0  0  0
   -2.5179    0.1314    0.1738 C   0  0  0  0  0  0  0  0  0  0  0  0
    5.3590    0.2110    1.3480 C   0  0  0  0  0  0  0  0  0  0  0  0
   -1.4246    1.8526   -0.7314 C   0  0  0  0  0  0  0  0  0  0  0  0
   -3.1074    1.3173    0.5458 C   0  0  0  0  0  0  0  0  0  0  0  0
   -0.5663    2.8279   -1.4212 C   0  0  0  0  0  0  0  0  0  0  0  0
    6.6496    0.9907    1.2135 C   0  0  0  0  0  0  0  0  0  0  0  0
   -4.2666    1.6501    1.3871 C   0  0  0  0  0  0  0  0  0  0  0  0
    3.6140   -1.4484    0.7517 H   0  0  0  0  0  0  0  0  0  0  0  0
    2.6319    0.5705    1.8376 H   0  0  0  0  0  0  0  0  0  0  0  0
    2.3450    1.3014    0.2713 H   0  0  0  0  0  0  0  0  0  0  0  0
    3.8250   -1.6372   -1.6740 H   0  0  0  0  0  0  0  0  0  0  0  0
    3.0713   -0.0735   -1.9126 H   0  0  0  0  0  0  0  0  0  0  0  0
    0.2738    0.3103    1.1692 H   0  0  0  0  0  0  0  0  0  0  0  0
    1.0466   -1.2640    1.3497 H   0  0  0  0  0  0  0  0  0  0  0  0
    1.7144   -2.5571   -0.7160 H   0  0  0  0  0  0  0  0  0  0  0  0
    1.4060   -1.8420   -2.3018 H   0  0  0  0  0  0  0  0  0  0  0  0
    4.7392    0.6930    2.1092 H   0  0  0  0  0  0  0  0  0  0  0  0
    5.5858   -0.8119    1.6692 H   0  0  0  0  0  0  0  0  0  0  0  0
   -1.0111    3.1153   -2.3787 H   0  0  0  0  0  0  0  0  0  0  0  0
   -0.4376    3.7319   -0.8175 H   0  0  0  0  0  0  0  0  0  0  0  0
    0.4278    2.4138   -1.6165 H   0  0  0  0  0  0  0  0  0  0  0  0
    7.1878    1.0241    2.1650 H   0  0  0  0  0  0  0  0  0  0  0  0
    6.4483    2.0158    0.8855 H   0  0  0  0  0  0  0  0  0  0  0  0
    7.2979    0.5360    0.4571 H   0  0  0  0  0  0  0  0  0  0  0  0
   -5.1979    1.3705    0.8853 H   0  0  0  0  0  0  0  0  0  0  0  0
   -4.3093    2.7228    1.6014 H   0  0  0  0  0  0  0  0  0  0  0  0
   -4.2164    1.1227    2.3447 H   0  0  0  0  0  0  0  0  0  0  0  0
   -2.3347   -1.0892    2.8660 H   0  0  0  0  0  0  0  0  0  0  0  0
   -1.1134   -1.8820    1.9667 H   0  0  0  0  0  0  0  0  0  0  0  0
  1  5  2  0  0  0  0
  1  6  2  0  0  0  0
  1  8  1  0  0  0  0
  1 16  1  0  0  0  0
  2  9  1  0  0  0  0
  2 17  1  0  0  0  0
  3 18  1  0  0  0  0
  3 19  1  0  0  0  0
  4 14  2  0  0  0  0
  7 12  1  0  0  0  0
  7 13  1  0  0  0  0
  7 14  1  0  0  0  0
  8 43  1  0  0  0  0
  8 44  1  0  0  0  0
  9 10  1  0  0  0  0
  9 11  1  0  0  0  0
  9 23  1  0  0  0  0
 10 12  1  0  0  0  0
 10 26  1  0  0  0  0
 10 27  1  0  0  0  0
 11 13  1  0  0  0  0
 11 24  1  0  0  0  0
 11 25  1  0  0  0  0
 12 30  1  0  0  0  0
 12 31  1  0  0  0  0
 13 28  1  0  0  0  0
 13 29  1  0  0  0  0
 14 15  1  0  0  0  0
 15 16  1  0  0  0  0
 15 18  2  0  0  0  0
 16 19  2  0  0  0  0
 17 21  1  0  0  0  0
 17 32  1  0  0  0  0
 17 33  1  0  0  0  0
 18 20  1  0  0  0  0
 19 22  1  0  0  0  0
 20 34  1  0  0  0  0
 20 35  1  0  0  0  0
 20 36  1  0  0  0  0
 21 37  1  0  0  0  0
 21 38  1  0  0  0  0
 21 39  1  0  0  0  0
 22 40  1  0  0  0  0
 22 41  1  0  0  0  0
 22 42  1  0  0  0  0
M  END
> <PUBCHEM_COMPOUND_CID>
51090845

> <PUBCHEM_CONFORMER_RMSD>
0.8

> <PUBCHEM_CONFORMER_DIVERSEORDER>
2
45
38
19
36
22
30
15
39
48
1
8
21
25
54
58
12
42
35
34
16
3
47
13
20
52
5
50
55
26
9
27
40
6
51
49
28
18
10
31
59
17
33
23
29
11
14
24
53
43
57
44
37
56
32
7
46
41
4

> <PUBCHEM_MMFF94_PARTIAL_CHARGES>
21
1 1.5
12 0.3
13 0.3
14 0.72
15 -0.09
16 -0.06
17 0.28
18 -0.04
19 -0.04
2 -0.56
20 0.18
22 0.18
3 -0.28
4 -0.57
43 0.42
44 0.42
5 -0.65
6 -0.65
7 -0.66
8 -0.98
9 0.28

> <PUBCHEM_EFFECTIVE_ROTOR_COUNT>
6.2

> <PUBCHEM_PHARMACOPHORE_FEATURES>
8
1 2 acceptor
1 3 acceptor
1 4 acceptor
1 5 acceptor
1 6 acceptor
1 8 donor
5 3 15 16 18 19 rings
6 7 9 10 11 12 13 rings

> <PUBCHEM_HEAVY_ATOM_COUNT>
22

> <PUBCHEM_ATOM_DEF_STEREO_COUNT>
0

> <PUBCHEM_ATOM_UDEF_STEREO_COUNT>
0

> <PUBCHEM_BOND_DEF_STEREO_COUNT>
0

> <PUBCHEM_BOND_UDEF_STEREO_COUNT>
0

> <PUBCHEM_ISOTOPIC_ATOM_COUNT>
0

> <PUBCHEM_COMPONENT_COUNT>
1

> <PUBCHEM_CACTVS_TAUTO_COUNT>
1

> <PUBCHEM_CONFORMER_ID>
030B959D00000002

> <PUBCHEM_MMFF94_ENERGY>
37.0887

> <PUBCHEM_FEATURE_SELFOVERLAP>
40.613

> <PUBCHEM_SHAPE_MULTIPOLES>
417.29
10.29
2.39
1.76
15.87
0.71
-0.27
1.99
6.52
-2.51
-0.38
-0.07
-0.22
1.11

> <PUBCHEM_SHAPE_SELFOVERLAP>
850.246

> <PUBCHEM_SHAPE_VOLUME>
245.4

> <PUBCHEM_COORDINATE_TYPE>
2
5
10

$$$$

