11213
  -OEChem-07051212583D

 41 46  0     1  0  0  0  0  0999 V2000
    1.3718   -2.8120   -0.2711 O   0  0  0  0  0  0  0  0  0  0  0  0
   -2.0289    1.7046   -0.2452 O   0  0  0  0  0  0  0  0  0  0  0  0
   -3.4766    0.1330    0.6151 O   0  0  0  0  0  0  0  0  0  0  0  0
    1.9260   -0.1483    0.5745 N   0  0  1  0  0  0  0  0  0  0  0  0
   -0.3592   -1.0009   -0.1544 C   0  0  2  0  0  0  0  0  0  0  0  0
    0.5080    0.2411    0.3249 C   0  0  1  0  0  0  0  0  0  0  0  0
   -0.6160   -1.3320    1.3544 C   0  0  1  0  0  0  0  0  0  0  0  0
    0.3977   -2.0282   -0.9821 C   0  0  1  0  0  0  0  0  0  0  0  0
   -0.1954    0.1030    1.7291 C   0  0  0  0  0  0  0  0  0  0  0  0
    0.4139    1.4820   -0.5767 C   0  0  1  0  0  0  0  0  0  0  0  0
   -1.6637   -0.5283   -0.8842 C   0  0  2  0  0  0  0  0  0  0  0  0
    1.8726   -1.8600   -1.2147 C   0  0  1  0  0  0  0  0  0  0  0  0
   -0.9746    1.6555   -1.2095 C   0  0  1  0  0  0  0  0  0  0  0  0
   -1.3039    0.4117   -2.0213 C   0  0  0  0  0  0  0  0  0  0  0  0
    2.5966   -0.6933   -0.6141 C   0  0  0  0  0  0  0  0  0  0  0  0
    0.9765    2.6643    0.1989 C   0  0  0  0  0  0  0  0  0  0  0  0
    2.6568    0.9917    1.1699 C   0  0  0  0  0  0  0  0  0  0  0  0
   -2.0274   -1.7727    1.8101 C   0  0  0  0  0  0  0  0  0  0  0  0
   -2.5285    0.4305   -0.0935 C   0  0  0  0  0  0  0  0  0  0  0  0
    2.4542    2.3583    0.4900 C   0  0  0  0  0  0  0  0  0  0  0  0
    0.1045   -2.0636    1.7496 H   0  0  0  0  0  0  0  0  0  0  0  0
   -0.2194   -2.5453   -1.7027 H   0  0  0  0  0  0  0  0  0  0  0  0
   -1.0149    0.8062    1.9048 H   0  0  0  0  0  0  0  0  0  0  0  0
    0.4257    0.1500    2.6304 H   0  0  0  0  0  0  0  0  0  0  0  0
    1.0696    1.3505   -1.4487 H   0  0  0  0  0  0  0  0  0  0  0  0
   -2.2638   -1.3695   -1.2451 H   0  0  0  0  0  0  0  0  0  0  0  0
    2.3137   -2.2308   -2.1286 H   0  0  0  0  0  0  0  0  0  0  0  0
   -1.0134    2.5546   -1.8332 H   0  0  0  0  0  0  0  0  0  0  0  0
   -0.4834    0.0681   -2.6578 H   0  0  0  0  0  0  0  0  0  0  0  0
   -2.1816    0.5941   -2.6546 H   0  0  0  0  0  0  0  0  0  0  0  0
    3.5939   -1.0462   -0.3243 H   0  0  0  0  0  0  0  0  0  0  0  0
    2.7512    0.0652   -1.3885 H   0  0  0  0  0  0  0  0  0  0  0  0
    0.4309    2.8242    1.1357 H   0  0  0  0  0  0  0  0  0  0  0  0
    0.9020    3.5859   -0.3888 H   0  0  0  0  0  0  0  0  0  0  0  0
    3.7297    0.7655    1.2151 H   0  0  0  0  0  0  0  0  0  0  0  0
    2.3522    1.0913    2.2186 H   0  0  0  0  0  0  0  0  0  0  0  0
   -2.6268   -2.1836    0.9943 H   0  0  0  0  0  0  0  0  0  0  0  0
   -1.9153   -2.5907    2.5334 H   0  0  0  0  0  0  0  0  0  0  0  0
   -2.5536   -0.9875    2.3573 H   0  0  0  0  0  0  0  0  0  0  0  0
    3.0185    2.3796   -0.4508 H   0  0  0  0  0  0  0  0  0  0  0  0
    2.8718    3.1482    1.1247 H   0  0  0  0  0  0  0  0  0  0  0  0
  1  8  1  0  0  0  0
  1 12  1  0  0  0  0
  2 13  1  0  0  0  0
  2 19  1  0  0  0  0
  3 19  2  0  0  0  0
  4  6  1  0  0  0  0
  4 15  1  0  0  0  0
  4 17  1  0  0  0  0
  5  6  1  0  0  0  0
  5  7  1  0  0  0  0
  5  8  1  0  0  0  0
  5 11  1  0  0  0  0
  6  9  1  0  0  0  0
  6 10  1  0  0  0  0
  7  9  1  0  0  0  0
  7 18  1  0  0  0  0
  7 21  1  0  0  0  0
  8 12  1  0  0  0  0
  8 22  1  0  0  0  0
  9 23  1  0  0  0  0
  9 24  1  0  0  0  0
 10 13  1  0  0  0  0
 10 16  1  0  0  0  0
 10 25  1  0  0  0  0
 11 14  1  0  0  0  0
 11 19  1  0  0  0  0
 11 26  1  0  0  0  0
 12 15  1  0  0  0  0
 12 27  1  0  0  0  0
 13 14  1  0  0  0  0
 13 28  1  0  0  0  0
 14 29  1  0  0  0  0
 14 30  1  0  0  0  0
 15 31  1  0  0  0  0
 15 32  1  0  0  0  0
 16 20  1  0  0  0  0
 16 33  1  0  0  0  0
 16 34  1  0  0  0  0
 17 20  1  0  0  0  0
 17 35  1  0  0  0  0
 17 36  1  0  0  0  0
 18 37  1  0  0  0  0
 18 38  1  0  0  0  0
 18 39  1  0  0  0  0
 20 40  1  0  0  0  0
 20 41  1  0  0  0  0
M  END
> <PUBCHEM_COMPOUND_CID>
11213

> <PUBCHEM_CONFORMER_RMSD>
0.6

> <PUBCHEM_CONFORMER_DIVERSEORDER>
1

> <PUBCHEM_MMFF94_PARTIAL_CHARGES>
15
1 -0.3
11 0.06
12 -0.05
13 0.28
15 0.37
17 0.27
19 0.66
2 -0.43
22 0.1
27 0.1
3 -0.57
4 -0.75
5 0.08
6 0.21
8 -0.03

> <PUBCHEM_EFFECTIVE_ROTOR_COUNT>
1.8

> <PUBCHEM_PHARMACOPHORE_FEATURES>
7
1 1 acceptor
1 3 acceptor
1 4 cation
4 5 6 7 9 rings
6 4 6 10 16 17 20 rings
7 1 4 5 6 8 12 15 rings
8 2 5 6 10 11 13 14 19 rings

> <PUBCHEM_HEAVY_ATOM_COUNT>
20

> <PUBCHEM_ATOM_DEF_STEREO_COUNT>
7

> <PUBCHEM_ATOM_UDEF_STEREO_COUNT>
1

> <PUBCHEM_BOND_DEF_STEREO_COUNT>
0

> <PUBCHEM_BOND_UDEF_STEREO_COUNT>
0

> <PUBCHEM_ISOTOPIC_ATOM_COUNT>
0

> <PUBCHEM_COMPONENT_COUNT>
1

> <PUBCHEM_CACTVS_TAUTO_COUNT>
1

> <PUBCHEM_CONFORMER_ID>
00002BCD00000001

> <PUBCHEM_MMFF94_ENERGY>
74.762

> <PUBCHEM_FEATURE_SELFOVERLAP>
36.066

> <PUBCHEM_SHAPE_FINGERPRINT>
10863032 1 17531250517584023493
10948715 1 17968659298308181897
11315181 36 17262424619621242430
12035758 1 18411691102166906186
12423570 1 18190768429604643619
12491281 212 18192160295282592073
13024252 1 15909994173835294116
13140716 1 18339366240634894552
13172582 1 18338813212251229088
141345 1 5539007781769421018
14142880 1 16676125973324739416
144361 1 17477240165475434621
14761567 1 17050219965705531069
14817 1 15882580398238479183
15309172 13 18191874426664957992
15881359 60 17978801107684488914
16945 1 18263095442625009557
20511035 2 17913495640254069260
22802520 49 17975140051712245508
2334 1 18050576135739461124
23388829 49 16685137561983107516
23419403 2 18196622207988815355
23559900 14 16967463067564649294
2748010 2 18269273452422077772
353137 74 17116353421094566868
427121 178 16310424141045314979
5845 1 10617754189408739425
84936 31 17821999917592833470

> <PUBCHEM_SHAPE_MULTIPOLES>
389
3.63
2.75
1.66
0.14
0.34
0.12
-0.86
0.82
-1.05
-0.44
0.51
0.33
1.1

> <PUBCHEM_SHAPE_SELFOVERLAP>
878.287

> <PUBCHEM_SHAPE_VOLUME>
202.8

> <PUBCHEM_COORDINATE_TYPE>
2
5
10

$$$$

