17396075
  -OEChem-06241222542D

 56 59  0     1  0  0  0  0  0999 V2000
    4.5981    2.7306    0.0000 S   0  0  0  0  0  0  0  0  0  0  0  0
    4.5981    0.7306    0.0000 O   0  0  0  0  0  0  0  0  0  0  0  0
    5.4071    4.3184    0.0000 N   0  0  0  0  0  0  0  0  0  0  0  0
    2.8660   -3.2694    0.0000 N   0  0  0  0  0  0  0  0  0  0  0  0
    5.0981    5.2694    0.0000 N   0  0  0  0  0  0  0  0  0  0  0  0
    3.7891    4.3184    0.0000 N   0  0  0  0  0  0  0  0  0  0  0  0
    4.0981    5.2694    0.0000 N   0  0  0  0  0  0  0  0  0  0  0  0
    2.8660    0.7306    0.0000 N   0  0  0  0  0  0  0  0  0  0  0  0
    6.3582    4.0094    0.0000 C   0  0  0  0  0  0  0  0  0  0  0  0
    6.6672    3.0583    0.0000 C   0  0  0  0  0  0  0  0  0  0  0  0
    7.1672    4.5971    0.0000 C   0  0  0  0  0  0  0  0  0  0  0  0
    7.9762    4.0094    0.0000 C   0  0  0  0  0  0  0  0  0  0  0  0
    7.6672    3.0583    0.0000 C   0  0  0  0  0  0  0  0  0  0  0  0
    2.8660   -5.2694    0.0000 C   0  0  0  0  0  0  0  0  0  0  0  0
    3.7320   -4.7694    0.0000 C   0  0  0  0  0  0  0  0  0  0  0  0
    2.0000   -4.7694    0.0000 C   0  0  0  0  0  0  0  0  0  0  0  0
    2.0000   -3.7694    0.0000 C   0  0  0  0  0  0  0  0  0  0  0  0
    3.7320   -3.7694    0.0000 C   0  0  0  0  0  0  0  0  0  0  0  0
    4.5981    3.7306    0.0000 C   0  0  0  0  0  0  0  0  0  0  0  0
    2.8660   -2.2694    0.0000 C   0  0  0  0  0  0  0  0  0  0  0  0
    3.7320   -1.7694    0.0000 C   0  0  0  0  0  0  0  0  0  0  0  0
    2.0000   -1.7694    0.0000 C   0  0  0  0  0  0  0  0  0  0  0  0
    3.7320    2.2306    0.0000 C   0  0  3  0  0  0  0  0  0  0  0  0
    2.8660   -0.2694    0.0000 C   0  0  0  0  0  0  0  0  0  0  0  0
    3.7320   -0.7694    0.0000 C   0  0  0  0  0  0  0  0  0  0  0  0
    2.0000   -0.7694    0.0000 C   0  0  0  0  0  0  0  0  0  0  0  0
    3.7320    1.2306    0.0000 C   0  0  0  0  0  0  0  0  0  0  0  0
    2.8660    2.7306    0.0000 C   0  0  0  0  0  0  0  0  0  0  0  0
    6.2612    4.6217    0.0000 H   0  0  0  0  0  0  0  0  0  0  0  0
    7.5820    5.0579    0.0000 H   0  0  0  0  0  0  0  0  0  0  0  0
    6.7523    5.0579    0.0000 H   0  0  0  0  0  0  0  0  0  0  0  0
    6.0607    2.9294    0.0000 H   0  0  0  0  0  0  0  0  0  0  0  0
    6.7320    2.4417    0.0000 H   0  0  0  0  0  0  0  0  0  0  0  0
    8.5426    3.7572    0.0000 H   0  0  0  0  0  0  0  0  0  0  0  0
    8.2862    4.5463    0.0000 H   0  0  0  0  0  0  0  0  0  0  0  0
    7.6024    2.4417    0.0000 H   0  0  0  0  0  0  0  0  0  0  0  0
    8.2736    2.9294    0.0000 H   0  0  0  0  0  0  0  0  0  0  0  0
    2.4675   -5.7444    0.0000 H   0  0  0  0  0  0  0  0  0  0  0  0
    3.2646   -5.7444    0.0000 H   0  0  0  0  0  0  0  0  0  0  0  0
    3.9441   -5.3520    0.0000 H   0  0  0  0  0  0  0  0  0  0  0  0
    4.3426   -4.6618    0.0000 H   0  0  0  0  0  0  0  0  0  0  0  0
    1.3894   -4.6618    0.0000 H   0  0  0  0  0  0  0  0  0  0  0  0
    1.7880   -5.3520    0.0000 H   0  0  0  0  0  0  0  0  0  0  0  0
    4.3426   -3.8771    0.0000 H   0  0  0  0  0  0  0  0  0  0  0  0
    3.9441   -3.1868    0.0000 H   0  0  0  0  0  0  0  0  0  0  0  0
    1.7880   -3.1868    0.0000 H   0  0  0  0  0  0  0  0  0  0  0  0
    1.3894   -3.8771    0.0000 H   0  0  0  0  0  0  0  0  0  0  0  0
    4.2690   -2.0794    0.0000 H   0  0  0  0  0  0  0  0  0  0  0  0
    1.4631   -2.0794    0.0000 H   0  0  0  0  0  0  0  0  0  0  0  0
    3.7320    2.8506    0.0000 H   0  0  0  0  0  0  0  0  0  0  0  0
    4.2690   -0.4594    0.0000 H   0  0  0  0  0  0  0  0  0  0  0  0
    1.4631   -0.4594    0.0000 H   0  0  0  0  0  0  0  0  0  0  0  0
    2.3291    1.0406    0.0000 H   0  0  0  0  0  0  0  0  0  0  0  0
    3.1760    3.2675    0.0000 H   0  0  0  0  0  0  0  0  0  0  0  0
    2.3291    3.0406    0.0000 H   0  0  0  0  0  0  0  0  0  0  0  0
    2.5560    2.1936    0.0000 H   0  0  0  0  0  0  0  0  0  0  0  0
  1 19  1  0  0  0  0
  1 23  1  0  0  0  0
  2 27  2  0  0  0  0
  3  5  1  0  0  0  0
  3  9  1  0  0  0  0
  3 19  1  0  0  0  0
  4 17  1  0  0  0  0
  4 18  1  0  0  0  0
  4 20  1  0  0  0  0
  5  7  2  0  0  0  0
  6  7  1  0  0  0  0
  6 19  2  0  0  0  0
  8 24  1  0  0  0  0
  8 27  1  0  0  0  0
  8 53  1  0  0  0  0
  9 10  1  0  0  0  0
  9 11  1  0  0  0  0
  9 29  1  0  0  0  0
 10 13  1  0  0  0  0
 10 32  1  0  0  0  0
 10 33  1  0  0  0  0
 11 12  1  0  0  0  0
 11 30  1  0  0  0  0
 11 31  1  0  0  0  0
 12 13  1  0  0  0  0
 12 34  1  0  0  0  0
 12 35  1  0  0  0  0
 13 36  1  0  0  0  0
 13 37  1  0  0  0  0
 14 15  1  0  0  0  0
 14 16  1  0  0  0  0
 14 38  1  0  0  0  0
 14 39  1  0  0  0  0
 15 18  1  0  0  0  0
 15 40  1  0  0  0  0
 15 41  1  0  0  0  0
 16 17  1  0  0  0  0
 16 42  1  0  0  0  0
 16 43  1  0  0  0  0
 17 46  1  0  0  0  0
 17 47  1  0  0  0  0
 18 44  1  0  0  0  0
 18 45  1  0  0  0  0
 20 21  2  0  0  0  0
 20 22  1  0  0  0  0
 21 25  1  0  0  0  0
 21 48  1  0  0  0  0
 22 26  2  0  0  0  0
 22 49  1  0  0  0  0
 23 27  1  0  0  0  0
 23 28  1  0  0  0  0
 23 50  1  0  0  0  0
 24 25  2  0  0  0  0
 24 26  1  0  0  0  0
 25 51  1  0  0  0  0
 26 52  1  0  0  0  0
 28 54  1  0  0  0  0
 28 55  1  0  0  0  0
 28 56  1  0  0  0  0
M  END
> <PUBCHEM_COMPOUND_CID>
17396075

> <PUBCHEM_COMPOUND_CANONICALIZED>
1

> <PUBCHEM_CACTVS_COMPLEXITY>
503

> <PUBCHEM_CACTVS_HBOND_ACCEPTOR>
6

> <PUBCHEM_CACTVS_HBOND_DONOR>
1

> <PUBCHEM_CACTVS_ROTATABLE_BOND>
6

> <PUBCHEM_CACTVS_SUBSKEYS>
AAADceB7oABAAAAAAAAAAAAAAAAAAeIAAAA8QAAAAAAAAAABwAAAHgQYAAAACCjF0ASz0IfIAAiqACVSdACCEANhgpAdyAEIZIiIICLAmZGEIAhglALIyAcQAAAAAACAAAAAAAAAAQAAAAAAAAAAAAAAAA==

> <PUBCHEM_IUPAC_OPENEYE_NAME>
2-(1-cyclopentyltetrazol-5-yl)sulfanyl-N-[4-(1-piperidyl)phenyl]propanamide

> <PUBCHEM_IUPAC_CAS_NAME>
2-[(1-cyclopentyl-5-tetrazolyl)thio]-N-[4-(1-piperidinyl)phenyl]propanamide

> <PUBCHEM_IUPAC_NAME>
2-(1-cyclopentyltetrazol-5-yl)sulfanyl-N-(4-piperidin-1-ylphenyl)propanamide

> <PUBCHEM_IUPAC_SYSTEMATIC_NAME>
2-[(1-cyclopentyl-1,2,3,4-tetrazol-5-yl)sulfanyl]-N-(4-piperidin-1-ylphenyl)propanamide

> <PUBCHEM_IUPAC_TRADITIONAL_NAME>
2-[(1-cyclopentyltetrazol-5-yl)thio]-N-(4-piperidinophenyl)propionamide

> <PUBCHEM_IUPAC_INCHI>
InChI=1S/C20H28N6OS/c1-15(28-20-22-23-24-26(20)18-7-3-4-8-18)19(27)21-16-9-11-17(12-10-16)25-13-5-2-6-14-25/h9-12,15,18H,2-8,13-14H2,1H3,(H,21,27)

> <PUBCHEM_IUPAC_INCHIKEY>
NAMUZVUSXXIQQO-UHFFFAOYSA-N

> <PUBCHEM_XLOGP3_AA>
3.9

> <PUBCHEM_EXACT_MASS>
400.204531

> <PUBCHEM_MOLECULAR_FORMULA>
C20H28N6OS

> <PUBCHEM_MOLECULAR_WEIGHT>
400.54092

> <PUBCHEM_OPENEYE_CAN_SMILES>
CC(C(=O)NC1=CC=C(C=C1)N2CCCCC2)SC3=NN=NN3C4CCCC4

> <PUBCHEM_OPENEYE_ISO_SMILES>
CC(C(=O)NC1=CC=C(C=C1)N2CCCCC2)SC3=NN=NN3C4CCCC4

> <PUBCHEM_CACTVS_TPSA>
101

> <PUBCHEM_MONOISOTOPIC_WEIGHT>
400.204531

> <PUBCHEM_TOTAL_CHARGE>
0

> <PUBCHEM_HEAVY_ATOM_COUNT>
28

> <PUBCHEM_ATOM_DEF_STEREO_COUNT>
0

> <PUBCHEM_ATOM_UDEF_STEREO_COUNT>
1

> <PUBCHEM_BOND_DEF_STEREO_COUNT>
0

> <PUBCHEM_BOND_UDEF_STEREO_COUNT>
0

> <PUBCHEM_ISOTOPIC_ATOM_COUNT>
0

> <PUBCHEM_COMPONENT_COUNT>
1

> <PUBCHEM_CACTVS_TAUTO_COUNT>
3

> <PUBCHEM_COORDINATE_TYPE>
1
5
255

> <PUBCHEM_BONDANNOTATIONS>
20  21  8
20  22  8
21  25  8
22  26  8
23  28  3
24  25  8
24  26  8
3  19  8
3  5  8
5  7  8
6  19  8
6  7  8

$$$$

