119133
  -OEChem-07051213023D

 30 30  0     1  0  0  0  0  0999 V2000
    4.4072    0.0238   -0.7518 O   0  0  0  0  0  0  0  0  0  0  0  0
    3.4010    1.9941   -0.1486 O   0  0  0  0  0  0  0  0  0  0  0  0
   -0.0572   -0.5169    1.8903 O   0  0  0  0  0  0  0  0  0  0  0  0
   -2.3766   -1.2861    0.1910 O   0  0  0  0  0  0  0  0  0  0  0  0
    1.0291    0.4079    0.0577 N   0  0  0  0  0  0  0  0  0  0  0  0
    2.3247   -0.1420    0.3156 C   0  0  1  0  0  0  0  0  0  0  0  0
    2.5957   -1.4142   -0.4520 C   0  0  0  0  0  0  0  0  0  0  0  0
    4.0924   -1.3679   -0.6253 C   0  0  0  0  0  0  0  0  0  0  0  0
    3.3948    0.7747   -0.2138 C   0  0  0  0  0  0  0  0  0  0  0  0
   -0.0649    0.1735    0.8729 C   0  0  0  0  0  0  0  0  0  0  0  0
   -1.3221    0.8676    0.3921 C   0  0  0  0  0  0  0  0  0  0  0  0
   -3.7906    0.6128   -0.2786 C   0  0  0  0  0  0  0  0  0  0  0  0
   -2.4879   -0.0633    0.1185 C   0  0  0  0  0  0  0  0  0  0  0  0
   -4.9242   -0.3839   -0.5022 C   0  0  0  0  0  0  0  0  0  0  0  0
   -6.2213    0.3200   -0.8658 C   0  0  0  0  0  0  0  0  0  0  0  0
    2.4835   -0.2837    1.3904 H   0  0  0  0  0  0  0  0  0  0  0  0
    2.1081   -1.3856   -1.4352 H   0  0  0  0  0  0  0  0  0  0  0  0
    2.2516   -2.3162    0.0621 H   0  0  0  0  0  0  0  0  0  0  0  0
    4.6254   -1.7674    0.2438 H   0  0  0  0  0  0  0  0  0  0  0  0
    4.4189   -1.9021   -1.5220 H   0  0  0  0  0  0  0  0  0  0  0  0
    0.9143    0.9823   -0.7725 H   0  0  0  0  0  0  0  0  0  0  0  0
   -1.1284    1.4356   -0.5238 H   0  0  0  0  0  0  0  0  0  0  0  0
   -1.6194    1.5749    1.1742 H   0  0  0  0  0  0  0  0  0  0  0  0
   -3.6085    1.1841   -1.1955 H   0  0  0  0  0  0  0  0  0  0  0  0
   -4.0627    1.3118    0.5202 H   0  0  0  0  0  0  0  0  0  0  0  0
   -4.6547   -1.0834   -1.3025 H   0  0  0  0  0  0  0  0  0  0  0  0
   -5.0802   -0.9831    0.4030 H   0  0  0  0  0  0  0  0  0  0  0  0
   -6.5364    0.9992   -0.0673 H   0  0  0  0  0  0  0  0  0  0  0  0
   -7.0191   -0.4127   -1.0229 H   0  0  0  0  0  0  0  0  0  0  0  0
   -6.1075    0.9009   -1.7865 H   0  0  0  0  0  0  0  0  0  0  0  0
  1  8  1  0  0  0  0
  1  9  1  0  0  0  0
  2  9  2  0  0  0  0
  3 10  2  0  0  0  0
  4 13  2  0  0  0  0
  5  6  1  0  0  0  0
  5 10  1  0  0  0  0
  5 21  1  0  0  0  0
  6  7  1  0  0  0  0
  6  9  1  0  0  0  0
  6 16  1  0  0  0  0
  7  8  1  0  0  0  0
  7 17  1  0  0  0  0
  7 18  1  0  0  0  0
  8 19  1  0  0  0  0
  8 20  1  0  0  0  0
 10 11  1  0  0  0  0
 11 13  1  0  0  0  0
 11 22  1  0  0  0  0
 11 23  1  0  0  0  0
 12 13  1  0  0  0  0
 12 14  1  0  0  0  0
 12 24  1  0  0  0  0
 12 25  1  0  0  0  0
 14 15  1  0  0  0  0
 14 26  1  0  0  0  0
 14 27  1  0  0  0  0
 15 28  1  0  0  0  0
 15 29  1  0  0  0  0
 15 30  1  0  0  0  0
M  END
> <PUBCHEM_COMPOUND_CID>
119133

> <PUBCHEM_CONFORMER_RMSD>
0.8

> <PUBCHEM_CONFORMER_DIVERSEORDER>
1
115
215
199
146
50
102
198
77
35
180
40
32
167
15
209
170
156
242
6
83
238
236
116
178
125
191
14
227
18
44
251
62
226
123
222
55
244
127
259
185
122
16
210
51
233
73
128
219
56
197
152
124
258
228
224
179
41
27
21
195
11
140
19
112
147
108
214
230
193
58
158
241
2
70
182
96
248
175
143
136
231
23
148
119
250
101
160
135
144
36
196
43
8
31
121
49
220
243
109
184
246
10
239
24
120
52
132
202
130
85
149
114
217
203
150
30
93
223
47
78
254
145
67
45
34
86
142
208
153
155
207
212
75
42
151
249
26
247
177
64
181
107
225
59
221
234
240
173
17
9
260
3
91
97
205
134
137
76
126
99
192
29
33
218
87
25
256
7
68
245
106
66
37
204
82
80
81
103
131
163
46
216
84
118
54
253
174
200
48
255
186
22
129
5
113
211
189
194
213
20
157
159
154
232
171
53
138
235
12
183
89
162
252
172
95
98
237
161
206
111
13
188
63
39
139
60
61
168
92
74
187
117
133
65
94
165
100
69
169
229
88
257
164
90
38
104
79
141
190
176
110
28
57
105
72
4
166
201
71

> <PUBCHEM_MMFF94_PARTIAL_CHARGES>
13
1 -0.43
10 0.57
11 0.12
12 0.06
13 0.45
2 -0.57
21 0.37
3 -0.57
4 -0.57
5 -0.73
6 0.36
8 0.28
9 0.66

> <PUBCHEM_EFFECTIVE_ROTOR_COUNT>
6.8

> <PUBCHEM_PHARMACOPHORE_FEATURES>
7
1 11 anion
1 15 hydrophobe
1 2 acceptor
1 3 acceptor
1 4 acceptor
1 5 donor
5 1 6 7 8 9 rings

> <PUBCHEM_HEAVY_ATOM_COUNT>
15

> <PUBCHEM_ATOM_DEF_STEREO_COUNT>
0

> <PUBCHEM_ATOM_UDEF_STEREO_COUNT>
1

> <PUBCHEM_BOND_DEF_STEREO_COUNT>
0

> <PUBCHEM_BOND_UDEF_STEREO_COUNT>
0

> <PUBCHEM_ISOTOPIC_ATOM_COUNT>
0

> <PUBCHEM_COMPONENT_COUNT>
1

> <PUBCHEM_CACTVS_TAUTO_COUNT>
16

> <PUBCHEM_CONFORMER_ID>
0001D15D00000001

> <PUBCHEM_MMFF94_ENERGY>
13.8663

> <PUBCHEM_FEATURE_SELFOVERLAP>
35.521

> <PUBCHEM_SHAPE_FINGERPRINT>
10354089 29 11095879376231704942
11287383 113 18343300332357973699
114248 4 18412826880609097343
11543360 7 18335703810595077505
12251169 10 9151168744852301464
12670543 26 18335427915403454813
13836976 161 18114178636190121078
14366163 111 18202289117157661857
15477762 27 18260543472490872526
15885798 251 14273455877386757859
17834072 33 18334580118575660413
17834072 8 18201999945314609919
1813 80 14706921830719450833
18186145 218 17846498136165860128
18222031 100 14418132898555765233
19784866 240 17676759989668036230
200 152 17894628179835280394
20281475 54 17603585235918240419
20369508 70 17023193720649530920
20645477 70 18334010631371226510
20871999 31 18335422408960202857
21119208 17 18412824694159578767
212847 35 15698002942005990124
22485316 2 17676775292504382999
23402539 116 18041279967418098105
23402655 69 18413665816486719988
23557571 272 17559379284639116811
23559900 14 18335986376488395184
2871803 45 18409165549558993766
29717793 49 17676765452539337237
3004659 81 18260268581198094118
3060560 45 18343863333904120382
4028521 119 17846219981510216237
42 15 8070032168152791789
465052 167 16660364749418955893
4990 188 18272371983827102899
522135 26 18260831505291728916
5374978 207 9511461125983994567
6327066 14 17978792299551551668
960060 61 17967536752939427293

> <PUBCHEM_SHAPE_MULTIPOLES>
280.23
11.78
1.34
1
11.58
0.06
-0.34
-0.67
4.97
-1.42
0.16
0.11
-0.06
0.13

> <PUBCHEM_SHAPE_SELFOVERLAP>
556.95

> <PUBCHEM_SHAPE_VOLUME>
166.9

> <PUBCHEM_COORDINATE_TYPE>
2
5
10

$$$$

