261000
  -OEChem-07051213043D

 45 48  0     1  0  0  0  0  0999 V2000
    4.8981   -0.8764   -0.1128 O   0  0  0  0  0  0  0  0  0  0  0  0
   -5.8215   -0.2550    0.7491 O   0  0  0  0  0  0  0  0  0  0  0  0
    2.5031   -0.3825   -0.4052 C   0  0  1  0  0  0  0  0  0  0  0  0
    1.6301    0.6978    0.2801 C   0  0  2  0  0  0  0  0  0  0  0  0
    3.7372   -0.3734    0.5448 C   0  0  2  0  0  0  0  0  0  0  0  0
    0.3200    0.9313   -0.4759 C   0  0  1  0  0  0  0  0  0  0  0  0
    2.6025    1.8452    0.5087 C   0  0  0  0  0  0  0  0  0  0  0  0
    3.9290    1.1393    0.8570 C   0  0  0  0  0  0  0  0  0  0  0  0
   -0.4827   -0.3872   -0.4858 C   0  0  0  0  0  0  0  0  0  0  0  0
    1.6751   -1.6365   -0.5234 C   0  0  0  0  0  0  0  0  0  0  0  0
   -0.4767    2.1025    0.1081 C   0  0  0  0  0  0  0  0  0  0  0  0
    2.9386   -0.0246   -1.8536 C   0  0  0  0  0  0  0  0  0  0  0  0
    3.5654   -1.1878    1.8344 C   0  0  0  0  0  0  0  0  0  0  0  0
    0.3300   -1.6113   -0.5752 C   0  0  0  0  0  0  0  0  0  0  0  0
   -1.8377   -0.3897   -0.3905 C   0  0  0  0  0  0  0  0  0  0  0  0
   -1.8541    2.1518   -0.5406 C   0  0  0  0  0  0  0  0  0  0  0  0
   -2.5974    0.8675   -0.2721 C   0  0  0  0  0  0  0  0  0  0  0  0
   -2.7116   -1.6309   -0.4218 C   0  0  0  0  0  0  0  0  0  0  0  0
   -3.8910    0.9160    0.0885 C   0  0  0  0  0  0  0  0  0  0  0  0
   -3.8316   -1.5849    0.6092 C   0  0  0  0  0  0  0  0  0  0  0  0
   -4.6247   -0.3111    0.4769 C   0  0  0  0  0  0  0  0  0  0  0  0
    1.3386    0.3510    1.2853 H   0  0  0  0  0  0  0  0  0  0  0  0
    0.5371    1.1895   -1.5203 H   0  0  0  0  0  0  0  0  0  0  0  0
    2.2780    2.5035    1.3212 H   0  0  0  0  0  0  0  0  0  0  0  0
    2.7185    2.4620   -0.3891 H   0  0  0  0  0  0  0  0  0  0  0  0
    4.7489    1.5729    0.2725 H   0  0  0  0  0  0  0  0  0  0  0  0
    4.1755    1.2993    1.9130 H   0  0  0  0  0  0  0  0  0  0  0  0
    2.1919   -2.5873   -0.6211 H   0  0  0  0  0  0  0  0  0  0  0  0
    0.0489    3.0463   -0.0794 H   0  0  0  0  0  0  0  0  0  0  0  0
   -0.5761    2.0006    1.1970 H   0  0  0  0  0  0  0  0  0  0  0  0
    3.5715   -0.8134   -2.2791 H   0  0  0  0  0  0  0  0  0  0  0  0
    2.0859    0.0802   -2.5331 H   0  0  0  0  0  0  0  0  0  0  0  0
    3.5096    0.9077   -1.9033 H   0  0  0  0  0  0  0  0  0  0  0  0
    4.4712   -1.1179    2.4485 H   0  0  0  0  0  0  0  0  0  0  0  0
    2.7221   -0.8535    2.4441 H   0  0  0  0  0  0  0  0  0  0  0  0
    3.4343   -2.2530    1.6144 H   0  0  0  0  0  0  0  0  0  0  0  0
   -0.1693   -2.5666   -0.6881 H   0  0  0  0  0  0  0  0  0  0  0  0
   -1.7566    2.2965   -1.6242 H   0  0  0  0  0  0  0  0  0  0  0  0
   -2.4000    3.0192   -0.1502 H   0  0  0  0  0  0  0  0  0  0  0  0
    4.7292   -1.8057   -0.3445 H   0  0  0  0  0  0  0  0  0  0  0  0
   -3.1477   -1.7127   -1.4268 H   0  0  0  0  0  0  0  0  0  0  0  0
   -2.1527   -2.5531   -0.2486 H   0  0  0  0  0  0  0  0  0  0  0  0
   -4.4335    1.8530    0.1571 H   0  0  0  0  0  0  0  0  0  0  0  0
   -3.4349   -1.6407    1.6292 H   0  0  0  0  0  0  0  0  0  0  0  0
   -4.5046   -2.4349    0.4519 H   0  0  0  0  0  0  0  0  0  0  0  0
  1  5  1  0  0  0  0
  1 40  1  0  0  0  0
  2 21  2  0  0  0  0
  3  4  1  0  0  0  0
  3  5  1  0  0  0  0
  3 10  1  0  0  0  0
  3 12  1  0  0  0  0
  4  6  1  0  0  0  0
  4  7  1  0  0  0  0
  4 22  1  0  0  0  0
  5  8  1  0  0  0  0
  5 13  1  0  0  0  0
  6  9  1  0  0  0  0
  6 11  1  0  0  0  0
  6 23  1  0  0  0  0
  7  8  1  0  0  0  0
  7 24  1  0  0  0  0
  7 25  1  0  0  0  0
  8 26  1  0  0  0  0
  8 27  1  0  0  0  0
  9 14  1  0  0  0  0
  9 15  2  0  0  0  0
 10 14  2  0  0  0  0
 10 28  1  0  0  0  0
 11 16  1  0  0  0  0
 11 29  1  0  0  0  0
 11 30  1  0  0  0  0
 12 31  1  0  0  0  0
 12 32  1  0  0  0  0
 12 33  1  0  0  0  0
 13 34  1  0  0  0  0
 13 35  1  0  0  0  0
 13 36  1  0  0  0  0
 14 37  1  0  0  0  0
 15 17  1  0  0  0  0
 15 18  1  0  0  0  0
 16 17  1  0  0  0  0
 16 38  1  0  0  0  0
 16 39  1  0  0  0  0
 17 19  2  0  0  0  0
 18 20  1  0  0  0  0
 18 41  1  0  0  0  0
 18 42  1  0  0  0  0
 19 21  1  0  0  0  0
 19 43  1  0  0  0  0
 20 21  1  0  0  0  0
 20 44  1  0  0  0  0
 20 45  1  0  0  0  0
M  END
> <PUBCHEM_COMPOUND_CID>
261000

> <PUBCHEM_CONFORMER_RMSD>
0.6

> <PUBCHEM_CONFORMER_DIVERSEORDER>
1

> <PUBCHEM_MMFF94_PARTIAL_CHARGES>
19
1 -0.68
10 -0.29
14 -0.15
15 -0.14
16 0.14
17 -0.14
18 0.14
19 -0.14
2 -0.57
20 0.06
21 0.49
28 0.15
3 0.14
37 0.15
40 0.4
43 0.15
5 0.28
6 0.14
9 -0.14

> <PUBCHEM_EFFECTIVE_ROTOR_COUNT>
1.4

> <PUBCHEM_PHARMACOPHORE_FEATURES>
7
1 1 acceptor
1 1 donor
1 2 acceptor
5 3 4 5 7 8 rings
6 15 17 18 19 20 21 rings
6 3 4 6 9 10 14 rings
6 6 9 11 15 16 17 rings

> <PUBCHEM_HEAVY_ATOM_COUNT>
21

> <PUBCHEM_ATOM_DEF_STEREO_COUNT>
4

> <PUBCHEM_ATOM_UDEF_STEREO_COUNT>
0

> <PUBCHEM_BOND_DEF_STEREO_COUNT>
0

> <PUBCHEM_BOND_UDEF_STEREO_COUNT>
0

> <PUBCHEM_ISOTOPIC_ATOM_COUNT>
0

> <PUBCHEM_COMPONENT_COUNT>
1

> <PUBCHEM_CACTVS_TAUTO_COUNT>
5

> <PUBCHEM_CONFORMER_ID>
0003FB8800000001

> <PUBCHEM_MMFF94_ENERGY>
63.6589

> <PUBCHEM_FEATURE_SELFOVERLAP>
35.629

> <PUBCHEM_SHAPE_FINGERPRINT>
10366900 7 18271515459779010467
10759866 29 17988635281770477862
11132069 177 18260830384521646503
11796584 16 16272211864868710339
12236239 1 17775563174113145996
12251169 10 18333731312567941687
12403259 415 18334020501390766712
12403814 3 18408329878262483629
12553582 1 18410854352422232239
12633257 1 18186806863466421427
12670546 177 8214142971119942363
12892183 10 18200614582591941200
13140716 1 18263647268713484211
13224815 77 18411979156790738733
13533116 47 17917437570108056075
13581323 91 18201725080345295668
13583140 156 17844835679037840308
13675066 3 18408608054102976189
14178342 30 18118404183687271840
14223421 5 18337392763276074333
14289901 80 17346597499485753460
14341114 176 18411980265055837928
14790565 3 17546723755591303516
15196674 1 18336266756100602677
15375358 24 18335142020572879181
15536298 74 18113894944672584141
15788980 27 16702305650530588223
16945 1 18263083369514300964
17349148 13 18412273830560659239
17804303 29 18409446994370596124
1813 80 17418374679657094421
18186145 218 17530960297996096950
19141452 34 18186800245486496071
19862831 5 9583524226080286061
200 152 13902190378884093047
20028762 73 18041563521191252975
20261772 1 18261115153443010495
21033648 29 17241058706945531883
21069387 34 15841545305803308849
21267235 1 18410847776474114199
21421861 104 18058168521254043219
21503847 285 14273455847485322306
22182313 1 18116150154510870398
22854114 59 18113335314902942787
23184049 59 18260545589492979021
23366157 5 17842554038129590437
23402539 116 18408612452856505719
23557571 272 18262230131195161596
23559900 14 18338791346593915518
2748010 2 18334862731165076580
2838139 119 5254682154451836346
296302 2 16877950412327021552
335352 9 18335984258800337269
34934 24 18410017645854448463
350125 39 18408601449024017264
4340502 62 15068336800849579591
465052 167 18343297063423923787
474 4 14635738314466871090
5104073 3 18409171004061751017
5374978 207 18412545409716318499
7097593 13 17698177470859600530
8272917 22 14056989559706323468
9709674 26 18262520423897986615

> <PUBCHEM_SHAPE_MULTIPOLES>
420.43
9.59
2.07
1.15
4.96
0.45
0
-1.7
-2.91
0.23
-0.03
-1
-0.22
0.28

> <PUBCHEM_SHAPE_SELFOVERLAP>
918.164

> <PUBCHEM_SHAPE_VOLUME>
228.3

> <PUBCHEM_COORDINATE_TYPE>
2
5
10

$$$$

