11541
  -OEChem-06261205483D

 25 24  0     0  0  0  0  0  0999 V2000
    2.9554    0.3472   -0.1935 O   0  0  0  0  0  0  0  0  0  0  0  0
   -1.7579   -0.1209   -0.0026 N   0  3  0  0  0  0  0  0  0  0  0  0
   -0.7200    0.8673    0.5097 C   0  0  0  0  0  0  0  0  0  0  0  0
   -1.2483   -1.5411    0.1970 C   0  0  0  0  0  0  0  0  0  0  0  0
   -3.0578    0.0645    0.7668 C   0  0  0  0  0  0  0  0  0  0  0  0
   -2.0056    0.1255   -1.4839 C   0  0  0  0  0  0  0  0  0  0  0  0
    0.5907    0.7502   -0.1967 C   0  0  0  0  0  0  0  0  0  0  0  0
    1.7392    0.4566    0.4236 C   0  0  0  0  0  0  0  0  0  0  0  0
    3.5043   -0.9492   -0.0204 C   0  0  0  0  0  0  0  0  0  0  0  0
   -0.6168    0.6967    1.5887 H   0  0  0  0  0  0  0  0  0  0  0  0
   -1.1284    1.8748    0.3657 H   0  0  0  0  0  0  0  0  0  0  0  0
   -1.0069   -1.6793    1.2552 H   0  0  0  0  0  0  0  0  0  0  0  0
   -2.0430   -2.2324   -0.1008 H   0  0  0  0  0  0  0  0  0  0  0  0
   -0.3672   -1.7086   -0.4285 H   0  0  0  0  0  0  0  0  0  0  0  0
   -3.4100    1.0882    0.6093 H   0  0  0  0  0  0  0  0  0  0  0  0
   -3.7918   -0.6536    0.3893 H   0  0  0  0  0  0  0  0  0  0  0  0
   -2.8613   -0.1148    1.8281 H   0  0  0  0  0  0  0  0  0  0  0  0
   -2.2521    1.1818   -1.6276 H   0  0  0  0  0  0  0  0  0  0  0  0
   -1.1213   -0.1557   -2.0613 H   0  0  0  0  0  0  0  0  0  0  0  0
   -2.8481   -0.5005   -1.7951 H   0  0  0  0  0  0  0  0  0  0  0  0
    0.6266    0.9658   -1.2609 H   0  0  0  0  0  0  0  0  0  0  0  0
    1.7998    0.2470    1.4840 H   0  0  0  0  0  0  0  0  0  0  0  0
    4.4502   -0.9958   -0.5679 H   0  0  0  0  0  0  0  0  0  0  0  0
    2.8359   -1.7166   -0.4265 H   0  0  0  0  0  0  0  0  0  0  0  0
    3.7118   -1.1496    1.0364 H   0  0  0  0  0  0  0  0  0  0  0  0
  1  8  1  0  0  0  0
  1  9  1  0  0  0  0
  2  3  1  0  0  0  0
  2  4  1  0  0  0  0
  2  5  1  0  0  0  0
  2  6  1  0  0  0  0
  3  7  1  0  0  0  0
  3 10  1  0  0  0  0
  3 11  1  0  0  0  0
  4 12  1  0  0  0  0
  4 13  1  0  0  0  0
  4 14  1  0  0  0  0
  5 15  1  0  0  0  0
  5 16  1  0  0  0  0
  5 17  1  0  0  0  0
  6 18  1  0  0  0  0
  6 19  1  0  0  0  0
  6 20  1  0  0  0  0
  7  8  2  0  0  0  0
  7 21  1  0  0  0  0
  8 22  1  0  0  0  0
  9 23  1  0  0  0  0
  9 24  1  0  0  0  0
  9 25  1  0  0  0  0
M  CHG  1   2   1
M  END
> <PUBCHEM_COMPOUND_CID>
11541

> <PUBCHEM_CONFORMER_RMSD>
0.6

> <PUBCHEM_CONFORMER_DIVERSEORDER>
1
4
2
3

> <PUBCHEM_MMFF94_PARTIAL_CHARGES>
11
1 -0.36
2 -1.01
21 0.15
22 0.15
3 0.64
4 0.5
5 0.5
6 0.5
7 -0.29
8 -0.07
9 0.28

> <PUBCHEM_EFFECTIVE_ROTOR_COUNT>
3

> <PUBCHEM_PHARMACOPHORE_FEATURES>
2
1 1 acceptor
1 2 cation

> <PUBCHEM_HEAVY_ATOM_COUNT>
9

> <PUBCHEM_ATOM_DEF_STEREO_COUNT>
0

> <PUBCHEM_ATOM_UDEF_STEREO_COUNT>
0

> <PUBCHEM_BOND_DEF_STEREO_COUNT>
0

> <PUBCHEM_BOND_UDEF_STEREO_COUNT>
1

> <PUBCHEM_ISOTOPIC_ATOM_COUNT>
0

> <PUBCHEM_COMPONENT_COUNT>
1

> <PUBCHEM_CACTVS_TAUTO_COUNT>
1

> <PUBCHEM_CONFORMER_ID>
00002D1500000001

> <PUBCHEM_MMFF94_ENERGY>
29.6695

> <PUBCHEM_FEATURE_SELFOVERLAP>
10.148

> <PUBCHEM_SHAPE_FINGERPRINT>
10857977 72 6050155687846282519
11062470 55 5833993832435267921
12897270 3 15626225693173110576
12932764 1 17560810904839915568
14390081 3 9079123249742540434
15310529 11 16558758926660767712
20201158 50 18335420196872729838
20653085 51 17060622230230503085
21293036 1 15626213607483221288
23235685 24 18409449193472830011
23380061 50 4823207303841771918
23402539 116 15430041002393698073
23552423 10 18199467658324344488
3248919 1 18334584499273704968
369184 2 15719393919112229625

> <PUBCHEM_SHAPE_MULTIPOLES>
174.37
5.28
1.18
0.99
3.49
0.38
0.3
0.99
-0.14
0.06
-0.1
-0.71
-0.06
0.05

> <PUBCHEM_SHAPE_SELFOVERLAP>
312.186

> <PUBCHEM_SHAPE_VOLUME>
115.8

> <PUBCHEM_COORDINATE_TYPE>
2
5
10

$$$$

