17395988
  -OEChem-06241222532D

 51 52  0     1  0  0  0  0  0999 V2000
    8.4833   -1.1193    0.0000 O   0  0  0  0  0  0  0  0  0  0  0  0
    3.4013    1.6012    0.0000 O   0  0  0  0  0  0  0  0  0  0  0  0
    6.7512   -2.1193    0.0000 O   0  0  0  0  0  0  0  0  0  0  0  0
    4.9836    2.3057    0.0000 O   0  0  0  0  0  0  0  0  0  0  0  0
    9.3493    0.3807    0.0000 O   0  0  0  0  0  0  0  0  0  0  0  0
    4.9716   -1.0260    0.0000 N   0  0  0  0  0  0  0  0  0  0  0  0
   11.0813    0.3807    0.0000 N   0  0  0  0  0  0  0  0  0  0  0  0
    5.8852   -0.6193    0.0000 C   0  0  0  0  0  0  0  0  0  0  0  0
    5.7807    0.3752    0.0000 C   0  0  0  0  0  0  0  0  0  0  0  0
    4.8025    0.5831    0.0000 C   0  0  0  0  0  0  0  0  0  0  0  0
    4.3025   -0.2829    0.0000 C   0  0  0  0  0  0  0  0  0  0  0  0
    6.7512   -1.1193    0.0000 C   0  0  0  0  0  0  0  0  0  0  0  0
    7.6172   -0.6193    0.0000 C   0  0  3  0  0  0  0  0  0  0  0  0
    6.5238    1.0444    0.0000 C   0  0  0  0  0  0  0  0  0  0  0  0
    3.3080   -0.3874    0.0000 C   0  0  0  0  0  0  0  0  0  0  0  0
    4.3958    1.4967    0.0000 C   0  0  0  0  0  0  0  0  0  0  0  0
    7.6172    0.3807    0.0000 C   0  0  0  0  0  0  0  0  0  0  0  0
   10.2153   -1.1193    0.0000 C   0  0  0  0  0  0  0  0  0  0  0  0
    9.3493   -0.6193    0.0000 C   0  0  0  0  0  0  0  0  0  0  0  0
   11.0813   -0.6193    0.0000 C   0  0  0  0  0  0  0  0  0  0  0  0
   11.9474   -1.1193    0.0000 C   0  0  0  0  0  0  0  0  0  0  0  0
   10.2153   -2.1193    0.0000 C   0  0  0  0  0  0  0  0  0  0  0  0
    2.9945    2.5148    0.0000 C   0  0  0  0  0  0  0  0  0  0  0  0
   11.9474   -2.1193    0.0000 C   0  0  0  0  0  0  0  0  0  0  0  0
   11.0813   -2.6193    0.0000 C   0  0  0  0  0  0  0  0  0  0  0  0
   12.8134   -0.6193    0.0000 C   0  0  0  0  0  0  0  0  0  0  0  0
    2.0000    2.6193    0.0000 C   0  0  0  0  0  0  0  0  0  0  0  0
    4.8427   -1.6325    0.0000 H   0  0  0  0  0  0  0  0  0  0  0  0
    7.6172   -1.2393    0.0000 H   0  0  0  0  0  0  0  0  0  0  0  0
    6.9387    0.5836    0.0000 H   0  0  0  0  0  0  0  0  0  0  0  0
    6.9846    1.4592    0.0000 H   0  0  0  0  0  0  0  0  0  0  0  0
    6.1090    1.5051    0.0000 H   0  0  0  0  0  0  0  0  0  0  0  0
    3.2432    0.2292    0.0000 H   0  0  0  0  0  0  0  0  0  0  0  0
    2.6914   -0.4522    0.0000 H   0  0  0  0  0  0  0  0  0  0  0  0
    3.3728   -1.0040    0.0000 H   0  0  0  0  0  0  0  0  0  0  0  0
    8.2372    0.3807    0.0000 H   0  0  0  0  0  0  0  0  0  0  0  0
    7.6172    1.0007    0.0000 H   0  0  0  0  0  0  0  0  0  0  0  0
    6.9972    0.3807    0.0000 H   0  0  0  0  0  0  0  0  0  0  0  0
    9.6784   -2.4293    0.0000 H   0  0  0  0  0  0  0  0  0  0  0  0
   12.4843   -2.4293    0.0000 H   0  0  0  0  0  0  0  0  0  0  0  0
    3.5961    2.6648    0.0000 H   0  0  0  0  0  0  0  0  0  0  0  0
    2.9513    3.1332    0.0000 H   0  0  0  0  0  0  0  0  0  0  0  0
   11.0813   -3.2393    0.0000 H   0  0  0  0  0  0  0  0  0  0  0  0
   13.1234   -1.1562    0.0000 H   0  0  0  0  0  0  0  0  0  0  0  0
   13.3503   -0.3093    0.0000 H   0  0  0  0  0  0  0  0  0  0  0  0
   12.5034   -0.0824    0.0000 H   0  0  0  0  0  0  0  0  0  0  0  0
   11.6183    0.6907    0.0000 H   0  0  0  0  0  0  0  0  0  0  0  0
   10.5444    0.6907    0.0000 H   0  0  0  0  0  0  0  0  0  0  0  0
    2.0648    3.2359    0.0000 H   0  0  0  0  0  0  0  0  0  0  0  0
    1.3834    2.6841    0.0000 H   0  0  0  0  0  0  0  0  0  0  0  0
    1.9352    2.0027    0.0000 H   0  0  0  0  0  0  0  0  0  0  0  0
  1 13  1  0  0  0  0
  1 19  1  0  0  0  0
  2 16  1  0  0  0  0
  2 23  1  0  0  0  0
  3 12  2  0  0  0  0
  4 16  2  0  0  0  0
  5 19  2  0  0  0  0
  6  8  1  0  0  0  0
  6 11  1  0  0  0  0
  6 28  1  0  0  0  0
  7 20  1  0  0  0  0
  7 47  1  0  0  0  0
  7 48  1  0  0  0  0
  8  9  2  0  0  0  0
  8 12  1  0  0  0  0
  9 10  1  0  0  0  0
  9 14  1  0  0  0  0
 10 11  2  0  0  0  0
 10 16  1  0  0  0  0
 11 15  1  0  0  0  0
 12 13  1  0  0  0  0
 13 17  1  0  0  0  0
 13 29  1  0  0  0  0
 14 30  1  0  0  0  0
 14 31  1  0  0  0  0
 14 32  1  0  0  0  0
 15 33  1  0  0  0  0
 15 34  1  0  0  0  0
 15 35  1  0  0  0  0
 17 36  1  0  0  0  0
 17 37  1  0  0  0  0
 17 38  1  0  0  0  0
 18 19  1  0  0  0  0
 18 20  1  0  0  0  0
 18 22  2  0  0  0  0
 20 21  2  0  0  0  0
 21 24  1  0  0  0  0
 21 26  1  0  0  0  0
 22 25  1  0  0  0  0
 22 39  1  0  0  0  0
 23 27  1  0  0  0  0
 23 41  1  0  0  0  0
 23 42  1  0  0  0  0
 24 25  2  0  0  0  0
 24 40  1  0  0  0  0
 25 43  1  0  0  0  0
 26 44  1  0  0  0  0
 26 45  1  0  0  0  0
 26 46  1  0  0  0  0
 27 49  1  0  0  0  0
 27 50  1  0  0  0  0
 27 51  1  0  0  0  0
M  END
> <PUBCHEM_COMPOUND_CID>
17395988

> <PUBCHEM_COMPOUND_CANONICALIZED>
1

> <PUBCHEM_CACTVS_COMPLEXITY>
567

> <PUBCHEM_CACTVS_HBOND_ACCEPTOR>
6

> <PUBCHEM_CACTVS_HBOND_DONOR>
2

> <PUBCHEM_CACTVS_ROTATABLE_BOND>
8

> <PUBCHEM_CACTVS_SUBSKEYS>
AAADceB7OAAAAAAAAAAAAAAAAAAAAWAAAAAwAAAAAAAAAAABwAAAHgAQAAAADByhngIyyJLJlACoA6TyTAKCgCAnACAImSHwTNgIJnrAtb2GMYhm0AHI6ce8z/C+gAACAAACAAAAAAQAAAQAAAAAAAAAAA==

> <PUBCHEM_IUPAC_OPENEYE_NAME>
ethyl 5-[2-(2-amino-3-methyl-benzoyl)oxypropanoyl]-2,4-dimethyl-1H-pyrrole-3-carboxylate

> <PUBCHEM_IUPAC_CAS_NAME>
5-[2-[(2-amino-3-methylphenyl)-oxomethoxy]-1-oxopropyl]-2,4-dimethyl-1H-pyrrole-3-carboxylic acid ethyl ester

> <PUBCHEM_IUPAC_NAME>
ethyl 5-[2-(2-amino-3-methylbenzoyl)oxypropanoyl]-2,4-dimethyl-1H-pyrrole-3-carboxylate

> <PUBCHEM_IUPAC_SYSTEMATIC_NAME>
ethyl 5-[2-(2-azanyl-3-methyl-phenyl)carbonyloxypropanoyl]-2,4-dimethyl-1H-pyrrole-3-carboxylate

> <PUBCHEM_IUPAC_TRADITIONAL_NAME>
5-[2-(2-amino-3-methyl-benzoyl)oxypropanoyl]-2,4-dimethyl-1H-pyrrole-3-carboxylic acid ethyl ester

> <PUBCHEM_IUPAC_INCHI>
InChI=1S/C20H24N2O5/c1-6-26-20(25)15-11(3)17(22-12(15)4)18(23)13(5)27-19(24)14-9-7-8-10(2)16(14)21/h7-9,13,22H,6,21H2,1-5H3

> <PUBCHEM_IUPAC_INCHIKEY>
FZPIYJVHORSASI-UHFFFAOYSA-N

> <PUBCHEM_XLOGP3_AA>
3.9

> <PUBCHEM_EXACT_MASS>
372.168522

> <PUBCHEM_MOLECULAR_FORMULA>
C20H24N2O5

> <PUBCHEM_MOLECULAR_WEIGHT>
372.41496

> <PUBCHEM_OPENEYE_CAN_SMILES>
CCOC(=O)C1=C(NC(=C1C)C(=O)C(C)OC(=O)C2=C(C(=CC=C2)C)N)C

> <PUBCHEM_OPENEYE_ISO_SMILES>
CCOC(=O)C1=C(NC(=C1C)C(=O)C(C)OC(=O)C2=C(C(=CC=C2)C)N)C

> <PUBCHEM_CACTVS_TPSA>
112

> <PUBCHEM_MONOISOTOPIC_WEIGHT>
372.168522

> <PUBCHEM_TOTAL_CHARGE>
0

> <PUBCHEM_HEAVY_ATOM_COUNT>
27

> <PUBCHEM_ATOM_DEF_STEREO_COUNT>
0

> <PUBCHEM_ATOM_UDEF_STEREO_COUNT>
1

> <PUBCHEM_BOND_DEF_STEREO_COUNT>
0

> <PUBCHEM_BOND_UDEF_STEREO_COUNT>
0

> <PUBCHEM_ISOTOPIC_ATOM_COUNT>
0

> <PUBCHEM_COMPONENT_COUNT>
1

> <PUBCHEM_CACTVS_TAUTO_COUNT>
132

> <PUBCHEM_COORDINATE_TYPE>
1
5
255

> <PUBCHEM_BONDANNOTATIONS>
10  11  8
13  17  3
18  20  8
18  22  8
20  21  8
21  24  8
22  25  8
24  25  8
6  11  8
6  8  8
8  9  8
9  10  8

$$$$

