13067
  -OEChem-06261207432D

 28 29  0     0  0  0  0  0  0999 V2000
    6.2781    1.5747    0.0000 O   0  0  0  0  0  0  0  0  0  0  0  0
    6.6353   -0.1202    0.0000 O   0  0  0  0  0  0  0  0  0  0  0  0
    4.6783   -2.1421    0.0000 N   0  0  0  0  0  0  0  0  0  0  0  0
    4.6783   -0.5326    0.0000 C   0  0  0  0  0  0  0  0  0  0  0  0
    3.7320   -0.8373    0.0000 C   0  0  0  0  0  0  0  0  0  0  0  0
    3.7320   -1.8373    0.0000 C   0  0  0  0  0  0  0  0  0  0  0  0
    4.9889    0.4179    0.0000 C   0  0  0  0  0  0  0  0  0  0  0  0
    5.2619   -1.3373    0.0000 C   0  0  0  0  0  0  0  0  0  0  0  0
    2.8660   -0.3373    0.0000 C   0  0  0  0  0  0  0  0  0  0  0  0
    2.8660   -2.3373    0.0000 C   0  0  0  0  0  0  0  0  0  0  0  0
    5.9674    0.6241    0.0000 C   0  0  0  0  0  0  0  0  0  0  0  0
    2.0000   -0.8373    0.0000 C   0  0  0  0  0  0  0  0  0  0  0  0
    2.0000   -1.8373    0.0000 C   0  0  0  0  0  0  0  0  0  0  0  0
    7.2566    1.7809    0.0000 C   0  0  0  0  0  0  0  0  0  0  0  0
    7.5673    2.7314    0.0000 C   0  0  0  0  0  0  0  0  0  0  0  0
    4.9684    1.0376    0.0000 H   0  0  0  0  0  0  0  0  0  0  0  0
    4.3751    0.5053    0.0000 H   0  0  0  0  0  0  0  0  0  0  0  0
    5.8819   -1.3373    0.0000 H   0  0  0  0  0  0  0  0  0  0  0  0
    4.8709   -2.7314    0.0000 H   0  0  0  0  0  0  0  0  0  0  0  0
    2.8660    0.2827    0.0000 H   0  0  0  0  0  0  0  0  0  0  0  0
    2.8660   -2.9573    0.0000 H   0  0  0  0  0  0  0  0  0  0  0  0
    1.4631   -0.5273    0.0000 H   0  0  0  0  0  0  0  0  0  0  0  0
    1.4631   -2.1473    0.0000 H   0  0  0  0  0  0  0  0  0  0  0  0
    7.2772    1.1612    0.0000 H   0  0  0  0  0  0  0  0  0  0  0  0
    7.8704    1.6935    0.0000 H   0  0  0  0  0  0  0  0  0  0  0  0
    8.1566    2.5388    0.0000 H   0  0  0  0  0  0  0  0  0  0  0  0
    7.7599    3.3207    0.0000 H   0  0  0  0  0  0  0  0  0  0  0  0
    6.9780    2.9240    0.0000 H   0  0  0  0  0  0  0  0  0  0  0  0
  1 11  1  0  0  0  0
  1 14  1  0  0  0  0
  2 11  2  0  0  0  0
  3  6  1  0  0  0  0
  3  8  1  0  0  0  0
  3 19  1  0  0  0  0
  4  5  1  0  0  0  0
  4  7  1  0  0  0  0
  4  8  2  0  0  0  0
  5  6  1  0  0  0  0
  5  9  2  0  0  0  0
  6 10  2  0  0  0  0
  7 11  1  0  0  0  0
  7 16  1  0  0  0  0
  7 17  1  0  0  0  0
  8 18  1  0  0  0  0
  9 12  1  0  0  0  0
  9 20  1  0  0  0  0
 10 13  1  0  0  0  0
 10 21  1  0  0  0  0
 12 13  2  0  0  0  0
 12 22  1  0  0  0  0
 13 23  1  0  0  0  0
 14 15  1  0  0  0  0
 14 24  1  0  0  0  0
 14 25  1  0  0  0  0
 15 26  1  0  0  0  0
 15 27  1  0  0  0  0
 15 28  1  0  0  0  0
M  END
> <PUBCHEM_COMPOUND_CID>
13067

> <PUBCHEM_COMPOUND_CANONICALIZED>
1

> <PUBCHEM_CACTVS_COMPLEXITY>
230

> <PUBCHEM_CACTVS_HBOND_ACCEPTOR>
2

> <PUBCHEM_CACTVS_HBOND_DONOR>
1

> <PUBCHEM_CACTVS_ROTATABLE_BOND>
4

> <PUBCHEM_CACTVS_SUBSKEYS>
AAADccByMAAAAAAAAAAAAAAAAAAAAWAAAAAwAAAAAAAAAFgB8AAAHgAQAAAADAjhngY+yPLJlACoAzT3TACCgCAxAiAI2aE4ZJgIIPLAlZGGIAhk0AHIyAe82eOegAAAAAACAAAAAAAAAAQAAAAAAAAAAA==

> <PUBCHEM_IUPAC_OPENEYE_NAME>
ethyl 2-(1H-indol-3-yl)acetate

> <PUBCHEM_IUPAC_CAS_NAME>
2-(1H-indol-3-yl)acetic acid ethyl ester

> <PUBCHEM_IUPAC_NAME>
ethyl 2-(1H-indol-3-yl)acetate

> <PUBCHEM_IUPAC_SYSTEMATIC_NAME>
ethyl 2-(1H-indol-3-yl)ethanoate

> <PUBCHEM_IUPAC_TRADITIONAL_NAME>
2-(1H-indol-3-yl)acetic acid ethyl ester

> <PUBCHEM_IUPAC_INCHI>
InChI=1S/C12H13NO2/c1-2-15-12(14)7-9-8-13-11-6-4-3-5-10(9)11/h3-6,8,13H,2,7H2,1H3

> <PUBCHEM_IUPAC_INCHIKEY>
HUDBDWIQSIGUDI-UHFFFAOYSA-N

> <PUBCHEM_XLOGP3>
2.1

> <PUBCHEM_EXACT_MASS>
203.094629

> <PUBCHEM_MOLECULAR_FORMULA>
C12H13NO2

> <PUBCHEM_MOLECULAR_WEIGHT>
203.23712

> <PUBCHEM_OPENEYE_CAN_SMILES>
CCOC(=O)CC1=CNC2=CC=CC=C21

> <PUBCHEM_OPENEYE_ISO_SMILES>
CCOC(=O)CC1=CNC2=CC=CC=C21

> <PUBCHEM_CACTVS_TPSA>
42.1

> <PUBCHEM_MONOISOTOPIC_WEIGHT>
203.094629

> <PUBCHEM_TOTAL_CHARGE>
0

> <PUBCHEM_HEAVY_ATOM_COUNT>
15

> <PUBCHEM_ATOM_DEF_STEREO_COUNT>
0

> <PUBCHEM_ATOM_UDEF_STEREO_COUNT>
0

> <PUBCHEM_BOND_DEF_STEREO_COUNT>
0

> <PUBCHEM_BOND_UDEF_STEREO_COUNT>
0

> <PUBCHEM_ISOTOPIC_ATOM_COUNT>
0

> <PUBCHEM_COMPONENT_COUNT>
1

> <PUBCHEM_CACTVS_TAUTO_COUNT>
1

> <PUBCHEM_COORDINATE_TYPE>
1
5
255

> <PUBCHEM_BONDANNOTATIONS>
10  13  8
12  13  8
3  6  8
3  8  8
4  5  8
4  8  8
5  6  8
5  9  8
6  10  8
9  12  8

$$$$

