189457
  -OEChem-07051212562D

 64 66  0     0  0  0  0  0  0999 V2000
    9.3900   -1.3580    0.0000 O   0  0  0  0  0  0  0  0  0  0  0  0
    7.6300    1.6766    0.0000 O   0  0  0  0  0  0  0  0  0  0  0  0
    5.8980   -1.3234    0.0000 O   0  0  0  0  0  0  0  0  0  0  0  0
    6.5820    2.5560    0.0000 O   0  0  0  0  0  0  0  0  0  0  0  0
    8.4960   -2.8234    0.0000 O   0  0  0  0  0  0  0  0  0  0  0  0
    3.9284    0.3293    0.0000 O   0  0  0  0  0  0  0  0  0  0  0  0
    3.3268    3.7408    0.0000 O   0  0  0  0  0  0  0  0  0  0  0  0
    2.3008    0.9217    0.0000 O   0  0  0  0  0  0  0  0  0  0  0  0
   10.2961   -0.8442    0.0000 C   0  0  0  0  0  0  0  0  0  0  0  0
    8.4960   -0.8234    0.0000 C   0  0  0  0  0  0  0  0  0  0  0  0
    8.4960    0.1766    0.0000 C   0  0  0  0  0  0  0  0  0  0  0  0
    6.7640    0.1766    0.0000 C   0  0  0  0  0  0  0  0  0  0  0  0
    7.6300   -1.3234    0.0000 C   0  0  0  0  0  0  0  0  0  0  0  0
    5.8980    0.6766    0.0000 C   0  0  0  0  0  0  0  0  0  0  0  0
    7.6300    0.6766    0.0000 C   0  0  0  0  0  0  0  0  0  0  0  0
    6.7640   -0.8234    0.0000 C   0  0  0  0  0  0  0  0  0  0  0  0
   10.2961    0.1974    0.0000 C   0  0  0  0  0  0  0  0  0  0  0  0
    9.3900    0.7113    0.0000 C   0  0  0  0  0  0  0  0  0  0  0  0
    5.2552    1.4426    0.0000 C   0  0  0  0  0  0  0  0  0  0  0  0
   11.2961   -0.8481    0.0000 C   0  0  0  0  0  0  0  0  0  0  0  0
   10.7927   -1.7122    0.0000 C   0  0  0  0  0  0  0  0  0  0  0  0
    7.6300   -2.3234    0.0000 C   0  0  0  0  0  0  0  0  0  0  0  0
    5.5972    2.3823    0.0000 C   0  0  0  0  0  0  0  0  0  0  0  0
    6.7640   -2.8234    0.0000 C   0  0  0  0  0  0  0  0  0  0  0  0
    4.2704    1.2690    0.0000 C   0  0  0  0  0  0  0  0  0  0  0  0
    4.9544    3.1484    0.0000 C   0  0  0  0  0  0  0  0  0  0  0  0
    3.6276    2.0350    0.0000 C   0  0  0  0  0  0  0  0  0  0  0  0
    3.9696    2.9747    0.0000 C   0  0  0  0  0  0  0  0  0  0  0  0
    6.7640   -3.8234    0.0000 C   0  0  0  0  0  0  0  0  0  0  0  0
    5.2964    4.0881    0.0000 C   0  0  0  0  0  0  0  0  0  0  0  0
    2.6428    1.8614    0.0000 C   0  0  0  0  0  0  0  0  0  0  0  0
    5.8980   -4.3234    0.0000 C   0  0  0  0  0  0  0  0  0  0  0  0
    2.0000    2.6274    0.0000 C   0  0  0  0  0  0  0  0  0  0  0  0
    6.9240    3.4957    0.0000 C   0  0  0  0  0  0  0  0  0  0  0  0
    5.3040    0.4988    0.0000 H   0  0  0  0  0  0  0  0  0  0  0  0
    6.2965    1.1516    0.0000 H   0  0  0  0  0  0  0  0  0  0  0  0
   10.8318    0.5095    0.0000 H   0  0  0  0  0  0  0  0  0  0  0  0
    9.3828    1.3312    0.0000 H   0  0  0  0  0  0  0  0  0  0  0  0
   10.2546   -2.0201    0.0000 H   0  0  0  0  0  0  0  0  0  0  0  0
   11.1006   -2.2503    0.0000 H   0  0  0  0  0  0  0  0  0  0  0  0
   11.3308   -1.4042    0.0000 H   0  0  0  0  0  0  0  0  0  0  0  0
   11.2937   -1.4681    0.0000 H   0  0  0  0  0  0  0  0  0  0  0  0
   11.9161   -0.8505    0.0000 H   0  0  0  0  0  0  0  0  0  0  0  0
   11.2984   -0.2281    0.0000 H   0  0  0  0  0  0  0  0  0  0  0  0
    6.5520   -2.2408    0.0000 H   0  0  0  0  0  0  0  0  0  0  0  0
    6.1534   -2.9311    0.0000 H   0  0  0  0  0  0  0  0  0  0  0  0
    6.9761   -4.4060    0.0000 H   0  0  0  0  0  0  0  0  0  0  0  0
    7.3746   -3.7157    0.0000 H   0  0  0  0  0  0  0  0  0  0  0  0
    8.1670    1.9866    0.0000 H   0  0  0  0  0  0  0  0  0  0  0  0
    5.8980   -1.9434    0.0000 H   0  0  0  0  0  0  0  0  0  0  0  0
    5.8790    3.8760    0.0000 H   0  0  0  0  0  0  0  0  0  0  0  0
    5.5085    4.6707    0.0000 H   0  0  0  0  0  0  0  0  0  0  0  0
    4.7138    4.3001    0.0000 H   0  0  0  0  0  0  0  0  0  0  0  0
    5.5880   -3.7865    0.0000 H   0  0  0  0  0  0  0  0  0  0  0  0
    5.3610   -4.6334    0.0000 H   0  0  0  0  0  0  0  0  0  0  0  0
    6.2080   -4.8603    0.0000 H   0  0  0  0  0  0  0  0  0  0  0  0
    4.3269   -0.1456    0.0000 H   0  0  0  0  0  0  0  0  0  0  0  0
    3.5389    4.3234    0.0000 H   0  0  0  0  0  0  0  0  0  0  0  0
    2.4750    3.0260    0.0000 H   0  0  0  0  0  0  0  0  0  0  0  0
    1.6015    3.1024    0.0000 H   0  0  0  0  0  0  0  0  0  0  0  0
    1.5250    2.2289    0.0000 H   0  0  0  0  0  0  0  0  0  0  0  0
    7.5066    3.2836    0.0000 H   0  0  0  0  0  0  0  0  0  0  0  0
    7.1361    4.0783    0.0000 H   0  0  0  0  0  0  0  0  0  0  0  0
    6.3414    3.7077    0.0000 H   0  0  0  0  0  0  0  0  0  0  0  0
  1  9  1  0  0  0  0
  1 10  1  0  0  0  0
  2 15  1  0  0  0  0
  2 49  1  0  0  0  0
  3 16  1  0  0  0  0
  3 50  1  0  0  0  0
  4 23  1  0  0  0  0
  4 34  1  0  0  0  0
  5 22  2  0  0  0  0
  6 25  1  0  0  0  0
  6 57  1  0  0  0  0
  7 28  1  0  0  0  0
  7 58  1  0  0  0  0
  8 31  2  0  0  0  0
  9 17  1  0  0  0  0
  9 20  1  0  0  0  0
  9 21  1  0  0  0  0
 10 11  1  0  0  0  0
 10 13  2  0  0  0  0
 11 15  2  0  0  0  0
 11 18  1  0  0  0  0
 12 14  1  0  0  0  0
 12 15  1  0  0  0  0
 12 16  2  0  0  0  0
 13 16  1  0  0  0  0
 13 22  1  0  0  0  0
 14 19  1  0  0  0  0
 14 35  1  0  0  0  0
 14 36  1  0  0  0  0
 17 18  2  0  0  0  0
 17 37  1  0  0  0  0
 18 38  1  0  0  0  0
 19 23  2  0  0  0  0
 19 25  1  0  0  0  0
 20 42  1  0  0  0  0
 20 43  1  0  0  0  0
 20 44  1  0  0  0  0
 21 39  1  0  0  0  0
 21 40  1  0  0  0  0
 21 41  1  0  0  0  0
 22 24  1  0  0  0  0
 23 26  1  0  0  0  0
 24 29  1  0  0  0  0
 24 45  1  0  0  0  0
 24 46  1  0  0  0  0
 25 27  2  0  0  0  0
 26 28  2  0  0  0  0
 26 30  1  0  0  0  0
 27 28  1  0  0  0  0
 27 31  1  0  0  0  0
 29 32  1  0  0  0  0
 29 47  1  0  0  0  0
 29 48  1  0  0  0  0
 30 51  1  0  0  0  0
 30 52  1  0  0  0  0
 30 53  1  0  0  0  0
 31 33  1  0  0  0  0
 32 54  1  0  0  0  0
 32 55  1  0  0  0  0
 32 56  1  0  0  0  0
 33 59  1  0  0  0  0
 33 60  1  0  0  0  0
 33 61  1  0  0  0  0
 34 62  1  0  0  0  0
 34 63  1  0  0  0  0
 34 64  1  0  0  0  0
M  END
> <PUBCHEM_COMPOUND_CID>
189457

> <PUBCHEM_COMPOUND_CANONICALIZED>
1

> <PUBCHEM_CACTVS_COMPLEXITY>
779

> <PUBCHEM_CACTVS_HBOND_ACCEPTOR>
8

> <PUBCHEM_CACTVS_HBOND_DONOR>
4

> <PUBCHEM_CACTVS_ROTATABLE_BOND>
7

> <PUBCHEM_CACTVS_SUBSKEYS>
AAADceB4PAAAAAAAAAAAAAAAAAAAAAAAAAAwYIAAAAAAAACBQAAAGgAACAAADESAmAICBoAABgCIAqBSAAACCAAkIAAIiAEECMgMJzaGNBqCeWCl4BUIuQeI7OzOIAACCAAIAABAAAQQABAAAAAAAAAAAA==

> <PUBCHEM_IUPAC_OPENEYE_NAME>
1-[6-[(3-acetyl-2,4-dihydroxy-6-methoxy-5-methyl-phenyl)methyl]-5,7-dihydroxy-2,2-dimethyl-chromen-8-yl]butan-1-one

> <PUBCHEM_IUPAC_CAS_NAME>
1-[6-[(3-acetyl-2,4-dihydroxy-6-methoxy-5-methylphenyl)methyl]-5,7-dihydroxy-2,2-dimethyl-1-benzopyran-8-yl]-1-butanone

> <PUBCHEM_IUPAC_NAME>
1-[6-[(3-acetyl-2,4-dihydroxy-6-methoxy-5-methylphenyl)methyl]-5,7-dihydroxy-2,2-dimethylchromen-8-yl]butan-1-one

> <PUBCHEM_IUPAC_SYSTEMATIC_NAME>
1-[6-[[5-ethanoyl-2-methoxy-3-methyl-4,6-bis(oxidanyl)phenyl]methyl]-2,2-dimethyl-5,7-bis(oxidanyl)chromen-8-yl]butan-1-one

> <PUBCHEM_IUPAC_TRADITIONAL_NAME>
1-[6-(3-acetyl-2,4-dihydroxy-6-methoxy-5-methyl-benzyl)-5,7-dihydroxy-2,2-dimethyl-chromen-8-yl]butan-1-one

> <PUBCHEM_IUPAC_INCHI>
InChI=1S/C26H30O8/c1-7-8-17(28)19-22(31)15(21(30)14-9-10-26(4,5)34-25(14)19)11-16-23(32)18(13(3)27)20(29)12(2)24(16)33-6/h9-10,29-32H,7-8,11H2,1-6H3

> <PUBCHEM_IUPAC_INCHIKEY>
KQDGTUWOPKXJII-UHFFFAOYSA-N

> <PUBCHEM_XLOGP3_AA>
5

> <PUBCHEM_EXACT_MASS>
470.194068

> <PUBCHEM_MOLECULAR_FORMULA>
C26H30O8

> <PUBCHEM_MOLECULAR_WEIGHT>
470.5116

> <PUBCHEM_OPENEYE_CAN_SMILES>
CCCC(=O)C1=C(C(=C(C2=C1OC(C=C2)(C)C)O)CC3=C(C(=C(C(=C3OC)C)O)C(=O)C)O)O

> <PUBCHEM_OPENEYE_ISO_SMILES>
CCCC(=O)C1=C(C(=C(C2=C1OC(C=C2)(C)C)O)CC3=C(C(=C(C(=C3OC)C)O)C(=O)C)O)O

> <PUBCHEM_CACTVS_TPSA>
134

> <PUBCHEM_MONOISOTOPIC_WEIGHT>
470.194068

> <PUBCHEM_TOTAL_CHARGE>
0

> <PUBCHEM_HEAVY_ATOM_COUNT>
34

> <PUBCHEM_ATOM_DEF_STEREO_COUNT>
0

> <PUBCHEM_ATOM_UDEF_STEREO_COUNT>
0

> <PUBCHEM_BOND_DEF_STEREO_COUNT>
0

> <PUBCHEM_BOND_UDEF_STEREO_COUNT>
0

> <PUBCHEM_ISOTOPIC_ATOM_COUNT>
0

> <PUBCHEM_COMPONENT_COUNT>
1

> <PUBCHEM_CACTVS_TAUTO_COUNT>
594

> <PUBCHEM_COORDINATE_TYPE>
1
5
255

> <PUBCHEM_BONDANNOTATIONS>
10  11  8
10  13  8
11  15  8
12  15  8
12  16  8
13  16  8
19  23  8
19  25  8
23  26  8
25  27  8
26  28  8
27  28  8

$$$$

