5459897
  -OEChem-07051212482D

 21 20  0     1  0  0  0  0  0999 V2000
    3.4030   -0.0950    0.0000 P   0  0  0  0  0  0  0  0  0  0  0  0
    4.2690    0.4050    0.0000 O   0  0  0  0  0  0  0  0  0  0  0  0
    6.8671   -1.0950    0.0000 O   0  0  0  0  0  0  0  0  0  0  0  0
    8.5991   -0.0950    0.0000 O   0  0  0  0  0  0  0  0  0  0  0  0
    6.0010    1.4050    0.0000 O   0  0  0  0  0  0  0  0  0  0  0  0
    2.5369   -0.5950    0.0000 O   0  0  0  0  0  0  0  0  0  0  0  0
    2.9030    0.7710    0.0000 O   0  0  0  0  0  0  0  0  0  0  0  0
    3.9030   -0.9610    0.0000 O   0  0  0  0  0  0  0  0  0  0  0  0
    6.8671   -0.0950    0.0000 C   0  0  2  0  0  0  0  0  0  0  0  0
    6.0010    0.4050    0.0000 C   0  0  0  0  0  0  0  0  0  0  0  0
    5.1350   -0.0950    0.0000 C   0  0  0  0  0  0  0  0  0  0  0  0
    7.7331    0.4050    0.0000 C   0  0  0  0  0  0  0  0  0  0  0  0
    6.3301   -0.4050    0.0000 H   0  0  0  0  0  0  0  0  0  0  0  0
    4.7365   -0.5699    0.0000 H   0  0  0  0  0  0  0  0  0  0  0  0
    5.5335   -0.5699    0.0000 H   0  0  0  0  0  0  0  0  0  0  0  0
    8.1316    0.8799    0.0000 H   0  0  0  0  0  0  0  0  0  0  0  0
    7.3346    0.8799    0.0000 H   0  0  0  0  0  0  0  0  0  0  0  0
    7.4040   -1.4050    0.0000 H   0  0  0  0  0  0  0  0  0  0  0  0
    9.1360    0.2150    0.0000 H   0  0  0  0  0  0  0  0  0  0  0  0
    2.0000   -0.2850    0.0000 H   0  0  0  0  0  0  0  0  0  0  0  0
    3.2130    1.3080    0.0000 H   0  0  0  0  0  0  0  0  0  0  0  0
  1  2  1  0  0  0  0
  1  6  1  0  0  0  0
  1  7  1  0  0  0  0
  1  8  2  0  0  0  0
  2 11  1  0  0  0  0
  9  3  1  6  0  0  0
  3 18  1  0  0  0  0
  4 12  1  0  0  0  0
  4 19  1  0  0  0  0
  5 10  2  0  0  0  0
  6 20  1  0  0  0  0
  7 21  1  0  0  0  0
  9 10  1  0  0  0  0
  9 12  1  0  0  0  0
  9 13  1  0  0  0  0
 10 11  1  0  0  0  0
 11 14  1  0  0  0  0
 11 15  1  0  0  0  0
 12 16  1  0  0  0  0
 12 17  1  0  0  0  0
M  END
> <PUBCHEM_COMPOUND_CID>
5459897

> <PUBCHEM_COMPOUND_CANONICALIZED>
1

> <PUBCHEM_CACTVS_COMPLEXITY>
196

> <PUBCHEM_CACTVS_HBOND_ACCEPTOR>
7

> <PUBCHEM_CACTVS_HBOND_DONOR>
4

> <PUBCHEM_CACTVS_ROTATABLE_BOND>
5

> <PUBCHEM_CACTVS_SUBSKEYS>
AAADccBgOAIAAAAAAAAAAAAAAAAAAAAAAAAAAAAAAAAAAAAAAAAAGgAACCAACBSggAIAAAAAAxAIQIAQAIIAAAAAAAAAAAFAAAABEAQAAAAAQAAFIAABAABAAAAAAAAAAAAAAAAAAAAAAAAAAAAAAAAAAA==

> <PUBCHEM_IUPAC_OPENEYE_NAME>
[(3S)-3,4-dihydroxy-2-oxo-butyl] dihydrogen phosphate

> <PUBCHEM_IUPAC_CAS_NAME>
[(3S)-3,4-dihydroxy-2-oxobutyl] dihydrogen phosphate

> <PUBCHEM_IUPAC_NAME>
[(3S)-3,4-dihydroxy-2-oxobutyl] dihydrogen phosphate

> <PUBCHEM_IUPAC_SYSTEMATIC_NAME>
[(3S)-3,4-bis(oxidanyl)-2-oxidanylidene-butyl] dihydrogen phosphate

> <PUBCHEM_IUPAC_TRADITIONAL_NAME>
[(3S)-3,4-dihydroxy-2-keto-butyl] dihydrogen phosphate

> <PUBCHEM_IUPAC_INCHI>
InChI=1S/C4H9O7P/c5-1-3(6)4(7)2-11-12(8,9)10/h3,5-6H,1-2H2,(H2,8,9,10)/t3-/m0/s1

> <PUBCHEM_IUPAC_INCHIKEY>
TZCZUVPSFJZERP-VKHMYHEASA-N

> <PUBCHEM_XLOGP3_AA>
-3.1

> <PUBCHEM_EXACT_MASS>
200.008589

> <PUBCHEM_MOLECULAR_FORMULA>
C4H9O7P

> <PUBCHEM_MOLECULAR_WEIGHT>
200.083822

> <PUBCHEM_OPENEYE_CAN_SMILES>
C(C(C(=O)COP(=O)(O)O)O)O

> <PUBCHEM_OPENEYE_ISO_SMILES>
C([C@@H](C(=O)COP(=O)(O)O)O)O

> <PUBCHEM_CACTVS_TPSA>
124

> <PUBCHEM_MONOISOTOPIC_WEIGHT>
200.008589

> <PUBCHEM_TOTAL_CHARGE>
0

> <PUBCHEM_HEAVY_ATOM_COUNT>
12

> <PUBCHEM_ATOM_DEF_STEREO_COUNT>
1

> <PUBCHEM_ATOM_UDEF_STEREO_COUNT>
0

> <PUBCHEM_BOND_DEF_STEREO_COUNT>
0

> <PUBCHEM_BOND_UDEF_STEREO_COUNT>
0

> <PUBCHEM_ISOTOPIC_ATOM_COUNT>
0

> <PUBCHEM_COMPONENT_COUNT>
1

> <PUBCHEM_CACTVS_TAUTO_COUNT>
6

> <PUBCHEM_COORDINATE_TYPE>
1
5
255

> <PUBCHEM_BONDANNOTATIONS>
9  3  6

$$$$

