9967418
  -OEChem-07051213112D

 56 59  0     1  0  0  0  0  0999 V2000
    7.9506   -2.2055    0.0000 O   0  0  0  0  0  0  0  0  0  0  0  0
    2.5357   -2.2264    0.0000 O   0  0  0  0  0  0  0  0  0  0  0  0
    8.5179    2.8255    0.0000 O   0  0  0  0  0  0  0  0  0  0  0  0
    7.9288   -0.1741    0.0000 C   0  0  2  0  0  0  0  0  0  0  0  0
    7.9288    0.8259    0.0000 C   0  0  2  0  0  0  0  0  0  0  0  0
    7.0628   -0.6741    0.0000 C   0  0  1  0  0  0  0  0  0  0  0  0
    6.1968   -0.1741    0.0000 C   0  0  1  0  0  0  0  0  0  0  0  0
    5.2868   -0.6809    0.0000 C   0  0  2  0  0  0  0  0  0  0  0  0
    7.0628    1.3259    0.0000 C   0  0  0  0  0  0  0  0  0  0  0  0
    8.8750    1.1307    0.0000 C   0  0  2  0  0  0  0  0  0  0  0  0
    6.1968    0.8259    0.0000 C   0  0  0  0  0  0  0  0  0  0  0  0
    8.8750   -0.4788    0.0000 C   0  0  0  0  0  0  0  0  0  0  0  0
    9.4586    0.3259    0.0000 C   0  0  0  0  0  0  0  0  0  0  0  0
    7.0789   -1.7156    0.0000 C   0  0  1  0  0  0  0  0  0  0  0  0
    5.2787   -1.7225    0.0000 C   0  0  0  0  0  0  0  0  0  0  0  0
    7.9288    1.8259    0.0000 C   0  0  0  0  0  0  0  0  0  0  0  0
    4.3599   -0.1168    0.0000 C   0  0  0  0  0  0  0  0  0  0  0  0
    6.1808   -2.2433    0.0000 C   0  0  0  0  0  0  0  0  0  0  0  0
    5.2945    0.3191    0.0000 C   0  0  0  0  0  0  0  0  0  0  0  0
    4.3433   -2.2722    0.0000 C   0  0  0  0  0  0  0  0  0  0  0  0
    3.4120   -0.6448    0.0000 C   0  0  0  0  0  0  0  0  0  0  0  0
    9.1857    2.0812    0.0000 C   0  0  0  0  0  0  0  0  0  0  0  0
    3.4037   -1.7297    0.0000 C   0  0  2  0  0  0  0  0  0  0  0  0
   10.1642    2.2874    0.0000 C   0  0  0  0  0  0  0  0  0  0  0  0
    8.0188   -1.0193    0.0000 H   0  0  0  0  0  0  0  0  0  0  0  0
    7.8022   -1.0934    0.0000 H   0  0  0  0  0  0  0  0  0  0  0  0
    6.9329    0.2509    0.0000 H   0  0  0  0  0  0  0  0  0  0  0  0
    7.4613    1.8009    0.0000 H   0  0  0  0  0  0  0  0  0  0  0  0
    6.6643    1.8009    0.0000 H   0  0  0  0  0  0  0  0  0  0  0  0
    9.4875    1.2269    0.0000 H   0  0  0  0  0  0  0  0  0  0  0  0
    5.9847    1.4085    0.0000 H   0  0  0  0  0  0  0  0  0  0  0  0
    5.5862    0.7183    0.0000 H   0  0  0  0  0  0  0  0  0  0  0  0
    8.6240   -1.0457    0.0000 H   0  0  0  0  0  0  0  0  0  0  0  0
    9.4124   -0.7880    0.0000 H   0  0  0  0  0  0  0  0  0  0  0  0
    9.9195   -0.0888    0.0000 H   0  0  0  0  0  0  0  0  0  0  0  0
    9.9195    0.7407    0.0000 H   0  0  0  0  0  0  0  0  0  0  0  0
    7.6116   -1.3984    0.0000 H   0  0  0  0  0  0  0  0  0  0  0  0
    8.5488    1.8259    0.0000 H   0  0  0  0  0  0  0  0  0  0  0  0
    7.9288    2.4459    0.0000 H   0  0  0  0  0  0  0  0  0  0  0  0
    7.3088    1.8259    0.0000 H   0  0  0  0  0  0  0  0  0  0  0  0
    4.7681    0.3498    0.0000 H   0  0  0  0  0  0  0  0  0  0  0  0
    3.9700    0.3652    0.0000 H   0  0  0  0  0  0  0  0  0  0  0  0
    6.1832   -2.8633    0.0000 H   0  0  0  0  0  0  0  0  0  0  0  0
    5.9145    0.3143    0.0000 H   0  0  0  0  0  0  0  0  0  0  0  0
    5.2993    0.9390    0.0000 H   0  0  0  0  0  0  0  0  0  0  0  0
    4.6745    0.3238    0.0000 H   0  0  0  0  0  0  0  0  0  0  0  0
    3.9460   -2.7482    0.0000 H   0  0  0  0  0  0  0  0  0  0  0  0
    4.7443   -2.7451    0.0000 H   0  0  0  0  0  0  0  0  0  0  0  0
    3.2075   -0.0595    0.0000 H   0  0  0  0  0  0  0  0  0  0  0  0
    2.8004   -0.7462    0.0000 H   0  0  0  0  0  0  0  0  0  0  0  0
    2.8686   -1.4166    0.0000 H   0  0  0  0  0  0  0  0  0  0  0  0
    7.9578   -2.8255    0.0000 H   0  0  0  0  0  0  0  0  0  0  0  0
   10.2921    1.6807    0.0000 H   0  0  0  0  0  0  0  0  0  0  0  0
   10.7709    2.4153    0.0000 H   0  0  0  0  0  0  0  0  0  0  0  0
   10.0364    2.8941    0.0000 H   0  0  0  0  0  0  0  0  0  0  0  0
    2.0000   -1.9143    0.0000 H   0  0  0  0  0  0  0  0  0  0  0  0
 14  1  1  6  0  0  0
  1 52  1  0  0  0  0
 23  2  1  1  0  0  0
  2 56  1  0  0  0  0
  3 22  2  0  0  0  0
  4  5  1  0  0  0  0
  4  6  1  0  0  0  0
  4 12  1  0  0  0  0
  4 25  1  6  0  0  0
  5  9  1  0  0  0  0
  5 10  1  0  0  0  0
  5 16  1  1  0  0  0
  6  7  1  0  0  0  0
  6 14  1  0  0  0  0
  6 26  1  1  0  0  0
  7  8  1  0  0  0  0
  7 11  1  0  0  0  0
  7 27  1  6  0  0  0
  8 15  1  0  0  0  0
  8 17  1  0  0  0  0
  8 19  1  1  0  0  0
  9 11  1  0  0  0  0
  9 28  1  0  0  0  0
  9 29  1  0  0  0  0
 10 13  1  0  0  0  0
 10 22  1  1  0  0  0
 10 30  1  0  0  0  0
 11 31  1  0  0  0  0
 11 32  1  0  0  0  0
 12 13  1  0  0  0  0
 12 33  1  0  0  0  0
 12 34  1  0  0  0  0
 13 35  1  0  0  0  0
 13 36  1  0  0  0  0
 14 18  1  0  0  0  0
 14 37  1  0  0  0  0
 15 18  2  0  0  0  0
 15 20  1  0  0  0  0
 16 38  1  0  0  0  0
 16 39  1  0  0  0  0
 16 40  1  0  0  0  0
 17 21  1  0  0  0  0
 17 41  1  0  0  0  0
 17 42  1  0  0  0  0
 18 43  1  0  0  0  0
 19 44  1  0  0  0  0
 19 45  1  0  0  0  0
 19 46  1  0  0  0  0
 20 23  1  0  0  0  0
 20 47  1  0  0  0  0
 20 48  1  0  0  0  0
 21 23  1  0  0  0  0
 21 49  1  0  0  0  0
 21 50  1  0  0  0  0
 22 24  1  0  0  0  0
 23 51  1  0  0  0  0
 24 53  1  0  0  0  0
 24 54  1  0  0  0  0
 24 55  1  0  0  0  0
M  END
> <PUBCHEM_COMPOUND_CID>
9967418

> <PUBCHEM_COMPOUND_CANONICALIZED>
1

> <PUBCHEM_CACTVS_COMPLEXITY>
582

> <PUBCHEM_CACTVS_HBOND_ACCEPTOR>
3

> <PUBCHEM_CACTVS_HBOND_DONOR>
2

> <PUBCHEM_CACTVS_ROTATABLE_BOND>
1

> <PUBCHEM_CACTVS_SUBSKEYS>
AAADcfB4MAAAAAAAAAAAAAAAAAAAAYAAAAAwYIAAAAAAAGCAAAAAGgAACAAADxSggAICAAAAAgCIAqBSAAAAAAAgAAAACAEAAAgAFBIAAQAAUAAEwAAIEAOIyPCPgAAAAAAAAADAAAQAACAAAQAACAAAAA==

> <PUBCHEM_IUPAC_OPENEYE_NAME>
1-[(3S,7S,8S,9S,10R,13S,14S,17S)-3,7-dihydroxy-10,13-dimethyl-2,3,4,7,8,9,11,12,14,15,16,17-dodecahydro-1H-cyclopenta[a]phenanthren-17-yl]ethanone

> <PUBCHEM_IUPAC_CAS_NAME>
1-[(3S,7S,8S,9S,10R,13S,14S,17S)-3,7-dihydroxy-10,13-dimethyl-2,3,4,7,8,9,11,12,14,15,16,17-dodecahydro-1H-cyclopenta[a]phenanthren-17-yl]ethanone

> <PUBCHEM_IUPAC_NAME>
1-[(3S,7S,8S,9S,10R,13S,14S,17S)-3,7-dihydroxy-10,13-dimethyl-2,3,4,7,8,9,11,12,14,15,16,17-dodecahydro-1H-cyclopenta[a]phenanthren-17-yl]ethanone

> <PUBCHEM_IUPAC_SYSTEMATIC_NAME>
1-[(3S,7S,8S,9S,10R,13S,14S,17S)-10,13-dimethyl-3,7-bis(oxidanyl)-2,3,4,7,8,9,11,12,14,15,16,17-dodecahydro-1H-cyclopenta[a]phenanthren-17-yl]ethanone

> <PUBCHEM_IUPAC_TRADITIONAL_NAME>
1-[(3S,7S,8S,9S,10R,13S,14S,17S)-3,7-dihydroxy-10,13-dimethyl-2,3,4,7,8,9,11,12,14,15,16,17-dodecahydro-1H-cyclopenta[a]phenanthren-17-yl]ethanone

> <PUBCHEM_IUPAC_INCHI>
InChI=1S/C21H32O3/c1-12(22)15-4-5-16-19-17(7-9-21(15,16)3)20(2)8-6-14(23)10-13(20)11-18(19)24/h11,14-19,23-24H,4-10H2,1-3H3/t14-,15+,16-,17-,18+,19-,20-,21+/m0/s1

> <PUBCHEM_IUPAC_INCHIKEY>
UEWNVBNIVGLQPG-XXHSLLPRSA-N

> <PUBCHEM_XLOGP3>
3.1

> <PUBCHEM_EXACT_MASS>
332.235145

> <PUBCHEM_MOLECULAR_FORMULA>
C21H32O3

> <PUBCHEM_MOLECULAR_WEIGHT>
332.47698

> <PUBCHEM_OPENEYE_CAN_SMILES>
CC(=O)C1CCC2C1(CCC3C2C(C=C4C3(CCC(C4)O)C)O)C

> <PUBCHEM_OPENEYE_ISO_SMILES>
CC(=O)[C@H]1CC[C@@H]2[C@@]1(CC[C@H]3[C@H]2[C@@H](C=C4[C@@]3(CC[C@@H](C4)O)C)O)C

> <PUBCHEM_CACTVS_TPSA>
57.5

> <PUBCHEM_MONOISOTOPIC_WEIGHT>
332.235145

> <PUBCHEM_TOTAL_CHARGE>
0

> <PUBCHEM_HEAVY_ATOM_COUNT>
24

> <PUBCHEM_ATOM_DEF_STEREO_COUNT>
8

> <PUBCHEM_ATOM_UDEF_STEREO_COUNT>
0

> <PUBCHEM_BOND_DEF_STEREO_COUNT>
0

> <PUBCHEM_BOND_UDEF_STEREO_COUNT>
0

> <PUBCHEM_ISOTOPIC_ATOM_COUNT>
0

> <PUBCHEM_COMPONENT_COUNT>
1

> <PUBCHEM_CACTVS_TAUTO_COUNT>
3

> <PUBCHEM_COORDINATE_TYPE>
1
5
255

> <PUBCHEM_BONDANNOTATIONS>
14  1  6
10  22  5
23  2  5
4  25  6
5  16  5
6  26  5
7  27  6
8  19  5

$$$$

