5375469
  -OEChem-07051213083D

 22 22  0     0  0  0  0  0  0999 V2000
   -2.9573   -2.8243    0.0155 O   0  0  0  0  0  0  0  0  0  0  0  0
    3.2404   -1.5796   -0.0002 O   0  5  0  0  0  0  0  0  0  0  0  0
   -2.7831    2.0409   -0.0026 O   0  5  0  0  0  0  0  0  0  0  0  0
    3.3204    0.6142    0.0031 O   0  0  0  0  0  0  0  0  0  0  0  0
   -0.8835    3.1409    0.0022 O   0  0  0  0  0  0  0  0  0  0  0  0
    2.6755   -0.4606    0.0011 N   0  3  0  0  0  0  0  0  0  0  0  0
   -1.5300    2.0671   -0.0007 N   0  3  0  0  0  0  0  0  0  0  0  0
   -1.5861   -2.7889   -0.0082 N   0  0  0  0  0  0  0  0  0  0  0  0
    0.5775    0.8113    0.0006 C   0  0  0  0  0  0  0  0  0  0  0  0
    1.2537   -0.4087   -0.0003 C   0  0  0  0  0  0  0  0  0  0  0  0
   -0.8170    0.8358   -0.0013 C   0  0  0  0  0  0  0  0  0  0  0  0
   -0.8595   -1.5798   -0.0048 C   0  0  0  0  0  0  0  0  0  0  0  0
    0.5351   -1.6043   -0.0030 C   0  0  0  0  0  0  0  0  0  0  0  0
   -1.5356   -0.3597   -0.0041 C   0  0  0  0  0  0  0  0  0  0  0  0
    1.3496    2.0956    0.0028 C   0  0  0  0  0  0  0  0  0  0  0  0
    1.0363   -2.5699   -0.0040 H   0  0  0  0  0  0  0  0  0  0  0  0
   -2.6229   -0.3558   -0.0063 H   0  0  0  0  0  0  0  0  0  0  0  0
    1.3416    2.5648   -0.9865 H   0  0  0  0  0  0  0  0  0  0  0  0
    0.9412    2.7614    0.7709 H   0  0  0  0  0  0  0  0  0  0  0  0
    2.3498    2.1883    0.4075 H   0  0  0  0  0  0  0  0  0  0  0  0
   -1.1009   -3.6772    0.0020 H   0  0  0  0  0  0  0  0  0  0  0  0
   -3.1602   -3.2645   -0.8272 H   0  0  0  0  0  0  0  0  0  0  0  0
  1  8  1  0  0  0  0
  1 22  1  0  0  0  0
  2  6  1  0  0  0  0
  3  7  1  0  0  0  0
  4  6  2  0  0  0  0
  5  7  2  0  0  0  0
  6 10  1  0  0  0  0
  7 11  1  0  0  0  0
  8 12  1  0  0  0  0
  8 21  1  0  0  0  0
  9 10  2  0  0  0  0
  9 11  1  0  0  0  0
  9 15  1  0  0  0  0
 10 13  1  0  0  0  0
 11 14  2  0  0  0  0
 12 13  2  0  0  0  0
 12 14  1  0  0  0  0
 13 16  1  0  0  0  0
 14 17  1  0  0  0  0
 15 18  1  0  0  0  0
 15 19  1  0  0  0  0
 15 20  1  0  0  0  0
M  CHG  4   2  -1   3  -1   6   1   7   1
M  END
> <PUBCHEM_COMPOUND_CID>
5375469

> <PUBCHEM_CONFORMER_RMSD>
0.6

> <PUBCHEM_CONFORMER_DIVERSEORDER>
1

> <PUBCHEM_MMFF94_PARTIAL_CHARGES>
19
1 -0.38
10 0.13
11 0.13
12 0.1
13 -0.15
14 -0.15
15 0.14
16 0.15
17 0.15
2 -0.52
21 0.4
22 0.4
3 -0.52
4 -0.52
5 -0.52
6 0.91
7 0.91
8 -0.52
9 -0.14

> <PUBCHEM_EFFECTIVE_ROTOR_COUNT>
3

> <PUBCHEM_PHARMACOPHORE_FEATURES>
8
1 1 anion
1 2 acceptor
1 2 anion
1 3 acceptor
1 3 anion
1 4 acceptor
1 5 acceptor
6 9 10 11 12 13 14 rings

> <PUBCHEM_HEAVY_ATOM_COUNT>
15

> <PUBCHEM_ATOM_DEF_STEREO_COUNT>
0

> <PUBCHEM_ATOM_UDEF_STEREO_COUNT>
0

> <PUBCHEM_BOND_DEF_STEREO_COUNT>
0

> <PUBCHEM_BOND_UDEF_STEREO_COUNT>
0

> <PUBCHEM_ISOTOPIC_ATOM_COUNT>
0

> <PUBCHEM_COMPONENT_COUNT>
1

> <PUBCHEM_CACTVS_TAUTO_COUNT>
1

> <PUBCHEM_CONFORMER_ID>
005205ED00000001

> <PUBCHEM_MMFF94_ENERGY>
81.7758

> <PUBCHEM_FEATURE_SELFOVERLAP>
40.758

> <PUBCHEM_SHAPE_FINGERPRINT>
1 1 17618223244318694597
10967382 1 18338799043032709189
11471102 20 17690285911019480367
13140716 1 18338237063683771009
13380535 76 18119815960664272982
14790565 3 17187833230832271845
15042514 8 18340485680911352690
16945 1 18410856572677750214
193761 8 18338517430564485924
19591789 44 17977940516603092587
20645476 183 17913181420836967518
20645477 70 17333655376455824837
20871998 184 18187644674110208710
21501502 16 18340201891263481532
21524375 3 17912359037277805226
2334 1 18122626046080785871
23402539 116 18191322664979737965
23526114 1 16897646788590903351
23559900 14 18117557556420384638
241688 4 18266740186168823651
2748010 2 18193001421677450973
3071541 12 17401763021813985909
352729 6 18337953527128279471
43471831 8 17547571938485002394
528886 8 18050574241827773040
54173680 148 18411136960943585834
7364860 26 17401485944768027643
81228 2 18341050731140334803

> <PUBCHEM_SHAPE_MULTIPOLES>
264.4
4.05
3.53
0.56
1.21
1.2
0
-1.96
0.01
-2.12
0
0
0
0.01

> <PUBCHEM_SHAPE_SELFOVERLAP>
561.141

> <PUBCHEM_SHAPE_VOLUME>
148.8

> <PUBCHEM_COORDINATE_TYPE>
2
5
10

$$$$

