12539
  -OEChem-06261207033D

 62 66  0     1  0  0  0  0  0999 V2000
    1.7603    1.3874   -0.7444 O   0  0  0  0  0  0  0  0  0  0  0  0
   -5.1960   -1.4383   -0.8285 O   0  0  0  0  0  0  0  0  0  0  0  0
   -6.1207    0.6623    0.8346 O   0  0  0  0  0  0  0  0  0  0  0  0
    6.1145   -0.6955   -0.3497 O   0  0  0  0  0  0  0  0  0  0  0  0
    6.5796    1.5484   -0.5598 O   0  0  0  0  0  0  0  0  0  0  0  0
    0.8808    0.5278   -0.0048 C   0  0  1  0  0  0  0  0  0  0  0  0
   -0.5310    0.6030   -0.6546 C   0  0  1  0  0  0  0  0  0  0  0  0
   -1.5308   -0.4493   -0.0858 C   0  0  1  0  0  0  0  0  0  0  0  0
    1.4836   -0.9037    0.0122 C   0  0  2  0  0  0  0  0  0  0  0  0
   -2.9655   -0.3622   -0.7532 C   0  0  2  0  0  0  0  0  0  0  0  0
   -3.4965    1.1069   -0.6373 C   0  0  2  0  0  0  0  0  0  0  0  0
   -0.9041   -1.8561   -0.1527 C   0  0  0  0  0  0  0  0  0  0  0  0
    0.4453   -1.9181    0.5600 C   0  0  0  0  0  0  0  0  0  0  0  0
    2.6549   -0.7886    1.0424 C   0  0  2  0  0  0  0  0  0  0  0  0
   -1.1144    2.0277   -0.5909 C   0  0  0  0  0  0  0  0  0  0  0  0
    0.9418    0.9497    1.4733 C   0  0  0  0  0  0  0  0  0  0  0  0
   -2.5021    2.1253   -1.2141 C   0  0  0  0  0  0  0  0  0  0  0  0
    2.1975    0.2848    2.0496 C   0  0  0  0  0  0  0  0  0  0  0  0
   -3.9904   -1.3279   -0.0617 C   0  0  1  0  0  0  0  0  0  0  0  0
   -3.8715    1.4954    0.8137 C   0  0  0  0  0  0  0  0  0  0  0  0
    1.9584   -1.3818   -1.3757 C   0  0  0  0  0  0  0  0  0  0  0  0
   -2.8957   -0.7603   -2.2540 C   0  0  0  0  0  0  0  0  0  0  0  0
   -4.3587   -0.9208    1.3696 C   0  0  0  0  0  0  0  0  0  0  0  0
   -4.8497    0.5235    1.4648 C   0  0  2  0  0  0  0  0  0  0  0  0
    4.0044   -0.4233    0.4957 C   0  0  0  0  0  0  0  0  0  0  0  0
    4.9904   -1.4533    0.1104 C   0  0  0  0  0  0  0  0  0  0  0  0
    4.4827    0.8011    0.2907 C   0  0  0  0  0  0  0  0  0  0  0  0
    5.8329    0.6362   -0.2499 C   0  0  0  0  0  0  0  0  0  0  0  0
   -0.3886    0.3870   -1.7214 H   0  0  0  0  0  0  0  0  0  0  0  0
   -1.6599   -0.2251    0.9792 H   0  0  0  0  0  0  0  0  0  0  0  0
   -4.4164    1.1888   -1.2335 H   0  0  0  0  0  0  0  0  0  0  0  0
   -0.7851   -2.1795   -1.1915 H   0  0  0  0  0  0  0  0  0  0  0  0
   -1.5553   -2.5907    0.3301 H   0  0  0  0  0  0  0  0  0  0  0  0
    0.2722   -1.7561    1.6317 H   0  0  0  0  0  0  0  0  0  0  0  0
    0.8446   -2.9376    0.4793 H   0  0  0  0  0  0  0  0  0  0  0  0
    2.7792   -1.7361    1.5846 H   0  0  0  0  0  0  0  0  0  0  0  0
   -0.4499    2.7251   -1.1152 H   0  0  0  0  0  0  0  0  0  0  0  0
   -1.1575    2.3740    0.4473 H   0  0  0  0  0  0  0  0  0  0  0  0
    0.0674    0.6169    2.0408 H   0  0  0  0  0  0  0  0  0  0  0  0
    1.0147    2.0375    1.5832 H   0  0  0  0  0  0  0  0  0  0  0  0
   -2.8877    3.1429   -1.0742 H   0  0  0  0  0  0  0  0  0  0  0  0
   -2.4185    1.9870   -2.2986 H   0  0  0  0  0  0  0  0  0  0  0  0
    2.9499    1.0299    2.3257 H   0  0  0  0  0  0  0  0  0  0  0  0
    1.9247   -0.2030    2.9951 H   0  0  0  0  0  0  0  0  0  0  0  0
   -3.5857   -2.3437   -0.0386 H   0  0  0  0  0  0  0  0  0  0  0  0
   -2.9778    1.5582    1.4433 H   0  0  0  0  0  0  0  0  0  0  0  0
   -4.3190    2.4976    0.7999 H   0  0  0  0  0  0  0  0  0  0  0  0
    2.7300   -0.7394   -1.8104 H   0  0  0  0  0  0  0  0  0  0  0  0
    2.3653   -2.3975   -1.3191 H   0  0  0  0  0  0  0  0  0  0  0  0
    1.1357   -1.4041   -2.0973 H   0  0  0  0  0  0  0  0  0  0  0  0
   -2.1160   -0.2275   -2.8029 H   0  0  0  0  0  0  0  0  0  0  0  0
   -2.7041   -1.8323   -2.3717 H   0  0  0  0  0  0  0  0  0  0  0  0
   -3.8401   -0.5450   -2.7673 H   0  0  0  0  0  0  0  0  0  0  0  0
   -3.4897   -1.0512    2.0242 H   0  0  0  0  0  0  0  0  0  0  0  0
   -5.1474   -1.5877    1.7395 H   0  0  0  0  0  0  0  0  0  0  0  0
   -4.9842    0.7973    2.5174 H   0  0  0  0  0  0  0  0  0  0  0  0
    1.6428    1.2083   -1.6923 H   0  0  0  0  0  0  0  0  0  0  0  0
   -5.7697   -2.0863   -0.3853 H   0  0  0  0  0  0  0  0  0  0  0  0
    5.3021   -2.0654    0.9619 H   0  0  0  0  0  0  0  0  0  0  0  0
    4.6471   -2.0986   -0.7013 H   0  0  0  0  0  0  0  0  0  0  0  0
    4.0264    1.7595    0.4656 H   0  0  0  0  0  0  0  0  0  0  0  0
   -6.7322    0.0429    1.2678 H   0  0  0  0  0  0  0  0  0  0  0  0
  1  6  1  0  0  0  0
  1 57  1  0  0  0  0
  2 19  1  0  0  0  0
  2 58  1  0  0  0  0
  3 24  1  0  0  0  0
  3 62  1  0  0  0  0
  4 26  1  0  0  0  0
  4 28  1  0  0  0  0
  5 28  2  0  0  0  0
  6  7  1  0  0  0  0
  6  9  1  0  0  0  0
  6 16  1  0  0  0  0
  7  8  1  0  0  0  0
  7 15  1  0  0  0  0
  7 29  1  0  0  0  0
  8 10  1  0  0  0  0
  8 12  1  0  0  0  0
  8 30  1  0  0  0  0
  9 13  1  0  0  0  0
  9 14  1  0  0  0  0
  9 21  1  0  0  0  0
 10 11  1  0  0  0  0
 10 19  1  0  0  0  0
 10 22  1  0  0  0  0
 11 17  1  0  0  0  0
 11 20  1  0  0  0  0
 11 31  1  0  0  0  0
 12 13  1  0  0  0  0
 12 32  1  0  0  0  0
 12 33  1  0  0  0  0
 13 34  1  0  0  0  0
 13 35  1  0  0  0  0
 14 18  1  0  0  0  0
 14 25  1  0  0  0  0
 14 36  1  0  0  0  0
 15 17  1  0  0  0  0
 15 37  1  0  0  0  0
 15 38  1  0  0  0  0
 16 18  1  0  0  0  0
 16 39  1  0  0  0  0
 16 40  1  0  0  0  0
 17 41  1  0  0  0  0
 17 42  1  0  0  0  0
 18 43  1  0  0  0  0
 18 44  1  0  0  0  0
 19 23  1  0  0  0  0
 19 45  1  0  0  0  0
 20 24  1  0  0  0  0
 20 46  1  0  0  0  0
 20 47  1  0  0  0  0
 21 48  1  0  0  0  0
 21 49  1  0  0  0  0
 21 50  1  0  0  0  0
 22 51  1  0  0  0  0
 22 52  1  0  0  0  0
 22 53  1  0  0  0  0
 23 24  1  0  0  0  0
 23 54  1  0  0  0  0
 23 55  1  0  0  0  0
 24 56  1  0  0  0  0
 25 26  1  0  0  0  0
 25 27  2  0  0  0  0
 26 59  1  0  0  0  0
 26 60  1  0  0  0  0
 27 28  1  0  0  0  0
 27 61  1  0  0  0  0
M  END
> <PUBCHEM_COMPOUND_CID>
12539

> <PUBCHEM_CONFORMER_RMSD>
0.8

> <PUBCHEM_CONFORMER_DIVERSEORDER>
2
9
16
18
22
23
8
21
13
15
24
20
4
17
14
11
3
19
5
7
6
10
12
1

> <PUBCHEM_MMFF94_PARTIAL_CHARGES>
17
1 -0.68
14 0.14
19 0.28
2 -0.68
24 0.28
25 -0.28
26 0.42
27 -0.14
28 0.71
3 -0.68
4 -0.43
5 -0.57
57 0.4
58 0.4
6 0.28
61 0.15
62 0.4

> <PUBCHEM_EFFECTIVE_ROTOR_COUNT>
3.6

> <PUBCHEM_PHARMACOPHORE_FEATURES>
12
1 1 acceptor
1 1 donor
1 2 acceptor
1 2 donor
1 3 acceptor
1 3 donor
1 5 acceptor
5 4 25 26 27 28 rings
5 6 9 14 16 18 rings
6 10 11 19 20 23 24 rings
6 6 7 8 9 12 13 rings
6 7 8 10 11 15 17 rings

> <PUBCHEM_HEAVY_ATOM_COUNT>
28

> <PUBCHEM_ATOM_DEF_STEREO_COUNT>
7

> <PUBCHEM_ATOM_UDEF_STEREO_COUNT>
2

> <PUBCHEM_BOND_DEF_STEREO_COUNT>
0

> <PUBCHEM_BOND_UDEF_STEREO_COUNT>
0

> <PUBCHEM_ISOTOPIC_ATOM_COUNT>
0

> <PUBCHEM_COMPONENT_COUNT>
1

> <PUBCHEM_CACTVS_TAUTO_COUNT>
1

> <PUBCHEM_CONFORMER_ID>
000030FB00000002

> <PUBCHEM_MMFF94_ENERGY>
98.0928

> <PUBCHEM_FEATURE_SELFOVERLAP>
61.127

> <PUBCHEM_SHAPE_FINGERPRINT>
10366900 7 18341343223151407979
10675989 125 16686846808686259533
11796584 16 6050437103237160100
12236239 1 18333167262786368482
12403259 415 18260561012573131976
12596602 18 16845293851951777368
128620 24 16056881355236425672
12916748 109 18131349722287150506
13140716 1 18199742553669913051
13224815 77 18412272748239365423
13583140 156 16343433838110823367
13631057 29 16271920463937748667
13914758 101 6843932633010519635
14251758 9 13984660352311109880
14341114 176 18131347535531631496
14787075 74 18413389834736166858
14790565 3 18411414016689131784
14856354 85 17240481373109881780
14955137 171 18342165674744295812
15183329 4 5978392694664291476
15209289 33 18260836985728293739
15238133 3 17095511916287096281
15788980 27 18201722881232310950
1601671 61 17676206888142942922
17349148 13 10807930496357551210
17844677 252 18272368715552254020
19489759 90 10663820775653601029
20775530 9 15911624724574257715
21033648 29 18335719255118561624
21267235 1 18341330007690128967
22079108 93 16558745698863213528
22950370 63 18260268551307136432
23402539 116 18412268345734369956
23522609 53 18189031171427229240
23559900 14 18340217292916348677
34797466 226 15051438445207798570
350125 39 18410292506154476097
4325135 7 17846493734088242748
4340502 62 15554449596050817626
5104073 3 18129953393975444496
5265222 85 17969216755794757284
542803 24 18186521007739132618
6328613 192 18113894940430689552
633830 44 16226345741405233912
6913067 236 13614524043581174186

> <PUBCHEM_SHAPE_MULTIPOLES>
546.88
13.19
1.97
1.53
8.46
0.15
0.07
1.04
0.81
-0.49
-0.35
-0.99
0.02
-0.29

> <PUBCHEM_SHAPE_SELFOVERLAP>
1185.059

> <PUBCHEM_SHAPE_VOLUME>
297

> <PUBCHEM_COORDINATE_TYPE>
2
5
10

$$$$

