245302
  -OEChem-07051213063D

 47 50  0     1  0  0  0  0  0999 V2000
   -4.3678   -1.6061    1.4456 F   0  0  0  0  0  0  0  0  0  0  0  0
   -4.7044    1.2327    0.8075 O   0  0  0  0  0  0  0  0  0  0  0  0
    5.6980   -0.4597    1.1568 O   0  0  0  0  0  0  0  0  0  0  0  0
   -0.4404   -0.6143   -0.5542 C   0  0  2  0  0  0  0  0  0  0  0  0
    0.4167    0.4939    0.1388 C   0  0  1  0  0  0  0  0  0  0  0  0
   -1.8504   -0.5769    0.0415 C   0  0  1  0  0  0  0  0  0  0  0  0
   -2.5384    0.7821   -0.2055 C   0  0  2  0  0  0  0  0  0  0  0  0
    1.9091    0.5208   -0.3704 C   0  0  2  0  0  0  0  0  0  0  0  0
   -0.2862    1.8808    0.1074 C   0  0  0  0  0  0  0  0  0  0  0  0
   -1.7572    1.8443    0.5608 C   0  0  0  0  0  0  0  0  0  0  0  0
    0.2183   -1.9855   -0.3633 C   0  0  0  0  0  0  0  0  0  0  0  0
   -2.8878   -1.6075   -0.3977 C   0  0  0  0  0  0  0  0  0  0  0  0
    2.4889   -0.8991   -0.3279 C   0  0  0  0  0  0  0  0  0  0  0  0
   -3.9121    0.4295    0.3342 C   0  0  0  0  0  0  0  0  0  0  0  0
    1.6366   -1.9975   -0.9188 C   0  0  0  0  0  0  0  0  0  0  0  0
   -4.1821   -1.0596    0.2175 C   0  0  2  0  0  0  0  0  0  0  0  0
    2.7275    1.4590    0.5640 C   0  0  0  0  0  0  0  0  0  0  0  0
   -2.7333    1.1823   -1.6792 C   0  0  0  0  0  0  0  0  0  0  0  0
    2.0162    1.0421   -1.8213 C   0  0  0  0  0  0  0  0  0  0  0  0
    4.2329    1.2893    0.4315 C   0  0  0  0  0  0  0  0  0  0  0  0
    3.6968   -1.2024    0.1763 C   0  0  0  0  0  0  0  0  0  0  0  0
    4.6191   -0.1482    0.6564 C   0  0  0  0  0  0  0  0  0  0  0  0
   -0.4986   -0.4199   -1.6308 H   0  0  0  0  0  0  0  0  0  0  0  0
    0.4591    0.2144    1.2045 H   0  0  0  0  0  0  0  0  0  0  0  0
   -1.7371   -0.7199    1.1305 H   0  0  0  0  0  0  0  0  0  0  0  0
   -0.2416    2.3023   -0.9019 H   0  0  0  0  0  0  0  0  0  0  0  0
    0.2444    2.5838    0.7590 H   0  0  0  0  0  0  0  0  0  0  0  0
   -1.7986    1.6425    1.6392 H   0  0  0  0  0  0  0  0  0  0  0  0
   -2.2101    2.8338    0.4230 H   0  0  0  0  0  0  0  0  0  0  0  0
   -0.3652   -2.7593   -0.8754 H   0  0  0  0  0  0  0  0  0  0  0  0
    0.2357   -2.2520    0.7014 H   0  0  0  0  0  0  0  0  0  0  0  0
   -2.6601   -2.6075   -0.0165 H   0  0  0  0  0  0  0  0  0  0  0  0
   -2.9573   -1.6581   -1.4893 H   0  0  0  0  0  0  0  0  0  0  0  0
    1.6047   -1.8751   -2.0086 H   0  0  0  0  0  0  0  0  0  0  0  0
    2.0763   -2.9855   -0.7347 H   0  0  0  0  0  0  0  0  0  0  0  0
   -5.0538   -1.2630   -0.4088 H   0  0  0  0  0  0  0  0  0  0  0  0
    2.4557    1.2606    1.6103 H   0  0  0  0  0  0  0  0  0  0  0  0
    2.4784    2.5097    0.3731 H   0  0  0  0  0  0  0  0  0  0  0  0
   -1.7889    1.2844   -2.2202 H   0  0  0  0  0  0  0  0  0  0  0  0
   -3.3503    0.4640   -2.2297 H   0  0  0  0  0  0  0  0  0  0  0  0
   -3.2521    2.1464   -1.7438 H   0  0  0  0  0  0  0  0  0  0  0  0
    3.0328    0.9282   -2.2156 H   0  0  0  0  0  0  0  0  0  0  0  0
    1.3501    0.5068   -2.5051 H   0  0  0  0  0  0  0  0  0  0  0  0
    1.7675    2.1065   -1.8872 H   0  0  0  0  0  0  0  0  0  0  0  0
    4.7314    1.9058    1.1878 H   0  0  0  0  0  0  0  0  0  0  0  0
    4.5934    1.6013   -0.5536 H   0  0  0  0  0  0  0  0  0  0  0  0
    4.0679   -2.2216    0.2013 H   0  0  0  0  0  0  0  0  0  0  0  0
  1 16  1  0  0  0  0
  2 14  2  0  0  0  0
  3 22  2  0  0  0  0
  4  5  1  0  0  0  0
  4  6  1  0  0  0  0
  4 11  1  0  0  0  0
  4 23  1  0  0  0  0
  5  8  1  0  0  0  0
  5  9  1  0  0  0  0
  5 24  1  0  0  0  0
  6  7  1  0  0  0  0
  6 12  1  0  0  0  0
  6 25  1  0  0  0  0
  7 10  1  0  0  0  0
  7 14  1  0  0  0  0
  7 18  1  0  0  0  0
  8 13  1  0  0  0  0
  8 17  1  0  0  0  0
  8 19  1  0  0  0  0
  9 10  1  0  0  0  0
  9 26  1  0  0  0  0
  9 27  1  0  0  0  0
 10 28  1  0  0  0  0
 10 29  1  0  0  0  0
 11 15  1  0  0  0  0
 11 30  1  0  0  0  0
 11 31  1  0  0  0  0
 12 16  1  0  0  0  0
 12 32  1  0  0  0  0
 12 33  1  0  0  0  0
 13 15  1  0  0  0  0
 13 21  2  0  0  0  0
 14 16  1  0  0  0  0
 15 34  1  0  0  0  0
 15 35  1  0  0  0  0
 16 36  1  0  0  0  0
 17 20  1  0  0  0  0
 17 37  1  0  0  0  0
 17 38  1  0  0  0  0
 18 39  1  0  0  0  0
 18 40  1  0  0  0  0
 18 41  1  0  0  0  0
 19 42  1  0  0  0  0
 19 43  1  0  0  0  0
 19 44  1  0  0  0  0
 20 22  1  0  0  0  0
 20 45  1  0  0  0  0
 20 46  1  0  0  0  0
 21 22  1  0  0  0  0
 21 47  1  0  0  0  0
M  END
> <PUBCHEM_COMPOUND_CID>
245302

> <PUBCHEM_CONFORMER_RMSD>
0.6

> <PUBCHEM_CONFORMER_DIVERSEORDER>
1

> <PUBCHEM_MMFF94_PARTIAL_CHARGES>
13
1 -0.34
13 -0.28
14 0.45
15 0.14
16 0.4
2 -0.57
20 0.06
21 -0.14
22 0.49
3 -0.57
47 0.15
7 0.06
8 0.14

> <PUBCHEM_EFFECTIVE_ROTOR_COUNT>
1.6

> <PUBCHEM_PHARMACOPHORE_FEATURES>
6
1 2 acceptor
1 3 acceptor
5 6 7 12 14 16 rings
6 4 5 6 7 9 10 rings
6 4 5 8 11 13 15 rings
6 8 13 17 20 21 22 rings

> <PUBCHEM_HEAVY_ATOM_COUNT>
22

> <PUBCHEM_ATOM_DEF_STEREO_COUNT>
6

> <PUBCHEM_ATOM_UDEF_STEREO_COUNT>
0

> <PUBCHEM_BOND_DEF_STEREO_COUNT>
0

> <PUBCHEM_BOND_UDEF_STEREO_COUNT>
0

> <PUBCHEM_ISOTOPIC_ATOM_COUNT>
0

> <PUBCHEM_COMPONENT_COUNT>
1

> <PUBCHEM_CACTVS_TAUTO_COUNT>
10

> <PUBCHEM_CONFORMER_ID>
0003BE3600000001

> <PUBCHEM_MMFF94_ENERGY>
62.4576

> <PUBCHEM_FEATURE_SELFOVERLAP>
30.544

> <PUBCHEM_SHAPE_FINGERPRINT>
10062212 137 18411704261983623671
10759866 29 17986382301004498516
10967382 1 18334856151327698926
11132069 177 18410287025902443223
11578080 2 16985759906932434110
12236239 1 18131067126413802380
12403259 415 18408891719972411348
12403814 3 18202846543920199997
12507557 5 18410581686281215480
12839892 36 18335993016545212642
13140716 1 18335423404864815600
13214271 11 18259705605849110061
13224815 77 18407759235437124805
13583140 156 17631472170560348822
13675066 3 18413107255652200006
14178342 30 18338227283980375849
14223421 5 18262797500680369500
14341114 176 18335136518772702418
14787075 74 18337958870199445058
14790565 3 18119803613066495680
15163728 17 14202781576830679401
15196674 1 18408040706076676450
15536298 74 18114457959150871686
15788980 27 17060622204571228413
16945 1 18191866936146756118
17349148 13 18201718448984245460
17492 89 18411419552644124154
17959699 21 6988320547399554530
1813 80 17489587896526313382
18186145 218 18335701663127241108
19050596 39 18411134740387146689
200 152 18114194025184348103
20261772 1 18260829250465930326
20715895 44 18126855030370003901
20775438 99 12675201188474484097
21033648 29 18263383476333760232
21069387 34 16630522916829435864
21267235 1 18409441475395818334
21421861 104 18127411369893568010
21637258 2 15984836964851138682
22182313 1 18263359346938167318
22854114 111 18408882936331228886
23402539 116 18114755870729910900
23557571 272 17968367966370919254
23559900 14 18187927343699802710
26918003 58 18412548725362713617
2748010 2 18337104661391763991
296302 2 15791452629846896884
335352 9 18263080070857942581
34934 24 18262523701385229583
350125 39 18408322177560688888
392239 28 17967536731448695648
42 15 18343021090547972648
5104073 3 18410573976566896160
633830 44 17821727230425237076
7364860 26 18041837453925160454
9709674 26 18189052164920864767

> <PUBCHEM_SHAPE_MULTIPOLES>
433.74
9.63
2.13
1.17
2.24
0.24
0.34
0.45
-3.57
-0.39
0.05
-0.09
-0.16
0.33

> <PUBCHEM_SHAPE_SELFOVERLAP>
939.392

> <PUBCHEM_SHAPE_VOLUME>
239

> <PUBCHEM_COORDINATE_TYPE>
2
5
10

$$$$

