443270
  -OEChem-07051213013D

 51 55  0     0  0  0  0  0  0999 V2000
    4.8619   -1.4593    0.4234 O   0  0  0  0  0  0  0  0  0  0  0  0
    5.8147    1.0264   -0.3600 O   0  0  0  0  0  0  0  0  0  0  0  0
   -1.7488    0.9859    0.2705 N   0  0  0  0  0  0  0  0  0  0  0  0
   -1.8579   -0.3004    0.6456 N   0  0  0  0  0  0  0  0  0  0  0  0
   -0.0709    2.6129   -0.3312 N   0  0  0  0  0  0  0  0  0  0  0  0
    0.3324    0.2789    0.3000 C   0  0  0  0  0  0  0  0  0  0  0  0
   -0.5912   -0.7263    0.6619 C   0  0  0  0  0  0  0  0  0  0  0  0
    1.7308    0.4261    0.1435 C   0  0  0  0  0  0  0  0  0  0  0  0
   -0.4640    1.3862    0.0502 C   0  0  0  0  0  0  0  0  0  0  0  0
   -0.3266   -2.1268    1.0384 C   0  0  0  0  0  0  0  0  0  0  0  0
    2.2094    1.6934   -0.2560 C   0  0  0  0  0  0  0  0  0  0  0  0
    2.6302   -0.6336    0.3713 C   0  0  0  0  0  0  0  0  0  0  0  0
    1.2736    2.7130   -0.4699 C   0  0  0  0  0  0  0  0  0  0  0  0
   -2.8921    1.7738    0.1404 C   0  0  0  0  0  0  0  0  0  0  0  0
   -1.3287   -2.9922    0.3004 C   0  0  0  0  0  0  0  0  0  0  0  0
    3.5915    1.8774   -0.4208 C   0  0  0  0  0  0  0  0  0  0  0  0
    3.9989   -0.4284    0.2012 C   0  0  0  0  0  0  0  0  0  0  0  0
    4.4774    0.8216   -0.1927 C   0  0  0  0  0  0  0  0  0  0  0  0
   -2.8128    3.1408    0.3743 C   0  0  0  0  0  0  0  0  0  0  0  0
   -4.0948    1.1825   -0.2248 C   0  0  0  0  0  0  0  0  0  0  0  0
   -1.0034   -3.4797   -0.9523 C   0  0  0  0  0  0  0  0  0  0  0  0
   -2.5437   -3.2739    0.8978 C   0  0  0  0  0  0  0  0  0  0  0  0
   -3.9556    3.9296    0.2410 C   0  0  0  0  0  0  0  0  0  0  0  0
   -5.2375    1.9714   -0.3581 C   0  0  0  0  0  0  0  0  0  0  0  0
   -1.9254   -4.2763   -1.6313 C   0  0  0  0  0  0  0  0  0  0  0  0
   -3.4655   -4.0707    0.2187 C   0  0  0  0  0  0  0  0  0  0  0  0
   -5.1677    3.3451   -0.1252 C   0  0  0  0  0  0  0  0  0  0  0  0
   -3.1563   -4.5717   -1.0459 C   0  0  0  0  0  0  0  0  0  0  0  0
    5.3717   -1.6034    1.7474 C   0  0  0  0  0  0  0  0  0  0  0  0
    6.3502    0.7777   -1.6578 C   0  0  0  0  0  0  0  0  0  0  0  0
   -0.4331   -2.2569    2.1225 H   0  0  0  0  0  0  0  0  0  0  0  0
    0.6610   -2.4980    0.7821 H   0  0  0  0  0  0  0  0  0  0  0  0
    2.3199   -1.6130    0.6974 H   0  0  0  0  0  0  0  0  0  0  0  0
    1.6038    3.7032   -0.7786 H   0  0  0  0  0  0  0  0  0  0  0  0
    3.9814    2.8461   -0.7271 H   0  0  0  0  0  0  0  0  0  0  0  0
   -1.9132    3.6384    0.7195 H   0  0  0  0  0  0  0  0  0  0  0  0
   -4.1780    0.1172   -0.4237 H   0  0  0  0  0  0  0  0  0  0  0  0
   -0.0481   -3.2535   -1.4168 H   0  0  0  0  0  0  0  0  0  0  0  0
   -2.7934   -2.8925    1.8835 H   0  0  0  0  0  0  0  0  0  0  0  0
   -3.9052    4.9970    0.4356 H   0  0  0  0  0  0  0  0  0  0  0  0
   -6.1812    1.5168   -0.6451 H   0  0  0  0  0  0  0  0  0  0  0  0
   -1.6849   -4.6660   -2.6162 H   0  0  0  0  0  0  0  0  0  0  0  0
   -4.4238   -4.3015    0.6748 H   0  0  0  0  0  0  0  0  0  0  0  0
   -6.0580    3.9588   -0.2264 H   0  0  0  0  0  0  0  0  0  0  0  0
   -3.8742   -5.1920   -1.5746 H   0  0  0  0  0  0  0  0  0  0  0  0
    6.0489   -2.4617    1.7622 H   0  0  0  0  0  0  0  0  0  0  0  0
    4.5566   -1.7883    2.4541 H   0  0  0  0  0  0  0  0  0  0  0  0
    5.9315   -0.7109    2.0444 H   0  0  0  0  0  0  0  0  0  0  0  0
    5.8898    1.4415   -2.3965 H   0  0  0  0  0  0  0  0  0  0  0  0
    6.1970   -0.2675   -1.9446 H   0  0  0  0  0  0  0  0  0  0  0  0
    7.4247    0.9781   -1.6293 H   0  0  0  0  0  0  0  0  0  0  0  0
  1 17  1  0  0  0  0
  1 29  1  0  0  0  0
  2 18  1  0  0  0  0
  2 30  1  0  0  0  0
  3  4  1  0  0  0  0
  3  9  1  0  0  0  0
  3 14  1  0  0  0  0
  4  7  2  0  0  0  0
  5  9  1  0  0  0  0
  5 13  2  0  0  0  0
  6  7  1  0  0  0  0
  6  8  1  0  0  0  0
  6  9  2  0  0  0  0
  7 10  1  0  0  0  0
  8 11  1  0  0  0  0
  8 12  2  0  0  0  0
 10 15  1  0  0  0  0
 10 31  1  0  0  0  0
 10 32  1  0  0  0  0
 11 13  1  0  0  0  0
 11 16  2  0  0  0  0
 12 17  1  0  0  0  0
 12 33  1  0  0  0  0
 13 34  1  0  0  0  0
 14 19  2  0  0  0  0
 14 20  1  0  0  0  0
 15 21  2  0  0  0  0
 15 22  1  0  0  0  0
 16 18  1  0  0  0  0
 16 35  1  0  0  0  0
 17 18  2  0  0  0  0
 19 23  1  0  0  0  0
 19 36  1  0  0  0  0
 20 24  2  0  0  0  0
 20 37  1  0  0  0  0
 21 25  1  0  0  0  0
 21 38  1  0  0  0  0
 22 26  2  0  0  0  0
 22 39  1  0  0  0  0
 23 27  2  0  0  0  0
 23 40  1  0  0  0  0
 24 27  1  0  0  0  0
 24 41  1  0  0  0  0
 25 28  2  0  0  0  0
 25 42  1  0  0  0  0
 26 28  1  0  0  0  0
 26 43  1  0  0  0  0
 27 44  1  0  0  0  0
 28 45  1  0  0  0  0
 29 46  1  0  0  0  0
 29 47  1  0  0  0  0
 29 48  1  0  0  0  0
 30 49  1  0  0  0  0
 30 50  1  0  0  0  0
 30 51  1  0  0  0  0
M  END
> <PUBCHEM_COMPOUND_CID>
443270

> <PUBCHEM_CONFORMER_RMSD>
0.8

> <PUBCHEM_CONFORMER_DIVERSEORDER>
2
4
5
1
3
6
7

> <PUBCHEM_MMFF94_PARTIAL_CHARGES>
40
1 -0.36
10 0.32
12 -0.15
13 0.16
14 -0.02
15 -0.14
16 -0.15
17 0.08
18 0.08
19 -0.15
2 -0.36
20 -0.15
21 -0.15
22 -0.15
23 -0.15
24 -0.15
25 -0.15
26 -0.15
27 -0.15
28 -0.15
29 0.28
3 0.59
30 0.28
33 0.15
34 0.15
35 0.15
36 0.15
37 0.15
38 0.15
39 0.15
4 -0.71
40 0.15
41 0.15
42 0.15
43 0.15
44 0.15
45 0.15
5 -0.57
7 0.11
9 0.11

> <PUBCHEM_EFFECTIVE_ROTOR_COUNT>
5

> <PUBCHEM_PHARMACOPHORE_FEATURES>
9
1 1 acceptor
1 2 acceptor
1 4 acceptor
1 5 acceptor
5 3 4 6 7 9 rings
6 14 19 20 23 24 27 rings
6 15 21 22 25 26 28 rings
6 5 6 8 9 11 13 rings
6 8 11 12 16 17 18 rings

> <PUBCHEM_HEAVY_ATOM_COUNT>
30

> <PUBCHEM_ATOM_DEF_STEREO_COUNT>
0

> <PUBCHEM_ATOM_UDEF_STEREO_COUNT>
0

> <PUBCHEM_BOND_DEF_STEREO_COUNT>
0

> <PUBCHEM_BOND_UDEF_STEREO_COUNT>
0

> <PUBCHEM_ISOTOPIC_ATOM_COUNT>
0

> <PUBCHEM_COMPONENT_COUNT>
1

> <PUBCHEM_CACTVS_TAUTO_COUNT>
1

> <PUBCHEM_CONFORMER_ID>
0006C38600000002

> <PUBCHEM_MMFF94_ENERGY>
119.2875

> <PUBCHEM_FEATURE_SELFOVERLAP>
45.807

> <PUBCHEM_SHAPE_FINGERPRINT>
10050765 1 18338515210989995252
10254770 206 17837212946124778114
10411042 1 17906730302659922619
10940486 97 18342449305789600860
1100329 8 18341056293249635696
11227688 84 17116896034779320278
11297010 23 17478630347753512125
11578080 2 17533502222840091257
11991303 11 18343302595658195711
12107183 9 18127419058502297226
12160290 23 17978472457066359737
12553582 1 18051413968475731138
12788726 201 18197506133839073259
13004483 165 18120099385656739499
13140716 1 18340778082970082162
13540713 5 18202287983760958770
1361 2 18048882093422446483
13690498 29 18120352290953459892
13692114 37 18262537965077160091
13757389 114 18340471340179393956
138480 1 17113537572269396019
14556957 393 17911782593038521756
14790565 3 18268427026074894976
14866123 147 18411425020448351707
15131766 46 15552728774728478468
15420108 30 18050584116205422163
15439362 3 18120650494474366614
15484559 13 18049443939969875143
15664445 248 17254553219850239839
15775530 1 17753633259793858809
15927050 60 18338795718697010302
16087824 20 18338514141864547739
16728300 4 16767344185712472546
18681886 176 18341338893334308897
19301676 85 17759221274704190534
19319366 153 17560515226865072672
20028762 73 18119256296619257157
20775438 99 17250658311931142333
21133410 171 17400697728534743794
21133410 90 17241601707836511147
21307412 95 17971729290188399638
21478907 32 18194683657715639323
21583282 1 17559371730667356646
21703447 108 17902522480186821384
21781055 127 17826506962606811136
22393880 68 18338228264182095524
23536364 44 18124334717875030831
23558518 356 18200031737664371242
23559900 14 18334860476951512872
23569917 315 18265897041730633771
23929065 36 18119831130668221560
25147074 1 18059864943985304682
3103668 31 18268436733760768039
335352 9 18270679908899969916
38695281 34 18194968658965767545
4017518 198 18043253646709603094
4409770 3 18410009893533541471
563151 97 17913483546412459364
6058803 2 18272649009645222564
6669772 16 18116706507700675159
6691757 9 18187933936268718426
7164475 11 18194967326971926886
79837 15 18337387236238681673
9658208 31 18261967313662010096

> <PUBCHEM_SHAPE_MULTIPOLES>
590.7
11.71
6.39
1.12
13.02
5.34
0.11
-5.48
1.3
-11.28
1.34
0.8
0.89
-1.85

> <PUBCHEM_SHAPE_SELFOVERLAP>
1328.117

> <PUBCHEM_SHAPE_VOLUME>
312.6

> <PUBCHEM_COORDINATE_TYPE>
2
5
10

$$$$

