62896
  -OEChem-07051213143D

 23 22  0     0  0  0  0  0  0999 V2000
    0.8369    3.5411    0.9334 Cl  0  0  0  0  0  0  0  0  0  0  0  0
   -4.8139   -0.5675    0.6099 Cl  0  0  0  0  0  0  0  0  0  0  0  0
    3.7682   -1.9479    1.3046 Cl  0  0  0  0  0  0  0  0  0  0  0  0
   -0.0656    1.2652    0.0637 O   0  0  0  0  0  0  0  0  0  0  0  0
   -2.3321   -0.3194   -0.1361 O   0  0  0  0  0  0  0  0  0  0  0  0
    1.8422   -0.7794    0.0000 O   0  0  0  0  0  0  0  0  0  0  0  0
   -0.1383    0.2395   -0.9293 C   0  0  0  0  0  0  0  0  0  0  0  0
   -1.0435   -0.8647   -0.3991 C   0  0  0  0  0  0  0  0  0  0  0  0
    1.2695   -0.2773   -1.2029 C   0  0  0  0  0  0  0  0  0  0  0  0
    0.7643    2.3325   -0.3617 C   0  0  0  0  0  0  0  0  0  0  0  0
   -3.2268   -1.3117    0.3432 C   0  0  0  0  0  0  0  0  0  0  0  0
    3.1390   -1.3104   -0.2256 C   0  0  0  0  0  0  0  0  0  0  0  0
   -0.5806    0.6650   -1.8386 H   0  0  0  0  0  0  0  0  0  0  0  0
   -0.6484   -1.2710    0.5396 H   0  0  0  0  0  0  0  0  0  0  0  0
   -1.1268   -1.6735   -1.1342 H   0  0  0  0  0  0  0  0  0  0  0  0
    1.9291    0.4638   -1.6631 H   0  0  0  0  0  0  0  0  0  0  0  0
    1.1978   -1.1037   -1.9226 H   0  0  0  0  0  0  0  0  0  0  0  0
    1.8038    2.0419   -0.5068 H   0  0  0  0  0  0  0  0  0  0  0  0
    0.3621    2.8113   -1.2594 H   0  0  0  0  0  0  0  0  0  0  0  0
   -3.3474   -2.1128   -0.3922 H   0  0  0  0  0  0  0  0  0  0  0  0
   -2.8765   -1.7193    1.2962 H   0  0  0  0  0  0  0  0  0  0  0  0
    3.1016   -2.1331   -0.9459 H   0  0  0  0  0  0  0  0  0  0  0  0
    3.8200   -0.5287   -0.5752 H   0  0  0  0  0  0  0  0  0  0  0  0
  1 10  1  0  0  0  0
  2 11  1  0  0  0  0
  3 12  1  0  0  0  0
  4  7  1  0  0  0  0
  4 10  1  0  0  0  0
  5  8  1  0  0  0  0
  5 11  1  0  0  0  0
  6  9  1  0  0  0  0
  6 12  1  0  0  0  0
  7  8  1  0  0  0  0
  7  9  1  0  0  0  0
  7 13  1  0  0  0  0
  8 14  1  0  0  0  0
  8 15  1  0  0  0  0
  9 16  1  0  0  0  0
  9 17  1  0  0  0  0
 10 18  1  0  0  0  0
 10 19  1  0  0  0  0
 11 20  1  0  0  0  0
 11 21  1  0  0  0  0
 12 22  1  0  0  0  0
 12 23  1  0  0  0  0
M  END
> <PUBCHEM_COMPOUND_CID>
62896

> <PUBCHEM_CONFORMER_RMSD>
0.8

> <PUBCHEM_CONFORMER_DIVERSEORDER>
2
83
59
47
82
42
64
7
49
43
76
63
13
79
66
68
52
84
34
56
57
14
60
75
61
17
73
71
25
77
39
62
33
45
51
40
69
48
81
29
80
21
44
54
37
26
53
32
65
78
19
5
30
46
3
55
41
74
67
70
50
27
18
31
20
23
10
58
28
9
24
11
35
1
12
15
72
4
8
22
38
16
36
6

> <PUBCHEM_MMFF94_PARTIAL_CHARGES>
12
1 -0.29
10 0.57
11 0.57
12 0.57
2 -0.29
3 -0.29
4 -0.56
5 -0.56
6 -0.56
7 0.28
8 0.28
9 0.28

> <PUBCHEM_EFFECTIVE_ROTOR_COUNT>
8

> <PUBCHEM_PHARMACOPHORE_FEATURES>
3
1 4 acceptor
1 5 acceptor
1 6 acceptor

> <PUBCHEM_HEAVY_ATOM_COUNT>
12

> <PUBCHEM_ATOM_DEF_STEREO_COUNT>
0

> <PUBCHEM_ATOM_UDEF_STEREO_COUNT>
0

> <PUBCHEM_BOND_DEF_STEREO_COUNT>
0

> <PUBCHEM_BOND_UDEF_STEREO_COUNT>
0

> <PUBCHEM_ISOTOPIC_ATOM_COUNT>
0

> <PUBCHEM_COMPONENT_COUNT>
1

> <PUBCHEM_CACTVS_TAUTO_COUNT>
1

> <PUBCHEM_CONFORMER_ID>
0000F5B000000002

> <PUBCHEM_MMFF94_ENERGY>
27.5533

> <PUBCHEM_FEATURE_SELFOVERLAP>
15.232

> <PUBCHEM_SHAPE_FINGERPRINT>
10130415 120 18342166782919412463
11357001 24 18050015681536494202
12824470 246 17416415466011453194
13275264 69 18267306623936382752
136203 1 18049441749193668904
17041 49 18335409176123363195
17841504 4 18411416172730669519
19021347 4 17112979565480707360
20671657 1 18118677721543047397
20671657 53 16988277676880419574
20711985 327 18333447646915459991
21061003 4 18339092548128543470
21524375 3 17249486176031710797
23419403 2 18198931186707647324
23500284 5 17985834962893454538
23598294 1 18265897054435453626
305870 269 17830737556258004481
7364860 26 18190453866147338565
81228 2 17975407233169917340

> <PUBCHEM_SHAPE_MULTIPOLES>
234.96
6.86
3.19
1.13
6.24
4.24
-0.07
-6.27
-2.9
-2.56
-1.36
-0.62
-0.06
-0.33

> <PUBCHEM_SHAPE_SELFOVERLAP>
405.354

> <PUBCHEM_SHAPE_VOLUME>
159.2

> <PUBCHEM_COORDINATE_TYPE>
2
5
10

$$$$

