174549
  -OEChem-07051212493D

 28 27  0     1  0  0  0  0  0999 V2000
   -3.4664   -2.0656    0.7675 S   0  0  0  0  0  0  0  0  0  0  0  0
    3.3872   -0.4366   -0.0137 P   0  0  0  0  0  0  0  0  0  0  0  0
   -3.3620    0.1922   -1.3335 O   0  0  0  0  0  0  0  0  0  0  0  0
   -2.2265    2.4099    0.1205 O   0  0  0  0  0  0  0  0  0  0  0  0
    2.1197    0.4736    0.4242 O   0  0  0  0  0  0  0  0  0  0  0  0
    0.0901    1.9920    1.2371 O   0  0  0  0  0  0  0  0  0  0  0  0
    3.6429   -0.0205   -1.5554 O   0  0  0  0  0  0  0  0  0  0  0  0
    2.7491   -1.9180   -0.1293 O   0  0  0  0  0  0  0  0  0  0  0  0
    4.5832   -0.3301    0.8865 O   0  0  0  0  0  0  0  0  0  0  0  0
   -2.1782    0.0684   -0.5433 C   0  0  1  0  0  0  0  0  0  0  0  0
   -1.4471    1.4192   -0.5379 C   0  0  2  0  0  0  0  0  0  0  0  0
   -2.5536   -0.4906    0.8371 C   0  0  0  0  0  0  0  0  0  0  0  0
   -0.1119    1.3490    0.2057 C   0  0  0  0  0  0  0  0  0  0  0  0
    0.9509    0.4326   -0.3698 C   0  0  0  0  0  0  0  0  0  0  0  0
   -2.1773   -3.0754    0.0044 C   0  0  0  0  0  0  0  0  0  0  0  0
   -1.5425   -0.6548   -1.0629 H   0  0  0  0  0  0  0  0  0  0  0  0
   -1.2657    1.7776   -1.5562 H   0  0  0  0  0  0  0  0  0  0  0  0
   -1.6690   -0.6212    1.4681 H   0  0  0  0  0  0  0  0  0  0  0  0
   -3.2252    0.2057    1.3494 H   0  0  0  0  0  0  0  0  0  0  0  0
    1.1798    0.7677   -1.3851 H   0  0  0  0  0  0  0  0  0  0  0  0
    0.5696   -0.5905   -0.3845 H   0  0  0  0  0  0  0  0  0  0  0  0
   -3.0950    0.4909   -2.2195 H   0  0  0  0  0  0  0  0  0  0  0  0
   -2.3414    2.1474    1.0489 H   0  0  0  0  0  0  0  0  0  0  0  0
   -1.2181   -2.9346    0.5095 H   0  0  0  0  0  0  0  0  0  0  0  0
   -2.0785   -2.8438   -1.0587 H   0  0  0  0  0  0  0  0  0  0  0  0
   -2.4575   -4.1290    0.0917 H   0  0  0  0  0  0  0  0  0  0  0  0
    4.4188   -0.3940   -2.0252 H   0  0  0  0  0  0  0  0  0  0  0  0
    3.3442   -2.6794   -0.2972 H   0  0  0  0  0  0  0  0  0  0  0  0
  1 12  1  0  0  0  0
  1 15  1  0  0  0  0
  2  5  1  0  0  0  0
  2  7  1  0  0  0  0
  2  8  1  0  0  0  0
  2  9  2  0  0  0  0
  3 10  1  0  0  0  0
  3 22  1  0  0  0  0
  4 11  1  0  0  0  0
  4 23  1  0  0  0  0
  5 14  1  0  0  0  0
  6 13  2  0  0  0  0
  7 27  1  0  0  0  0
  8 28  1  0  0  0  0
 10 11  1  0  0  0  0
 10 12  1  0  0  0  0
 10 16  1  0  0  0  0
 11 13  1  0  0  0  0
 11 17  1  0  0  0  0
 12 18  1  0  0  0  0
 12 19  1  0  0  0  0
 13 14  1  0  0  0  0
 14 20  1  0  0  0  0
 14 21  1  0  0  0  0
 15 24  1  0  0  0  0
 15 25  1  0  0  0  0
 15 26  1  0  0  0  0
M  END
> <PUBCHEM_COMPOUND_CID>
174549

> <PUBCHEM_CONFORMER_RMSD>
0.8

> <PUBCHEM_CONFORMER_DIVERSEORDER>
1
75
47
13
204
157
162
12
167
31
231
166
221
151
114
46
71
43
120
179
6
227
174
107
136
215
60
113
218
133
52
4
123
141
85
79
178
49
97
135
98
164
21
134
182
50
8
109
189
108
90
99
205
198
51
161
14
219
209
38
230
160
201
181
34
197
121
226
94
144
223
195
110
40
62
106
74
188
212
103
5
190
119
76
3
213
191
132
73
9
229
180
55
44
207
172
116
89
127
29
163
24
152
11
82
159
91
142
68
48
176
156
140
216
32
165
25
194
37
196
211
146
18
16
115
185
30
186
7
112
78
54
95
105
42
139
225
148
10
26
149
96
131
138
36
168
92
143
208
41
169
184
193
145
210
70
170
88
72
124
33
155
187
39
154
171
2
200
228
147
63
58
175
35
69
77
66
64
101
233
27
202
130
224
87
158
234
217
192
104
61
65
206
111
28
15
232
122
199
67
19
20
125
57
45
128
80
84
177
150
86
153
22
220
137
83
81
17
214
183
126
102
56
203
117
23
59
222
118
53
100
129
93
173

> <PUBCHEM_MMFF94_PARTIAL_CHARGES>
19
1 -0.46
10 0.28
11 0.34
12 0.23
13 0.45
14 0.34
15 0.23
2 1.51
22 0.4
23 0.4
27 0.5
28 0.5
3 -0.68
4 -0.68
5 -0.55
6 -0.57
7 -0.77
8 -0.77
9 -0.7

> <PUBCHEM_EFFECTIVE_ROTOR_COUNT>
7

> <PUBCHEM_PHARMACOPHORE_FEATURES>
10
1 15 hydrophobe
1 3 acceptor
1 3 donor
1 4 acceptor
1 4 donor
1 6 acceptor
1 7 acceptor
1 8 acceptor
1 9 acceptor
4 2 7 8 9 anion

> <PUBCHEM_HEAVY_ATOM_COUNT>
15

> <PUBCHEM_ATOM_DEF_STEREO_COUNT>
2

> <PUBCHEM_ATOM_UDEF_STEREO_COUNT>
0

> <PUBCHEM_BOND_DEF_STEREO_COUNT>
0

> <PUBCHEM_BOND_UDEF_STEREO_COUNT>
0

> <PUBCHEM_ISOTOPIC_ATOM_COUNT>
0

> <PUBCHEM_COMPONENT_COUNT>
1

> <PUBCHEM_CACTVS_TAUTO_COUNT>
7

> <PUBCHEM_CONFORMER_ID>
0002A9D500000001

> <PUBCHEM_MMFF94_ENERGY>
-12.0453

> <PUBCHEM_FEATURE_SELFOVERLAP>
50.796

> <PUBCHEM_SHAPE_FINGERPRINT>
11127187 94 18272937102923592663
122479 349 7493020547923858787
12553582 1 18339070476392050359
14115302 16 18273215287923862221
14251731 5 18196367018491953315
14252887 29 17458060456924388270
19107657 162 18335417976247796934
19107657 46 18410011031056478622
19766037 51 18335973182100707943
20279233 1 18334864943421146372
20281407 28 18411133610916333937
20281475 54 18411693275108991024
20621476 91 18122366596266406994
20645476 183 16702031910816299715
20871998 22 18053383198079532297
20871999 31 17775287123601086863
21061003 4 17603862291067791425
21079973 296 18409738335303741800
21665056 4 18053946431294949717
23557571 272 18187927339394441676
23559900 14 18340217327645189792
238078 22 18265595624945584300
4416823 128 18268426837375402211
5493415 88 18337959978111090504
5902787 121 18410859824168577072
81228 2 17751347611169203840
9709674 26 18262802994313131038

> <PUBCHEM_SHAPE_MULTIPOLES>
275.31
7.43
2.72
1.1
5.96
0.8
0.11
4.07
0.06
-2.42
-0.31
0.08
-0.15
0.49

> <PUBCHEM_SHAPE_SELFOVERLAP>
498.044

> <PUBCHEM_SHAPE_VOLUME>
177.6

> <PUBCHEM_COORDINATE_TYPE>
2
5
10

$$$$

