854176
  -OEChem-06241222472D

 27 28  0     0  0  0  0  0  0999 V2000
    4.6783    1.6038    0.0000 S   0  0  0  0  0  0  0  0  0  0  0  0
    7.7619   -1.7990    0.0000 O   0  0  0  0  0  0  0  0  0  0  0  0
    4.6783   -0.0057    0.0000 N   0  0  0  0  0  0  0  0  0  0  0  0
    9.2619   -0.9330    0.0000 N   0  0  0  0  0  0  0  0  0  0  0  0
    6.2619    0.7990    0.0000 C   0  0  0  0  0  0  0  0  0  0  0  0
    6.7619   -0.0670    0.0000 C   0  0  0  0  0  0  0  0  0  0  0  0
    5.2619    0.7990    0.0000 C   0  0  0  0  0  0  0  0  0  0  0  0
    7.7619   -0.0670    0.0000 C   0  0  0  0  0  0  0  0  0  0  0  0
    3.7320    1.2990    0.0000 C   0  0  0  0  0  0  0  0  0  0  0  0
    3.7320    0.2990    0.0000 C   0  0  0  0  0  0  0  0  0  0  0  0
    8.2619   -0.9330    0.0000 C   0  0  0  0  0  0  0  0  0  0  0  0
    2.8660    1.7990    0.0000 C   0  0  0  0  0  0  0  0  0  0  0  0
    2.8660   -0.2010    0.0000 C   0  0  0  0  0  0  0  0  0  0  0  0
    2.0000    1.2990    0.0000 C   0  0  0  0  0  0  0  0  0  0  0  0
    2.0000    0.2990    0.0000 C   0  0  0  0  0  0  0  0  0  0  0  0
    6.8445    1.0111    0.0000 H   0  0  0  0  0  0  0  0  0  0  0  0
    6.1542    1.4096    0.0000 H   0  0  0  0  0  0  0  0  0  0  0  0
    6.1793   -0.2790    0.0000 H   0  0  0  0  0  0  0  0  0  0  0  0
    6.8695   -0.6776    0.0000 H   0  0  0  0  0  0  0  0  0  0  0  0
    8.3445    0.1451    0.0000 H   0  0  0  0  0  0  0  0  0  0  0  0
    7.6542    0.5436    0.0000 H   0  0  0  0  0  0  0  0  0  0  0  0
    2.8660    2.4190    0.0000 H   0  0  0  0  0  0  0  0  0  0  0  0
    2.8660   -0.8210    0.0000 H   0  0  0  0  0  0  0  0  0  0  0  0
    1.4631    1.6090    0.0000 H   0  0  0  0  0  0  0  0  0  0  0  0
    1.4631   -0.0110    0.0000 H   0  0  0  0  0  0  0  0  0  0  0  0
    9.5719   -1.4700    0.0000 H   0  0  0  0  0  0  0  0  0  0  0  0
    9.5719   -0.3961    0.0000 H   0  0  0  0  0  0  0  0  0  0  0  0
  1  7  1  0  0  0  0
  1  9  1  0  0  0  0
  2 11  2  0  0  0  0
  3  7  2  0  0  0  0
  3 10  1  0  0  0  0
  4 11  1  0  0  0  0
  4 26  1  0  0  0  0
  4 27  1  0  0  0  0
  5  6  1  0  0  0  0
  5  7  1  0  0  0  0
  5 16  1  0  0  0  0
  5 17  1  0  0  0  0
  6  8  1  0  0  0  0
  6 18  1  0  0  0  0
  6 19  1  0  0  0  0
  8 11  1  0  0  0  0
  8 20  1  0  0  0  0
  8 21  1  0  0  0  0
  9 10  1  0  0  0  0
  9 12  2  0  0  0  0
 10 13  2  0  0  0  0
 12 14  1  0  0  0  0
 12 22  1  0  0  0  0
 13 15  1  0  0  0  0
 13 23  1  0  0  0  0
 14 15  2  0  0  0  0
 14 24  1  0  0  0  0
 15 25  1  0  0  0  0
M  END
> <PUBCHEM_COMPOUND_CID>
854176

> <PUBCHEM_COMPOUND_CANONICALIZED>
1

> <PUBCHEM_CACTVS_COMPLEXITY>
235

> <PUBCHEM_CACTVS_HBOND_ACCEPTOR>
3

> <PUBCHEM_CACTVS_HBOND_DONOR>
1

> <PUBCHEM_CACTVS_ROTATABLE_BOND>
4

> <PUBCHEM_CACTVS_SUBSKEYS>
AAADccBzIABAAAAAAAAAAAAAAAAAAWAAAAAwAAAAAAAAAFgB8AAAHgQQAAAACAiB1gAwwbJIEAisASVyVACD8KBhCjhImD0wZJgIILLgkZGEIAhgkADoyAcYAQAAAAAAAAAAAQAAAAAAAAACAAAAAAAAAA==

> <PUBCHEM_IUPAC_OPENEYE_NAME>
4-(1,3-benzothiazol-2-yl)butanamide

> <PUBCHEM_IUPAC_CAS_NAME>
4-(1,3-benzothiazol-2-yl)butanamide

> <PUBCHEM_IUPAC_NAME>
4-(1,3-benzothiazol-2-yl)butanamide

> <PUBCHEM_IUPAC_SYSTEMATIC_NAME>
4-(1,3-benzothiazol-2-yl)butanamide

> <PUBCHEM_IUPAC_TRADITIONAL_NAME>
4-(1,3-benzothiazol-2-yl)butyramide

> <PUBCHEM_IUPAC_INCHI>
InChI=1S/C11H12N2OS/c12-10(14)6-3-7-11-13-8-4-1-2-5-9(8)15-11/h1-2,4-5H,3,6-7H2,(H2,12,14)

> <PUBCHEM_IUPAC_INCHIKEY>
YJAYSTKTNOOHLX-UHFFFAOYSA-N

> <PUBCHEM_XLOGP3_AA>
1.9

> <PUBCHEM_EXACT_MASS>
220.067034

> <PUBCHEM_MOLECULAR_FORMULA>
C11H12N2OS

> <PUBCHEM_MOLECULAR_WEIGHT>
220.29078

> <PUBCHEM_OPENEYE_CAN_SMILES>
C1=CC=C2C(=C1)N=C(S2)CCCC(=O)N

> <PUBCHEM_OPENEYE_ISO_SMILES>
C1=CC=C2C(=C1)N=C(S2)CCCC(=O)N

> <PUBCHEM_CACTVS_TPSA>
84.2

> <PUBCHEM_MONOISOTOPIC_WEIGHT>
220.067034

> <PUBCHEM_TOTAL_CHARGE>
0

> <PUBCHEM_HEAVY_ATOM_COUNT>
15

> <PUBCHEM_ATOM_DEF_STEREO_COUNT>
0

> <PUBCHEM_ATOM_UDEF_STEREO_COUNT>
0

> <PUBCHEM_BOND_DEF_STEREO_COUNT>
0

> <PUBCHEM_BOND_UDEF_STEREO_COUNT>
0

> <PUBCHEM_ISOTOPIC_ATOM_COUNT>
0

> <PUBCHEM_COMPONENT_COUNT>
1

> <PUBCHEM_CACTVS_TAUTO_COUNT>
6

> <PUBCHEM_COORDINATE_TYPE>
1
5
255

> <PUBCHEM_BONDANNOTATIONS>
1  7  8
1  9  8
10  13  8
12  14  8
13  15  8
14  15  8
3  10  8
3  7  8
9  10  8
9  12  8

$$$$

