99535
  -OEChem-07051212563D

 46 50  0     1  0  0  0  0  0999 V2000
   -1.1875    1.1582   -1.2662 O   0  0  0  0  0  0  0  0  0  0  0  0
    1.9621    1.9801    0.4980 O   0  0  0  0  0  0  0  0  0  0  0  0
   -3.4049   -0.6891    0.0762 O   0  0  0  0  0  0  0  0  0  0  0  0
    4.1009    1.5566    1.2225 O   0  0  0  0  0  0  0  0  0  0  0  0
   -3.5528   -2.8746   -0.5049 O   0  0  0  0  0  0  0  0  0  0  0  0
   -1.2537    0.3757   -0.0636 C   0  0  2  0  0  0  0  0  0  0  0  0
   -0.3428    1.5889   -0.1862 C   0  0  1  0  0  0  0  0  0  0  0  0
    1.5639    0.0158   -0.6912 C   0  0  1  0  0  0  0  0  0  0  0  0
    0.8847   -0.9803    0.3178 C   0  0  1  0  0  0  0  0  0  0  0  0
    1.1046    1.4560   -0.5296 C   0  0  2  0  0  0  0  0  0  0  0  0
   -0.6261   -0.9613    0.0412 C   0  0  0  0  0  0  0  0  0  0  0  0
    3.0831    0.1487   -0.5078 C   0  0  1  0  0  0  0  0  0  0  0  0
   -2.6056    0.4145    0.5946 C   0  0  1  0  0  0  0  0  0  0  0  0
    1.5775   -2.3566    0.1057 C   0  0  0  0  0  0  0  0  0  0  0  0
    1.0318   -0.6111    1.8245 C   0  0  0  0  0  0  0  0  0  0  0  0
    3.1488    1.2790    0.5093 C   0  0  0  0  0  0  0  0  0  0  0  0
    3.7443   -1.1160   -0.0293 C   0  0  0  0  0  0  0  0  0  0  0  0
   -3.4171    1.6848    0.3777 C   0  0  0  0  0  0  0  0  0  0  0  0
   -1.4010   -2.0562   -0.0272 C   0  0  0  0  0  0  0  0  0  0  0  0
    3.7816    0.6189   -1.7942 C   0  0  0  0  0  0  0  0  0  0  0  0
    3.0756   -2.2562    0.1990 C   0  0  0  0  0  0  0  0  0  0  0  0
   -2.8643   -1.9133   -0.1783 C   0  0  0  0  0  0  0  0  0  0  0  0
   -3.6542    1.9273   -1.1127 C   0  0  0  0  0  0  0  0  0  0  0  0
   -4.7488    1.6102    1.1246 C   0  0  0  0  0  0  0  0  0  0  0  0
   -0.5926    2.5211    0.2989 H   0  0  0  0  0  0  0  0  0  0  0  0
    1.3246   -0.3292   -1.7084 H   0  0  0  0  0  0  0  0  0  0  0  0
    1.2960    2.0454   -1.4345 H   0  0  0  0  0  0  0  0  0  0  0  0
   -2.4883    0.2474    1.6739 H   0  0  0  0  0  0  0  0  0  0  0  0
    1.3212   -2.7823   -0.8727 H   0  0  0  0  0  0  0  0  0  0  0  0
    1.2348   -3.0712    0.8649 H   0  0  0  0  0  0  0  0  0  0  0  0
    0.5879    0.3584    2.0723 H   0  0  0  0  0  0  0  0  0  0  0  0
    0.5230   -1.3546    2.4520 H   0  0  0  0  0  0  0  0  0  0  0  0
    2.0722   -0.5852    2.1601 H   0  0  0  0  0  0  0  0  0  0  0  0
    4.8248   -1.1151    0.0918 H   0  0  0  0  0  0  0  0  0  0  0  0
   -2.8707    2.5448    0.7836 H   0  0  0  0  0  0  0  0  0  0  0  0
   -1.0113   -3.0640    0.0409 H   0  0  0  0  0  0  0  0  0  0  0  0
    4.8595    0.7464   -1.6349 H   0  0  0  0  0  0  0  0  0  0  0  0
    3.6472   -0.1064   -2.6050 H   0  0  0  0  0  0  0  0  0  0  0  0
    3.4047    1.5858   -2.1445 H   0  0  0  0  0  0  0  0  0  0  0  0
    3.6246   -3.1470    0.4892 H   0  0  0  0  0  0  0  0  0  0  0  0
   -3.7210    1.0118   -1.7086 H   0  0  0  0  0  0  0  0  0  0  0  0
   -4.6019    2.4603   -1.2625 H   0  0  0  0  0  0  0  0  0  0  0  0
   -2.9017    2.5938   -1.5451 H   0  0  0  0  0  0  0  0  0  0  0  0
   -5.4010    0.8277    0.7225 H   0  0  0  0  0  0  0  0  0  0  0  0
   -5.2868    2.5615    1.0481 H   0  0  0  0  0  0  0  0  0  0  0  0
   -4.5890    1.4077    2.1890 H   0  0  0  0  0  0  0  0  0  0  0  0
  1  6  1  0  0  0  0
  1  7  1  0  0  0  0
  2 10  1  0  0  0  0
  2 16  1  0  0  0  0
  3 13  1  0  0  0  0
  3 22  1  0  0  0  0
  4 16  2  0  0  0  0
  5 22  2  0  0  0  0
  6  7  1  0  0  0  0
  6 11  1  0  0  0  0
  6 13  1  0  0  0  0
  7 10  1  0  0  0  0
  7 25  1  0  0  0  0
  8  9  1  0  0  0  0
  8 10  1  0  0  0  0
  8 12  1  0  0  0  0
  8 26  1  0  0  0  0
  9 11  1  0  0  0  0
  9 14  1  0  0  0  0
  9 15  1  0  0  0  0
 10 27  1  0  0  0  0
 11 19  2  0  0  0  0
 12 16  1  0  0  0  0
 12 17  1  0  0  0  0
 12 20  1  0  0  0  0
 13 18  1  0  0  0  0
 13 28  1  0  0  0  0
 14 21  1  0  0  0  0
 14 29  1  0  0  0  0
 14 30  1  0  0  0  0
 15 31  1  0  0  0  0
 15 32  1  0  0  0  0
 15 33  1  0  0  0  0
 17 21  2  0  0  0  0
 17 34  1  0  0  0  0
 18 23  1  0  0  0  0
 18 24  1  0  0  0  0
 18 35  1  0  0  0  0
 19 22  1  0  0  0  0
 19 36  1  0  0  0  0
 20 37  1  0  0  0  0
 20 38  1  0  0  0  0
 20 39  1  0  0  0  0
 21 40  1  0  0  0  0
 23 41  1  0  0  0  0
 23 42  1  0  0  0  0
 23 43  1  0  0  0  0
 24 44  1  0  0  0  0
 24 45  1  0  0  0  0
 24 46  1  0  0  0  0
M  END
> <PUBCHEM_COMPOUND_CID>
99535

> <PUBCHEM_CONFORMER_RMSD>
0.6

> <PUBCHEM_CONFORMER_DIVERSEORDER>
1

> <PUBCHEM_MMFF94_PARTIAL_CHARGES>
22
1 -0.3
10 0.38
11 -0.18
12 0.2
13 0.38
14 0.14
16 0.66
17 -0.29
19 -0.14
2 -0.43
21 -0.29
22 0.71
25 0.1
3 -0.43
34 0.15
36 0.15
4 -0.57
40 0.15
5 -0.57
6 0.09
7 -0.05
9 0.14

> <PUBCHEM_EFFECTIVE_ROTOR_COUNT>
2

> <PUBCHEM_PHARMACOPHORE_FEATURES>
8
1 1 acceptor
1 4 acceptor
1 5 acceptor
3 18 23 24 hydrophobe
5 2 8 10 12 16 rings
6 3 6 11 13 19 22 rings
6 8 9 12 14 17 21 rings
7 1 6 7 8 9 10 11 rings

> <PUBCHEM_HEAVY_ATOM_COUNT>
24

> <PUBCHEM_ATOM_DEF_STEREO_COUNT>
7

> <PUBCHEM_ATOM_UDEF_STEREO_COUNT>
0

> <PUBCHEM_BOND_DEF_STEREO_COUNT>
0

> <PUBCHEM_BOND_UDEF_STEREO_COUNT>
0

> <PUBCHEM_ISOTOPIC_ATOM_COUNT>
0

> <PUBCHEM_COMPONENT_COUNT>
1

> <PUBCHEM_CACTVS_TAUTO_COUNT>
1

> <PUBCHEM_CONFORMER_ID>
000184CF00000001

> <PUBCHEM_MMFF94_ENERGY>
76.2401

> <PUBCHEM_FEATURE_SELFOVERLAP>
40.837

> <PUBCHEM_SHAPE_FINGERPRINT>
10062212 137 18343867731491695626
10616163 171 18410005503370317335
10646746 165 18335983086596076800
10863032 1 18334576849578098658
10948715 1 18188213074893969760
10967382 1 18195527223235489647
1100329 8 18267587003401611794
11132069 177 18271813427298301108
11578080 2 17749400212903864475
12173636 292 18336267941923176125
12403260 363 18195257619991243544
12403814 3 17774998025073425541
12422481 6 18127435503963235016
12633257 1 18337959020465369250
13140716 1 18339927111808729650
13224815 77 17917710188534595330
13583140 156 17386016017854511889
14178342 30 18339089198243859336
14223421 5 18338804411678460755
14790565 3 18125150542644727724
15196674 1 18411135835957390982
15238133 3 17169548725765147305
15442244 35 18410575123323429675
15536298 74 18408323289371272818
16752209 62 18337121081410750831
16945 1 18125994975636500266
17492 89 18409167679763318743
18186145 218 18259978284316333280
18981168 100 18337974336186565937
19591789 44 18052535757786926805
20261772 1 18341600534710488009
20510252 161 18189051993380499385
20691752 17 17561365084501838282
20739085 24 17908961538048946633
20905425 154 18411138043634027838
21033648 29 18059298793970667469
21267235 1 18340194258806351403
21421861 104 17916026952771795810
21501502 16 18412825789360726782
22393880 68 18334285458002157790
23184049 59 18268702995224512585
2334 1 18413670192715762999
23557571 272 18114460046510024906
23558518 356 17913763921191467025
23559900 14 18259983808240030662
2748010 2 18342175600207579510
335352 9 18266739275736185094
34934 24 18342177794909539340
350125 39 18410287009007566587
474 4 17703500022060593262
495365 180 17749967651124580520
5104073 3 18411138039043629570
633830 44 17604144930191869565
7364860 26 18336549425384352186
74978 22 18336269019701309473
7832392 63 18409727369788050232
9709674 26 18338232665738051414

> <PUBCHEM_SHAPE_MULTIPOLES>
464.56
7.92
2.79
1.2
2.7
1.23
0.05
-1.84
0.22
0.91
-0.11
-0.37
-0.37
-0.27

> <PUBCHEM_SHAPE_SELFOVERLAP>
1033.568

> <PUBCHEM_SHAPE_VOLUME>
246.9

> <PUBCHEM_COORDINATE_TYPE>
2
5
10

$$$$

