442648
  -OEChem-07051212593D

 24 25  0     1  0  0  0  0  0999 V2000
    2.3355    0.0725   -1.3899 O   0  0  0  0  0  0  0  0  0  0  0  0
   -0.4903    0.9969    1.3018 N   0  0  0  0  0  0  0  0  0  0  0  0
   -0.6080   -1.2924   -0.5035 C   0  0  1  0  0  0  0  0  0  0  0  0
   -0.0409    0.0839   -0.9057 C   0  0  2  0  0  0  0  0  0  0  0  0
    0.2997   -0.2311    1.6007 C   0  0  1  0  0  0  0  0  0  0  0  0
   -0.4820   -1.4378    1.0352 C   0  0  0  0  0  0  0  0  0  0  0  0
    1.6870   -0.1121    0.9344 C   0  0  0  0  0  0  0  0  0  0  0  0
    1.4383    0.0252   -0.5568 C   0  0  0  0  0  0  0  0  0  0  0  0
   -0.6614    1.1196    0.0194 C   0  0  0  0  0  0  0  0  0  0  0  0
   -2.0466   -1.4890   -0.9753 C   0  0  0  0  0  0  0  0  0  0  0  0
   -1.4311    2.2643   -0.5603 C   0  0  0  0  0  0  0  0  0  0  0  0
    0.0004   -2.0786   -0.9716 H   0  0  0  0  0  0  0  0  0  0  0  0
   -0.1862    0.3294   -1.9600 H   0  0  0  0  0  0  0  0  0  0  0  0
    0.4085   -0.3263    2.6860 H   0  0  0  0  0  0  0  0  0  0  0  0
   -1.4706   -1.4903    1.5077 H   0  0  0  0  0  0  0  0  0  0  0  0
    0.0400   -2.3714    1.2764 H   0  0  0  0  0  0  0  0  0  0  0  0
    2.2872   -1.0076    1.1193 H   0  0  0  0  0  0  0  0  0  0  0  0
    2.2141    0.7795    1.2871 H   0  0  0  0  0  0  0  0  0  0  0  0
   -2.1134   -1.3863   -2.0634 H   0  0  0  0  0  0  0  0  0  0  0  0
   -2.4042   -2.4893   -0.7094 H   0  0  0  0  0  0  0  0  0  0  0  0
   -2.7263   -0.7589   -0.5240 H   0  0  0  0  0  0  0  0  0  0  0  0
   -2.2505    1.8778   -1.1718 H   0  0  0  0  0  0  0  0  0  0  0  0
   -0.7666    2.8642   -1.1875 H   0  0  0  0  0  0  0  0  0  0  0  0
   -1.8410    2.8931    0.2344 H   0  0  0  0  0  0  0  0  0  0  0  0
  1  8  2  0  0  0  0
  2  5  1  0  0  0  0
  2  9  2  0  0  0  0
  3  4  1  0  0  0  0
  3  6  1  0  0  0  0
  3 10  1  0  0  0  0
  3 12  1  0  0  0  0
  4  8  1  0  0  0  0
  4  9  1  0  0  0  0
  4 13  1  0  0  0  0
  5  6  1  0  0  0  0
  5  7  1  0  0  0  0
  5 14  1  0  0  0  0
  6 15  1  0  0  0  0
  6 16  1  0  0  0  0
  7  8  1  0  0  0  0
  7 17  1  0  0  0  0
  7 18  1  0  0  0  0
  9 11  1  0  0  0  0
 10 19  1  0  0  0  0
 10 20  1  0  0  0  0
 10 21  1  0  0  0  0
 11 22  1  0  0  0  0
 11 23  1  0  0  0  0
 11 24  1  0  0  0  0
M  END
> <PUBCHEM_COMPOUND_CID>
442648

> <PUBCHEM_CONFORMER_RMSD>
0.4

> <PUBCHEM_CONFORMER_DIVERSEORDER>
2
1
3
4

> <PUBCHEM_MMFF94_PARTIAL_CHARGES>
8
1 -0.57
11 0.06
2 -0.7
4 0.12
5 0.25
7 0.06
8 0.45
9 0.33

> <PUBCHEM_EFFECTIVE_ROTOR_COUNT>
0.6

> <PUBCHEM_PHARMACOPHORE_FEATURES>
3
1 1 acceptor
1 2 acceptor
8 2 3 4 5 6 7 8 9 rings

> <PUBCHEM_HEAVY_ATOM_COUNT>
11

> <PUBCHEM_ATOM_DEF_STEREO_COUNT>
0

> <PUBCHEM_ATOM_UDEF_STEREO_COUNT>
3

> <PUBCHEM_BOND_DEF_STEREO_COUNT>
0

> <PUBCHEM_BOND_UDEF_STEREO_COUNT>
0

> <PUBCHEM_ISOTOPIC_ATOM_COUNT>
0

> <PUBCHEM_COMPONENT_COUNT>
1

> <PUBCHEM_CACTVS_TAUTO_COUNT>
2

> <PUBCHEM_CONFORMER_ID>
0006C11800000002

> <PUBCHEM_MMFF94_ENERGY>
28.513

> <PUBCHEM_FEATURE_SELFOVERLAP>
15.223

> <PUBCHEM_SHAPE_FINGERPRINT>
10702982 57 18057320806410240086
12423570 1 6833007614640796378
12725867 57 17832742017605570911
13024252 1 16699737105305136372
137420 1 7581499300614301850
14817 1 10394850540443324255
15557651 10 18048849056528542688
16945 1 18410301310663060839
21040471 1 17975718373453969373
29004967 10 17096938949056439186
5084963 1 18052239988916397016

> <PUBCHEM_SHAPE_MULTIPOLES>
215.52
2.18
1.86
1.52
0.25
0.59
0.11
-0.14
-0.79
-1.37
0.03
0.5
-0.12
-0.32

> <PUBCHEM_SHAPE_SELFOVERLAP>
453.556

> <PUBCHEM_SHAPE_VOLUME>
123.1

> <PUBCHEM_COORDINATE_TYPE>
2
5
10

$$$$

