11954065
  -OEChem-07051213063D

 12 12  0     0  0  0  0  0  0999 V2000
   -3.3460   -0.3177   -0.0008 Br  0  0  0  0  0  0  0  0  0  0  0  0
    1.6183   -1.7962    0.0000 O   0  0  0  0  0  0  0  0  0  0  0  0
    2.4966    0.7468   -0.0013 O   0  0  0  0  0  0  0  0  0  0  0  0
    0.8024   -0.8876    0.0006 C   0  0  0  0  0  0  0  0  0  0  0  0
   -0.6564   -1.1202    0.0002 C   0  0  0  0  0  0  0  0  0  0  0  0
    1.2943    0.5348    0.0004 C   0  0  0  0  0  0  0  0  0  0  0  0
   -1.4894   -0.0701    0.0001 C   0  0  0  0  0  0  0  0  0  0  0  0
    0.2896    1.6145    0.0005 C   0  0  0  0  0  0  0  0  0  0  0  0
   -1.0094    1.2955    0.0004 C   0  0  0  0  0  0  0  0  0  0  0  0
   -1.0019   -2.1477   -0.0001 H   0  0  0  0  0  0  0  0  0  0  0  0
    0.6294    2.6427    0.0006 H   0  0  0  0  0  0  0  0  0  0  0  0
   -1.7409    2.0988    0.0005 H   0  0  0  0  0  0  0  0  0  0  0  0
  1  7  1  0  0  0  0
  2  4  2  0  0  0  0
  3  6  2  0  0  0  0
  4  5  1  0  0  0  0
  4  6  1  0  0  0  0
  5  7  2  0  0  0  0
  5 10  1  0  0  0  0
  6  8  1  0  0  0  0
  7  9  1  0  0  0  0
  8  9  2  0  0  0  0
  8 11  1  0  0  0  0
  9 12  1  0  0  0  0
M  END
> <PUBCHEM_COMPOUND_CID>
11954065

> <PUBCHEM_CONFORMER_RMSD>
0.4

> <PUBCHEM_CONFORMER_DIVERSEORDER>
1

> <PUBCHEM_MMFF94_PARTIAL_CHARGES>
12
1 -0.11
10 0.15
11 0.15
12 0.15
2 -0.57
3 -0.57
4 0.56
5 -0.14
6 0.56
7 0.11
8 -0.14
9 -0.15

> <PUBCHEM_EFFECTIVE_ROTOR_COUNT>
0

> <PUBCHEM_PHARMACOPHORE_FEATURES>
4
1 1 hydrophobe
1 2 acceptor
1 3 acceptor
6 4 5 6 7 8 9 rings

> <PUBCHEM_HEAVY_ATOM_COUNT>
9

> <PUBCHEM_ATOM_DEF_STEREO_COUNT>
0

> <PUBCHEM_ATOM_UDEF_STEREO_COUNT>
0

> <PUBCHEM_BOND_DEF_STEREO_COUNT>
0

> <PUBCHEM_BOND_UDEF_STEREO_COUNT>
0

> <PUBCHEM_ISOTOPIC_ATOM_COUNT>
0

> <PUBCHEM_COMPONENT_COUNT>
1

> <PUBCHEM_CACTVS_TAUTO_COUNT>
1

> <PUBCHEM_CONFORMER_ID>
00B6679100000001

> <PUBCHEM_MMFF94_ENERGY>
14.1837

> <PUBCHEM_FEATURE_SELFOVERLAP>
20.304

> <PUBCHEM_SHAPE_FINGERPRINT>
16945 1 18410575046198433221
18185500 45 18336267846980052415
193761 8 18050287269097712037
21040471 1 17762055432662504833
23235685 24 18340492153416238669
23402655 69 18337126643852231549
23552333 60 18334856142801087603
23552423 10 18200026390461774991
241688 4 18124593342934343960
2748010 2 18266744764699042933
29004967 10 18343015571515016897
5084963 1 18116155647906131171

> <PUBCHEM_SHAPE_MULTIPOLES>
179.42
3.63
1.69
0.61
2.24
0.07
0
0.3
0
-0.6
0
0.1
-0.01
0

> <PUBCHEM_SHAPE_SELFOVERLAP>
360.327

> <PUBCHEM_SHAPE_VOLUME>
107.7

> <PUBCHEM_COORDINATE_TYPE>
2
5
10

$$$$

