12840
  -OEChem-06261207262D

 19 20  0     0  0  0  0  0  0999 V2000
    6.4103    0.8047    0.0000 O   0  0  0  0  0  0  0  0  0  0  0  0
    6.4103   -0.8047    0.0000 O   0  0  0  0  0  0  0  0  0  0  0  0
    2.8660    2.0000    0.0000 O   0  5  0  0  0  0  0  0  0  0  0  0
    2.0000    0.5000    0.0000 O   0  0  0  0  0  0  0  0  0  0  0  0
    2.8660   -2.0000    0.0000 O   0  0  0  0  0  0  0  0  0  0  0  0
    2.8660    1.0000    0.0000 N   0  3  0  0  0  0  0  0  0  0  0  0
    5.4641    0.5000    0.0000 C   0  0  0  0  0  0  0  0  0  0  0  0
    5.4641   -0.5000    0.0000 C   0  0  0  0  0  0  0  0  0  0  0  0
    3.7320    0.5000    0.0000 C   0  0  0  0  0  0  0  0  0  0  0  0
    3.7320   -0.5000    0.0000 C   0  0  0  0  0  0  0  0  0  0  0  0
    4.5981    1.0000    0.0000 C   0  0  0  0  0  0  0  0  0  0  0  0
    4.5981   -1.0000    0.0000 C   0  0  0  0  0  0  0  0  0  0  0  0
    6.9939    0.0000    0.0000 C   0  0  0  0  0  0  0  0  0  0  0  0
    2.8660   -1.0000    0.0000 C   0  0  0  0  0  0  0  0  0  0  0  0
    4.5981    1.6200    0.0000 H   0  0  0  0  0  0  0  0  0  0  0  0
    4.5981   -1.6200    0.0000 H   0  0  0  0  0  0  0  0  0  0  0  0
    7.4548   -0.4147    0.0000 H   0  0  0  0  0  0  0  0  0  0  0  0
    7.4548    0.4147    0.0000 H   0  0  0  0  0  0  0  0  0  0  0  0
    2.3291   -0.6900    0.0000 H   0  0  0  0  0  0  0  0  0  0  0  0
  1  7  1  0  0  0  0
  1 13  1  0  0  0  0
  2  8  1  0  0  0  0
  2 13  1  0  0  0  0
  3  6  1  0  0  0  0
  4  6  2  0  0  0  0
  5 14  2  0  0  0  0
  6  9  1  0  0  0  0
  7  8  2  0  0  0  0
  7 11  1  0  0  0  0
  8 12  1  0  0  0  0
  9 10  1  0  0  0  0
  9 11  2  0  0  0  0
 10 12  2  0  0  0  0
 10 14  1  0  0  0  0
 11 15  1  0  0  0  0
 12 16  1  0  0  0  0
 13 17  1  0  0  0  0
 13 18  1  0  0  0  0
 14 19  1  0  0  0  0
M  CHG  2   3  -1   6   1
M  END
> <PUBCHEM_COMPOUND_CID>
12840

> <PUBCHEM_COMPOUND_CANONICALIZED>
1

> <PUBCHEM_CACTVS_COMPLEXITY>
251

> <PUBCHEM_CACTVS_HBOND_ACCEPTOR>
5

> <PUBCHEM_CACTVS_HBOND_DONOR>
0

> <PUBCHEM_CACTVS_ROTATABLE_BOND>
1

> <PUBCHEM_CACTVS_SUBSKEYS>
AAADcYByOAAAAAAAAAAAAAAAAAAAASAAAAAwAAAAAAAAAEgBAAAAHgAEAAAADAyhmAMwzoAQRACJAixSwwCCCAAkIgAgiAEG7ModJjqEtZugMaJmwBkO6ce63BHOIEABAgACQABAgAIEAASAAAAAAAAAAA==

> <PUBCHEM_IUPAC_OPENEYE_NAME>
6-nitro-1,3-benzodioxole-5-carbaldehyde

> <PUBCHEM_IUPAC_CAS_NAME>
6-nitro-1,3-benzodioxole-5-carboxaldehyde

> <PUBCHEM_IUPAC_NAME>
6-nitro-1,3-benzodioxole-5-carbaldehyde

> <PUBCHEM_IUPAC_SYSTEMATIC_NAME>
6-nitro-1,3-benzodioxole-5-carbaldehyde

> <PUBCHEM_IUPAC_TRADITIONAL_NAME>
6-nitropiperonal

> <PUBCHEM_IUPAC_INCHI>
InChI=1S/C8H5NO5/c10-3-5-1-7-8(14-4-13-7)2-6(5)9(11)12/h1-3H,4H2

> <PUBCHEM_IUPAC_INCHIKEY>
NRZWECORTTWSEF-UHFFFAOYSA-N

> <PUBCHEM_XLOGP3_AA>
1

> <PUBCHEM_EXACT_MASS>
195.016772

> <PUBCHEM_MOLECULAR_FORMULA>
C8H5NO5

> <PUBCHEM_MOLECULAR_WEIGHT>
195.129

> <PUBCHEM_OPENEYE_CAN_SMILES>
C1OC2=C(O1)C=C(C(=C2)C=O)[N+](=O)[O-]

> <PUBCHEM_OPENEYE_ISO_SMILES>
C1OC2=C(O1)C=C(C(=C2)C=O)[N+](=O)[O-]

> <PUBCHEM_CACTVS_TPSA>
81.4

> <PUBCHEM_MONOISOTOPIC_WEIGHT>
195.016772

> <PUBCHEM_TOTAL_CHARGE>
0

> <PUBCHEM_HEAVY_ATOM_COUNT>
14

> <PUBCHEM_ATOM_DEF_STEREO_COUNT>
0

> <PUBCHEM_ATOM_UDEF_STEREO_COUNT>
0

> <PUBCHEM_BOND_DEF_STEREO_COUNT>
0

> <PUBCHEM_BOND_UDEF_STEREO_COUNT>
0

> <PUBCHEM_ISOTOPIC_ATOM_COUNT>
0

> <PUBCHEM_COMPONENT_COUNT>
1

> <PUBCHEM_CACTVS_TAUTO_COUNT>
1

> <PUBCHEM_COORDINATE_TYPE>
1
5
255

> <PUBCHEM_BONDANNOTATIONS>
10  12  8
7  11  8
7  8  8
8  12  8
9  10  8
9  11  8

$$$$

