47205107
  -OEChem-06241222583D

 39 40  0     0  0  0  0  0  0999 V2000
    3.0215    0.2116   -0.4993 O   0  0  0  0  0  0  0  0  0  0  0  0
   -1.0088   -2.6297    1.3401 O   0  0  0  0  0  0  0  0  0  0  0  0
   -0.7958   -1.8707   -0.8438 N   0  0  0  0  0  0  0  0  0  0  0  0
   -2.1834    0.7719   -1.4133 N   0  0  0  0  0  0  0  0  0  0  0  0
   -2.7416    1.9249   -1.0071 N   0  0  0  0  0  0  0  0  0  0  0  0
    1.8168   -1.4902    1.4651 C   0  0  0  0  0  0  0  0  0  0  0  0
    1.2039   -2.3844    0.3888 C   0  0  0  0  0  0  0  0  0  0  0  0
    1.4309   -0.0461    1.2756 C   0  0  0  0  0  0  0  0  0  0  0  0
    2.0520    0.7360    0.3019 C   0  0  0  0  0  0  0  0  0  0  0  0
   -0.3130   -2.3195    0.3769 C   0  0  0  0  0  0  0  0  0  0  0  0
    0.4407    0.5073    2.0874 C   0  0  0  0  0  0  0  0  0  0  0  0
   -2.2069   -1.7196   -1.1100 C   0  0  0  0  0  0  0  0  0  0  0  0
    1.6831    2.0713    0.1400 C   0  0  0  0  0  0  0  0  0  0  0  0
   -2.6925   -0.3337   -0.7976 C   0  0  0  0  0  0  0  0  0  0  0  0
    0.0718    1.8427    1.9255 C   0  0  0  0  0  0  0  0  0  0  0  0
    0.6930    2.6248    0.9518 C   0  0  0  0  0  0  0  0  0  0  0  0
    3.1443    0.7593   -1.8103 C   0  0  0  0  0  0  0  0  0  0  0  0
   -3.6499    0.1283    0.0721 C   0  0  0  0  0  0  0  0  0  0  0  0
   -3.6368    1.5255   -0.0998 C   0  0  0  0  0  0  0  0  0  0  0  0
    3.6708   -0.3096   -2.7440 C   0  0  0  0  0  0  0  0  0  0  0  0
    1.4962   -1.8334    2.4572 H   0  0  0  0  0  0  0  0  0  0  0  0
    2.9093   -1.5871    1.4564 H   0  0  0  0  0  0  0  0  0  0  0  0
    1.6143   -2.1343   -0.5957 H   0  0  0  0  0  0  0  0  0  0  0  0
    1.4801   -3.4282    0.5810 H   0  0  0  0  0  0  0  0  0  0  0  0
   -0.0540   -0.0889    2.8496 H   0  0  0  0  0  0  0  0  0  0  0  0
   -2.7691   -2.4567   -0.5261 H   0  0  0  0  0  0  0  0  0  0  0  0
   -2.3655   -1.9365   -2.1718 H   0  0  0  0  0  0  0  0  0  0  0  0
   -0.1479   -1.6112   -1.5817 H   0  0  0  0  0  0  0  0  0  0  0  0
    2.1597    2.7252   -0.5842 H   0  0  0  0  0  0  0  0  0  0  0  0
   -0.6995    2.2735    2.5571 H   0  0  0  0  0  0  0  0  0  0  0  0
    0.4089    3.6660    0.8299 H   0  0  0  0  0  0  0  0  0  0  0  0
    3.8419    1.6037   -1.7849 H   0  0  0  0  0  0  0  0  0  0  0  0
    2.1766    1.0913   -2.2073 H   0  0  0  0  0  0  0  0  0  0  0  0
   -4.2679   -0.4594    0.7350 H   0  0  0  0  0  0  0  0  0  0  0  0
   -1.4550    0.8137   -2.1154 H   0  0  0  0  0  0  0  0  0  0  0  0
   -4.2416    2.2691    0.3989 H   0  0  0  0  0  0  0  0  0  0  0  0
    3.7901    0.0805   -3.7587 H   0  0  0  0  0  0  0  0  0  0  0  0
    2.9891   -1.1662   -2.7728 H   0  0  0  0  0  0  0  0  0  0  0  0
    4.6380   -0.6850   -2.3940 H   0  0  0  0  0  0  0  0  0  0  0  0
  1  9  1  0  0  0  0
  1 17  1  0  0  0  0
  2 10  2  0  0  0  0
  3 10  1  0  0  0  0
  3 12  1  0  0  0  0
  3 28  1  0  0  0  0
  4  5  1  0  0  0  0
  4 14  1  0  0  0  0
  4 35  1  0  0  0  0
  5 19  2  0  0  0  0
  6  7  1  0  0  0  0
  6  8  1  0  0  0  0
  6 21  1  0  0  0  0
  6 22  1  0  0  0  0
  7 10  1  0  0  0  0
  7 23  1  0  0  0  0
  7 24  1  0  0  0  0
  8  9  1  0  0  0  0
  8 11  2  0  0  0  0
  9 13  2  0  0  0  0
 11 15  1  0  0  0  0
 11 25  1  0  0  0  0
 12 14  1  0  0  0  0
 12 26  1  0  0  0  0
 12 27  1  0  0  0  0
 13 16  1  0  0  0  0
 13 29  1  0  0  0  0
 14 18  2  0  0  0  0
 15 16  2  0  0  0  0
 15 30  1  0  0  0  0
 16 31  1  0  0  0  0
 17 20  1  0  0  0  0
 17 32  1  0  0  0  0
 17 33  1  0  0  0  0
 18 19  1  0  0  0  0
 18 34  1  0  0  0  0
 19 36  1  0  0  0  0
 20 37  1  0  0  0  0
 20 38  1  0  0  0  0
 20 39  1  0  0  0  0
M  END
> <PUBCHEM_COMPOUND_CID>
47205107

> <PUBCHEM_CONFORMER_RMSD>
0.8

> <PUBCHEM_CONFORMER_DIVERSEORDER>
1
10
239
120
270
163
86
303
179
286
298
217
143
12
66
296
161
253
169
244
242
124
6
38
121
16
92
209
105
279
47
191
168
255
50
294
221
69
274
20
285
257
9
237
304
195
100
2
5
62
232
162
220
41
39
112
307
188
157
282
74
176
55
96
76
276
34
297
302
59
292
8
15
125
199
166
152
115
19
262
288
172
218
71
236
128
181
263
208
167
260
155
140
40
57
193
243
89
64
238
32
142
119
259
17
258
295
13
56
277
252
49
215
159
186
178
268
58
114
104
173
269
123
205
4
190
131
3
250
278
118
44
153
99
148
183
26
51
201
196
149
22
136
113
289
248
145
54
82
230
261
180
229
60
30
73
11
219
249
33
305
31
23
246
158
109
300
228
48
264
101
108
177
265
106
80
211
222
202
103
284
42
192
204
281
77
129
7
174
132
251
88
164
138
130
185
107
14
52
225
151
227
198
93
170
72
187
293
175
247
36
299
141
280
102
21
216
94
210
207
241
122
127
91
78
134
212
139
194
95
200
43
189
290
275
85
45
160
171
126
203
27
266
144
53
68
90
111
24
28
116
235
98
234
306
79
291
301
67
37
61
87
35
272
75
150
213
256
29
184
18
97
287
81
63
84
254
154
110
273
283
231
165
133
245
271
206
214
182
267
65
70
117
146
25
233
147
224
223
137
226
156
135
46
83
197
240

> <PUBCHEM_MMFF94_PARTIAL_CHARGES>
27
1 -0.36
10 0.57
11 -0.15
12 0.48
13 -0.15
14 -0.33
15 -0.15
16 -0.15
17 0.28
18 -0.15
19 0.14
2 -0.57
25 0.15
28 0.37
29 0.15
3 -0.73
30 0.15
31 0.15
34 0.15
35 0.27
36 0.15
4 0.3
5 -0.71
6 0.14
7 0.06
8 -0.14
9 0.08

> <PUBCHEM_EFFECTIVE_ROTOR_COUNT>
8

> <PUBCHEM_PHARMACOPHORE_FEATURES>
7
1 1 acceptor
1 2 acceptor
1 3 donor
1 4 donor
1 5 acceptor
5 4 5 14 18 19 rings
6 8 9 11 13 15 16 rings

> <PUBCHEM_HEAVY_ATOM_COUNT>
20

> <PUBCHEM_ATOM_DEF_STEREO_COUNT>
0

> <PUBCHEM_ATOM_UDEF_STEREO_COUNT>
0

> <PUBCHEM_BOND_DEF_STEREO_COUNT>
0

> <PUBCHEM_BOND_UDEF_STEREO_COUNT>
0

> <PUBCHEM_ISOTOPIC_ATOM_COUNT>
0

> <PUBCHEM_COMPONENT_COUNT>
1

> <PUBCHEM_CACTVS_TAUTO_COUNT>
4

> <PUBCHEM_CONFORMER_ID>
02D04AF300000001

> <PUBCHEM_MMFF94_ENERGY>
36.2223

> <PUBCHEM_FEATURE_SELFOVERLAP>
35.521

> <PUBCHEM_SHAPE_FINGERPRINT>
10291535 26 17054969426942551900
104564 63 17323255069649670779
10498660 4 17983032058883195911
12035759 4 18122329440499112326
12156800 1 16677734846957420593
12596599 1 17749394737152909463
128993 33 18341344313962311421
13132413 78 18047788998765344552
13764800 53 17627530236886818435
14123250 116 16626276457036587212
14251745 187 17975987461687106144
14251757 17 18114168731779187012
14386348 128 18339375092979333185
14713325 29 17487316167816818274
17093844 170 15893096226289318876
18981168 100 17844267132684178843
19777482 4 16590237953613040510
20465049 17 18334282193937691205
22713019 5 17750775796603067648
22802520 49 17903634081820013440
23114952 82 17756692053987328900
23526113 38 18041555815686548366
23557571 272 17405712471781368906
238 59 18122939544892799063
2637199 183 18342446050103318741
3027735 51 16229953406290894550
3797600 57 16342857608245103729
5262128 65 17677901123528348661
5283173 99 18268421353272183084
549884 4 18187939321835687249

> <PUBCHEM_SHAPE_MULTIPOLES>
384.91
5.6
3.04
2.2
1.87
0.39
-0.47
-1.05
-4.02
0.43
0.94
-1.77
0.05
0.25

> <PUBCHEM_SHAPE_SELFOVERLAP>
801.272

> <PUBCHEM_SHAPE_VOLUME>
218.5

> <PUBCHEM_COORDINATE_TYPE>
2
5
10

$$$$

