4408
  -OEChem-06261200062D

 42 41  0     1  0  0  0  0  0999 V2000
    6.0010    0.0000    0.0000 P   0  0  0  0  0  0  0  0  0  0  0  0
    5.5010    0.8660    0.0000 O   0  0  0  0  0  0  0  0  0  0  0  0
    6.5010   -0.8660    0.0000 O   0  0  0  0  0  0  0  0  0  0  0  0
    9.4651    0.0000    0.0000 O   0  0  0  0  0  0  0  0  0  0  0  0
    2.5369    0.0000    0.0000 O   0  0  0  0  0  0  0  0  0  0  0  0
    8.5991    1.5000    0.0000 O   0  0  0  0  0  0  0  0  0  0  0  0
    3.4030   -1.5000    0.0000 O   0  0  0  0  0  0  0  0  0  0  0  0
    9.4651   -3.0000    0.0000 O   0  0  0  0  0  0  0  0  0  0  0  0
    2.5369    3.0000    0.0000 O   0  0  0  0  0  0  0  0  0  0  0  0
    7.7331   -3.0000    0.0000 O   0  0  0  0  0  0  0  0  0  0  0  0
    4.2690    3.0000    0.0000 O   0  0  0  0  0  0  0  0  0  0  0  0
    6.8671    0.5000    0.0000 C   0  0  0  0  0  0  0  0  0  0  0  0
    5.1350   -0.5000    0.0000 C   0  0  0  0  0  0  0  0  0  0  0  0
    7.7331    0.0000    0.0000 C   0  0  3  0  0  0  0  0  0  0  0  0
    4.2690    0.0000    0.0000 C   0  0  3  0  0  0  0  0  0  0  0  0
    7.7331   -1.0000    0.0000 C   0  0  0  0  0  0  0  0  0  0  0  0
    4.2690    1.0000    0.0000 C   0  0  0  0  0  0  0  0  0  0  0  0
    8.5991   -1.5000    0.0000 C   0  0  0  0  0  0  0  0  0  0  0  0
    3.4030    1.5000    0.0000 C   0  0  0  0  0  0  0  0  0  0  0  0
    8.5991    0.5000    0.0000 C   0  0  0  0  0  0  0  0  0  0  0  0
    3.4030   -0.5000    0.0000 C   0  0  0  0  0  0  0  0  0  0  0  0
    8.5991   -2.5000    0.0000 C   0  0  0  0  0  0  0  0  0  0  0  0
    3.4030    2.5000    0.0000 C   0  0  0  0  0  0  0  0  0  0  0  0
    7.2656    0.9749    0.0000 H   0  0  0  0  0  0  0  0  0  0  0  0
    6.4685    0.9749    0.0000 H   0  0  0  0  0  0  0  0  0  0  0  0
    4.7365   -0.9749    0.0000 H   0  0  0  0  0  0  0  0  0  0  0  0
    5.5335   -0.9749    0.0000 H   0  0  0  0  0  0  0  0  0  0  0  0
    7.7331    0.6200    0.0000 H   0  0  0  0  0  0  0  0  0  0  0  0
    4.2690   -0.6200    0.0000 H   0  0  0  0  0  0  0  0  0  0  0  0
    7.1225   -0.8923    0.0000 H   0  0  0  0  0  0  0  0  0  0  0  0
    7.5210   -1.5826    0.0000 H   0  0  0  0  0  0  0  0  0  0  0  0
    4.8796    0.8923    0.0000 H   0  0  0  0  0  0  0  0  0  0  0  0
    4.4810    1.5826    0.0000 H   0  0  0  0  0  0  0  0  0  0  0  0
    9.2097   -1.6077    0.0000 H   0  0  0  0  0  0  0  0  0  0  0  0
    8.8112   -0.9174    0.0000 H   0  0  0  0  0  0  0  0  0  0  0  0
    2.7924    1.6077    0.0000 H   0  0  0  0  0  0  0  0  0  0  0  0
    3.1909    0.9174    0.0000 H   0  0  0  0  0  0  0  0  0  0  0  0
    5.8110    1.4030    0.0000 H   0  0  0  0  0  0  0  0  0  0  0  0
   10.0021    0.3100    0.0000 H   0  0  0  0  0  0  0  0  0  0  0  0
    2.0000   -0.3100    0.0000 H   0  0  0  0  0  0  0  0  0  0  0  0
    9.4651   -3.6200    0.0000 H   0  0  0  0  0  0  0  0  0  0  0  0
    2.5369    3.6200    0.0000 H   0  0  0  0  0  0  0  0  0  0  0  0
  1  2  1  0  0  0  0
  1  3  2  0  0  0  0
  1 12  1  0  0  0  0
  1 13  1  0  0  0  0
  2 38  1  0  0  0  0
  4 20  1  0  0  0  0
  4 39  1  0  0  0  0
  5 21  1  0  0  0  0
  5 40  1  0  0  0  0
  6 20  2  0  0  0  0
  7 21  2  0  0  0  0
  8 22  1  0  0  0  0
  8 41  1  0  0  0  0
  9 23  1  0  0  0  0
  9 42  1  0  0  0  0
 10 22  2  0  0  0  0
 11 23  2  0  0  0  0
 12 14  1  0  0  0  0
 12 24  1  0  0  0  0
 12 25  1  0  0  0  0
 13 15  1  0  0  0  0
 13 26  1  0  0  0  0
 13 27  1  0  0  0  0
 14 16  1  0  0  0  0
 14 20  1  0  0  0  0
 14 28  1  0  0  0  0
 15 17  1  0  0  0  0
 15 21  1  0  0  0  0
 15 29  1  0  0  0  0
 16 18  1  0  0  0  0
 16 30  1  0  0  0  0
 16 31  1  0  0  0  0
 17 19  1  0  0  0  0
 17 32  1  0  0  0  0
 17 33  1  0  0  0  0
 18 22  1  0  0  0  0
 18 34  1  0  0  0  0
 18 35  1  0  0  0  0
 19 23  1  0  0  0  0
 19 36  1  0  0  0  0
 19 37  1  0  0  0  0
M  END
> <PUBCHEM_COMPOUND_CID>
4408

> <PUBCHEM_COMPOUND_CANONICALIZED>
1

> <PUBCHEM_CACTVS_COMPLEXITY>
472

> <PUBCHEM_CACTVS_HBOND_ACCEPTOR>
10

> <PUBCHEM_CACTVS_HBOND_DONOR>
5

> <PUBCHEM_CACTVS_ROTATABLE_BOND>
12

> <PUBCHEM_CACTVS_SUBSKEYS>
AAADceBwPAIAAAAAAAAAAAAAAAAAAAAAAAAAAAAAAAAAAAAAAAAAGggACCAADQCIgAAACAAAAjAIQACQCIAAAAAAAAAAAAEAAAAAABIAAAAAQAAEAAAAAACIJgAMAAAAAAAAAAAAAAAAAAAAAAAAAAAAAA==

> <PUBCHEM_IUPAC_OPENEYE_NAME>
2-[[2,4-dicarboxybutyl(hydroxy)phosphoryl]methyl]pentanedioic acid

> <PUBCHEM_IUPAC_CAS_NAME>
2-[[2,4-dicarboxybutyl(hydroxy)phosphoryl]methyl]pentanedioic acid

> <PUBCHEM_IUPAC_NAME>
2-[[2,4-dicarboxybutyl(hydroxy)phosphoryl]methyl]pentanedioic acid

> <PUBCHEM_IUPAC_SYSTEMATIC_NAME>
2-[[(2-carboxy-5-oxidanyl-5-oxidanylidene-pentyl)-oxidanyl-phosphoryl]methyl]pentanedioic acid

> <PUBCHEM_IUPAC_TRADITIONAL_NAME>
2-[[2,4-dicarboxybutyl(hydroxy)phosphoryl]methyl]glutaric acid

> <PUBCHEM_IUPAC_INCHI>
InChI=1S/C12H19O10P/c13-9(14)3-1-7(11(17)18)5-23(21,22)6-8(12(19)20)2-4-10(15)16/h7-8H,1-6H2,(H,13,14)(H,15,16)(H,17,18)(H,19,20)(H,21,22)

> <PUBCHEM_IUPAC_INCHIKEY>
SGRJLTOOQLQDRH-UHFFFAOYSA-N

> <PUBCHEM_XLOGP3_AA>
-2.3

> <PUBCHEM_EXACT_MASS>
354.071583

> <PUBCHEM_MOLECULAR_FORMULA>
C12H19O10P

> <PUBCHEM_MOLECULAR_WEIGHT>
354.247022

> <PUBCHEM_OPENEYE_CAN_SMILES>
C(CC(=O)O)C(CP(=O)(CC(CCC(=O)O)C(=O)O)O)C(=O)O

> <PUBCHEM_OPENEYE_ISO_SMILES>
C(CC(=O)O)C(CP(=O)(CC(CCC(=O)O)C(=O)O)O)C(=O)O

> <PUBCHEM_CACTVS_TPSA>
187

> <PUBCHEM_MONOISOTOPIC_WEIGHT>
354.071583

> <PUBCHEM_TOTAL_CHARGE>
0

> <PUBCHEM_HEAVY_ATOM_COUNT>
23

> <PUBCHEM_ATOM_DEF_STEREO_COUNT>
0

> <PUBCHEM_ATOM_UDEF_STEREO_COUNT>
2

> <PUBCHEM_BOND_DEF_STEREO_COUNT>
0

> <PUBCHEM_BOND_UDEF_STEREO_COUNT>
0

> <PUBCHEM_ISOTOPIC_ATOM_COUNT>
0

> <PUBCHEM_COMPONENT_COUNT>
1

> <PUBCHEM_CACTVS_TAUTO_COUNT>
1

> <PUBCHEM_COORDINATE_TYPE>
1
5
255

> <PUBCHEM_BONDANNOTATIONS>
14  12  3
15  13  3

$$$$

