5281759
  -OEChem-07051212592D

 42 43  0     1  0  0  0  0  0999 V2000
    5.1350   -1.2500    0.0000 O   0  0  0  0  0  0  0  0  0  0  0  0
    6.8671   -1.2500    0.0000 O   0  0  0  0  0  0  0  0  0  0  0  0
    5.1350   -4.2500    0.0000 O   0  0  0  0  0  0  0  0  0  0  0  0
    3.4030   -3.2500    0.0000 O   0  0  0  0  0  0  0  0  0  0  0  0
    6.8671   -3.2500    0.0000 O   0  0  0  0  0  0  0  0  0  0  0  0
    2.5369   -1.7500    0.0000 O   0  0  0  0  0  0  0  0  0  0  0  0
    8.5991   -0.2500    0.0000 O   0  0  0  0  0  0  0  0  0  0  0  0
    4.2690    4.2500    0.0000 O   0  0  0  0  0  0  0  0  0  0  0  0
    3.4030    2.7500    0.0000 O   0  0  0  0  0  0  0  0  0  0  0  0
    5.1350   -3.2500    0.0000 C   0  0  1  0  0  0  0  0  0  0  0  0
    4.2690   -2.7500    0.0000 C   0  0  1  0  0  0  0  0  0  0  0  0
    6.0010   -2.7500    0.0000 C   0  0  2  0  0  0  0  0  0  0  0  0
    4.2690   -1.7500    0.0000 C   0  0  1  0  0  0  0  0  0  0  0  0
    6.0010   -1.7500    0.0000 C   0  0  1  0  0  0  0  0  0  0  0  0
    3.4030   -1.2500    0.0000 C   0  0  0  0  0  0  0  0  0  0  0  0
    6.8671   -0.2500    0.0000 C   0  0  0  0  0  0  0  0  0  0  0  0
    6.0010    0.2500    0.0000 C   0  0  0  0  0  0  0  0  0  0  0  0
    7.7331    0.2500    0.0000 C   0  0  0  0  0  0  0  0  0  0  0  0
    6.0010    1.2500    0.0000 C   0  0  0  0  0  0  0  0  0  0  0  0
    7.7331    1.2500    0.0000 C   0  0  0  0  0  0  0  0  0  0  0  0
    6.8671    1.7500    0.0000 C   0  0  0  0  0  0  0  0  0  0  0  0
    5.1350    1.7500    0.0000 C   0  0  0  0  0  0  0  0  0  0  0  0
    5.1350    2.7500    0.0000 C   0  0  0  0  0  0  0  0  0  0  0  0
    4.2690    3.2500    0.0000 C   0  0  0  0  0  0  0  0  0  0  0  0
    5.6720   -3.5600    0.0000 H   0  0  0  0  0  0  0  0  0  0  0  0
    4.2690   -3.3700    0.0000 H   0  0  0  0  0  0  0  0  0  0  0  0
    6.5380   -2.4400    0.0000 H   0  0  0  0  0  0  0  0  0  0  0  0
    4.2690   -1.1300    0.0000 H   0  0  0  0  0  0  0  0  0  0  0  0
    6.5380   -2.0600    0.0000 H   0  0  0  0  0  0  0  0  0  0  0  0
    3.8015   -0.7751    0.0000 H   0  0  0  0  0  0  0  0  0  0  0  0
    3.0044   -0.7751    0.0000 H   0  0  0  0  0  0  0  0  0  0  0  0
    4.5981   -4.5600    0.0000 H   0  0  0  0  0  0  0  0  0  0  0  0
    3.4030   -3.8700    0.0000 H   0  0  0  0  0  0  0  0  0  0  0  0
    6.8671   -3.8700    0.0000 H   0  0  0  0  0  0  0  0  0  0  0  0
    2.0000   -1.4400    0.0000 H   0  0  0  0  0  0  0  0  0  0  0  0
    5.4641   -0.0600    0.0000 H   0  0  0  0  0  0  0  0  0  0  0  0
    8.2700    1.5600    0.0000 H   0  0  0  0  0  0  0  0  0  0  0  0
    6.8671    2.3700    0.0000 H   0  0  0  0  0  0  0  0  0  0  0  0
    4.5981    1.4400    0.0000 H   0  0  0  0  0  0  0  0  0  0  0  0
    9.1360    0.0600    0.0000 H   0  0  0  0  0  0  0  0  0  0  0  0
    5.6720    3.0600    0.0000 H   0  0  0  0  0  0  0  0  0  0  0  0
    3.7320    4.5600    0.0000 H   0  0  0  0  0  0  0  0  0  0  0  0
  1 13  1  0  0  0  0
  1 14  1  0  0  0  0
 14  2  1  1  0  0  0
  2 16  1  0  0  0  0
 10  3  1  1  0  0  0
  3 32  1  0  0  0  0
 11  4  1  6  0  0  0
  4 33  1  0  0  0  0
 12  5  1  6  0  0  0
  5 34  1  0  0  0  0
  6 15  1  0  0  0  0
  6 35  1  0  0  0  0
  7 18  1  0  0  0  0
  7 40  1  0  0  0  0
  8 24  1  0  0  0  0
  8 42  1  0  0  0  0
  9 24  2  0  0  0  0
 10 11  1  0  0  0  0
 10 12  1  0  0  0  0
 10 25  1  0  0  0  0
 11 13  1  0  0  0  0
 11 26  1  0  0  0  0
 12 14  1  0  0  0  0
 12 27  1  0  0  0  0
 13 15  1  1  0  0  0
 13 28  1  0  0  0  0
 14 29  1  0  0  0  0
 15 30  1  0  0  0  0
 15 31  1  0  0  0  0
 16 17  1  0  0  0  0
 16 18  2  0  0  0  0
 17 19  2  0  0  0  0
 17 36  1  0  0  0  0
 18 20  1  0  0  0  0
 19 21  1  0  0  0  0
 19 22  1  0  0  0  0
 20 21  2  0  0  0  0
 20 37  1  0  0  0  0
 21 38  1  0  0  0  0
 22 23  2  0  0  0  0
 22 39  1  0  0  0  0
 23 24  1  0  0  0  0
 23 41  1  0  0  0  0
M  END
> <PUBCHEM_COMPOUND_CID>
5281759

> <PUBCHEM_COMPOUND_CANONICALIZED>
1

> <PUBCHEM_CACTVS_COMPLEXITY>
454

> <PUBCHEM_CACTVS_HBOND_ACCEPTOR>
9

> <PUBCHEM_CACTVS_HBOND_DONOR>
6

> <PUBCHEM_CACTVS_ROTATABLE_BOND>
5

> <PUBCHEM_CACTVS_SUBSKEYS>
AAADceBwPAAAAAAAAAAAAAAAAAAAAAAAAAA0QAAAAAAAAAABAAAAGgAACAAADBSwmAMwDoAABgCIAiDSCAACCAAgIAAIiAAGiMgdNiKGMRqieCOlwBEPuYfA4BwOIAABAAAAQABAAAIAAACAAAAAAAAAAA==

> <PUBCHEM_IUPAC_OPENEYE_NAME>
(E)-3-[4-hydroxy-3-[(2S,3R,4S,5S,6R)-3,4,5-trihydroxy-6-(hydroxymethyl)tetrahydropyran-2-yl]oxy-phenyl]prop-2-enoic acid

> <PUBCHEM_IUPAC_CAS_NAME>
(E)-3-[4-hydroxy-3-[[(2S,3R,4S,5S,6R)-3,4,5-trihydroxy-6-(hydroxymethyl)-2-oxanyl]oxy]phenyl]-2-propenoic acid

> <PUBCHEM_IUPAC_NAME>
(E)-3-[4-hydroxy-3-[(2S,3R,4S,5S,6R)-3,4,5-trihydroxy-6-(hydroxymethyl)oxan-2-yl]oxyphenyl]prop-2-enoic acid

> <PUBCHEM_IUPAC_SYSTEMATIC_NAME>
(E)-3-[3-[(2S,3R,4S,5S,6R)-6-(hydroxymethyl)-3,4,5-tris(oxidanyl)oxan-2-yl]oxy-4-oxidanyl-phenyl]prop-2-enoic acid

> <PUBCHEM_IUPAC_TRADITIONAL_NAME>
(E)-3-[4-hydroxy-3-[(2S,3R,4S,5S,6R)-3,4,5-trihydroxy-6-methylol-tetrahydropyran-2-yl]oxy-phenyl]acrylic acid

> <PUBCHEM_IUPAC_INCHI>
InChI=1S/C15H18O9/c16-6-10-12(20)13(21)14(22)15(24-10)23-9-5-7(1-3-8(9)17)2-4-11(18)19/h1-5,10,12-17,20-22H,6H2,(H,18,19)/b4-2+/t10-,12-,13+,14-,15-/m1/s1

> <PUBCHEM_IUPAC_INCHIKEY>
QOPSZFXPZWQLOG-VHCZEJTMSA-N

> <PUBCHEM_XLOGP3>
-1.4

> <PUBCHEM_EXACT_MASS>
342.095082

> <PUBCHEM_MOLECULAR_FORMULA>
C15H18O9

> <PUBCHEM_MOLECULAR_WEIGHT>
342.29802

> <PUBCHEM_OPENEYE_CAN_SMILES>
C1=CC(=C(C=C1C=CC(=O)O)OC2C(C(C(C(O2)CO)O)O)O)O

> <PUBCHEM_OPENEYE_ISO_SMILES>
C1=CC(=C(C=C1/C=C/C(=O)O)O[C@H]2[C@@H]([C@H]([C@@H]([C@H](O2)CO)O)O)O)O

> <PUBCHEM_CACTVS_TPSA>
157

> <PUBCHEM_MONOISOTOPIC_WEIGHT>
342.095082

> <PUBCHEM_TOTAL_CHARGE>
0

> <PUBCHEM_HEAVY_ATOM_COUNT>
24

> <PUBCHEM_ATOM_DEF_STEREO_COUNT>
5

> <PUBCHEM_ATOM_UDEF_STEREO_COUNT>
0

> <PUBCHEM_BOND_DEF_STEREO_COUNT>
1

> <PUBCHEM_BOND_UDEF_STEREO_COUNT>
0

> <PUBCHEM_ISOTOPIC_ATOM_COUNT>
0

> <PUBCHEM_COMPONENT_COUNT>
1

> <PUBCHEM_CACTVS_TAUTO_COUNT>
5

> <PUBCHEM_COORDINATE_TYPE>
1
5
255

> <PUBCHEM_BONDANNOTATIONS>
13  15  5
16  17  8
16  18  8
17  19  8
18  20  8
19  21  8
14  2  5
20  21  8
10  3  5
11  4  6
12  5  6

$$$$

