14372344
  -OEChem-07051213153D

 46 48  0     1  0  0  0  0  0999 V2000
   -4.7727   -1.7391    1.1620 O   0  0  0  0  0  0  0  0  0  0  0  0
   -0.5807    2.8839    0.0655 O   0  0  0  0  0  0  0  0  0  0  0  0
    4.7213   -2.8021   -0.0886 O   0  0  0  0  0  0  0  0  0  0  0  0
   -1.8467   -0.4025   -0.1716 C   0  0  2  0  0  0  0  0  0  0  0  0
   -3.3698   -0.1717   -0.0602 C   0  0  2  0  0  0  0  0  0  0  0  0
   -1.1480    0.7358   -0.9108 C   0  0  1  0  0  0  0  0  0  0  0  0
   -1.7227   -1.8263   -0.7036 C   0  0  0  0  0  0  0  0  0  0  0  0
   -3.5854    1.0301    0.8563 C   0  0  0  0  0  0  0  0  0  0  0  0
   -3.7612   -1.5246    0.5070 C   0  0  0  0  0  0  0  0  0  0  0  0
   -2.7524   -2.5965    0.1343 C   0  0  0  0  0  0  0  0  0  0  0  0
   -2.8838    2.2770    0.3070 C   0  0  0  0  0  0  0  0  0  0  0  0
   -1.4423    2.0243   -0.1266 C   0  0  0  0  0  0  0  0  0  0  0  0
   -4.1251   -0.0104   -1.3905 C   0  0  0  0  0  0  0  0  0  0  0  0
    0.3551    0.4956   -1.0316 C   0  0  0  0  0  0  0  0  0  0  0  0
    0.9973    0.3163    0.3418 C   0  0  0  0  0  0  0  0  0  0  0  0
    2.4780    0.0578    0.2293 C   0  0  0  0  0  0  0  0  0  0  0  0
    3.3797    1.1128    0.2340 C   0  0  0  0  0  0  0  0  0  0  0  0
    2.9154   -1.2556    0.1230 C   0  0  0  0  0  0  0  0  0  0  0  0
    4.7456    0.8500    0.1306 C   0  0  0  0  0  0  0  0  0  0  0  0
    4.2812   -1.5185    0.0195 C   0  0  0  0  0  0  0  0  0  0  0  0
    2.9209    2.5294    0.3500 C   0  0  0  0  0  0  0  0  0  0  0  0
    5.1963   -0.4658    0.0232 C   0  0  0  0  0  0  0  0  0  0  0  0
   -1.4687   -0.4246    0.8628 H   0  0  0  0  0  0  0  0  0  0  0  0
   -1.5538    0.8642   -1.9200 H   0  0  0  0  0  0  0  0  0  0  0  0
   -0.7199   -2.2434   -0.5705 H   0  0  0  0  0  0  0  0  0  0  0  0
   -1.9665   -1.8800   -1.7702 H   0  0  0  0  0  0  0  0  0  0  0  0
   -3.1976    0.8096    1.8597 H   0  0  0  0  0  0  0  0  0  0  0  0
   -4.6551    1.2341    0.9869 H   0  0  0  0  0  0  0  0  0  0  0  0
   -2.3003   -2.9891    1.0497 H   0  0  0  0  0  0  0  0  0  0  0  0
   -3.2233   -3.3958   -0.4416 H   0  0  0  0  0  0  0  0  0  0  0  0
   -2.8823    3.0544    1.0793 H   0  0  0  0  0  0  0  0  0  0  0  0
   -3.4233    2.6760   -0.5585 H   0  0  0  0  0  0  0  0  0  0  0  0
   -5.1997    0.1061   -1.2042 H   0  0  0  0  0  0  0  0  0  0  0  0
   -3.7977    0.8633   -1.9603 H   0  0  0  0  0  0  0  0  0  0  0  0
   -4.0172   -0.8860   -2.0395 H   0  0  0  0  0  0  0  0  0  0  0  0
    0.8187    1.3359   -1.5624 H   0  0  0  0  0  0  0  0  0  0  0  0
    0.5395   -0.3889   -1.6543 H   0  0  0  0  0  0  0  0  0  0  0  0
    0.5742   -0.5514    0.8605 H   0  0  0  0  0  0  0  0  0  0  0  0
    0.8107    1.1526    1.0202 H   0  0  0  0  0  0  0  0  0  0  0  0
    2.2077   -2.0806    0.1159 H   0  0  0  0  0  0  0  0  0  0  0  0
    5.4723    1.6581    0.1325 H   0  0  0  0  0  0  0  0  0  0  0  0
    3.7630    3.2286    0.2919 H   0  0  0  0  0  0  0  0  0  0  0  0
    2.2399    2.7931   -0.4637 H   0  0  0  0  0  0  0  0  0  0  0  0
    2.4322    2.7025    1.3140 H   0  0  0  0  0  0  0  0  0  0  0  0
    6.2630   -0.6573   -0.0573 H   0  0  0  0  0  0  0  0  0  0  0  0
    5.6919   -2.7981   -0.1513 H   0  0  0  0  0  0  0  0  0  0  0  0
  1  9  2  0  0  0  0
  2 12  2  0  0  0  0
  3 20  1  0  0  0  0
  3 46  1  0  0  0  0
  4  5  1  0  0  0  0
  4  6  1  0  0  0  0
  4  7  1  0  0  0  0
  4 23  1  0  0  0  0
  5  8  1  0  0  0  0
  5  9  1  0  0  0  0
  5 13  1  0  0  0  0
  6 12  1  0  0  0  0
  6 14  1  0  0  0  0
  6 24  1  0  0  0  0
  7 10  1  0  0  0  0
  7 25  1  0  0  0  0
  7 26  1  0  0  0  0
  8 11  1  0  0  0  0
  8 27  1  0  0  0  0
  8 28  1  0  0  0  0
  9 10  1  0  0  0  0
 10 29  1  0  0  0  0
 10 30  1  0  0  0  0
 11 12  1  0  0  0  0
 11 31  1  0  0  0  0
 11 32  1  0  0  0  0
 13 33  1  0  0  0  0
 13 34  1  0  0  0  0
 13 35  1  0  0  0  0
 14 15  1  0  0  0  0
 14 36  1  0  0  0  0
 14 37  1  0  0  0  0
 15 16  1  0  0  0  0
 15 38  1  0  0  0  0
 15 39  1  0  0  0  0
 16 17  2  0  0  0  0
 16 18  1  0  0  0  0
 17 19  1  0  0  0  0
 17 21  1  0  0  0  0
 18 20  2  0  0  0  0
 18 40  1  0  0  0  0
 19 22  2  0  0  0  0
 19 41  1  0  0  0  0
 20 22  1  0  0  0  0
 21 42  1  0  0  0  0
 21 43  1  0  0  0  0
 21 44  1  0  0  0  0
 22 45  1  0  0  0  0
M  END
> <PUBCHEM_COMPOUND_CID>
14372344

> <PUBCHEM_CONFORMER_RMSD>
0.6

> <PUBCHEM_CONFORMER_DIVERSEORDER>
1
9
3
13
12
6
4
2
10
7
8
11
5

> <PUBCHEM_MMFF94_PARTIAL_CHARGES>
21
1 -0.57
10 0.06
11 0.06
12 0.45
15 0.14
16 -0.14
17 -0.14
18 -0.15
19 -0.15
2 -0.57
20 0.08
21 0.14
22 -0.15
3 -0.53
40 0.15
41 0.15
45 0.15
46 0.45
5 0.06
6 0.06
9 0.45

> <PUBCHEM_EFFECTIVE_ROTOR_COUNT>
4

> <PUBCHEM_PHARMACOPHORE_FEATURES>
6
1 1 acceptor
1 2 acceptor
1 3 donor
5 4 5 7 9 10 rings
6 16 17 18 19 20 22 rings
6 4 5 6 8 11 12 rings

> <PUBCHEM_HEAVY_ATOM_COUNT>
22

> <PUBCHEM_ATOM_DEF_STEREO_COUNT>
3

> <PUBCHEM_ATOM_UDEF_STEREO_COUNT>
0

> <PUBCHEM_BOND_DEF_STEREO_COUNT>
0

> <PUBCHEM_BOND_UDEF_STEREO_COUNT>
0

> <PUBCHEM_ISOTOPIC_ATOM_COUNT>
0

> <PUBCHEM_COMPONENT_COUNT>
1

> <PUBCHEM_CACTVS_TAUTO_COUNT>
54

> <PUBCHEM_CONFORMER_ID>
00DB4DF800000001

> <PUBCHEM_MMFF94_ENERGY>
62.018

> <PUBCHEM_FEATURE_SELFOVERLAP>
30.512

> <PUBCHEM_SHAPE_FINGERPRINT>
10366900 7 18041007219234287914
10616163 171 18408322168464235270
11370993 144 18336262439531830632
11405975 8 18335421313411109856
11552529 35 17896039841022868119
11578080 2 17773898427293694413
12107183 9 17975690911607022754
12553582 1 18337681797495569518
12633257 1 18188764079989310096
13140716 1 18336258037570576257
13167823 11 18412262861267023570
13224815 77 17846503616797272480
13533116 47 18335145267278186431
13544653 18 18341332171973578295
13583140 156 18261966166958703636
14341114 176 18408317783444797352
14420673 8 18049717722629113726
15196674 1 18410855477466442474
15209289 33 18201717349256554666
15295992 7 17386018307061687336
15352361 1 18411420596436273088
17492 89 18411699885465086442
17804303 29 18337386136278732182
17844677 252 18408315584442777288
1813 80 17489304161690046788
193927 3 17560225939068881459
20681677 274 18410299107661505104
21065198 57 18409450310370334536
21065199 12 18408044009339212784
21267235 1 18411410683488347026
21673915 165 18412826872066843410
221490 88 18411135832005146288
23402539 116 18187372017397312295
23559900 14 18411428288786341568
23566358 27 18341604876848863524
2838139 119 5327083706465970139
312423 11 18411971473421482148
335352 9 18265334091243884685
4214541 1 18410012165022497968
5104073 3 18335707178181832216
6823239 73 18042955649177833870
77779 3 18410292536435245616
9709674 26 18334293223028878182

> <PUBCHEM_SHAPE_MULTIPOLES>
435.14
10.87
2.97
0.93
7.16
0.1
-0.12
-4.17
1.22
-0.1
0.32
-0.83
-0.03
0.41

> <PUBCHEM_SHAPE_SELFOVERLAP>
932.551

> <PUBCHEM_SHAPE_VOLUME>
241.5

> <PUBCHEM_COORDINATE_TYPE>
2
5
10

$$$$

