442499
  -OEChem-07051212583D

 46 49  0     1  0  0  0  0  0999 V2000
    0.7045   -1.8133    1.2895 O   0  0  0  0  0  0  0  0  0  0  0  0
    2.4644    1.8960   -0.9646 O   0  0  0  0  0  0  0  0  0  0  0  0
    3.0430   -1.6231   -0.1780 O   0  0  0  0  0  0  0  0  0  0  0  0
   -1.7708   -2.3016   -1.1701 O   0  0  0  0  0  0  0  0  0  0  0  0
   -2.3935    0.6542   -0.6058 N   0  0  2  0  0  0  0  0  0  0  0  0
   -0.0041    0.3803    0.3688 C   0  0  2  0  0  0  0  0  0  0  0  0
   -1.4277   -0.2260    0.0957 C   0  0  1  0  0  0  0  0  0  0  0  0
    0.6862    0.2681   -1.0312 C   0  0  2  0  0  0  0  0  0  0  0  0
    0.8158   -0.4006    1.4516 C   0  0  2  0  0  0  0  0  0  0  0  0
   -0.1252    1.8530    0.8428 C   0  0  0  0  0  0  0  0  0  0  0  0
    0.2561   -1.0923   -1.5885 C   0  0  0  0  0  0  0  0  0  0  0  0
   -2.1956   -0.7658    1.3007 C   0  0  0  0  0  0  0  0  0  0  0  0
    2.2129    0.4900   -1.0416 C   0  0  2  0  0  0  0  0  0  0  0  0
   -1.0725   -1.3258   -0.9169 C   0  0  0  0  0  0  0  0  0  0  0  0
    2.9867   -0.2192    0.0912 C   0  0  1  0  0  0  0  0  0  0  0  0
    2.3052   -0.0191    1.4565 C   0  0  0  0  0  0  0  0  0  0  0  0
   -1.0954    2.6782    0.0094 C   0  0  0  0  0  0  0  0  0  0  0  0
   -2.4589    2.0085   -0.0373 C   0  0  0  0  0  0  0  0  0  0  0  0
   -3.7051   -0.0014   -0.4487 C   0  0  0  0  0  0  0  0  0  0  0  0
   -3.6688   -0.7030    0.9019 C   0  0  0  0  0  0  0  0  0  0  0  0
    4.4428    0.2626    0.1743 C   0  0  0  0  0  0  0  0  0  0  0  0
    0.2526    1.0243   -1.6994 H   0  0  0  0  0  0  0  0  0  0  0  0
    0.4018   -0.1805    2.4432 H   0  0  0  0  0  0  0  0  0  0  0  0
    0.8452    2.3573    0.8529 H   0  0  0  0  0  0  0  0  0  0  0  0
   -0.4800    1.8687    1.8823 H   0  0  0  0  0  0  0  0  0  0  0  0
    0.9239   -1.9179   -1.3506 H   0  0  0  0  0  0  0  0  0  0  0  0
    0.1190   -1.0406   -2.6727 H   0  0  0  0  0  0  0  0  0  0  0  0
   -2.0415   -0.1393    2.1869 H   0  0  0  0  0  0  0  0  0  0  0  0
   -1.9218   -1.7932    1.5622 H   0  0  0  0  0  0  0  0  0  0  0  0
    2.5935    0.1516   -2.0143 H   0  0  0  0  0  0  0  0  0  0  0  0
    2.4173    1.0208    1.7842 H   0  0  0  0  0  0  0  0  0  0  0  0
    2.8161   -0.6457    2.2002 H   0  0  0  0  0  0  0  0  0  0  0  0
   -1.1970    3.6744    0.4565 H   0  0  0  0  0  0  0  0  0  0  0  0
   -0.7096    2.8351   -1.0036 H   0  0  0  0  0  0  0  0  0  0  0  0
   -2.8855    2.0029    0.9746 H   0  0  0  0  0  0  0  0  0  0  0  0
   -3.1225    2.6240   -0.6572 H   0  0  0  0  0  0  0  0  0  0  0  0
   -3.8386   -0.7380   -1.2496 H   0  0  0  0  0  0  0  0  0  0  0  0
   -4.5518    0.6901   -0.5324 H   0  0  0  0  0  0  0  0  0  0  0  0
   -4.1056   -1.7050    0.8350 H   0  0  0  0  0  0  0  0  0  0  0  0
   -4.2349   -0.1406    1.6529 H   0  0  0  0  0  0  0  0  0  0  0  0
    5.0093   -0.3442    0.8906 H   0  0  0  0  0  0  0  0  0  0  0  0
    4.9446    0.1442   -0.7929 H   0  0  0  0  0  0  0  0  0  0  0  0
    4.5205    1.3096    0.4838 H   0  0  0  0  0  0  0  0  0  0  0  0
    1.1294   -2.2316    2.0578 H   0  0  0  0  0  0  0  0  0  0  0  0
    3.3530    2.0589   -1.3234 H   0  0  0  0  0  0  0  0  0  0  0  0
    2.2693   -2.0608    0.2086 H   0  0  0  0  0  0  0  0  0  0  0  0
  1  9  1  0  0  0  0
  1 44  1  0  0  0  0
  2 13  1  0  0  0  0
  2 45  1  0  0  0  0
  3 15  1  0  0  0  0
  3 46  1  0  0  0  0
  4 14  2  0  0  0  0
  5  7  1  0  0  0  0
  5 18  1  0  0  0  0
  5 19  1  0  0  0  0
  6  7  1  0  0  0  0
  6  8  1  0  0  0  0
  6  9  1  0  0  0  0
  6 10  1  0  0  0  0
  7 12  1  0  0  0  0
  7 14  1  0  0  0  0
  8 11  1  0  0  0  0
  8 13  1  0  0  0  0
  8 22  1  0  0  0  0
  9 16  1  0  0  0  0
  9 23  1  0  0  0  0
 10 17  1  0  0  0  0
 10 24  1  0  0  0  0
 10 25  1  0  0  0  0
 11 14  1  0  0  0  0
 11 26  1  0  0  0  0
 11 27  1  0  0  0  0
 12 20  1  0  0  0  0
 12 28  1  0  0  0  0
 12 29  1  0  0  0  0
 13 15  1  0  0  0  0
 13 30  1  0  0  0  0
 15 16  1  0  0  0  0
 15 21  1  0  0  0  0
 16 31  1  0  0  0  0
 16 32  1  0  0  0  0
 17 18  1  0  0  0  0
 17 33  1  0  0  0  0
 17 34  1  0  0  0  0
 18 35  1  0  0  0  0
 18 36  1  0  0  0  0
 19 20  1  0  0  0  0
 19 37  1  0  0  0  0
 19 38  1  0  0  0  0
 20 39  1  0  0  0  0
 20 40  1  0  0  0  0
 21 41  1  0  0  0  0
 21 42  1  0  0  0  0
 21 43  1  0  0  0  0
M  END
> <PUBCHEM_COMPOUND_CID>
442499

> <PUBCHEM_CONFORMER_RMSD>
0.6

> <PUBCHEM_CONFORMER_DIVERSEORDER>
2
1

> <PUBCHEM_MMFF94_PARTIAL_CHARGES>
16
1 -0.68
11 0.06
13 0.28
14 0.45
15 0.28
18 0.27
19 0.27
2 -0.68
3 -0.68
4 -0.57
44 0.4
45 0.4
46 0.4
5 -0.81
7 0.33
9 0.28

> <PUBCHEM_EFFECTIVE_ROTOR_COUNT>
2.2

> <PUBCHEM_PHARMACOPHORE_FEATURES>
12
1 1 acceptor
1 1 donor
1 2 acceptor
1 2 donor
1 3 acceptor
1 3 donor
1 4 acceptor
1 5 cation
5 5 7 12 19 20 rings
5 6 7 8 11 14 rings
6 5 6 7 10 17 18 rings
6 6 8 9 13 15 16 rings

> <PUBCHEM_HEAVY_ATOM_COUNT>
21

> <PUBCHEM_ATOM_DEF_STEREO_COUNT>
6

> <PUBCHEM_ATOM_UDEF_STEREO_COUNT>
0

> <PUBCHEM_BOND_DEF_STEREO_COUNT>
0

> <PUBCHEM_BOND_UDEF_STEREO_COUNT>
0

> <PUBCHEM_ISOTOPIC_ATOM_COUNT>
0

> <PUBCHEM_COMPONENT_COUNT>
1

> <PUBCHEM_CACTVS_TAUTO_COUNT>
2

> <PUBCHEM_CONFORMER_ID>
0006C08300000002

> <PUBCHEM_MMFF94_ENERGY>
71.268

> <PUBCHEM_FEATURE_SELFOVERLAP>
61.415

> <PUBCHEM_SHAPE_FINGERPRINT>
10863032 1 18267587003543471202
10948715 1 18122064470533028833
11370993 70 17275108301693994035
11578080 2 17627274196627657860
12403814 3 18261390027260572465
12423570 1 15407511763535855094
12491281 212 17417804118847680753
12716301 132 17970083329106434609
13140716 1 17971190331378532163
13172582 1 18113614552143618001
13221675 6 18413671305148897722
13538477 17 18340495477741960038
13581323 91 18334297569435242726
14115302 16 17632287944132992219
14787075 74 17771333189160683571
15309172 13 18040994046917867603
15375462 478 18344144791151997932
15775835 57 17967816046014839466
16752209 62 18336838588305030413
16945 1 18261106353023281564
18186145 218 17704069594674269332
19868273 325 18336274444181772325
200 152 17918276424190784771
20510252 161 18114180894868379121
22112679 90 18117280250780219327
22344851 262 15841547475109959331
2334 1 17683530533000058845
23402539 116 18260557727239401885
23493267 7 18341044241608215777
23557571 272 18040433291587343560
23559900 14 18339928241943862274
2748010 2 17971739219651309125
296302 2 17240202114684266546
3286 77 16988844947602017040
34934 24 18265894648932352253
465052 167 18266728083816685851
474 4 17774154579591418796
77492 1 18131634512398507876
81228 2 17463158771751615751
90525 40 18336827584313793183

> <PUBCHEM_SHAPE_MULTIPOLES>
403.71
5.71
2.14
1.43
1.72
0.73
0.12
-0.2
0.33
-0.77
-0.28
0.15
-0.39
-0.2

> <PUBCHEM_SHAPE_SELFOVERLAP>
878.2

> <PUBCHEM_SHAPE_VOLUME>
217.9

> <PUBCHEM_COORDINATE_TYPE>
2
5
10

$$$$

