71961
  -OEChem-07051213032D

 61 63  0     1  0  0  0  0  0999 V2000
   10.6404   -1.4704    0.0000 S   0  0  0  0  0  0  0  0  0  0  0  0
    7.9754   -3.4921    0.0000 O   0  0  0  0  0  0  0  0  0  0  0  0
   10.2803   -4.7826    0.0000 O   0  0  0  0  0  0  0  0  0  0  0  0
   11.9276   -4.2474    0.0000 O   0  0  0  0  0  0  0  0  0  0  0  0
    6.7482   -2.2889    0.0000 O   0  0  0  0  0  0  0  0  0  0  0  0
    4.8920    0.8021    0.0000 O   0  0  0  0  0  0  0  0  0  0  0  0
    2.4375   -1.6423    0.0000 O   0  0  0  0  0  0  0  0  0  0  0  0
    6.6409    3.9552    0.0000 O   0  0  0  0  0  0  0  0  0  0  0  0
    9.6894   -2.7794    0.0000 N   0  0  0  0  0  0  0  0  0  0  0  0
    7.9754   -1.0667    0.0000 N   0  0  0  0  0  0  0  0  0  0  0  0
    6.5641    0.3504    0.0000 N   0  0  0  0  0  0  0  0  0  0  0  0
    7.0857    2.2812    0.0000 N   0  0  0  0  0  0  0  0  0  0  0  0
    4.9688    4.4069    0.0000 N   0  0  0  0  0  0  0  0  0  0  0  0
    9.6894   -1.7794    0.0000 C   0  0  1  0  0  0  0  0  0  0  0  0
   11.2282   -2.2794    0.0000 C   0  0  0  0  0  0  0  0  0  0  0  0
   10.6404   -3.0884    0.0000 C   0  0  2  0  0  0  0  0  0  0  0  0
    8.6811   -1.7752    0.0000 C   0  0  1  0  0  0  0  0  0  0  0  0
    8.6811   -2.7835    0.0000 C   0  0  0  0  0  0  0  0  0  0  0  0
   12.0372   -1.6916    0.0000 C   0  0  0  0  0  0  0  0  0  0  0  0
   12.0372   -2.8672    0.0000 C   0  0  0  0  0  0  0  0  0  0  0  0
   10.9494   -4.0395    0.0000 C   0  0  0  0  0  0  0  0  0  0  0  0
    7.0090   -1.3235    0.0000 C   0  0  0  0  0  0  0  0  0  0  0  0
    6.3033   -0.6150    0.0000 C   0  0  1  0  0  0  0  0  0  0  0  0
    5.3369   -0.8718    0.0000 C   0  0  0  0  0  0  0  0  0  0  0  0
    5.8585    1.0590    0.0000 C   0  0  0  0  0  0  0  0  0  0  0  0
    4.6312   -0.1632    0.0000 C   0  0  0  0  0  0  0  0  0  0  0  0
    5.0761   -1.8372    0.0000 C   0  0  0  0  0  0  0  0  0  0  0  0
    6.1193    2.0244    0.0000 C   0  0  1  0  0  0  0  0  0  0  0  0
    3.6648   -0.4201    0.0000 C   0  0  0  0  0  0  0  0  0  0  0  0
    4.1096   -2.0940    0.0000 C   0  0  0  0  0  0  0  0  0  0  0  0
    5.4136    2.7329    0.0000 C   0  0  0  0  0  0  0  0  0  0  0  0
    3.4040   -1.3855    0.0000 C   0  0  0  0  0  0  0  0  0  0  0  0
    5.6744    3.6983    0.0000 C   0  0  0  0  0  0  0  0  0  0  0  0
    5.2296    5.3723    0.0000 C   0  0  0  0  0  0  0  0  0  0  0  0
    9.5581   -0.9396    0.0000 H   0  0  0  0  0  0  0  0  0  0  0  0
   10.2020   -3.5268    0.0000 H   0  0  0  0  0  0  0  0  0  0  0  0
    8.1080   -2.0119    0.0000 H   0  0  0  0  0  0  0  0  0  0  0  0
   12.4017   -2.1932    0.0000 H   0  0  0  0  0  0  0  0  0  0  0  0
   12.5388   -1.3272    0.0000 H   0  0  0  0  0  0  0  0  0  0  0  0
   11.6728   -1.1900    0.0000 H   0  0  0  0  0  0  0  0  0  0  0  0
   11.6728   -3.3688    0.0000 H   0  0  0  0  0  0  0  0  0  0  0  0
   12.5388   -3.2316    0.0000 H   0  0  0  0  0  0  0  0  0  0  0  0
   12.4017   -2.3656    0.0000 H   0  0  0  0  0  0  0  0  0  0  0  0
    8.1371   -0.4682    0.0000 H   0  0  0  0  0  0  0  0  0  0  0  0
    5.8658   -0.1757    0.0000 H   0  0  0  0  0  0  0  0  0  0  0  0
   10.4719   -5.3723    0.0000 H   0  0  0  0  0  0  0  0  0  0  0  0
    7.1633    0.5097    0.0000 H   0  0  0  0  0  0  0  0  0  0  0  0
    4.7929    0.4353    0.0000 H   0  0  0  0  0  0  0  0  0  0  0  0
    5.5136   -2.2765    0.0000 H   0  0  0  0  0  0  0  0  0  0  0  0
    6.5568    1.5851    0.0000 H   0  0  0  0  0  0  0  0  0  0  0  0
    3.2273    0.0192    0.0000 H   0  0  0  0  0  0  0  0  0  0  0  0
    3.9479   -2.6926    0.0000 H   0  0  0  0  0  0  0  0  0  0  0  0
    4.8523    2.9961    0.0000 H   0  0  0  0  0  0  0  0  0  0  0  0
    5.0570    2.2258    0.0000 H   0  0  0  0  0  0  0  0  0  0  0  0
    7.2474    2.8798    0.0000 H   0  0  0  0  0  0  0  0  0  0  0  0
    7.5232    1.8419    0.0000 H   0  0  0  0  0  0  0  0  0  0  0  0
    2.0000   -1.2030    0.0000 H   0  0  0  0  0  0  0  0  0  0  0  0
    4.3696    4.2476    0.0000 H   0  0  0  0  0  0  0  0  0  0  0  0
    5.8281    5.2106    0.0000 H   0  0  0  0  0  0  0  0  0  0  0  0
    5.3913    5.9708    0.0000 H   0  0  0  0  0  0  0  0  0  0  0  0
    4.6310    5.5340    0.0000 H   0  0  0  0  0  0  0  0  0  0  0  0
  1 14  1  0  0  0  0
  1 15  1  0  0  0  0
  2 18  2  0  0  0  0
  3 21  1  0  0  0  0
  3 46  1  0  0  0  0
  4 21  2  0  0  0  0
  5 22  2  0  0  0  0
  6 25  2  0  0  0  0
  7 32  1  0  0  0  0
  7 57  1  0  0  0  0
  8 33  2  0  0  0  0
  9 14  1  0  0  0  0
  9 16  1  0  0  0  0
  9 18  1  0  0  0  0
 17 10  1  1  0  0  0
 10 22  1  0  0  0  0
 10 44  1  0  0  0  0
 23 11  1  1  0  0  0
 11 25  1  0  0  0  0
 11 47  1  0  0  0  0
 28 12  1  1  0  0  0
 12 55  1  0  0  0  0
 12 56  1  0  0  0  0
 13 33  1  0  0  0  0
 13 34  1  0  0  0  0
 13 58  1  0  0  0  0
 14 17  1  0  0  0  0
 14 35  1  6  0  0  0
 15 16  1  0  0  0  0
 15 19  1  0  0  0  0
 15 20  1  0  0  0  0
 16 21  1  6  0  0  0
 16 36  1  0  0  0  0
 17 18  1  0  0  0  0
 17 37  1  0  0  0  0
 19 38  1  0  0  0  0
 19 39  1  0  0  0  0
 19 40  1  0  0  0  0
 20 41  1  0  0  0  0
 20 42  1  0  0  0  0
 20 43  1  0  0  0  0
 22 23  1  0  0  0  0
 23 24  1  0  0  0  0
 23 45  1  0  0  0  0
 24 26  2  0  0  0  0
 24 27  1  0  0  0  0
 25 28  1  0  0  0  0
 26 29  1  0  0  0  0
 26 48  1  0  0  0  0
 27 30  2  0  0  0  0
 27 49  1  0  0  0  0
 28 31  1  0  0  0  0
 28 50  1  0  0  0  0
 29 32  2  0  0  0  0
 29 51  1  0  0  0  0
 30 32  1  0  0  0  0
 30 52  1  0  0  0  0
 31 33  1  0  0  0  0
 31 53  1  0  0  0  0
 31 54  1  0  0  0  0
 34 59  1  0  0  0  0
 34 60  1  0  0  0  0
 34 61  1  0  0  0  0
M  END
> <PUBCHEM_COMPOUND_CID>
71961

> <PUBCHEM_COMPOUND_CANONICALIZED>
1

> <PUBCHEM_CACTVS_COMPLEXITY>
861

> <PUBCHEM_CACTVS_HBOND_ACCEPTOR>
9

> <PUBCHEM_CACTVS_HBOND_DONOR>
6

> <PUBCHEM_CACTVS_ROTATABLE_BOND>
8

> <PUBCHEM_CACTVS_SUBSKEYS>
AAADceB7uABAAAAAAAAAAAAAAABYAWAAAAAwAAAABYAAAAABAAAAHgQQCAAADCzF2ASyDoPAAgiIAiHSGACCAABgIBAIiIGODIgKZjqi1TOUcAhk1hG4mAed2IOOIAAAAAAAAABAAAAAAAAAAAAAAAAAAA==

> <PUBCHEM_IUPAC_OPENEYE_NAME>
(2S,5R,6R)-6-[[(2R)-2-[[(2R)-2-amino-4-(methylamino)-4-oxo-butanoyl]amino]-2-(4-hydroxyphenyl)acetyl]amino]-3,3-dimethyl-7-oxo-4-thia-1-azabicyclo[3.2.0]heptane-2-carboxylic acid

> <PUBCHEM_IUPAC_CAS_NAME>
(2S,5R,6R)-6-[[(2R)-2-[[(2R)-2-amino-4-(methylamino)-1,4-dioxobutyl]amino]-2-(4-hydroxyphenyl)-1-oxoethyl]amino]-3,3-dimethyl-7-oxo-4-thia-1-azabicyclo[3.2.0]heptane-2-carboxylic acid

> <PUBCHEM_IUPAC_NAME>
(2S,5R,6R)-6-[[(2R)-2-[[(2R)-2-amino-4-(methylamino)-4-oxobutanoyl]amino]-2-(4-hydroxyphenyl)acetyl]amino]-3,3-dimethyl-7-oxo-4-thia-1-azabicyclo[3.2.0]heptane-2-carboxylic acid

> <PUBCHEM_IUPAC_SYSTEMATIC_NAME>
(2S,5R,6R)-6-[[(2R)-2-[[(2R)-2-azanyl-4-(methylamino)-4-oxidanylidene-butanoyl]amino]-2-(4-hydroxyphenyl)ethanoyl]amino]-3,3-dimethyl-7-oxidanylidene-4-thia-1-azabicyclo[3.2.0]heptane-2-carboxylic acid

> <PUBCHEM_IUPAC_TRADITIONAL_NAME>
(2S,5R,6R)-6-[[(2R)-2-[[(2R)-2-amino-4-keto-4-(methylamino)butanoyl]amino]-2-(4-hydroxyphenyl)acetyl]amino]-7-keto-3,3-dimethyl-4-thia-1-azabicyclo[3.2.0]heptane-2-carboxylic acid

> <PUBCHEM_IUPAC_INCHI>
InChI=1S/C21H27N5O7S/c1-21(2)15(20(32)33)26-18(31)14(19(26)34-21)25-17(30)13(9-4-6-10(27)7-5-9)24-16(29)11(22)8-12(28)23-3/h4-7,11,13-15,19,27H,8,22H2,1-3H3,(H,23,28)(H,24,29)(H,25,30)(H,32,33)/t11-,13-,14-,15+,19-/m1/s1

> <PUBCHEM_IUPAC_INCHIKEY>
BHELIUBJHYAEDK-OAIUPTLZSA-N

> <PUBCHEM_XLOGP3>
-3.4

> <PUBCHEM_EXACT_MASS>
493.163119

> <PUBCHEM_MOLECULAR_FORMULA>
C21H27N5O7S

> <PUBCHEM_MOLECULAR_WEIGHT>
493.53338

> <PUBCHEM_OPENEYE_CAN_SMILES>
CC1(C(N2C(S1)C(C2=O)NC(=O)C(C3=CC=C(C=C3)O)NC(=O)C(CC(=O)NC)N)C(=O)O)C

> <PUBCHEM_OPENEYE_ISO_SMILES>
CC1([C@@H](N2[C@H](S1)[C@@H](C2=O)NC(=O)[C@@H](C3=CC=C(C=C3)O)NC(=O)[C@@H](CC(=O)NC)N)C(=O)O)C

> <PUBCHEM_CACTVS_TPSA>
217

> <PUBCHEM_MONOISOTOPIC_WEIGHT>
493.163119

> <PUBCHEM_TOTAL_CHARGE>
0

> <PUBCHEM_HEAVY_ATOM_COUNT>
34

> <PUBCHEM_ATOM_DEF_STEREO_COUNT>
5

> <PUBCHEM_ATOM_UDEF_STEREO_COUNT>
0

> <PUBCHEM_BOND_DEF_STEREO_COUNT>
0

> <PUBCHEM_BOND_UDEF_STEREO_COUNT>
0

> <PUBCHEM_ISOTOPIC_ATOM_COUNT>
0

> <PUBCHEM_COMPONENT_COUNT>
1

> <PUBCHEM_CACTVS_TAUTO_COUNT>
32

> <PUBCHEM_COORDINATE_TYPE>
1
5
255

> <PUBCHEM_BONDANNOTATIONS>
17  10  5
23  11  5
28  12  5
14  35  6
16  21  6
24  26  8
24  27  8
26  29  8
27  30  8
29  32  8
30  32  8

$$$$

