441156
  -OEChem-07051212522D

 22 22  0     1  0  0  0  0  0999 V2000
    3.7690    1.5000    0.0000 O   0  0  0  0  0  0  0  0  0  0  0  0
    2.5369    0.6340    0.0000 O   0  0  0  0  0  0  0  0  0  0  0  0
    5.7690    1.5000    0.0000 O   0  0  0  0  0  0  0  0  0  0  0  0
    4.2690    2.3660    0.0000 O   0  0  0  0  0  0  0  0  0  0  0  0
    4.2690    0.6340    0.0000 C   0  0  3  0  0  0  0  0  0  0  0  0
    3.4030    0.1340    0.0000 C   0  0  3  0  0  0  0  0  0  0  0  0
    5.1350    0.1340    0.0000 C   0  0  0  0  0  0  0  0  0  0  0  0
    3.4030   -0.8660    0.0000 C   0  0  0  0  0  0  0  0  0  0  0  0
    4.2690   -1.3660    0.0000 C   0  0  0  0  0  0  0  0  0  0  0  0
    5.1350   -0.8660    0.0000 C   0  0  0  0  0  0  0  0  0  0  0  0
    4.7690    1.5000    0.0000 C   0  0  0  0  0  0  0  0  0  0  0  0
    4.2690   -2.3660    0.0000 C   0  0  0  0  0  0  0  0  0  0  0  0
    3.4030    0.9840    0.0000 H   0  0  0  0  0  0  0  0  0  0  0  0
    5.6720    0.4440    0.0000 H   0  0  0  0  0  0  0  0  0  0  0  0
    2.8660   -1.1760    0.0000 H   0  0  0  0  0  0  0  0  0  0  0  0
    5.6720   -1.1760    0.0000 H   0  0  0  0  0  0  0  0  0  0  0  0
    3.1490    1.5000    0.0000 H   0  0  0  0  0  0  0  0  0  0  0  0
    3.6490   -2.3660    0.0000 H   0  0  0  0  0  0  0  0  0  0  0  0
    4.2690   -2.9860    0.0000 H   0  0  0  0  0  0  0  0  0  0  0  0
    4.8890   -2.3660    0.0000 H   0  0  0  0  0  0  0  0  0  0  0  0
    2.0000    0.3240    0.0000 H   0  0  0  0  0  0  0  0  0  0  0  0
    6.0790    2.0369    0.0000 H   0  0  0  0  0  0  0  0  0  0  0  0
  1  5  1  0  0  0  0
  1 17  1  0  0  0  0
  2  6  1  0  0  0  0
  2 21  1  0  0  0  0
  3 11  1  0  0  0  0
  3 22  1  0  0  0  0
  4 11  2  0  0  0  0
  5  6  1  0  0  0  0
  5  7  1  0  0  0  0
  5 11  1  0  0  0  0
  6  8  1  0  0  0  0
  6 13  1  0  0  0  0
  7 10  2  0  0  0  0
  7 14  1  0  0  0  0
  8  9  2  0  0  0  0
  8 15  1  0  0  0  0
  9 10  1  0  0  0  0
  9 12  1  0  0  0  0
 10 16  1  0  0  0  0
 12 18  1  0  0  0  0
 12 19  1  0  0  0  0
 12 20  1  0  0  0  0
M  END
> <PUBCHEM_COMPOUND_CID>
441156

> <PUBCHEM_COMPOUND_CANONICALIZED>
1

> <PUBCHEM_CACTVS_COMPLEXITY>
266

> <PUBCHEM_CACTVS_HBOND_ACCEPTOR>
4

> <PUBCHEM_CACTVS_HBOND_DONOR>
3

> <PUBCHEM_CACTVS_ROTATABLE_BOND>
1

> <PUBCHEM_CACTVS_SUBSKEYS>
AAADccBwOAAAAAAAAAAAAAAAAAAAAAAAAAAgAAAAAAAAAAAAAAAAGgAACAAADFSggAICCAAAAgCIAiDSCAIAAAAgAAAICAFAAAgJFBQAAQAAUAAF4AAJkAIAAAAIAAAAAAAAAAAAAAAAAAAAAAAAAAAAAA==

> <PUBCHEM_IUPAC_OPENEYE_NAME>
1,6-dihydroxy-4-methyl-cyclohexa-2,4-diene-1-carboxylic acid

> <PUBCHEM_IUPAC_CAS_NAME>
1,6-dihydroxy-4-methyl-1-cyclohexa-2,4-dienecarboxylic acid

> <PUBCHEM_IUPAC_NAME>
1,6-dihydroxy-4-methylcyclohexa-2,4-diene-1-carboxylic acid

> <PUBCHEM_IUPAC_SYSTEMATIC_NAME>
4-methyl-1,6-bis(oxidanyl)cyclohexa-2,4-diene-1-carboxylic acid

> <PUBCHEM_IUPAC_TRADITIONAL_NAME>
1,6-dihydroxy-4-methyl-cyclohexa-2,4-diene-1-carboxylic acid

> <PUBCHEM_IUPAC_INCHI>
InChI=1S/C8H10O4/c1-5-2-3-8(12,7(10)11)6(9)4-5/h2-4,6,9,12H,1H3,(H,10,11)

> <PUBCHEM_IUPAC_INCHIKEY>
KWQSYZVAOWYCNP-UHFFFAOYSA-N

> <PUBCHEM_XLOGP3_AA>
0

> <PUBCHEM_EXACT_MASS>
170.057909

> <PUBCHEM_MOLECULAR_FORMULA>
C8H10O4

> <PUBCHEM_MOLECULAR_WEIGHT>
170.1626

> <PUBCHEM_OPENEYE_CAN_SMILES>
CC1=CC(C(C=C1)(C(=O)O)O)O

> <PUBCHEM_OPENEYE_ISO_SMILES>
CC1=CC(C(C=C1)(C(=O)O)O)O

> <PUBCHEM_CACTVS_TPSA>
77.8

> <PUBCHEM_MONOISOTOPIC_WEIGHT>
170.057909

> <PUBCHEM_TOTAL_CHARGE>
0

> <PUBCHEM_HEAVY_ATOM_COUNT>
12

> <PUBCHEM_ATOM_DEF_STEREO_COUNT>
0

> <PUBCHEM_ATOM_UDEF_STEREO_COUNT>
2

> <PUBCHEM_BOND_DEF_STEREO_COUNT>
0

> <PUBCHEM_BOND_UDEF_STEREO_COUNT>
0

> <PUBCHEM_ISOTOPIC_ATOM_COUNT>
0

> <PUBCHEM_COMPONENT_COUNT>
1

> <PUBCHEM_CACTVS_TAUTO_COUNT>
1

> <PUBCHEM_COORDINATE_TYPE>
1
5
255

> <PUBCHEM_BONDANNOTATIONS>
5  11  3
6  13  3

$$$$

