439991
  -OEChem-07051212483D

 66 68  0     1  0  0  0  0  0999 V2000
   -2.0901    0.0190   -0.3651 O   0  0  0  0  0  0  0  0  0  0  0  0
    0.3851   -2.5157    0.6533 O   0  0  0  0  0  0  0  0  0  0  0  0
   -4.3688   -0.6159   -0.2069 O   0  0  0  0  0  0  0  0  0  0  0  0
    2.2233   -1.4144   -0.3607 O   0  0  0  0  0  0  0  0  0  0  0  0
    4.8062   -0.4536   -0.6765 O   0  0  0  0  0  0  0  0  0  0  0  0
   -1.4322   -1.2786   -2.8420 O   0  0  0  0  0  0  0  0  0  0  0  0
    1.3073   -2.2102   -2.8910 O   0  0  0  0  0  0  0  0  0  0  0  0
   -2.7325    1.8226   -2.4167 O   0  0  0  0  0  0  0  0  0  0  0  0
   -4.8586    3.3625   -1.1985 O   0  0  0  0  0  0  0  0  0  0  0  0
   -5.4347    2.4858    1.4758 O   0  0  0  0  0  0  0  0  0  0  0  0
    3.1304    0.6001    2.4332 O   0  0  0  0  0  0  0  0  0  0  0  0
    3.8009    3.0959    1.1787 O   0  0  0  0  0  0  0  0  0  0  0  0
   -0.3658   -1.7042    3.1494 O   0  0  0  0  0  0  0  0  0  0  0  0
    6.2385    2.9172   -0.3711 O   0  0  0  0  0  0  0  0  0  0  0  0
    6.9651    0.2350    0.0204 O   0  0  0  0  0  0  0  0  0  0  0  0
   -5.2187   -1.7349    2.1336 O   0  0  0  0  0  0  0  0  0  0  0  0
   -1.3585   -1.2020   -0.4452 C   0  0  1  0  0  0  0  0  0  0  0  0
   -0.5345   -1.1769   -1.7342 C   0  0  1  0  0  0  0  0  0  0  0  0
   -0.4573   -1.3651    0.7863 C   0  0  1  0  0  0  0  0  0  0  0  0
    0.4401   -2.3522   -1.7715 C   0  0  2  0  0  0  0  0  0  0  0  0
    1.2533   -2.4533   -0.4800 C   0  0  2  0  0  0  0  0  0  0  0  0
   -3.3413   -0.0791   -1.0427 C   0  0  1  0  0  0  0  0  0  0  0  0
   -3.7868    1.2523   -1.6493 C   0  0  1  0  0  0  0  0  0  0  0  0
   -4.2234    2.2446   -0.5734 C   0  0  2  0  0  0  0  0  0  0  0  0
   -5.2267    1.5953    0.3821 C   0  0  1  0  0  0  0  0  0  0  0  0
   -4.7139    0.2402    0.8881 C   0  0  1  0  0  0  0  0  0  0  0  0
    4.2373   -0.5963    0.6301 C   0  0  1  0  0  0  0  0  0  0  0  0
    3.5695    0.7098    1.0814 C   0  0  2  0  0  0  0  0  0  0  0  0
    4.5421    1.8877    0.9931 C   0  0  1  0  0  0  0  0  0  0  0  0
    3.2442   -1.7531    0.5597 C   0  0  0  0  0  0  0  0  0  0  0  0
   -1.2658   -1.5506    2.0675 C   0  0  0  0  0  0  0  0  0  0  0  0
    5.2202    1.9230   -0.3750 C   0  0  2  0  0  0  0  0  0  0  0  0
    5.8092    0.5618   -0.7489 C   0  0  2  0  0  0  0  0  0  0  0  0
   -5.7632   -0.4967    1.7161 C   0  0  0  0  0  0  0  0  0  0  0  0
   -2.0507   -2.0568   -0.4724 H   0  0  0  0  0  0  0  0  0  0  0  0
   -0.0085   -0.2220   -1.8491 H   0  0  0  0  0  0  0  0  0  0  0  0
    0.1789   -0.4796    0.9176 H   0  0  0  0  0  0  0  0  0  0  0  0
   -0.1309   -3.2787   -1.9141 H   0  0  0  0  0  0  0  0  0  0  0  0
    1.7893   -3.4103   -0.5231 H   0  0  0  0  0  0  0  0  0  0  0  0
   -3.2909   -0.7781   -1.8754 H   0  0  0  0  0  0  0  0  0  0  0  0
   -4.6314    1.0800   -2.3290 H   0  0  0  0  0  0  0  0  0  0  0  0
   -3.3574    2.6444   -0.0333 H   0  0  0  0  0  0  0  0  0  0  0  0
   -6.1911    1.4708   -0.1254 H   0  0  0  0  0  0  0  0  0  0  0  0
   -3.8270    0.3780    1.5183 H   0  0  0  0  0  0  0  0  0  0  0  0
    5.0269   -0.8840    1.3365 H   0  0  0  0  0  0  0  0  0  0  0  0
    2.6858    0.9292    0.4707 H   0  0  0  0  0  0  0  0  0  0  0  0
    5.2844    1.8549    1.7990 H   0  0  0  0  0  0  0  0  0  0  0  0
    3.7624   -2.6525    0.2060 H   0  0  0  0  0  0  0  0  0  0  0  0
    2.8160   -1.9525    1.5484 H   0  0  0  0  0  0  0  0  0  0  0  0
   -1.9029   -0.6852    2.2656 H   0  0  0  0  0  0  0  0  0  0  0  0
   -1.8836   -2.4531    2.0139 H   0  0  0  0  0  0  0  0  0  0  0  0
    4.4773    2.2167   -1.1276 H   0  0  0  0  0  0  0  0  0  0  0  0
    6.1422    0.6129   -1.7922 H   0  0  0  0  0  0  0  0  0  0  0  0
   -6.0514    0.0799    2.6003 H   0  0  0  0  0  0  0  0  0  0  0  0
   -6.6542   -0.7090    1.1160 H   0  0  0  0  0  0  0  0  0  0  0  0
   -1.8279   -2.1669   -2.8312 H   0  0  0  0  0  0  0  0  0  0  0  0
    1.9179   -2.9670   -2.8867 H   0  0  0  0  0  0  0  0  0  0  0  0
   -2.4650    1.1648   -3.0810 H   0  0  0  0  0  0  0  0  0  0  0  0
   -5.6270    3.0353   -1.6963 H   0  0  0  0  0  0  0  0  0  0  0  0
   -4.5930    2.5751    1.9544 H   0  0  0  0  0  0  0  0  0  0  0  0
    3.9019    0.3800    2.9827 H   0  0  0  0  0  0  0  0  0  0  0  0
    3.1418    3.1602    0.4667 H   0  0  0  0  0  0  0  0  0  0  0  0
   -0.9003   -1.8225    3.9530 H   0  0  0  0  0  0  0  0  0  0  0  0
    6.6516    2.9168   -1.2514 H   0  0  0  0  0  0  0  0  0  0  0  0
    7.5156   -0.3533   -0.5238 H   0  0  0  0  0  0  0  0  0  0  0  0
   -5.9025   -2.1877    2.6560 H   0  0  0  0  0  0  0  0  0  0  0  0
  1 17  1  0  0  0  0
  1 22  1  0  0  0  0
  2 19  1  0  0  0  0
  2 21  1  0  0  0  0
  3 22  1  0  0  0  0
  3 26  1  0  0  0  0
  4 21  1  0  0  0  0
  4 30  1  0  0  0  0
  5 27  1  0  0  0  0
  5 33  1  0  0  0  0
  6 18  1  0  0  0  0
  6 56  1  0  0  0  0
  7 20  1  0  0  0  0
  7 57  1  0  0  0  0
  8 23  1  0  0  0  0
  8 58  1  0  0  0  0
  9 24  1  0  0  0  0
  9 59  1  0  0  0  0
 10 25  1  0  0  0  0
 10 60  1  0  0  0  0
 11 28  1  0  0  0  0
 11 61  1  0  0  0  0
 12 29  1  0  0  0  0
 12 62  1  0  0  0  0
 13 31  1  0  0  0  0
 13 63  1  0  0  0  0
 14 32  1  0  0  0  0
 14 64  1  0  0  0  0
 15 33  1  0  0  0  0
 15 65  1  0  0  0  0
 16 34  1  0  0  0  0
 16 66  1  0  0  0  0
 17 18  1  0  0  0  0
 17 19  1  0  0  0  0
 17 35  1  0  0  0  0
 18 20  1  0  0  0  0
 18 36  1  0  0  0  0
 19 31  1  0  0  0  0
 19 37  1  0  0  0  0
 20 21  1  0  0  0  0
 20 38  1  0  0  0  0
 21 39  1  0  0  0  0
 22 23  1  0  0  0  0
 22 40  1  0  0  0  0
 23 24  1  0  0  0  0
 23 41  1  0  0  0  0
 24 25  1  0  0  0  0
 24 42  1  0  0  0  0
 25 26  1  0  0  0  0
 25 43  1  0  0  0  0
 26 34  1  0  0  0  0
 26 44  1  0  0  0  0
 27 28  1  0  0  0  0
 27 30  1  0  0  0  0
 27 45  1  0  0  0  0
 28 29  1  0  0  0  0
 28 46  1  0  0  0  0
 29 32  1  0  0  0  0
 29 47  1  0  0  0  0
 30 48  1  0  0  0  0
 30 49  1  0  0  0  0
 31 50  1  0  0  0  0
 31 51  1  0  0  0  0
 32 33  1  0  0  0  0
 32 52  1  0  0  0  0
 33 53  1  0  0  0  0
 34 54  1  0  0  0  0
 34 55  1  0  0  0  0
M  END
> <PUBCHEM_COMPOUND_CID>
439991

> <PUBCHEM_CONFORMER_RMSD>
1

> <PUBCHEM_CONFORMER_DIVERSEORDER>
1
99
64
78
8
58
86
124
52
128
65
107
123
79
141
109
14
116
42
125
23
126
114
47
90
118
131
88
36
119
117
87
104
37
21
38
106
39
91
53
24
137
61
11
93
83
138
59
122
17
129
135
55
74
50
82
18
25
100
7
28
40
127
70
29
5
94
95
27
84
49
60
62
22
15
10
33
132
98
41
80
57
66
112
136
121
110
56
77
81
69
113
102
30
130
73
96
75
3
63
97
9
103
71
105
44
89
134
26
19
111
72
101
108
140
115
4
45
12
139
68
34
20
54
35
51
67
16
133
13
48
85
43
32
31
92
46
76
6
2
120

> <PUBCHEM_MMFF94_PARTIAL_CHARGES>
45
1 -0.56
10 -0.68
11 -0.68
12 -0.68
13 -0.68
14 -0.68
15 -0.68
16 -0.68
17 0.28
18 0.28
19 0.28
2 -0.56
20 0.28
21 0.56
22 0.56
23 0.28
24 0.28
25 0.28
26 0.28
27 0.28
28 0.28
29 0.28
3 -0.56
30 0.28
31 0.28
32 0.28
33 0.56
34 0.28
4 -0.56
5 -0.56
56 0.4
57 0.4
58 0.4
59 0.4
6 -0.68
60 0.4
61 0.4
62 0.4
63 0.4
64 0.4
65 0.4
66 0.4
7 -0.68
8 -0.68
9 -0.68

> <PUBCHEM_EFFECTIVE_ROTOR_COUNT>
10.6

> <PUBCHEM_PHARMACOPHORE_FEATURES>
30
1 1 acceptor
1 10 acceptor
1 10 donor
1 11 acceptor
1 11 donor
1 12 acceptor
1 12 donor
1 13 acceptor
1 13 donor
1 14 acceptor
1 14 donor
1 15 acceptor
1 15 donor
1 16 acceptor
1 16 donor
1 2 acceptor
1 3 acceptor
1 4 acceptor
1 5 acceptor
1 6 acceptor
1 6 donor
1 7 acceptor
1 7 donor
1 8 acceptor
1 8 donor
1 9 acceptor
1 9 donor
6 2 17 18 19 20 21 rings
6 3 22 23 24 25 26 rings
6 5 27 28 29 32 33 rings

> <PUBCHEM_HEAVY_ATOM_COUNT>
34

> <PUBCHEM_ATOM_DEF_STEREO_COUNT>
14

> <PUBCHEM_ATOM_UDEF_STEREO_COUNT>
1

> <PUBCHEM_BOND_DEF_STEREO_COUNT>
0

> <PUBCHEM_BOND_UDEF_STEREO_COUNT>
0

> <PUBCHEM_ISOTOPIC_ATOM_COUNT>
0

> <PUBCHEM_COMPONENT_COUNT>
1

> <PUBCHEM_CACTVS_TAUTO_COUNT>
1

> <PUBCHEM_CONFORMER_ID>
0006B6B700000001

> <PUBCHEM_MMFF94_ENERGY>
100.9536

> <PUBCHEM_FEATURE_SELFOVERLAP>
152.407

> <PUBCHEM_SHAPE_FINGERPRINT>
10369192 42 18261665978788151381
11070050 100 17560804385264261578
11135609 201 18127416657588951320
11578080 2 18339343249865571403
11796584 16 7565346413960947444
12596602 18 15985106305875487036
12633257 1 16486701260299511806
13544653 18 11095883804110923927
14251751 18 8070027774612322640
14840074 17 18040429984531259825
14848178 5 9871750212891492052
14950920 106 17202222865468011688
15163728 17 18113897169423497918
15183329 4 16660363684050950624
15475509 35 11167069468285132085
15475509 8 5545203813856334443
17349148 13 15482375539525011299
19315092 285 13182435769332738773
21033648 29 18267586806771573992
21223535 225 16443344308201811376
21315764 119 5400814846741284928
21458453 9 17702935925282715529
22122407 14 18409440397775447264
2838139 119 18408611348817639574
392239 28 17561357392389231145
4058900 60 18114731732961550842
4173938 77 18263356993550101760
5104073 3 17774443905161353787

> <PUBCHEM_SHAPE_MULTIPOLES>
605.8
15.41
3.39
2.54
6.42
1.54
-0.05
12.46
3.08
0.23
-0.4
-1.78
-1.05
1.88

> <PUBCHEM_SHAPE_SELFOVERLAP>
1249.881

> <PUBCHEM_SHAPE_VOLUME>
338.8

> <PUBCHEM_COORDINATE_TYPE>
2
5
10

$$$$

