17396082
  -OEChem-06241222543D

 63 66  0     1  0  0  0  0  0999 V2000
    2.0708    0.5091    1.4060 S   0  0  0  0  0  0  0  0  0  0  0  0
    0.7595   -0.1121    1.4315 O   0  0  0  0  0  0  0  0  0  0  0  0
    2.7453    0.8552    2.6434 O   0  0  0  0  0  0  0  0  0  0  0  0
    0.2341    2.2254   -1.5028 O   0  0  0  0  0  0  0  0  0  0  0  0
    2.0356    1.8673    0.3831 N   0  0  1  0  0  0  0  0  0  0  0  0
   -1.2913    3.1095    0.0173 N   0  0  0  0  0  0  0  0  0  0  0  0
   -3.8179   -0.3498   -0.6832 N   0  0  0  0  0  0  0  0  0  0  0  0
   -4.5701    0.1688    0.3024 N   0  0  0  0  0  0  0  0  0  0  0  0
    1.0058    2.9113    0.6426 C   0  0  1  0  0  0  0  0  0  0  0  0
    1.7225    4.2477    0.4857 C   0  0  0  0  0  0  0  0  0  0  0  0
    2.9198    3.9227   -0.3918 C   0  0  0  0  0  0  0  0  0  0  0  0
    3.3304    2.5451    0.1003 C   0  0  0  0  0  0  0  0  0  0  0  0
   -0.0379    2.6977   -0.4021 C   0  0  0  0  0  0  0  0  0  0  0  0
    3.1452   -0.5538    0.4896 C   0  0  0  0  0  0  0  0  0  0  0  0
   -2.4691    3.0308   -0.8162 C   0  0  0  0  0  0  0  0  0  0  0  0
   -3.1592    1.7306   -0.5853 C   0  0  0  0  0  0  0  0  0  0  0  0
    2.7112   -1.1189   -0.7096 C   0  0  0  0  0  0  0  0  0  0  0  0
    4.4269   -0.8284    0.9665 C   0  0  0  0  0  0  0  0  0  0  0  0
   -2.9563    0.5444   -1.2475 C   0  0  0  0  0  0  0  0  0  0  0  0
   -4.1632    1.4399    0.3577 C   0  0  0  0  0  0  0  0  0  0  0  0
    3.5589   -1.9587   -1.4318 C   0  0  0  0  0  0  0  0  0  0  0  0
    5.2747   -1.6682    0.2442 C   0  0  0  0  0  0  0  0  0  0  0  0
    4.8407   -2.2333   -0.9550 C   0  0  0  0  0  0  0  0  0  0  0  0
   -3.9819   -1.7402   -1.0384 C   0  0  0  0  0  0  0  0  0  0  0  0
   -2.0378    0.1868   -2.3455 C   0  0  0  0  0  0  0  0  0  0  0  0
   -4.7715    2.3538    1.3409 C   0  0  0  0  0  0  0  0  0  0  0  0
   -3.0636   -2.6236   -0.2379 C   0  0  0  0  0  0  0  0  0  0  0  0
    5.7479   -3.1302   -1.7277 C   0  0  0  0  0  0  0  0  0  0  0  0
   -3.4896   -3.1493    0.9818 C   0  0  0  0  0  0  0  0  0  0  0  0
   -1.7862   -2.9163   -0.7155 C   0  0  0  0  0  0  0  0  0  0  0  0
   -2.6382   -3.9678    1.7241 C   0  0  0  0  0  0  0  0  0  0  0  0
   -0.9348   -3.7349    0.0267 C   0  0  0  0  0  0  0  0  0  0  0  0
   -1.3607   -4.2605    1.2465 C   0  0  0  0  0  0  0  0  0  0  0  0
    0.5829    2.8157    1.6483 H   0  0  0  0  0  0  0  0  0  0  0  0
    2.0732    4.5952    1.4653 H   0  0  0  0  0  0  0  0  0  0  0  0
    1.0964    5.0337    0.0523 H   0  0  0  0  0  0  0  0  0  0  0  0
    2.6168    3.8779   -1.4446 H   0  0  0  0  0  0  0  0  0  0  0  0
    3.7242    4.6574   -0.2983 H   0  0  0  0  0  0  0  0  0  0  0  0
    3.9292    2.6334    1.0130 H   0  0  0  0  0  0  0  0  0  0  0  0
    3.8995    2.0105   -0.6644 H   0  0  0  0  0  0  0  0  0  0  0  0
   -1.4052    3.4835    0.9551 H   0  0  0  0  0  0  0  0  0  0  0  0
   -3.1179    3.8712   -0.5489 H   0  0  0  0  0  0  0  0  0  0  0  0
   -2.1850    3.1493   -1.8668 H   0  0  0  0  0  0  0  0  0  0  0  0
    1.7158   -0.9129   -1.0943 H   0  0  0  0  0  0  0  0  0  0  0  0
    4.7912   -0.4003    1.8956 H   0  0  0  0  0  0  0  0  0  0  0  0
    3.2086   -2.3940   -2.3639 H   0  0  0  0  0  0  0  0  0  0  0  0
    6.2707   -1.8755    0.6264 H   0  0  0  0  0  0  0  0  0  0  0  0
   -5.0299   -2.0117   -0.8569 H   0  0  0  0  0  0  0  0  0  0  0  0
   -3.8274   -1.8711   -2.1134 H   0  0  0  0  0  0  0  0  0  0  0  0
   -1.7780    1.0706   -2.9373 H   0  0  0  0  0  0  0  0  0  0  0  0
   -2.4703   -0.5277   -3.0502 H   0  0  0  0  0  0  0  0  0  0  0  0
   -1.1063   -0.2269   -1.9484 H   0  0  0  0  0  0  0  0  0  0  0  0
   -3.9994    2.8311    1.9532 H   0  0  0  0  0  0  0  0  0  0  0  0
   -5.4547    1.8294    2.0174 H   0  0  0  0  0  0  0  0  0  0  0  0
   -5.3402    3.1391    0.8325 H   0  0  0  0  0  0  0  0  0  0  0  0
    6.7968   -2.8482   -1.5859 H   0  0  0  0  0  0  0  0  0  0  0  0
    5.5426   -3.0698   -2.8019 H   0  0  0  0  0  0  0  0  0  0  0  0
    5.6162   -4.1673   -1.4034 H   0  0  0  0  0  0  0  0  0  0  0  0
   -4.4820   -2.9283    1.3656 H   0  0  0  0  0  0  0  0  0  0  0  0
   -1.4438   -2.5346   -1.6719 H   0  0  0  0  0  0  0  0  0  0  0  0
   -2.9697   -4.3770    2.6739 H   0  0  0  0  0  0  0  0  0  0  0  0
    0.0587   -3.9656   -0.3468 H   0  0  0  0  0  0  0  0  0  0  0  0
   -0.6979   -4.8982    1.8240 H   0  0  0  0  0  0  0  0  0  0  0  0
  1  2  2  0  0  0  0
  1  3  2  0  0  0  0
  1  5  1  0  0  0  0
  1 14  1  0  0  0  0
  4 13  2  0  0  0  0
  5  9  1  0  0  0  0
  5 12  1  0  0  0  0
  6 13  1  0  0  0  0
  6 15  1  0  0  0  0
  6 41  1  0  0  0  0
  7  8  1  0  0  0  0
  7 19  1  0  0  0  0
  7 24  1  0  0  0  0
  8 20  2  0  0  0  0
  9 10  1  0  0  0  0
  9 13  1  0  0  0  0
  9 34  1  0  0  0  0
 10 11  1  0  0  0  0
 10 35  1  0  0  0  0
 10 36  1  0  0  0  0
 11 12  1  0  0  0  0
 11 37  1  0  0  0  0
 11 38  1  0  0  0  0
 12 39  1  0  0  0  0
 12 40  1  0  0  0  0
 14 17  2  0  0  0  0
 14 18  1  0  0  0  0
 15 16  1  0  0  0  0
 15 42  1  0  0  0  0
 15 43  1  0  0  0  0
 16 19  2  0  0  0  0
 16 20  1  0  0  0  0
 17 21  1  0  0  0  0
 17 44  1  0  0  0  0
 18 22  2  0  0  0  0
 18 45  1  0  0  0  0
 19 25  1  0  0  0  0
 20 26  1  0  0  0  0
 21 23  2  0  0  0  0
 21 46  1  0  0  0  0
 22 23  1  0  0  0  0
 22 47  1  0  0  0  0
 23 28  1  0  0  0  0
 24 27  1  0  0  0  0
 24 48  1  0  0  0  0
 24 49  1  0  0  0  0
 25 50  1  0  0  0  0
 25 51  1  0  0  0  0
 25 52  1  0  0  0  0
 26 53  1  0  0  0  0
 26 54  1  0  0  0  0
 26 55  1  0  0  0  0
 27 29  2  0  0  0  0
 27 30  1  0  0  0  0
 28 56  1  0  0  0  0
 28 57  1  0  0  0  0
 28 58  1  0  0  0  0
 29 31  1  0  0  0  0
 29 59  1  0  0  0  0
 30 32  2  0  0  0  0
 30 60  1  0  0  0  0
 31 33  2  0  0  0  0
 31 61  1  0  0  0  0
 32 33  1  0  0  0  0
 32 62  1  0  0  0  0
 33 63  1  0  0  0  0
M  END
> <PUBCHEM_COMPOUND_CID>
17396082

> <PUBCHEM_CONFORMER_RMSD>
1.6

> <PUBCHEM_CONFORMER_DIVERSEORDER>
1
23
4
24
66
30
59
32
41
21
62
61
47
3
63
52
68
6
34
13
40
45
48
25
64
11
50
12
31
60
55
53
7
56
65
27
33
14
9
54
43
35
49
51
58
67
42
16
17
20
39
22
28
29
37
36
57
46
15
10
19
2
8
44
18
38
5
26

> <PUBCHEM_MMFF94_PARTIAL_CHARGES>
41
1 1.45
12 0.36
13 0.57
14 -0.01
15 0.48
16 -0.18
17 -0.15
18 -0.15
19 -0.33
2 -0.65
20 0.11
21 -0.15
22 -0.15
23 -0.14
24 0.4
25 0.18
26 0.18
27 -0.14
28 0.14
29 -0.15
3 -0.65
30 -0.15
31 -0.15
32 -0.15
33 -0.15
4 -0.57
41 0.37
44 0.15
45 0.15
46 0.15
47 0.15
5 -0.85
59 0.15
6 -0.73
60 0.15
61 0.15
62 0.15
63 0.15
7 0.31
8 -0.71
9 0.42

> <PUBCHEM_EFFECTIVE_ROTOR_COUNT>
9

> <PUBCHEM_PHARMACOPHORE_FEATURES>
9
1 2 acceptor
1 3 acceptor
1 4 acceptor
1 6 donor
1 8 acceptor
5 5 9 10 11 12 rings
5 7 8 16 19 20 rings
6 14 17 18 21 22 23 rings
6 27 29 30 31 32 33 rings

> <PUBCHEM_HEAVY_ATOM_COUNT>
33

> <PUBCHEM_ATOM_DEF_STEREO_COUNT>
1

> <PUBCHEM_ATOM_UDEF_STEREO_COUNT>
0

> <PUBCHEM_BOND_DEF_STEREO_COUNT>
0

> <PUBCHEM_BOND_UDEF_STEREO_COUNT>
0

> <PUBCHEM_ISOTOPIC_ATOM_COUNT>
0

> <PUBCHEM_COMPONENT_COUNT>
1

> <PUBCHEM_CACTVS_TAUTO_COUNT>
2

> <PUBCHEM_CONFORMER_ID>
0109717200000001

> <PUBCHEM_MMFF94_ENERGY>
56.6619

> <PUBCHEM_FEATURE_SELFOVERLAP>
45.687

> <PUBCHEM_SHAPE_FINGERPRINT>
10928967 22 17846505845827374827
11135609 12 18410856512527122744
11488393 25 18267016155836328112
11513181 2 18117560626113895142
12788726 201 18050283971164702702
13122387 1 18340784718383597091
13402501 40 18188772880361865231
14020679 6 18337378461467638103
14251757 5 18341603876005523534
144659 178 18267861864830014462
14725015 67 18340220664781810271
15274700 242 17909835671562920458
15361156 5 18187366562593719740
16112460 7 18335126614235447705
17627616 140 17838622506502515683
17909252 39 18195235634222583776
17974551 9 18040157297047210889
17977149 70 18265337385879471946
19311894 1 18265339575986102363
19315092 285 15649621015832274455
19319366 153 17489027187908082826
20764821 26 18340207384189263950
21792965 2 18127428761276036864
3737641 26 18051684443476024936
42626532 9 18271232864322939698
4280585 95 18339932618737031040
4435113 14 18114170986975114958
445580 102 17550111359663716627
463206 1 18411131446669963828
508706 21 18410859884251107463
5265222 85 18198896096798828956
563151 40 17250874219599598936
563151 74 16589176860647166962

> <PUBCHEM_SHAPE_MULTIPOLES>
645.44
10.77
6.66
1.77
5.17
0.37
-0.09
5.23
1.14
-0.58
-0.88
0.23
0.58
2.27

> <PUBCHEM_SHAPE_SELFOVERLAP>
1368.653

> <PUBCHEM_SHAPE_VOLUME>
363.9

> <PUBCHEM_COORDINATE_TYPE>
2
5
10

$$$$

