10260
  -OEChem-06261204242D

 19 20  0     0  0  0  0  0  0999 V2000
    4.4851   -1.5614    0.0000 S   0  0  0  0  0  0  0  0  0  0  0  0
    5.0687   -0.7567    0.0000 S   0  0  0  0  0  0  0  0  0  0  0  0
    2.2788    1.0034    0.0000 O   0  0  0  0  0  0  0  0  0  0  0  0
    6.4421    0.4605    0.0000 O   0  0  0  0  0  0  0  0  0  0  0  0
    2.5878   -1.5657    0.0000 N   0  0  0  0  0  0  0  0  0  0  0  0
    4.7957    0.9986    0.0000 N   0  0  0  0  0  0  0  0  0  0  0  0
    3.5388   -0.2567    0.0000 C   0  0  0  0  0  0  0  0  0  0  0  0
    2.0000   -0.7567    0.0000 C   0  0  0  0  0  0  0  0  0  0  0  0
    3.5388   -1.2567    0.0000 C   0  0  0  0  0  0  0  0  0  0  0  0
    2.5878    0.0524    0.0000 C   0  0  0  0  0  0  0  0  0  0  0  0
    4.4851    0.0481    0.0000 C   0  0  0  0  0  0  0  0  0  0  0  0
    5.7742    1.2048    0.0000 C   0  0  0  0  0  0  0  0  0  0  0  0
    6.0849    2.1553    0.0000 C   0  0  0  0  0  0  0  0  0  0  0  0
    1.5393   -0.3418    0.0000 H   0  0  0  0  0  0  0  0  0  0  0  0
    1.5393   -1.1715    0.0000 H   0  0  0  0  0  0  0  0  0  0  0  0
    2.3962   -2.1553    0.0000 H   0  0  0  0  0  0  0  0  0  0  0  0
    6.6742    1.9627    0.0000 H   0  0  0  0  0  0  0  0  0  0  0  0
    6.2775    2.7447    0.0000 H   0  0  0  0  0  0  0  0  0  0  0  0
    5.4956    2.3479    0.0000 H   0  0  0  0  0  0  0  0  0  0  0  0
  1  2  1  0  0  0  0
  1  9  1  0  0  0  0
  2 11  1  0  0  0  0
  3 10  2  0  0  0  0
  4 12  2  0  0  0  0
  5  8  1  0  0  0  0
  5  9  1  0  0  0  0
  5 16  1  0  0  0  0
  6 11  2  0  0  0  0
  6 12  1  0  0  0  0
  7  9  2  0  0  0  0
  7 10  1  0  0  0  0
  7 11  1  0  0  0  0
  8 10  1  0  0  0  0
  8 14  1  0  0  0  0
  8 15  1  0  0  0  0
 12 13  1  0  0  0  0
 13 17  1  0  0  0  0
 13 18  1  0  0  0  0
 13 19  1  0  0  0  0
M  END
> <PUBCHEM_COMPOUND_CID>
10260

> <PUBCHEM_COMPOUND_CANONICALIZED>
1

> <PUBCHEM_CACTVS_COMPLEXITY>
360

> <PUBCHEM_CACTVS_HBOND_ACCEPTOR>
5

> <PUBCHEM_CACTVS_HBOND_DONOR>
1

> <PUBCHEM_CACTVS_ROTATABLE_BOND>
0

> <PUBCHEM_CACTVS_SUBSKEYS>
AAADcYBjMABgAAAAAAAAAAAAAAAAAQIAAAAAAAAAAAAWAAAAAAAAHgQQAAAADATBwAQCAALAAACoAoFwVAAAEAAgAAAAAIGoAFgAAAAAgCAEAAAAAAAAAEAAAAAAAAAAAAAAAAAAAAAAAAAAAAAAAAAAAA==

> <PUBCHEM_IUPAC_OPENEYE_NAME>
N-(4-oxo-5,6-dihydrodithiolo[3,4-b]pyrrol-3-ylidene)acetamide

> <PUBCHEM_IUPAC_CAS_NAME>
N-(4-oxo-5,6-dihydrodithiolo[3,4-b]pyrrol-3-ylidene)acetamide

> <PUBCHEM_IUPAC_NAME>
N-(4-oxo-5,6-dihydrodithiolo[3,4-b]pyrrol-3-ylidene)acetamide

> <PUBCHEM_IUPAC_SYSTEMATIC_NAME>
N-(4-oxidanylidene-5,6-dihydro-[1,2]dithiolo[3,4-b]pyrrol-3-ylidene)ethanamide

> <PUBCHEM_IUPAC_TRADITIONAL_NAME>
N-(4-keto-5,6-dihydrodithiolo[3,4-b]pyrrol-3-ylidene)acetamide

> <PUBCHEM_IUPAC_INCHI>
InChI=1S/C7H6N2O2S2/c1-3(10)9-7-5-4(11)2-8-6(5)12-13-7/h8H,2H2,1H3

> <PUBCHEM_IUPAC_INCHIKEY>
LCPLFMALRXBLPF-UHFFFAOYSA-N

> <PUBCHEM_XLOGP3_AA>
0.6

> <PUBCHEM_EXACT_MASS>
213.987069

> <PUBCHEM_MOLECULAR_FORMULA>
C7H6N2O2S2

> <PUBCHEM_MOLECULAR_WEIGHT>
214.26474

> <PUBCHEM_OPENEYE_CAN_SMILES>
CC(=O)N=C1C2=C(NCC2=O)SS1

> <PUBCHEM_OPENEYE_ISO_SMILES>
CC(=O)N=C1C2=C(NCC2=O)SS1

> <PUBCHEM_CACTVS_TPSA>
109

> <PUBCHEM_MONOISOTOPIC_WEIGHT>
213.987069

> <PUBCHEM_TOTAL_CHARGE>
0

> <PUBCHEM_HEAVY_ATOM_COUNT>
13

> <PUBCHEM_ATOM_DEF_STEREO_COUNT>
0

> <PUBCHEM_ATOM_UDEF_STEREO_COUNT>
0

> <PUBCHEM_BOND_DEF_STEREO_COUNT>
0

> <PUBCHEM_BOND_UDEF_STEREO_COUNT>
0

> <PUBCHEM_ISOTOPIC_ATOM_COUNT>
0

> <PUBCHEM_COMPONENT_COUNT>
1

> <PUBCHEM_CACTVS_TAUTO_COUNT>
9

> <PUBCHEM_COORDINATE_TYPE>
1
5
255

> <PUBCHEM_BONDANNOTATIONS>
1  2  8
1  9  8
2  11  8
7  11  8
7  9  8

$$$$

