442545
  -OEChem-07051212582D

 24 25  0     1  0  0  0  0  0999 V2000
    4.2690    2.0204    0.0000 O   0  0  0  0  0  0  0  0  0  0  0  0
    2.5369   -0.9796    0.0000 O   0  0  0  0  0  0  0  0  0  0  0  0
    4.2690   -1.9796    0.0000 O   0  0  0  0  0  0  0  0  0  0  0  0
    6.0174   -2.0142    0.0000 O   0  0  0  0  0  0  0  0  0  0  0  0
    4.2690    1.0204    0.0000 C   0  0  3  0  0  0  0  0  0  0  0  0
    3.4030    0.5204    0.0000 C   0  0  0  0  0  0  0  0  0  0  0  0
    3.4030   -0.4796    0.0000 C   0  0  3  0  0  0  0  0  0  0  0  0
    5.1350    0.5204    0.0000 C   0  0  0  0  0  0  0  0  0  0  0  0
    5.1350   -0.4796    0.0000 C   0  0  0  0  0  0  0  0  0  0  0  0
    4.2690   -0.9796    0.0000 C   0  0  0  0  0  0  0  0  0  0  0  0
    6.0290    1.0550    0.0000 C   0  0  0  0  0  0  0  0  0  0  0  0
    6.0290   -1.0143    0.0000 C   0  0  0  0  0  0  0  0  0  0  0  0
    6.9350    0.5412    0.0000 C   0  0  0  0  0  0  0  0  0  0  0  0
    6.9350   -0.5004    0.0000 C   0  0  0  0  0  0  0  0  0  0  0  0
    4.8059    1.3304    0.0000 H   0  0  0  0  0  0  0  0  0  0  0  0
    3.1909    1.1030    0.0000 H   0  0  0  0  0  0  0  0  0  0  0  0
    2.7924    0.4127    0.0000 H   0  0  0  0  0  0  0  0  0  0  0  0
    3.4030   -1.0996    0.0000 H   0  0  0  0  0  0  0  0  0  0  0  0
    6.0218    1.6750    0.0000 H   0  0  0  0  0  0  0  0  0  0  0  0
    7.4708    0.8533    0.0000 H   0  0  0  0  0  0  0  0  0  0  0  0
    3.7320    2.3304    0.0000 H   0  0  0  0  0  0  0  0  0  0  0  0
    7.4708   -0.8125    0.0000 H   0  0  0  0  0  0  0  0  0  0  0  0
    2.0000   -0.6696    0.0000 H   0  0  0  0  0  0  0  0  0  0  0  0
    6.5507   -2.3304    0.0000 H   0  0  0  0  0  0  0  0  0  0  0  0
  1  5  1  0  0  0  0
  1 21  1  0  0  0  0
  2  7  1  0  0  0  0
  2 23  1  0  0  0  0
  3 10  2  0  0  0  0
  4 12  1  0  0  0  0
  4 24  1  0  0  0  0
  5  6  1  0  0  0  0
  5  8  1  0  0  0  0
  5 15  1  0  0  0  0
  6  7  1  0  0  0  0
  6 16  1  0  0  0  0
  6 17  1  0  0  0  0
  7 10  1  0  0  0  0
  7 18  1  0  0  0  0
  8  9  2  0  0  0  0
  8 11  1  0  0  0  0
  9 10  1  0  0  0  0
  9 12  1  0  0  0  0
 11 13  2  0  0  0  0
 11 19  1  0  0  0  0
 12 14  2  0  0  0  0
 13 14  1  0  0  0  0
 13 20  1  0  0  0  0
 14 22  1  0  0  0  0
M  END
> <PUBCHEM_COMPOUND_CID>
442545

> <PUBCHEM_COMPOUND_CANONICALIZED>
1

> <PUBCHEM_CACTVS_COMPLEXITY>
240

> <PUBCHEM_CACTVS_HBOND_ACCEPTOR>
4

> <PUBCHEM_CACTVS_HBOND_DONOR>
3

> <PUBCHEM_CACTVS_ROTATABLE_BOND>
0

> <PUBCHEM_CACTVS_SUBSKEYS>
AAADccBwOAAAAAAAAAAAAAAAAAAAAAAAAAAwYAAAAAAAAADBAAAAGgAACAAADBSgmAIwBoAAAgCIAqBSAAICAAAkIAAIiAFGCMgINjaCFRKAcUAl4BEImQfK6LSOgAABAAAYAABAAAIQADAAAAAAAAAAAA==

> <PUBCHEM_IUPAC_OPENEYE_NAME>
2,4,8-trihydroxytetralin-1-one

> <PUBCHEM_IUPAC_CAS_NAME>
2,4,8-trihydroxy-3,4-dihydro-2H-naphthalen-1-one

> <PUBCHEM_IUPAC_NAME>
2,4,8-trihydroxy-3,4-dihydro-2H-naphthalen-1-one

> <PUBCHEM_IUPAC_SYSTEMATIC_NAME>
2,4,8-tris(oxidanyl)-3,4-dihydro-2H-naphthalen-1-one

> <PUBCHEM_IUPAC_TRADITIONAL_NAME>
2,4,8-trihydroxytetralin-1-one

> <PUBCHEM_IUPAC_INCHI>
InChI=1S/C10H10O4/c11-6-3-1-2-5-7(12)4-8(13)10(14)9(5)6/h1-3,7-8,11-13H,4H2

> <PUBCHEM_IUPAC_INCHIKEY>
FHAMKLIXDLEUPK-UHFFFAOYSA-N

> <PUBCHEM_XLOGP3_AA>
0.6

> <PUBCHEM_EXACT_MASS>
194.057909

> <PUBCHEM_MOLECULAR_FORMULA>
C10H10O4

> <PUBCHEM_MOLECULAR_WEIGHT>
194.184

> <PUBCHEM_OPENEYE_CAN_SMILES>
C1C(C2=C(C(=CC=C2)O)C(=O)C1O)O

> <PUBCHEM_OPENEYE_ISO_SMILES>
C1C(C2=C(C(=CC=C2)O)C(=O)C1O)O

> <PUBCHEM_CACTVS_TPSA>
77.8

> <PUBCHEM_MONOISOTOPIC_WEIGHT>
194.057909

> <PUBCHEM_TOTAL_CHARGE>
0

> <PUBCHEM_HEAVY_ATOM_COUNT>
14

> <PUBCHEM_ATOM_DEF_STEREO_COUNT>
0

> <PUBCHEM_ATOM_UDEF_STEREO_COUNT>
2

> <PUBCHEM_BOND_DEF_STEREO_COUNT>
0

> <PUBCHEM_BOND_UDEF_STEREO_COUNT>
0

> <PUBCHEM_ISOTOPIC_ATOM_COUNT>
0

> <PUBCHEM_COMPONENT_COUNT>
1

> <PUBCHEM_CACTVS_TAUTO_COUNT>
47

> <PUBCHEM_COORDINATE_TYPE>
1
5
255

> <PUBCHEM_BONDANNOTATIONS>
5  1  3
11  13  8
12  14  8
13  14  8
7  2  3
8  11  8
8  9  8
9  12  8

$$$$

