11054778
  -OEChem-07051213092D

 37 40  0     1  0  0  0  0  0999 V2000
    4.8885    0.7741    0.0000 O   0  0  0  0  0  0  0  0  0  0  0  0
    2.8660   -0.2279    0.0000 O   0  0  0  0  0  0  0  0  0  0  0  0
    7.6534    2.6430    0.0000 O   0  0  0  0  0  0  0  0  0  0  0  0
    7.2255   -2.1307    0.0000 N   0  0  0  0  0  0  0  0  0  0  0  0
    6.2493   -0.1036    0.0000 C   0  0  1  0  0  0  0  0  0  0  0  0
    5.7341    0.8186    0.0000 C   0  0  2  0  0  0  0  0  0  0  0  0
    5.4664   -0.7279    0.0000 C   0  0  0  0  0  0  0  0  0  0  0  0
    7.2255   -0.3264    0.0000 C   0  0  0  0  0  0  0  0  0  0  0  0
    6.1939    1.7082    0.0000 C   0  0  0  0  0  0  0  0  0  0  0  0
    7.2748    0.0222    0.0000 C   0  0  0  0  0  0  0  0  0  0  0  0
    4.5992   -0.2272    0.0000 C   0  0  0  0  0  0  0  0  0  0  0  0
    5.4664   -1.7292    0.0000 C   0  0  0  0  0  0  0  0  0  0  0  0
    7.6600   -1.2286    0.0000 C   0  0  0  0  0  0  0  0  0  0  0  0
    6.2493   -2.3535    0.0000 C   0  0  0  0  0  0  0  0  0  0  0  0
    7.1942    1.7547    0.0000 C   0  0  0  0  0  0  0  0  0  0  0  0
    7.7346    0.9117    0.0000 C   0  0  0  0  0  0  0  0  0  0  0  0
    3.7320   -0.7279    0.0000 C   0  0  0  0  0  0  0  0  0  0  0  0
    4.5992   -2.2299    0.0000 C   0  0  0  0  0  0  0  0  0  0  0  0
    3.7320   -1.7292    0.0000 C   0  0  0  0  0  0  0  0  0  0  0  0
    2.0000   -0.7279    0.0000 C   0  0  0  0  0  0  0  0  0  0  0  0
    5.2732    1.5328    0.0000 H   0  0  0  0  0  0  0  0  0  0  0  0
    7.8300   -0.1884    0.0000 H   0  0  0  0  0  0  0  0  0  0  0  0
    7.2255    0.2936    0.0000 H   0  0  0  0  0  0  0  0  0  0  0  0
    6.2731    2.3231    0.0000 H   0  0  0  0  0  0  0  0  0  0  0  0
    5.6021    1.8929    0.0000 H   0  0  0  0  0  0  0  0  0  0  0  0
    7.6288   -0.4868    0.0000 H   0  0  0  0  0  0  0  0  0  0  0  0
    8.1447   -1.6151    0.0000 H   0  0  0  0  0  0  0  0  0  0  0  0
    8.1447   -0.8420    0.0000 H   0  0  0  0  0  0  0  0  0  0  0  0
    5.7646   -2.7401    0.0000 H   0  0  0  0  0  0  0  0  0  0  0  0
    6.5183   -2.9122    0.0000 H   0  0  0  0  0  0  0  0  0  0  0  0
    7.5748   -2.6430    0.0000 H   0  0  0  0  0  0  0  0  0  0  0  0
    8.3539    0.9405    0.0000 H   0  0  0  0  0  0  0  0  0  0  0  0
    4.5992   -2.8499    0.0000 H   0  0  0  0  0  0  0  0  0  0  0  0
    3.1951   -2.0392    0.0000 H   0  0  0  0  0  0  0  0  0  0  0  0
    1.6900   -0.1909    0.0000 H   0  0  0  0  0  0  0  0  0  0  0  0
    1.4631   -1.0379    0.0000 H   0  0  0  0  0  0  0  0  0  0  0  0
    2.3100   -1.2648    0.0000 H   0  0  0  0  0  0  0  0  0  0  0  0
  1  6  1  0  0  0  0
  1 11  1  0  0  0  0
  2 17  1  0  0  0  0
  2 20  1  0  0  0  0
  3 15  2  0  0  0  0
  4 13  1  0  0  0  0
  4 14  1  0  0  0  0
  4 31  1  0  0  0  0
  5  6  1  0  0  0  0
  5  7  1  0  0  0  0
  5  8  1  6  0  0  0
  5 10  1  0  0  0  0
  6  9  1  0  0  0  0
  6 21  1  6  0  0  0
  7 11  1  0  0  0  0
  7 12  2  0  0  0  0
  8 13  1  0  0  0  0
  8 22  1  0  0  0  0
  8 23  1  0  0  0  0
  9 15  1  0  0  0  0
  9 24  1  0  0  0  0
  9 25  1  0  0  0  0
 10 16  2  0  0  0  0
 10 26  1  0  0  0  0
 11 17  2  0  0  0  0
 12 14  1  0  0  0  0
 12 18  1  0  0  0  0
 13 27  1  0  0  0  0
 13 28  1  0  0  0  0
 14 29  1  0  0  0  0
 14 30  1  0  0  0  0
 15 16  1  0  0  0  0
 16 32  1  0  0  0  0
 17 19  1  0  0  0  0
 18 19  2  0  0  0  0
 18 33  1  0  0  0  0
 19 34  1  0  0  0  0
 20 35  1  0  0  0  0
 20 36  1  0  0  0  0
 20 37  1  0  0  0  0
M  END
> <PUBCHEM_COMPOUND_CID>
11054778

> <PUBCHEM_COMPOUND_CANONICALIZED>
1

> <PUBCHEM_CACTVS_COMPLEXITY>
449

> <PUBCHEM_CACTVS_HBOND_ACCEPTOR>
4

> <PUBCHEM_CACTVS_HBOND_DONOR>
1

> <PUBCHEM_CACTVS_ROTATABLE_BOND>
1

> <PUBCHEM_CACTVS_SUBSKEYS>
AAADceB6MAAAAAAAAAAAAAAAAAAAASAAAAAwQAAABYAAAEixAAAAHgAQAAAADhThmAYyBoLABACIAqBSAACCCAAgIAAIiIEOjMgNJjaEsRuGOCrk8BGKqYe4+P6PoAABAAAYQABAAAIAADCAAAAAAAAAAA==

> <PUBCHEM_IUPAC_INCHI>
InChI=1S/C16H17NO3/c1-19-12-3-2-10-9-17-7-6-16-5-4-11(18)8-13(16)20-15(12)14(10)16/h2-5,13,17H,6-9H2,1H3/t13-,16-/m0/s1

> <PUBCHEM_IUPAC_INCHIKEY>
YDTYNIAJZIKMST-BBRMVZONSA-N

> <PUBCHEM_XLOGP3_AA>
1.3

> <PUBCHEM_EXACT_MASS>
271.120843

> <PUBCHEM_MOLECULAR_FORMULA>
C16H17NO3

> <PUBCHEM_MOLECULAR_WEIGHT>
271.31108

> <PUBCHEM_OPENEYE_CAN_SMILES>
COC1=C2C3=C(CNCCC34C=CC(=O)CC4O2)C=C1

> <PUBCHEM_OPENEYE_ISO_SMILES>
COC1=C2C3=C(CNCC[C@]34C=CC(=O)C[C@@H]4O2)C=C1

> <PUBCHEM_CACTVS_TPSA>
47.6

> <PUBCHEM_MONOISOTOPIC_WEIGHT>
271.120843

> <PUBCHEM_TOTAL_CHARGE>
0

> <PUBCHEM_HEAVY_ATOM_COUNT>
20

> <PUBCHEM_ATOM_DEF_STEREO_COUNT>
2

> <PUBCHEM_ATOM_UDEF_STEREO_COUNT>
0

> <PUBCHEM_BOND_DEF_STEREO_COUNT>
0

> <PUBCHEM_BOND_UDEF_STEREO_COUNT>
0

> <PUBCHEM_ISOTOPIC_ATOM_COUNT>
0

> <PUBCHEM_COMPONENT_COUNT>
1

> <PUBCHEM_CACTVS_TAUTO_COUNT>
2

> <PUBCHEM_COORDINATE_TYPE>
1
5
255

> <PUBCHEM_BONDANNOTATIONS>
11  17  8
12  18  8
17  19  8
18  19  8
5  8  6
6  21  6
7  11  8
7  12  8

$$$$

