17591
  -OEChem-07051212543D

 37 38  0     0  0  0  0  0  0999 V2000
   -0.4488   -2.1708    1.6540 O   0  0  0  0  0  0  0  0  0  0  0  0
   -4.7668    2.0316    0.2407 N   0  0  0  0  0  0  0  0  0  0  0  0
    4.7206    2.0149    0.4656 N   0  0  0  0  0  0  0  0  0  0  0  0
   -0.0091   -1.0109   -0.4663 C   0  0  0  0  0  0  0  0  0  0  0  0
   -1.3074   -0.1804   -0.2726 C   0  0  0  0  0  0  0  0  0  0  0  0
    1.2760   -0.1878   -0.2132 C   0  0  0  0  0  0  0  0  0  0  0  0
   -0.1017   -1.5659   -1.9122 C   0  0  0  0  0  0  0  0  0  0  0  0
    0.0376   -2.2232    0.5210 C   0  0  0  0  0  0  0  0  0  0  0  0
   -1.2507    1.1578   -0.5352 C   0  0  0  0  0  0  0  0  0  0  0  0
    1.4494    0.3671    1.0249 C   0  0  0  0  0  0  0  0  0  0  0  0
   -2.4264   -0.8393    0.1476 C   0  0  0  0  0  0  0  0  0  0  0  0
    2.1696   -0.0607   -1.2411 C   0  0  0  0  0  0  0  0  0  0  0  0
    0.7690   -3.4737    0.0872 C   0  0  0  0  0  0  0  0  0  0  0  0
   -2.4168    1.9034   -0.3621 C   0  0  0  0  0  0  0  0  0  0  0  0
    2.6086    1.1085    1.2534 C   0  0  0  0  0  0  0  0  0  0  0  0
   -3.5926   -0.0938    0.3206 C   0  0  0  0  0  0  0  0  0  0  0  0
    3.3290    0.6806   -1.0127 C   0  0  0  0  0  0  0  0  0  0  0  0
   -3.5878    1.2776    0.0657 C   0  0  0  0  0  0  0  0  0  0  0  0
    3.5485    1.2652    0.2346 C   0  0  0  0  0  0  0  0  0  0  0  0
    0.7508   -2.1926   -2.1964 H   0  0  0  0  0  0  0  0  0  0  0  0
   -0.9925   -2.1968   -2.0332 H   0  0  0  0  0  0  0  0  0  0  0  0
   -0.1885   -0.7624   -2.6551 H   0  0  0  0  0  0  0  0  0  0  0  0
   -0.3679    1.6698   -0.8995 H   0  0  0  0  0  0  0  0  0  0  0  0
    0.7270    0.2579    1.8268 H   0  0  0  0  0  0  0  0  0  0  0  0
   -2.4797   -1.9101    0.3057 H   0  0  0  0  0  0  0  0  0  0  0  0
    2.0502   -0.4845   -2.2292 H   0  0  0  0  0  0  0  0  0  0  0  0
    1.7685   -3.2212   -0.2742 H   0  0  0  0  0  0  0  0  0  0  0  0
    0.8805   -4.1421    0.9466 H   0  0  0  0  0  0  0  0  0  0  0  0
    0.1974   -3.9978   -0.6818 H   0  0  0  0  0  0  0  0  0  0  0  0
   -2.4024    2.9702   -0.5707 H   0  0  0  0  0  0  0  0  0  0  0  0
    2.7677    1.5600    2.2293 H   0  0  0  0  0  0  0  0  0  0  0  0
   -4.5018   -0.5946    0.6437 H   0  0  0  0  0  0  0  0  0  0  0  0
    4.0536    0.7972   -1.8147 H   0  0  0  0  0  0  0  0  0  0  0  0
   -5.6158    1.5786    0.5516 H   0  0  0  0  0  0  0  0  0  0  0  0
   -4.7638    3.0260    0.0568 H   0  0  0  0  0  0  0  0  0  0  0  0
    5.4026    2.1283   -0.2724 H   0  0  0  0  0  0  0  0  0  0  0  0
    4.8805    2.4385    1.3699 H   0  0  0  0  0  0  0  0  0  0  0  0
  1  8  2  0  0  0  0
  2 18  1  0  0  0  0
  2 34  1  0  0  0  0
  2 35  1  0  0  0  0
  3 19  1  0  0  0  0
  3 36  1  0  0  0  0
  3 37  1  0  0  0  0
  4  5  1  0  0  0  0
  4  6  1  0  0  0  0
  4  7  1  0  0  0  0
  4  8  1  0  0  0  0
  5  9  2  0  0  0  0
  5 11  1  0  0  0  0
  6 10  2  0  0  0  0
  6 12  1  0  0  0  0
  7 20  1  0  0  0  0
  7 21  1  0  0  0  0
  7 22  1  0  0  0  0
  8 13  1  0  0  0  0
  9 14  1  0  0  0  0
  9 23  1  0  0  0  0
 10 15  1  0  0  0  0
 10 24  1  0  0  0  0
 11 16  2  0  0  0  0
 11 25  1  0  0  0  0
 12 17  2  0  0  0  0
 12 26  1  0  0  0  0
 13 27  1  0  0  0  0
 13 28  1  0  0  0  0
 13 29  1  0  0  0  0
 14 18  2  0  0  0  0
 14 30  1  0  0  0  0
 15 19  2  0  0  0  0
 15 31  1  0  0  0  0
 16 18  1  0  0  0  0
 16 32  1  0  0  0  0
 17 19  1  0  0  0  0
 17 33  1  0  0  0  0
M  END
> <PUBCHEM_COMPOUND_CID>
17591

> <PUBCHEM_CONFORMER_RMSD>
0.6

> <PUBCHEM_CONFORMER_DIVERSEORDER>
1
9
8
10
5
2
4
7
3
6

> <PUBCHEM_MMFF94_PARTIAL_CHARGES>
30
1 -0.57
10 -0.15
11 -0.15
12 -0.15
13 0.06
14 -0.15
15 -0.15
16 -0.15
17 -0.15
18 0.1
19 0.1
2 -0.9
23 0.15
24 0.15
25 0.15
26 0.15
3 -0.9
30 0.15
31 0.15
32 0.15
33 0.15
34 0.4
35 0.4
36 0.4
37 0.4
4 0.35
5 -0.14
6 -0.14
8 0.45
9 -0.15

> <PUBCHEM_EFFECTIVE_ROTOR_COUNT>
3

> <PUBCHEM_PHARMACOPHORE_FEATURES>
8
1 1 acceptor
1 2 cation
1 2 donor
1 3 cation
1 3 donor
1 7 hydrophobe
6 5 9 11 14 16 18 rings
6 6 10 12 15 17 19 rings

> <PUBCHEM_HEAVY_ATOM_COUNT>
19

> <PUBCHEM_ATOM_DEF_STEREO_COUNT>
0

> <PUBCHEM_ATOM_UDEF_STEREO_COUNT>
0

> <PUBCHEM_BOND_DEF_STEREO_COUNT>
0

> <PUBCHEM_BOND_UDEF_STEREO_COUNT>
0

> <PUBCHEM_ISOTOPIC_ATOM_COUNT>
0

> <PUBCHEM_COMPONENT_COUNT>
1

> <PUBCHEM_CACTVS_TAUTO_COUNT>
2

> <PUBCHEM_CONFORMER_ID>
000044B700000001

> <PUBCHEM_MMFF94_ENERGY>
92.1386

> <PUBCHEM_FEATURE_SELFOVERLAP>
40.594

> <PUBCHEM_SHAPE_FINGERPRINT>
10498660 4 18409450310444551445
10922049 32 18408880733087053822
10948715 1 18408885122575246310
11132069 177 18272929419084961165
12173636 292 18268996371534488590
122479 349 18336827477182496076
12532896 13 18336549330773687518
12730499 353 18261100924933517177
12788726 201 17340387243412246466
13134695 92 17545341020849887327
13140716 1 18270965755526127883
13294875 104 18041859405539790658
13464514 151 18118669157119666254
13538477 17 17630326342232073542
13764800 53 18199179607705309058
13878862 14 17765727102306695189
13965767 371 17845942964393548044
14178342 30 18059563712021791219
14223421 5 18199467851946051949
14787075 74 18116154364164596713
14817 1 7089690502579255454
15534591 1 18337962185966854066
15775835 57 18335423469236629321
15906896 17 18194122915053966726
16945 1 18338800000931924031
18186145 218 17676476250947992372
19784866 170 18272081734432997781
19784866 9 18265337381362575410
200 152 5184076959080577420
20510252 161 18336540500183660081
20671657 1 18193274328458241071
21452121 103 18125162881905764761
21524375 3 18334580148155180182
21731228 192 18272374165443577560
21756936 100 18339649919557919536
23227448 37 18050567340047963212
23402539 116 18048043977762394831
23419403 2 17466735620299440103
23558518 356 17901126125804214309
23559900 14 18129085887442579735
25 1 17894344488650378004
2748010 2 17699570552529394253
276578 36 18272370897126478578
298252 57 17676491639789524862
305870 269 18340775917768812642
34934 24 18409453605248190509
350125 39 17981883361126636493
427121 178 18271512195804124179
474 4 18410570699850200989
5104073 3 18127118905013542281
633830 44 18334296491266732540
6442390 28 18338224990789612739
68419 9 17609542385306539967
7364860 26 18122344841814050711
7808743 9 18268427919865857956
81228 2 17832159228939941230
81539 233 18341335599336303525
84936 182 18263078992863479137
9999458 23 18199747114698406086

> <PUBCHEM_SHAPE_MULTIPOLES>
375.18
6.89
2.84
1.27
0.89
1.99
-0.14
-6.75
0.65
-0.05
0.43
-0.57
0.4
0.44

> <PUBCHEM_SHAPE_SELFOVERLAP>
811.385

> <PUBCHEM_SHAPE_VOLUME>
206.5

> <PUBCHEM_COORDINATE_TYPE>
2
5
10

$$$$

