5281715
  -OEChem-07051212593D

 47 48  0     0  0  0  0  0  0999 V2000
    3.5961    2.0995   -0.4470 O   0  0  0  0  0  0  0  0  0  0  0  0
    3.9257   -2.5180    0.6320 O   0  0  0  0  0  0  0  0  0  0  0  0
    0.7451   -3.1173    1.4970 O   0  0  0  0  0  0  0  0  0  0  0  0
    1.0565   -3.7737   -0.6568 O   0  0  0  0  0  0  0  0  0  0  0  0
    1.6244    0.7337   -0.5023 C   0  0  0  0  0  0  0  0  0  0  0  0
    1.0163   -0.5047   -0.3387 C   0  0  0  0  0  0  0  0  0  0  0  0
    0.8137    1.9371   -0.9144 C   0  0  0  0  0  0  0  0  0  0  0  0
    2.9889    0.8896   -0.2897 C   0  0  0  0  0  0  0  0  0  0  0  0
    1.7844   -1.6047    0.0429 C   0  0  0  0  0  0  0  0  0  0  0  0
    3.1546   -1.4576    0.2584 C   0  0  0  0  0  0  0  0  0  0  0  0
    3.7570   -0.2106    0.0921 C   0  0  0  0  0  0  0  0  0  0  0  0
    0.2650    2.6883    0.2659 C   0  0  0  0  0  0  0  0  0  0  0  0
   -0.4191   -0.6541   -0.5656 C   0  0  0  0  0  0  0  0  0  0  0  0
   -0.8801    3.3935    0.3383 C   0  0  0  0  0  0  0  0  0  0  0  0
   -1.3743   -0.4629    0.3696 C   0  0  0  0  0  0  0  0  0  0  0  0
    1.1765   -2.9210    0.2236 C   0  0  0  0  0  0  0  0  0  0  0  0
   -2.8234   -0.5945    0.1365 C   0  0  0  0  0  0  0  0  0  0  0  0
   -1.3734    4.1248    1.5543 C   0  0  0  0  0  0  0  0  0  0  0  0
   -1.7813    3.5079   -0.8626 C   0  0  0  0  0  0  0  0  0  0  0  0
    5.0003    2.1557   -0.2051 C   0  0  0  0  0  0  0  0  0  0  0  0
   -3.2716   -1.3220   -0.9541 C   0  0  0  0  0  0  0  0  0  0  0  0
   -3.7093    0.0119    1.0122 C   0  0  0  0  0  0  0  0  0  0  0  0
   -4.6433   -1.4464   -1.1751 C   0  0  0  0  0  0  0  0  0  0  0  0
   -5.0810   -0.1126    0.7911 C   0  0  0  0  0  0  0  0  0  0  0  0
   -5.5478   -0.8418   -0.3025 C   0  0  0  0  0  0  0  0  0  0  0  0
    1.4442    2.6239   -1.4938 H   0  0  0  0  0  0  0  0  0  0  0  0
    0.0328    1.6305   -1.6172 H   0  0  0  0  0  0  0  0  0  0  0  0
    4.8251   -0.1568    0.2735 H   0  0  0  0  0  0  0  0  0  0  0  0
    0.8834    2.6715    1.1635 H   0  0  0  0  0  0  0  0  0  0  0  0
   -0.6651   -0.9151   -1.5909 H   0  0  0  0  0  0  0  0  0  0  0  0
   -1.0791   -0.1762    1.3770 H   0  0  0  0  0  0  0  0  0  0  0  0
   -0.6936    3.9989    2.4033 H   0  0  0  0  0  0  0  0  0  0  0  0
   -1.4582    5.1967    1.3494 H   0  0  0  0  0  0  0  0  0  0  0  0
   -2.3557    3.7453    1.8537 H   0  0  0  0  0  0  0  0  0  0  0  0
   -1.3074    3.2345   -1.8079 H   0  0  0  0  0  0  0  0  0  0  0  0
   -2.6685    2.8811   -0.7265 H   0  0  0  0  0  0  0  0  0  0  0  0
   -2.1144    4.5452   -0.9817 H   0  0  0  0  0  0  0  0  0  0  0  0
    4.8476   -2.2263    0.7344 H   0  0  0  0  0  0  0  0  0  0  0  0
    5.5584    1.5349   -0.9144 H   0  0  0  0  0  0  0  0  0  0  0  0
    5.2411    1.9216    0.8375 H   0  0  0  0  0  0  0  0  0  0  0  0
    5.3142    3.1907   -0.3767 H   0  0  0  0  0  0  0  0  0  0  0  0
   -2.6054   -1.8278   -1.6457 H   0  0  0  0  0  0  0  0  0  0  0  0
   -3.3606    0.5854    1.8669 H   0  0  0  0  0  0  0  0  0  0  0  0
   -5.0076   -2.0184   -2.0236 H   0  0  0  0  0  0  0  0  0  0  0  0
   -5.7856    0.3587    1.4701 H   0  0  0  0  0  0  0  0  0  0  0  0
    0.3365   -4.0017    1.6123 H   0  0  0  0  0  0  0  0  0  0  0  0
   -6.6159   -0.9396   -0.4739 H   0  0  0  0  0  0  0  0  0  0  0  0
  1  8  1  0  0  0  0
  1 20  1  0  0  0  0
  2 10  1  0  0  0  0
  2 38  1  0  0  0  0
  3 16  1  0  0  0  0
  3 46  1  0  0  0  0
  4 16  2  0  0  0  0
  5  6  1  0  0  0  0
  5  7  1  0  0  0  0
  5  8  2  0  0  0  0
  6  9  2  0  0  0  0
  6 13  1  0  0  0  0
  7 12  1  0  0  0  0
  7 26  1  0  0  0  0
  7 27  1  0  0  0  0
  8 11  1  0  0  0  0
  9 10  1  0  0  0  0
  9 16  1  0  0  0  0
 10 11  2  0  0  0  0
 11 28  1  0  0  0  0
 12 14  2  0  0  0  0
 12 29  1  0  0  0  0
 13 15  2  0  0  0  0
 13 30  1  0  0  0  0
 14 18  1  0  0  0  0
 14 19  1  0  0  0  0
 15 17  1  0  0  0  0
 15 31  1  0  0  0  0
 17 21  2  0  0  0  0
 17 22  1  0  0  0  0
 18 32  1  0  0  0  0
 18 33  1  0  0  0  0
 18 34  1  0  0  0  0
 19 35  1  0  0  0  0
 19 36  1  0  0  0  0
 19 37  1  0  0  0  0
 20 39  1  0  0  0  0
 20 40  1  0  0  0  0
 20 41  1  0  0  0  0
 21 23  1  0  0  0  0
 21 42  1  0  0  0  0
 22 24  2  0  0  0  0
 22 43  1  0  0  0  0
 23 25  2  0  0  0  0
 23 44  1  0  0  0  0
 24 25  1  0  0  0  0
 24 45  1  0  0  0  0
 25 47  1  0  0  0  0
M  END
> <PUBCHEM_COMPOUND_CID>
5281715

> <PUBCHEM_CONFORMER_RMSD>
0.8

> <PUBCHEM_CONFORMER_DIVERSEORDER>
1
12
14
11
7
8
5
13
6
4
10
2
9
15
3

> <PUBCHEM_MMFF94_PARTIAL_CHARGES>
36
1 -0.36
10 0.08
11 -0.15
12 -0.29
13 -0.18
14 -0.28
15 -0.18
16 0.63
17 0.03
18 0.14
19 0.14
2 -0.53
20 0.28
21 -0.15
22 -0.15
23 -0.15
24 -0.15
25 -0.15
28 0.15
29 0.15
3 -0.65
30 0.15
31 0.15
38 0.45
4 -0.57
42 0.15
43 0.15
44 0.15
45 0.15
46 0.5
47 0.15
5 -0.14
6 0.03
7 0.28
8 0.08
9 0.09

> <PUBCHEM_EFFECTIVE_ROTOR_COUNT>
6

> <PUBCHEM_PHARMACOPHORE_FEATURES>
8
1 1 acceptor
1 2 donor
1 3 acceptor
1 4 acceptor
3 14 18 19 hydrophobe
3 3 4 16 anion
6 17 21 22 23 24 25 rings
6 5 6 8 9 10 11 rings

> <PUBCHEM_HEAVY_ATOM_COUNT>
25

> <PUBCHEM_ATOM_DEF_STEREO_COUNT>
0

> <PUBCHEM_ATOM_UDEF_STEREO_COUNT>
0

> <PUBCHEM_BOND_DEF_STEREO_COUNT>
1

> <PUBCHEM_BOND_UDEF_STEREO_COUNT>
0

> <PUBCHEM_ISOTOPIC_ATOM_COUNT>
0

> <PUBCHEM_COMPONENT_COUNT>
1

> <PUBCHEM_CACTVS_TAUTO_COUNT>
4

> <PUBCHEM_CONFORMER_ID>
005097B300000001

> <PUBCHEM_MMFF94_ENERGY>
86.9341

> <PUBCHEM_FEATURE_SELFOVERLAP>
40.652

> <PUBCHEM_SHAPE_FINGERPRINT>
10090160 65 18272652303188585604
10688039 33 18131628994004297581
10906281 52 18047732833515671716
1100329 8 18050004385904991492
11578080 2 17679331742991439785
12236239 1 18041277686284009951
12422481 6 17687712324257057809
12553582 1 18410291424007249423
12788726 201 18336538344511491040
13004483 165 18336833086541679529
13140716 1 18341892957385509930
13583140 156 18340485544543245335
13911987 19 18055620733938017620
13965767 371 17535717992579071633
14178342 30 18050581921714361368
14787075 74 18262515862854331708
14790565 3 18123743162933502668
15439362 3 17832711167252070897
20511986 3 18113626672905584049
20739085 24 18272358798261777572
21421861 104 18198620119527209667
21641784 216 18130772474003318084
23558518 356 18269549619109724616
283562 15 18410290302920902608
345986 75 18269853045495019411
350125 39 18411417350069043596
463206 1 18338517443924277919
474 4 18340486651795364511
5486654 2 18267579114174397572
7164475 11 18338234980867576028
7471813 234 18335996323748463423

> <PUBCHEM_SHAPE_MULTIPOLES>
491.01
9.26
4.85
1.09
5.54
2.53
-0.14
-1.86
0.41
-1.46
-0.91
0.65
0.17
-1.31

> <PUBCHEM_SHAPE_SELFOVERLAP>
1044.643

> <PUBCHEM_SHAPE_VOLUME>
274.4

> <PUBCHEM_COORDINATE_TYPE>
2
5
10

$$$$

