4299
  -OEChem-06261200012D

 37 38  0     0  0  0  0  0  0999 V2000
   11.2135   -2.0773    0.0000 Cl  0  0  0  0  0  0  0  0  0  0  0  0
    7.7331    0.9573    0.0000 S   0  0  0  0  0  0  0  0  0  0  0  0
    7.2331    0.0913    0.0000 O   0  0  0  0  0  0  0  0  0  0  0  0
    8.2331    1.8233    0.0000 O   0  0  0  0  0  0  0  0  0  0  0  0
    6.8671    1.4573    0.0000 N   0  0  0  0  0  0  0  0  0  0  0  0
    2.5369    0.9573    0.0000 N   0  0  0  0  0  0  0  0  0  0  0  0
    5.1350    1.4573    0.0000 C   0  0  0  0  0  0  0  0  0  0  0  0
    6.0010    0.9573    0.0000 C   0  0  0  0  0  0  0  0  0  0  0  0
    4.2690    0.9573    0.0000 C   0  0  0  0  0  0  0  0  0  0  0  0
    8.5991    0.4573    0.0000 C   0  0  0  0  0  0  0  0  0  0  0  0
   10.3312    0.4573    0.0000 C   0  0  0  0  0  0  0  0  0  0  0  0
    9.4651    0.9573    0.0000 C   0  0  0  0  0  0  0  0  0  0  0  0
    3.4030    1.4573    0.0000 C   0  0  0  0  0  0  0  0  0  0  0  0
   10.3312   -0.5427    0.0000 C   0  0  0  0  0  0  0  0  0  0  0  0
    8.5991   -0.5427    0.0000 C   0  0  0  0  0  0  0  0  0  0  0  0
    9.4651   -1.0427    0.0000 C   0  0  0  0  0  0  0  0  0  0  0  0
   11.2251    0.9920    0.0000 C   0  0  0  0  0  0  0  0  0  0  0  0
   11.2251   -1.0774    0.0000 C   0  0  0  0  0  0  0  0  0  0  0  0
   12.1312    0.4781    0.0000 C   0  0  0  0  0  0  0  0  0  0  0  0
   12.1312   -0.5635    0.0000 C   0  0  0  0  0  0  0  0  0  0  0  0
    5.5335    1.9322    0.0000 H   0  0  0  0  0  0  0  0  0  0  0  0
    4.7365    1.9322    0.0000 H   0  0  0  0  0  0  0  0  0  0  0  0
    5.6025    0.4824    0.0000 H   0  0  0  0  0  0  0  0  0  0  0  0
    6.3996    0.4824    0.0000 H   0  0  0  0  0  0  0  0  0  0  0  0
    3.8705    0.4824    0.0000 H   0  0  0  0  0  0  0  0  0  0  0  0
    4.6675    0.4824    0.0000 H   0  0  0  0  0  0  0  0  0  0  0  0
    6.8671    2.0773    0.0000 H   0  0  0  0  0  0  0  0  0  0  0  0
    9.4651    1.5773    0.0000 H   0  0  0  0  0  0  0  0  0  0  0  0
    3.8015    1.9322    0.0000 H   0  0  0  0  0  0  0  0  0  0  0  0
    3.0044    1.9322    0.0000 H   0  0  0  0  0  0  0  0  0  0  0  0
    8.0622   -0.8527    0.0000 H   0  0  0  0  0  0  0  0  0  0  0  0
    9.4651   -1.6627    0.0000 H   0  0  0  0  0  0  0  0  0  0  0  0
   11.2179    1.6119    0.0000 H   0  0  0  0  0  0  0  0  0  0  0  0
   12.6669    0.7902    0.0000 H   0  0  0  0  0  0  0  0  0  0  0  0
   12.6669   -0.8756    0.0000 H   0  0  0  0  0  0  0  0  0  0  0  0
    2.0000    1.2673    0.0000 H   0  0  0  0  0  0  0  0  0  0  0  0
    2.5369    0.3373    0.0000 H   0  0  0  0  0  0  0  0  0  0  0  0
  1 18  1  0  0  0  0
  2  3  2  0  0  0  0
  2  4  2  0  0  0  0
  2  5  1  0  0  0  0
  2 10  1  0  0  0  0
  5  8  1  0  0  0  0
  5 27  1  0  0  0  0
  6 13  1  0  0  0  0
  6 36  1  0  0  0  0
  6 37  1  0  0  0  0
  7  8  1  0  0  0  0
  7  9  1  0  0  0  0
  7 21  1  0  0  0  0
  7 22  1  0  0  0  0
  8 23  1  0  0  0  0
  8 24  1  0  0  0  0
  9 13  1  0  0  0  0
  9 25  1  0  0  0  0
  9 26  1  0  0  0  0
 10 12  2  0  0  0  0
 10 15  1  0  0  0  0
 11 12  1  0  0  0  0
 11 14  2  0  0  0  0
 11 17  1  0  0  0  0
 12 28  1  0  0  0  0
 13 29  1  0  0  0  0
 13 30  1  0  0  0  0
 14 16  1  0  0  0  0
 14 18  1  0  0  0  0
 15 16  2  0  0  0  0
 15 31  1  0  0  0  0
 16 32  1  0  0  0  0
 17 19  2  0  0  0  0
 17 33  1  0  0  0  0
 18 20  2  0  0  0  0
 19 20  1  0  0  0  0
 19 34  1  0  0  0  0
 20 35  1  0  0  0  0
M  END
> <PUBCHEM_COMPOUND_CID>
4299

> <PUBCHEM_COMPOUND_CANONICALIZED>
1

> <PUBCHEM_CACTVS_COMPLEXITY>
397

> <PUBCHEM_CACTVS_HBOND_ACCEPTOR>
4

> <PUBCHEM_CACTVS_HBOND_DONOR>
2

> <PUBCHEM_CACTVS_ROTATABLE_BOND>
6

> <PUBCHEM_CACTVS_SUBSKEYS>
AAADceBzMABEAAAAAAAAAAAAAAAAAAAAAAAwYAAAAAAAAADBUAAAHAYQQAAADALBWCQwAcBAAAKAAiBCAHBCABAgBQAIiJgAAogIICKBkxCAIAAgkAAIiAcAgIAOkAAAoAARAAAgAAFAACIAAAAAAAAAAA==

> <PUBCHEM_IUPAC_OPENEYE_NAME>
N-(4-aminobutyl)-5-chloro-naphthalene-2-sulfonamide

> <PUBCHEM_IUPAC_CAS_NAME>
N-(4-aminobutyl)-5-chloro-2-naphthalenesulfonamide

> <PUBCHEM_IUPAC_NAME>
N-(4-aminobutyl)-5-chloronaphthalene-2-sulfonamide

> <PUBCHEM_IUPAC_SYSTEMATIC_NAME>
N-(4-azanylbutyl)-5-chloranyl-naphthalene-2-sulfonamide

> <PUBCHEM_IUPAC_TRADITIONAL_NAME>
N-(4-aminobutyl)-5-chloro-naphthalene-2-sulfonamide

> <PUBCHEM_IUPAC_INCHI>
InChI=1S/C14H17ClN2O2S/c15-14-5-3-4-11-10-12(6-7-13(11)14)20(18,19)17-9-2-1-8-16/h3-7,10,17H,1-2,8-9,16H2

> <PUBCHEM_IUPAC_INCHIKEY>
JJQKICOADUKSNS-UHFFFAOYSA-N

> <PUBCHEM_XLOGP3_AA>
2.5

> <PUBCHEM_EXACT_MASS>
312.069926

> <PUBCHEM_MOLECULAR_FORMULA>
C14H17ClN2O2S

> <PUBCHEM_MOLECULAR_WEIGHT>
312.81498

> <PUBCHEM_OPENEYE_CAN_SMILES>
C1=CC2=C(C=CC(=C2)S(=O)(=O)NCCCCN)C(=C1)Cl

> <PUBCHEM_OPENEYE_ISO_SMILES>
C1=CC2=C(C=CC(=C2)S(=O)(=O)NCCCCN)C(=C1)Cl

> <PUBCHEM_CACTVS_TPSA>
80.6

> <PUBCHEM_MONOISOTOPIC_WEIGHT>
312.069926

> <PUBCHEM_TOTAL_CHARGE>
0

> <PUBCHEM_HEAVY_ATOM_COUNT>
20

> <PUBCHEM_ATOM_DEF_STEREO_COUNT>
0

> <PUBCHEM_ATOM_UDEF_STEREO_COUNT>
0

> <PUBCHEM_BOND_DEF_STEREO_COUNT>
0

> <PUBCHEM_BOND_UDEF_STEREO_COUNT>
0

> <PUBCHEM_ISOTOPIC_ATOM_COUNT>
0

> <PUBCHEM_COMPONENT_COUNT>
1

> <PUBCHEM_CACTVS_TAUTO_COUNT>
1

> <PUBCHEM_COORDINATE_TYPE>
1
5
255

> <PUBCHEM_BONDANNOTATIONS>
10  12  8
10  15  8
11  12  8
11  14  8
11  17  8
14  16  8
14  18  8
15  16  8
17  19  8
18  20  8
19  20  8

$$$$

