13185
  -OEChem-06261207523D

 44 43  0     0  0  0  0  0  0999 V2000
    9.3562   -0.7087   -0.2389 O   0  0  0  0  0  0  0  0  0  0  0  0
   -9.3441    0.7237   -0.1330 O   0  0  0  0  0  0  0  0  0  0  0  0
    8.3813    1.3348   -0.0745 O   0  0  0  0  0  0  0  0  0  0  0  0
   -8.3881   -1.3398   -0.0411 O   0  0  0  0  0  0  0  0  0  0  0  0
    0.6714    0.3897    0.0794 C   0  0  0  0  0  0  0  0  0  0  0  0
   -0.6590   -0.3680    0.0144 C   0  0  0  0  0  0  0  0  0  0  0  0
    1.9310   -0.4800    0.1311 C   0  0  0  0  0  0  0  0  0  0  0  0
   -1.9198    0.5025    0.0311 C   0  0  0  0  0  0  0  0  0  0  0  0
    3.2292    0.3296    0.1439 C   0  0  0  0  0  0  0  0  0  0  0  0
   -3.2159   -0.3118    0.0440 C   0  0  0  0  0  0  0  0  0  0  0  0
    4.4537   -0.5881    0.1035 C   0  0  0  0  0  0  0  0  0  0  0  0
   -4.4767    0.5582    0.0679 C   0  0  0  0  0  0  0  0  0  0  0  0
    5.7536    0.2220    0.0773 C   0  0  0  0  0  0  0  0  0  0  0  0
   -5.7728   -0.2522    0.0026 C   0  0  0  0  0  0  0  0  0  0  0  0
    6.9950   -0.6674    0.0036 C   0  0  0  0  0  0  0  0  0  0  0  0
   -6.9964    0.6624   -0.0443 C   0  0  0  0  0  0  0  0  0  0  0  0
    8.2854    0.1158   -0.0961 C   0  0  0  0  0  0  0  0  0  0  0  0
   -8.2841   -0.1227   -0.0709 C   0  0  0  0  0  0  0  0  0  0  0  0
    0.7340    1.0536   -0.7921 H   0  0  0  0  0  0  0  0  0  0  0  0
    0.6609    1.0408    0.9627 H   0  0  0  0  0  0  0  0  0  0  0  0
   -0.7017   -1.0619    0.8635 H   0  0  0  0  0  0  0  0  0  0  0  0
   -0.6674   -0.9874   -0.8912 H   0  0  0  0  0  0  0  0  0  0  0  0
    1.8907   -1.1186    1.0221 H   0  0  0  0  0  0  0  0  0  0  0  0
    1.9304   -1.1497   -0.7380 H   0  0  0  0  0  0  0  0  0  0  0  0
   -1.8951    1.1507    0.9157 H   0  0  0  0  0  0  0  0  0  0  0  0
   -1.9112    1.1617   -0.8453 H   0  0  0  0  0  0  0  0  0  0  0  0
    3.2627    0.9566    1.0428 H   0  0  0  0  0  0  0  0  0  0  0  0
    3.2476    1.0027   -0.7217 H   0  0  0  0  0  0  0  0  0  0  0  0
   -3.2403   -0.9571   -0.8428 H   0  0  0  0  0  0  0  0  0  0  0  0
   -3.2208   -0.9742    0.9182 H   0  0  0  0  0  0  0  0  0  0  0  0
    4.4052   -1.2278   -0.7861 H   0  0  0  0  0  0  0  0  0  0  0  0
    4.4501   -1.2489    0.9788 H   0  0  0  0  0  0  0  0  0  0  0  0
   -4.4444    1.2524   -0.7811 H   0  0  0  0  0  0  0  0  0  0  0  0
   -4.4748    1.1707    0.9781 H   0  0  0  0  0  0  0  0  0  0  0  0
    5.8115    0.8554    0.9714 H   0  0  0  0  0  0  0  0  0  0  0  0
    5.7426    0.9010   -0.7848 H   0  0  0  0  0  0  0  0  0  0  0  0
   -5.7619   -0.8971   -0.8849 H   0  0  0  0  0  0  0  0  0  0  0  0
   -5.8342   -0.9158    0.8739 H   0  0  0  0  0  0  0  0  0  0  0  0
    7.0498   -1.2978    0.8980 H   0  0  0  0  0  0  0  0  0  0  0  0
    6.9275   -1.3128   -0.8797 H   0  0  0  0  0  0  0  0  0  0  0  0
   -7.0102    1.3087    0.8404 H   0  0  0  0  0  0  0  0  0  0  0  0
   -6.9568    1.2874   -0.9434 H   0  0  0  0  0  0  0  0  0  0  0  0
   10.1959   -0.2073   -0.3143 H   0  0  0  0  0  0  0  0  0  0  0  0
  -10.1975    0.2403   -0.1512 H   0  0  0  0  0  0  0  0  0  0  0  0
  1 17  1  0  0  0  0
  1 43  1  0  0  0  0
  2 18  1  0  0  0  0
  2 44  1  0  0  0  0
  3 17  2  0  0  0  0
  4 18  2  0  0  0  0
  5  6  1  0  0  0  0
  5  7  1  0  0  0  0
  5 19  1  0  0  0  0
  5 20  1  0  0  0  0
  6  8  1  0  0  0  0
  6 21  1  0  0  0  0
  6 22  1  0  0  0  0
  7  9  1  0  0  0  0
  7 23  1  0  0  0  0
  7 24  1  0  0  0  0
  8 10  1  0  0  0  0
  8 25  1  0  0  0  0
  8 26  1  0  0  0  0
  9 11  1  0  0  0  0
  9 27  1  0  0  0  0
  9 28  1  0  0  0  0
 10 12  1  0  0  0  0
 10 29  1  0  0  0  0
 10 30  1  0  0  0  0
 11 13  1  0  0  0  0
 11 31  1  0  0  0  0
 11 32  1  0  0  0  0
 12 14  1  0  0  0  0
 12 33  1  0  0  0  0
 12 34  1  0  0  0  0
 13 15  1  0  0  0  0
 13 35  1  0  0  0  0
 13 36  1  0  0  0  0
 14 16  1  0  0  0  0
 14 37  1  0  0  0  0
 14 38  1  0  0  0  0
 15 17  1  0  0  0  0
 15 39  1  0  0  0  0
 15 40  1  0  0  0  0
 16 18  1  0  0  0  0
 16 41  1  0  0  0  0
 16 42  1  0  0  0  0
M  END
> <PUBCHEM_COMPOUND_CID>
13185

> <PUBCHEM_CONFORMER_RMSD>
1

> <PUBCHEM_CONFORMER_DIVERSEORDER>
1
172
218
189
164
2
154
68
235
139
47
232
49
103
72
7
178
13
184
166
158
15
222
66
28
94
4
169
5
215
111
83
124
105
185
8
197
88
19
81
175
161
199
22
34
128
60
140
191
43
234
213
101
138
168
85
187
87
48
97
179
141
69
188
70
40
125
41
63
155
98
200
214
89
16
59
144
245
243
231
133
36
65
17
18
211
75
224
242
14
12
209
121
221
201
134
110
153
95
241
54
207
216
147
186
56
122
192
33
159
148
206
39
176
73
102
30
90
129
46
11
64
114
219
182
229
79
10
193
38
177
58
137
37
146
52
21
80
61
112
100
170
157
119
163
77
233
31
162
228
127
123
71
171
113
238
6
44
67
150
120
62
45
24
151
195
29
74
203
152
20
190
183
51
32
136
116
23
237
42
96
115
132
76
174
35
50
149
208
84
9
181
55
194
25
86
156
3
108
226
198
106
145
78
180
99
130
26
196
126
244
240
225
167
142
239
223
109
135
165
160
220
131
118
117
204
27
205
230
93
91
212
227
202
173
104
53
236
92
57
143
82
210
107
217

> <PUBCHEM_MMFF94_PARTIAL_CHARGES>
10
1 -0.65
15 0.06
16 0.06
17 0.66
18 0.66
2 -0.65
3 -0.57
4 -0.57
43 0.5
44 0.5

> <PUBCHEM_EFFECTIVE_ROTOR_COUNT>
13

> <PUBCHEM_PHARMACOPHORE_FEATURES>
6
1 1 acceptor
1 2 acceptor
1 3 acceptor
1 4 acceptor
3 1 3 17 anion
3 2 4 18 anion

> <PUBCHEM_HEAVY_ATOM_COUNT>
18

> <PUBCHEM_ATOM_DEF_STEREO_COUNT>
0

> <PUBCHEM_ATOM_UDEF_STEREO_COUNT>
0

> <PUBCHEM_BOND_DEF_STEREO_COUNT>
0

> <PUBCHEM_BOND_UDEF_STEREO_COUNT>
0

> <PUBCHEM_ISOTOPIC_ATOM_COUNT>
0

> <PUBCHEM_COMPONENT_COUNT>
1

> <PUBCHEM_CACTVS_TAUTO_COUNT>
1

> <PUBCHEM_CONFORMER_ID>
0000338100000001

> <PUBCHEM_MMFF94_ENERGY>
4.144

> <PUBCHEM_FEATURE_SELFOVERLAP>
30.562

> <PUBCHEM_SHAPE_FINGERPRINT>
11315181 36 18334573552198503393
11638347 137 5400807146624656708
14123256 10 18411699893648241382
14251764 18 16081084900361675187
14251764 46 18410855468723377635
15510794 2 18410288120739997103
16120349 18 18202282468843999004
21150785 3 18411699889363817128
21362267 313 17916313903705227632
22224240 67 17489870431964573506
232437 2 18412544323327320106
23521765 1 18335421270176301057
23581129 1 18411982468136566791
246663 6 16370724828945164505
33684 2 18410575093258294762
4325135 7 18413388739250461502
67123 10 18410856555344822284
8209 1 18410856563940031625

> <PUBCHEM_SHAPE_MULTIPOLES>
346.95
35.95
0.95
0.6
0.08
0
0.01
0.08
-2.3
0.01
-0.01
-0.03
0
0.03

> <PUBCHEM_SHAPE_SELFOVERLAP>
642.017

> <PUBCHEM_SHAPE_VOLUME>
217.3

> <PUBCHEM_COORDINATE_TYPE>
2
5
10

$$$$

