439591
  -OEChem-07051212463D

 66 74  0     1  0  0  0  0  0999 V2000
    2.5885    2.5706   -0.3236 O   0  0  0  0  0  0  0  0  0  0  0  0
   -2.5889   -2.5748   -0.3220 O   0  0  0  0  0  0  0  0  0  0  0  0
    5.5939    0.5582    0.2369 O   0  0  0  0  0  0  0  0  0  0  0  0
   -5.5943   -0.5617    0.2371 O   0  0  0  0  0  0  0  0  0  0  0  0
    1.3268    3.0492    1.6237 O   0  0  0  0  0  0  0  0  0  0  0  0
   -1.3209   -2.9767    1.6447 O   0  0  0  0  0  0  0  0  0  0  0  0
   -3.8176    3.2910   -0.0599 O   0  0  0  0  0  0  0  0  0  0  0  0
    3.8174   -3.2948   -0.0570 O   0  0  0  0  0  0  0  0  0  0  0  0
   -1.6459    4.6808   -0.0518 O   0  0  0  0  0  0  0  0  0  0  0  0
    1.6456   -4.6848   -0.0497 O   0  0  0  0  0  0  0  0  0  0  0  0
    0.6052    1.2595    0.1509 C   0  0  0  0  0  0  0  0  0  0  0  0
   -0.6055   -1.2631    0.1516 C   0  0  0  0  0  0  0  0  0  0  0  0
    1.4009    0.1000    0.1397 C   0  0  0  0  0  0  0  0  0  0  0  0
   -1.4012   -0.1038    0.1393 C   0  0  0  0  0  0  0  0  0  0  0  0
   -0.7991    1.1690    0.0986 C   0  0  0  0  0  0  0  0  0  0  0  0
    0.7988   -1.1727    0.0997 C   0  0  0  0  0  0  0  0  0  0  0  0
    1.2727    2.6178    0.2576 C   0  0  2  0  0  0  0  0  0  0  0  0
   -1.2728   -2.6215    0.2591 C   0  0  2  0  0  0  0  0  0  0  0  0
    2.8008    0.2117    0.1425 C   0  0  0  0  0  0  0  0  0  0  0  0
   -2.8011   -0.2154    0.1419 C   0  0  0  0  0  0  0  0  0  0  0  0
    3.4249    1.5789    0.2800 C   0  0  1  0  0  0  0  0  0  0  0  0
   -3.4253   -1.5825    0.2806 C   0  0  1  0  0  0  0  0  0  0  0  0
   -1.6252    2.3037    0.0125 C   0  0  0  0  0  0  0  0  0  0  0  0
    1.6249   -2.3076    0.0144 C   0  0  0  0  0  0  0  0  0  0  0  0
    3.6188   -0.9249    0.0589 C   0  0  0  0  0  0  0  0  0  0  0  0
   -3.6192    0.9211    0.0575 C   0  0  0  0  0  0  0  0  0  0  0  0
    0.4694    3.6723   -0.5075 C   0  0  0  0  0  0  0  0  0  0  0  0
   -0.4695   -3.6763   -0.5054 C   0  0  0  0  0  0  0  0  0  0  0  0
    4.8054    1.5831   -0.3779 C   0  0  1  0  0  0  0  0  0  0  0  0
   -4.8060   -1.5871   -0.3772 C   0  0  1  0  0  0  0  0  0  0  0  0
   -3.0197    2.1849    0.0000 C   0  0  0  0  0  0  0  0  0  0  0  0
    3.0195   -2.1887    0.0020 C   0  0  0  0  0  0  0  0  0  0  0  0
    5.1255   -0.7768   -0.0187 C   0  0  1  0  0  0  0  0  0  0  0  0
   -5.1258    0.7731   -0.0191 C   0  0  1  0  0  0  0  0  0  0  0  0
   -1.0027    3.6411   -0.1494 C   0  0  0  0  0  0  0  0  0  0  0  0
    1.0025   -3.6451   -0.1472 C   0  0  0  0  0  0  0  0  0  0  0  0
    5.5266    2.9097   -0.1630 C   0  0  0  0  0  0  0  0  0  0  0  0
   -5.5269   -2.9135   -0.1615 C   0  0  0  0  0  0  0  0  0  0  0  0
    5.7019   -1.2191   -1.3688 C   0  0  0  0  0  0  0  0  0  0  0  0
   -5.7026    1.2149   -1.3693 C   0  0  0  0  0  0  0  0  0  0  0  0
    3.5352    1.7924    1.3523 H   0  0  0  0  0  0  0  0  0  0  0  0
   -3.5389   -1.7945    1.3527 H   0  0  0  0  0  0  0  0  0  0  0  0
    0.5519    3.5215   -1.5916 H   0  0  0  0  0  0  0  0  0  0  0  0
    0.8577    4.6769   -0.2981 H   0  0  0  0  0  0  0  0  0  0  0  0
   -0.5594   -3.5421   -1.5904 H   0  0  0  0  0  0  0  0  0  0  0  0
   -0.8592   -4.6734   -0.2658 H   0  0  0  0  0  0  0  0  0  0  0  0
    4.7336    1.4139   -1.4596 H   0  0  0  0  0  0  0  0  0  0  0  0
   -4.7343   -1.4183   -1.4590 H   0  0  0  0  0  0  0  0  0  0  0  0
    5.5736   -1.3940    0.7692 H   0  0  0  0  0  0  0  0  0  0  0  0
   -5.5735    1.3906    0.7686 H   0  0  0  0  0  0  0  0  0  0  0  0
    1.4180    4.0163    1.6431 H   0  0  0  0  0  0  0  0  0  0  0  0
   -1.2532   -2.1751    2.1900 H   0  0  0  0  0  0  0  0  0  0  0  0
    4.9870    3.7416   -0.6251 H   0  0  0  0  0  0  0  0  0  0  0  0
    6.5331    2.8675   -0.5934 H   0  0  0  0  0  0  0  0  0  0  0  0
    5.6513    3.1208    0.9048 H   0  0  0  0  0  0  0  0  0  0  0  0
   -4.9873   -3.7457   -0.6232 H   0  0  0  0  0  0  0  0  0  0  0  0
   -5.6515   -3.1240    0.9064 H   0  0  0  0  0  0  0  0  0  0  0  0
   -6.5335   -2.8717   -0.5918 H   0  0  0  0  0  0  0  0  0  0  0  0
    6.7740   -0.9976   -1.4159 H   0  0  0  0  0  0  0  0  0  0  0  0
    5.5701   -2.2898   -1.5471 H   0  0  0  0  0  0  0  0  0  0  0  0
    5.2302   -0.6864   -2.2018 H   0  0  0  0  0  0  0  0  0  0  0  0
   -5.2312    0.6818   -2.2022 H   0  0  0  0  0  0  0  0  0  0  0  0
   -6.7747    0.9935   -1.4159 H   0  0  0  0  0  0  0  0  0  0  0  0
   -5.5707    2.2855   -1.5482 H   0  0  0  0  0  0  0  0  0  0  0  0
   -3.2974    4.1040    0.0192 H   0  0  0  0  0  0  0  0  0  0  0  0
    3.2975   -4.1076    0.0244 H   0  0  0  0  0  0  0  0  0  0  0  0
  1 17  1  0  0  0  0
  1 21  1  0  0  0  0
  2 18  1  0  0  0  0
  2 22  1  0  0  0  0
  3 29  1  0  0  0  0
  3 33  1  0  0  0  0
  4 30  1  0  0  0  0
  4 34  1  0  0  0  0
  5 17  1  0  0  0  0
  5 51  1  0  0  0  0
  6 18  1  0  0  0  0
  6 52  1  0  0  0  0
  7 31  1  0  0  0  0
  7 65  1  0  0  0  0
  8 32  1  0  0  0  0
  8 66  1  0  0  0  0
  9 35  2  0  0  0  0
 10 36  2  0  0  0  0
 11 13  2  0  0  0  0
 11 15  1  0  0  0  0
 11 17  1  0  0  0  0
 12 14  1  0  0  0  0
 12 16  2  0  0  0  0
 12 18  1  0  0  0  0
 13 16  1  0  0  0  0
 13 19  1  0  0  0  0
 14 15  2  0  0  0  0
 14 20  1  0  0  0  0
 15 23  1  0  0  0  0
 16 24  1  0  0  0  0
 17 27  1  0  0  0  0
 18 28  1  0  0  0  0
 19 21  1  0  0  0  0
 19 25  2  0  0  0  0
 20 22  1  0  0  0  0
 20 26  2  0  0  0  0
 21 29  1  0  0  0  0
 21 41  1  0  0  0  0
 22 30  1  0  0  0  0
 22 42  1  0  0  0  0
 23 31  2  0  0  0  0
 23 35  1  0  0  0  0
 24 32  2  0  0  0  0
 24 36  1  0  0  0  0
 25 32  1  0  0  0  0
 25 33  1  0  0  0  0
 26 31  1  0  0  0  0
 26 34  1  0  0  0  0
 27 35  1  0  0  0  0
 27 43  1  0  0  0  0
 27 44  1  0  0  0  0
 28 36  1  0  0  0  0
 28 45  1  0  0  0  0
 28 46  1  0  0  0  0
 29 37  1  0  0  0  0
 29 47  1  0  0  0  0
 30 38  1  0  0  0  0
 30 48  1  0  0  0  0
 33 39  1  0  0  0  0
 33 49  1  0  0  0  0
 34 40  1  0  0  0  0
 34 50  1  0  0  0  0
 37 53  1  0  0  0  0
 37 54  1  0  0  0  0
 37 55  1  0  0  0  0
 38 56  1  0  0  0  0
 38 57  1  0  0  0  0
 38 58  1  0  0  0  0
 39 59  1  0  0  0  0
 39 60  1  0  0  0  0
 39 61  1  0  0  0  0
 40 62  1  0  0  0  0
 40 63  1  0  0  0  0
 40 64  1  0  0  0  0
M  END
> <PUBCHEM_COMPOUND_CID>
439591

> <PUBCHEM_CONFORMER_RMSD>
0.8

> <PUBCHEM_CONFORMER_DIVERSEORDER>
1

> <PUBCHEM_MMFF94_PARTIAL_CHARGES>
36
1 -0.56
10 -0.57
11 -0.14
12 -0.14
17 0.7
18 0.7
19 -0.14
2 -0.56
20 -0.14
21 0.42
22 0.42
23 0.09
24 0.09
25 -0.14
26 -0.14
27 0.06
28 0.06
29 0.28
3 -0.56
30 0.28
31 0.08
32 0.08
33 0.42
34 0.42
35 0.42
36 0.42
4 -0.56
5 -0.68
51 0.4
52 0.4
6 -0.68
65 0.45
66 0.45
7 -0.53
8 -0.53
9 -0.57

> <PUBCHEM_EFFECTIVE_ROTOR_COUNT>
2

> <PUBCHEM_PHARMACOPHORE_FEATURES>
21
1 1 acceptor
1 10 acceptor
1 2 acceptor
1 3 acceptor
1 4 acceptor
1 5 acceptor
1 5 donor
1 6 acceptor
1 6 donor
1 7 donor
1 8 donor
1 9 acceptor
6 1 11 13 17 19 21 rings
6 11 12 13 14 15 16 rings
6 11 15 17 23 27 35 rings
6 12 16 18 24 28 36 rings
6 13 16 19 24 25 32 rings
6 14 15 20 23 26 31 rings
6 2 12 14 18 20 22 rings
6 3 19 21 25 29 33 rings
6 4 20 22 26 30 34 rings

> <PUBCHEM_HEAVY_ATOM_COUNT>
40

> <PUBCHEM_ATOM_DEF_STEREO_COUNT>
8

> <PUBCHEM_ATOM_UDEF_STEREO_COUNT>
0

> <PUBCHEM_BOND_DEF_STEREO_COUNT>
0

> <PUBCHEM_BOND_UDEF_STEREO_COUNT>
0

> <PUBCHEM_ISOTOPIC_ATOM_COUNT>
0

> <PUBCHEM_COMPONENT_COUNT>
1

> <PUBCHEM_CACTVS_TAUTO_COUNT>
53

> <PUBCHEM_CONFORMER_ID>
0006B52700000001

> <PUBCHEM_MMFF94_ENERGY>
134.0697

> <PUBCHEM_FEATURE_SELFOVERLAP>
107.036

> <PUBCHEM_SHAPE_FINGERPRINT>
10675989 125 18340772661998732584
1100329 8 17906170650792296478
11136131 41 18343031012418987770
11513181 2 17899139587645046383
11578080 2 17058102240369936191
13140716 1 17978228253420159312
13402501 40 18410856542459920384
1361 2 18338518525865607603
13811026 1 18410864239046596087
14394314 77 18337384951053290761
144659 178 18341887442457468132
14790565 3 18410288103839501336
15001296 14 18341615944879202480
15320467 1 18410573963676614726
15927050 60 18192995035789517277
15968369 153 18188498973454704682
16067689 134 17686323670339764400
16112460 7 18262220167119273545
16114785 44 15369267334903362192
19591789 44 18410293575405952569
19611394 137 17914322481910443315
19930381 70 18411421709086205251
20028762 73 18116153272953214855
20764821 26 18411419479533747364
20775438 99 16095760860090923959
21279426 13 18410855455833194861
22311459 1 18338517555054941688
23559900 14 18409738335335818985
3178227 256 18196077860224802499
335352 9 18410856555344822669
338550 245 18341610365510950452
350125 39 18337952286230773721
3882209 13 17046583872311078507
463206 1 18267582412075667189
484989 97 18410847751284630558
5265222 85 17980188687591789556
5776283 40 18050559648173115944
6004065 56 18121227485050866487

> <PUBCHEM_SHAPE_MULTIPOLES>
764.49
11.55
5.87
0.84
0.01
0.02
-0.02
-0.01
2.32
-0.01
0.04
0
0
0.61

> <PUBCHEM_SHAPE_SELFOVERLAP>
1792.848

> <PUBCHEM_SHAPE_VOLUME>
379.5

> <PUBCHEM_COORDINATE_TYPE>
2
5
10

$$$$

