442186
  -OEChem-07051212573D

 35 36  0     1  0  0  0  0  0999 V2000
   -2.7115    1.6780    0.5922 O   0  0  0  0  0  0  0  0  0  0  0  0
   -3.2414   -0.9918    0.0371 O   0  0  0  0  0  0  0  0  0  0  0  0
    3.1711   -0.1103   -0.1716 N   0  0  2  0  0  0  0  0  0  0  0  0
    2.1390    0.9123    0.1502 C   0  0  2  0  0  0  0  0  0  0  0  0
    0.6986    0.3943    0.1214 C   0  0  0  0  0  0  0  0  0  0  0  0
    2.8214   -1.4380    0.3467 C   0  0  0  0  0  0  0  0  0  0  0  0
    1.5455   -1.9333   -0.3264 C   0  0  0  0  0  0  0  0  0  0  0  0
    0.4200   -0.9643   -0.1078 C   0  0  0  0  0  0  0  0  0  0  0  0
    2.2897    2.0756   -0.8491 C   0  0  0  0  0  0  0  0  0  0  0  0
   -0.3761    1.2635    0.3782 C   0  0  0  0  0  0  0  0  0  0  0  0
    4.4929    0.2726    0.3397 C   0  0  0  0  0  0  0  0  0  0  0  0
   -0.9072   -1.4154   -0.1514 C   0  0  0  0  0  0  0  0  0  0  0  0
   -1.6942    0.8049    0.3495 C   0  0  0  0  0  0  0  0  0  0  0  0
   -1.9602   -0.5323    0.0752 C   0  0  0  0  0  0  0  0  0  0  0  0
   -3.2617    2.3608   -0.5327 C   0  0  0  0  0  0  0  0  0  0  0  0
   -3.4258   -2.3766   -0.2512 C   0  0  0  0  0  0  0  0  0  0  0  0
    2.3064    1.2838    1.1709 H   0  0  0  0  0  0  0  0  0  0  0  0
    2.7007   -1.4150    1.4384 H   0  0  0  0  0  0  0  0  0  0  0  0
    3.6194   -2.1564    0.1211 H   0  0  0  0  0  0  0  0  0  0  0  0
    1.2873   -2.9133    0.0922 H   0  0  0  0  0  0  0  0  0  0  0  0
    1.7025   -2.0604   -1.4046 H   0  0  0  0  0  0  0  0  0  0  0  0
    1.5983    2.8958   -0.6298 H   0  0  0  0  0  0  0  0  0  0  0  0
    3.2921    2.5132   -0.8275 H   0  0  0  0  0  0  0  0  0  0  0  0
    2.0894    1.7440   -1.8752 H   0  0  0  0  0  0  0  0  0  0  0  0
   -0.1895    2.3099    0.6084 H   0  0  0  0  0  0  0  0  0  0  0  0
    4.8391    1.2153   -0.0932 H   0  0  0  0  0  0  0  0  0  0  0  0
    5.2424   -0.4776    0.0618 H   0  0  0  0  0  0  0  0  0  0  0  0
    4.4980    0.3714    1.4313 H   0  0  0  0  0  0  0  0  0  0  0  0
   -1.0497   -2.4713   -0.3573 H   0  0  0  0  0  0  0  0  0  0  0  0
   -2.4980    2.9768   -1.0181 H   0  0  0  0  0  0  0  0  0  0  0  0
   -4.0643    3.0134   -0.1785 H   0  0  0  0  0  0  0  0  0  0  0  0
   -3.6810    1.6477   -1.2494 H   0  0  0  0  0  0  0  0  0  0  0  0
   -4.5045   -2.5649   -0.2490 H   0  0  0  0  0  0  0  0  0  0  0  0
   -2.9913   -3.0123    0.5279 H   0  0  0  0  0  0  0  0  0  0  0  0
   -3.0611   -2.6331   -1.2517 H   0  0  0  0  0  0  0  0  0  0  0  0
  1 13  1  0  0  0  0
  1 15  1  0  0  0  0
  2 14  1  0  0  0  0
  2 16  1  0  0  0  0
  3  4  1  0  0  0  0
  3  6  1  0  0  0  0
  3 11  1  0  0  0  0
  4  5  1  0  0  0  0
  4  9  1  0  0  0  0
  4 17  1  0  0  0  0
  5  8  1  0  0  0  0
  5 10  2  0  0  0  0
  6  7  1  0  0  0  0
  6 18  1  0  0  0  0
  6 19  1  0  0  0  0
  7  8  1  0  0  0  0
  7 20  1  0  0  0  0
  7 21  1  0  0  0  0
  8 12  2  0  0  0  0
  9 22  1  0  0  0  0
  9 23  1  0  0  0  0
  9 24  1  0  0  0  0
 10 13  1  0  0  0  0
 10 25  1  0  0  0  0
 11 26  1  0  0  0  0
 11 27  1  0  0  0  0
 11 28  1  0  0  0  0
 12 14  1  0  0  0  0
 12 29  1  0  0  0  0
 13 14  2  0  0  0  0
 15 30  1  0  0  0  0
 15 31  1  0  0  0  0
 15 32  1  0  0  0  0
 16 33  1  0  0  0  0
 16 34  1  0  0  0  0
 16 35  1  0  0  0  0
M  END
> <PUBCHEM_COMPOUND_CID>
442186

> <PUBCHEM_CONFORMER_RMSD>
0.6

> <PUBCHEM_CONFORMER_DIVERSEORDER>
5
3
7
6
4
1
2

> <PUBCHEM_MMFF94_PARTIAL_CHARGES>
17
1 -0.36
10 -0.15
11 0.27
12 -0.15
13 0.08
14 0.08
15 0.28
16 0.28
2 -0.36
25 0.15
29 0.15
3 -0.81
4 0.41
5 -0.14
6 0.27
7 0.14
8 -0.14

> <PUBCHEM_EFFECTIVE_ROTOR_COUNT>
2.8

> <PUBCHEM_PHARMACOPHORE_FEATURES>
5
1 1 acceptor
1 2 acceptor
1 3 cation
6 3 4 5 6 7 8 rings
6 5 8 10 12 13 14 rings

> <PUBCHEM_HEAVY_ATOM_COUNT>
16

> <PUBCHEM_ATOM_DEF_STEREO_COUNT>
1

> <PUBCHEM_ATOM_UDEF_STEREO_COUNT>
0

> <PUBCHEM_BOND_DEF_STEREO_COUNT>
0

> <PUBCHEM_BOND_UDEF_STEREO_COUNT>
0

> <PUBCHEM_ISOTOPIC_ATOM_COUNT>
0

> <PUBCHEM_COMPONENT_COUNT>
1

> <PUBCHEM_CACTVS_TAUTO_COUNT>
1

> <PUBCHEM_CONFORMER_ID>
0006BF4A00000005

> <PUBCHEM_MMFF94_ENERGY>
61.3204

> <PUBCHEM_FEATURE_SELFOVERLAP>
25.397

> <PUBCHEM_SHAPE_FINGERPRINT>
10062212 137 18410864277891452850
10608611 8 18409451401017675712
10967382 1 18122061176255884259
11132069 177 18338519750231681464
11680986 33 18190455163296248078
11806522 49 18339082579841849634
12382932 28 18262801886121514640
12500047 106 18337679727237183729
12730499 353 17551515874827843989
13140716 1 18264765639516355051
13380535 21 18263352737046600299
13380535 76 18191028000490835303
14144814 61 18410575102138470810
14178342 30 18339092574209460522
14325111 11 18409165532526616208
14897335 6 18337113487401896241
15196674 1 18409730681898938402
15442244 35 18339644567648750242
15536298 74 18261109725158249142
15775835 57 18341325695152404712
16945 1 18267578014050352578
18186145 218 18190170364009328652
19591789 44 15603691937075711603
200 152 18261403200073177063
20510252 161 18186517683249706240
20559304 39 18338515227620588616
21267235 1 18337944606497322218
21501502 16 18412541015774883465
2334 1 18409164402834094811
23402539 116 18337118856237857407
23402655 69 18117290365892931837
23463225 33 18411698781547110826
23552423 10 18413385440721015130
23557571 272 17967526878593225286
23558518 356 18201154360722215625
23559900 14 18115871970349838154
25610 137 18267861671218758571
2748010 2 18263353840811237847
3312278 4 18334011722150183008
335352 9 18121780801049485478
34934 24 18270405026297346384
350125 39 18338232669869326064
5104073 3 18408888460165801890
69090 78 18267025132107031945
7364860 26 18044091483016879998
74978 22 18339359785393993949
7832392 63 18339078323339173404
9709674 26 18410568474914755818

> <PUBCHEM_SHAPE_MULTIPOLES>
312.55
6.62
2.61
0.73
1.36
0.15
-0.03
0.12
0.02
-1.76
-0.41
0.05
0.15
-0.3

> <PUBCHEM_SHAPE_SELFOVERLAP>
651.214

> <PUBCHEM_SHAPE_VOLUME>
180.3

> <PUBCHEM_COORDINATE_TYPE>
2
5
10

$$$$

