443269
  -OEChem-07051213012D

 44 46  0     0  0  0  0  0  0999 V2000
    2.0000   -0.8100    0.0000 Cl  0  0  0  0  0  0  0  0  0  0  0  0
    6.3301   -0.3100    0.0000 O   0  0  0  0  0  0  0  0  0  0  0  0
   10.6603    1.1900    0.0000 N   0  0  0  0  0  0  0  0  0  0  0  0
    9.7942   -0.3100    0.0000 N   0  0  0  0  0  0  0  0  0  0  0  0
    8.9282    1.1900    0.0000 N   0  0  0  0  0  0  0  0  0  0  0  0
    7.1962    1.1900    0.0000 N   0  0  0  0  0  0  0  0  0  0  0  0
    8.0622   -0.3100    0.0000 N   0  0  0  0  0  0  0  0  0  0  0  0
   11.5263   -0.3100    0.0000 C   0  0  0  0  0  0  0  0  0  0  0  0
   11.5263    0.6900    0.0000 C   0  0  0  0  0  0  0  0  0  0  0  0
   10.6603   -0.8100    0.0000 C   0  0  0  0  0  0  0  0  0  0  0  0
   13.3263    0.7108    0.0000 C   0  0  0  0  0  0  0  0  0  0  0  0
   12.4202    1.2247    0.0000 C   0  0  0  0  0  0  0  0  0  0  0  0
   12.4202   -0.8447    0.0000 C   0  0  0  0  0  0  0  0  0  0  0  0
   13.3263   -0.3308    0.0000 C   0  0  0  0  0  0  0  0  0  0  0  0
    9.7942    0.6900    0.0000 C   0  0  0  0  0  0  0  0  0  0  0  0
   10.6603   -1.8100    0.0000 C   0  0  0  0  0  0  0  0  0  0  0  0
   14.1904    1.2142    0.0000 C   0  0  0  0  0  0  0  0  0  0  0  0
    4.5981    0.6900    0.0000 C   0  0  0  0  0  0  0  0  0  0  0  0
    5.4641    1.1900    0.0000 C   0  0  0  0  0  0  0  0  0  0  0  0
    3.7320    1.1900    0.0000 C   0  0  0  0  0  0  0  0  0  0  0  0
    4.5981   -0.3100    0.0000 C   0  0  0  0  0  0  0  0  0  0  0  0
    8.0622    0.6900    0.0000 C   0  0  0  0  0  0  0  0  0  0  0  0
    6.3301    0.6900    0.0000 C   0  0  0  0  0  0  0  0  0  0  0  0
    2.8660    0.6900    0.0000 C   0  0  0  0  0  0  0  0  0  0  0  0
    3.7320   -0.8100    0.0000 C   0  0  0  0  0  0  0  0  0  0  0  0
    2.8660   -0.3100    0.0000 C   0  0  0  0  0  0  0  0  0  0  0  0
   12.4131    1.8446    0.0000 H   0  0  0  0  0  0  0  0  0  0  0  0
   12.4131   -1.4646    0.0000 H   0  0  0  0  0  0  0  0  0  0  0  0
   13.8620   -0.6429    0.0000 H   0  0  0  0  0  0  0  0  0  0  0  0
   10.0403   -1.8100    0.0000 H   0  0  0  0  0  0  0  0  0  0  0  0
   10.6603   -2.4300    0.0000 H   0  0  0  0  0  0  0  0  0  0  0  0
   11.2803   -1.8100    0.0000 H   0  0  0  0  0  0  0  0  0  0  0  0
   14.5024    0.6784    0.0000 H   0  0  0  0  0  0  0  0  0  0  0  0
   14.7261    1.5262    0.0000 H   0  0  0  0  0  0  0  0  0  0  0  0
   13.8783    1.7499    0.0000 H   0  0  0  0  0  0  0  0  0  0  0  0
    5.8626    1.6650    0.0000 H   0  0  0  0  0  0  0  0  0  0  0  0
    5.0656    1.6650    0.0000 H   0  0  0  0  0  0  0  0  0  0  0  0
    8.9282    1.8100    0.0000 H   0  0  0  0  0  0  0  0  0  0  0  0
    3.7320    1.8100    0.0000 H   0  0  0  0  0  0  0  0  0  0  0  0
    5.1350   -0.6200    0.0000 H   0  0  0  0  0  0  0  0  0  0  0  0
    2.3291    1.0000    0.0000 H   0  0  0  0  0  0  0  0  0  0  0  0
    3.7320   -1.4300    0.0000 H   0  0  0  0  0  0  0  0  0  0  0  0
    7.5252   -0.6200    0.0000 H   0  0  0  0  0  0  0  0  0  0  0  0
    8.5991   -0.6200    0.0000 H   0  0  0  0  0  0  0  0  0  0  0  0
  1 26  1  0  0  0  0
  2 23  2  0  0  0  0
  3  9  2  0  0  0  0
  3 15  1  0  0  0  0
  4 10  1  0  0  0  0
  4 15  2  0  0  0  0
  5 15  1  0  0  0  0
  5 22  1  0  0  0  0
  5 38  1  0  0  0  0
  6 22  2  0  0  0  0
  6 23  1  0  0  0  0
  7 22  1  0  0  0  0
  7 43  1  0  0  0  0
  7 44  1  0  0  0  0
  8  9  1  0  0  0  0
  8 10  2  0  0  0  0
  8 13  1  0  0  0  0
  9 12  1  0  0  0  0
 10 16  1  0  0  0  0
 11 12  2  0  0  0  0
 11 14  1  0  0  0  0
 11 17  1  0  0  0  0
 12 27  1  0  0  0  0
 13 14  2  0  0  0  0
 13 28  1  0  0  0  0
 14 29  1  0  0  0  0
 16 30  1  0  0  0  0
 16 31  1  0  0  0  0
 16 32  1  0  0  0  0
 17 33  1  0  0  0  0
 17 34  1  0  0  0  0
 17 35  1  0  0  0  0
 18 19  1  0  0  0  0
 18 20  2  0  0  0  0
 18 21  1  0  0  0  0
 19 23  1  0  0  0  0
 19 36  1  0  0  0  0
 19 37  1  0  0  0  0
 20 24  1  0  0  0  0
 20 39  1  0  0  0  0
 21 25  2  0  0  0  0
 21 40  1  0  0  0  0
 24 26  2  0  0  0  0
 24 41  1  0  0  0  0
 25 26  1  0  0  0  0
 25 42  1  0  0  0  0
M  END
> <PUBCHEM_COMPOUND_CID>
443269

> <PUBCHEM_COMPOUND_CANONICALIZED>
1

> <PUBCHEM_CACTVS_COMPLEXITY>
520

> <PUBCHEM_CACTVS_HBOND_ACCEPTOR>
3

> <PUBCHEM_CACTVS_HBOND_DONOR>
2

> <PUBCHEM_CACTVS_ROTATABLE_BOND>
4

> <PUBCHEM_CACTVS_SUBSKEYS>
AAADceB7oAAEAAAAAAAAAAAAAAAAAAAAAAA8YIAAAAAAAACx9AAAHgIQAAAADAqBniAz0PbIEACoAyVydACCgCkhB6AJmCEwZpiIKLLB39GEJAhogAJIyCcYiMCORAAAQAACAACIAACAAAQAAAAAAAAAAA==

> <PUBCHEM_IUPAC_OPENEYE_NAME>
N-[amino-[(4,7-dimethylquinazolin-2-yl)amino]methylene]-2-(4-chlorophenyl)acetamide

> <PUBCHEM_IUPAC_CAS_NAME>
N-[amino-[(4,7-dimethyl-2-quinazolinyl)amino]methylidene]-2-(4-chlorophenyl)acetamide

> <PUBCHEM_IUPAC_NAME>
N-[amino-[(4,7-dimethylquinazolin-2-yl)amino]methylidene]-2-(4-chlorophenyl)acetamide

> <PUBCHEM_IUPAC_SYSTEMATIC_NAME>
N-[azanyl-[(4,7-dimethylquinazolin-2-yl)amino]methylidene]-2-(4-chlorophenyl)ethanamide

> <PUBCHEM_IUPAC_TRADITIONAL_NAME>
N-[amino-[(4,7-dimethylquinazolin-2-yl)amino]methylene]-2-(4-chlorophenyl)acetamide

> <PUBCHEM_IUPAC_INCHI>
InChI=1S/C19H18ClN5O/c1-11-3-8-15-12(2)22-19(23-16(15)9-11)25-18(21)24-17(26)10-13-4-6-14(20)7-5-13/h3-9H,10H2,1-2H3,(H3,21,22,23,24,25,26)

> <PUBCHEM_IUPAC_INCHIKEY>
INZNPXHWACTNAT-UHFFFAOYSA-N

> <PUBCHEM_XLOGP3_AA>
4.1

> <PUBCHEM_EXACT_MASS>
367.119988

> <PUBCHEM_MOLECULAR_FORMULA>
C19H18ClN5O

> <PUBCHEM_MOLECULAR_WEIGHT>
367.83212

> <PUBCHEM_OPENEYE_CAN_SMILES>
CC1=CC2=C(C=C1)C(=NC(=N2)NC(=NC(=O)CC3=CC=C(C=C3)Cl)N)C

> <PUBCHEM_OPENEYE_ISO_SMILES>
CC1=CC2=C(C=C1)C(=NC(=N2)NC(=NC(=O)CC3=CC=C(C=C3)Cl)N)C

> <PUBCHEM_CACTVS_TPSA>
93.3

> <PUBCHEM_MONOISOTOPIC_WEIGHT>
367.119988

> <PUBCHEM_TOTAL_CHARGE>
0

> <PUBCHEM_HEAVY_ATOM_COUNT>
26

> <PUBCHEM_ATOM_DEF_STEREO_COUNT>
0

> <PUBCHEM_ATOM_UDEF_STEREO_COUNT>
0

> <PUBCHEM_BOND_DEF_STEREO_COUNT>
0

> <PUBCHEM_BOND_UDEF_STEREO_COUNT>
0

> <PUBCHEM_ISOTOPIC_ATOM_COUNT>
0

> <PUBCHEM_COMPONENT_COUNT>
1

> <PUBCHEM_CACTVS_TAUTO_COUNT>
94

> <PUBCHEM_COORDINATE_TYPE>
1
5
255

> <PUBCHEM_BONDANNOTATIONS>
11  12  8
11  14  8
13  14  8
18  20  8
18  21  8
20  24  8
21  25  8
24  26  8
25  26  8
3  15  8
3  9  8
4  10  8
4  15  8
8  10  8
8  13  8
8  9  8
9  12  8

$$$$

