17396068
  -OEChem-06241222543D

 54 57  0     1  0  0  0  0  0999 V2000
   -1.2899   -1.0564    0.4730 S   0  0  0  0  0  0  0  0  0  0  0  0
    5.7458   -0.3809    0.8048 O   0  0  0  0  0  0  0  0  0  0  0  0
    1.6790   -1.6305    1.9026 O   0  0  0  0  0  0  0  0  0  0  0  0
    1.8302    3.3253   -0.3473 O   0  0  0  0  0  0  0  0  0  0  0  0
   -5.2102    4.1160   -0.1513 O   0  0  0  0  0  0  0  0  0  0  0  0
    1.9259   -1.7365   -0.3962 N   0  0  0  0  0  0  0  0  0  0  0  0
   -4.0382   -1.2913    0.1673 N   0  0  0  0  0  0  0  0  0  0  0  0
   -3.0294   -3.2023    0.3474 N   0  0  0  0  0  0  0  0  0  0  0  0
   -5.0095   -2.2114    0.0877 N   0  0  0  0  0  0  0  0  0  0  0  0
   -4.3865   -3.3783    0.1980 N   0  0  0  0  0  0  0  0  0  0  0  0
    3.3376   -1.3374   -0.4292 C   0  0  1  0  0  0  0  0  0  0  0  0
    3.7856   -1.6835   -1.8550 C   0  0  0  0  0  0  0  0  0  0  0  0
    2.5105   -1.5440   -2.6800 C   0  0  0  0  0  0  0  0  0  0  0  0
    1.4307   -2.0483   -1.7351 C   0  0  0  0  0  0  0  0  0  0  0  0
    3.5771    0.1212   -0.0845 C   0  0  0  0  0  0  0  0  0  0  0  0
    1.2274   -1.9053    0.7896 C   0  0  0  0  0  0  0  0  0  0  0  0
    4.7704    0.5251    0.5144 C   0  0  0  0  0  0  0  0  0  0  0  0
    2.5889    1.0620   -0.3742 C   0  0  0  0  0  0  0  0  0  0  0  0
   -0.1702   -2.4530    0.6486 C   0  0  0  0  0  0  0  0  0  0  0  0
    2.7941    2.4067   -0.0653 C   0  0  0  0  0  0  0  0  0  0  0  0
    4.9756    1.8697    0.8234 C   0  0  0  0  0  0  0  0  0  0  0  0
    3.9874    2.8105    0.5337 C   0  0  0  0  0  0  0  0  0  0  0  0
    6.9331    0.1190    1.4164 C   0  0  0  0  0  0  0  0  0  0  0  0
   -2.8361   -1.9037    0.3252 C   0  0  0  0  0  0  0  0  0  0  0  0
    0.6345    2.8448   -0.9597 C   0  0  0  0  0  0  0  0  0  0  0  0
   -4.3322    0.0662    0.0879 C   0  0  0  0  0  0  0  0  0  0  0  0
   -3.3955    0.9527   -0.4434 C   0  0  0  0  0  0  0  0  0  0  0  0
   -5.5641    0.5406    0.5388 C   0  0  0  0  0  0  0  0  0  0  0  0
   -3.6904    2.3136   -0.5237 C   0  0  0  0  0  0  0  0  0  0  0  0
   -5.8591    1.9015    0.4585 C   0  0  0  0  0  0  0  0  0  0  0  0
   -4.9223    2.7879   -0.0727 C   0  0  0  0  0  0  0  0  0  0  0  0
    3.8621   -1.9658    0.3012 H   0  0  0  0  0  0  0  0  0  0  0  0
    4.6023   -1.0610   -2.2334 H   0  0  0  0  0  0  0  0  0  0  0  0
    4.1157   -2.7296   -1.8897 H   0  0  0  0  0  0  0  0  0  0  0  0
    2.5459   -2.1118   -3.6140 H   0  0  0  0  0  0  0  0  0  0  0  0
    2.3371   -0.4918   -2.9324 H   0  0  0  0  0  0  0  0  0  0  0  0
    0.4632   -1.5782   -1.9257 H   0  0  0  0  0  0  0  0  0  0  0  0
    1.3255   -3.1360   -1.8117 H   0  0  0  0  0  0  0  0  0  0  0  0
    1.6775    0.7197   -0.8477 H   0  0  0  0  0  0  0  0  0  0  0  0
   -0.4095   -3.0093    1.5618 H   0  0  0  0  0  0  0  0  0  0  0  0
   -0.2594   -3.1505   -0.1869 H   0  0  0  0  0  0  0  0  0  0  0  0
    5.8755    2.2568    1.2885 H   0  0  0  0  0  0  0  0  0  0  0  0
    4.1516    3.8569    0.7764 H   0  0  0  0  0  0  0  0  0  0  0  0
    7.4643    0.8149    0.7582 H   0  0  0  0  0  0  0  0  0  0  0  0
    6.7291    0.5497    2.4027 H   0  0  0  0  0  0  0  0  0  0  0  0
    7.5978   -0.7366    1.5756 H   0  0  0  0  0  0  0  0  0  0  0  0
    0.8309    2.4166   -1.9485 H   0  0  0  0  0  0  0  0  0  0  0  0
    0.0967    2.1515   -0.3042 H   0  0  0  0  0  0  0  0  0  0  0  0
   -0.0200    3.7094   -1.1119 H   0  0  0  0  0  0  0  0  0  0  0  0
   -2.4824    0.6475   -0.9373 H   0  0  0  0  0  0  0  0  0  0  0  0
   -6.3104   -0.1241    0.9667 H   0  0  0  0  0  0  0  0  0  0  0  0
   -2.9691    2.9962   -0.9651 H   0  0  0  0  0  0  0  0  0  0  0  0
   -6.8213    2.2591    0.8151 H   0  0  0  0  0  0  0  0  0  0  0  0
   -6.1029    4.2665    0.2046 H   0  0  0  0  0  0  0  0  0  0  0  0
  1 19  1  0  0  0  0
  1 24  1  0  0  0  0
  2 17  1  0  0  0  0
  2 23  1  0  0  0  0
  3 16  2  0  0  0  0
  4 20  1  0  0  0  0
  4 25  1  0  0  0  0
  5 31  1  0  0  0  0
  5 54  1  0  0  0  0
  6 11  1  0  0  0  0
  6 14  1  0  0  0  0
  6 16  1  0  0  0  0
  7  9  1  0  0  0  0
  7 24  1  0  0  0  0
  7 26  1  0  0  0  0
  8 10  1  0  0  0  0
  8 24  2  0  0  0  0
  9 10  2  0  0  0  0
 11 12  1  0  0  0  0
 11 15  1  0  0  0  0
 11 32  1  0  0  0  0
 12 13  1  0  0  0  0
 12 33  1  0  0  0  0
 12 34  1  0  0  0  0
 13 14  1  0  0  0  0
 13 35  1  0  0  0  0
 13 36  1  0  0  0  0
 14 37  1  0  0  0  0
 14 38  1  0  0  0  0
 15 17  2  0  0  0  0
 15 18  1  0  0  0  0
 16 19  1  0  0  0  0
 17 21  1  0  0  0  0
 18 20  2  0  0  0  0
 18 39  1  0  0  0  0
 19 40  1  0  0  0  0
 19 41  1  0  0  0  0
 20 22  1  0  0  0  0
 21 22  2  0  0  0  0
 21 42  1  0  0  0  0
 22 43  1  0  0  0  0
 23 44  1  0  0  0  0
 23 45  1  0  0  0  0
 23 46  1  0  0  0  0
 25 47  1  0  0  0  0
 25 48  1  0  0  0  0
 25 49  1  0  0  0  0
 26 27  2  0  0  0  0
 26 28  1  0  0  0  0
 27 29  1  0  0  0  0
 27 50  1  0  0  0  0
 28 30  2  0  0  0  0
 28 51  1  0  0  0  0
 29 31  2  0  0  0  0
 29 52  1  0  0  0  0
 30 31  1  0  0  0  0
 30 53  1  0  0  0  0
M  END
> <PUBCHEM_COMPOUND_CID>
17396068

> <PUBCHEM_CONFORMER_RMSD>
1.2

> <PUBCHEM_CONFORMER_DIVERSEORDER>
1
244
17
231
279
265
6
223
101
241
107
225
33
198
76
4
147
204
311
297
70
117
18
179
305
171
51
14
172
93
299
197
141
239
134
277
94
90
66
155
214
216
248
103
220
96
160
61
119
15
236
126
212
3
109
192
142
283
164
180
170
264
253
149
34
150
56
199
167
71
246
268
275
211
310
148
184
69
37
92
87
44
79
145
144
195
80
209
189
112
196
301
89
151
174
25
206
293
252
75
146
202
224
218
40
254
121
124
31
125
32
227
273
50
291
77
175
215
73
12
205
237
21
266
136
235
52
307
2
65
255
213
303
36
139
173
247
30
47
60
59
104
163
62
20
208
191
188
161
200
183
137
133
238
272
45
127
300
298
55
287
274
154
116
5
234
63
110
203
83
135
16
138
46
91
162
106
222
296
284
100
226
228
240
285
261
39
128
72
249
256
306
118
108
54
270
57
49
153
230
114
132
120
102
152
259
233
282
7
156
207
9
8
78
74
98
53
182
245
250
48
58
29
22
64
169
295
194
140
221
289
35
11
304
263
27
19
95
99
210
97
26
85
131
243
229
122
28
143
280
278
251
242
81
201
217
177
267
190
129
24
276
10
159
130
68
88
271
176
193
41
281
308
288
232
42
309
158
23
43
115
219
258
269
13
302
262
113
67
123
157
38
292
187
168
186
286
82
105
166
260
185
84
165
86
181
111
294
290
257
178

> <PUBCHEM_MMFF94_PARTIAL_CHARGES>
36
1 -0.29
11 0.44
14 0.3
15 -0.14
16 0.57
17 0.08
18 -0.15
19 0.29
2 -0.36
20 0.08
21 -0.15
22 -0.15
23 0.28
24 0.24
25 0.28
26 -0.02
27 -0.15
28 -0.15
29 -0.15
3 -0.57
30 -0.15
31 0.08
39 0.15
4 -0.36
42 0.15
43 0.15
5 -0.53
50 0.15
51 0.15
52 0.15
53 0.15
54 0.45
6 -0.66
7 0.59
8 -0.34
9 -0.42

> <PUBCHEM_EFFECTIVE_ROTOR_COUNT>
9

> <PUBCHEM_PHARMACOPHORE_FEATURES>
9
1 2 acceptor
1 3 acceptor
1 4 acceptor
1 5 donor
3 7 8 24 cation
5 6 11 12 13 14 rings
5 7 8 9 10 24 rings
6 15 17 18 20 21 22 rings
6 26 27 28 29 30 31 rings

> <PUBCHEM_HEAVY_ATOM_COUNT>
31

> <PUBCHEM_ATOM_DEF_STEREO_COUNT>
0

> <PUBCHEM_ATOM_UDEF_STEREO_COUNT>
1

> <PUBCHEM_BOND_DEF_STEREO_COUNT>
0

> <PUBCHEM_BOND_UDEF_STEREO_COUNT>
0

> <PUBCHEM_ISOTOPIC_ATOM_COUNT>
0

> <PUBCHEM_COMPONENT_COUNT>
1

> <PUBCHEM_CACTVS_TAUTO_COUNT>
2

> <PUBCHEM_CONFORMER_ID>
0109716400000001

> <PUBCHEM_MMFF94_ENERGY>
107.5698

> <PUBCHEM_FEATURE_SELFOVERLAP>
45.669

> <PUBCHEM_SHAPE_FINGERPRINT>
10439779 11 18339369659592756536
10764073 3 18341905138392263838
10864689 126 17980477085738971557
11069576 57 15503491745792606614
11720765 8 17394444045065277382
12107698 1 18268154166807413162
12422481 6 18261405429561831194
12633257 1 18273219689927801748
12925494 130 18125718144422374281
13402501 40 18412545448297723292
14223995 32 18268716189011072692
14251764 38 18268988700438249501
144659 39 17748822995343405141
14466204 15 18342462534562477202
14739800 52 18342186578328962115
15238133 3 18272646832281257694
15320467 1 18339926034131017457
15419008 145 18271821124312251912
20715895 44 18335138730084670139
21197605 99 18337107848004153164
21315763 129 18339080384744400347
22149856 69 16881569914629034675
23227448 37 18410291415675667359
23559900 14 18116426127830465383
2838139 119 18262245434633089906
328310 1195 18186519891100383322
338550 245 18272646822863628725
3388396 114 17107365480310210013
3680242 22 18200312255058638464
4093350 32 17386284423731232253
4144715 1 18341888555186495442
46194498 28 17968642870243261935
5081480 168 17534868013644406598
508706 21 18342170047221008607
6823239 73 18335127735211063564

> <PUBCHEM_SHAPE_MULTIPOLES>
593.43
15.19
4.62
1.42
4.97
1.67
0.66
6.44
-3.75
4.07
0.36
-1.98
-0.82
1.78

> <PUBCHEM_SHAPE_SELFOVERLAP>
1265.227

> <PUBCHEM_SHAPE_VOLUME>
333.1

> <PUBCHEM_COORDINATE_TYPE>
2
5
10

$$$$

