442531
  -OEChem-07051212582D

 44 49  0     1  0  0  0  0  0999 V2000
    7.7850   -0.4875    0.0000 O   0  0  0  0  0  0  0  0  0  0  0  0
    3.3944   -1.9499    0.0000 O   0  0  0  0  0  0  0  0  0  0  0  0
    4.2781    2.5335    0.0000 O   0  0  0  0  0  0  0  0  0  0  0  0
    2.5398   -0.4897    0.0000 O   0  0  0  0  0  0  0  0  0  0  0  0
    8.6610    3.0645    0.0000 O   0  0  0  0  0  0  0  0  0  0  0  0
    6.0090   -0.4806    0.0000 C   0  0  2  0  0  0  0  0  0  0  0  0
    5.9930   -1.5221    0.0000 C   0  0  2  0  0  0  0  0  0  0  0  0
    6.8750    0.0194    0.0000 C   0  0  2  0  0  0  0  0  0  0  0  0
    5.1430    0.0194    0.0000 C   0  0  0  0  0  0  0  0  0  0  0  0
    5.1158   -1.9849    0.0000 C   0  0  0  0  0  0  0  0  0  0  0  0
    6.8910   -2.0499    0.0000 C   0  0  0  0  0  0  0  0  0  0  0  0
    6.8750    1.0194    0.0000 C   0  0  0  0  0  0  0  0  0  0  0  0
    5.1430    1.0194    0.0000 C   0  0  0  0  0  0  0  0  0  0  0  0
    4.2835   -0.4754    0.0000 C   0  0  0  0  0  0  0  0  0  0  0  0
    6.0090    1.5194    0.0000 C   0  0  0  0  0  0  0  0  0  0  0  0
    4.2701   -1.4670    0.0000 C   0  0  0  0  0  0  0  0  0  0  0  0
    7.7931   -1.5291    0.0000 C   0  0  0  0  0  0  0  0  0  0  0  0
    4.2722    1.5336    0.0000 C   0  0  0  0  0  0  0  0  0  0  0  0
    3.4011    0.0185    0.0000 C   0  0  0  0  0  0  0  0  0  0  0  0
    6.8743   -3.1348    0.0000 C   0  0  0  0  0  0  0  0  0  0  0  0
    7.7850    1.5262    0.0000 C   0  0  0  0  0  0  0  0  0  0  0  0
    5.9930    2.5609    0.0000 C   0  0  0  0  0  0  0  0  0  0  0  0
    3.3954    1.0297    0.0000 C   0  0  0  0  0  0  0  0  0  0  0  0
    8.7410   -2.0570    0.0000 C   0  0  0  0  0  0  0  0  0  0  0  0
    7.7931    2.5678    0.0000 C   0  0  0  0  0  0  0  0  0  0  0  0
    7.8097   -3.6845    0.0000 C   0  0  0  0  0  0  0  0  0  0  0  0
    6.8910    3.0886    0.0000 C   0  0  0  0  0  0  0  0  0  0  0  0
    8.7493   -3.1420    0.0000 C   0  0  0  0  0  0  0  0  0  0  0  0
    6.7452   -0.9056    0.0000 H   0  0  0  0  0  0  0  0  0  0  0  0
    5.9735   -2.3719    0.0000 H   0  0  0  0  0  0  0  0  0  0  0  0
    7.6079    0.4500    0.0000 H   0  0  0  0  0  0  0  0  0  0  0  0
    4.7033   -2.4477    0.0000 H   0  0  0  0  0  0  0  0  0  0  0  0
    5.4980   -2.4731    0.0000 H   0  0  0  0  0  0  0  0  0  0  0  0
    6.3338   -3.4385    0.0000 H   0  0  0  0  0  0  0  0  0  0  0  0
    8.3184    1.2100    0.0000 H   0  0  0  0  0  0  0  0  0  0  0  0
    5.4525    2.8646    0.0000 H   0  0  0  0  0  0  0  0  0  0  0  0
    2.8579    1.3388    0.0000 H   0  0  0  0  0  0  0  0  0  0  0  0
    9.2743   -1.7408    0.0000 H   0  0  0  0  0  0  0  0  0  0  0  0
    7.8073   -4.3045    0.0000 H   0  0  0  0  0  0  0  0  0  0  0  0
    6.8886    3.7086    0.0000 H   0  0  0  0  0  0  0  0  0  0  0  0
    9.2875   -3.4499    0.0000 H   0  0  0  0  0  0  0  0  0  0  0  0
    3.7430    2.8467    0.0000 H   0  0  0  0  0  0  0  0  0  0  0  0
    2.0000   -0.1848    0.0000 H   0  0  0  0  0  0  0  0  0  0  0  0
    8.6634    3.6845    0.0000 H   0  0  0  0  0  0  0  0  0  0  0  0
  1  8  1  0  0  0  0
  1 17  1  0  0  0  0
  2 16  2  0  0  0  0
  3 18  1  0  0  0  0
  3 42  1  0  0  0  0
  4 19  1  0  0  0  0
  4 43  1  0  0  0  0
  5 25  1  0  0  0  0
  5 44  1  0  0  0  0
  6  7  1  0  0  0  0
  6  8  1  0  0  0  0
  6  9  1  0  0  0  0
  6 29  1  6  0  0  0
  7 10  1  0  0  0  0
  7 11  1  0  0  0  0
  7 30  1  6  0  0  0
  8 12  1  0  0  0  0
  8 31  1  1  0  0  0
  9 13  2  0  0  0  0
  9 14  1  0  0  0  0
 10 16  1  0  0  0  0
 10 32  1  0  0  0  0
 10 33  1  0  0  0  0
 11 17  1  0  0  0  0
 11 20  2  0  0  0  0
 12 15  2  0  0  0  0
 12 21  1  0  0  0  0
 13 15  1  0  0  0  0
 13 18  1  0  0  0  0
 14 16  1  0  0  0  0
 14 19  2  0  0  0  0
 15 22  1  0  0  0  0
 17 24  2  0  0  0  0
 18 23  2  0  0  0  0
 19 23  1  0  0  0  0
 20 26  1  0  0  0  0
 20 34  1  0  0  0  0
 21 25  2  0  0  0  0
 21 35  1  0  0  0  0
 22 27  2  0  0  0  0
 22 36  1  0  0  0  0
 23 37  1  0  0  0  0
 24 28  1  0  0  0  0
 24 38  1  0  0  0  0
 25 27  1  0  0  0  0
 26 28  2  0  0  0  0
 26 39  1  0  0  0  0
 27 40  1  0  0  0  0
 28 41  1  0  0  0  0
M  END
> <PUBCHEM_COMPOUND_CID>
442531

> <PUBCHEM_COMPOUND_CANONICALIZED>
1

> <PUBCHEM_CACTVS_COMPLEXITY>
651

> <PUBCHEM_CACTVS_HBOND_ACCEPTOR>
5

> <PUBCHEM_CACTVS_HBOND_DONOR>
3

> <PUBCHEM_CACTVS_ROTATABLE_BOND>
0

> <PUBCHEM_CACTVS_SUBSKEYS>
AAADceB4OAAAAAAAAAAAAAAAAAAAAAAAAAA0YMGDAAAAAADRUAAAGgAACAAADRSgmAIwBoAABgCIAqBSAAACCAAkIAAIiAEGCMgMJzaGNRqCeWCl4BUIuQfI7PzOoAADCAAYAADAAAYQADAAAAAAAAAAAA==

> <PUBCHEM_IUPAC_INCHI>
InChI=1S/C23H16O5/c24-10-5-6-12-14(7-10)23-20-13(11-3-1-2-4-18(11)28-23)8-15(25)21-17(27)9-16(26)19(12)22(20)21/h1-7,9,13,20,23-24,26-27H,8H2/t13-,20+,23+/m1/s1

> <PUBCHEM_IUPAC_INCHIKEY>
DBGJQYIYUBGFLT-GQIHDASDSA-N

> <PUBCHEM_XLOGP3_AA>
3.7

> <PUBCHEM_EXACT_MASS>
372.099774

> <PUBCHEM_MOLECULAR_FORMULA>
C23H16O5

> <PUBCHEM_MOLECULAR_WEIGHT>
372.37014

> <PUBCHEM_OPENEYE_CAN_SMILES>
C1C2C3C(C4=C(C=CC(=C4)O)C5=C3C(=C(C=C5O)O)C1=O)OC6=CC=CC=C26

> <PUBCHEM_OPENEYE_ISO_SMILES>
C1[C@H]2[C@@H]3[C@H](C4=C(C=CC(=C4)O)C5=C3C(=C(C=C5O)O)C1=O)OC6=CC=CC=C26

> <PUBCHEM_CACTVS_TPSA>
87

> <PUBCHEM_MONOISOTOPIC_WEIGHT>
372.099774

> <PUBCHEM_TOTAL_CHARGE>
0

> <PUBCHEM_HEAVY_ATOM_COUNT>
28

> <PUBCHEM_ATOM_DEF_STEREO_COUNT>
3

> <PUBCHEM_ATOM_UDEF_STEREO_COUNT>
0

> <PUBCHEM_BOND_DEF_STEREO_COUNT>
0

> <PUBCHEM_BOND_UDEF_STEREO_COUNT>
0

> <PUBCHEM_ISOTOPIC_ATOM_COUNT>
0

> <PUBCHEM_COMPONENT_COUNT>
1

> <PUBCHEM_CACTVS_TAUTO_COUNT>
215

> <PUBCHEM_COORDINATE_TYPE>
1
5
255

> <PUBCHEM_BONDANNOTATIONS>
11  17  8
11  20  8
12  15  8
12  21  8
13  18  8
14  19  8
15  22  8
17  24  8
18  23  8
19  23  8
20  26  8
21  25  8
22  27  8
24  28  8
25  27  8
26  28  8
6  29  6
7  30  6
8  31  5
9  13  8
9  14  8

$$$$

