5281107
  -OEChem-07051212543D

 74 76  0     1  0  0  0  0  0999 V2000
   -8.2735   -0.0020    1.0685 O   0  0  0  0  0  0  0  0  0  0  0  0
   -4.6181   -2.1991    1.7144 O   0  0  0  0  0  0  0  0  0  0  0  0
    0.9166    1.4106    0.0394 C   0  0  2  0  0  0  0  0  0  0  0  0
    2.2801    0.8903   -0.4772 C   0  0  2  0  0  0  0  0  0  0  0  0
   -0.0026    0.8821   -1.0896 C   0  0  1  0  0  0  0  0  0  0  0  0
    1.9639   -0.5300   -0.9997 C   0  0  0  0  0  0  0  0  0  0  0  0
    0.4461   -0.5709   -1.2572 C   0  0  0  0  0  0  0  0  0  0  0  0
    0.7990    2.9476    0.0853 C   0  0  0  0  0  0  0  0  0  0  0  0
    3.4345    0.9139    0.5142 C   0  0  2  0  0  0  0  0  0  0  0  0
   -1.4388    1.2609   -0.8488 C   0  0  0  0  0  0  0  0  0  0  0  0
    0.5762    0.8210    1.4323 C   0  0  0  0  0  0  0  0  0  0  0  0
   -0.6593    3.4015    0.2782 C   0  0  0  0  0  0  0  0  0  0  0  0
   -1.6341    2.7580   -0.7214 C   0  0  0  0  0  0  0  0  0  0  0  0
    3.7065    2.3398    0.9996 C   0  0  0  0  0  0  0  0  0  0  0  0
    4.6796    0.3374   -0.1154 C   0  0  0  0  0  0  0  0  0  0  0  0
   -2.4593    0.3970   -0.7585 C   0  0  0  0  0  0  0  0  0  0  0  0
    5.3170   -0.7482    0.3492 C   0  0  0  0  0  0  0  0  0  0  0  0
   -3.8236    0.8058   -0.5343 C   0  0  0  0  0  0  0  0  0  0  0  0
    6.5571   -1.3341   -0.2900 C   0  0  1  0  0  0  0  0  0  0  0  0
   -4.8463   -0.0591   -0.4437 C   0  0  0  0  0  0  0  0  0  0  0  0
    7.7593   -1.3279    0.6968 C   0  0  0  0  0  0  0  0  0  0  0  0
   -6.2554    0.4011   -0.1657 C   0  0  0  0  0  0  0  0  0  0  0  0
    6.2148   -2.7427   -0.7892 C   0  0  0  0  0  0  0  0  0  0  0  0
   -4.6772   -1.5056   -0.5640 C   0  0  0  0  0  0  0  0  0  0  0  0
   -6.9041   -0.3818    0.9781 C   0  0  2  0  0  0  0  0  0  0  0  0
   -5.3587   -2.3345    0.5005 C   0  0  2  0  0  0  0  0  0  0  0  0
   -6.8072   -1.8914    0.7308 C   0  0  0  0  0  0  0  0  0  0  0  0
    8.1033    0.0855    1.1820 C   0  0  0  0  0  0  0  0  0  0  0  0
    9.0140   -1.9497    0.0658 C   0  0  0  0  0  0  0  0  0  0  0  0
   -4.0098   -2.0754   -1.5806 C   0  0  0  0  0  0  0  0  0  0  0  0
    2.5650    1.4937   -1.3540 H   0  0  0  0  0  0  0  0  0  0  0  0
    0.2737    1.3857   -2.0315 H   0  0  0  0  0  0  0  0  0  0  0  0
    2.2300   -1.3105   -0.2775 H   0  0  0  0  0  0  0  0  0  0  0  0
    2.5182   -0.7337   -1.9230 H   0  0  0  0  0  0  0  0  0  0  0  0
    0.2187   -0.9549   -2.2572 H   0  0  0  0  0  0  0  0  0  0  0  0
   -0.0304   -1.2390   -0.5313 H   0  0  0  0  0  0  0  0  0  0  0  0
    1.1801    3.3820   -0.8478 H   0  0  0  0  0  0  0  0  0  0  0  0
    1.3732    3.3922    0.8984 H   0  0  0  0  0  0  0  0  0  0  0  0
    3.1876    0.3067    1.3943 H   0  0  0  0  0  0  0  0  0  0  0  0
    0.7656   -0.2559    1.4872 H   0  0  0  0  0  0  0  0  0  0  0  0
    1.1680    1.2944    2.2222 H   0  0  0  0  0  0  0  0  0  0  0  0
   -0.4754    0.9670    1.6981 H   0  0  0  0  0  0  0  0  0  0  0  0
   -0.7101    4.4926    0.1787 H   0  0  0  0  0  0  0  0  0  0  0  0
   -0.9851    3.1725    1.3001 H   0  0  0  0  0  0  0  0  0  0  0  0
   -1.4497    3.1978   -1.7112 H   0  0  0  0  0  0  0  0  0  0  0  0
   -2.6319    3.0896   -0.4383 H   0  0  0  0  0  0  0  0  0  0  0  0
    3.6581    3.0734    0.1881 H   0  0  0  0  0  0  0  0  0  0  0  0
    4.7112    2.4132    1.4351 H   0  0  0  0  0  0  0  0  0  0  0  0
    3.0251    2.6276    1.8030 H   0  0  0  0  0  0  0  0  0  0  0  0
    5.0659    0.8434   -0.9975 H   0  0  0  0  0  0  0  0  0  0  0  0
   -2.2056   -0.6520   -0.8035 H   0  0  0  0  0  0  0  0  0  0  0  0
    4.9325   -1.2556    1.2313 H   0  0  0  0  0  0  0  0  0  0  0  0
   -4.0755    1.8523   -0.4296 H   0  0  0  0  0  0  0  0  0  0  0  0
    6.8297   -0.7322   -1.1679 H   0  0  0  0  0  0  0  0  0  0  0  0
    7.4999   -1.9279    1.5796 H   0  0  0  0  0  0  0  0  0  0  0  0
   -6.2941    1.4724    0.0704 H   0  0  0  0  0  0  0  0  0  0  0  0
   -6.8564    0.2862   -1.0783 H   0  0  0  0  0  0  0  0  0  0  0  0
    7.0116   -3.1447   -1.4228 H   0  0  0  0  0  0  0  0  0  0  0  0
    5.3012   -2.7353   -1.3954 H   0  0  0  0  0  0  0  0  0  0  0  0
    6.0587   -3.4364    0.0446 H   0  0  0  0  0  0  0  0  0  0  0  0
   -6.4214   -0.1203    1.9276 H   0  0  0  0  0  0  0  0  0  0  0  0
   -5.3580   -3.3997    0.2410 H   0  0  0  0  0  0  0  0  0  0  0  0
   -7.4288   -2.1635   -0.1324 H   0  0  0  0  0  0  0  0  0  0  0  0
   -7.2305   -2.4186    1.5949 H   0  0  0  0  0  0  0  0  0  0  0  0
    8.9753    0.0682    1.8450 H   0  0  0  0  0  0  0  0  0  0  0  0
    8.3331    0.7473    0.3400 H   0  0  0  0  0  0  0  0  0  0  0  0
    7.2786    0.5283    1.7491 H   0  0  0  0  0  0  0  0  0  0  0  0
    9.2765   -1.4476   -0.8714 H   0  0  0  0  0  0  0  0  0  0  0  0
    9.8710   -1.8694    0.7436 H   0  0  0  0  0  0  0  0  0  0  0  0
    8.8721   -3.0147   -0.1409 H   0  0  0  0  0  0  0  0  0  0  0  0
   -3.9175   -3.1553   -1.6461 H   0  0  0  0  0  0  0  0  0  0  0  0
   -3.5800   -1.5070   -2.3989 H   0  0  0  0  0  0  0  0  0  0  0  0
   -8.6701   -0.5087    1.7977 H   0  0  0  0  0  0  0  0  0  0  0  0
   -3.7149   -2.5188    1.5470 H   0  0  0  0  0  0  0  0  0  0  0  0
  1 25  1  0  0  0  0
  1 73  1  0  0  0  0
  2 26  1  0  0  0  0
  2 74  1  0  0  0  0
  3  4  1  0  0  0  0
  3  5  1  0  0  0  0
  3  8  1  0  0  0  0
  3 11  1  0  0  0  0
  4  6  1  0  0  0  0
  4  9  1  0  0  0  0
  4 31  1  0  0  0  0
  5  7  1  0  0  0  0
  5 10  1  0  0  0  0
  5 32  1  0  0  0  0
  6  7  1  0  0  0  0
  6 33  1  0  0  0  0
  6 34  1  0  0  0  0
  7 35  1  0  0  0  0
  7 36  1  0  0  0  0
  8 12  1  0  0  0  0
  8 37  1  0  0  0  0
  8 38  1  0  0  0  0
  9 14  1  0  0  0  0
  9 15  1  0  0  0  0
  9 39  1  0  0  0  0
 10 13  1  0  0  0  0
 10 16  2  0  0  0  0
 11 40  1  0  0  0  0
 11 41  1  0  0  0  0
 11 42  1  0  0  0  0
 12 13  1  0  0  0  0
 12 43  1  0  0  0  0
 12 44  1  0  0  0  0
 13 45  1  0  0  0  0
 13 46  1  0  0  0  0
 14 47  1  0  0  0  0
 14 48  1  0  0  0  0
 14 49  1  0  0  0  0
 15 17  2  0  0  0  0
 15 50  1  0  0  0  0
 16 18  1  0  0  0  0
 16 51  1  0  0  0  0
 17 19  1  0  0  0  0
 17 52  1  0  0  0  0
 18 20  2  0  0  0  0
 18 53  1  0  0  0  0
 19 21  1  0  0  0  0
 19 23  1  0  0  0  0
 19 54  1  0  0  0  0
 20 22  1  0  0  0  0
 20 24  1  0  0  0  0
 21 28  1  0  0  0  0
 21 29  1  0  0  0  0
 21 55  1  0  0  0  0
 22 25  1  0  0  0  0
 22 56  1  0  0  0  0
 22 57  1  0  0  0  0
 23 58  1  0  0  0  0
 23 59  1  0  0  0  0
 23 60  1  0  0  0  0
 24 26  1  0  0  0  0
 24 30  2  0  0  0  0
 25 27  1  0  0  0  0
 25 61  1  0  0  0  0
 26 27  1  0  0  0  0
 26 62  1  0  0  0  0
 27 63  1  0  0  0  0
 27 64  1  0  0  0  0
 28 65  1  0  0  0  0
 28 66  1  0  0  0  0
 28 67  1  0  0  0  0
 29 68  1  0  0  0  0
 29 69  1  0  0  0  0
 29 70  1  0  0  0  0
 30 71  1  0  0  0  0
 30 72  1  0  0  0  0
M  END
> <PUBCHEM_COMPOUND_CID>
5281107

> <PUBCHEM_CONFORMER_RMSD>
0.8

> <PUBCHEM_CONFORMER_DIVERSEORDER>
1
30
8
31
18
28
11
32
33
26
15
24
34
13
16
6
7
21
19
25
4
5
10
20
29
2
9
12
17
27
22
14
3
23

> <PUBCHEM_MMFF94_PARTIAL_CHARGES>
25
1 -0.68
10 -0.28
13 0.14
15 -0.29
16 -0.15
17 -0.29
18 -0.15
19 0.14
2 -0.68
20 -0.14
22 0.14
24 -0.14
25 0.28
26 0.42
30 -0.3
5 0.14
50 0.15
51 0.15
52 0.15
53 0.15
71 0.15
72 0.15
73 0.4
74 0.4
9 0.14

> <PUBCHEM_EFFECTIVE_ROTOR_COUNT>
7

> <PUBCHEM_PHARMACOPHORE_FEATURES>
10
1 1 acceptor
1 1 donor
1 14 hydrophobe
1 2 acceptor
1 2 donor
1 23 hydrophobe
3 21 28 29 hydrophobe
5 3 4 5 6 7 rings
6 20 22 24 25 26 27 rings
6 3 5 8 10 12 13 rings

> <PUBCHEM_HEAVY_ATOM_COUNT>
30

> <PUBCHEM_ATOM_DEF_STEREO_COUNT>
7

> <PUBCHEM_ATOM_UDEF_STEREO_COUNT>
0

> <PUBCHEM_BOND_DEF_STEREO_COUNT>
3

> <PUBCHEM_BOND_UDEF_STEREO_COUNT>
0

> <PUBCHEM_ISOTOPIC_ATOM_COUNT>
0

> <PUBCHEM_COMPONENT_COUNT>
1

> <PUBCHEM_CACTVS_TAUTO_COUNT>
1

> <PUBCHEM_CONFORMER_ID>
0050955300000001

> <PUBCHEM_MMFF94_ENERGY>
83.8035

> <PUBCHEM_FEATURE_SELFOVERLAP>
50.803

> <PUBCHEM_SHAPE_FINGERPRINT>
10429389 143 4750882490899639043
10674148 151 17917993893269759297
11135609 12 18409728473752972716
11456790 92 17677035882004875483
117089 54 18270113492270767715
12082328 90 14117522068793866799
12166972 35 17703787007501756148
12422481 6 17967537847918639797
13150687 139 10303816510035601376
13530399 1 6482482544711488874
13540713 4 17243567878823113604
13673619 4 18202004326081376028
13685833 64 18408326610124732612
13690498 29 17775574160523821805
13782708 43 18343025506196463110
13911987 19 12679463101422806085
14420673 8 18343017766876548171
14556957 393 14836117823012484190
14675019 173 18060701680660817917
14767858 380 12967133813133739798
15183329 4 10879997969015445798
15352257 5 18343865524179283250
17686467 74 18343027692868021396
18608769 82 18335710442684348798
20105231 36 18040433313911857622
21033650 10 16916791850543236725
21130935 74 18262518070725594995
21150785 3 13902188188081701722
21267235 1 18410575111229675748
21424621 283 6555410920690160836
21781051 124 18335973221663145878
21792934 111 18261118482111743369
22149856 69 18113617911562586984
23522609 53 18124000560249874469
23569917 315 17986104116917943955
23576562 1 10014994553245670714
2747138 104 18334859437853289320
2838139 119 8934707899408776762
3178227 256 18186239528942162886
3383291 50 18272654532651971258
393628 179 11167934733040701718
4107672 100 17418100970419326077
4461854 278 17821449058964647726
465052 167 18334575733519734692
5104073 3 18113621200874961752
54039377 194 18202559579569310679
54583773 228 18343295948051290588
5470011 282 17346596374979918734
5937810 71 10951782893293155887
6327066 14 8790887375869263513
636775 8 18411412952328598502
9896288 288 18190459561411435009
999808 66 18408608080337231262

> <PUBCHEM_SHAPE_MULTIPOLES>
605.65
24
3.2
1.28
17.01
1.02
0.11
-20.4
7.83
0.26
0.05
-0.74
-0.29
1.48

> <PUBCHEM_SHAPE_SELFOVERLAP>
1246.334

> <PUBCHEM_SHAPE_VOLUME>
349

> <PUBCHEM_COORDINATE_TYPE>
2
5
10

$$$$

