472
  -OEChem-07051212452D

 24 24  0     0  0  0  0  0  0999 V2000
    3.4030    0.3450    0.0000 O   0  0  0  0  0  0  0  0  0  0  0  0
    4.2690    1.8450    0.0000 O   0  0  0  0  0  0  0  0  0  0  0  0
    6.0010    2.8450    0.0000 O   0  0  0  0  0  0  0  0  0  0  0  0
    6.8671    1.3450    0.0000 O   0  0  0  0  0  0  0  0  0  0  0  0
    2.5369   -1.1550    0.0000 N   0  0  0  0  0  0  0  0  0  0  0  0
    4.2690   -1.1550    0.0000 C   0  0  0  0  0  0  0  0  0  0  0  0
    4.2690   -0.1550    0.0000 C   0  0  0  0  0  0  0  0  0  0  0  0
    5.1350    0.3450    0.0000 C   0  0  0  0  0  0  0  0  0  0  0  0
    3.4030   -1.6550    0.0000 C   0  0  0  0  0  0  0  0  0  0  0  0
    5.1350   -1.6550    0.0000 C   0  0  0  0  0  0  0  0  0  0  0  0
    3.4030   -2.6550    0.0000 C   0  0  0  0  0  0  0  0  0  0  0  0
    5.1350   -2.6550    0.0000 C   0  0  0  0  0  0  0  0  0  0  0  0
    4.2690   -3.1550    0.0000 C   0  0  0  0  0  0  0  0  0  0  0  0
    5.1350    1.3450    0.0000 C   0  0  0  0  0  0  0  0  0  0  0  0
    6.0010    1.8450    0.0000 C   0  0  0  0  0  0  0  0  0  0  0  0
    5.3471   -0.2376    0.0000 H   0  0  0  0  0  0  0  0  0  0  0  0
    5.7456    0.4527    0.0000 H   0  0  0  0  0  0  0  0  0  0  0  0
    5.6720   -1.3450    0.0000 H   0  0  0  0  0  0  0  0  0  0  0  0
    2.8660   -2.9650    0.0000 H   0  0  0  0  0  0  0  0  0  0  0  0
    5.6720   -2.9650    0.0000 H   0  0  0  0  0  0  0  0  0  0  0  0
    4.2690   -3.7750    0.0000 H   0  0  0  0  0  0  0  0  0  0  0  0
    2.0000   -1.4650    0.0000 H   0  0  0  0  0  0  0  0  0  0  0  0
    2.5369   -0.5350    0.0000 H   0  0  0  0  0  0  0  0  0  0  0  0
    6.5380    3.1550    0.0000 H   0  0  0  0  0  0  0  0  0  0  0  0
  1  7  2  0  0  0  0
  2 14  2  0  0  0  0
  3 15  1  0  0  0  0
  3 24  1  0  0  0  0
  4 15  2  0  0  0  0
  5  9  1  0  0  0  0
  5 22  1  0  0  0  0
  5 23  1  0  0  0  0
  6  7  1  0  0  0  0
  6  9  1  0  0  0  0
  6 10  2  0  0  0  0
  7  8  1  0  0  0  0
  8 14  1  0  0  0  0
  8 16  1  0  0  0  0
  8 17  1  0  0  0  0
  9 11  2  0  0  0  0
 10 12  1  0  0  0  0
 10 18  1  0  0  0  0
 11 13  1  0  0  0  0
 11 19  1  0  0  0  0
 12 13  2  0  0  0  0
 12 20  1  0  0  0  0
 13 21  1  0  0  0  0
 14 15  1  0  0  0  0
M  END
> <PUBCHEM_COMPOUND_CID>
472

> <PUBCHEM_COMPOUND_CANONICALIZED>
1

> <PUBCHEM_CACTVS_COMPLEXITY>
287

> <PUBCHEM_CACTVS_HBOND_ACCEPTOR>
5

> <PUBCHEM_CACTVS_HBOND_DONOR>
2

> <PUBCHEM_CACTVS_ROTATABLE_BOND>
4

> <PUBCHEM_CACTVS_SUBSKEYS>
AAADccByOAAAAAAAAAAAAAAAAAAAAAAAAAAwAAAAAAAAAAABAAAAHgAQCAAADAyBmAAwyIBAAgCIAqTSSAKCAAAkAgAIiAFAZMgIIDqIlZGAYYBkkAAIycebybCeAAAAAAACAAAAAAAAAAQAAAAAAAAAAA==

> <PUBCHEM_IUPAC_OPENEYE_NAME>
4-(2-aminophenyl)-2,4-dioxo-butanoic acid

> <PUBCHEM_IUPAC_CAS_NAME>
4-(2-aminophenyl)-2,4-dioxobutanoic acid

> <PUBCHEM_IUPAC_NAME>
4-(2-aminophenyl)-2,4-dioxobutanoic acid

> <PUBCHEM_IUPAC_SYSTEMATIC_NAME>
4-(2-aminophenyl)-2,4-bis(oxidanylidene)butanoic acid

> <PUBCHEM_IUPAC_TRADITIONAL_NAME>
4-(2-aminophenyl)-2,4-diketo-butyric acid

> <PUBCHEM_IUPAC_INCHI>
InChI=1S/C10H9NO4/c11-7-4-2-1-3-6(7)8(12)5-9(13)10(14)15/h1-4H,5,11H2,(H,14,15)

> <PUBCHEM_IUPAC_INCHIKEY>
CAOVWYZQMPNAFJ-UHFFFAOYSA-N

> <PUBCHEM_XLOGP3_AA>
1.1

> <PUBCHEM_EXACT_MASS>
207.053158

> <PUBCHEM_MOLECULAR_FORMULA>
C10H9NO4

> <PUBCHEM_MOLECULAR_WEIGHT>
207.18276

> <PUBCHEM_OPENEYE_CAN_SMILES>
C1=CC=C(C(=C1)C(=O)CC(=O)C(=O)O)N

> <PUBCHEM_OPENEYE_ISO_SMILES>
C1=CC=C(C(=C1)C(=O)CC(=O)C(=O)O)N

> <PUBCHEM_CACTVS_TPSA>
97.5

> <PUBCHEM_MONOISOTOPIC_WEIGHT>
207.053158

> <PUBCHEM_TOTAL_CHARGE>
0

> <PUBCHEM_HEAVY_ATOM_COUNT>
15

> <PUBCHEM_ATOM_DEF_STEREO_COUNT>
0

> <PUBCHEM_ATOM_UDEF_STEREO_COUNT>
0

> <PUBCHEM_BOND_DEF_STEREO_COUNT>
0

> <PUBCHEM_BOND_UDEF_STEREO_COUNT>
0

> <PUBCHEM_ISOTOPIC_ATOM_COUNT>
0

> <PUBCHEM_COMPONENT_COUNT>
1

> <PUBCHEM_CACTVS_TAUTO_COUNT>
14

> <PUBCHEM_COORDINATE_TYPE>
1
5
255

> <PUBCHEM_BONDANNOTATIONS>
10  12  8
11  13  8
12  13  8
6  10  8
6  9  8
9  11  8

$$$$

