94989
  -OEChem-07051213003D

 26 28  0     1  0  0  0  0  0999 V2000
   -0.8265   -2.5514   -0.7859 O   0  0  0  0  0  0  0  0  0  0  0  0
    4.6867    0.9433   -0.0780 O   0  5  0  0  0  0  0  0  0  0  0  0
    4.3349   -1.2081    0.1795 O   0  0  0  0  0  0  0  0  0  0  0  0
    3.9113   -0.0352    0.0432 N   0  3  0  0  0  0  0  0  0  0  0  0
   -0.8703   -1.6122    0.2724 C   0  0  1  0  0  0  0  0  0  0  0  0
    0.2730   -0.6263    0.1399 C   0  0  0  0  0  0  0  0  0  0  0  0
   -2.0774   -0.7008    0.1656 C   0  0  0  0  0  0  0  0  0  0  0  0
   -0.2228    0.6884   -0.0103 C   0  0  0  0  0  0  0  0  0  0  0  0
   -1.6691    0.6427    0.0055 C   0  0  0  0  0  0  0  0  0  0  0  0
    1.6328   -0.8862    0.1616 C   0  0  0  0  0  0  0  0  0  0  0  0
    0.6468    1.7581   -0.1443 C   0  0  0  0  0  0  0  0  0  0  0  0
   -3.4173   -1.0464    0.2165 C   0  0  0  0  0  0  0  0  0  0  0  0
   -2.6074    1.6550   -0.1085 C   0  0  0  0  0  0  0  0  0  0  0  0
    2.5090    0.1921    0.0261 C   0  0  0  0  0  0  0  0  0  0  0  0
    2.0209    1.5012   -0.1254 C   0  0  0  0  0  0  0  0  0  0  0  0
   -4.3627   -0.0258    0.1016 C   0  0  0  0  0  0  0  0  0  0  0  0
   -3.9619    1.3115   -0.0595 C   0  0  0  0  0  0  0  0  0  0  0  0
   -0.8529   -2.1133    1.2463 H   0  0  0  0  0  0  0  0  0  0  0  0
    1.9765   -1.9084    0.2831 H   0  0  0  0  0  0  0  0  0  0  0  0
    0.2845    2.7740   -0.2617 H   0  0  0  0  0  0  0  0  0  0  0  0
   -3.7286   -2.0775    0.3425 H   0  0  0  0  0  0  0  0  0  0  0  0
   -2.3136    2.6919   -0.2332 H   0  0  0  0  0  0  0  0  0  0  0  0
    2.6923    2.3505   -0.2316 H   0  0  0  0  0  0  0  0  0  0  0  0
   -5.4219   -0.2663    0.1375 H   0  0  0  0  0  0  0  0  0  0  0  0
   -4.7166    2.0887   -0.1466 H   0  0  0  0  0  0  0  0  0  0  0  0
   -0.1033   -3.1733   -0.5966 H   0  0  0  0  0  0  0  0  0  0  0  0
  1  5  1  0  0  0  0
  1 26  1  0  0  0  0
  2  4  1  0  0  0  0
  3  4  2  0  0  0  0
  4 14  1  0  0  0  0
  5  6  1  0  0  0  0
  5  7  1  0  0  0  0
  5 18  1  0  0  0  0
  6  8  2  0  0  0  0
  6 10  1  0  0  0  0
  7  9  1  0  0  0  0
  7 12  2  0  0  0  0
  8  9  1  0  0  0  0
  8 11  1  0  0  0  0
  9 13  2  0  0  0  0
 10 14  2  0  0  0  0
 10 19  1  0  0  0  0
 11 15  2  0  0  0  0
 11 20  1  0  0  0  0
 12 16  1  0  0  0  0
 12 21  1  0  0  0  0
 13 17  1  0  0  0  0
 13 22  1  0  0  0  0
 14 15  1  0  0  0  0
 15 23  1  0  0  0  0
 16 17  2  0  0  0  0
 16 24  1  0  0  0  0
 17 25  1  0  0  0  0
M  CHG  2   2  -1   4   1
M  END
> <PUBCHEM_COMPOUND_CID>
94989

> <PUBCHEM_CONFORMER_RMSD>
0.6

> <PUBCHEM_CONFORMER_DIVERSEORDER>
1

> <PUBCHEM_MMFF94_PARTIAL_CHARGES>
23
1 -0.68
10 -0.15
11 -0.15
12 -0.15
13 -0.15
14 0.13
15 -0.15
16 -0.15
17 -0.15
19 0.15
2 -0.52
20 0.15
21 0.15
22 0.15
23 0.15
24 0.15
25 0.15
26 0.4
3 -0.52
4 0.91
5 0.57
6 -0.14
7 -0.14

> <PUBCHEM_EFFECTIVE_ROTOR_COUNT>
1.2

> <PUBCHEM_PHARMACOPHORE_FEATURES>
8
1 1 acceptor
1 1 donor
1 2 acceptor
1 2 anion
1 3 acceptor
5 5 6 7 8 9 rings
6 6 8 10 11 14 15 rings
6 7 9 12 13 16 17 rings

> <PUBCHEM_HEAVY_ATOM_COUNT>
17

> <PUBCHEM_ATOM_DEF_STEREO_COUNT>
0

> <PUBCHEM_ATOM_UDEF_STEREO_COUNT>
1

> <PUBCHEM_BOND_DEF_STEREO_COUNT>
0

> <PUBCHEM_BOND_UDEF_STEREO_COUNT>
0

> <PUBCHEM_ISOTOPIC_ATOM_COUNT>
0

> <PUBCHEM_COMPONENT_COUNT>
1

> <PUBCHEM_CACTVS_TAUTO_COUNT>
1

> <PUBCHEM_CONFORMER_ID>
0001730D00000001

> <PUBCHEM_MMFF94_ENERGY>
60.2593

> <PUBCHEM_FEATURE_SELFOVERLAP>
40.84

> <PUBCHEM_SHAPE_FINGERPRINT>
10062212 137 18410864269269915099
10608611 8 18410295765792086681
10967382 1 18411136986866104059
11132069 177 18411703205142042073
11471102 20 18412267241759054068
11578080 2 16953385572920763331
12032990 46 18412539916268543504
12403259 226 18337115558035335297
12403814 3 17561086903590983773
12592029 89 18341046419083210923
12715332 25 18186520982032905335
13140716 1 18122335788281330507
13221675 6 18342740697660446994
13380535 76 18411417336804210147
13675066 3 18412544280139965232
13690532 89 18411419526773080088
13862211 1 18411425028642426299
14943859 89 18272932730214303689
15042514 8 18267298738714732123
15099037 51 18410855473044783823
15196674 1 18412262847970573960
15309172 13 18408595968524038779
15442244 35 18411982442599066480
15536298 74 18408886222292595944
16945 1 18338520712151322835
17802600 8 18411985745581988845
17804303 29 18410289194491889837
1813 80 17131551764916230390
18186145 218 18187638133038449473
18522853 276 18410011030961422745
200 152 18113905948843033061
20510252 161 18260264183019850897
20645477 56 18336550426053696928
21267235 1 18340759390581676915
21501502 16 18193556657859085229
21524375 3 18412543223810268171
23175994 123 17313097553583360656
2334 1 16753810864037417625
23402539 116 18259993673268466733
23402655 69 18264500636462112421
23463225 33 18342739645356425664
23559900 14 18260831493224654056
2748010 2 18266173010231456887
335352 9 18339924929938521332
34934 24 18411424973466812250
350125 39 18411413995525713553
474 4 16915934051248403948
5104073 3 18412544310115241648
53812653 166 18409451400980635665
54173680 148 18196650683975753459
69090 78 18334861593141102583
7364860 26 18192429899154429775
8809292 202 18201715111815957267
9709674 26 18409722941819706134
9981440 41 17191221929652971128

> <PUBCHEM_SHAPE_MULTIPOLES>
327.26
7.84
2
0.64
3.55
0.34
0.02
-0.86
-0.26
-0.4
0.23
-0.09
0.08
-0.05

> <PUBCHEM_SHAPE_SELFOVERLAP>
736.439

> <PUBCHEM_SHAPE_VOLUME>
174.9

> <PUBCHEM_COORDINATE_TYPE>
2
5
10

$$$$

