12609
  -OEChem-06261207092D

 19 19  0     0  0  0  0  0  0999 V2000
    4.5981    2.7500    0.0000 F   0  0  0  0  0  0  0  0  0  0  0  0
    5.5981    1.7500    0.0000 F   0  0  0  0  0  0  0  0  0  0  0  0
    3.5981    1.7500    0.0000 F   0  0  0  0  0  0  0  0  0  0  0  0
    2.0000   -2.7500    0.0000 O   0  0  0  0  0  0  0  0  0  0  0  0
    2.8660   -1.2500    0.0000 N   0  0  0  0  0  0  0  0  0  0  0  0
    4.5981    0.7500    0.0000 C   0  0  0  0  0  0  0  0  0  0  0  0
    3.7320   -0.7500    0.0000 C   0  0  0  0  0  0  0  0  0  0  0  0
    3.7320    0.2500    0.0000 C   0  0  0  0  0  0  0  0  0  0  0  0
    5.4641    0.2500    0.0000 C   0  0  0  0  0  0  0  0  0  0  0  0
    4.5981   -1.2500    0.0000 C   0  0  0  0  0  0  0  0  0  0  0  0
    4.5981    1.7500    0.0000 C   0  0  0  0  0  0  0  0  0  0  0  0
    5.4641   -0.7500    0.0000 C   0  0  0  0  0  0  0  0  0  0  0  0
    2.8660   -2.2500    0.0000 C   0  0  0  0  0  0  0  0  0  0  0  0
    3.1951    0.5600    0.0000 H   0  0  0  0  0  0  0  0  0  0  0  0
    6.0010    0.5600    0.0000 H   0  0  0  0  0  0  0  0  0  0  0  0
    4.5981   -1.8700    0.0000 H   0  0  0  0  0  0  0  0  0  0  0  0
    6.0010   -1.0600    0.0000 H   0  0  0  0  0  0  0  0  0  0  0  0
    2.3291   -0.9400    0.0000 H   0  0  0  0  0  0  0  0  0  0  0  0
    3.4030   -2.5600    0.0000 H   0  0  0  0  0  0  0  0  0  0  0  0
  1 11  1  0  0  0  0
  2 11  1  0  0  0  0
  3 11  1  0  0  0  0
  4 13  2  0  0  0  0
  5  7  1  0  0  0  0
  5 13  1  0  0  0  0
  5 18  1  0  0  0  0
  6  8  2  0  0  0  0
  6  9  1  0  0  0  0
  6 11  1  0  0  0  0
  7  8  1  0  0  0  0
  7 10  2  0  0  0  0
  8 14  1  0  0  0  0
  9 12  2  0  0  0  0
  9 15  1  0  0  0  0
 10 12  1  0  0  0  0
 10 16  1  0  0  0  0
 12 17  1  0  0  0  0
 13 19  1  0  0  0  0
M  END
> <PUBCHEM_COMPOUND_CID>
12609

> <PUBCHEM_COMPOUND_CANONICALIZED>
1

> <PUBCHEM_CACTVS_COMPLEXITY>
181

> <PUBCHEM_CACTVS_HBOND_ACCEPTOR>
4

> <PUBCHEM_CACTVS_HBOND_DONOR>
1

> <PUBCHEM_CACTVS_ROTATABLE_BOND>
1

> <PUBCHEM_CACTVS_SUBSKEYS>
AAADcYByIYAAAAAAAAAAAAAAAAAAAAAAAAAwAAAAAAAAAAABAAAAHwAQAAAADAiBGBYwwILAAACIAiRC0ACCAAAhAgAIiIAIZIgIICLAkZGEIAhglABIyAcQgAAOAAAAQAAAAAAAAACAAAAAAAAAAAAAAA==

> <PUBCHEM_IUPAC_OPENEYE_NAME>
N-[3-(trifluoromethyl)phenyl]formamide

> <PUBCHEM_IUPAC_CAS_NAME>
N-[3-(trifluoromethyl)phenyl]formamide

> <PUBCHEM_IUPAC_NAME>
N-[3-(trifluoromethyl)phenyl]formamide

> <PUBCHEM_IUPAC_SYSTEMATIC_NAME>
N-[3-(trifluoromethyl)phenyl]methanamide

> <PUBCHEM_IUPAC_TRADITIONAL_NAME>
N-[3-(trifluoromethyl)phenyl]formamide

> <PUBCHEM_IUPAC_INCHI>
InChI=1S/C8H6F3NO/c9-8(10,11)6-2-1-3-7(4-6)12-5-13/h1-5H,(H,12,13)

> <PUBCHEM_IUPAC_INCHIKEY>
PPECHNDWLRNHEA-UHFFFAOYSA-N

> <PUBCHEM_XLOGP3>
2.6

> <PUBCHEM_EXACT_MASS>
189.040148

> <PUBCHEM_MOLECULAR_FORMULA>
C8H6F3NO

> <PUBCHEM_MOLECULAR_WEIGHT>
189.13455

> <PUBCHEM_OPENEYE_CAN_SMILES>
C1=CC(=CC(=C1)NC=O)C(F)(F)F

> <PUBCHEM_OPENEYE_ISO_SMILES>
C1=CC(=CC(=C1)NC=O)C(F)(F)F

> <PUBCHEM_CACTVS_TPSA>
29.1

> <PUBCHEM_MONOISOTOPIC_WEIGHT>
189.040148

> <PUBCHEM_TOTAL_CHARGE>
0

> <PUBCHEM_HEAVY_ATOM_COUNT>
13

> <PUBCHEM_ATOM_DEF_STEREO_COUNT>
0

> <PUBCHEM_ATOM_UDEF_STEREO_COUNT>
0

> <PUBCHEM_BOND_DEF_STEREO_COUNT>
0

> <PUBCHEM_BOND_UDEF_STEREO_COUNT>
0

> <PUBCHEM_ISOTOPIC_ATOM_COUNT>
0

> <PUBCHEM_COMPONENT_COUNT>
1

> <PUBCHEM_CACTVS_TAUTO_COUNT>
2

> <PUBCHEM_COORDINATE_TYPE>
1
5
255

> <PUBCHEM_BONDANNOTATIONS>
10  12  8
6  8  8
6  9  8
7  10  8
7  8  8
9  12  8

$$$$

