9061
  -OEChem-06261203222D

 24 25  0     0  0  0  0  0  0999 V2000
    7.6811    2.0891    0.0000 O   0  0  0  0  0  0  0  0  0  0  0  0
    2.5369    0.1771    0.0000 O   0  0  0  0  0  0  0  0  0  0  0  0
    6.0812   -1.6276    0.0000 N   0  0  0  0  0  0  0  0  0  0  0  0
    6.0812   -0.0182    0.0000 C   0  0  0  0  0  0  0  0  0  0  0  0
    5.1350   -0.3229    0.0000 C   0  0  0  0  0  0  0  0  0  0  0  0
    5.1350   -1.3229    0.0000 C   0  0  0  0  0  0  0  0  0  0  0  0
    6.3919    0.9324    0.0000 C   0  0  0  0  0  0  0  0  0  0  0  0
    6.6648   -0.8229    0.0000 C   0  0  0  0  0  0  0  0  0  0  0  0
    4.2690    0.1771    0.0000 C   0  0  0  0  0  0  0  0  0  0  0  0
    4.2690   -1.8229    0.0000 C   0  0  0  0  0  0  0  0  0  0  0  0
    7.3704    1.1386    0.0000 C   0  0  0  0  0  0  0  0  0  0  0  0
    3.4030   -0.3229    0.0000 C   0  0  0  0  0  0  0  0  0  0  0  0
    3.4030   -1.3229    0.0000 C   0  0  0  0  0  0  0  0  0  0  0  0
    6.3713    1.5520    0.0000 H   0  0  0  0  0  0  0  0  0  0  0  0
    5.7781    1.0197    0.0000 H   0  0  0  0  0  0  0  0  0  0  0  0
    7.2848   -0.8229    0.0000 H   0  0  0  0  0  0  0  0  0  0  0  0
    6.2738   -2.2170    0.0000 H   0  0  0  0  0  0  0  0  0  0  0  0
    4.2690    0.7971    0.0000 H   0  0  0  0  0  0  0  0  0  0  0  0
    4.2690   -2.4429    0.0000 H   0  0  0  0  0  0  0  0  0  0  0  0
    7.3910    0.5189    0.0000 H   0  0  0  0  0  0  0  0  0  0  0  0
    7.9842    1.0512    0.0000 H   0  0  0  0  0  0  0  0  0  0  0  0
    2.8660   -1.6329    0.0000 H   0  0  0  0  0  0  0  0  0  0  0  0
    8.2877    2.2170    0.0000 H   0  0  0  0  0  0  0  0  0  0  0  0
    2.0000   -0.1329    0.0000 H   0  0  0  0  0  0  0  0  0  0  0  0
  1 11  1  0  0  0  0
  1 23  1  0  0  0  0
  2 12  1  0  0  0  0
  2 24  1  0  0  0  0
  3  6  1  0  0  0  0
  3  8  1  0  0  0  0
  3 17  1  0  0  0  0
  4  5  1  0  0  0  0
  4  7  1  0  0  0  0
  4  8  2  0  0  0  0
  5  6  2  0  0  0  0
  5  9  1  0  0  0  0
  6 10  1  0  0  0  0
  7 11  1  0  0  0  0
  7 14  1  0  0  0  0
  7 15  1  0  0  0  0
  8 16  1  0  0  0  0
  9 12  2  0  0  0  0
  9 18  1  0  0  0  0
 10 13  2  0  0  0  0
 10 19  1  0  0  0  0
 11 20  1  0  0  0  0
 11 21  1  0  0  0  0
 12 13  1  0  0  0  0
 13 22  1  0  0  0  0
M  END
> <PUBCHEM_COMPOUND_CID>
9061

> <PUBCHEM_COMPOUND_CANONICALIZED>
1

> <PUBCHEM_CACTVS_COMPLEXITY>
174

> <PUBCHEM_CACTVS_HBOND_ACCEPTOR>
2

> <PUBCHEM_CACTVS_HBOND_DONOR>
3

> <PUBCHEM_CACTVS_ROTATABLE_BOND>
2

> <PUBCHEM_CACTVS_SUBSKEYS>
AAADccByMAAAAAAAAAAAAAAAAAAAAWAAAAAwAAAAAAAAAFgB8AAAHgAQCAAADAzhngY8xvLJkgCgAzRnRACCgCAxIiAI2aA+bJgINuLCkZOEcAhk0BHI2Aew0PMOgEABAAACAAAAgAIAAAQAAAAAAAAAAA==

> <PUBCHEM_IUPAC_OPENEYE_NAME>
3-(2-hydroxyethyl)-1H-indol-5-ol

> <PUBCHEM_IUPAC_CAS_NAME>
3-(2-hydroxyethyl)-1H-indol-5-ol

> <PUBCHEM_IUPAC_NAME>
3-(2-hydroxyethyl)-1H-indol-5-ol

> <PUBCHEM_IUPAC_SYSTEMATIC_NAME>
3-(2-hydroxyethyl)-1H-indol-5-ol

> <PUBCHEM_IUPAC_TRADITIONAL_NAME>
3-(2-hydroxyethyl)-1H-indol-5-ol

> <PUBCHEM_IUPAC_INCHI>
InChI=1S/C10H11NO2/c12-4-3-7-6-11-10-2-1-8(13)5-9(7)10/h1-2,5-6,11-13H,3-4H2

> <PUBCHEM_IUPAC_INCHIKEY>
KQROHCSYOGBQGJ-UHFFFAOYSA-N

> <PUBCHEM_XLOGP3>
0.5

> <PUBCHEM_EXACT_MASS>
177.078979

> <PUBCHEM_MOLECULAR_FORMULA>
C10H11NO2

> <PUBCHEM_MOLECULAR_WEIGHT>
177.19984

> <PUBCHEM_OPENEYE_CAN_SMILES>
C1=CC2=C(C=C1O)C(=CN2)CCO

> <PUBCHEM_OPENEYE_ISO_SMILES>
C1=CC2=C(C=C1O)C(=CN2)CCO

> <PUBCHEM_CACTVS_TPSA>
56.2

> <PUBCHEM_MONOISOTOPIC_WEIGHT>
177.078979

> <PUBCHEM_TOTAL_CHARGE>
0

> <PUBCHEM_HEAVY_ATOM_COUNT>
13

> <PUBCHEM_ATOM_DEF_STEREO_COUNT>
0

> <PUBCHEM_ATOM_UDEF_STEREO_COUNT>
0

> <PUBCHEM_BOND_DEF_STEREO_COUNT>
0

> <PUBCHEM_BOND_UDEF_STEREO_COUNT>
0

> <PUBCHEM_ISOTOPIC_ATOM_COUNT>
0

> <PUBCHEM_COMPONENT_COUNT>
1

> <PUBCHEM_CACTVS_TAUTO_COUNT>
9

> <PUBCHEM_COORDINATE_TYPE>
1
5
255

> <PUBCHEM_BONDANNOTATIONS>
10  13  8
12  13  8
3  6  8
3  8  8
4  5  8
4  8  8
5  6  8
5  9  8
6  10  8
9  12  8

$$$$

