13022
  -OEChem-06261207392D

 14 14  0     0  0  0  0  0  0999 V2000
    4.2690    1.6550    0.0000 S   0  0  0  0  0  0  0  0  0  0  0  0
    4.2690   -1.3450    0.0000 N   0  0  0  0  0  0  0  0  0  0  0  0
    3.4030    0.1550    0.0000 N   0  0  0  0  0  0  0  0  0  0  0  0
    5.1350    0.1550    0.0000 N   0  0  0  0  0  0  0  0  0  0  0  0
    6.0010   -1.3450    0.0000 N   0  0  0  0  0  0  0  0  0  0  0  0
    2.5369   -1.3450    0.0000 N   0  0  0  0  0  0  0  0  0  0  0  0
    5.1350   -0.8450    0.0000 C   0  0  0  0  0  0  0  0  0  0  0  0
    3.4030   -0.8450    0.0000 C   0  0  0  0  0  0  0  0  0  0  0  0
    4.2690    0.6550    0.0000 C   0  0  0  0  0  0  0  0  0  0  0  0
    6.5380   -1.0350    0.0000 H   0  0  0  0  0  0  0  0  0  0  0  0
    6.0010   -1.9650    0.0000 H   0  0  0  0  0  0  0  0  0  0  0  0
    2.0000   -1.0350    0.0000 H   0  0  0  0  0  0  0  0  0  0  0  0
    2.5369   -1.9650    0.0000 H   0  0  0  0  0  0  0  0  0  0  0  0
    4.8059    1.9650    0.0000 H   0  0  0  0  0  0  0  0  0  0  0  0
  1  9  1  0  0  0  0
  1 14  1  0  0  0  0
  2  7  2  0  0  0  0
  2  8  1  0  0  0  0
  3  8  2  0  0  0  0
  3  9  1  0  0  0  0
  4  7  1  0  0  0  0
  4  9  2  0  0  0  0
  5  7  1  0  0  0  0
  5 10  1  0  0  0  0
  5 11  1  0  0  0  0
  6  8  1  0  0  0  0
  6 12  1  0  0  0  0
  6 13  1  0  0  0  0
M  END
> <PUBCHEM_COMPOUND_CID>
13022

> <PUBCHEM_COMPOUND_CANONICALIZED>
1

> <PUBCHEM_CACTVS_COMPLEXITY>
88.2

> <PUBCHEM_CACTVS_HBOND_ACCEPTOR>
6

> <PUBCHEM_CACTVS_HBOND_DONOR>
3

> <PUBCHEM_CACTVS_ROTATABLE_BOND>
0

> <PUBCHEM_CACTVS_SUBSKEYS>
AAADcYBDgABAAAAAAAAAAAAAAAAAAAAAAAAsAAAAAAAAAAABgAAABAQQAAAAAAAAAAABEAZIEAQgAAAAJAEAUAkAAIABAAAAAACACAAAAAAAAAAIAAAAAAAAAAAAAAAAAAAAAAAAAAAAAAAAAAAAAAAAAA==

> <PUBCHEM_IUPAC_OPENEYE_NAME>
4,6-diamino-1,3,5-triazine-2-thiol

> <PUBCHEM_IUPAC_CAS_NAME>
4,6-diamino-1,3,5-triazine-2-thiol

> <PUBCHEM_IUPAC_NAME>
4,6-diamino-1,3,5-triazine-2-thiol

> <PUBCHEM_IUPAC_SYSTEMATIC_NAME>
4,6-bis(azanyl)-1,3,5-triazine-2-thiol

> <PUBCHEM_IUPAC_TRADITIONAL_NAME>
4,6-diamino-s-triazine-2-thiol

> <PUBCHEM_IUPAC_INCHI>
InChI=1S/C3H5N5S/c4-1-6-2(5)8-3(9)7-1/h(H5,4,5,6,7,8,9)

> <PUBCHEM_IUPAC_INCHIKEY>
HRIJSYATNFJXHM-UHFFFAOYSA-N

> <PUBCHEM_XLOGP3>
-0.5

> <PUBCHEM_EXACT_MASS>
143.026566

> <PUBCHEM_MOLECULAR_FORMULA>
C3H5N5S

> <PUBCHEM_MOLECULAR_WEIGHT>
143.1703

> <PUBCHEM_OPENEYE_CAN_SMILES>
C1(=NC(=NC(=N1)S)N)N

> <PUBCHEM_OPENEYE_ISO_SMILES>
C1(=NC(=NC(=N1)S)N)N

> <PUBCHEM_CACTVS_TPSA>
91.7

> <PUBCHEM_MONOISOTOPIC_WEIGHT>
143.026566

> <PUBCHEM_TOTAL_CHARGE>
0

> <PUBCHEM_HEAVY_ATOM_COUNT>
9

> <PUBCHEM_ATOM_DEF_STEREO_COUNT>
0

> <PUBCHEM_ATOM_UDEF_STEREO_COUNT>
0

> <PUBCHEM_BOND_DEF_STEREO_COUNT>
0

> <PUBCHEM_BOND_UDEF_STEREO_COUNT>
0

> <PUBCHEM_ISOTOPIC_ATOM_COUNT>
0

> <PUBCHEM_COMPONENT_COUNT>
1

> <PUBCHEM_CACTVS_TAUTO_COUNT>
10

> <PUBCHEM_COORDINATE_TYPE>
1
5
255

> <PUBCHEM_BONDANNOTATIONS>
2  7  8
2  8  8
3  8  8
3  9  8
4  7  8
4  9  8

$$$$

