7846947
  -OEChem-06241222483D

 45 46  0     1  0  0  0  0  0999 V2000
    3.2672    0.8760   -1.2703 S   0  0  0  0  0  0  0  0  0  0  0  0
    0.8861   -2.0928   -0.2367 O   0  0  0  0  0  0  0  0  0  0  0  0
   -1.0558   -0.7789   -1.5593 O   0  0  0  0  0  0  0  0  0  0  0  0
    1.6843   -3.4739    1.4300 O   0  0  0  0  0  0  0  0  0  0  0  0
   -2.7006   -1.5442   -0.1033 N   0  0  0  0  0  0  0  0  0  0  0  0
    2.1765    0.3961    1.0172 N   0  0  0  0  0  0  0  0  0  0  0  0
   -3.8267   -0.8825   -0.7195 C   0  0  2  0  0  0  0  0  0  0  0  0
   -4.5039    0.0903    0.2564 C   0  0  0  0  0  0  0  0  0  0  0  0
   -3.5445    1.1668    0.7731 C   0  0  0  0  0  0  0  0  0  0  0  0
   -4.8212   -1.9225   -1.2260 C   0  0  0  0  0  0  0  0  0  0  0  0
   -4.2486    2.1317    1.7147 C   0  0  0  0  0  0  0  0  0  0  0  0
   -1.4035   -1.4338   -0.5804 C   0  0  0  0  0  0  0  0  0  0  0  0
    3.8996   -1.2835    0.3563 C   0  0  0  0  0  0  0  0  0  0  0  0
   -0.4283   -2.2308    0.2596 C   0  0  0  0  0  0  0  0  0  0  0  0
    3.2064   -2.5230   -0.2116 C   0  0  0  0  0  0  0  0  0  0  0  0
    3.0662   -0.0434    0.1579 C   0  0  0  0  0  0  0  0  0  0  0  0
    2.0610    1.9779   -0.7189 C   0  0  0  0  0  0  0  0  0  0  0  0
    1.5914    1.5550    0.5283 C   0  0  0  0  0  0  0  0  0  0  0  0
    1.8675   -2.7726    0.4446 C   0  0  0  0  0  0  0  0  0  0  0  0
    1.5660    3.1331   -1.3449 C   0  0  0  0  0  0  0  0  0  0  0  0
    0.5909    2.3173    1.1696 C   0  0  0  0  0  0  0  0  0  0  0  0
    0.5762    3.8693   -0.6888 C   0  0  0  0  0  0  0  0  0  0  0  0
    0.0936    3.4685    0.5521 C   0  0  0  0  0  0  0  0  0  0  0  0
   -3.4713   -0.3097   -1.5845 H   0  0  0  0  0  0  0  0  0  0  0  0
   -4.9079   -0.4666    1.1120 H   0  0  0  0  0  0  0  0  0  0  0  0
   -5.3549    0.5711   -0.2422 H   0  0  0  0  0  0  0  0  0  0  0  0
   -2.7052    0.7092    1.3085 H   0  0  0  0  0  0  0  0  0  0  0  0
   -3.1257    1.7273   -0.0708 H   0  0  0  0  0  0  0  0  0  0  0  0
   -5.2097   -2.5350   -0.4047 H   0  0  0  0  0  0  0  0  0  0  0  0
   -5.6694   -1.4432   -1.7256 H   0  0  0  0  0  0  0  0  0  0  0  0
   -4.3436   -2.5987   -1.9437 H   0  0  0  0  0  0  0  0  0  0  0  0
   -2.8775   -2.1149    0.7187 H   0  0  0  0  0  0  0  0  0  0  0  0
   -3.5469    2.8927    2.0706 H   0  0  0  0  0  0  0  0  0  0  0  0
   -4.6508    1.6059    2.5865 H   0  0  0  0  0  0  0  0  0  0  0  0
   -5.0745    2.6415    1.2086 H   0  0  0  0  0  0  0  0  0  0  0  0
    4.0660   -1.4168    1.4327 H   0  0  0  0  0  0  0  0  0  0  0  0
    4.8875   -1.1672   -0.1045 H   0  0  0  0  0  0  0  0  0  0  0  0
    3.0637   -2.4448   -1.2962 H   0  0  0  0  0  0  0  0  0  0  0  0
    3.8289   -3.4103   -0.0481 H   0  0  0  0  0  0  0  0  0  0  0  0
   -0.7284   -3.2847    0.2311 H   0  0  0  0  0  0  0  0  0  0  0  0
   -0.4765   -1.8590    1.2899 H   0  0  0  0  0  0  0  0  0  0  0  0
    1.9377    3.4519   -2.3138 H   0  0  0  0  0  0  0  0  0  0  0  0
    0.2049    2.0120    2.1381 H   0  0  0  0  0  0  0  0  0  0  0  0
    0.1788    4.7664   -1.1564 H   0  0  0  0  0  0  0  0  0  0  0  0
   -0.6779    4.0524    1.0466 H   0  0  0  0  0  0  0  0  0  0  0  0
  1 16  1  0  0  0  0
  1 17  1  0  0  0  0
  2 14  1  0  0  0  0
  2 19  1  0  0  0  0
  3 12  2  0  0  0  0
  4 19  2  0  0  0  0
  5  7  1  0  0  0  0
  5 12  1  0  0  0  0
  5 32  1  0  0  0  0
  6 16  2  0  0  0  0
  6 18  1  0  0  0  0
  7  8  1  0  0  0  0
  7 10  1  0  0  0  0
  7 24  1  0  0  0  0
  8  9  1  0  0  0  0
  8 25  1  0  0  0  0
  8 26  1  0  0  0  0
  9 11  1  0  0  0  0
  9 27  1  0  0  0  0
  9 28  1  0  0  0  0
 10 29  1  0  0  0  0
 10 30  1  0  0  0  0
 10 31  1  0  0  0  0
 11 33  1  0  0  0  0
 11 34  1  0  0  0  0
 11 35  1  0  0  0  0
 12 14  1  0  0  0  0
 13 15  1  0  0  0  0
 13 16  1  0  0  0  0
 13 36  1  0  0  0  0
 13 37  1  0  0  0  0
 14 40  1  0  0  0  0
 14 41  1  0  0  0  0
 15 19  1  0  0  0  0
 15 38  1  0  0  0  0
 15 39  1  0  0  0  0
 17 18  1  0  0  0  0
 17 20  2  0  0  0  0
 18 21  2  0  0  0  0
 20 22  1  0  0  0  0
 20 42  1  0  0  0  0
 21 23  1  0  0  0  0
 21 43  1  0  0  0  0
 22 23  2  0  0  0  0
 22 44  1  0  0  0  0
 23 45  1  0  0  0  0
M  END
> <PUBCHEM_COMPOUND_CID>
7846947

> <PUBCHEM_CONFORMER_RMSD>
1.2

> <PUBCHEM_CONFORMER_DIVERSEORDER>
1
8
62
27
10
88
32
38
105
96
41
16
114
115
64
68
24
76
117
71
112
92
78
26
44
100
2
28
77
43
85
4
25
52
82
63
59
80
23
128
125
9
17
60
21
57
53
11
7
69
20
15
61
121
48
13
51
86
106
110
35
30
84
54
91
109
29
83
45
90
70
19
99
102
50
33
118
126
49
42
124
101
65
79
18
98
55
81
5
22
113
39
37
36
40
73
74
94
108
47
6
75
111
31
103
123
127
56
119
87
14
46
93
12
67
66
3
120
97
95
104
122
58
34
116
107
89
72

> <PUBCHEM_MMFF94_PARTIAL_CHARGES>
24
1 -0.08
12 0.57
13 0.18
14 0.34
15 0.06
16 0.2
17 0.04
18 0.23
19 0.66
2 -0.43
20 -0.15
21 -0.15
22 -0.15
23 -0.15
3 -0.57
32 0.37
4 -0.57
42 0.15
43 0.15
44 0.15
45 0.15
5 -0.73
6 -0.57
7 0.3

> <PUBCHEM_EFFECTIVE_ROTOR_COUNT>
10

> <PUBCHEM_PHARMACOPHORE_FEATURES>
7
1 11 hydrophobe
1 3 acceptor
1 4 acceptor
1 5 donor
1 6 acceptor
5 1 6 16 17 18 rings
6 17 18 20 21 22 23 rings

> <PUBCHEM_HEAVY_ATOM_COUNT>
23

> <PUBCHEM_ATOM_DEF_STEREO_COUNT>
1

> <PUBCHEM_ATOM_UDEF_STEREO_COUNT>
0

> <PUBCHEM_BOND_DEF_STEREO_COUNT>
0

> <PUBCHEM_BOND_UDEF_STEREO_COUNT>
0

> <PUBCHEM_ISOTOPIC_ATOM_COUNT>
0

> <PUBCHEM_COMPONENT_COUNT>
1

> <PUBCHEM_CACTVS_TAUTO_COUNT>
4

> <PUBCHEM_CONFORMER_ID>
0077BC2300000001

> <PUBCHEM_MMFF94_ENERGY>
25.9065

> <PUBCHEM_FEATURE_SELFOVERLAP>
35.591

> <PUBCHEM_SHAPE_FINGERPRINT>
104564 63 18192436496619562598
10708813 3 18334850641248960481
11513181 2 16883572447635485837
13533116 47 18266182730328211775
14790565 3 18268422431024423380
151778 21 17983851186213361261
15210252 30 18201146694585550124
19930381 70 17905894669712072131
20465049 17 18123447428522022071
20621476 7 18049147063087635353
21860390 5 18335420140737605334
238 59 18125721192846100787
474 4 18270408170129283871
5312544 6 18051139086220760615
7064713 232 17390788121979268897

> <PUBCHEM_SHAPE_MULTIPOLES>
449.61
8.13
5.01
1.38
9.65
1.63
0.03
-2.43
0.3
-2.15
-0.36
0.4
0.37
-2.54

> <PUBCHEM_SHAPE_SELFOVERLAP>
911.207

> <PUBCHEM_SHAPE_VOLUME>
262.5

> <PUBCHEM_COORDINATE_TYPE>
2
5
10

$$$$

