13770100
  -OEChem-07051213102D

 61 63  0     1  0  0  0  0  0999 V2000
    6.6259    5.2284    0.0000 O   0  0  0  0  0  0  0  0  0  0  0  0
    9.8239    6.1036    0.0000 O   0  0  0  0  0  0  0  0  0  0  0  0
    6.8671    1.3964    0.0000 O   0  0  0  0  0  0  0  0  0  0  0  0
    8.0918    6.1036    0.0000 O   0  0  0  0  0  0  0  0  0  0  0  0
    5.1350   -2.6035    0.0000 O   0  0  0  0  0  0  0  0  0  0  0  0
   12.4219    2.6035    0.0000 O   0  0  0  0  0  0  0  0  0  0  0  0
    2.5369   -6.1036    0.0000 O   0  0  0  0  0  0  0  0  0  0  0  0
    4.2690   -6.1036    0.0000 O   0  0  0  0  0  0  0  0  0  0  0  0
    8.0918    4.1036    0.0000 N   0  0  0  0  0  0  0  0  0  0  0  0
    6.0010    2.8965    0.0000 N   0  0  0  0  0  0  0  0  0  0  0  0
    4.2690    1.8964    0.0000 N   0  0  0  0  0  0  0  0  0  0  0  0
    2.5369   -4.1036    0.0000 N   0  0  0  0  0  0  0  0  0  0  0  0
    6.8671    3.3964    0.0000 C   0  0  1  0  0  0  0  0  0  0  0  0
    7.8330    3.1376    0.0000 C   0  0  0  0  0  0  0  0  0  0  0  0
    7.1259    4.3624    0.0000 C   0  0  0  0  0  0  0  0  0  0  0  0
    8.9578    4.6036    0.0000 C   0  0  2  0  0  0  0  0  0  0  0  0
    9.8239    4.1036    0.0000 C   0  0  0  0  0  0  0  0  0  0  0  0
    6.0010    1.8964    0.0000 C   0  0  0  0  0  0  0  0  0  0  0  0
    8.9578    5.6036    0.0000 C   0  0  0  0  0  0  0  0  0  0  0  0
    5.1350    1.3964    0.0000 C   0  0  1  0  0  0  0  0  0  0  0  0
    9.8239    3.1035    0.0000 C   0  0  0  0  0  0  0  0  0  0  0  0
   10.6899    4.6036    0.0000 C   0  0  0  0  0  0  0  0  0  0  0  0
    5.1350    0.3964    0.0000 C   0  0  0  0  0  0  0  0  0  0  0  0
   10.6899    2.6035    0.0000 C   0  0  0  0  0  0  0  0  0  0  0  0
   11.5559    4.1036    0.0000 C   0  0  0  0  0  0  0  0  0  0  0  0
   11.5559    3.1035    0.0000 C   0  0  0  0  0  0  0  0  0  0  0  0
    4.2690   -0.1036    0.0000 C   0  0  0  0  0  0  0  0  0  0  0  0
    6.0010   -0.1036    0.0000 C   0  0  0  0  0  0  0  0  0  0  0  0
    4.2690   -1.1036    0.0000 C   0  0  0  0  0  0  0  0  0  0  0  0
    6.0010   -1.1036    0.0000 C   0  0  0  0  0  0  0  0  0  0  0  0
    5.1350   -1.6036    0.0000 C   0  0  0  0  0  0  0  0  0  0  0  0
    4.2690   -4.1036    0.0000 C   0  0  0  0  0  0  0  0  0  0  0  0
    4.2690   -3.1035    0.0000 C   0  0  0  0  0  0  0  0  0  0  0  0
    3.4030   -4.6036    0.0000 C   0  0  2  0  0  0  0  0  0  0  0  0
    3.4030   -5.6036    0.0000 C   0  0  0  0  0  0  0  0  0  0  0  0
    6.3752    3.7739    0.0000 H   0  0  0  0  0  0  0  0  0  0  0  0
    7.6725    2.5388    0.0000 H   0  0  0  0  0  0  0  0  0  0  0  0
    8.4319    2.9772    0.0000 H   0  0  0  0  0  0  0  0  0  0  0  0
    8.4209    4.9136    0.0000 H   0  0  0  0  0  0  0  0  0  0  0  0
    5.4641    3.2064    0.0000 H   0  0  0  0  0  0  0  0  0  0  0  0
    5.1350    2.0164    0.0000 H   0  0  0  0  0  0  0  0  0  0  0  0
    9.2869    2.7936    0.0000 H   0  0  0  0  0  0  0  0  0  0  0  0
   10.6899    5.2236    0.0000 H   0  0  0  0  0  0  0  0  0  0  0  0
   10.6899    1.9836    0.0000 H   0  0  0  0  0  0  0  0  0  0  0  0
   12.0928    4.4136    0.0000 H   0  0  0  0  0  0  0  0  0  0  0  0
    4.2690    2.5164    0.0000 H   0  0  0  0  0  0  0  0  0  0  0  0
    3.7320    1.5864    0.0000 H   0  0  0  0  0  0  0  0  0  0  0  0
    9.8239    6.7236    0.0000 H   0  0  0  0  0  0  0  0  0  0  0  0
    3.7320    0.2064    0.0000 H   0  0  0  0  0  0  0  0  0  0  0  0
    6.5380    0.2064    0.0000 H   0  0  0  0  0  0  0  0  0  0  0  0
    3.7320   -1.4136    0.0000 H   0  0  0  0  0  0  0  0  0  0  0  0
    6.5380   -1.4136    0.0000 H   0  0  0  0  0  0  0  0  0  0  0  0
    4.4810   -4.6862    0.0000 H   0  0  0  0  0  0  0  0  0  0  0  0
    4.8796   -3.9959    0.0000 H   0  0  0  0  0  0  0  0  0  0  0  0
    4.0569   -2.5209    0.0000 H   0  0  0  0  0  0  0  0  0  0  0  0
    3.6584   -3.2112    0.0000 H   0  0  0  0  0  0  0  0  0  0  0  0
    3.4030   -3.9836    0.0000 H   0  0  0  0  0  0  0  0  0  0  0  0
   12.9589    2.9136    0.0000 H   0  0  0  0  0  0  0  0  0  0  0  0
    2.0000   -4.4136    0.0000 H   0  0  0  0  0  0  0  0  0  0  0  0
    2.5369   -3.4836    0.0000 H   0  0  0  0  0  0  0  0  0  0  0  0
    2.5369   -6.7236    0.0000 H   0  0  0  0  0  0  0  0  0  0  0  0
  1 15  2  0  0  0  0
  2 19  1  0  0  0  0
  2 48  1  0  0  0  0
  3 18  2  0  0  0  0
  4 19  2  0  0  0  0
  5 31  1  0  0  0  0
  5 33  1  0  0  0  0
  6 26  1  0  0  0  0
  6 58  1  0  0  0  0
  7 35  1  0  0  0  0
  7 61  1  0  0  0  0
  8 35  2  0  0  0  0
  9 14  1  0  0  0  0
  9 15  1  0  0  0  0
  9 16  1  0  0  0  0
 13 10  1  6  0  0  0
 10 18  1  0  0  0  0
 10 40  1  0  0  0  0
 20 11  1  1  0  0  0
 11 46  1  0  0  0  0
 11 47  1  0  0  0  0
 34 12  1  6  0  0  0
 12 59  1  0  0  0  0
 12 60  1  0  0  0  0
 13 14  1  0  0  0  0
 13 15  1  0  0  0  0
 13 36  1  0  0  0  0
 14 37  1  0  0  0  0
 14 38  1  0  0  0  0
 16 17  1  0  0  0  0
 16 19  1  1  0  0  0
 16 39  1  0  0  0  0
 17 21  2  0  0  0  0
 17 22  1  0  0  0  0
 18 20  1  0  0  0  0
 20 23  1  0  0  0  0
 20 41  1  0  0  0  0
 21 24  1  0  0  0  0
 21 42  1  0  0  0  0
 22 25  2  0  0  0  0
 22 43  1  0  0  0  0
 23 27  2  0  0  0  0
 23 28  1  0  0  0  0
 24 26  2  0  0  0  0
 24 44  1  0  0  0  0
 25 26  1  0  0  0  0
 25 45  1  0  0  0  0
 27 29  1  0  0  0  0
 27 49  1  0  0  0  0
 28 30  2  0  0  0  0
 28 50  1  0  0  0  0
 29 31  2  0  0  0  0
 29 51  1  0  0  0  0
 30 31  1  0  0  0  0
 30 52  1  0  0  0  0
 32 33  1  0  0  0  0
 32 34  1  0  0  0  0
 32 53  1  0  0  0  0
 32 54  1  0  0  0  0
 33 55  1  0  0  0  0
 33 56  1  0  0  0  0
 34 35  1  0  0  0  0
 34 57  1  0  0  0  0
M  END
> <PUBCHEM_COMPOUND_CID>
13770100

> <PUBCHEM_COMPOUND_CANONICALIZED>
1

> <PUBCHEM_CACTVS_COMPLEXITY>
780

> <PUBCHEM_CACTVS_HBOND_ACCEPTOR>
10

> <PUBCHEM_CACTVS_HBOND_DONOR>
6

> <PUBCHEM_CACTVS_ROTATABLE_BOND>
11

> <PUBCHEM_CACTVS_SUBSKEYS>
AAADceB7vAAAAAAAAAAAAAAAAABYAAAAAAAwYAAAAAAAAAABQAAAHgAQCAAADCzhmAYwDoPABgCIAiHSGACCCAAgIAAIiIGODIgOZjqGtTuWeCjm1hGYuAfa2KOOIAAAAAAAAABAAAAAAAAAAAAAAAAAAA==

> <PUBCHEM_IUPAC_OPENEYE_NAME>
(2R)-2-amino-4-[4-[(1R)-1-amino-2-[[(3S)-1-[(R)-carboxy-(4-hydroxyphenyl)methyl]-2-oxo-azetidin-3-yl]amino]-2-oxo-ethyl]phenoxy]butanoic acid

> <PUBCHEM_IUPAC_CAS_NAME>
(2R)-2-amino-4-[4-[(1R)-1-amino-2-[[(3S)-1-[(R)-carboxy-(4-hydroxyphenyl)methyl]-2-oxo-3-azetidinyl]amino]-2-oxoethyl]phenoxy]butanoic acid

> <PUBCHEM_IUPAC_NAME>
(2R)-2-amino-4-[4-[(1R)-1-amino-2-[[(3S)-1-[(R)-carboxy-(4-hydroxyphenyl)methyl]-2-oxoazetidin-3-yl]amino]-2-oxoethyl]phenoxy]butanoic acid

> <PUBCHEM_IUPAC_SYSTEMATIC_NAME>
(2R)-2-azanyl-4-[4-[(1R)-1-azanyl-2-[[(3S)-1-[(1R)-1-(4-hydroxyphenyl)-2-oxidanyl-2-oxidanylidene-ethyl]-2-oxidanylidene-azetidin-3-yl]amino]-2-oxidanylidene-ethyl]phenoxy]butanoic acid

> <PUBCHEM_IUPAC_TRADITIONAL_NAME>
(2R)-2-amino-4-[4-[(1R)-1-amino-2-[[(3S)-1-[(R)-carboxy-(4-hydroxyphenyl)methyl]-2-keto-azetidin-3-yl]amino]-2-keto-ethyl]phenoxy]butyric acid

> <PUBCHEM_IUPAC_INCHI>
InChI=1S/C23H26N4O8/c24-16(22(31)32)9-10-35-15-7-3-12(4-8-15)18(25)20(29)26-17-11-27(21(17)30)19(23(33)34)13-1-5-14(28)6-2-13/h1-8,16-19,28H,9-11,24-25H2,(H,26,29)(H,31,32)(H,33,34)/t16-,17+,18-,19-/m1/s1

> <PUBCHEM_IUPAC_INCHIKEY>
CWTCWGGPTVMMLT-FCGDIQPGSA-N

> <PUBCHEM_XLOGP3_AA>
-4.9

> <PUBCHEM_EXACT_MASS>
486.175064

> <PUBCHEM_MOLECULAR_FORMULA>
C23H26N4O8

> <PUBCHEM_MOLECULAR_WEIGHT>
486.47454

> <PUBCHEM_OPENEYE_CAN_SMILES>
C1C(C(=O)N1C(C2=CC=C(C=C2)O)C(=O)O)NC(=O)C(C3=CC=C(C=C3)OCCC(C(=O)O)N)N

> <PUBCHEM_OPENEYE_ISO_SMILES>
C1[C@@H](C(=O)N1[C@H](C2=CC=C(C=C2)O)C(=O)O)NC(=O)[C@@H](C3=CC=C(C=C3)OCC[C@H](C(=O)O)N)N

> <PUBCHEM_CACTVS_TPSA>
206

> <PUBCHEM_MONOISOTOPIC_WEIGHT>
486.175064

> <PUBCHEM_TOTAL_CHARGE>
0

> <PUBCHEM_HEAVY_ATOM_COUNT>
35

> <PUBCHEM_ATOM_DEF_STEREO_COUNT>
4

> <PUBCHEM_ATOM_UDEF_STEREO_COUNT>
0

> <PUBCHEM_BOND_DEF_STEREO_COUNT>
0

> <PUBCHEM_BOND_UDEF_STEREO_COUNT>
0

> <PUBCHEM_ISOTOPIC_ATOM_COUNT>
0

> <PUBCHEM_COMPONENT_COUNT>
1

> <PUBCHEM_CACTVS_TAUTO_COUNT>
8

> <PUBCHEM_COORDINATE_TYPE>
1
5
255

> <PUBCHEM_BONDANNOTATIONS>
13  10  6
20  11  5
34  12  6
16  19  5
17  21  8
17  22  8
21  24  8
22  25  8
23  27  8
23  28  8
24  26  8
25  26  8
27  29  8
28  30  8
29  31  8
30  31  8

$$$$

