66067
  -OEChem-07051213033D

 31 31  0     1  0  0  0  0  0999 V2000
   -2.3854    0.6096    0.3707 P   0  0  1  0  0  0  0  0  0  0  0  0
   -1.1904    0.8908   -0.6779 O   0  0  0  0  0  0  0  0  0  0  0  0
   -2.5274   -1.0014    0.4326 O   0  0  0  0  0  0  0  0  0  0  0  0
   -2.2199    1.2695    1.7101 O   0  0  0  0  0  0  0  0  0  0  0  0
    4.5332   -0.7216    1.3299 O   0  5  0  0  0  0  0  0  0  0  0  0
    5.0280    0.0501   -0.6647 O   0  0  0  0  0  0  0  0  0  0  0  0
    4.1929   -0.2152    0.2334 N   0  3  0  0  0  0  0  0  0  0  0  0
   -3.8358    1.1725   -0.5039 C   0  0  0  0  0  0  0  0  0  0  0  0
   -5.1137    0.8993    0.2608 C   0  0  0  0  0  0  0  0  0  0  0  0
    0.1325    0.6191   -0.4541 C   0  0  0  0  0  0  0  0  0  0  0  0
   -2.5988   -1.7749   -0.7517 C   0  0  0  0  0  0  0  0  0  0  0  0
    0.5255    0.0568    0.7560 C   0  0  0  0  0  0  0  0  0  0  0  0
    1.0723    0.9070   -1.4384 C   0  0  0  0  0  0  0  0  0  0  0  0
   -2.7268   -3.2366   -0.3791 C   0  0  0  0  0  0  0  0  0  0  0  0
    2.8205    0.0659    0.0016 C   0  0  0  0  0  0  0  0  0  0  0  0
    1.8732   -0.2205    0.9845 C   0  0  0  0  0  0  0  0  0  0  0  0
    2.4201    0.6296   -1.2099 C   0  0  0  0  0  0  0  0  0  0  0  0
   -3.7412    2.2524   -0.6636 H   0  0  0  0  0  0  0  0  0  0  0  0
   -3.8920    0.7164   -1.4967 H   0  0  0  0  0  0  0  0  0  0  0  0
   -5.9806    1.2762   -0.2898 H   0  0  0  0  0  0  0  0  0  0  0  0
   -5.2476   -0.1745    0.4231 H   0  0  0  0  0  0  0  0  0  0  0  0
   -5.0900    1.3839    1.2417 H   0  0  0  0  0  0  0  0  0  0  0  0
   -3.4692   -1.4744   -1.3404 H   0  0  0  0  0  0  0  0  0  0  0  0
   -1.6966   -1.6208   -1.3502 H   0  0  0  0  0  0  0  0  0  0  0  0
   -0.1746   -0.1951    1.5438 H   0  0  0  0  0  0  0  0  0  0  0  0
    0.7641    1.3459   -2.3832 H   0  0  0  0  0  0  0  0  0  0  0  0
   -2.7860   -3.8643   -1.2726 H   0  0  0  0  0  0  0  0  0  0  0  0
   -1.8693   -3.5572    0.2218 H   0  0  0  0  0  0  0  0  0  0  0  0
   -3.6218   -3.4025    0.2296 H   0  0  0  0  0  0  0  0  0  0  0  0
    2.1491   -0.6624    1.9387 H   0  0  0  0  0  0  0  0  0  0  0  0
    3.1299    0.8661   -1.9985 H   0  0  0  0  0  0  0  0  0  0  0  0
  1  2  1  0  0  0  0
  1  3  1  0  0  0  0
  1  4  2  0  0  0  0
  1  8  1  0  0  0  0
  2 10  1  0  0  0  0
  3 11  1  0  0  0  0
  5  7  1  0  0  0  0
  6  7  2  0  0  0  0
  7 15  1  0  0  0  0
  8  9  1  0  0  0  0
  8 18  1  0  0  0  0
  8 19  1  0  0  0  0
  9 20  1  0  0  0  0
  9 21  1  0  0  0  0
  9 22  1  0  0  0  0
 10 12  2  0  0  0  0
 10 13  1  0  0  0  0
 11 14  1  0  0  0  0
 11 23  1  0  0  0  0
 11 24  1  0  0  0  0
 12 16  1  0  0  0  0
 12 25  1  0  0  0  0
 13 17  2  0  0  0  0
 13 26  1  0  0  0  0
 14 27  1  0  0  0  0
 14 28  1  0  0  0  0
 14 29  1  0  0  0  0
 15 16  2  0  0  0  0
 15 17  1  0  0  0  0
 16 30  1  0  0  0  0
 17 31  1  0  0  0  0
M  CHG  2   5  -1   7   1
M  END
> <PUBCHEM_COMPOUND_CID>
66067

> <PUBCHEM_CONFORMER_RMSD>
0.8

> <PUBCHEM_CONFORMER_DIVERSEORDER>
1
4
10
6
8
20
19
16
5
22
9
2
7
13
3
15
21
11
14
18
17
12
23

> <PUBCHEM_MMFF94_PARTIAL_CHARGES>
18
1 1.24
10 0.08
11 0.28
12 -0.15
13 -0.15
15 0.13
16 -0.15
17 -0.15
2 -0.35
25 0.15
26 0.15
3 -0.55
30 0.15
31 0.15
4 -0.7
5 -0.52
6 -0.52
7 0.91

> <PUBCHEM_EFFECTIVE_ROTOR_COUNT>
6

> <PUBCHEM_PHARMACOPHORE_FEATURES>
5
1 4 acceptor
1 5 acceptor
1 5 anion
1 6 acceptor
6 10 12 13 15 16 17 rings

> <PUBCHEM_HEAVY_ATOM_COUNT>
17

> <PUBCHEM_ATOM_DEF_STEREO_COUNT>
0

> <PUBCHEM_ATOM_UDEF_STEREO_COUNT>
1

> <PUBCHEM_BOND_DEF_STEREO_COUNT>
0

> <PUBCHEM_BOND_UDEF_STEREO_COUNT>
0

> <PUBCHEM_ISOTOPIC_ATOM_COUNT>
0

> <PUBCHEM_COMPONENT_COUNT>
1

> <PUBCHEM_CACTVS_TAUTO_COUNT>
1

> <PUBCHEM_CONFORMER_ID>
0001021300000001

> <PUBCHEM_MMFF94_ENERGY>
31.7397

> <PUBCHEM_FEATURE_SELFOVERLAP>
25.453

> <PUBCHEM_SHAPE_FINGERPRINT>
10062212 137 18131073714149991899
10366900 7 17167863079707626074
12236239 1 18131349726360792617
12346177 29 18333737884005275831
124424 183 17240483619451487136
12500047 106 18335145310312144927
13533116 47 17605273071950295727
13583140 156 17313394409175581122
13760787 19 18412261735996069998
13760787 5 16917353632402137902
14115302 16 18408318878577211181
15375358 24 17095524002308826541
16752209 62 18337401431227505055
18186145 218 14620794881966785356
187816 3 17967819379574203449
19141452 34 18341615944520610310
200 152 17918273168727218329
20279233 1 17167576090108997461
20600515 1 18114172039010175297
20645476 183 18343022203361493515
20645477 70 16200155443330350474
23402539 116 18412549811899664924
23402655 69 17704075122444989604
23557571 272 18040710325499304895
23559900 14 18113897161408432716
23598288 3 18196637528659607479
23598291 2 17988359256933121463
5281201 14 12607404416637173718
633830 44 16773792598028412644
81228 2 17169245209148460609
90127 26 16298100995694610600

> <PUBCHEM_SHAPE_MULTIPOLES>
319.37
9.31
1.93
1.27
3.59
2.15
-0.1
-0.02
-0.75
-2.99
0.33
0.47
-0.23
-1.01

> <PUBCHEM_SHAPE_SELFOVERLAP>
631.379

> <PUBCHEM_SHAPE_VOLUME>
191.5

> <PUBCHEM_COORDINATE_TYPE>
2
5
10

$$$$

