3035206
  -OEChem-07051213092D

 63 64  0     1  0  0  0  0  0999 V2000
    8.9282   -2.1900    0.0000 O   0  0  0  0  0  0  0  0  0  0  0  0
    8.0622    0.3100    0.0000 O   0  0  0  0  0  0  0  0  0  0  0  0
    4.5981   -0.6900    0.0000 O   0  0  0  0  0  0  0  0  0  0  0  0
    8.0622   -1.6900    0.0000 O   0  0  0  0  0  0  0  0  0  0  0  0
    2.0000    3.8100    0.0000 O   0  0  0  0  0  0  0  0  0  0  0  0
    5.4641   -4.1900    0.0000 O   0  0  0  0  0  0  0  0  0  0  0  0
    7.1962   -1.1900    0.0000 N   0  0  0  0  0  0  0  0  0  0  0  0
    5.4641   -2.1900    0.0000 N   0  0  0  0  0  0  0  0  0  0  0  0
    7.1962   -4.1900    0.0000 N   0  0  0  0  0  0  0  0  0  0  0  0
    6.3301   -0.6900    0.0000 C   0  0  1  0  0  0  0  0  0  0  0  0
    6.3301    0.3100    0.0000 C   0  0  0  0  0  0  0  0  0  0  0  0
    8.9282   -1.1900    0.0000 C   0  0  1  0  0  0  0  0  0  0  0  0
    9.7942   -0.6900    0.0000 C   0  0  0  0  0  0  0  0  0  0  0  0
    5.4641    0.8100    0.0000 C   0  0  0  0  0  0  0  0  0  0  0  0
    8.0622   -0.6900    0.0000 C   0  0  0  0  0  0  0  0  0  0  0  0
    5.4641    1.8100    0.0000 C   0  0  0  0  0  0  0  0  0  0  0  0
    5.4641   -1.1900    0.0000 C   0  0  0  0  0  0  0  0  0  0  0  0
   10.6603   -1.1900    0.0000 C   0  0  0  0  0  0  0  0  0  0  0  0
    9.7942    0.3100    0.0000 C   0  0  0  0  0  0  0  0  0  0  0  0
    4.5981    2.3100    0.0000 C   0  0  0  0  0  0  0  0  0  0  0  0
    8.0622   -3.6900    0.0000 C   0  0  2  0  0  0  0  0  0  0  0  0
    8.0622   -2.6900    0.0000 C   0  0  0  0  0  0  0  0  0  0  0  0
    4.5981    3.3100    0.0000 C   0  0  0  0  0  0  0  0  0  0  0  0
    3.7320    1.8100    0.0000 C   0  0  0  0  0  0  0  0  0  0  0  0
    6.3301   -2.6900    0.0000 C   0  0  0  0  0  0  0  0  0  0  0  0
    8.9282   -4.1900    0.0000 C   0  0  0  0  0  0  0  0  0  0  0  0
    6.3301   -3.6900    0.0000 C   0  0  0  0  0  0  0  0  0  0  0  0
    3.7320    3.8100    0.0000 C   0  0  0  0  0  0  0  0  0  0  0  0
    2.8660    2.3100    0.0000 C   0  0  0  0  0  0  0  0  0  0  0  0
    2.8660    3.3100    0.0000 C   0  0  0  0  0  0  0  0  0  0  0  0
    6.3301   -1.6900    0.0000 C   0  0  0  0  0  0  0  0  0  0  0  0
    2.0000    4.8100    0.0000 C   0  0  0  0  0  0  0  0  0  0  0  0
    6.8671   -0.3800    0.0000 H   0  0  0  0  0  0  0  0  0  0  0  0
    6.9407    0.2023    0.0000 H   0  0  0  0  0  0  0  0  0  0  0  0
    6.5422    0.8926    0.0000 H   0  0  0  0  0  0  0  0  0  0  0  0
    9.4651   -1.5000    0.0000 H   0  0  0  0  0  0  0  0  0  0  0  0
    9.2573   -0.3800    0.0000 H   0  0  0  0  0  0  0  0  0  0  0  0
    4.8535    0.9177    0.0000 H   0  0  0  0  0  0  0  0  0  0  0  0
    5.2520    0.2274    0.0000 H   0  0  0  0  0  0  0  0  0  0  0  0
    7.1962   -1.8100    0.0000 H   0  0  0  0  0  0  0  0  0  0  0  0
    6.0747    1.7023    0.0000 H   0  0  0  0  0  0  0  0  0  0  0  0
    5.6762    2.3926    0.0000 H   0  0  0  0  0  0  0  0  0  0  0  0
   10.3503   -1.7269    0.0000 H   0  0  0  0  0  0  0  0  0  0  0  0
   11.1972   -1.5000    0.0000 H   0  0  0  0  0  0  0  0  0  0  0  0
   10.9703   -0.6531    0.0000 H   0  0  0  0  0  0  0  0  0  0  0  0
   10.4142    0.3100    0.0000 H   0  0  0  0  0  0  0  0  0  0  0  0
    9.7942    0.9300    0.0000 H   0  0  0  0  0  0  0  0  0  0  0  0
    9.1742    0.3100    0.0000 H   0  0  0  0  0  0  0  0  0  0  0  0
    8.0622   -4.3100    0.0000 H   0  0  0  0  0  0  0  0  0  0  0  0
    4.9272   -2.5000    0.0000 H   0  0  0  0  0  0  0  0  0  0  0  0
    5.1350    3.6200    0.0000 H   0  0  0  0  0  0  0  0  0  0  0  0
    3.7320    1.1900    0.0000 H   0  0  0  0  0  0  0  0  0  0  0  0
    7.1962   -4.8100    0.0000 H   0  0  0  0  0  0  0  0  0  0  0  0
    8.6182   -4.7269    0.0000 H   0  0  0  0  0  0  0  0  0  0  0  0
    9.4651   -4.5000    0.0000 H   0  0  0  0  0  0  0  0  0  0  0  0
    9.2382   -3.6531    0.0000 H   0  0  0  0  0  0  0  0  0  0  0  0
    3.7320    4.4300    0.0000 H   0  0  0  0  0  0  0  0  0  0  0  0
    2.3291    2.0000    0.0000 H   0  0  0  0  0  0  0  0  0  0  0  0
    6.8671   -1.3800    0.0000 H   0  0  0  0  0  0  0  0  0  0  0  0
    5.7932   -1.3800    0.0000 H   0  0  0  0  0  0  0  0  0  0  0  0
    2.6200    4.8100    0.0000 H   0  0  0  0  0  0  0  0  0  0  0  0
    2.0000    5.4300    0.0000 H   0  0  0  0  0  0  0  0  0  0  0  0
    1.3800    4.8100    0.0000 H   0  0  0  0  0  0  0  0  0  0  0  0
  1 12  1  0  0  0  0
  1 22  1  0  0  0  0
  2 15  2  0  0  0  0
  3 17  2  0  0  0  0
  4 22  2  0  0  0  0
  5 30  1  0  0  0  0
  5 32  1  0  0  0  0
  6 27  2  0  0  0  0
  7 10  1  0  0  0  0
  7 15  1  0  0  0  0
  7 40  1  0  0  0  0
  8 17  1  0  0  0  0
  8 25  1  0  0  0  0
  8 50  1  0  0  0  0
  9 21  1  0  0  0  0
  9 27  1  0  0  0  0
  9 53  1  0  0  0  0
 10 11  1  6  0  0  0
 10 17  1  0  0  0  0
 10 33  1  0  0  0  0
 11 14  1  0  0  0  0
 11 34  1  0  0  0  0
 11 35  1  0  0  0  0
 12 13  1  6  0  0  0
 12 15  1  0  0  0  0
 12 36  1  0  0  0  0
 13 18  1  0  0  0  0
 13 19  1  0  0  0  0
 13 37  1  0  0  0  0
 14 16  1  0  0  0  0
 14 38  1  0  0  0  0
 14 39  1  0  0  0  0
 16 20  1  0  0  0  0
 16 41  1  0  0  0  0
 16 42  1  0  0  0  0
 18 43  1  0  0  0  0
 18 44  1  0  0  0  0
 18 45  1  0  0  0  0
 19 46  1  0  0  0  0
 19 47  1  0  0  0  0
 19 48  1  0  0  0  0
 20 23  2  0  0  0  0
 20 24  1  0  0  0  0
 21 22  1  0  0  0  0
 21 26  1  6  0  0  0
 21 49  1  0  0  0  0
 23 28  1  0  0  0  0
 23 51  1  0  0  0  0
 24 29  2  0  0  0  0
 24 52  1  0  0  0  0
 25 27  1  0  0  0  0
 25 31  2  0  0  0  0
 26 54  1  0  0  0  0
 26 55  1  0  0  0  0
 26 56  1  0  0  0  0
 28 30  2  0  0  0  0
 28 57  1  0  0  0  0
 29 30  1  0  0  0  0
 29 58  1  0  0  0  0
 31 59  1  0  0  0  0
 31 60  1  0  0  0  0
 32 61  1  0  0  0  0
 32 62  1  0  0  0  0
 32 63  1  0  0  0  0
M  END
> <PUBCHEM_COMPOUND_CID>
3035206

> <PUBCHEM_COMPOUND_CANONICALIZED>
1

> <PUBCHEM_CACTVS_COMPLEXITY>
715

> <PUBCHEM_CACTVS_HBOND_ACCEPTOR>
6

> <PUBCHEM_CACTVS_HBOND_DONOR>
3

> <PUBCHEM_CACTVS_ROTATABLE_BOND>
6

> <PUBCHEM_CACTVS_SUBSKEYS>
AAADceB7OAAAAAAAAAAAAAAAAAAAAAAAAAAwAAAAAAAAAAABAAAAHgAQAAAADTzhmAYyDoLABACIAiXSWAKCCAAgIgAIiIHOCMgOZjKEsT6XMCAk1hGYqIeYyOCOIAAAAAAAAABAAAAAAAAAAAAAAAAAAA==

> <PUBCHEM_IUPAC_OPENEYE_NAME>
(3S,9S,12S)-12-isopropyl-9-[3-(4-methoxyphenyl)propyl]-3-methyl-6-methylene-1-oxa-4,7,10-triazacyclododecane-2,5,8,11-tetrone

> <PUBCHEM_IUPAC_CAS_NAME>
(3S,9S,12S)-9-[3-(4-methoxyphenyl)propyl]-3-methyl-6-methylene-12-propan-2-yl-1-oxa-4,7,10-triazacyclododecane-2,5,8,11-tetrone

> <PUBCHEM_IUPAC_NAME>
(3S,9S,12S)-9-[3-(4-methoxyphenyl)propyl]-3-methyl-6-methylidene-12-propan-2-yl-1-oxa-4,7,10-triazacyclododecane-2,5,8,11-tetrone

> <PUBCHEM_IUPAC_SYSTEMATIC_NAME>
(3S,9S,12S)-9-[3-(4-methoxyphenyl)propyl]-3-methyl-6-methylidene-12-propan-2-yl-1-oxa-4,7,10-triazacyclododecane-2,5,8,11-tetrone

> <PUBCHEM_IUPAC_TRADITIONAL_NAME>
(3S,9S,12S)-12-isopropyl-9-[3-(4-methoxyphenyl)propyl]-3-methyl-6-methylene-1-oxa-4,7,10-triazacyclododecane-2,5,8,11-diquinone

> <PUBCHEM_IUPAC_INCHI>
InChI=1S/C23H31N3O6/c1-13(2)19-22(29)26-18(8-6-7-16-9-11-17(31-5)12-10-16)21(28)24-14(3)20(27)25-15(4)23(30)32-19/h9-13,15,18-19H,3,6-8H2,1-2,4-5H3,(H,24,28)(H,25,27)(H,26,29)/t15-,18-,19-/m0/s1

> <PUBCHEM_IUPAC_INCHIKEY>
SYONRRYXABHFOE-SNRMKQJTSA-N

> <PUBCHEM_XLOGP3_AA>
3

> <PUBCHEM_EXACT_MASS>
445.221286

> <PUBCHEM_MOLECULAR_FORMULA>
C23H31N3O6

> <PUBCHEM_MOLECULAR_WEIGHT>
445.50874

> <PUBCHEM_OPENEYE_CAN_SMILES>
CC1C(=O)OC(C(=O)NC(C(=O)NC(=C)C(=O)N1)CCCC2=CC=C(C=C2)OC)C(C)C

> <PUBCHEM_OPENEYE_ISO_SMILES>
C[C@H]1C(=O)O[C@H](C(=O)N[C@H](C(=O)NC(=C)C(=O)N1)CCCC2=CC=C(C=C2)OC)C(C)C

> <PUBCHEM_CACTVS_TPSA>
123

> <PUBCHEM_MONOISOTOPIC_WEIGHT>
445.221286

> <PUBCHEM_TOTAL_CHARGE>
0

> <PUBCHEM_HEAVY_ATOM_COUNT>
32

> <PUBCHEM_ATOM_DEF_STEREO_COUNT>
3

> <PUBCHEM_ATOM_UDEF_STEREO_COUNT>
0

> <PUBCHEM_BOND_DEF_STEREO_COUNT>
0

> <PUBCHEM_BOND_UDEF_STEREO_COUNT>
0

> <PUBCHEM_ISOTOPIC_ATOM_COUNT>
0

> <PUBCHEM_COMPONENT_COUNT>
1

> <PUBCHEM_CACTVS_TAUTO_COUNT>
174

> <PUBCHEM_COORDINATE_TYPE>
1
5
255

> <PUBCHEM_BONDANNOTATIONS>
10  11  6
12  13  6
20  23  8
20  24  8
21  26  6
23  28  8
24  29  8
28  30  8
29  30  8

$$$$

