4418
  -OEChem-06261200063D

 57 60  0     1  0  0  0  0  0999 V2000
   -2.7073    4.0697   -0.8202 O   0  0  0  0  0  0  0  0  0  0  0  0
   -3.4854    1.5352    0.0177 O   0  0  0  0  0  0  0  0  0  0  0  0
    4.5791   -0.1462   -1.6463 O   0  0  0  0  0  0  0  0  0  0  0  0
    0.0167    1.5857   -0.4203 N   0  0  0  0  0  0  0  0  0  0  0  0
    2.5800    0.5099    0.2364 N   0  0  0  0  0  0  0  0  0  0  0  0
    0.7711    0.8076   -1.4109 C   0  0  0  0  0  0  0  0  0  0  0  0
    0.9431    2.3402    0.4325 C   0  0  0  0  0  0  0  0  0  0  0  0
    1.7154   -0.1835   -0.7267 C   0  0  0  0  0  0  0  0  0  0  0  0
    1.8944    1.4006    1.1777 C   0  0  0  0  0  0  0  0  0  0  0  0
   -0.9211    2.4899   -1.0848 C   0  0  0  0  0  0  0  0  0  0  0  0
   -1.8009    3.2433   -0.0843 C   0  0  2  0  0  0  0  0  0  0  0  0
    3.7746   -0.1130    0.6149 C   0  0  0  0  0  0  0  0  0  0  0  0
   -2.6115    2.3203    0.8230 C   0  0  0  0  0  0  0  0  0  0  0  0
    4.7706   -0.4389   -0.3289 C   0  0  0  0  0  0  0  0  0  0  0  0
    4.0158   -0.4343    1.9662 C   0  0  0  0  0  0  0  0  0  0  0  0
    5.9570   -1.0593    0.0626 C   0  0  0  0  0  0  0  0  0  0  0  0
    5.2022   -1.0549    2.3575 C   0  0  0  0  0  0  0  0  0  0  0  0
    6.1727   -1.3674    1.4058 C   0  0  0  0  0  0  0  0  0  0  0  0
   -3.7909    0.2836    0.4815 C   0  0  0  0  0  0  0  0  0  0  0  0
   -3.4808   -0.8639   -0.2633 C   0  0  0  0  0  0  0  0  0  0  0  0
   -3.8174   -2.1358    0.2579 C   0  0  0  0  0  0  0  0  0  0  0  0
   -4.4224    0.1847    1.7199 C   0  0  0  0  0  0  0  0  0  0  0  0
    5.6254   -0.5024   -2.5473 C   0  0  0  0  0  0  0  0  0  0  0  0
   -2.8448   -0.7801   -1.5126 C   0  0  0  0  0  0  0  0  0  0  0  0
   -4.4532   -2.2198    1.5075 C   0  0  0  0  0  0  0  0  0  0  0  0
   -4.7532   -1.0662    2.2326 C   0  0  0  0  0  0  0  0  0  0  0  0
   -3.5081   -3.2865   -0.4853 C   0  0  0  0  0  0  0  0  0  0  0  0
   -2.5451   -1.9338   -2.2377 C   0  0  0  0  0  0  0  0  0  0  0  0
   -2.8763   -3.1847   -1.7251 C   0  0  0  0  0  0  0  0  0  0  0  0
    0.0837    0.2398   -2.0484 H   0  0  0  0  0  0  0  0  0  0  0  0
    1.3501    1.4716   -2.0669 H   0  0  0  0  0  0  0  0  0  0  0  0
    1.5253    3.0564   -0.1629 H   0  0  0  0  0  0  0  0  0  0  0  0
    0.4194    2.9059    1.2083 H   0  0  0  0  0  0  0  0  0  0  0  0
    2.2755   -0.7139   -1.5024 H   0  0  0  0  0  0  0  0  0  0  0  0
    1.1296   -0.9434   -0.1922 H   0  0  0  0  0  0  0  0  0  0  0  0
    2.6189    2.0150    1.7267 H   0  0  0  0  0  0  0  0  0  0  0  0
    1.3288    0.8074    1.9079 H   0  0  0  0  0  0  0  0  0  0  0  0
   -1.5580    1.9542   -1.7934 H   0  0  0  0  0  0  0  0  0  0  0  0
   -0.3842    3.2246   -1.7022 H   0  0  0  0  0  0  0  0  0  0  0  0
   -1.2088    3.9324    0.5248 H   0  0  0  0  0  0  0  0  0  0  0  0
   -1.9506    1.6941    1.4346 H   0  0  0  0  0  0  0  0  0  0  0  0
   -3.2331    2.9241    1.4947 H   0  0  0  0  0  0  0  0  0  0  0  0
    3.2788   -0.2196    2.7360 H   0  0  0  0  0  0  0  0  0  0  0  0
   -3.2477    4.5590   -0.1766 H   0  0  0  0  0  0  0  0  0  0  0  0
    6.7556   -1.3324   -0.6183 H   0  0  0  0  0  0  0  0  0  0  0  0
    5.3694   -1.2978    3.4029 H   0  0  0  0  0  0  0  0  0  0  0  0
    7.0957   -1.8514    1.7119 H   0  0  0  0  0  0  0  0  0  0  0  0
   -4.6727    1.0730    2.2934 H   0  0  0  0  0  0  0  0  0  0  0  0
    5.7785   -1.5864   -2.5807 H   0  0  0  0  0  0  0  0  0  0  0  0
    5.3044   -0.1973   -3.5489 H   0  0  0  0  0  0  0  0  0  0  0  0
    6.5494    0.0444   -2.3307 H   0  0  0  0  0  0  0  0  0  0  0  0
   -2.6049    0.1747   -1.9632 H   0  0  0  0  0  0  0  0  0  0  0  0
   -4.7215   -3.1871    1.9273 H   0  0  0  0  0  0  0  0  0  0  0  0
   -5.2473   -1.1450    3.1966 H   0  0  0  0  0  0  0  0  0  0  0  0
   -3.7579   -4.2746   -0.1042 H   0  0  0  0  0  0  0  0  0  0  0  0
   -2.0602   -1.8547   -3.2064 H   0  0  0  0  0  0  0  0  0  0  0  0
   -2.6443   -4.0823   -2.2909 H   0  0  0  0  0  0  0  0  0  0  0  0
  1 11  1  0  0  0  0
  1 44  1  0  0  0  0
  2 13  1  0  0  0  0
  2 19  1  0  0  0  0
  3 14  1  0  0  0  0
  3 23  1  0  0  0  0
  4  6  1  0  0  0  0
  4  7  1  0  0  0  0
  4 10  1  0  0  0  0
  5  8  1  0  0  0  0
  5  9  1  0  0  0  0
  5 12  1  0  0  0  0
  6  8  1  0  0  0  0
  6 30  1  0  0  0  0
  6 31  1  0  0  0  0
  7  9  1  0  0  0  0
  7 32  1  0  0  0  0
  7 33  1  0  0  0  0
  8 34  1  0  0  0  0
  8 35  1  0  0  0  0
  9 36  1  0  0  0  0
  9 37  1  0  0  0  0
 10 11  1  0  0  0  0
 10 38  1  0  0  0  0
 10 39  1  0  0  0  0
 11 13  1  0  0  0  0
 11 40  1  0  0  0  0
 12 14  1  0  0  0  0
 12 15  2  0  0  0  0
 13 41  1  0  0  0  0
 13 42  1  0  0  0  0
 14 16  2  0  0  0  0
 15 17  1  0  0  0  0
 15 43  1  0  0  0  0
 16 18  1  0  0  0  0
 16 45  1  0  0  0  0
 17 18  2  0  0  0  0
 17 46  1  0  0  0  0
 18 47  1  0  0  0  0
 19 20  1  0  0  0  0
 19 22  2  0  0  0  0
 20 21  1  0  0  0  0
 20 24  2  0  0  0  0
 21 25  1  0  0  0  0
 21 27  2  0  0  0  0
 22 26  1  0  0  0  0
 22 48  1  0  0  0  0
 23 49  1  0  0  0  0
 23 50  1  0  0  0  0
 23 51  1  0  0  0  0
 24 28  1  0  0  0  0
 24 52  1  0  0  0  0
 25 26  2  0  0  0  0
 25 53  1  0  0  0  0
 26 54  1  0  0  0  0
 27 29  1  0  0  0  0
 27 55  1  0  0  0  0
 28 29  2  0  0  0  0
 28 56  1  0  0  0  0
 29 57  1  0  0  0  0
M  END
> <PUBCHEM_COMPOUND_CID>
4418

> <PUBCHEM_CONFORMER_RMSD>
1.2

> <PUBCHEM_CONFORMER_DIVERSEORDER>
5
344
503
190
169
30
43
261
329
59
452
434
285
20
181
303
105
163
322
158
173
155
511
345
55
137
268
110
167
499
336
222
38
64
33
255
247
410
48
305
471
49
347
115
192
24
66
509
162
9
95
31
351
383
177
32
260
290
132
178
368
342
99
18
79
74
204
335
501
404
126
218
297
328
500
25
41
148
273
340
29
131
27
108
201
80
394
254
60
19
392
4
47
11
45
420
300
56
7
397
129
113
186
293
362
98
355
172
15
14
82
121
313
72
3
438
70
17
42
26
90
1
226
228
10
161
6
44

> <PUBCHEM_MMFF94_PARTIAL_CHARGES>
39
1 -0.68
10 0.27
11 0.28
12 0.1
13 0.28
14 0.08
15 -0.15
16 -0.15
17 -0.15
18 -0.15
19 0.08
2 -0.36
22 -0.15
23 0.28
24 -0.15
25 -0.15
26 -0.15
27 -0.15
28 -0.15
29 -0.15
3 -0.36
4 -0.81
43 0.15
44 0.4
45 0.15
46 0.15
47 0.15
48 0.15
5 -0.84
52 0.15
53 0.15
54 0.15
55 0.15
56 0.15
57 0.15
6 0.27
7 0.27
8 0.37
9 0.37

> <PUBCHEM_EFFECTIVE_ROTOR_COUNT>
8.2

> <PUBCHEM_PHARMACOPHORE_FEATURES>
10
1 1 acceptor
1 1 donor
1 2 acceptor
1 3 acceptor
1 4 cation
1 5 cation
6 12 14 15 16 17 18 rings
6 19 20 21 22 25 26 rings
6 20 21 24 27 28 29 rings
6 4 5 6 7 8 9 rings

> <PUBCHEM_HEAVY_ATOM_COUNT>
29

> <PUBCHEM_ATOM_DEF_STEREO_COUNT>
0

> <PUBCHEM_ATOM_UDEF_STEREO_COUNT>
1

> <PUBCHEM_BOND_DEF_STEREO_COUNT>
0

> <PUBCHEM_BOND_UDEF_STEREO_COUNT>
0

> <PUBCHEM_ISOTOPIC_ATOM_COUNT>
0

> <PUBCHEM_COMPONENT_COUNT>
1

> <PUBCHEM_CACTVS_TAUTO_COUNT>
1

> <PUBCHEM_CONFORMER_ID>
0000114200000005

> <PUBCHEM_MMFF94_ENERGY>
110.5851

> <PUBCHEM_FEATURE_SELFOVERLAP>
50.777

> <PUBCHEM_SHAPE_FINGERPRINT>
10462674 125 15651597890599890494
10483366 6 18192179108457395061
10928967 22 18271253720314843962
11135609 99 18050579731851733778
11370993 144 16660356000206810486
11524674 6 18041283287533351981
11991303 11 17773327935799389069
12422481 6 17894899720394711287
12633257 1 17603580790595577241
13103583 49 18261670389714386979
14114206 34 17703524224454585225
14674994 50 17677637310016374685
14844126 61 18339934795958597673
15537594 2 18271800233232660282
15685185 35 17123924182245938652
16110190 28 18188475892221548969
16991981 162 14691475947571428655
19377110 9 18272937099072048588
20775530 9 18197497325156106035
21033648 29 17677043663551977625
22393880 68 13542197099217182802
3383291 50 18260555533022952719
3459 110 17532108115041910528
44880168 125 17968085460623559606
484985 159 18270417052443444607
497634 4 16486965211503647427
508706 21 18187087277512474214
602551 16 18334016116376337446
6431902 208 18131359609080788266
7970288 3 18129941170240414635

> <PUBCHEM_SHAPE_MULTIPOLES>
569.24
14.22
3.75
2.34
17.13
1.86
0.01
-9.11
4.31
-5.68
-1.07
1.01
-1.12
-0.68

> <PUBCHEM_SHAPE_SELFOVERLAP>
1223.453

> <PUBCHEM_SHAPE_VOLUME>
314.4

> <PUBCHEM_COORDINATE_TYPE>
2
5
10

$$$$

