6744
  -OEChem-06261201293D

 80 83  0     1  0  0  0  0  0999 V2000
    7.2488    2.2988    0.2411 O   0  0  0  0  0  0  0  0  0  0  0  0
   -0.6678   -1.3534   -0.4071 C   0  0  1  0  0  0  0  0  0  0  0  0
    0.4616   -1.9125    0.4808 C   0  0  2  0  0  0  0  0  0  0  0  0
    1.8594   -1.4794    0.0272 C   0  0  1  0  0  0  0  0  0  0  0  0
    1.9436    0.0748    0.0154 C   0  0  1  0  0  0  0  0  0  0  0  0
   -1.8809   -2.0223    0.2844 C   0  0  2  0  0  0  0  0  0  0  0  0
   -0.6274    0.1771   -0.2956 C   0  0  0  0  0  0  0  0  0  0  0  0
    3.3585    0.5739   -0.4841 C   0  0  2  0  0  0  0  0  0  0  0  0
    0.1472   -3.4026    0.5724 C   0  0  0  0  0  0  0  0  0  0  0  0
    0.7429    0.7360   -0.7162 C   0  0  0  0  0  0  0  0  0  0  0  0
   -1.3917   -3.4617    0.5698 C   0  0  0  0  0  0  0  0  0  0  0  0
    2.9368   -2.0603    0.9553 C   0  0  0  0  0  0  0  0  0  0  0  0
   -3.2015   -1.9844   -0.4711 C   0  0  2  0  0  0  0  0  0  0  0  0
   -0.5691   -1.7769   -1.8938 C   0  0  0  0  0  0  0  0  0  0  0  0
    4.4856   -0.2405    0.1663 C   0  0  0  0  0  0  0  0  0  0  0  0
    3.5163    2.0717   -0.0853 C   0  0  0  0  0  0  0  0  0  0  0  0
    4.2704   -1.4000    0.8118 C   0  0  0  0  0  0  0  0  0  0  0  0
    3.4941    0.4357   -2.0197 C   0  0  0  0  0  0  0  0  0  0  0  0
    5.8867    0.3170    0.0653 C   0  0  0  0  0  0  0  0  0  0  0  0
   -3.6088   -0.5223   -0.7505 C   0  0  0  0  0  0  0  0  0  0  0  0
    4.9310    2.6233   -0.2564 C   0  0  0  0  0  0  0  0  0  0  0  0
    5.9490    1.7783    0.5009 C   0  0  2  0  0  0  0  0  0  0  0  0
   -4.2790   -2.7403    0.3138 C   0  0  0  0  0  0  0  0  0  0  0  0
   -3.9019    0.3494    0.4818 C   0  0  0  0  0  0  0  0  0  0  0  0
   -4.4016    1.7904    0.2009 C   0  0  1  0  0  0  0  0  0  0  0  0
   -5.5889    1.8069   -0.8142 C   0  0  0  0  0  0  0  0  0  0  0  0
   -4.7196    2.5240    1.5275 C   0  0  0  0  0  0  0  0  0  0  0  0
   -6.0471    3.2323   -1.1484 C   0  0  0  0  0  0  0  0  0  0  0  0
   -6.7939    0.9701   -0.3759 C   0  0  0  0  0  0  0  0  0  0  0  0
   -3.5527    2.5969    2.5035 C   0  0  0  0  0  0  0  0  0  0  0  0
    0.3267   -1.5117    1.5000 H   0  0  0  0  0  0  0  0  0  0  0  0
    2.0489   -1.8644   -0.9810 H   0  0  0  0  0  0  0  0  0  0  0  0
    1.8486    0.3873    1.0683 H   0  0  0  0  0  0  0  0  0  0  0  0
   -2.0226   -1.5518    1.2685 H   0  0  0  0  0  0  0  0  0  0  0  0
   -0.8099    0.4862    0.7407 H   0  0  0  0  0  0  0  0  0  0  0  0
   -1.3500    0.6972   -0.9175 H   0  0  0  0  0  0  0  0  0  0  0  0
    0.5610   -3.8535    1.4802 H   0  0  0  0  0  0  0  0  0  0  0  0
    0.5522   -3.9517   -0.2848 H   0  0  0  0  0  0  0  0  0  0  0  0
    0.8426    0.6213   -1.7995 H   0  0  0  0  0  0  0  0  0  0  0  0
    0.7429    1.8146   -0.5210 H   0  0  0  0  0  0  0  0  0  0  0  0
   -1.7257   -4.1739   -0.1934 H   0  0  0  0  0  0  0  0  0  0  0  0
   -1.7683   -3.8140    1.5367 H   0  0  0  0  0  0  0  0  0  0  0  0
    3.0500   -3.1308    0.7456 H   0  0  0  0  0  0  0  0  0  0  0  0
    2.6303   -1.9741    2.0053 H   0  0  0  0  0  0  0  0  0  0  0  0
   -3.1035   -2.4925   -1.4384 H   0  0  0  0  0  0  0  0  0  0  0  0
   -1.3451   -1.2970   -2.4987 H   0  0  0  0  0  0  0  0  0  0  0  0
    0.3870   -1.5010   -2.3467 H   0  0  0  0  0  0  0  0  0  0  0  0
   -0.6770   -2.8579   -2.0278 H   0  0  0  0  0  0  0  0  0  0  0  0
    3.2296    2.2035    0.9671 H   0  0  0  0  0  0  0  0  0  0  0  0
    2.8323    2.6969   -0.6715 H   0  0  0  0  0  0  0  0  0  0  0  0
    5.1070   -1.9212    1.2711 H   0  0  0  0  0  0  0  0  0  0  0  0
    3.2818   -0.5843   -2.3565 H   0  0  0  0  0  0  0  0  0  0  0  0
    2.8152    1.1125   -2.5484 H   0  0  0  0  0  0  0  0  0  0  0  0
    4.5014    0.6808   -2.3728 H   0  0  0  0  0  0  0  0  0  0  0  0
    6.5978   -0.2608    0.6699 H   0  0  0  0  0  0  0  0  0  0  0  0
    6.2498    0.2185   -0.9655 H   0  0  0  0  0  0  0  0  0  0  0  0
   -2.9648   -0.0321   -1.4761 H   0  0  0  0  0  0  0  0  0  0  0  0
   -4.5491   -0.6147   -1.3099 H   0  0  0  0  0  0  0  0  0  0  0  0
    5.1988    2.6783   -1.3189 H   0  0  0  0  0  0  0  0  0  0  0  0
    4.9685    3.6583    0.1056 H   0  0  0  0  0  0  0  0  0  0  0  0
    5.7694    1.8503    1.5808 H   0  0  0  0  0  0  0  0  0  0  0  0
   -5.2630   -2.6023   -0.1471 H   0  0  0  0  0  0  0  0  0  0  0  0
   -4.3419   -2.4054    1.3542 H   0  0  0  0  0  0  0  0  0  0  0  0
   -4.0798   -3.8168    0.3243 H   0  0  0  0  0  0  0  0  0  0  0  0
   -2.9962    0.4154    1.0867 H   0  0  0  0  0  0  0  0  0  0  0  0
   -4.6419   -0.1533    1.1151 H   0  0  0  0  0  0  0  0  0  0  0  0
   -3.5701    2.3287   -0.2761 H   0  0  0  0  0  0  0  0  0  0  0  0
    7.2621    3.2221    0.5461 H   0  0  0  0  0  0  0  0  0  0  0  0
   -5.2245    1.3899   -1.7613 H   0  0  0  0  0  0  0  0  0  0  0  0
   -5.0216    3.5541    1.3098 H   0  0  0  0  0  0  0  0  0  0  0  0
   -5.5662    2.0454    2.0323 H   0  0  0  0  0  0  0  0  0  0  0  0
   -5.1949    3.8633   -1.4212 H   0  0  0  0  0  0  0  0  0  0  0  0
   -6.5726    3.7008   -0.3104 H   0  0  0  0  0  0  0  0  0  0  0  0
   -6.7369    3.2209   -1.9997 H   0  0  0  0  0  0  0  0  0  0  0  0
   -7.5733    0.9931   -1.1459 H   0  0  0  0  0  0  0  0  0  0  0  0
   -7.2356    1.3555    0.5484 H   0  0  0  0  0  0  0  0  0  0  0  0
   -6.5350   -0.0794   -0.2154 H   0  0  0  0  0  0  0  0  0  0  0  0
   -3.3212    1.6170    2.9309 H   0  0  0  0  0  0  0  0  0  0  0  0
   -3.8036    3.2623    3.3362 H   0  0  0  0  0  0  0  0  0  0  0  0
   -2.6547    2.9890    2.0161 H   0  0  0  0  0  0  0  0  0  0  0  0
  1 22  1  0  0  0  0
  1 68  1  0  0  0  0
  2  3  1  0  0  0  0
  2  6  1  0  0  0  0
  2  7  1  0  0  0  0
  2 14  1  0  0  0  0
  3  4  1  0  0  0  0
  3  9  1  0  0  0  0
  3 31  1  0  0  0  0
  4  5  1  0  0  0  0
  4 12  1  0  0  0  0
  4 32  1  0  0  0  0
  5  8  1  0  0  0  0
  5 10  1  0  0  0  0
  5 33  1  0  0  0  0
  6 11  1  0  0  0  0
  6 13  1  0  0  0  0
  6 34  1  0  0  0  0
  7 10  1  0  0  0  0
  7 35  1  0  0  0  0
  7 36  1  0  0  0  0
  8 15  1  0  0  0  0
  8 16  1  0  0  0  0
  8 18  1  0  0  0  0
  9 11  1  0  0  0  0
  9 37  1  0  0  0  0
  9 38  1  0  0  0  0
 10 39  1  0  0  0  0
 10 40  1  0  0  0  0
 11 41  1  0  0  0  0
 11 42  1  0  0  0  0
 12 17  1  0  0  0  0
 12 43  1  0  0  0  0
 12 44  1  0  0  0  0
 13 20  1  0  0  0  0
 13 23  1  0  0  0  0
 13 45  1  0  0  0  0
 14 46  1  0  0  0  0
 14 47  1  0  0  0  0
 14 48  1  0  0  0  0
 15 17  2  0  0  0  0
 15 19  1  0  0  0  0
 16 21  1  0  0  0  0
 16 49  1  0  0  0  0
 16 50  1  0  0  0  0
 17 51  1  0  0  0  0
 18 52  1  0  0  0  0
 18 53  1  0  0  0  0
 18 54  1  0  0  0  0
 19 22  1  0  0  0  0
 19 55  1  0  0  0  0
 19 56  1  0  0  0  0
 20 24  1  0  0  0  0
 20 57  1  0  0  0  0
 20 58  1  0  0  0  0
 21 22  1  0  0  0  0
 21 59  1  0  0  0  0
 21 60  1  0  0  0  0
 22 61  1  0  0  0  0
 23 62  1  0  0  0  0
 23 63  1  0  0  0  0
 23 64  1  0  0  0  0
 24 25  1  0  0  0  0
 24 65  1  0  0  0  0
 24 66  1  0  0  0  0
 25 26  1  0  0  0  0
 25 27  1  0  0  0  0
 25 67  1  0  0  0  0
 26 28  1  0  0  0  0
 26 29  1  0  0  0  0
 26 69  1  0  0  0  0
 27 30  1  0  0  0  0
 27 70  1  0  0  0  0
 27 71  1  0  0  0  0
 28 72  1  0  0  0  0
 28 73  1  0  0  0  0
 28 74  1  0  0  0  0
 29 75  1  0  0  0  0
 29 76  1  0  0  0  0
 29 77  1  0  0  0  0
 30 78  1  0  0  0  0
 30 79  1  0  0  0  0
 30 80  1  0  0  0  0
M  END
> <PUBCHEM_COMPOUND_CID>
6744

> <PUBCHEM_CONFORMER_RMSD>
1

> <PUBCHEM_CONFORMER_DIVERSEORDER>
1
4
5
7
3
6
2

> <PUBCHEM_MMFF94_PARTIAL_CHARGES>
9
1 -0.68
12 0.14
15 -0.28
17 -0.29
19 0.14
22 0.28
51 0.15
68 0.4
8 0.14

> <PUBCHEM_EFFECTIVE_ROTOR_COUNT>
8

> <PUBCHEM_PHARMACOPHORE_FEATURES>
10
1 1 acceptor
1 1 donor
1 23 hydrophobe
1 30 hydrophobe
3 26 28 29 hydrophobe
5 2 3 6 9 11 rings
6 13 20 24 25 26 27 hydrophobe
6 2 3 4 5 7 10 rings
6 4 5 8 12 15 17 rings
6 8 15 16 19 21 22 rings

> <PUBCHEM_HEAVY_ATOM_COUNT>
30

> <PUBCHEM_ATOM_DEF_STEREO_COUNT>
9

> <PUBCHEM_ATOM_UDEF_STEREO_COUNT>
0

> <PUBCHEM_BOND_DEF_STEREO_COUNT>
0

> <PUBCHEM_BOND_UDEF_STEREO_COUNT>
0

> <PUBCHEM_ISOTOPIC_ATOM_COUNT>
0

> <PUBCHEM_COMPONENT_COUNT>
1

> <PUBCHEM_CACTVS_TAUTO_COUNT>
1

> <PUBCHEM_CONFORMER_ID>
00001A5800000001

> <PUBCHEM_MMFF94_ENERGY>
92.6626

> <PUBCHEM_FEATURE_SELFOVERLAP>
50.862

> <PUBCHEM_SHAPE_FINGERPRINT>
10 15 18202561774566358209
10050765 1 18412830209346954155
10411042 1 17547290004517594515
10906281 52 17489017155786994950
11135609 127 17766012967146028213
11135609 187 18338801230226799569
12107183 9 18270129044700365546
12390115 104 18410564072419816030
12422481 6 17274819207450523557
12788726 201 18188205390728134979
12925494 130 18340213985722855041
13073987 5 18343023246558765018
13140716 1 18272092729037780635
13782708 43 4822628939847240725
14394314 77 18336542820147599257
14790565 3 18412826914552091262
14931854 50 18040720316031513929
15064981 113 17241331407446852052
15163728 17 17749378317382479111
15238133 3 18272082769746638780
16112460 7 18410857706723508296
18608769 82 18338515236854361459
20511986 3 18339936973037433593
20715895 44 18340492273664565584
20739085 24 17988635358731788206
21033648 144 18271536359427275469
21033648 29 18115039489195898440
21033650 10 18118378714699953246
21236236 1 18410576141673537255
21279426 13 18335132107809615030
21304253 335 18272650134673401574
21421861 104 17702964620681523770
21756936 100 18337115553212750086
23522609 53 17345744184981154596
23559900 14 18189043369197751030
23569914 2 17245312593302411232
283562 15 18339925897198498795
2838139 119 18410863191702375725
335352 9 18341050809209758686
350125 39 18340205198879039867
397830 11 12175340224776464324
4073 2 18059573547265070098
4144715 1 18342729702750696810
44802255 64 17241605023065570694
474 4 18339643472796119203
5104073 3 18060425698688568962
6086070 43 17603876559371051304
636775 72 18121223074505082344
7226269 152 18260264135754020544

> <PUBCHEM_SHAPE_MULTIPOLES>
611.52
15.9
4.21
1.4
1.33
0.77
-0.11
-16.05
-0.17
-2.79
-0.9
-0.97
-0.59
-0.71

> <PUBCHEM_SHAPE_SELFOVERLAP>
1260.079

> <PUBCHEM_SHAPE_VOLUME>
351.1

> <PUBCHEM_COORDINATE_TYPE>
2
5
10

$$$$

