7385
  -OEChem-06261202033D

 19 19  0     0  0  0  0  0  0999 V2000
    2.3369   -0.0891   -0.0886 S   0  0  0  0  0  0  0  0  0  0  0  0
    2.7975   -0.1550    1.4787 O   0  0  0  0  0  0  0  0  0  0  0  0
   -3.5118    0.6652    0.0473 O   0  0  0  0  0  0  0  0  0  0  0  0
    2.6135   -1.3957   -0.6677 O   0  0  0  0  0  0  0  0  0  0  0  0
    2.9010    1.1166   -0.6748 O   0  0  0  0  0  0  0  0  0  0  0  0
   -2.4624   -1.9454    0.0030 N   0  0  0  0  0  0  0  0  0  0  0  0
    0.6045    0.1269   -0.0485 C   0  0  0  0  0  0  0  0  0  0  0  0
   -0.2378   -0.9848   -0.0386 C   0  0  0  0  0  0  0  0  0  0  0  0
   -1.6215   -0.8112   -0.0064 C   0  0  0  0  0  0  0  0  0  0  0  0
    0.0633    1.4123   -0.0262 C   0  0  0  0  0  0  0  0  0  0  0  0
   -2.1628    0.4741    0.0159 C   0  0  0  0  0  0  0  0  0  0  0  0
   -1.3204    1.5859    0.0060 C   0  0  0  0  0  0  0  0  0  0  0  0
    0.1753   -1.9905   -0.0486 H   0  0  0  0  0  0  0  0  0  0  0  0
    0.6991    2.2932   -0.0252 H   0  0  0  0  0  0  0  0  0  0  0  0
   -1.7356    2.5899    0.0250 H   0  0  0  0  0  0  0  0  0  0  0  0
   -3.4610   -1.8743    0.1265 H   0  0  0  0  0  0  0  0  0  0  0  0
   -2.0427   -2.8665   -0.0099 H   0  0  0  0  0  0  0  0  0  0  0  0
    2.4194   -0.9022    1.9994 H   0  0  0  0  0  0  0  0  0  0  0  0
   -3.9718   -0.1773   -0.0860 H   0  0  0  0  0  0  0  0  0  0  0  0
  1  2  1  0  0  0  0
  1  4  2  0  0  0  0
  1  5  2  0  0  0  0
  1  7  1  0  0  0  0
  2 18  1  0  0  0  0
  3 11  1  0  0  0  0
  3 19  1  0  0  0  0
  6  9  1  0  0  0  0
  6 16  1  0  0  0  0
  6 17  1  0  0  0  0
  7  8  2  0  0  0  0
  7 10  1  0  0  0  0
  8  9  1  0  0  0  0
  8 13  1  0  0  0  0
  9 11  2  0  0  0  0
 10 12  2  0  0  0  0
 10 14  1  0  0  0  0
 11 12  1  0  0  0  0
 12 15  1  0  0  0  0
M  END
> <PUBCHEM_COMPOUND_CID>
7385

> <PUBCHEM_CONFORMER_RMSD>
0.4

> <PUBCHEM_CONFORMER_DIVERSEORDER>
1
2

> <PUBCHEM_MMFF94_PARTIAL_CHARGES>
19
1 1.49
10 -0.15
11 0.08
12 -0.15
13 0.15
14 0.15
15 0.15
16 0.4
17 0.4
18 0.5
19 0.45
2 -0.68
3 -0.53
4 -0.65
5 -0.65
6 -0.9
7 -0.01
8 -0.15
9 0.1

> <PUBCHEM_EFFECTIVE_ROTOR_COUNT>
1

> <PUBCHEM_PHARMACOPHORE_FEATURES>
8
1 2 acceptor
1 3 donor
1 4 acceptor
1 5 acceptor
1 6 cation
1 6 donor
4 1 2 4 5 anion
6 7 8 9 10 11 12 rings

> <PUBCHEM_HEAVY_ATOM_COUNT>
12

> <PUBCHEM_ATOM_DEF_STEREO_COUNT>
0

> <PUBCHEM_ATOM_UDEF_STEREO_COUNT>
0

> <PUBCHEM_BOND_DEF_STEREO_COUNT>
0

> <PUBCHEM_BOND_UDEF_STEREO_COUNT>
0

> <PUBCHEM_ISOTOPIC_ATOM_COUNT>
0

> <PUBCHEM_COMPONENT_COUNT>
1

> <PUBCHEM_CACTVS_TAUTO_COUNT>
5

> <PUBCHEM_CONFORMER_ID>
00001CD900000001

> <PUBCHEM_MMFF94_ENERGY>
31.3631

> <PUBCHEM_FEATURE_SELFOVERLAP>
40.655

> <PUBCHEM_SHAPE_FINGERPRINT>
10857977 72 18262245425621038874
12032990 46 18411128152419153987
12716758 59 18336265763931482843
12897270 3 18409158892570480260
12932764 1 17418095437931307116
14325111 11 18410852183221310213
16945 1 18340771545465582173
19973954 147 18409161138796203908
20201158 50 18187925135659195222
20871998 184 18187359888035479231
21040471 1 18194120939294676553
21501502 16 18340206267555587837
23402655 69 18049741886758667357
23463225 33 18341896332928493802
23552423 10 18272085006902457430
23559900 14 18334858364074736878
2748010 2 18265901241991656829
3248919 1 18409174311265585526
369184 2 17203611492661146313
5084963 1 18189612928920463944

> <PUBCHEM_SHAPE_MULTIPOLES>
222.35
4.83
1.68
0.79
0.6
0.18
-0.18
0.29
-0.1
-0.6
0.14
0.57
0.02
-0.03

> <PUBCHEM_SHAPE_SELFOVERLAP>
454.128

> <PUBCHEM_SHAPE_VOLUME>
129.2

> <PUBCHEM_COORDINATE_TYPE>
2
5
10

$$$$

