5993437
  -OEChem-07051213062D

 32 33  0     0  0  0  0  0  0999 V2000
    4.2690   -3.5000    0.0000 O   0  0  0  0  0  0  0  0  0  0  0  0
    2.5369    0.5000    0.0000 O   0  0  0  0  0  0  0  0  0  0  0  0
    3.4030    2.0000    0.0000 O   0  0  0  0  0  0  0  0  0  0  0  0
    5.1350    4.0000    0.0000 N   0  0  0  0  0  0  0  0  0  0  0  0
    4.2690   -0.5000    0.0000 C   0  0  0  0  0  0  0  0  0  0  0  0
    4.2690    0.5000    0.0000 C   0  0  0  0  0  0  0  0  0  0  0  0
    3.4030   -1.0000    0.0000 C   0  0  0  0  0  0  0  0  0  0  0  0
    5.1350   -1.0000    0.0000 C   0  0  0  0  0  0  0  0  0  0  0  0
    5.1350    1.0000    0.0000 C   0  0  0  0  0  0  0  0  0  0  0  0
    5.1350    2.0000    0.0000 C   0  0  0  0  0  0  0  0  0  0  0  0
    4.2690   -2.5000    0.0000 C   0  0  0  0  0  0  0  0  0  0  0  0
    3.4030   -2.0000    0.0000 C   0  0  0  0  0  0  0  0  0  0  0  0
    5.1350   -2.0000    0.0000 C   0  0  0  0  0  0  0  0  0  0  0  0
    3.4030    1.0000    0.0000 C   0  0  0  0  0  0  0  0  0  0  0  0
    4.2690    2.5000    0.0000 C   0  0  0  0  0  0  0  0  0  0  0  0
    6.0010    2.5000    0.0000 C   0  0  0  0  0  0  0  0  0  0  0  0
    4.2690    3.5000    0.0000 C   0  0  0  0  0  0  0  0  0  0  0  0
    6.0010    3.5000    0.0000 C   0  0  0  0  0  0  0  0  0  0  0  0
    3.4030   -4.0000    0.0000 C   0  0  0  0  0  0  0  0  0  0  0  0
    2.8660   -0.6900    0.0000 H   0  0  0  0  0  0  0  0  0  0  0  0
    5.6720   -0.6900    0.0000 H   0  0  0  0  0  0  0  0  0  0  0  0
    5.6720    0.6900    0.0000 H   0  0  0  0  0  0  0  0  0  0  0  0
    2.8660   -2.3100    0.0000 H   0  0  0  0  0  0  0  0  0  0  0  0
    5.6720   -2.3100    0.0000 H   0  0  0  0  0  0  0  0  0  0  0  0
    3.7320    2.1900    0.0000 H   0  0  0  0  0  0  0  0  0  0  0  0
    6.5380    2.1900    0.0000 H   0  0  0  0  0  0  0  0  0  0  0  0
    3.7320    3.8100    0.0000 H   0  0  0  0  0  0  0  0  0  0  0  0
    6.5380    3.8100    0.0000 H   0  0  0  0  0  0  0  0  0  0  0  0
    3.0930   -3.4631    0.0000 H   0  0  0  0  0  0  0  0  0  0  0  0
    2.8660   -4.3100    0.0000 H   0  0  0  0  0  0  0  0  0  0  0  0
    3.7130   -4.5369    0.0000 H   0  0  0  0  0  0  0  0  0  0  0  0
    2.0000    0.8100    0.0000 H   0  0  0  0  0  0  0  0  0  0  0  0
  1 11  1  0  0  0  0
  1 19  1  0  0  0  0
  2 14  1  0  0  0  0
  2 32  1  0  0  0  0
  3 14  2  0  0  0  0
  4 17  2  0  0  0  0
  4 18  1  0  0  0  0
  5  6  1  0  0  0  0
  5  7  2  0  0  0  0
  5  8  1  0  0  0  0
  6  9  2  0  0  0  0
  6 14  1  0  0  0  0
  7 12  1  0  0  0  0
  7 20  1  0  0  0  0
  8 13  2  0  0  0  0
  8 21  1  0  0  0  0
  9 10  1  0  0  0  0
  9 22  1  0  0  0  0
 10 15  2  0  0  0  0
 10 16  1  0  0  0  0
 11 12  2  0  0  0  0
 11 13  1  0  0  0  0
 12 23  1  0  0  0  0
 13 24  1  0  0  0  0
 15 17  1  0  0  0  0
 15 25  1  0  0  0  0
 16 18  2  0  0  0  0
 16 26  1  0  0  0  0
 17 27  1  0  0  0  0
 18 28  1  0  0  0  0
 19 29  1  0  0  0  0
 19 30  1  0  0  0  0
 19 31  1  0  0  0  0
M  END
> <PUBCHEM_COMPOUND_CID>
5993437

> <PUBCHEM_COMPOUND_CANONICALIZED>
1

> <PUBCHEM_CACTVS_COMPLEXITY>
326

> <PUBCHEM_CACTVS_HBOND_ACCEPTOR>
4

> <PUBCHEM_CACTVS_HBOND_DONOR>
1

> <PUBCHEM_CACTVS_ROTATABLE_BOND>
4

> <PUBCHEM_CACTVS_SUBSKEYS>
AAADccByMAAAAAAAAAAAAAAAAAAAAAAAAAA8QAAAAAAAAAABwAAAHgAACAAADATBmgY+jpIIFgCoAjD3TACCiCAxIiAI2CE+bNgMJnLEtZuEcChkwBHI+YeYyKCOIAAAAAAAAABAAAAAAAAAAAAAAAAAAA==

> <PUBCHEM_IUPAC_OPENEYE_NAME>
(Z)-2-(4-methoxyphenyl)-3-(4-pyridyl)prop-2-enoic acid

> <PUBCHEM_IUPAC_CAS_NAME>
(Z)-2-(4-methoxyphenyl)-3-pyridin-4-yl-2-propenoic acid

> <PUBCHEM_IUPAC_NAME>
(Z)-2-(4-methoxyphenyl)-3-pyridin-4-ylprop-2-enoic acid

> <PUBCHEM_IUPAC_SYSTEMATIC_NAME>
(Z)-2-(4-methoxyphenyl)-3-pyridin-4-yl-prop-2-enoic acid

> <PUBCHEM_IUPAC_TRADITIONAL_NAME>
(Z)-2-(4-methoxyphenyl)-3-(4-pyridyl)acrylic acid

> <PUBCHEM_IUPAC_INCHI>
InChI=1S/C15H13NO3/c1-19-13-4-2-12(3-5-13)14(15(17)18)10-11-6-8-16-9-7-11/h2-10H,1H3,(H,17,18)/b14-10-

> <PUBCHEM_IUPAC_INCHIKEY>
GLTRDQKNZSPRHQ-UVTDQMKNSA-N

> <PUBCHEM_XLOGP3_AA>
2.4

> <PUBCHEM_EXACT_MASS>
255.089543

> <PUBCHEM_MOLECULAR_FORMULA>
C15H13NO3

> <PUBCHEM_MOLECULAR_WEIGHT>
255.26862

> <PUBCHEM_OPENEYE_CAN_SMILES>
COC1=CC=C(C=C1)C(=CC2=CC=NC=C2)C(=O)O

> <PUBCHEM_OPENEYE_ISO_SMILES>
COC1=CC=C(C=C1)/C(=C/C2=CC=NC=C2)/C(=O)O

> <PUBCHEM_CACTVS_TPSA>
59.4

> <PUBCHEM_MONOISOTOPIC_WEIGHT>
255.089543

> <PUBCHEM_TOTAL_CHARGE>
0

> <PUBCHEM_HEAVY_ATOM_COUNT>
19

> <PUBCHEM_ATOM_DEF_STEREO_COUNT>
0

> <PUBCHEM_ATOM_UDEF_STEREO_COUNT>
0

> <PUBCHEM_BOND_DEF_STEREO_COUNT>
1

> <PUBCHEM_BOND_UDEF_STEREO_COUNT>
0

> <PUBCHEM_ISOTOPIC_ATOM_COUNT>
0

> <PUBCHEM_COMPONENT_COUNT>
1

> <PUBCHEM_CACTVS_TAUTO_COUNT>
1

> <PUBCHEM_COORDINATE_TYPE>
1
5
255

> <PUBCHEM_BONDANNOTATIONS>
10  15  8
10  16  8
11  12  8
11  13  8
15  17  8
16  18  8
4  17  8
4  18  8
5  7  8
5  8  8
7  12  8
8  13  8

$$$$

