70804
  -OEChem-07051213043D

 25 26  0     0  0  0  0  0  0999 V2000
    3.7887    0.7121   -0.0118 O   0  0  0  0  0  0  0  0  0  0  0  0
    3.3577   -1.5188    0.0492 O   0  0  0  0  0  0  0  0  0  0  0  0
   -3.2520   -1.1464   -0.3398 C   0  0  0  0  0  0  0  0  0  0  0  0
   -3.5781    0.1666    0.3601 C   0  0  0  0  0  0  0  0  0  0  0  0
   -1.8632   -1.6368    0.0655 C   0  0  0  0  0  0  0  0  0  0  0  0
   -2.5925    1.2551   -0.0603 C   0  0  0  0  0  0  0  0  0  0  0  0
   -0.8096   -0.5591    0.0036 C   0  0  0  0  0  0  0  0  0  0  0  0
   -1.1534    0.8054   -0.0147 C   0  0  0  0  0  0  0  0  0  0  0  0
    0.5441   -0.9281    0.0230 C   0  0  0  0  0  0  0  0  0  0  0  0
   -0.1364    1.7714   -0.0493 C   0  0  0  0  0  0  0  0  0  0  0  0
    1.5453    0.0423   -0.0012 C   0  0  0  0  0  0  0  0  0  0  0  0
    1.2052    1.3913   -0.0397 C   0  0  0  0  0  0  0  0  0  0  0  0
    2.9439   -0.3550    0.0154 C   0  0  0  0  0  0  0  0  0  0  0  0
   -3.2952   -1.0035   -1.4270 H   0  0  0  0  0  0  0  0  0  0  0  0
   -3.9991   -1.9066   -0.0856 H   0  0  0  0  0  0  0  0  0  0  0  0
   -3.5353    0.0235    1.4474 H   0  0  0  0  0  0  0  0  0  0  0  0
   -4.5992    0.4814    0.1175 H   0  0  0  0  0  0  0  0  0  0  0  0
   -1.5816   -2.4722   -0.5865 H   0  0  0  0  0  0  0  0  0  0  0  0
   -1.8996   -2.0170    1.0942 H   0  0  0  0  0  0  0  0  0  0  0  0
   -2.7321    2.1263    0.5909 H   0  0  0  0  0  0  0  0  0  0  0  0
   -2.8171    1.5697   -1.0872 H   0  0  0  0  0  0  0  0  0  0  0  0
    0.8040   -1.9842    0.0579 H   0  0  0  0  0  0  0  0  0  0  0  0
   -0.3877    2.8289   -0.0839 H   0  0  0  0  0  0  0  0  0  0  0  0
    1.9512    2.1806   -0.0636 H   0  0  0  0  0  0  0  0  0  0  0  0
    4.7292    0.4333   -0.0008 H   0  0  0  0  0  0  0  0  0  0  0  0
  1 13  1  0  0  0  0
  1 25  1  0  0  0  0
  2 13  2  0  0  0  0
  3  4  1  0  0  0  0
  3  5  1  0  0  0  0
  3 14  1  0  0  0  0
  3 15  1  0  0  0  0
  4  6  1  0  0  0  0
  4 16  1  0  0  0  0
  4 17  1  0  0  0  0
  5  7  1  0  0  0  0
  5 18  1  0  0  0  0
  5 19  1  0  0  0  0
  6  8  1  0  0  0  0
  6 20  1  0  0  0  0
  6 21  1  0  0  0  0
  7  8  2  0  0  0  0
  7  9  1  0  0  0  0
  8 10  1  0  0  0  0
  9 11  2  0  0  0  0
  9 22  1  0  0  0  0
 10 12  2  0  0  0  0
 10 23  1  0  0  0  0
 11 12  1  0  0  0  0
 11 13  1  0  0  0  0
 12 24  1  0  0  0  0
M  END
> <PUBCHEM_COMPOUND_CID>
70804

> <PUBCHEM_CONFORMER_RMSD>
0.6

> <PUBCHEM_CONFORMER_DIVERSEORDER>
1
2

> <PUBCHEM_MMFF94_PARTIAL_CHARGES>
15
1 -0.65
10 -0.15
11 0.09
12 -0.15
13 0.63
2 -0.57
22 0.15
23 0.15
24 0.15
25 0.5
5 0.14
6 0.14
7 -0.14
8 -0.14
9 -0.15

> <PUBCHEM_EFFECTIVE_ROTOR_COUNT>
1.8

> <PUBCHEM_PHARMACOPHORE_FEATURES>
5
1 1 acceptor
1 2 acceptor
3 1 2 13 anion
6 3 4 5 6 7 8 rings
6 7 8 9 10 11 12 rings

> <PUBCHEM_HEAVY_ATOM_COUNT>
13

> <PUBCHEM_ATOM_DEF_STEREO_COUNT>
0

> <PUBCHEM_ATOM_UDEF_STEREO_COUNT>
0

> <PUBCHEM_BOND_DEF_STEREO_COUNT>
0

> <PUBCHEM_BOND_UDEF_STEREO_COUNT>
0

> <PUBCHEM_ISOTOPIC_ATOM_COUNT>
0

> <PUBCHEM_COMPONENT_COUNT>
1

> <PUBCHEM_CACTVS_TAUTO_COUNT>
1

> <PUBCHEM_CONFORMER_ID>
0001149400000001

> <PUBCHEM_MMFF94_ENERGY>
29.1185

> <PUBCHEM_FEATURE_SELFOVERLAP>
25.451

> <PUBCHEM_SHAPE_FINGERPRINT>
10130415 120 18413673508504063394
10608611 8 18409172107926718320
10967382 1 18410856521011516134
11132069 177 18410299128761606752
11543360 7 15482376573957936683
11769659 78 18408891728118890023
12032990 46 18411414029262602355
13690532 89 18411140242752053255
14144814 61 18411138034643030051
14325111 11 18410856581220276992
15196674 1 18410855477329149475
15375462 189 18273215321930094835
15442244 35 18338233877018581552
15536298 74 18261954038245288032
16945 1 18411141350584603237
18186145 218 17489870444696396726
193761 8 17762618386905358857
200 152 17968106291952845055
20201158 50 18409448081160878223
20510252 161 18260829349197502457
20871998 184 18187082858175638751
21267235 1 18411128147660248858
21501502 16 18337668594934958669
21501925 9 18337681810269545792
23402539 116 18262529181193754831
23402655 69 18193011511584823597
23463225 33 18411980277861566438
23552423 10 18199467654029507181
23559900 14 18335988679186860658
2748010 2 18338521820089569357
5104073 3 18410573998036399507
528886 8 18410016532803674139
69090 78 18260553320624119879
7364860 26 18119811313615504496
8809292 202 18272365330981115195

> <PUBCHEM_SHAPE_MULTIPOLES>
255.8
5.94
1.78
0.62
1.69
0.09
0
-1.12
0.1
-0.22
-0.04
-0.12
0
-0.11

> <PUBCHEM_SHAPE_SELFOVERLAP>
546.865

> <PUBCHEM_SHAPE_VOLUME>
141.7

> <PUBCHEM_COORDINATE_TYPE>
2
5
10

$$$$

