17396411
  -OEChem-06241222563D

 53 56  0     0  0  0  0  0  0999 V2000
    2.2843   -1.8503   -2.1890 S   0  0  0  0  0  0  0  0  0  0  0  0
   -6.0959    4.1844    0.9218 F   0  0  0  0  0  0  0  0  0  0  0  0
    0.4746   -0.6124    2.4180 O   0  0  0  0  0  0  0  0  0  0  0  0
    0.6465    0.7417   -2.8435 O   0  0  0  0  0  0  0  0  0  0  0  0
    4.9314    4.0287    0.7794 O   0  5  0  0  0  0  0  0  0  0  0  0
    6.5123    2.5111    0.6515 O   0  0  0  0  0  0  0  0  0  0  0  0
    1.3826   -1.2182    0.3326 N   0  0  0  0  0  0  0  0  0  0  0  0
    0.4795   -3.1109   -0.8130 N   0  0  0  0  0  0  0  0  0  0  0  0
   -1.1791   -0.6878   -2.6827 N   0  0  0  0  0  0  0  0  0  0  0  0
    5.3000    2.8335    0.6779 N   0  3  0  0  0  0  0  0  0  0  0  0
   -0.4608   -2.4589    1.3494 C   0  0  0  0  0  0  0  0  0  0  0  0
   -2.2294    0.4356   -0.7466 C   0  0  0  0  0  0  0  0  0  0  0  0
    2.3795   -0.1870    0.4184 C   0  0  0  0  0  0  0  0  0  0  0  0
    0.4913   -1.3292    1.4200 C   0  0  0  0  0  0  0  0  0  0  0  0
    1.3021   -2.1121   -0.7497 C   0  0  0  0  0  0  0  0  0  0  0  0
   -2.1539    0.2941   -2.2650 C   0  0  0  0  0  0  0  0  0  0  0  0
   -0.4089   -3.3151    0.2483 C   0  0  0  0  0  0  0  0  0  0  0  0
   -3.2641    1.4390   -0.2997 C   0  0  0  0  0  0  0  0  0  0  0  0
   -1.3807   -2.6786    2.3816 C   0  0  0  0  0  0  0  0  0  0  0  0
    0.9570   -1.5750   -3.3771 C   0  0  0  0  0  0  0  0  0  0  0  0
    1.9934    1.1485    0.5322 C   0  0  0  0  0  0  0  0  0  0  0  0
    3.7333   -0.5216    0.3907 C   0  0  0  0  0  0  0  0  0  0  0  0
   -1.2925   -4.3995    0.1909 C   0  0  0  0  0  0  0  0  0  0  0  0
    0.1468   -0.3782   -2.9380 C   0  0  0  0  0  0  0  0  0  0  0  0
   -2.2551   -3.7621    2.3115 C   0  0  0  0  0  0  0  0  0  0  0  0
   -2.9111    2.7783   -0.1339 C   0  0  0  0  0  0  0  0  0  0  0  0
   -4.5738    1.0273   -0.0530 C   0  0  0  0  0  0  0  0  0  0  0  0
   -2.2107   -4.6231    1.2176 C   0  0  0  0  0  0  0  0  0  0  0  0
    2.9610    2.1494    0.6183 C   0  0  0  0  0  0  0  0  0  0  0  0
    4.7011    0.4792    0.4768 C   0  0  0  0  0  0  0  0  0  0  0  0
    4.3149    1.8147    0.5906 C   0  0  0  0  0  0  0  0  0  0  0  0
   -3.8677    3.7058    0.2786 C   0  0  0  0  0  0  0  0  0  0  0  0
   -5.5304    1.9546    0.3596 C   0  0  0  0  0  0  0  0  0  0  0  0
   -5.1773    3.2938    0.5255 C   0  0  0  0  0  0  0  0  0  0  0  0
   -1.2487    0.7221   -0.3477 H   0  0  0  0  0  0  0  0  0  0  0  0
   -2.4498   -0.5397   -0.2936 H   0  0  0  0  0  0  0  0  0  0  0  0
   -3.1210   -0.0255   -2.6692 H   0  0  0  0  0  0  0  0  0  0  0  0
   -1.9058    1.2570   -2.7264 H   0  0  0  0  0  0  0  0  0  0  0  0
   -1.4951   -1.6485   -2.7750 H   0  0  0  0  0  0  0  0  0  0  0  0
   -1.4299   -2.0213    3.2452 H   0  0  0  0  0  0  0  0  0  0  0  0
    1.3881   -1.3530   -4.3584 H   0  0  0  0  0  0  0  0  0  0  0  0
    0.3448   -2.4752   -3.4830 H   0  0  0  0  0  0  0  0  0  0  0  0
    0.9435    1.4285    0.5459 H   0  0  0  0  0  0  0  0  0  0  0  0
    4.0538   -1.5584    0.3280 H   0  0  0  0  0  0  0  0  0  0  0  0
   -1.2728   -5.0765   -0.6599 H   0  0  0  0  0  0  0  0  0  0  0  0
   -2.9700   -3.9356    3.1104 H   0  0  0  0  0  0  0  0  0  0  0  0
   -1.8942    3.1108   -0.3247 H   0  0  0  0  0  0  0  0  0  0  0  0
   -4.8609   -0.0131   -0.1804 H   0  0  0  0  0  0  0  0  0  0  0  0
   -2.8919   -5.4672    1.1622 H   0  0  0  0  0  0  0  0  0  0  0  0
    2.6232    3.1791    0.7037 H   0  0  0  0  0  0  0  0  0  0  0  0
    5.7462    0.1810    0.4575 H   0  0  0  0  0  0  0  0  0  0  0  0
   -3.5934    4.7486    0.4075 H   0  0  0  0  0  0  0  0  0  0  0  0
   -6.5502    1.6345    0.5516 H   0  0  0  0  0  0  0  0  0  0  0  0
  1 15  1  0  0  0  0
  1 20  1  0  0  0  0
  2 34  1  0  0  0  0
  3 14  2  0  0  0  0
  4 24  2  0  0  0  0
  5 10  1  0  0  0  0
  6 10  2  0  0  0  0
  7 13  1  0  0  0  0
  7 14  1  0  0  0  0
  7 15  1  0  0  0  0
  8 15  2  0  0  0  0
  8 17  1  0  0  0  0
  9 16  1  0  0  0  0
  9 24  1  0  0  0  0
  9 39  1  0  0  0  0
 10 31  1  0  0  0  0
 11 14  1  0  0  0  0
 11 17  1  0  0  0  0
 11 19  2  0  0  0  0
 12 16  1  0  0  0  0
 12 18  1  0  0  0  0
 12 35  1  0  0  0  0
 12 36  1  0  0  0  0
 13 21  2  0  0  0  0
 13 22  1  0  0  0  0
 16 37  1  0  0  0  0
 16 38  1  0  0  0  0
 17 23  2  0  0  0  0
 18 26  2  0  0  0  0
 18 27  1  0  0  0  0
 19 25  1  0  0  0  0
 19 40  1  0  0  0  0
 20 24  1  0  0  0  0
 20 41  1  0  0  0  0
 20 42  1  0  0  0  0
 21 29  1  0  0  0  0
 21 43  1  0  0  0  0
 22 30  2  0  0  0  0
 22 44  1  0  0  0  0
 23 28  1  0  0  0  0
 23 45  1  0  0  0  0
 25 28  2  0  0  0  0
 25 46  1  0  0  0  0
 26 32  1  0  0  0  0
 26 47  1  0  0  0  0
 27 33  2  0  0  0  0
 27 48  1  0  0  0  0
 28 49  1  0  0  0  0
 29 31  2  0  0  0  0
 29 50  1  0  0  0  0
 30 31  1  0  0  0  0
 30 51  1  0  0  0  0
 32 34  2  0  0  0  0
 32 52  1  0  0  0  0
 33 34  1  0  0  0  0
 33 53  1  0  0  0  0
M  CHG  2   5  -1  10   1
M  END
> <PUBCHEM_COMPOUND_CID>
17396411

> <PUBCHEM_CONFORMER_RMSD>
1.2

> <PUBCHEM_CONFORMER_DIVERSEORDER>
2
81
99
47
84
30
73
35
83
22
95
63
91
4
96
51
101
38
9
20
21
87
71
28
44
98
1
16
7
56
67
5
13
45
90
75
69
18
65
36
106
3
10
110
6
24
57
80
88
70
49
104
105
79
8
11
41
94
89
39
92
109
60
26
108
68
93
55
107
19
52
54
86
42
17
40
33
53
27
85
58
48
14
59
31
74
29
97
46
50
25
61
62
64
12
43
32
15
78
82
100
103
72
102
66
34
77
23
37
76

> <PUBCHEM_MMFF94_PARTIAL_CHARGES>
47
1 -0.37
10 0.91
11 0.09
12 0.14
13 0.12
14 0.54
15 0.65
16 0.3
17 0.18
18 -0.14
19 -0.15
2 -0.19
20 0.29
21 -0.15
22 -0.15
23 -0.15
24 0.57
25 -0.15
26 -0.15
27 -0.15
28 -0.15
29 -0.15
3 -0.57
30 -0.15
31 0.13
32 -0.15
33 -0.15
34 0.19
39 0.37
4 -0.57
40 0.15
43 0.15
44 0.15
45 0.15
46 0.15
47 0.15
48 0.15
49 0.15
5 -0.52
50 0.15
51 0.15
52 0.15
53 0.15
6 -0.52
7 -0.24
8 -0.63
9 -0.73

> <PUBCHEM_EFFECTIVE_ROTOR_COUNT>
9

> <PUBCHEM_PHARMACOPHORE_FEATURES>
10
1 3 acceptor
1 4 acceptor
1 5 acceptor
1 5 anion
1 6 acceptor
1 9 donor
6 11 17 19 23 25 28 rings
6 13 21 22 29 30 31 rings
6 18 26 27 32 33 34 rings
6 7 8 11 14 15 17 rings

> <PUBCHEM_HEAVY_ATOM_COUNT>
34

> <PUBCHEM_ATOM_DEF_STEREO_COUNT>
0

> <PUBCHEM_ATOM_UDEF_STEREO_COUNT>
0

> <PUBCHEM_BOND_DEF_STEREO_COUNT>
0

> <PUBCHEM_BOND_UDEF_STEREO_COUNT>
0

> <PUBCHEM_ISOTOPIC_ATOM_COUNT>
0

> <PUBCHEM_COMPONENT_COUNT>
1

> <PUBCHEM_CACTVS_TAUTO_COUNT>
2

> <PUBCHEM_CONFORMER_ID>
010972BB00000002

> <PUBCHEM_MMFF94_ENERGY>
106.5058

> <PUBCHEM_FEATURE_SELFOVERLAP>
50.854

> <PUBCHEM_SHAPE_FINGERPRINT>
11115154 58 17692832388983287559
11421498 54 17406814659110135919
11578080 2 18198600234446333958
1200032 147 17531237426777497641
12156800 1 17984114012368031676
12788726 201 18120678858786945159
14150022 121 17912647904468680664
14705955 166 18126565617976686666
14713325 29 18194408788377407450
15142526 21 18339083786796231849
15297060 5 17625499692592766263
15338160 23 18055352440500735460
15439362 3 18335701710767916352
15968369 153 17540546716614905048
16993438 75 18267302040990143401
17980427 26 18194135215898136743
19319366 153 18263938806973071993
21315764 371 18270671091421872961
21756936 100 18335995159913053040
23419403 2 17607765553199486270
244849 19 18190157097193358198
25223398 141 17771026593295363923
27425 322 18336550529349378429
3027735 51 6843108093942934268
3411729 13 18115307920421000861
550186 7 18263634065925935988
5776283 40 18193257793034605614
7288768 16 18341339932810774349

> <PUBCHEM_SHAPE_MULTIPOLES>
652.88
10.5
6.39
2.74
0.81
2.15
-2.42
-18.82
4.08
3.81
3.58
-0.28
1.94
2.27

> <PUBCHEM_SHAPE_SELFOVERLAP>
1409.558

> <PUBCHEM_SHAPE_VOLUME>
363.2

> <PUBCHEM_COORDINATE_TYPE>
2
5
10

$$$$

