5281420
  -OEChem-07051212573D

 44 45  0     0  0  0  0  0  0999 V2000
    3.7568    0.0403   -0.6983 O   0  0  0  0  0  0  0  0  0  0  0  0
    0.1713    3.0071   -1.7710 O   0  0  0  0  0  0  0  0  0  0  0  0
    5.4712   -1.3854   -0.1750 O   0  0  0  0  0  0  0  0  0  0  0  0
   -4.5699    0.1154   -0.0267 C   0  0  0  0  0  0  0  0  0  0  0  0
   -3.4329    0.8634    0.6374 C   0  0  0  0  0  0  0  0  0  0  0  0
   -1.2987    2.2784    0.5647 C   0  0  0  0  0  0  0  0  0  0  0  0
    0.0460    1.6853    0.2258 C   0  0  0  0  0  0  0  0  0  0  0  0
   -4.3222   -1.3927   -0.1638 C   0  0  0  0  0  0  0  0  0  0  0  0
   -2.4350    1.4867   -0.0197 C   0  0  0  0  0  0  0  0  0  0  0  0
    0.5937    0.7419    1.0886 C   0  0  0  0  0  0  0  0  0  0  0  0
    1.8380    0.1810    0.7926 C   0  0  0  0  0  0  0  0  0  0  0  0
    0.7112    2.0833   -0.9274 C   0  0  0  0  0  0  0  0  0  0  0  0
   -3.4919    0.9168    2.1426 C   0  0  0  0  0  0  0  0  0  0  0  0
    2.4993    0.5837   -0.3646 C   0  0  0  0  0  0  0  0  0  0  0  0
   -3.1828   -1.7082   -1.0930 C   0  0  0  0  0  0  0  0  0  0  0  0
    1.9526    1.5287   -1.2303 C   0  0  0  0  0  0  0  0  0  0  0  0
   -2.0500   -2.3835   -0.8214 C   0  0  0  0  0  0  0  0  0  0  0  0
    2.4667   -0.8086    1.6508 C   0  0  0  0  0  0  0  0  0  0  0  0
    3.6580   -1.3181    1.3280 C   0  0  0  0  0  0  0  0  0  0  0  0
   -0.9480   -2.6635   -1.8030 C   0  0  0  0  0  0  0  0  0  0  0  0
   -1.8113   -2.9440    0.5555 C   0  0  0  0  0  0  0  0  0  0  0  0
    4.3780   -0.9078    0.1081 C   0  0  0  0  0  0  0  0  0  0  0  0
   -4.7528    0.5438   -1.0216 H   0  0  0  0  0  0  0  0  0  0  0  0
   -5.4957    0.2847    0.5376 H   0  0  0  0  0  0  0  0  0  0  0  0
   -1.3703    3.3173    0.2206 H   0  0  0  0  0  0  0  0  0  0  0  0
   -1.3721    2.3767    1.6530 H   0  0  0  0  0  0  0  0  0  0  0  0
   -5.2251   -1.8468   -0.5922 H   0  0  0  0  0  0  0  0  0  0  0  0
   -4.2114   -1.8430    0.8257 H   0  0  0  0  0  0  0  0  0  0  0  0
   -2.4529    1.4393   -1.1082 H   0  0  0  0  0  0  0  0  0  0  0  0
    0.0581    0.4403    1.9856 H   0  0  0  0  0  0  0  0  0  0  0  0
   -4.0365    1.8079    2.4700 H   0  0  0  0  0  0  0  0  0  0  0  0
   -2.5053    0.9001    2.6129 H   0  0  0  0  0  0  0  0  0  0  0  0
   -4.0185    0.0397    2.5357 H   0  0  0  0  0  0  0  0  0  0  0  0
   -3.3108   -1.3379   -2.1096 H   0  0  0  0  0  0  0  0  0  0  0  0
    2.4860    1.8280   -2.1279 H   0  0  0  0  0  0  0  0  0  0  0  0
    1.9542   -1.1254    2.5524 H   0  0  0  0  0  0  0  0  0  0  0  0
    4.1333   -2.0575    1.9633 H   0  0  0  0  0  0  0  0  0  0  0  0
   -0.0132   -2.2002   -1.4711 H   0  0  0  0  0  0  0  0  0  0  0  0
   -1.1832   -2.2659   -2.7957 H   0  0  0  0  0  0  0  0  0  0  0  0
   -0.7904   -3.7421   -1.9030 H   0  0  0  0  0  0  0  0  0  0  0  0
   -2.2966   -2.3771    1.3531 H   0  0  0  0  0  0  0  0  0  0  0  0
   -0.7407   -2.9205    0.7912 H   0  0  0  0  0  0  0  0  0  0  0  0
   -2.1424   -3.9862    0.6027 H   0  0  0  0  0  0  0  0  0  0  0  0
   -0.7906    3.0548   -1.6594 H   0  0  0  0  0  0  0  0  0  0  0  0
  1 14  1  0  0  0  0
  1 22  1  0  0  0  0
  2 12  1  0  0  0  0
  2 44  1  0  0  0  0
  3 22  2  0  0  0  0
  4  5  1  0  0  0  0
  4  8  1  0  0  0  0
  4 23  1  0  0  0  0
  4 24  1  0  0  0  0
  5  9  2  0  0  0  0
  5 13  1  0  0  0  0
  6  7  1  0  0  0  0
  6  9  1  0  0  0  0
  6 25  1  0  0  0  0
  6 26  1  0  0  0  0
  7 10  1  0  0  0  0
  7 12  2  0  0  0  0
  8 15  1  0  0  0  0
  8 27  1  0  0  0  0
  8 28  1  0  0  0  0
  9 29  1  0  0  0  0
 10 11  2  0  0  0  0
 10 30  1  0  0  0  0
 11 14  1  0  0  0  0
 11 18  1  0  0  0  0
 12 16  1  0  0  0  0
 13 31  1  0  0  0  0
 13 32  1  0  0  0  0
 13 33  1  0  0  0  0
 14 16  2  0  0  0  0
 15 17  2  0  0  0  0
 15 34  1  0  0  0  0
 16 35  1  0  0  0  0
 17 20  1  0  0  0  0
 17 21  1  0  0  0  0
 18 19  2  0  0  0  0
 18 36  1  0  0  0  0
 19 22  1  0  0  0  0
 19 37  1  0  0  0  0
 20 38  1  0  0  0  0
 20 39  1  0  0  0  0
 20 40  1  0  0  0  0
 21 41  1  0  0  0  0
 21 42  1  0  0  0  0
 21 43  1  0  0  0  0
M  END
> <PUBCHEM_COMPOUND_CID>
5281420

> <PUBCHEM_CONFORMER_RMSD>
0.8

> <PUBCHEM_CONFORMER_DIVERSEORDER>
1
168
84
25
99
160
69
90
128
132
166
17
158
163
20
139
149
153
59
28
60
123
83
15
135
127
40
29
62
6
70
93
91
57
24
85
112
102
103
145
54
76
33
8
138
44
46
114
150
65
67
161
157
115
119
129
98
18
113
142
68
45
144
96
22
152
31
19
106
74
156
21
2
14
5
159
100
41
55
124
174
23
120
125
87
27
134
171
116
155
64
122
118
49
92
173
175
16
80
154
50
71
88
140
151
117
79
167
48
13
170
35
121
9
89
169
109
146
42
34
72
148
130
82
32
172
7
126
77
164
58
107
10
97
4
53
73
75
94
137
39
61
81
162
111
141
37
11
3
101
136
51
147
105
43
52
86
66
110
108
133
36
56
38
63
26
78
12
131
95
30
165
104
47
143

> <PUBCHEM_MMFF94_PARTIAL_CHARGES>
29
1 -0.23
10 -0.15
11 0.03
12 0.08
13 0.14
14 0.08
15 -0.29
16 -0.15
17 -0.28
18 -0.18
19 -0.14
2 -0.53
20 0.14
21 0.14
22 0.71
29 0.15
3 -0.57
30 0.15
34 0.15
35 0.15
36 0.15
37 0.15
4 0.14
44 0.45
5 -0.28
6 0.28
7 -0.14
8 0.14
9 -0.29

> <PUBCHEM_EFFECTIVE_ROTOR_COUNT>
5

> <PUBCHEM_PHARMACOPHORE_FEATURES>
7
1 13 hydrophobe
1 2 donor
1 3 acceptor
3 17 20 21 hydrophobe
4 4 5 8 15 hydrophobe
6 1 11 14 18 19 22 rings
6 7 10 11 12 14 16 rings

> <PUBCHEM_HEAVY_ATOM_COUNT>
22

> <PUBCHEM_ATOM_DEF_STEREO_COUNT>
0

> <PUBCHEM_ATOM_UDEF_STEREO_COUNT>
0

> <PUBCHEM_BOND_DEF_STEREO_COUNT>
1

> <PUBCHEM_BOND_UDEF_STEREO_COUNT>
0

> <PUBCHEM_ISOTOPIC_ATOM_COUNT>
0

> <PUBCHEM_COMPONENT_COUNT>
1

> <PUBCHEM_CACTVS_TAUTO_COUNT>
3

> <PUBCHEM_CONFORMER_ID>
0050968C00000001

> <PUBCHEM_MMFF94_ENERGY>
51.8409

> <PUBCHEM_FEATURE_SELFOVERLAP>
35.554

> <PUBCHEM_SHAPE_FINGERPRINT>
10759866 29 18053373310664111541
12553582 1 18201730560586415538
12633257 1 17095235883228823067
12788726 201 17751339717752179593
14178342 30 17749936886775278793
14251764 3 15936408935733634055
16752209 62 18261118422683139071
17977361 122 18407763633942792639
20261772 1 18411416254155836834
20291156 8 18341900666582092021
21634736 98 18270681944002461096
23402539 116 17489021690834973400
235170 7 14620790530832618698
23559900 14 18113907035206359528
23598288 3 17414168115783827664
23598291 2 18343012268453369501
2818148 4 17910651195499855531
339767 52 18341625805728481810
465052 167 18200295651448080801
602551 16 18040998466423306634
7064713 232 18114460175422425441
90525 40 18341046428047555001

> <PUBCHEM_SHAPE_MULTIPOLES>
435.14
8.82
3.29
1.65
3.27
0.72
-0.13
3.98
-1.29
-1.63
1.16
-0.07
-0.12
-1.72

> <PUBCHEM_SHAPE_SELFOVERLAP>
907.037

> <PUBCHEM_SHAPE_VOLUME>
247.2

> <PUBCHEM_COORDINATE_TYPE>
2
5
10

$$$$

