4744
  -OEChem-07051213092D

 49 52  0     0  0  0  0  0  0999 V2000
    4.6660   -3.2327    0.0000 S   0  0  0  0  0  0  0  0  0  0  0  0
    6.3981    1.7673    0.0000 N   0  0  0  0  0  0  0  0  0  0  0  0
    8.1301    2.7673    0.0000 N   0  0  0  0  0  0  0  0  0  0  0  0
    4.6660   -1.2327    0.0000 N   0  0  0  0  0  0  0  0  0  0  0  0
    7.2641    1.2673    0.0000 C   0  0  0  0  0  0  0  0  0  0  0  0
    6.3981    2.7673    0.0000 C   0  0  0  0  0  0  0  0  0  0  0  0
    5.5321    1.2673    0.0000 C   0  0  0  0  0  0  0  0  0  0  0  0
    8.1301    1.7673    0.0000 C   0  0  0  0  0  0  0  0  0  0  0  0
    7.2641    3.2673    0.0000 C   0  0  0  0  0  0  0  0  0  0  0  0
    5.5321    0.2673    0.0000 C   0  0  0  0  0  0  0  0  0  0  0  0
    4.6660   -0.2327    0.0000 C   0  0  0  0  0  0  0  0  0  0  0  0
    8.9962    3.2673    0.0000 C   0  0  0  0  0  0  0  0  0  0  0  0
    5.5321   -1.7327    0.0000 C   0  0  0  0  0  0  0  0  0  0  0  0
    3.8000   -1.7327    0.0000 C   0  0  0  0  0  0  0  0  0  0  0  0
    5.5321   -2.7327    0.0000 C   0  0  0  0  0  0  0  0  0  0  0  0
    3.8000   -2.7327    0.0000 C   0  0  0  0  0  0  0  0  0  0  0  0
    2.9061   -1.1980    0.0000 C   0  0  0  0  0  0  0  0  0  0  0  0
    6.4260   -1.1980    0.0000 C   0  0  0  0  0  0  0  0  0  0  0  0
    6.4260   -3.2673    0.0000 C   0  0  0  0  0  0  0  0  0  0  0  0
    2.9061   -3.2673    0.0000 C   0  0  0  0  0  0  0  0  0  0  0  0
    7.3321   -1.7118    0.0000 C   0  0  0  0  0  0  0  0  0  0  0  0
    2.0000   -1.7118    0.0000 C   0  0  0  0  0  0  0  0  0  0  0  0
    7.3321   -2.7535    0.0000 C   0  0  0  0  0  0  0  0  0  0  0  0
    2.0000   -2.7535    0.0000 C   0  0  0  0  0  0  0  0  0  0  0  0
    6.1860    3.3499    0.0000 H   0  0  0  0  0  0  0  0  0  0  0  0
    5.7875    2.6597    0.0000 H   0  0  0  0  0  0  0  0  0  0  0  0
    6.8656    0.7924    0.0000 H   0  0  0  0  0  0  0  0  0  0  0  0
    7.6626    0.7924    0.0000 H   0  0  0  0  0  0  0  0  0  0  0  0
    5.3200    1.8499    0.0000 H   0  0  0  0  0  0  0  0  0  0  0  0
    4.9215    1.1597    0.0000 H   0  0  0  0  0  0  0  0  0  0  0  0
    7.6626    3.7423    0.0000 H   0  0  0  0  0  0  0  0  0  0  0  0
    6.8656    3.7423    0.0000 H   0  0  0  0  0  0  0  0  0  0  0  0
    8.3422    1.1847    0.0000 H   0  0  0  0  0  0  0  0  0  0  0  0
    8.7407    1.8750    0.0000 H   0  0  0  0  0  0  0  0  0  0  0  0
    5.7441   -0.3153    0.0000 H   0  0  0  0  0  0  0  0  0  0  0  0
    6.1426    0.3750    0.0000 H   0  0  0  0  0  0  0  0  0  0  0  0
    4.4540    0.3499    0.0000 H   0  0  0  0  0  0  0  0  0  0  0  0
    4.0555   -0.3403    0.0000 H   0  0  0  0  0  0  0  0  0  0  0  0
    9.3062    2.7304    0.0000 H   0  0  0  0  0  0  0  0  0  0  0  0
    9.5331    3.5773    0.0000 H   0  0  0  0  0  0  0  0  0  0  0  0
    8.6862    3.8043    0.0000 H   0  0  0  0  0  0  0  0  0  0  0  0
    6.4188   -0.5780    0.0000 H   0  0  0  0  0  0  0  0  0  0  0  0
    2.9132   -0.5780    0.0000 H   0  0  0  0  0  0  0  0  0  0  0  0
    6.4188   -3.8873    0.0000 H   0  0  0  0  0  0  0  0  0  0  0  0
    2.9132   -3.8873    0.0000 H   0  0  0  0  0  0  0  0  0  0  0  0
    1.4643   -1.3998    0.0000 H   0  0  0  0  0  0  0  0  0  0  0  0
    7.8678   -1.3998    0.0000 H   0  0  0  0  0  0  0  0  0  0  0  0
    7.8678   -3.0656    0.0000 H   0  0  0  0  0  0  0  0  0  0  0  0
    1.4643   -3.0656    0.0000 H   0  0  0  0  0  0  0  0  0  0  0  0
  1 15  1  0  0  0  0
  1 16  1  0  0  0  0
  2  5  1  0  0  0  0
  2  6  1  0  0  0  0
  2  7  1  0  0  0  0
  3  8  1  0  0  0  0
  3  9  1  0  0  0  0
  3 12  1  0  0  0  0
  4 11  1  0  0  0  0
  4 13  1  0  0  0  0
  4 14  1  0  0  0  0
  5  8  1  0  0  0  0
  5 27  1  0  0  0  0
  5 28  1  0  0  0  0
  6  9  1  0  0  0  0
  6 25  1  0  0  0  0
  6 26  1  0  0  0  0
  7 10  1  0  0  0  0
  7 29  1  0  0  0  0
  7 30  1  0  0  0  0
  8 33  1  0  0  0  0
  8 34  1  0  0  0  0
  9 31  1  0  0  0  0
  9 32  1  0  0  0  0
 10 11  1  0  0  0  0
 10 35  1  0  0  0  0
 10 36  1  0  0  0  0
 11 37  1  0  0  0  0
 11 38  1  0  0  0  0
 12 39  1  0  0  0  0
 12 40  1  0  0  0  0
 12 41  1  0  0  0  0
 13 15  1  0  0  0  0
 13 18  2  0  0  0  0
 14 16  1  0  0  0  0
 14 17  2  0  0  0  0
 15 19  2  0  0  0  0
 16 20  2  0  0  0  0
 17 22  1  0  0  0  0
 17 43  1  0  0  0  0
 18 21  1  0  0  0  0
 18 42  1  0  0  0  0
 19 23  1  0  0  0  0
 19 44  1  0  0  0  0
 20 24  1  0  0  0  0
 20 45  1  0  0  0  0
 21 23  2  0  0  0  0
 21 47  1  0  0  0  0
 22 24  2  0  0  0  0
 22 46  1  0  0  0  0
 23 48  1  0  0  0  0
 24 49  1  0  0  0  0
M  END
> <PUBCHEM_COMPOUND_CID>
4744

> <PUBCHEM_COMPOUND_CANONICALIZED>
1

> <PUBCHEM_CACTVS_COMPLEXITY>
374

> <PUBCHEM_CACTVS_HBOND_ACCEPTOR>
4

> <PUBCHEM_CACTVS_HBOND_DONOR>
0

> <PUBCHEM_CACTVS_ROTATABLE_BOND>
4

> <PUBCHEM_CACTVS_SUBSKEYS>
AAADceB7AABAAAAAAAAAAAAAAAAAAAAAAAA8eIEAAAAAAACxQAAAHAQAAAAACAjBUAQywYMAAAiAACRCQACCAAAhChAIiBwIZIgIYGLg0ZGUIAhggADoyAcQAAAAAAAAAAAAAQAAAAAAAAACAAAAAAAAAA==

> <PUBCHEM_IUPAC_OPENEYE_NAME>
10-[3-(4-methylpiperazin-1-yl)propyl]phenothiazine

> <PUBCHEM_IUPAC_CAS_NAME>
10-[3-(4-methyl-1-piperazinyl)propyl]phenothiazine

> <PUBCHEM_IUPAC_NAME>
10-[3-(4-methylpiperazin-1-yl)propyl]phenothiazine

> <PUBCHEM_IUPAC_SYSTEMATIC_NAME>
10-[3-(4-methylpiperazin-1-yl)propyl]phenothiazine

> <PUBCHEM_IUPAC_TRADITIONAL_NAME>
10-[3-(4-methylpiperazino)propyl]phenothiazine

> <PUBCHEM_IUPAC_INCHI>
InChI=1S/C20H25N3S/c1-21-13-15-22(16-14-21)11-6-12-23-17-7-2-4-9-19(17)24-20-10-5-3-8-18(20)23/h2-5,7-10H,6,11-16H2,1H3

> <PUBCHEM_IUPAC_INCHIKEY>
WEYVCQFUGFRXOM-UHFFFAOYSA-N

> <PUBCHEM_XLOGP3>
4.1

> <PUBCHEM_EXACT_MASS>
339.176919

> <PUBCHEM_MOLECULAR_FORMULA>
C20H25N3S

> <PUBCHEM_MOLECULAR_WEIGHT>
339.4976

> <PUBCHEM_OPENEYE_CAN_SMILES>
CN1CCN(CC1)CCCN2C3=CC=CC=C3SC4=CC=CC=C42

> <PUBCHEM_OPENEYE_ISO_SMILES>
CN1CCN(CC1)CCCN2C3=CC=CC=C3SC4=CC=CC=C42

> <PUBCHEM_CACTVS_TPSA>
35

> <PUBCHEM_MONOISOTOPIC_WEIGHT>
339.176919

> <PUBCHEM_TOTAL_CHARGE>
0

> <PUBCHEM_HEAVY_ATOM_COUNT>
24

> <PUBCHEM_ATOM_DEF_STEREO_COUNT>
0

> <PUBCHEM_ATOM_UDEF_STEREO_COUNT>
0

> <PUBCHEM_BOND_DEF_STEREO_COUNT>
0

> <PUBCHEM_BOND_UDEF_STEREO_COUNT>
0

> <PUBCHEM_ISOTOPIC_ATOM_COUNT>
0

> <PUBCHEM_COMPONENT_COUNT>
1

> <PUBCHEM_CACTVS_TAUTO_COUNT>
1

> <PUBCHEM_COORDINATE_TYPE>
1
5
255

> <PUBCHEM_BONDANNOTATIONS>
13  15  8
13  18  8
14  16  8
14  17  8
15  19  8
16  20  8
17  22  8
18  21  8
19  23  8
20  24  8
21  23  8
22  24  8

$$$$

