447865
  -OEChem-07051213023D

 75 76  0     1  0  0  0  0  0999 V2000
   -8.0465    1.2392    0.1704 S   0  0  0  0  0  0  0  0  0  0  0  0
    6.4284   -0.2349   -0.2384 O   0  0  0  0  0  0  0  0  0  0  0  0
    1.2922    0.6930    0.6680 O   0  0  0  0  0  0  0  0  0  0  0  0
    4.6057    1.9230   -1.3974 O   0  0  0  0  0  0  0  0  0  0  0  0
   -1.0798    0.1343   -0.4663 O   0  0  0  0  0  0  0  0  0  0  0  0
   -1.4961    1.3777   -2.3638 O   0  0  0  0  0  0  0  0  0  0  0  0
   -6.0773   -0.1821    1.0563 N   0  0  0  0  0  0  0  0  0  0  0  0
    2.6138    2.5674   -0.1617 C   0  0  0  0  0  0  0  0  0  0  0  0
    4.5436    0.9569    0.7997 C   0  0  2  0  0  0  0  0  0  0  0  0
    5.0699   -0.3777    0.1940 C   0  0  2  0  0  0  0  0  0  0  0  0
    4.9500   -1.6502    1.0792 C   0  0  2  0  0  0  0  0  0  0  0  0
    3.9766    1.8304   -0.3359 C   0  0  0  0  0  0  0  0  0  0  0  0
    1.4593    1.5577   -0.4587 C   0  0  2  0  0  0  0  0  0  0  0  0
    3.5021   -2.1538    1.2813 C   0  0  0  0  0  0  0  0  0  0  0  0
    2.4841    3.2056    1.2316 C   0  0  0  0  0  0  0  0  0  0  0  0
    2.6137    3.7274   -1.1874 C   0  0  0  0  0  0  0  0  0  0  0  0
    5.6082    1.7822    1.5276 C   0  0  0  0  0  0  0  0  0  0  0  0
    2.7736   -2.4921   -0.0258 C   0  0  0  0  0  0  0  0  0  0  0  0
    5.6192   -1.5057    2.4513 C   0  0  0  0  0  0  0  0  0  0  0  0
    0.0819    2.1841   -0.7199 C   0  0  0  0  0  0  0  0  0  0  0  0
    1.3898   -3.1057    0.2373 C   0  0  0  0  0  0  0  0  0  0  0  0
   -0.9077    1.1941   -1.3055 C   0  0  0  0  0  0  0  0  0  0  0  0
    0.5793   -3.3144   -1.0265 C   0  0  0  0  0  0  0  0  0  0  0  0
   -2.0858   -0.8477   -0.7973 C   0  0  1  0  0  0  0  0  0  0  0  0
   -1.6218   -2.2076   -0.2537 C   0  0  0  0  0  0  0  0  0  0  0  0
   -0.6913   -2.9039   -1.2126 C   0  0  0  0  0  0  0  0  0  0  0  0
    1.2663   -4.0893   -2.1249 C   0  0  0  0  0  0  0  0  0  0  0  0
   -3.3673   -0.4348   -0.1436 C   0  0  0  0  0  0  0  0  0  0  0  0
   -3.2815   -0.3005    1.3542 C   0  0  0  0  0  0  0  0  0  0  0  0
   -4.5225   -0.1683   -0.7861 C   0  0  0  0  0  0  0  0  0  0  0  0
   -5.7786    0.2305   -0.2148 C   0  0  0  0  0  0  0  0  0  0  0  0
   -6.6998    1.0006   -0.8643 C   0  0  0  0  0  0  0  0  0  0  0  0
   -7.2618    0.2947    1.3691 C   0  0  0  0  0  0  0  0  0  0  0  0
   -7.9398    0.0699    2.6646 C   0  0  0  0  0  0  0  0  0  0  0  0
    3.7262    0.7224    1.4843 H   0  0  0  0  0  0  0  0  0  0  0  0
    4.5219   -0.5791   -0.7317 H   0  0  0  0  0  0  0  0  0  0  0  0
    5.5007   -2.4480    0.5600 H   0  0  0  0  0  0  0  0  0  0  0  0
    1.7381    0.9205   -1.3070 H   0  0  0  0  0  0  0  0  0  0  0  0
    3.5282   -3.0568    1.9053 H   0  0  0  0  0  0  0  0  0  0  0  0
    2.9213   -1.4107    1.8402 H   0  0  0  0  0  0  0  0  0  0  0  0
    1.5320    3.7376    1.3361 H   0  0  0  0  0  0  0  0  0  0  0  0
    3.2839    3.9357    1.4007 H   0  0  0  0  0  0  0  0  0  0  0  0
    2.5419    2.4778    2.0457 H   0  0  0  0  0  0  0  0  0  0  0  0
    3.5302    4.3252   -1.1081 H   0  0  0  0  0  0  0  0  0  0  0  0
    1.7749    4.4139   -1.0295 H   0  0  0  0  0  0  0  0  0  0  0  0
    2.5566    3.3512   -2.2155 H   0  0  0  0  0  0  0  0  0  0  0  0
    6.3758    2.1518    0.8385 H   0  0  0  0  0  0  0  0  0  0  0  0
    5.1642    2.6619    2.0032 H   0  0  0  0  0  0  0  0  0  0  0  0
    6.1034    1.2075    2.3134 H   0  0  0  0  0  0  0  0  0  0  0  0
    3.3909   -3.1878   -0.6062 H   0  0  0  0  0  0  0  0  0  0  0  0
    2.6429   -1.5866   -0.6278 H   0  0  0  0  0  0  0  0  0  0  0  0
    6.6651   -1.1989    2.3617 H   0  0  0  0  0  0  0  0  0  0  0  0
    5.0942   -0.7798    3.0801 H   0  0  0  0  0  0  0  0  0  0  0  0
    5.6112   -2.4639    2.9831 H   0  0  0  0  0  0  0  0  0  0  0  0
   -0.3657    2.5993    0.1901 H   0  0  0  0  0  0  0  0  0  0  0  0
    0.1524    2.9924   -1.4539 H   0  0  0  0  0  0  0  0  0  0  0  0
    1.5148   -4.0767    0.7329 H   0  0  0  0  0  0  0  0  0  0  0  0
    0.8605   -2.4629    0.9462 H   0  0  0  0  0  0  0  0  0  0  0  0
    6.9964   -0.1499    0.5442 H   0  0  0  0  0  0  0  0  0  0  0  0
    0.8531    1.1868    1.3804 H   0  0  0  0  0  0  0  0  0  0  0  0
   -2.2106   -0.9068   -1.8864 H   0  0  0  0  0  0  0  0  0  0  0  0
   -2.4842   -2.8755   -0.1263 H   0  0  0  0  0  0  0  0  0  0  0  0
   -1.1629   -2.0939    0.7323 H   0  0  0  0  0  0  0  0  0  0  0  0
   -1.1574   -3.1351   -2.1709 H   0  0  0  0  0  0  0  0  0  0  0  0
    2.0722   -3.4974   -2.5696 H   0  0  0  0  0  0  0  0  0  0  0  0
    1.6890   -5.0178   -1.7267 H   0  0  0  0  0  0  0  0  0  0  0  0
    0.5800   -4.3668   -2.9323 H   0  0  0  0  0  0  0  0  0  0  0  0
   -2.2529   -0.1380    1.6945 H   0  0  0  0  0  0  0  0  0  0  0  0
   -3.8365    0.5653    1.7294 H   0  0  0  0  0  0  0  0  0  0  0  0
   -3.6444   -1.2104    1.8436 H   0  0  0  0  0  0  0  0  0  0  0  0
   -4.5035   -0.2343   -1.8733 H   0  0  0  0  0  0  0  0  0  0  0  0
   -6.6676    1.4280   -1.8570 H   0  0  0  0  0  0  0  0  0  0  0  0
   -7.3167   -0.5454    3.3219 H   0  0  0  0  0  0  0  0  0  0  0  0
   -8.1307    1.0177    3.1781 H   0  0  0  0  0  0  0  0  0  0  0  0
   -8.8922   -0.4514    2.5246 H   0  0  0  0  0  0  0  0  0  0  0  0
  1 32  1  0  0  0  0
  1 33  1  0  0  0  0
  2 10  1  0  0  0  0
  2 59  1  0  0  0  0
  3 13  1  0  0  0  0
  3 60  1  0  0  0  0
  4 12  2  0  0  0  0
  5 22  1  0  0  0  0
  5 24  1  0  0  0  0
  6 22  2  0  0  0  0
  7 31  1  0  0  0  0
  7 33  2  0  0  0  0
  8 12  1  0  0  0  0
  8 13  1  0  0  0  0
  8 15  1  0  0  0  0
  8 16  1  0  0  0  0
  9 10  1  0  0  0  0
  9 12  1  0  0  0  0
  9 17  1  0  0  0  0
  9 35  1  0  0  0  0
 10 11  1  0  0  0  0
 10 36  1  0  0  0  0
 11 14  1  0  0  0  0
 11 19  1  0  0  0  0
 11 37  1  0  0  0  0
 13 20  1  0  0  0  0
 13 38  1  0  0  0  0
 14 18  1  0  0  0  0
 14 39  1  0  0  0  0
 14 40  1  0  0  0  0
 15 41  1  0  0  0  0
 15 42  1  0  0  0  0
 15 43  1  0  0  0  0
 16 44  1  0  0  0  0
 16 45  1  0  0  0  0
 16 46  1  0  0  0  0
 17 47  1  0  0  0  0
 17 48  1  0  0  0  0
 17 49  1  0  0  0  0
 18 21  1  0  0  0  0
 18 50  1  0  0  0  0
 18 51  1  0  0  0  0
 19 52  1  0  0  0  0
 19 53  1  0  0  0  0
 19 54  1  0  0  0  0
 20 22  1  0  0  0  0
 20 55  1  0  0  0  0
 20 56  1  0  0  0  0
 21 23  1  0  0  0  0
 21 57  1  0  0  0  0
 21 58  1  0  0  0  0
 23 26  2  0  0  0  0
 23 27  1  0  0  0  0
 24 25  1  0  0  0  0
 24 28  1  0  0  0  0
 24 61  1  0  0  0  0
 25 26  1  0  0  0  0
 25 62  1  0  0  0  0
 25 63  1  0  0  0  0
 26 64  1  0  0  0  0
 27 65  1  0  0  0  0
 27 66  1  0  0  0  0
 27 67  1  0  0  0  0
 28 29  1  0  0  0  0
 28 30  2  0  0  0  0
 29 68  1  0  0  0  0
 29 69  1  0  0  0  0
 29 70  1  0  0  0  0
 30 31  1  0  0  0  0
 30 71  1  0  0  0  0
 31 32  2  0  0  0  0
 32 72  1  0  0  0  0
 33 34  1  0  0  0  0
 34 73  1  0  0  0  0
 34 74  1  0  0  0  0
 34 75  1  0  0  0  0
M  END
> <PUBCHEM_COMPOUND_CID>
447865

> <PUBCHEM_CONFORMER_RMSD>
0.8

> <PUBCHEM_CONFORMER_DIVERSEORDER>
144
20
97
96
54
39
72
73
88
5
52
122
140
4
15
19
112
102
143
117
32
84
81
90
42
18
103
151
155
128
12
7
125
75
55
150
6
137
94
93
131
68
78
145
3
99
64
108
142
63
89
153
110
83
107
147
48
118
17
38
29
146
92
10
115
2
33
130
86
66
133
104
141
57
91
13
65
132
80
41
148
22
121
28
69
100
149
59
109
30
105
53
79
67
14
126
8
98
136
134
82
114
87
50
76
23
1
139
31
106
60
34
123
16
62
129
77
9
85
24
127
49
70
51
113
11
25
47
44
40
61
101
154
156
120
45
26
152
35
135
138
95
37
71
124
116
74
46
111
58
43
119
27
21
56
36

> <PUBCHEM_MMFF94_PARTIAL_CHARGES>
32
1 -0.08
10 0.28
12 0.45
13 0.28
2 -0.68
20 0.06
21 0.14
22 0.66
23 -0.28
24 0.42
25 0.14
26 -0.29
27 0.14
28 -0.28
29 0.14
3 -0.68
30 -0.1
31 0.18
32 -0.11
33 0.2
34 0.18
4 -0.57
5 -0.43
59 0.4
6 -0.57
60 0.4
64 0.15
7 -0.57
71 0.15
72 0.15
8 0.06
9 0.06

> <PUBCHEM_EFFECTIVE_ROTOR_COUNT>
4.4

> <PUBCHEM_PHARMACOPHORE_FEATURES>
10
1 2 acceptor
1 2 donor
1 29 hydrophobe
1 3 acceptor
1 3 donor
1 4 acceptor
1 6 acceptor
1 7 acceptor
3 8 15 16 hydrophobe
5 1 7 31 32 33 rings

> <PUBCHEM_HEAVY_ATOM_COUNT>
34

> <PUBCHEM_ATOM_DEF_STEREO_COUNT>
5

> <PUBCHEM_ATOM_UDEF_STEREO_COUNT>
0

> <PUBCHEM_BOND_DEF_STEREO_COUNT>
2

> <PUBCHEM_BOND_UDEF_STEREO_COUNT>
0

> <PUBCHEM_ISOTOPIC_ATOM_COUNT>
0

> <PUBCHEM_COMPONENT_COUNT>
1

> <PUBCHEM_CACTVS_TAUTO_COUNT>
2

> <PUBCHEM_CONFORMER_ID>
0006D57900000090

> <PUBCHEM_MMFF94_ENERGY>
74.6861

> <PUBCHEM_FEATURE_SELFOVERLAP>
50.744

> <PUBCHEM_SHAPE_FINGERPRINT>
10692045 39 18410849963266420233
11170278 141 17416387794117687131
12422481 6 18201443549713358511
12677640 9 18045508513092513863
12717326 120 16270495463278793187
12717326 69 17771603695567108339
13383668 262 16052898783099434731
13782708 43 16486981695683179579
14020679 6 17917993845582157059
14028597 1 17531519971306060385
14114211 68 17987779896675241614
14117953 113 18335422408939143294
14394314 77 18335428911066234320
14725015 67 18200042883748271202
14840074 17 18412829075247955374
14910700 183 18342737468479076307
15001296 14 18337398136580926712
15064986 96 18336535062745130747
15183329 4 18261107461731960005
15297060 5 17821730498974899378
15328829 1 17459211663110836189
15420108 30 18261118417908780559
15781502 461 18272657874405234829
17913733 40 18262220142119453259
19301679 30 18202277035684177265
1979834 28 18334859454421728742
20554085 129 15502374543526509343
21298829 104 18261962859907511264
21716022 299 14274840269848200150
3178227 256 18413668019604476368
3411729 13 18412821391852104055
3680242 22 18341341041271247274
394071 54 18334571391165659123
397830 11 18271794715260325971
463206 1 18269004085738805170
5109719 28 18409441518973427435
5385378 56 18261661641493407999

> <PUBCHEM_SHAPE_MULTIPOLES>
669.23
18.85
4.35
1.96
32.36
1.65
0.53
-5.86
11.05
-6.21
-1.83
0.48
0.3
-0.73

> <PUBCHEM_SHAPE_SELFOVERLAP>
1343.612

> <PUBCHEM_SHAPE_VOLUME>
396.5

> <PUBCHEM_COORDINATE_TYPE>
2
5
10

$$$$

