14233
  -OEChem-06241222422D

 20 19  0     0  0  0  0  0  0999 V2000
    3.4030    1.0600    0.0000 O   0  0  0  0  0  0  0  0  0  0  0  0
    4.2690   -0.4400    0.0000 N   0  0  0  0  0  0  0  0  0  0  0  0
    2.5369   -0.4400    0.0000 N   0  0  0  0  0  0  0  0  0  0  0  0
    5.1350    0.0600    0.0000 C   0  0  0  0  0  0  0  0  0  0  0  0
    6.0010    0.5600    0.0000 C   0  0  0  0  0  0  0  0  0  0  0  0
    4.6350    0.9260    0.0000 C   0  0  0  0  0  0  0  0  0  0  0  0
    5.6350   -0.8060    0.0000 C   0  0  0  0  0  0  0  0  0  0  0  0
    3.4030    0.0600    0.0000 C   0  0  0  0  0  0  0  0  0  0  0  0
    6.3110    0.0231    0.0000 H   0  0  0  0  0  0  0  0  0  0  0  0
    6.5380    0.8700    0.0000 H   0  0  0  0  0  0  0  0  0  0  0  0
    5.6910    1.0969    0.0000 H   0  0  0  0  0  0  0  0  0  0  0  0
    5.1720    1.2360    0.0000 H   0  0  0  0  0  0  0  0  0  0  0  0
    4.3250    1.4630    0.0000 H   0  0  0  0  0  0  0  0  0  0  0  0
    4.0981    0.6160    0.0000 H   0  0  0  0  0  0  0  0  0  0  0  0
    5.0981   -1.1160    0.0000 H   0  0  0  0  0  0  0  0  0  0  0  0
    5.9450   -1.3430    0.0000 H   0  0  0  0  0  0  0  0  0  0  0  0
    6.1720   -0.4960    0.0000 H   0  0  0  0  0  0  0  0  0  0  0  0
    4.2690   -1.0600    0.0000 H   0  0  0  0  0  0  0  0  0  0  0  0
    2.0000   -0.1300    0.0000 H   0  0  0  0  0  0  0  0  0  0  0  0
    2.5369   -1.0600    0.0000 H   0  0  0  0  0  0  0  0  0  0  0  0
  1  8  2  0  0  0  0
  2  4  1  0  0  0  0
  2  8  1  0  0  0  0
  2 18  1  0  0  0  0
  3  8  1  0  0  0  0
  3 19  1  0  0  0  0
  3 20  1  0  0  0  0
  4  5  1  0  0  0  0
  4  6  1  0  0  0  0
  4  7  1  0  0  0  0
  5  9  1  0  0  0  0
  5 10  1  0  0  0  0
  5 11  1  0  0  0  0
  6 12  1  0  0  0  0
  6 13  1  0  0  0  0
  6 14  1  0  0  0  0
  7 15  1  0  0  0  0
  7 16  1  0  0  0  0
  7 17  1  0  0  0  0
M  END
> <PUBCHEM_COMPOUND_CID>
14233

> <PUBCHEM_COMPOUND_CANONICALIZED>
1

> <PUBCHEM_CACTVS_COMPLEXITY>
93.1

> <PUBCHEM_CACTVS_HBOND_ACCEPTOR>
1

> <PUBCHEM_CACTVS_HBOND_DONOR>
2

> <PUBCHEM_CACTVS_ROTATABLE_BOND>
1

> <PUBCHEM_CACTVS_SUBSKEYS>
AAADccBjIAAAAAAAAAAAAAAAAAAAAAAAAAAAAAAAAAAAAAAAAAAAHgAQAAAADIiBAAADAALAAAAIAAAAEAAAAAAAAAAAAAAAAACAAAAAAAAAAAAAFAIAAAAAAAAAAAAAAAAAAAAAAAAAAAAAAAAAAAAAAA==

> <PUBCHEM_IUPAC_OPENEYE_NAME>
tert-butylurea

> <PUBCHEM_IUPAC_CAS_NAME>
tert-butylurea

> <PUBCHEM_IUPAC_NAME>
tert-butylurea

> <PUBCHEM_IUPAC_SYSTEMATIC_NAME>
1-tert-butylurea

> <PUBCHEM_IUPAC_TRADITIONAL_NAME>
tert-butylurea

> <PUBCHEM_IUPAC_INCHI>
InChI=1S/C5H12N2O/c1-5(2,3)7-4(6)8/h1-3H3,(H3,6,7,8)

> <PUBCHEM_IUPAC_INCHIKEY>
JLEHSYHLHLHPAL-UHFFFAOYSA-N

> <PUBCHEM_XLOGP3_AA>
0

> <PUBCHEM_EXACT_MASS>
116.094963

> <PUBCHEM_MOLECULAR_FORMULA>
C5H12N2O

> <PUBCHEM_MOLECULAR_WEIGHT>
116.16158

> <PUBCHEM_OPENEYE_CAN_SMILES>
CC(C)(C)NC(=O)N

> <PUBCHEM_OPENEYE_ISO_SMILES>
CC(C)(C)NC(=O)N

> <PUBCHEM_CACTVS_TPSA>
55.1

> <PUBCHEM_MONOISOTOPIC_WEIGHT>
116.094963

> <PUBCHEM_TOTAL_CHARGE>
0

> <PUBCHEM_HEAVY_ATOM_COUNT>
8

> <PUBCHEM_ATOM_DEF_STEREO_COUNT>
0

> <PUBCHEM_ATOM_UDEF_STEREO_COUNT>
0

> <PUBCHEM_BOND_DEF_STEREO_COUNT>
0

> <PUBCHEM_BOND_UDEF_STEREO_COUNT>
0

> <PUBCHEM_ISOTOPIC_ATOM_COUNT>
0

> <PUBCHEM_COMPONENT_COUNT>
1

> <PUBCHEM_CACTVS_TAUTO_COUNT>
3

> <PUBCHEM_COORDINATE_TYPE>
1
5
255

$$$$

