439507
  -OEChem-07051212453D

 24 24  0     1  0  0  0  0  0999 V2000
   -0.4761    1.2254    0.1396 O   0  0  0  0  0  0  0  0  0  0  0  0
   -1.1920   -2.3778    0.2357 O   0  0  0  0  0  0  0  0  0  0  0  0
    1.1411   -1.7026   -1.1168 O   0  0  0  0  0  0  0  0  0  0  0  0
    2.9901    0.0336   -0.0016 O   0  0  0  0  0  0  0  0  0  0  0  0
    1.5143    2.4423    0.1143 O   0  0  0  0  0  0  0  0  0  0  0  0
   -3.1566    1.3130   -0.4594 O   0  0  0  0  0  0  0  0  0  0  0  0
   -0.5255   -1.1668    0.5685 C   0  0  1  0  0  0  0  0  0  0  0  0
    0.9653   -1.2751    0.2365 C   0  0  2  0  0  0  0  0  0  0  0  0
   -1.1724    0.0139   -0.1687 C   0  0  1  0  0  0  0  0  0  0  0  0
    1.6436    0.0788    0.4592 C   0  0  2  0  0  0  0  0  0  0  0  0
    0.8961    1.2092   -0.2548 C   0  0  1  0  0  0  0  0  0  0  0  0
   -2.6279    0.2060    0.2475 C   0  0  0  0  0  0  0  0  0  0  0  0
   -0.6149   -1.0147    1.6522 H   0  0  0  0  0  0  0  0  0  0  0  0
    1.4403   -2.0480    0.8503 H   0  0  0  0  0  0  0  0  0  0  0  0
   -1.1526   -0.1318   -1.2563 H   0  0  0  0  0  0  0  0  0  0  0  0
    1.6749    0.2811    1.5369 H   0  0  0  0  0  0  0  0  0  0  0  0
    0.9680    1.1361   -1.3453 H   0  0  0  0  0  0  0  0  0  0  0  0
   -2.7150    0.4195    1.3180 H   0  0  0  0  0  0  0  0  0  0  0  0
   -3.2407   -0.6676    0.0100 H   0  0  0  0  0  0  0  0  0  0  0  0
   -2.0557   -2.3754    0.6811 H   0  0  0  0  0  0  0  0  0  0  0  0
    0.7668   -1.0326   -1.7109 H   0  0  0  0  0  0  0  0  0  0  0  0
    2.9713   -0.1820   -0.9498 H   0  0  0  0  0  0  0  0  0  0  0  0
    1.7748    2.3905    1.0490 H   0  0  0  0  0  0  0  0  0  0  0  0
   -2.6092    2.0877   -0.2449 H   0  0  0  0  0  0  0  0  0  0  0  0
  1  9  1  0  0  0  0
  1 11  1  0  0  0  0
  2  7  1  0  0  0  0
  2 20  1  0  0  0  0
  3  8  1  0  0  0  0
  3 21  1  0  0  0  0
  4 10  1  0  0  0  0
  4 22  1  0  0  0  0
  5 11  1  0  0  0  0
  5 23  1  0  0  0  0
  6 12  1  0  0  0  0
  6 24  1  0  0  0  0
  7  8  1  0  0  0  0
  7  9  1  0  0  0  0
  7 13  1  0  0  0  0
  8 10  1  0  0  0  0
  8 14  1  0  0  0  0
  9 12  1  0  0  0  0
  9 15  1  0  0  0  0
 10 11  1  0  0  0  0
 10 16  1  0  0  0  0
 11 17  1  0  0  0  0
 12 18  1  0  0  0  0
 12 19  1  0  0  0  0
M  END
> <PUBCHEM_COMPOUND_CID>
439507

> <PUBCHEM_CONFORMER_RMSD>
0.6

> <PUBCHEM_CONFORMER_DIVERSEORDER>
1
2
4
5
3

> <PUBCHEM_MMFF94_PARTIAL_CHARGES>
17
1 -0.56
10 0.28
11 0.56
12 0.28
2 -0.68
20 0.4
21 0.4
22 0.4
23 0.4
24 0.4
3 -0.68
4 -0.68
5 -0.68
6 -0.68
7 0.28
8 0.28
9 0.28

> <PUBCHEM_EFFECTIVE_ROTOR_COUNT>
2.2

> <PUBCHEM_PHARMACOPHORE_FEATURES>
12
1 1 acceptor
1 2 acceptor
1 2 donor
1 3 acceptor
1 3 donor
1 4 acceptor
1 4 donor
1 5 acceptor
1 5 donor
1 6 acceptor
1 6 donor
6 1 7 8 9 10 11 rings

> <PUBCHEM_HEAVY_ATOM_COUNT>
12

> <PUBCHEM_ATOM_DEF_STEREO_COUNT>
4

> <PUBCHEM_ATOM_UDEF_STEREO_COUNT>
1

> <PUBCHEM_BOND_DEF_STEREO_COUNT>
0

> <PUBCHEM_BOND_UDEF_STEREO_COUNT>
0

> <PUBCHEM_ISOTOPIC_ATOM_COUNT>
0

> <PUBCHEM_COMPONENT_COUNT>
1

> <PUBCHEM_CACTVS_TAUTO_COUNT>
1

> <PUBCHEM_CONFORMER_ID>
0006B4D300000001

> <PUBCHEM_MMFF94_ENERGY>
30.727

> <PUBCHEM_FEATURE_SELFOVERLAP>
60.966

> <PUBCHEM_SHAPE_FINGERPRINT>
12423570 1 17899123928331564178
13380535 76 18409736131574094563
16945 1 18340776974214476170
193761 8 18195809552899902410
19973954 147 18124314908862901040
20511035 2 18267586801827753228
20588541 1 18410289250574202670
21040471 1 18412827962640162617
21501502 16 18195807366756306427
23235685 24 18409737278377913344
23402655 69 18194419994459162941
23552423 10 17913772717421268882
23559900 14 18336256895958147124
241688 4 17760077815081558930
2748010 2 18194117408889594524
5084963 1 18044648694566810026
528886 8 18410017662343130251
66348 1 17834675994007634209

> <PUBCHEM_SHAPE_MULTIPOLES>
211.74
3.5
2.23
0.74
1.28
0.06
-0.07
-1.13
-0.15
-0.18
-0.08
-0.07
0.17
0.33

> <PUBCHEM_SHAPE_SELFOVERLAP>
421.856

> <PUBCHEM_SHAPE_VOLUME>
123.5

> <PUBCHEM_COORDINATE_TYPE>
2
5
10

$$$$

