46173953
  -OEChem-07051213102D

 42 43  0     1  0  0  0  0  0999 V2000
    4.5981   -2.1173    0.0000 O   0  0  0  0  0  0  0  0  0  0  0  0
    2.8660   -1.1173    0.0000 O   0  0  0  0  0  0  0  0  0  0  0  0
    7.2067    2.4273    0.0000 O   0  0  0  0  0  0  0  0  0  0  0  0
    5.4641   -0.6173    0.0000 C   0  0  1  0  0  0  0  0  0  0  0  0
    5.4641    0.3827    0.0000 C   0  0  1  0  0  0  0  0  0  0  0  0
    4.5981   -1.1173    0.0000 C   0  0  1  0  0  0  0  0  0  0  0  0
    3.7320    0.3827    0.0000 C   0  0  2  0  0  0  0  0  0  0  0  0
    4.5981    0.8827    0.0000 C   0  0  0  0  0  0  0  0  0  0  0  0
    3.7320   -0.6173    0.0000 C   0  0  1  0  0  0  0  0  0  0  0  0
    6.3580   -1.1520    0.0000 C   0  0  0  0  0  0  0  0  0  0  0  0
    2.8660    0.8827    0.0000 C   0  0  0  0  0  0  0  0  0  0  0  0
    5.4641   -1.6173    0.0000 C   0  0  0  0  0  0  0  0  0  0  0  0
    6.3580    0.9174    0.0000 C   0  0  0  0  0  0  0  0  0  0  0  0
    7.2641   -0.6381    0.0000 C   0  0  0  0  0  0  0  0  0  0  0  0
    7.2641    0.4035    0.0000 C   0  0  0  0  0  0  0  0  0  0  0  0
    2.8660    1.8827    0.0000 C   0  0  0  0  0  0  0  0  0  0  0  0
    2.0000    0.3827    0.0000 C   0  0  0  0  0  0  0  0  0  0  0  0
    6.3465    1.9173    0.0000 C   0  0  0  0  0  0  0  0  0  0  0  0
    5.4576    1.2327    0.0000 H   0  0  0  0  0  0  0  0  0  0  0  0
    5.1350   -1.4273    0.0000 H   0  0  0  0  0  0  0  0  0  0  0  0
    3.7320    1.0027    0.0000 H   0  0  0  0  0  0  0  0  0  0  0  0
    4.9966    1.3577    0.0000 H   0  0  0  0  0  0  0  0  0  0  0  0
    4.1996    1.3577    0.0000 H   0  0  0  0  0  0  0  0  0  0  0  0
    3.7320   -1.2373    0.0000 H   0  0  0  0  0  0  0  0  0  0  0  0
    5.9534   -1.6217    0.0000 H   0  0  0  0  0  0  0  0  0  0  0  0
    6.7517   -1.6310    0.0000 H   0  0  0  0  0  0  0  0  0  0  0  0
    2.8660    0.2627    0.0000 H   0  0  0  0  0  0  0  0  0  0  0  0
    4.8441   -1.6173    0.0000 H   0  0  0  0  0  0  0  0  0  0  0  0
    5.4641   -2.2373    0.0000 H   0  0  0  0  0  0  0  0  0  0  0  0
    6.0841   -1.6173    0.0000 H   0  0  0  0  0  0  0  0  0  0  0  0
    7.4732   -1.2218    0.0000 H   0  0  0  0  0  0  0  0  0  0  0  0
    7.8750   -0.5320    0.0000 H   0  0  0  0  0  0  0  0  0  0  0  0
    7.7998    0.7156    0.0000 H   0  0  0  0  0  0  0  0  0  0  0  0
    4.0611   -2.4273    0.0000 H   0  0  0  0  0  0  0  0  0  0  0  0
    3.4860    1.8827    0.0000 H   0  0  0  0  0  0  0  0  0  0  0  0
    2.8660    2.5027    0.0000 H   0  0  0  0  0  0  0  0  0  0  0  0
    2.2460    1.8827    0.0000 H   0  0  0  0  0  0  0  0  0  0  0  0
    1.6900    0.9196    0.0000 H   0  0  0  0  0  0  0  0  0  0  0  0
    1.4631    0.0727    0.0000 H   0  0  0  0  0  0  0  0  0  0  0  0
    2.3100   -0.1542    0.0000 H   0  0  0  0  0  0  0  0  0  0  0  0
    2.8660   -1.7373    0.0000 H   0  0  0  0  0  0  0  0  0  0  0  0
    5.8060    2.2211    0.0000 H   0  0  0  0  0  0  0  0  0  0  0  0
  6  1  1  6  0  0  0
  1 34  1  0  0  0  0
  9  2  1  6  0  0  0
  2 41  1  0  0  0  0
  3 18  2  0  0  0  0
  4  5  1  0  0  0  0
  4  6  1  0  0  0  0
  4 10  1  0  0  0  0
  4 12  1  1  0  0  0
  5  8  1  0  0  0  0
  5 13  1  0  0  0  0
  5 19  1  6  0  0  0
  6  9  1  0  0  0  0
  6 20  1  0  0  0  0
  7  8  1  0  0  0  0
  7  9  1  0  0  0  0
  7 11  1  6  0  0  0
  7 21  1  0  0  0  0
  8 22  1  0  0  0  0
  8 23  1  0  0  0  0
  9 24  1  0  0  0  0
 10 14  1  0  0  0  0
 10 25  1  0  0  0  0
 10 26  1  0  0  0  0
 11 16  1  0  0  0  0
 11 17  1  0  0  0  0
 11 27  1  0  0  0  0
 12 28  1  0  0  0  0
 12 29  1  0  0  0  0
 12 30  1  0  0  0  0
 13 15  2  0  0  0  0
 13 18  1  0  0  0  0
 14 15  1  0  0  0  0
 14 31  1  0  0  0  0
 14 32  1  0  0  0  0
 15 33  1  0  0  0  0
 16 35  1  0  0  0  0
 16 36  1  0  0  0  0
 16 37  1  0  0  0  0
 17 38  1  0  0  0  0
 17 39  1  0  0  0  0
 17 40  1  0  0  0  0
 18 42  1  0  0  0  0
M  END
> <PUBCHEM_COMPOUND_CID>
46173953

> <PUBCHEM_COMPOUND_CANONICALIZED>
1

> <PUBCHEM_CACTVS_COMPLEXITY>
361

> <PUBCHEM_CACTVS_HBOND_ACCEPTOR>
3

> <PUBCHEM_CACTVS_HBOND_DONOR>
2

> <PUBCHEM_CACTVS_ROTATABLE_BOND>
2

> <PUBCHEM_CACTVS_SUBSKEYS>
AAADceBwMAAAAAAAAAAAAAAAAAAAAAAAAAAwQAAAAAAAAACAAAAAGgAACAAADxSggAICAAAAAgCIAihSgAAAAAAgAAAACAEAAEgBEBIAAQAAQAAEgAAJAYOIzPDPgAAAAAAAAADAAAYAADCAAAAAAAAAAA==

> <PUBCHEM_IUPAC_OPENEYE_NAME>
(4aS,5S,6R,7S,8aR)-5,6-dihydroxy-7-isopropyl-4a-methyl-4,5,6,7,8,8a-hexahydro-3H-naphthalene-1-carbaldehyde

> <PUBCHEM_IUPAC_CAS_NAME>
(4aS,5S,6R,7S,8aR)-5,6-dihydroxy-4a-methyl-7-propan-2-yl-4,5,6,7,8,8a-hexahydro-3H-naphthalene-1-carboxaldehyde

> <PUBCHEM_IUPAC_NAME>
(4aS,5S,6R,7S,8aR)-5,6-dihydroxy-4a-methyl-7-propan-2-yl-4,5,6,7,8,8a-hexahydro-3H-naphthalene-1-carbaldehyde

> <PUBCHEM_IUPAC_SYSTEMATIC_NAME>
(4aS,5S,6R,7S,8aR)-4a-methyl-5,6-bis(oxidanyl)-7-propan-2-yl-4,5,6,7,8,8a-hexahydro-3H-naphthalene-1-carbaldehyde

> <PUBCHEM_IUPAC_TRADITIONAL_NAME>
(4aS,5S,6R,7S,8aR)-5,6-dihydroxy-7-isopropyl-4a-methyl-4,5,6,7,8,8a-hexahydro-3H-naphthalene-1-carbaldehyde

> <PUBCHEM_IUPAC_INCHI>
InChI=1S/C15H24O3/c1-9(2)11-7-12-10(8-16)5-4-6-15(12,3)14(18)13(11)17/h5,8-9,11-14,17-18H,4,6-7H2,1-3H3/t11-,12-,13+,14+,15-/m0/s1

> <PUBCHEM_IUPAC_INCHIKEY>
KAQCTOHOWHIWCT-AHDPXTMNSA-N

> <PUBCHEM_XLOGP3_AA>
1.8

> <PUBCHEM_EXACT_MASS>
252.172545

> <PUBCHEM_MOLECULAR_FORMULA>
C15H24O3

> <PUBCHEM_MOLECULAR_WEIGHT>
252.34926

> <PUBCHEM_OPENEYE_CAN_SMILES>
CC(C)C1CC2C(=CCCC2(C(C1O)O)C)C=O

> <PUBCHEM_OPENEYE_ISO_SMILES>
CC(C)[C@@H]1C[C@H]2C(=CCC[C@@]2([C@@H]([C@@H]1O)O)C)C=O

> <PUBCHEM_CACTVS_TPSA>
57.5

> <PUBCHEM_MONOISOTOPIC_WEIGHT>
252.172545

> <PUBCHEM_TOTAL_CHARGE>
0

> <PUBCHEM_HEAVY_ATOM_COUNT>
18

> <PUBCHEM_ATOM_DEF_STEREO_COUNT>
5

> <PUBCHEM_ATOM_UDEF_STEREO_COUNT>
0

> <PUBCHEM_BOND_DEF_STEREO_COUNT>
0

> <PUBCHEM_BOND_UDEF_STEREO_COUNT>
0

> <PUBCHEM_ISOTOPIC_ATOM_COUNT>
0

> <PUBCHEM_COMPONENT_COUNT>
1

> <PUBCHEM_CACTVS_TAUTO_COUNT>
1

> <PUBCHEM_COORDINATE_TYPE>
1
5
255

> <PUBCHEM_BONDANNOTATIONS>
6  1  6
9  2  6
4  12  5
5  19  6
7  11  6

$$$$

