12996
  -OEChem-06261207382D

 27 25  0     0  0  0  0  0  0999 V2000
    3.7510    0.0000    0.0000 K   0  3  0  0  0  0  0  0  0  0  0  0
    0.5369    4.0000    0.0000 O   0  0  0  0  0  0  0  0  0  0  0  0
    1.4030    2.5000    0.0000 O   0  0  0  0  0  0  0  0  0  0  0  0
    4.8671    3.5000    0.0000 C   0  0  0  0  0  0  0  0  0  0  0  0
    4.0010    4.0000    0.0000 C   0  0  0  0  0  0  0  0  0  0  0  0
    5.7331    4.0000    0.0000 C   0  0  0  0  0  0  0  0  0  0  0  0
    3.1350    3.5000    0.0000 C   0  0  0  0  0  0  0  0  0  0  0  0
    6.5991    3.5000    0.0000 C   0  0  0  0  0  0  0  0  0  0  0  0
    2.2690    4.0000    0.0000 C   0  0  0  0  0  0  0  0  0  0  0  0
    7.4651    4.0000    0.0000 C   0  0  0  0  0  0  0  0  0  0  0  0
    1.4030    3.5000    0.0000 C   0  0  0  0  0  0  0  0  0  0  0  0
    4.4685    3.0250    0.0000 H   0  0  0  0  0  0  0  0  0  0  0  0
    5.2656    3.0250    0.0000 H   0  0  0  0  0  0  0  0  0  0  0  0
    4.3996    4.4750    0.0000 H   0  0  0  0  0  0  0  0  0  0  0  0
    3.6025    4.4750    0.0000 H   0  0  0  0  0  0  0  0  0  0  0  0
    6.1316    4.4750    0.0000 H   0  0  0  0  0  0  0  0  0  0  0  0
    5.3346    4.4750    0.0000 H   0  0  0  0  0  0  0  0  0  0  0  0
    2.7365    3.0250    0.0000 H   0  0  0  0  0  0  0  0  0  0  0  0
    3.5335    3.0250    0.0000 H   0  0  0  0  0  0  0  0  0  0  0  0
    6.2006    3.0250    0.0000 H   0  0  0  0  0  0  0  0  0  0  0  0
    6.9976    3.0250    0.0000 H   0  0  0  0  0  0  0  0  0  0  0  0
    2.6675    4.4750    0.0000 H   0  0  0  0  0  0  0  0  0  0  0  0
    1.8705    4.4750    0.0000 H   0  0  0  0  0  0  0  0  0  0  0  0
    7.7751    3.4631    0.0000 H   0  0  0  0  0  0  0  0  0  0  0  0
    8.0021    4.3100    0.0000 H   0  0  0  0  0  0  0  0  0  0  0  0
    7.1551    4.5369    0.0000 H   0  0  0  0  0  0  0  0  0  0  0  0
    0.0000    3.6900    0.0000 H   0  0  0  0  0  0  0  0  0  0  0  0
  2 11  1  0  0  0  0
  2 27  1  0  0  0  0
  3 11  2  0  0  0  0
  4  5  1  0  0  0  0
  4  6  1  0  0  0  0
  4 12  1  0  0  0  0
  4 13  1  0  0  0  0
  5  7  1  0  0  0  0
  5 14  1  0  0  0  0
  5 15  1  0  0  0  0
  6  8  1  0  0  0  0
  6 16  1  0  0  0  0
  6 17  1  0  0  0  0
  7  9  1  0  0  0  0
  7 18  1  0  0  0  0
  7 19  1  0  0  0  0
  8 10  1  0  0  0  0
  8 20  1  0  0  0  0
  8 21  1  0  0  0  0
  9 11  1  0  0  0  0
  9 22  1  0  0  0  0
  9 23  1  0  0  0  0
 10 24  1  0  0  0  0
 10 25  1  0  0  0  0
 10 26  1  0  0  0  0
M  CHG  1   1   1
M  END
> <PUBCHEM_COMPOUND_CID>
12996

> <PUBCHEM_COMPOUND_CANONICALIZED>
1

> <PUBCHEM_CACTVS_COMPLEXITY>
89.3

> <PUBCHEM_CACTVS_HBOND_ACCEPTOR>
2

> <PUBCHEM_CACTVS_HBOND_DONOR>
1

> <PUBCHEM_CACTVS_ROTATABLE_BOND>
6

> <PUBCHEM_CACTVS_SUBSKEYS>
AAADceBwMAAAQAAAAAAAAAAAAAAAAAAAAAAAAAAAAAAAAAAAAAAAGgAACAAACACAgAACCAAAAgAIAACQCAAAAAAAAAAAAAEAAAAAABIAAAAAQAAEAAAAAAGIyKCAAAAAAAAAAAAAAAAAAAAAAAAAAAAAAA==

> <PUBCHEM_IUPAC_OPENEYE_NAME>
potassium octanoic acid

> <PUBCHEM_IUPAC_CAS_NAME>
potassium octanoic acid

> <PUBCHEM_IUPAC_NAME>
potassium octanoic acid

> <PUBCHEM_IUPAC_SYSTEMATIC_NAME>
potassium octanoic acid

> <PUBCHEM_IUPAC_TRADITIONAL_NAME>
potassium caprylic acid

> <PUBCHEM_IUPAC_INCHI>
InChI=1S/C8H16O2.K/c1-2-3-4-5-6-7-8(9)10;/h2-7H2,1H3,(H,9,10);/q;+1

> <PUBCHEM_IUPAC_INCHIKEY>
RLEFZEWKMQQZOA-UHFFFAOYSA-N

> <PUBCHEM_EXACT_MASS>
183.078736

> <PUBCHEM_MOLECULAR_FORMULA>
C8H16KO2+

> <PUBCHEM_MOLECULAR_WEIGHT>
183.30974

> <PUBCHEM_OPENEYE_CAN_SMILES>
CCCCCCCC(=O)O.[K+]

> <PUBCHEM_OPENEYE_ISO_SMILES>
CCCCCCCC(=O)O.[K+]

> <PUBCHEM_CACTVS_TPSA>
37.3

> <PUBCHEM_MONOISOTOPIC_WEIGHT>
183.078736

> <PUBCHEM_TOTAL_CHARGE>
1

> <PUBCHEM_HEAVY_ATOM_COUNT>
11

> <PUBCHEM_ATOM_DEF_STEREO_COUNT>
0

> <PUBCHEM_ATOM_UDEF_STEREO_COUNT>
0

> <PUBCHEM_BOND_DEF_STEREO_COUNT>
0

> <PUBCHEM_BOND_UDEF_STEREO_COUNT>
0

> <PUBCHEM_ISOTOPIC_ATOM_COUNT>
0

> <PUBCHEM_COMPONENT_COUNT>
2

> <PUBCHEM_CACTVS_TAUTO_COUNT>
1

> <PUBCHEM_COORDINATE_TYPE>
1
5
255

$$$$

