13121618
  -OEChem-07051213072D

 84 85  0     1  0  0  0  0  0999 V2000
    4.5981    0.4050    0.0000 O   0  0  0  0  0  0  0  0  0  0  0  0
    5.4641    1.9050    0.0000 O   0  0  0  0  0  0  0  0  0  0  0  0
    2.8660    1.4050    0.0000 O   0  0  0  0  0  0  0  0  0  0  0  0
    5.4641   -4.0950    0.0000 O   0  0  0  0  0  0  0  0  0  0  0  0
    8.9282   -1.0950    0.0000 O   0  0  0  0  0  0  0  0  0  0  0  0
    9.7942    0.4050    0.0000 O   0  0  0  0  0  0  0  0  0  0  0  0
   10.6603   -4.0950    0.0000 O   0  0  0  0  0  0  0  0  0  0  0  0
    2.8660    3.4050    0.0000 N   0  0  0  0  0  0  0  0  0  0  0  0
    3.7320    2.9050    0.0000 C   0  0  2  0  0  0  0  0  0  0  0  0
    3.7320    1.9050    0.0000 C   0  0  2  0  0  0  0  0  0  0  0  0
    4.5981    1.4050    0.0000 C   0  0  2  0  0  0  0  0  0  0  0  0
    5.4641   -0.0950    0.0000 C   0  0  1  0  0  0  0  0  0  0  0  0
    4.5981    3.4050    0.0000 C   0  0  0  0  0  0  0  0  0  0  0  0
    5.4641   -1.0950    0.0000 C   0  0  2  0  0  0  0  0  0  0  0  0
    5.4641    2.9050    0.0000 C   0  0  1  0  0  0  0  0  0  0  0  0
    6.3301    0.4050    0.0000 C   0  0  1  0  0  0  0  0  0  0  0  0
    4.5981   -1.5950    0.0000 C   0  0  0  0  0  0  0  0  0  0  0  0
    4.5981   -2.5950    0.0000 C   0  0  1  0  0  0  0  0  0  0  0  0
    6.4641   -1.0950    0.0000 C   0  0  0  0  0  0  0  0  0  0  0  0
    6.3301    3.4050    0.0000 C   0  0  0  0  0  0  0  0  0  0  0  0
    6.3301    1.4050    0.0000 C   0  0  0  0  0  0  0  0  0  0  0  0
    7.1962   -0.0950    0.0000 C   0  0  0  0  0  0  0  0  0  0  0  0
    2.8660    4.4050    0.0000 C   0  0  0  0  0  0  0  0  0  0  0  0
    2.0000    2.9050    0.0000 C   0  0  0  0  0  0  0  0  0  0  0  0
    3.7320   -3.0950    0.0000 C   0  0  0  0  0  0  0  0  0  0  0  0
    5.4641   -3.0950    0.0000 C   0  0  0  0  0  0  0  0  0  0  0  0
    8.0622    0.4050    0.0000 C   0  0  0  0  0  0  0  0  0  0  0  0
    6.3301   -2.5950    0.0000 C   0  0  0  0  0  0  0  0  0  0  0  0
    9.7942   -1.5950    0.0000 C   0  0  1  0  0  0  0  0  0  0  0  0
    8.9282   -0.0950    0.0000 C   0  0  0  0  0  0  0  0  0  0  0  0
    9.7942   -2.5950    0.0000 C   0  0  2  0  0  0  0  0  0  0  0  0
    7.1962   -3.0950    0.0000 C   0  0  0  0  0  0  0  0  0  0  0  0
   10.6603   -1.0950    0.0000 C   0  0  0  0  0  0  0  0  0  0  0  0
    8.9282   -3.0950    0.0000 C   0  0  0  0  0  0  0  0  0  0  0  0
   10.6603   -3.0950    0.0000 C   0  0  0  0  0  0  0  0  0  0  0  0
    8.0622   -2.5950    0.0000 C   0  0  0  0  0  0  0  0  0  0  0  0
   11.5263   -1.5950    0.0000 C   0  0  0  0  0  0  0  0  0  0  0  0
    3.7320    3.5250    0.0000 H   0  0  0  0  0  0  0  0  0  0  0  0
    3.7320    1.2850    0.0000 H   0  0  0  0  0  0  0  0  0  0  0  0
    4.0611    1.0950    0.0000 H   0  0  0  0  0  0  0  0  0  0  0  0
    5.4641    0.5250    0.0000 H   0  0  0  0  0  0  0  0  0  0  0  0
    4.9966    3.8800    0.0000 H   0  0  0  0  0  0  0  0  0  0  0  0
    4.1996    3.8800    0.0000 H   0  0  0  0  0  0  0  0  0  0  0  0
    5.6246   -1.6939    0.0000 H   0  0  0  0  0  0  0  0  0  0  0  0
    6.0010    2.5950    0.0000 H   0  0  0  0  0  0  0  0  0  0  0  0
    6.8671    0.7150    0.0000 H   0  0  0  0  0  0  0  0  0  0  0  0
    4.3860   -1.0124    0.0000 H   0  0  0  0  0  0  0  0  0  0  0  0
    3.9875   -1.7027    0.0000 H   0  0  0  0  0  0  0  0  0  0  0  0
    4.5981   -3.2150    0.0000 H   0  0  0  0  0  0  0  0  0  0  0  0
    6.4641   -1.7150    0.0000 H   0  0  0  0  0  0  0  0  0  0  0  0
    7.0841   -1.0950    0.0000 H   0  0  0  0  0  0  0  0  0  0  0  0
    6.4641   -0.4750    0.0000 H   0  0  0  0  0  0  0  0  0  0  0  0
    6.6401    2.8681    0.0000 H   0  0  0  0  0  0  0  0  0  0  0  0
    6.8671    3.7150    0.0000 H   0  0  0  0  0  0  0  0  0  0  0  0
    6.0201    3.9419    0.0000 H   0  0  0  0  0  0  0  0  0  0  0  0
    6.9501    1.4050    0.0000 H   0  0  0  0  0  0  0  0  0  0  0  0
    6.3301    2.0250    0.0000 H   0  0  0  0  0  0  0  0  0  0  0  0
    5.7101    1.4050    0.0000 H   0  0  0  0  0  0  0  0  0  0  0  0
    2.3291    1.7150    0.0000 H   0  0  0  0  0  0  0  0  0  0  0  0
    7.1962   -0.7150    0.0000 H   0  0  0  0  0  0  0  0  0  0  0  0
    3.4860    4.4050    0.0000 H   0  0  0  0  0  0  0  0  0  0  0  0
    2.8660    5.0250    0.0000 H   0  0  0  0  0  0  0  0  0  0  0  0
    2.2460    4.4050    0.0000 H   0  0  0  0  0  0  0  0  0  0  0  0
    1.6900    3.4419    0.0000 H   0  0  0  0  0  0  0  0  0  0  0  0
    1.4631    2.5950    0.0000 H   0  0  0  0  0  0  0  0  0  0  0  0
    2.3100    2.3681    0.0000 H   0  0  0  0  0  0  0  0  0  0  0  0
    3.4220   -2.5581    0.0000 H   0  0  0  0  0  0  0  0  0  0  0  0
    3.1951   -3.4050    0.0000 H   0  0  0  0  0  0  0  0  0  0  0  0
    4.0420   -3.6319    0.0000 H   0  0  0  0  0  0  0  0  0  0  0  0
    8.0622    1.0250    0.0000 H   0  0  0  0  0  0  0  0  0  0  0  0
    6.6401   -2.0581    0.0000 H   0  0  0  0  0  0  0  0  0  0  0  0
    9.7942   -0.9750    0.0000 H   0  0  0  0  0  0  0  0  0  0  0  0
    9.7942   -3.2150    0.0000 H   0  0  0  0  0  0  0  0  0  0  0  0
   11.0588   -0.6201    0.0000 H   0  0  0  0  0  0  0  0  0  0  0  0
   10.2617   -0.6201    0.0000 H   0  0  0  0  0  0  0  0  0  0  0  0
    7.1962   -3.7150    0.0000 H   0  0  0  0  0  0  0  0  0  0  0  0
    8.9282   -3.7150    0.0000 H   0  0  0  0  0  0  0  0  0  0  0  0
   11.2708   -3.2027    0.0000 H   0  0  0  0  0  0  0  0  0  0  0  0
   10.8723   -2.5124    0.0000 H   0  0  0  0  0  0  0  0  0  0  0  0
    8.0622   -1.9750    0.0000 H   0  0  0  0  0  0  0  0  0  0  0  0
   11.2163   -2.1319    0.0000 H   0  0  0  0  0  0  0  0  0  0  0  0
   12.0632   -1.9050    0.0000 H   0  0  0  0  0  0  0  0  0  0  0  0
   11.8363   -1.0581    0.0000 H   0  0  0  0  0  0  0  0  0  0  0  0
   11.1972   -4.4050    0.0000 H   0  0  0  0  0  0  0  0  0  0  0  0
 11  1  1  1  0  0  0
 12  1  1  6  0  0  0
  2 11  1  0  0  0  0
  2 15  1  0  0  0  0
 10  3  1  6  0  0  0
  3 59  1  0  0  0  0
  4 26  2  0  0  0  0
  5 29  1  0  0  0  0
  5 30  1  0  0  0  0
  6 30  2  0  0  0  0
  7 35  1  0  0  0  0
  7 84  1  0  0  0  0
  9  8  1  1  0  0  0
  8 23  1  0  0  0  0
  8 24  1  0  0  0  0
  9 10  1  0  0  0  0
  9 13  1  0  0  0  0
  9 38  1  0  0  0  0
 10 11  1  0  0  0  0
 10 39  1  0  0  0  0
 11 40  1  0  0  0  0
 12 14  1  0  0  0  0
 12 16  1  0  0  0  0
 12 41  1  0  0  0  0
 13 15  1  0  0  0  0
 13 42  1  0  0  0  0
 13 43  1  0  0  0  0
 14 17  1  0  0  0  0
 14 19  1  1  0  0  0
 14 44  1  0  0  0  0
 15 20  1  1  0  0  0
 15 45  1  0  0  0  0
 16 21  1  1  0  0  0
 16 22  1  0  0  0  0
 16 46  1  0  0  0  0
 17 18  1  0  0  0  0
 17 47  1  0  0  0  0
 17 48  1  0  0  0  0
 18 25  1  6  0  0  0
 18 26  1  0  0  0  0
 18 49  1  0  0  0  0
 19 50  1  0  0  0  0
 19 51  1  0  0  0  0
 19 52  1  0  0  0  0
 20 53  1  0  0  0  0
 20 54  1  0  0  0  0
 20 55  1  0  0  0  0
 21 56  1  0  0  0  0
 21 57  1  0  0  0  0
 21 58  1  0  0  0  0
 22 27  2  0  0  0  0
 22 60  1  0  0  0  0
 23 61  1  0  0  0  0
 23 62  1  0  0  0  0
 23 63  1  0  0  0  0
 24 64  1  0  0  0  0
 24 65  1  0  0  0  0
 24 66  1  0  0  0  0
 25 67  1  0  0  0  0
 25 68  1  0  0  0  0
 25 69  1  0  0  0  0
 26 28  1  0  0  0  0
 27 30  1  0  0  0  0
 27 70  1  0  0  0  0
 28 32  2  0  0  0  0
 28 71  1  0  0  0  0
 29 31  1  0  0  0  0
 29 33  1  6  0  0  0
 29 72  1  0  0  0  0
 31 34  1  0  0  0  0
 31 35  1  1  0  0  0
 31 73  1  0  0  0  0
 32 36  1  0  0  0  0
 32 76  1  0  0  0  0
 33 37  1  0  0  0  0
 33 74  1  0  0  0  0
 33 75  1  0  0  0  0
 34 36  2  0  0  0  0
 34 77  1  0  0  0  0
 35 78  1  0  0  0  0
 35 79  1  0  0  0  0
 36 80  1  0  0  0  0
 37 81  1  0  0  0  0
 37 82  1  0  0  0  0
 37 83  1  0  0  0  0
M  END
> <PUBCHEM_COMPOUND_CID>
13121618

> <PUBCHEM_COMPOUND_CANONICALIZED>
1

> <PUBCHEM_CACTVS_COMPLEXITY>
823

> <PUBCHEM_CACTVS_HBOND_ACCEPTOR>
8

> <PUBCHEM_CACTVS_HBOND_DONOR>
2

> <PUBCHEM_CACTVS_ROTATABLE_BOND>
5

> <PUBCHEM_CACTVS_SUBSKEYS>
AAADcfB6OAAAAAAAAAAAAAAAAAAAAAAAAAAkAAAAAAAAAAAAAAAAHgAACAAADTzxgAcCCAMABgCIAKDSCAAAAAAgAAAICAEIAEgbFBIAoQAmUAAHwAAfoYPI7MzOAAAAAAAAAAAAAAAAAAAAAAAAAAAAAA==

> <PUBCHEM_IUPAC_OPENEYE_NAME>
(3E,5S,6S,7S,9R,11E,13E,15R,16R)-6-[(2S,3R,4S,6R)-4-(dimethylamino)-3-hydroxy-6-methyl-tetrahydropyran-2-yl]oxy-16-ethyl-15-(hydroxymethyl)-5,7,9-trimethyl-1-oxacyclohexadeca-3,11,13-triene-2,10-dione

> <PUBCHEM_IUPAC_CAS_NAME>
(3E,5S,6S,7S,9R,11E,13E,15R,16R)-6-[[(2S,3R,4S,6R)-4-(dimethylamino)-3-hydroxy-6-methyl-2-oxanyl]oxy]-16-ethyl-15-(hydroxymethyl)-5,7,9-trimethyl-1-oxacyclohexadeca-3,11,13-triene-2,10-dione

> <PUBCHEM_IUPAC_NAME>
(3E,5S,6S,7S,9R,11E,13E,15R,16R)-6-[(2S,3R,4S,6R)-4-(dimethylamino)-3-hydroxy-6-methyloxan-2-yl]oxy-16-ethyl-15-(hydroxymethyl)-5,7,9-trimethyl-1-oxacyclohexadeca-3,11,13-triene-2,10-dione

> <PUBCHEM_IUPAC_SYSTEMATIC_NAME>
(3E,5S,6S,7S,9R,11E,13E,15R,16R)-6-[(2S,3R,4S,6R)-4-(dimethylamino)-6-methyl-3-oxidanyl-oxan-2-yl]oxy-16-ethyl-15-(hydroxymethyl)-5,7,9-trimethyl-1-oxacyclohexadeca-3,11,13-triene-2,10-dione

> <PUBCHEM_IUPAC_TRADITIONAL_NAME>
(3E,5S,6S,7S,9R,11E,13E,15R,16R)-6-[(2S,3R,4S,6R)-4-(dimethylamino)-3-hydroxy-6-methyl-tetrahydropyran-2-yl]oxy-16-ethyl-5,7,9-trimethyl-15-methylol-1-oxacyclohexadeca-3,11,13-triene-2,10-quinone

> <PUBCHEM_IUPAC_INCHI>
InChI=1S/C29H47NO7/c1-8-25-22(17-31)11-9-10-12-24(32)19(3)15-20(4)28(18(2)13-14-26(33)36-25)37-29-27(34)23(30(6)7)16-21(5)35-29/h9-14,18-23,25,27-29,31,34H,8,15-17H2,1-7H3/b11-9+,12-10+,14-13+/t18-,19+,20-,21+,22+,23-,25+,27+,28+,29-/m0/s1

> <PUBCHEM_IUPAC_INCHIKEY>
HREUKRQZLNMEFQ-KMWMHNJKSA-N

> <PUBCHEM_XLOGP3_AA>
4.1

> <PUBCHEM_EXACT_MASS>
521.335253

> <PUBCHEM_MOLECULAR_FORMULA>
C29H47NO7

> <PUBCHEM_MOLECULAR_WEIGHT>
521.68598

> <PUBCHEM_OPENEYE_CAN_SMILES>
CCC1C(C=CC=CC(=O)C(CC(C(C(C=CC(=O)O1)C)OC2C(C(CC(O2)C)N(C)C)O)C)C)CO

> <PUBCHEM_OPENEYE_ISO_SMILES>
CC[C@@H]1[C@H](/C=C/C=C/C(=O)[C@@H](C[C@@H]([C@@H]([C@H](/C=C/C(=O)O1)C)O[C@H]2[C@@H]([C@H](C[C@H](O2)C)N(C)C)O)C)C)CO

> <PUBCHEM_CACTVS_TPSA>
106

> <PUBCHEM_MONOISOTOPIC_WEIGHT>
521.335253

> <PUBCHEM_TOTAL_CHARGE>
0

> <PUBCHEM_HEAVY_ATOM_COUNT>
37

> <PUBCHEM_ATOM_DEF_STEREO_COUNT>
10

> <PUBCHEM_ATOM_UDEF_STEREO_COUNT>
0

> <PUBCHEM_BOND_DEF_STEREO_COUNT>
3

> <PUBCHEM_BOND_UDEF_STEREO_COUNT>
0

> <PUBCHEM_ISOTOPIC_ATOM_COUNT>
0

> <PUBCHEM_COMPONENT_COUNT>
1

> <PUBCHEM_CACTVS_TAUTO_COUNT>
7

> <PUBCHEM_COORDINATE_TYPE>
1
5
255

> <PUBCHEM_BONDANNOTATIONS>
11  1  5
12  1  6
14  19  5
15  20  5
16  21  5
18  25  6
29  33  6
10  3  6
31  35  5
9  8  5

$$$$

