439780
  -OEChem-07051212472D

 29 29  0     1  0  0  0  0  0999 V2000
    4.2690    0.4050    0.0000 O   0  0  0  0  0  0  0  0  0  0  0  0
    6.0010   -1.5950    0.0000 O   0  0  0  0  0  0  0  0  0  0  0  0
    4.2690   -2.5950    0.0000 O   0  0  0  0  0  0  0  0  0  0  0  0
    2.5369   -1.5950    0.0000 O   0  0  0  0  0  0  0  0  0  0  0  0
    2.5369    0.4050    0.0000 O   0  0  0  0  0  0  0  0  0  0  0  0
    6.0010    1.4050    0.0000 O   0  0  0  0  0  0  0  0  0  0  0  0
    7.7331    1.4050    0.0000 O   0  0  0  0  0  0  0  0  0  0  0  0
    5.1350   -1.0950    0.0000 C   0  0  1  0  0  0  0  0  0  0  0  0
    4.2690   -1.5950    0.0000 C   0  0  1  0  0  0  0  0  0  0  0  0
    5.1350   -0.0950    0.0000 C   0  0  1  0  0  0  0  0  0  0  0  0
    3.4030   -1.0950    0.0000 C   0  0  2  0  0  0  0  0  0  0  0  0
    3.4030   -0.0950    0.0000 C   0  0  1  0  0  0  0  0  0  0  0  0
    6.0010    0.4050    0.0000 C   0  0  0  0  0  0  0  0  0  0  0  0
    6.8671    1.9050    0.0000 C   0  0  0  0  0  0  0  0  0  0  0  0
    6.8671    2.9050    0.0000 C   0  0  0  0  0  0  0  0  0  0  0  0
    5.1350   -1.7150    0.0000 H   0  0  0  0  0  0  0  0  0  0  0  0
    4.8059   -1.9050    0.0000 H   0  0  0  0  0  0  0  0  0  0  0  0
    5.1350    0.5250    0.0000 H   0  0  0  0  0  0  0  0  0  0  0  0
    3.4030   -1.7150    0.0000 H   0  0  0  0  0  0  0  0  0  0  0  0
    3.4030    0.5250    0.0000 H   0  0  0  0  0  0  0  0  0  0  0  0
    6.2131   -0.1776    0.0000 H   0  0  0  0  0  0  0  0  0  0  0  0
    6.6116    0.5127    0.0000 H   0  0  0  0  0  0  0  0  0  0  0  0
    6.5380   -1.2850    0.0000 H   0  0  0  0  0  0  0  0  0  0  0  0
    3.7320   -2.9050    0.0000 H   0  0  0  0  0  0  0  0  0  0  0  0
    2.0000   -1.2850    0.0000 H   0  0  0  0  0  0  0  0  0  0  0  0
    2.5369    1.0250    0.0000 H   0  0  0  0  0  0  0  0  0  0  0  0
    7.4871    2.9050    0.0000 H   0  0  0  0  0  0  0  0  0  0  0  0
    6.8671    3.5250    0.0000 H   0  0  0  0  0  0  0  0  0  0  0  0
    6.2471    2.9050    0.0000 H   0  0  0  0  0  0  0  0  0  0  0  0
  1 10  1  0  0  0  0
  1 12  1  0  0  0  0
  8  2  1  1  0  0  0
  2 23  1  0  0  0  0
  9  3  1  6  0  0  0
  3 24  1  0  0  0  0
 11  4  1  1  0  0  0
  4 25  1  0  0  0  0
 12  5  1  6  0  0  0
  5 26  1  0  0  0  0
  6 13  1  0  0  0  0
  6 14  1  0  0  0  0
  7 14  2  0  0  0  0
  8  9  1  0  0  0  0
  8 10  1  0  0  0  0
  8 16  1  0  0  0  0
  9 11  1  0  0  0  0
  9 17  1  0  0  0  0
 10 13  1  6  0  0  0
 10 18  1  0  0  0  0
 11 12  1  0  0  0  0
 11 19  1  0  0  0  0
 12 20  1  0  0  0  0
 13 21  1  0  0  0  0
 13 22  1  0  0  0  0
 14 15  1  0  0  0  0
 15 27  1  0  0  0  0
 15 28  1  0  0  0  0
 15 29  1  0  0  0  0
M  END
> <PUBCHEM_COMPOUND_CID>
439780

> <PUBCHEM_COMPOUND_CANONICALIZED>
1

> <PUBCHEM_CACTVS_COMPLEXITY>
231

> <PUBCHEM_CACTVS_HBOND_ACCEPTOR>
7

> <PUBCHEM_CACTVS_HBOND_DONOR>
4

> <PUBCHEM_CACTVS_ROTATABLE_BOND>
3

> <PUBCHEM_CACTVS_SUBSKEYS>
AAADccBwOAAAAAAAAAAAAAAAAAAAAAAAAAAkAAAAAAAAAAAAAAAAGgAACAAACBSwgAMCCAAABgAIAACQCAAAAAAAAAAAAAAAAAAREAIAAAACQAAFAAAHAAHAYAwAAAAAAAAAAAAAAAAAAAAAAAAAAAAAAA==

> <PUBCHEM_IUPAC_OPENEYE_NAME>
[(2R,3S,4S,5R,6R)-3,4,5,6-tetrahydroxytetrahydropyran-2-yl]methyl acetate

> <PUBCHEM_IUPAC_CAS_NAME>
acetic acid [(2R,3S,4S,5R,6R)-3,4,5,6-tetrahydroxy-2-oxanyl]methyl ester

> <PUBCHEM_IUPAC_NAME>
[(2R,3S,4S,5R,6R)-3,4,5,6-tetrahydroxyoxan-2-yl]methyl acetate

> <PUBCHEM_IUPAC_SYSTEMATIC_NAME>
[(2R,3S,4S,5R,6R)-3,4,5,6-tetrakis(oxidanyl)oxan-2-yl]methyl ethanoate

> <PUBCHEM_IUPAC_TRADITIONAL_NAME>
acetic acid [(2R,3S,4S,5R,6R)-3,4,5,6-tetrahydroxytetrahydropyran-2-yl]methyl ester

> <PUBCHEM_IUPAC_INCHI>
InChI=1S/C8H14O7/c1-3(9)14-2-4-5(10)6(11)7(12)8(13)15-4/h4-8,10-13H,2H2,1H3/t4-,5-,6+,7-,8-/m1/s1

> <PUBCHEM_IUPAC_INCHIKEY>
ILLOJQCWUBEHBA-JAJWTYFOSA-N

> <PUBCHEM_XLOGP3_AA>
-2.6

> <PUBCHEM_EXACT_MASS>
222.073953

> <PUBCHEM_MOLECULAR_FORMULA>
C8H14O7

> <PUBCHEM_MOLECULAR_WEIGHT>
222.19256

> <PUBCHEM_OPENEYE_CAN_SMILES>
CC(=O)OCC1C(C(C(C(O1)O)O)O)O

> <PUBCHEM_OPENEYE_ISO_SMILES>
CC(=O)OC[C@@H]1[C@H]([C@@H]([C@H]([C@@H](O1)O)O)O)O

> <PUBCHEM_CACTVS_TPSA>
116

> <PUBCHEM_MONOISOTOPIC_WEIGHT>
222.073953

> <PUBCHEM_TOTAL_CHARGE>
0

> <PUBCHEM_HEAVY_ATOM_COUNT>
15

> <PUBCHEM_ATOM_DEF_STEREO_COUNT>
5

> <PUBCHEM_ATOM_UDEF_STEREO_COUNT>
0

> <PUBCHEM_BOND_DEF_STEREO_COUNT>
0

> <PUBCHEM_BOND_UDEF_STEREO_COUNT>
0

> <PUBCHEM_ISOTOPIC_ATOM_COUNT>
0

> <PUBCHEM_COMPONENT_COUNT>
1

> <PUBCHEM_CACTVS_TAUTO_COUNT>
1

> <PUBCHEM_COORDINATE_TYPE>
1
5
255

> <PUBCHEM_BONDANNOTATIONS>
10  13  6
8  2  5
9  3  6
11  4  5
12  5  6

$$$$

