246873
  -OEChem-07051212503D

 62 65  0     1  0  0  0  0  0999 V2000
    2.7668    0.3003    1.9108 O   0  0  0  0  0  0  0  0  0  0  0  0
   -0.1346   -1.8244   -1.8721 O   0  0  0  0  0  0  0  0  0  0  0  0
    5.3649    0.4603    0.9715 O   0  0  0  0  0  0  0  0  0  0  0  0
   -4.7949   -0.5056    2.8437 O   0  0  0  0  0  0  0  0  0  0  0  0
    5.5673   -2.1833    0.1584 O   0  0  0  0  0  0  0  0  0  0  0  0
    1.7788    0.0786   -0.3195 C   0  0  1  0  0  0  0  0  0  0  0  0
    0.7831    1.2017    0.0462 C   0  0  2  0  0  0  0  0  0  0  0  0
   -0.5680    1.0851   -0.6765 C   0  0  1  0  0  0  0  0  0  0  0  0
   -1.2260   -0.2810   -0.2887 C   0  0  1  0  0  0  0  0  0  0  0  0
   -2.6751   -0.4363   -0.9035 C   0  0  2  0  0  0  0  0  0  0  0  0
    3.0113    0.5418    0.5180 C   0  0  1  0  0  0  0  0  0  0  0  0
   -0.2608   -1.4889   -0.4982 C   0  0  2  0  0  0  0  0  0  0  0  0
    1.1430   -1.2609    0.1075 C   0  0  0  0  0  0  0  0  0  0  0  0
   -3.5499    0.7928   -0.4788 C   0  0  2  0  0  0  0  0  0  0  0  0
    1.6056    2.4771   -0.1219 C   0  0  0  0  0  0  0  0  0  0  0  0
   -1.4740    2.2714   -0.3102 C   0  0  0  0  0  0  0  0  0  0  0  0
    3.0356    2.0768    0.3009 C   0  0  0  0  0  0  0  0  0  0  0  0
   -2.8886    2.1265   -0.8582 C   0  0  0  0  0  0  0  0  0  0  0  0
   -3.3826   -1.7337   -0.4156 C   0  0  0  0  0  0  0  0  0  0  0  0
    2.1443    0.0480   -1.8280 C   0  0  0  0  0  0  0  0  0  0  0  0
   -3.9215    0.7767    1.0181 C   0  0  0  0  0  0  0  0  0  0  0  0
   -2.6558   -0.5098   -2.4530 C   0  0  0  0  0  0  0  0  0  0  0  0
    4.3391   -0.1273    0.1755 C   0  0  2  0  0  0  0  0  0  0  0  0
   -3.7216   -1.7341    1.0703 C   0  0  0  0  0  0  0  0  0  0  0  0
   -4.5836   -0.5319    1.4359 C   0  0  1  0  0  0  0  0  0  0  0  0
    4.2969   -1.6200    0.4674 C   0  0  0  0  0  0  0  0  0  0  0  0
    0.5558    1.1316    1.1228 H   0  0  0  0  0  0  0  0  0  0  0  0
   -0.4052    1.1229   -1.7577 H   0  0  0  0  0  0  0  0  0  0  0  0
   -1.3531   -0.2357    0.8022 H   0  0  0  0  0  0  0  0  0  0  0  0
   -0.6868   -2.3682   -0.0019 H   0  0  0  0  0  0  0  0  0  0  0  0
    1.0436   -1.3020    1.1988 H   0  0  0  0  0  0  0  0  0  0  0  0
    1.7449   -2.1164   -0.1918 H   0  0  0  0  0  0  0  0  0  0  0  0
   -4.5014    0.7424   -1.0284 H   0  0  0  0  0  0  0  0  0  0  0  0
    1.2247    3.2932    0.5008 H   0  0  0  0  0  0  0  0  0  0  0  0
    1.5992    2.8238   -1.1615 H   0  0  0  0  0  0  0  0  0  0  0  0
   -1.0436    3.2007   -0.7028 H   0  0  0  0  0  0  0  0  0  0  0  0
   -1.5133    2.3913    0.7791 H   0  0  0  0  0  0  0  0  0  0  0  0
    3.7310    2.3691   -0.4943 H   0  0  0  0  0  0  0  0  0  0  0  0
    3.3215    2.6131    1.2127 H   0  0  0  0  0  0  0  0  0  0  0  0
   -3.5015    2.9626   -0.4995 H   0  0  0  0  0  0  0  0  0  0  0  0
   -2.8597    2.2250   -1.9499 H   0  0  0  0  0  0  0  0  0  0  0  0
   -2.7837   -2.6198   -0.6526 H   0  0  0  0  0  0  0  0  0  0  0  0
   -4.3219   -1.8595   -0.9727 H   0  0  0  0  0  0  0  0  0  0  0  0
    2.7391   -0.8401   -2.0683 H   0  0  0  0  0  0  0  0  0  0  0  0
    1.2706    0.0293   -2.4819 H   0  0  0  0  0  0  0  0  0  0  0  0
    2.7306    0.9197   -2.1359 H   0  0  0  0  0  0  0  0  0  0  0  0
   -3.0455    0.9592    1.6513 H   0  0  0  0  0  0  0  0  0  0  0  0
   -4.6059    1.6063    1.2393 H   0  0  0  0  0  0  0  0  0  0  0  0
   -2.2943   -1.4778   -2.8121 H   0  0  0  0  0  0  0  0  0  0  0  0
   -3.6682   -0.3971   -2.8601 H   0  0  0  0  0  0  0  0  0  0  0  0
   -2.0397    0.2680   -2.9100 H   0  0  0  0  0  0  0  0  0  0  0  0
    4.6340    0.0342   -0.8669 H   0  0  0  0  0  0  0  0  0  0  0  0
   -4.2576   -2.6559    1.3282 H   0  0  0  0  0  0  0  0  0  0  0  0
   -2.8091   -1.7525    1.6779 H   0  0  0  0  0  0  0  0  0  0  0  0
   -5.5659   -0.6191    0.9577 H   0  0  0  0  0  0  0  0  0  0  0  0
    3.5242    0.6494    2.4113 H   0  0  0  0  0  0  0  0  0  0  0  0
    0.4209   -2.6197   -1.9353 H   0  0  0  0  0  0  0  0  0  0  0  0
    4.0804   -1.8503    1.5144 H   0  0  0  0  0  0  0  0  0  0  0  0
    3.6143   -2.1523   -0.1828 H   0  0  0  0  0  0  0  0  0  0  0  0
    5.4986    1.3728    0.6649 H   0  0  0  0  0  0  0  0  0  0  0  0
   -3.9268   -0.4458    3.2780 H   0  0  0  0  0  0  0  0  0  0  0  0
    6.2279   -1.7325    0.7119 H   0  0  0  0  0  0  0  0  0  0  0  0
  1 11  1  0  0  0  0
  1 56  1  0  0  0  0
  2 12  1  0  0  0  0
  2 57  1  0  0  0  0
  3 23  1  0  0  0  0
  3 60  1  0  0  0  0
  4 25  1  0  0  0  0
  4 61  1  0  0  0  0
  5 26  1  0  0  0  0
  5 62  1  0  0  0  0
  6  7  1  0  0  0  0
  6 11  1  0  0  0  0
  6 13  1  0  0  0  0
  6 20  1  0  0  0  0
  7  8  1  0  0  0  0
  7 15  1  0  0  0  0
  7 27  1  0  0  0  0
  8  9  1  0  0  0  0
  8 16  1  0  0  0  0
  8 28  1  0  0  0  0
  9 10  1  0  0  0  0
  9 12  1  0  0  0  0
  9 29  1  0  0  0  0
 10 14  1  0  0  0  0
 10 19  1  0  0  0  0
 10 22  1  0  0  0  0
 11 17  1  0  0  0  0
 11 23  1  0  0  0  0
 12 13  1  0  0  0  0
 12 30  1  0  0  0  0
 13 31  1  0  0  0  0
 13 32  1  0  0  0  0
 14 18  1  0  0  0  0
 14 21  1  0  0  0  0
 14 33  1  0  0  0  0
 15 17  1  0  0  0  0
 15 34  1  0  0  0  0
 15 35  1  0  0  0  0
 16 18  1  0  0  0  0
 16 36  1  0  0  0  0
 16 37  1  0  0  0  0
 17 38  1  0  0  0  0
 17 39  1  0  0  0  0
 18 40  1  0  0  0  0
 18 41  1  0  0  0  0
 19 24  1  0  0  0  0
 19 42  1  0  0  0  0
 19 43  1  0  0  0  0
 20 44  1  0  0  0  0
 20 45  1  0  0  0  0
 20 46  1  0  0  0  0
 21 25  1  0  0  0  0
 21 47  1  0  0  0  0
 21 48  1  0  0  0  0
 22 49  1  0  0  0  0
 22 50  1  0  0  0  0
 22 51  1  0  0  0  0
 23 26  1  0  0  0  0
 23 52  1  0  0  0  0
 24 25  1  0  0  0  0
 24 53  1  0  0  0  0
 24 54  1  0  0  0  0
 25 55  1  0  0  0  0
 26 58  1  0  0  0  0
 26 59  1  0  0  0  0
M  END
> <PUBCHEM_COMPOUND_CID>
246873

> <PUBCHEM_CONFORMER_RMSD>
0.8

> <PUBCHEM_CONFORMER_DIVERSEORDER>
1

> <PUBCHEM_MMFF94_PARTIAL_CHARGES>
15
1 -0.68
11 0.28
12 0.28
2 -0.68
23 0.28
25 0.28
26 0.28
3 -0.68
4 -0.68
5 -0.68
56 0.4
57 0.4
60 0.4
61 0.4
62 0.4

> <PUBCHEM_EFFECTIVE_ROTOR_COUNT>
4.2

> <PUBCHEM_PHARMACOPHORE_FEATURES>
14
1 1 acceptor
1 1 donor
1 2 acceptor
1 2 donor
1 3 acceptor
1 3 donor
1 4 acceptor
1 4 donor
1 5 acceptor
1 5 donor
5 6 7 11 15 17 rings
6 10 14 19 21 24 25 rings
6 6 7 8 9 12 13 rings
6 8 9 10 14 16 18 rings

> <PUBCHEM_HEAVY_ATOM_COUNT>
26

> <PUBCHEM_ATOM_DEF_STEREO_COUNT>
10

> <PUBCHEM_ATOM_UDEF_STEREO_COUNT>
0

> <PUBCHEM_BOND_DEF_STEREO_COUNT>
0

> <PUBCHEM_BOND_UDEF_STEREO_COUNT>
0

> <PUBCHEM_ISOTOPIC_ATOM_COUNT>
0

> <PUBCHEM_COMPONENT_COUNT>
1

> <PUBCHEM_CACTVS_TAUTO_COUNT>
1

> <PUBCHEM_CONFORMER_ID>
0003C45900000001

> <PUBCHEM_MMFF94_ENERGY>
106.4485

> <PUBCHEM_FEATURE_SELFOVERLAP>
71.185

> <PUBCHEM_SHAPE_FINGERPRINT>
10675989 125 16970848458791038900
11132069 177 18260823783362595373
11135609 12 18130775819507780691
11370993 144 17385998498688075451
11552529 35 17899977132127636315
11796584 16 16343705375055503011
12403259 226 18338527356176066797
12403814 3 18334013870224622493
12422481 6 18188764067067562810
12633257 1 17313105245769489424
12714826 92 16988570082769892213
13009979 54 17845923126213576924
13140716 1 18408040706388445473
13224815 77 18271244928532015677
13544653 18 17632013023360647859
13583140 156 17560540429163615245
13675066 3 18410862066178259668
14223421 5 18341891918055483053
14341114 176 18341609334602670280
14790565 3 17620748384742842580
14955137 171 18338790208691436064
15196674 1 18337401512646721676
15209289 33 18202565072637128346
15209294 21 17313101947355795299
15463212 79 5400796142501882005
15788980 27 18342461460435446694
16945 1 18412549799257382237
17349148 13 17531258222628797734
1813 80 17489593389800028004
18186145 218 17822005406581961364
18927931 339 18341612650243738718
193927 3 17346590855329563355
20261772 1 18334856091335384689
20739085 24 18339348678535265660
20775438 99 12746976203787518417
20775530 9 15121515672970082313
21033648 29 17896622698207593024
21682296 61 18189615123754773742
221490 88 18342459236017147968
22182313 1 18116989086220048308
23402539 116 18042140846156743492
23557571 272 17131564894193132053
23559900 14 18201727244792749588
2748010 2 18190463946398620509
2838139 119 14275118459743829345
296302 2 6266901268273490830
312423 11 17489292075715528613
335352 9 18337680835296509661
5104073 3 18338526334712043496

> <PUBCHEM_SHAPE_MULTIPOLES>
505.72
10.09
2.38
1.77
4.74
0.53
0.06
-3.3
4.67
0.42
-0.14
-1.82
-0.46
0.59

> <PUBCHEM_SHAPE_SELFOVERLAP>
1071.093

> <PUBCHEM_SHAPE_VOLUME>
279.8

> <PUBCHEM_COORDINATE_TYPE>
2
5
10

$$$$

