5282593
  -OEChem-07051212543D

 41 43  0     1  0  0  0  0  0999 V2000
   -0.0330    0.7202    0.8494 O   0  0  0  0  0  0  0  0  0  0  0  0
    0.2443    2.4067   -0.6991 O   0  0  0  0  0  0  0  0  0  0  0  0
    2.8715    2.5924   -0.1385 O   0  0  0  0  0  0  0  0  0  0  0  0
   -3.3858   -1.3496   -0.4656 N   0  0  0  0  0  0  0  0  0  0  0  0
   -3.4650   -0.8364    0.9070 C   0  0  2  0  0  0  0  0  0  0  0  0
   -3.0372   -0.1670   -1.2618 C   0  0  1  0  0  0  0  0  0  0  0  0
   -4.3993    0.3595    0.6798 C   0  0  0  0  0  0  0  0  0  0  0  0
   -4.1146    0.8049   -0.7621 C   0  0  0  0  0  0  0  0  0  0  0  0
   -2.0919   -0.3862    1.4427 C   0  0  0  0  0  0  0  0  0  0  0  0
   -1.6203    0.3516   -0.9481 C   0  0  0  0  0  0  0  0  0  0  0  0
   -1.4209    0.6584    0.5422 C   0  0  0  0  0  0  0  0  0  0  0  0
   -2.5421   -2.5142   -0.6589 C   0  0  0  0  0  0  0  0  0  0  0  0
    0.6932    1.6471    0.1499 C   0  0  0  0  0  0  0  0  0  0  0  0
    2.1531    1.5818    0.5541 C   0  0  1  0  0  0  0  0  0  0  0  0
    2.7825    0.2449    0.2481 C   0  0  0  0  0  0  0  0  0  0  0  0
    2.7451   -0.7589    1.2035 C   0  0  0  0  0  0  0  0  0  0  0  0
    3.3870    0.0436   -0.9832 C   0  0  0  0  0  0  0  0  0  0  0  0
    3.3267   -1.9948    0.9206 C   0  0  0  0  0  0  0  0  0  0  0  0
    3.9684   -1.1924   -1.2660 C   0  0  0  0  0  0  0  0  0  0  0  0
    3.9383   -2.2115   -0.3140 C   0  0  0  0  0  0  0  0  0  0  0  0
   -3.9208   -1.5608    1.5906 H   0  0  0  0  0  0  0  0  0  0  0  0
   -3.1472   -0.3495   -2.3362 H   0  0  0  0  0  0  0  0  0  0  0  0
   -4.2377    1.1700    1.3980 H   0  0  0  0  0  0  0  0  0  0  0  0
   -5.4484    0.0489    0.7614 H   0  0  0  0  0  0  0  0  0  0  0  0
   -5.0299    0.7042   -1.3586 H   0  0  0  0  0  0  0  0  0  0  0  0
   -3.8011    1.8528   -0.8120 H   0  0  0  0  0  0  0  0  0  0  0  0
   -2.2056    0.0360    2.4495 H   0  0  0  0  0  0  0  0  0  0  0  0
   -1.4299   -1.2518    1.5721 H   0  0  0  0  0  0  0  0  0  0  0  0
   -0.8655   -0.3653   -1.2948 H   0  0  0  0  0  0  0  0  0  0  0  0
   -1.4760    1.2485   -1.5587 H   0  0  0  0  0  0  0  0  0  0  0  0
   -1.8596    1.6379    0.7749 H   0  0  0  0  0  0  0  0  0  0  0  0
   -2.9106   -3.3491   -0.0528 H   0  0  0  0  0  0  0  0  0  0  0  0
   -1.4901   -2.3566   -0.4045 H   0  0  0  0  0  0  0  0  0  0  0  0
   -2.5874   -2.8407   -1.7036 H   0  0  0  0  0  0  0  0  0  0  0  0
    2.2337    1.8117    1.6230 H   0  0  0  0  0  0  0  0  0  0  0  0
    2.5362    3.4525    0.1677 H   0  0  0  0  0  0  0  0  0  0  0  0
    2.2716   -0.6003    2.1681 H   0  0  0  0  0  0  0  0  0  0  0  0
    3.4110    0.8150   -1.7472 H   0  0  0  0  0  0  0  0  0  0  0  0
    3.3029   -2.7884    1.6616 H   0  0  0  0  0  0  0  0  0  0  0  0
    4.4415   -1.3629   -2.2286 H   0  0  0  0  0  0  0  0  0  0  0  0
    4.3902   -3.1741   -0.5345 H   0  0  0  0  0  0  0  0  0  0  0  0
  1 11  1  0  0  0  0
  1 13  1  0  0  0  0
  2 13  2  0  0  0  0
  3 14  1  0  0  0  0
  3 36  1  0  0  0  0
  4  5  1  0  0  0  0
  4  6  1  0  0  0  0
  4 12  1  0  0  0  0
  5  7  1  0  0  0  0
  5  9  1  0  0  0  0
  5 21  1  0  0  0  0
  6  8  1  0  0  0  0
  6 10  1  0  0  0  0
  6 22  1  0  0  0  0
  7  8  1  0  0  0  0
  7 23  1  0  0  0  0
  7 24  1  0  0  0  0
  8 25  1  0  0  0  0
  8 26  1  0  0  0  0
  9 11  1  0  0  0  0
  9 27  1  0  0  0  0
  9 28  1  0  0  0  0
 10 11  1  0  0  0  0
 10 29  1  0  0  0  0
 10 30  1  0  0  0  0
 11 31  1  0  0  0  0
 12 32  1  0  0  0  0
 12 33  1  0  0  0  0
 12 34  1  0  0  0  0
 13 14  1  0  0  0  0
 14 15  1  0  0  0  0
 14 35  1  0  0  0  0
 15 16  2  0  0  0  0
 15 17  1  0  0  0  0
 16 18  1  0  0  0  0
 16 37  1  0  0  0  0
 17 19  2  0  0  0  0
 17 38  1  0  0  0  0
 18 20  2  0  0  0  0
 18 39  1  0  0  0  0
 19 20  1  0  0  0  0
 19 40  1  0  0  0  0
 20 41  1  0  0  0  0
M  END
> <PUBCHEM_COMPOUND_CID>
5282593

> <PUBCHEM_CONFORMER_RMSD>
0.8

> <PUBCHEM_CONFORMER_DIVERSEORDER>
1
52
65
58
27
26
23
4
53
10
46
64
55
57
67
42
59
24
11
66
62
44
38
31
47
30
56
15
13
8
60
9
50
29
39
28
36
61
22
45
49
63
41
5
34
21
17
32
51
14
7
16
43
54
40
12
48
33
3
25
2
18
20
19
37
6
35

> <PUBCHEM_MMFF94_PARTIAL_CHARGES>
22
1 -0.43
11 0.28
12 0.27
13 0.66
14 0.48
15 -0.14
16 -0.15
17 -0.15
18 -0.15
19 -0.15
2 -0.57
20 -0.15
3 -0.68
36 0.4
37 0.15
38 0.15
39 0.15
4 -0.81
40 0.15
41 0.15
5 0.27
6 0.27

> <PUBCHEM_EFFECTIVE_ROTOR_COUNT>
5.2

> <PUBCHEM_PHARMACOPHORE_FEATURES>
6
1 2 acceptor
1 3 acceptor
1 3 donor
1 4 cation
6 15 16 17 18 19 20 rings
8 4 5 6 7 8 9 10 11 rings

> <PUBCHEM_HEAVY_ATOM_COUNT>
20

> <PUBCHEM_ATOM_DEF_STEREO_COUNT>
2

> <PUBCHEM_ATOM_UDEF_STEREO_COUNT>
1

> <PUBCHEM_BOND_DEF_STEREO_COUNT>
0

> <PUBCHEM_BOND_UDEF_STEREO_COUNT>
0

> <PUBCHEM_ISOTOPIC_ATOM_COUNT>
0

> <PUBCHEM_COMPONENT_COUNT>
1

> <PUBCHEM_CACTVS_TAUTO_COUNT>
1

> <PUBCHEM_CONFORMER_ID>
00509B2100000001

> <PUBCHEM_MMFF94_ENERGY>
46.77

> <PUBCHEM_FEATURE_SELFOVERLAP>
30.453

> <PUBCHEM_SHAPE_FINGERPRINT>
10062212 137 17821452348476429327
10498660 4 14261355756023046719
10616163 171 18118122476518660943
11137873 295 18413107273127442443
11578080 2 17895774983338391520
116883 192 18340211906985219828
12173636 292 16056613079221807727
12363563 72 18338797935326837786
12553582 1 18337668723857895594
12596599 1 18114174237758955314
12633257 1 18260544554332313079
12707595 3 18410575115149843200
128620 24 13973961000054946395
13224815 77 17846502499810512771
13296908 3 18341899562743900417
13533116 47 18042128665924955751
13583140 156 17460044985081489561
13631057 29 17465386313362789511
15239191 94 18407758135930953490
15537594 2 18340756109453795318
16752209 62 18195819680596531193
17349148 13 17385442120572655013
17492 89 18263363594788066247
17818456 19 17969210300037522489
1798214 55 9943512025638406554
1813 80 18188759669479987740
18186145 218 18202849846312226505
19862831 5 17561081449040286586
20281475 54 18334577919114697609
20291156 8 18408320003763489346
20645477 70 18409451362415529268
20681651 13 17677891223950621467
21069387 34 17677065563801073517
21250096 35 18335984254684665634
21731516 1 18337388344224205584
21756936 100 4748295455866884322
2215653 11 18343306994042069703
2255824 54 18337668612405010604
22646028 28 18040998448953397430
235170 7 16128653059145739246
23559900 14 18113622274579446368
314173 41 18410851070940643254
3323516 105 18060135435981572715
339767 52 18261964024012667670
463206 1 18199754798501076250
4921388 177 16271913909696380843
5161694 15 17988651817099109807
5281201 14 17704068490788598661
633830 44 17561087990523651337
90316 7 15574428838839682649
960060 61 18272649051961581422
9709674 26 18270963419047854227

> <PUBCHEM_SHAPE_MULTIPOLES>
389
9.16
2.46
1.32
0.59
0.06
-0.03
-3.44
0.91
-1.62
0.26
0.11
-0.24
-0.05

> <PUBCHEM_SHAPE_SELFOVERLAP>
830.318

> <PUBCHEM_SHAPE_VOLUME>
216.1

> <PUBCHEM_COORDINATE_TYPE>
2
5
10

$$$$

