4086
  -OEChem-07051212533D

 32 32  0     1  0  0  0  0  0999 V2000
   -0.8128    0.5571   -2.0160 O   0  0  0  0  0  0  0  0  0  0  0  0
    2.7324   -2.7018   -0.1020 O   0  0  0  0  0  0  0  0  0  0  0  0
    3.9845    1.8129    0.8126 O   0  0  0  0  0  0  0  0  0  0  0  0
   -2.9736    0.6119   -0.1143 N   0  0  0  0  0  0  0  0  0  0  0  0
   -0.5812    0.8497   -0.6387 C   0  0  1  0  0  0  0  0  0  0  0  0
   -1.6358    0.1605    0.2359 C   0  0  0  0  0  0  0  0  0  0  0  0
   -3.9775   -0.0481    0.7190 C   0  0  0  0  0  0  0  0  0  0  0  0
    0.8167    0.3906   -0.2863 C   0  0  0  0  0  0  0  0  0  0  0  0
   -3.9064   -1.5613    0.5345 C   0  0  0  0  0  0  0  0  0  0  0  0
   -5.3623    0.4828    0.3623 C   0  0  0  0  0  0  0  0  0  0  0  0
    1.7579    1.3279    0.1025 C   0  0  0  0  0  0  0  0  0  0  0  0
    1.1242   -0.9570   -0.3601 C   0  0  0  0  0  0  0  0  0  0  0  0
    2.4130   -1.3804   -0.0354 C   0  0  0  0  0  0  0  0  0  0  0  0
    3.0467    0.9047    0.4274 C   0  0  0  0  0  0  0  0  0  0  0  0
    3.3743   -0.4495    0.3585 C   0  0  0  0  0  0  0  0  0  0  0  0
   -0.6596    1.9380   -0.5224 H   0  0  0  0  0  0  0  0  0  0  0  0
   -1.4241    0.3570    1.2945 H   0  0  0  0  0  0  0  0  0  0  0  0
   -1.5558   -0.9155    0.0636 H   0  0  0  0  0  0  0  0  0  0  0  0
   -3.7972    0.1889    1.7755 H   0  0  0  0  0  0  0  0  0  0  0  0
   -3.0381    1.6227    0.0036 H   0  0  0  0  0  0  0  0  0  0  0  0
   -4.7901   -2.0389    0.9744 H   0  0  0  0  0  0  0  0  0  0  0  0
   -3.8813   -1.8431   -0.5244 H   0  0  0  0  0  0  0  0  0  0  0  0
   -3.0421   -2.0051    1.0388 H   0  0  0  0  0  0  0  0  0  0  0  0
   -5.4195    1.5668    0.5116 H   0  0  0  0  0  0  0  0  0  0  0  0
   -6.1293    0.0221    0.9943 H   0  0  0  0  0  0  0  0  0  0  0  0
   -5.6163    0.2710   -0.6826 H   0  0  0  0  0  0  0  0  0  0  0  0
    1.5090    2.3840    0.1584 H   0  0  0  0  0  0  0  0  0  0  0  0
    0.3873   -1.6867   -0.6830 H   0  0  0  0  0  0  0  0  0  0  0  0
   -1.7270    0.8196   -2.2186 H   0  0  0  0  0  0  0  0  0  0  0  0
    4.3768   -0.7863    0.6107 H   0  0  0  0  0  0  0  0  0  0  0  0
    1.9494   -3.2019   -0.3899 H   0  0  0  0  0  0  0  0  0  0  0  0
    4.8173    1.3463    0.9992 H   0  0  0  0  0  0  0  0  0  0  0  0
  1  5  1  0  0  0  0
  1 29  1  0  0  0  0
  2 13  1  0  0  0  0
  2 31  1  0  0  0  0
  3 14  1  0  0  0  0
  3 32  1  0  0  0  0
  4  6  1  0  0  0  0
  4  7  1  0  0  0  0
  4 20  1  0  0  0  0
  5  6  1  0  0  0  0
  5  8  1  0  0  0  0
  5 16  1  0  0  0  0
  6 17  1  0  0  0  0
  6 18  1  0  0  0  0
  7  9  1  0  0  0  0
  7 10  1  0  0  0  0
  7 19  1  0  0  0  0
  8 11  2  0  0  0  0
  8 12  1  0  0  0  0
  9 21  1  0  0  0  0
  9 22  1  0  0  0  0
  9 23  1  0  0  0  0
 10 24  1  0  0  0  0
 10 25  1  0  0  0  0
 10 26  1  0  0  0  0
 11 14  1  0  0  0  0
 11 27  1  0  0  0  0
 12 13  2  0  0  0  0
 12 28  1  0  0  0  0
 13 15  1  0  0  0  0
 14 15  2  0  0  0  0
 15 30  1  0  0  0  0
M  END
> <PUBCHEM_COMPOUND_CID>
4086

> <PUBCHEM_CONFORMER_RMSD>
0.6

> <PUBCHEM_CONFORMER_DIVERSEORDER>
1
22
24
23
12
7
18
25
17
27
8
26
9
16
21
3
5
10
4
6
11
20
15
14
19
13
2

> <PUBCHEM_MMFF94_PARTIAL_CHARGES>
20
1 -0.68
11 -0.15
12 -0.15
13 0.08
14 0.08
15 -0.15
2 -0.53
20 0.36
27 0.15
28 0.15
29 0.4
3 -0.53
30 0.15
31 0.45
32 0.45
4 -0.9
5 0.42
6 0.27
7 0.27
8 -0.14

> <PUBCHEM_EFFECTIVE_ROTOR_COUNT>
4

> <PUBCHEM_PHARMACOPHORE_FEATURES>
8
1 1 acceptor
1 1 donor
1 2 donor
1 3 donor
1 4 cation
1 4 donor
3 7 9 10 hydrophobe
6 8 11 12 13 14 15 rings

> <PUBCHEM_HEAVY_ATOM_COUNT>
15

> <PUBCHEM_ATOM_DEF_STEREO_COUNT>
0

> <PUBCHEM_ATOM_UDEF_STEREO_COUNT>
1

> <PUBCHEM_BOND_DEF_STEREO_COUNT>
0

> <PUBCHEM_BOND_UDEF_STEREO_COUNT>
0

> <PUBCHEM_ISOTOPIC_ATOM_COUNT>
0

> <PUBCHEM_COMPONENT_COUNT>
1

> <PUBCHEM_CACTVS_TAUTO_COUNT>
5

> <PUBCHEM_CONFORMER_ID>
00000FF600000001

> <PUBCHEM_MMFF94_ENERGY>
25.7553

> <PUBCHEM_FEATURE_SELFOVERLAP>
40.597

> <PUBCHEM_SHAPE_FINGERPRINT>
10498660 4 5400533329374305035
11543360 7 10519691268694928545
12251169 10 18334013899767160703
12507560 40 18411420656829942765
13296908 3 18060421352112573351
13533116 47 18334292115454661019
13583140 156 18041846099978910369
13675066 3 18131342012984475681
14115302 16 13758352258689962729
14252887 29 18202558488557719641
14289901 80 18333732403516015465
15219456 202 18270972330983693516
15375358 24 18202565055852787579
15501101 241 18343299266742010204
16945 1 18263664986091669420
1813 80 16917342645759724717
19141452 34 18272649048479185387
20279233 1 18273211993783977755
20645477 70 18335142037594895687
20871998 22 18060418053335220405
21065199 12 18410570695771018113
21501925 9 17988924435995791197
21673915 165 18266179439898284331
22485316 2 18411418406382740883
22854114 59 18409166580303600649
23048698 100 17894345592409338217
23402539 116 17131563755778865021
23557571 272 17489309732162578340
23559900 14 18411417327829010937
26918003 58 18410294722504956409
31174 14 18411142476003055020
33824 294 18413108363859647450
4047638 21 7132429112192474644
42 15 18341608235544625553
449060 50 18410856529775790389
5104073 3 18410568505427544035
581208 293 18272086071864267338
81228 2 17130985537312107189
8272917 22 18041553741117260655
9709674 26 18270954661968558651

> <PUBCHEM_SHAPE_MULTIPOLES>
286.1
9.09
1.83
0.97
9.46
0.97
-0.37
0.01
2.88
-1.72
0.11
0.15
-0.2
0.69

> <PUBCHEM_SHAPE_SELFOVERLAP>
580.379

> <PUBCHEM_SHAPE_VOLUME>
167.8

> <PUBCHEM_COORDINATE_TYPE>
2
5
10

$$$$

