47205579
  -OEChem-06241222593D

 37 38  0     0  0  0  0  0  0999 V2000
   -4.6274    3.0346   -0.0539 Cl  0  0  0  0  0  0  0  0  0  0  0  0
    5.0594    0.3244    0.5303 S   0  0  0  0  0  0  0  0  0  0  0  0
    5.9654    1.4541    0.5912 O   0  0  0  0  0  0  0  0  0  0  0  0
    5.4274   -0.9602    1.0925 O   0  0  0  0  0  0  0  0  0  0  0  0
   -0.2270    1.1088   -0.9033 O   0  0  0  0  0  0  0  0  0  0  0  0
    2.1869   -0.1999   -0.6047 N   0  0  0  0  0  0  0  0  0  0  0  0
   -1.3346   -0.8812   -0.3336 N   0  0  0  0  0  0  0  0  0  0  0  0
    4.5943    0.0816   -1.1671 C   0  0  0  0  0  0  0  0  0  0  0  0
    3.5080    0.8227    1.2388 C   0  0  0  0  0  0  0  0  0  0  0  0
    3.3503   -0.7906   -1.2884 C   0  0  0  0  0  0  0  0  0  0  0  0
    2.3836   -0.1312    0.8536 C   0  0  0  0  0  0  0  0  0  0  0  0
    0.9831   -0.9784   -0.9083 C   0  0  0  0  0  0  0  0  0  0  0  0
   -0.2446   -0.1042   -0.7208 C   0  0  0  0  0  0  0  0  0  0  0  0
   -2.6529   -0.4445   -0.0609 C   0  0  0  0  0  0  0  0  0  0  0  0
   -3.6422   -1.3515    0.3194 C   0  0  0  0  0  0  0  0  0  0  0  0
   -2.9574    0.9118   -0.1765 C   0  0  0  0  0  0  0  0  0  0  0  0
   -4.9360   -0.9020    0.5839 C   0  0  0  0  0  0  0  0  0  0  0  0
   -3.3448   -2.8100    0.4511 C   0  0  0  0  0  0  0  0  0  0  0  0
   -4.2511    1.3614    0.0883 C   0  0  0  0  0  0  0  0  0  0  0  0
   -5.2404    0.4543    0.4686 C   0  0  0  0  0  0  0  0  0  0  0  0
    3.2984    1.8397    0.8904 H   0  0  0  0  0  0  0  0  0  0  0  0
    3.6411    0.8496    2.3246 H   0  0  0  0  0  0  0  0  0  0  0  0
    5.4460   -0.3821   -1.6741 H   0  0  0  0  0  0  0  0  0  0  0  0
    4.4263    1.0706   -1.6068 H   0  0  0  0  0  0  0  0  0  0  0  0
    3.5535   -1.7982   -0.9029 H   0  0  0  0  0  0  0  0  0  0  0  0
    3.1352   -0.8928   -2.3595 H   0  0  0  0  0  0  0  0  0  0  0  0
    1.4714    0.2355    1.3397 H   0  0  0  0  0  0  0  0  0  0  0  0
    2.5837   -1.1299    1.2637 H   0  0  0  0  0  0  0  0  0  0  0  0
    0.9610   -1.2728   -1.9659 H   0  0  0  0  0  0  0  0  0  0  0  0
    0.9342   -1.8981   -0.3129 H   0  0  0  0  0  0  0  0  0  0  0  0
   -1.1758   -1.8803   -0.2383 H   0  0  0  0  0  0  0  0  0  0  0  0
   -2.2410    1.6672   -0.4653 H   0  0  0  0  0  0  0  0  0  0  0  0
   -5.7189   -1.5947    0.8811 H   0  0  0  0  0  0  0  0  0  0  0  0
   -4.2294   -3.3783    0.7594 H   0  0  0  0  0  0  0  0  0  0  0  0
   -2.5732   -2.9789    1.2096 H   0  0  0  0  0  0  0  0  0  0  0  0
   -3.0141   -3.2237   -0.5073 H   0  0  0  0  0  0  0  0  0  0  0  0
   -6.2528    0.7903    0.6779 H   0  0  0  0  0  0  0  0  0  0  0  0
  1 19  1  0  0  0  0
  2  3  2  0  0  0  0
  2  4  2  0  0  0  0
  2  8  1  0  0  0  0
  2  9  1  0  0  0  0
  5 13  2  0  0  0  0
  6 10  1  0  0  0  0
  6 11  1  0  0  0  0
  6 12  1  0  0  0  0
  7 13  1  0  0  0  0
  7 14  1  0  0  0  0
  7 31  1  0  0  0  0
  8 10  1  0  0  0  0
  8 23  1  0  0  0  0
  8 24  1  0  0  0  0
  9 11  1  0  0  0  0
  9 21  1  0  0  0  0
  9 22  1  0  0  0  0
 10 25  1  0  0  0  0
 10 26  1  0  0  0  0
 11 27  1  0  0  0  0
 11 28  1  0  0  0  0
 12 13  1  0  0  0  0
 12 29  1  0  0  0  0
 12 30  1  0  0  0  0
 14 15  2  0  0  0  0
 14 16  1  0  0  0  0
 15 17  1  0  0  0  0
 15 18  1  0  0  0  0
 16 19  2  0  0  0  0
 16 32  1  0  0  0  0
 17 20  2  0  0  0  0
 17 33  1  0  0  0  0
 18 34  1  0  0  0  0
 18 35  1  0  0  0  0
 18 36  1  0  0  0  0
 19 20  1  0  0  0  0
 20 37  1  0  0  0  0
M  END
> <PUBCHEM_COMPOUND_CID>
47205579

> <PUBCHEM_CONFORMER_RMSD>
0.8

> <PUBCHEM_CONFORMER_DIVERSEORDER>
1
26
22
30
36
20
41
34
5
13
7
10
18
31
8
14
39
43
15
4
12
37
3
33
16
9
32
38
24
29
19
25
17
2
42
35
6
27
40
23
28
11
21

> <PUBCHEM_MMFF94_PARTIAL_CHARGES>
24
1 -0.18
10 0.27
11 0.27
12 0.33
13 0.57
14 0.12
15 -0.14
16 -0.15
17 -0.15
18 0.14
19 0.18
2 1.09
20 -0.15
3 -0.65
31 0.37
32 0.15
33 0.15
37 0.15
4 -0.65
5 -0.57
6 -0.81
7 -0.55
8 0.11
9 0.11

> <PUBCHEM_EFFECTIVE_ROTOR_COUNT>
5

> <PUBCHEM_PHARMACOPHORE_FEATURES>
7
1 3 acceptor
1 4 acceptor
1 5 acceptor
1 6 cation
1 7 donor
6 14 15 16 17 19 20 rings
6 2 6 8 9 10 11 rings

> <PUBCHEM_HEAVY_ATOM_COUNT>
20

> <PUBCHEM_ATOM_DEF_STEREO_COUNT>
0

> <PUBCHEM_ATOM_UDEF_STEREO_COUNT>
0

> <PUBCHEM_BOND_DEF_STEREO_COUNT>
0

> <PUBCHEM_BOND_UDEF_STEREO_COUNT>
0

> <PUBCHEM_ISOTOPIC_ATOM_COUNT>
0

> <PUBCHEM_COMPONENT_COUNT>
1

> <PUBCHEM_CACTVS_TAUTO_COUNT>
2

> <PUBCHEM_CONFORMER_ID>
02D04CCB00000001

> <PUBCHEM_MMFF94_ENERGY>
44.9247

> <PUBCHEM_FEATURE_SELFOVERLAP>
35.537

> <PUBCHEM_SHAPE_FINGERPRINT>
10319926 262 18410298051173507314
10912923 1 17560794403654562398
11045977 3 18260829293299227432
11315181 36 17989205915267319733
12107183 9 17767977784562713635
12236239 1 17275100622250283551
12403259 415 18114453552530055397
12507557 5 16515687710759121811
12507560 40 18259981595730694631
12596602 18 17917711288088811360
12616971 3 16774072973235019998
13403585 85 18409730642896294089
13668630 136 15195566796988846939
13675066 3 18186515492769009799
14178342 30 18272083899107220423
14341114 176 18410290311494467528
14341114 328 17847058870301200708
14528608 73 5978101345583991650
14573314 32 18186797010700687501
14844126 61 18199183989226943235
14848160 23 11887678364359910124
15183329 4 6194572099828713664
15348495 7 18335704914639212130
15788980 27 15985108508914122118
17349148 13 15554447414086182812
17844677 252 18411132511499957160
1813 80 16415193516027137158
193927 3 13758075242247643830
19489759 90 18409168814213907187
19784866 170 18334576853989091196
200 152 15195574493712639798
20645477 56 17894351055692258103
20645477 70 16805596023169521494
21033648 144 15430333403123514656
21033648 29 17821738246857933441
21150785 3 6338946781096000752
23402539 116 18411421696723445775
23557571 272 18335404795098602477
23559900 14 18265599056540448206
2916195 48 18260271815524531440
314194 84 14692578714831412816
34797466 226 17968362469002736572
351380 3 16486977297452136218
3545911 37 18040712567340150143
465052 167 13183020740058136312
5104073 3 18267857462409317547
5364581 5 18120098286129294576
542803 24 18410292506117150108
573450 72 18059856160091498695
5924683 9 18262522481667966783
602551 16 18342173319849373330
90127 26 18113894961857747566

> <PUBCHEM_SHAPE_MULTIPOLES>
389.74
14.66
2.17
1.12
8.13
0.39
-0.04
3.6
3.38
-3.83
0.18
1.32
-0.06
0.96

> <PUBCHEM_SHAPE_SELFOVERLAP>
787.106

> <PUBCHEM_SHAPE_VOLUME>
228.7

> <PUBCHEM_COORDINATE_TYPE>
2
5
10

$$$$

