5360621
  -OEChem-07051213092D

 60 65  0     1  0  0  0  0  0999 V2000
    4.5004    1.8978    0.0000 O   0  0  0  0  0  0  0  0  0  0  0  0
    4.2690   -0.5571    0.0000 O   0  0  0  0  0  0  0  0  0  0  0  0
    4.2690    4.2472    0.0000 O   0  0  0  0  0  0  0  0  0  0  0  0
    5.1350   -2.0572    0.0000 O   0  0  0  0  0  0  0  0  0  0  0  0
    2.5369   -1.5572    0.0000 O   0  0  0  0  0  0  0  0  0  0  0  0
    2.5369   -3.5572    0.0000 O   0  0  0  0  0  0  0  0  0  0  0  0
    4.2690   -4.5572    0.0000 O   0  0  0  0  0  0  0  0  0  0  0  0
    6.0010   -4.5572    0.0000 O   0  0  0  0  0  0  0  0  0  0  0  0
    6.8671   -3.0572    0.0000 O   0  0  0  0  0  0  0  0  0  0  0  0
    8.4296    0.8939    0.0000 N   0  0  3  0  0  0  0  0  0  0  0  0
    5.9587    1.3695    0.0000 C   0  0  1  0  0  0  0  0  0  0  0  0
    6.7823    0.8939    0.0000 C   0  0  2  0  0  0  0  0  0  0  0  0
    5.1350    0.8939    0.0000 C   0  0  2  0  0  0  0  0  0  0  0  0
    7.6060    1.3695    0.0000 C   0  0  1  0  0  0  0  0  0  0  0  0
    6.5082    2.0669    0.0000 C   0  0  0  0  0  0  0  0  0  0  0  0
    5.9587    2.3205    0.0000 C   0  0  0  0  0  0  0  0  0  0  0  0
    7.6060    2.3205    0.0000 C   0  0  0  0  0  0  0  0  0  0  0  0
    7.8608    2.0669    0.0000 C   0  0  0  0  0  0  0  0  0  0  0  0
    5.1350   -0.0572    0.0000 C   0  0  2  0  0  0  0  0  0  0  0  0
    6.7823    2.7961    0.0000 C   0  0  0  0  0  0  0  0  0  0  0  0
    6.7823   -0.0572    0.0000 C   0  0  0  0  0  0  0  0  0  0  0  0
    5.1350    2.7961    0.0000 C   0  0  0  0  0  0  0  0  0  0  0  0
    5.9587   -0.5327    0.0000 C   0  0  0  0  0  0  0  0  0  0  0  0
    9.1108    0.1618    0.0000 C   0  0  0  0  0  0  0  0  0  0  0  0
    6.7823    3.7472    0.0000 C   0  0  0  0  0  0  0  0  0  0  0  0
    5.1350    3.7472    0.0000 C   0  0  0  0  0  0  0  0  0  0  0  0
    5.9587    4.2227    0.0000 C   0  0  0  0  0  0  0  0  0  0  0  0
    4.2690   -1.5572    0.0000 C   0  0  2  0  0  0  0  0  0  0  0  0
    3.4030   -2.0572    0.0000 C   0  0  1  0  0  0  0  0  0  0  0  0
    3.4030   -3.0572    0.0000 C   0  0  2  0  0  0  0  0  0  0  0  0
    4.2690   -3.5572    0.0000 C   0  0  1  0  0  0  0  0  0  0  0  0
    5.1350   -3.0572    0.0000 C   0  0  1  0  0  0  0  0  0  0  0  0
    6.0010   -3.5572    0.0000 C   0  0  0  0  0  0  0  0  0  0  0  0
    7.3287    0.2428    0.0000 H   0  0  0  0  0  0  0  0  0  0  0  0
    4.3186    0.6575    0.0000 H   0  0  0  0  0  0  0  0  0  0  0  0
    7.8974    0.5710    0.0000 H   0  0  0  0  0  0  0  0  0  0  0  0
    6.6450    2.6716    0.0000 H   0  0  0  0  0  0  0  0  0  0  0  0
    5.9485    2.3337    0.0000 H   0  0  0  0  0  0  0  0  0  0  0  0
    8.2166    2.2129    0.0000 H   0  0  0  0  0  0  0  0  0  0  0  0
    7.8180    2.9031    0.0000 H   0  0  0  0  0  0  0  0  0  0  0  0
    8.4530    2.2507    0.0000 H   0  0  0  0  0  0  0  0  0  0  0  0
    7.7679    2.6799    0.0000 H   0  0  0  0  0  0  0  0  0  0  0  0
    5.1350   -0.6772    0.0000 H   0  0  0  0  0  0  0  0  0  0  0  0
    7.3193   -0.3671    0.0000 H   0  0  0  0  0  0  0  0  0  0  0  0
    5.9587   -1.1527    0.0000 H   0  0  0  0  0  0  0  0  0  0  0  0
    8.6569   -0.2605    0.0000 H   0  0  0  0  0  0  0  0  0  0  0  0
    9.5331   -0.2921    0.0000 H   0  0  0  0  0  0  0  0  0  0  0  0
    9.5647    0.5841    0.0000 H   0  0  0  0  0  0  0  0  0  0  0  0
    7.3193    4.0572    0.0000 H   0  0  0  0  0  0  0  0  0  0  0  0
    5.9587    4.8427    0.0000 H   0  0  0  0  0  0  0  0  0  0  0  0
    3.7320   -1.2472    0.0000 H   0  0  0  0  0  0  0  0  0  0  0  0
    2.8660   -2.3672    0.0000 H   0  0  0  0  0  0  0  0  0  0  0  0
    3.4030   -3.6772    0.0000 H   0  0  0  0  0  0  0  0  0  0  0  0
    4.2690    4.8672    0.0000 H   0  0  0  0  0  0  0  0  0  0  0  0
    4.8059   -3.8672    0.0000 H   0  0  0  0  0  0  0  0  0  0  0  0
    5.6720   -2.7472    0.0000 H   0  0  0  0  0  0  0  0  0  0  0  0
    2.0000   -1.8672    0.0000 H   0  0  0  0  0  0  0  0  0  0  0  0
    2.0000   -3.2472    0.0000 H   0  0  0  0  0  0  0  0  0  0  0  0
    3.7320   -4.8672    0.0000 H   0  0  0  0  0  0  0  0  0  0  0  0
    6.5380   -4.8672    0.0000 H   0  0  0  0  0  0  0  0  0  0  0  0
  1 13  1  0  0  0  0
  1 22  1  0  0  0  0
 19  2  1  6  0  0  0
 28  2  1  6  0  0  0
  3 26  1  0  0  0  0
  3 54  1  0  0  0  0
  4 28  1  0  0  0  0
  4 32  1  0  0  0  0
 29  5  1  1  0  0  0
  5 57  1  0  0  0  0
 30  6  1  6  0  0  0
  6 58  1  0  0  0  0
 31  7  1  1  0  0  0
  7 59  1  0  0  0  0
  8 33  1  0  0  0  0
  8 60  1  0  0  0  0
  9 33  2  0  0  0  0
 10 14  1  0  0  0  0
 10 18  1  0  0  0  0
 10 24  1  0  0  0  0
 11 12  1  0  0  0  0
 11 13  1  0  0  0  0
 11 15  1  1  0  0  0
 11 16  1  0  0  0  0
 12 14  1  0  0  0  0
 12 21  1  0  0  0  0
 12 34  1  1  0  0  0
 13 19  1  0  0  0  0
 13 35  1  1  0  0  0
 14 17  1  0  0  0  0
 14 36  1  6  0  0  0
 15 18  1  0  0  0  0
 15 37  1  0  0  0  0
 15 38  1  0  0  0  0
 16 20  2  0  0  0  0
 16 22  1  0  0  0  0
 17 20  1  0  0  0  0
 17 39  1  0  0  0  0
 17 40  1  0  0  0  0
 18 41  1  0  0  0  0
 18 42  1  0  0  0  0
 19 23  1  0  0  0  0
 19 43  1  0  0  0  0
 20 25  1  0  0  0  0
 21 23  2  0  0  0  0
 21 44  1  0  0  0  0
 22 26  2  0  0  0  0
 23 45  1  0  0  0  0
 24 46  1  0  0  0  0
 24 47  1  0  0  0  0
 24 48  1  0  0  0  0
 25 27  2  0  0  0  0
 25 49  1  0  0  0  0
 26 27  1  0  0  0  0
 27 50  1  0  0  0  0
 28 29  1  0  0  0  0
 28 51  1  0  0  0  0
 29 30  1  0  0  0  0
 29 52  1  0  0  0  0
 30 31  1  0  0  0  0
 30 53  1  0  0  0  0
 31 32  1  0  0  0  0
 31 55  1  0  0  0  0
 32 33  1  6  0  0  0
 32 56  1  0  0  0  0
M  END
> <PUBCHEM_COMPOUND_CID>
5360621

> <PUBCHEM_COMPOUND_CANONICALIZED>
1

> <PUBCHEM_CACTVS_COMPLEXITY>
839

> <PUBCHEM_CACTVS_HBOND_ACCEPTOR>
10

> <PUBCHEM_CACTVS_HBOND_DONOR>
5

> <PUBCHEM_CACTVS_ROTATABLE_BOND>
3

> <PUBCHEM_CACTVS_SUBSKEYS>
AAADceB6PAAAAAAAAAAAAAAAAAAAASAAAAA8aIECAAAWAEjBAAAAHgAACAAADzzxmAcyDoMABgCIAiDSCAICCAAgIAAIiAFOiIgdNjaGsR+meCOl4BGPuAf6/P9PoAABAAAYQADQAAaAADSAAAAAAAAAAA==

> <PUBCHEM_IUPAC_OPENEYE_NAME>
(2S,3S,4S,5R,6R)-6-[[(4R,4aR,7S,7aR,12bS)-9-hydroxy-3-methyl-2,4,4a,7,7a,13-hexahydro-1H-4,12-methanobenzofuro[3,2-e]isoquinoline-7-yl]oxy]-3,4,5-trihydroxy-tetrahydropyran-2-carboxylic acid

> <PUBCHEM_IUPAC_CAS_NAME>
(2S,3S,4S,5R,6R)-6-[[(4R,4aR,7S,7aR,12bS)-9-hydroxy-3-methyl-2,4,4a,7,7a,13-hexahydro-1H-4,12-methanobenzofuro[3,2-e]isoquinoline-7-yl]oxy]-3,4,5-trihydroxy-2-oxanecarboxylic acid

> <PUBCHEM_IUPAC_NAME>
(2S,3S,4S,5R,6R)-6-[[(4R,4aR,7S,7aR,12bS)-9-hydroxy-3-methyl-2,4,4a,7,7a,13-hexahydro-1H-4,12-methanobenzofuro[3,2-e]isoquinoline-7-yl]oxy]-3,4,5-trihydroxyoxane-2-carboxylic acid

> <PUBCHEM_IUPAC_SYSTEMATIC_NAME>
(2S,3S,4S,5R,6R)-6-[[(4R,4aR,7S,7aR,12bS)-3-methyl-9-oxidanyl-2,4,4a,7,7a,13-hexahydro-1H-4,12-methanobenzofuro[3,2-e]isoquinoline-7-yl]oxy]-3,4,5-tris(oxidanyl)oxane-2-carboxylic acid

> <PUBCHEM_IUPAC_TRADITIONAL_NAME>
(2S,3S,4S,5R,6R)-6-[[(4R,4aR,7S,7aR,12bS)-9-hydroxy-3-methyl-2,4,4a,7,7a,13-hexahydro-1H-4,12-methanobenzofuro[3,2-e]isoquinoline-7-yl]oxy]-3,4,5-trihydroxy-tetrahydropyran-2-carboxylic acid

> <PUBCHEM_IUPAC_INCHI>
InChI=1S/C23H27NO9/c1-24-7-6-23-10-3-5-13(31-22-17(28)15(26)16(27)19(33-22)21(29)30)20(23)32-18-12(25)4-2-9(14(18)23)8-11(10)24/h2-5,10-11,13,15-17,19-20,22,25-28H,6-8H2,1H3,(H,29,30)/t10-,11+,13-,15-,16-,17+,19-,20-,22+,23-/m0/s1

> <PUBCHEM_IUPAC_INCHIKEY>
GNJCUHZOSOYIEC-GAROZEBRSA-N

> <PUBCHEM_XLOGP3>
-2.9

> <PUBCHEM_EXACT_MASS>
461.168581

> <PUBCHEM_MOLECULAR_FORMULA>
C23H27NO9

> <PUBCHEM_MOLECULAR_WEIGHT>
461.46178

> <PUBCHEM_OPENEYE_CAN_SMILES>
CN1CCC23C4C1CC5=C2C(=C(C=C5)O)OC3C(C=C4)OC6C(C(C(C(O6)C(=O)O)O)O)O

> <PUBCHEM_OPENEYE_ISO_SMILES>
CN1CC[C@]23[C@@H]4[C@H]1CC5=C2C(=C(C=C5)O)O[C@H]3[C@H](C=C4)O[C@H]6[C@@H]([C@H]([C@@H]([C@H](O6)C(=O)O)O)O)O

> <PUBCHEM_CACTVS_TPSA>
149

> <PUBCHEM_MONOISOTOPIC_WEIGHT>
461.168581

> <PUBCHEM_TOTAL_CHARGE>
0

> <PUBCHEM_HEAVY_ATOM_COUNT>
33

> <PUBCHEM_ATOM_DEF_STEREO_COUNT>
10

> <PUBCHEM_ATOM_UDEF_STEREO_COUNT>
0

> <PUBCHEM_BOND_DEF_STEREO_COUNT>
0

> <PUBCHEM_BOND_UDEF_STEREO_COUNT>
0

> <PUBCHEM_ISOTOPIC_ATOM_COUNT>
0

> <PUBCHEM_COMPONENT_COUNT>
1

> <PUBCHEM_CACTVS_TAUTO_COUNT>
2

> <PUBCHEM_COORDINATE_TYPE>
1
5
255

> <PUBCHEM_BONDANNOTATIONS>
11  15  5
12  34  5
13  35  5
14  36  6
16  20  8
16  22  8
19  2  6
28  2  6
20  25  8
22  26  8
25  27  8
26  27  8
32  33  6
29  5  5
30  6  6
31  7  5

$$$$

