440986
  -OEChem-07051212513D

 22 23  0     0  0  0  0  0  0999 V2000
   -2.0739   -2.2591   -0.0003 O   0  0  0  0  0  0  0  0  0  0  0  0
    2.8150   -1.6312    0.0002 O   0  0  0  0  0  0  0  0  0  0  0  0
    0.5496   -1.2758    0.0001 N   0  0  0  0  0  0  0  0  0  0  0  0
   -0.3284    0.9778    0.0002 C   0  0  0  0  0  0  0  0  0  0  0  0
   -0.5499   -0.4020    0.0002 C   0  0  0  0  0  0  0  0  0  0  0  0
    2.0918    0.6324   -0.0001 C   0  0  0  0  0  0  0  0  0  0  0  0
    1.0457    1.4733   -0.0001 C   0  0  0  0  0  0  0  0  0  0  0  0
   -1.8480   -0.9160    0.0000 C   0  0  0  0  0  0  0  0  0  0  0  0
    1.8641   -0.8505    0.0002 C   0  0  0  0  0  0  0  0  0  0  0  0
   -1.4223    1.8486    0.0002 C   0  0  0  0  0  0  0  0  0  0  0  0
   -2.9340   -0.0414   -0.0002 C   0  0  0  0  0  0  0  0  0  0  0  0
   -2.7219    1.3376    0.0000 C   0  0  0  0  0  0  0  0  0  0  0  0
    3.5122    1.1063   -0.0004 C   0  0  0  0  0  0  0  0  0  0  0  0
    1.1951    2.5485   -0.0002 H   0  0  0  0  0  0  0  0  0  0  0  0
    0.3970   -2.2771    0.0152 H   0  0  0  0  0  0  0  0  0  0  0  0
   -1.2771    2.9261    0.0003 H   0  0  0  0  0  0  0  0  0  0  0  0
   -3.9498   -0.4277   -0.0004 H   0  0  0  0  0  0  0  0  0  0  0  0
   -3.5703    2.0161   -0.0001 H   0  0  0  0  0  0  0  0  0  0  0  0
    3.5793    2.1994   -0.0005 H   0  0  0  0  0  0  0  0  0  0  0  0
    4.0368    0.7416   -0.8895 H   0  0  0  0  0  0  0  0  0  0  0  0
    4.0372    0.7417    0.8886 H   0  0  0  0  0  0  0  0  0  0  0  0
   -1.2650   -2.7389   -0.2313 H   0  0  0  0  0  0  0  0  0  0  0  0
  1  8  1  0  0  0  0
  1 22  1  0  0  0  0
  2  9  2  0  0  0  0
  3  5  1  0  0  0  0
  3  9  1  0  0  0  0
  3 15  1  0  0  0  0
  4  5  2  0  0  0  0
  4  7  1  0  0  0  0
  4 10  1  0  0  0  0
  5  8  1  0  0  0  0
  6  7  2  0  0  0  0
  6  9  1  0  0  0  0
  6 13  1  0  0  0  0
  7 14  1  0  0  0  0
  8 11  2  0  0  0  0
 10 12  2  0  0  0  0
 10 16  1  0  0  0  0
 11 12  1  0  0  0  0
 11 17  1  0  0  0  0
 12 18  1  0  0  0  0
 13 19  1  0  0  0  0
 13 20  1  0  0  0  0
 13 21  1  0  0  0  0
M  END
> <PUBCHEM_COMPOUND_CID>
440986

> <PUBCHEM_CONFORMER_RMSD>
0.4

> <PUBCHEM_CONFORMER_DIVERSEORDER>
1

> <PUBCHEM_MMFF94_PARTIAL_CHARGES>
19
1 -0.53
10 -0.15
11 -0.15
12 -0.15
13 0.14
14 0.15
15 0.37
16 0.15
17 0.15
18 0.15
2 -0.57
22 0.45
3 -0.55
4 0.03
5 0.12
6 -0.12
7 -0.18
8 0.08
9 0.62

> <PUBCHEM_EFFECTIVE_ROTOR_COUNT>
0

> <PUBCHEM_PHARMACOPHORE_FEATURES>
5
1 1 donor
1 2 acceptor
1 3 donor
6 3 4 5 6 7 9 rings
6 4 5 8 10 11 12 rings

> <PUBCHEM_HEAVY_ATOM_COUNT>
13

> <PUBCHEM_ATOM_DEF_STEREO_COUNT>
0

> <PUBCHEM_ATOM_UDEF_STEREO_COUNT>
0

> <PUBCHEM_BOND_DEF_STEREO_COUNT>
0

> <PUBCHEM_BOND_UDEF_STEREO_COUNT>
0

> <PUBCHEM_ISOTOPIC_ATOM_COUNT>
0

> <PUBCHEM_COMPONENT_COUNT>
1

> <PUBCHEM_CACTVS_TAUTO_COUNT>
6

> <PUBCHEM_CONFORMER_ID>
0006BA9A00000001

> <PUBCHEM_MMFF94_ENERGY>
32.8007

> <PUBCHEM_FEATURE_SELFOVERLAP>
25.401

> <PUBCHEM_SHAPE_FINGERPRINT>
10608611 8 18410296929865399816
10967382 1 18410573989472863653
11132069 177 18411143498173973792
12382932 28 18408605837931617104
12524768 44 18337385049641476183
12897270 3 18338235959887874476
12932764 1 17530971241488182408
13380535 21 18409719669101650976
13380535 76 18409735070669771183
13897977 150 18409452453242569077
14144814 61 18410855485919240129
14325111 11 18410856594036840960
15536298 74 18334295396746085494
15775835 57 18408878542521961488
16945 1 18410575041808617829
17844478 74 18059562603646123609
193761 8 18410573963687170662
19973954 147 18411135831314147124
20201158 50 18411140199290586417
20510252 161 18260828241412516153
20871998 184 18187642453918026311
21501502 16 18409450301468832268
2334 1 18410856542618247394
23402655 69 18335434499498915341
23463225 33 18341897415581979792
23552423 10 18272368642025951020
23559900 14 18262517139181980406
25 1 17551526865221529277
2748010 2 18410572898561661670
3312278 4 18337669715631259632
369184 2 18409449210747755057
528886 8 18410016502744262249
53812653 166 18260834756851419864
6333449 129 18408888412525515253
7364860 26 18261956349153704798
8809292 202 18342451560499321938

> <PUBCHEM_SHAPE_MULTIPOLES>
250.81
4.87
2.1
0.6
1.57
0.4
0
-0.25
0
-0.34
0
-0.01
-0.04
0

> <PUBCHEM_SHAPE_SELFOVERLAP>
546.742

> <PUBCHEM_SHAPE_VOLUME>
136.6

> <PUBCHEM_COORDINATE_TYPE>
2
5
10

$$$$

