442150
  -OEChem-07051212573D

 50 52  0     1  0  0  0  0  0999 V2000
   -0.6992   -3.1485   -0.0862 O   0  0  0  0  0  0  0  0  0  0  0  0
    2.5407   -1.3266   -0.3068 O   0  0  0  0  0  0  0  0  0  0  0  0
    0.6557    0.1091    1.0862 O   0  0  0  0  0  0  0  0  0  0  0  0
   -1.7020    1.6074   -0.3340 O   0  0  0  0  0  0  0  0  0  0  0  0
    2.6883    0.1976   -2.0331 O   0  0  0  0  0  0  0  0  0  0  0  0
   -0.0216    2.3110    0.9136 O   0  0  0  0  0  0  0  0  0  0  0  0
   -2.2395    3.8314   -0.4396 O   0  0  0  0  0  0  0  0  0  0  0  0
    0.6935   -2.8864    0.1785 C   0  0  0  0  0  0  0  0  0  0  0  0
    1.1717   -1.6174   -0.5613 C   0  0  1  0  0  0  0  0  0  0  0  0
    0.3302   -0.3907   -0.2074 C   0  0  1  0  0  0  0  0  0  0  0  0
   -1.1297   -0.7407   -0.2224 C   0  0  0  0  0  0  0  0  0  0  0  0
   -1.5475   -2.0752   -0.1566 C   0  0  0  0  0  0  0  0  0  0  0  0
    1.4452   -4.1153   -0.3661 C   0  0  0  0  0  0  0  0  0  0  0  0
    0.9038   -2.8514    1.7006 C   0  0  0  0  0  0  0  0  0  0  0  0
   -2.1174    0.2553   -0.2858 C   0  0  0  0  0  0  0  0  0  0  0  0
   -2.9112   -2.3920   -0.1835 C   0  0  0  0  0  0  0  0  0  0  0  0
   -3.4785   -0.0470   -0.3034 C   0  0  0  0  0  0  0  0  0  0  0  0
   -3.8735   -1.3831   -0.2551 C   0  0  0  0  0  0  0  0  0  0  0  0
    3.0472   -0.2332   -0.9502 C   0  0  0  0  0  0  0  0  0  0  0  0
   -4.4450    1.0364   -0.3736 C   0  0  0  0  0  0  0  0  0  0  0  0
   -0.0265    1.2262    1.4794 C   0  0  0  0  0  0  0  0  0  0  0  0
   -2.6056    2.6621   -0.3995 C   0  0  0  0  0  0  0  0  0  0  0  0
   -4.0350    2.3061   -0.4187 C   0  0  0  0  0  0  0  0  0  0  0  0
    4.1281    0.3259   -0.1038 C   0  0  0  0  0  0  0  0  0  0  0  0
   -0.8014    0.9346    2.7287 C   0  0  0  0  0  0  0  0  0  0  0  0
    4.5045    1.6171   -0.0724 C   0  0  0  0  0  0  0  0  0  0  0  0
    5.6244    2.0470    0.8404 C   0  0  0  0  0  0  0  0  0  0  0  0
    3.9003    2.7404   -0.8679 C   0  0  0  0  0  0  0  0  0  0  0  0
    1.0498   -1.8095   -1.6385 H   0  0  0  0  0  0  0  0  0  0  0  0
    0.5145    0.4018   -0.9424 H   0  0  0  0  0  0  0  0  0  0  0  0
    1.2858   -4.2209   -1.4455 H   0  0  0  0  0  0  0  0  0  0  0  0
    2.5220   -4.0500   -0.1796 H   0  0  0  0  0  0  0  0  0  0  0  0
    1.0699   -5.0393    0.0893 H   0  0  0  0  0  0  0  0  0  0  0  0
    0.2619   -2.1124    2.1880 H   0  0  0  0  0  0  0  0  0  0  0  0
    0.6281   -3.8135    2.1493 H   0  0  0  0  0  0  0  0  0  0  0  0
    1.9452   -2.6400    1.9629 H   0  0  0  0  0  0  0  0  0  0  0  0
   -3.2326   -3.4300   -0.1432 H   0  0  0  0  0  0  0  0  0  0  0  0
   -4.9259   -1.6553   -0.2701 H   0  0  0  0  0  0  0  0  0  0  0  0
   -5.5026    0.7969   -0.3886 H   0  0  0  0  0  0  0  0  0  0  0  0
   -4.7523    3.1178   -0.4707 H   0  0  0  0  0  0  0  0  0  0  0  0
    4.6214   -0.3909    0.5491 H   0  0  0  0  0  0  0  0  0  0  0  0
   -0.1256    0.9520    3.5871 H   0  0  0  0  0  0  0  0  0  0  0  0
   -1.2994   -0.0357    2.6647 H   0  0  0  0  0  0  0  0  0  0  0  0
   -1.5724    1.6991    2.8611 H   0  0  0  0  0  0  0  0  0  0  0  0
    6.4292    2.5090    0.2591 H   0  0  0  0  0  0  0  0  0  0  0  0
    6.0570    1.2080    1.3957 H   0  0  0  0  0  0  0  0  0  0  0  0
    5.2599    2.7760    1.5717 H   0  0  0  0  0  0  0  0  0  0  0  0
    2.9507    2.4787   -1.3389 H   0  0  0  0  0  0  0  0  0  0  0  0
    4.5950    3.0656   -1.6488 H   0  0  0  0  0  0  0  0  0  0  0  0
    3.6936    3.5955   -0.2147 H   0  0  0  0  0  0  0  0  0  0  0  0
  1  8  1  0  0  0  0
  1 12  1  0  0  0  0
  2  9  1  0  0  0  0
  2 19  1  0  0  0  0
  3 10  1  0  0  0  0
  3 21  1  0  0  0  0
  4 15  1  0  0  0  0
  4 22  1  0  0  0  0
  5 19  2  0  0  0  0
  6 21  2  0  0  0  0
  7 22  2  0  0  0  0
  8  9  1  0  0  0  0
  8 13  1  0  0  0  0
  8 14  1  0  0  0  0
  9 10  1  0  0  0  0
  9 29  1  0  0  0  0
 10 11  1  0  0  0  0
 10 30  1  0  0  0  0
 11 12  2  0  0  0  0
 11 15  1  0  0  0  0
 12 16  1  0  0  0  0
 13 31  1  0  0  0  0
 13 32  1  0  0  0  0
 13 33  1  0  0  0  0
 14 34  1  0  0  0  0
 14 35  1  0  0  0  0
 14 36  1  0  0  0  0
 15 17  2  0  0  0  0
 16 18  2  0  0  0  0
 16 37  1  0  0  0  0
 17 18  1  0  0  0  0
 17 20  1  0  0  0  0
 18 38  1  0  0  0  0
 19 24  1  0  0  0  0
 20 23  2  0  0  0  0
 20 39  1  0  0  0  0
 21 25  1  0  0  0  0
 22 23  1  0  0  0  0
 23 40  1  0  0  0  0
 24 26  2  0  0  0  0
 24 41  1  0  0  0  0
 25 42  1  0  0  0  0
 25 43  1  0  0  0  0
 25 44  1  0  0  0  0
 26 27  1  0  0  0  0
 26 28  1  0  0  0  0
 27 45  1  0  0  0  0
 27 46  1  0  0  0  0
 27 47  1  0  0  0  0
 28 48  1  0  0  0  0
 28 49  1  0  0  0  0
 28 50  1  0  0  0  0
M  END
> <PUBCHEM_COMPOUND_CID>
442150

> <PUBCHEM_CONFORMER_RMSD>
0.8

> <PUBCHEM_CONFORMER_DIVERSEORDER>
1
16
4
13
2
12
9
15
14
11
3
8
6
10
5
7

> <PUBCHEM_MMFF94_PARTIAL_CHARGES>
31
1 -0.36
10 0.42
11 -0.14
12 0.08
15 0.08
16 -0.15
17 0.03
18 -0.15
19 0.71
2 -0.43
20 -0.18
21 0.66
22 0.71
23 -0.14
24 -0.14
25 0.06
26 -0.28
27 0.14
28 0.14
3 -0.43
37 0.15
38 0.15
39 0.15
4 -0.23
40 0.15
41 0.15
5 -0.57
6 -0.57
7 -0.57
8 0.28
9 0.28

> <PUBCHEM_EFFECTIVE_ROTOR_COUNT>
5.8

> <PUBCHEM_PHARMACOPHORE_FEATURES>
9
1 1 acceptor
1 5 acceptor
1 6 acceptor
1 7 acceptor
3 26 27 28 hydrophobe
3 8 13 14 hydrophobe
6 1 8 9 10 11 12 rings
6 11 12 15 16 17 18 rings
6 4 15 17 20 22 23 rings

> <PUBCHEM_HEAVY_ATOM_COUNT>
28

> <PUBCHEM_ATOM_DEF_STEREO_COUNT>
2

> <PUBCHEM_ATOM_UDEF_STEREO_COUNT>
0

> <PUBCHEM_BOND_DEF_STEREO_COUNT>
0

> <PUBCHEM_BOND_UDEF_STEREO_COUNT>
0

> <PUBCHEM_ISOTOPIC_ATOM_COUNT>
0

> <PUBCHEM_COMPONENT_COUNT>
1

> <PUBCHEM_CACTVS_TAUTO_COUNT>
1

> <PUBCHEM_CONFORMER_ID>
0006BF2600000001

> <PUBCHEM_MMFF94_ENERGY>
115.9762

> <PUBCHEM_FEATURE_SELFOVERLAP>
45.725

> <PUBCHEM_SHAPE_FINGERPRINT>
10411042 1 17474391270930302326
1100329 8 17761773270717925667
11112241 14 15577265402883167304
11370993 70 18411983559380267100
12035758 1 17976250236365972898
12107183 9 18270978920613253000
12173636 292 18411982442435484862
12788726 201 17269171884050431890
13140716 1 18123745358098919619
13402501 40 18043252336506589944
13583140 156 17628619045318507875
13617811 41 18340499919593583093
13965767 371 17845099643596662684
14251757 17 18113617854815408232
14468879 13 18130212843832359705
14787075 74 18115307752563263814
14790565 3 18409440363442666761
16945 1 18410020957147873347
17980427 23 17833582310719622294
18681886 176 17761221311586230603
19591789 44 18194403290761012355
19784866 34 18408886247719378371
19930381 70 18268992170709008701
20510252 161 18334850568071044346
20715895 44 18340775943391332924
22393880 68 18337665438255101612
23227448 37 18409448050916928452
23419403 2 17314237652514934033
23559900 14 18188209931078460710
2748010 2 17976555922669221419
350125 39 18196367254540827983
394222 165 18272376420423344946
469060 322 18125697046956629427
474 4 17488728086216296583
9981440 41 18342459214268252290

> <PUBCHEM_SHAPE_MULTIPOLES>
535.14
8.35
4.57
1.4
6.18
1.5
-0.83
-6.6
1.6
-0.43
0.13
0.52
-0.26
0.21

> <PUBCHEM_SHAPE_SELFOVERLAP>
1156.7

> <PUBCHEM_SHAPE_VOLUME>
289.4

> <PUBCHEM_COORDINATE_TYPE>
2
5
10

$$$$

