46173729
  -OEChem-07051212492D

 40 40  0     1  0  0  0  0  0999 V2000
    3.4030    1.1550    0.0000 P   0  0  0  0  0  0  0  0  0  0  0  0
    5.1350   -2.8450    0.0000 P   0  0  0  0  0  0  0  0  0  0  0  0
    5.1350    0.1550    0.0000 O   0  0  0  0  0  0  0  0  0  0  0  0
    7.7331    1.6550    0.0000 O   0  0  0  0  0  0  0  0  0  0  0  0
    4.2690    1.6550    0.0000 O   0  0  0  0  0  0  0  0  0  0  0  0
    7.7331   -0.3450    0.0000 O   0  0  0  0  0  0  0  0  0  0  0  0
    5.1350   -1.8450    0.0000 O   0  0  0  0  0  0  0  0  0  0  0  0
    4.2690    2.6550    0.0000 O   0  0  0  0  0  0  0  0  0  0  0  0
    2.5369    0.6550    0.0000 O   0  0  0  0  0  0  0  0  0  0  0  0
    2.9030    2.0210    0.0000 O   0  0  0  0  0  0  0  0  0  0  0  0
    3.9030    0.2890    0.0000 O   0  0  0  0  0  0  0  0  0  0  0  0
    5.1350   -3.8450    0.0000 O   0  0  0  0  0  0  0  0  0  0  0  0
    4.1350   -2.8450    0.0000 O   0  0  0  0  0  0  0  0  0  0  0  0
    6.1350   -2.8450    0.0000 O   0  0  0  0  0  0  0  0  0  0  0  0
    6.0010    2.6550    0.0000 N   0  0  0  0  0  0  0  0  0  0  0  0
    6.0010    1.6550    0.0000 C   0  0  2  0  0  0  0  0  0  0  0  0
    6.8671    1.1550    0.0000 C   0  0  2  0  0  0  0  0  0  0  0  0
    6.8671    0.1550    0.0000 C   0  0  1  0  0  0  0  0  0  0  0  0
    6.0010   -0.3450    0.0000 C   0  0  1  0  0  0  0  0  0  0  0  0
    5.1350    1.1550    0.0000 C   0  0  2  0  0  0  0  0  0  0  0  0
    6.0010   -1.3450    0.0000 C   0  0  0  0  0  0  0  0  0  0  0  0
    5.1350    3.1550    0.0000 C   0  0  0  0  0  0  0  0  0  0  0  0
    5.1350    4.1550    0.0000 C   0  0  0  0  0  0  0  0  0  0  0  0
    6.5380    1.9650    0.0000 H   0  0  0  0  0  0  0  0  0  0  0  0
    7.4040    0.8450    0.0000 H   0  0  0  0  0  0  0  0  0  0  0  0
    7.4040    0.4650    0.0000 H   0  0  0  0  0  0  0  0  0  0  0  0
    5.4641   -0.6550    0.0000 H   0  0  0  0  0  0  0  0  0  0  0  0
    5.1350    1.7750    0.0000 H   0  0  0  0  0  0  0  0  0  0  0  0
    6.2131   -1.9276    0.0000 H   0  0  0  0  0  0  0  0  0  0  0  0
    6.6116   -1.2373    0.0000 H   0  0  0  0  0  0  0  0  0  0  0  0
    6.5380    2.9650    0.0000 H   0  0  0  0  0  0  0  0  0  0  0  0
    8.2700    1.3450    0.0000 H   0  0  0  0  0  0  0  0  0  0  0  0
    7.7331   -0.9650    0.0000 H   0  0  0  0  0  0  0  0  0  0  0  0
    5.7550    4.1550    0.0000 H   0  0  0  0  0  0  0  0  0  0  0  0
    5.1350    4.7750    0.0000 H   0  0  0  0  0  0  0  0  0  0  0  0
    4.5150    4.1550    0.0000 H   0  0  0  0  0  0  0  0  0  0  0  0
    2.0000    0.9650    0.0000 H   0  0  0  0  0  0  0  0  0  0  0  0
    2.2830    2.0210    0.0000 H   0  0  0  0  0  0  0  0  0  0  0  0
    3.8250   -3.3819    0.0000 H   0  0  0  0  0  0  0  0  0  0  0  0
    4.5981   -4.1550    0.0000 H   0  0  0  0  0  0  0  0  0  0  0  0
  1  5  1  0  0  0  0
  1  9  1  0  0  0  0
  1 10  1  0  0  0  0
  1 11  2  0  0  0  0
  2  7  1  0  0  0  0
  2 12  1  0  0  0  0
  2 13  1  0  0  0  0
  2 14  2  0  0  0  0
  3 19  1  0  0  0  0
  3 20  1  0  0  0  0
 17  4  1  1  0  0  0
  4 32  1  0  0  0  0
 20  5  1  6  0  0  0
 18  6  1  6  0  0  0
  6 33  1  0  0  0  0
  7 21  1  0  0  0  0
  8 22  2  0  0  0  0
  9 37  1  0  0  0  0
 10 38  1  0  0  0  0
 12 40  1  0  0  0  0
 13 39  1  0  0  0  0
 16 15  1  6  0  0  0
 15 22  1  0  0  0  0
 15 31  1  0  0  0  0
 16 17  1  0  0  0  0
 16 20  1  0  0  0  0
 16 24  1  0  0  0  0
 17 18  1  0  0  0  0
 17 25  1  0  0  0  0
 18 19  1  0  0  0  0
 18 26  1  0  0  0  0
 19 21  1  1  0  0  0
 19 27  1  0  0  0  0
 20 28  1  0  0  0  0
 21 29  1  0  0  0  0
 21 30  1  0  0  0  0
 22 23  1  0  0  0  0
 23 34  1  0  0  0  0
 23 35  1  0  0  0  0
 23 36  1  0  0  0  0
M  END
> <PUBCHEM_COMPOUND_CID>
46173729

> <PUBCHEM_COMPOUND_CANONICALIZED>
1

> <PUBCHEM_CACTVS_COMPLEXITY>
515

> <PUBCHEM_CACTVS_HBOND_ACCEPTOR>
12

> <PUBCHEM_CACTVS_HBOND_DONOR>
7

> <PUBCHEM_CACTVS_ROTATABLE_BOND>
6

> <PUBCHEM_CACTVS_SUBSKEYS>
AAADceByPAMAAAAAAAAAAAAAAAAAAAAAAAAkAAAAAAAAAAAAAAAAHgAQCCAACDzxgAcCCALABxAIQAEQEIAAAAAAAAAAAIAIAAATEAIAgAAHQAAHFgCXAAHwcAcAAAAAAAAAAAAAAAAAAAAAAAAAAAAAAA==

> <PUBCHEM_IUPAC_OPENEYE_NAME>
[(2R,3R,4R,5S,6R)-3-acetamido-4,5-dihydroxy-6-(phosphonooxymethyl)tetrahydropyran-2-yl] dihydrogen phosphate

> <PUBCHEM_IUPAC_CAS_NAME>
[(2R,3R,4R,5S,6R)-3-acetamido-4,5-dihydroxy-6-(phosphonooxymethyl)-2-oxanyl] dihydrogen phosphate

> <PUBCHEM_IUPAC_NAME>
[(2R,3R,4R,5S,6R)-3-acetamido-4,5-dihydroxy-6-(phosphonooxymethyl)oxan-2-yl] dihydrogen phosphate

> <PUBCHEM_IUPAC_SYSTEMATIC_NAME>
[(2R,3R,4R,5S,6R)-3-acetamido-4,5-bis(oxidanyl)-6-(phosphonooxymethyl)oxan-2-yl] dihydrogen phosphate

> <PUBCHEM_IUPAC_TRADITIONAL_NAME>
[(2R,3R,4R,5S,6R)-3-acetamido-4,5-dihydroxy-6-(phosphonooxymethyl)tetrahydropyran-2-yl] dihydrogen phosphate

> <PUBCHEM_IUPAC_INCHI>
InChI=1S/C8H17NO12P2/c1-3(10)9-5-7(12)6(11)4(2-19-22(13,14)15)20-8(5)21-23(16,17)18/h4-8,11-12H,2H2,1H3,(H,9,10)(H2,13,14,15)(H2,16,17,18)/t4-,5-,6-,7-,8-/m1/s1

> <PUBCHEM_IUPAC_INCHIKEY>
WBYIPZVSBSKNQR-FMDGEEDCSA-N

> <PUBCHEM_XLOGP3_AA>
-5.3

> <PUBCHEM_EXACT_MASS>
381.022598

> <PUBCHEM_MOLECULAR_FORMULA>
C8H17NO12P2

> <PUBCHEM_MOLECULAR_WEIGHT>
381.167604

> <PUBCHEM_OPENEYE_CAN_SMILES>
CC(=O)NC1C(C(C(OC1OP(=O)(O)O)COP(=O)(O)O)O)O

> <PUBCHEM_OPENEYE_ISO_SMILES>
CC(=O)N[C@@H]1[C@H]([C@@H]([C@H](O[C@@H]1OP(=O)(O)O)COP(=O)(O)O)O)O

> <PUBCHEM_CACTVS_TPSA>
212

> <PUBCHEM_MONOISOTOPIC_WEIGHT>
381.022598

> <PUBCHEM_TOTAL_CHARGE>
0

> <PUBCHEM_HEAVY_ATOM_COUNT>
23

> <PUBCHEM_ATOM_DEF_STEREO_COUNT>
5

> <PUBCHEM_ATOM_UDEF_STEREO_COUNT>
0

> <PUBCHEM_BOND_DEF_STEREO_COUNT>
0

> <PUBCHEM_BOND_UDEF_STEREO_COUNT>
0

> <PUBCHEM_ISOTOPIC_ATOM_COUNT>
0

> <PUBCHEM_COMPONENT_COUNT>
1

> <PUBCHEM_CACTVS_TAUTO_COUNT>
2

> <PUBCHEM_COORDINATE_TYPE>
1
5
255

> <PUBCHEM_BONDANNOTATIONS>
16  15  6
19  21  5
17  4  5
20  5  6
18  6  6

$$$$

