17396062
  -OEChem-06241222543D

 50 53  0     1  0  0  0  0  0999 V2000
   -1.2458    0.4932    1.5296 O   0  0  0  0  0  0  0  0  0  0  0  0
   -3.1628   -2.7457   -1.1203 O   0  0  0  0  0  0  0  0  0  0  0  0
    0.1408   -2.0496   -1.4011 O   0  0  0  0  0  0  0  0  0  0  0  0
   -3.7031   -0.5170   -0.7079 N   0  0  0  0  0  0  0  0  0  0  0  0
   -1.9288   -1.3830    0.3247 N   0  0  0  0  0  0  0  0  0  0  0  0
    1.4501   -2.5737    0.4462 N   0  0  0  0  0  0  0  0  0  0  0  0
    4.0552    0.7281   -0.6273 N   0  0  0  0  0  0  0  0  0  0  0  0
    4.2094   -0.9579    0.8343 N   0  0  0  0  0  0  0  0  0  0  0  0
   -3.1938    0.6026    0.0598 C   0  0  2  0  0  0  0  0  0  0  0  0
   -4.2121    1.1459    1.0878 C   0  0  1  0  0  0  0  0  0  0  0  0
   -2.6721    1.7091   -0.8697 C   0  0  0  0  0  0  0  0  0  0  0  0
   -5.3362    1.9338    0.3922 C   0  0  0  0  0  0  0  0  0  0  0  0
   -3.8042    2.4856   -1.5384 C   0  0  0  0  0  0  0  0  0  0  0  0
   -4.7878    3.0344   -0.5116 C   0  0  0  0  0  0  0  0  0  0  0  0
   -1.9988   -0.0727    0.7467 C   0  0  0  0  0  0  0  0  0  0  0  0
   -4.8218    0.0623    1.9858 C   0  0  0  0  0  0  0  0  0  0  0  0
   -2.9452   -1.6788   -0.5606 C   0  0  0  0  0  0  0  0  0  0  0  0
   -0.9167   -2.3280    0.7532 C   0  0  0  0  0  0  0  0  0  0  0  0
    0.2583   -2.2793   -0.2001 C   0  0  0  0  0  0  0  0  0  0  0  0
    2.7237   -2.6464   -0.2333 C   0  0  0  0  0  0  0  0  0  0  0  0
    3.3770   -1.3023   -0.2004 C   0  0  0  0  0  0  0  0  0  0  0  0
    3.2652   -0.2813   -1.1145 C   0  0  0  0  0  0  0  0  0  0  0  0
    4.6103    0.2675    0.5636 C   0  0  0  0  0  0  0  0  0  0  0  0
    4.3060    1.9911   -1.1564 C   0  0  0  0  0  0  0  0  0  0  0  0
    5.4804    1.1574    1.2595 C   0  0  0  0  0  0  0  0  0  0  0  0
    5.1259    2.8238   -0.4948 C   0  0  0  0  0  0  0  0  0  0  0  0
    5.7271    2.3809    0.7531 C   0  0  0  0  0  0  0  0  0  0  0  0
   -3.6821    1.8447    1.7508 H   0  0  0  0  0  0  0  0  0  0  0  0
   -2.0554    2.4128   -0.2948 H   0  0  0  0  0  0  0  0  0  0  0  0
   -2.0160    1.2898   -1.6435 H   0  0  0  0  0  0  0  0  0  0  0  0
   -5.9600    1.2544   -0.2023 H   0  0  0  0  0  0  0  0  0  0  0  0
   -5.9938    2.3857    1.1447 H   0  0  0  0  0  0  0  0  0  0  0  0
   -3.3854    3.3121   -2.1238 H   0  0  0  0  0  0  0  0  0  0  0  0
   -4.3346    1.8351   -2.2443 H   0  0  0  0  0  0  0  0  0  0  0  0
   -5.6163    3.5338   -1.0265 H   0  0  0  0  0  0  0  0  0  0  0  0
   -4.2891    3.7949    0.1019 H   0  0  0  0  0  0  0  0  0  0  0  0
   -4.5176   -0.4620   -1.3113 H   0  0  0  0  0  0  0  0  0  0  0  0
   -5.4899    0.5127    2.7282 H   0  0  0  0  0  0  0  0  0  0  0  0
   -4.0475   -0.4839    2.5334 H   0  0  0  0  0  0  0  0  0  0  0  0
   -5.4083   -0.6603    1.4091 H   0  0  0  0  0  0  0  0  0  0  0  0
   -1.3283   -3.3422    0.7382 H   0  0  0  0  0  0  0  0  0  0  0  0
   -0.6028   -2.0722    1.7702 H   0  0  0  0  0  0  0  0  0  0  0  0
    1.4442   -2.7496    1.4467 H   0  0  0  0  0  0  0  0  0  0  0  0
    3.3395   -3.3859    0.2879 H   0  0  0  0  0  0  0  0  0  0  0  0
    2.5750   -2.9800   -1.2656 H   0  0  0  0  0  0  0  0  0  0  0  0
    2.7107   -0.1863   -2.0383 H   0  0  0  0  0  0  0  0  0  0  0  0
    3.8255    2.2567   -2.0901 H   0  0  0  0  0  0  0  0  0  0  0  0
    5.9346    0.8382    2.1910 H   0  0  0  0  0  0  0  0  0  0  0  0
    5.3529    3.8164   -0.8640 H   0  0  0  0  0  0  0  0  0  0  0  0
    6.3860    3.0717    1.2680 H   0  0  0  0  0  0  0  0  0  0  0  0
  1 15  2  0  0  0  0
  2 17  2  0  0  0  0
  3 19  2  0  0  0  0
  4  9  1  0  0  0  0
  4 17  1  0  0  0  0
  4 37  1  0  0  0  0
  5 15  1  0  0  0  0
  5 17  1  0  0  0  0
  5 18  1  0  0  0  0
  6 19  1  0  0  0  0
  6 20  1  0  0  0  0
  6 43  1  0  0  0  0
  7 22  1  0  0  0  0
  7 23  1  0  0  0  0
  7 24  1  0  0  0  0
  8 21  1  0  0  0  0
  8 23  2  0  0  0  0
  9 10  1  0  0  0  0
  9 11  1  0  0  0  0
  9 15  1  0  0  0  0
 10 12  1  0  0  0  0
 10 16  1  0  0  0  0
 10 28  1  0  0  0  0
 11 13  1  0  0  0  0
 11 29  1  0  0  0  0
 11 30  1  0  0  0  0
 12 14  1  0  0  0  0
 12 31  1  0  0  0  0
 12 32  1  0  0  0  0
 13 14  1  0  0  0  0
 13 33  1  0  0  0  0
 13 34  1  0  0  0  0
 14 35  1  0  0  0  0
 14 36  1  0  0  0  0
 16 38  1  0  0  0  0
 16 39  1  0  0  0  0
 16 40  1  0  0  0  0
 18 19  1  0  0  0  0
 18 41  1  0  0  0  0
 18 42  1  0  0  0  0
 20 21  1  0  0  0  0
 20 44  1  0  0  0  0
 20 45  1  0  0  0  0
 21 22  2  0  0  0  0
 22 46  1  0  0  0  0
 23 25  1  0  0  0  0
 24 26  2  0  0  0  0
 24 47  1  0  0  0  0
 25 27  2  0  0  0  0
 25 48  1  0  0  0  0
 26 27  1  0  0  0  0
 26 49  1  0  0  0  0
 27 50  1  0  0  0  0
M  END
> <PUBCHEM_COMPOUND_CID>
17396062

> <PUBCHEM_CONFORMER_RMSD>
1.2

> <PUBCHEM_CONFORMER_DIVERSEORDER>
1
58
115
49
121
65
51
126
3
149
44
8
97
35
14
71
73
96
37
6
147
130
12
87
79
7
95
101
143
30
39
137
46
10
50
42
60
57
129
21
26
98
86
80
9
28
91
142
25
69
56
92
23
148
29
13
150
105
113
124
54
5
16
135
89
53
38
144
59
22
120
90
141
118
27
45
66
111
43
74
67
107
123
48
125
17
19
116
110
102
146
20
11
62
24
4
82
40
106
33
131
55
15
34
52
18
134
112
99
138
88
117
61
41
140
32
77
114
100
76
109
31
145
2
127
68
94
47
72
119
122
78
128
36
85
132
133
108
83
104
70
84
75
136
81
64
63
139
103
93

> <PUBCHEM_MMFF94_PARTIAL_CHARGES>
28
1 -0.57
15 0.57
17 0.69
18 0.36
19 0.57
2 -0.57
20 0.48
21 0.05
22 -0.3
23 0.14
24 -0.18
25 -0.11
26 -0.15
27 -0.15
3 -0.57
37 0.37
4 -0.73
43 0.37
46 0.15
47 0.15
48 0.15
49 0.15
5 -0.42
50 0.15
6 -0.73
7 0.33
8 -0.57
9 0.36

> <PUBCHEM_EFFECTIVE_ROTOR_COUNT>
6.4

> <PUBCHEM_PHARMACOPHORE_FEATURES>
10
1 1 acceptor
1 2 acceptor
1 3 acceptor
1 4 donor
1 6 donor
3 7 8 23 cation
5 4 5 9 15 17 rings
5 7 8 21 22 23 rings
6 7 23 24 25 26 27 rings
6 9 10 11 12 13 14 rings

> <PUBCHEM_HEAVY_ATOM_COUNT>
27

> <PUBCHEM_ATOM_DEF_STEREO_COUNT>
0

> <PUBCHEM_ATOM_UDEF_STEREO_COUNT>
2

> <PUBCHEM_BOND_DEF_STEREO_COUNT>
0

> <PUBCHEM_BOND_UDEF_STEREO_COUNT>
0

> <PUBCHEM_ISOTOPIC_ATOM_COUNT>
0

> <PUBCHEM_COMPONENT_COUNT>
1

> <PUBCHEM_CACTVS_TAUTO_COUNT>
4

> <PUBCHEM_CONFORMER_ID>
0109715E00000001

> <PUBCHEM_MMFF94_ENERGY>
43.3943

> <PUBCHEM_FEATURE_SELFOVERLAP>
50.864

> <PUBCHEM_SHAPE_FINGERPRINT>
10498660 4 18040992930316054746
10670039 82 18268979892267369708
10673678 19 18047473606865108541
10763959 59 18339642373400451550
11720765 8 17751344300761781694
12107183 9 18198920269713196690
12422481 6 17703509986237345540
12633257 1 15841546362702886790
12925494 130 17840587329803233285
12978246 48 18342453742559232772
13383661 66 6264604470515370821
13583140 156 17842547728875393147
13965767 371 17917720119222034190
14251764 38 18341898459248593908
14251764 75 18261664956544120361
14468879 13 18201430385264043728
14739800 52 17343792761941808329
14848178 5 9367341505333129462
14848178 96 18335702775592348872
14950920 106 16558752274194601144
15163728 17 17749373876091026054
1768 210 18189072926787940573
19246450 95 17627268802765178968
20715895 44 18267312121341923720
21033648 29 18059567048562631006
21302155 148 18412543180829317188
21388113 180 18341897449594156452
22393880 68 18334850615700495094
22950370 63 9078846207620660586
23227448 37 18410855495031531279
23559900 14 17968658353895918430
2838139 119 18338243776659710206
3459 39 18189074022784959432
345986 75 12607395628622273462
3472631 163 18334294314024151519
376196 1 18409450289180841490
38570 142 16700029541940694852
5104073 3 18272931652199008203
550186 72 18409726245467182337
6036956 94 17551792521274909612
6371009 1 18124329207231321780
7064713 232 18341897338515447772
7237137 82 18040725740706740119
7808743 9 18266457595244401274
9981440 41 18340769243622328610

> <PUBCHEM_SHAPE_MULTIPOLES>
513.13
14.43
3.84
1.43
7.74
0.1
-0.18
-12.36
-2.25
0.21
0.99
-0.68
-0.24
0.4

> <PUBCHEM_SHAPE_SELFOVERLAP>
1108.178

> <PUBCHEM_SHAPE_VOLUME>
282.9

> <PUBCHEM_COORDINATE_TYPE>
2
5
10

$$$$

