46174017
  -OEChem-07051213113D

 55 56  0     1  0  0  0  0  0999 V2000
   -0.2591   -0.3789   -0.4919 O   0  0  0  0  0  0  0  0  0  0  0  0
   -1.8998    0.2477    1.0939 O   0  0  0  0  0  0  0  0  0  0  0  0
    1.5181   -1.9488    1.1345 O   0  0  0  0  0  0  0  0  0  0  0  0
    3.3596    2.5533   -1.6104 O   0  0  0  0  0  0  0  0  0  0  0  0
    5.1338    0.9832    0.0136 O   0  0  0  0  0  0  0  0  0  0  0  0
   -3.9789   -2.4935   -1.1972 O   0  0  0  0  0  0  0  0  0  0  0  0
   -4.5545    0.3110   -1.4601 O   0  0  0  0  0  0  0  0  0  0  0  0
    4.3105   -1.7342    0.4446 N   0  0  0  0  0  0  0  0  0  0  0  0
    0.5750    2.3575   -0.9089 N   0  0  0  0  0  0  0  0  0  0  0  0
   -1.2271   -3.0647   -0.4469 N   0  0  0  0  0  0  0  0  0  0  0  0
   -4.3165    1.4703    1.9443 N   0  0  0  0  0  0  0  0  0  0  0  0
    0.9868    0.1116    0.0118 C   0  0  2  0  0  0  0  0  0  0  0  0
    1.4875    1.2055   -0.9419 C   0  0  2  0  0  0  0  0  0  0  0  0
    1.9697   -1.0601    0.1082 C   0  0  1  0  0  0  0  0  0  0  0  0
    3.3837   -0.5934    0.4716 C   0  0  2  0  0  0  0  0  0  0  0  0
    2.9063    1.6678   -0.5821 C   0  0  1  0  0  0  0  0  0  0  0  0
    3.8856    0.4927   -0.4856 C   0  0  1  0  0  0  0  0  0  0  0  0
   -1.1057   -0.8199    0.5675 C   0  0  1  0  0  0  0  0  0  0  0  0
   -2.0173   -1.9605    0.0990 C   0  0  1  0  0  0  0  0  0  0  0  0
   -3.0286   -1.4587   -0.9376 C   0  0  2  0  0  0  0  0  0  0  0  0
   -2.7944    0.8211    0.1343 C   0  0  1  0  0  0  0  0  0  0  0  0
   -3.7733   -0.2322   -0.3987 C   0  0  1  0  0  0  0  0  0  0  0  0
   -3.5154    1.9730    0.8291 C   0  0  2  0  0  0  0  0  0  0  0  0
    5.4765   -1.4601    1.2649 C   0  0  0  0  0  0  0  0  0  0  0  0
   -2.5224    3.0101    1.3438 C   0  0  0  0  0  0  0  0  0  0  0  0
    0.8368    0.5562    1.0073 H   0  0  0  0  0  0  0  0  0  0  0  0
    1.4727    0.8261   -1.9725 H   0  0  0  0  0  0  0  0  0  0  0  0
    1.9666   -1.6278   -0.8305 H   0  0  0  0  0  0  0  0  0  0  0  0
    3.3445   -0.1938    1.4955 H   0  0  0  0  0  0  0  0  0  0  0  0
    2.9082    2.2395    0.3544 H   0  0  0  0  0  0  0  0  0  0  0  0
    4.0808    0.0806   -1.4835 H   0  0  0  0  0  0  0  0  0  0  0  0
   -0.5419   -1.1894    1.4252 H   0  0  0  0  0  0  0  0  0  0  0  0
   -2.5745   -2.3422    0.9652 H   0  0  0  0  0  0  0  0  0  0  0  0
   -2.5420   -1.2234   -1.8920 H   0  0  0  0  0  0  0  0  0  0  0  0
   -2.2183    1.2385   -0.6994 H   0  0  0  0  0  0  0  0  0  0  0  0
   -4.4689   -0.5764    0.3733 H   0  0  0  0  0  0  0  0  0  0  0  0
    3.8319   -2.5472    0.8342 H   0  0  0  0  0  0  0  0  0  0  0  0
   -4.1864    2.4703    0.1184 H   0  0  0  0  0  0  0  0  0  0  0  0
   -0.3348    2.0770   -1.2696 H   0  0  0  0  0  0  0  0  0  0  0  0
    0.9198    3.0810   -1.5387 H   0  0  0  0  0  0  0  0  0  0  0  0
    1.6029   -1.4922    1.9890 H   0  0  0  0  0  0  0  0  0  0  0  0
    3.3694    2.0611   -2.4490 H   0  0  0  0  0  0  0  0  0  0  0  0
    4.9720    1.3889    0.8826 H   0  0  0  0  0  0  0  0  0  0  0  0
   -1.8451   -3.8339   -0.7015 H   0  0  0  0  0  0  0  0  0  0  0  0
   -0.5977   -3.4230    0.2701 H   0  0  0  0  0  0  0  0  0  0  0  0
    5.2397   -0.9800    2.2202 H   0  0  0  0  0  0  0  0  0  0  0  0
    6.2413   -0.8891    0.7337 H   0  0  0  0  0  0  0  0  0  0  0  0
    5.9555   -2.4155    1.5098 H   0  0  0  0  0  0  0  0  0  0  0  0
   -4.4108   -2.7265   -0.3578 H   0  0  0  0  0  0  0  0  0  0  0  0
   -1.9104    3.4001    0.5239 H   0  0  0  0  0  0  0  0  0  0  0  0
   -3.0472    3.8618    1.7916 H   0  0  0  0  0  0  0  0  0  0  0  0
   -1.8485    2.6017    2.1050 H   0  0  0  0  0  0  0  0  0  0  0  0
   -3.9465    0.6240   -2.1514 H   0  0  0  0  0  0  0  0  0  0  0  0
   -4.6909    2.2541    2.4784 H   0  0  0  0  0  0  0  0  0  0  0  0
   -5.1297    0.9676    1.5928 H   0  0  0  0  0  0  0  0  0  0  0  0
  1 12  1  0  0  0  0
  1 18  1  0  0  0  0
  2 18  1  0  0  0  0
  2 21  1  0  0  0  0
  3 14  1  0  0  0  0
  3 41  1  0  0  0  0
  4 16  1  0  0  0  0
  4 42  1  0  0  0  0
  5 17  1  0  0  0  0
  5 43  1  0  0  0  0
  6 20  1  0  0  0  0
  6 49  1  0  0  0  0
  7 22  1  0  0  0  0
  7 53  1  0  0  0  0
  8 15  1  0  0  0  0
  8 24  1  0  0  0  0
  8 37  1  0  0  0  0
  9 13  1  0  0  0  0
  9 39  1  0  0  0  0
  9 40  1  0  0  0  0
 10 19  1  0  0  0  0
 10 44  1  0  0  0  0
 10 45  1  0  0  0  0
 11 23  1  0  0  0  0
 11 54  1  0  0  0  0
 11 55  1  0  0  0  0
 12 13  1  0  0  0  0
 12 14  1  0  0  0  0
 12 26  1  0  0  0  0
 13 16  1  0  0  0  0
 13 27  1  0  0  0  0
 14 15  1  0  0  0  0
 14 28  1  0  0  0  0
 15 17  1  0  0  0  0
 15 29  1  0  0  0  0
 16 17  1  0  0  0  0
 16 30  1  0  0  0  0
 17 31  1  0  0  0  0
 18 19  1  0  0  0  0
 18 32  1  0  0  0  0
 19 20  1  0  0  0  0
 19 33  1  0  0  0  0
 20 22  1  0  0  0  0
 20 34  1  0  0  0  0
 21 22  1  0  0  0  0
 21 23  1  0  0  0  0
 21 35  1  0  0  0  0
 22 36  1  0  0  0  0
 23 25  1  0  0  0  0
 23 38  1  0  0  0  0
 24 46  1  0  0  0  0
 24 47  1  0  0  0  0
 24 48  1  0  0  0  0
 25 50  1  0  0  0  0
 25 51  1  0  0  0  0
 25 52  1  0  0  0  0
M  END
> <PUBCHEM_COMPOUND_CID>
46174017

> <PUBCHEM_CONFORMER_RMSD>
0.8

> <PUBCHEM_CONFORMER_DIVERSEORDER>
1
6
2
10
3
8
7
15
14
9
4
5
13
11
12

> <PUBCHEM_MMFF94_PARTIAL_CHARGES>
36
1 -0.56
10 -0.99
11 -0.99
12 0.28
13 0.27
14 0.28
15 0.27
16 0.28
17 0.28
18 0.56
19 0.27
2 -0.56
20 0.28
21 0.28
22 0.28
23 0.27
24 0.27
3 -0.68
37 0.36
39 0.36
4 -0.68
40 0.36
41 0.4
42 0.4
43 0.4
44 0.36
45 0.36
49 0.4
5 -0.68
53 0.4
54 0.36
55 0.36
6 -0.68
7 -0.68
8 -0.9
9 -0.99

> <PUBCHEM_EFFECTIVE_ROTOR_COUNT>
6.4

> <PUBCHEM_PHARMACOPHORE_FEATURES>
22
1 1 acceptor
1 10 cation
1 10 donor
1 11 cation
1 11 donor
1 2 acceptor
1 3 acceptor
1 3 donor
1 4 acceptor
1 4 donor
1 5 acceptor
1 5 donor
1 6 acceptor
1 6 donor
1 7 acceptor
1 7 donor
1 8 cation
1 8 donor
1 9 cation
1 9 donor
6 12 13 14 15 16 17 rings
6 2 18 19 20 21 22 rings

> <PUBCHEM_HEAVY_ATOM_COUNT>
25

> <PUBCHEM_ATOM_DEF_STEREO_COUNT>
12

> <PUBCHEM_ATOM_UDEF_STEREO_COUNT>
0

> <PUBCHEM_BOND_DEF_STEREO_COUNT>
0

> <PUBCHEM_BOND_UDEF_STEREO_COUNT>
0

> <PUBCHEM_ISOTOPIC_ATOM_COUNT>
0

> <PUBCHEM_COMPONENT_COUNT>
1

> <PUBCHEM_CACTVS_TAUTO_COUNT>
1

> <PUBCHEM_CONFORMER_ID>
02C08F4100000001

> <PUBCHEM_MMFF94_ENERGY>
58.1921

> <PUBCHEM_FEATURE_SELFOVERLAP>
111.697

> <PUBCHEM_SHAPE_FINGERPRINT>
10062212 137 18409166610410413763
10906281 52 18201706363764354970
12107183 9 18049441736530118514
12236239 1 18411141337836864451
12553582 1 17988082326401490554
12633257 1 18411415154691694804
12670546 56 18334299768664434552
12788726 201 18187356594117010929
13009979 54 18409165510835450104
13140716 1 18343576339793766120
13583140 156 17560798900717475475
14739800 52 18042697100662897744
14790565 3 17985812758635682380
15420108 30 17760092117512935505
15442244 35 18412544327537618596
16752209 62 18113342990057363311
17349148 13 18334861601641321126
17492 89 18270399361231020274
17818456 19 18261954158388055120
17980427 23 18041002851284703092
1813 80 17560227167703795798
192875 21 18335149682604878077
19489759 90 17749117719972658530
200 152 18338243661007056927
20511986 3 18338253620962246160
20739085 24 17917416679814090356
20775438 99 16313910581302205687
21033648 29 16487262057888930925
21033650 10 17241584256503516096
23184049 59 18200302337794561144
23402539 116 18187656816552187269
23557571 272 17022892458832632697
23559900 14 18188221900772032432
23598291 2 18412825780828671614
25147074 1 18411694361735632372
2838139 119 17559415724033317317
312423 11 18341603781120447975
34797466 226 17023182678774123616
3633792 109 18269855236371458479
474 4 18131348575182787912
5104073 3 18412826867708475954
543358 83 18343580733777424876
5895379 119 18187920720638608072
6992083 37 18341889731722009045
7064713 232 18262242234834968976
7471813 234 18117011995602063085
7615 1 18410290285386975400

> <PUBCHEM_SHAPE_MULTIPOLES>
453.48
10.3
3.13
1.36
5.59
0.2
0.12
0.01
1.11
-1.3
-0.1
-0.57
0.45
-3.16

> <PUBCHEM_SHAPE_SELFOVERLAP>
922.829

> <PUBCHEM_SHAPE_VOLUME>
260.5

> <PUBCHEM_COORDINATE_TYPE>
2
5
10

$$$$

