582858
  -OEChem-06241222443D

 51 50  0     1  0  0  0  0  0999 V2000
   -3.6163   -0.6074    0.8317 Si  0  0  0  0  0  0  0  0  0  0  0  0
   -2.1123   -0.5898    0.0973 O   0  0  0  0  0  0  0  0  0  0  0  0
    1.9832    0.8076    0.6552 C   0  0  1  0  0  0  0  0  0  0  0  0
    0.4371    0.7365    0.6393 C   0  0  0  0  0  0  0  0  0  0  0  0
   -0.1945    0.5871   -0.7534 C   0  0  0  0  0  0  0  0  0  0  0  0
   -1.7278    0.5407   -0.6866 C   0  0  1  0  0  0  0  0  0  0  0  0
    2.6676   -0.4743    0.1300 C   0  0  0  0  0  0  0  0  0  0  0  0
    2.4754    2.0621   -0.1014 C   0  0  0  0  0  0  0  0  0  0  0  0
    4.1845   -0.5027    0.3470 C   0  0  0  0  0  0  0  0  0  0  0  0
   -2.3853    0.4091   -2.0658 C   0  0  0  0  0  0  0  0  0  0  0  0
    1.8318    3.3573    0.3768 C   0  0  0  0  0  0  0  0  0  0  0  0
    4.7836   -1.8347   -0.1080 C   0  0  0  0  0  0  0  0  0  0  0  0
   -1.9808   -0.8456   -2.8223 C   0  0  0  0  0  0  0  0  0  0  0  0
   -4.0039    1.1050    1.5159 C   0  0  0  0  0  0  0  0  0  0  0  0
   -3.6655   -1.8289    2.2616 C   0  0  0  0  0  0  0  0  0  0  0  0
   -4.9697   -1.0639   -0.3923 C   0  0  0  0  0  0  0  0  0  0  0  0
    6.2929   -1.8581    0.0750 C   0  0  0  0  0  0  0  0  0  0  0  0
    2.2751    0.9229    1.7086 H   0  0  0  0  0  0  0  0  0  0  0  0
    0.0102    1.6079    1.1490 H   0  0  0  0  0  0  0  0  0  0  0  0
    0.1446   -0.1259    1.2529 H   0  0  0  0  0  0  0  0  0  0  0  0
    0.1822   -0.3423   -1.1926 H   0  0  0  0  0  0  0  0  0  0  0  0
    0.1084    1.4129   -1.4050 H   0  0  0  0  0  0  0  0  0  0  0  0
   -2.0545    1.4811   -0.2255 H   0  0  0  0  0  0  0  0  0  0  0  0
    2.4617   -0.5938   -0.9405 H   0  0  0  0  0  0  0  0  0  0  0  0
    2.2222   -1.3403    0.6359 H   0  0  0  0  0  0  0  0  0  0  0  0
    3.5557    2.1702    0.0461 H   0  0  0  0  0  0  0  0  0  0  0  0
    2.3220    1.9528   -1.1810 H   0  0  0  0  0  0  0  0  0  0  0  0
    4.6630    0.3060   -0.2156 H   0  0  0  0  0  0  0  0  0  0  0  0
    4.4087   -0.3412    1.4081 H   0  0  0  0  0  0  0  0  0  0  0  0
   -3.4732    0.4509   -2.0019 H   0  0  0  0  0  0  0  0  0  0  0  0
   -2.0977    1.2782   -2.6715 H   0  0  0  0  0  0  0  0  0  0  0  0
    0.7816    3.4260    0.0794 H   0  0  0  0  0  0  0  0  0  0  0  0
    2.3479    4.2142   -0.0690 H   0  0  0  0  0  0  0  0  0  0  0  0
    1.8984    3.4546    1.4649 H   0  0  0  0  0  0  0  0  0  0  0  0
    4.5477   -2.0078   -1.1645 H   0  0  0  0  0  0  0  0  0  0  0  0
    4.3387   -2.6577    0.4632 H   0  0  0  0  0  0  0  0  0  0  0  0
   -2.5394   -0.9060   -3.7624 H   0  0  0  0  0  0  0  0  0  0  0  0
   -0.9180   -0.8389   -3.0807 H   0  0  0  0  0  0  0  0  0  0  0  0
   -2.1947   -1.7544   -2.2521 H   0  0  0  0  0  0  0  0  0  0  0  0
   -4.1611    1.8267    0.7091 H   0  0  0  0  0  0  0  0  0  0  0  0
   -4.9159    1.0725    2.1198 H   0  0  0  0  0  0  0  0  0  0  0  0
   -3.1862    1.4604    2.1497 H   0  0  0  0  0  0  0  0  0  0  0  0
   -3.4669   -2.8440    1.9052 H   0  0  0  0  0  0  0  0  0  0  0  0
   -2.9099   -1.5729    3.0101 H   0  0  0  0  0  0  0  0  0  0  0  0
   -4.6469   -1.8187    2.7447 H   0  0  0  0  0  0  0  0  0  0  0  0
   -4.6379   -1.8680   -1.0552 H   0  0  0  0  0  0  0  0  0  0  0  0
   -5.8573   -1.4127    0.1450 H   0  0  0  0  0  0  0  0  0  0  0  0
   -5.2731   -0.2074   -0.9995 H   0  0  0  0  0  0  0  0  0  0  0  0
    6.5626   -1.7170    1.1266 H   0  0  0  0  0  0  0  0  0  0  0  0
    6.6997   -2.8194   -0.2540 H   0  0  0  0  0  0  0  0  0  0  0  0
    6.7718   -1.0679   -0.5119 H   0  0  0  0  0  0  0  0  0  0  0  0
  1  2  1  0  0  0  0
  1 14  1  0  0  0  0
  1 15  1  0  0  0  0
  1 16  1  0  0  0  0
  2  6  1  0  0  0  0
  3  4  1  0  0  0  0
  3  7  1  0  0  0  0
  3  8  1  0  0  0  0
  3 18  1  0  0  0  0
  4  5  1  0  0  0  0
  4 19  1  0  0  0  0
  4 20  1  0  0  0  0
  5  6  1  0  0  0  0
  5 21  1  0  0  0  0
  5 22  1  0  0  0  0
  6 10  1  0  0  0  0
  6 23  1  0  0  0  0
  7  9  1  0  0  0  0
  7 24  1  0  0  0  0
  7 25  1  0  0  0  0
  8 11  1  0  0  0  0
  8 26  1  0  0  0  0
  8 27  1  0  0  0  0
  9 12  1  0  0  0  0
  9 28  1  0  0  0  0
  9 29  1  0  0  0  0
 10 13  1  0  0  0  0
 10 30  1  0  0  0  0
 10 31  1  0  0  0  0
 11 32  1  0  0  0  0
 11 33  1  0  0  0  0
 11 34  1  0  0  0  0
 12 17  1  0  0  0  0
 12 35  1  0  0  0  0
 12 36  1  0  0  0  0
 13 37  1  0  0  0  0
 13 38  1  0  0  0  0
 13 39  1  0  0  0  0
 14 40  1  0  0  0  0
 14 41  1  0  0  0  0
 14 42  1  0  0  0  0
 15 43  1  0  0  0  0
 15 44  1  0  0  0  0
 15 45  1  0  0  0  0
 16 46  1  0  0  0  0
 16 47  1  0  0  0  0
 16 48  1  0  0  0  0
 17 49  1  0  0  0  0
 17 50  1  0  0  0  0
 17 51  1  0  0  0  0
M  END
> <PUBCHEM_COMPOUND_CID>
582858

> <PUBCHEM_CONFORMER_RMSD>
1.2

> <PUBCHEM_CONFORMER_DIVERSEORDER>
1
48
11
18
28
33
20
15
17
3
38
39
29
46
44
34
30
13
47
9
22
43
16
36
42
45
27
32
12
21
40
4
25
26
24
7
8
6
23
41
37
19
14
10
5
2
31
49
35

> <PUBCHEM_MMFF94_PARTIAL_CHARGES>
6
1 0.54
14 -0.08
15 -0.08
16 -0.08
2 -0.58
6 0.28

> <PUBCHEM_EFFECTIVE_ROTOR_COUNT>
10

> <PUBCHEM_PHARMACOPHORE_FEATURES>
7
1 11 hydrophobe
1 13 hydrophobe
1 17 hydrophobe
3 3 7 8 hydrophobe
3 7 9 12 hydrophobe
4 3 4 5 8 hydrophobe
5 3 7 8 9 12 hydrophobe

> <PUBCHEM_HEAVY_ATOM_COUNT>
17

> <PUBCHEM_ATOM_DEF_STEREO_COUNT>
0

> <PUBCHEM_ATOM_UDEF_STEREO_COUNT>
2

> <PUBCHEM_BOND_DEF_STEREO_COUNT>
0

> <PUBCHEM_BOND_UDEF_STEREO_COUNT>
0

> <PUBCHEM_ISOTOPIC_ATOM_COUNT>
0

> <PUBCHEM_COMPONENT_COUNT>
1

> <PUBCHEM_CACTVS_TAUTO_COUNT>
1

> <PUBCHEM_CONFORMER_ID>
0008E4CA00000001

> <PUBCHEM_MMFF94_ENERGY>
17.2038

> <PUBCHEM_FEATURE_SELFOVERLAP>
43.243

> <PUBCHEM_SHAPE_FINGERPRINT>
10366900 7 17489593367787335723
11370993 144 18343013364197466449
12553582 1 18337967791300335978
12596599 1 17632010828564015913
12596602 18 16805328790299589570
12633257 1 18115288013252637891
13533116 47 18338232640458358243
13544592 145 18060704966141369939
13673619 4 17917698102496793643
13675066 3 17385439938238651586
13740256 8 18343294882155355522
13911882 115 17558818495349735528
14178342 30 15357699652007373836
14251764 30 16844990360909229099
15537594 2 18040715918206575518
15806764 133 17846789493852224668
15842332 3 17460322053094700508
17980427 23 4967309327990617928
1813 80 18114170974158342908
18785283 64 18056194666708571536
20645477 70 18341344283565068558
20693207 138 17847064350394594602
20871999 31 16415481588015143646
21041028 32 18335134323775940984
212916 134 15068611704252286399
21713013 43 17489870436169746310
23557571 272 17202500930125099677
23559900 14 17632297826388529829
23598288 3 18260548969443038517
23598291 2 17968104066569279964
2838139 119 17895196662598941505
314194 84 18334583447471090486
3286 77 18342165635978268435
351380 3 18187931724656303726
6049 1 17917721166476727172
621550 5 17846770802149238428
7615 1 17314240959639946189

> <PUBCHEM_SHAPE_MULTIPOLES>
362.2
11.73
2.47
1.96
11.13
1.49
-1.16
-8.46
2.38
2.78
0.74
-3.09
-0.47
0.7

> <PUBCHEM_SHAPE_SELFOVERLAP>
646.445

> <PUBCHEM_SHAPE_VOLUME>
236.7

> <PUBCHEM_COORDINATE_TYPE>
2
5
10

$$$$

