238387
  -OEChem-07051213063D

 46 49  0     1  0  0  0  0  0999 V2000
    5.2097    1.3610    0.2743 O   0  0  0  0  0  0  0  0  0  0  0  0
   -5.6197   -0.3655    0.4712 O   0  0  0  0  0  0  0  0  0  0  0  0
   -4.6355    2.1963   -0.1383 N   0  0  0  0  0  0  0  0  0  0  0  0
    2.8535    0.6434    0.1546 C   0  0  1  0  0  0  0  0  0  0  0  0
    2.2546   -0.6694   -0.3890 C   0  0  2  0  0  0  0  0  0  0  0  0
    0.7961   -0.8547    0.0287 C   0  0  1  0  0  0  0  0  0  0  0  0
   -0.0445    0.3186   -0.5605 C   0  0  2  0  0  0  0  0  0  0  0  0
    4.2948    0.4948   -0.3686 C   0  0  2  0  0  0  0  0  0  0  0  0
    2.0657    1.8128   -0.4483 C   0  0  0  0  0  0  0  0  0  0  0  0
    3.2859   -1.7217    0.0086 C   0  0  0  0  0  0  0  0  0  0  0  0
    0.5560    1.6943   -0.1640 C   0  0  0  0  0  0  0  0  0  0  0  0
    4.6335   -0.9869   -0.1124 C   0  0  0  0  0  0  0  0  0  0  0  0
    0.2090   -2.1806   -0.4587 C   0  0  0  0  0  0  0  0  0  0  0  0
    2.8516    0.7679    1.6999 C   0  0  0  0  0  0  0  0  0  0  0  0
   -1.5288    0.1465   -0.2493 C   0  0  0  0  0  0  0  0  0  0  0  0
   -1.1942   -2.3659    0.1109 C   0  0  0  0  0  0  0  0  0  0  0  0
   -2.0606   -1.1331    0.0234 C   0  0  0  0  0  0  0  0  0  0  0  0
   -2.4166    1.2350   -0.3137 C   0  0  0  0  0  0  0  0  0  0  0  0
   -3.4361   -1.2810    0.2746 C   0  0  0  0  0  0  0  0  0  0  0  0
   -3.7823    1.0724   -0.0712 C   0  0  0  0  0  0  0  0  0  0  0  0
   -4.2919   -0.1845    0.2277 C   0  0  0  0  0  0  0  0  0  0  0  0
    2.2687   -0.6317   -1.4913 H   0  0  0  0  0  0  0  0  0  0  0  0
    0.7242   -0.8455    1.1240 H   0  0  0  0  0  0  0  0  0  0  0  0
    0.0240    0.2577   -1.6579 H   0  0  0  0  0  0  0  0  0  0  0  0
    4.3368    0.6990   -1.4460 H   0  0  0  0  0  0  0  0  0  0  0  0
    2.2106    1.8395   -1.5363 H   0  0  0  0  0  0  0  0  0  0  0  0
    2.4387    2.7704   -0.0655 H   0  0  0  0  0  0  0  0  0  0  0  0
    3.2514   -2.5981   -0.6465 H   0  0  0  0  0  0  0  0  0  0  0  0
    3.1305   -2.0692    1.0359 H   0  0  0  0  0  0  0  0  0  0  0  0
    0.3578    1.8938    0.8961 H   0  0  0  0  0  0  0  0  0  0  0  0
    0.0628    2.4984   -0.7223 H   0  0  0  0  0  0  0  0  0  0  0  0
    5.2334   -1.1221    0.7946 H   0  0  0  0  0  0  0  0  0  0  0  0
    5.2221   -1.3866   -0.9457 H   0  0  0  0  0  0  0  0  0  0  0  0
    0.8305   -3.0283   -0.1492 H   0  0  0  0  0  0  0  0  0  0  0  0
    0.1722   -2.1953   -1.5556 H   0  0  0  0  0  0  0  0  0  0  0  0
    3.2944    1.7216    2.0101 H   0  0  0  0  0  0  0  0  0  0  0  0
    1.8454    0.7353    2.1258 H   0  0  0  0  0  0  0  0  0  0  0  0
    3.4282   -0.0261    2.1846 H   0  0  0  0  0  0  0  0  0  0  0  0
   -1.1157   -2.6466    1.1691 H   0  0  0  0  0  0  0  0  0  0  0  0
   -1.6781   -3.1980   -0.4148 H   0  0  0  0  0  0  0  0  0  0  0  0
    6.0988    1.1403   -0.0515 H   0  0  0  0  0  0  0  0  0  0  0  0
   -2.0523    2.2276   -0.5637 H   0  0  0  0  0  0  0  0  0  0  0  0
   -3.8400   -2.2646    0.5064 H   0  0  0  0  0  0  0  0  0  0  0  0
   -5.6385    2.1150   -0.0698 H   0  0  0  0  0  0  0  0  0  0  0  0
   -4.2385    3.1012   -0.3577 H   0  0  0  0  0  0  0  0  0  0  0  0
   -6.0644    0.4921    0.5496 H   0  0  0  0  0  0  0  0  0  0  0  0
  1  8  1  0  0  0  0
  1 41  1  0  0  0  0
  2 21  1  0  0  0  0
  2 46  1  0  0  0  0
  3 20  1  0  0  0  0
  3 44  1  0  0  0  0
  3 45  1  0  0  0  0
  4  5  1  0  0  0  0
  4  8  1  0  0  0  0
  4  9  1  0  0  0  0
  4 14  1  0  0  0  0
  5  6  1  0  0  0  0
  5 10  1  0  0  0  0
  5 22  1  0  0  0  0
  6  7  1  0  0  0  0
  6 13  1  0  0  0  0
  6 23  1  0  0  0  0
  7 11  1  0  0  0  0
  7 15  1  0  0  0  0
  7 24  1  0  0  0  0
  8 12  1  0  0  0  0
  8 25  1  0  0  0  0
  9 11  1  0  0  0  0
  9 26  1  0  0  0  0
  9 27  1  0  0  0  0
 10 12  1  0  0  0  0
 10 28  1  0  0  0  0
 10 29  1  0  0  0  0
 11 30  1  0  0  0  0
 11 31  1  0  0  0  0
 12 32  1  0  0  0  0
 12 33  1  0  0  0  0
 13 16  1  0  0  0  0
 13 34  1  0  0  0  0
 13 35  1  0  0  0  0
 14 36  1  0  0  0  0
 14 37  1  0  0  0  0
 14 38  1  0  0  0  0
 15 17  1  0  0  0  0
 15 18  2  0  0  0  0
 16 17  1  0  0  0  0
 16 39  1  0  0  0  0
 16 40  1  0  0  0  0
 17 19  2  0  0  0  0
 18 20  1  0  0  0  0
 18 42  1  0  0  0  0
 19 21  1  0  0  0  0
 19 43  1  0  0  0  0
 20 21  2  0  0  0  0
M  END
> <PUBCHEM_COMPOUND_CID>
238387

> <PUBCHEM_CONFORMER_RMSD>
0.6

> <PUBCHEM_CONFORMER_DIVERSEORDER>
1

> <PUBCHEM_MMFF94_PARTIAL_CHARGES>
18
1 -0.68
15 -0.14
16 0.14
17 -0.14
18 -0.15
19 -0.15
2 -0.53
20 0.1
21 0.08
3 -0.9
41 0.4
42 0.15
43 0.15
44 0.4
45 0.4
46 0.45
7 0.14
8 0.28

> <PUBCHEM_EFFECTIVE_ROTOR_COUNT>
1.4

> <PUBCHEM_PHARMACOPHORE_FEATURES>
9
1 1 acceptor
1 1 donor
1 2 donor
1 3 cation
1 3 donor
5 4 5 8 10 12 rings
6 15 17 18 19 20 21 rings
6 4 5 6 7 9 11 rings
6 6 7 13 15 16 17 rings

> <PUBCHEM_HEAVY_ATOM_COUNT>
21

> <PUBCHEM_ATOM_DEF_STEREO_COUNT>
5

> <PUBCHEM_ATOM_UDEF_STEREO_COUNT>
0

> <PUBCHEM_BOND_DEF_STEREO_COUNT>
0

> <PUBCHEM_BOND_UDEF_STEREO_COUNT>
0

> <PUBCHEM_ISOTOPIC_ATOM_COUNT>
0

> <PUBCHEM_COMPONENT_COUNT>
1

> <PUBCHEM_CACTVS_TAUTO_COUNT>
15

> <PUBCHEM_CONFORMER_ID>
0003A33300000001

> <PUBCHEM_MMFF94_ENERGY>
83.0309

> <PUBCHEM_FEATURE_SELFOVERLAP>
45.771

> <PUBCHEM_SHAPE_FINGERPRINT>
10 15 18269841926442368592
10616163 171 18267018362737725494
10646746 165 18410009948671589279
10967382 1 18411136969681116166
11132069 177 18412830183085500583
12011746 2 18409162229754833598
12107183 9 17835804475142265185
12236239 1 17489587857291391052
12251169 10 18342176626715195767
12390115 104 18262220223196479793
12403259 226 18263929843708257353
12403259 415 18334017189817890441
12403260 363 18410858733510400549
12403814 3 17561370569053568125
12500047 106 18334299725672355658
12507560 40 18409729564526842509
12592029 89 18342173397079598827
12788726 201 17749381620312725968
13140716 1 18124314895909407946
13544592 145 18260820527883179198
13675066 3 18334014973340134097
14178342 30 18048898307340701010
14341114 176 18411692193040918115
14790565 3 18052813642736123804
14866123 147 17108460014371290346
15042514 8 18196928873777444243
15196674 1 18411418435872518463
15256400 18 18410854390818617637
15536298 74 18407759248369681222
1601671 61 18413387640171785620
16945 1 18194408788171718158
17349148 13 18408046204056776199
17804303 29 18411696582244332565
1813 80 16989124262067883668
18186145 218 17385727971519737946
192875 21 13767922390976627970
19591789 44 18268148841084902406
200 152 18113341908020529773
20510252 161 18334856147143865369
20645477 70 18114177579617850446
21033648 29 18187657898451708985
21267235 1 18412252948071197071
21279426 13 18265048231242435574
21421861 104 17845105124439156290
22854114 59 18408884036169936579
23402539 116 18334019388956807423
23558518 356 17697598788619931794
23559900 14 18336546118375546422
2748010 2 18339082691178592902
3004659 81 18271802471791667214
335352 9 18339080509788880838
34934 24 18410859828795775542
350125 39 18411695457553965421
351380 180 18411699872669374495
3545911 37 18408601444380390156
4214541 1 18412261757323304341
465052 167 17989199331066851819
495365 180 17240776055691334538
5104073 3 18340485659636463689
542803 24 17240479208541192681
69090 78 18335423443715024847
77779 3 18411980264908066750
7832392 63 18336551504106305942
9709674 26 18410568448986716159

> <PUBCHEM_SHAPE_MULTIPOLES>
415.45
10.21
2.27
0.83
2.78
0.31
0.22
-2.12
1.07
0.31
-0.14
-0.41
-0.11
0.44

> <PUBCHEM_SHAPE_SELFOVERLAP>
906.021

> <PUBCHEM_SHAPE_VOLUME>
225.5

> <PUBCHEM_COORDINATE_TYPE>
2
5
10

$$$$

