9613
  -OEChem-06261203523D

 16 15  0     0  0  0  0  0  0999 V2000
   -3.5624    0.3790   -0.1972 F   0  0  0  0  0  0  0  0  0  0  0  0
    3.7718   -0.1473   -0.2250 O   0  0  0  0  0  0  0  0  0  0  0  0
    1.4872   -0.2874    0.3094 N   0  0  0  0  0  0  0  0  0  0  0  0
   -0.7566    0.6866    0.3151 C   0  0  0  0  0  0  0  0  0  0  0  0
   -1.4108   -0.5589   -0.2901 C   0  0  0  0  0  0  0  0  0  0  0  0
    0.6911    0.8593   -0.1308 C   0  0  0  0  0  0  0  0  0  0  0  0
   -2.8484   -0.7155    0.1769 C   0  0  0  0  0  0  0  0  0  0  0  0
    2.6281   -0.2159    0.0417 C   0  0  0  0  0  0  0  0  0  0  0  0
   -0.7943    0.6198    1.4096 H   0  0  0  0  0  0  0  0  0  0  0  0
   -1.3252    1.5788    0.0272 H   0  0  0  0  0  0  0  0  0  0  0  0
   -1.3980   -0.4721   -1.3828 H   0  0  0  0  0  0  0  0  0  0  0  0
   -0.8511   -1.4610   -0.0206 H   0  0  0  0  0  0  0  0  0  0  0  0
    0.7269    0.9593   -1.2241 H   0  0  0  0  0  0  0  0  0  0  0  0
    1.0824    1.7894    0.3031 H   0  0  0  0  0  0  0  0  0  0  0  0
   -2.9115   -0.8069    1.2652 H   0  0  0  0  0  0  0  0  0  0  0  0
   -3.3136   -1.5937   -0.2792 H   0  0  0  0  0  0  0  0  0  0  0  0
  1  7  1  0  0  0  0
  2  8  2  0  0  0  0
  3  6  1  0  0  0  0
  3  8  2  0  0  0  0
  4  5  1  0  0  0  0
  4  6  1  0  0  0  0
  4  9  1  0  0  0  0
  4 10  1  0  0  0  0
  5  7  1  0  0  0  0
  5 11  1  0  0  0  0
  5 12  1  0  0  0  0
  6 13  1  0  0  0  0
  6 14  1  0  0  0  0
  7 15  1  0  0  0  0
  7 16  1  0  0  0  0
M  END
> <PUBCHEM_COMPOUND_CID>
9613

> <PUBCHEM_CONFORMER_RMSD>
0.6

> <PUBCHEM_CONFORMER_DIVERSEORDER>
1
52
18
26
48
31
45
17
51
39
10
50
54
2
30
40
43
38
19
34
21
53
29
23
46
3
36
24
8
13
55
49
44
32
6
9
47
35
22
4
14
15
33
20
42
11
27
41
25
12
16
37
7
5
28

> <PUBCHEM_MMFF94_PARTIAL_CHARGES>
6
1 -0.34
2 -0.49
3 -0.55
6 0.25
7 0.34
8 0.79

> <PUBCHEM_EFFECTIVE_ROTOR_COUNT>
4

> <PUBCHEM_PHARMACOPHORE_FEATURES>
1
1 3 acceptor

> <PUBCHEM_HEAVY_ATOM_COUNT>
8

> <PUBCHEM_ATOM_DEF_STEREO_COUNT>
0

> <PUBCHEM_ATOM_UDEF_STEREO_COUNT>
0

> <PUBCHEM_BOND_DEF_STEREO_COUNT>
0

> <PUBCHEM_BOND_UDEF_STEREO_COUNT>
0

> <PUBCHEM_ISOTOPIC_ATOM_COUNT>
0

> <PUBCHEM_COMPONENT_COUNT>
1

> <PUBCHEM_CACTVS_TAUTO_COUNT>
1

> <PUBCHEM_CONFORMER_ID>
0000258D00000001

> <PUBCHEM_MMFF94_ENERGY>
1.9066

> <PUBCHEM_FEATURE_SELFOVERLAP>
5.074

> <PUBCHEM_SHAPE_FINGERPRINT>
11062470 55 18411419513893498412
12932764 1 16486706778768003889
14390081 3 10375879571213040103
15310529 11 16199883833276528051
21293036 1 16988841661836010546
5460574 1 9223234048156045946

> <PUBCHEM_SHAPE_MULTIPOLES>
146.51
5.93
0.89
0.63
0.83
0.08
0.01
-0.92
-0.32
-0.22
0
-0.03
0
0.01

> <PUBCHEM_SHAPE_SELFOVERLAP>
268.075

> <PUBCHEM_SHAPE_VOLUME>
92

> <PUBCHEM_COORDINATE_TYPE>
2
5
10

$$$$

