14158117
  -OEChem-07051213093D

 41 42  0     1  0  0  0  0  0999 V2000
    2.5507   -0.7416    0.2316 O   0  0  0  0  0  0  0  0  0  0  0  0
    6.1826   -0.2693    0.2290 O   0  0  0  0  0  0  0  0  0  0  0  0
    5.1614    2.3966    0.6823 O   0  0  0  0  0  0  0  0  0  0  0  0
    2.6102    2.7799   -0.7407 O   0  0  0  0  0  0  0  0  0  0  0  0
    0.7680    0.7051   -0.1840 O   0  0  0  0  0  0  0  0  0  0  0  0
    3.3153   -3.3788    0.1024 O   0  0  0  0  0  0  0  0  0  0  0  0
    0.1916   -1.3359   -1.1003 O   0  0  0  0  0  0  0  0  0  0  0  0
   -7.8506    0.5981    0.6719 O   0  0  0  0  0  0  0  0  0  0  0  0
    4.8265    0.0305    0.5485 C   0  0  1  0  0  0  0  0  0  0  0  0
    4.4559    1.3898   -0.0450 C   0  0  1  0  0  0  0  0  0  0  0  0
    3.9203   -1.0703   -0.0079 C   0  0  1  0  0  0  0  0  0  0  0  0
    2.9525    1.6471    0.0574 C   0  0  2  0  0  0  0  0  0  0  0  0
    2.1477    0.4478   -0.4434 C   0  0  1  0  0  0  0  0  0  0  0  0
    4.1933   -2.4160    0.6565 C   0  0  0  0  0  0  0  0  0  0  0  0
   -0.0961   -0.2763   -0.5666 C   0  0  0  0  0  0  0  0  0  0  0  0
   -1.4655    0.1677   -0.2211 C   0  0  0  0  0  0  0  0  0  0  0  0
   -2.5068   -0.6337   -0.4877 C   0  0  0  0  0  0  0  0  0  0  0  0
   -3.9116   -0.3097   -0.1828 C   0  0  0  0  0  0  0  0  0  0  0  0
   -4.2742    1.0116    0.0220 C   0  0  0  0  0  0  0  0  0  0  0  0
   -4.8423   -1.3329   -0.1066 C   0  0  0  0  0  0  0  0  0  0  0  0
   -5.6040    1.3180    0.3110 C   0  0  0  0  0  0  0  0  0  0  0  0
   -6.1721   -1.0267    0.1824 C   0  0  0  0  0  0  0  0  0  0  0  0
   -6.5529    0.2988    0.3912 C   0  0  0  0  0  0  0  0  0  0  0  0
    4.7498    0.0772    1.6418 H   0  0  0  0  0  0  0  0  0  0  0  0
    4.7907    1.4685   -1.0867 H   0  0  0  0  0  0  0  0  0  0  0  0
    4.0650   -1.1908   -1.0902 H   0  0  0  0  0  0  0  0  0  0  0  0
    2.6786    1.8927    1.0903 H   0  0  0  0  0  0  0  0  0  0  0  0
    2.2715    0.3258   -1.5284 H   0  0  0  0  0  0  0  0  0  0  0  0
    4.0071   -2.3757    1.7349 H   0  0  0  0  0  0  0  0  0  0  0  0
    5.2212   -2.7497    0.4882 H   0  0  0  0  0  0  0  0  0  0  0  0
    6.2589   -0.3200   -0.7391 H   0  0  0  0  0  0  0  0  0  0  0  0
    6.1105    2.1974    0.6091 H   0  0  0  0  0  0  0  0  0  0  0  0
    2.8478    2.5822   -1.6628 H   0  0  0  0  0  0  0  0  0  0  0  0
    2.4058   -3.0695    0.2540 H   0  0  0  0  0  0  0  0  0  0  0  0
   -1.5617    1.1324    0.2632 H   0  0  0  0  0  0  0  0  0  0  0  0
   -2.3438   -1.6040   -0.9515 H   0  0  0  0  0  0  0  0  0  0  0  0
   -3.5749    1.8383   -0.0518 H   0  0  0  0  0  0  0  0  0  0  0  0
   -4.5609   -2.3706   -0.2653 H   0  0  0  0  0  0  0  0  0  0  0  0
   -5.8894    2.3550    0.4667 H   0  0  0  0  0  0  0  0  0  0  0  0
   -6.9068   -1.8249    0.2437 H   0  0  0  0  0  0  0  0  0  0  0  0
   -7.9345    1.5604    0.7862 H   0  0  0  0  0  0  0  0  0  0  0  0
  1 11  1  0  0  0  0
  1 13  1  0  0  0  0
  2  9  1  0  0  0  0
  2 31  1  0  0  0  0
  3 10  1  0  0  0  0
  3 32  1  0  0  0  0
  4 12  1  0  0  0  0
  4 33  1  0  0  0  0
  5 13  1  0  0  0  0
  5 15  1  0  0  0  0
  6 14  1  0  0  0  0
  6 34  1  0  0  0  0
  7 15  2  0  0  0  0
  8 23  1  0  0  0  0
  8 41  1  0  0  0  0
  9 10  1  0  0  0  0
  9 11  1  0  0  0  0
  9 24  1  0  0  0  0
 10 12  1  0  0  0  0
 10 25  1  0  0  0  0
 11 14  1  0  0  0  0
 11 26  1  0  0  0  0
 12 13  1  0  0  0  0
 12 27  1  0  0  0  0
 13 28  1  0  0  0  0
 14 29  1  0  0  0  0
 14 30  1  0  0  0  0
 15 16  1  0  0  0  0
 16 17  2  0  0  0  0
 16 35  1  0  0  0  0
 17 18  1  0  0  0  0
 17 36  1  0  0  0  0
 18 19  2  0  0  0  0
 18 20  1  0  0  0  0
 19 21  1  0  0  0  0
 19 37  1  0  0  0  0
 20 22  2  0  0  0  0
 20 38  1  0  0  0  0
 21 23  2  0  0  0  0
 21 39  1  0  0  0  0
 22 23  1  0  0  0  0
 22 40  1  0  0  0  0
M  END
> <PUBCHEM_COMPOUND_CID>
14158117

> <PUBCHEM_CONFORMER_RMSD>
0.8

> <PUBCHEM_CONFORMER_DIVERSEORDER>
1
72
40
33
73
25
48
21
87
35
13
83
3
47
54
28
79
32
58
93
42
89
20
15
63
81
70
67
17
61
53
29
66
84
9
43
46
4
44
38
88
57
8
41
76
36
94
30
77
34
78
23
75
68
2
6
27
59
74
69
92
55
52
5
11
85
49
91
37
10
60
65
80
64
14
18
62
86
45
90
39
51
22
24
19
7
50
12
16
31
56
71
26
82

> <PUBCHEM_MMFF94_PARTIAL_CHARGES>
34
1 -0.56
10 0.28
11 0.28
12 0.28
13 0.56
14 0.28
15 0.71
16 -0.14
17 -0.18
18 0.03
19 -0.15
2 -0.68
20 -0.15
21 -0.15
22 -0.15
23 0.08
3 -0.68
31 0.4
32 0.4
33 0.4
34 0.4
35 0.15
36 0.15
37 0.15
38 0.15
39 0.15
4 -0.68
40 0.15
41 0.45
5 -0.43
6 -0.68
7 -0.57
8 -0.53
9 0.28

> <PUBCHEM_EFFECTIVE_ROTOR_COUNT>
6.2

> <PUBCHEM_PHARMACOPHORE_FEATURES>
13
1 1 acceptor
1 2 acceptor
1 2 donor
1 3 acceptor
1 3 donor
1 4 acceptor
1 4 donor
1 6 acceptor
1 6 donor
1 7 acceptor
1 8 donor
6 1 9 10 11 12 13 rings
6 18 19 20 21 22 23 rings

> <PUBCHEM_HEAVY_ATOM_COUNT>
23

> <PUBCHEM_ATOM_DEF_STEREO_COUNT>
5

> <PUBCHEM_ATOM_UDEF_STEREO_COUNT>
0

> <PUBCHEM_BOND_DEF_STEREO_COUNT>
1

> <PUBCHEM_BOND_UDEF_STEREO_COUNT>
0

> <PUBCHEM_ISOTOPIC_ATOM_COUNT>
0

> <PUBCHEM_COMPONENT_COUNT>
1

> <PUBCHEM_CACTVS_TAUTO_COUNT>
2

> <PUBCHEM_CONFORMER_ID>
00D8092500000001

> <PUBCHEM_MMFF94_ENERGY>
62.1899

> <PUBCHEM_FEATURE_SELFOVERLAP>
65.985

> <PUBCHEM_SHAPE_FINGERPRINT>
10354089 29 18410575080758566756
10411042 1 18050850215869905338
10595046 47 18336265657063637581
10688039 33 18060421347523129860
12107183 9 17832422368964698121
12236239 1 18186803547746303061
12516196 113 12751240289914685807
12596602 18 18187364294466144683
12616971 3 18113344106875149503
13073987 5 18410009936340607937
13167372 99 18261388992479773305
13167823 11 18411421700565050295
13533116 47 18412824719892712810
13785724 45 17901379323075503326
14211702 104 17702934843631751283
14251764 18 18411700963147949693
14341114 176 18411979182877021005
14933364 13 18410291406748154977
15183329 4 18410575106612818769
15250474 111 18262250914959437679
15348495 7 17988073388658618865
15475509 35 16988296381874171626
17844677 252 18411132580409155845
1813 80 16773795922011379583
19427546 62 18198059180177612544
20157964 124 18409728456541331257
20281389 69 18409448090289175345
21130935 74 18410570700441162035
21267235 1 18410855504037995662
21859007 373 17701548522788094341
220451 1 18411133628433969335
22956985 138 14115864073873339200
23081809 10 17968100815858973511
23536379 177 18410573998611346777
23559900 14 18341614789137218171
3004659 81 18333725840594931846
312425 54 18060697304289018347
314173 85 16415480458981966655
3421961 26 18340773744979740474
351380 3 12535632652720228433
3663271 9 18408038503512899539
4073 2 18130220450441058651
4340502 62 18131636668772953074
5104073 3 18410002252828797115
8272917 22 18410011040057766110
9995097 60 18341900739797035501

> <PUBCHEM_SHAPE_MULTIPOLES>
426.37
18.68
2.43
0.77
20.43
0.55
-0.03
-1.5
4.55
-4.01
0.11
-0.04
0.01
-0.55

> <PUBCHEM_SHAPE_SELFOVERLAP>
893.91

> <PUBCHEM_SHAPE_VOLUME>
237.6

> <PUBCHEM_COORDINATE_TYPE>
2
5
10

$$$$

