9602
  -OEChem-06261203512D

 15 15  0     0  0  0  0  0  0999 V2000
    3.7320    2.2500    0.0000 Cl  0  0  0  0  0  0  0  0  0  0  0  0
    2.8660   -2.2500    0.0000 F   0  0  0  0  0  0  0  0  0  0  0  0
    2.8660    0.7500    0.0000 C   0  0  0  0  0  0  0  0  0  0  0  0
    2.0000    0.2500    0.0000 C   0  0  0  0  0  0  0  0  0  0  0  0
    3.7320    0.2500    0.0000 C   0  0  0  0  0  0  0  0  0  0  0  0
    2.8660    1.7500    0.0000 C   0  0  0  0  0  0  0  0  0  0  0  0
    2.0000   -0.7500    0.0000 C   0  0  0  0  0  0  0  0  0  0  0  0
    3.7320   -0.7500    0.0000 C   0  0  0  0  0  0  0  0  0  0  0  0
    2.8660   -1.2500    0.0000 C   0  0  0  0  0  0  0  0  0  0  0  0
    1.4631    0.5600    0.0000 H   0  0  0  0  0  0  0  0  0  0  0  0
    4.2690    0.5600    0.0000 H   0  0  0  0  0  0  0  0  0  0  0  0
    2.6540    2.3326    0.0000 H   0  0  0  0  0  0  0  0  0  0  0  0
    2.2554    1.6423    0.0000 H   0  0  0  0  0  0  0  0  0  0  0  0
    1.4631   -1.0600    0.0000 H   0  0  0  0  0  0  0  0  0  0  0  0
    4.2690   -1.0600    0.0000 H   0  0  0  0  0  0  0  0  0  0  0  0
  1  6  1  0  0  0  0
  2  9  1  0  0  0  0
  3  4  2  0  0  0  0
  3  5  1  0  0  0  0
  3  6  1  0  0  0  0
  4  7  1  0  0  0  0
  4 10  1  0  0  0  0
  5  8  2  0  0  0  0
  5 11  1  0  0  0  0
  6 12  1  0  0  0  0
  6 13  1  0  0  0  0
  7  9  2  0  0  0  0
  7 14  1  0  0  0  0
  8  9  1  0  0  0  0
  8 15  1  0  0  0  0
M  END
> <PUBCHEM_COMPOUND_CID>
9602

> <PUBCHEM_COMPOUND_CANONICALIZED>
1

> <PUBCHEM_CACTVS_COMPLEXITY>
77

> <PUBCHEM_CACTVS_HBOND_ACCEPTOR>
1

> <PUBCHEM_CACTVS_HBOND_DONOR>
0

> <PUBCHEM_CACTVS_ROTATABLE_BOND>
1

> <PUBCHEM_CACTVS_SUBSKEYS>
AAADcYBgAQAEAAAAAAAAAAAAAAAAAAAAAAAwAAAAAAAAAAABAAAAGQIAAAAADAOAGEgwAIAAAACAAiBCAAACAAAgAAAIiAAAAogIICKBERCAIAAggAAIiAcAgAAOAAAAAAAAAAAAAAAAAAAAAAAAAAAAAA==

> <PUBCHEM_IUPAC_OPENEYE_NAME>
1-(chloromethyl)-4-fluoro-benzene

> <PUBCHEM_IUPAC_CAS_NAME>
1-(chloromethyl)-4-fluorobenzene

> <PUBCHEM_IUPAC_NAME>
1-(chloromethyl)-4-fluorobenzene

> <PUBCHEM_IUPAC_SYSTEMATIC_NAME>
1-(chloromethyl)-4-fluoranyl-benzene

> <PUBCHEM_IUPAC_TRADITIONAL_NAME>
1-(chloromethyl)-4-fluoro-benzene

> <PUBCHEM_IUPAC_INCHI>
InChI=1S/C7H6ClF/c8-5-6-1-3-7(9)4-2-6/h1-4H,5H2

> <PUBCHEM_IUPAC_INCHIKEY>
IZXWCDITFDNEBY-UHFFFAOYSA-N

> <PUBCHEM_XLOGP3>
2.6

> <PUBCHEM_EXACT_MASS>
144.014206

> <PUBCHEM_MOLECULAR_FORMULA>
C7H6ClF

> <PUBCHEM_MOLECULAR_WEIGHT>
144.573943

> <PUBCHEM_OPENEYE_CAN_SMILES>
C1=CC(=CC=C1CCl)F

> <PUBCHEM_OPENEYE_ISO_SMILES>
C1=CC(=CC=C1CCl)F

> <PUBCHEM_CACTVS_TPSA>
0

> <PUBCHEM_MONOISOTOPIC_WEIGHT>
144.014206

> <PUBCHEM_TOTAL_CHARGE>
0

> <PUBCHEM_HEAVY_ATOM_COUNT>
9

> <PUBCHEM_ATOM_DEF_STEREO_COUNT>
0

> <PUBCHEM_ATOM_UDEF_STEREO_COUNT>
0

> <PUBCHEM_BOND_DEF_STEREO_COUNT>
0

> <PUBCHEM_BOND_UDEF_STEREO_COUNT>
0

> <PUBCHEM_ISOTOPIC_ATOM_COUNT>
0

> <PUBCHEM_COMPONENT_COUNT>
1

> <PUBCHEM_CACTVS_TAUTO_COUNT>
1

> <PUBCHEM_COORDINATE_TYPE>
1
5
255

> <PUBCHEM_BONDANNOTATIONS>
3  4  8
3  5  8
4  7  8
5  8  8
7  9  8
8  9  8

$$$$

