582895
  -OEChem-06241222443D

 36 39  0     1  0  0  0  0  0999 V2000
    1.0455    3.0455   -1.3679 S   0  0  0  0  0  0  0  0  0  0  0  0
   -1.0436   -3.0488   -1.3618 S   0  0  0  0  0  0  0  0  0  0  0  0
    0.5057    0.4449   -0.7333 N   0  0  0  0  0  0  0  0  0  0  0  0
   -0.5051   -0.4462   -0.7329 N   0  0  0  0  0  0  0  0  0  0  0  0
   -1.2841    1.7372   -1.3609 N   0  0  0  0  0  0  0  0  0  0  0  0
    1.2842   -1.7391   -1.3599 N   0  0  0  0  0  0  0  0  0  0  0  0
    1.6996   -0.2948   -1.1226 C   0  0  2  0  0  0  0  0  0  0  0  0
   -1.6991    0.2932   -1.1225 C   0  0  2  0  0  0  0  0  0  0  0  0
    0.0168    1.6592   -1.1451 C   0  0  0  0  0  0  0  0  0  0  0  0
   -0.0165   -1.6610   -1.1437 C   0  0  0  0  0  0  0  0  0  0  0  0
    2.7315   -0.2067   -0.0493 C   0  0  0  0  0  0  0  0  0  0  0  0
   -2.7314    0.2068   -0.0498 C   0  0  0  0  0  0  0  0  0  0  0  0
    3.6785    0.8173   -0.0747 C   0  0  0  0  0  0  0  0  0  0  0  0
   -3.6787   -0.8170   -0.0741 C   0  0  0  0  0  0  0  0  0  0  0  0
    2.7494   -1.1479    0.9801 C   0  0  0  0  0  0  0  0  0  0  0  0
   -2.7499    1.1494    0.9785 C   0  0  0  0  0  0  0  0  0  0  0  0
    4.6435    0.8999    0.9290 C   0  0  0  0  0  0  0  0  0  0  0  0
   -4.6442   -0.8981    0.9293 C   0  0  0  0  0  0  0  0  0  0  0  0
    3.7145   -1.0650    1.9840 C   0  0  0  0  0  0  0  0  0  0  0  0
   -3.7154    1.0681    1.9820 C   0  0  0  0  0  0  0  0  0  0  0  0
    4.6614   -0.0412    1.9584 C   0  0  0  0  0  0  0  0  0  0  0  0
   -4.6626    0.0444    1.9573 C   0  0  0  0  0  0  0  0  0  0  0  0
    2.0952    0.0736   -2.0779 H   0  0  0  0  0  0  0  0  0  0  0  0
   -2.0946   -0.0760   -2.0776 H   0  0  0  0  0  0  0  0  0  0  0  0
    3.6916    1.5475   -0.8780 H   0  0  0  0  0  0  0  0  0  0  0  0
   -3.6915   -1.5485   -0.8763 H   0  0  0  0  0  0  0  0  0  0  0  0
    2.0185   -1.9490    1.0394 H   0  0  0  0  0  0  0  0  0  0  0  0
   -2.0189    1.9505    1.0372 H   0  0  0  0  0  0  0  0  0  0  0  0
    0.0864    3.9025   -1.7469 H   0  0  0  0  0  0  0  0  0  0  0  0
   -0.0840   -3.9057   -1.7400 H   0  0  0  0  0  0  0  0  0  0  0  0
    5.3834    1.6945    0.9070 H   0  0  0  0  0  0  0  0  0  0  0  0
   -5.3843   -1.6927    0.9080 H   0  0  0  0  0  0  0  0  0  0  0  0
    3.7268   -1.7956    2.7875 H   0  0  0  0  0  0  0  0  0  0  0  0
   -3.7280    1.7998    2.7846 H   0  0  0  0  0  0  0  0  0  0  0  0
    5.4129    0.0231    2.7398 H   0  0  0  0  0  0  0  0  0  0  0  0
   -5.4144   -0.0187    2.7385 H   0  0  0  0  0  0  0  0  0  0  0  0
  1  9  1  0  0  0  0
  1 29  1  0  0  0  0
  2 10  1  0  0  0  0
  2 30  1  0  0  0  0
  3  4  1  0  0  0  0
  3  7  1  0  0  0  0
  3  9  1  0  0  0  0
  4  8  1  0  0  0  0
  4 10  1  0  0  0  0
  5  8  1  0  0  0  0
  5  9  2  0  0  0  0
  6  7  1  0  0  0  0
  6 10  2  0  0  0  0
  7 11  1  0  0  0  0
  7 23  1  0  0  0  0
  8 12  1  0  0  0  0
  8 24  1  0  0  0  0
 11 13  2  0  0  0  0
 11 15  1  0  0  0  0
 12 14  2  0  0  0  0
 12 16  1  0  0  0  0
 13 17  1  0  0  0  0
 13 25  1  0  0  0  0
 14 18  1  0  0  0  0
 14 26  1  0  0  0  0
 15 19  2  0  0  0  0
 15 27  1  0  0  0  0
 16 20  2  0  0  0  0
 16 28  1  0  0  0  0
 17 21  2  0  0  0  0
 17 31  1  0  0  0  0
 18 22  2  0  0  0  0
 18 32  1  0  0  0  0
 19 21  1  0  0  0  0
 19 33  1  0  0  0  0
 20 22  1  0  0  0  0
 20 34  1  0  0  0  0
 21 35  1  0  0  0  0
 22 36  1  0  0  0  0
M  END
> <PUBCHEM_COMPOUND_CID>
582895

> <PUBCHEM_CONFORMER_RMSD>
0.6

> <PUBCHEM_CONFORMER_DIVERSEORDER>
2
3
4
1
6
7
9
5
8

> <PUBCHEM_MMFF94_PARTIAL_CHARGES>
34
1 -0.32
10 0.64
11 -0.14
12 -0.14
13 -0.15
14 -0.15
15 -0.15
16 -0.15
17 -0.15
18 -0.15
19 -0.15
2 -0.32
20 -0.15
21 -0.15
22 -0.15
25 0.15
26 0.15
27 0.15
28 0.15
29 0.18
3 -0.42
30 0.18
31 0.15
32 0.15
33 0.15
34 0.15
35 0.15
36 0.15
4 -0.42
5 -0.7
6 -0.7
7 0.76
8 0.76
9 0.64

> <PUBCHEM_EFFECTIVE_ROTOR_COUNT>
2.4

> <PUBCHEM_PHARMACOPHORE_FEATURES>
6
3 3 5 9 cation
3 4 6 10 cation
5 3 4 5 8 9 rings
5 3 4 6 7 10 rings
6 11 13 15 17 19 21 rings
6 12 14 16 18 20 22 rings

> <PUBCHEM_HEAVY_ATOM_COUNT>
22

> <PUBCHEM_ATOM_DEF_STEREO_COUNT>
0

> <PUBCHEM_ATOM_UDEF_STEREO_COUNT>
2

> <PUBCHEM_BOND_DEF_STEREO_COUNT>
0

> <PUBCHEM_BOND_UDEF_STEREO_COUNT>
0

> <PUBCHEM_ISOTOPIC_ATOM_COUNT>
0

> <PUBCHEM_COMPONENT_COUNT>
1

> <PUBCHEM_CACTVS_TAUTO_COUNT>
3

> <PUBCHEM_CONFORMER_ID>
0008E4EF00000002

> <PUBCHEM_MMFF94_ENERGY>
81.466

> <PUBCHEM_FEATURE_SELFOVERLAP>
30.737

> <PUBCHEM_SHAPE_FINGERPRINT>
10498660 4 4750867113982958019
105312 117 5472851593256209376
10610426 29 15769774662762038799
10906281 52 18127698351319474461
11552529 35 17825126834532118070
11796584 16 15626229000635571625
12363563 72 17274812571689341705
12553582 1 18130776871917277399
12596602 18 18410573946512577138
12633257 1 18114195102946871824
12644460 14 17987504923492916468
13083527 12 18200872881788271189
13140716 1 18122626050344091996
13544653 18 16917068875495406840
13583140 156 17703523120167916572
13965767 371 18118960527748694921
14178342 30 18263348335190574467
14341114 328 18334574624864193744
14787075 74 17346312657739992440
14848178 5 15770059423367632281
14955137 171 18339061710791002556
15163728 17 14129611104546677176
15209294 21 17748827418901269551
15375462 189 18059579048980850556
15475509 35 16700585950163214513
15534591 1 15719687497174885965
18222031 100 18341890788136147647
193927 3 15697990877152549842
19862831 5 9295289438891581837
20261772 1 18412270514877704330
20671657 53 13398620645947801111
20739085 24 18264752411006338990
20775530 9 15409220739844886978
21033648 29 17894628201120525065
21069387 34 14261341483693422613
21475661 188 16732987552167789057
21756936 100 16805620131205873994
21864079 5 16516269369642579074
22079108 93 17313387803394527939
22182313 1 18266741470348182478
22620623 9 13038643897393898015
23114952 82 6121965797527158721
23227448 37 16154004438627838961
23379529 103 12750080283815607593
23559900 14 17972292248435939887
25147074 1 18050567339614667519
25222932 49 16983458341533189123
2748010 2 18122626316632064935
2838139 119 14923948976459958616
392239 28 17532089402471204275
394222 165 17981576322241160645
427121 178 17749378282690470142
4463277 69 15195562398942484818
463206 1 16271348705233217963
474 4 17095528382985577736
5262128 65 12390927031105585927
56616090 13 15791741805557811211
633830 44 16660648483395606332
6442390 28 17603581911429288126
7064713 232 18186514393526296627
7808743 9 17532097103199353320
90316 7 18270977820220936316
9981440 41 17689192253168300156
999808 66 17985557895307999466

> <PUBCHEM_SHAPE_MULTIPOLES>
440.52
9.14
2.5
2.12
0.01
0
0.74
0
8.1
0
-1.62
0
0
-1.1

> <PUBCHEM_SHAPE_SELFOVERLAP>
950.528

> <PUBCHEM_SHAPE_VOLUME>
247.9

> <PUBCHEM_COORDINATE_TYPE>
2
5
10

$$$$

