5281778
  -OEChem-07051212593D

 82 85  0     1  0  0  0  0  0999 V2000
   -0.0521   -1.9736    0.8776 O   0  0  0  0  0  0  0  0  0  0  0  0
    2.8274    0.4523   -0.7628 O   0  0  0  0  0  0  0  0  0  0  0  0
   -1.9707   -2.0911   -0.4448 O   0  0  0  0  0  0  0  0  0  0  0  0
   -0.8215    0.4767   -0.4490 O   0  0  0  0  0  0  0  0  0  0  0  0
    4.4072   -1.2639   -0.7113 O   0  0  0  0  0  0  0  0  0  0  0  0
    2.3171   -3.1494   -0.4205 O   0  0  0  0  0  0  0  0  0  0  0  0
   -0.9121   -4.2695    2.2908 O   0  0  0  0  0  0  0  0  0  0  0  0
   -3.8458   -4.5417    2.2655 O   0  0  0  0  0  0  0  0  0  0  0  0
   -4.8572   -4.3454   -0.4354 O   0  0  0  0  0  0  0  0  0  0  0  0
    2.3363    2.9555   -1.7868 O   0  0  0  0  0  0  0  0  0  0  0  0
   -2.9480   -1.5299   -2.9521 O   0  0  0  0  0  0  0  0  0  0  0  0
    7.5564   -0.5550   -2.4243 O   0  0  0  0  0  0  0  0  0  0  0  0
   -1.1620    1.3883    1.6464 O   0  0  0  0  0  0  0  0  0  0  0  0
    6.5522    3.7508    0.3155 O   0  0  0  0  0  0  0  0  0  0  0  0
    7.5741    2.9518    2.7740 O   0  0  0  0  0  0  0  0  0  0  0  0
   -8.4220    3.1031    1.8115 O   0  0  0  0  0  0  0  0  0  0  0  0
   -9.0345    3.2506   -0.8950 O   0  0  0  0  0  0  0  0  0  0  0  0
    0.6923   -1.3806   -0.1877 C   0  0  1  0  0  0  0  0  0  0  0  0
    0.5175    0.1356   -0.0998 C   0  0  1  0  0  0  0  0  0  0  0  0
    2.1635   -1.7762   -0.0624 C   0  0  2  0  0  0  0  0  0  0  0  0
    1.4849    0.8496   -1.0469 C   0  0  1  0  0  0  0  0  0  0  0  0
   -1.0755   -2.8344    0.3790 C   0  0  2  0  0  0  0  0  0  0  0  0
   -1.8170   -3.4271    1.5771 C   0  0  1  0  0  0  0  0  0  0  0  0
    3.0454   -0.9385   -0.9883 C   0  0  1  0  0  0  0  0  0  0  0  0
   -3.0286   -4.2462    1.1317 C   0  0  2  0  0  0  0  0  0  0  0  0
   -3.8794   -3.4726    0.1243 C   0  0  1  0  0  0  0  0  0  0  0  0
   -3.0085   -2.9026   -0.9977 C   0  0  1  0  0  0  0  0  0  0  0  0
    1.4112    2.3654   -0.8920 C   0  0  0  0  0  0  0  0  0  0  0  0
   -3.8169   -2.0287   -1.9516 C   0  0  0  0  0  0  0  0  0  0  0  0
    5.2539   -0.9021   -1.7911 C   0  0  0  0  0  0  0  0  0  0  0  0
   -1.5453    1.0997    0.5239 C   0  0  0  0  0  0  0  0  0  0  0  0
    6.7076   -0.8651   -1.3212 C   0  0  2  0  0  0  0  0  0  0  0  0
    6.9379    0.1570   -0.2299 C   0  0  0  0  0  0  0  0  0  0  0  0
   -2.8961    1.3702   -0.0187 C   0  0  0  0  0  0  0  0  0  0  0  0
    6.6375    1.5000   -0.4572 C   0  0  0  0  0  0  0  0  0  0  0  0
    7.4508   -0.2439    1.0038 C   0  0  0  0  0  0  0  0  0  0  0  0
   -3.8073    1.9811    0.7518 C   0  0  0  0  0  0  0  0  0  0  0  0
    6.8497    2.4422    0.5493 C   0  0  0  0  0  0  0  0  0  0  0  0
    7.6632    0.6983    2.0102 C   0  0  0  0  0  0  0  0  0  0  0  0
   -5.1776    2.3132    0.3237 C   0  0  0  0  0  0  0  0  0  0  0  0
    7.3625    2.0414    1.7830 C   0  0  0  0  0  0  0  0  0  0  0  0
   -6.1668    2.5553    1.2770 C   0  0  0  0  0  0  0  0  0  0  0  0
   -5.4856    2.3859   -1.0347 C   0  0  0  0  0  0  0  0  0  0  0  0
   -7.4638    2.8701    0.8718 C   0  0  0  0  0  0  0  0  0  0  0  0
   -6.7827    2.7004   -1.4399 C   0  0  0  0  0  0  0  0  0  0  0  0
   -7.7718    2.9427   -0.4868 C   0  0  0  0  0  0  0  0  0  0  0  0
    0.3204   -1.7273   -1.1627 H   0  0  0  0  0  0  0  0  0  0  0  0
    0.7630    0.4294    0.9300 H   0  0  0  0  0  0  0  0  0  0  0  0
    2.4954   -1.6808    0.9782 H   0  0  0  0  0  0  0  0  0  0  0  0
    1.2613    0.6042   -2.0940 H   0  0  0  0  0  0  0  0  0  0  0  0
   -0.5972   -3.6306   -0.2080 H   0  0  0  0  0  0  0  0  0  0  0  0
   -2.1230   -2.6334    2.2690 H   0  0  0  0  0  0  0  0  0  0  0  0
    2.8260   -1.1858   -2.0368 H   0  0  0  0  0  0  0  0  0  0  0  0
   -2.7175   -5.2132    0.7193 H   0  0  0  0  0  0  0  0  0  0  0  0
   -4.4165   -2.6659    0.6381 H   0  0  0  0  0  0  0  0  0  0  0  0
   -2.5453   -3.7071   -1.5851 H   0  0  0  0  0  0  0  0  0  0  0  0
    1.6892    2.6679    0.1231 H   0  0  0  0  0  0  0  0  0  0  0  0
    0.4121    2.7463   -1.1229 H   0  0  0  0  0  0  0  0  0  0  0  0
   -4.2514   -1.1728   -1.4256 H   0  0  0  0  0  0  0  0  0  0  0  0
   -4.6171   -2.5974   -2.4347 H   0  0  0  0  0  0  0  0  0  0  0  0
    2.0212   -3.2567   -1.3406 H   0  0  0  0  0  0  0  0  0  0  0  0
   -0.6269   -4.9810    1.6925 H   0  0  0  0  0  0  0  0  0  0  0  0
   -4.1243   -3.7001    2.6651 H   0  0  0  0  0  0  0  0  0  0  0  0
   -4.3905   -5.0572   -0.9056 H   0  0  0  0  0  0  0  0  0  0  0  0
    4.9609    0.0630   -2.2235 H   0  0  0  0  0  0  0  0  0  0  0  0
    5.1444   -1.6454   -2.5907 H   0  0  0  0  0  0  0  0  0  0  0  0
    2.2776    3.9187   -1.6667 H   0  0  0  0  0  0  0  0  0  0  0  0
    6.9911   -1.8588   -0.9534 H   0  0  0  0  0  0  0  0  0  0  0  0
   -3.4801   -0.9663   -3.5392 H   0  0  0  0  0  0  0  0  0  0  0  0
   -3.0917    1.0501   -1.0350 H   0  0  0  0  0  0  0  0  0  0  0  0
    7.4136   -1.2351   -3.1045 H   0  0  0  0  0  0  0  0  0  0  0  0
    6.2472    1.8207   -1.4196 H   0  0  0  0  0  0  0  0  0  0  0  0
    7.6893   -1.2865    1.1961 H   0  0  0  0  0  0  0  0  0  0  0  0
   -3.5601    2.2618    1.7731 H   0  0  0  0  0  0  0  0  0  0  0  0
    8.0631    0.3724    2.9667 H   0  0  0  0  0  0  0  0  0  0  0  0
   -5.9309    2.4981    2.3375 H   0  0  0  0  0  0  0  0  0  0  0  0
   -4.7441    2.2243   -1.8115 H   0  0  0  0  0  0  0  0  0  0  0  0
    6.2064    3.8412   -0.5890 H   0  0  0  0  0  0  0  0  0  0  0  0
    7.9314    2.4937    3.5539 H   0  0  0  0  0  0  0  0  0  0  0  0
   -7.0084    2.7579   -2.5015 H   0  0  0  0  0  0  0  0  0  0  0  0
   -8.0286    3.0090    2.6960 H   0  0  0  0  0  0  0  0  0  0  0  0
   -9.0607    3.2551   -1.8673 H   0  0  0  0  0  0  0  0  0  0  0  0
  1 18  1  0  0  0  0
  1 22  1  0  0  0  0
  2 21  1  0  0  0  0
  2 24  1  0  0  0  0
  3 22  1  0  0  0  0
  3 27  1  0  0  0  0
  4 19  1  0  0  0  0
  4 31  1  0  0  0  0
  5 24  1  0  0  0  0
  5 30  1  0  0  0  0
  6 20  1  0  0  0  0
  6 61  1  0  0  0  0
  7 23  1  0  0  0  0
  7 62  1  0  0  0  0
  8 25  1  0  0  0  0
  8 63  1  0  0  0  0
  9 26  1  0  0  0  0
  9 64  1  0  0  0  0
 10 28  1  0  0  0  0
 10 67  1  0  0  0  0
 11 29  1  0  0  0  0
 11 69  1  0  0  0  0
 12 32  1  0  0  0  0
 12 71  1  0  0  0  0
 13 31  2  0  0  0  0
 14 38  1  0  0  0  0
 14 78  1  0  0  0  0
 15 41  1  0  0  0  0
 15 79  1  0  0  0  0
 16 44  1  0  0  0  0
 16 81  1  0  0  0  0
 17 46  1  0  0  0  0
 17 82  1  0  0  0  0
 18 19  1  0  0  0  0
 18 20  1  0  0  0  0
 18 47  1  0  0  0  0
 19 21  1  0  0  0  0
 19 48  1  0  0  0  0
 20 24  1  0  0  0  0
 20 49  1  0  0  0  0
 21 28  1  0  0  0  0
 21 50  1  0  0  0  0
 22 23  1  0  0  0  0
 22 51  1  0  0  0  0
 23 25  1  0  0  0  0
 23 52  1  0  0  0  0
 24 53  1  0  0  0  0
 25 26  1  0  0  0  0
 25 54  1  0  0  0  0
 26 27  1  0  0  0  0
 26 55  1  0  0  0  0
 27 29  1  0  0  0  0
 27 56  1  0  0  0  0
 28 57  1  0  0  0  0
 28 58  1  0  0  0  0
 29 59  1  0  0  0  0
 29 60  1  0  0  0  0
 30 32  1  0  0  0  0
 30 65  1  0  0  0  0
 30 66  1  0  0  0  0
 31 34  1  0  0  0  0
 32 33  1  0  0  0  0
 32 68  1  0  0  0  0
 33 35  2  0  0  0  0
 33 36  1  0  0  0  0
 34 37  2  0  0  0  0
 34 70  1  0  0  0  0
 35 38  1  0  0  0  0
 35 72  1  0  0  0  0
 36 39  2  0  0  0  0
 36 73  1  0  0  0  0
 37 40  1  0  0  0  0
 37 74  1  0  0  0  0
 38 41  2  0  0  0  0
 39 41  1  0  0  0  0
 39 75  1  0  0  0  0
 40 42  2  0  0  0  0
 40 43  1  0  0  0  0
 42 44  1  0  0  0  0
 42 76  1  0  0  0  0
 43 45  2  0  0  0  0
 43 77  1  0  0  0  0
 44 46  2  0  0  0  0
 45 46  1  0  0  0  0
 45 80  1  0  0  0  0
M  END
> <PUBCHEM_COMPOUND_CID>
5281778

> <PUBCHEM_CONFORMER_RMSD>
1.4

> <PUBCHEM_CONFORMER_DIVERSEORDER>
1
7
12
10
9
13
5
11
8
6
4
3
2

> <PUBCHEM_MMFF94_PARTIAL_CHARGES>
65
1 -0.56
10 -0.68
11 -0.68
12 -0.68
13 -0.57
14 -0.53
15 -0.53
16 -0.53
17 -0.53
18 0.28
19 0.28
2 -0.56
20 0.28
21 0.28
22 0.56
23 0.28
24 0.56
25 0.28
26 0.28
27 0.28
28 0.28
29 0.28
3 -0.56
30 0.28
31 0.71
32 0.42
33 -0.14
34 -0.14
35 -0.15
36 -0.15
37 -0.18
38 0.08
39 -0.15
4 -0.43
40 0.03
41 0.08
42 -0.15
43 -0.15
44 0.08
45 -0.15
46 0.08
5 -0.56
6 -0.68
61 0.4
62 0.4
63 0.4
64 0.4
67 0.4
69 0.4
7 -0.68
70 0.15
71 0.4
72 0.15
73 0.15
74 0.15
75 0.15
76 0.15
77 0.15
78 0.45
79 0.45
8 -0.68
80 0.15
81 0.45
82 0.45
9 -0.68

> <PUBCHEM_EFFECTIVE_ROTOR_COUNT>
14.4

> <PUBCHEM_PHARMACOPHORE_FEATURES>
27
1 1 acceptor
1 10 acceptor
1 10 donor
1 11 acceptor
1 11 donor
1 12 acceptor
1 12 donor
1 13 acceptor
1 14 donor
1 15 donor
1 16 donor
1 17 donor
1 2 acceptor
1 3 acceptor
1 5 acceptor
1 6 acceptor
1 6 donor
1 7 acceptor
1 7 donor
1 8 acceptor
1 8 donor
1 9 acceptor
1 9 donor
6 2 18 19 20 21 24 rings
6 3 22 23 25 26 27 rings
6 33 35 36 38 39 41 rings
6 40 42 43 44 45 46 rings

> <PUBCHEM_HEAVY_ATOM_COUNT>
46

> <PUBCHEM_ATOM_DEF_STEREO_COUNT>
11

> <PUBCHEM_ATOM_UDEF_STEREO_COUNT>
0

> <PUBCHEM_BOND_DEF_STEREO_COUNT>
1

> <PUBCHEM_BOND_UDEF_STEREO_COUNT>
0

> <PUBCHEM_ISOTOPIC_ATOM_COUNT>
0

> <PUBCHEM_COMPONENT_COUNT>
1

> <PUBCHEM_CACTVS_TAUTO_COUNT>
51

> <PUBCHEM_CONFORMER_ID>
005097F200000001

> <PUBCHEM_MMFF94_ENERGY>
130.5127

> <PUBCHEM_FEATURE_SELFOVERLAP>
137.136

> <PUBCHEM_SHAPE_FINGERPRINT>
11007060 377 18261670463156177057
12925494 130 18334018251287002472
13150687 139 18261666099178903399
14190465 44 18410287008659855284
15131766 46 15838130111377036518
15840311 113 17894911875780497820
21223535 225 18409733941515599719

> <PUBCHEM_SHAPE_MULTIPOLES>
846.88
25.39
6.26
2.15
11.44
4.79
-0.16
-29.48
-3.66
-10.77
-2.45
1.2
0.38
2.71

> <PUBCHEM_SHAPE_SELFOVERLAP>
1796.079

> <PUBCHEM_SHAPE_VOLUME>
465.2

> <PUBCHEM_COORDINATE_TYPE>
2
5
10

$$$$

