13291
  -OEChem-06261208362D

 43 42  0     0  0  0  0  0  0999 V2000
    8.2700    4.1200    0.0000 Cl  0  0  0  0  0  0  0  0  0  0  0  0
    2.2690    4.1200    0.0000 O   0  0  0  0  0  0  0  0  0  0  0  0
    3.1350    6.6200    0.0000 N   0  0  0  0  0  0  0  0  0  0  0  0
    4.0010    5.1200    0.0000 N   0  0  0  0  0  0  0  0  0  0  0  0
    2.2690    5.1200    0.0000 N   0  0  0  0  0  0  0  0  0  0  0  0
    2.2690    7.1200    0.0000 C   0  0  0  0  0  0  0  0  0  0  0  0
    4.8671    5.6200    0.0000 C   0  0  0  0  0  0  0  0  0  0  0  0
    3.1350    5.6200    0.0000 C   0  0  0  0  0  0  0  0  0  0  0  0
    2.2690    8.1200    0.0000 C   0  0  0  0  0  0  0  0  0  0  0  0
    1.4030    6.6200    0.0000 C   0  0  0  0  0  0  0  0  0  0  0  0
    5.7331    5.1200    0.0000 C   0  0  0  0  0  0  0  0  0  0  0  0
    4.8671    6.6200    0.0000 C   0  0  0  0  0  0  0  0  0  0  0  0
    1.4030    3.6200    0.0000 C   0  0  0  0  0  0  0  0  0  0  0  0
    1.4030    2.6200    0.0000 C   0  0  0  0  0  0  0  0  0  0  0  0
    0.5369    2.1200    0.0000 C   0  0  0  0  0  0  0  0  0  0  0  0
    2.2690    2.1200    0.0000 C   0  0  0  0  0  0  0  0  0  0  0  0
    0.5369    1.1200    0.0000 C   0  0  0  0  0  0  0  0  0  0  0  0
    2.2690    1.1200    0.0000 C   0  0  0  0  0  0  0  0  0  0  0  0
    1.4030    0.6200    0.0000 C   0  0  0  0  0  0  0  0  0  0  0  0
    2.2690    6.5000    0.0000 H   0  0  0  0  0  0  0  0  0  0  0  0
    3.6720    6.9300    0.0000 H   0  0  0  0  0  0  0  0  0  0  0  0
    4.3301    5.9300    0.0000 H   0  0  0  0  0  0  0  0  0  0  0  0
    2.8890    8.1200    0.0000 H   0  0  0  0  0  0  0  0  0  0  0  0
    2.2690    8.7400    0.0000 H   0  0  0  0  0  0  0  0  0  0  0  0
    1.6490    8.1200    0.0000 H   0  0  0  0  0  0  0  0  0  0  0  0
    1.0930    7.1569    0.0000 H   0  0  0  0  0  0  0  0  0  0  0  0
    0.8660    6.3100    0.0000 H   0  0  0  0  0  0  0  0  0  0  0  0
    1.7130    6.0831    0.0000 H   0  0  0  0  0  0  0  0  0  0  0  0
    5.4231    4.5831    0.0000 H   0  0  0  0  0  0  0  0  0  0  0  0
    6.2700    4.8100    0.0000 H   0  0  0  0  0  0  0  0  0  0  0  0
    6.0431    5.6569    0.0000 H   0  0  0  0  0  0  0  0  0  0  0  0
    5.4871    6.6200    0.0000 H   0  0  0  0  0  0  0  0  0  0  0  0
    4.8671    7.2400    0.0000 H   0  0  0  0  0  0  0  0  0  0  0  0
    4.2471    6.6200    0.0000 H   0  0  0  0  0  0  0  0  0  0  0  0
    1.7320    5.4300    0.0000 H   0  0  0  0  0  0  0  0  0  0  0  0
    1.1909    4.2026    0.0000 H   0  0  0  0  0  0  0  0  0  0  0  0
    0.7924    3.5123    0.0000 H   0  0  0  0  0  0  0  0  0  0  0  0
    0.0000    2.4300    0.0000 H   0  0  0  0  0  0  0  0  0  0  0  0
    2.8059    2.4300    0.0000 H   0  0  0  0  0  0  0  0  0  0  0  0
    0.0000    0.8100    0.0000 H   0  0  0  0  0  0  0  0  0  0  0  0
    2.8059    0.8100    0.0000 H   0  0  0  0  0  0  0  0  0  0  0  0
    1.4030    0.0000    0.0000 H   0  0  0  0  0  0  0  0  0  0  0  0
    9.2700    4.1200    0.0000 H   0  0  0  0  0  0  0  0  0  0  0  0
  1 43  1  0  0  0  0
  2  5  1  0  0  0  0
  2 13  1  0  0  0  0
  3  6  1  0  0  0  0
  3  8  1  0  0  0  0
  3 21  1  0  0  0  0
  4  7  1  0  0  0  0
  4  8  2  0  0  0  0
  5  8  1  0  0  0  0
  5 35  1  0  0  0  0
  6  9  1  0  0  0  0
  6 10  1  0  0  0  0
  6 20  1  0  0  0  0
  7 11  1  0  0  0  0
  7 12  1  0  0  0  0
  7 22  1  0  0  0  0
  9 23  1  0  0  0  0
  9 24  1  0  0  0  0
  9 25  1  0  0  0  0
 10 26  1  0  0  0  0
 10 27  1  0  0  0  0
 10 28  1  0  0  0  0
 11 29  1  0  0  0  0
 11 30  1  0  0  0  0
 11 31  1  0  0  0  0
 12 32  1  0  0  0  0
 12 33  1  0  0  0  0
 12 34  1  0  0  0  0
 13 14  1  0  0  0  0
 13 36  1  0  0  0  0
 13 37  1  0  0  0  0
 14 15  2  0  0  0  0
 14 16  1  0  0  0  0
 15 17  1  0  0  0  0
 15 38  1  0  0  0  0
 16 18  2  0  0  0  0
 16 39  1  0  0  0  0
 17 19  2  0  0  0  0
 17 40  1  0  0  0  0
 18 19  1  0  0  0  0
 18 41  1  0  0  0  0
 19 42  1  0  0  0  0
M  END
> <PUBCHEM_COMPOUND_CID>
13291

> <PUBCHEM_COMPOUND_CANONICALIZED>
1

> <PUBCHEM_CACTVS_COMPLEXITY>
245

> <PUBCHEM_CACTVS_HBOND_ACCEPTOR>
2

> <PUBCHEM_CACTVS_HBOND_DONOR>
3

> <PUBCHEM_CACTVS_ROTATABLE_BOND>
7

> <PUBCHEM_CACTVS_SUBSKEYS>
AAADceBzIAAEAAAAAAAAAAAAAAAAAAAAAAAwAAAAAAAAAAABAAAAHgAUAAAADCjhmAYzAILQAACgAiBCJAACAAEgAAAJiIAICIiIJiKAGRCAMAAk0AMIiAeAwCAOAAAAAAAAAAAAAAAAAAAAAAAAAAAAAA==

> <PUBCHEM_IUPAC_OPENEYE_NAME>
1-benzyloxy-2,3-diisopropyl-guanidine hydrochloride

> <PUBCHEM_IUPAC_CAS_NAME>
1-phenylmethoxy-2,3-di(propan-2-yl)guanidine hydrochloride

> <PUBCHEM_IUPAC_NAME>
1-phenylmethoxy-2,3-di(propan-2-yl)guanidine hydrochloride

> <PUBCHEM_IUPAC_SYSTEMATIC_NAME>
1-phenylmethoxy-2,3-di(propan-2-yl)guanidine hydrochloride

> <PUBCHEM_IUPAC_TRADITIONAL_NAME>
1-benzoxy-2,3-diisopropyl-guanidine hydrochloride

> <PUBCHEM_IUPAC_INCHI>
InChI=1S/C14H23N3O.ClH/c1-11(2)15-14(16-12(3)4)17-18-10-13-8-6-5-7-9-13;/h5-9,11-12H,10H2,1-4H3,(H2,15,16,17);1H

> <PUBCHEM_IUPAC_INCHIKEY>
SQWVAGNZXNFVHS-UHFFFAOYSA-N

> <PUBCHEM_EXACT_MASS>
285.16079

> <PUBCHEM_MOLECULAR_FORMULA>
C14H24ClN3O

> <PUBCHEM_MOLECULAR_WEIGHT>
285.81286

> <PUBCHEM_OPENEYE_CAN_SMILES>
CC(C)NC(=NC(C)C)NOCC1=CC=CC=C1.Cl

> <PUBCHEM_OPENEYE_ISO_SMILES>
CC(C)NC(=NC(C)C)NOCC1=CC=CC=C1.Cl

> <PUBCHEM_CACTVS_TPSA>
45.6

> <PUBCHEM_MONOISOTOPIC_WEIGHT>
285.16079

> <PUBCHEM_TOTAL_CHARGE>
0

> <PUBCHEM_HEAVY_ATOM_COUNT>
19

> <PUBCHEM_ATOM_DEF_STEREO_COUNT>
0

> <PUBCHEM_ATOM_UDEF_STEREO_COUNT>
0

> <PUBCHEM_BOND_DEF_STEREO_COUNT>
0

> <PUBCHEM_BOND_UDEF_STEREO_COUNT>
0

> <PUBCHEM_ISOTOPIC_ATOM_COUNT>
0

> <PUBCHEM_COMPONENT_COUNT>
2

> <PUBCHEM_CACTVS_TAUTO_COUNT>
2

> <PUBCHEM_COORDINATE_TYPE>
1
5
255

> <PUBCHEM_BONDANNOTATIONS>
14  15  8
14  16  8
15  17  8
16  18  8
17  19  8
18  19  8

$$$$

